# generated using pymatgen
data_Sm3Ge13Pt4
_symmetry_space_group_name_H-M   'P 1'
_cell_length_a   9.15346004
_cell_length_b   9.15346004
_cell_length_c   9.21294187
_cell_angle_alpha   89.60562498
_cell_angle_beta   89.60562498
_cell_angle_gamma   89.91785136
_symmetry_Int_Tables_number   1
_chemical_formula_structural   Sm3Ge13Pt4
_chemical_formula_sum   'Sm6 Ge26 Pt8'
_cell_volume   771.87667413
_cell_formula_units_Z   2
loop_
 _symmetry_equiv_pos_site_id
 _symmetry_equiv_pos_as_xyz
  1  'x, y, z'
loop_
 _atom_site_type_symbol
 _atom_site_label
 _atom_site_symmetry_multiplicity
 _atom_site_fract_x
 _atom_site_fract_y
 _atom_site_fract_z
 _atom_site_occupancy
  Sm  Sm0  1  0.00015900  0.00066100  0.49495600  1
  Sm  Sm1  1  0.00066100  0.00015900  0.99495600  1
  Sm  Sm2  1  0.50057000  0.25330500  0.75010700  1
  Sm  Sm3  1  0.25330500  0.50057000  0.25010700  1
  Sm  Sm4  1  0.74359100  0.50002200  0.24597700  1
  Sm  Sm5  1  0.50002200  0.74359100  0.74597700  1
  Ge  Ge0  1  0.50383800  0.99496900  0.24797600  1
  Ge  Ge1  1  0.99496900  0.50383800  0.74797600  1
  Ge  Ge2  1  0.82921000  0.85130900  0.74230000  1
  Ge  Ge3  1  0.85130900  0.82921000  0.24230000  1
  Ge  Ge4  1  0.15625100  0.83365200  0.24611000  1
  Ge  Ge5  1  0.83365200  0.15625100  0.74611000  1
  Ge  Ge6  1  0.49740100  0.32621900  0.39393600  1
  Ge  Ge7  1  0.32621900  0.49740100  0.89393600  1
  Ge  Ge8  1  0.99615000  0.61487600  0.48854000  1
  Ge  Ge9  1  0.61487600  0.99615000  0.98854000  1
  Ge  Ge10  1  0.33326000  0.99990300  0.89936600  1
  Ge  Ge11  1  0.99990300  0.33326000  0.39936600  1
  Ge  Ge12  1  0.73728300  0.49683000  0.85900100  1
  Ge  Ge13  1  0.49683000  0.73728300  0.35900100  1
  Ge  Ge14  1  0.32973500  0.99948600  0.59945200  1
  Ge  Ge15  1  0.99948600  0.32973500  0.09945200  1
  Ge  Ge16  1  0.12356500  0.77880500  0.74778300  1
  Ge  Ge17  1  0.77880500  0.12356500  0.24778300  1
  Ge  Ge18  1  0.00489900  0.61553100  0.01364400  1
  Ge  Ge19  1  0.61553100  0.00489900  0.51364400  1
  Ge  Ge20  1  0.49921900  0.33140500  0.09017400  1
  Ge  Ge21  1  0.33140500  0.49921900  0.59017400  1
  Ge  Ge22  1  0.25124900  0.11316300  0.24934500  1
  Ge  Ge23  1  0.11316300  0.25124900  0.74934500  1
  Ge  Ge24  1  0.65391300  0.50505100  0.58032800  1
  Ge  Ge25  1  0.50505100  0.65391300  0.08032800  1
  Pt  Pt0  1  0.74936400  0.25192300  0.49624100  1
  Pt  Pt1  1  0.25192300  0.74936400  0.99624100  1
  Pt  Pt2  1  0.25037600  0.74868200  0.49690400  1
  Pt  Pt3  1  0.74868200  0.25037600  0.99690400  1
  Pt  Pt4  1  0.24679800  0.24543900  0.49977700  1
  Pt  Pt5  1  0.24543900  0.24679800  0.99977700  1
  Pt  Pt6  1  0.75435000  0.74958800  0.99108300  1
  Pt  Pt7  1  0.74958800  0.75435000  0.49108300  1
loop_
_geom_bond_atom_site_label_1
_geom_bond_atom_site_label_2
_geom_bond_distance
_geom_bond_site_symmetry_2
Ge0 Ge22 2.551251 1_565
Ge0 Ge13 2.565198 1_555
Ge0 Ge9 2.590809 1_554
Ge0 Ge19 2.661195 1_565
Ge0 Ge17 2.780063 1_565
Ge1 Ge23 2.551251 1_655
Ge1 Ge12 2.565198 1_555
Ge1 Ge8 2.590809 1_555
Ge1 Ge18 2.661195 1_656
Ge1 Ge16 2.780063 1_655
Ge2 Pt6 2.557476 1_555
Ge2 Pt7 2.594006 1_555
Ge2 Ge5 2.792095 1_565
Ge2 Sm0 3.069916 1_665
Ge2 Sm1 3.136494 1_665
Ge2 Sm5 3.171658 1_555
Ge3 Pt7 2.557476 1_555
Ge3 Pt6 2.594006 1_554
Ge3 Ge4 2.792095 1_655
Ge3 Sm1 3.069916 1_664
Ge3 Sm0 3.136494 1_665
Ge3 Sm4 3.171658 1_555
Ge4 Pt1 2.579971 1_554
Ge4 Pt2 2.585849 1_555
Ge4 Sm0 3.103433 1_565
Ge4 Sm1 3.113809 1_564
Ge4 Sm3 3.174463 1_555
Ge5 Pt0 2.579971 1_555
Ge5 Pt3 2.585849 1_555
Ge5 Sm1 3.103433 1_655
Ge5 Sm0 3.113809 1_655
Ge5 Sm2 3.174463 1_555
Ge6 Pt0 2.585852 1_555
Ge6 Pt4 2.592995 1_555
Ge6 Sm3 3.049004 1_555
Ge6 Sm4 3.066832 1_555
Ge6 Sm2 3.344378 1_555
Ge7 Pt1 2.585852 1_555
Ge7 Pt5 2.592995 1_555
Ge7 Sm2 3.049004 1_555
Ge7 Sm5 3.066832 1_555
Ge7 Sm3 3.344378 1_556
Ge8 Pt7 2.591415 1_555
Ge8 Pt2 2.633084 1_655
Ge8 Sm3 3.378481 1_655
Ge8 Sm4 3.399121 1_555
Ge8 Sm0 3.532416 1_665
Ge9 Pt6 2.591415 1_555
Ge9 Pt3 2.633084 1_565
Ge9 Sm2 3.378481 1_565
Ge9 Sm5 3.399121 1_555
Ge9 Sm1 3.532416 1_665
Ge10 Pt1 2.564694 1_555
Ge10 Pt5 2.573452 1_565
Ge10 Ge9 2.710995 1_555
Ge10 Ge14 2.763530 1_555
Ge10 Sm2 3.090909 1_565
Ge10 Sm5 3.136421 1_555
Ge10 Sm1 3.163422 1_565
Ge11 Pt0 2.564694 1_555
Ge11 Pt4 2.573452 1_655
Ge11 Ge8 2.710995 1_555
Ge11 Ge15 2.763530 1_555
Ge11 Sm3 3.090909 1_655
Ge11 Sm4 3.136421 1_555
Ge11 Sm0 3.163422 1_655
Ge12 Pt3 2.583766 1_555
Ge12 Pt6 2.626855 1_555
Ge12 Ge24 2.683971 1_555
Ge12 Sm2 3.277908 1_555
Ge12 Sm5 3.299591 1_555
Ge12 Sm4 3.566374 1_556
Ge13 Pt2 2.583766 1_555
Ge13 Pt7 2.626855 1_555
Ge13 Ge25 2.683971 1_555
Ge13 Sm3 3.277908 1_555
Ge13 Sm4 3.299591 1_555
Ge13 Sm5 3.566374 1_555
Ge14 Pt4 2.542495 1_565
Ge14 Pt2 2.595129 1_555
Ge14 Ge19 2.728067 1_565
Ge14 Sm5 3.116624 1_555
Ge14 Sm2 3.139147 1_565
Ge14 Sm0 3.172937 1_565
Ge15 Pt5 2.542495 1_654
Ge15 Pt3 2.595129 1_554
Ge15 Ge18 2.728067 1_655
Ge15 Sm4 3.116624 1_555
Ge15 Sm3 3.139147 1_655
Ge15 Sm1 3.172937 1_654
Ge16 Pt1 2.592361 1_555
Ge16 Pt2 2.595491 1_555
Ge16 Ge2 2.774688 1_455
Ge16 Sm1 3.252419 1_565
Ge16 Sm0 3.284813 1_565
Ge16 Sm5 3.460403 1_555
Ge17 Pt0 2.592361 1_555
Ge17 Pt3 2.595491 1_554
Ge17 Ge3 2.774688 1_545
Ge17 Sm0 3.252419 1_655
Ge17 Sm1 3.284813 1_654
Ge17 Sm4 3.460403 1_555
Ge18 Pt1 2.576693 1_554
Ge18 Pt6 2.608364 1_454
Ge18 Sm3 3.324618 1_555
Ge18 Sm4 3.365439 1_455
Ge18 Sm1 3.523872 1_564
Ge19 Pt0 2.576693 1_555
Ge19 Pt7 2.608364 1_545
Ge19 Sm2 3.324618 1_555
Ge19 Sm5 3.365439 1_545
Ge19 Sm0 3.523872 1_655
Ge20 Pt3 2.545494 1_554
Ge20 Pt5 2.594262 1_554
Ge20 Ge6 2.798553 1_555
Ge20 Ge7 2.842468 1_554
Ge20 Ge25 2.953381 1_555
Ge20 Sm4 3.087175 1_555
Ge20 Sm3 3.100216 1_555
Ge20 Sm2 3.218274 1_554
Ge21 Pt2 2.545494 1_555
Ge21 Pt4 2.594262 1_555
Ge21 Ge7 2.798553 1_555
Ge21 Ge6 2.842468 1_555
Ge21 Ge24 2.953381 1_555
Ge21 Sm5 3.087175 1_555
Ge21 Sm2 3.100216 1_555
Ge21 Sm3 3.218274 1_555
Ge22 Pt5 2.597779 1_554
Ge22 Pt4 2.613029 1_555
Ge22 Ge4 2.703830 1_545
Ge22 Sm0 3.371381 1_555
Ge22 Sm1 3.455168 1_554
Ge22 Sm3 3.546247 1_555
Ge23 Pt4 2.597779 1_555
Ge23 Pt5 2.613029 1_555
Ge23 Ge5 2.703830 1_455
Ge23 Sm1 3.371381 1_555
Ge23 Sm0 3.455168 1_555
Ge23 Sm2 3.546247 1_555
Ge24 Pt7 2.572986 1_555
Ge24 Pt0 2.596453 1_555
Ge24 Ge6 2.785694 1_555
Ge24 Sm5 3.014675 1_555
Ge24 Sm2 3.107443 1_555
Ge24 Sm4 3.183012 1_555
Ge25 Pt6 2.572986 1_554
Ge25 Pt1 2.596453 1_554
Ge25 Ge7 2.785694 1_554
Ge25 Sm4 3.014675 1_555
Ge25 Sm3 3.107443 1_555
Ge25 Sm5 3.183012 1_554
Pt0 Sm4 3.225744 1_555
Pt0 Sm0 3.247243 1_655
Pt0 Sm2 3.253246 1_555
Pt1 Sm5 3.225744 1_555
Pt1 Sm1 3.247243 1_565
Pt1 Sm3 3.253246 1_556
Pt2 Sm3 3.224662 1_555
Pt2 Sm0 3.248188 1_565
Pt2 Sm5 3.249615 1_555
Pt3 Sm2 3.224662 1_555
Pt3 Sm1 3.248188 1_655
Pt3 Sm4 3.249615 1_556
Pt4 Sm0 3.183728 1_555
Pt4 Sm3 3.266923 1_555
Pt4 Sm2 3.285793 1_555
Pt5 Sm1 3.183728 1_555
Pt5 Sm2 3.266923 1_555
Pt5 Sm3 3.285793 1_556
Pt6 Sm1 3.219023 1_665
Pt6 Sm5 3.255177 1_555
Pt6 Sm4 3.265943 1_556
Pt7 Sm0 3.219023 1_665
Pt7 Sm4 3.255177 1_555
Pt7 Sm5 3.265943 1_555
