# generated using pymatgen
data_Yb5Sn3
_symmetry_space_group_name_H-M   'P 1'
_cell_length_a   9.55209062
_cell_length_b   9.55209062
_cell_length_c   9.55209062
_cell_angle_alpha   129.66273532
_cell_angle_beta   129.66273532
_cell_angle_gamma   73.94651618
_symmetry_Int_Tables_number   1
_chemical_formula_structural   Yb5Sn3
_chemical_formula_sum   'Yb10 Sn6'
_cell_volume   503.74922339
_cell_formula_units_Z   2
loop_
 _symmetry_equiv_pos_site_id
 _symmetry_equiv_pos_as_xyz
  1  'x, y, z'
loop_
 _atom_site_type_symbol
 _atom_site_label
 _atom_site_symmetry_multiplicity
 _atom_site_fract_x
 _atom_site_fract_y
 _atom_site_fract_z
 _atom_site_occupancy
  Yb  Yb0  1  0.50000000  0.50000000  0.00000000  1
  Yb  Yb1  1  0.00000000  0.00000000  0.00000000  1
  Yb  Yb2  1  0.53126300  0.03126300  0.84888300  1
  Yb  Yb3  1  0.18238000  0.68238000  0.15111700  1
  Yb  Yb4  1  0.03126300  0.18238000  0.50000000  1
  Yb  Yb5  1  0.68238000  0.53126300  0.50000000  1
  Yb  Yb6  1  0.46873700  0.96873700  0.15111700  1
  Yb  Yb7  1  0.81762000  0.31762000  0.84888300  1
  Yb  Yb8  1  0.96873700  0.81762000  0.50000000  1
  Yb  Yb9  1  0.31762000  0.46873700  0.50000000  1
  Sn  Sn0  1  0.25000000  0.25000000  0.00000000  1
  Sn  Sn1  1  0.75000000  0.75000000  0.00000000  1
  Sn  Sn2  1  0.87401200  0.37401200  0.24802300  1
  Sn  Sn3  1  0.12598800  0.62598800  0.75197700  1
  Sn  Sn4  1  0.37401200  0.12598800  0.50000000  1
  Sn  Sn5  1  0.62598800  0.87401200  0.50000000  1
loop_
_geom_bond_atom_site_label_1
_geom_bond_atom_site_label_2
_geom_bond_distance
_geom_bond_site_symmetry_2
Sn0 Yb9 3.415143 1_555
Sn0 Yb3 3.415143 1_555
Sn0 Yb8 3.415143 1_444
Sn0 Yb4 3.415143 1_554
Sn0 Yb5 3.415143 1_555
Sn0 Yb7 3.415143 1_454
Sn0 Yb2 3.415143 1_554
Sn0 Yb6 3.415143 1_545
Sn0 Yb0 3.815660 1_555
Sn0 Yb1 3.815660 1_555
Sn1 Yb3 3.415143 1_655
Sn1 Yb9 3.415143 1_554
Sn1 Yb4 3.415143 1_665
Sn1 Yb7 3.415143 1_554
Sn1 Yb5 3.415143 1_554
Sn1 Yb8 3.415143 1_555
Sn1 Yb6 3.415143 1_555
Sn1 Yb2 3.415143 1_564
Sn1 Yb1 3.815660 1_665
Sn1 Yb0 3.815660 1_555
Sn2 Sn3 2.895231 1_655
Sn2 Yb7 3.167586 1_554
Sn2 Yb2 3.167597 1_554
Sn2 Yb0 3.206506 1_555
Sn2 Yb1 3.206506 1_655
Sn2 Yb8 3.299759 1_555
Sn2 Yb9 3.299759 1_655
Sn2 Yb4 3.299769 1_655
Sn2 Yb5 3.299769 1_555
Sn3 Yb3 3.167586 1_556
Sn3 Yb6 3.167597 1_556
Sn3 Yb0 3.206506 1_556
Sn3 Yb1 3.206506 1_566
Sn3 Yb5 3.299759 1_455
Sn3 Yb4 3.299759 1_555
Sn3 Yb8 3.299769 1_455
Sn3 Yb9 3.299769 1_555
Sn4 Sn5 2.895220 1_545
Sn4 Yb9 3.167596 1_555
Sn4 Yb4 3.167596 1_555
Sn4 Yb1 3.206509 1_555
Sn4 Yb0 3.206509 1_556
Sn4 Yb6 3.299761 1_545
Sn4 Yb3 3.299761 1_545
Sn4 Yb7 3.299761 1_555
Sn4 Yb2 3.299761 1_555
Sn5 Yb8 3.167596 1_555
Sn5 Yb5 3.167596 1_555
Sn5 Yb1 3.206509 1_666
Sn5 Yb0 3.206509 1_555
Sn5 Yb6 3.299761 1_555
Sn5 Yb7 3.299761 1_565
Sn5 Yb3 3.299761 1_555
Sn5 Yb2 3.299761 1_565
