# generated using pymatgen
data_PrMn7O12
_symmetry_space_group_name_H-M   'P 1'
_cell_length_a   6.58054325
_cell_length_b   6.58054325
_cell_length_c   6.58054427
_cell_angle_alpha   109.53479322
_cell_angle_beta   109.53479322
_cell_angle_gamma   109.53479379
_symmetry_Int_Tables_number   1
_chemical_formula_structural   PrMn7O12
_chemical_formula_sum   'Pr1 Mn7 O12'
_cell_volume   218.84517979
_cell_formula_units_Z   1
loop_
 _symmetry_equiv_pos_site_id
 _symmetry_equiv_pos_as_xyz
  1  'x, y, z'
loop_
 _atom_site_type_symbol
 _atom_site_label
 _atom_site_symmetry_multiplicity
 _atom_site_fract_x
 _atom_site_fract_y
 _atom_site_fract_z
 _atom_site_occupancy
  Pr  Pr0  1  0.00000000  0.00000000  0.00000000  1
  Mn  Mn0  1  0.00000000  0.50000000  0.50000000  1
  Mn  Mn1  1  0.50000000  0.50000000  0.00000000  1
  Mn  Mn2  1  0.50000000  0.00000000  0.50000000  1
  Mn  Mn3  1  0.50000000  0.50000000  0.50000000  1
  Mn  Mn4  1  0.50000000  0.00000000  0.00000000  1
  Mn  Mn5  1  0.00000000  0.00000000  0.50000000  1
  Mn  Mn6  1  0.00000000  0.50000000  0.00000000  1
  O  O0  1  0.13065100  0.81872800  0.30549500  1
  O  O1  1  0.81872700  0.30549500  0.13065100  1
  O  O2  1  0.30549500  0.13065100  0.81872700  1
  O  O3  1  0.86934900  0.18127300  0.69450500  1
  O  O4  1  0.18127200  0.69450500  0.86934900  1
  O  O5  1  0.69450500  0.86934900  0.18127200  1
  O  O6  1  0.47629500  0.17838300  0.31471600  1
  O  O7  1  0.17838300  0.31471600  0.47629500  1
  O  O8  1  0.31471600  0.47629500  0.17838300  1
  O  O9  1  0.52370500  0.82161700  0.68528400  1
  O  O10  1  0.82161700  0.68528400  0.52370500  1
  O  O11  1  0.68528400  0.52370500  0.82161700  1
loop_
_geom_bond_atom_site_label_1
_geom_bond_atom_site_label_2
_geom_bond_distance
_geom_bond_site_symmetry_2
Mn0 O10 1.959927 1_455
Mn0 O7 1.959927 1_555
Mn0 O1 1.981959 1_455
Mn0 O4 1.981959 1_555
Mn1 O11 1.959927 1_554
Mn1 O8 1.959927 1_555
Mn1 O2 1.981959 1_554
Mn1 O5 1.981959 1_555
Mn2 O9 1.959927 1_545
Mn2 O6 1.959927 1_555
Mn2 O3 1.981959 1_555
Mn2 O0 1.981959 1_545
Mn3 O7 1.979006 1_555
Mn3 O10 1.979006 1_555
Mn3 O6 1.979006 1_555
Mn3 O9 1.979006 1_555
Mn3 O8 1.979006 1_555
Mn3 O11 1.979006 1_555
Mn4 O1 1.999515 1_555
Mn4 O4 1.999518 1_544
Mn4 O5 2.049660 1_545
Mn4 O2 2.049663 1_554
Mn4 O6 2.098580 1_555
Mn4 O9 2.098580 1_544
Mn5 O2 1.999515 1_555
Mn5 O5 1.999519 1_445
Mn5 O0 2.049660 1_545
Mn5 O3 2.049663 1_455
Mn5 O7 2.098580 1_555
Mn5 O10 2.098580 1_445
Mn6 O3 1.999515 1_454
Mn6 O0 1.999519 1_555
Mn6 O4 2.049660 1_554
Mn6 O1 2.049663 1_455
Mn6 O11 2.098580 1_454
Mn6 O8 2.098580 1_555
O0 Pr0 2.708730 1_565
O1 Pr0 2.708735 1_655
O2 Pr0 2.708735 1_556
O3 Pr0 2.708735 1_656
O4 Pr0 2.708730 1_566
O5 Pr0 2.708730 1_665
O6 Pr0 2.657713 1_555
O7 Pr0 2.657713 1_555
O8 Pr0 2.657713 1_555
O9 Pr0 2.657713 1_666
O10 Pr0 2.657713 1_666
O11 Pr0 2.657713 1_666
