# generated using pymatgen
data_CrPdBr4N5Cl
_symmetry_space_group_name_H-M   'P 1'
_cell_length_a   8.58105800
_cell_length_b   8.86606000
_cell_length_c   17.18274700
_cell_angle_alpha   90.00000000
_cell_angle_beta   90.00000000
_cell_angle_gamma   90.00000000
_symmetry_Int_Tables_number   1
_chemical_formula_structural   CrPdBr4N5Cl
_chemical_formula_sum   'Cr4 Pd4 Br16 N20 Cl4'
_cell_volume   1307.26640031
_cell_formula_units_Z   4
loop_
 _symmetry_equiv_pos_site_id
 _symmetry_equiv_pos_as_xyz
  1  'x, y, z'
loop_
 _atom_site_type_symbol
 _atom_site_label
 _atom_site_symmetry_multiplicity
 _atom_site_fract_x
 _atom_site_fract_y
 _atom_site_fract_z
 _atom_site_occupancy
  Cr  Cr0  1  0.65734300  0.75000000  0.06220300  1
  Cr  Cr1  1  0.84265700  0.75000000  0.56220300  1
  Cr  Cr2  1  0.34265700  0.25000000  0.93779700  1
  Cr  Cr3  1  0.15734300  0.25000000  0.43779700  1
  Pd  Pd0  1  0.15627800  0.75000000  0.16260100  1
  Pd  Pd1  1  0.34372200  0.75000000  0.66260100  1
  Pd  Pd2  1  0.84372200  0.25000000  0.83739900  1
  Pd  Pd3  1  0.65627800  0.25000000  0.33739900  1
  Br  Br0  1  0.05115200  0.75000000  0.03088700  1
  Br  Br1  1  0.44884800  0.75000000  0.53088700  1
  Br  Br2  1  0.94884800  0.25000000  0.96911300  1
  Br  Br3  1  0.55115200  0.25000000  0.46911300  1
  Br  Br4  1  0.15703200  0.47579400  0.15610100  1
  Br  Br5  1  0.34296800  0.02420600  0.65610100  1
  Br  Br6  1  0.84296800  0.97579400  0.84389900  1
  Br  Br7  1  0.65703200  0.52420600  0.34389900  1
  Br  Br8  1  0.84296800  0.52420600  0.84389900  1
  Br  Br9  1  0.65703200  0.97579400  0.34389900  1
  Br  Br10  1  0.15703200  0.02420600  0.15610100  1
  Br  Br11  1  0.34296800  0.47579400  0.65610100  1
  Br  Br12  1  0.26239400  0.75000000  0.29163100  1
  Br  Br13  1  0.23760600  0.75000000  0.79163100  1
  Br  Br14  1  0.73760600  0.25000000  0.70836900  1
  Br  Br15  1  0.76239400  0.25000000  0.20836900  1
  N  N0  1  0.61142500  0.75000000  0.18905200  1
  N  N1  1  0.88857500  0.75000000  0.68905200  1
  N  N2  1  0.38857500  0.25000000  0.81094800  1
  N  N3  1  0.11142500  0.25000000  0.31094800  1
  N  N4  1  0.61088100  0.61432800  0.18739900  1
  N  N5  1  0.88911900  0.88567200  0.68739900  1
  N  N6  1  0.38911900  0.11432800  0.81260100  1
  N  N7  1  0.11088100  0.38567200  0.31260100  1
  N  N8  1  0.38911900  0.38567200  0.81260100  1
  N  N9  1  0.11088100  0.11432800  0.31260100  1
  N  N10  1  0.61088100  0.88567200  0.18739900  1
  N  N11  1  0.88911900  0.61432800  0.68739900  1
  N  N12  1  0.78027100  0.61696900  0.04314100  1
  N  N13  1  0.71972900  0.88303100  0.54314100  1
  N  N14  1  0.21972900  0.11696900  0.95685900  1
  N  N15  1  0.28027100  0.38303100  0.45685900  1
  N  N16  1  0.21972900  0.38303100  0.95685900  1
  N  N17  1  0.28027100  0.11696900  0.45685900  1
  N  N18  1  0.78027100  0.88303100  0.04314100  1
  N  N19  1  0.71972900  0.61696900  0.54314100  1
  Cl  Cl0  1  0.46781700  0.75000000  0.97969100  1
  Cl  Cl1  1  0.03218300  0.75000000  0.47969100  1
  Cl  Cl2  1  0.53218300  0.25000000  0.02030900  1
  Cl  Cl3  1  0.96781700  0.25000000  0.52030900  1
loop_
_geom_bond_atom_site_label_1
_geom_bond_atom_site_label_2
_geom_bond_distance
_geom_bond_site_symmetry_2
Cr0 N18 1.615897 1_555
Cr0 N12 1.615897 1_555
Cr0 N0 2.214943 1_555
Cr0 N4 2.496713 1_555
Cr0 N10 2.496713 1_555
Cr1 N13 1.615897 1_555
Cr1 N19 1.615897 1_555
Cr1 N1 2.214943 1_555
Cr1 N11 2.496713 1_555
Cr1 N5 2.496713 1_555
Cr2 N16 1.615897 1_555
Cr2 N14 1.615897 1_555
Cr2 N2 2.214943 1_555
Cr2 N8 2.496713 1_555
Cr2 N6 2.496713 1_555
Cr3 N15 1.615897 1_555
Cr3 N17 1.615897 1_555
Cr3 N3 2.214943 1_555
Cr3 N7 2.496713 1_555
Cr3 N9 2.496713 1_555
Br0 Pd0 2.436367 1_555
Br1 Pd1 2.436367 1_555
Br2 Pd2 2.436367 1_555
Br3 Pd3 2.436367 1_555
Br4 Pd0 2.433700 1_555
Br5 Pd1 2.433700 1_545
Br6 Pd2 2.433700 1_565
Br7 Pd3 2.433700 1_555
Br8 Pd2 2.433700 1_555
Br9 Pd3 2.433700 1_565
Br10 Pd0 2.433700 1_545
Br11 Pd1 2.433700 1_555
Br12 Pd0 2.396801 1_555
Br13 Pd1 2.396801 1_555
Br14 Pd2 2.396801 1_555
Br15 Pd3 2.396801 1_555
N0 N10 1.203220 1_555
N0 N4 1.203220 1_555
N1 N5 1.203220 1_555
N1 N11 1.203220 1_555
N2 N8 1.203220 1_555
N2 N6 1.203220 1_555
N3 N7 1.203220 1_555
N3 N9 1.203220 1_555
Cl0 Cr0 2.157561 1_556
Cl1 Cr1 2.157561 1_455
Cl2 Cr2 2.157561 1_554
Cl3 Cr3 2.157561 1_655
