# generated using pymatgen
data_Li3Mn2(SiO4)2
_symmetry_space_group_name_H-M   'P 1'
_cell_length_a   6.59436337
_cell_length_b   7.67824475
_cell_length_c   7.16770991
_cell_angle_alpha   90.81645356
_cell_angle_beta   92.42225973
_cell_angle_gamma   88.51466173
_symmetry_Int_Tables_number   1
_chemical_formula_structural   Li3Mn2(SiO4)2
_chemical_formula_sum   'Li6 Mn4 Si4 O16'
_cell_volume   362.44607943
_cell_formula_units_Z   2
loop_
 _symmetry_equiv_pos_site_id
 _symmetry_equiv_pos_as_xyz
  1  'x, y, z'
loop_
 _atom_site_type_symbol
 _atom_site_label
 _atom_site_symmetry_multiplicity
 _atom_site_fract_x
 _atom_site_fract_y
 _atom_site_fract_z
 _atom_site_occupancy
  Li  Li0  1  0.99630700  0.49229700  0.81012800  1
  Li  Li1  1  0.99519400  0.99166100  0.30996400  1
  Li  Li2  1  0.75468000  0.19173000  0.00001100  1
  Li  Li3  1  0.75472600  0.69184400  0.50007200  1
  Li  Li4  1  0.24759500  0.81114200  0.00162700  1
  Li  Li5  1  0.24785400  0.31208500  0.50166400  1
  Mn  Mn0  1  0.26628500  0.68988000  0.50163900  1
  Mn  Mn1  1  0.73309300  0.82101300  0.98038200  1
  Mn  Mn2  1  0.26606600  0.18938900  0.00203300  1
  Mn  Mn3  1  0.73364800  0.32093500  0.48094300  1
  Si  Si0  1  0.00331500  0.49870400  0.17694400  1
  Si  Si1  1  0.00474200  0.99869400  0.67732700  1
  Si  Si2  1  0.49962300  0.49465300  0.83289400  1
  Si  Si3  1  0.49884300  0.99454100  0.33266300  1
  O  O0  1  0.21152600  0.49621100  0.30408700  1
  O  O1  1  0.21361700  0.99564300  0.80355700  1
  O  O2  1  0.81393500  0.49782700  0.32190000  1
  O  O3  1  0.81598600  0.99804200  0.82298100  1
  O  O4  1  0.99505700  0.33230200  0.03002700  1
  O  O5  1  0.99513300  0.83260400  0.53007700  1
  O  O6  1  0.97751700  0.67462100  0.03836900  1
  O  O7  1  0.97866000  0.17498400  0.53911600  1
  O  O8  1  0.51775400  0.32213600  0.95857600  1
  O  O9  1  0.51807000  0.82298300  0.45978800  1
  O  O10  1  0.50720000  0.67745200  0.96286500  1
  O  O11  1  0.50684300  0.17829100  0.46085200  1
  O  O12  1  0.27972300  0.50060200  0.71288200  1
  O  O13  1  0.27864800  0.99935800  0.21293500  1
  O  O14  1  0.69481700  0.49946300  0.68992300  1
  O  O15  1  0.69354200  0.99891100  0.18917000  1
loop_
_geom_bond_atom_site_label_1
_geom_bond_atom_site_label_2
_geom_bond_distance
_geom_bond_site_symmetry_2
Li0 O4 2.012550 1_556
Li0 O12 2.024956 1_655
Li0 O14 2.132824 1_555
Li0 O6 2.143457 1_556
Li1 O5 2.008897 1_555
Li1 O13 2.024319 1_655
Li1 O15 2.135349 1_555
Li1 O7 2.152279 1_565
Li2 O8 1.849312 1_554
Li2 O4 1.943496 1_555
Li2 O3 1.985868 1_544
Li2 O15 2.080170 1_545
Li3 O9 1.849715 1_555
Li3 O5 1.944484 1_555
Li3 O2 1.990077 1_555
Li3 O14 2.079132 1_555
Li4 O10 2.000645 1_554
Li4 O1 2.021541 1_554
Li4 O13 2.085950 1_555
Li4 O6 2.117640 1_455
Li5 O11 2.000111 1_555
Li5 O0 2.018042 1_555
Li5 O12 2.087542 1_555
Li5 O7 2.115808 1_455
Mn0 O9 2.007504 1_555
Mn0 O0 2.066719 1_555
Mn0 O5 2.088671 1_455
Mn0 O12 2.111227 1_555
Mn1 O10 1.874877 1_555
Mn1 O3 1.885104 1_555
Mn1 O6 1.974065 1_556
Mn1 O15 2.032167 1_556
Mn2 O8 2.007747 1_554
Mn2 O1 2.069125 1_544
Mn2 O4 2.088202 1_455
Mn2 O13 2.113538 1_545
Mn3 O11 1.876024 1_555
Mn3 O2 1.886010 1_555
Mn3 O7 1.975524 1_555
Mn3 O14 2.035694 1_555
O0 Si0 1.615372 1_555
O1 Si1 1.615546 1_555
O2 Si0 1.658158 1_655
O3 Si1 1.658201 1_655
O4 Si0 1.644618 1_655
O5 Si1 1.644535 1_655
O6 Si0 1.688798 1_655
O7 Si1 1.689660 1_645
O8 Si2 1.611571 1_555
O9 Si3 1.611620 1_555
O10 Si2 1.674164 1_555
O11 Si3 1.673442 1_545
O12 Si2 1.654415 1_555
O13 Si3 1.655011 1_555
O14 Si2 1.680298 1_555
O15 Si3 1.679955 1_555
