# generated using pymatgen
data_V2Zn3O7
_symmetry_space_group_name_H-M   'P 1'
_cell_length_a   5.16256502
_cell_length_b   5.22107765
_cell_length_c   9.63502601
_cell_angle_alpha   105.71991129
_cell_angle_beta   89.99081680
_cell_angle_gamma   89.99811551
_symmetry_Int_Tables_number   1
_chemical_formula_structural   V2Zn3O7
_chemical_formula_sum   'V4 Zn6 O14'
_cell_volume   249.99042120
_cell_formula_units_Z   2
loop_
 _symmetry_equiv_pos_site_id
 _symmetry_equiv_pos_as_xyz
  1  'x, y, z'
loop_
 _atom_site_type_symbol
 _atom_site_label
 _atom_site_symmetry_multiplicity
 _atom_site_fract_x
 _atom_site_fract_y
 _atom_site_fract_z
 _atom_site_occupancy
  V  V0  1  0.25326700  0.64451500  0.79534400  1
  V  V1  1  0.75326800  0.15082000  0.79534600  1
  V  V2  1  0.75328600  0.35548600  0.20468900  1
  V  V3  1  0.25328600  0.84921200  0.20467400  1
  Zn  Zn0  1  0.72336100  0.74314400  0.00003500  1
  Zn  Zn1  1  0.22336300  0.25688300  0.00002900  1
  Zn  Zn2  1  0.79083900  0.57477500  0.59856200  1
  Zn  Zn3  1  0.29081400  0.42524400  0.40139800  1
  Zn  Zn4  1  0.79081800  0.97617200  0.40140500  1
  Zn  Zn5  1  0.29084200  0.02377000  0.59855800  1
  O  O0  1  0.82895000  0.36404900  0.00004000  1
  O  O1  1  0.32893900  0.63598500  0.00003800  1
  O  O2  1  0.67845400  0.94162300  0.59364100  1
  O  O3  1  0.17843300  0.05832400  0.40630100  1
  O  O4  1  0.17843800  0.65203900  0.59364200  1
  O  O5  1  0.67841100  0.34796600  0.40631400  1
  O  O6  1  0.06654300  0.28975500  0.74257200  1
  O  O7  1  0.56671300  0.71006700  0.25741500  1
  O  O8  1  0.56656000  0.45285100  0.74259200  1
  O  O9  1  0.06672000  0.54732600  0.25740500  1
  O  O10  1  0.94475100  0.84369900  0.84568700  1
  O  O11  1  0.44457300  0.15611200  0.15431200  1
  O  O12  1  0.94458800  0.99821400  0.15431200  1
  O  O13  1  0.44478600  0.00196900  0.84569100  1
loop_
_geom_bond_atom_site_label_1
_geom_bond_atom_site_label_2
_geom_bond_distance
_geom_bond_site_symmetry_2
O0 V2 2.022398 1_555
O0 V1 2.022937 1_554
O0 Zn0 2.052972 1_555
O0 Zn1 2.111634 1_655
O1 V3 2.022308 1_555
O1 V0 2.022904 1_554
O1 Zn1 2.052988 1_555
O1 Zn0 2.111714 1_555
O2 V1 1.992268 1_565
O2 Zn4 1.995090 1_555
O2 Zn2 2.014089 1_555
O2 Zn5 2.044355 1_565
O3 V3 1.991425 1_545
O3 Zn5 1.995528 1_555
O3 Zn3 2.014426 1_555
O3 Zn4 2.044425 1_445
O4 V0 1.992286 1_555
O4 Zn3 1.995181 1_555
O4 Zn5 2.013976 1_565
O4 Zn2 2.044355 1_455
O5 V2 1.991479 1_555
O5 Zn2 1.995509 1_555
O5 Zn4 2.014270 1_545
O5 Zn3 2.044345 1_555
O6 V1 1.897390 1_455
O6 V0 2.026939 1_555
O6 Zn5 2.037160 1_555
O7 V3 1.898538 1_555
O7 V2 2.025641 1_555
O7 Zn4 2.037092 1_555
O8 V0 1.897291 1_555
O8 V1 2.026950 1_555
O8 Zn2 2.037125 1_555
O9 V2 1.898481 1_455
O9 V3 2.025830 1_555
O9 Zn3 2.036948 1_555
O10 V0 1.892060 1_655
O10 V1 2.050657 1_565
O10 Zn0 2.053318 1_556
O11 V2 1.893616 1_555
O11 V3 2.049259 1_545
O11 Zn1 2.053060 1_555
O12 V3 1.893457 1_655
O12 V2 2.049291 1_565
O12 Zn0 2.053159 1_555
O13 V1 1.891991 1_555
O13 V0 2.050772 1_545
O13 Zn1 2.053362 1_556
