# generated using pymatgen
data_Ti2ZnO4
_symmetry_space_group_name_H-M   'P 1'
_cell_length_a   7.39194569
_cell_length_b   7.39194569
_cell_length_c   9.78650796
_cell_angle_alpha   50.18485167
_cell_angle_beta   50.18485167
_cell_angle_gamma   23.02993275
_symmetry_Int_Tables_number   1
_chemical_formula_structural   Ti2ZnO4
_chemical_formula_sum   'Ti4 Zn2 O8'
_cell_volume   158.35373027
_cell_formula_units_Z   2
loop_
 _symmetry_equiv_pos_site_id
 _symmetry_equiv_pos_as_xyz
  1  'x, y, z'
loop_
 _atom_site_type_symbol
 _atom_site_label
 _atom_site_symmetry_multiplicity
 _atom_site_fract_x
 _atom_site_fract_y
 _atom_site_fract_z
 _atom_site_occupancy
  Ti  Ti0  1  0.35878300  0.35878400  0.96743000  1
  Ti  Ti1  1  0.84375400  0.84375400  0.31746000  1
  Ti  Ti2  1  0.15624600  0.15624600  0.68254000  1
  Ti  Ti3  1  0.64121700  0.64121700  0.03257000  1
  Zn  Zn0  1  0.60734300  0.60734300  0.38639100  1
  Zn  Zn1  1  0.39265700  0.39265700  0.61360900  1
  O  O0  1  0.14845300  0.14845300  0.89383600  1
  O  O1  1  0.53594200  0.53594200  0.77900900  1
  O  O2  1  0.46405800  0.46405800  0.22099100  1
  O  O3  1  0.85154700  0.85154700  0.10616400  1
  O  O4  1  0.82960400  0.82960400  0.85642500  1
  O  O5  1  0.21009600  0.21009600  0.43523700  1
  O  O6  1  0.17039600  0.17039600  0.14357500  1
  O  O7  1  0.78990400  0.78990400  0.56476300  1
loop_
_geom_bond_atom_site_label_1
_geom_bond_atom_site_label_2
_geom_bond_distance
_geom_bond_site_symmetry_2
O0 Ti3 1.961075 1_546
O0 Ti3 1.961075 1_456
O0 Ti2 1.995909 1_555
O1 Ti0 1.949795 1_555
O1 Ti2 1.988875 1_565
O1 Ti2 1.988875 1_655
O2 Ti3 1.949800 1_555
O2 Ti1 1.988875 1_545
O2 Ti1 1.988875 1_455
O3 Ti0 1.961071 1_654
O3 Ti0 1.961073 1_564
O3 Ti1 1.995909 1_555
O4 Ti0 2.033815 1_655
O4 Ti0 2.033817 1_565
O4 Ti3 2.066618 1_556
O4 Zn1 2.412857 1_655
O4 Zn1 2.412857 1_565
O5 Ti2 1.999646 1_555
O5 Ti1 2.082829 1_455
O5 Ti1 2.082829 1_545
O5 Zn0 2.356176 1_455
O5 Zn0 2.356176 1_545
O6 Ti3 2.033812 1_455
O6 Ti3 2.033812 1_545
O6 Ti0 2.066623 1_554
O6 Zn0 2.412857 1_455
O6 Zn0 2.412857 1_545
O7 Ti1 1.999646 1_555
O7 Ti2 2.082829 1_565
O7 Ti2 2.082829 1_655
O7 Zn1 2.356176 1_655
O7 Zn1 2.356176 1_565
