# generated using pymatgen
data_Ag2AsO2
_symmetry_space_group_name_H-M   'P 1'
_cell_length_a   7.69855142
_cell_length_b   7.69855142
_cell_length_c   10.71283966
_cell_angle_alpha   110.88609029
_cell_angle_beta   110.88609029
_cell_angle_gamma   90.44697301
_symmetry_Int_Tables_number   1
_chemical_formula_structural   Ag2AsO2
_chemical_formula_sum   'Ag8 As4 O8'
_cell_volume   547.56763713
_cell_formula_units_Z   4
loop_
 _symmetry_equiv_pos_site_id
 _symmetry_equiv_pos_as_xyz
  1  'x, y, z'
loop_
 _atom_site_type_symbol
 _atom_site_label
 _atom_site_symmetry_multiplicity
 _atom_site_fract_x
 _atom_site_fract_y
 _atom_site_fract_z
 _atom_site_occupancy
  Ag  Ag0  1  0.37727000  0.18632000  0.74981500  1
  Ag  Ag1  1  0.37254500  0.56349500  0.74981500  1
  Ag  Ag2  1  0.81368000  0.62273000  0.25018500  1
  Ag  Ag3  1  0.87273000  0.56368000  0.75018500  1
  Ag  Ag4  1  0.43650500  0.62745500  0.25018500  1
  Ag  Ag5  1  0.87745500  0.18650500  0.75018500  1
  Ag  Ag6  1  0.43632000  0.12727000  0.24981500  1
  Ag  Ag7  1  0.81349500  0.12254500  0.24981500  1
  As  As0  1  0.62500000  0.87500000  0.75000000  1
  As  As1  1  0.12500000  0.87500000  0.75000000  1
  As  As2  1  0.12500000  0.37500000  0.25000000  1
  As  As3  1  0.12500000  0.87500000  0.25000000  1
  O  O0  1  0.65254100  0.66266500  0.80818600  1
  O  O1  1  0.15564500  0.14552200  0.80818600  1
  O  O2  1  0.33733500  0.34745900  0.19181400  1
  O  O3  1  0.59745900  0.08733500  0.69181400  1
  O  O4  1  0.85447800  0.84435500  0.19181400  1
  O  O5  1  0.09435500  0.60447800  0.69181400  1
  O  O6  1  0.91266500  0.40254100  0.30818600  1
  O  O7  1  0.39552200  0.90564500  0.30818600  1
loop_
_geom_bond_atom_site_label_1
_geom_bond_atom_site_label_2
_geom_bond_distance
_geom_bond_site_symmetry_2
Ag0 O3 2.067324 1_555
Ag0 O1 2.071998 1_555
Ag1 O5 2.067322 1_555
Ag1 O0 2.072000 1_555
Ag2 O6 2.067324 1_555
Ag2 O4 2.071998 1_555
Ag3 O0 2.067324 1_555
Ag3 O5 2.071998 1_655
Ag4 O7 2.067322 1_555
Ag4 O2 2.072000 1_555
Ag5 O1 2.067322 1_655
Ag5 O3 2.072000 1_555
Ag6 O2 2.067324 1_555
Ag6 O7 2.071998 1_545
Ag7 O4 2.067322 1_545
Ag7 O6 2.072000 1_555
As0 O3 1.934778 1_565
As0 O0 1.934778 1_555
As1 O1 1.934785 1_565
As1 O5 1.934785 1_555
As2 O2 1.934778 1_555
As2 O6 1.934778 1_455
As3 O7 1.934785 1_555
As3 O4 1.934785 1_455
