# generated using pymatgen
data_La2MgIn
_symmetry_space_group_name_H-M   'P 1'
_cell_length_a   12.54533861
_cell_length_b   12.47925946
_cell_length_c   12.47925964
_cell_angle_alpha   61.85628351
_cell_angle_beta   59.82468596
_cell_angle_gamma   59.82468488
_symmetry_Int_Tables_number   1
_chemical_formula_structural   La2MgIn
_chemical_formula_sum   'La2 Mg1 In1'
_cell_volume   1395.98122757
_cell_formula_units_Z   1
loop_
 _symmetry_equiv_pos_site_id
 _symmetry_equiv_pos_as_xyz
  1  'x, y, z'
loop_
 _atom_site_type_symbol
 _atom_site_label
 _atom_site_symmetry_multiplicity
 _atom_site_fract_x
 _atom_site_fract_y
 _atom_site_fract_z
 _atom_site_occupancy
  La  La0  1  0.73711944  0.00000000  0.00000000  1
  La  La1  1  0.26288056  1.00000000  1.00000000  1
  Mg  Mg0  1  -0.00000000  -0.00000000  0.00000000  1
  In  In0  1  0.50000000  -0.00000000  0.00000000  1
loop_
_geom_bond_atom_site_label_1
_geom_bond_atom_site_label_2
_geom_bond_distance
_geom_bond_site_symmetry_2
La0 Mg0 3.297926 1_655
La1 Mg0 3.297926 1_566
In0 La0 2.974744 1_555
In0 La1 2.974744 1_544
