# generated using pymatgen
data_H18Se3(NO3)4
_symmetry_space_group_name_H-M   'P 1'
_cell_length_a   8.78816000
_cell_length_b   11.43605299
_cell_length_c   11.72286257
_cell_angle_alpha   118.30269362
_cell_angle_beta   100.81715954
_cell_angle_gamma   97.35501128
_symmetry_Int_Tables_number   1
_chemical_formula_structural   H18Se3(NO3)4
_chemical_formula_sum   'H36 Se6 N8 O24'
_cell_volume   986.29621874
_cell_formula_units_Z   2
loop_
 _symmetry_equiv_pos_site_id
 _symmetry_equiv_pos_as_xyz
  1  'x, y, z'
loop_
 _atom_site_type_symbol
 _atom_site_label
 _atom_site_symmetry_multiplicity
 _atom_site_fract_x
 _atom_site_fract_y
 _atom_site_fract_z
 _atom_site_occupancy
  H  H0  1  0.97511200  0.68296700  0.98584600  1
  H  H1  1  0.02488800  0.31703300  0.01415400  1
  H  H2  1  0.20768100  0.88442200  0.64734600  1
  H  H3  1  0.79231900  0.11557800  0.35265400  1
  H  H4  1  0.40561500  0.58121900  0.38887700  1
  H  H5  1  0.59438500  0.41878100  0.61112300  1
  H  H6  1  0.06670300  0.23424500  0.44501200  1
  H  H7  1  0.93329700  0.76575500  0.55498800  1
  H  H8  1  0.51047700  0.33480100  0.72447200  1
  H  H9  1  0.48952300  0.66519900  0.27552800  1
  H  H10  1  0.14866100  0.48748600  0.52956500  1
  H  H11  1  0.85133900  0.51251400  0.47043500  1
  H  H12  1  0.33583100  0.31893600  0.94612400  1
  H  H13  1  0.66416900  0.68106400  0.05387600  1
  H  H14  1  0.52660300  0.16623900  0.94796400  1
  H  H15  1  0.47339700  0.83376100  0.05203600  1
  H  H16  1  0.36049900  0.08382900  0.08224900  1
  H  H17  1  0.63950100  0.91617100  0.91775100  1
  H  H18  1  0.57288800  0.05883500  0.42466100  1
  H  H19  1  0.42711200  0.94116500  0.57533900  1
  H  H20  1  0.87218800  0.00463200  0.09727800  1
  H  H21  1  0.12781200  0.99536800  0.90272200  1
  H  H22  1  0.07396900  0.82358700  0.46200900  1
  H  H23  1  0.92603100  0.17641300  0.53799100  1
  H  H24  1  0.89122200  0.14608800  0.25244200  1
  H  H25  1  0.10877800  0.85391200  0.74755800  1
  H  H26  1  0.41961600  0.93776200  0.35317400  1
  H  H27  1  0.58038400  0.06223800  0.64682600  1
  H  H28  1  0.36092300  0.59855600  0.91042300  1
  H  H29  1  0.63907700  0.40144400  0.08957700  1
  H  H30  1  0.44059800  0.16936500  0.15128500  1
  H  H31  1  0.55940200  0.83063500  0.84871500  1
  H  H32  1  0.33728900  0.39277400  0.29952700  1
  H  H33  1  0.66271100  0.60722600  0.70047300  1
  H  H34  1  0.18074700  0.37577600  0.19234000  1
  H  H35  1  0.81925300  0.62422400  0.80766000  1
  Se  Se0  1  0.22161200  0.53645000  0.84346300  1
  Se  Se1  1  0.77838800  0.46355000  0.15653700  1
  Se  Se2  1  0.41900000  0.12407700  0.62154800  1
  Se  Se3  1  0.58100000  0.87592300  0.37845200  1
  Se  Se4  1  0.16400900  0.78296500  0.09493400  1
  Se  Se5  1  0.83599100  0.21703500  0.90506600  1
  N  N0  1  0.28518100  0.63628400  0.49129800  1
  N  N1  1  0.71481900  0.36371600  0.50870200  1
  N  N2  1  0.04452900  0.17145700  0.53916000  1
  N  N3  1  0.95547100  0.82854300  0.46084000  1
  N  N4  1  0.85624800  0.90742800  0.36035700  1
  N  N5  1  0.14375200  0.09257200  0.63964300  1
  N  N6  1  0.22393200  0.35260500  0.29316200  1
  N  N7  1  0.77606800  0.64739500  0.70683800  1
  O  O0  1  0.35450600  0.40961100  0.87110700  1
  O  O1  1  0.64549400  0.59038900  0.12889300  1
  O  O2  1  0.15365900  0.56802500  0.54011600  1
  O  O3  1  0.84634100  0.43197500  0.45988400  1
  O  O4  1  0.11939400  0.46521000  0.95954900  1
  O  O5  1  0.88060600  0.53479000  0.04045100  1
  O  O6  1  0.13640100  0.81738000  0.69712800  1
  O  O7  1  0.86359900  0.18262000  0.30287200  1
  O  O8  1  0.68354300  0.26836800  0.49034900  1
  O  O9  1  0.31645700  0.73163200  0.50965100  1
  O  O10  1  0.45694100  0.08959100  0.78177300  1
  O  O11  1  0.54305900  0.91040900  0.21822700  1
  O  O12  1  0.33472300  0.98990000  0.56329400  1
  O  O13  1  0.66527700  0.01010000  0.43670600  1
  O  O14  1  0.65618200  0.83430500  0.91439200  1
  O  O15  1  0.34381800  0.16569500  0.08560800  1
  O  O16  1  0.47273800  0.57329000  0.34078300  1
  O  O17  1  0.52726200  0.42671000  0.65921700  1
  O  O18  1  0.18946300  0.96197000  0.99790500  1
  O  O19  1  0.81053700  0.03803000  0.00209500  1
  O  O20  1  0.05469600  0.76965700  0.19105300  1
  O  O21  1  0.94530400  0.23034300  0.80894700  1
  O  O22  1  0.03200100  0.77109100  0.94995200  1
  O  O23  1  0.96799900  0.22890900  0.05004800  1
loop_
_geom_bond_atom_site_label_1
_geom_bond_atom_site_label_2
_geom_bond_distance
_geom_bond_site_symmetry_2
H0 O22 1.339674 1_655
H0 Se4 1.740486 1_656
H1 O23 1.339674 1_455
H1 Se5 1.740486 1_454
H2 O6 1.326399 1_555
H3 O7 1.326399 1_555
H4 O16 0.874134 1_555
H4 N0 1.699711 1_555
H5 O17 0.874134 1_555
H5 N1 1.699711 1_555
H6 N2 1.602523 1_555
H7 N3 1.602523 1_555
H8 O17 1.573789 1_555
H8 Se2 2.071753 1_555
H9 O16 1.573789 1_555
H9 Se3 2.071753 1_555
H10 O2 0.863211 1_555
H11 O3 0.863211 1_555
H12 O0 1.658595 1_555
H13 O1 1.658595 1_555
H14 O10 1.653572 1_555
H15 O11 1.653572 1_555
H16 O15 0.949686 1_555
H17 O14 0.949686 1_555
H18 O13 1.066416 1_555
H19 O12 1.066416 1_555
H20 O19 1.383714 1_555
H21 O18 1.383714 1_555
H22 N3 1.048028 1_455
H23 N2 1.048028 1_655
H24 O7 0.654674 1_555
H25 O6 0.654674 1_555
H26 Se3 1.702113 1_555
H27 Se2 1.702113 1_555
H28 Se0 1.227792 1_555
H29 Se1 1.227792 1_555
H30 O15 1.016046 1_555
H31 O14 1.016046 1_555
H32 N6 1.015595 1_555
H33 N7 1.015595 1_555
H34 N6 1.328743 1_555
H35 N7 1.328743 1_555
N0 O9 0.994699 1_555
N0 O2 1.647338 1_555
N1 O8 0.994699 1_555
N1 O3 1.647338 1_555
N2 N5 1.945589 1_555
N3 N4 1.945589 1_555
N4 Se3 2.463317 1_555
N5 Se2 2.463317 1_555
O0 Se0 2.076170 1_555
O1 Se1 2.076170 1_555
O4 Se0 2.155331 1_555
O5 Se1 2.155331 1_555
O10 Se2 2.072618 1_555
O11 Se3 2.072618 1_555
O12 Se2 1.376578 1_565
O13 Se3 1.376578 1_545
O20 Se4 1.657459 1_555
O21 Se5 1.657459 1_555
O22 Se4 1.803793 1_556
O23 Se5 1.803793 1_554
