# generated using pymatgen
data_Tm3Pt4
_symmetry_space_group_name_H-M   'P 1'
_cell_length_a   5.65459439
_cell_length_b   7.71601465
_cell_length_c   7.71601493
_cell_angle_alpha   114.23569402
_cell_angle_beta   104.13926772
_cell_angle_gamma   104.13926814
_symmetry_Int_Tables_number   1
_chemical_formula_structural   Tm3Pt4
_chemical_formula_sum   'Tm6 Pt8'
_cell_volume   274.15571346
_cell_formula_units_Z   2
loop_
 _symmetry_equiv_pos_site_id
 _symmetry_equiv_pos_as_xyz
  1  'x, y, z'
loop_
 _atom_site_type_symbol
 _atom_site_label
 _atom_site_symmetry_multiplicity
 _atom_site_fract_x
 _atom_site_fract_y
 _atom_site_fract_z
 _atom_site_occupancy
  Tm  Tm0  1  0.40518090  0.12665936  0.37870387  1
  Tm  Tm1  1  0.02647803  0.62129613  0.74795549  1
  Tm  Tm2  1  0.27852154  0.25204451  0.87334064  1
  Tm  Tm3  1  0.59481910  0.87334064  0.62129613  1
  Tm  Tm4  1  0.97352197  0.37870387  0.25204451  1
  Tm  Tm5  1  0.72147846  0.74795549  0.12665936  1
  Pt  Pt0  1  -0.00000000  -0.00000000  -0.00000000  1
  Pt  Pt1  1  0.50000000  -0.00000000  -0.00000000  1
  Pt  Pt2  1  0.22841570  0.67686913  0.16590599  1
  Pt  Pt3  1  0.06251071  0.83409401  0.51096513  1
  Pt  Pt4  1  0.55154657  0.48903487  0.32313087  1
  Pt  Pt5  1  0.77158430  0.32313087  0.83409401  1
  Pt  Pt6  1  0.93748929  0.16590599  0.48903487  1
  Pt  Pt7  1  0.44845343  0.51096513  0.67686913  1
loop_
_geom_bond_atom_site_label_1
_geom_bond_atom_site_label_2
_geom_bond_distance
_geom_bond_site_symmetry_2
Pt0 Tm0 2.834371 1_555
Pt0 Tm3 2.834371 1_444
Pt0 Tm2 2.834372 1_554
Pt0 Tm5 2.834372 1_445
Pt0 Tm4 2.834374 1_455
Pt0 Tm1 2.834374 1_544
Pt1 Tm4 2.908274 1_555
Pt1 Tm1 2.908274 1_544
Pt1 Tm2 2.908277 1_554
Pt1 Tm5 2.908277 1_545
Pt1 Tm0 2.908277 1_555
Pt1 Tm3 2.908277 1_544
Pt2 Tm4 2.813448 1_455
Pt2 Tm5 2.822697 1_555
Pt2 Pt5 2.874853 1_454
Pt2 Tm0 2.926609 1_565
Pt2 Pt3 2.926632 1_555
Pt2 Pt4 2.926635 1_555
Pt2 Tm1 2.951983 1_554
Pt2 Tm5 3.014955 1_455
Pt2 Tm3 3.077833 1_555
Pt2 Tm2 3.257670 1_554
Pt3 Tm5 2.813461 1_455
Pt3 Tm3 2.822691 1_555
Pt3 Pt6 2.874870 1_465
Pt3 Tm1 2.926596 1_555
Pt3 Pt4 2.926631 1_455
Pt3 Tm2 2.951978 1_565
Pt3 Tm3 3.014953 1_455
Pt3 Tm4 3.077832 1_455
Pt3 Tm0 3.257679 1_565
Pt4 Tm3 2.813457 1_555
Pt4 Tm4 2.822685 1_555
Pt4 Pt7 2.874845 1_555
Pt4 Tm2 2.926609 1_554
Pt4 Tm0 2.951969 1_555
Pt4 Tm4 3.014961 1_455
Pt4 Tm5 3.077845 1_555
Pt4 Tm1 3.257668 1_655
Pt5 Tm1 2.813448 1_655
Pt5 Tm2 2.822697 1_555
Pt5 Tm3 2.926609 1_545
Pt5 Pt6 2.926632 1_555
Pt5 Pt7 2.926635 1_555
Pt5 Tm4 2.951983 1_556
Pt5 Tm2 3.014955 1_655
Pt5 Tm0 3.077833 1_555
Pt5 Tm5 3.257670 1_556
Pt6 Tm2 2.813461 1_655
Pt6 Tm0 2.822691 1_555
Pt6 Tm4 2.926596 1_555
Pt6 Pt7 2.926631 1_655
Pt6 Tm5 2.951978 1_545
Pt6 Tm0 3.014953 1_655
Pt6 Tm1 3.077832 1_655
Pt6 Tm3 3.257679 1_545
Pt7 Tm0 2.813457 1_555
Pt7 Tm1 2.822685 1_555
Pt7 Tm5 2.926609 1_556
Pt7 Tm3 2.951969 1_555
Pt7 Tm1 3.014961 1_655
Pt7 Tm2 3.077845 1_555
Pt7 Tm4 3.257668 1_455
