# generated using pymatgen
data_Zn3N
_symmetry_space_group_name_H-M   'P 1'
_cell_length_a   3.65642910
_cell_length_b   3.65642910
_cell_length_c   3.65642910
_cell_angle_alpha   90.00000000
_cell_angle_beta   90.00000000
_cell_angle_gamma   90.00000000
_symmetry_Int_Tables_number   1
_chemical_formula_structural   Zn3N
_chemical_formula_sum   'Zn3 N1'
_cell_volume   48.88453292
_cell_formula_units_Z   1
loop_
 _symmetry_equiv_pos_site_id
 _symmetry_equiv_pos_as_xyz
  1  'x, y, z'
loop_
 _atom_site_type_symbol
 _atom_site_label
 _atom_site_symmetry_multiplicity
 _atom_site_fract_x
 _atom_site_fract_y
 _atom_site_fract_z
 _atom_site_occupancy
  Zn  Zn0  1  -0.00000000  0.50000100  0.50000100  1
  Zn  Zn1  1  0.50000100  -0.00000000  0.50000100  1
  Zn  Zn2  1  0.50000100  0.50000100  -0.00000000  1
  N  N0  1  -0.00000000  -0.00000000  -0.00000000  1
loop_
_geom_bond_atom_site_label_1
_geom_bond_atom_site_label_2
_geom_bond_distance
_geom_bond_site_symmetry_2
N0 Zn0 2.585481 1_544
N0 Zn1 2.585481 1_454
N0 Zn2 2.585481 1_445
N0 Zn1 2.585486 1_554
N0 Zn0 2.585486 1_545
N0 Zn1 2.585486 1_455
N0 Zn2 2.585486 1_545
N0 Zn2 2.585486 1_455
N0 Zn0 2.585486 1_554
N0 Zn2 2.585491 1_555
N0 Zn0 2.585491 1_555
N0 Zn1 2.585491 1_555
