# generated using pymatgen
data_P4S3
_symmetry_space_group_name_H-M   'P 1'
_cell_length_a   9.86439925
_cell_length_b   10.70208572
_cell_length_c   14.25791374
_cell_angle_alpha   90.00000000
_cell_angle_beta   90.00000000
_cell_angle_gamma   90.00000000
_symmetry_Int_Tables_number   1
_chemical_formula_structural   P4S3
_chemical_formula_sum   'P32 S24'
_cell_volume   1505.20291122
_cell_formula_units_Z   8
loop_
 _symmetry_equiv_pos_site_id
 _symmetry_equiv_pos_as_xyz
  1  'x, y, z'
loop_
 _atom_site_type_symbol
 _atom_site_label
 _atom_site_symmetry_multiplicity
 _atom_site_fract_x
 _atom_site_fract_y
 _atom_site_fract_z
 _atom_site_occupancy
  P  P0  1  0.86301325  0.04796320  0.24282979  1
  P  P1  1  0.36301325  0.95203680  0.75717021  1
  P  P2  1  0.63698675  0.54796320  0.25717021  1
  P  P3  1  0.13698675  0.45203680  0.74282979  1
  P  P4  1  0.13698675  0.95203680  0.75717021  1
  P  P5  1  0.63698675  0.04796320  0.24282979  1
  P  P6  1  0.36301325  0.45203680  0.74282979  1
  P  P7  1  0.86301325  0.54796320  0.25717021  1
  P  P8  1  0.25000000  0.79200730  0.82106852  1
  P  P9  1  0.75000000  0.20799270  0.17893148  1
  P  P10  1  0.25000000  0.29200730  0.67893148  1
  P  P11  1  0.75000000  0.70799270  0.32106852  1
  P  P12  1  0.86342484  0.73009449  0.83998987  1
  P  P13  1  0.36342484  0.26990551  0.16001013  1
  P  P14  1  0.63657516  0.23009449  0.66001013  1
  P  P15  1  0.13657516  0.76990551  0.33998987  1
  P  P16  1  0.13657516  0.26990551  0.16001013  1
  P  P17  1  0.63657516  0.73009449  0.83998987  1
  P  P18  1  0.36342484  0.76990551  0.33998987  1
  P  P19  1  0.86342484  0.23009449  0.66001013  1
  P  P20  1  0.25000000  0.47717484  0.00967587  1
  P  P21  1  0.75000000  0.52282516  0.99032613  1
  P  P22  1  0.25000000  0.97717484  0.49032413  1
  P  P23  1  0.75000000  0.02282516  0.50967387  1
  P  P24  1  0.75000000  0.07967924  0.73580335  1
  P  P25  1  0.25000000  0.92032076  0.26419665  1
  P  P26  1  0.75000000  0.57967924  0.76419665  1
  P  P27  1  0.25000000  0.42032076  0.23580335  1
  P  P28  1  0.75000000  0.46830445  0.46502172  1
  P  P29  1  0.25000000  0.53169555  0.53497828  1
  P  P30  1  0.75000000  0.96830445  0.03497828  1
  P  P31  1  0.25000000  0.03169555  0.96502172  1
  S  S0  1  0.91246711  0.64751107  0.96819301  1
  S  S1  1  0.41246711  0.35248893  0.03180699  1
  S  S2  1  0.58753289  0.14751107  0.53180699  1
  S  S3  1  0.08753289  0.85248893  0.46819301  1
  S  S4  1  0.08753289  0.35248893  0.03180699  1
  S  S5  1  0.58753289  0.64751107  0.96819301  1
  S  S6  1  0.41246711  0.85248893  0.46819301  1
  S  S7  1  0.91246711  0.14751107  0.53180699  1
  S  S8  1  0.91319208  0.93657954  0.12763467  1
  S  S9  1  0.41319208  0.06342046  0.87236433  1
  S  S10  1  0.58680792  0.43657954  0.37236433  1
  S  S11  1  0.08680792  0.56342046  0.62763567  1
  S  S12  1  0.08680792  0.06342046  0.87236433  1
  S  S13  1  0.58680792  0.93657954  0.12763467  1
  S  S14  1  0.41319208  0.56342046  0.62763567  1
  S  S15  1  0.91319208  0.43657954  0.37236433  1
  S  S16  1  0.25000000  0.83489249  0.96425026  1
  S  S17  1  0.75000000  0.16510751  0.03574974  1
  S  S18  1  0.25000000  0.33489249  0.53574974  1
  S  S19  1  0.75000000  0.66510751  0.46425026  1
  S  S20  1  0.25000000  0.56849451  0.14051916  1
  S  S21  1  0.75000000  0.43150549  0.85948084  1
  S  S22  1  0.25000000  0.06849451  0.35948084  1
  S  S23  1  0.75000000  0.93150549  0.64051916  1
loop_
_geom_bond_atom_site_label_1
_geom_bond_atom_site_label_2
_geom_bond_distance
_geom_bond_site_symmetry_2
P0 S8 2.088918 1_545
P1 S9 2.088907 1_565
P2 S10 2.088907 1_555
P3 S11 2.088907 1_555
P4 S12 2.088907 1_565
P5 S13 2.088918 1_545
P6 S14 2.088907 1_555
P7 S15 2.088907 1_555
P8 S16 2.092428 1_555
P9 S17 2.092428 1_555
P10 S18 2.092428 1_555
P11 S19 2.092428 1_555
P12 S0 2.087203 1_555
P13 S1 2.087203 1_555
P14 S2 2.087203 1_555
P15 S3 2.087203 1_555
P16 S4 2.087203 1_555
P17 S5 2.087203 1_555
P18 S6 2.087203 1_555
P19 S7 2.087203 1_555
P20 S20 2.106044 1_555
P20 S4 2.109181 1_555
P20 S1 2.109181 1_555
P21 S21 2.106069 1_555
P21 S0 2.109186 1_555
P21 S5 2.109186 1_555
P22 S22 2.106044 1_565
P22 S3 2.109181 1_555
P22 S6 2.109181 1_555
P23 S23 2.106069 1_545
P23 S2 2.109186 1_555
P23 S7 2.109186 1_555
P24 S23 2.088140 1_545
P25 S22 2.088140 1_565
P26 S21 2.088140 1_555
P27 S20 2.088140 1_555
P28 S19 2.106232 1_555
P28 S10 2.109979 1_555
P28 S15 2.109979 1_555
P29 S18 2.106232 1_555
P29 S14 2.109979 1_555
P29 S11 2.109979 1_555
P30 S17 2.106232 1_565
P30 S13 2.109971 1_555
P30 S8 2.109971 1_555
P31 S16 2.106232 1_545
P31 S9 2.109979 1_555
P31 S12 2.109979 1_555
