# generated using pymatgen
data_K2Co2(SeO3)3
_symmetry_space_group_name_H-M   'P 1'
_cell_length_a   5.57066080
_cell_length_b   5.57066080
_cell_length_c   18.00557900
_cell_angle_alpha   90.00000000
_cell_angle_beta   90.00000000
_cell_angle_gamma   120.00000951
_symmetry_Int_Tables_number   1
_chemical_formula_structural   K2Co2(SeO3)3
_chemical_formula_sum   'K4 Co4 Se6 O18'
_cell_volume   483.89497402
_cell_formula_units_Z   2
loop_
 _symmetry_equiv_pos_site_id
 _symmetry_equiv_pos_as_xyz
  1  'x, y, z'
loop_
 _atom_site_type_symbol
 _atom_site_label
 _atom_site_symmetry_multiplicity
 _atom_site_fract_x
 _atom_site_fract_y
 _atom_site_fract_z
 _atom_site_occupancy
  K  K0  1  0.66666700  0.33333300  0.53005800  1
  K  K1  1  0.33333300  0.66666700  0.46005000  1
  K  K2  1  0.33333300  0.66666700  0.03005800  1
  K  K3  1  0.66666700  0.33333300  0.96005000  1
  Co  Co0  1  0.66666700  0.33333300  0.16921300  1
  Co  Co1  1  0.33333300  0.66666700  0.83601200  1
  Co  Co2  1  0.33333300  0.66666700  0.66921300  1
  Co  Co3  1  0.66666700  0.33333300  0.33601200  1
  Se  Se0  1  0.00000000  0.00000000  0.63853500  1
  Se  Se1  1  0.00000000  0.00000000  0.35976000  1
  Se  Se2  1  0.00000000  0.00000000  0.13853500  1
  Se  Se3  1  0.00000000  0.00000000  0.85976000  1
  Se  Se4  1  0.66666700  0.33333300  0.71455100  1
  Se  Se5  1  0.33333300  0.66666700  0.21455100  1
  O  O0  1  0.83948800  0.16051200  0.09557600  1
  O  O1  1  0.32102500  0.16051200  0.09557600  1
  O  O2  1  0.83948800  0.67897500  0.09557600  1
  O  O3  1  0.15914500  0.84085500  0.90430100  1
  O  O4  1  0.68171000  0.84085500  0.90430100  1
  O  O5  1  0.15914500  0.31829000  0.90430100  1
  O  O6  1  0.16051200  0.83948800  0.59557600  1
  O  O7  1  0.67897500  0.83948800  0.59557600  1
  O  O8  1  0.16051200  0.32102500  0.59557600  1
  O  O9  1  0.84085500  0.15914500  0.40430100  1
  O  O10  1  0.31829000  0.15914500  0.40430100  1
  O  O11  1  0.84085500  0.68171000  0.40430100  1
  O  O12  1  0.50273400  0.49726600  0.75243200  1
  O  O13  1  0.99453100  0.49726600  0.75243200  1
  O  O14  1  0.50273400  0.00546900  0.75243200  1
  O  O15  1  0.49726600  0.50273400  0.25243200  1
  O  O16  1  0.00546900  0.50273400  0.25243200  1
  O  O17  1  0.49726600  0.99453100  0.25243200  1
loop_
_geom_bond_atom_site_label_1
_geom_bond_atom_site_label_2
_geom_bond_distance
_geom_bond_site_symmetry_2
K0 O9 2.819906 1_555
K0 O10 2.819909 1_555
K0 O11 2.819909 1_555
K0 O8 3.025430 1_655
K0 O7 3.025430 1_545
K0 O6 3.025435 1_655
K0 O6 3.025435 1_545
K0 O7 3.025440 1_555
K0 O8 3.025440 1_555
K0 Se4 3.321903 1_555
K1 O7 2.955541 1_555
K1 O8 2.955541 1_555
K1 O6 2.955541 1_555
K1 O10 2.961573 1_565
K1 O11 2.961573 1_455
K1 O9 2.961576 1_565
K1 O9 2.961576 1_455
K1 O11 2.961579 1_555
K1 O10 2.961579 1_555
K2 O3 2.819906 1_554
K2 O5 2.819909 1_554
K2 O4 2.819909 1_554
K2 O1 3.025430 1_565
K2 O2 3.025430 1_455
K2 O0 3.025435 1_455
K2 O0 3.025435 1_565
K2 O1 3.025440 1_555
K2 O2 3.025440 1_555
K2 Se5 3.321903 1_555
K3 O1 2.955541 1_556
K3 O2 2.955541 1_556
K3 O0 2.955541 1_556
K3 O5 2.961573 1_655
K3 O4 2.961573 1_545
K3 O3 2.961576 1_655
K3 O3 2.961576 1_545
K3 O4 2.961579 1_555
K3 O5 2.961579 1_555
Co0 O1 2.130371 1_555
Co0 O2 2.130371 1_555
Co0 O0 2.130371 1_555
Co0 O16 2.217384 1_655
Co0 O17 2.217384 1_545
Co0 O15 2.217384 1_555
Co1 O3 2.082443 1_555
Co1 O5 2.082446 1_555
Co1 O4 2.082446 1_555
Co1 O14 2.221781 1_565
Co1 O13 2.221781 1_455
Co1 O12 2.221782 1_555
Co2 O7 2.130371 1_555
Co2 O8 2.130371 1_555
Co2 O6 2.130371 1_555
Co2 O14 2.217384 1_565
Co2 O13 2.217384 1_455
Co2 O12 2.217384 1_555
Co3 O9 2.082443 1_555
Co3 O11 2.082446 1_555
Co3 O10 2.082446 1_555
Co3 O16 2.221781 1_655
Co3 O17 2.221781 1_545
Co3 O15 2.221782 1_555
O0 Se2 1.731144 1_655
O1 Se2 1.731148 1_555
O2 Se2 1.731148 1_665
O3 Se3 1.732356 1_565
O4 Se3 1.732356 1_665
O5 Se3 1.732356 1_555
O6 Se0 1.731144 1_565
O7 Se0 1.731148 1_665
O8 Se0 1.731148 1_555
O9 Se1 1.732356 1_655
O10 Se1 1.732356 1_555
O11 Se1 1.732356 1_665
O12 Se4 1.722529 1_555
O13 Se4 1.722519 1_555
O14 Se4 1.722519 1_555
O15 Se5 1.722529 1_555
O16 Se5 1.722519 1_555
O17 Se5 1.722519 1_555
