# generated using pymatgen
data_La3Mn4AgO12
_symmetry_space_group_name_H-M   'P 1'
_cell_length_a   5.56477800
_cell_length_b   5.52976300
_cell_length_c   7.81840036
_cell_angle_alpha   89.29888164
_cell_angle_beta   90.00000000
_cell_angle_gamma   90.00000000
_symmetry_Int_Tables_number   1
_chemical_formula_structural   La3Mn4AgO12
_chemical_formula_sum   'La3 Mn4 Ag1 O12'
_cell_volume   240.56904866
_cell_formula_units_Z   1
loop_
 _symmetry_equiv_pos_site_id
 _symmetry_equiv_pos_as_xyz
  1  'x, y, z'
loop_
 _atom_site_type_symbol
 _atom_site_label
 _atom_site_symmetry_multiplicity
 _atom_site_fract_x
 _atom_site_fract_y
 _atom_site_fract_z
 _atom_site_occupancy
  La  La0  1  0.49808200  0.00000000  0.00000000  1
  La  La1  1  0.99962400  0.50000000  0.00000000  1
  La  La2  1  0.49917600  0.00000000  0.50000000  1
  Mn  Mn0  1  0.99932600  0.00069000  0.74555100  1
  Mn  Mn1  1  0.49985800  0.50018100  0.25455200  1
  Mn  Mn2  1  0.99932600  0.99931000  0.25444900  1
  Mn  Mn3  1  0.49985800  0.49981900  0.74544800  1
  Ag  Ag0  1  0.99995800  0.50000000  0.50000000  1
  O  O0  1  0.71992500  0.78069900  0.78186000  1
  O  O1  1  0.22587500  0.27345600  0.27266400  1
  O  O2  1  0.22587500  0.72654400  0.72733600  1
  O  O3  1  0.71992500  0.21930100  0.21814000  1
  O  O4  1  0.05362200  0.00000000  0.00000000  1
  O  O5  1  0.56189100  0.50000000  0.50000000  1
  O  O6  1  0.76969100  0.26855000  0.78980800  1
  O  O7  1  0.28729300  0.78813200  0.26871300  1
  O  O8  1  0.93876400  0.00000000  0.50000000  1
  O  O9  1  0.44495000  0.50000000  0.00000000  1
  O  O10  1  0.28729300  0.21186800  0.73128700  1
  O  O11  1  0.76969100  0.73145000  0.21019200  1
loop_
_geom_bond_atom_site_label_1
_geom_bond_atom_site_label_2
_geom_bond_distance
_geom_bond_site_symmetry_2
La0 O3 2.440076 1_555
La0 O0 2.440076 1_544
La0 O4 2.473321 1_555
La0 O7 2.664973 1_545
La0 O10 2.664973 1_554
La0 O11 2.670330 1_545
La0 O6 2.670330 1_554
La0 O9 2.780645 1_555
La0 O9 2.780645 1_545
La1 O11 2.455068 1_555
La1 O6 2.455068 1_554
La1 O9 2.478140 1_655
La1 O2 2.762918 1_654
La1 O1 2.762918 1_655
La1 O3 2.770534 1_555
La1 O0 2.770534 1_554
La1 O4 2.781162 1_665
La1 O4 2.781162 1_655
La2 O8 2.446210 1_555
La2 O7 2.466700 1_545
La2 O10 2.466700 1_555
La2 O1 2.773624 1_555
La2 O2 2.773624 1_545
La2 O5 2.786820 1_545
La2 O5 2.786820 1_555
La2 O3 2.787558 1_555
La2 O0 2.787558 1_545
Mn0 O8 1.949222 1_555
Mn0 O2 1.978145 1_645
Mn0 O10 1.985155 1_655
Mn0 O6 1.989768 1_555
Mn0 O0 1.992340 1_545
Mn0 O4 2.012156 1_656
Mn1 O5 1.949800 1_555
Mn1 O1 1.977911 1_555
Mn1 O7 1.987761 1_555
Mn1 O11 1.999902 1_555
Mn1 O3 2.001000 1_555
Mn1 O9 2.013521 1_555
Mn2 O8 1.949222 1_565
Mn2 O1 1.978145 1_665
Mn2 O7 1.985155 1_655
Mn2 O11 1.989768 1_555
Mn2 O3 1.992340 1_565
Mn2 O4 2.012156 1_665
Mn3 O5 1.949800 1_555
Mn3 O2 1.977911 1_555
Mn3 O10 1.987761 1_555
Mn3 O6 1.999902 1_555
Mn3 O0 2.001000 1_555
Mn3 O9 2.013521 1_556
Ag0 O5 2.437746 1_555
Ag0 O1 2.522597 1_655
Ag0 O2 2.522597 1_655
