# generated using pymatgen
data_Li19Mn4P8O35F
_symmetry_space_group_name_H-M   'P 1'
_cell_length_a   6.78154000
_cell_length_b   10.64809798
_cell_length_c   10.77871963
_cell_angle_alpha   82.79963702
_cell_angle_beta   71.66821636
_cell_angle_gamma   71.52008540
_symmetry_Int_Tables_number   1
_chemical_formula_structural   Li19Mn4P8O35F
_chemical_formula_sum   'Li19 Mn4 P8 O35 F1'
_cell_volume   700.45444722
_cell_formula_units_Z   1
loop_
 _symmetry_equiv_pos_site_id
 _symmetry_equiv_pos_as_xyz
  1  'x, y, z'
loop_
 _atom_site_type_symbol
 _atom_site_label
 _atom_site_symmetry_multiplicity
 _atom_site_fract_x
 _atom_site_fract_y
 _atom_site_fract_z
 _atom_site_occupancy
  Li  Li0  1  0.75803500  0.24554200  0.23882700  1
  Li  Li1  1  0.25811600  0.24491500  0.23836000  1
  Li  Li2  1  0.36891000  0.48844200  0.25547100  1
  Li  Li3  1  0.88766300  0.26606000  0.48581200  1
  Li  Li4  1  0.87373100  0.74355900  0.00732900  1
  Li  Li5  1  0.36326800  0.01351500  0.76058500  1
  Li  Li6  1  0.00232000  0.73422100  0.25961000  1
  Li  Li7  1  0.50433000  0.72738100  0.26590200  1
  Li  Li8  1  0.99766400  0.26556200  0.73778800  1
  Li  Li9  1  0.49902900  0.27227400  0.73193900  1
  Li  Li10  1  0.49977700  0.49934400  0.50023700  1
  Li  Li11  1  0.13365500  0.99057700  0.24418000  1
  Li  Li12  1  0.62550700  0.25444400  0.99277400  1
  Li  Li13  1  0.64895900  0.72721700  0.51262500  1
  Li  Li14  1  0.11332400  0.50977100  0.74337500  1
  Li  Li15  1  0.23945200  0.75250900  0.76363800  1
  Li  Li16  1  0.74390600  0.75350700  0.76457500  1
  Li  Li17  1  0.99725600  0.99924000  0.00034800  1
  Li  Li18  1  0.50311500  0.99928600  0.00037000  1
  Mn  Mn0  1  0.23854200  0.00393900  0.49832300  1
  Mn  Mn1  1  0.24800200  0.49973300  0.00079200  1
  Mn  Mn2  1  0.76468700  0.99949800  0.49638400  1
  Mn  Mn3  1  0.74996100  0.49864300  0.99776600  1
  P  P0  1  0.85612400  0.50283700  0.27694000  1
  P  P1  1  0.36499300  0.27462100  0.50160800  1
  P  P2  1  0.35864500  0.77787300  0.00383800  1
  P  P3  1  0.86030500  0.00292200  0.77811500  1
  P  P4  1  0.64338000  0.99444600  0.21926300  1
  P  P5  1  0.14139300  0.22084400  0.99508900  1
  P  P6  1  0.63763100  0.49611700  0.72103200  1
  P  P7  1  0.14216500  0.72365100  0.49827000  1
  O  O0  1  0.16220600  0.09308800  0.08162400  1
  O  O1  1  0.66299000  0.08244900  0.09324000  1
  O  O2  1  0.89410900  0.29581000  0.03044700  1
  O  O3  1  0.27386000  0.29720000  0.03358700  1
  O  O4  1  0.39703900  0.03280900  0.29603500  1
  O  O5  1  0.77942000  0.02938400  0.29530700  1
  O  O6  1  0.49373900  0.44680700  0.06190500  1
  O  O7  1  0.99639200  0.06693000  0.44096300  1
  O  O8  1  0.91694600  0.35080800  0.30991200  1
  O  O9  1  0.42188400  0.30917900  0.35281500  1
  O  O10  1  0.57422900  0.18540100  0.53849900  1
  O  O11  1  0.18975800  0.19665700  0.54168300  1
  O  O12  1  0.06670300  0.54346900  0.20345400  1
  O  O13  1  0.69588200  0.53806500  0.19170300  1
  O  O14  1  0.27106700  0.80714900  0.15274300  1
  O  O15  1  0.76855500  0.15341500  0.80731300  1
  O  O16  1  0.73012200  0.59088500  0.39581400  1
  O  O17  1  0.28160900  0.39222700  0.59129900  1
  O  O18  1  0.71867300  0.40827900  0.60200000  1
  O  O19  1  0.26901400  0.60699100  0.40788200  1
  O  O20  1  0.73177300  0.84369700  0.19026900  1
  O  O21  1  0.23192000  0.19216100  0.84585400  1
  O  O22  1  0.29691600  0.81533900  0.46276600  1
  O  O23  1  0.92905700  0.80125100  0.45893000  1
  O  O24  1  0.42762300  0.46073600  0.80665500  1
  O  O25  1  0.81473000  0.45611400  0.79479200  1
  O  O26  1  0.57898100  0.64844900  0.68796100  1
  O  O27  1  0.08605000  0.68827300  0.64669200  1
  O  O28  1  0.00404300  0.55172100  0.93665100  1
  O  O29  1  0.60562800  0.70135100  0.96512300  1
  O  O30  1  0.72886700  0.96471800  0.70009500  1
  O  O31  1  0.10828800  0.96818500  0.70296100  1
  O  O32  1  0.22155900  0.70283700  0.96825600  1
  O  O33  1  0.84082900  0.91372400  0.90325400  1
  O  O34  1  0.33933600  0.90517800  0.91646500  1
  F  F0  1  0.50883700  0.93428700  0.55140000  1
loop_
_geom_bond_atom_site_label_1
_geom_bond_atom_site_label_2
_geom_bond_distance
_geom_bond_site_symmetry_2
Li0 O8 2.122559 1_555
Li0 O9 2.152443 1_555
Li0 O2 2.211526 1_555
Li0 O5 2.276403 1_555
Li1 O8 2.158920 1_455
Li1 O3 2.185051 1_555
Li1 O9 2.186071 1_555
Li1 O4 2.245558 1_555
Li2 O19 2.007193 1_555
Li2 O6 2.036945 1_555
Li2 O9 2.043001 1_555
Li2 O12 2.176472 1_555
Li2 O13 2.315465 1_555
Li3 O18 1.909830 1_555
Li3 O8 1.973922 1_555
Li3 O7 2.077228 1_555
Li3 O11 2.193302 1_655
Li3 O10 2.419486 1_555
Li4 O33 1.995728 1_554
Li4 O28 2.087155 1_654
Li4 O20 2.152714 1_555
Li4 O32 2.168374 1_654
Li4 O29 2.191847 1_554
Li5 O34 1.908246 1_545
Li5 O21 2.026278 1_555
Li5 O31 2.211016 1_545
Li5 O30 2.256884 1_545
Li6 O12 2.064537 1_555
Li6 O20 2.138235 1_455
Li6 O14 2.145658 1_555
Li6 O23 2.204565 1_455
Li7 O13 2.116912 1_555
Li7 O20 2.178212 1_555
Li7 O14 2.194013 1_555
Li7 O22 2.268010 1_555
Li7 O19 2.408485 1_555
Li7 O16 2.417763 1_555
Li8 O25 2.066582 1_555
Li8 O15 2.149666 1_555
Li8 O21 2.154070 1_655
Li8 O11 2.180382 1_655
Li9 O24 2.110435 1_555
Li9 O15 2.193752 1_555
Li9 O21 2.198745 1_555
Li9 O10 2.231300 1_555
Li9 O18 2.413361 1_555
Li9 O17 2.414568 1_555
Li10 O18 2.047458 1_555
Li10 O16 2.059457 1_555
Li10 O19 2.076190 1_555
Li10 O17 2.080623 1_555
Li11 O0 1.933939 1_565
Li11 O14 2.098943 1_555
Li11 O7 2.176455 1_465
Li11 O5 2.200076 1_465
Li11 O4 2.214756 1_565
Li12 O1 1.993050 1_556
Li12 O6 2.086313 1_556
Li12 O2 2.166943 1_556
Li12 O15 2.179937 1_555
Li12 O3 2.188531 1_556
Li13 O16 1.873847 1_555
Li13 O26 1.947099 1_555
Li13 O23 2.169762 1_555
Li13 O22 2.475773 1_555
Li14 O17 1.996982 1_555
Li14 O27 2.033409 1_555
Li14 O28 2.034945 1_555
Li14 O25 2.163802 1_455
Li14 O24 2.323911 1_555
Li15 O26 2.150003 1_555
Li15 O27 2.151999 1_555
Li15 O32 2.176857 1_555
Li15 O31 2.277601 1_555
Li16 O29 2.148167 1_555
Li16 O26 2.188612 1_555
Li16 O27 2.196727 1_655
Li16 O30 2.249172 1_555
Li17 O1 2.108913 1_565
Li17 O0 2.135862 1_665
Li17 O33 2.144613 1_554
Li17 O34 2.153349 1_654
Li18 O1 2.115475 1_565
Li18 O33 2.139906 1_554
Li18 O0 2.142722 1_565
Li18 O34 2.149480 1_554
Mn0 O7 1.834459 1_455
Mn0 O22 1.982452 1_545
Mn0 O11 2.061963 1_555
Mn0 O31 2.137183 1_545
Mn0 O4 2.138036 1_555
Mn1 O6 1.879026 1_555
Mn1 O28 1.887982 1_554
Mn1 O24 2.080564 1_554
Mn1 O3 2.101128 1_555
Mn1 O32 2.106151 1_554
Mn1 O12 2.168614 1_555
Mn2 O7 1.832679 1_565
Mn2 O10 2.007083 1_565
Mn2 O23 2.073760 1_555
Mn2 O5 2.125962 1_565
Mn2 O30 2.129582 1_555
Mn3 O28 1.879460 1_655
Mn3 O6 1.886396 1_556
Mn3 O13 2.078600 1_556
Mn3 O29 2.104210 1_555
Mn3 O2 2.105186 1_556
Mn3 O25 2.168469 1_555
O0 P5 1.543862 1_554
O1 P4 1.545063 1_545
O2 P5 1.555724 1_654
O3 P5 1.556379 1_554
O4 P4 1.557233 1_545
O5 P4 1.559180 1_545
O8 P0 1.562597 1_555
O9 P1 1.552179 1_555
O10 P1 1.574707 1_555
O11 P1 1.581327 1_555
O12 P0 1.564660 1_455
O13 P0 1.564900 1_555
O14 P2 1.560252 1_555
O15 P3 1.557319 1_555
O16 P0 1.534748 1_555
O17 P1 1.527504 1_555
O18 P6 1.534394 1_555
O19 P7 1.526773 1_555
O20 P4 1.559344 1_555
O21 P5 1.562289 1_555
O22 P7 1.582467 1_555
O23 P7 1.578541 1_655
O24 P6 1.564658 1_555
O25 P6 1.564406 1_555
O26 P6 1.565742 1_555
O27 P7 1.550139 1_555
O29 P2 1.556866 1_556
O30 P3 1.566636 1_565
O31 P3 1.563649 1_465
O32 P2 1.556188 1_556
O33 P3 1.544416 1_565
O34 P2 1.544873 1_556
F0 Mn2 1.964066 1_555
F0 Mn0 1.982112 1_565
F0 Li13 2.142937 1_555
F0 Li5 2.306263 1_565
