# generated using pymatgen
data_Zn(MoO2)4
_symmetry_space_group_name_H-M   'P 1'
_cell_length_a   3.23680200
_cell_length_b   7.54869485
_cell_length_c   7.88669765
_cell_angle_alpha   84.64507196
_cell_angle_beta   78.66954950
_cell_angle_gamma   78.88306465
_symmetry_Int_Tables_number   1
_chemical_formula_structural   Zn(MoO2)4
_chemical_formula_sum   'Zn1 Mo4 O8'
_cell_volume   185.09147442
_cell_formula_units_Z   1
loop_
 _symmetry_equiv_pos_site_id
 _symmetry_equiv_pos_as_xyz
  1  'x, y, z'
loop_
 _atom_site_type_symbol
 _atom_site_label
 _atom_site_symmetry_multiplicity
 _atom_site_fract_x
 _atom_site_fract_y
 _atom_site_fract_z
 _atom_site_occupancy
  Zn  Zn0  1  0.17302500  0.93010900  0.87895900  1
  Mo  Mo0  1  0.38690000  0.81930400  0.44609000  1
  Mo  Mo1  1  0.89418700  0.51043300  0.78906100  1
  Mo  Mo2  1  0.21311200  0.49803200  0.15798800  1
  Mo  Mo3  1  0.68566800  0.19460200  0.49798500  1
  O  O0  1  0.18622200  0.31795600  0.36648700  1
  O  O1  1  0.57797500  0.64561000  0.25426200  1
  O  O2  1  0.51032100  0.36891500  0.68219100  1
  O  O3  1  0.90956600  0.69817700  0.57255900  1
  O  O4  1  0.85418300  0.97366500  0.34728600  1
  O  O5  1  0.27142700  0.65303100  0.91370400  1
  O  O6  1  0.20290500  0.03639900  0.61957500  1
  O  O7  1  0.83874100  0.37766100  0.04320800  1
loop_
_geom_bond_atom_site_label_1
_geom_bond_atom_site_label_2
_geom_bond_distance
_geom_bond_site_symmetry_2
Mo0 O3 1.996757 1_455
Mo0 O1 2.019992 1_555
Mo0 O4 2.073562 1_555
Mo0 O4 2.126466 1_455
Mo0 O3 2.142258 1_555
Mo0 O6 2.152742 1_565
Mo1 O3 2.113915 1_555
Mo1 O2 2.118212 1_555
Mo1 O2 2.124824 1_655
Mo1 O7 2.146467 1_556
Mo1 O5 2.184135 1_555
Mo1 O5 2.189064 1_655
Mo2 O7 2.030420 1_455
Mo2 O0 2.032610 1_555
Mo2 O1 2.056663 1_555
Mo2 O7 2.114124 1_555
Mo2 O5 2.153582 1_554
Mo2 O1 2.169168 1_455
Mo3 O2 1.977102 1_555
Mo3 O4 2.063019 1_545
Mo3 O0 2.075795 1_655
Mo3 O0 2.110467 1_555
Mo3 O6 2.169001 1_555
Mo3 O6 2.189694 1_655
O5 Zn0 2.054666 1_555
O6 Zn0 2.117490 1_545
