# generated using pymatgen
data_CrCuB
_symmetry_space_group_name_H-M   'P 1'
_cell_length_a   3.58959363
_cell_length_b   3.58959363
_cell_length_c   3.58959363
_cell_angle_alpha   60.00000000
_cell_angle_beta   60.00000000
_cell_angle_gamma   60.00000000
_symmetry_Int_Tables_number   1
_chemical_formula_structural   CrCuB
_chemical_formula_sum   'Cr1 Cu1 B1'
_cell_volume   32.70550512
_cell_formula_units_Z   1
loop_
 _symmetry_equiv_pos_site_id
 _symmetry_equiv_pos_as_xyz
  1  'x, y, z'
loop_
 _atom_site_type_symbol
 _atom_site_label
 _atom_site_symmetry_multiplicity
 _atom_site_fract_x
 _atom_site_fract_y
 _atom_site_fract_z
 _atom_site_occupancy
  Cr  Cr0  1  0.00000000  0.00000000  0.00000000  1
  Cu  Cu0  1  0.50000000  0.50000000  0.50000000  1
  B  B0  1  0.25000000  0.25000000  0.25000000  1
loop_
_geom_bond_atom_site_label_1
_geom_bond_atom_site_label_2
_geom_bond_distance
_geom_bond_site_symmetry_2
Cr0 Cu0 2.538226 1_554
Cr0 Cu0 2.538226 1_545
Cr0 Cu0 2.538226 1_454
Cr0 Cu0 2.538226 1_455
Cr0 Cu0 2.538226 1_445
Cr0 Cu0 2.538226 1_544
B0 Cr0 2.198168 1_555
B0 Cr0 2.198168 1_556
B0 Cu0 2.198168 1_554
B0 Cu0 2.198168 1_455
B0 Cr0 2.198168 1_655
B0 Cu0 2.198168 1_545
B0 Cr0 2.198168 1_565
B0 Cu0 2.198168 1_555
