# generated using pymatgen
data_CoSb(PO4)2
_symmetry_space_group_name_H-M   'P 1'
_cell_length_a   7.97125072
_cell_length_b   8.05586850
_cell_length_c   10.08776457
_cell_angle_alpha   86.70598539
_cell_angle_beta   88.07058408
_cell_angle_gamma   103.36076043
_symmetry_Int_Tables_number   1
_chemical_formula_structural   CoSb(PO4)2
_chemical_formula_sum   'Co4 Sb4 P8 O32'
_cell_volume   628.47983755
_cell_formula_units_Z   4
loop_
 _symmetry_equiv_pos_site_id
 _symmetry_equiv_pos_as_xyz
  1  'x, y, z'
loop_
 _atom_site_type_symbol
 _atom_site_label
 _atom_site_symmetry_multiplicity
 _atom_site_fract_x
 _atom_site_fract_y
 _atom_site_fract_z
 _atom_site_occupancy
  Co  Co0  1  0.08651800  0.32821900  0.22023700  1
  Co  Co1  1  0.91751000  0.66841900  0.78339000  1
  Co  Co2  1  0.58344600  0.83179200  0.21728000  1
  Co  Co3  1  0.41351800  0.17237500  0.77988700  1
  Sb  Sb0  1  0.59710300  0.34109100  0.29861400  1
  Sb  Sb1  1  0.10607400  0.85500900  0.28533600  1
  Sb  Sb2  1  0.39376400  0.64459900  0.71433000  1
  Sb  Sb3  1  0.90292000  0.15911600  0.70172700  1
  P  P0  1  0.32531500  0.07460800  0.09178900  1
  P  P1  1  0.82926100  0.57973600  0.10877500  1
  P  P2  1  0.67022800  0.92026400  0.89100600  1
  P  P3  1  0.17493700  0.42538400  0.90862000  1
  P  P4  1  0.81755600  0.04382800  0.40390900  1
  P  P5  1  0.29938600  0.57148000  0.40899700  1
  P  P6  1  0.20068700  0.92769200  0.59090700  1
  P  P7  1  0.68262600  0.45683100  0.59608000  1
  O  O0  1  0.67851000  0.92856400  0.03902900  1
  O  O1  1  0.20205300  0.45211300  0.05389800  1
  O  O2  1  0.29873800  0.04807500  0.94642200  1
  O  O3  1  0.82041500  0.57157300  0.96077600  1
  O  O4  1  0.47303800  0.22338400  0.11719800  1
  O  O5  1  0.98419700  0.73198000  0.13633200  1
  O  O6  1  0.51548300  0.76807800  0.86321100  1
  O  O7  1  0.02688300  0.27674200  0.88357200  1
  O  O8  1  0.46087900  0.71128100  0.38309600  1
  O  O9  1  0.96181100  0.20529700  0.38581800  1
  O  O10  1  0.53765300  0.29582200  0.61396100  1
  O  O11  1  0.03941800  0.78764800  0.61704000  1
  O  O12  1  0.23094000  0.97418300  0.43562700  1
  O  O13  1  0.73863000  0.49822500  0.44863000  1
  O  O14  1  0.76258900  0.00210000  0.55152900  1
  O  O15  1  0.26791000  0.52544900  0.56427800  1
  O  O16  1  0.14747800  0.08584000  0.17185300  1
  O  O17  1  0.65449000  0.59491000  0.17980600  1
  O  O18  1  0.33599000  0.89735600  0.17314500  1
  O  O19  1  0.84830600  0.40631800  0.18268900  1
  O  O20  1  0.65140800  0.09371800  0.81680300  1
  O  O21  1  0.16429500  0.60262000  0.82717800  1
  O  O22  1  0.84535700  0.90539100  0.82023100  1
  O  O23  1  0.35244500  0.41389400  0.82815100  1
  O  O24  1  0.87635900  0.88061400  0.34768600  1
  O  O25  1  0.29854700  0.40704700  0.33899000  1
  O  O26  1  0.66241500  0.05434100  0.31733000  1
  O  O27  1  0.13087500  0.62736700  0.35827200  1
  O  O28  1  0.20184000  0.09181900  0.66138000  1
  O  O29  1  0.62354100  0.62026200  0.65157200  1
  O  O30  1  0.36969100  0.87171400  0.64024200  1
  O  O31  1  0.83697100  0.44583000  0.68337200  1
loop_
_geom_bond_atom_site_label_1
_geom_bond_atom_site_label_2
_geom_bond_distance
_geom_bond_site_symmetry_2
Co0 O1 1.984597 1_555
Co0 O9 2.000493 1_455
Co0 O25 2.103007 1_555
Co0 O19 2.172120 1_455
Co0 O16 2.195211 1_555
Co1 O3 1.969009 1_555
Co1 O11 1.989090 1_655
Co1 O31 2.089264 1_555
Co1 O22 2.165141 1_555
Co1 O21 2.204412 1_655
Co2 O0 1.972172 1_555
Co2 O8 1.989972 1_555
Co2 O26 2.087646 1_565
Co2 O17 2.161741 1_555
Co2 O18 2.209456 1_555
Co3 O2 1.985409 1_555
Co3 O10 2.003043 1_555
Co3 O28 2.101502 1_555
Co3 O20 2.170676 1_555
Co3 O23 2.188663 1_555
O0 P2 1.501536 1_554
O1 P3 1.508956 1_554
O2 P0 1.508971 1_556
O3 P1 1.501503 1_556
O4 P0 1.513975 1_555
O4 Sb0 2.261475 1_555
O5 P1 1.571317 1_555
O5 Sb1 2.002502 1_655
O6 P2 1.570700 1_555
O6 Sb2 2.002565 1_555
O7 P3 1.514018 1_555
O7 Sb3 2.264610 1_455
O8 P5 1.505749 1_555
O9 P4 1.521472 1_555
O10 P7 1.522072 1_555
O11 P6 1.505842 1_555
O12 P6 1.586671 1_555
O12 Sb1 2.009529 1_555
O13 P7 1.533772 1_555
O13 Sb0 2.200081 1_555
O14 P4 1.533959 1_555
O14 Sb3 2.197141 1_555
O15 P5 1.586812 1_555
O15 Sb2 2.010772 1_555
O16 P0 1.631146 1_555
O16 Sb1 2.079340 1_545
O17 P1 1.578220 1_555
O17 Sb0 2.252949 1_555
O18 P0 1.626630 1_565
O18 Sb1 2.069569 1_555
O19 P1 1.586392 1_555
O19 Sb0 2.222319 1_555
O20 P2 1.587317 1_545
O20 Sb3 2.220244 1_555
O21 P3 1.626844 1_555
O21 Sb2 2.070205 1_555
O22 P2 1.578900 1_555
O22 Sb3 2.250837 1_565
O23 P3 1.631394 1_555
O23 Sb2 2.080233 1_555
O24 P4 1.619505 1_565
O24 Sb1 1.975616 1_655
O25 P5 1.535321 1_555
O25 Sb0 2.579917 1_555
O26 P4 1.553049 1_555
O26 Sb0 2.480967 1_555
O27 P5 1.602542 1_555
O27 Sb1 1.991416 1_555
O28 P6 1.535091 1_545
O28 Sb3 2.587318 1_455
O29 P7 1.619287 1_555
O29 Sb2 1.973874 1_555
O30 P6 1.601887 1_555
O30 Sb2 1.989383 1_555
O31 P7 1.552851 1_555
O31 Sb3 2.482754 1_555
