# generated using pymatgen
data_Nd4Ir
_symmetry_space_group_name_H-M   'P 1'
_cell_length_a   7.95925474
_cell_length_b   7.95925474
_cell_length_c   7.95925474
_cell_angle_alpha   60.00000000
_cell_angle_beta   60.00000000
_cell_angle_gamma   60.00000000
_symmetry_Int_Tables_number   1
_chemical_formula_structural   Nd4Ir
_chemical_formula_sum   'Nd8 Ir2'
_cell_volume   356.53503836
_cell_formula_units_Z   2
loop_
 _symmetry_equiv_pos_site_id
 _symmetry_equiv_pos_as_xyz
  1  'x, y, z'
loop_
 _atom_site_type_symbol
 _atom_site_label
 _atom_site_symmetry_multiplicity
 _atom_site_fract_x
 _atom_site_fract_y
 _atom_site_fract_z
 _atom_site_occupancy
  Nd  Nd0  1  0.61182700  0.61182700  0.61182700  1
  Nd  Nd1  1  0.16451900  0.61182700  0.61182700  1
  Nd  Nd2  1  0.61182700  0.16451900  0.61182700  1
  Nd  Nd3  1  0.58548100  0.13817300  0.13817300  1
  Nd  Nd4  1  0.13817300  0.13817300  0.13817300  1
  Nd  Nd5  1  0.61182700  0.61182700  0.16451900  1
  Nd  Nd6  1  0.13817300  0.58548100  0.13817300  1
  Nd  Nd7  1  0.13817300  0.13817300  0.58548100  1
  Ir  Ir0  1  0.00000000  0.00000000  0.00000000  1
  Ir  Ir1  1  0.75000000  0.75000000  0.75000000  1
loop_
_geom_bond_atom_site_label_1
_geom_bond_atom_site_label_2
_geom_bond_distance
_geom_bond_site_symmetry_2
Ir0 Nd7 2.693836 1_554
Ir0 Nd6 2.693836 1_545
Ir0 Nd3 2.693836 1_455
Ir0 Nd4 2.693836 1_555
Ir1 Nd0 2.693836 1_555
Ir1 Nd1 2.693836 1_655
Ir1 Nd2 2.693836 1_565
Ir1 Nd5 2.693836 1_556
