# generated using pymatgen
data_DyNiGe2
_symmetry_space_group_name_H-M   'P 1'
_cell_length_a   4.10932664
_cell_length_b   4.08253722
_cell_length_c   8.57048331
_cell_angle_alpha   103.77880935
_cell_angle_beta   90.00000000
_cell_angle_gamma   90.00000000
_symmetry_Int_Tables_number   1
_chemical_formula_structural   DyNiGe2
_chemical_formula_sum   'Dy2 Ni2 Ge4'
_cell_volume   139.64482156
_cell_formula_units_Z   2
loop_
 _symmetry_equiv_pos_site_id
 _symmetry_equiv_pos_as_xyz
  1  'x, y, z'
loop_
 _atom_site_type_symbol
 _atom_site_label
 _atom_site_symmetry_multiplicity
 _atom_site_fract_x
 _atom_site_fract_y
 _atom_site_fract_z
 _atom_site_occupancy
  Dy  Dy0  1  0.75000000  0.10828319  0.21656638  1
  Dy  Dy1  1  0.25000000  0.89171681  0.78343362  1
  Ni  Ni0  1  0.75000000  0.32136501  0.64273203  1
  Ni  Ni1  1  0.25000000  0.67863499  0.35726797  1
  Ge  Ge0  1  0.75000000  0.45810562  0.91621124  1
  Ge  Ge1  1  0.25000000  0.54189438  0.08378876  1
  Ge  Ge2  1  0.75000000  0.74909296  0.49818592  1
  Ge  Ge3  1  0.25000000  0.25090704  0.50181408  1
loop_
_geom_bond_atom_site_label_1
_geom_bond_atom_site_label_2
_geom_bond_distance
_geom_bond_site_symmetry_2
Dy0 Ge1 3.099989 1_645
Dy0 Ge1 3.099989 1_545
Dy0 Ge1 3.099989 1_555
Dy0 Ge1 3.099989 1_655
Dy0 Ge2 3.108352 1_555
Dy0 Ge2 3.108352 1_545
Dy0 Ni1 3.124110 1_645
Dy0 Ni1 3.124110 1_545
Dy0 Ni1 3.124115 1_655
Dy0 Ni1 3.124115 1_555
Dy0 Ge3 3.139939 1_555
Dy0 Ge3 3.139939 1_655
Dy0 Ge0 3.227588 1_554
Dy0 Ge0 3.227588 1_544
Dy1 Ge0 3.099989 1_455
Dy1 Ge0 3.099989 1_565
Dy1 Ge0 3.099989 1_465
Dy1 Ge0 3.099989 1_555
Dy1 Ge3 3.108352 1_555
Dy1 Ge3 3.108352 1_565
Dy1 Ni0 3.124110 1_565
Dy1 Ni0 3.124110 1_465
Dy1 Ni0 3.124115 1_455
Dy1 Ni0 3.124115 1_555
Dy1 Ge2 3.139939 1_555
Dy1 Ge2 3.139939 1_455
Dy1 Ge1 3.227588 1_556
Dy1 Ge1 3.227588 1_566
Ge0 Ni0 2.276399 1_555
Ge0 Ge1 2.483417 1_556
Ge0 Ge1 2.483417 1_656
Ge1 Ni1 2.276399 1_555
Ge2 Ni1 2.365908 1_655
Ge2 Ni1 2.365908 1_555
Ge2 Ni0 2.369473 1_565
Ge2 Ni0 2.369480 1_555
Ge3 Ni0 2.365908 1_555
Ge3 Ni0 2.365908 1_455
Ge3 Ni1 2.369473 1_545
Ge3 Ni1 2.369480 1_555
