# generated using pymatgen
data_La3In4Ge
_symmetry_space_group_name_H-M   'P 1'
_cell_length_a   8.63850133
_cell_length_b   8.63850133
_cell_length_c   8.63850720
_cell_angle_alpha   119.70488721
_cell_angle_beta   119.70488721
_cell_angle_gamma   90.51192638
_symmetry_Int_Tables_number   1
_chemical_formula_structural   La3In4Ge
_chemical_formula_sum   'La6 In8 Ge2'
_cell_volume   457.84092931
_cell_formula_units_Z   2
loop_
 _symmetry_equiv_pos_site_id
 _symmetry_equiv_pos_as_xyz
  1  'x, y, z'
loop_
 _atom_site_type_symbol
 _atom_site_label
 _atom_site_symmetry_multiplicity
 _atom_site_fract_x
 _atom_site_fract_y
 _atom_site_fract_z
 _atom_site_occupancy
  La  La0  1  0.75000000  0.75000000  -0.00000000  1
  La  La1  1  0.25000000  0.25000000  -0.00000000  1
  La  La2  1  0.33424222  0.83424222  0.16848344  1
  La  La3  1  0.66575778  0.16575778  0.83151656  1
  La  La4  1  0.83424222  0.66575778  0.50000000  1
  La  La5  1  0.16575778  0.33424222  0.50000000  1
  In  In0  1  0.95747762  0.45747762  0.78494631  1
  In  In1  1  0.67253130  0.17253130  0.21505369  1
  In  In2  1  0.45747762  0.67253130  0.50000000  1
  In  In3  1  0.17253130  0.95747762  0.50000000  1
  In  In4  1  0.04252238  0.54252238  0.21505369  1
  In  In5  1  0.32746870  0.82746870  0.78494631  1
  In  In6  1  0.54252238  0.32746870  0.50000000  1
  In  In7  1  0.82746870  0.04252238  0.50000000  1
  Ge  Ge0  1  -0.00000000  -0.00000000  -0.00000000  1
  Ge  Ge1  1  0.50000000  0.50000000  -0.00000000  1
loop_
_geom_bond_atom_site_label_1
_geom_bond_atom_site_label_2
_geom_bond_distance
_geom_bond_site_symmetry_2
In0 In6 2.934834 1_555
In0 In7 2.934834 1_555
In0 In4 3.076391 1_656
In0 La2 3.255729 1_656
In0 La1 3.431815 1_656
In0 La0 3.431815 1_556
In0 La4 3.500858 1_555
In0 La5 3.500858 1_655
In1 In6 2.934835 1_555
In1 In7 2.934835 1_555
In1 In5 3.076388 1_544
In1 La3 3.255724 1_554
In1 La1 3.431814 1_555
In1 La0 3.431814 1_545
In1 La4 3.500856 1_555
In1 La5 3.500856 1_655
In2 In4 2.934834 1_555
In2 In5 2.934835 1_555
In2 In6 3.076389 1_555
In2 La4 3.255730 1_555
In2 La1 3.431815 1_555
In2 La0 3.431816 1_556
In2 La3 3.500856 1_565
In2 La2 3.500866 1_555
In3 In4 2.934834 1_555
In3 In5 2.934835 1_555
In3 In7 3.076389 1_465
In3 La5 3.255730 1_565
In3 La0 3.431815 1_455
In3 La1 3.431816 1_566
In3 La3 3.500856 1_565
In3 La2 3.500866 1_555
In4 La3 3.255729 1_454
In4 La0 3.431815 1_455
In4 La1 3.431815 1_555
In4 La4 3.500858 1_455
In4 La5 3.500858 1_555
In5 La2 3.255724 1_556
In5 La0 3.431814 1_556
In5 La1 3.431814 1_566
In5 La4 3.500856 1_455
In5 La5 3.500856 1_555
In6 La5 3.255730 1_555
In6 La0 3.431815 1_556
In6 La1 3.431816 1_555
In6 La2 3.500856 1_545
In6 La3 3.500866 1_555
In7 La4 3.255730 1_545
In7 La1 3.431815 1_656
In7 La0 3.431816 1_545
In7 La2 3.500856 1_545
In7 La3 3.500866 1_555
Ge0 La1 3.040497 1_555
Ge0 La0 3.040497 1_445
Ge0 La2 3.237272 1_545
Ge0 La3 3.237272 1_454
Ge0 La4 3.237275 1_444
Ge0 La5 3.237275 1_555
Ge1 La0 3.040497 1_555
Ge1 La1 3.040497 1_555
Ge1 La3 3.237272 1_554
Ge1 La2 3.237272 1_555
Ge1 La4 3.237275 1_555
Ge1 La5 3.237275 1_554
