# generated using pymatgen
data_TiP2O9
_symmetry_space_group_name_H-M   'P 1'
_cell_length_a   5.19204200
_cell_length_b   8.83390200
_cell_length_c   15.60936471
_cell_angle_alpha   73.91664331
_cell_angle_beta   90.00000000
_cell_angle_gamma   90.00000000
_symmetry_Int_Tables_number   1
_chemical_formula_structural   TiP2O9
_chemical_formula_sum   'Ti4 P8 O36'
_cell_volume   687.91688033
_cell_formula_units_Z   4
loop_
 _symmetry_equiv_pos_site_id
 _symmetry_equiv_pos_as_xyz
  1  'x, y, z'
loop_
 _atom_site_type_symbol
 _atom_site_label
 _atom_site_symmetry_multiplicity
 _atom_site_fract_x
 _atom_site_fract_y
 _atom_site_fract_z
 _atom_site_occupancy
  Ti  Ti0  1  0.75095500  0.21947500  0.02605000  1
  Ti  Ti1  1  0.74904500  0.21947500  0.52605000  1
  Ti  Ti2  1  0.24904500  0.78052500  0.97395000  1
  Ti  Ti3  1  0.25095500  0.78052500  0.47395000  1
  P  P0  1  0.25887700  0.00316300  0.11882700  1
  P  P1  1  0.24112300  0.00316300  0.61882700  1
  P  P2  1  0.74112300  0.99683700  0.88117300  1
  P  P3  1  0.75887700  0.99683700  0.38117300  1
  P  P4  1  0.73374700  0.55210500  0.08511300  1
  P  P5  1  0.76625300  0.55210500  0.58511300  1
  P  P6  1  0.26625300  0.44789500  0.91488700  1
  P  P7  1  0.23374700  0.44789500  0.41488700  1
  O  O0  1  0.30740300  0.89923400  0.05416900  1
  O  O1  1  0.19259700  0.89923400  0.55416900  1
  O  O2  1  0.69259700  0.10076600  0.94583100  1
  O  O3  1  0.80740300  0.10076600  0.44583100  1
  O  O4  1  0.98648100  0.07989800  0.09475100  1
  O  O5  1  0.51351900  0.07989800  0.59475100  1
  O  O6  1  0.01351900  0.92010200  0.90524900  1
  O  O7  1  0.48648100  0.92010200  0.40524900  1
  O  O8  1  0.45454200  0.14393700  0.09107000  1
  O  O9  1  0.04545800  0.14393700  0.59107000  1
  O  O10  1  0.54545800  0.85606300  0.90893000  1
  O  O11  1  0.95454200  0.85606300  0.40893000  1
  O  O12  1  0.28209700  0.90821700  0.21446300  1
  O  O13  1  0.21790300  0.90821700  0.71446300  1
  O  O14  1  0.71790300  0.09178300  0.78553700  1
  O  O15  1  0.78209700  0.09178300  0.28553700  1
  O  O16  1  0.93790500  0.67470200  0.05490500  1
  O  O17  1  0.56209500  0.67470200  0.55490500  1
  O  O18  1  0.06209500  0.32529800  0.94509500  1
  O  O19  1  0.43790500  0.32529800  0.44509500  1
  O  O20  1  0.45647500  0.59549500  0.06307000  1
  O  O21  1  0.04352500  0.59549500  0.56307000  1
  O  O22  1  0.54352500  0.40450500  0.93693000  1
  O  O23  1  0.95647500  0.40450500  0.43693000  1
  O  O24  1  0.80837300  0.38278100  0.09670600  1
  O  O25  1  0.69162700  0.38278100  0.59670600  1
  O  O26  1  0.19162700  0.61721900  0.90329400  1
  O  O27  1  0.30837300  0.61721900  0.40329400  1
  O  O28  1  0.73003300  0.54453300  0.21038000  1
  O  O29  1  0.76996700  0.54453300  0.71038000  1
  O  O30  1  0.26996700  0.45546700  0.78962000  1
  O  O31  1  0.23003300  0.45546700  0.28962000  1
  O  O32  1  0.21197500  0.32390400  0.27187200  1
  O  O33  1  0.28802500  0.32390400  0.77187200  1
  O  O34  1  0.78802500  0.67609600  0.72812800  1
  O  O35  1  0.71197500  0.67609600  0.22812800  1
loop_
_geom_bond_atom_site_label_1
_geom_bond_atom_site_label_2
_geom_bond_distance
_geom_bond_site_symmetry_2
O0 P0 1.561543 1_565
O0 Ti2 1.867345 1_554
O1 P1 1.561543 1_565
O1 Ti3 1.867345 1_555
O2 P2 1.561543 1_545
O2 Ti0 1.867345 1_556
O3 P3 1.561543 1_545
O3 Ti1 1.867345 1_555
O4 P0 1.568379 1_655
O4 Ti0 1.852856 1_555
O5 P1 1.568379 1_555
O5 Ti1 1.852856 1_555
O6 P2 1.568379 1_455
O6 Ti2 1.852856 1_555
O7 P3 1.568379 1_555
O7 Ti3 1.852856 1_555
O8 P0 1.570904 1_555
O8 Ti0 1.862415 1_555
O9 P1 1.570904 1_555
O9 Ti1 1.862415 1_455
O10 P2 1.570904 1_555
O10 Ti2 1.862415 1_555
O11 P3 1.570904 1_555
O11 Ti3 1.862415 1_655
O12 P0 1.500927 1_565
O13 P1 1.500927 1_565
O14 P2 1.500927 1_545
O15 P3 1.500927 1_545
O16 P4 1.495291 1_555
O16 Ti2 2.103781 1_654
O17 P5 1.495291 1_555
O17 Ti3 2.103781 1_555
O18 P6 1.495291 1_555
O18 Ti0 2.103781 1_456
O19 P7 1.495291 1_555
O19 Ti1 2.103781 1_555
O20 P4 1.504894 1_555
O20 Ti2 2.122953 1_554
O21 P5 1.504894 1_455
O21 Ti3 2.122953 1_555
O22 P6 1.504894 1_555
O22 Ti0 2.122953 1_556
O23 P7 1.504894 1_655
O23 Ti1 2.122953 1_555
O24 P4 1.506748 1_555
O24 Ti0 2.065913 1_555
O25 P5 1.506748 1_555
O25 Ti1 2.065913 1_555
O26 P6 1.506748 1_555
O26 Ti2 2.065913 1_555
O27 P7 1.506748 1_555
O27 Ti3 2.065913 1_555
O28 O35 1.270700 1_555
O28 P4 1.937969 1_555
O29 O34 1.270700 1_555
O29 P5 1.937969 1_555
O30 O33 1.270700 1_555
O30 P6 1.937969 1_555
O31 O32 1.270700 1_555
O31 P7 1.937969 1_555
