# generated using pymatgen
data_Lu2MgSe4
_symmetry_space_group_name_H-M   'P 1'
_cell_length_a   13.92648100
_cell_length_b   8.10203000
_cell_length_c   6.75970800
_cell_angle_alpha   90.00000000
_cell_angle_beta   90.00000000
_cell_angle_gamma   90.00000000
_symmetry_Int_Tables_number   1
_chemical_formula_structural   Lu2MgSe4
_chemical_formula_sum   'Lu8 Mg4 Se16'
_cell_volume   762.71655678
_cell_formula_units_Z   4
loop_
 _symmetry_equiv_pos_site_id
 _symmetry_equiv_pos_as_xyz
  1  'x, y, z'
loop_
 _atom_site_type_symbol
 _atom_site_label
 _atom_site_symmetry_multiplicity
 _atom_site_fract_x
 _atom_site_fract_y
 _atom_site_fract_z
 _atom_site_occupancy
  Lu  Lu0  1  0.00000000  0.00000000  0.50000000  1
  Lu  Lu1  1  0.50000000  0.00000000  0.00000000  1
  Lu  Lu2  1  0.50000000  0.50000000  0.00000000  1
  Lu  Lu3  1  0.00000000  0.50000000  0.50000000  1
  Lu  Lu4  1  0.23424000  0.75000000  0.00285900  1
  Lu  Lu5  1  0.76576000  0.25000000  0.99714100  1
  Lu  Lu6  1  0.26576000  0.25000000  0.50285900  1
  Lu  Lu7  1  0.73424000  0.75000000  0.49714100  1
  Mg  Mg0  1  0.09274300  0.25000000  0.92114400  1
  Mg  Mg1  1  0.90725700  0.75000000  0.07885600  1
  Mg  Mg2  1  0.40725700  0.75000000  0.42114400  1
  Mg  Mg3  1  0.59274300  0.25000000  0.57885600  1
  Se  Se0  1  0.16943800  0.00228900  0.73856900  1
  Se  Se1  1  0.83056200  0.99771100  0.26143100  1
  Se  Se2  1  0.33056200  0.99771100  0.23856900  1
  Se  Se3  1  0.66943800  0.00228900  0.76143100  1
  Se  Se4  1  0.66943800  0.49771100  0.76143100  1
  Se  Se5  1  0.33056200  0.50228900  0.23856900  1
  Se  Se6  1  0.83056200  0.50228900  0.26143100  1
  Se  Se7  1  0.16943800  0.49771100  0.73856900  1
  Se  Se8  1  0.07463600  0.75000000  0.25165100  1
  Se  Se9  1  0.92536400  0.25000000  0.74834900  1
  Se  Se10  1  0.42536400  0.25000000  0.75165100  1
  Se  Se11  1  0.57463600  0.75000000  0.24834900  1
  Se  Se12  1  0.09182600  0.25000000  0.29443900  1
  Se  Se13  1  0.90817400  0.75000000  0.70556100  1
  Se  Se14  1  0.40817400  0.75000000  0.79443900  1
  Se  Se15  1  0.59182600  0.25000000  0.20556100  1
loop_
_geom_bond_atom_site_label_1
_geom_bond_atom_site_label_2
_geom_bond_distance
_geom_bond_site_symmetry_2
Lu0 Se13 2.769268 1_445
Lu0 Se12 2.769268 1_555
Lu0 Se8 2.828661 1_545
Lu0 Se9 2.828661 1_455
Lu0 Se1 2.858159 1_445
Lu0 Se0 2.858159 1_555
Lu1 Se15 2.769268 1_555
Lu1 Se14 2.769268 1_544
Lu1 Se11 2.828661 1_545
Lu1 Se10 2.828661 1_554
Lu1 Se3 2.858159 1_554
Lu1 Se2 2.858159 1_545
Lu2 Se15 2.769268 1_555
Lu2 Se14 2.769268 1_554
Lu2 Se11 2.828661 1_555
Lu2 Se10 2.828661 1_554
Lu2 Se4 2.858159 1_554
Lu2 Se5 2.858159 1_555
Lu3 Se13 2.769268 1_455
Lu3 Se12 2.769268 1_555
Lu3 Se8 2.828661 1_555
Lu3 Se9 2.828661 1_455
Lu3 Se6 2.858159 1_455
Lu3 Se7 2.858159 1_555
Lu4 Se8 2.787259 1_555
Lu4 Se14 2.802207 1_554
Lu4 Se0 2.860814 1_564
Lu4 Se7 2.860814 1_554
Lu4 Se5 2.892408 1_555
Lu4 Se2 2.892408 1_555
Lu5 Se9 2.787259 1_555
Lu5 Se15 2.802207 1_556
Lu5 Se6 2.860814 1_556
Lu5 Se1 2.860814 1_546
Lu5 Se3 2.892408 1_555
Lu5 Se4 2.892408 1_555
Lu6 Se10 2.787259 1_555
Lu6 Se12 2.802207 1_555
Lu6 Se5 2.860814 1_555
Lu6 Se2 2.860814 1_545
Lu6 Se0 2.892408 1_555
Lu6 Se7 2.892408 1_555
Lu7 Se11 2.787259 1_555
Lu7 Se13 2.802207 1_555
Lu7 Se4 2.860814 1_555
Lu7 Se3 2.860814 1_565
Lu7 Se6 2.892408 1_555
Lu7 Se1 2.892408 1_555
Mg0 Se12 2.523398 1_556
Mg0 Se0 2.586861 1_555
Mg0 Se7 2.586861 1_555
Mg0 Se9 2.607276 1_455
Mg1 Se13 2.523398 1_554
Mg1 Se1 2.586861 1_555
Mg1 Se6 2.586861 1_555
Mg1 Se8 2.607276 1_655
Mg2 Se14 2.523398 1_555
Mg2 Se2 2.586861 1_555
Mg2 Se5 2.586861 1_555
Mg2 Se11 2.607276 1_555
Mg3 Se15 2.523398 1_555
Mg3 Se3 2.586861 1_555
Mg3 Se4 2.586861 1_555
Mg3 Se10 2.607276 1_555
