# generated using pymatgen
data_MnZnO2
_symmetry_space_group_name_H-M   'P 1'
_cell_length_a   3.14040200
_cell_length_b   8.20797171
_cell_length_c   8.27042538
_cell_angle_alpha   107.42978982
_cell_angle_beta   88.69607716
_cell_angle_gamma   98.79742590
_symmetry_Int_Tables_number   1
_chemical_formula_structural   MnZnO2
_chemical_formula_sum   'Mn4 Zn4 O8'
_cell_volume   200.93997500
_cell_formula_units_Z   4
loop_
 _symmetry_equiv_pos_site_id
 _symmetry_equiv_pos_as_xyz
  1  'x, y, z'
loop_
 _atom_site_type_symbol
 _atom_site_label
 _atom_site_symmetry_multiplicity
 _atom_site_fract_x
 _atom_site_fract_y
 _atom_site_fract_z
 _atom_site_occupancy
  Mn  Mn0  1  0.25963800  0.08980500  0.45541300  1
  Mn  Mn1  1  0.89456200  0.46702200  0.77437000  1
  Mn  Mn2  1  0.26038900  0.51522500  0.12662700  1
  Mn  Mn3  1  0.65124100  0.76442100  0.53091300  1
  Zn  Zn0  1  0.19271100  0.10082600  0.84240000  1
  Zn  Zn1  1  0.56085400  0.83472200  0.04928800  1
  Zn  Zn2  1  0.67828200  0.20235300  0.19901400  1
  Zn  Zn3  1  0.21929000  0.41592100  0.43771600  1
  O  O0  1  0.11657500  0.62213300  0.36792900  1
  O  O1  1  0.66025200  0.04425100  0.96782500  1
  O  O2  1  0.51755700  0.56854400  0.65827400  1
  O  O3  1  0.84923500  0.26266700  0.56771300  1
  O  O4  1  0.70607900  0.98964500  0.29052600  1
  O  O5  1  0.28124200  0.35757500  0.88917900  1
  O  O6  1  0.20050600  0.93506400  0.61408700  1
  O  O7  1  0.98331100  0.66916200  0.00310800  1
loop_
_geom_bond_atom_site_label_1
_geom_bond_atom_site_label_2
_geom_bond_distance
_geom_bond_site_symmetry_2
Mn0 O4 2.023622 1_545
Mn0 O3 2.062098 1_455
Mn0 O6 2.070043 1_545
Mn0 O4 2.134630 1_445
Mn0 O3 2.188444 1_555
Mn1 O2 1.962357 1_555
Mn1 O3 1.993867 1_555
Mn1 O5 2.019990 1_655
Mn1 O7 2.100348 1_556
Mn1 O5 2.305832 1_555
Mn1 O2 2.310659 1_655
Mn2 O0 1.996943 1_555
Mn2 O5 2.008216 1_554
Mn2 O7 2.132410 1_455
Mn3 O6 2.036685 1_655
Mn3 O6 2.103211 1_555
Mn3 O0 2.135482 1_555
Mn3 O2 2.158371 1_555
Mn3 O0 2.192201 1_655
O0 Zn3 2.015619 1_555
O1 Zn2 1.959361 1_556
O1 Zn0 2.003476 1_555
O1 Zn1 2.007350 1_546
O1 Zn0 2.014899 1_655
O2 Zn3 2.030751 1_555
O3 Zn3 2.096410 1_655
O4 Zn1 2.037084 1_555
O4 Zn2 2.114197 1_565
O5 Zn0 2.001326 1_555
O6 Zn0 1.971352 1_565
O7 Zn1 1.992506 1_555
O7 Zn1 2.061257 1_655
