# generated using pymatgen
data_KNp2F9
_symmetry_space_group_name_H-M   'P 1'
_cell_length_a   6.91808957
_cell_length_b   8.68404155
_cell_length_c   11.39822265
_cell_angle_alpha   90.00000000
_cell_angle_beta   90.00000000
_cell_angle_gamma   90.00000000
_symmetry_Int_Tables_number   1
_chemical_formula_structural   KNp2F9
_chemical_formula_sum   'K4 Np8 F36'
_cell_volume   684.77076309
_cell_formula_units_Z   4
loop_
 _symmetry_equiv_pos_site_id
 _symmetry_equiv_pos_as_xyz
  1  'x, y, z'
loop_
 _atom_site_type_symbol
 _atom_site_label
 _atom_site_symmetry_multiplicity
 _atom_site_fract_x
 _atom_site_fract_y
 _atom_site_fract_z
 _atom_site_occupancy
  K  K0  1  0.64553647  0.03231817  0.25000000  1
  K  K1  1  0.35446353  0.96768183  0.75000000  1
  K  K2  1  0.14553647  0.46768183  0.75000000  1
  K  K3  1  0.85446353  0.53231817  0.25000000  1
  Np  Np0  1  0.15839677  0.17184414  0.05011773  1
  Np  Np1  1  0.84160323  0.82815586  0.94988227  1
  Np  Np2  1  0.65839677  0.32815586  0.94988227  1
  Np  Np3  1  0.84160323  0.82815586  0.55011773  1
  Np  Np4  1  0.34160323  0.67184414  0.05011773  1
  Np  Np5  1  0.15839677  0.17184414  0.44988227  1
  Np  Np6  1  0.34160323  0.67184414  0.44988227  1
  Np  Np7  1  0.65839677  0.32815586  0.55011773  1
  F  F0  1  0.19201076  0.43333095  0.07634216  1
  F  F1  1  0.80798924  0.56666905  0.92365784  1
  F  F2  1  0.69201076  0.06666905  0.92365784  1
  F  F3  1  0.80798924  0.56666905  0.57634216  1
  F  F4  1  0.30798924  0.93333095  0.07634216  1
  F  F5  1  0.19201076  0.43333095  0.42365784  1
  F  F6  1  0.30798924  0.93333095  0.42365784  1
  F  F7  1  0.69201076  0.06666905  0.57634216  1
  F  F8  1  0.07245020  0.00661962  0.59999750  1
  F  F9  1  0.92754980  0.99338038  0.40000250  1
  F  F10  1  0.57245020  0.49338038  0.40000250  1
  F  F11  1  0.92754980  0.99338038  0.09999750  1
  F  F12  1  0.42754980  0.50661962  0.59999750  1
  F  F13  1  0.07245020  0.00661962  0.90000250  1
  F  F14  1  0.42754980  0.50661962  0.90000250  1
  F  F15  1  0.57245020  0.49338038  0.09999750  1
  F  F16  1  0.47071253  0.20898840  0.09793974  1
  F  F17  1  0.52928747  0.79101160  0.90206026  1
  F  F18  1  0.97071253  0.29101160  0.90206026  1
  F  F19  1  0.52928747  0.79101160  0.59793974  1
  F  F20  1  0.02928747  0.70898840  0.09793974  1
  F  F21  1  0.47071253  0.20898840  0.40206026  1
  F  F22  1  0.02928747  0.70898840  0.40206026  1
  F  F23  1  0.97071253  0.29101160  0.59793974  1
  F  F24  1  0.15574663  0.17130003  0.25000000  1
  F  F25  1  0.84425337  0.82869997  0.75000000  1
  F  F26  1  0.65574663  0.32869997  0.75000000  1
  F  F27  1  0.34425337  0.67130003  0.25000000  1
  F  F28  1  0.35320997  0.21808131  0.60774610  1
  F  F29  1  0.64679003  0.78191869  0.39225390  1
  F  F30  1  0.85320997  0.28191869  0.39225390  1
  F  F31  1  0.64679003  0.78191869  0.10774610  1
  F  F32  1  0.14679003  0.71808131  0.60774610  1
  F  F33  1  0.35320997  0.21808131  0.89225390  1
  F  F34  1  0.14679003  0.71808131  0.89225390  1
  F  F35  1  0.85320997  0.28191869  0.10774610  1
loop_
_geom_bond_atom_site_label_1
_geom_bond_atom_site_label_2
_geom_bond_distance
_geom_bond_site_symmetry_2
F0 Np0 2.302127 1_555
F0 Np4 2.334623 1_555
F0 K3 3.179621 1_455
F1 Np1 2.302127 1_555
F1 Np2 2.334623 1_555
F1 K2 3.179621 1_655
F2 Np2 2.302127 1_555
F2 Np1 2.334623 1_545
F2 K1 3.179621 1_545
F3 Np3 2.302127 1_555
F3 Np7 2.334623 1_555
F3 K2 3.179621 1_655
F4 Np4 2.302127 1_555
F4 Np0 2.334623 1_565
F4 K0 3.179621 1_565
F5 Np5 2.302127 1_555
F5 Np6 2.334623 1_555
F5 K3 3.179621 1_455
F6 Np6 2.302127 1_555
F6 Np5 2.334623 1_565
F6 K0 3.179621 1_565
F7 Np7 2.302127 1_555
F7 Np3 2.334623 1_545
F7 K1 3.179621 1_545
F8 Np3 2.296857 1_445
F8 Np5 2.310825 1_555
F8 K1 2.616104 1_545
F9 Np5 2.296857 1_665
F9 Np3 2.310825 1_555
F9 K0 2.616104 1_565
F10 Np6 2.296857 1_555
F10 Np7 2.310825 1_555
F10 K3 2.616104 1_555
F11 Np0 2.296857 1_665
F11 Np1 2.310825 1_554
F11 K0 2.616104 1_565
F12 Np7 2.296857 1_555
F12 Np6 2.310825 1_555
F12 K2 2.616104 1_555
F13 Np1 2.296857 1_445
F13 Np0 2.310825 1_556
F13 K1 2.616104 1_545
F14 Np2 2.296857 1_555
F14 Np4 2.310825 1_556
F14 K2 2.616104 1_555
F15 Np4 2.296857 1_555
F15 Np2 2.310825 1_554
F15 K3 2.616104 1_555
F16 Np0 2.251551 1_555
F16 Np2 2.367441 1_554
F16 K0 2.611630 1_555
F17 Np1 2.251551 1_555
F17 Np4 2.367441 1_556
F17 K1 2.611630 1_555
F18 Np2 2.251551 1_555
F18 Np0 2.367441 1_656
F18 K2 2.611630 1_655
F19 Np3 2.251551 1_555
F19 Np6 2.367441 1_555
F19 K1 2.611630 1_555
F20 Np4 2.251551 1_555
F20 Np1 2.367441 1_454
F20 K3 2.611630 1_455
F21 Np5 2.251551 1_555
F21 Np7 2.367441 1_555
F21 K0 2.611630 1_555
F22 Np6 2.251551 1_555
F22 Np3 2.367441 1_455
F22 K3 2.611630 1_455
F23 Np7 2.251551 1_555
F23 Np5 2.367441 1_655
F23 K2 2.611630 1_655
F24 Np5 2.278381 1_555
F24 Np0 2.278381 1_555
F25 Np3 2.278381 1_555
F25 Np1 2.278381 1_555
F26 Np7 2.278381 1_555
F26 Np2 2.278381 1_555
F27 Np4 2.278381 1_555
F27 Np6 2.278381 1_555
F28 Np5 2.283711 1_555
F28 Np7 2.408905 1_555
F28 K1 2.712473 1_545
F28 K2 3.064543 1_555
F29 Np3 2.283711 1_555
F29 Np6 2.408905 1_555
F29 K0 2.712473 1_565
F29 K3 3.064543 1_555
F30 Np7 2.283711 1_555
F30 Np5 2.408905 1_655
F30 K3 2.712473 1_555
F30 K0 3.064543 1_555
F31 Np1 2.283711 1_554
F31 Np4 2.408905 1_555
F31 K0 2.712473 1_565
F31 K3 3.064543 1_555
F32 Np6 2.283711 1_555
F32 Np3 2.408905 1_455
F32 K2 2.712473 1_555
F32 K1 3.064543 1_555
F33 Np0 2.283711 1_556
F33 Np2 2.408905 1_555
F33 K1 2.712473 1_545
F33 K2 3.064543 1_555
F34 Np4 2.283711 1_556
F34 Np1 2.408905 1_455
F34 K2 2.712473 1_555
F34 K1 3.064543 1_555
F35 Np2 2.283711 1_554
F35 Np0 2.408905 1_655
F35 K3 2.712473 1_555
F35 K0 3.064543 1_555
