# generated using pymatgen
data_Sb5(TeO6)3
_symmetry_space_group_name_H-M   'P 1'
_cell_length_a   8.93014390
_cell_length_b   8.93014390
_cell_length_c   11.96185879
_cell_angle_alpha   85.87607403
_cell_angle_beta   85.87607403
_cell_angle_gamma   66.59034686
_symmetry_Int_Tables_number   1
_chemical_formula_structural   Sb5(TeO6)3
_chemical_formula_sum   'Sb10 Te6 O36'
_cell_volume   872.16194365
_cell_formula_units_Z   2
loop_
 _symmetry_equiv_pos_site_id
 _symmetry_equiv_pos_as_xyz
  1  'x, y, z'
loop_
 _atom_site_type_symbol
 _atom_site_label
 _atom_site_symmetry_multiplicity
 _atom_site_fract_x
 _atom_site_fract_y
 _atom_site_fract_z
 _atom_site_occupancy
  Sb  Sb0  1  0.48888100  0.15013100  0.96153900  1
  Sb  Sb1  1  0.72631300  0.89007300  0.45300000  1
  Sb  Sb2  1  0.64564100  0.63814700  0.28271300  1
  Sb  Sb3  1  0.26506000  0.05317900  0.79783500  1
  Sb  Sb4  1  0.36185300  0.35435900  0.71728700  1
  Sb  Sb5  1  0.92859500  0.07140500  0.00000000  1
  Sb  Sb6  1  0.69859200  0.30140800  0.50000000  1
  Sb  Sb7  1  0.94682100  0.73494000  0.20216500  1
  Sb  Sb8  1  0.10992700  0.27368700  0.54700000  1
  Sb  Sb9  1  0.84986900  0.51111900  0.03846100  1
  Te  Te0  1  0.19294100  0.55915800  0.96424000  1
  Te  Te1  1  0.75872600  0.19177600  0.24795300  1
  Te  Te2  1  0.80822400  0.24127400  0.75204700  1
  Te  Te3  1  0.16837900  0.60275800  0.44364200  1
  Te  Te4  1  0.39724200  0.83162100  0.55635800  1
  Te  Te5  1  0.44084200  0.80705900  0.03576000  1
  O  O0  1  0.99359500  0.55163500  0.91174800  1
  O  O1  1  0.56081800  0.24160400  0.81672800  1
  O  O2  1  0.50574500  0.41857800  0.60798200  1
  O  O3  1  0.87356900  0.21040000  0.37349800  1
  O  O4  1  0.75839600  0.43918200  0.18327200  1
  O  O5  1  0.78960000  0.12643100  0.62650200  1
  O  O6  1  0.14210000  0.69011100  0.28620500  1
  O  O7  1  0.87964300  0.04163300  0.84454400  1
  O  O8  1  0.84919300  0.39033100  0.56186400  1
  O  O9  1  0.54976300  0.83278400  0.38073700  1
  O  O10  1  0.36320000  0.36125500  0.03093600  1
  O  O11  1  0.04738600  0.51730000  0.12092400  1
  O  O12  1  0.05527200  0.18429300  0.71736800  1
  O  O13  1  0.26827200  0.25341900  0.86466500  1
  O  O14  1  0.63874500  0.63680000  0.96906400  1
  O  O15  1  0.45187400  0.71572300  0.19164100  1
  O  O16  1  0.24924300  0.03370900  0.49120700  1
  O  O17  1  0.74658100  0.73172800  0.13533500  1
  O  O18  1  0.58142200  0.49425500  0.39201800  1
  O  O19  1  0.96629100  0.75075700  0.50879300  1
  O  O20  1  0.14459300  0.40786300  0.40614900  1
  O  O21  1  0.36230000  0.14722500  0.66515300  1
  O  O22  1  0.95836700  0.12035700  0.15545600  1
  O  O23  1  0.28427700  0.54812600  0.80835900  1
  O  O24  1  0.16171000  0.00176800  0.94019200  1
  O  O25  1  0.87934800  0.31043400  0.96010200  1
  O  O26  1  0.48270000  0.95261400  0.87907600  1
  O  O27  1  0.30988900  0.85790000  0.71379500  1
  O  O28  1  0.81570700  0.94472800  0.28263200  1
  O  O29  1  0.85277500  0.63770000  0.33484700  1
  O  O30  1  0.59213700  0.85540700  0.59385100  1
  O  O31  1  0.68956600  0.12065200  0.03989800  1
  O  O32  1  0.60966900  0.15080700  0.43813600  1
  O  O33  1  0.16721600  0.45023700  0.61926300  1
  O  O34  1  0.99823200  0.83829000  0.05980800  1
  O  O35  1  0.44836500  0.00640500  0.08825200  1
loop_
_geom_bond_atom_site_label_1
_geom_bond_atom_site_label_2
_geom_bond_distance
_geom_bond_site_symmetry_2
O0 Te0 1.956965 1_655
O0 Sb9 2.021386 1_556
O1 Sb0 2.033205 1_555
O1 Sb4 2.072646 1_555
O1 Te2 2.286754 1_555
O2 Sb4 1.981325 1_555
O2 Sb6 2.042460 1_555
O3 Te1 1.930718 1_555
O3 Sb6 2.054170 1_555
O4 Sb9 2.033205 1_555
O4 Sb2 2.072646 1_555
O4 Te1 2.286754 1_555
O5 Te2 1.930718 1_555
O5 Sb6 2.054170 1_555
O6 Sb7 1.962511 1_455
O6 Te3 1.979138 1_555
O7 Te2 1.929689 1_555
O7 Sb5 2.000015 1_556
O8 Sb6 2.015738 1_555
O8 Sb8 2.139612 1_655
O9 Sb2 2.023679 1_555
O9 Sb1 2.096469 1_555
O9 Te4 2.421772 1_555
O10 Te0 1.976891 1_554
O10 Sb0 1.978145 1_554
O11 Sb7 2.070630 1_455
O11 Sb9 2.103016 1_455
O11 Te0 2.297160 1_554
O12 Sb3 2.039958 1_555
O12 Te2 2.074828 1_455
O12 Sb8 2.227368 1_555
O13 Sb3 2.021656 1_555
O13 Sb4 2.185614 1_555
O13 Sb0 2.192136 1_555
O14 Te5 1.976891 1_556
O14 Sb9 1.978145 1_556
O15 Sb2 1.967465 1_555
O15 Te5 1.973737 1_555
O16 Te4 1.913523 1_545
O16 Sb8 2.133907 1_555
O17 Sb7 2.021656 1_555
O17 Sb2 2.185614 1_555
O17 Sb9 2.192136 1_555
O18 Sb2 1.981325 1_555
O18 Sb6 2.042460 1_555
O19 Te3 1.913523 1_655
O19 Sb1 2.133907 1_555
O20 Te3 1.922269 1_555
O20 Sb8 2.073547 1_555
O21 Sb4 1.992518 1_555
O21 Sb3 2.041549 1_555
O21 Sb8 2.560919 1_555
O22 Te1 1.929689 1_555
O22 Sb5 2.000015 1_555
O23 Sb4 1.967465 1_555
O23 Te0 1.973737 1_555
O24 Sb3 1.990101 1_555
O24 Sb5 2.013289 1_456
O24 Te5 2.687684 1_546
O25 Sb9 1.997720 1_556
O25 Sb5 2.028614 1_556
O26 Sb3 2.070630 1_565
O26 Sb0 2.103016 1_565
O26 Te5 2.297160 1_556
O27 Sb3 1.962511 1_565
O27 Te4 1.979138 1_555
O28 Sb7 2.039958 1_555
O28 Te1 2.074828 1_565
O28 Sb1 2.227368 1_555
O29 Sb2 1.992518 1_555
O29 Sb7 2.041549 1_555
O29 Sb1 2.560919 1_555
O30 Te4 1.922269 1_555
O30 Sb1 2.073547 1_555
O31 Sb0 1.997720 1_554
O31 Sb5 2.028614 1_555
O32 Sb6 2.015738 1_555
O32 Sb1 2.139612 1_545
O33 Sb4 2.023679 1_555
O33 Sb8 2.096469 1_555
O33 Te3 2.421772 1_555
O34 Sb7 1.990101 1_555
O34 Sb5 2.013289 1_565
O34 Te0 2.687684 1_654
O35 Te5 1.956965 1_545
O35 Sb0 2.021386 1_554
