# generated using pymatgen
data_Zr3Cu8
_symmetry_space_group_name_H-M   'P 1'
_cell_length_a   7.94987400
_cell_length_b   8.22915600
_cell_length_c   10.08449100
_cell_angle_alpha   90.00000000
_cell_angle_beta   90.00000000
_cell_angle_gamma   90.00000000
_symmetry_Int_Tables_number   1
_chemical_formula_structural   Zr3Cu8
_chemical_formula_sum   'Zr12 Cu32'
_cell_volume   659.73499813
_cell_formula_units_Z   4
loop_
 _symmetry_equiv_pos_site_id
 _symmetry_equiv_pos_as_xyz
  1  'x, y, z'
loop_
 _atom_site_type_symbol
 _atom_site_label
 _atom_site_symmetry_multiplicity
 _atom_site_fract_x
 _atom_site_fract_y
 _atom_site_fract_z
 _atom_site_occupancy
  Zr  Zr0  1  0.56281900  0.44671800  0.36026300  1
  Zr  Zr1  1  0.06281900  0.05328200  0.13973700  1
  Zr  Zr2  1  0.43718100  0.94671800  0.63973700  1
  Zr  Zr3  1  0.93718100  0.55328200  0.86026300  1
  Zr  Zr4  1  0.43718100  0.55328200  0.63973700  1
  Zr  Zr5  1  0.93718100  0.94671800  0.86026300  1
  Zr  Zr6  1  0.56281900  0.05328200  0.36026300  1
  Zr  Zr7  1  0.06281900  0.44671800  0.13973700  1
  Zr  Zr8  1  0.96101900  0.25000000  0.45375500  1
  Zr  Zr9  1  0.46101900  0.25000000  0.04624500  1
  Zr  Zr10  1  0.03898100  0.75000000  0.54624500  1
  Zr  Zr11  1  0.53898100  0.75000000  0.95375500  1
  Cu  Cu0  1  0.87912500  0.57677100  0.34004400  1
  Cu  Cu1  1  0.37912500  0.92322900  0.15995600  1
  Cu  Cu2  1  0.12087500  0.07677100  0.65995600  1
  Cu  Cu3  1  0.62087500  0.42322900  0.84004400  1
  Cu  Cu4  1  0.12087500  0.42322900  0.65995600  1
  Cu  Cu5  1  0.62087500  0.07677100  0.84004400  1
  Cu  Cu6  1  0.87912500  0.92322900  0.34004400  1
  Cu  Cu7  1  0.37912500  0.57677100  0.15995600  1
  Cu  Cu8  1  0.69901000  0.49908100  0.09393300  1
  Cu  Cu9  1  0.19901000  0.00091900  0.40606700  1
  Cu  Cu10  1  0.30099000  0.99908100  0.90606700  1
  Cu  Cu11  1  0.80099000  0.50091900  0.59393300  1
  Cu  Cu12  1  0.30099000  0.50091900  0.90606700  1
  Cu  Cu13  1  0.80099000  0.99908100  0.59393300  1
  Cu  Cu14  1  0.69901000  0.00091900  0.09393300  1
  Cu  Cu15  1  0.19901000  0.49908100  0.40606700  1
  Cu  Cu16  1  0.78488600  0.25000000  0.22614300  1
  Cu  Cu17  1  0.28488600  0.25000000  0.27385700  1
  Cu  Cu18  1  0.21511400  0.75000000  0.77385700  1
  Cu  Cu19  1  0.71511400  0.75000000  0.72614300  1
  Cu  Cu20  1  0.61664200  0.25000000  0.59782700  1
  Cu  Cu21  1  0.11664200  0.25000000  0.90217300  1
  Cu  Cu22  1  0.38335800  0.75000000  0.40217300  1
  Cu  Cu23  1  0.88335800  0.75000000  0.09782700  1
  Cu  Cu24  1  0.86927500  0.25000000  0.73493000  1
  Cu  Cu25  1  0.36927500  0.25000000  0.76507000  1
  Cu  Cu26  1  0.13072500  0.75000000  0.26507000  1
  Cu  Cu27  1  0.63072500  0.75000000  0.23493000  1
  Cu  Cu28  1  0.82292600  0.25000000  0.98305700  1
  Cu  Cu29  1  0.32292600  0.25000000  0.51694300  1
  Cu  Cu30  1  0.17707400  0.75000000  0.01694300  1
  Cu  Cu31  1  0.67707400  0.75000000  0.48305700  1
loop_
_geom_bond_atom_site_label_1
_geom_bond_atom_site_label_2
_geom_bond_distance
_geom_bond_site_symmetry_2
Zr0 Zr4 3.116045 1_555
Zr0 Zr6 3.237646 1_555
Zr1 Zr5 3.116045 1_444
Zr1 Zr7 3.237646 1_555
Zr2 Zr6 3.116045 1_565
Zr2 Zr4 3.237646 1_555
Zr3 Zr7 3.116045 1_656
Zr3 Zr5 3.237646 1_555
Cu0 Cu26 2.569929 1_655
Cu0 Cu31 2.586938 1_555
Cu0 Cu27 2.656202 1_555
Cu0 Cu15 2.705386 1_655
Cu0 Cu11 2.707548 1_555
Cu0 Zr7 2.712631 1_655
Cu0 Zr0 2.740463 1_555
Cu0 Zr10 2.823330 1_655
Cu0 Cu23 2.828379 1_555
Cu0 Cu6 2.851057 1_555
Cu0 Cu8 2.935796 1_555
Cu0 Zr8 2.994964 1_555
Cu0 Cu16 3.018548 1_555
Cu1 Cu27 2.569929 1_555
Cu1 Cu30 2.586938 1_555
Cu1 Cu26 2.656202 1_555
Cu1 Cu14 2.705386 1_565
Cu1 Cu10 2.707548 1_554
Cu1 Zr6 2.712631 1_565
Cu1 Zr1 2.740463 1_565
Cu1 Zr11 2.823330 1_554
Cu1 Cu22 2.828379 1_555
Cu1 Cu7 2.851057 1_555
Cu1 Cu9 2.935796 1_565
Cu1 Zr9 2.994964 1_565
Cu1 Cu17 3.018548 1_565
Cu2 Cu24 2.569929 1_455
Cu2 Cu29 2.586938 1_555
Cu2 Cu25 2.656202 1_555
Cu2 Cu9 2.707548 1_555
Cu2 Zr5 2.712631 1_445
Cu2 Zr2 2.740463 1_545
Cu2 Zr8 2.823330 1_455
Cu2 Cu21 2.828379 1_555
Cu2 Cu4 2.851057 1_555
Cu2 Zr10 2.994964 1_545
Cu3 Cu8 2.707548 1_556
Cu3 Zr4 2.712631 1_555
Cu3 Zr3 2.740463 1_555
Cu3 Zr9 2.823330 1_556
Cu3 Cu5 2.851057 1_555
Cu3 Zr11 2.994964 1_555
Cu4 Zr3 2.712631 1_455
Cu4 Zr4 2.740463 1_555
Cu4 Zr8 2.823330 1_455
Cu4 Zr10 2.994964 1_555
Cu5 Zr2 2.712631 1_545
Cu5 Zr5 2.740463 1_545
Cu5 Zr9 2.823330 1_556
Cu5 Zr11 2.994964 1_545
Cu6 Cu9 2.705386 1_665
Cu6 Zr1 2.712631 1_665
Cu6 Zr6 2.740463 1_565
Cu6 Zr10 2.823330 1_655
Cu6 Zr8 2.994964 1_565
Cu7 Cu8 2.705386 1_555
Cu7 Zr0 2.712631 1_555
Cu7 Zr7 2.740463 1_555
Cu7 Zr11 2.823330 1_554
Cu7 Zr9 2.994964 1_555
Cu8 Zr11 2.807216 1_554
Cu8 Zr9 2.830602 1_555
Cu8 Zr0 2.927705 1_555
Cu8 Zr7 2.960417 1_655
Cu8 Zr3 3.055624 1_554
Cu9 Zr10 2.807216 1_545
Cu9 Zr8 2.830602 1_455
Cu9 Zr1 2.927705 1_555
Cu9 Zr6 2.960417 1_555
Cu9 Zr2 3.055624 1_545
Cu10 Cu21 2.532385 1_565
Cu10 Cu30 2.534175 1_556
Cu10 Cu18 2.538715 1_555
Cu10 Cu25 2.565162 1_565
Cu10 Cu5 2.705386 1_565
Cu10 Zr9 2.807216 1_566
Cu10 Zr11 2.830602 1_555
Cu10 Zr2 2.927705 1_555
Cu10 Cu2 2.935796 1_565
Cu10 Zr5 2.960417 1_455
Cu10 Zr1 3.055624 1_566
Cu11 Cu20 2.532385 1_555
Cu11 Cu31 2.534175 1_555
Cu11 Cu19 2.538715 1_555
Cu11 Cu24 2.565162 1_555
Cu11 Cu4 2.705386 1_655
Cu11 Zr8 2.807216 1_555
Cu11 Zr10 2.830602 1_655
Cu11 Zr3 2.927705 1_555
Cu11 Cu3 2.935796 1_555
Cu11 Zr4 2.960417 1_555
Cu11 Zr0 3.055624 1_555
Cu12 Cu21 2.532385 1_555
Cu12 Cu30 2.534175 1_556
Cu12 Cu18 2.538715 1_555
Cu12 Cu25 2.565162 1_555
Cu12 Cu3 2.705386 1_555
Cu12 Cu7 2.707548 1_556
Cu12 Zr9 2.807216 1_556
Cu12 Zr11 2.830602 1_555
Cu12 Zr4 2.927705 1_555
Cu12 Cu4 2.935796 1_555
Cu12 Zr3 2.960417 1_455
Cu12 Zr7 3.055624 1_556
Cu13 Cu20 2.532385 1_565
Cu13 Cu31 2.534175 1_555
Cu13 Cu19 2.538715 1_555
Cu13 Cu24 2.565162 1_565
Cu13 Cu2 2.705386 1_665
Cu13 Cu6 2.707548 1_555
Cu13 Zr8 2.807216 1_565
Cu13 Zr10 2.830602 1_655
Cu13 Zr5 2.927705 1_555
Cu13 Cu5 2.935796 1_565
Cu13 Zr2 2.960417 1_555
Cu13 Zr6 3.055624 1_565
Cu14 Cu23 2.532385 1_545
Cu14 Cu28 2.534175 1_554
Cu14 Cu16 2.538715 1_555
Cu14 Cu27 2.565162 1_545
Cu14 Cu5 2.707548 1_554
Cu14 Zr11 2.807216 1_544
Cu14 Zr9 2.830602 1_555
Cu14 Zr6 2.927705 1_555
Cu14 Cu6 2.935796 1_545
Cu14 Zr1 2.960417 1_655
Cu14 Zr5 3.055624 1_544
Cu15 Cu22 2.532385 1_555
Cu15 Cu29 2.534175 1_555
Cu15 Cu17 2.538715 1_555
Cu15 Cu26 2.565162 1_555
Cu15 Cu4 2.707548 1_555
Cu15 Zr10 2.807216 1_555
Cu15 Zr8 2.830602 1_455
Cu15 Zr7 2.927705 1_555
Cu15 Cu7 2.935796 1_555
Cu15 Zr0 2.960417 1_555
Cu15 Zr4 3.055624 1_555
Cu16 Cu28 2.469982 1_554
Cu16 Cu8 2.538715 1_555
Cu16 Zr8 2.688735 1_555
Cu16 Zr0 2.750743 1_555
Cu16 Zr6 2.750743 1_555
Cu16 Zr7 2.874350 1_655
Cu16 Zr1 2.874350 1_655
Cu16 Cu6 3.018548 1_545
Cu16 Zr9 3.149657 1_555
Cu17 Cu29 2.469982 1_555
Cu17 Cu9 2.538715 1_555
Cu17 Zr9 2.688735 1_555
Cu17 Zr7 2.750743 1_555
Cu17 Zr1 2.750743 1_555
Cu17 Zr0 2.874350 1_555
Cu17 Zr6 2.874350 1_555
Cu17 Cu7 3.018548 1_555
Cu17 Zr8 3.149657 1_455
Cu18 Cu30 2.469982 1_556
Cu18 Zr10 2.688735 1_555
Cu18 Zr2 2.750743 1_555
Cu18 Zr4 2.750743 1_555
Cu18 Zr5 2.874350 1_455
Cu18 Zr3 2.874350 1_455
Cu18 Cu2 3.018548 1_565
Cu18 Cu4 3.018548 1_555
Cu18 Zr11 3.149657 1_555
Cu19 Cu31 2.469982 1_555
Cu19 Zr11 2.688735 1_555
Cu19 Zr5 2.750743 1_555
Cu19 Zr3 2.750743 1_555
Cu19 Zr2 2.874350 1_555
Cu19 Zr4 2.874350 1_555
Cu19 Cu5 3.018548 1_565
Cu19 Cu3 3.018548 1_555
Cu19 Zr10 3.149657 1_655
Cu20 Cu24 2.438297 1_555
Cu20 Cu29 2.473373 1_555
Cu20 Cu25 2.590705 1_555
Cu20 Cu3 2.828379 1_555
Cu20 Cu5 2.828379 1_555
Cu20 Zr4 2.905662 1_555
Cu20 Zr2 2.905662 1_545
Cu20 Zr0 2.922860 1_555
Cu20 Zr6 2.922860 1_555
Cu20 Zr8 3.099386 1_555
Cu21 Cu25 2.438297 1_555
Cu21 Cu28 2.473373 1_455
Cu21 Cu24 2.590705 1_455
Cu21 Cu4 2.828379 1_555
Cu21 Zr3 2.905662 1_455
Cu21 Zr5 2.905662 1_445
Cu21 Zr7 2.922860 1_556
Cu21 Zr1 2.922860 1_556
Cu21 Zr9 3.099386 1_556
Cu22 Cu26 2.438297 1_555
Cu22 Cu31 2.473373 1_555
Cu22 Cu9 2.532385 1_565
Cu22 Cu27 2.590705 1_555
Cu22 Cu7 2.828379 1_555
Cu22 Zr6 2.905662 1_565
Cu22 Zr0 2.905662 1_555
Cu22 Zr2 2.922860 1_555
Cu22 Zr4 2.922860 1_555
Cu22 Zr10 3.099386 1_555
Cu23 Cu27 2.438297 1_555
Cu23 Cu30 2.473373 1_655
Cu23 Cu8 2.532385 1_555
Cu23 Cu26 2.590705 1_655
Cu23 Cu6 2.828379 1_555
Cu23 Zr1 2.905662 1_665
Cu23 Zr7 2.905662 1_655
Cu23 Zr5 2.922860 1_554
Cu23 Zr3 2.922860 1_554
Cu23 Zr11 3.099386 1_554
Cu24 Cu28 2.529219 1_555
Cu24 Cu4 2.569929 1_655
Cu24 Cu3 2.656202 1_555
Cu24 Cu5 2.656202 1_555
Cu24 Zr3 2.849161 1_555
Cu24 Zr5 2.849161 1_545
Cu24 Zr8 2.927807 1_555
Cu25 Cu29 2.529219 1_555
Cu25 Cu3 2.569929 1_555
Cu25 Cu5 2.569929 1_555
Cu25 Cu4 2.656202 1_555
Cu25 Zr4 2.849161 1_555
Cu25 Zr2 2.849161 1_545
Cu25 Zr9 2.927807 1_556
Cu26 Cu30 2.529219 1_555
Cu26 Cu9 2.565162 1_565
Cu26 Cu6 2.569929 1_455
Cu26 Cu7 2.656202 1_555
Cu26 Zr1 2.849161 1_565
Cu26 Zr7 2.849161 1_555
Cu26 Zr10 2.927807 1_555
Cu27 Cu31 2.529219 1_555
Cu27 Cu8 2.565162 1_555
Cu27 Cu7 2.569929 1_555
Cu27 Cu6 2.656202 1_555
Cu27 Zr6 2.849161 1_565
Cu27 Zr0 2.849161 1_555
Cu27 Zr11 2.927807 1_554
Cu28 Cu8 2.534175 1_556
Cu28 Cu3 2.586938 1_555
Cu28 Cu5 2.586938 1_555
Cu28 Zr3 2.930401 1_555
Cu28 Zr5 2.930401 1_545
Cu28 Zr9 2.946835 1_556
Cu28 Zr7 2.958752 1_656
Cu28 Zr1 2.958752 1_656
Cu29 Cu9 2.534175 1_555
Cu29 Cu4 2.586938 1_555
Cu29 Zr4 2.930401 1_555
Cu29 Zr2 2.930401 1_545
Cu29 Zr8 2.946835 1_455
Cu29 Zr0 2.958752 1_555
Cu29 Zr6 2.958752 1_555
Cu30 Cu7 2.586938 1_555
Cu30 Zr1 2.930401 1_565
Cu30 Zr7 2.930401 1_555
Cu30 Zr11 2.946835 1_554
Cu30 Zr5 2.958752 1_454
Cu30 Zr3 2.958752 1_454
Cu31 Cu6 2.586938 1_555
Cu31 Zr6 2.930401 1_565
Cu31 Zr0 2.930401 1_555
Cu31 Zr10 2.946835 1_655
Cu31 Zr2 2.958752 1_555
Cu31 Zr4 2.958752 1_555
