# generated using pymatgen
data_HfAsRu
_symmetry_space_group_name_H-M   'P 1'
_cell_length_a   7.68186883
_cell_length_b   7.68186883
_cell_length_c   7.68186883
_cell_angle_alpha   128.26313940
_cell_angle_beta   120.25028144
_cell_angle_gamma   82.93171064
_symmetry_Int_Tables_number   1
_chemical_formula_structural   HfAsRu
_chemical_formula_sum   'Hf6 As6 Ru6'
_cell_volume   295.29752287
_cell_formula_units_Z   6
loop_
 _symmetry_equiv_pos_site_id
 _symmetry_equiv_pos_as_xyz
  1  'x, y, z'
loop_
 _atom_site_type_symbol
 _atom_site_label
 _atom_site_symmetry_multiplicity
 _atom_site_fract_x
 _atom_site_fract_y
 _atom_site_fract_z
 _atom_site_occupancy
  Hf  Hf0  1  0.46741800  0.69201800  0.72460000  1
  Hf  Hf1  1  0.53258200  0.25718200  0.22460000  1
  Hf  Hf2  1  0.74862100  0.83190100  0.58328000  1
  Hf  Hf3  1  0.25137900  0.83466000  0.08328000  1
  Hf  Hf4  1  0.05217100  0.25779500  0.70562400  1
  Hf  Hf5  1  0.94782900  0.65345300  0.20562400  1
  As  As0  1  0.27672900  0.27691900  0.50019100  1
  As  As1  1  0.72327100  0.22346200  0.00019100  1
  As  As2  1  0.32866300  0.58744400  0.24887300  1
  As  As3  1  0.67133700  0.92021000  0.25878100  1
  As  As4  1  0.16142900  0.92021000  0.74887300  1
  As  As5  1  0.83857100  0.58744400  0.75878100  1
  Ru  Ru0  1  0.50000000  0.49854200  0.99854200  1
  Ru  Ru1  1  0.00000000  0.49854200  0.49854200  1
  Ru  Ru2  1  0.09450200  0.25233900  0.10207200  1
  Ru  Ru3  1  0.90549800  0.00757000  0.15783700  1
  Ru  Ru4  1  0.34973300  0.00757000  0.60207200  1
  Ru  Ru5  1  0.65026700  0.25233900  0.65783700  1
loop_
_geom_bond_atom_site_label_1
_geom_bond_atom_site_label_2
_geom_bond_distance
_geom_bond_site_symmetry_2
Hf0 Ru3 3.001391 1_566
Hf0 Ru4 3.001391 1_565
Hf0 Ru0 3.154610 1_555
Hf0 Ru1 3.154610 1_555
Hf1 Ru5 3.001391 1_555
Hf1 Ru2 3.001391 1_555
Hf1 Ru1 3.154610 1_655
Hf1 Ru0 3.154610 1_554
Hf2 Ru1 2.948800 1_655
Hf2 Ru0 2.948800 1_554
Hf2 Ru2 2.979017 1_666
Hf2 Ru5 2.979017 1_565
Hf3 Ru1 2.948801 1_554
Hf3 Ru0 2.948806 1_554
Hf3 Ru3 2.979015 1_465
Hf3 Ru4 2.979020 1_565
Hf4 Ru3 2.899923 1_455
Hf4 Ru4 2.899923 1_555
Hf4 Ru5 2.922202 1_455
Hf4 Ru2 2.922202 1_556
Hf4 Ru1 2.988381 1_555
Hf4 Ru0 2.988381 1_555
Hf5 Ru2 2.899923 1_655
Hf5 Ru5 2.899923 1_554
Hf5 Ru4 2.922202 1_665
Hf5 Ru3 2.922202 1_565
Hf5 Ru0 2.988381 1_554
Hf5 Ru1 2.988381 1_655
As0 Ru5 2.526798 1_555
As0 Ru2 2.526804 1_555
As0 Ru4 2.546776 1_555
As0 Ru3 2.546781 1_455
As0 Ru0 2.554696 1_555
As0 Ru1 2.554701 1_555
As0 Hf0 2.661303 1_555
As0 Hf3 2.809866 1_545
As0 Hf4 2.929177 1_555
As1 Ru3 2.526800 1_555
As1 Ru4 2.526800 1_554
As1 Ru5 2.546784 1_554
As1 Ru2 2.546784 1_655
As1 Ru0 2.554697 1_554
As1 Ru1 2.554697 1_655
As1 Hf1 2.661297 1_555
As1 Hf2 2.809874 1_544
As1 Hf5 2.929181 1_555
As2 Ru0 2.568871 1_554
As2 Ru2 2.575719 1_555
As2 Ru4 2.577653 1_565
As2 Hf3 2.744222 1_555
As2 Hf4 2.764694 1_554
As2 Hf1 2.766851 1_555
As2 Hf2 2.774744 1_555
As2 Hf0 2.790448 1_555
As2 Hf5 2.791133 1_455
As3 Ru0 2.568871 1_554
As3 Ru3 2.575719 1_565
As3 Ru5 2.577653 1_565
As3 Hf2 2.744215 1_555
As3 Hf5 2.764694 1_555
As3 Hf0 2.766851 1_554
As3 Hf3 2.774743 1_555
As3 Hf1 2.790448 1_565
As3 Hf4 2.791133 1_665
As4 Ru1 2.568871 1_555
As4 Ru4 2.575719 1_565
As4 Ru2 2.577653 1_566
As4 Hf2 2.744215 1_455
As4 Hf5 2.764694 1_455
As4 Hf0 2.766851 1_555
As4 Hf3 2.774738 1_556
As4 Hf1 2.790448 1_566
As4 Hf4 2.791133 1_565
As5 Ru1 2.568871 1_655
As5 Ru5 2.575719 1_555
As5 Ru3 2.577653 1_566
As5 Hf3 2.744217 1_656
As5 Hf4 2.764694 1_655
As5 Hf1 2.766851 1_555
As5 Hf2 2.774744 1_555
As5 Hf0 2.790448 1_555
As5 Hf5 2.791133 1_556
Ru0 Ru5 2.852261 1_555
Ru0 Ru4 2.852261 1_555
Ru1 Ru2 2.852261 1_555
Ru1 Ru3 2.852261 1_455
