# generated using pymatgen
data_Ca2VIrO6
_symmetry_space_group_name_H-M   'P 1'
_cell_length_a   5.53764500
_cell_length_b   5.35795100
_cell_length_c   9.32338605
_cell_angle_alpha   55.29119994
_cell_angle_beta   90.00000000
_cell_angle_gamma   90.00000000
_symmetry_Int_Tables_number   1
_chemical_formula_structural   Ca2VIrO6
_chemical_formula_sum   'Ca4 V2 Ir2 O12'
_cell_volume   227.40459417
_cell_formula_units_Z   2
loop_
 _symmetry_equiv_pos_site_id
 _symmetry_equiv_pos_as_xyz
  1  'x, y, z'
loop_
 _atom_site_type_symbol
 _atom_site_label
 _atom_site_symmetry_multiplicity
 _atom_site_fract_x
 _atom_site_fract_y
 _atom_site_fract_z
 _atom_site_occupancy
  Ca  Ca0  1  0.55552100  0.73434100  0.75091100  1
  Ca  Ca1  1  0.05552100  0.26565900  0.74908900  1
  Ca  Ca2  1  0.94447900  0.73434100  0.25091100  1
  Ca  Ca3  1  0.44447900  0.26565900  0.24908900  1
  V  V0  1  0.00000000  0.00000000  0.50000000  1
  V  V1  1  0.50000000  0.00000000  0.00000000  1
  Ir  Ir0  1  0.00000000  0.50000000  0.00000000  1
  Ir  Ir1  1  0.50000000  0.50000000  0.50000000  1
  O  O0  1  0.02083000  0.15306400  0.25818400  1
  O  O1  1  0.28542100  0.75856000  0.54728200  1
  O  O2  1  0.30389200  0.33379500  0.95694200  1
  O  O3  1  0.80389200  0.66620500  0.54305800  1
  O  O4  1  0.78542100  0.24144000  0.95271800  1
  O  O5  1  0.52083000  0.84693600  0.24181600  1
  O  O6  1  0.47917000  0.15306400  0.75818400  1
  O  O7  1  0.21457900  0.75856000  0.04728200  1
  O  O8  1  0.19610800  0.33379500  0.45694200  1
  O  O9  1  0.71457900  0.24144000  0.45271800  1
  O  O10  1  0.69610800  0.66620500  0.04305800  1
  O  O11  1  0.97917000  0.84693600  0.74181600  1
loop_
_geom_bond_atom_site_label_1
_geom_bond_atom_site_label_2
_geom_bond_distance
_geom_bond_site_symmetry_2
Ca0 O6 2.321613 1_565
Ca0 O2 2.354271 1_555
Ca0 O1 2.361737 1_555
Ca0 O11 2.411779 1_555
Ca0 O4 2.544945 1_555
Ca0 O3 2.566335 1_555
Ca0 O10 2.650669 1_556
Ca0 O9 2.699076 1_565
Ca1 O11 2.321613 1_445
Ca1 O3 2.354271 1_455
Ca1 O4 2.361737 1_455
Ca1 O6 2.411779 1_555
Ca1 O1 2.544945 1_555
Ca1 O2 2.566335 1_555
Ca1 O8 2.650669 1_555
Ca1 O7 2.699076 1_546
Ca2 O0 2.321613 1_665
Ca2 O8 2.354271 1_655
Ca2 O7 2.361737 1_655
Ca2 O5 2.411779 1_555
Ca2 O9 2.544945 1_555
Ca2 O10 2.566335 1_555
Ca2 O3 2.650669 1_555
Ca2 O4 2.699076 1_564
Ca3 O5 2.321613 1_545
Ca3 O10 2.354271 1_555
Ca3 O9 2.361737 1_555
Ca3 O0 2.411779 1_555
Ca3 O7 2.544945 1_555
Ca3 O8 2.566335 1_555
Ca3 O2 2.650669 1_554
Ca3 O1 2.699076 1_545
Ir0 O0 2.041413 1_555
Ir0 O11 2.041413 1_454
Ir0 O10 2.047748 1_455
Ir0 O2 2.047748 1_554
Ir0 O7 2.054500 1_555
Ir0 O4 2.054500 1_454
Ir1 O6 2.041413 1_555
Ir1 O5 2.041413 1_555
Ir1 O3 2.047748 1_555
Ir1 O8 2.047748 1_555
Ir1 O1 2.054500 1_555
Ir1 O9 2.054500 1_555
O0 V0 1.913954 1_555
O1 V0 1.927832 1_565
O2 V1 1.929106 1_556
O3 V0 1.929106 1_665
O4 V1 1.927832 1_556
O5 V1 1.913954 1_565
O6 V1 1.913954 1_556
O7 V1 1.927832 1_565
O8 V0 1.929106 1_555
O9 V0 1.927832 1_655
O10 V1 1.929106 1_565
O11 V0 1.913954 1_665
