# generated using pymatgen
data_MgZn2
_symmetry_space_group_name_H-M   'P 1'
_cell_length_a   5.81154750
_cell_length_b   5.81154750
_cell_length_c   5.81154751
_cell_angle_alpha   49.58669028
_cell_angle_beta   49.58669028
_cell_angle_gamma   49.58669183
_symmetry_Int_Tables_number   1
_chemical_formula_structural   MgZn2
_chemical_formula_sum   'Mg2 Zn4'
_cell_volume   104.61495943
_cell_formula_units_Z   2
loop_
 _symmetry_equiv_pos_site_id
 _symmetry_equiv_pos_as_xyz
  1  'x, y, z'
loop_
 _atom_site_type_symbol
 _atom_site_label
 _atom_site_symmetry_multiplicity
 _atom_site_fract_x
 _atom_site_fract_y
 _atom_site_fract_z
 _atom_site_occupancy
  Mg  Mg0  1  0.83312900  0.83312900  0.83312900  1
  Mg  Mg1  1  0.16687100  0.16687100  0.16687100  1
  Zn  Zn0  1  0.00000000  0.66197500  0.33802500  1
  Zn  Zn1  1  0.66197500  0.33802500  0.00000000  1
  Zn  Zn2  1  0.50000000  0.50000000  0.50000000  1
  Zn  Zn3  1  0.33802500  0.00000000  0.66197500  1
loop_
_geom_bond_atom_site_label_1
_geom_bond_atom_site_label_2
_geom_bond_distance
_geom_bond_site_symmetry_2
Mg0 Zn2 2.814068 1_556
Mg0 Zn2 2.814068 1_565
Mg0 Zn2 2.814068 1_655
Mg0 Mg1 2.814073 1_665
Mg0 Mg1 2.814073 1_566
Mg0 Mg1 2.814073 1_656
Mg0 Zn1 3.008482 1_556
Mg0 Zn0 3.008482 1_655
Mg0 Zn3 3.008482 1_565
Mg0 Zn3 3.032181 1_665
Mg0 Zn0 3.032181 1_656
Mg0 Zn1 3.032181 1_566
Mg1 Zn2 2.814068 1_554
Mg1 Zn2 2.814068 1_455
Mg1 Zn2 2.814068 1_545
Mg1 Zn1 3.008482 1_555
Mg1 Zn3 3.008482 1_555
Mg1 Zn0 3.008482 1_555
Mg1 Zn0 3.032181 1_545
Mg1 Zn3 3.032181 1_554
Mg1 Zn1 3.032181 1_455
Zn0 Zn1 2.794473 1_456
Zn0 Zn1 2.794473 1_555
Zn0 Zn3 2.794473 1_555
Zn0 Zn3 2.794473 1_465
Zn0 Zn3 2.853674 1_564
Zn0 Zn1 2.853674 1_465
Zn0 Zn2 3.011114 1_455
Zn0 Zn2 3.011114 1_555
Zn1 Zn3 2.794473 1_555
Zn1 Zn3 2.794473 1_564
Zn1 Zn3 2.853674 1_654
Zn1 Zn2 3.011114 1_555
Zn1 Zn2 3.011114 1_554
Zn2 Zn3 3.011114 1_555
Zn2 Zn3 3.011114 1_565
