# generated using pymatgen
data_Cs(AsIr)2
_symmetry_space_group_name_H-M   'P 1'
_cell_length_a   7.94175136
_cell_length_b   7.94175136
_cell_length_c   7.94175136
_cell_angle_alpha   150.51587144
_cell_angle_beta   150.51587144
_cell_angle_gamma   42.18468349
_symmetry_Int_Tables_number   1
_chemical_formula_structural   Cs(AsIr)2
_chemical_formula_sum   'Cs1 As2 Ir2'
_cell_volume   121.04800357
_cell_formula_units_Z   1
loop_
 _symmetry_equiv_pos_site_id
 _symmetry_equiv_pos_as_xyz
  1  'x, y, z'
loop_
 _atom_site_type_symbol
 _atom_site_label
 _atom_site_symmetry_multiplicity
 _atom_site_fract_x
 _atom_site_fract_y
 _atom_site_fract_z
 _atom_site_occupancy
  Cs  Cs0  1  -0.00000000  0.00000000  0.00000000  1
  As  As0  1  0.34310373  0.34310373  0.00000000  1
  As  As1  1  0.65689627  0.65689627  -0.00000000  1
  Ir  Ir0  1  0.75000000  0.25000000  0.50000000  1
  Ir  Ir1  1  0.25000000  0.75000000  0.50000000  1
loop_
_geom_bond_atom_site_label_1
_geom_bond_atom_site_label_2
_geom_bond_distance
_geom_bond_site_symmetry_2
As0 Ir1 2.446997 1_544
As0 Ir1 2.446997 1_555
As0 Ir0 2.446997 1_454
As0 Ir0 2.446997 1_555
As0 Cs0 3.684336 1_666
As0 Cs0 3.684336 1_655
As0 Cs0 3.684336 1_554
As0 Cs0 3.684336 1_565
As1 Ir0 2.446997 1_565
As1 Ir1 2.446997 1_554
As1 Ir0 2.446997 1_554
As1 Ir1 2.446997 1_655
As1 Cs0 3.684336 1_554
As1 Cs0 3.684336 1_565
As1 Cs0 3.684336 1_666
As1 Cs0 3.684336 1_655
