# generated using pymatgen
data_Ca14Al12Zn4O35
_symmetry_space_group_name_H-M   'P 1'
_cell_length_a   10.61940176
_cell_length_b   10.61940176
_cell_length_c   10.61940176
_cell_angle_alpha   60.00000000
_cell_angle_beta   60.00000000
_cell_angle_gamma   60.00000000
_symmetry_Int_Tables_number   1
_chemical_formula_structural   Ca14Al12Zn4O35
_chemical_formula_sum   'Ca14 Al12 Zn4 O35'
_cell_volume   846.80840041
_cell_formula_units_Z   1
loop_
 _symmetry_equiv_pos_site_id
 _symmetry_equiv_pos_as_xyz
  1  'x, y, z'
loop_
 _atom_site_type_symbol
 _atom_site_label
 _atom_site_symmetry_multiplicity
 _atom_site_fract_x
 _atom_site_fract_y
 _atom_site_fract_z
 _atom_site_occupancy
  Ca  Ca0  1  0.46880800  0.03119200  0.03119200  1
  Ca  Ca1  1  0.03119200  0.46880800  0.46880800  1
  Ca  Ca2  1  0.03119200  0.46880800  0.03119200  1
  Ca  Ca3  1  0.46880800  0.03119200  0.46880800  1
  Ca  Ca4  1  0.03119200  0.03119200  0.46880800  1
  Ca  Ca5  1  0.46880800  0.46880800  0.03119200  1
  Ca  Ca6  1  0.86368300  0.86368300  0.86368300  1
  Ca  Ca7  1  0.86368300  0.86368300  0.40895000  1
  Ca  Ca8  1  0.86368300  0.40895000  0.86368300  1
  Ca  Ca9  1  0.40895000  0.86368300  0.86368300  1
  Ca  Ca10  1  0.63650600  0.63650600  0.63650600  1
  Ca  Ca11  1  0.63650600  0.63650600  0.09048200  1
  Ca  Ca12  1  0.63650600  0.09048200  0.63650600  1
  Ca  Ca13  1  0.09048200  0.63650600  0.63650600  1
  Al  Al0  1  0.75000000  0.75000000  0.75000000  1
  Al  Al1  1  0.38782800  0.38782800  0.38782800  1
  Al  Al2  1  0.38782800  0.38782800  0.83651600  1
  Al  Al3  1  0.38782800  0.83651600  0.38782800  1
  Al  Al4  1  0.83651600  0.38782800  0.38782800  1
  Al  Al5  1  0.74406100  0.25593900  0.25593900  1
  Al  Al6  1  0.25593900  0.74406100  0.74406100  1
  Al  Al7  1  0.25593900  0.74406100  0.25593900  1
  Al  Al8  1  0.74406100  0.25593900  0.74406100  1
  Al  Al9  1  0.25593900  0.25593900  0.74406100  1
  Al  Al10  1  0.74406100  0.74406100  0.25593900  1
  Al  Al11  1  0.25000000  0.25000000  0.25000000  1
  Zn  Zn0  1  0.07771600  0.07771600  0.07771600  1
  Zn  Zn1  1  0.07771600  0.07771600  0.76685100  1
  Zn  Zn2  1  0.07771600  0.76685100  0.07771600  1
  Zn  Zn3  1  0.76685100  0.07771600  0.07771600  1
  O  O0  1  0.87963300  0.62036700  0.62036700  1
  O  O1  1  0.62036700  0.87963300  0.87963300  1
  O  O2  1  0.62036700  0.87963300  0.62036700  1
  O  O3  1  0.87963300  0.62036700  0.87963300  1
  O  O4  1  0.62036700  0.62036700  0.87963300  1
  O  O5  1  0.87963300  0.87963300  0.62036700  1
  O  O6  1  0.31833400  0.31833400  0.31833400  1
  O  O7  1  0.31833400  0.31833400  0.04499700  1
  O  O8  1  0.31833400  0.04499700  0.31833400  1
  O  O9  1  0.04499700  0.31833400  0.31833400  1
  O  O10  1  0.29365500  0.90897700  0.09526300  1
  O  O11  1  0.90897700  0.29365500  0.70210400  1
  O  O12  1  0.09526300  0.70210400  0.29365500  1
  O  O13  1  0.09526300  0.29365500  0.90897700  1
  O  O14  1  0.70210400  0.09526300  0.90897700  1
  O  O15  1  0.70210400  0.90897700  0.29365500  1
  O  O16  1  0.29365500  0.09526300  0.70210400  1
  O  O17  1  0.90897700  0.70210400  0.09526300  1
  O  O18  1  0.90897700  0.09526300  0.29365500  1
  O  O19  1  0.70210400  0.29365500  0.09526300  1
  O  O20  1  0.09526300  0.90897700  0.70210400  1
  O  O21  1  0.29365500  0.70210400  0.90897700  1
  O  O22  1  0.41431900  0.23909400  0.78235500  1
  O  O23  1  0.23909400  0.41431900  0.56423100  1
  O  O24  1  0.78235500  0.56423100  0.41431900  1
  O  O25  1  0.78235500  0.41431900  0.23909400  1
  O  O26  1  0.56423100  0.78235500  0.23909400  1
  O  O27  1  0.56423100  0.23909400  0.41431900  1
  O  O28  1  0.41431900  0.78235500  0.56423100  1
  O  O29  1  0.23909400  0.56423100  0.78235500  1
  O  O30  1  0.23909400  0.78235500  0.41431900  1
  O  O31  1  0.56423100  0.41431900  0.78235500  1
  O  O32  1  0.78235500  0.23909400  0.56423100  1
  O  O33  1  0.41431900  0.56423100  0.23909400  1
  O  O34  1  0.00000000  0.00000000  0.00000000  1
loop_
_geom_bond_atom_site_label_1
_geom_bond_atom_site_label_2
_geom_bond_distance
_geom_bond_site_symmetry_2
Ca0 O1 2.276129 1_544
Ca0 O14 2.423305 1_554
Ca0 O10 2.423315 1_545
Ca0 O26 2.570878 1_545
Ca0 O22 2.570881 1_554
Ca0 O8 2.685739 1_555
Ca0 O7 2.685739 1_555
Ca1 O0 2.276129 1_455
Ca1 O12 2.423306 1_555
Ca1 O11 2.423311 1_455
Ca1 O23 2.570874 1_555
Ca1 O24 2.570884 1_455
Ca1 O6 2.685743 1_555
Ca1 O9 2.685749 1_555
Ca2 O3 2.276129 1_454
Ca2 O17 2.423305 1_455
Ca2 O13 2.423315 1_554
Ca2 O29 2.570878 1_554
Ca2 O25 2.570881 1_455
Ca2 O9 2.685739 1_555
Ca2 O7 2.685739 1_555
Ca3 O2 2.276129 1_545
Ca3 O16 2.423306 1_555
Ca3 O15 2.423311 1_545
Ca3 O27 2.570874 1_555
Ca3 O28 2.570884 1_545
Ca3 O6 2.685743 1_555
Ca3 O8 2.685749 1_555
Ca4 O5 2.276129 1_445
Ca4 O20 2.423305 1_545
Ca4 O18 2.423315 1_455
Ca4 O32 2.570878 1_455
Ca4 O30 2.570881 1_545
Ca4 O9 2.685739 1_555
Ca4 O8 2.685739 1_555
Ca5 O4 2.276129 1_554
Ca5 O19 2.423306 1_555
Ca5 O21 2.423311 1_554
Ca5 O33 2.570874 1_555
Ca5 O31 2.570884 1_554
Ca5 O6 2.685743 1_555
Ca5 O7 2.685749 1_555
Ca6 O17 2.315438 1_556
Ca6 O14 2.315438 1_565
Ca6 O20 2.315438 1_655
Ca6 O3 2.426344 1_555
Ca6 O1 2.426344 1_555
Ca6 O5 2.426344 1_555
Ca7 O15 2.315438 1_555
Ca7 O12 2.315438 1_655
Ca7 O18 2.315438 1_565
Ca7 O0 2.426349 1_555
Ca7 O2 2.426349 1_555
Ca7 O5 2.426355 1_555
Ca8 O11 2.315438 1_555
Ca8 O19 2.315438 1_556
Ca8 O13 2.315438 1_655
Ca8 O0 2.426349 1_555
Ca8 O4 2.426349 1_555
Ca8 O3 2.426355 1_555
Ca9 O21 2.315438 1_555
Ca9 O16 2.315438 1_565
Ca9 O10 2.315438 1_556
Ca9 O4 2.426349 1_555
Ca9 O2 2.426349 1_555
Ca9 O1 2.426355 1_555
Ca10 O24 2.350087 1_555
Ca10 O31 2.350087 1_555
Ca10 O28 2.350087 1_555
Ca10 O0 2.422632 1_555
Ca10 O2 2.422632 1_555
Ca10 O4 2.422632 1_555
Ca11 O26 2.350078 1_555
Ca11 O25 2.350082 1_555
Ca11 O33 2.350087 1_555
Ca11 O1 2.422632 1_554
Ca11 O3 2.422632 1_554
Ca11 O4 2.422632 1_554
Ca12 O32 2.350078 1_555
Ca12 O22 2.350082 1_555
Ca12 O27 2.350087 1_555
Ca12 O5 2.422632 1_545
Ca12 O1 2.422632 1_545
Ca12 O2 2.422632 1_545
Ca13 O29 2.350078 1_555
Ca13 O30 2.350082 1_555
Ca13 O23 2.350087 1_555
Ca13 O5 2.422632 1_455
Ca13 O3 2.422632 1_455
Ca13 O0 2.422632 1_455
Al0 O3 1.946842 1_555
Al0 O1 1.946842 1_555
Al0 O0 1.946842 1_555
Al0 O4 1.946842 1_555
Al0 O5 1.946842 1_555
Al0 O2 1.946842 1_555
Al1 O27 1.790793 1_555
Al1 O33 1.790793 1_555
Al1 O23 1.790793 1_555
Al1 O6 1.807686 1_555
Al2 O31 1.790790 1_555
Al2 O29 1.790795 1_555
Al2 O22 1.790800 1_555
Al2 O7 1.807677 1_556
Al3 O28 1.790790 1_555
Al3 O26 1.790795 1_555
Al3 O30 1.790800 1_555
Al3 O8 1.807677 1_565
Al4 O24 1.790790 1_555
Al4 O32 1.790795 1_555
Al4 O25 1.790800 1_555
Al4 O9 1.807677 1_655
Al5 O18 1.780086 1_555
Al5 O19 1.780093 1_555
Al5 O25 1.826612 1_555
Al5 O27 1.826619 1_555
Al6 O21 1.780083 1_555
Al6 O20 1.780089 1_555
Al6 O28 1.826617 1_555
Al6 O29 1.826623 1_555
Al7 O10 1.780086 1_555
Al7 O12 1.780093 1_555
Al7 O30 1.826612 1_555
Al7 O33 1.826619 1_555
Al8 O11 1.780083 1_555
Al8 O14 1.780089 1_555
Al8 O31 1.826617 1_555
Al8 O32 1.826623 1_555
Al9 O13 1.780086 1_555
Al9 O16 1.780093 1_555
Al9 O22 1.826612 1_555
Al9 O23 1.826619 1_555
Al10 O15 1.780083 1_555
Al10 O17 1.780089 1_555
Al10 O24 1.826617 1_555
Al10 O26 1.826623 1_555
Al11 O6 1.777512 1_555
Al11 O9 1.777521 1_555
Al11 O7 1.777521 1_555
Al11 O8 1.777521 1_555
O10 Zn0 2.118598 1_565
O11 Zn1 2.118598 1_655
O12 Zn2 2.118598 1_555
O13 Zn0 2.118598 1_556
O14 Zn3 2.118598 1_556
O15 Zn3 2.118598 1_565
O16 Zn1 2.118598 1_555
O17 Zn2 2.118598 1_655
O18 Zn0 2.118598 1_655
O19 Zn3 2.118598 1_555
O20 Zn1 2.118598 1_565
O21 Zn2 2.118598 1_556
O34 Zn0 2.021558 1_555
O34 Zn3 2.021566 1_455
O34 Zn2 2.021566 1_545
O34 Zn1 2.021566 1_554
