# generated using pymatgen
data_DyTh3
_symmetry_space_group_name_H-M   'P 1'
_cell_length_a   5.04835248
_cell_length_b   5.04835248
_cell_length_c   5.04835248
_cell_angle_alpha   90.00000000
_cell_angle_beta   90.00000000
_cell_angle_gamma   90.00000000
_symmetry_Int_Tables_number   1
_chemical_formula_structural   DyTh3
_chemical_formula_sum   'Dy1 Th3'
_cell_volume   128.66161848
_cell_formula_units_Z   1
loop_
 _symmetry_equiv_pos_site_id
 _symmetry_equiv_pos_as_xyz
  1  'x, y, z'
loop_
 _atom_site_type_symbol
 _atom_site_label
 _atom_site_symmetry_multiplicity
 _atom_site_fract_x
 _atom_site_fract_y
 _atom_site_fract_z
 _atom_site_occupancy
  Dy  Dy0  1  0.00000000  -0.00000000  -0.00000000  1
  Th  Th0  1  0.50000000  0.50000000  0.00000000  1
  Th  Th1  1  0.00000000  0.50000000  0.50000000  1
  Th  Th2  1  0.50000000  0.00000000  0.50000000  1
loop_
_geom_bond_atom_site_label_1
_geom_bond_atom_site_label_2
_geom_bond_distance
_geom_bond_site_symmetry_2
Dy0 Th2 3.569724 1_555
Dy0 Th0 3.569724 1_445
Dy0 Th0 3.569724 1_555
Dy0 Th0 3.569724 1_545
Dy0 Th2 3.569724 1_454
Dy0 Th2 3.569724 1_554
Dy0 Th2 3.569724 1_455
Dy0 Th1 3.569724 1_555
Dy0 Th1 3.569724 1_545
Dy0 Th1 3.569724 1_544
Dy0 Th0 3.569724 1_455
Dy0 Th1 3.569724 1_554
Th0 Th2 3.569724 1_555
Th0 Th2 3.569724 1_564
Th0 Th1 3.569724 1_655
Th0 Th2 3.569724 1_554
Th0 Th1 3.569724 1_555
Th0 Th2 3.569724 1_565
Th0 Th1 3.569724 1_554
Th0 Th1 3.569724 1_654
Th1 Th2 3.569724 1_465
Th1 Th2 3.569724 1_555
Th1 Th2 3.569724 1_455
Th1 Th2 3.569724 1_565
