# generated using pymatgen
data_GaN
_symmetry_space_group_name_H-M   'P 1'
_cell_length_a   12.16047399
_cell_length_b   10.72492827
_cell_length_c   11.58797792
_cell_angle_alpha   88.05715365
_cell_angle_beta   93.14933026
_cell_angle_gamma   94.43351552
_symmetry_Int_Tables_number   1
_chemical_formula_structural   GaN
_chemical_formula_sum   'Ga50 N50'
_cell_volume   1503.84089747
_cell_formula_units_Z   50
loop_
 _symmetry_equiv_pos_site_id
 _symmetry_equiv_pos_as_xyz
  1  'x, y, z'
loop_
 _atom_site_type_symbol
 _atom_site_label
 _atom_site_symmetry_multiplicity
 _atom_site_fract_x
 _atom_site_fract_y
 _atom_site_fract_z
 _atom_site_occupancy
  Ga  Ga0  1  0.76658311  0.94114398  0.43344491  1
  Ga  Ga1  1  0.49727634  0.23155374  0.39869067  1
  Ga  Ga2  1  0.99499791  0.10127792  0.70732401  1
  Ga  Ga3  1  0.51069261  0.64440319  0.37476369  1
  Ga  Ga4  1  0.49480751  0.41274066  0.25010102  1
  Ga  Ga5  1  0.81096697  0.74885821  0.69984078  1
  Ga  Ga6  1  0.71125391  0.66426339  0.93418520  1
  Ga  Ga7  1  0.88429536  0.60479236  0.31088089  1
  Ga  Ga8  1  0.74845900  0.26398210  0.34530003  1
  Ga  Ga9  1  0.13230041  0.53001840  0.92300587  1
  Ga  Ga10  1  0.82829419  0.93752764  0.89397666  1
  Ga  Ga11  1  0.23998404  0.94876781  0.11673357  1
  Ga  Ga12  1  0.68101197  0.50419152  0.43821898  1
  Ga  Ga13  1  0.73668256  0.37939016  0.15959814  1
  Ga  Ga14  1  0.13759246  0.35414600  0.49062129  1
  Ga  Ga15  1  0.23804051  0.64018722  0.70504907  1
  Ga  Ga16  1  0.90514487  0.08545935  0.21524001  1
  Ga  Ga17  1  0.69141558  0.64220949  0.21442868  1
  Ga  Ga18  1  0.90817534  0.58753561  0.04924068  1
  Ga  Ga19  1  0.97106815  0.00411168  0.03574471  1
  Ga  Ga20  1  0.02718975  0.87566358  0.37965203  1
  Ga  Ga21  1  0.29509060  0.47921349  0.06383861  1
  Ga  Ga22  1  0.98120662  0.38042403  0.28990821  1
  Ga  Ga23  1  0.42115201  0.76638394  0.13696567  1
  Ga  Ga24  1  0.00395945  0.52672075  0.73162643  1
  Ga  Ga25  1  0.37275009  0.04786684  0.35775171  1
  Ga  Ga26  1  0.36797140  0.18161918  0.10763033  1
  Ga  Ga27  1  0.07467305  0.61534188  0.51434834  1
  Ga  Ga28  1  0.08521906  0.82312074  0.65129923  1
  Ga  Ga29  1  0.81416100  0.17726950  0.76950464  1
  Ga  Ga30  1  0.21377857  0.49389236  0.26135243  1
  Ga  Ga31  1  0.64673625  0.74715937  0.54767655  1
  Ga  Ga32  1  0.33599477  0.72401813  0.90286154  1
  Ga  Ga33  1  0.05561523  0.79897165  0.90270480  1
  Ga  Ga34  1  0.54267244  0.94460824  0.50401630  1
  Ga  Ga35  1  0.19237014  0.04995357  0.88202510  1
  Ga  Ga36  1  0.59830627  0.90774619  0.80790870  1
  Ga  Ga37  1  0.54652382  0.56286859  0.01645091  1
  Ga  Ga38  1  0.37829815  0.82418241  0.62892314  1
  Ga  Ga39  1  0.87543113  0.83544292  0.15459942  1
  Ga  Ga40  1  0.68037902  0.14706209  0.98778978  1
  Ga  Ga41  1  0.63385776  0.91923540  0.22160066  1
  Ga  Ga42  1  0.15777532  0.16680985  0.27707167  1
  Ga  Ga43  1  0.81755912  0.37011516  0.88378697  1
  Ga  Ga44  1  0.45165555  0.93777104  0.96879434  1
  Ga  Ga45  1  0.11718777  0.69406733  0.17742872  1
  Ga  Ga46  1  0.97142927  0.12920544  0.44456448  1
  Ga  Ga47  1  0.26635706  0.77054443  0.38703174  1
  Ga  Ga48  1  0.91668450  0.39837463  0.55782124  1
  Ga  Ga49  1  0.71723500  0.21127651  0.58810110  1
  N  N0  1  0.21375907  0.52569120  0.50797036  1
  N  N1  1  0.89072663  0.62193603  0.79292070  1
  N  N2  1  0.71081764  0.11274170  0.43824117  1
  N  N3  1  0.02085398  0.24632434  0.56495167  1
  N  N4  1  0.12953677  0.79081343  0.48062725  1
  N  N5  1  0.05855205  0.65528080  0.01880205  1
  N  N6  1  0.13910736  0.33426558  0.31976165  1
  N  N7  1  0.76257853  0.36554316  0.50007851  1
  N  N8  1  0.46257993  0.16863595  0.69103194  1
  N  N9  1  0.64229820  0.43997920  0.72340268  1
  N  N10  1  0.97386100  0.50220250  0.42188495  1
  N  N11  1  0.56808112  0.75090209  0.23105840  1
  N  N12  1  0.47922771  0.37151184  0.90881721  1
  N  N13  1  0.78754018  0.69652824  0.08556613  1
  N  N14  1  0.40326340  0.62095198  0.03154502  1
  N  N15  1  0.51511416  0.27979213  0.89833934  1
  N  N16  1  0.50687796  0.02509217  0.25576267  1
  N  N17  1  0.92670370  0.95094140  0.49933565  1
  N  N18  1  0.38716017  0.35359522  0.12643634  1
  N  N19  1  0.89018169  0.47622310  0.18253520  1
  N  N20  1  0.22836183  0.30699938  0.81530127  1
  N  N21  1  0.26040262  0.34157387  0.73050988  1
  N  N22  1  0.42365410  0.47802043  0.57305904  1
  N  N23  1  0.98581427  0.75108624  0.25966406  1
  N  N24  1  0.22026457  0.06561843  0.59306372  1
  N  N25  1  0.26297253  0.79258290  0.20988313  1
  N  N26  1  0.72889922  0.80513337  0.82904314  1
  N  N27  1  0.38057160  0.89441875  0.45764092  1
  N  N28  1  0.24092429  0.15031912  0.53485432  1
  N  N29  1  0.07310271  0.24382542  0.05100068  1
  N  N30  1  0.95524476  0.92692392  0.62034522  1
  N  N31  1  0.11398575  0.94571512  0.00472550  1
  N  N32  1  0.41883071  0.08381205  0.73098513  1
  N  N33  1  0.89756087  0.22394039  0.32028817  1
  N  N34  1  0.27525288  0.08828110  0.22302537  1
  N  N35  1  0.04572216  0.04798155  0.32109632  1
  N  N36  1  0.60641284  0.53268746  0.72991664  1
  N  N37  1  0.03701409  0.33251956  0.01449571  1
  N  N38  1  0.83547426  0.55704651  0.88648507  1
  N  N39  1  0.71203859  0.05623175  0.85902738  1
  N  N40  1  0.79101016  0.94213698  0.26079660  1
  N  N41  1  0.24896753  0.57919888  0.40476289  1
  N  N42  1  0.59945399  0.12061608  0.48863573  1
  N  N43  1  0.33111028  0.05236252  0.99246926  1
  N  N44  1  0.61269328  0.48819271  0.15620813  1
  N  N45  1  0.53953918  0.85806562  0.65337347  1
  N  N46  1  0.58422817  0.04788595  0.08870149  1
  N  N47  1  0.51545556  0.09480756  0.16249992  1
  N  N48  1  0.44785200  0.38588641  0.54511128  1
  N  N49  1  0.74329897  0.30422725  0.01506297  1
loop_
_geom_bond_atom_site_label_1
_geom_bond_atom_site_label_2
_geom_bond_distance
_geom_bond_site_symmetry_2
Ga0 N2 2.013444 1_565
Ga0 N40 2.038208 1_555
Ga0 N17 2.048377 1_555
Ga1 N42 2.011971 1_555
Ga1 N48 2.536941 1_555
Ga2 N30 2.163499 1_545
Ga2 N3 2.246779 1_655
Ga3 N11 2.107175 1_555
Ga4 N44 1.956023 1_555
Ga4 N18 1.973997 1_555
Ga5 N26 1.979999 1_555
Ga5 N1 1.986630 1_555
Ga5 N30 2.667248 1_555
Ga6 N26 1.914908 1_555
Ga6 N13 1.967299 1_556
Ga6 N38 2.076782 1_555
Ga7 N10 1.996706 1_555
Ga7 N23 2.013930 1_555
Ga7 N19 2.069892 1_555
Ga8 N33 1.934555 1_555
Ga8 N2 1.954840 1_555
Ga8 N7 2.121914 1_555
Ga9 N5 2.058675 1_556
Ga9 N37 2.560566 1_556
Ga10 N26 1.936609 1_555
Ga10 N39 1.990926 1_565
Ga11 N31 1.951918 1_555
Ga11 N34 1.976758 1_565
Ga11 N25 1.991430 1_555
Ga11 N43 2.100575 1_564
Ga12 N7 1.945884 1_555
Ga13 N49 1.891526 1_555
Ga13 N44 1.974579 1_555
Ga13 N19 2.073152 1_555
Ga14 N3 1.976711 1_555
Ga14 N6 1.999778 1_555
Ga14 N0 2.006083 1_555
Ga14 N28 2.626469 1_555
Ga15 N0 2.621175 1_555
Ga16 N33 1.962710 1_555
Ga16 N40 2.064809 1_545
Ga16 N35 2.104993 1_655
Ga17 N44 1.964744 1_555
Ga17 N11 1.990665 1_555
Ga17 N13 1.990753 1_555
Ga18 N19 1.931484 1_555
Ga18 N5 1.960703 1_655
Ga18 N13 2.015433 1_555
Ga18 N38 2.063847 1_554
Ga19 N31 1.947844 1_645
Ga20 N4 1.920714 1_555
Ga20 N35 1.947834 1_565
Ga20 N23 1.979065 1_455
Ga20 N17 2.117338 1_455
Ga21 N18 1.916372 1_555
Ga21 N14 1.971694 1_555
Ga22 N33 1.926277 1_555
Ga22 N19 1.940828 1_555
Ga22 N6 2.028318 1_655
Ga22 N10 2.054546 1_555
Ga23 N14 2.004996 1_555
Ga23 N11 2.056295 1_555
Ga23 N25 2.184298 1_555
Ga24 N1 1.953807 1_455
Ga25 N34 1.964967 1_555
Ga25 N27 1.984998 1_545
Ga25 N16 2.099940 1_555
Ga26 N18 1.859836 1_555
Ga26 N43 1.966508 1_554
Ga26 N34 1.990437 1_555
Ga26 N47 2.140190 1_555
Ga27 N10 1.958861 1_455
Ga27 N4 1.980933 1_555
Ga27 N0 2.015090 1_555
Ga28 N30 2.012179 1_455
Ga28 N4 2.124715 1_555
Ga29 N39 2.025959 1_555
Ga30 N41 1.935535 1_555
Ga30 N6 1.990519 1_555
Ga31 N45 2.264555 1_555
Ga32 N14 2.002158 1_556
Ga33 N5 2.012152 1_556
Ga33 N31 2.059028 1_556
Ga34 N45 1.936822 1_555
Ga34 N42 1.964953 1_565
Ga34 N27 2.050227 1_555
Ga35 N31 2.014058 1_546
Ga35 N43 2.059935 1_555
Ga36 N45 1.966368 1_555
Ga36 N26 2.000569 1_555
Ga36 N39 2.105509 1_565
Ga37 N14 1.913704 1_555
Ga37 N44 1.944271 1_555
Ga37 N12 2.497797 1_554
Ga38 N45 1.972998 1_555
Ga38 N27 2.099790 1_555
Ga39 N13 1.934578 1_555
Ga39 N23 2.009003 1_555
Ga39 N40 2.072103 1_555
Ga40 N49 1.826655 1_556
Ga40 N39 1.882338 1_555
Ga40 N46 1.933783 1_556
Ga41 N11 1.919402 1_555
Ga41 N40 1.938647 1_555
Ga41 N16 2.049062 1_565
Ga41 N46 2.126555 1_565
Ga42 N34 1.860779 1_555
Ga42 N35 1.872156 1_555
Ga42 N6 1.912408 1_555
Ga43 N49 1.899563 1_556
Ga43 N38 2.000935 1_555
Ga44 N43 2.019919 1_565
Ga44 N46 2.344175 1_566
Ga45 N5 1.980475 1_555
Ga45 N25 2.016120 1_555
Ga45 N23 2.047461 1_455
Ga46 N3 1.948106 1_655
Ga46 N33 1.952659 1_555
Ga46 N35 1.992559 1_655
Ga46 N17 2.036853 1_545
Ga47 N27 2.006768 1_555
Ga47 N41 2.051199 1_555
Ga47 N25 2.056902 1_555
Ga47 N4 2.064457 1_555
Ga48 N7 1.964630 1_555
Ga48 N10 2.021500 1_555
Ga48 N3 2.137637 1_655
Ga49 N7 1.971837 1_555
Ga49 N42 2.001152 1_555
Ga49 N2 2.057997 1_555
N0 N41 1.383731 1_555
N1 N38 1.438018 1_555
N2 N42 1.513283 1_555
N12 N15 1.119425 1_555
N16 N47 1.297472 1_555
N17 N30 1.445333 1_555
N20 N21 1.117927 1_555
N22 N48 1.115795 1_555
N24 N28 1.133624 1_555
N29 N37 1.137212 1_555
N32 N8 1.117440 1_555
N36 N9 1.122733 1_555
N46 N47 1.362646 1_555
