# generated using pymatgen
data_PrSbIr
_symmetry_space_group_name_H-M   'P 1'
_cell_length_a   4.59599460
_cell_length_b   7.46999810
_cell_length_c   7.97828954
_cell_angle_alpha   90.00000000
_cell_angle_beta   90.00000000
_cell_angle_gamma   90.00000000
_symmetry_Int_Tables_number   1
_chemical_formula_structural   PrSbIr
_chemical_formula_sum   'Pr4 Sb4 Ir4'
_cell_volume   273.91120238
_cell_formula_units_Z   4
loop_
 _symmetry_equiv_pos_site_id
 _symmetry_equiv_pos_as_xyz
  1  'x, y, z'
loop_
 _atom_site_type_symbol
 _atom_site_label
 _atom_site_symmetry_multiplicity
 _atom_site_fract_x
 _atom_site_fract_y
 _atom_site_fract_z
 _atom_site_occupancy
  Pr  Pr0  1  0.25000000  0.51573390  0.19169698  1
  Pr  Pr1  1  0.75000000  0.48426610  0.80830302  1
  Pr  Pr2  1  0.75000000  0.98426610  0.69169698  1
  Pr  Pr3  1  0.25000000  0.01573390  0.30830302  1
  Sb  Sb0  1  0.25000000  0.67552124  0.58648281  1
  Sb  Sb1  1  0.75000000  0.32447876  0.41351719  1
  Sb  Sb2  1  0.75000000  0.82447876  0.08648281  1
  Sb  Sb3  1  0.25000000  0.17552124  0.91351719  1
  Ir  Ir0  1  0.25000000  0.79972987  0.90888234  1
  Ir  Ir1  1  0.75000000  0.20027013  0.09111766  1
  Ir  Ir2  1  0.75000000  0.70027013  0.40888234  1
  Ir  Ir3  1  0.25000000  0.29972987  0.59111766  1
loop_
_geom_bond_atom_site_label_1
_geom_bond_atom_site_label_2
_geom_bond_distance
_geom_bond_site_symmetry_2
Pr0 Sb1 3.233250 1_455
Pr0 Sb1 3.233250 1_555
Pr0 Sb2 3.362226 1_555
Pr0 Sb2 3.362226 1_455
Pr0 Sb0 3.368296 1_555
Pr0 Sb3 3.374075 1_554
Pr1 Sb0 3.233250 1_555
Pr1 Sb0 3.233250 1_655
Pr1 Sb3 3.362226 1_555
Pr1 Sb3 3.362226 1_655
Pr1 Sb1 3.368296 1_555
Pr1 Sb2 3.374075 1_556
Pr2 Sb3 3.233250 1_565
Pr2 Sb3 3.233250 1_665
Pr2 Sb0 3.362226 1_555
Pr2 Sb0 3.362226 1_655
Pr2 Sb2 3.368296 1_556
Pr2 Sb1 3.374075 1_565
Pr3 Sb2 3.233250 1_545
Pr3 Sb2 3.233250 1_445
Pr3 Sb1 3.362226 1_455
Pr3 Sb1 3.362226 1_555
Pr3 Sb3 3.368296 1_554
Pr3 Sb0 3.374075 1_545
Ir0 Sb2 2.706051 1_556
Ir0 Sb2 2.706051 1_456
Ir0 Sb0 2.734425 1_555
Ir0 Sb3 2.807404 1_565
Ir0 Pr0 3.097061 1_556
Ir0 Pr2 3.191159 1_455
Ir0 Pr2 3.191159 1_555
Ir0 Pr1 3.387901 1_455
Ir0 Pr1 3.387901 1_555
Ir0 Pr3 3.571913 1_566
Ir1 Sb3 2.706051 1_654
Ir1 Sb3 2.706051 1_554
Ir1 Sb1 2.734425 1_555
Ir1 Sb2 2.807404 1_545
Ir1 Pr1 3.097061 1_554
Ir1 Pr3 3.191159 1_655
Ir1 Pr3 3.191159 1_555
Ir1 Pr0 3.387901 1_655
Ir1 Pr0 3.387901 1_555
Ir1 Pr2 3.571913 1_544
Ir2 Sb0 2.706051 1_655
Ir2 Sb0 2.706051 1_555
Ir2 Sb2 2.734425 1_555
Ir2 Sb1 2.807404 1_555
Ir2 Pr2 3.097061 1_555
Ir2 Pr0 3.191159 1_555
Ir2 Pr0 3.191159 1_655
Ir2 Pr3 3.387901 1_565
Ir2 Pr3 3.387901 1_665
Ir2 Pr1 3.571913 1_555
Ir3 Sb1 2.706051 1_555
Ir3 Sb1 2.706051 1_455
Ir3 Sb3 2.734425 1_555
Ir3 Sb0 2.807404 1_555
Ir3 Pr3 3.097061 1_555
Ir3 Pr1 3.191159 1_455
Ir3 Pr1 3.191159 1_555
Ir3 Pr2 3.387901 1_545
Ir3 Pr2 3.387901 1_445
Ir3 Pr0 3.571913 1_555
