# generated using pymatgen
data_YMg14Ti
_symmetry_space_group_name_H-M   'P 1'
_cell_length_a   6.48521359
_cell_length_b   6.48521304
_cell_length_c   10.22384336
_cell_angle_alpha   90.00000000
_cell_angle_beta   90.00000000
_cell_angle_gamma   120.00000274
_symmetry_Int_Tables_number   1
_chemical_formula_structural   YMg14Ti
_chemical_formula_sum   'Y1 Mg14 Ti1'
_cell_volume   372.38599420
_cell_formula_units_Z   1
loop_
 _symmetry_equiv_pos_site_id
 _symmetry_equiv_pos_as_xyz
  1  'x, y, z'
loop_
 _atom_site_type_symbol
 _atom_site_label
 _atom_site_symmetry_multiplicity
 _atom_site_fract_x
 _atom_site_fract_y
 _atom_site_fract_z
 _atom_site_occupancy
  Y  Y0  1  0.16666700  0.33333300  0.12500000  1
  Mg  Mg0  1  0.17479771  0.83739836  0.12500000  1
  Mg  Mg1  1  0.16792665  0.83396282  0.62500000  1
  Mg  Mg2  1  0.66260164  0.32520229  0.12500000  1
  Mg  Mg3  1  0.66603718  0.33207335  0.62500000  1
  Mg  Mg4  1  0.66260164  0.83739836  0.12500000  1
  Mg  Mg5  1  0.66603718  0.83396282  0.62500000  1
  Mg  Mg6  1  0.33257385  0.16742615  0.38208488  1
  Mg  Mg7  1  0.33257385  0.16742615  0.86791512  1
  Mg  Mg8  1  0.33257385  0.66514870  0.38208488  1
  Mg  Mg9  1  0.33257385  0.66514870  0.86791512  1
  Mg  Mg10  1  0.83485130  0.16742615  0.38208488  1
  Mg  Mg11  1  0.83485130  0.16742615  0.86791512  1
  Mg  Mg12  1  0.83333300  0.66666700  0.37180532  1
  Mg  Mg13  1  0.83333300  0.66666700  0.87819468  1
  Ti  Ti0  1  0.16666700  0.33333300  0.62500000  1
loop_
_geom_bond_atom_site_label_1
_geom_bond_atom_site_label_2
_geom_bond_distance
_geom_bond_site_symmetry_2
Mg0 Mg2 3.163512 1_565
Mg0 Mg4 3.163513 1_555
Mg0 Mg12 3.169377 1_455
Mg0 Mg13 3.169377 1_454
Mg0 Mg9 3.216565 1_554
Mg0 Mg8 3.216565 1_555
Mg0 Mg7 3.216571 1_564
Mg0 Mg6 3.216571 1_565
Mg0 Y0 3.242928 1_565
Mg0 Y0 3.242928 1_555
Mg0 Mg2 3.321701 1_455
Mg0 Mg4 3.321701 1_455
Mg1 Mg8 3.110564 1_555
Mg1 Mg9 3.110564 1_555
Mg1 Mg6 3.110571 1_565
Mg1 Mg7 3.110571 1_565
Mg1 Mg12 3.198805 1_455
Mg1 Mg13 3.198805 1_455
Mg1 Mg3 3.230353 1_565
Mg1 Mg5 3.230353 1_555
Mg1 Ti0 3.242614 1_555
Mg1 Ti0 3.242614 1_565
Mg1 Mg3 3.254860 1_455
Mg1 Mg5 3.254860 1_455
Mg2 Mg4 3.163512 1_545
Mg2 Mg7 3.216571 1_554
Mg2 Mg6 3.216571 1_555
Mg2 Y0 3.242928 1_555
Mg2 Y0 3.242928 1_655
Mg2 Mg4 3.321701 1_555
Mg3 Mg6 3.110571 1_555
Mg3 Mg7 3.110571 1_555
Mg3 Mg5 3.230353 1_545
Mg3 Ti0 3.242614 1_655
Mg3 Ti0 3.242615 1_555
Mg3 Mg5 3.254860 1_555
Mg4 Mg9 3.216571 1_554
Mg4 Mg8 3.216571 1_555
Mg4 Y0 3.242928 1_555
Mg4 Y0 3.242928 1_665
Mg5 Mg8 3.110571 1_555
Mg5 Mg9 3.110571 1_555
Mg5 Ti0 3.242614 1_555
Mg5 Ti0 3.242614 1_665
Mg6 Ti0 3.104972 1_555
Mg6 Y0 3.222020 1_555
Mg6 Mg8 3.227837 1_555
Mg6 Mg8 3.257376 1_545
Mg7 Ti0 3.104972 1_555
Mg7 Y0 3.222020 1_556
Mg7 Mg9 3.227837 1_555
Mg7 Mg9 3.257376 1_545
Mg8 Ti0 3.104979 1_555
Mg8 Y0 3.222026 1_555
Mg9 Ti0 3.104979 1_555
Mg9 Y0 3.222026 1_556
Mg10 Ti0 3.104979 1_655
Mg10 Mg3 3.110564 1_555
Mg10 Mg5 3.110571 1_545
Mg10 Mg2 3.216565 1_555
Mg10 Mg4 3.216571 1_545
Mg10 Y0 3.222026 1_655
Mg10 Mg8 3.227837 1_655
Mg10 Mg6 3.227837 1_655
Mg10 Mg12 3.244320 1_545
Mg10 Mg12 3.244320 1_555
Mg10 Mg8 3.257376 1_545
Mg10 Mg6 3.257377 1_555
Mg11 Ti0 3.104979 1_655
Mg11 Mg3 3.110564 1_555
Mg11 Mg5 3.110571 1_545
Mg11 Mg2 3.216565 1_556
Mg11 Mg4 3.216571 1_546
Mg11 Y0 3.222026 1_656
Mg11 Mg9 3.227837 1_655
Mg11 Mg7 3.227837 1_655
Mg11 Mg13 3.244320 1_545
Mg11 Mg13 3.244320 1_555
Mg11 Mg9 3.257376 1_545
Mg11 Mg7 3.257377 1_555
Mg12 Mg4 3.169370 1_555
Mg12 Mg2 3.169377 1_555
Mg12 Mg5 3.198798 1_555
Mg12 Mg3 3.198805 1_555
Mg12 Mg6 3.244320 1_665
Mg12 Mg6 3.244320 1_555
Mg12 Mg8 3.244321 1_655
Mg12 Mg8 3.244321 1_555
Mg13 Mg4 3.169370 1_556
Mg13 Mg2 3.169377 1_556
Mg13 Mg5 3.198798 1_555
Mg13 Mg3 3.198805 1_555
Mg13 Mg7 3.244320 1_665
Mg13 Mg7 3.244320 1_555
Mg13 Mg9 3.244321 1_655
Mg13 Mg9 3.244321 1_555
