# generated using pymatgen
data_AgPO3
_symmetry_space_group_name_H-M   'P 1'
_cell_length_a   5.97752081
_cell_length_b   7.31704427
_cell_length_c   13.59925276
_cell_angle_alpha   61.66666124
_cell_angle_beta   90.00000000
_cell_angle_gamma   90.00000000
_symmetry_Int_Tables_number   1
_chemical_formula_structural   AgPO3
_chemical_formula_sum   'Ag8 P8 O24'
_cell_volume   523.54480413
_cell_formula_units_Z   8
loop_
 _symmetry_equiv_pos_site_id
 _symmetry_equiv_pos_as_xyz
  1  'x, y, z'
loop_
 _atom_site_type_symbol
 _atom_site_label
 _atom_site_symmetry_multiplicity
 _atom_site_fract_x
 _atom_site_fract_y
 _atom_site_fract_z
 _atom_site_occupancy
  Ag  Ag0  1  0.41447256  0.26747859  0.46573502  1
  Ag  Ag1  1  0.91447256  0.73252141  0.03426498  1
  Ag  Ag2  1  0.58552744  0.73252141  0.53426498  1
  Ag  Ag3  1  0.08552744  0.26747859  0.96573502  1
  Ag  Ag4  1  0.82775870  0.50702937  0.37936970  1
  Ag  Ag5  1  0.32775870  0.49297063  0.12063030  1
  Ag  Ag6  1  0.17224130  0.49297063  0.62063030  1
  Ag  Ag7  1  0.67224130  0.50702937  0.87936970  1
  P  P0  1  0.10659509  0.93559313  0.38873956  1
  P  P1  1  0.60659509  0.06440687  0.11126044  1
  P  P2  1  0.89340491  0.06440687  0.61126044  1
  P  P3  1  0.39340491  0.93559313  0.88873956  1
  P  P4  1  0.30561217  0.74120485  0.27183385  1
  P  P5  1  0.80561217  0.25879515  0.22816615  1
  P  P6  1  0.69438783  0.25879515  0.72816615  1
  P  P7  1  0.19438783  0.74120485  0.77183385  1
  O  O0  1  0.96796318  0.74556235  0.45555521  1
  O  O1  1  0.46796318  0.25443765  0.04444479  1
  O  O2  1  0.03203682  0.25443765  0.54444479  1
  O  O3  1  0.53203682  0.74556235  0.95555521  1
  O  O4  1  0.29831939  0.97897792  0.44375108  1
  O  O5  1  0.79831939  0.02102208  0.05624892  1
  O  O6  1  0.70168061  0.02102208  0.55624892  1
  O  O7  1  0.20168061  0.97897792  0.94375108  1
  O  O8  1  0.95480579  0.13846156  0.33696425  1
  O  O9  1  0.45480579  0.86153844  0.16303575  1
  O  O10  1  0.04519421  0.86153844  0.66303575  1
  O  O11  1  0.54519421  0.13846156  0.83696425  1
  O  O12  1  0.45010011  0.63341017  0.37349255  1
  O  O13  1  0.95010011  0.36658983  0.12650745  1
  O  O14  1  0.54989989  0.36658983  0.62650745  1
  O  O15  1  0.04989989  0.63341017  0.87349255  1
  O  O16  1  0.35980020  0.61548782  0.74763092  1
  O  O17  1  0.85980020  0.38451218  0.75236908  1
  O  O18  1  0.64019980  0.38451218  0.25236908  1
  O  O19  1  0.14019980  0.61548782  0.24763092  1
  O  O20  1  0.31514543  0.93292676  0.77628132  1
  O  O21  1  0.81514543  0.06707324  0.72371868  1
  O  O22  1  0.68485457  0.06707324  0.22371868  1
  O  O23  1  0.18485457  0.93292676  0.27628132  1
loop_
_geom_bond_atom_site_label_1
_geom_bond_atom_site_label_2
_geom_bond_distance
_geom_bond_site_symmetry_2
Ag0 O12 2.366431 1_555
Ag0 O6 2.368027 1_555
Ag0 O4 2.372065 1_545
Ag0 O2 2.506746 1_555
Ag0 O14 2.732497 1_555
Ag1 O13 2.366431 1_555
Ag1 O7 2.368027 1_654
Ag1 O5 2.372065 1_565
Ag1 O3 2.506746 1_554
Ag1 O15 2.732497 1_654
Ag2 O14 2.366431 1_555
Ag2 O4 2.368027 1_555
Ag2 O6 2.372065 1_565
Ag2 O0 2.506746 1_555
Ag2 O12 2.732497 1_555
Ag3 O15 2.366431 1_555
Ag3 O5 2.368027 1_456
Ag3 O7 2.372065 1_545
Ag3 O1 2.506746 1_556
Ag3 O13 2.732497 1_456
Ag4 O12 2.426417 1_555
Ag4 O19 2.444978 1_655
Ag4 O2 2.451168 1_655
Ag4 O18 2.552089 1_555
Ag4 O0 2.557052 1_555
Ag5 O13 2.426417 1_455
Ag5 O18 2.444978 1_555
Ag5 O3 2.451168 1_554
Ag5 O19 2.552089 1_555
Ag5 O1 2.557052 1_555
Ag6 O14 2.426417 1_555
Ag6 O17 2.444978 1_455
Ag6 O0 2.451168 1_455
Ag6 O16 2.552089 1_555
Ag6 O2 2.557052 1_555
Ag7 O15 2.426417 1_655
Ag7 O16 2.444978 1_555
Ag7 O1 2.451168 1_556
Ag7 O17 2.552089 1_555
Ag7 O3 2.557052 1_555
O0 P0 1.498823 1_655
O1 P1 1.498823 1_555
O2 P2 1.498823 1_455
O3 P3 1.498823 1_555
O4 P0 1.482995 1_555
O5 P1 1.482995 1_555
O6 P2 1.482995 1_555
O7 P3 1.482995 1_555
O8 P5 1.588442 1_555
O8 P0 1.590710 1_645
O9 P4 1.588442 1_555
O9 P1 1.590710 1_565
O10 P7 1.588442 1_555
O10 P2 1.590710 1_465
O11 P6 1.588442 1_555
O11 P3 1.590710 1_545
O12 P4 1.498093 1_555
O13 P5 1.498093 1_555
O14 P6 1.498093 1_555
O15 P7 1.498093 1_555
O16 P7 1.489811 1_555
O17 P6 1.489811 1_555
O18 P5 1.489811 1_555
O19 P4 1.489811 1_555
O20 P7 1.604116 1_555
O20 P3 1.608242 1_555
O21 P6 1.604116 1_555
O21 P2 1.608242 1_555
O22 P5 1.604116 1_555
O22 P1 1.608242 1_555
O23 P4 1.604116 1_555
O23 P0 1.608242 1_555
