# generated using pymatgen
data_TiC4NO10
_symmetry_space_group_name_H-M   'P 1'
_cell_length_a   9.12259610
_cell_length_b   9.12259610
_cell_length_c   10.02268600
_cell_angle_alpha   90.00000000
_cell_angle_beta   90.00000000
_cell_angle_gamma   120.00000073
_symmetry_Int_Tables_number   1
_chemical_formula_structural   TiC4NO10
_chemical_formula_sum   'Ti3 C12 N3 O30'
_cell_volume   722.35660335
_cell_formula_units_Z   3
loop_
 _symmetry_equiv_pos_site_id
 _symmetry_equiv_pos_as_xyz
  1  'x, y, z'
loop_
 _atom_site_type_symbol
 _atom_site_label
 _atom_site_symmetry_multiplicity
 _atom_site_fract_x
 _atom_site_fract_y
 _atom_site_fract_z
 _atom_site_occupancy
  Ti  Ti0  1  0.50000000  0.00000000  0.50000000  1
  Ti  Ti1  1  0.00000000  0.50000000  0.16666700  1
  Ti  Ti2  1  0.50000000  0.50000000  0.83333300  1
  C  C0  1  0.31387800  0.62775700  0.00000000  1
  C  C1  1  0.37224300  0.68612200  0.66666700  1
  C  C2  1  0.68612200  0.37224300  0.00000000  1
  C  C3  1  0.62775700  0.31387800  0.66666700  1
  C  C4  1  0.31387800  0.68612200  0.33333300  1
  C  C5  1  0.68612200  0.31387800  0.33333300  1
  C  C6  1  0.21833700  0.43667400  0.00000000  1
  C  C7  1  0.56332600  0.78166300  0.66666700  1
  C  C8  1  0.78166300  0.56332600  0.00000000  1
  C  C9  1  0.43667400  0.21833700  0.66666700  1
  C  C10  1  0.21833700  0.78166300  0.33333300  1
  C  C11  1  0.78166300  0.21833700  0.33333300  1
  N  N0  1  0.00000000  0.00000000  0.50000000  1
  N  N1  1  0.00000000  0.00000000  0.16666700  1
  N  N2  1  0.00000000  0.00000000  0.83333300  1
  O  O0  1  0.07798000  0.00000000  0.00000000  1
  O  O1  1  0.00000000  0.07798000  0.66666700  1
  O  O2  1  0.92202000  0.00000000  0.00000000  1
  O  O3  1  0.92202000  0.92202000  0.33333300  1
  O  O4  1  0.00000000  0.92202000  0.66666700  1
  O  O5  1  0.07798000  0.07798000  0.33333300  1
  O  O6  1  0.30522300  0.54124000  0.72075400  1
  O  O7  1  0.45876000  0.76398300  0.38742100  1
  O  O8  1  0.69477700  0.45876000  0.72075400  1
  O  O9  1  0.54124000  0.30522300  0.94591300  1
  O  O10  1  0.23601700  0.69477700  0.05408700  1
  O  O11  1  0.54124000  0.23601700  0.38742100  1
  O  O12  1  0.76398300  0.45876000  0.27924600  1
  O  O13  1  0.45876000  0.69477700  0.94591300  1
  O  O14  1  0.76398300  0.30522300  0.05408700  1
  O  O15  1  0.23601700  0.54124000  0.27924600  1
  O  O16  1  0.69477700  0.23601700  0.61257900  1
  O  O17  1  0.30522300  0.76398300  0.61257900  1
  O  O18  1  0.36406600  0.07207000  0.61539300  1
  O  O19  1  0.92793000  0.29199600  0.28205900  1
  O  O20  1  0.63593400  0.92793000  0.61539300  1
  O  O21  1  0.07207000  0.36406600  0.05127400  1
  O  O22  1  0.70800400  0.63593400  0.94872600  1
  O  O23  1  0.07207000  0.70800400  0.28205900  1
  O  O24  1  0.29199600  0.92793000  0.38460700  1
  O  O25  1  0.92793000  0.63593400  0.05127400  1
  O  O26  1  0.29199600  0.36406600  0.94872600  1
  O  O27  1  0.70800400  0.07207000  0.38460700  1
  O  O28  1  0.63593400  0.70800400  0.71794100  1
  O  O29  1  0.36406600  0.29199600  0.71794100  1
loop_
_geom_bond_atom_site_label_1
_geom_bond_atom_site_label_2
_geom_bond_distance
_geom_bond_site_symmetry_2
C0 O10 1.267464 1_555
C0 O13 1.267471 1_554
C1 O17 1.267468 1_555
C1 O6 1.267471 1_555
C2 O14 1.267464 1_555
C2 O9 1.267471 1_554
C3 O16 1.267468 1_555
C3 O8 1.267471 1_555
C4 O15 1.267471 1_555
C4 O7 1.267475 1_555
C5 O12 1.267471 1_555
C5 O11 1.267475 1_555
C6 O21 1.264696 1_555
C6 O26 1.264696 1_554
C7 O20 1.264696 1_555
C7 O28 1.264696 1_555
C8 O25 1.264696 1_555
C8 O22 1.264696 1_554
C9 O18 1.264696 1_555
C9 O29 1.264696 1_555
C10 O23 1.264696 1_555
C10 O24 1.264696 1_555
C11 O27 1.264696 1_555
C11 O19 1.264696 1_555
N0 O3 1.815618 1_445
N0 O5 1.815618 1_555
N0 O4 1.815618 1_545
N0 O1 1.815618 1_555
N1 O3 1.815609 1_445
N1 O5 1.815609 1_555
N1 O2 1.815618 1_455
N1 O0 1.815618 1_555
N2 O4 1.815609 1_545
N2 O1 1.815609 1_555
N2 O2 1.815618 1_456
N2 O0 1.815618 1_556
O0 O2 1.422760 1_455
O1 O4 1.422760 1_545
O3 O5 1.422760 1_665
O6 Ti2 2.289205 1_555
O7 Ti0 2.289205 1_565
O8 Ti2 2.289205 1_555
O9 Ti2 2.289210 1_555
O10 Ti1 2.289210 1_555
O11 Ti0 2.289205 1_555
O12 Ti1 2.289205 1_655
O13 Ti2 2.289210 1_555
O14 Ti1 2.289210 1_655
O15 Ti1 2.289205 1_555
O16 Ti0 2.289205 1_555
O17 Ti0 2.289205 1_565
O18 Ti0 2.030503 1_555
O19 Ti1 2.030498 1_655
O20 Ti0 2.030503 1_565
O21 Ti1 2.030503 1_555
O22 Ti2 2.030503 1_555
O23 Ti1 2.030498 1_555
O24 Ti0 2.030503 1_565
O25 Ti1 2.030503 1_655
O26 Ti2 2.030503 1_555
O27 Ti0 2.030503 1_555
O28 Ti2 2.030498 1_555
O29 Ti2 2.030498 1_555
