# generated using pymatgen
data_Co2AsHO5
_symmetry_space_group_name_H-M   'P 1'
_cell_length_a   6.15402200
_cell_length_b   8.41106700
_cell_length_c   8.67319500
_cell_angle_alpha   90.00000000
_cell_angle_beta   90.00000000
_cell_angle_gamma   90.00000000
_symmetry_Int_Tables_number   1
_chemical_formula_structural   Co2AsHO5
_chemical_formula_sum   'Co8 As4 H4 O20'
_cell_volume   448.94097735
_cell_formula_units_Z   4
loop_
 _symmetry_equiv_pos_site_id
 _symmetry_equiv_pos_as_xyz
  1  'x, y, z'
loop_
 _atom_site_type_symbol
 _atom_site_label
 _atom_site_symmetry_multiplicity
 _atom_site_fract_x
 _atom_site_fract_y
 _atom_site_fract_z
 _atom_site_occupancy
  Co  Co0  1  0.74502400  0.50000000  0.50000000  1
  Co  Co1  1  0.75497600  0.00000000  0.00000000  1
  Co  Co2  1  0.25497600  0.50000000  0.50000000  1
  Co  Co3  1  0.24502400  0.00000000  0.00000000  1
  Co  Co4  1  0.50000000  0.63618600  0.12690600  1
  Co  Co5  1  0.50000000  0.36381400  0.87309400  1
  Co  Co6  1  0.00000000  0.13618600  0.37309400  1
  Co  Co7  1  0.00000000  0.86381400  0.62690600  1
  As  As0  1  0.00000000  0.75035500  0.25510400  1
  As  As1  1  0.00000000  0.24964500  0.74489600  1
  As  As2  1  0.50000000  0.25035500  0.24489600  1
  As  As3  1  0.50000000  0.74964500  0.75510400  1
  H  H0  1  0.50000000  0.71771000  0.40549300  1
  H  H1  1  0.50000000  0.28229000  0.59450700  1
  H  H2  1  0.00000000  0.21771000  0.09450700  1
  H  H3  1  0.00000000  0.78229000  0.90549300  1
  O  O0  1  0.00000000  0.57323400  0.35594200  1
  O  O1  1  0.00000000  0.42676600  0.64405800  1
  O  O2  1  0.50000000  0.07323400  0.14405800  1
  O  O3  1  0.50000000  0.92676600  0.85594200  1
  O  O4  1  0.50000000  0.60706900  0.37004100  1
  O  O5  1  0.50000000  0.39293100  0.62995900  1
  O  O6  1  0.00000000  0.10706900  0.12995900  1
  O  O7  1  0.00000000  0.89293100  0.87004100  1
  O  O8  1  0.00000000  0.89755500  0.39369500  1
  O  O9  1  0.00000000  0.10244500  0.60630500  1
  O  O10  1  0.50000000  0.39755500  0.10630500  1
  O  O11  1  0.50000000  0.60244500  0.89369500  1
  O  O12  1  0.77491300  0.77064400  0.13739200  1
  O  O13  1  0.77491300  0.22935600  0.86260800  1
  O  O14  1  0.72508700  0.27064400  0.36260800  1
  O  O15  1  0.72508700  0.72935600  0.63739200  1
  O  O16  1  0.22508700  0.22935600  0.86260800  1
  O  O17  1  0.22508700  0.77064400  0.13739200  1
  O  O18  1  0.27491300  0.72935600  0.63739200  1
  O  O19  1  0.27491300  0.27064400  0.36260800  1
loop_
_geom_bond_atom_site_label_1
_geom_bond_atom_site_label_2
_geom_bond_distance
_geom_bond_site_symmetry_2
Co0 O5 2.086916 1_555
Co0 O4 2.086916 1_555
Co0 O0 2.098260 1_655
Co0 O1 2.098260 1_655
Co0 O15 2.270808 1_555
Co0 O14 2.270808 1_555
Co1 O6 2.086916 1_655
Co1 O7 2.086916 1_644
Co1 O2 2.098260 1_555
Co1 O3 2.098260 1_544
Co1 O13 2.270808 1_554
Co1 O12 2.270808 1_545
Co2 O5 2.086916 1_555
Co2 O4 2.086916 1_555
Co2 O1 2.098260 1_555
Co2 O0 2.098260 1_555
Co2 O18 2.270808 1_555
Co2 O19 2.270808 1_555
Co3 O6 2.086916 1_555
Co3 O7 2.086916 1_544
Co3 O2 2.098260 1_555
Co3 O3 2.098260 1_544
Co3 O16 2.270808 1_554
Co3 O17 2.270808 1_545
Co4 O10 2.015079 1_555
Co4 O12 2.037043 1_555
Co4 O17 2.037043 1_555
Co4 O11 2.042497 1_554
Co4 O4 2.122931 1_555
Co5 O11 2.015079 1_555
Co5 O13 2.037043 1_555
Co5 O16 2.037043 1_555
Co5 O10 2.042497 1_556
Co5 O5 2.122931 1_555
Co6 O8 2.015079 1_545
Co6 O19 2.037043 1_555
Co6 O14 2.037043 1_455
Co6 O9 2.042497 1_555
Co6 O6 2.122931 1_555
Co7 O9 2.015079 1_565
Co7 O18 2.037043 1_555
Co7 O15 2.037043 1_455
Co7 O8 2.042497 1_555
Co7 O7 2.122931 1_555
As0 O8 1.725625 1_555
As0 O0 1.727524 1_555
As0 O17 1.729217 1_555
As0 O12 1.729217 1_455
As1 O9 1.725625 1_555
As1 O1 1.727524 1_555
As1 O16 1.729217 1_555
As1 O13 1.729217 1_455
As2 O10 1.725625 1_555
As2 O2 1.727524 1_555
As2 O14 1.729217 1_555
As2 O19 1.729217 1_555
As3 O11 1.725625 1_555
As3 O3 1.727524 1_555
As3 O15 1.729217 1_555
As3 O18 1.729217 1_555
H0 O4 0.980091 1_555
H1 O5 0.980091 1_555
H2 O6 0.980091 1_555
H3 O7 0.980091 1_555
