# generated using pymatgen
data_DyCO4
_symmetry_space_group_name_H-M   'P 1'
_cell_length_a   4.88037200
_cell_length_b   7.13525100
_cell_length_c   8.74183700
_cell_angle_alpha   90.00000000
_cell_angle_beta   90.00000000
_cell_angle_gamma   90.00000000
_symmetry_Int_Tables_number   1
_chemical_formula_structural   DyCO4
_chemical_formula_sum   'Dy4 C4 O16'
_cell_volume   304.41418541
_cell_formula_units_Z   4
loop_
 _symmetry_equiv_pos_site_id
 _symmetry_equiv_pos_as_xyz
  1  'x, y, z'
loop_
 _atom_site_type_symbol
 _atom_site_label
 _atom_site_symmetry_multiplicity
 _atom_site_fract_x
 _atom_site_fract_y
 _atom_site_fract_z
 _atom_site_occupancy
  Dy  Dy0  1  0.02601900  0.87853900  0.34027400  1
  Dy  Dy1  1  0.47398100  0.12146100  0.84027400  1
  Dy  Dy2  1  0.97398100  0.37853900  0.15972600  1
  Dy  Dy3  1  0.52601900  0.62146100  0.65972600  1
  C  C0  1  0.00723200  0.95214200  0.67353700  1
  C  C1  1  0.49276800  0.04785800  0.17353700  1
  C  C2  1  0.99276800  0.45214200  0.82646300  1
  C  C3  1  0.50723200  0.54785800  0.32646300  1
  O  O0  1  0.96786700  0.69223100  0.14094000  1
  O  O1  1  0.53213300  0.30776900  0.64094000  1
  O  O2  1  0.03213300  0.19223100  0.35906000  1
  O  O3  1  0.46786700  0.80776900  0.85906000  1
  O  O4  1  0.54004700  0.94959900  0.29236100  1
  O  O5  1  0.95995300  0.05040100  0.79236100  1
  O  O6  1  0.45995300  0.44959900  0.20763900  1
  O  O7  1  0.04004700  0.55040100  0.70763900  1
  O  O8  1  0.76235300  0.57616300  0.36844900  1
  O  O9  1  0.73764700  0.42383700  0.86844900  1
  O  O10  1  0.23764700  0.07616300  0.13155100  1
  O  O11  1  0.26235300  0.92383700  0.63155100  1
  O  O12  1  0.31664800  0.61662100  0.41337600  1
  O  O13  1  0.18335200  0.38337900  0.91337600  1
  O  O14  1  0.68335200  0.11662100  0.08662400  1
  O  O15  1  0.81664800  0.88337900  0.58662400  1
loop_
_geom_bond_atom_site_label_1
_geom_bond_atom_site_label_2
_geom_bond_distance
_geom_bond_site_symmetry_2
Dy0 O0 2.210021 1_455
Dy0 O2 2.244486 1_565
Dy0 O15 2.383919 1_455
Dy0 O12 2.431620 1_555
Dy0 O4 2.461217 1_455
Dy0 O8 2.524167 1_455
Dy0 O10 2.526726 1_565
Dy0 O4 2.593420 1_555
Dy0 O11 2.813968 1_555
Dy1 O1 2.210021 1_555
Dy1 O3 2.244486 1_545
Dy1 O14 2.383919 1_556
Dy1 O13 2.431620 1_555
Dy1 O5 2.461217 1_555
Dy1 O9 2.524167 1_555
Dy1 O11 2.526726 1_545
Dy1 O5 2.593420 1_455
Dy1 O10 2.813968 1_556
Dy2 O2 2.210021 1_655
Dy2 O0 2.244486 1_555
Dy2 O13 2.383919 1_654
Dy2 O14 2.431620 1_555
Dy2 O6 2.461217 1_655
Dy2 O10 2.524167 1_655
Dy2 O8 2.526726 1_555
Dy2 O6 2.593420 1_555
Dy2 O9 2.813968 1_554
Dy3 O3 2.210021 1_555
Dy3 O1 2.244486 1_555
Dy3 O12 2.383919 1_555
Dy3 O15 2.431620 1_555
Dy3 O7 2.461217 1_555
Dy3 O11 2.524167 1_555
Dy3 O9 2.526726 1_555
Dy3 O7 2.593420 1_655
Dy3 O8 2.813968 1_555
C0 O5 1.274271 1_465
C0 O15 1.297350 1_455
C0 O11 1.313675 1_555
C1 O4 1.274271 1_545
C1 O14 1.297350 1_555
C1 O10 1.313675 1_555
C2 O7 1.274271 1_655
C2 O13 1.297350 1_655
C2 O9 1.313675 1_555
C3 O6 1.274271 1_555
C3 O12 1.297350 1_555
C3 O8 1.313675 1_555
