# generated using pymatgen
data_AgC2S2N4Cl
_symmetry_space_group_name_H-M   'P 1'
_cell_length_a   8.92962600
_cell_length_b   5.45456500
_cell_length_c   35.98970027
_cell_angle_alpha   85.78866587
_cell_angle_beta   90.00000000
_cell_angle_gamma   90.00000000
_symmetry_Int_Tables_number   1
_chemical_formula_structural   AgC2S2N4Cl
_chemical_formula_sum   'Ag8 C16 S16 N32 Cl8'
_cell_volume   1748.22540430
_cell_formula_units_Z   8
loop_
 _symmetry_equiv_pos_site_id
 _symmetry_equiv_pos_as_xyz
  1  'x, y, z'
loop_
 _atom_site_type_symbol
 _atom_site_label
 _atom_site_symmetry_multiplicity
 _atom_site_fract_x
 _atom_site_fract_y
 _atom_site_fract_z
 _atom_site_occupancy
  Ag  Ag0  1  0.83169400  0.15900000  0.10257100  1
  Ag  Ag1  1  0.16830600  0.84100000  0.89742900  1
  Ag  Ag2  1  0.33169400  0.84100000  0.39742900  1
  Ag  Ag3  1  0.66830600  0.15900000  0.60257100  1
  Ag  Ag4  1  0.20923000  0.17119500  0.32006800  1
  Ag  Ag5  1  0.79077000  0.82880500  0.67993200  1
  Ag  Ag6  1  0.70923000  0.82880500  0.17993200  1
  Ag  Ag7  1  0.29077000  0.17119500  0.82006800  1
  C  C0  1  0.09553600  0.47367800  0.14160100  1
  C  C1  1  0.90446400  0.52632200  0.85839900  1
  C  C2  1  0.59553600  0.52632200  0.35839900  1
  C  C3  1  0.40446400  0.47367800  0.64160100  1
  C  C4  1  0.37602600  0.15210300  0.25403500  1
  C  C5  1  0.62397400  0.84789700  0.74596500  1
  C  C6  1  0.87602600  0.84789700  0.24596500  1
  C  C7  1  0.12397400  0.15210300  0.75403500  1
  C  C8  1  0.15721900  0.38004400  0.02610100  1
  C  C9  1  0.84278100  0.61995600  0.97389900  1
  C  C10  1  0.65721900  0.61995600  0.47389900  1
  C  C11  1  0.34278100  0.38004400  0.52610100  1
  C  C12  1  0.00037100  0.14893800  0.40934300  1
  C  C13  1  0.99962900  0.85106200  0.59065700  1
  C  C14  1  0.50037100  0.85106200  0.09065700  1
  C  C15  1  0.49962900  0.14893800  0.90934300  1
  S  S0  1  0.83601600  0.12887200  0.22071800  1
  S  S1  1  0.16398400  0.87112800  0.77928200  1
  S  S2  1  0.33601600  0.87112800  0.27928200  1
  S  S3  1  0.66398400  0.12887200  0.72071800  1
  S  S4  1  0.58196600  0.05168500  0.12649300  1
  S  S5  1  0.41803400  0.94831500  0.87350700  1
  S  S6  1  0.08196600  0.94831500  0.37350700  1
  S  S7  1  0.91803400  0.05168500  0.62649300  1
  S  S8  1  0.11408900  0.16102300  0.09282300  1
  S  S9  1  0.88591100  0.83897700  0.90717700  1
  S  S10  1  0.61408900  0.83897700  0.40717700  1
  S  S11  1  0.38591100  0.16102300  0.59282300  1
  S  S12  1  0.40623300  0.35864500  0.36793300  1
  S  S13  1  0.59376700  0.64135500  0.63206700  1
  S  S14  1  0.90623300  0.64135500  0.13206700  1
  S  S15  1  0.09376700  0.35864500  0.86793300  1
  N  N0  1  0.16731100  0.29121900  0.13010700  1
  N  N1  1  0.83268900  0.70878100  0.86989300  1
  N  N2  1  0.66731100  0.70878100  0.36989300  1
  N  N3  1  0.33268900  0.29121900  0.63010700  1
  N  N4  1  0.12417200  0.40077300  0.05894700  1
  N  N5  1  0.87582800  0.59922700  0.94105300  1
  N  N6  1  0.62417200  0.59922700  0.44105300  1
  N  N7  1  0.37582800  0.40077300  0.55894700  1
  N  N8  1  0.45290700  0.98206000  0.06123300  1
  N  N9  1  0.54709300  0.01794000  0.93876700  1
  N  N10  1  0.95290700  0.01794000  0.43876700  1
  N  N11  1  0.04709300  0.98206000  0.56123300  1
  N  N12  1  0.07579000  0.65564100  0.16105300  1
  N  N13  1  0.92421000  0.34435900  0.83894700  1
  N  N14  1  0.57579000  0.34435900  0.33894700  1
  N  N15  1  0.42421000  0.65564100  0.66105300  1
  N  N16  1  0.31530000  0.32380200  0.27235000  1
  N  N17  1  0.68470000  0.67619800  0.72765000  1
  N  N18  1  0.81530000  0.67619800  0.22765000  1
  N  N19  1  0.18470000  0.32380200  0.77235000  1
  N  N20  1  0.50082600  0.61821000  0.10051700  1
  N  N21  1  0.49917400  0.38179000  0.89948300  1
  N  N22  1  0.00082600  0.38179000  0.39948300  1
  N  N23  1  0.99917400  0.61821000  0.60051700  1
  N  N24  1  0.45266400  0.15761500  0.22155600  1
  N  N25  1  0.54733600  0.84238500  0.77844400  1
  N  N26  1  0.95266400  0.84238500  0.27844400  1
  N  N27  1  0.04733600  0.15761500  0.72155600  1
  N  N28  1  0.15741300  0.38126300  0.99172800  1
  N  N29  1  0.84258700  0.61873700  0.00827200  1
  N  N30  1  0.65741300  0.61873700  0.50827200  1
  N  N31  1  0.34258700  0.38126300  0.49172800  1
  Cl  Cl0  1  0.94940500  0.55747300  0.30182300  1
  Cl  Cl1  1  0.05059500  0.44252700  0.69817700  1
  Cl  Cl2  1  0.44940500  0.44252700  0.19817700  1
  Cl  Cl3  1  0.55059500  0.55747300  0.80182300  1
  Cl  Cl4  1  0.68410600  0.53950200  0.03352100  1
  Cl  Cl5  1  0.31589400  0.46049800  0.96647900  1
  Cl  Cl6  1  0.18410600  0.46049800  0.46647900  1
  Cl  Cl7  1  0.81589400  0.53950200  0.53352100  1
loop_
_geom_bond_atom_site_label_1
_geom_bond_atom_site_label_2
_geom_bond_distance
_geom_bond_site_symmetry_2
Ag0 S4 2.445946 1_555
Ag0 S8 2.545881 1_655
Ag0 S14 2.983703 1_555
Ag0 S14 3.016955 1_545
Ag1 S5 2.445946 1_555
Ag1 S9 2.545881 1_455
Ag1 S15 2.983703 1_555
Ag1 S15 3.016955 1_565
Ag2 S6 2.445946 1_555
Ag2 S10 2.545881 1_555
Ag2 S12 2.983703 1_555
Ag2 S12 3.016955 1_565
Ag3 S7 2.445946 1_555
Ag3 S11 2.545881 1_555
Ag3 S13 2.983703 1_555
Ag3 S13 3.016955 1_545
Ag4 N16 2.080715 1_555
Ag4 S6 2.474856 1_545
Ag4 S2 2.543263 1_545
Ag4 S12 2.714089 1_555
Ag4 Cl0 3.170233 1_455
Ag5 N17 2.080715 1_555
Ag5 S7 2.474856 1_565
Ag5 S3 2.543263 1_565
Ag5 S13 2.714089 1_555
Ag5 Cl1 3.170233 1_655
Ag6 N18 2.080715 1_555
Ag6 S4 2.474856 1_565
Ag6 S0 2.543263 1_565
Ag6 S14 2.714089 1_555
Ag6 Cl2 3.170233 1_555
Ag7 N19 2.080715 1_555
Ag7 S5 2.474856 1_545
Ag7 S1 2.543263 1_545
Ag7 S15 2.714089 1_555
Ag7 Cl3 3.170233 1_555
C0 N12 1.268210 1_555
C0 N0 1.277834 1_555
C0 S14 1.940519 1_455
C1 N13 1.268210 1_555
C1 N1 1.277834 1_555
C1 S15 1.940519 1_655
C2 N14 1.268210 1_555
C2 N2 1.277834 1_555
C2 S12 1.940519 1_555
C3 N15 1.268210 1_555
C3 N3 1.277834 1_555
C3 S13 1.940519 1_555
C4 N16 1.302424 1_555
C4 N24 1.352932 1_555
C4 S2 1.759995 1_545
C5 N17 1.302424 1_555
C5 N25 1.352932 1_555
C5 S3 1.759995 1_565
C6 N18 1.302424 1_555
C6 N26 1.352932 1_555
C6 S0 1.759995 1_565
C7 N19 1.302424 1_555
C7 N27 1.352932 1_555
C7 S1 1.759995 1_545
C8 N4 1.231625 1_555
C8 N28 1.236605 1_554
C9 N5 1.231625 1_555
C9 N29 1.236605 1_556
C10 N6 1.231625 1_555
C10 N30 1.236605 1_555
C11 N7 1.231625 1_555
C11 N31 1.236605 1_555
C12 N22 1.293412 1_555
C12 N10 1.304019 1_455
C12 S6 1.897123 1_545
C13 N23 1.293412 1_555
C13 N11 1.304019 1_655
C13 S7 1.897123 1_565
C14 N20 1.293412 1_555
C14 N8 1.304019 1_555
C14 S4 1.897123 1_565
C15 N21 1.293412 1_555
C15 N9 1.304019 1_555
C15 S5 1.897123 1_545
N0 S8 1.634224 1_555
N1 S9 1.634224 1_555
N2 S10 1.634224 1_555
N3 S11 1.634224 1_555
N4 S8 1.723520 1_555
N5 S9 1.723520 1_555
N6 S10 1.723520 1_555
N7 S11 1.723520 1_555
N12 S14 1.843560 1_455
N13 S15 1.843560 1_655
N14 S12 1.843560 1_555
N15 S13 1.843560 1_555
Cl0 N26 1.712278 1_555
Cl1 N27 1.712278 1_555
Cl2 N24 1.712278 1_555
Cl3 N25 1.712278 1_555
Cl4 N29 1.719760 1_555
Cl5 N28 1.719760 1_555
Cl6 N31 1.719760 1_555
Cl7 N30 1.719760 1_555
