# generated using pymatgen
data_MgGaH5
_symmetry_space_group_name_H-M   'P 1'
_cell_length_a   6.99485200
_cell_length_b   6.61402600
_cell_length_c   10.27393529
_cell_angle_alpha   50.28920812
_cell_angle_beta   90.00000000
_cell_angle_gamma   90.00000000
_symmetry_Int_Tables_number   1
_chemical_formula_structural   MgGaH5
_chemical_formula_sum   'Mg4 Ga4 H20'
_cell_volume   365.64973172
_cell_formula_units_Z   4
loop_
 _symmetry_equiv_pos_site_id
 _symmetry_equiv_pos_as_xyz
  1  'x, y, z'
loop_
 _atom_site_type_symbol
 _atom_site_label
 _atom_site_symmetry_multiplicity
 _atom_site_fract_x
 _atom_site_fract_y
 _atom_site_fract_z
 _atom_site_occupancy
  Mg  Mg0  1  0.36884100  0.49618600  0.75715900  1
  Mg  Mg1  1  0.63115900  0.50381400  0.24284100  1
  Mg  Mg2  1  0.86884100  0.50381400  0.74284100  1
  Mg  Mg3  1  0.13115900  0.49618600  0.25715900  1
  Ga  Ga0  1  0.37565500  0.86486000  0.88235100  1
  Ga  Ga1  1  0.62434500  0.13514000  0.11764900  1
  Ga  Ga2  1  0.87565500  0.13514000  0.61764900  1
  Ga  Ga3  1  0.12434500  0.86486000  0.38235100  1
  H  H0  1  0.06916700  0.25972600  0.50762900  1
  H  H1  1  0.93083300  0.74027400  0.49237100  1
  H  H2  1  0.56916700  0.74027400  0.99237100  1
  H  H3  1  0.43083300  0.25972600  0.00762900  1
  H  H4  1  0.36692800  0.80523800  0.75430900  1
  H  H5  1  0.63307200  0.19476200  0.24569100  1
  H  H6  1  0.86692800  0.19476200  0.74569100  1
  H  H7  1  0.13307200  0.80523800  0.25430900  1
  H  H8  1  0.88209100  0.82438200  0.72900300  1
  H  H9  1  0.11790900  0.17561800  0.27099700  1
  H  H10  1  0.38209100  0.17561800  0.77099700  1
  H  H11  1  0.61790900  0.82438200  0.22900300  1
  H  H12  1  0.11678300  0.43415300  0.81341700  1
  H  H13  1  0.88321700  0.56584700  0.18658300  1
  H  H14  1  0.61678300  0.56584700  0.68658300  1
  H  H15  1  0.38321700  0.43415300  0.31341700  1
  H  H16  1  0.30930200  0.74451500  0.50297900  1
  H  H17  1  0.69069800  0.25548500  0.49702100  1
  H  H18  1  0.80930200  0.25548500  0.99702100  1
  H  H19  1  0.19069800  0.74451500  0.00297900  1
loop_
_geom_bond_atom_site_label_1
_geom_bond_atom_site_label_2
_geom_bond_distance
_geom_bond_site_symmetry_2
Ga0 H10 1.590806 1_565
Ga0 H4 1.597697 1_555
Ga0 H19 1.607092 1_556
Ga0 H2 1.612042 1_555
Ga1 H11 1.590806 1_545
Ga1 H5 1.597697 1_555
Ga1 H18 1.607092 1_554
Ga1 H3 1.612042 1_555
Ga2 H8 1.590806 1_545
Ga2 H6 1.597697 1_555
Ga2 H17 1.607092 1_555
Ga2 H0 1.612042 1_655
Ga3 H9 1.590806 1_565
Ga3 H7 1.597697 1_555
Ga3 H16 1.607092 1_555
Ga3 H1 1.612042 1_455
H0 Mg3 2.028117 1_555
H1 Mg2 2.028117 1_555
H2 Mg1 2.028117 1_556
H3 Mg0 2.028117 1_554
H4 Mg0 2.025540 1_555
H5 Mg1 2.025540 1_555
H6 Mg2 2.025540 1_555
H7 Mg3 2.025540 1_555
H8 Mg2 2.034468 1_555
H9 Mg3 2.034468 1_555
H10 Mg0 2.034468 1_555
H11 Mg1 2.034468 1_555
H12 Mg0 1.818773 1_555
H12 Mg2 1.821813 1_455
H13 Mg1 1.818773 1_555
H13 Mg3 1.821813 1_655
H14 Mg2 1.818773 1_555
H14 Mg0 1.821813 1_555
H15 Mg3 1.818773 1_555
H15 Mg1 1.821813 1_555
H16 Mg0 2.051797 1_555
H17 Mg1 2.051797 1_555
H18 Mg2 2.051797 1_555
H19 Mg3 2.051797 1_555
