# generated using pymatgen
data_K8PO3
_symmetry_space_group_name_H-M   'P 1'
_cell_length_a   6.85502100
_cell_length_b   6.85502100
_cell_length_c   6.85502100
_cell_angle_alpha   90.00000000
_cell_angle_beta   90.00000000
_cell_angle_gamma   90.00000000
_symmetry_Int_Tables_number   1
_chemical_formula_structural   K8PO3
_chemical_formula_sum   'K8 P1 O3'
_cell_volume   322.12643682
_cell_formula_units_Z   1
loop_
 _symmetry_equiv_pos_site_id
 _symmetry_equiv_pos_as_xyz
  1  'x, y, z'
loop_
 _atom_site_type_symbol
 _atom_site_label
 _atom_site_symmetry_multiplicity
 _atom_site_fract_x
 _atom_site_fract_y
 _atom_site_fract_z
 _atom_site_occupancy
  K  K0  1  0.26333000  0.26333000  0.26333000  1
  K  K1  1  0.73667000  0.73667000  0.26333000  1
  K  K2  1  0.73667000  0.26333000  0.73667000  1
  K  K3  1  0.26333000  0.73667000  0.73667000  1
  K  K4  1  0.26333000  0.26333000  0.73667000  1
  K  K5  1  0.73667000  0.73667000  0.73667000  1
  K  K6  1  0.73667000  0.26333000  0.26333000  1
  K  K7  1  0.26333000  0.73667000  0.26333000  1
  P  P0  1  0.00000000  0.00000000  0.00000000  1
  O  O0  1  0.00000000  0.50000000  0.50000000  1
  O  O1  1  0.50000000  0.50000000  0.00000000  1
  O  O2  1  0.50000000  0.00000000  0.50000000  1
loop_
_geom_bond_atom_site_label_1
_geom_bond_atom_site_label_2
_geom_bond_distance
_geom_bond_site_symmetry_2
K0 O0 2.919370 1_555
K0 O1 2.919370 1_555
K0 O2 2.919370 1_555
K0 P0 3.126582 1_555
K1 O0 2.919370 1_655
K1 O2 2.919370 1_565
K1 O1 2.919370 1_555
K1 P0 3.126582 1_665
K2 O0 2.919370 1_655
K2 O1 2.919370 1_556
K2 O2 2.919370 1_555
K2 P0 3.126582 1_656
K3 O1 2.919370 1_556
K3 O2 2.919370 1_565
K3 O0 2.919370 1_555
K3 P0 3.126582 1_566
K4 O1 2.919370 1_556
K4 O0 2.919370 1_555
K4 O2 2.919370 1_555
K4 P0 3.126582 1_556
K5 O1 2.919370 1_556
K5 O0 2.919370 1_655
K5 O2 2.919370 1_565
K5 P0 3.126582 1_666
K6 O0 2.919370 1_655
K6 O1 2.919370 1_555
K6 O2 2.919370 1_555
K6 P0 3.126582 1_655
K7 O2 2.919370 1_565
K7 O1 2.919370 1_555
K7 O0 2.919370 1_555
K7 P0 3.126582 1_565
