# generated using pymatgen
data_Li4Mn3NbO8
_symmetry_space_group_name_H-M   'P 1'
_cell_length_a   6.03529442
_cell_length_b   6.16195825
_cell_length_c   10.60561799
_cell_angle_alpha   90.80091404
_cell_angle_beta   75.37330535
_cell_angle_gamma   60.82871879
_symmetry_Int_Tables_number   1
_chemical_formula_structural   Li4Mn3NbO8
_chemical_formula_sum   'Li8 Mn6 Nb2 O16'
_cell_volume   328.81444363
_cell_formula_units_Z   2
loop_
 _symmetry_equiv_pos_site_id
 _symmetry_equiv_pos_as_xyz
  1  'x, y, z'
loop_
 _atom_site_type_symbol
 _atom_site_label
 _atom_site_symmetry_multiplicity
 _atom_site_fract_x
 _atom_site_fract_y
 _atom_site_fract_z
 _atom_site_occupancy
  Li  Li0  1  0.49195500  0.75325000  0.25279900  1
  Li  Li1  1  0.49212000  0.25279400  0.75269700  1
  Li  Li2  1  0.50099300  0.99782400  0.00033700  1
  Li  Li3  1  0.50130100  0.49732900  0.50032000  1
  Li  Li4  1  0.99310700  0.24731500  0.25452000  1
  Li  Li5  1  0.99274900  0.74752500  0.75457400  1
  Li  Li6  1  0.99951800  0.49832400  0.00132800  1
  Li  Li7  1  0.99945300  0.99825200  0.50137700  1
  Mn  Mn0  1  0.99562500  0.74805100  0.25121700  1
  Mn  Mn1  1  0.50181000  0.49708100  0.00039500  1
  Mn  Mn2  1  0.49878400  0.75115200  0.74894000  1
  Mn  Mn3  1  0.99519000  0.24853300  0.75134900  1
  Mn  Mn4  1  0.50204500  0.99615400  0.50033000  1
  Mn  Mn5  1  0.49900500  0.25098800  0.24907100  1
  Nb  Nb0  1  0.00252900  0.49674700  0.50097300  1
  Nb  Nb1  1  0.00230800  0.99704600  0.00082100  1
  O  O0  1  0.27192100  0.89714200  0.61525700  1
  O  O1  1  0.27233500  0.39703100  0.11514300  1
  O  O2  1  0.72519900  0.10355400  0.38525400  1
  O  O3  1  0.72506000  0.60412800  0.88527600  1
  O  O4  1  0.24268400  0.63813900  0.89117000  1
  O  O5  1  0.24275700  0.13798400  0.39121800  1
  O  O6  1  0.76269100  0.38707100  0.61379100  1
  O  O7  1  0.76281300  0.88698200  0.11379300  1
  O  O8  1  0.77169300  0.09606800  0.87757500  1
  O  O9  1  0.77178000  0.59591700  0.37760200  1
  O  O10  1  0.75809300  0.35946300  0.10974100  1
  O  O11  1  0.75798300  0.85930400  0.60978000  1
  O  O12  1  0.23542000  0.11263300  0.88713600  1
  O  O13  1  0.23562600  0.61242900  0.38720600  1
  O  O14  1  0.22532600  0.90214100  0.12577500  1
  O  O15  1  0.22507600  0.40230900  0.62591600  1
loop_
_geom_bond_atom_site_label_1
_geom_bond_atom_site_label_2
_geom_bond_distance
_geom_bond_site_symmetry_2
Li0 O14 2.221767 1_555
Li0 O9 2.261128 1_555
Li0 O5 2.312823 1_565
Li0 O13 2.325442 1_555
Li0 O10 2.374162 1_555
Li0 O7 2.377974 1_555
Li1 O15 2.221677 1_555
Li1 O8 2.260435 1_555
Li1 O4 2.315704 1_555
Li1 O12 2.324276 1_555
Li1 O11 2.372205 1_545
Li1 O6 2.378603 1_555
Li2 O7 2.083842 1_555
Li2 O12 2.097868 1_564
Li2 O8 2.154686 1_564
Li2 O14 2.178486 1_555
Li2 O3 2.255827 1_554
Li2 O1 2.279563 1_565
Li3 O6 2.082157 1_555
Li3 O13 2.097568 1_555
Li3 O9 2.154898 1_555
Li3 O15 2.179031 1_555
Li3 O2 2.256287 1_555
Li3 O0 2.282732 1_555
Li4 O9 2.084778 1_555
Li4 O14 2.097355 1_645
Li4 O5 2.228642 1_655
Li4 O10 2.240778 1_555
Li4 O2 2.370641 1_555
Li4 O1 2.484290 1_655
Li5 O8 2.084166 1_565
Li5 O15 2.097106 1_655
Li5 O4 2.228935 1_655
Li5 O11 2.239911 1_555
Li5 O3 2.367950 1_555
Li5 O0 2.483344 1_655
Li6 O10 2.138691 1_555
Li6 O1 2.140247 1_655
Li6 O4 2.157711 1_654
Li6 O3 2.164030 1_554
Li6 O12 2.211828 1_654
Li6 O7 2.218869 1_555
Li7 O0 2.139237 1_655
Li7 O11 2.139249 1_555
Li7 O5 2.157952 1_665
Li7 O2 2.163867 1_565
Li7 O13 2.212329 1_655
Li7 O6 2.219421 1_565
Mn0 O1 2.173545 1_655
Mn0 O7 2.174371 1_555
Mn0 O2 2.176950 1_565
Mn0 O13 2.187526 1_655
Mn0 O9 2.203578 1_555
Mn0 O14 2.231677 1_655
Mn1 O1 1.944554 1_555
Mn1 O3 1.949168 1_554
Mn1 O10 2.027594 1_555
Mn1 O4 2.039884 1_554
Mn1 O8 2.317460 1_554
Mn1 O14 2.347104 1_555
Mn2 O0 2.123532 1_555
Mn2 O3 2.145749 1_555
Mn2 O6 2.213175 1_555
Mn2 O12 2.217390 1_565
Mn2 O11 2.224247 1_555
Mn2 O4 2.247326 1_555
Mn3 O6 2.174173 1_555
Mn3 O0 2.175045 1_645
Mn3 O3 2.176617 1_555
Mn3 O12 2.186750 1_655
Mn3 O8 2.202898 1_555
Mn3 O15 2.230967 1_655
Mn4 O0 1.943889 1_555
Mn4 O2 1.950044 1_565
Mn4 O11 2.026725 1_555
Mn4 O5 2.039943 1_565
Mn4 O9 2.313641 1_555
Mn4 O15 2.352847 1_565
Mn5 O1 2.125038 1_555
Mn5 O2 2.144396 1_555
Mn5 O7 2.213454 1_545
Mn5 O13 2.216935 1_555
Mn5 O10 2.225972 1_555
Mn5 O5 2.247446 1_555
Nb0 O15 2.014204 1_555
Nb0 O6 2.021172 1_455
Nb0 O13 2.021735 1_555
Nb0 O9 2.034171 1_455
Nb0 O5 2.072516 1_555
Nb0 O11 2.086724 1_455
Nb1 O14 2.016192 1_555
Nb1 O12 2.021020 1_564
Nb1 O7 2.021996 1_455
Nb1 O8 2.032539 1_464
Nb1 O4 2.072779 1_554
Nb1 O10 2.086445 1_465
