# generated using pymatgen
data_Ba3CaRu2O9
_symmetry_space_group_name_H-M   'P 1'
_cell_length_a   5.90190641
_cell_length_b   5.90190641
_cell_length_c   7.28604100
_cell_angle_alpha   90.00000000
_cell_angle_beta   90.00000000
_cell_angle_gamma   120.00000459
_symmetry_Int_Tables_number   1
_chemical_formula_structural   Ba3CaRu2O9
_chemical_formula_sum   'Ba3 Ca1 Ru2 O9'
_cell_volume   219.78945851
_cell_formula_units_Z   1
loop_
 _symmetry_equiv_pos_site_id
 _symmetry_equiv_pos_as_xyz
  1  'x, y, z'
loop_
 _atom_site_type_symbol
 _atom_site_label
 _atom_site_symmetry_multiplicity
 _atom_site_fract_x
 _atom_site_fract_y
 _atom_site_fract_z
 _atom_site_occupancy
  Ba  Ba0  1  0.66666700  0.33333300  0.32296000  1
  Ba  Ba1  1  0.33333300  0.66666700  0.67704000  1
  Ba  Ba2  1  0.00000000  0.00000000  0.00000000  1
  Ca  Ca0  1  0.00000000  0.00000000  0.50000000  1
  Ru  Ru0  1  0.33333300  0.66666700  0.16581200  1
  Ru  Ru1  1  0.66666700  0.33333300  0.83418800  1
  O  O0  1  0.82160800  0.17839200  0.68645800  1
  O  O1  1  0.82160800  0.64321500  0.68645800  1
  O  O2  1  0.35678500  0.17839200  0.68645800  1
  O  O3  1  0.64321500  0.82160800  0.31354200  1
  O  O4  1  0.17839200  0.35678500  0.31354200  1
  O  O5  1  0.17839200  0.82160800  0.31354200  1
  O  O6  1  0.50000000  0.00000000  0.00000000  1
  O  O7  1  0.00000000  0.50000000  0.00000000  1
  O  O8  1  0.50000000  0.50000000  0.00000000  1
loop_
_geom_bond_atom_site_label_1
_geom_bond_atom_site_label_2
_geom_bond_distance
_geom_bond_site_symmetry_2
Ba0 O7 2.905130 1_655
Ba0 O6 2.905130 1_555
Ba0 O8 2.905133 1_555
Ba0 O3 2.954178 1_545
Ba0 O4 2.954178 1_655
Ba0 O5 2.954183 1_545
Ba0 O5 2.954183 1_655
Ba0 O3 2.954190 1_555
Ba0 O4 2.954190 1_555
Ba0 O1 3.085934 1_555
Ba0 O2 3.085934 1_555
Ba0 O0 3.085934 1_555
Ba1 O7 2.905130 1_556
Ba1 O6 2.905130 1_566
Ba1 O8 2.905133 1_556
Ba1 O1 2.954178 1_455
Ba1 O2 2.954178 1_565
Ba1 O0 2.954183 1_455
Ba1 O0 2.954183 1_565
Ba1 O2 2.954190 1_555
Ba1 O1 2.954190 1_555
Ba1 O4 3.085934 1_555
Ba1 O3 3.085934 1_555
Ba1 O5 3.085934 1_555
Ba2 O0 2.923071 1_454
Ba2 O5 2.923071 1_545
Ba2 O4 2.923074 1_555
Ba2 O1 2.923074 1_444
Ba2 O2 2.923074 1_554
Ba2 O3 2.923074 1_445
Ba2 O8 2.950953 1_555
Ba2 O8 2.950953 1_445
Ba2 O6 2.950953 1_455
Ba2 O7 2.950953 1_545
Ba2 O6 2.950953 1_555
Ba2 O7 2.950953 1_555
Ca0 O5 2.274012 1_545
Ca0 O0 2.274012 1_455
Ca0 O3 2.274016 1_445
Ca0 O4 2.274016 1_555
Ca0 O1 2.274016 1_445
Ca0 O2 2.274016 1_555
O0 Ru1 1.914995 1_555
O1 Ru1 1.914995 1_555
O2 Ru1 1.914995 1_555
O3 Ru0 1.914995 1_555
O4 Ru0 1.914995 1_555
O5 Ru0 1.914995 1_555
O6 Ru1 2.088597 1_554
O6 Ru0 2.088597 1_545
O7 Ru0 2.088597 1_555
O7 Ru1 2.088597 1_454
O8 Ru1 2.088602 1_554
O8 Ru0 2.088602 1_555
