# generated using pymatgen
data_CoTe6O13
_symmetry_space_group_name_H-M   'P 1'
_cell_length_a   8.63025134
_cell_length_b   8.66128990
_cell_length_c   8.64036764
_cell_angle_alpha   71.80550584
_cell_angle_beta   71.99716742
_cell_angle_gamma   71.83814103
_symmetry_Int_Tables_number   1
_chemical_formula_structural   CoTe6O13
_chemical_formula_sum   'Co2 Te12 O26'
_cell_volume   566.73433544
_cell_formula_units_Z   2
loop_
 _symmetry_equiv_pos_site_id
 _symmetry_equiv_pos_as_xyz
  1  'x, y, z'
loop_
 _atom_site_type_symbol
 _atom_site_label
 _atom_site_symmetry_multiplicity
 _atom_site_fract_x
 _atom_site_fract_y
 _atom_site_fract_z
 _atom_site_occupancy
  Co  Co0  1  0.75746738  0.75434441  0.75741520  1
  Co  Co1  1  0.24591916  0.24251724  0.24245371  1
  Te  Te0  1  0.83391923  0.51326910  0.43711933  1
  Te  Te1  1  0.43825740  0.83292909  0.51382014  1
  Te  Te2  1  0.51504775  0.44056687  0.83311954  1
  Te  Te3  1  0.16713557  0.48505526  0.56051793  1
  Te  Te4  1  0.56166622  0.16513293  0.48670616  1
  Te  Te5  1  0.48628079  0.56181591  0.16786940  1
  Te  Te6  1  0.97168245  0.07951440  0.67472967  1
  Te  Te7  1  0.67506751  0.97326884  0.07984485  1
  Te  Te8  1  0.08018378  0.67465182  0.97270712  1
  Te  Te9  1  0.02708269  0.91943850  0.32577249  1
  Te  Te10  1  0.32537218  0.02739685  0.92066980  1
  Te  Te11  1  0.92024177  0.32432203  0.02785721  1
  O  O0  1  0.89652670  0.57683843  0.60228420  1
  O  O1  1  0.60323973  0.89605285  0.57804536  1
  O  O2  1  0.57984946  0.60529712  0.89497209  1
  O  O3  1  0.10462877  0.42138274  0.39512372  1
  O  O4  1  0.39622675  0.10461048  0.42034378  1
  O  O5  1  0.42356840  0.39788379  0.10323969  1
  O  O6  1  0.86335418  0.95428402  0.61997045  1
  O  O7  1  0.61656970  0.86850406  0.95456457  1
  O  O8  1  0.95409979  0.61914241  0.86514990  1
  O  O9  1  0.13259766  0.04452992  0.38348678  1
  O  O10  1  0.38018897  0.13591075  0.04615187  1
  O  O11  1  0.04637687  0.38050367  0.13443943  1
  O  O12  1  0.58628542  0.58740345  0.58616896  1
  O  O13  1  0.41368994  0.41357519  0.41291569  1
  O  O14  1  0.80365857  0.29941752  0.55083417  1
  O  O15  1  0.55065419  0.80454978  0.29925763  1
  O  O16  1  0.29943530  0.55195313  0.80427936  1
  O  O17  1  0.19574029  0.69990626  0.44913308  1
  O  O18  1  0.44805777  0.19548718  0.70066388  1
  O  O19  1  0.70144929  0.44923688  0.19637386  1
  O  O20  1  0.11301591  0.87390744  0.80162306  1
  O  O21  1  0.80127359  0.11367920  0.87467879  1
  O  O22  1  0.87422611  0.80087093  0.11304700  1
  O  O23  1  0.88598627  0.12527498  0.19872369  1
  O  O24  1  0.19894679  0.88705716  0.12678143  1
  O  O25  1  0.12502769  0.19851942  0.88714297  1
loop_
_geom_bond_atom_site_label_1
_geom_bond_atom_site_label_2
_geom_bond_distance
_geom_bond_site_symmetry_2
Co0 O8 2.043145 1_555
Co0 O6 2.067789 1_555
Co0 O7 2.092828 1_555
Co0 O2 2.139673 1_555
Co0 O0 2.177832 1_555
Co0 O1 2.179170 1_555
Co1 O10 2.041637 1_555
Co1 O11 2.068538 1_555
Co1 O9 2.094257 1_555
Co1 O4 2.142875 1_555
Co1 O3 2.175152 1_555
Co1 O5 2.178000 1_555
O0 Te0 1.945364 1_555
O0 Te3 2.171911 1_655
O1 Te1 1.948678 1_555
O1 Te4 2.165249 1_565
O2 Te2 1.947417 1_555
O2 Te5 2.193591 1_556
O3 Te3 1.947183 1_555
O3 Te0 2.172673 1_455
O4 Te4 1.949995 1_555
O4 Te1 2.187044 1_545
O5 Te5 1.944686 1_555
O5 Te2 2.170570 1_554
O6 Te6 1.870948 1_565
O6 Te9 2.557807 1_655
O7 Te7 1.867284 1_556
O7 Te10 2.518452 1_565
O8 Te8 1.873258 1_655
O8 Te11 2.559626 1_556
O9 Te9 1.866797 1_545
O9 Te6 2.531125 1_455
O10 Te10 1.874375 1_554
O10 Te7 2.551966 1_545
O11 Te11 1.870719 1_455
O11 Te8 2.552796 1_554
O12 Te1 2.124846 1_555
O12 Te2 2.128428 1_555
O12 Te0 2.144263 1_555
O13 Te5 2.123159 1_555
O13 Te3 2.128813 1_555
O13 Te4 2.145036 1_555
O14 Te0 1.863006 1_555
O14 Te6 2.200198 1_555
O15 Te1 1.860816 1_555
O15 Te7 2.207321 1_555
O16 Te2 1.863526 1_555
O16 Te8 2.199482 1_555
O17 Te3 1.863111 1_555
O17 Te9 2.199586 1_555
O18 Te4 1.862916 1_555
O18 Te10 2.200630 1_555
O19 Te5 1.861094 1_555
O19 Te11 2.206084 1_555
O20 Te8 1.922669 1_555
O20 Te6 2.028400 1_465
O21 Te6 1.926807 1_555
O21 Te7 2.023311 1_546
O22 Te7 1.924441 1_555
O22 Te8 2.027085 1_654
O23 Te11 1.922935 1_555
O23 Te9 2.029035 1_645
O24 Te9 1.923609 1_555
O24 Te10 2.028144 1_564
O25 Te10 1.927197 1_555
O25 Te11 2.021779 1_456
