# generated using pymatgen
data_BaLa2BeO5
_symmetry_space_group_name_H-M   'P 1'
_cell_length_a   6.89573400
_cell_length_b   7.52232600
_cell_length_c   10.00082569
_cell_angle_alpha   89.21832532
_cell_angle_beta   90.00000000
_cell_angle_gamma   90.00000000
_symmetry_Int_Tables_number   1
_chemical_formula_structural   BaLa2BeO5
_chemical_formula_sum   'Ba4 La8 Be4 O20'
_cell_volume   518.71414502
_cell_formula_units_Z   4
loop_
 _symmetry_equiv_pos_site_id
 _symmetry_equiv_pos_as_xyz
  1  'x, y, z'
loop_
 _atom_site_type_symbol
 _atom_site_label
 _atom_site_symmetry_multiplicity
 _atom_site_fract_x
 _atom_site_fract_y
 _atom_site_fract_z
 _atom_site_occupancy
  Ba  Ba0  1  0.58203600  0.01911100  0.67246500  1
  Ba  Ba1  1  0.91796400  0.01911100  0.17246500  1
  Ba  Ba2  1  0.08203600  0.98088900  0.82753500  1
  Ba  Ba3  1  0.41796400  0.98088900  0.32753500  1
  La  La0  1  0.41202400  0.25516000  0.02036800  1
  La  La1  1  0.41770500  0.52175300  0.32386200  1
  La  La2  1  0.91770500  0.47824700  0.17613800  1
  La  La3  1  0.58229500  0.47824700  0.67613800  1
  La  La4  1  0.08229500  0.52175300  0.82386200  1
  La  La5  1  0.08797600  0.25516000  0.52036800  1
  La  La6  1  0.58797600  0.74484000  0.97963200  1
  La  La7  1  0.91202400  0.74484000  0.47963200  1
  Be  Be0  1  0.80662400  0.26031900  0.90323400  1
  Be  Be1  1  0.30662400  0.73968100  0.59676600  1
  Be  Be2  1  0.19337600  0.73968100  0.09676600  1
  Be  Be3  1  0.69337600  0.26031900  0.40323400  1
  O  O0  1  0.36809900  0.72342000  0.76566700  1
  O  O1  1  0.01337300  0.27813700  0.98958100  1
  O  O2  1  0.51337300  0.72186300  0.51041900  1
  O  O3  1  0.98662700  0.72186300  0.01041900  1
  O  O4  1  0.48662700  0.27813700  0.48958100  1
  O  O5  1  0.63190100  0.27658000  0.23433300  1
  O  O6  1  0.13190100  0.72342000  0.26566700  1
  O  O7  1  0.80645200  0.06962100  0.43753300  1
  O  O8  1  0.86809900  0.27658000  0.73433300  1
  O  O9  1  0.16420400  0.28324900  0.28632200  1
  O  O10  1  0.66420400  0.71675100  0.21367800  1
  O  O11  1  0.83579600  0.71675100  0.71367800  1
  O  O12  1  0.19354800  0.93037900  0.56246700  1
  O  O13  1  0.69354800  0.06962100  0.93753300  1
  O  O14  1  0.82064700  0.44002300  0.43450100  1
  O  O15  1  0.30645200  0.93037900  0.06246700  1
  O  O16  1  0.67935300  0.44002300  0.93450100  1
  O  O17  1  0.32064700  0.55997700  0.06549900  1
  O  O18  1  0.17935300  0.55997700  0.56549900  1
  O  O19  1  0.33579600  0.28324900  0.78632200  1
loop_
_geom_bond_atom_site_label_1
_geom_bond_atom_site_label_2
_geom_bond_distance
_geom_bond_site_symmetry_2
Ba0 O4 2.734482 1_555
Ba0 O13 2.791130 1_555
Ba0 O0 2.817099 1_545
Ba0 O2 2.819408 1_545
Ba0 O7 2.834611 1_555
Ba0 O8 2.838625 1_555
Ba0 O19 2.861714 1_555
Ba0 O11 2.894726 1_545
Ba0 O12 2.975276 1_545
Ba1 O1 2.734482 1_654
Ba1 O7 2.791130 1_555
Ba1 O6 2.817099 1_645
Ba1 O3 2.819408 1_545
Ba1 O13 2.834611 1_554
Ba1 O5 2.838625 1_555
Ba1 O9 2.861714 1_655
Ba1 O10 2.894726 1_545
Ba1 O15 2.975276 1_645
Ba2 O3 2.734482 1_456
Ba2 O12 2.791130 1_555
Ba2 O8 2.817099 1_465
Ba2 O1 2.819408 1_565
Ba2 O15 2.834611 1_556
Ba2 O0 2.838625 1_555
Ba2 O11 2.861714 1_455
Ba2 O19 2.894726 1_565
Ba2 O13 2.975276 1_465
Ba3 O2 2.734482 1_555
Ba3 O15 2.791130 1_555
Ba3 O5 2.817099 1_565
Ba3 O4 2.819408 1_565
Ba3 O12 2.834611 1_555
Ba3 O6 2.838625 1_555
Ba3 O10 2.861714 1_555
Ba3 O9 2.894726 1_565
Ba3 O7 2.975276 1_565
La0 O19 2.405434 1_554
La0 O17 2.426218 1_555
La0 O16 2.457001 1_554
La0 O13 2.536624 1_554
La0 O15 2.578363 1_545
La0 O5 2.629283 1_555
La0 O1 2.771313 1_554
La0 O9 3.170906 1_555
La1 O10 2.492199 1_555
La1 O4 2.499603 1_555
La1 O2 2.501733 1_555
La1 O5 2.535688 1_555
La1 O9 2.536515 1_555
La1 O6 2.549529 1_555
La1 O17 2.680782 1_555
La2 O9 2.492199 1_655
La2 O3 2.499603 1_555
La2 O1 2.501733 1_654
La2 O6 2.535688 1_655
La2 O10 2.536515 1_555
La2 O5 2.549529 1_555
La2 O14 2.680782 1_555
La3 O19 2.492199 1_555
La3 O2 2.499603 1_555
La3 O4 2.501733 1_555
La3 O0 2.535688 1_555
La3 O11 2.536515 1_555
La3 O8 2.549529 1_555
La3 O16 2.680782 1_555
La4 O11 2.492199 1_455
La4 O1 2.499603 1_555
La4 O3 2.501733 1_456
La4 O8 2.535688 1_455
La4 O19 2.536515 1_555
La4 O0 2.549529 1_555
La4 O18 2.680782 1_555
La5 O9 2.405434 1_555
La5 O18 2.426218 1_555
La5 O14 2.457001 1_455
La5 O7 2.536624 1_455
La5 O12 2.578363 1_545
La5 O8 2.629283 1_455
La5 O4 2.771313 1_555
La5 O19 3.170906 1_555
La6 O10 2.405434 1_556
La6 O16 2.426218 1_555
La6 O17 2.457001 1_556
La6 O15 2.536624 1_556
La6 O13 2.578363 1_565
La6 O0 2.629283 1_555
La6 O3 2.771313 1_556
La6 O11 3.170906 1_555
La7 O11 2.405434 1_555
La7 O14 2.426218 1_555
La7 O18 2.457001 1_655
La7 O12 2.536624 1_655
La7 O7 2.578363 1_565
La7 O6 2.629283 1_655
La7 O2 2.771313 1_555
La7 O10 3.170906 1_555
Be0 O16 1.645261 1_555
Be0 O13 1.664332 1_555
Be0 O1 1.673143 1_655
Be0 O8 1.744206 1_555
Be1 O18 1.645261 1_555
Be1 O12 1.664332 1_555
Be1 O2 1.673143 1_555
Be1 O0 1.744206 1_555
Be2 O17 1.645261 1_555
Be2 O15 1.664332 1_555
Be2 O3 1.673143 1_455
Be2 O6 1.744206 1_555
Be3 O14 1.645261 1_555
Be3 O7 1.664332 1_555
Be3 O4 1.673143 1_555
Be3 O5 1.744206 1_555
