# generated using pymatgen
data_Mg6MnBi
_symmetry_space_group_name_H-M   'P 1'
_cell_length_a   5.16824200
_cell_length_b   6.34973000
_cell_length_c   11.00795600
_cell_angle_alpha   90.00000000
_cell_angle_beta   90.00000000
_cell_angle_gamma   90.00000000
_symmetry_Int_Tables_number   1
_chemical_formula_structural   Mg6MnBi
_chemical_formula_sum   'Mg12 Mn2 Bi2'
_cell_volume   361.24744561
_cell_formula_units_Z   2
loop_
 _symmetry_equiv_pos_site_id
 _symmetry_equiv_pos_as_xyz
  1  'x, y, z'
loop_
 _atom_site_type_symbol
 _atom_site_label
 _atom_site_symmetry_multiplicity
 _atom_site_fract_x
 _atom_site_fract_y
 _atom_site_fract_z
 _atom_site_occupancy
  Mg  Mg0  1  0.50000000  0.24843300  0.41631500  1
  Mg  Mg1  1  0.50000000  0.75156700  0.41631500  1
  Mg  Mg2  1  0.00000000  0.76443300  0.08245500  1
  Mg  Mg3  1  0.00000000  0.23556700  0.08245500  1
  Mg  Mg4  1  0.00000000  0.00000000  0.32897400  1
  Mg  Mg5  1  0.00000000  0.50000000  0.33881200  1
  Mg  Mg6  1  0.50000000  0.74843300  0.91631500  1
  Mg  Mg7  1  0.50000000  0.25156700  0.91631500  1
  Mg  Mg8  1  0.00000000  0.26443300  0.58245500  1
  Mg  Mg9  1  0.00000000  0.73556700  0.58245500  1
  Mg  Mg10  1  0.00000000  0.50000000  0.82897400  1
  Mg  Mg11  1  0.00000000  0.00000000  0.83881200  1
  Mn  Mn0  1  0.50000000  0.00000000  0.16687100  1
  Mn  Mn1  1  0.50000000  0.50000000  0.66687100  1
  Bi  Bi0  1  0.50000000  0.50000000  0.16780100  1
  Bi  Bi1  1  0.50000000  0.00000000  0.66780100  1
loop_
_geom_bond_atom_site_label_1
_geom_bond_atom_site_label_2
_geom_bond_distance
_geom_bond_site_symmetry_2
Mg0 Mg1 3.154965 1_545
Mg0 Mg5 3.155499 1_555
Mg0 Mg5 3.155499 1_655
Mg0 Mn0 3.166740 1_555
Mg0 Mg8 3.167450 1_655
Mg0 Mg8 3.167450 1_555
Mg0 Mg4 3.176556 1_655
Mg0 Mg4 3.176556 1_555
Mg0 Mn1 3.187287 1_555
Mg0 Mg1 3.194765 1_555
Mg1 Mg5 3.155499 1_555
Mg1 Mg5 3.155499 1_655
Mg1 Mn0 3.166740 1_565
Mg1 Mg9 3.167450 1_555
Mg1 Mg9 3.167450 1_655
Mg1 Mg4 3.176556 1_565
Mg1 Mg4 3.176556 1_665
Mg1 Mn1 3.187287 1_555
Mg2 Mg3 2.991574 1_565
Mg2 Mg4 3.098610 1_565
Mg2 Mn0 3.127069 1_465
Mg2 Mn0 3.127069 1_565
Mg2 Mg6 3.167450 1_554
Mg2 Mg6 3.167450 1_454
Mg2 Mg5 3.283717 1_555
Mg2 Mg3 3.358156 1_555
Mg3 Mg4 3.098610 1_555
Mg3 Mn0 3.127069 1_455
Mg3 Mn0 3.127069 1_555
Mg3 Mg7 3.167450 1_554
Mg3 Mg7 3.167450 1_454
Mg3 Mg5 3.283717 1_555
Mg4 Mn0 3.140358 1_555
Mg4 Mn0 3.140358 1_455
Mg4 Mg5 3.176711 1_545
Mg4 Mg5 3.176711 1_555
Mg4 Mg8 3.256550 1_555
Mg4 Mg9 3.256550 1_545
Mg5 Mg8 3.070922 1_555
Mg5 Mg9 3.070922 1_555
Mg6 Mg7 3.154965 1_555
Mg6 Mn1 3.166740 1_555
Mg6 Mn0 3.187287 1_566
Mg6 Mg7 3.194765 1_565
Mg7 Mn1 3.166740 1_555
Mg7 Mn0 3.187287 1_556
Mg8 Mg9 2.991574 1_555
Mg8 Mn1 3.127069 1_555
Mg8 Mn1 3.127069 1_455
Mg8 Mg9 3.358156 1_545
Mg9 Mn1 3.127069 1_555
Mg9 Mn1 3.127069 1_455
Mg10 Mg9 3.098610 1_555
Mg10 Mg8 3.098610 1_555
Mg10 Mn1 3.140358 1_455
Mg10 Mn1 3.140358 1_555
Mg10 Mg6 3.176556 1_455
Mg10 Mg6 3.176556 1_555
Mg10 Mg7 3.176556 1_455
Mg10 Mg7 3.176556 1_555
Mg10 Mg11 3.176711 1_555
Mg10 Mg11 3.176711 1_565
Mg10 Mg2 3.256550 1_556
Mg10 Mg3 3.256550 1_556
Mg11 Mg3 3.070922 1_556
Mg11 Mg2 3.070922 1_546
Mg11 Mg7 3.155499 1_455
Mg11 Mg6 3.155499 1_545
Mg11 Mg7 3.155499 1_555
Mg11 Mg6 3.155499 1_445
Mg11 Mg8 3.283717 1_555
Mg11 Mg9 3.283717 1_545
Bi0 Mg1 3.167856 1_555
Bi0 Mg0 3.167856 1_555
Bi0 Mn0 3.174882 1_565
Bi0 Mn0 3.174882 1_555
Bi0 Mg6 3.186251 1_554
Bi0 Mg7 3.186251 1_554
Bi0 Mg5 3.197095 1_555
Bi0 Mg5 3.197095 1_655
Bi0 Mg2 3.221741 1_555
Bi0 Mg2 3.221741 1_655
Bi0 Mg3 3.221741 1_555
Bi0 Mg3 3.221741 1_655
Bi1 Mg6 3.167856 1_545
Bi1 Mg7 3.167856 1_555
Bi1 Mn1 3.174882 1_555
Bi1 Mn1 3.174882 1_545
Bi1 Mg0 3.186251 1_555
Bi1 Mg1 3.186251 1_545
Bi1 Mg11 3.197095 1_655
Bi1 Mg11 3.197095 1_555
Bi1 Mg8 3.221741 1_555
Bi1 Mg8 3.221741 1_655
Bi1 Mg9 3.221741 1_545
Bi1 Mg9 3.221741 1_645
