# generated using pymatgen
data_KU11(GeO19)2
_symmetry_space_group_name_H-M   'P 1'
_cell_length_a   10.34951103
_cell_length_b   10.34951171
_cell_length_c   17.41248715
_cell_angle_alpha   89.99998741
_cell_angle_beta   90.00001257
_cell_angle_gamma   59.99968630
_symmetry_Int_Tables_number   1
_chemical_formula_structural   KU11(GeO19)2
_chemical_formula_sum   'K2 U22 Ge4 O76'
_cell_volume   1615.21284513
_cell_formula_units_Z   2
loop_
 _symmetry_equiv_pos_site_id
 _symmetry_equiv_pos_as_xyz
  1  'x, y, z'
loop_
 _atom_site_type_symbol
 _atom_site_label
 _atom_site_symmetry_multiplicity
 _atom_site_fract_x
 _atom_site_fract_y
 _atom_site_fract_z
 _atom_site_occupancy
  K  K0  1  0.33330476  0.33330476  0.25000000  1
  K  K1  1  0.66669524  0.66669524  0.75000000  1
  U  U0  1  0.85821305  0.85821305  0.25000000  1
  U  U1  1  0.28356973  0.85837190  0.24996952  1
  U  U2  1  0.85837190  0.28356973  0.25003048  1
  U  U3  1  0.14178695  0.14178695  0.75000000  1
  U  U4  1  0.71643027  0.14162810  0.75003048  1
  U  U5  1  0.14162810  0.71643027  0.74996952  1
  U  U6  1  0.66666563  0.66666885  0.09941244  1
  U  U7  1  0.33333115  0.33333437  0.59941244  1
  U  U8  1  0.33333437  0.33333115  0.90058756  1
  U  U9  1  0.66666885  0.66666563  0.40058756  1
  U  U10  1  0.64320407  0.01856192  0.05913641  1
  U  U11  1  0.33823486  0.64319824  0.05914051  1
  U  U12  1  0.01857804  0.33823238  0.05914709  1
  U  U13  1  0.98143808  0.35679593  0.55913641  1
  U  U14  1  0.66176762  0.98142196  0.55914709  1
  U  U15  1  0.35680176  0.66176514  0.55914051  1
  U  U16  1  0.35679593  0.98143808  0.94086359  1
  U  U17  1  0.66176514  0.35680176  0.94085949  1
  U  U18  1  0.98142196  0.66176762  0.94085291  1
  U  U19  1  0.01856192  0.64320407  0.44086359  1
  U  U20  1  0.33823238  0.01857804  0.44085291  1
  U  U21  1  0.64319824  0.33823486  0.44085949  1
  Ge  Ge0  1  -0.00000098  -0.00000102  0.59939328  1
  Ge  Ge1  1  0.00000102  0.00000098  0.09939328  1
  Ge  Ge2  1  0.00000098  0.00000102  0.40060672  1
  Ge  Ge3  1  -0.00000102  -0.00000098  0.90060672  1
  O  O0  1  0.71389455  0.81544377  0.15458117  1
  O  O1  1  0.47066554  0.71389107  0.15458136  1
  O  O2  1  0.81544290  0.47066696  0.15458039  1
  O  O3  1  0.18455623  0.28610545  0.65458117  1
  O  O4  1  0.52933304  0.18455710  0.65458039  1
  O  O5  1  0.28610893  0.52933446  0.65458136  1
  O  O6  1  0.28610545  0.18455623  0.84541883  1
  O  O7  1  0.52933446  0.28610893  0.84541864  1
  O  O8  1  0.18455710  0.52933304  0.84541961  1
  O  O9  1  0.81544377  0.71389455  0.34541883  1
  O  O10  1  0.47066696  0.81544290  0.34541961  1
  O  O11  1  0.71389107  0.47066554  0.34541864  1
  O  O12  1  0.50832255  0.13852074  0.12950304  1
  O  O13  1  0.35316292  0.50832703  0.12950248  1
  O  O14  1  0.13850031  0.35315892  0.12949248  1
  O  O15  1  0.86147926  0.49167745  0.62950304  1
  O  O16  1  0.64684108  0.86149969  0.62949248  1
  O  O17  1  0.49167297  0.64683708  0.62950248  1
  O  O18  1  0.49167745  0.86147926  0.87049696  1
  O  O19  1  0.64683708  0.49167297  0.87049752  1
  O  O20  1  0.86149969  0.64684108  0.87050752  1
  O  O21  1  0.13852074  0.50832255  0.37049696  1
  O  O22  1  0.35315892  0.13850031  0.37050752  1
  O  O23  1  0.50832703  0.35316292  0.37049752  1
  O  O24  1  0.17226201  0.84795227  0.13017892  1
  O  O25  1  0.97977713  0.17226234  0.13017822  1
  O  O26  1  0.84795334  0.97978473  0.13017990  1
  O  O27  1  0.15204773  0.82773799  0.63017892  1
  O  O28  1  0.02021527  0.15204666  0.63017990  1
  O  O29  1  0.82773766  0.02022287  0.63017822  1
  O  O30  1  0.82773799  0.15204773  0.86982108  1
  O  O31  1  0.02022287  0.82773766  0.86982178  1
  O  O32  1  0.15204666  0.02021527  0.86982010  1
  O  O33  1  0.84795227  0.17226201  0.36982108  1
  O  O34  1  0.97978473  0.84795334  0.36982010  1
  O  O35  1  0.17226234  0.97977713  0.36982178  1
  O  O36  1  0.78107279  0.89670237  0.98404179  1
  O  O37  1  0.32222975  0.78106941  0.98404329  1
  O  O38  1  0.89669347  0.32222785  0.98403854  1
  O  O39  1  0.10329763  0.21892721  0.48404179  1
  O  O40  1  0.67777215  0.10330653  0.48403854  1
  O  O41  1  0.21893059  0.67777025  0.48404329  1
  O  O42  1  0.21892721  0.10329763  0.01595821  1
  O  O43  1  0.67777025  0.21893059  0.01595671  1
  O  O44  1  0.10330653  0.67777215  0.01596146  1
  O  O45  1  0.89670237  0.78107279  0.51595821  1
  O  O46  1  0.32222785  0.89669347  0.51596146  1
  O  O47  1  0.78106941  0.32222975  0.51595671  1
  O  O48  1  0.02050284  0.69102491  0.21716003  1
  O  O49  1  0.28847423  0.02046009  0.21716947  1
  O  O50  1  0.69092522  0.28848143  0.21714204  1
  O  O51  1  0.30897509  0.97949716  0.71716003  1
  O  O52  1  0.71151857  0.30907478  0.71714204  1
  O  O53  1  0.97953991  0.71152577  0.71716947  1
  O  O54  1  0.97949716  0.30897509  0.78283997  1
  O  O55  1  0.71152577  0.97953991  0.78283053  1
  O  O56  1  0.30907478  0.71151857  0.78285796  1
  O  O57  1  0.69102491  0.02050284  0.28283997  1
  O  O58  1  0.28848143  0.69092522  0.28285796  1
  O  O59  1  0.02046009  0.28847423  0.28283053  1
  O  O60  1  0.00000000  0.00000000  0.50000000  1
  O  O61  1  0.00000000  0.00000000  -0.00000000  1
  O  O62  1  0.86485765  0.59230271  0.03339370  1
  O  O63  1  0.54284252  0.86486092  0.03339308  1
  O  O64  1  0.59230049  0.54283892  0.03339172  1
  O  O65  1  0.40769729  0.13514235  0.53339370  1
  O  O66  1  0.45716108  0.40769951  0.53339172  1
  O  O67  1  0.13513908  0.45715748  0.53339308  1
  O  O68  1  0.13514235  0.40769729  0.96660630  1
  O  O69  1  0.45715748  0.13513908  0.96660692  1
  O  O70  1  0.40769951  0.45716108  0.96660828  1
  O  O71  1  0.59230271  0.86485765  0.46660630  1
  O  O72  1  0.54283892  0.59230049  0.46660828  1
  O  O73  1  0.86486092  0.54284252  0.46660692  1
  O  O74  1  -0.00000345  -0.00000345  0.25000000  1
  O  O75  1  0.00000345  0.00000345  0.75000000  1
loop_
_geom_bond_atom_site_label_1
_geom_bond_atom_site_label_2
_geom_bond_distance
_geom_bond_site_symmetry_2
K0 O21 2.845275 1_555
K0 O12 2.845275 1_555
K0 O14 2.845301 1_555
K0 O22 2.845301 1_555
K0 O23 2.845691 1_555
K0 O13 2.845691 1_555
K1 O15 2.845275 1_555
K1 O18 2.845275 1_555
K1 O20 2.845301 1_555
K1 O16 2.845301 1_555
K1 O17 2.845691 1_555
K1 O19 2.845691 1_555
Ge0 O60 1.730684 1_555
Ge0 O29 1.771000 1_455
Ge0 O27 1.771039 1_545
Ge0 O28 1.771066 1_555
Ge1 O61 1.730684 1_555
Ge1 O25 1.771000 1_455
Ge1 O24 1.771039 1_545
Ge1 O26 1.771066 1_445
Ge2 O60 1.730684 1_555
Ge2 O35 1.771000 1_545
Ge2 O33 1.771039 1_455
Ge2 O34 1.771066 1_445
Ge3 O61 1.730684 1_556
Ge3 O31 1.771000 1_545
Ge3 O30 1.771039 1_455
Ge3 O32 1.771066 1_555
O0 U6 2.070067 1_555
O0 U0 2.418369 1_555
O0 U10 2.485641 1_565
O1 U6 2.070048 1_555
O1 U1 2.418402 1_555
O1 U11 2.485636 1_555
O2 U6 2.070045 1_555
O2 U2 2.418451 1_555
O2 U12 2.485615 1_655
O3 U7 2.070066 1_555
O3 U3 2.418369 1_555
O3 U13 2.485641 1_455
O4 U7 2.070045 1_555
O4 U4 2.418450 1_555
O4 U14 2.485615 1_545
O5 U7 2.070048 1_555
O5 U5 2.418402 1_555
O5 U15 2.485636 1_555
O6 U8 2.070067 1_555
O6 U3 2.418369 1_555
O6 U16 2.485641 1_545
O7 U8 2.070048 1_555
O7 U4 2.418402 1_555
O7 U17 2.485636 1_555
O8 U8 2.070045 1_555
O8 U5 2.418451 1_555
O8 U18 2.485615 1_455
O9 U9 2.070066 1_555
O9 U0 2.418369 1_555
O9 U19 2.485641 1_655
O10 U9 2.070045 1_555
O10 U1 2.418450 1_555
O10 U20 2.485615 1_565
O11 U9 2.070048 1_555
O11 U2 2.418402 1_555
O11 U21 2.485636 1_555
O12 U10 1.805048 1_555
O13 U11 1.804901 1_555
O14 U12 1.804542 1_555
O15 U13 1.805048 1_555
O16 U14 1.804542 1_555
O17 U15 1.804901 1_555
O18 U16 1.805048 1_555
O19 U17 1.804901 1_555
O20 U18 1.804542 1_555
O21 U19 1.805048 1_555
O22 U20 1.804542 1_555
O23 U21 1.804901 1_555
O24 U11 2.308936 1_555
O24 U1 2.411161 1_555
O25 U12 2.308964 1_655
O25 U2 2.411143 1_555
O26 U10 2.308959 1_565
O26 U0 2.411158 1_555
O27 U15 2.308936 1_555
O27 U5 2.411161 1_555
O28 U13 2.308960 1_455
O28 U3 2.411158 1_555
O29 U14 2.308964 1_545
O29 U4 2.411143 1_555
O30 U17 2.308936 1_555
O30 U4 2.411161 1_555
O31 U18 2.308964 1_455
O31 U5 2.411143 1_555
O32 U16 2.308959 1_545
O32 U3 2.411158 1_555
O33 U21 2.308936 1_555
O33 U2 2.411161 1_555
O34 U19 2.308960 1_655
O34 U0 2.411158 1_555
O35 U20 2.308964 1_565
O35 U1 2.411143 1_555
O36 U10 1.880630 1_566
O36 U18 2.394847 1_555
O37 U11 1.880695 1_556
O37 U16 2.394881 1_555
O38 U12 1.880967 1_656
O38 U17 2.394782 1_555
O39 U13 1.880630 1_455
O39 U20 2.394847 1_555
O40 U14 1.880967 1_545
O40 U21 2.394782 1_555
O41 U15 1.880695 1_555
O41 U19 2.394880 1_555
O42 U16 1.880630 1_544
O42 U12 2.394847 1_555
O43 U17 1.880695 1_554
O43 U10 2.394881 1_555
O44 U18 1.880967 1_454
O44 U11 2.394782 1_555
O45 U19 1.880630 1_655
O45 U14 2.394847 1_555
O46 U20 1.880967 1_565
O46 U15 2.394782 1_555
O47 U21 1.880695 1_555
O47 U13 2.394880 1_555
O48 U0 1.798833 1_455
O49 U1 1.796674 1_545
O50 U2 1.801582 1_555
O51 U3 1.798833 1_565
O52 U4 1.801582 1_555
O53 U5 1.796674 1_655
O54 U3 1.798833 1_655
O55 U4 1.796674 1_565
O56 U5 1.801582 1_555
O57 U0 1.798833 1_545
O58 U1 1.801582 1_555
O59 U2 1.796674 1_455
O62 U6 2.131313 1_555
O62 U18 2.331529 1_554
O62 U12 2.337315 1_655
O63 U6 2.131313 1_555
O63 U16 2.331502 1_554
O63 U10 2.337207 1_565
O64 U6 2.131363 1_555
O64 U17 2.331477 1_554
O64 U11 2.337248 1_555
O65 U7 2.131313 1_555
O65 U20 2.331529 1_555
O65 U14 2.337315 1_545
O66 U7 2.131363 1_555
O66 U21 2.331477 1_555
O66 U15 2.337248 1_555
O67 U7 2.131313 1_555
O67 U19 2.331502 1_555
O67 U13 2.337207 1_455
O68 U8 2.131313 1_555
O68 U12 2.331529 1_556
O68 U18 2.337315 1_455
O69 U8 2.131313 1_555
O69 U10 2.331502 1_556
O69 U16 2.337207 1_545
O70 U8 2.131363 1_555
O70 U11 2.331477 1_556
O70 U17 2.337248 1_555
O71 U9 2.131313 1_555
O71 U14 2.331529 1_555
O71 U20 2.337315 1_565
O72 U9 2.131363 1_555
O72 U15 2.331477 1_555
O72 U21 2.337248 1_555
O73 U9 2.131313 1_555
O73 U13 2.331502 1_555
O73 U19 2.337207 1_655
O74 U0 2.541598 1_445
O74 U1 2.541642 1_545
O74 U2 2.541642 1_455
O75 U3 2.541598 1_555
O75 U4 2.541642 1_455
O75 U5 2.541642 1_545
