# generated using pymatgen
data_TiZnCo(PO4)3
_symmetry_space_group_name_H-M   'P 1'
_cell_length_a   8.50779288
_cell_length_b   8.50779288
_cell_length_c   8.50779356
_cell_angle_alpha   60.91591086
_cell_angle_beta   60.91591086
_cell_angle_gamma   60.91591362
_symmetry_Int_Tables_number   1
_chemical_formula_structural   TiZnCo(PO4)3
_chemical_formula_sum   'Ti2 Zn2 Co2 P6 O24'
_cell_volume   444.43618888
_cell_formula_units_Z   2
loop_
 _symmetry_equiv_pos_site_id
 _symmetry_equiv_pos_as_xyz
  1  'x, y, z'
loop_
 _atom_site_type_symbol
 _atom_site_label
 _atom_site_symmetry_multiplicity
 _atom_site_fract_x
 _atom_site_fract_y
 _atom_site_fract_z
 _atom_site_occupancy
  Ti  Ti0  1  0.85583700  0.85583700  0.85583700  1
  Ti  Ti1  1  0.35583700  0.35583700  0.35583700  1
  Zn  Zn0  1  0.00452700  0.00452700  0.00452700  1
  Zn  Zn1  1  0.50452700  0.50452700  0.50452700  1
  Co  Co0  1  0.64654700  0.64654700  0.64654700  1
  Co  Co1  1  0.14654700  0.14654700  0.14654700  1
  P  P0  1  0.95415200  0.54380900  0.24876200  1
  P  P1  1  0.54380900  0.24876200  0.95415200  1
  P  P2  1  0.24876200  0.95415200  0.54380900  1
  P  P3  1  0.74876200  0.04380900  0.45415200  1
  P  P4  1  0.45415200  0.74876200  0.04380900  1
  P  P5  1  0.04380900  0.45415200  0.74876200  1
  O  O0  1  0.88874300  0.49400000  0.68019600  1
  O  O1  1  0.68019600  0.88874300  0.49400000  1
  O  O2  1  0.94526100  0.74086700  0.08620600  1
  O  O3  1  0.49400000  0.68019600  0.88874300  1
  O  O4  1  0.99400000  0.38874300  0.18019600  1
  O  O5  1  0.76042500  0.56110300  0.41090100  1
  O  O6  1  0.74086700  0.08620600  0.94526100  1
  O  O7  1  0.56110300  0.41090100  0.76042500  1
  O  O8  1  0.81252000  0.99601000  0.62013700  1
  O  O9  1  0.41090100  0.76042500  0.56110300  1
  O  O10  1  0.91090100  0.06110300  0.26042500  1
  O  O11  1  0.62013700  0.81252000  0.99601000  1
  O  O12  1  0.38874300  0.18019600  0.99400000  1
  O  O13  1  0.08620600  0.94526100  0.74086700  1
  O  O14  1  0.58620600  0.24086700  0.44526100  1
  O  O15  1  0.18019600  0.99400000  0.38874300  1
  O  O16  1  0.44526100  0.58620600  0.24086700  1
  O  O17  1  0.26042500  0.91090100  0.06110300  1
  O  O18  1  0.24086700  0.44526100  0.58620600  1
  O  O19  1  0.99601000  0.62013700  0.81252000  1
  O  O20  1  0.49601000  0.31252000  0.12013700  1
  O  O21  1  0.06110300  0.26042500  0.91090100  1
  O  O22  1  0.31252000  0.12013700  0.49601000  1
  O  O23  1  0.12013700  0.49601000  0.31252000  1
loop_
_geom_bond_atom_site_label_1
_geom_bond_atom_site_label_2
_geom_bond_distance
_geom_bond_site_symmetry_2
Co0 O1 1.903842 1_555
Co0 O0 1.903842 1_555
Co0 O3 1.903842 1_555
Co0 O7 2.080923 1_555
Co0 O9 2.080923 1_555
Co0 O5 2.080923 1_555
Co1 O12 1.903842 1_554
Co1 O4 1.903842 1_455
Co1 O15 1.903842 1_545
Co1 O10 2.080923 1_455
Co1 O17 2.080923 1_545
Co1 O21 2.080923 1_554
O0 P5 1.522104 1_655
O1 P3 1.522104 1_565
O2 P0 1.566339 1_555
O2 Ti0 2.058960 1_554
O2 Zn0 2.238848 1_665
O3 P4 1.522104 1_556
O4 P0 1.522104 1_555
O5 P0 1.546692 1_555
O5 Zn1 2.136854 1_555
O6 P1 1.566339 1_555
O6 Ti0 2.058960 1_545
O6 Zn0 2.238848 1_656
O7 P1 1.546692 1_555
O7 Zn1 2.136854 1_555
O8 P3 1.557491 1_565
O8 Ti0 1.882941 1_555
O9 P2 1.546692 1_555
O9 Zn1 2.136854 1_555
O10 P3 1.546692 1_555
O10 Zn0 2.136854 1_655
O11 P4 1.557491 1_556
O11 Ti0 1.882941 1_555
O12 P1 1.522104 1_555
O13 P2 1.566339 1_555
O13 Ti0 2.058960 1_455
O13 Zn0 2.238849 1_566
O14 P3 1.566339 1_555
O14 Ti1 2.058960 1_555
O14 Zn1 2.238848 1_555
O15 P2 1.522104 1_555
O16 P4 1.566339 1_555
O16 Ti1 2.058960 1_555
O16 Zn1 2.238849 1_555
O17 P4 1.546692 1_555
O17 Zn0 2.136854 1_565
O18 P5 1.566339 1_555
O18 Ti1 2.058960 1_555
O18 Zn1 2.238848 1_555
O19 P5 1.557491 1_655
O19 Ti0 1.882941 1_555
O20 P1 1.557491 1_554
O20 Ti1 1.882941 1_555
O21 P5 1.546692 1_555
O21 Zn0 2.136854 1_556
O22 P2 1.557491 1_545
O22 Ti1 1.882941 1_555
O23 P0 1.557491 1_455
O23 Ti1 1.882941 1_555
