# generated using pymatgen
data_Rb3NpH4O7
_symmetry_space_group_name_H-M   'P 1'
_cell_length_a   6.64239102
_cell_length_b   11.56371900
_cell_length_c   12.24708408
_cell_angle_alpha   90.00000000
_cell_angle_beta   90.89605640
_cell_angle_gamma   90.00000000
_symmetry_Int_Tables_number   1
_chemical_formula_structural   Rb3NpH4O7
_chemical_formula_sum   'Rb12 Np4 H16 O28'
_cell_volume   940.59259265
_cell_formula_units_Z   4
loop_
 _symmetry_equiv_pos_site_id
 _symmetry_equiv_pos_as_xyz
  1  'x, y, z'
loop_
 _atom_site_type_symbol
 _atom_site_label
 _atom_site_symmetry_multiplicity
 _atom_site_fract_x
 _atom_site_fract_y
 _atom_site_fract_z
 _atom_site_occupancy
  Rb  Rb0  1  0.79332300  0.12088300  0.55174000  1
  Rb  Rb1  1  0.29332300  0.37911700  0.05174000  1
  Rb  Rb2  1  0.20667700  0.87911700  0.44826000  1
  Rb  Rb3  1  0.70667700  0.62088300  0.94826000  1
  Rb  Rb4  1  0.76582200  0.27948700  0.25812000  1
  Rb  Rb5  1  0.26582200  0.22051300  0.75812000  1
  Rb  Rb6  1  0.23417800  0.72051300  0.74188000  1
  Rb  Rb7  1  0.73417800  0.77948700  0.24188000  1
  Rb  Rb8  1  0.82777300  0.96100500  0.86358000  1
  Rb  Rb9  1  0.32777300  0.53899500  0.36358000  1
  Rb  Rb10  1  0.17222700  0.03899500  0.13642000  1
  Rb  Rb11  1  0.67222700  0.46100500  0.63642000  1
  Np  Np0  1  0.78154000  0.29385700  0.90838400  1
  Np  Np1  1  0.28154000  0.20614300  0.40838400  1
  Np  Np2  1  0.21846000  0.70614300  0.09161600  1
  Np  Np3  1  0.71846000  0.79385700  0.59161600  1
  H  H0  1  0.05999100  0.48155500  0.86419900  1
  H  H1  1  0.55999100  0.01844500  0.36419900  1
  H  H2  1  0.94000900  0.51844500  0.13580100  1
  H  H3  1  0.44000900  0.98155500  0.63580100  1
  H  H4  1  0.46641300  0.12020600  0.95084800  1
  H  H5  1  0.96641300  0.37979400  0.45084800  1
  H  H6  1  0.53358700  0.87979400  0.04915200  1
  H  H7  1  0.03358700  0.62020600  0.54915200  1
  H  H8  1  0.13487900  0.45674600  0.70657700  1
  H  H9  1  0.63487900  0.04325400  0.20657700  1
  H  H10  1  0.86512100  0.54325300  0.29342300  1
  H  H11  1  0.36512100  0.95674700  0.79342300  1
  H  H12  1  0.16064500  0.42237500  0.58239300  1
  H  H13  1  0.66064500  0.07762500  0.08239300  1
  H  H14  1  0.83935500  0.57762500  0.41760700  1
  H  H15  1  0.33935500  0.92237500  0.91760700  1
  O  O0  1  0.76419000  0.20692000  0.77477000  1
  O  O1  1  0.26419000  0.29308000  0.27477000  1
  O  O2  1  0.23581000  0.79308000  0.22523000  1
  O  O3  1  0.73581000  0.70692000  0.72523000  1
  O  O4  1  0.56010300  0.38718300  0.85972000  1
  O  O5  1  0.06010300  0.11281700  0.35972000  1
  O  O6  1  0.43989700  0.61281700  0.14028000  1
  O  O7  1  0.93989700  0.88718300  0.64028000  1
  O  O8  1  0.80198200  0.38429900  0.04000900  1
  O  O9  1  0.30198200  0.11570100  0.54000900  1
  O  O10  1  0.19801800  0.61570100  0.95999100  1
  O  O11  1  0.69801800  0.88429900  0.45999100  1
  O  O12  1  0.00081300  0.19917700  0.95761500  1
  O  O13  1  0.50081300  0.30082300  0.45761400  1
  O  O14  1  0.99918700  0.80082300  0.04238500  1
  O  O15  1  0.49918700  0.69917700  0.54238500  1
  O  O16  1  0.00549400  0.41980800  0.81730600  1
  O  O17  1  0.50549400  0.08019200  0.31730600  1
  O  O18  1  0.99450600  0.58019200  0.18269400  1
  O  O19  1  0.49450600  0.91980800  0.68269400  1
  O  O20  1  0.55357900  0.16851700  0.99714700  1
  O  O21  1  0.05357900  0.33148300  0.49714700  1
  O  O22  1  0.44642100  0.83148300  0.00285300  1
  O  O23  1  0.94642100  0.66851700  0.50285300  1
  O  O24  1  0.21221900  0.47936500  0.63943700  1
  O  O25  1  0.71221900  0.02063500  0.13943700  1
  O  O26  1  0.78778100  0.52063500  0.36056300  1
  O  O27  1  0.28778100  0.97936500  0.86056300  1
loop_
_geom_bond_atom_site_label_1
_geom_bond_atom_site_label_2
_geom_bond_distance
_geom_bond_site_symmetry_2
Np0 O4 1.912044 1_555
Np0 O12 1.912107 1_655
Np0 O0 1.922443 1_555
Np0 O8 1.924578 1_556
Np0 O20 2.372091 1_555
Np0 O16 2.372827 1_655
Np1 O5 1.912044 1_555
Np1 O13 1.912103 1_555
Np1 O1 1.922443 1_555
Np1 O9 1.924578 1_555
Np1 O21 2.372091 1_555
Np1 O17 2.372827 1_555
Np2 O6 1.912044 1_555
Np2 O14 1.912107 1_455
Np2 O2 1.922443 1_555
Np2 O10 1.924578 1_554
Np2 O22 2.372091 1_555
Np2 O18 2.372827 1_455
Np3 O7 1.912044 1_555
Np3 O15 1.912107 1_555
Np3 O3 1.922443 1_555
Np3 O11 1.924578 1_555
Np3 O23 2.372091 1_555
Np3 O19 2.372827 1_555
H0 O16 0.981932 1_555
H0 Rb1 2.994899 1_556
H0 Rb3 3.039564 1_455
H1 O17 0.981932 1_555
H1 Rb0 2.994899 1_555
H1 Rb2 3.039564 1_545
H2 O18 0.981932 1_555
H2 Rb3 2.994899 1_554
H2 Rb1 3.039564 1_655
H3 O19 0.981932 1_555
H3 Rb2 2.994899 1_555
H3 Rb0 3.039564 1_565
H4 O20 0.979070 1_555
H4 Rb5 2.931490 1_555
H5 O21 0.979070 1_655
H5 Rb4 2.931490 1_555
H6 O22 0.979070 1_555
H6 Rb7 2.931490 1_555
H7 O23 0.979070 1_455
H7 Rb6 2.931490 1_555
H8 O24 1.010773 1_555
H8 Rb5 2.932605 1_555
H9 O25 1.010773 1_555
H9 Rb4 2.932605 1_555
H10 O26 1.010770 1_555
H10 Rb7 2.932616 1_555
H11 O27 1.010770 1_555
H11 Rb6 2.932616 1_555
H12 O24 1.015996 1_555
H13 O25 1.015996 1_555
H14 O26 1.015996 1_555
H15 O27 1.015996 1_555
O0 Rb0 2.916288 1_555
O0 Rb8 3.071417 1_545
O0 Rb5 3.317171 1_555
O0 Rb5 3.345146 1_655
O1 Rb1 2.916288 1_555
O1 Rb9 3.071417 1_555
O1 Rb4 3.317171 1_455
O1 Rb4 3.345146 1_555
O2 Rb2 2.916288 1_555
O2 Rb10 3.071417 1_565
O2 Rb7 3.317171 1_555
O2 Rb7 3.345146 1_455
O3 Rb3 2.916288 1_555
O3 Rb11 3.071417 1_555
O3 Rb6 3.317171 1_655
O3 Rb6 3.345146 1_555
O4 Rb1 2.968105 1_556
O4 Rb11 2.970876 1_555
O4 Rb5 3.001294 1_555
O4 Rb3 3.064947 1_555
O5 Rb0 2.968105 1_455
O5 Rb10 2.970876 1_555
O5 Rb4 3.001294 1_455
O5 Rb2 3.064947 1_545
O6 Rb3 2.968105 1_554
O6 Rb9 2.970876 1_555
O6 Rb7 3.001294 1_555
O6 Rb1 3.064947 1_555
O7 Rb2 2.968105 1_655
O7 Rb8 2.970876 1_555
O7 Rb6 3.001294 1_655
O7 Rb0 3.064947 1_565
O8 Rb4 2.946554 1_555
O8 Rb3 3.020872 1_554
O8 Rb1 3.265144 1_655
O8 Rb1 3.384540 1_555
O9 Rb5 2.946554 1_555
O9 Rb2 3.020872 1_545
O9 Rb0 3.265144 1_555
O9 Rb0 3.384540 1_455
O10 Rb6 2.946554 1_555
O10 Rb1 3.020872 1_556
O10 Rb3 3.265144 1_455
O10 Rb3 3.384540 1_555
O11 Rb7 2.946554 1_555
O11 Rb0 3.020872 1_565
O11 Rb2 3.265144 1_555
O11 Rb2 3.384540 1_655
O12 Rb5 3.043584 1_555
O12 Rb1 3.059990 1_556
O12 Rb10 3.073245 1_556
O12 Rb8 3.192396 1_445
O13 Rb4 3.043574 1_555
O13 Rb0 3.059994 1_555
O13 Rb11 3.073254 1_555
O13 Rb9 3.192391 1_555
O14 Rb7 3.043584 1_555
O14 Rb3 3.059990 1_554
O14 Rb8 3.073245 1_554
O14 Rb10 3.192396 1_665
O15 Rb6 3.043584 1_555
O15 Rb2 3.059990 1_555
O15 Rb9 3.073245 1_555
O15 Rb11 3.192396 1_555
O16 Rb5 2.977565 1_555
O16 Rb11 3.143510 1_455
O17 Rb4 2.977565 1_555
O17 Rb10 3.143510 1_555
O18 Rb7 2.977565 1_555
O18 Rb9 3.143510 1_655
O19 Rb6 2.977565 1_555
O19 Rb8 3.143510 1_555
O20 Rb1 3.066340 1_556
O21 Rb0 3.066340 1_455
O22 Rb3 3.066340 1_554
O23 Rb2 3.066340 1_655
O24 Rb6 3.060352 1_555
O24 Rb11 3.063719 1_555
O25 Rb7 3.060352 1_545
O25 Rb10 3.063719 1_655
O26 Rb4 3.060352 1_555
O26 Rb9 3.063719 1_555
O27 Rb5 3.060352 1_565
O27 Rb8 3.063719 1_455
