# generated using pymatgen
data_Ca6Sc(CoO4)3
_symmetry_space_group_name_H-M   'P 1'
_cell_length_a   6.45080976
_cell_length_b   6.45080976
_cell_length_c   6.45080975
_cell_angle_alpha   92.74831559
_cell_angle_beta   92.74831559
_cell_angle_gamma   92.74831618
_symmetry_Int_Tables_number   1
_chemical_formula_structural   Ca6Sc(CoO4)3
_chemical_formula_sum   'Ca6 Sc1 Co3 O12'
_cell_volume   267.48016383
_cell_formula_units_Z   1
loop_
 _symmetry_equiv_pos_site_id
 _symmetry_equiv_pos_as_xyz
  1  'x, y, z'
loop_
 _atom_site_type_symbol
 _atom_site_label
 _atom_site_symmetry_multiplicity
 _atom_site_fract_x
 _atom_site_fract_y
 _atom_site_fract_z
 _atom_site_occupancy
  Ca  Ca0  1  0.13462100  0.86537900  0.50000000  1
  Ca  Ca1  1  0.50000000  0.13462100  0.86537900  1
  Ca  Ca2  1  0.86537900  0.50000000  0.13462100  1
  Ca  Ca3  1  0.00000000  0.36801500  0.63198500  1
  Ca  Ca4  1  0.63198500  0.00000000  0.36801500  1
  Ca  Ca5  1  0.36801500  0.63198500  0.00000000  1
  Sc  Sc0  1  0.00000000  0.00000000  0.00000000  1
  Co  Co0  1  0.74906200  0.74906200  0.74906200  1
  Co  Co1  1  0.25093800  0.25093800  0.25093800  1
  Co  Co2  1  0.50000000  0.50000000  0.50000000  1
  O  O0  1  0.45356900  0.78766600  0.65554700  1
  O  O1  1  0.65554700  0.45356900  0.78766600  1
  O  O2  1  0.78766600  0.65554700  0.45356900  1
  O  O3  1  0.15995800  0.29276000  0.95331100  1
  O  O4  1  0.95331100  0.15995800  0.29276000  1
  O  O5  1  0.29276000  0.95331100  0.15995800  1
  O  O6  1  0.04668900  0.70724000  0.84004200  1
  O  O7  1  0.84004200  0.04668900  0.70724000  1
  O  O8  1  0.70724000  0.84004200  0.04668900  1
  O  O9  1  0.34445300  0.21233400  0.54643100  1
  O  O10  1  0.54643100  0.34445300  0.21233400  1
  O  O11  1  0.21233400  0.54643100  0.34445300  1
loop_
_geom_bond_atom_site_label_1
_geom_bond_atom_site_label_2
_geom_bond_distance
_geom_bond_site_symmetry_2
Ca0 O0 2.332488 1_555
Ca0 O11 2.332488 1_555
Ca0 O5 2.540171 1_555
Ca0 O6 2.540171 1_555
Ca0 O2 2.556852 1_455
Ca0 O9 2.556852 1_565
Ca0 O7 2.659514 1_465
Ca0 O4 2.659514 1_465
Ca1 O1 2.332488 1_555
Ca1 O9 2.332488 1_555
Ca1 O7 2.540171 1_555
Ca1 O3 2.540171 1_555
Ca1 O10 2.556852 1_556
Ca1 O0 2.556852 1_545
Ca1 O5 2.659514 1_546
Ca1 O8 2.659514 1_546
Ca2 O10 2.332488 1_555
Ca2 O2 2.332488 1_555
Ca2 O4 2.540171 1_555
Ca2 O8 2.540171 1_555
Ca2 O1 2.556852 1_554
Ca2 O11 2.556852 1_655
Ca2 O6 2.659514 1_654
Ca2 O3 2.659514 1_654
Ca3 O7 2.352951 1_455
Ca3 O3 2.352951 1_555
Ca3 O4 2.509378 1_455
Ca3 O6 2.509378 1_555
Ca3 O1 2.555165 1_455
Ca3 O9 2.555166 1_555
Ca3 O11 2.634065 1_555
Ca3 O2 2.634065 1_455
Ca4 O4 2.352951 1_555
Ca4 O8 2.352951 1_545
Ca4 O7 2.509378 1_555
Ca4 O5 2.509378 1_545
Ca4 O10 2.555165 1_555
Ca4 O2 2.555166 1_545
Ca4 O0 2.634065 1_545
Ca4 O9 2.634065 1_555
Ca5 O5 2.352951 1_555
Ca5 O6 2.352951 1_554
Ca5 O3 2.509378 1_554
Ca5 O8 2.509378 1_555
Ca5 O0 2.555165 1_554
Ca5 O11 2.555165 1_555
Ca5 O1 2.634065 1_554
Ca5 O10 2.634065 1_555
Co0 O1 2.002263 1_555
Co0 O2 2.002263 1_555
Co0 O0 2.002263 1_555
Co0 O7 2.014989 1_565
Co0 O8 2.014989 1_556
Co0 O6 2.014989 1_655
Co1 O10 2.002263 1_555
Co1 O9 2.002263 1_555
Co1 O11 2.002263 1_555
Co1 O4 2.014989 1_455
Co1 O3 2.014989 1_554
Co1 O5 2.014989 1_545
Co2 O9 2.107993 1_555
Co2 O2 2.107993 1_555
Co2 O10 2.107993 1_555
Co2 O1 2.107993 1_555
Co2 O11 2.107993 1_555
Co2 O0 2.107993 1_555
O3 Sc0 2.149301 1_556
O4 Sc0 2.149301 1_655
O5 Sc0 2.149301 1_565
O6 Sc0 2.149301 1_566
O7 Sc0 2.149301 1_656
O8 Sc0 2.149301 1_665
