# generated using pymatgen
data_Lu3Co29(Si2B5)2
_symmetry_space_group_name_H-M   'P 1'
_cell_length_a   11.08495800
_cell_length_b   11.08495800
_cell_length_c   7.79002800
_cell_angle_alpha   90.00000000
_cell_angle_beta   90.00000000
_cell_angle_gamma   90.00000000
_symmetry_Int_Tables_number   1
_chemical_formula_structural   Lu3Co29(Si2B5)2
_chemical_formula_sum   'Lu6 Co58 Si8 B20'
_cell_volume   957.20976972
_cell_formula_units_Z   2
loop_
 _symmetry_equiv_pos_site_id
 _symmetry_equiv_pos_as_xyz
  1  'x, y, z'
loop_
 _atom_site_type_symbol
 _atom_site_label
 _atom_site_symmetry_multiplicity
 _atom_site_fract_x
 _atom_site_fract_y
 _atom_site_fract_z
 _atom_site_occupancy
  Lu  Lu0  1  0.25000000  0.75000000  0.00000000  1
  Lu  Lu1  1  0.25000000  0.25000000  0.00000000  1
  Lu  Lu2  1  0.75000000  0.75000000  0.00000000  1
  Lu  Lu3  1  0.75000000  0.25000000  0.00000000  1
  Lu  Lu4  1  0.00000000  0.00000000  0.50000000  1
  Lu  Lu5  1  0.50000000  0.50000000  0.50000000  1
  Co  Co0  1  0.33868400  0.67407500  0.33574100  1
  Co  Co1  1  0.27098900  0.00000000  0.52710100  1
  Co  Co2  1  0.50000000  0.77098900  0.52710100  1
  Co  Co3  1  0.50000000  0.22901100  0.52710100  1
  Co  Co4  1  0.83480100  0.50000000  0.96967400  1
  Co  Co5  1  0.00000000  0.66519900  0.96967400  1
  Co  Co6  1  0.00000000  0.33480100  0.96967400  1
  Co  Co7  1  0.16519900  0.50000000  0.96967400  1
  Co  Co8  1  0.66519900  0.00000000  0.03032600  1
  Co  Co9  1  0.33480100  0.00000000  0.03032600  1
  Co  Co10  1  0.50000000  0.83480100  0.03032600  1
  Co  Co11  1  0.50000000  0.16519900  0.03032600  1
  Co  Co12  1  0.88326400  0.38326400  0.24659500  1
  Co  Co13  1  0.88326400  0.61673600  0.24659500  1
  Co  Co14  1  0.11673600  0.38326400  0.24659500  1
  Co  Co15  1  0.11673600  0.61673600  0.24659500  1
  Co  Co16  1  0.61673600  0.88326400  0.75340500  1
  Co  Co17  1  0.38326400  0.11673600  0.75340500  1
  Co  Co18  1  0.38326400  0.88326400  0.75340500  1
  Co  Co19  1  0.61673600  0.11673600  0.75340500  1
  Co  Co20  1  0.88975100  0.38975100  0.69821000  1
  Co  Co21  1  0.88975100  0.61024900  0.69821000  1
  Co  Co22  1  0.11024900  0.38975100  0.69821000  1
  Co  Co23  1  0.11024900  0.61024900  0.69821000  1
  Co  Co24  1  0.61024900  0.88975100  0.30179000  1
  Co  Co25  1  0.38975100  0.11024900  0.30179000  1
  Co  Co26  1  0.38975100  0.88975100  0.30179000  1
  Co  Co27  1  0.61024900  0.11024900  0.30179000  1
  Co  Co28  1  0.33868400  0.32592500  0.33574100  1
  Co  Co29  1  0.82592500  0.16131600  0.33574100  1
  Co  Co30  1  0.17407500  0.83868400  0.33574100  1
  Co  Co31  1  0.66131600  0.67407500  0.33574100  1
  Co  Co32  1  0.16131600  0.82592500  0.66425900  1
  Co  Co33  1  0.83868400  0.17407500  0.66425900  1
  Co  Co34  1  0.32592500  0.33868400  0.66425900  1
  Co  Co35  1  0.61013400  0.50000000  0.88841700  1
  Co  Co36  1  0.16131600  0.17407500  0.66425900  1
  Co  Co37  1  0.67407500  0.33868400  0.66425900  1
  Co  Co38  1  0.32592500  0.66131600  0.66425900  1
  Co  Co39  1  0.83868400  0.82592500  0.66425900  1
  Co  Co40  1  0.72901100  0.00000000  0.52710100  1
  Co  Co41  1  0.00000000  0.88986600  0.88841700  1
  Co  Co42  1  0.17407500  0.16131600  0.33574100  1
  Co  Co43  1  0.82592500  0.83868400  0.33574100  1
  Co  Co44  1  0.00000000  0.11013400  0.88841700  1
  Co  Co45  1  0.38986600  0.50000000  0.88841700  1
  Co  Co46  1  0.50000000  0.00000000  0.53585200  1
  Co  Co47  1  0.00000000  0.50000000  0.46414800  1
  Co  Co48  1  0.11013400  0.00000000  0.11158300  1
  Co  Co49  1  0.22901100  0.50000000  0.47289900  1
  Co  Co50  1  0.00000000  0.27098900  0.47289900  1
  Co  Co51  1  0.00000000  0.72901100  0.47289900  1
  Co  Co52  1  0.77098900  0.50000000  0.47289900  1
  Co  Co53  1  0.50000000  0.61013400  0.11158300  1
  Co  Co54  1  0.50000000  0.38986600  0.11158300  1
  Co  Co55  1  0.88986600  0.00000000  0.11158300  1
  Co  Co56  1  0.67407500  0.66131600  0.66425900  1
  Co  Co57  1  0.66131600  0.32592500  0.33574100  1
  Si  Si0  1  0.50000000  0.68274300  0.82513900  1
  Si  Si1  1  0.31725700  0.50000000  0.17486100  1
  Si  Si2  1  0.00000000  0.18274300  0.17486100  1
  Si  Si3  1  0.00000000  0.81725700  0.17486100  1
  Si  Si4  1  0.68274300  0.50000000  0.17486100  1
  Si  Si5  1  0.18274300  0.00000000  0.82513900  1
  Si  Si6  1  0.81725700  0.00000000  0.82513900  1
  Si  Si7  1  0.50000000  0.31725700  0.82513900  1
  B  B0  1  0.68580600  0.18580600  0.51882000  1
  B  B1  1  0.31419400  0.81419400  0.51882000  1
  B  B2  1  0.31419400  0.18580600  0.51882000  1
  B  B3  1  0.68580600  0.81419400  0.51882000  1
  B  B4  1  0.18580600  0.68580600  0.48118000  1
  B  B5  1  0.18580600  0.31419400  0.48118000  1
  B  B6  1  0.50000000  0.25607600  0.26448300  1
  B  B7  1  0.50000000  0.74392400  0.26448300  1
  B  B8  1  0.24392400  0.00000000  0.26448300  1
  B  B9  1  0.75607600  0.00000000  0.26448300  1
  B  B10  1  0.25607600  0.50000000  0.73551700  1
  B  B11  1  0.00000000  0.24392400  0.73551700  1
  B  B12  1  0.00000000  0.75607600  0.73551700  1
  B  B13  1  0.74392400  0.50000000  0.73551700  1
  B  B14  1  0.50000000  0.00000000  0.14936000  1
  B  B15  1  0.00000000  0.50000000  0.85064000  1
  B  B16  1  0.50000000  0.00000000  0.89271200  1
  B  B17  1  0.00000000  0.50000000  0.10728800  1
  B  B18  1  0.81419400  0.68580600  0.48118000  1
  B  B19  1  0.81419400  0.31419400  0.48118000  1
loop_
_geom_bond_atom_site_label_1
_geom_bond_atom_site_label_2
_geom_bond_distance
_geom_bond_site_symmetry_2
Lu0 Si3 3.176651 1_555
Lu0 Si0 3.176651 1_554
Lu0 Si1 3.176651 1_555
Lu0 Si5 3.176651 1_564
Lu1 Si5 3.176651 1_554
Lu1 Si1 3.176651 1_555
Lu1 Si2 3.176651 1_555
Lu1 Si7 3.176651 1_554
Lu2 Si4 3.176651 1_555
Lu2 Si0 3.176651 1_554
Lu2 Si3 3.176651 1_655
Lu2 Si6 3.176651 1_564
Lu3 Si2 3.176651 1_655
Lu3 Si4 3.176651 1_555
Lu3 Si6 3.176651 1_554
Lu3 Si7 3.176651 1_554
Lu4 Si3 3.243261 1_545
Lu4 Si6 3.243261 1_455
Lu4 Si5 3.243261 1_555
Lu4 Si2 3.243261 1_555
Lu5 Si7 3.243261 1_555
Lu5 Si1 3.243261 1_555
Lu5 Si0 3.243261 1_555
Lu5 Si4 3.243261 1_555
Co0 Si1 2.313112 1_555
Co0 Lu0 2.918085 1_555
Co0 Lu5 2.925463 1_555
Co1 Si5 2.519382 1_555
Co1 Co46 2.539492 1_555
Co1 Lu4 3.011311 1_555
Co2 Si0 2.519382 1_555
Co2 Co46 2.539492 1_565
Co2 Lu5 3.011311 1_555
Co3 Si7 2.519382 1_555
Co3 Co46 2.539492 1_555
Co3 Lu5 3.011311 1_555
Co4 Si4 2.322934 1_556
Co4 Lu3 2.935849 1_556
Co4 Lu2 2.935849 1_556
Co5 Si3 2.322934 1_556
Co5 Lu0 2.935849 1_556
Co5 Lu2 2.935849 1_456
Co6 Si2 2.322934 1_556
Co6 Lu3 2.935849 1_456
Co6 Lu1 2.935849 1_556
Co7 Si1 2.322934 1_556
Co7 Lu0 2.935849 1_556
Co7 Lu1 2.935849 1_556
Co8 Si6 2.322934 1_554
Co8 Lu2 2.935849 1_545
Co8 Lu3 2.935849 1_555
Co9 Si5 2.322934 1_554
Co9 Lu0 2.935849 1_545
Co9 Lu1 2.935849 1_555
Co10 Si0 2.322934 1_554
Co10 Lu2 2.935849 1_555
Co10 Lu0 2.935849 1_555
Co11 Si7 2.322934 1_554
Co11 Lu1 2.935849 1_555
Co11 Lu3 2.935849 1_555
Co12 Co47 2.494213 1_655
Co12 Si4 2.632002 1_555
Co12 Si2 2.632002 1_655
Co12 Lu3 2.838056 1_555
Co13 Co47 2.494213 1_655
Co13 Si4 2.632002 1_555
Co13 Si3 2.632002 1_655
Co13 Lu2 2.838056 1_555
Co14 Co47 2.494213 1_555
Co14 Si2 2.632002 1_555
Co14 Si1 2.632002 1_555
Co14 Lu1 2.838056 1_555
Co15 Co47 2.494213 1_555
Co15 Si3 2.632002 1_555
Co15 Si1 2.632002 1_555
Co15 Lu0 2.838056 1_555
Co16 Co46 2.494213 1_565
Co16 Si0 2.632002 1_555
Co16 Si6 2.632002 1_565
Co16 Lu2 2.838056 1_556
Co17 Co46 2.494213 1_555
Co17 Si5 2.632002 1_555
Co17 Si7 2.632002 1_555
Co17 Lu1 2.838056 1_556
Co18 Co46 2.494213 1_565
Co18 Si0 2.632002 1_555
Co18 Si5 2.632002 1_565
Co18 Lu0 2.838056 1_556
Co19 Co46 2.494213 1_555
Co19 Si6 2.632002 1_555
Co19 Si7 2.632002 1_555
Co19 Lu3 2.838056 1_556
Co20 Co47 2.512307 1_655
Co21 Co47 2.512307 1_655
Co22 Co47 2.512307 1_555
Co23 Co47 2.512307 1_555
Co24 Co46 2.512307 1_565
Co25 Co46 2.512307 1_555
Co26 Co46 2.512307 1_565
Co27 Co46 2.512307 1_555
Co28 Si1 2.313112 1_555
Co28 Lu1 2.918085 1_555
Co28 Lu5 2.925463 1_555
Co29 Si2 2.313112 1_655
Co29 Lu3 2.918085 1_555
Co29 Lu4 2.925463 1_655
Co30 Si3 2.313112 1_555
Co30 Lu0 2.918085 1_555
Co30 Lu4 2.925463 1_565
Co31 Si4 2.313112 1_555
Co31 Lu2 2.918085 1_555
Co31 Lu5 2.925463 1_555
Co32 Si5 2.313112 1_565
Co32 Lu0 2.918085 1_556
Co32 Lu4 2.925463 1_565
Co33 Si6 2.313112 1_555
Co33 Lu3 2.918085 1_556
Co33 Lu4 2.925463 1_655
Co34 Si7 2.313112 1_555
Co34 Lu1 2.918085 1_556
Co34 Lu5 2.925463 1_555
Co35 Si4 2.372127 1_556
Co35 Si7 2.415961 1_555
Co35 Si0 2.415961 1_555
Co36 Si5 2.313112 1_555
Co36 Lu1 2.918085 1_556
Co36 Lu4 2.925463 1_555
Co37 Si7 2.313112 1_555
Co37 Lu3 2.918085 1_556
Co37 Lu5 2.925463 1_555
Co38 Si0 2.313112 1_555
Co38 Lu0 2.918085 1_556
Co38 Lu5 2.925463 1_555
Co39 Si6 2.313112 1_565
Co39 Lu2 2.918085 1_556
Co39 Lu4 2.925463 1_665
Co40 Si6 2.519382 1_555
Co40 Co46 2.539492 1_555
Co40 Lu4 3.011311 1_655
Co41 Si3 2.372127 1_556
Co41 Si6 2.415961 1_465
Co41 Si5 2.415961 1_565
Co42 Si2 2.313112 1_555
Co42 Lu1 2.918085 1_555
Co42 Lu4 2.925463 1_555
Co43 Si3 2.313112 1_655
Co43 Lu2 2.918085 1_555
Co43 Lu4 2.925463 1_665
Co44 Si2 2.372127 1_556
Co44 Si5 2.415961 1_555
Co44 Si6 2.415961 1_455
Co45 Si1 2.372127 1_556
Co45 Si7 2.415961 1_555
Co45 Si0 2.415961 1_555
Co47 Co51 2.539492 1_555
Co47 Co49 2.539492 1_555
Co47 Co50 2.539492 1_555
Co47 Co52 2.539492 1_455
Co48 Si5 2.372127 1_554
Co48 Si3 2.415961 1_545
Co48 Si2 2.415961 1_555
Co49 Si1 2.519382 1_555
Co49 Lu5 3.011311 1_555
Co50 Si2 2.519382 1_555
Co50 Lu4 3.011311 1_555
Co51 Si3 2.519382 1_555
Co51 Lu4 3.011311 1_565
Co52 Si4 2.519382 1_555
Co52 Lu5 3.011311 1_555
Co53 Si0 2.372127 1_554
Co53 Si1 2.415961 1_555
Co53 Si4 2.415961 1_555
Co54 Si7 2.372127 1_554
Co54 Si1 2.415961 1_555
Co54 Si4 2.415961 1_555
Co55 Si6 2.372127 1_554
Co55 Si3 2.415961 1_645
Co55 Si2 2.415961 1_655
Co56 Si0 2.313112 1_555
Co56 Lu2 2.918085 1_556
Co56 Lu5 2.925463 1_555
Co57 Si4 2.313112 1_555
Co57 Lu3 2.918085 1_555
Co57 Lu5 2.925463 1_555
B0 B19 2.033921 1_555
B0 Co37 2.042637 1_555
B0 Co33 2.042637 1_555
B0 Co27 2.064299 1_555
B0 Co3 2.115584 1_555
B0 Co40 2.115584 1_555
B0 Co19 2.124119 1_555
B0 Co57 2.126073 1_555
B0 Co29 2.126073 1_555
B1 B4 2.033921 1_555
B1 Co38 2.042637 1_555
B1 Co32 2.042637 1_555
B1 Co26 2.064299 1_555
B1 Co1 2.115584 1_565
B1 Co2 2.115584 1_555
B1 Co18 2.124119 1_555
B1 Co0 2.126073 1_555
B1 Co30 2.126073 1_555
B2 B5 2.033921 1_555
B2 Co34 2.042637 1_555
B2 Co36 2.042637 1_555
B2 Co25 2.064299 1_555
B2 Co3 2.115584 1_555
B2 Co1 2.115584 1_555
B2 Co17 2.124119 1_555
B2 Co28 2.126073 1_555
B2 Co42 2.126073 1_555
B3 Co56 2.042637 1_555
B3 Co39 2.042637 1_555
B3 Co24 2.064299 1_555
B3 Co2 2.115584 1_555
B3 Co40 2.115584 1_565
B3 Co16 2.124119 1_555
B3 Co31 2.126073 1_555
B3 Co43 2.126073 1_555
B4 Co0 2.042637 1_555
B4 Co30 2.042637 1_555
B4 Co23 2.064299 1_555
B4 Co49 2.115584 1_555
B4 Co51 2.115584 1_555
B4 Co15 2.124119 1_555
B4 Co38 2.126073 1_555
B4 Co32 2.126073 1_555
B5 Co28 2.042637 1_555
B5 Co42 2.042637 1_555
B5 Co22 2.064299 1_555
B5 Co49 2.115584 1_555
B5 Co50 2.115584 1_555
B5 Co14 2.124119 1_555
B5 Co34 2.126073 1_555
B5 Co36 2.126073 1_555
B6 Co54 1.902147 1_555
B6 Co28 2.026136 1_555
B6 Co57 2.026136 1_555
B6 Co27 2.047201 1_555
B6 Co25 2.047201 1_555
B6 Co3 2.067683 1_555
B6 Co11 2.083769 1_555
B7 Co53 1.902147 1_555
B7 Co0 2.026136 1_555
B7 Co31 2.026136 1_555
B7 Co24 2.047201 1_555
B7 Co26 2.047201 1_555
B7 Co2 2.067683 1_555
B7 Co10 2.083769 1_555
B8 Co48 1.902147 1_555
B8 Co42 2.026136 1_555
B8 Co30 2.026136 1_545
B8 Co25 2.047201 1_555
B8 Co26 2.047201 1_545
B8 Co1 2.067683 1_555
B8 Co9 2.083769 1_555
B9 Co55 1.902147 1_555
B9 Co29 2.026136 1_555
B9 Co43 2.026136 1_545
B9 Co27 2.047201 1_555
B9 Co24 2.047201 1_545
B9 Co40 2.067683 1_555
B9 Co8 2.083769 1_555
B10 Co45 1.902147 1_555
B10 Co34 2.026136 1_555
B10 Co38 2.026136 1_555
B10 Co23 2.047201 1_555
B10 Co22 2.047201 1_555
B10 Co49 2.067683 1_555
B10 Co7 2.083769 1_555
B11 Co44 1.902147 1_555
B11 Co36 2.026136 1_555
B11 Co33 2.026136 1_455
B11 Co22 2.047201 1_555
B11 Co20 2.047201 1_455
B11 Co50 2.067683 1_555
B11 Co6 2.083769 1_555
B12 Co41 1.902147 1_555
B12 Co32 2.026136 1_555
B12 Co39 2.026136 1_455
B12 Co23 2.047201 1_555
B12 Co21 2.047201 1_455
B12 Co51 2.067683 1_555
B12 Co5 2.083769 1_555
B13 Co35 1.902147 1_555
B13 Co56 2.026136 1_555
B13 Co37 2.026136 1_555
B13 Co21 2.047201 1_555
B13 Co20 2.047201 1_555
B13 Co52 2.067683 1_555
B13 Co4 2.083769 1_555
B14 B16 1.999295 1_554
B14 Co11 2.052614 1_555
B14 Co10 2.052614 1_545
B14 Co8 2.052614 1_555
B14 Co9 2.052614 1_555
B14 Co27 2.096922 1_555
B14 Co24 2.096922 1_545
B14 Co25 2.096922 1_555
B14 Co26 2.096922 1_545
B15 B17 1.999295 1_556
B15 Co7 2.052614 1_555
B15 Co5 2.052614 1_555
B15 Co4 2.052614 1_455
B15 Co6 2.052614 1_555
B15 Co23 2.096922 1_555
B15 Co21 2.096922 1_455
B15 Co22 2.096922 1_555
B15 Co20 2.096922 1_455
B16 Co11 2.121933 1_556
B16 Co8 2.121933 1_556
B16 Co10 2.121933 1_546
B16 Co9 2.121933 1_556
B16 Co19 2.127584 1_555
B16 Co17 2.127584 1_555
B16 Co16 2.127584 1_545
B16 Co18 2.127584 1_545
B16 Co46 2.779949 1_555
B17 Co7 2.121933 1_554
B17 Co5 2.121933 1_554
B17 Co4 2.121933 1_454
B17 Co6 2.121933 1_554
B17 Co15 2.127584 1_555
B17 Co14 2.127584 1_555
B17 Co13 2.127584 1_455
B17 Co12 2.127584 1_455
B17 Co47 2.779949 1_555
B18 B3 2.033921 1_555
B18 Co31 2.042637 1_555
B18 Co43 2.042637 1_555
B18 Co21 2.064299 1_555
B18 Co52 2.115584 1_555
B18 Co51 2.115584 1_655
B18 Co13 2.124119 1_555
B18 Co56 2.126073 1_555
B18 Co39 2.126073 1_555
B19 Co57 2.042637 1_555
B19 Co29 2.042637 1_555
B19 Co20 2.064299 1_555
B19 Co50 2.115584 1_655
B19 Co52 2.115584 1_555
B19 Co12 2.124119 1_555
B19 Co37 2.126073 1_555
B19 Co33 2.126073 1_555
