# generated using pymatgen
data_Li2Fe(CoO3)2
_symmetry_space_group_name_H-M   'P 1'
_cell_length_a   5.05650936
_cell_length_b   5.09501676
_cell_length_c   10.14731672
_cell_angle_alpha   91.04280918
_cell_angle_beta   90.48481790
_cell_angle_gamma   58.95675828
_symmetry_Int_Tables_number   1
_chemical_formula_structural   Li2Fe(CoO3)2
_chemical_formula_sum   'Li4 Fe2 Co4 O12'
_cell_volume   223.94632773
_cell_formula_units_Z   2
loop_
 _symmetry_equiv_pos_site_id
 _symmetry_equiv_pos_as_xyz
  1  'x, y, z'
loop_
 _atom_site_type_symbol
 _atom_site_label
 _atom_site_symmetry_multiplicity
 _atom_site_fract_x
 _atom_site_fract_y
 _atom_site_fract_z
 _atom_site_occupancy
  Li  Li0  1  0.49356500  0.14941400  0.75039900  1
  Li  Li1  1  0.46139700  0.37399500  0.25106000  1
  Li  Li2  1  0.53983700  0.62944600  0.74822100  1
  Li  Li3  1  0.49432700  0.85345700  0.24961400  1
  Fe  Fe0  1  0.99586600  0.00462300  0.00021100  1
  Fe  Fe1  1  0.00491000  0.49463900  0.49992400  1
  Co  Co0  1  0.31765300  0.33907600  0.99948400  1
  Co  Co1  1  0.34255800  0.82686100  0.50084400  1
  Co  Co2  1  0.68264000  0.16198200  0.49943100  1
  Co  Co3  1  0.65817000  0.67237200  0.00043600  1
  O  O0  1  0.01324400  0.16286700  0.59399000  1
  O  O1  1  0.98721000  0.34479200  0.09362300  1
  O  O2  1  0.98907000  0.66472300  0.90806700  1
  O  O3  1  0.36407000  0.96351800  0.88808300  1
  O  O4  1  0.01287800  0.82502200  0.40773700  1
  O  O5  1  0.35463700  0.14870000  0.40116800  1
  O  O6  1  0.36769700  0.49434000  0.60324800  1
  O  O7  1  0.35149600  0.68058700  0.10633900  1
  O  O8  1  0.63289600  0.01161400  0.10369800  1
  O  O9  1  0.64783300  0.34473000  0.90019300  1
  O  O10  1  0.63754400  0.52969700  0.38749700  1
  O  O11  1  0.65050300  0.82354500  0.60673200  1
loop_
_geom_bond_atom_site_label_1
_geom_bond_atom_site_label_2
_geom_bond_distance
_geom_bond_site_symmetry_2
Li0 O3 1.995262 1_545
Li0 O11 2.020948 1_545
Li0 O9 2.152836 1_555
Li0 O6 2.156152 1_555
Li1 O10 2.001830 1_555
Li1 O7 2.019878 1_555
Li1 O5 2.155419 1_555
Li1 O8 2.160345 1_555
Li2 O6 1.988726 1_555
Li2 O11 1.997121 1_555
Li2 O9 2.007685 1_555
Li2 O3 2.018526 1_555
Li3 O5 1.991255 1_565
Li3 O8 1.993974 1_565
Li3 O7 2.000693 1_555
Li3 O10 2.009453 1_555
Fe0 O1 1.940857 1_555
Fe0 O2 1.968869 1_544
Fe0 O9 2.004603 1_554
Fe0 O7 2.022151 1_645
Fe0 O3 2.104725 1_644
Fe0 O8 2.106274 1_555
Fe1 O0 1.937745 1_555
Fe1 O4 1.959111 1_555
Fe1 O5 1.997272 1_555
Fe1 O11 2.015895 1_455
Fe1 O10 2.100805 1_455
Fe1 O6 2.104532 1_555
Co0 O2 1.886975 1_455
Co0 O1 1.918605 1_456
Co0 O8 1.932772 1_556
Co0 O9 1.970409 1_555
Co0 O3 2.111134 1_545
Co0 O7 2.113736 1_556
Co1 O10 1.864553 1_555
Co1 O11 1.877405 1_555
Co1 O0 1.903834 1_565
Co1 O4 1.913330 1_555
Co1 O6 1.950893 1_555
Co1 O5 1.969853 1_565
Co2 O4 1.900786 1_645
Co2 O6 1.922377 1_555
Co2 O0 1.922436 1_655
Co2 O5 1.958291 1_555
Co2 O10 2.117692 1_555
Co2 O11 2.132045 1_545
Co3 O3 1.862645 1_554
Co3 O7 1.876400 1_555
Co3 O1 1.901265 1_555
Co3 O2 1.907249 1_554
Co3 O8 1.952005 1_565
Co3 O9 1.962501 1_554
