# generated using pymatgen
data_NaZnN
_symmetry_space_group_name_H-M   'P 1'
_cell_length_a   3.45036857
_cell_length_b   3.45036857
_cell_length_c   8.68722000
_cell_angle_alpha   90.00000000
_cell_angle_beta   90.00000000
_cell_angle_gamma   120.00001095
_symmetry_Int_Tables_number   1
_chemical_formula_structural   NaZnN
_chemical_formula_sum   'Na2 Zn2 N2'
_cell_volume   89.56583565
_cell_formula_units_Z   2
loop_
 _symmetry_equiv_pos_site_id
 _symmetry_equiv_pos_as_xyz
  1  'x, y, z'
loop_
 _atom_site_type_symbol
 _atom_site_label
 _atom_site_symmetry_multiplicity
 _atom_site_fract_x
 _atom_site_fract_y
 _atom_site_fract_z
 _atom_site_occupancy
  Na  Na0  1  0.66666700  0.33333300  0.76108600  1
  Na  Na1  1  0.33333300  0.66666700  0.26108600  1
  Zn  Zn0  1  0.00000000  0.00000000  0.53092400  1
  Zn  Zn1  1  0.00000000  0.00000000  0.03092400  1
  N  N0  1  0.33333300  0.66666700  0.55263000  1
  N  N1  1  0.66666700  0.33333300  0.05263000  1
loop_
_geom_bond_atom_site_label_1
_geom_bond_atom_site_label_2
_geom_bond_distance
_geom_bond_site_symmetry_2
N0 Zn0 2.000974 1_565
N0 Zn0 2.000977 1_665
N0 Zn0 2.000977 1_555
N0 Na1 2.532707 1_555
N0 Na0 2.692157 1_565
N0 Na0 2.692157 1_455
N0 Na0 2.692162 1_555
N1 Zn1 2.000974 1_655
N1 Zn1 2.000977 1_665
N1 Zn1 2.000977 1_555
N1 Na0 2.532707 1_554
N1 Na1 2.692157 1_545
N1 Na1 2.692157 1_655
N1 Na1 2.692162 1_555
