# generated using pymatgen
data_SrMg30CO32
_symmetry_space_group_name_H-M   'P 1'
_cell_length_a   8.58989000
_cell_length_b   8.58989000
_cell_length_c   8.59490000
_cell_angle_alpha   90.00000000
_cell_angle_beta   90.00000000
_cell_angle_gamma   90.00000000
_symmetry_Int_Tables_number   1
_chemical_formula_structural   SrMg30CO32
_chemical_formula_sum   'Sr1 Mg30 C1 O32'
_cell_volume   634.18509815
_cell_formula_units_Z   1
loop_
 _symmetry_equiv_pos_site_id
 _symmetry_equiv_pos_as_xyz
  1  'x, y, z'
loop_
 _atom_site_type_symbol
 _atom_site_label
 _atom_site_symmetry_multiplicity
 _atom_site_fract_x
 _atom_site_fract_y
 _atom_site_fract_z
 _atom_site_occupancy
  Sr  Sr0  1  0.00000000  0.00000000  0.00000000  1
  Mg  Mg0  1  0.00000000  0.50000000  0.00000000  1
  Mg  Mg1  1  0.50000000  0.00000000  0.00000000  1
  Mg  Mg2  1  0.00000000  0.00000000  0.50000000  1
  Mg  Mg3  1  0.00000000  0.50000000  0.50000000  1
  Mg  Mg4  1  0.50000000  0.00000000  0.50000000  1
  Mg  Mg5  1  0.50000000  0.50000000  0.50000000  1
  Mg  Mg6  1  0.25703800  0.25703800  0.00000000  1
  Mg  Mg7  1  0.25703800  0.74296200  0.00000000  1
  Mg  Mg8  1  0.74296200  0.25703800  0.00000000  1
  Mg  Mg9  1  0.74296200  0.74296200  0.00000000  1
  Mg  Mg10  1  0.25070800  0.25070800  0.50000000  1
  Mg  Mg11  1  0.25070800  0.74929200  0.50000000  1
  Mg  Mg12  1  0.74929200  0.25070800  0.50000000  1
  Mg  Mg13  1  0.74929200  0.74929200  0.50000000  1
  Mg  Mg14  1  0.00000000  0.25536800  0.25479900  1
  Mg  Mg15  1  0.00000000  0.74463200  0.25479900  1
  Mg  Mg16  1  0.50000000  0.25216900  0.24871500  1
  Mg  Mg17  1  0.50000000  0.74783100  0.24871500  1
  Mg  Mg18  1  0.00000000  0.25536800  0.74520100  1
  Mg  Mg19  1  0.00000000  0.74463200  0.74520100  1
  Mg  Mg20  1  0.50000000  0.25216900  0.75128500  1
  Mg  Mg21  1  0.50000000  0.74783100  0.75128500  1
  Mg  Mg22  1  0.25536800  0.00000000  0.25479900  1
  Mg  Mg23  1  0.25216900  0.50000000  0.24871500  1
  Mg  Mg24  1  0.74463200  0.00000000  0.25479900  1
  Mg  Mg25  1  0.74783100  0.50000000  0.24871500  1
  Mg  Mg26  1  0.25536800  0.00000000  0.74520100  1
  Mg  Mg27  1  0.25216900  0.50000000  0.75128500  1
  Mg  Mg28  1  0.74463200  0.00000000  0.74520100  1
  Mg  Mg29  1  0.74783100  0.50000000  0.75128500  1
  C  C0  1  0.50000000  0.50000000  0.00000000  1
  O  O0  1  0.00000000  0.00000000  0.27005000  1
  O  O1  1  0.00000000  0.50000000  0.25335100  1
  O  O2  1  0.50000000  0.00000000  0.25335100  1
  O  O3  1  0.50000000  0.50000000  0.25248700  1
  O  O4  1  0.00000000  0.00000000  0.72995000  1
  O  O5  1  0.00000000  0.50000000  0.74664900  1
  O  O6  1  0.50000000  0.00000000  0.74664900  1
  O  O7  1  0.50000000  0.50000000  0.74751300  1
  O  O8  1  0.25030700  0.25030700  0.24918800  1
  O  O9  1  0.25030700  0.74969300  0.24918800  1
  O  O10  1  0.74969300  0.25030700  0.24918800  1
  O  O11  1  0.74969300  0.74969300  0.24918800  1
  O  O12  1  0.25030700  0.25030700  0.75081200  1
  O  O13  1  0.25030700  0.74969300  0.75081200  1
  O  O14  1  0.74969300  0.25030700  0.75081200  1
  O  O15  1  0.74969300  0.74969300  0.75081200  1
  O  O16  1  0.00000000  0.27046300  0.00000000  1
  O  O17  1  0.00000000  0.72953700  0.00000000  1
  O  O18  1  0.50000000  0.25198500  0.00000000  1
  O  O19  1  0.50000000  0.74801500  0.00000000  1
  O  O20  1  0.00000000  0.25392300  0.50000000  1
  O  O21  1  0.00000000  0.74607700  0.50000000  1
  O  O22  1  0.50000000  0.25154900  0.50000000  1
  O  O23  1  0.50000000  0.74845100  0.50000000  1
  O  O24  1  0.27046300  0.00000000  0.00000000  1
  O  O25  1  0.25198500  0.50000000  0.00000000  1
  O  O26  1  0.72953700  0.00000000  0.00000000  1
  O  O27  1  0.74801500  0.50000000  0.00000000  1
  O  O28  1  0.25392300  0.00000000  0.50000000  1
  O  O29  1  0.25154900  0.50000000  0.50000000  1
  O  O30  1  0.74607700  0.00000000  0.50000000  1
  O  O31  1  0.74845100  0.50000000  0.50000000  1
loop_
_geom_bond_atom_site_label_1
_geom_bond_atom_site_label_2
_geom_bond_distance
_geom_bond_site_symmetry_2
Mg0 O17 1.971698 1_555
Mg0 O16 1.971698 1_555
Mg0 O27 2.164523 1_455
Mg0 O25 2.164523 1_555
Mg0 O5 2.177527 1_554
Mg0 O1 2.177527 1_555
Mg1 O24 1.971698 1_555
Mg1 O26 1.971698 1_555
Mg1 O19 2.164523 1_545
Mg1 O18 2.164523 1_555
Mg1 O2 2.177527 1_555
Mg1 O6 2.177527 1_554
Mg2 O0 1.976397 1_555
Mg2 O4 1.976397 1_555
Mg2 O28 2.181171 1_555
Mg2 O30 2.181171 1_455
Mg2 O21 2.181171 1_545
Mg2 O20 2.181171 1_555
Mg3 O21 2.113774 1_555
Mg3 O20 2.113774 1_555
Mg3 O5 2.119923 1_555
Mg3 O1 2.119923 1_555
Mg3 O29 2.160778 1_555
Mg3 O31 2.160778 1_455
Mg4 O28 2.113774 1_555
Mg4 O30 2.113774 1_555
Mg4 O2 2.119923 1_555
Mg4 O6 2.119923 1_555
Mg4 O23 2.160778 1_545
Mg4 O22 2.160778 1_555
Mg5 O3 2.127349 1_555
Mg5 O7 2.127349 1_555
Mg5 O29 2.134167 1_555
Mg5 O31 2.134167 1_555
Mg5 O22 2.134167 1_555
Mg5 O23 2.134167 1_555
Mg6 O25 2.087468 1_555
Mg6 O18 2.087468 1_555
Mg6 O12 2.143306 1_554
Mg6 O8 2.143306 1_555
Mg6 O24 2.210938 1_555
Mg6 O16 2.210938 1_555
Mg7 O25 2.087468 1_555
Mg7 O19 2.087468 1_555
Mg7 O9 2.143306 1_555
Mg7 O13 2.143306 1_554
Mg7 O17 2.210938 1_555
Mg7 O24 2.210938 1_565
Mg8 O18 2.087468 1_555
Mg8 O27 2.087468 1_555
Mg8 O10 2.143306 1_555
Mg8 O14 2.143306 1_554
Mg8 O26 2.210938 1_555
Mg8 O16 2.210938 1_655
Mg9 O19 2.087468 1_555
Mg9 O27 2.087468 1_555
Mg9 O15 2.143306 1_554
Mg9 O11 2.143306 1_555
Mg9 O26 2.210938 1_565
Mg9 O17 2.210938 1_655
Mg10 O22 2.141403 1_555
Mg10 O29 2.141403 1_555
Mg10 O20 2.153731 1_555
Mg10 O28 2.153731 1_555
Mg10 O12 2.155710 1_555
Mg10 O8 2.155710 1_555
Mg11 O29 2.141403 1_555
Mg11 O23 2.141403 1_555
Mg11 O21 2.153731 1_555
Mg11 O28 2.153731 1_565
Mg11 O13 2.155710 1_555
Mg11 O9 2.155710 1_555
Mg12 O22 2.141403 1_555
Mg12 O31 2.141403 1_555
Mg12 O30 2.153731 1_555
Mg12 O20 2.153731 1_655
Mg12 O10 2.155710 1_555
Mg12 O14 2.155710 1_555
Mg13 O31 2.141403 1_555
Mg13 O23 2.141403 1_555
Mg13 O30 2.153731 1_565
Mg13 O21 2.153731 1_655
Mg13 O11 2.155710 1_555
Mg13 O15 2.155710 1_555
Mg14 O1 2.101399 1_555
Mg14 O20 2.107515 1_555
Mg14 O10 2.151090 1_455
Mg14 O8 2.151090 1_555
Mg14 O16 2.193807 1_555
Mg14 O0 2.197496 1_555
Mg15 O1 2.101399 1_555
Mg15 O21 2.107515 1_555
Mg15 O11 2.151090 1_455
Mg15 O9 2.151090 1_555
Mg15 O17 2.193807 1_555
Mg15 O0 2.197496 1_565
Mg16 O3 2.129088 1_555
Mg16 O18 2.137681 1_555
Mg16 O8 2.144899 1_555
Mg16 O10 2.144899 1_555
Mg16 O22 2.159776 1_555
Mg16 O2 2.166470 1_555
Mg17 O3 2.129088 1_555
Mg17 O19 2.137681 1_555
Mg17 O9 2.144899 1_555
Mg17 O11 2.144899 1_555
Mg17 O23 2.159776 1_555
Mg17 O2 2.166470 1_565
Mg18 O5 2.101399 1_555
Mg18 O20 2.107515 1_555
Mg18 O14 2.151090 1_455
Mg18 O12 2.151090 1_555
Mg18 O16 2.193807 1_556
Mg18 O4 2.197496 1_555
Mg19 O5 2.101399 1_555
Mg19 O21 2.107515 1_555
Mg19 O15 2.151090 1_455
Mg19 O13 2.151090 1_555
Mg19 O17 2.193807 1_556
Mg19 O4 2.197496 1_565
Mg20 O7 2.129088 1_555
Mg20 O18 2.137681 1_556
Mg20 O12 2.144899 1_555
Mg20 O14 2.144899 1_555
Mg20 O22 2.159776 1_555
Mg20 O6 2.166470 1_555
Mg21 O7 2.129088 1_555
Mg21 O19 2.137681 1_556
Mg21 O13 2.144899 1_555
Mg21 O15 2.144899 1_555
Mg21 O23 2.159776 1_555
Mg21 O6 2.166470 1_565
Mg22 O2 2.101399 1_555
Mg22 O28 2.107515 1_555
Mg22 O9 2.151090 1_545
Mg22 O8 2.151090 1_555
Mg22 O24 2.193807 1_555
Mg22 O0 2.197496 1_555
Mg23 O3 2.129088 1_555
Mg23 O25 2.137681 1_555
Mg23 O8 2.144899 1_555
Mg23 O9 2.144899 1_555
Mg23 O29 2.159776 1_555
Mg23 O1 2.166470 1_555
Mg24 O2 2.101399 1_555
Mg24 O30 2.107515 1_555
Mg24 O11 2.151090 1_545
Mg24 O10 2.151090 1_555
Mg24 O26 2.193807 1_555
Mg24 O0 2.197496 1_655
Mg25 O3 2.129088 1_555
Mg25 O27 2.137681 1_555
Mg25 O10 2.144899 1_555
Mg25 O11 2.144899 1_555
Mg25 O31 2.159776 1_555
Mg25 O1 2.166470 1_655
Mg26 O6 2.101399 1_555
Mg26 O28 2.107515 1_555
Mg26 O13 2.151090 1_545
Mg26 O12 2.151090 1_555
Mg26 O24 2.193807 1_556
Mg26 O4 2.197496 1_555
Mg27 O7 2.129088 1_555
Mg27 O25 2.137681 1_556
Mg27 O12 2.144899 1_555
Mg27 O13 2.144899 1_555
Mg27 O29 2.159776 1_555
Mg27 O5 2.166470 1_555
Mg28 O6 2.101399 1_555
Mg28 O30 2.107515 1_555
Mg28 O15 2.151090 1_545
Mg28 O14 2.151090 1_555
Mg28 O26 2.193807 1_556
Mg28 O4 2.197496 1_655
Mg29 O7 2.129088 1_555
Mg29 O27 2.137681 1_556
Mg29 O14 2.144899 1_555
Mg29 O15 2.144899 1_555
Mg29 O31 2.159776 1_555
Mg29 O5 2.166470 1_655
C0 O19 2.130422 1_555
C0 O27 2.130422 1_555
C0 O25 2.130422 1_555
C0 O18 2.130422 1_555
C0 O3 2.170101 1_555
C0 O7 2.170101 1_554
O0 Sr0 2.321053 1_555
O4 Sr0 2.321053 1_556
O16 Sr0 2.323247 1_555
O17 Sr0 2.323247 1_565
O24 Sr0 2.323247 1_555
O26 Sr0 2.323247 1_655
