# generated using pymatgen
data_TaPRu
_symmetry_space_group_name_H-M   'P 1'
_cell_length_a   3.71472673
_cell_length_b   6.30530345
_cell_length_c   7.16321599
_cell_angle_alpha   90.00000000
_cell_angle_beta   90.00000000
_cell_angle_gamma   90.00000000
_symmetry_Int_Tables_number   1
_chemical_formula_structural   TaPRu
_chemical_formula_sum   'Ta4 P4 Ru4'
_cell_volume   167.78027801
_cell_formula_units_Z   4
loop_
 _symmetry_equiv_pos_site_id
 _symmetry_equiv_pos_as_xyz
  1  'x, y, z'
loop_
 _atom_site_type_symbol
 _atom_site_label
 _atom_site_symmetry_multiplicity
 _atom_site_fract_x
 _atom_site_fract_y
 _atom_site_fract_z
 _atom_site_occupancy
  Ta  Ta0  1  0.75000000  0.47573019  0.67181164  1
  Ta  Ta1  1  0.75000000  0.97573119  0.82818836  1
  Ta  Ta2  1  0.25000000  0.52426881  0.32818836  1
  Ta  Ta3  1  0.25000000  0.02426881  0.17181164  1
  P  P0  1  0.75000000  0.73195328  0.12480286  1
  P  P1  1  0.75000000  0.23195328  0.37519714  1
  P  P2  1  0.25000000  0.26804672  0.87519714  1
  P  P3  1  0.25000000  0.76804672  0.62480286  1
  Ru  Ru0  1  0.75000000  0.35473934  0.06357902  1
  Ru  Ru1  1  0.75000000  0.85473934  0.43642098  1
  Ru  Ru2  1  0.25000000  0.64526066  0.93642098  1
  Ru  Ru3  1  0.25000000  0.14526066  0.56357902  1
loop_
_geom_bond_atom_site_label_1
_geom_bond_atom_site_label_2
_geom_bond_distance
_geom_bond_site_symmetry_2
P0 Ru2 2.359985 1_654
P0 Ru2 2.359985 1_554
P0 Ru1 2.362637 1_555
P0 Ru0 2.418543 1_555
P0 Ta1 2.622416 1_554
P0 Ta3 2.638247 1_565
P0 Ta3 2.638247 1_665
P0 Ta2 2.699475 1_655
P0 Ta2 2.699475 1_555
P1 Ru3 2.359985 1_655
P1 Ru3 2.359985 1_555
P1 Ru0 2.362637 1_555
P1 Ru1 2.418543 1_545
P1 Ta0 2.622412 1_555
P1 Ta2 2.638247 1_555
P1 Ta2 2.638247 1_655
P1 Ta3 2.699475 1_555
P1 Ta3 2.699475 1_655
P2 Ru0 2.359985 1_556
P2 Ru0 2.359985 1_456
P2 Ru3 2.362637 1_555
P2 Ru2 2.418543 1_555
P2 Ta3 2.622416 1_556
P2 Ta1 2.638247 1_445
P2 Ta1 2.638247 1_545
P2 Ta0 2.699472 1_455
P2 Ta0 2.699472 1_555
P3 Ru1 2.359985 1_455
P3 Ru1 2.359985 1_555
P3 Ru2 2.362637 1_555
P3 Ru3 2.418543 1_565
P3 Ta2 2.622416 1_555
P3 Ta0 2.638251 1_455
P3 Ta0 2.638251 1_555
P3 Ta1 2.699475 1_455
P3 Ta1 2.699475 1_555
Ru0 Ru2 2.763159 1_554
Ru0 Ru2 2.763159 1_654
Ru0 Ta2 2.860973 1_655
Ru0 Ta2 2.860973 1_555
Ru0 Ta3 2.897025 1_655
Ru0 Ta3 2.897025 1_555
Ru0 Ta0 2.908160 1_554
Ru0 Ta1 2.924735 1_544
Ru1 Ru3 2.763159 1_665
Ru1 Ru3 2.763159 1_565
Ru1 Ta3 2.860973 1_565
Ru1 Ta3 2.860973 1_665
Ru1 Ta2 2.897025 1_555
Ru1 Ta2 2.897025 1_655
Ru1 Ta1 2.908161 1_555
Ru1 Ta0 2.924740 1_555
Ru2 Ta0 2.860975 1_455
Ru2 Ta0 2.860975 1_555
Ru2 Ta1 2.897025 1_555
Ru2 Ta1 2.897025 1_455
Ru2 Ta2 2.908161 1_556
Ru2 Ta3 2.924735 1_566
Ru3 Ta1 2.860973 1_545
Ru3 Ta1 2.860973 1_445
Ru3 Ta0 2.897021 1_455
Ru3 Ta0 2.897021 1_555
Ru3 Ta3 2.908161 1_555
Ru3 Ta2 2.924735 1_555
