# generated using pymatgen
data_Pr4Co
_symmetry_space_group_name_H-M   'P 1'
_cell_length_a   7.86058930
_cell_length_b   7.86058930
_cell_length_c   7.86058930
_cell_angle_alpha   60.00000000
_cell_angle_beta   60.00000000
_cell_angle_gamma   60.00000000
_symmetry_Int_Tables_number   1
_chemical_formula_structural   Pr4Co
_chemical_formula_sum   'Pr8 Co2'
_cell_volume   343.43956086
_cell_formula_units_Z   2
loop_
 _symmetry_equiv_pos_site_id
 _symmetry_equiv_pos_as_xyz
  1  'x, y, z'
loop_
 _atom_site_type_symbol
 _atom_site_label
 _atom_site_symmetry_multiplicity
 _atom_site_fract_x
 _atom_site_fract_y
 _atom_site_fract_z
 _atom_site_occupancy
  Pr  Pr0  1  0.38416100  0.38416100  0.38416100  1
  Pr  Pr1  1  0.38416100  0.38416100  0.84751700  1
  Pr  Pr2  1  0.38416100  0.84751700  0.38416100  1
  Pr  Pr3  1  0.86583900  0.86583900  0.40248300  1
  Pr  Pr4  1  0.86583900  0.86583900  0.86583900  1
  Pr  Pr5  1  0.84751700  0.38416100  0.38416100  1
  Pr  Pr6  1  0.86583900  0.40248300  0.86583900  1
  Pr  Pr7  1  0.40248300  0.86583900  0.86583900  1
  Co  Co0  1  0.00000000  0.00000000  0.00000000  1
  Co  Co1  1  0.25000000  0.25000000  0.25000000  1
loop_
_geom_bond_atom_site_label_1
_geom_bond_atom_site_label_2
_geom_bond_distance
_geom_bond_site_symmetry_2
Co0 Pr4 2.583194 1_444
Co0 Pr3 2.583194 1_445
Co0 Pr7 2.583194 1_544
Co0 Pr6 2.583194 1_454
Co1 Pr0 2.583194 1_555
Co1 Pr5 2.583194 1_455
Co1 Pr1 2.583194 1_554
Co1 Pr2 2.583194 1_545
