# generated using pymatgen
data_Mg3Cu2(GeO4)3
_symmetry_space_group_name_H-M   'P 1'
_cell_length_a   10.38337786
_cell_length_b   10.38337786
_cell_length_c   10.38337786
_cell_angle_alpha   109.47122063
_cell_angle_beta   109.47122063
_cell_angle_gamma   109.47122063
_symmetry_Int_Tables_number   1
_chemical_formula_structural   Mg3Cu2(GeO4)3
_chemical_formula_sum   'Mg12 Cu8 Ge12 O48'
_cell_volume   861.77538404
_cell_formula_units_Z   4
loop_
 _symmetry_equiv_pos_site_id
 _symmetry_equiv_pos_as_xyz
  1  'x, y, z'
loop_
 _atom_site_type_symbol
 _atom_site_label
 _atom_site_symmetry_multiplicity
 _atom_site_fract_x
 _atom_site_fract_y
 _atom_site_fract_z
 _atom_site_occupancy
  Mg  Mg0  1  0.25000000  0.87500000  0.62500000  1
  Mg  Mg1  1  0.75000000  0.62500000  0.87500000  1
  Mg  Mg2  1  0.62500000  0.87500000  0.75000000  1
  Mg  Mg3  1  0.87500000  0.62500000  0.25000000  1
  Mg  Mg4  1  0.62500000  0.25000000  0.87500000  1
  Mg  Mg5  1  0.87500000  0.75000000  0.62500000  1
  Mg  Mg6  1  0.75000000  0.12500000  0.37500000  1
  Mg  Mg7  1  0.25000000  0.37500000  0.12500000  1
  Mg  Mg8  1  0.37500000  0.12500000  0.25000000  1
  Mg  Mg9  1  0.12500000  0.37500000  0.75000000  1
  Mg  Mg10  1  0.37500000  0.75000000  0.12500000  1
  Mg  Mg11  1  0.12500000  0.25000000  0.37500000  1
  Cu  Cu0  1  0.50000000  0.50000000  0.50000000  1
  Cu  Cu1  1  0.50000000  0.00000000  0.50000000  1
  Cu  Cu2  1  0.00000000  0.50000000  0.50000000  1
  Cu  Cu3  1  0.50000000  0.50000000  0.00000000  1
  Cu  Cu4  1  0.00000000  0.00000000  0.50000000  1
  Cu  Cu5  1  0.00000000  0.50000000  0.00000000  1
  Cu  Cu6  1  0.50000000  0.00000000  0.00000000  1
  Cu  Cu7  1  0.00000000  0.00000000  0.00000000  1
  Ge  Ge0  1  0.12500000  0.75000000  0.87500000  1
  Ge  Ge1  1  0.87500000  0.25000000  0.12500000  1
  Ge  Ge2  1  0.62500000  0.37500000  0.25000000  1
  Ge  Ge3  1  0.75000000  0.87500000  0.12500000  1
  Ge  Ge4  1  0.87500000  0.12500000  0.75000000  1
  Ge  Ge5  1  0.25000000  0.62500000  0.37500000  1
  Ge  Ge6  1  0.75000000  0.37500000  0.62500000  1
  Ge  Ge7  1  0.25000000  0.12500000  0.87500000  1
  Ge  Ge8  1  0.12500000  0.87500000  0.25000000  1
  Ge  Ge9  1  0.37500000  0.62500000  0.75000000  1
  Ge  Ge10  1  0.62500000  0.75000000  0.37500000  1
  Ge  Ge11  1  0.37500000  0.25000000  0.62500000  1
  O  O0  1  0.41849000  0.81925300  0.78955800  1
  O  O1  1  0.87106800  0.40076300  0.08151000  1
  O  O2  1  0.09923700  0.97030500  0.68074700  1
  O  O3  1  0.52969500  0.62893200  0.71044200  1
  O  O4  1  0.68074700  0.08151000  0.71044200  1
  O  O5  1  0.62893200  0.71044200  0.52969500  1
  O  O6  1  0.62893200  0.41849000  0.09923700  1
  O  O7  1  0.71044200  0.52969500  0.62893200  1
  O  O8  1  0.81925300  0.52969500  0.40076300  1
  O  O9  1  0.97030500  0.78955800  0.87106800  1
  O  O10  1  0.78955800  0.87106800  0.97030500  1
  O  O11  1  0.71044200  0.68074700  0.08151000  1
  O  O12  1  0.41849000  0.09923700  0.62893200  1
  O  O13  1  0.40076300  0.81925300  0.52969500  1
  O  O14  1  0.08151000  0.71044200  0.68074700  1
  O  O15  1  0.09923700  0.62893200  0.41849000  1
  O  O16  1  0.52969500  0.40076300  0.81925300  1
  O  O17  1  0.08151000  0.87106800  0.40076300  1
  O  O18  1  0.97030500  0.68074700  0.09923700  1
  O  O19  1  0.18074700  0.47030500  0.59923700  1
  O  O20  1  0.68074700  0.09923700  0.97030500  1
  O  O21  1  0.78955800  0.41849000  0.81925300  1
  O  O22  1  0.40076300  0.08151000  0.87106800  1
  O  O23  1  0.87106800  0.97030500  0.78955800  1
  O  O24  1  0.58151000  0.18074700  0.21044200  1
  O  O25  1  0.12893200  0.59923700  0.91849000  1
  O  O26  1  0.90076300  0.02969500  0.31925300  1
  O  O27  1  0.47030500  0.37106800  0.28955800  1
  O  O28  1  0.31925300  0.91849000  0.28955800  1
  O  O29  1  0.37106800  0.28955800  0.47030500  1
  O  O30  1  0.37106800  0.58151000  0.90076300  1
  O  O31  1  0.28955800  0.47030500  0.37106800  1
  O  O32  1  0.12893200  0.02969500  0.21044200  1
  O  O33  1  0.59923700  0.91849000  0.12893200  1
  O  O34  1  0.21044200  0.58151000  0.18074700  1
  O  O35  1  0.18074700  0.21044200  0.58151000  1
  O  O36  1  0.31925300  0.90076300  0.02969500  1
  O  O37  1  0.02969500  0.31925300  0.90076300  1
  O  O38  1  0.91849000  0.12893200  0.59923700  1
  O  O39  1  0.47030500  0.59923700  0.18074700  1
  O  O40  1  0.90076300  0.37106800  0.58151000  1
  O  O41  1  0.91849000  0.28955800  0.31925300  1
  O  O42  1  0.59923700  0.18074700  0.47030500  1
  O  O43  1  0.58151000  0.90076300  0.37106800  1
  O  O44  1  0.28955800  0.31925300  0.91849000  1
  O  O45  1  0.21044200  0.12893200  0.02969500  1
  O  O46  1  0.02969500  0.21044200  0.12893200  1
  O  O47  1  0.81925300  0.78955800  0.41849000  1
loop_
_geom_bond_atom_site_label_1
_geom_bond_atom_site_label_2
_geom_bond_distance
_geom_bond_site_symmetry_2
Mg0 O2 2.240508 1_555
Mg0 O13 2.240508 1_555
Mg0 O22 2.240508 1_565
Mg0 O15 2.240508 1_555
Mg0 O0 2.378435 1_555
Mg0 O12 2.378435 1_565
Mg0 O17 2.378435 1_555
Mg0 O14 2.378435 1_555
Mg1 O7 2.240508 1_555
Mg1 O10 2.240508 1_555
Mg1 O11 2.240508 1_556
Mg1 O21 2.240508 1_555
Mg1 O9 2.378435 1_555
Mg1 O16 2.378435 1_555
Mg1 O3 2.378435 1_555
Mg1 O18 2.378435 1_556
Mg2 O3 2.240508 1_555
Mg2 O23 2.240508 1_555
Mg2 O4 2.240508 1_565
Mg2 O0 2.240508 1_555
Mg2 O5 2.378435 1_555
Mg2 O10 2.378435 1_555
Mg2 O13 2.378435 1_555
Mg2 O20 2.378435 1_565
Mg3 O18 2.240508 1_555
Mg3 O8 2.240508 1_555
Mg3 O17 2.240508 1_655
Mg3 O6 2.240508 1_555
Mg3 O11 2.378435 1_555
Mg3 O47 2.378435 1_555
Mg3 O1 2.378435 1_555
Mg3 O15 2.378435 1_655
Mg4 O16 2.240508 1_555
Mg4 O12 2.240508 1_555
Mg4 O1 2.240508 1_556
Mg4 O20 2.240508 1_555
Mg4 O4 2.378435 1_555
Mg4 O21 2.378435 1_555
Mg4 O6 2.378435 1_556
Mg4 O22 2.378435 1_555
Mg5 O14 2.240508 1_655
Mg5 O5 2.240508 1_555
Mg5 O9 2.240508 1_555
Mg5 O47 2.240508 1_555
Mg5 O7 2.378435 1_555
Mg5 O2 2.378435 1_655
Mg5 O23 2.378435 1_555
Mg5 O8 2.378435 1_555
Mg6 O42 2.240508 1_555
Mg6 O26 2.240508 1_555
Mg6 O33 2.240508 1_545
Mg6 O40 2.240508 1_555
Mg6 O38 2.378435 1_555
Mg6 O41 2.378435 1_555
Mg6 O43 2.378435 1_545
Mg6 O24 2.378435 1_555
Mg7 O44 2.240508 1_554
Mg7 O34 2.240508 1_555
Mg7 O31 2.240508 1_555
Mg7 O45 2.240508 1_555
Mg7 O27 2.378435 1_555
Mg7 O39 2.378435 1_555
Mg7 O37 2.378435 1_554
Mg7 O46 2.378435 1_555
Mg8 O24 2.240508 1_555
Mg8 O28 2.240508 1_545
Mg8 O32 2.240508 1_555
Mg8 O27 2.240508 1_555
Mg8 O29 2.378435 1_555
Mg8 O45 2.378435 1_555
Mg8 O42 2.378435 1_555
Mg8 O36 2.378435 1_545
Mg9 O19 2.240508 1_555
Mg9 O38 2.240508 1_455
Mg9 O37 2.240508 1_555
Mg9 O30 2.240508 1_555
Mg9 O44 2.378435 1_555
Mg9 O35 2.378435 1_555
Mg9 O25 2.378435 1_555
Mg9 O40 2.378435 1_455
Mg10 O39 2.240508 1_555
Mg10 O36 2.240508 1_555
Mg10 O43 2.240508 1_555
Mg10 O25 2.240508 1_554
Mg10 O28 2.378435 1_555
Mg10 O30 2.378435 1_554
Mg10 O33 2.378435 1_555
Mg10 O34 2.378435 1_555
Mg11 O41 2.240508 1_455
Mg11 O35 2.240508 1_555
Mg11 O29 2.240508 1_555
Mg11 O46 2.240508 1_555
Mg11 O31 2.378435 1_555
Mg11 O26 2.378435 1_455
Mg11 O19 2.378435 1_555
Mg11 O32 2.378435 1_555
Cu0 O29 1.996855 1_555
Cu0 O27 1.996855 1_555
Cu0 O5 1.996855 1_555
Cu0 O7 1.996855 1_555
Cu0 O31 1.996855 1_555
Cu0 O3 1.996855 1_555
Cu1 O43 1.996855 1_545
Cu1 O4 1.996855 1_555
Cu1 O42 1.996855 1_555
Cu1 O13 1.996855 1_545
Cu1 O28 1.996855 1_545
Cu1 O12 1.996855 1_555
Cu2 O40 1.996855 1_455
Cu2 O41 1.996855 1_455
Cu2 O14 1.996855 1_555
Cu2 O19 1.996855 1_555
Cu2 O8 1.996855 1_455
Cu2 O15 1.996855 1_555
Cu3 O30 1.996855 1_554
Cu3 O16 1.996855 1_554
Cu3 O39 1.996855 1_555
Cu3 O44 1.996855 1_554
Cu3 O11 1.996855 1_555
Cu3 O6 1.996855 1_555
Cu4 O38 1.996855 1_455
Cu4 O26 1.996855 1_455
Cu4 O2 1.996855 1_545
Cu4 O35 1.996855 1_555
Cu4 O47 1.996855 1_445
Cu4 O17 1.996855 1_545
Cu5 O34 1.996855 1_555
Cu5 O25 1.996855 1_554
Cu5 O37 1.996855 1_554
Cu5 O21 1.996855 1_454
Cu5 O1 1.996855 1_455
Cu5 O18 1.996855 1_455
Cu6 O24 1.996855 1_555
Cu6 O0 1.996855 1_544
Cu6 O36 1.996855 1_545
Cu6 O33 1.996855 1_545
Cu6 O20 1.996855 1_554
Cu6 O22 1.996855 1_554
Cu7 O32 1.996855 1_555
Cu7 O45 1.996855 1_555
Cu7 O46 1.996855 1_555
Cu7 O9 1.996855 1_444
Cu7 O23 1.996855 1_444
Cu7 O10 1.996855 1_444
Ge0 O25 1.777004 1_555
Ge0 O36 1.777004 1_556
Ge0 O9 1.777004 1_455
Ge0 O14 1.777004 1_555
Ge1 O1 1.777004 1_555
Ge1 O46 1.777004 1_655
Ge1 O20 1.777004 1_554
Ge1 O41 1.777004 1_555
Ge2 O6 1.777004 1_555
Ge2 O24 1.777004 1_555
Ge2 O8 1.777004 1_555
Ge2 O27 1.777004 1_555
Ge3 O33 1.777004 1_555
Ge3 O10 1.777004 1_554
Ge3 O11 1.777004 1_555
Ge3 O26 1.777004 1_565
Ge4 O38 1.777004 1_555
Ge4 O23 1.777004 1_545
Ge4 O37 1.777004 1_655
Ge4 O4 1.777004 1_555
Ge5 O15 1.777004 1_555
Ge5 O13 1.777004 1_555
Ge5 O34 1.777004 1_555
Ge5 O31 1.777004 1_555
Ge6 O21 1.777004 1_555
Ge6 O7 1.777004 1_555
Ge6 O42 1.777004 1_555
Ge6 O40 1.777004 1_555
Ge7 O22 1.777004 1_555
Ge7 O2 1.777004 1_545
Ge7 O44 1.777004 1_555
Ge7 O45 1.777004 1_556
Ge8 O17 1.777004 1_555
Ge8 O28 1.777004 1_555
Ge8 O18 1.777004 1_455
Ge8 O32 1.777004 1_565
Ge9 O30 1.777004 1_555
Ge9 O3 1.777004 1_555
Ge9 O19 1.777004 1_555
Ge9 O0 1.777004 1_555
Ge10 O43 1.777004 1_555
Ge10 O39 1.777004 1_555
Ge10 O5 1.777004 1_555
Ge10 O47 1.777004 1_555
Ge11 O12 1.777004 1_555
Ge11 O16 1.777004 1_555
Ge11 O35 1.777004 1_555
Ge11 O29 1.777004 1_555
