# generated using pymatgen
data_U3Ga2Si3
_symmetry_space_group_name_H-M   'P 1'
_cell_length_a   7.64890962
_cell_length_b   7.64890962
_cell_length_c   7.64890962
_cell_angle_alpha   120.44438028
_cell_angle_beta   120.44438028
_cell_angle_gamma   89.23201877
_symmetry_Int_Tables_number   1
_chemical_formula_structural   U3Ga2Si3
_chemical_formula_sum   'U6 Ga4 Si6'
_cell_volume   314.27829174
_cell_formula_units_Z   2
loop_
 _symmetry_equiv_pos_site_id
 _symmetry_equiv_pos_as_xyz
  1  'x, y, z'
loop_
 _atom_site_type_symbol
 _atom_site_label
 _atom_site_symmetry_multiplicity
 _atom_site_fract_x
 _atom_site_fract_y
 _atom_site_fract_z
 _atom_site_occupancy
  U  U0  1  0.36569400  0.17700600  0.50000000  1
  U  U1  1  0.67700600  0.86569400  0.50000000  1
  U  U2  1  0.17700600  0.67700600  0.81131200  1
  U  U3  1  0.86569400  0.36569400  0.18868800  1
  U  U4  1  0.74831200  0.74831200  0.00000000  1
  U  U5  1  0.24831200  0.24831200  0.00000000  1
  Ga  Ga0  1  0.68777700  0.47218600  0.50000000  1
  Ga  Ga1  1  0.97218600  0.18777700  0.50000000  1
  Ga  Ga2  1  0.47218600  0.97218600  0.78441000  1
  Ga  Ga3  1  0.18777700  0.68777700  0.21559000  1
  Si  Si0  1  0.35115600  0.55893300  0.50000000  1
  Si  Si1  1  0.05893300  0.85115600  0.50000000  1
  Si  Si2  1  0.55893300  0.05893300  0.20777600  1
  Si  Si3  1  0.85115600  0.35115600  0.79222400  1
  Si  Si4  1  0.99844700  0.99844700  0.00000000  1
  Si  Si5  1  0.49844700  0.49844700  0.00000000  1
loop_
_geom_bond_atom_site_label_1
_geom_bond_atom_site_label_2
_geom_bond_distance
_geom_bond_site_symmetry_2
Ga0 Si2 2.578760 1_555
Ga0 Si3 2.578766 1_555
Ga0 Si0 2.650278 1_555
Ga0 U1 3.009930 1_555
Ga0 U4 3.057378 1_556
Ga0 U5 3.057378 1_555
Ga0 U3 3.078016 1_555
Ga0 U2 3.078016 1_655
Ga1 Si2 2.578760 1_555
Ga1 Si3 2.578766 1_555
Ga1 Si1 2.650278 1_645
Ga1 U0 3.009930 1_655
Ga1 U4 3.057378 1_545
Ga1 U5 3.057378 1_656
Ga1 U2 3.078016 1_655
Ga1 U3 3.078016 1_555
Ga2 Si0 2.578760 1_555
Ga2 Si1 2.578760 1_555
Ga2 Si2 2.650263 1_566
Ga2 U3 3.009930 1_566
Ga2 U4 3.057374 1_556
Ga2 U5 3.057374 1_566
Ga2 U0 3.078023 1_565
Ga2 U1 3.078023 1_555
Ga3 Si0 2.578766 1_555
Ga3 Si1 2.578766 1_555
Ga3 Si3 2.650274 1_454
Ga3 U2 3.009923 1_554
Ga3 U5 3.057377 1_555
Ga3 U4 3.057377 1_455
Ga3 U0 3.078015 1_565
Ga3 U1 3.078015 1_555
Si0 U0 2.921951 1_555
Si0 U4 2.946719 1_556
Si0 U5 2.946719 1_555
Si0 U3 3.043505 1_455
Si0 U2 3.043505 1_555
Si1 U1 2.921951 1_455
Si1 U4 2.946719 1_455
Si1 U5 2.946719 1_566
Si1 U3 3.043505 1_455
Si1 U2 3.043505 1_555
Si2 U2 2.921951 1_544
Si2 U4 2.946716 1_545
Si2 U5 2.946716 1_555
Si2 U0 3.043512 1_555
Si2 U1 3.043512 1_545
Si3 U3 2.921943 1_556
Si3 U4 2.946718 1_556
Si3 U5 2.946718 1_656
Si3 U0 3.043504 1_555
Si3 U1 3.043504 1_545
Si4 U5 2.720891 1_665
Si4 U4 2.723831 1_555
Si4 U2 2.881830 1_654
Si4 U3 2.881830 1_565
Si4 U1 2.881830 1_554
Si4 U0 2.881830 1_665
Si5 U4 2.720891 1_555
Si5 U5 2.723831 1_555
Si5 U1 2.881830 1_555
Si5 U3 2.881830 1_555
Si5 U2 2.881830 1_554
Si5 U0 2.881830 1_554
