# generated using pymatgen
data_Na5SrNbAs4
_symmetry_space_group_name_H-M   'P 1'
_cell_length_a   9.61447722
_cell_length_b   9.61447722
_cell_length_c   7.55924342
_cell_angle_alpha   89.98244024
_cell_angle_beta   89.98244024
_cell_angle_gamma   120.10762922
_symmetry_Int_Tables_number   1
_chemical_formula_structural   Na5SrNbAs4
_chemical_formula_sum   'Na10 Sr2 Nb2 As8'
_cell_volume   604.48871305
_cell_formula_units_Z   2
loop_
 _symmetry_equiv_pos_site_id
 _symmetry_equiv_pos_as_xyz
  1  'x, y, z'
loop_
 _atom_site_type_symbol
 _atom_site_label
 _atom_site_symmetry_multiplicity
 _atom_site_fract_x
 _atom_site_fract_y
 _atom_site_fract_z
 _atom_site_occupancy
  Na  Na0  1  0.53132800  0.47299900  0.61572300  1
  Na  Na1  1  0.94132500  0.47205900  0.61565400  1
  Na  Na2  1  0.47299900  0.53132800  0.11572300  1
  Na  Na3  1  0.47205900  0.94132500  0.11565400  1
  Na  Na4  1  0.13843500  0.85434200  0.78353900  1
  Na  Na5  1  0.71356300  0.85154700  0.78777900  1
  Na  Na6  1  0.14492400  0.28734300  0.77999600  1
  Na  Na7  1  0.85434200  0.13843500  0.28353900  1
  Na  Na8  1  0.28734300  0.14492400  0.27999600  1
  Na  Na9  1  0.85154700  0.71356300  0.28777900  1
  Sr  Sr0  1  0.53126300  0.05981300  0.61066700  1
  Sr  Sr1  1  0.05981300  0.53126300  0.11066700  1
  Nb  Nb0  1  0.33272600  0.66268500  0.50046900  1
  Nb  Nb1  1  0.66268500  0.33272600  0.00046900  1
  As  As0  1  0.33359300  0.66951800  0.83110500  1
  As  As1  1  0.66951800  0.33359300  0.33110500  1
  As  As2  1  0.81016100  0.19225100  0.89615300  1
  As  As3  1  0.38046300  0.18949600  0.89354000  1
  As  As4  1  0.81150900  0.61865600  0.89937500  1
  As  As5  1  0.19225100  0.81016100  0.39615300  1
  As  As6  1  0.61865600  0.81150900  0.39937500  1
  As  As7  1  0.18949600  0.38046300  0.39354000  1
loop_
_geom_bond_atom_site_label_1
_geom_bond_atom_site_label_2
_geom_bond_distance
_geom_bond_site_symmetry_2
Na0 Nb0 3.350338 1_555
Na1 Nb0 3.369850 1_655
Na2 Nb1 3.350338 1_555
Na3 Nb1 3.369850 1_565
As0 Nb0 2.500148 1_555
As0 Sr1 3.105828 1_556
As0 Na3 3.121397 1_556
As0 Na2 3.158672 1_556
As0 Na5 3.178162 1_555
As0 Na4 3.186334 1_555
As0 Na6 3.202407 1_555
As1 Nb1 2.500148 1_555
As1 Sr0 3.105828 1_555
As1 Na1 3.121397 1_555
As1 Na0 3.158672 1_555
As1 Na9 3.178162 1_555
As1 Na7 3.186334 1_555
As1 Na8 3.202407 1_555
As2 Nb1 2.525386 1_556
As2 Na6 3.001942 1_655
As2 Na5 3.035423 1_545
As2 Na7 3.040344 1_556
As2 Na1 3.148767 1_555
As2 Sr0 3.169945 1_555
As2 Sr1 3.342349 1_656
As2 Na3 3.356592 1_546
As3 Nb1 2.483066 1_556
As3 Na6 2.981286 1_555
As3 Na4 2.994966 1_545
As3 Na8 3.021920 1_556
As3 Na0 3.157851 1_555
As3 Sr0 3.168975 1_555
As3 Na3 3.375548 1_546
As3 Na2 3.388880 1_556
As4 Nb1 2.498088 1_556
As4 Na4 2.938150 1_655
As4 Na5 2.954129 1_555
As4 Na9 3.041558 1_556
As4 Na1 3.147895 1_555
As4 Na0 3.167955 1_555
As4 Sr1 3.312142 1_656
As4 Na2 3.350579 1_556
As5 Nb0 2.525386 1_555
As5 Na8 3.001942 1_565
As5 Na9 3.035423 1_455
As5 Na4 3.040344 1_555
As5 Na3 3.148767 1_555
As5 Sr1 3.169945 1_555
As5 Sr0 3.342349 1_565
As5 Na1 3.356592 1_455
As6 Nb0 2.498088 1_555
As6 Na7 2.938150 1_565
As6 Na9 2.954129 1_555
As6 Na5 3.041558 1_555
As6 Na3 3.147895 1_555
As6 Na2 3.167955 1_555
As6 Sr0 3.312142 1_565
As6 Na0 3.350579 1_555
As7 Nb0 2.483066 1_555
As7 Na8 2.981286 1_555
As7 Na7 2.994966 1_455
As7 Na6 3.021920 1_555
As7 Na2 3.157851 1_555
As7 Sr1 3.168975 1_555
As7 Na1 3.375548 1_455
As7 Na0 3.388880 1_555
