# generated using pymatgen
data_YbBiAu
_symmetry_space_group_name_H-M   'P 1'
_cell_length_a   4.84393769
_cell_length_b   4.84393769
_cell_length_c   7.79485100
_cell_angle_alpha   90.00000000
_cell_angle_beta   90.00000000
_cell_angle_gamma   119.99999571
_symmetry_Int_Tables_number   1
_chemical_formula_structural   YbBiAu
_chemical_formula_sum   'Yb2 Bi2 Au2'
_cell_volume   158.39284651
_cell_formula_units_Z   2
loop_
 _symmetry_equiv_pos_site_id
 _symmetry_equiv_pos_as_xyz
  1  'x, y, z'
loop_
 _atom_site_type_symbol
 _atom_site_label
 _atom_site_symmetry_multiplicity
 _atom_site_fract_x
 _atom_site_fract_y
 _atom_site_fract_z
 _atom_site_occupancy
  Yb  Yb0  1  0.00000000  0.00000000  0.26074100  1
  Yb  Yb1  1  0.00000000  0.00000000  0.76074100  1
  Bi  Bi0  1  0.33333300  0.66666700  0.03833200  1
  Bi  Bi1  1  0.66666700  0.33333300  0.53833200  1
  Au  Au0  1  0.33333300  0.66666700  0.43192700  1
  Au  Au1  1  0.66666700  0.33333300  0.93192700  1
loop_
_geom_bond_atom_site_label_1
_geom_bond_atom_site_label_2
_geom_bond_distance
_geom_bond_site_symmetry_2
Bi0 Yb0 3.290403 1_565
Bi0 Yb0 3.290407 1_555
Bi0 Yb0 3.290407 1_665
Bi0 Yb1 3.535983 1_564
Bi0 Yb1 3.535986 1_554
Bi0 Yb1 3.535986 1_664
Bi1 Yb1 3.290403 1_655
Bi1 Yb1 3.290407 1_555
Bi1 Yb1 3.290407 1_665
Bi1 Yb0 3.535983 1_655
Bi1 Yb0 3.535986 1_555
Bi1 Yb0 3.535986 1_665
Au0 Bi1 2.917045 1_455
Au0 Bi1 2.917045 1_565
Au0 Bi1 2.917053 1_555
Au0 Bi0 3.068014 1_555
Au0 Yb0 3.098672 1_565
Au0 Yb0 3.098676 1_665
Au0 Yb0 3.098676 1_555
Au1 Bi0 2.917045 1_546
Au1 Bi0 2.917045 1_656
Au1 Bi0 2.917053 1_556
Au1 Bi1 3.068014 1_555
Au1 Yb1 3.098672 1_655
Au1 Yb1 3.098676 1_555
Au1 Yb1 3.098676 1_665
