# generated using pymatgen
data_AlCrFe2
_symmetry_space_group_name_H-M   'P 1'
_cell_length_a   5.06463711
_cell_length_b   5.06463711
_cell_length_c   15.90606157
_cell_angle_alpha   90.00000000
_cell_angle_beta   90.00000000
_cell_angle_gamma   107.28063651
_symmetry_Int_Tables_number   1
_chemical_formula_structural   AlCrFe2
_chemical_formula_sum   'Al8 Cr8 Fe16'
_cell_volume   389.58263674
_cell_formula_units_Z   8
loop_
 _symmetry_equiv_pos_site_id
 _symmetry_equiv_pos_as_xyz
  1  'x, y, z'
loop_
 _atom_site_type_symbol
 _atom_site_label
 _atom_site_symmetry_multiplicity
 _atom_site_fract_x
 _atom_site_fract_y
 _atom_site_fract_z
 _atom_site_occupancy
  Al  Al0_0  1  0.25000000  0.25000000  0.12683550  1
  Al  Al0_1  1  0.25000000  0.25000000  0.62683550  1
  Al  Al0_2  1  0.25000000  0.75000000  0.12683550  1
  Al  Al0_3  1  0.25000000  0.75000000  0.62683550  1
  Al  Al0_4  1  0.75000000  0.25000000  0.12683550  1
  Al  Al0_5  1  0.75000000  0.25000000  0.62683550  1
  Al  Al0_6  1  0.75000000  0.75000000  0.12683550  1
  Al  Al0_7  1  0.75000000  0.75000000  0.62683550  1
  Cr  Cr0_0  1  0.00000000  0.00000000  0.49635900  1
  Cr  Cr0_1  1  0.00000000  0.00000000  0.99635900  1
  Cr  Cr0_2  1  0.00000000  0.50000000  0.49635900  1
  Cr  Cr0_3  1  1.00000000  0.50000000  0.99635900  1
  Cr  Cr0_4  1  0.50000000  0.00000000  0.49635900  1
  Cr  Cr0_5  1  0.50000000  1.00000000  0.99635900  1
  Cr  Cr0_6  1  0.50000000  0.50000000  0.49635900  1
  Cr  Cr0_7  1  0.50000000  0.50000000  0.99635900  1
  Fe  Fe0_0  1  0.00000000  0.00000000  0.25221100  1
  Fe  Fe0_1  1  0.00000000  0.00000000  0.75221100  1
  Fe  Fe0_2  1  0.00000000  0.50000000  0.25221100  1
  Fe  Fe0_3  1  1.00000000  0.50000000  0.75221100  1
  Fe  Fe0_4  1  0.50000000  0.00000000  0.25221100  1
  Fe  Fe0_5  1  0.50000000  1.00000000  0.75221100  1
  Fe  Fe0_6  1  0.50000000  0.50000000  0.25221100  1
  Fe  Fe0_7  1  0.50000000  0.50000000  0.75221100  1
  Fe  Fe1_0  1  0.25000000  0.25000000  0.37459450  1
  Fe  Fe1_1  1  0.25000000  0.25000000  0.87459450  1
  Fe  Fe1_2  1  0.25000000  0.75000000  0.37459450  1
  Fe  Fe1_3  1  0.25000000  0.75000000  0.87459450  1
  Fe  Fe1_4  1  0.75000000  0.25000000  0.37459450  1
  Fe  Fe1_5  1  0.75000000  0.25000000  0.87459450  1
  Fe  Fe1_6  1  0.75000000  0.75000000  0.37459450  1
  Fe  Fe1_7  1  0.75000000  0.75000000  0.87459450  1
loop_
_geom_bond_atom_site_label_1
_geom_bond_atom_site_label_2
_geom_bond_distance
_geom_bond_site_symmetry_2
Al0_0 Fe0_6 2.496163 1_555
Al0_0 Fe0_0 2.496163 1_555
Al0_0 Al0_4 2.532319 1_555
Al0_0 Al0_4 2.532319 1_455
Al0_0 Al0_2 2.532319 1_545
Al0_0 Al0_2 2.532319 1_555
Al0_0 Cr0_7 2.561450 1_554
Al0_0 Cr0_1 2.561450 1_554
Al0_1 Fe0_7 2.496163 1_555
Al0_1 Fe0_1 2.496163 1_555
Al0_1 Al0_5 2.532319 1_455
Al0_1 Al0_3 2.532319 1_545
Al0_1 Al0_5 2.532319 1_555
Al0_1 Al0_3 2.532319 1_555
Al0_1 Cr0_0 2.561450 1_555
Al0_1 Cr0_6 2.561450 1_555
Al0_2 Fe0_4 2.496163 1_565
Al0_2 Fe0_2 2.496163 1_555
Al0_2 Al0_6 2.532319 1_555
Al0_2 Al0_6 2.532319 1_455
Al0_2 Cr0_5 2.561450 1_554
Al0_2 Cr0_3 2.561450 1_454
Al0_3 Fe0_5 2.496163 1_555
Al0_3 Fe0_3 2.496163 1_455
Al0_3 Al0_7 2.532319 1_555
Al0_3 Al0_7 2.532319 1_455
Al0_3 Cr0_4 2.561450 1_565
Al0_3 Cr0_2 2.561450 1_555
Al0_4 Fe0_2 2.496163 1_655
Al0_4 Fe0_4 2.496163 1_555
Al0_4 Al0_6 2.532319 1_555
Al0_4 Al0_6 2.532319 1_545
Al0_4 Cr0_5 2.561450 1_544
Al0_4 Cr0_3 2.561450 1_554
Al0_5 Fe0_3 2.496163 1_555
Al0_5 Fe0_5 2.496163 1_545
Al0_5 Al0_7 2.532319 1_555
Al0_5 Al0_7 2.532319 1_545
Al0_5 Cr0_2 2.561450 1_655
Al0_5 Cr0_4 2.561450 1_555
Al0_6 Fe0_6 2.496163 1_555
Al0_6 Fe0_0 2.496163 1_665
Al0_6 Cr0_1 2.561450 1_664
Al0_6 Cr0_7 2.561450 1_554
Al0_7 Fe0_7 2.496163 1_555
Al0_7 Fe0_1 2.496163 1_665
Al0_7 Cr0_0 2.561450 1_665
Al0_7 Cr0_6 2.561450 1_555
Cr0_0 Fe1_6 2.450519 1_445
Cr0_0 Fe1_0 2.450519 1_555
Cr0_0 Cr0_4 2.532319 1_555
Cr0_0 Cr0_4 2.532319 1_455
Cr0_0 Cr0_2 2.532319 1_555
Cr0_0 Cr0_2 2.532319 1_545
Cr0_1 Fe1_1 2.450519 1_555
Cr0_1 Fe1_7 2.450519 1_445
Cr0_1 Cr0_3 2.532319 1_445
Cr0_1 Cr0_5 2.532319 1_445
Cr0_1 Cr0_3 2.532319 1_455
Cr0_1 Cr0_5 2.532319 1_545
Cr0_2 Fe1_4 2.450519 1_455
Cr0_2 Fe1_2 2.450519 1_555
Cr0_2 Cr0_6 2.532319 1_455
Cr0_2 Cr0_6 2.532319 1_555
Cr0_3 Fe1_5 2.450519 1_555
Cr0_3 Fe1_3 2.450519 1_655
Cr0_3 Cr0_7 2.532319 1_555
Cr0_3 Cr0_7 2.532319 1_655
Cr0_4 Fe1_4 2.450519 1_555
Cr0_4 Fe1_2 2.450519 1_545
Cr0_4 Cr0_6 2.532319 1_545
Cr0_4 Cr0_6 2.532319 1_555
Cr0_5 Fe1_5 2.450519 1_565
Cr0_5 Fe1_3 2.450519 1_555
Cr0_5 Cr0_7 2.532319 1_555
Cr0_5 Cr0_7 2.532319 1_565
Cr0_6 Fe1_0 2.450519 1_555
Cr0_6 Fe1_6 2.450519 1_555
Cr0_7 Fe1_1 2.450519 1_555
Cr0_7 Fe1_7 2.450519 1_555
Fe0_0 Fe1_6 2.458308 1_445
Fe0_0 Fe1_0 2.458308 1_555
Fe0_0 Fe0_4 2.532319 1_555
Fe0_0 Fe0_2 2.532319 1_555
Fe0_0 Fe0_4 2.532319 1_455
Fe0_0 Fe0_2 2.532319 1_545
Fe0_1 Fe1_7 2.458308 1_445
Fe0_1 Fe1_1 2.458308 1_555
Fe0_1 Fe0_5 2.532319 1_545
Fe0_1 Fe0_5 2.532319 1_445
Fe0_1 Fe0_3 2.532319 1_455
Fe0_1 Fe0_3 2.532319 1_445
Fe0_2 Fe1_2 2.458308 1_555
Fe0_2 Fe1_4 2.458308 1_455
Fe0_2 Fe0_6 2.532319 1_555
Fe0_2 Fe0_6 2.532319 1_455
Fe0_3 Fe1_3 2.458308 1_655
Fe0_3 Fe1_5 2.458308 1_555
Fe0_3 Fe0_7 2.532319 1_555
Fe0_3 Fe0_7 2.532319 1_655
Fe0_4 Fe1_2 2.458308 1_545
Fe0_4 Fe1_4 2.458308 1_555
Fe0_4 Fe0_6 2.532319 1_555
Fe0_4 Fe0_6 2.532319 1_545
Fe0_5 Fe1_3 2.458308 1_555
Fe0_5 Fe1_5 2.458308 1_565
Fe0_5 Fe0_7 2.532319 1_555
Fe0_5 Fe0_7 2.532319 1_565
Fe0_6 Fe1_0 2.458308 1_555
Fe0_6 Fe1_6 2.458308 1_555
Fe0_7 Fe1_7 2.458308 1_555
Fe0_7 Fe1_1 2.458308 1_555
Fe1_0 Fe1_2 2.532319 1_545
Fe1_0 Fe1_4 2.532319 1_455
Fe1_0 Fe1_4 2.532319 1_555
Fe1_0 Fe1_2 2.532319 1_555
Fe1_1 Fe1_3 2.532319 1_545
Fe1_1 Fe1_3 2.532319 1_555
Fe1_1 Fe1_5 2.532319 1_455
Fe1_1 Fe1_5 2.532319 1_555
Fe1_2 Fe1_6 2.532319 1_455
Fe1_2 Fe1_6 2.532319 1_555
Fe1_3 Fe1_7 2.532319 1_455
Fe1_3 Fe1_7 2.532319 1_555
Fe1_4 Fe1_6 2.532319 1_545
Fe1_4 Fe1_6 2.532319 1_555
Fe1_5 Fe1_7 2.532319 1_555
Fe1_5 Fe1_7 2.532319 1_545
