# generated using pymatgen
data_Ca2CrN3
_symmetry_space_group_name_H-M   'P 1'
_cell_length_a   5.88679425
_cell_length_b   5.88679425
_cell_length_c   11.61366427
_cell_angle_alpha   90.00000000
_cell_angle_beta   90.00000000
_cell_angle_gamma   124.75774528
_symmetry_Int_Tables_number   1
_chemical_formula_structural   Ca2CrN3
_chemical_formula_sum   'Ca8 Cr4 N12'
_cell_volume   330.65225526
_cell_formula_units_Z   4
loop_
 _symmetry_equiv_pos_site_id
 _symmetry_equiv_pos_as_xyz
  1  'x, y, z'
loop_
 _atom_site_type_symbol
 _atom_site_label
 _atom_site_symmetry_multiplicity
 _atom_site_fract_x
 _atom_site_fract_y
 _atom_site_fract_z
 _atom_site_occupancy
  Ca  Ca0  1  0.54799423  0.45200577  0.64426824  1
  Ca  Ca1  1  0.45200577  0.54799423  0.35573176  1
  Ca  Ca2  1  0.95200577  0.04799423  0.14426824  1
  Ca  Ca3  1  0.04799423  0.95200577  0.85573176  1
  Ca  Ca4  1  0.86048625  0.13951375  0.57667130  1
  Ca  Ca5  1  0.13951375  0.86048625  0.42332870  1
  Ca  Ca6  1  0.63951375  0.36048625  0.07667130  1
  Ca  Ca7  1  0.36048625  0.63951375  0.92332870  1
  Cr  Cr0  1  0.74809706  0.25190294  0.83823543  1
  Cr  Cr1  1  0.25190294  0.74809706  0.16176457  1
  Cr  Cr2  1  0.75190294  0.24809706  0.33823543  1
  Cr  Cr3  1  0.24809706  0.75190294  0.66176457  1
  N  N0  1  0.84292593  0.15707407  0.96299990  1
  N  N1  1  0.15707407  0.84292593  0.03700010  1
  N  N2  1  0.65707407  0.34292593  0.46299990  1
  N  N3  1  0.34292593  0.65707407  0.53700010  1
  N  N4  1  0.58357724  0.41642276  0.86574305  1
  N  N5  1  0.41642276  0.58357724  0.13425695  1
  N  N6  1  0.91642276  0.08357724  0.36574305  1
  N  N7  1  0.08357724  0.91642276  0.63425695  1
  N  N8  1  0.54645014  0.95354986  0.75000000  1
  N  N9  1  0.95354986  0.54645014  0.25000000  1
  N  N10  1  0.45354986  0.04645014  0.25000000  1
  N  N11  1  0.04645014  0.45354986  0.75000000  1
loop_
_geom_bond_atom_site_label_1
_geom_bond_atom_site_label_2
_geom_bond_distance
_geom_bond_site_symmetry_2
Ca0 N2 2.393039 1_555
Ca0 N3 2.475531 1_555
Ca0 N4 2.598780 1_555
Ca0 N7 2.756831 1_545
Ca0 N7 2.756831 1_655
Ca1 N3 2.393039 1_555
Ca1 N2 2.475531 1_555
Ca1 N5 2.598780 1_555
Ca1 N6 2.756831 1_565
Ca1 N6 2.756831 1_455
Ca2 N0 2.393039 1_554
Ca2 N1 2.475531 1_645
Ca2 N6 2.598780 1_555
Ca2 N5 2.756831 1_545
Ca2 N5 2.756831 1_655
Ca3 N1 2.393039 1_556
Ca3 N0 2.475531 1_465
Ca3 N7 2.598780 1_555
Ca3 N4 2.756831 1_455
Ca3 N4 2.756831 1_565
Ca4 N7 2.421425 1_645
Ca4 N2 2.499091 1_555
Ca4 N6 2.518189 1_555
Ca4 N11 2.522010 1_655
Ca4 N8 2.522010 1_545
Ca4 N3 2.773922 1_655
Ca4 N3 2.773922 1_545
Ca5 N6 2.421425 1_465
Ca5 N3 2.499091 1_555
Ca5 N7 2.518189 1_555
Ca5 N10 2.522010 1_565
Ca5 N9 2.522010 1_455
Ca5 N2 2.773922 1_565
Ca5 N2 2.773922 1_455
Ca6 N5 2.421425 1_555
Ca6 N0 2.499091 1_554
Ca6 N4 2.518189 1_554
Ca6 N10 2.522010 1_555
Ca6 N9 2.522010 1_555
Ca6 N1 2.773922 1_655
Ca6 N1 2.773922 1_545
Ca7 N4 2.421425 1_555
Ca7 N1 2.499091 1_556
Ca7 N5 2.518189 1_556
Ca7 N8 2.522010 1_555
Ca7 N11 2.522010 1_555
Ca7 N0 2.773922 1_565
Ca7 N0 2.773922 1_455
Cr0 N4 1.745715 1_555
Cr0 N0 1.754453 1_555
Cr0 N11 1.779527 1_655
Cr0 N8 1.779527 1_545
Cr1 N5 1.745715 1_555
Cr1 N1 1.754453 1_555
Cr1 N10 1.779527 1_565
Cr1 N9 1.779527 1_455
Cr2 N6 1.745715 1_555
Cr2 N2 1.754453 1_555
Cr2 N10 1.779527 1_555
Cr2 N9 1.779527 1_555
Cr3 N7 1.745715 1_555
Cr3 N3 1.754453 1_555
Cr3 N11 1.779527 1_555
Cr3 N8 1.779527 1_555
