# generated using pymatgen
data_V2O5
_symmetry_space_group_name_H-M   'P 1'
_cell_length_a   12.83109118
_cell_length_b   11.66928267
_cell_length_c   12.62492037
_cell_angle_alpha   88.08864002
_cell_angle_beta   93.74766940
_cell_angle_gamma   88.32637720
_symmetry_Int_Tables_number   1
_chemical_formula_structural   V2O5
_chemical_formula_sum   'V30 O75'
_cell_volume   1884.29905187
_cell_formula_units_Z   15
loop_
 _symmetry_equiv_pos_site_id
 _symmetry_equiv_pos_as_xyz
  1  'x, y, z'
loop_
 _atom_site_type_symbol
 _atom_site_label
 _atom_site_symmetry_multiplicity
 _atom_site_fract_x
 _atom_site_fract_y
 _atom_site_fract_z
 _atom_site_occupancy
  V  V0  1  0.03808055  0.99502382  0.93078188  1
  V  V1  1  0.91645676  0.80823454  0.78849595  1
  V  V2  1  0.75135147  0.08346984  0.72093332  1
  V  V3  1  0.70993013  0.13800292  0.28901432  1
  V  V4  1  0.80023202  0.93058547  0.95631443  1
  V  V5  1  0.15480646  0.66795029  0.85140394  1
  V  V6  1  0.44717668  0.54150219  0.16418989  1
  V  V7  1  0.50286193  0.96699805  0.36210949  1
  V  V8  1  0.72569417  0.46278823  0.49958142  1
  V  V9  1  0.17959030  0.60591823  0.13582509  1
  V  V10  1  0.53261655  0.15923185  0.58888636  1
  V  V11  1  0.04507896  0.79288555  0.27632741  1
  V  V12  1  0.27050727  0.90873714  0.90441958  1
  V  V13  1  0.30408580  0.19034825  0.89641300  1
  V  V14  1  0.94663826  0.54049155  0.36339310  1
  V  V15  1  0.96651744  0.16713684  0.33760152  1
  V  V16  1  0.09342065  0.94791682  0.48878387  1
  V  V17  1  0.34833041  0.08333411  0.16964322  1
  V  V18  1  0.56343081  0.62614340  0.61866106  1
  V  V19  1  0.71646878  0.29942388  0.80444864  1
  V  V20  1  0.64803107  0.49098842  0.01052763  1
  V  V21  1  0.33652459  0.89072629  0.56659813  1
  V  V22  1  0.17195145  0.38095290  0.80932689  1
  V  V23  1  0.65653414  0.18785845  0.02794036  1
  V  V24  1  0.56490613  0.87174620  0.70455692  1
  V  V25  1  0.19851550  0.47598068  0.38752461  1
  V  V26  1  0.00741237  0.37619891  0.15545448  1
  V  V27  1  0.67836763  0.71980727  0.93722998  1
  V  V28  1  0.46561251  0.43194730  0.45909106  1
  V  V29  1  0.30676581  0.23937249  0.31856796  1
  O  O0  1  0.31357450  0.18634177  0.43836496  1
  O  O1  1  0.00473164  0.93289167  0.80695768  1
  O  O2  1  0.11137518  0.47263426  0.12555304  1
  O  O3  1  0.31839666  0.57689298  0.11187586  1
  O  O4  1  0.76262909  0.33963434  0.55313597  1
  O  O5  1  0.32295962  0.11486270  0.03154339  1
  O  O6  1  0.72680708  0.47890340  0.11414228  1
  O  O7  1  0.95346902  0.68123712  0.31140215  1
  O  O8  1  0.49496148  0.30903776  0.54143716  1
  O  O9  1  0.05612518  0.13049616  0.91296396  1
  O  O10  1  0.71296567  0.82977053  0.02677080  1
  O  O11  1  0.70659794  0.21229260  0.15855545  1
  O  O12  1  0.30762717  0.45958760  0.47121399  1
  O  O13  1  0.61048127  0.45178334  0.42180552  1
  O  O14  1  0.83655642  0.53195321  0.43424687  1
  O  O15  1  0.68380129  0.55073978  0.60614199  1
  O  O16  1  0.15820824  0.92658281  0.98483510  1
  O  O17  1  0.54583924  0.08064786  0.47666153  1
  O  O18  1  0.93086717  0.37047696  0.04994462  1
  O  O19  1  0.92476709  0.96632268  0.01054607  1
  O  O20  1  0.24574555  0.34109183  0.69259309  1
  O  O21  1  0.81245440  0.07916442  0.61439209  1
  O  O22  1  0.41519850  0.96001869  0.24056244  1
  O  O23  1  0.20991931  0.58262132  0.29251692  1
  O  O24  1  0.42831416  0.35741918  0.32191368  1
  O  O25  1  0.28264187  0.04112631  0.83791283  1
  O  O26  1  0.42416553  0.48172021  0.30323665  1
  O  O27  1  0.72040972  0.06888295  0.97647405  1
  O  O28  1  0.99514605  0.92121815  0.55739202  1
  O  O29  1  0.50209804  0.65807342  0.19729809  1
  O  O30  1  0.66668852  0.33100308  0.94111760  1
  O  O31  1  0.04609713  0.38467228  0.79306290  1
  O  O32  1  0.47537724  0.57585799  0.52245569  1
  O  O33  1  0.20398902  0.54122909  0.80450172  1
  O  O34  1  0.11221017  0.83092196  0.39758210  1
  O  O35  1  0.22598501  0.31515905  0.93602552  1
  O  O36  1  0.43051676  0.88782651  0.69127356  1
  O  O37  1  0.61758203  0.03091838  0.29316383  1
  O  O38  1  0.93519480  0.45763858  0.25060251  1
  O  O39  1  0.85722429  0.78781096  0.67427420  1
  O  O40  1  0.59658687  0.78127399  0.60447207  1
  O  O41  1  0.76271796  0.41737969  0.76324066  1
  O  O42  1  0.53672318  0.15466040  0.03535196  1
  O  O43  1  0.01347686  0.23472773  0.21751696  1
  O  O44  1  0.61271724  0.80712472  0.82708393  1
  O  O45  1  0.55433420  0.84071599  0.38353905  1
  O  O46  1  0.84841564  0.09271358  0.31073368  1
  O  O47  1  0.19118830  0.35362555  0.31472174  1
  O  O48  1  0.83398517  0.77469287  0.89612723  1
  O  O49  1  0.37380148  0.87289408  0.98039414  1
  O  O50  1  0.39122511  0.95040029  0.45700723  1
  O  O51  1  0.81663646  0.19397907  0.80764310  1
  O  O52  1  0.06542813  0.07543992  0.40785167  1
  O  O53  1  0.12235025  0.74465517  0.17207881  1
  O  O54  1  0.23669411  0.11921532  0.23130654  1
  O  O55  1  0.41575221  0.23715251  0.86668625  1
  O  O56  1  0.79911344  0.96349605  0.80652119  1
  O  O57  1  0.06344293  0.50577214  0.43754236  1
  O  O58  1  0.97692435  0.90397662  0.23082523  1
  O  O59  1  0.41971466  0.18877142  0.22545616  1
  O  O60  1  0.31985197  0.75645325  0.54499586  1
  O  O61  1  0.68460360  0.23178118  0.37504539  1
  O  O62  1  0.52176187  0.46277952  0.07164072  1
  O  O63  1  0.94010957  0.27190996  0.41295919  1
  O  O64  1  0.64115361  0.21288304  0.70604018  1
  O  O65  1  0.22093633  0.23665259  0.75070890  1
  O  O66  1  0.23446610  0.78531157  0.82087496  1
  O  O67  1  0.42817850  0.11970196  0.64182132  1
  O  O68  1  0.20782113  0.95495147  0.57730361  1
  O  O69  1  0.52166678  0.60095609  0.73605406  1
  O  O70  1  0.61918459  0.00606477  0.67912571  1
  O  O71  1  0.73063190  0.57690318  0.91893911  1
  O  O72  1  0.02406995  0.69976594  0.79987984  1
  O  O73  1  0.58632318  0.65151454  0.00639335  1
  O  O74  1  0.15167673  0.65228007  0.98560041  1
loop_
_geom_bond_atom_site_label_1
_geom_bond_atom_site_label_2
_geom_bond_distance
_geom_bond_site_symmetry_2
O0 V29 1.610949 1_555
O1 V0 1.777324 1_555
O1 V1 1.880859 1_455
O2 V9 1.811106 1_555
O2 V26 1.820301 1_555
O3 V6 1.770997 1_555
O3 V9 1.849385 1_555
O4 V8 1.612624 1_555
O5 V17 1.776835 1_555
O5 V13 1.891646 1_554
O6 V20 1.599776 1_555
O7 V14 1.754996 1_555
O7 V11 1.842344 1_655
O8 V28 1.759981 1_555
O8 V10 1.868479 1_555
O9 V0 1.614872 1_545
O10 V27 1.784937 1_554
O10 V4 1.888478 1_554
O11 V23 1.765432 1_555
O11 V3 1.832882 1_555
O12 V25 1.700147 1_555
O12 V28 2.059697 1_555
O13 V8 1.730833 1_555
O13 V28 1.965360 1_555
O14 V14 1.724128 1_555
O14 V8 1.879171 1_555
O15 V18 1.773825 1_555
O15 V8 1.818404 1_555
O16 V0 1.798221 1_555
O16 V12 1.827057 1_555
O17 V10 1.728039 1_555
O17 V7 2.054474 1_545
O18 V26 1.606922 1_655
O19 V4 1.763799 1_554
O19 V0 1.854057 1_654
O20 O65 1.455510 1_555
O20 V22 1.867426 1_555
O21 V2 1.602029 1_555
O22 V17 1.830311 1_565
O22 V7 1.847878 1_555
O23 V25 1.715435 1_555
O23 V9 1.999004 1_555
O24 O26 1.460626 1_555
O24 V28 2.000287 1_555
O24 V29 2.110084 1_555
O25 V12 1.749437 1_545
O25 V13 1.934053 1_555
O26 V6 1.911428 1_555
O26 V28 2.064156 1_555
O27 V23 1.756355 1_556
O27 V4 1.919156 1_545
O28 V16 1.607823 1_655
O29 V6 1.605353 1_555
O30 V19 1.921885 1_555
O30 V23 1.979379 1_556
O30 V20 2.102622 1_556
O31 V22 1.613613 1_555
O32 V18 1.732895 1_555
O32 V28 1.888021 1_555
O33 V5 1.728672 1_555
O33 V22 1.926481 1_555
O34 V11 1.782607 1_555
O34 V16 1.835675 1_555
O35 V22 1.835960 1_555
O35 V13 1.845115 1_555
O36 V24 1.725676 1_555
O36 V21 1.918091 1_555
O37 V3 1.748866 1_555
O37 V7 1.915485 1_545
O38 V14 1.748377 1_555
O38 V26 1.837114 1_655
O39 V1 1.613735 1_555
O40 V24 1.734213 1_555
O40 V18 1.877084 1_555
O41 V19 1.599299 1_555
O42 V23 1.604155 1_555
O43 V26 1.800995 1_555
O43 V15 1.830575 1_455
O44 V24 1.763230 1_555
O44 V27 1.839497 1_555
O45 V7 1.604413 1_555
O46 V15 1.787452 1_555
O46 V3 1.839490 1_555
O47 V25 1.725204 1_555
O47 V29 1.962126 1_555
O48 V1 1.815520 1_555
O48 V4 2.040462 1_555
O48 V27 2.203281 1_555
O49 V12 1.620572 1_555
O50 V21 1.727146 1_555
O50 V7 1.936441 1_555
O51 V19 1.750744 1_555
O51 V2 1.897484 1_555
O52 V16 1.790763 1_545
O52 V15 1.803468 1_455
O53 V11 1.794264 1_555
O53 V9 1.842244 1_555
O54 V17 1.722112 1_555
O54 V29 2.008796 1_555
O55 V13 1.610716 1_555
O56 V2 1.807088 1_565
O56 V4 1.916179 1_555
O56 V1 2.348251 1_555
O57 V14 1.744277 1_455
O57 V25 1.909414 1_555
O58 V11 1.610502 1_655
O59 V17 1.699579 1_555
O59 V29 2.012437 1_555
O60 V21 1.617308 1_555
O61 V3 1.608569 1_555
O62 V6 1.814223 1_555
O62 V20 1.872491 1_555
O63 V15 1.615642 1_555
O64 V19 1.865750 1_555
O64 V2 2.033910 1_555
O64 V10 2.088655 1_555
O65 V22 1.964761 1_555
O65 V13 2.111273 1_555
O66 V5 1.779586 1_555
O66 V12 1.864739 1_555
O67 V10 1.608654 1_555
O68 V16 1.791385 1_555
O68 V21 1.808519 1_555
O69 V18 1.629132 1_555
O70 V24 1.761903 1_545
O70 V2 1.993648 1_555
O70 V10 2.304151 1_555
O71 V27 1.806792 1_555
O71 V20 1.900106 1_556
O72 V5 1.783204 1_555
O72 V1 1.840980 1_455
O73 V27 1.713401 1_554
O73 V20 2.009987 1_555
O74 V5 1.701202 1_555
O74 V9 1.961990 1_556
