# generated using pymatgen
data_Hf2Ga3Co
_symmetry_space_group_name_H-M   'P 1'
_cell_length_a   4.18673500
_cell_length_b   5.31689101
_cell_length_c   5.26693212
_cell_angle_alpha   92.62762733
_cell_angle_beta   113.41915651
_cell_angle_gamma   66.81382451
_symmetry_Int_Tables_number   1
_chemical_formula_structural   Hf2Ga3Co
_chemical_formula_sum   'Hf2 Ga3 Co1'
_cell_volume   98.04161848
_cell_formula_units_Z   1
loop_
 _symmetry_equiv_pos_site_id
 _symmetry_equiv_pos_as_xyz
  1  'x, y, z'
loop_
 _atom_site_type_symbol
 _atom_site_label
 _atom_site_symmetry_multiplicity
 _atom_site_fract_x
 _atom_site_fract_y
 _atom_site_fract_z
 _atom_site_occupancy
  Hf  Hf0  1  0.74859800  0.71485500  0.21205100  1
  Hf  Hf1  1  0.24967500  0.29297100  0.79232200  1
  Ga  Ga0  1  0.47700400  0.67099000  0.62499800  1
  Ga  Ga1  1  0.04103200  0.13711000  0.21917300  1
  Ga  Ga2  1  0.93917800  0.89757700  0.77593400  1
  Co  Co0  1  0.54451200  0.28649700  0.37552100  1
loop_
_geom_bond_atom_site_label_1
_geom_bond_atom_site_label_2
_geom_bond_distance
_geom_bond_site_symmetry_2
Ga0 Ga2 2.520448 1_555
Ga0 Ga2 2.520451 1_455
Ga0 Ga1 2.804407 1_565
Ga0 Hf1 2.838597 1_655
Ga0 Hf1 2.838600 1_555
Ga0 Hf0 2.873250 1_556
Ga0 Hf0 2.880815 1_555
Ga0 Hf0 2.880816 1_455
Ga0 Hf1 3.246517 1_565
Ga1 Ga2 2.572444 1_444
Ga1 Hf0 2.819390 1_455
Ga1 Hf0 2.942968 1_545
Ga1 Hf0 2.942971 1_445
Ga1 Hf1 2.967512 1_554
Ga1 Hf1 2.967518 1_454
Ga1 Hf1 2.967671 1_555
Ga2 Hf1 2.857104 1_665
Ga2 Hf1 2.857104 1_565
Ga2 Hf1 2.945638 1_655
Ga2 Hf0 2.977101 1_555
Ga2 Hf0 3.021360 1_556
Ga2 Hf0 3.021364 1_656
Co0 Ga0 2.362108 1_555
Co0 Ga1 2.372968 1_555
Co0 Ga1 2.372972 1_655
Co0 Ga2 2.528477 1_545
Co0 Hf1 2.814655 1_554
Co0 Hf1 2.908228 1_655
Co0 Hf1 2.908231 1_555
Co0 Hf0 2.992579 1_555
Co0 Hf0 2.992579 1_455
Co0 Hf0 3.001494 1_545
