# generated using pymatgen
data_NaCaMgCr(SiO3)4
_symmetry_space_group_name_H-M   'P 1'
_cell_length_a   7.14767542
_cell_length_b   7.14767542
_cell_length_c   15.90948885
_cell_angle_alpha   78.02377262
_cell_angle_beta   78.02377262
_cell_angle_gamma   82.04087724
_symmetry_Int_Tables_number   1
_chemical_formula_structural   NaCaMgCr(SiO3)4
_chemical_formula_sum   'Na3 Ca3 Mg3 Cr3 Si12 O36'
_cell_volume   773.93035914
_cell_formula_units_Z   3
loop_
 _symmetry_equiv_pos_site_id
 _symmetry_equiv_pos_as_xyz
  1  'x, y, z'
loop_
 _atom_site_type_symbol
 _atom_site_label
 _atom_site_symmetry_multiplicity
 _atom_site_fract_x
 _atom_site_fract_y
 _atom_site_fract_z
 _atom_site_occupancy
  Na  Na0  1  0.88047800  0.81816800  0.16003600  1
  Na  Na1  1  0.46826600  0.53173400  0.00000000  1
  Na  Na2  1  0.18183200  0.11952200  0.83996400  1
  Ca  Ca0  1  0.80631500  0.83746500  0.66768300  1
  Ca  Ca1  1  0.51452900  0.48547100  0.50000000  1
  Ca  Ca2  1  0.16253500  0.19368500  0.33231700  1
  Mg  Mg0  1  0.18515900  0.45972900  0.67013100  1
  Mg  Mg1  1  0.14855400  0.85144600  0.50000000  1
  Mg  Mg2  1  0.54027100  0.81484100  0.32986900  1
  Cr  Cr0  1  0.51579900  0.16233300  0.16641900  1
  Cr  Cr1  1  0.82451400  0.17548600  0.00000000  1
  Cr  Cr2  1  0.83766700  0.48420100  0.83358100  1
  Si  Si0  1  0.33937300  0.79994700  0.65739100  1
  Si  Si1  1  0.86122000  0.30488400  0.67357700  1
  Si  Si2  1  0.47033000  0.01687300  0.49069300  1
  Si  Si3  1  0.98312700  0.52967000  0.50930700  1
  Si  Si4  1  0.69511600  0.13878000  0.32642300  1
  Si  Si5  1  0.20005300  0.66062700  0.34260900  1
  Si  Si6  1  0.79700800  0.36623500  0.16067500  1
  Si  Si7  1  0.32161200  0.87068800  0.17466600  1
  Si  Si8  1  0.01913800  0.46635000  0.99381700  1
  Si  Si9  1  0.53365000  0.98086200  0.00618300  1
  Si  Si10  1  0.12931200  0.67838800  0.82533400  1
  Si  Si11  1  0.63376500  0.20299200  0.83932500  1
  O  O0  1  0.68336800  0.17268400  0.73388500  1
  O  O1  1  0.07083500  0.20628700  0.68708500  1
  O  O2  1  0.13092500  0.82448500  0.62847400  1
  O  O3  1  0.84384000  0.51305300  0.70583600  1
  O  O4  1  0.43688900  0.58605800  0.64338400  1
  O  O5  1  0.48431200  0.97041800  0.59922100  1
  O  O6  1  0.83766600  0.35906100  0.56654800  1
  O  O7  1  0.88530400  0.74078700  0.52606000  1
  O  O8  1  0.49457100  0.80886600  0.46054100  1
  O  O9  1  0.19113400  0.50542900  0.53945900  1
  O  O10  1  0.25921300  0.11469600  0.47394000  1
  O  O11  1  0.64093900  0.16233400  0.43345200  1
  O  O12  1  0.02958200  0.51568800  0.40077900  1
  O  O13  1  0.41394200  0.56311100  0.35661600  1
  O  O14  1  0.48694700  0.15616000  0.29416400  1
  O  O15  1  0.17551500  0.86907500  0.37152600  1
  O  O16  1  0.79371300  0.92916500  0.31291500  1
  O  O17  1  0.82731600  0.31663200  0.26611500  1
  O  O18  1  0.18591400  0.70238200  0.23478600  1
  O  O19  1  0.24008600  0.09259800  0.18846000  1
  O  O20  1  0.81091900  0.15402000  0.13000400  1
  O  O21  1  0.53536800  0.86270100  0.19973600  1
  O  O22  1  0.57619200  0.44095300  0.14939600  1
  O  O23  1  0.96693600  0.49821800  0.09862000  1
  O  O24  1  0.36271700  0.85043000  0.06819600  1
  O  O25  1  0.75602700  0.90251700  0.01469700  1
  O  O26  1  0.80815800  0.47412900  0.96358800  1
  O  O27  1  0.52587100  0.19184200  0.03641200  1
  O  O28  1  0.09748300  0.24397300  0.98530300  1
  O  O29  1  0.14957000  0.63728300  0.93180400  1
  O  O30  1  0.50178200  0.03306400  0.90138000  1
  O  O31  1  0.55904700  0.42380800  0.85060400  1
  O  O32  1  0.13729900  0.46463200  0.80026400  1
  O  O33  1  0.84598000  0.18908100  0.86999600  1
  O  O34  1  0.90740200  0.75991400  0.81154000  1
  O  O35  1  0.29761800  0.81408600  0.76521400  1
loop_
_geom_bond_atom_site_label_1
_geom_bond_atom_site_label_2
_geom_bond_distance
_geom_bond_site_symmetry_2
Na0 O20 2.351643 1_565
Na0 O21 2.409238 1_555
Na0 O25 2.574469 1_555
Na0 O23 2.617614 1_555
Na0 O16 2.639762 1_555
Na0 O18 2.652178 1_655
Na1 O27 2.375959 1_555
Na1 O26 2.375959 1_554
Na1 O31 2.578300 1_554
Na1 O22 2.578300 1_555
Na1 O29 2.673083 1_554
Na1 O24 2.673083 1_555
Na2 O33 2.351643 1_455
Na2 O32 2.409238 1_555
Na2 O28 2.574469 1_555
Na2 O30 2.617614 1_555
Na2 O1 2.639762 1_555
Na2 O35 2.652178 1_545
Ca0 O3 2.264593 1_555
Ca0 O2 2.268222 1_655
Ca0 O7 2.425518 1_555
Ca0 O34 2.473116 1_555
Ca0 O5 2.718781 1_555
Ca0 O0 2.775367 1_565
Ca1 O8 2.258585 1_555
Ca1 O9 2.258585 1_555
Ca1 O4 2.464422 1_555
Ca1 O13 2.464422 1_555
Ca1 O11 2.704044 1_555
Ca1 O6 2.704044 1_555
Ca2 O14 2.264593 1_555
Ca2 O15 2.268222 1_545
Ca2 O10 2.425518 1_555
Ca2 O19 2.473116 1_555
Ca2 O12 2.718781 1_555
Ca2 O17 2.775367 1_455
Mg0 O9 2.028705 1_555
Mg0 O32 2.034075 1_555
Mg0 O1 2.034154 1_555
Mg0 O4 2.050987 1_555
Mg0 O3 2.382643 1_455
Mg0 O2 2.548807 1_555
Mg1 O15 1.991768 1_555
Mg1 O2 1.991768 1_555
Mg1 O10 2.071308 1_565
Mg1 O7 2.071308 1_455
Mg1 O9 2.414542 1_555
Mg1 O8 2.414542 1_555
Mg2 O8 2.028705 1_555
Mg2 O21 2.034075 1_555
Mg2 O16 2.034154 1_555
Mg2 O13 2.050987 1_555
Mg2 O14 2.382643 1_565
Mg2 O15 2.548807 1_555
Cr0 O14 1.991561 1_555
Cr0 O27 2.022147 1_555
Cr0 O19 2.041517 1_555
Cr0 O22 2.047295 1_555
Cr0 O20 2.064274 1_555
Cr0 O21 2.089012 1_545
Cr1 O20 2.024810 1_555
Cr1 O33 2.024810 1_554
Cr1 O28 2.031930 1_654
Cr1 O25 2.031930 1_545
Cr1 O27 2.086046 1_555
Cr1 O26 2.086046 1_554
Cr2 O3 1.991561 1_555
Cr2 O26 2.022147 1_555
Cr2 O34 2.041517 1_555
Cr2 O31 2.047295 1_555
Cr2 O33 2.064274 1_555
Cr2 O32 2.089012 1_655
O0 Si11 1.693914 1_555
O0 Si1 1.696964 1_555
O1 Si1 1.601870 1_455
O2 Si0 1.625079 1_555
O3 Si1 1.652883 1_555
O4 Si0 1.629285 1_555
O5 Si0 1.702377 1_555
O5 Si2 1.710545 1_565
O6 Si3 1.701378 1_555
O6 Si1 1.704410 1_555
O7 Si3 1.623077 1_555
O8 Si2 1.631185 1_565
O9 Si3 1.631185 1_455
O10 Si2 1.623077 1_555
O11 Si2 1.701378 1_555
O11 Si4 1.704410 1_555
O12 Si5 1.702377 1_555
O12 Si3 1.710545 1_455
O13 Si5 1.629285 1_555
O14 Si4 1.652883 1_555
O15 Si5 1.625079 1_555
O16 Si4 1.601870 1_565
O17 Si6 1.693914 1_555
O17 Si4 1.696964 1_555
O18 Si7 1.662347 1_555
O18 Si5 1.700893 1_555
O19 Si7 1.654990 1_545
O20 Si6 1.671550 1_555
O21 Si7 1.648026 1_555
O22 Si6 1.628758 1_555
O23 Si6 1.665235 1_555
O23 Si8 1.687333 1_654
O24 Si9 1.663947 1_555
O24 Si7 1.691153 1_555
O25 Si9 1.633938 1_555
O26 Si8 1.665883 1_655
O27 Si9 1.665883 1_545
O28 Si8 1.633938 1_555
O29 Si8 1.663947 1_555
O29 Si10 1.691153 1_555
O30 Si11 1.665235 1_555
O30 Si9 1.687333 1_546
O31 Si11 1.628758 1_555
O32 Si10 1.648026 1_555
O33 Si11 1.671550 1_555
O34 Si10 1.654990 1_655
O35 Si10 1.662347 1_555
O35 Si0 1.700893 1_555
