# generated using pymatgen
data_Tb4HfAl15
_symmetry_space_group_name_H-M   'P 1'
_cell_length_a   12.50588606
_cell_length_b   12.50588606
_cell_length_c   12.50588628
_cell_angle_alpha   28.00059638
_cell_angle_beta   28.00059638
_cell_angle_gamma   28.00059815
_symmetry_Int_Tables_number   1
_chemical_formula_structural   Tb4HfAl15
_chemical_formula_sum   'Tb4 Hf1 Al15'
_cell_volume   380.76673375
_cell_formula_units_Z   1
loop_
 _symmetry_equiv_pos_site_id
 _symmetry_equiv_pos_as_xyz
  1  'x, y, z'
loop_
 _atom_site_type_symbol
 _atom_site_label
 _atom_site_symmetry_multiplicity
 _atom_site_fract_x
 _atom_site_fract_y
 _atom_site_fract_z
 _atom_site_occupancy
  Tb  Tb0  1  0.86904600  0.86904600  0.86904600  1
  Tb  Tb1  1  0.13095400  0.13095400  0.13095400  1
  Tb  Tb2  1  0.60012000  0.60012000  0.60012000  1
  Tb  Tb3  1  0.39988000  0.39988000  0.39988000  1
  Hf  Hf0  1  0.00000000  0.00000000  0.00000000  1
  Al  Al0  1  0.50000000  0.50000000  0.00000000  1
  Al  Al1  1  0.00000000  0.50000000  0.50000000  1
  Al  Al2  1  0.50000000  0.00000000  0.50000000  1
  Al  Al3  1  0.36407700  0.87157300  0.36407700  1
  Al  Al4  1  0.36407700  0.36407700  0.87157300  1
  Al  Al5  1  0.87157300  0.36407700  0.36407700  1
  Al  Al6  1  0.63592300  0.12842700  0.63592300  1
  Al  Al7  1  0.63592300  0.63592300  0.12842700  1
  Al  Al8  1  0.12842700  0.63592300  0.63592300  1
  Al  Al9  1  0.11637100  0.57454800  0.11637100  1
  Al  Al10  1  0.11637100  0.11637100  0.57454800  1
  Al  Al11  1  0.57454800  0.11637100  0.11637100  1
  Al  Al12  1  0.88362900  0.42545200  0.88362900  1
  Al  Al13  1  0.88362900  0.88362900  0.42545200  1
  Al  Al14  1  0.42545200  0.88362900  0.88362900  1
loop_
_geom_bond_atom_site_label_1
_geom_bond_atom_site_label_2
_geom_bond_distance
_geom_bond_site_symmetry_2
Al0 Al12 2.858715 1_554
Al0 Al9 2.858715 1_555
Al0 Al14 2.858715 1_554
Al0 Al11 2.858715 1_555
Al0 Tb2 2.966173 1_554
Al0 Tb3 2.966173 1_555
Al0 Al1 3.025511 1_654
Al0 Al2 3.025511 1_555
Al0 Al2 3.025511 1_564
Al0 Al1 3.025511 1_555
Al0 Hf0 3.025511 1_565
Al0 Hf0 3.025511 1_655
Al1 Al13 2.858715 1_455
Al1 Al10 2.858715 1_555
Al1 Al12 2.858715 1_455
Al1 Al9 2.858715 1_555
Al1 Tb3 2.966173 1_555
Al1 Tb2 2.966173 1_455
Al1 Hf0 3.025511 1_556
Al1 Hf0 3.025511 1_565
Al1 Al2 3.025511 1_555
Al1 Al2 3.025511 1_465
Al2 Tb2 2.966173 1_545
Al2 Tb3 2.966173 1_555
Al2 Hf0 3.025511 1_655
Al2 Hf0 3.025511 1_556
Al3 Tb2 2.991266 1_555
Al3 Tb1 3.021733 1_565
Al3 Tb0 3.026933 1_554
Al3 Tb0 3.026933 1_455
Al4 Tb2 2.991265 1_555
Al4 Al9 2.996769 1_556
Al4 Tb1 3.021733 1_556
Al4 Tb0 3.026933 1_455
Al4 Tb0 3.026933 1_545
Al5 Tb2 2.991266 1_555
Al5 Al9 2.996769 1_655
Al5 Tb1 3.021733 1_655
Al5 Tb0 3.026933 1_554
Al5 Tb0 3.026933 1_545
Al6 Tb3 2.991266 1_555
Al6 Tb0 3.021733 1_545
Al6 Tb1 3.026933 1_556
Al6 Tb1 3.026933 1_655
Al7 Tb3 2.991265 1_555
Al7 Tb0 3.021733 1_554
Al7 Tb1 3.026933 1_565
Al7 Tb1 3.026933 1_655
Al8 Tb3 2.991266 1_555
Al8 Tb0 3.021733 1_455
Al8 Tb1 3.026933 1_556
Al8 Tb1 3.026933 1_565
Al9 Hf0 2.989636 1_565
Al9 Tb2 3.030180 1_554
Al9 Tb2 3.030180 1_455
Al9 Tb0 3.059329 1_454
Al10 Al9 2.772439 1_555
Al10 Al11 2.772439 1_555
Al10 Al2 2.858715 1_555
Al10 Hf0 2.989636 1_556
Al10 Al5 2.996769 1_455
Al10 Al3 2.996769 1_545
Al10 Tb2 3.030180 1_455
Al10 Tb2 3.030180 1_545
Al10 Tb0 3.059329 1_445
Al11 Al9 2.772439 1_555
Al11 Al2 2.858715 1_555
Al11 Hf0 2.989636 1_655
Al11 Al3 2.996769 1_545
Al11 Al4 2.996769 1_554
Al11 Tb2 3.030180 1_554
Al11 Tb2 3.030180 1_545
Al11 Tb0 3.059329 1_544
Al12 Al13 2.772439 1_555
Al12 Al14 2.772439 1_555
Al12 Hf0 2.989636 1_656
Al12 Al8 2.996769 1_655
Al12 Al7 2.996769 1_556
Al12 Tb3 3.030180 1_556
Al12 Tb3 3.030180 1_655
Al12 Tb1 3.059329 1_656
Al13 Al14 2.772439 1_555
Al13 Al2 2.858715 1_565
Al13 Hf0 2.989636 1_665
Al13 Al6 2.996769 1_565
Al13 Al8 2.996769 1_655
Al13 Tb3 3.030180 1_655
Al13 Tb3 3.030180 1_565
Al13 Tb1 3.059329 1_665
Al14 Al2 2.858715 1_565
Al14 Hf0 2.989636 1_566
Al14 Al6 2.996769 1_565
Al14 Al7 2.996769 1_556
Al14 Tb3 3.030180 1_556
Al14 Tb3 3.030180 1_565
Al14 Tb1 3.059329 1_566
