# generated using pymatgen
data_SrNdGa3O7
_symmetry_space_group_name_H-M   'P 1'
_cell_length_a   8.08123980
_cell_length_b   8.08123980
_cell_length_c   5.35239000
_cell_angle_alpha   90.00000000
_cell_angle_beta   90.00000000
_cell_angle_gamma   90.57710133
_symmetry_Int_Tables_number   1
_chemical_formula_structural   SrNdGa3O7
_chemical_formula_sum   'Sr2 Nd2 Ga6 O14'
_cell_volume   349.52778823
_cell_formula_units_Z   2
loop_
 _symmetry_equiv_pos_site_id
 _symmetry_equiv_pos_as_xyz
  1  'x, y, z'
loop_
 _atom_site_type_symbol
 _atom_site_label
 _atom_site_symmetry_multiplicity
 _atom_site_fract_x
 _atom_site_fract_y
 _atom_site_fract_z
 _atom_site_occupancy
  Sr  Sr0  1  0.16154300  0.83845700  0.49023700  1
  Sr  Sr1  1  0.83845700  0.16154300  0.49023700  1
  Nd  Nd0  1  0.66162400  0.66162400  0.51250300  1
  Nd  Nd1  1  0.33837600  0.33837600  0.51250300  1
  Ga  Ga0  1  0.35807000  0.64193000  0.03382500  1
  Ga  Ga1  1  0.85382200  0.85382200  0.96692300  1
  Ga  Ga2  1  0.64193000  0.35807000  0.03382500  1
  Ga  Ga3  1  0.14617800  0.14617800  0.96692300  1
  Ga  Ga4  1  0.50000000  0.00000000  0.99691900  1
  Ga  Ga5  1  0.00000000  0.50000000  0.99691900  1
  O  O0  1  0.41788100  0.83517600  0.20392200  1
  O  O1  1  0.90323100  0.65771600  0.79023200  1
  O  O2  1  0.58211900  0.16482400  0.20392200  1
  O  O3  1  0.09676900  0.34228400  0.79023200  1
  O  O4  1  0.34228400  0.09676900  0.79023200  1
  O  O5  1  0.83517600  0.41788100  0.20392200  1
  O  O6  1  0.65771600  0.90323100  0.79023200  1
  O  O7  1  0.16482400  0.58211900  0.20392200  1
  O  O8  1  0.00000000  0.00000000  0.81767900  1
  O  O9  1  0.50000000  0.50000000  0.20757000  1
  O  O10  1  0.37162000  0.62838000  0.69358700  1
  O  O11  1  0.84826800  0.84826800  0.30507200  1
  O  O12  1  0.62838000  0.37162000  0.69358700  1
  O  O13  1  0.15173200  0.15173200  0.30507200  1
loop_
_geom_bond_atom_site_label_1
_geom_bond_atom_site_label_2
_geom_bond_distance
_geom_bond_site_symmetry_2
Nd0 O11 2.395174 1_555
Nd0 O6 2.454416 1_555
Nd0 O1 2.454416 1_555
Nd0 O9 2.457918 1_555
Nd0 O12 2.547808 1_555
Nd0 O10 2.547808 1_555
Nd0 O5 2.937777 1_555
Nd0 O0 2.937777 1_555
Nd1 O13 2.395174 1_555
Nd1 O4 2.454416 1_555
Nd1 O3 2.454416 1_555
Nd1 O9 2.457918 1_555
Nd1 O10 2.547808 1_555
Nd1 O12 2.547808 1_555
Nd1 O7 2.937777 1_555
Nd1 O2 2.937777 1_555
Ga0 O10 1.827725 1_554
Ga0 O0 1.867110 1_555
Ga0 O7 1.867110 1_555
Ga0 O9 1.876804 1_555
Ga1 O11 1.811007 1_556
Ga1 O8 1.844160 1_665
Ga1 O6 1.891583 1_555
Ga1 O1 1.891583 1_555
Ga2 O12 1.827725 1_554
Ga2 O5 1.867110 1_555
Ga2 O2 1.867110 1_555
Ga2 O9 1.876804 1_555
Ga3 O13 1.811007 1_556
Ga3 O8 1.844160 1_555
Ga3 O3 1.891583 1_555
Ga3 O4 1.891583 1_555
Ga4 O2 1.850498 1_556
Ga4 O0 1.850498 1_546
Ga4 O6 1.865452 1_545
Ga4 O4 1.865452 1_555
Ga5 O7 1.850498 1_556
Ga5 O5 1.850498 1_456
Ga5 O1 1.865452 1_455
Ga5 O3 1.865452 1_555
O0 Sr0 2.577112 1_555
O1 Sr0 3.001297 1_655
O2 Sr1 2.577112 1_555
O3 Sr1 3.001297 1_455
O4 Sr0 3.001297 1_545
O5 Sr1 2.577112 1_555
O6 Sr1 3.001297 1_565
O7 Sr0 2.577112 1_555
O8 Sr0 2.552336 1_545
O8 Sr1 2.552336 1_455
O10 Sr0 2.647063 1_555
O11 Sr0 2.720627 1_655
O11 Sr1 2.720627 1_565
O12 Sr1 2.647063 1_555
O13 Sr0 2.720627 1_545
O13 Sr1 2.720627 1_455
