# generated using pymatgen
data_CsMnCuF6
_symmetry_space_group_name_H-M   'P 1'
_cell_length_a   7.47336467
_cell_length_b   7.47336467
_cell_length_c   7.47336467
_cell_angle_alpha   122.33708440
_cell_angle_beta   117.27383574
_cell_angle_gamma   90.39287759
_symmetry_Int_Tables_number   1
_chemical_formula_structural   CsMnCuF6
_chemical_formula_sum   'Cs2 Mn2 Cu2 F12'
_cell_volume   295.28737976
_cell_formula_units_Z   2
loop_
 _symmetry_equiv_pos_site_id
 _symmetry_equiv_pos_as_xyz
  1  'x, y, z'
loop_
 _atom_site_type_symbol
 _atom_site_label
 _atom_site_symmetry_multiplicity
 _atom_site_fract_x
 _atom_site_fract_y
 _atom_site_fract_z
 _atom_site_occupancy
  Cs  Cs0  1  0.87349100  0.62349100  0.25000000  1
  Cs  Cs1  1  0.12650900  0.37650900  0.75000000  1
  Mn  Mn0  1  0.50000000  0.00000000  0.50000000  1
  Mn  Mn1  1  0.00000000  0.00000000  0.00000000  1
  Cu  Cu0  1  0.50000000  0.00000000  0.00000000  1
  Cu  Cu1  1  0.50000000  0.50000000  0.50000000  1
  F  F0  1  0.82319200  0.07319200  0.75000000  1
  F  F1  1  0.43414900  0.68414900  0.75000000  1
  F  F2  1  0.82718000  0.69095900  0.75708700  1
  F  F3  1  0.43387200  0.07009300  0.74291300  1
  F  F4  1  0.82718000  0.07009300  0.13622100  1
  F  F5  1  0.43387200  0.69095900  0.36377900  1
  F  F6  1  0.17680800  0.92680800  0.25000000  1
  F  F7  1  0.56585100  0.31585100  0.25000000  1
  F  F8  1  0.17282000  0.30904100  0.24291300  1
  F  F9  1  0.56612800  0.92990700  0.25708700  1
  F  F10  1  0.17282000  0.92990700  0.86377900  1
  F  F11  1  0.56612800  0.30904100  0.63622100  1
loop_
_geom_bond_atom_site_label_1
_geom_bond_atom_site_label_2
_geom_bond_distance
_geom_bond_site_symmetry_2
Cs0 F6 3.194728 1_655
Cs0 F7 3.240260 1_555
Cs0 F8 3.252226 1_655
Cs0 F10 3.252226 1_655
Cs0 F9 3.252226 1_555
Cs0 F11 3.252226 1_554
Cs1 F0 3.194728 1_455
Cs1 F1 3.240260 1_555
Cs1 F3 3.252226 1_555
Cs1 F4 3.252226 1_455
Cs1 F2 3.252226 1_455
Cs1 F5 3.252226 1_556
Cu0 F1 1.930832 1_544
Cu0 F7 1.930832 1_555
Cu0 F3 2.102396 1_554
Cu0 F9 2.102396 1_545
Cu0 F10 2.102396 1_544
Cu0 F4 2.102396 1_555
Cu1 F1 1.930832 1_555
Cu1 F7 1.930832 1_555
Cu1 F5 2.102396 1_555
Cu1 F2 2.102396 1_555
Cu1 F11 2.102396 1_555
Cu1 F8 2.102396 1_555
F0 Mn1 2.092011 1_656
F0 Mn0 2.092011 1_555
F2 Mn1 1.903335 1_666
F3 Mn0 1.903335 1_555
F4 Mn1 1.903335 1_655
F5 Mn0 1.903335 1_565
F6 Mn1 2.092011 1_565
F6 Mn0 2.092011 1_565
F8 Mn1 1.903335 1_555
F9 Mn0 1.903335 1_565
F10 Mn1 1.903335 1_566
F11 Mn0 1.903335 1_555
