# generated using pymatgen
data_Fe11Si4(H4O9)3
_symmetry_space_group_name_H-M   'P 1'
_cell_length_a   5.53178600
_cell_length_b   9.09656725
_cell_length_c   12.09112062
_cell_angle_alpha   92.25385567
_cell_angle_beta   90.43028437
_cell_angle_gamma   107.56478287
_symmetry_Int_Tables_number   1
_chemical_formula_structural   Fe11Si4(H4O9)3
_chemical_formula_sum   'Fe11 Si4 H12 O27'
_cell_volume   579.49254955
_cell_formula_units_Z   1
loop_
 _symmetry_equiv_pos_site_id
 _symmetry_equiv_pos_as_xyz
  1  'x, y, z'
loop_
 _atom_site_type_symbol
 _atom_site_label
 _atom_site_symmetry_multiplicity
 _atom_site_fract_x
 _atom_site_fract_y
 _atom_site_fract_z
 _atom_site_occupancy
  Fe  Fe0  1  0.58623200  0.17162800  0.08041600  1
  Fe  Fe1  1  0.81104400  0.61504400  0.52561400  1
  Fe  Fe2  1  0.60916900  0.55008800  0.05740900  1
  Fe  Fe3  1  0.27162800  0.88388800  0.38967700  1
  Fe  Fe4  1  0.94446500  0.22186900  0.72297100  1
  Fe  Fe5  1  0.50122600  0.33123300  0.83434100  1
  Fe  Fe6  1  0.16567800  0.66307000  0.16841700  1
  Fe  Fe7  1  0.83158700  0.99375000  0.50217000  1
  Fe  Fe8  1  0.05085100  0.44228000  0.94611200  1
  Fe  Fe9  1  0.72394200  0.77405100  0.28192600  1
  Fe  Fe10  1  0.38898000  0.10836200  0.61125600  1
  Si  Si0  1  0.25128900  0.51102300  0.40749800  1
  Si  Si1  1  0.92860100  0.84981100  0.74506100  1
  Si  Si2  1  0.13996200  0.29216300  0.19160200  1
  Si  Si3  1  0.48442800  0.95697400  0.85169700  1
  H  H0  1  0.06522500  0.14774900  0.93522900  1
  H  H1  1  0.74521500  0.47801200  0.26310400  1
  H  H2  1  0.39325900  0.80047500  0.58833400  1
  H  H3  1  0.82484800  0.29190000  0.52381500  1
  H  H4  1  0.47348600  0.63048700  0.85934500  1
  H  H5  1  0.16202900  0.97368300  0.19911500  1
  H  H6  1  0.25163900  0.17793300  0.40456900  1
  H  H7  1  0.91749200  0.52497300  0.74979800  1
  H  H8  1  0.56348200  0.83763600  0.07478700  1
  H  H9  1  0.36385900  0.39391300  0.62654900  1
  H  H10  1  0.05291200  0.73163000  0.95645300  1
  H  H11  1  0.69704000  0.06444800  0.29562900  1
  O  O0  1  0.00244400  0.99852100  0.66659000  1
  O  O1  1  0.68686900  0.34581900  0.99249900  1
  O  O2  1  0.32847900  0.67365900  0.34013600  1
  O  O3  1  0.55998800  0.11015200  0.77807400  1
  O  O4  1  0.20249900  0.43427500  0.10441200  1
  O  O5  1  0.91466400  0.78676500  0.44078300  1
  O  O6  1  0.11213600  0.23839900  0.89073800  1
  O  O7  1  0.78829400  0.56718500  0.21675900  1
  O  O8  1  0.43924300  0.89176400  0.54460100  1
  O  O9  1  0.65613000  0.84110100  0.81003900  1
  O  O10  1  0.28342300  0.16514100  0.15449200  1
  O  O11  1  0.97014700  0.47661400  0.46132200  1
  O  O12  1  0.54271300  0.99260500  0.98444100  1
  O  O13  1  0.24518100  0.36573300  0.31746400  1
  O  O14  1  0.88481800  0.68546800  0.67694600  1
  O  O15  1  0.16995800  0.86793000  0.83613500  1
  O  O16  1  0.83525200  0.20192000  0.19528300  1
  O  O17  1  0.45917800  0.52047800  0.50662000  1
  O  O18  1  0.76780100  0.19721900  0.56626200  1
  O  O19  1  0.41732800  0.53569800  0.90081100  1
  O  O20  1  0.11346700  0.87437700  0.23726400  1
  O  O21  1  0.21400900  0.08503600  0.44813100  1
  O  O22  1  0.89380900  0.43082600  0.79270100  1
  O  O23  1  0.54115800  0.75063300  0.12413200  1
  O  O24  1  0.32457800  0.31003000  0.67923200  1
  O  O25  1  0.99929600  0.64314700  0.00450000  1
  O  O26  1  0.63967500  0.97562900  0.34463900  1
loop_
_geom_bond_atom_site_label_1
_geom_bond_atom_site_label_2
_geom_bond_distance
_geom_bond_site_symmetry_2
Fe0 O1 1.886701 1_554
Fe0 O10 1.891718 1_555
Fe0 O16 1.901191 1_555
Fe0 O12 1.914974 1_544
Fe1 O5 1.848004 1_555
Fe1 O17 1.883755 1_555
Fe1 O11 1.888597 1_555
Fe1 O14 1.914106 1_555
Fe2 O23 2.103191 1_555
Fe2 O7 2.138464 1_555
Fe2 O19 2.143583 1_554
Fe2 O1 2.150775 1_554
Fe2 O25 2.178056 1_555
Fe2 O4 2.264831 1_555
Fe3 O5 2.017404 1_455
Fe3 O20 2.021531 1_555
Fe3 O26 2.040833 1_555
Fe3 O21 2.050074 1_565
Fe3 O8 2.072923 1_555
Fe3 O2 2.095367 1_555
Fe4 O24 2.092000 1_655
Fe4 O18 2.098108 1_555
Fe4 O22 2.145076 1_555
Fe4 O3 2.184057 1_555
Fe4 O6 2.204825 1_655
Fe4 O0 2.232273 1_645
Fe5 O24 2.083177 1_555
Fe5 O1 2.144162 1_555
Fe5 O22 2.157607 1_555
Fe5 O19 2.174785 1_555
Fe5 O6 2.186567 1_555
Fe5 O3 2.214322 1_555
Fe6 O23 2.070528 1_555
Fe6 O7 2.102366 1_455
Fe6 O25 2.156785 1_455
Fe6 O20 2.164240 1_555
Fe6 O2 2.243896 1_555
Fe6 O4 2.259102 1_555
Fe7 O18 2.106236 1_565
Fe7 O21 2.143566 1_665
Fe7 O26 2.149766 1_555
Fe7 O8 2.161766 1_555
Fe7 O5 2.173641 1_555
Fe7 O0 2.188069 1_655
Fe8 O22 2.027855 1_455
Fe8 O1 2.031724 1_455
Fe8 O25 2.033342 1_456
Fe8 O19 2.036045 1_555
Fe8 O6 2.070759 1_555
Fe8 O4 2.096720 1_556
Fe9 O23 2.125302 1_555
Fe9 O26 2.136927 1_555
Fe9 O7 2.140220 1_555
Fe9 O20 2.153335 1_655
Fe9 O5 2.166617 1_555
Fe9 O2 2.232240 1_555
Fe10 O18 2.090463 1_555
Fe10 O24 2.109042 1_555
Fe10 O21 2.164839 1_555
Fe10 O0 2.191481 1_545
Fe10 O8 2.195002 1_545
Fe10 O3 2.218774 1_555
H0 O6 0.971870 1_555
H1 O7 0.974615 1_555
H2 O8 0.971066 1_555
H3 O18 0.988907 1_555
H4 O19 0.982868 1_555
H5 O20 0.994548 1_555
H6 O21 0.982518 1_555
H7 O22 0.993957 1_555
H8 O23 0.988353 1_555
H9 O24 0.987652 1_555
H10 O25 0.984170 1_456
H11 O26 0.995174 1_545
O0 Si1 1.634097 1_455
O2 Si0 1.659258 1_555
O3 Si3 1.631045 1_545
O4 Si2 1.656795 1_555
O9 Si3 1.684211 1_555
O9 Si1 1.686993 1_555
O10 Si2 1.638368 1_555
O11 Si0 1.636342 1_655
O12 Si3 1.635037 1_555
O13 Si2 1.665549 1_555
O13 Si0 1.671012 1_555
O14 Si1 1.628950 1_555
O15 Si3 1.688276 1_555
O15 Si1 1.689138 1_455
O16 Si2 1.638877 1_655
O17 Si0 1.636392 1_555
