# generated using pymatgen
data_HfIr
_symmetry_space_group_name_H-M   'P 1'
_cell_length_a   6.17715751
_cell_length_b   9.05361710
_cell_length_c   10.16875202
_cell_angle_alpha   90.00000000
_cell_angle_beta   99.25540784
_cell_angle_gamma   90.00000000
_symmetry_Int_Tables_number   1
_chemical_formula_structural   HfIr
_chemical_formula_sum   'Hf16 Ir16'
_cell_volume   561.29003372
_cell_formula_units_Z   16
loop_
 _symmetry_equiv_pos_site_id
 _symmetry_equiv_pos_as_xyz
  1  'x, y, z'
loop_
 _atom_site_type_symbol
 _atom_site_label
 _atom_site_symmetry_multiplicity
 _atom_site_fract_x
 _atom_site_fract_y
 _atom_site_fract_z
 _atom_site_occupancy
  Hf  Hf0_0  1  0.20681734  0.12500000  0.11098974  1
  Hf  Hf0_1  1  0.20681734  0.12500000  0.61098974  1
  Hf  Hf0_2  1  0.20681734  0.62500000  0.11098974  1
  Hf  Hf0_3  1  0.20681734  0.62500000  0.61098974  1
  Hf  Hf0_4  1  0.70681734  0.12500000  0.11098974  1
  Hf  Hf0_5  1  0.70681734  0.12500000  0.61098974  1
  Hf  Hf0_6  1  0.70681734  0.62500000  0.11098974  1
  Hf  Hf0_7  1  0.70681734  0.62500000  0.61098974  1
  Hf  Hf1_0  1  0.29318266  0.37500000  0.38901026  1
  Hf  Hf1_1  1  0.29318266  0.37500000  0.88901026  1
  Hf  Hf1_2  1  0.29318266  0.87500000  0.38901026  1
  Hf  Hf1_3  1  0.29318266  0.87500000  0.88901026  1
  Hf  Hf1_4  1  0.79318265  0.37500000  0.38901026  1
  Hf  Hf1_5  1  0.79318265  0.37500000  0.88901026  1
  Hf  Hf1_6  1  0.79318265  0.87500000  0.38901026  1
  Hf  Hf1_7  1  0.79318265  0.87500000  0.88901026  1
  Ir  Ir0_0  1  0.03084520  0.12500000  0.34651666  1
  Ir  Ir0_1  1  0.03084520  0.12500000  0.84651666  1
  Ir  Ir0_2  1  0.03084520  0.62500000  0.34651666  1
  Ir  Ir0_3  1  0.03084520  0.62500000  0.84651666  1
  Ir  Ir0_4  1  0.53084520  0.12500000  0.34651666  1
  Ir  Ir0_5  1  0.53084520  0.12500000  0.84651666  1
  Ir  Ir0_6  1  0.53084520  0.62500000  0.34651666  1
  Ir  Ir0_7  1  0.53084520  0.62500000  0.84651666  1
  Ir  Ir1_0  1  0.46915480  0.37500000  0.15348334  1
  Ir  Ir1_1  1  0.46915480  0.37500000  0.65348335  1
  Ir  Ir1_2  1  0.46915480  0.87500000  0.15348334  1
  Ir  Ir1_3  1  0.46915480  0.87500000  0.65348335  1
  Ir  Ir1_4  1  0.96915480  0.37500000  0.15348334  1
  Ir  Ir1_5  1  0.96915480  0.37500000  0.65348335  1
  Ir  Ir1_6  1  0.96915480  0.87500000  0.15348334  1
  Ir  Ir1_7  1  0.96915480  0.87500000  0.65348335  1
loop_
_geom_bond_atom_site_label_1
_geom_bond_atom_site_label_2
_geom_bond_distance
_geom_bond_site_symmetry_2
Hf0_0 Ir0_1 2.733841 1_554
Hf0_0 Ir1_4 2.769301 1_455
Hf0_0 Ir1_6 2.769301 1_445
Hf0_0 Ir1_2 2.776777 1_545
Hf0_0 Ir1_0 2.776777 1_555
Hf0_0 Ir0_0 2.784802 1_555
Hf0_0 Ir0_4 2.863626 1_555
Hf0_1 Ir0_0 2.733841 1_555
Hf0_1 Ir1_5 2.769301 1_455
Hf0_1 Ir1_7 2.769301 1_445
Hf0_1 Ir1_3 2.776777 1_545
Hf0_1 Ir1_1 2.776777 1_555
Hf0_1 Ir0_1 2.784802 1_555
Hf0_1 Ir0_5 2.863626 1_555
Hf0_2 Ir0_3 2.733841 1_554
Hf0_2 Ir1_4 2.769301 1_455
Hf0_2 Ir1_6 2.769301 1_455
Hf0_2 Ir1_0 2.776777 1_555
Hf0_2 Ir1_2 2.776777 1_555
Hf0_2 Ir0_2 2.784802 1_555
Hf0_2 Ir0_6 2.863626 1_555
Hf0_3 Ir0_2 2.733841 1_555
Hf0_3 Ir1_5 2.769301 1_455
Hf0_3 Ir1_7 2.769301 1_455
Hf0_3 Ir1_1 2.776777 1_555
Hf0_3 Ir1_3 2.776777 1_555
Hf0_3 Ir0_3 2.784802 1_555
Hf0_3 Ir0_7 2.863626 1_555
Hf0_4 Ir0_5 2.733841 1_554
Hf0_4 Ir1_2 2.769301 1_545
Hf0_4 Ir1_0 2.769301 1_555
Hf0_4 Ir1_4 2.776777 1_555
Hf0_4 Ir1_6 2.776777 1_545
Hf0_4 Ir0_4 2.784802 1_555
Hf0_4 Ir0_0 2.863626 1_655
Hf0_5 Ir0_4 2.733841 1_555
Hf0_5 Ir1_1 2.769301 1_555
Hf0_5 Ir1_3 2.769301 1_545
Hf0_5 Ir1_5 2.776777 1_555
Hf0_5 Ir1_7 2.776777 1_545
Hf0_5 Ir0_5 2.784802 1_555
Hf0_5 Ir0_1 2.863626 1_655
Hf0_6 Ir0_7 2.733841 1_554
Hf0_6 Ir1_0 2.769301 1_555
Hf0_6 Ir1_2 2.769301 1_555
Hf0_6 Ir1_4 2.776777 1_555
Hf0_6 Ir1_6 2.776777 1_555
Hf0_6 Ir0_6 2.784802 1_555
Hf0_6 Ir0_2 2.863626 1_655
Hf0_7 Ir0_6 2.733841 1_555
Hf0_7 Ir1_1 2.769301 1_555
Hf0_7 Ir1_3 2.769301 1_555
Hf0_7 Ir1_5 2.776777 1_555
Hf0_7 Ir1_7 2.776777 1_555
Hf0_7 Ir0_7 2.784802 1_555
Hf0_7 Ir0_3 2.863626 1_655
Hf1_0 Ir1_1 2.733841 1_555
Hf1_0 Ir0_6 2.769301 1_555
Hf1_0 Ir0_4 2.769301 1_555
Hf1_0 Ir0_2 2.776777 1_555
Hf1_0 Ir0_0 2.776777 1_555
Hf1_0 Ir1_0 2.784802 1_555
Hf1_0 Ir1_4 2.863626 1_455
Hf1_1 Ir1_0 2.733841 1_556
Hf1_1 Ir0_7 2.769301 1_555
Hf1_1 Ir0_5 2.769301 1_555
Hf1_1 Ir0_3 2.776777 1_555
Hf1_1 Ir0_1 2.776777 1_555
Hf1_1 Ir1_1 2.784802 1_555
Hf1_1 Ir1_5 2.863626 1_455
Hf1_2 Ir1_3 2.733841 1_555
Hf1_2 Ir0_4 2.769301 1_565
Hf1_2 Ir0_6 2.769301 1_555
Hf1_2 Ir0_0 2.776777 1_565
Hf1_2 Ir0_2 2.776777 1_555
Hf1_2 Ir1_2 2.784802 1_555
Hf1_2 Ir1_6 2.863626 1_455
Hf1_3 Ir1_2 2.733841 1_556
Hf1_3 Ir0_5 2.769301 1_565
Hf1_3 Ir0_7 2.769301 1_555
Hf1_3 Ir0_1 2.776777 1_565
Hf1_3 Ir0_3 2.776777 1_555
Hf1_3 Ir1_3 2.784802 1_555
Hf1_3 Ir1_7 2.863626 1_455
Hf1_4 Ir1_5 2.733841 1_555
Hf1_4 Ir0_2 2.769301 1_655
Hf1_4 Ir0_0 2.769301 1_655
Hf1_4 Ir0_6 2.776777 1_555
Hf1_4 Ir0_4 2.776777 1_555
Hf1_4 Ir1_4 2.784802 1_555
Hf1_4 Ir1_0 2.863626 1_555
Hf1_5 Ir1_4 2.733841 1_556
Hf1_5 Ir0_3 2.769301 1_655
Hf1_5 Ir0_1 2.769301 1_655
Hf1_5 Ir0_7 2.776777 1_555
Hf1_5 Ir0_5 2.776777 1_555
Hf1_5 Ir1_5 2.784802 1_555
Hf1_5 Ir1_1 2.863626 1_555
Hf1_6 Ir1_7 2.733841 1_555
Hf1_6 Ir0_0 2.769301 1_665
Hf1_6 Ir0_2 2.769301 1_655
Hf1_6 Ir0_4 2.776777 1_565
Hf1_6 Ir0_6 2.776777 1_555
Hf1_6 Ir1_6 2.784802 1_555
Hf1_6 Ir1_2 2.863626 1_555
Hf1_7 Ir1_6 2.733841 1_556
Hf1_7 Ir0_1 2.769301 1_665
Hf1_7 Ir0_3 2.769301 1_655
Hf1_7 Ir0_5 2.776777 1_565
Hf1_7 Ir0_7 2.776777 1_555
Hf1_7 Ir1_7 2.784802 1_555
Hf1_7 Ir1_3 2.863626 1_555
Ir0_0 Ir1_6 2.980035 1_445
Ir0_0 Ir1_4 2.980035 1_455
Ir0_0 Ir0_4 3.088579 1_455
Ir0_0 Ir0_4 3.088579 1_555
Ir0_1 Ir1_5 2.980035 1_455
Ir0_1 Ir1_7 2.980035 1_445
Ir0_1 Ir0_5 3.088579 1_555
Ir0_1 Ir0_5 3.088579 1_455
Ir0_2 Ir1_4 2.980035 1_455
Ir0_2 Ir1_6 2.980035 1_455
Ir0_2 Ir0_6 3.088579 1_555
Ir0_2 Ir0_6 3.088579 1_455
Ir0_3 Ir1_5 2.980035 1_455
Ir0_3 Ir1_7 2.980035 1_455
Ir0_3 Ir0_7 3.088579 1_555
Ir0_3 Ir0_7 3.088579 1_455
Ir0_4 Ir1_0 2.980035 1_555
Ir0_4 Ir1_2 2.980035 1_545
Ir0_5 Ir1_3 2.980035 1_545
Ir0_5 Ir1_1 2.980035 1_555
Ir0_6 Ir1_0 2.980035 1_555
Ir0_6 Ir1_2 2.980035 1_555
Ir0_7 Ir1_1 2.980035 1_555
Ir0_7 Ir1_3 2.980035 1_555
Ir1_0 Ir1_4 3.088579 1_555
Ir1_0 Ir1_4 3.088579 1_455
Ir1_1 Ir1_5 3.088579 1_555
Ir1_1 Ir1_5 3.088579 1_455
Ir1_2 Ir1_6 3.088579 1_455
Ir1_2 Ir1_6 3.088579 1_555
Ir1_3 Ir1_7 3.088579 1_555
Ir1_3 Ir1_7 3.088579 1_455
