# generated using pymatgen
data_UMo4PbO16
_symmetry_space_group_name_H-M   'P 1'
_cell_length_a   6.76554639
_cell_length_b   8.53882418
_cell_length_c   14.24066706
_cell_angle_alpha   53.73229781
_cell_angle_beta   90.00000000
_cell_angle_gamma   90.00000000
_symmetry_Int_Tables_number   1
_chemical_formula_structural   UMo4PbO16
_chemical_formula_sum   'U2 Mo8 Pb2 O32'
_cell_volume   663.29603936
_cell_formula_units_Z   2
loop_
 _symmetry_equiv_pos_site_id
 _symmetry_equiv_pos_as_xyz
  1  'x, y, z'
loop_
 _atom_site_type_symbol
 _atom_site_label
 _atom_site_symmetry_multiplicity
 _atom_site_fract_x
 _atom_site_fract_y
 _atom_site_fract_z
 _atom_site_occupancy
  U  U0  1  0.30454136  -0.00000000  0.25000000  1
  U  U1  1  0.69545864  -0.00000000  0.75000000  1
  Mo  Mo0  1  0.83578393  0.70511825  0.09399506  1
  Mo  Mo1  1  0.16421607  0.29488175  0.90600494  1
  Mo  Mo2  1  0.83578393  0.29488175  0.40600494  1
  Mo  Mo3  1  0.16421607  0.70511825  0.59399506  1
  Mo  Mo4  1  0.83558854  0.79682782  0.40409361  1
  Mo  Mo5  1  0.16441146  0.20317218  0.59590639  1
  Mo  Mo6  1  0.83558854  0.20317218  0.09590639  1
  Mo  Mo7  1  0.16441146  0.79682782  0.90409361  1
  Pb  Pb0  1  0.31090988  0.50000000  0.25000000  1
  Pb  Pb1  1  0.68909012  0.50000000  0.75000000  1
  O  O0  1  0.85212155  0.81793977  0.93016700  1
  O  O1  1  0.14787845  0.18206023  0.06983300  1
  O  O2  1  0.85212155  0.18206023  0.56983300  1
  O  O3  1  0.14787845  0.81793977  0.43016700  1
  O  O4  1  0.94310334  -0.00000000  0.25000000  1
  O  O5  1  0.05689666  -0.00000000  0.75000000  1
  O  O6  1  0.92319767  0.50000000  0.25000000  1
  O  O7  1  0.07680233  0.50000000  0.75000000  1
  O  O8  1  0.84810070  0.60088729  0.40123909  1
  O  O9  1  0.15189930  0.39911271  0.59876091  1
  O  O10  1  0.84810070  0.39911271  0.09876091  1
  O  O11  1  0.15189930  0.60088729  0.90123909  1
  O  O12  1  0.85954318  0.68984200  0.55904651  1
  O  O13  1  0.14045682  0.31015800  0.44095349  1
  O  O14  1  0.85954318  0.31015800  0.94095349  1
  O  O15  1  0.14045682  0.68984200  0.05904651  1
  O  O16  1  0.58662010  0.87173627  0.36941244  1
  O  O17  1  0.41337990  0.12826373  0.63058756  1
  O  O18  1  0.58662010  0.12826373  0.13058756  1
  O  O19  1  0.41337990  0.87173627  0.86941244  1
  O  O20  1  0.58963374  0.64589969  0.11142080  1
  O  O21  1  0.41036626  0.35410031  0.88857920  1
  O  O22  1  0.58963374  0.35410031  0.38857920  1
  O  O23  1  0.41036626  0.64589969  0.61142080  1
  O  O24  1  0.30399020  0.79123283  0.24634710  1
  O  O25  1  0.69600980  0.20876717  0.75365290  1
  O  O26  1  0.30399020  0.20876717  0.25365290  1
  O  O27  1  0.69600980  0.79123283  0.74634710  1
  O  O28  1  0.84752319  0.90128311  0.09723313  1
  O  O29  1  0.15247681  0.09871689  0.90276687  1
  O  O30  1  0.84752319  0.09871689  0.40276687  1
  O  O31  1  0.15247681  0.90128311  0.59723313  1
loop_
_geom_bond_atom_site_label_1
_geom_bond_atom_site_label_2
_geom_bond_distance
_geom_bond_site_symmetry_2
Mo0 O28 1.704553 1_555
Mo0 O20 1.715275 1_555
Mo0 O0 1.929809 1_554
Mo0 O6 1.936325 1_555
Mo0 O15 2.142519 1_655
Mo0 O10 2.574710 1_555
Mo1 O29 1.704553 1_555
Mo1 O21 1.715275 1_555
Mo1 O1 1.929809 1_556
Mo1 O7 1.936325 1_555
Mo1 O14 2.142519 1_455
Mo1 O11 2.574710 1_555
Mo2 O30 1.704553 1_555
Mo2 O22 1.715275 1_555
Mo2 O2 1.929809 1_555
Mo2 O6 1.936325 1_555
Mo2 O13 2.142519 1_655
Mo2 O8 2.574710 1_555
Mo3 O31 1.704553 1_555
Mo3 O23 1.715275 1_555
Mo3 O3 1.929809 1_555
Mo3 O7 1.936325 1_555
Mo3 O12 2.142519 1_455
Mo3 O9 2.574710 1_555
Mo4 O8 1.699575 1_555
Mo4 O16 1.765369 1_555
Mo4 O12 1.828953 1_555
Mo4 O4 1.962172 1_565
Mo4 O3 2.171066 1_655
Mo4 O30 2.567916 1_565
Mo5 O9 1.699575 1_555
Mo5 O17 1.765369 1_555
Mo5 O13 1.828953 1_555
Mo5 O5 1.962172 1_555
Mo5 O2 2.171066 1_455
Mo5 O31 2.567916 1_545
Mo6 O10 1.699575 1_555
Mo6 O18 1.765369 1_555
Mo6 O14 1.828953 1_554
Mo6 O4 1.962172 1_555
Mo6 O1 2.171066 1_655
Mo6 O28 2.567916 1_545
Mo7 O11 1.699575 1_555
Mo7 O19 1.765369 1_555
Mo7 O15 1.828953 1_556
Mo7 O5 1.962172 1_565
Mo7 O0 2.171066 1_455
Mo7 O29 2.567916 1_565
O0 U1 2.324645 1_565
O1 U0 2.324645 1_555
O2 U1 2.324645 1_555
O3 U0 2.324645 1_565
O4 U0 2.445326 1_655
O5 U1 2.445326 1_455
O6 Pb0 2.623085 1_655
O7 Pb1 2.623085 1_455
O12 Pb1 2.477292 1_555
O13 Pb0 2.477292 1_555
O14 Pb1 2.477292 1_555
O15 Pb0 2.477292 1_555
O16 U0 2.351558 1_565
O17 U1 2.351558 1_555
O18 U0 2.351558 1_555
O19 U1 2.351558 1_565
O20 Pb0 2.468555 1_555
O21 Pb1 2.468555 1_555
O22 Pb0 2.468555 1_555
O23 Pb1 2.468555 1_555
O24 U0 1.813888 1_565
O24 Pb0 2.456817 1_555
O25 U1 1.813888 1_555
O25 Pb1 2.456817 1_555
O26 U0 1.813888 1_555
O26 Pb0 2.456817 1_555
O27 U1 1.813888 1_565
O27 Pb1 2.456817 1_555
