# generated using pymatgen
data_AlPb3SO11
_symmetry_space_group_name_H-M   'P 1'
_cell_length_a   10.32503475
_cell_length_b   10.32503475
_cell_length_c   10.32503403
_cell_angle_alpha   42.06208890
_cell_angle_beta   42.06208890
_cell_angle_gamma   42.06209126
_symmetry_Int_Tables_number   1
_chemical_formula_structural   AlPb3SO11
_chemical_formula_sum   'Al2 Pb6 S2 O22'
_cell_volume   446.92740707
_cell_formula_units_Z   2
loop_
 _symmetry_equiv_pos_site_id
 _symmetry_equiv_pos_as_xyz
  1  'x, y, z'
loop_
 _atom_site_type_symbol
 _atom_site_label
 _atom_site_symmetry_multiplicity
 _atom_site_fract_x
 _atom_site_fract_y
 _atom_site_fract_z
 _atom_site_occupancy
  Al  Al0  1  0.43255900  0.43255900  0.43255900  1
  Al  Al1  1  0.93255900  0.93255900  0.93255900  1
  Pb  Pb0  1  0.64969700  0.23983900  0.14709300  1
  Pb  Pb1  1  0.14709300  0.64969700  0.23983900  1
  Pb  Pb2  1  0.23983900  0.14709300  0.64969600  1
  Pb  Pb3  1  0.64709300  0.73983900  0.14969600  1
  Pb  Pb4  1  0.14969600  0.64709300  0.73983900  1
  Pb  Pb5  1  0.73983900  0.14969700  0.64709300  1
  S  S0  1  0.11780000  0.11780000  0.11780000  1
  S  S1  1  0.61780000  0.61780000  0.61780000  1
  O  O0  1  0.49333000  0.54065100  0.14859100  1
  O  O1  1  0.14859100  0.49333000  0.54065100  1
  O  O2  1  0.54065100  0.14859100  0.49333000  1
  O  O3  1  0.64859100  0.04065100  0.99333000  1
  O  O4  1  0.99333000  0.64859100  0.04065100  1
  O  O5  1  0.04065100  0.99333000  0.64859100  1
  O  O6  1  0.40311100  0.33266700  0.70015100  1
  O  O7  1  0.70015100  0.40311100  0.33266700  1
  O  O8  1  0.33266700  0.70015100  0.40311100  1
  O  O9  1  0.20015100  0.83266700  0.90311100  1
  O  O10  1  0.90311100  0.20015100  0.83266700  1
  O  O11  1  0.83266700  0.90311100  0.20015100  1
  O  O12  1  0.30783000  0.30783000  0.30783000  1
  O  O13  1  0.80783000  0.80783000  0.80783000  1
  O  O14  1  0.06368100  0.06368100  0.06368100  1
  O  O15  1  0.56368100  0.56368100  0.56368100  1
  O  O16  1  0.01108500  0.03625100  0.35262200  1
  O  O17  1  0.35262200  0.01108500  0.03625100  1
  O  O18  1  0.03625100  0.35262200  0.01108500  1
  O  O19  1  0.85262200  0.53625100  0.51108500  1
  O  O20  1  0.51108500  0.85262200  0.53625100  1
  O  O21  1  0.53625100  0.51108500  0.85262200  1
loop_
_geom_bond_atom_site_label_1
_geom_bond_atom_site_label_2
_geom_bond_distance
_geom_bond_site_symmetry_2
Al0 O0 1.919679 1_555
Al0 O1 1.919679 1_555
Al0 O2 1.919679 1_555
Al0 O6 1.943415 1_555
Al0 O7 1.943415 1_555
Al0 O8 1.943415 1_555
Al1 O5 1.919679 1_655
Al1 O4 1.919679 1_556
Al1 O3 1.919679 1_565
Al1 O11 1.943415 1_556
Al1 O10 1.943415 1_565
Al1 O9 1.943415 1_655
O0 Pb0 2.200458 1_555
O0 Pb1 2.352192 1_555
O1 Pb1 2.200458 1_555
O1 Pb2 2.352196 1_555
O2 Pb2 2.200461 1_555
O2 Pb0 2.352192 1_555
O3 Pb3 2.200461 1_546
O3 Pb5 2.352192 1_555
O4 Pb4 2.200461 1_654
O4 Pb3 2.352196 1_555
O5 Pb5 2.200458 1_465
O5 Pb4 2.352196 1_555
O6 Pb5 2.216468 1_555
O6 Pb4 2.307387 1_555
O7 Pb3 2.216466 1_555
O7 Pb5 2.307387 1_555
O8 Pb4 2.216466 1_555
O8 Pb3 2.307387 1_555
O9 Pb1 2.216468 1_556
O9 Pb2 2.307387 1_565
O10 Pb2 2.216466 1_655
O10 Pb0 2.307387 1_556
O11 Pb0 2.216468 1_565
O11 Pb1 2.307388 1_655
O12 Pb2 2.249173 1_555
O12 Pb0 2.249181 1_555
O12 Pb1 2.249181 1_555
O13 Pb3 2.249173 1_556
O13 Pb4 2.249173 1_655
O13 Pb5 2.249181 1_565
O14 S0 1.525636 1_555
O14 Pb1 2.763412 1_545
O14 Pb0 2.763412 1_455
O14 Pb2 2.763420 1_554
O15 S1 1.525636 1_555
O15 Pb5 2.763412 1_555
O15 Pb3 2.763420 1_555
O15 Pb4 2.763421 1_555
O16 S0 1.476840 1_555
O16 Pb5 2.496645 1_455
O17 S0 1.476840 1_555
O17 Pb3 2.496640 1_545
O18 S0 1.476840 1_555
O18 Pb4 2.496640 1_554
O19 S1 1.476840 1_555
O19 Pb1 2.496645 1_655
O20 S1 1.476840 1_555
O20 Pb2 2.496640 1_565
O21 S1 1.476840 1_555
O21 Pb0 2.496645 1_556
