# generated using pymatgen
data_Na2In2SiS6
_symmetry_space_group_name_H-M   'P 1'
_cell_length_a   7.21557646
_cell_length_b   7.21557646
_cell_length_c   12.29441100
_cell_angle_alpha   74.30953236
_cell_angle_beta   74.30953236
_cell_angle_gamma   65.53708731
_symmetry_Int_Tables_number   1
_chemical_formula_structural   Na2In2SiS6
_chemical_formula_sum   'Na4 In4 Si2 S12'
_cell_volume   551.68378635
_cell_formula_units_Z   2
loop_
 _symmetry_equiv_pos_site_id
 _symmetry_equiv_pos_as_xyz
  1  'x, y, z'
loop_
 _atom_site_type_symbol
 _atom_site_label
 _atom_site_symmetry_multiplicity
 _atom_site_fract_x
 _atom_site_fract_y
 _atom_site_fract_z
 _atom_site_occupancy
  Na  Na0  1  0.90909060  0.52697153  0.33667540  1
  Na  Na1  1  0.52697153  0.90909060  0.83667540  1
  Na  Na2  1  0.07175231  0.92384106  0.50596758  1
  Na  Na3  1  0.92384106  0.07175231  0.00596758  1
  In  In0  1  0.62185602  0.44859473  0.69288597  1
  In  In1  1  0.44859473  0.62185602  0.19288597  1
  In  In2  1  0.29365316  0.41099563  0.99676478  1
  In  In3  1  0.41099563  0.29365316  0.49676478  1
  Si  Si0  1  0.07258071  0.50750351  0.75026393  1
  Si  Si1  1  0.50750351  0.07258071  0.25026393  1
  S  S0  1  0.74012538  0.29401184  0.52016619  1
  S  S1  1  0.29401184  0.74012538  0.02016619  1
  S  S2  1  0.61603942  0.21276567  0.87926336  1
  S  S3  1  0.21276567  0.61603942  0.37926336  1
  S  S4  1  0.25264196  0.69724210  0.70071529  1
  S  S5  1  0.69724210  0.25264196  0.20071529  1
  S  S6  1  0.21916552  0.21653680  0.69649639  1
  S  S7  1  0.21653680  0.21916552  0.19649639  1
  S  S8  1  0.80636440  0.68888706  0.67017039  1
  S  S9  1  0.68888706  0.80636440  0.17017039  1
  S  S10  1  0.97474918  0.46271040  0.93132972  1
  S  S11  1  0.46271040  0.97474918  0.43132972  1
loop_
_geom_bond_atom_site_label_1
_geom_bond_atom_site_label_2
_geom_bond_distance
_geom_bond_site_symmetry_2
Na0 S3 2.730817 1_655
Na0 S0 2.749497 1_555
Na0 S9 2.766501 1_555
Na0 S7 2.957379 1_655
Na1 S2 2.730817 1_565
Na1 S1 2.749497 1_556
Na1 S8 2.766501 1_555
Na1 S6 2.957379 1_565
Na2 S3 2.745356 1_555
Na2 S0 2.761057 1_465
Na2 S4 2.813375 1_555
Na2 S11 2.865435 1_555
Na2 S8 3.059929 1_455
Na3 S2 2.745356 1_554
Na3 S1 2.761057 1_645
Na3 S5 2.813375 1_555
Na3 S10 2.865435 1_554
Na3 S9 3.059929 1_545
In0 S0 2.448304 1_555
In0 S2 2.458867 1_555
In0 S8 2.511064 1_555
In0 S4 2.514291 1_555
In1 S1 2.448304 1_555
In1 S3 2.458867 1_555
In1 S9 2.511064 1_555
In1 S5 2.514291 1_555
In2 S2 2.467456 1_555
In2 S1 2.469373 1_556
In2 S10 2.491816 1_455
In2 S7 2.513135 1_556
In3 S3 2.467456 1_555
In3 S0 2.469373 1_555
In3 S11 2.491816 1_545
In3 S6 2.513135 1_555
S4 Si0 2.127791 1_555
S5 Si1 2.127791 1_555
S6 Si0 2.120592 1_555
S7 Si1 2.120592 1_555
S8 Si0 2.148556 1_655
S9 Si1 2.148556 1_565
S10 Si0 2.123236 1_655
S11 Si1 2.123236 1_565
