# generated using pymatgen
data_Sr3(GaN2)2
_symmetry_space_group_name_H-M   'P 1'
_cell_length_a   5.95305826
_cell_length_b   9.55679643
_cell_length_c   10.28142300
_cell_angle_alpha   90.00000000
_cell_angle_beta   90.00000000
_cell_angle_gamma   90.00000000
_symmetry_Int_Tables_number   1
_chemical_formula_structural   Sr3(GaN2)2
_chemical_formula_sum   'Sr12 Ga8 N16'
_cell_volume   584.93242328
_cell_formula_units_Z   4
loop_
 _symmetry_equiv_pos_site_id
 _symmetry_equiv_pos_as_xyz
  1  'x, y, z'
loop_
 _atom_site_type_symbol
 _atom_site_label
 _atom_site_symmetry_multiplicity
 _atom_site_fract_x
 _atom_site_fract_y
 _atom_site_fract_z
 _atom_site_occupancy
  Sr  Sr0  1  0.25000000  0.59547391  0.50000000  1
  Sr  Sr1  1  0.25000000  0.90452609  0.00000000  1
  Sr  Sr2  1  0.75000000  0.40452609  0.50000000  1
  Sr  Sr3  1  0.75000000  0.09547391  0.00000000  1
  Sr  Sr4  1  0.39085124  0.58772376  0.15413911  1
  Sr  Sr5  1  0.39085124  0.91227624  0.34586089  1
  Sr  Sr6  1  0.10914876  0.58772376  0.84586089  1
  Sr  Sr7  1  0.10914876  0.91227624  0.65413911  1
  Sr  Sr8  1  0.60914876  0.41227624  0.84586089  1
  Sr  Sr9  1  0.60914876  0.08772376  0.65413911  1
  Sr  Sr10  1  0.89085124  0.41227624  0.15413911  1
  Sr  Sr11  1  0.89085124  0.08772376  0.34586089  1
  Ga  Ga0  1  0.83829616  0.75000000  0.25000000  1
  Ga  Ga1  1  0.66170384  0.75000000  0.75000000  1
  Ga  Ga2  1  0.16170384  0.25000000  0.75000000  1
  Ga  Ga3  1  0.33829616  0.25000000  0.25000000  1
  Ga  Ga4  1  0.25000000  0.23005211  0.00000000  1
  Ga  Ga5  1  0.75000000  0.73005211  0.50000000  1
  Ga  Ga6  1  0.75000000  0.76994789  0.00000000  1
  Ga  Ga7  1  0.25000000  0.26994789  0.50000000  1
  N  N0  1  0.49187776  0.16800838  0.40429445  1
  N  N1  1  0.49187776  0.33199162  0.09570555  1
  N  N2  1  0.00812224  0.16800838  0.59570555  1
  N  N3  1  0.00812224  0.33199162  0.90429445  1
  N  N4  1  0.50812224  0.83199162  0.59570555  1
  N  N5  1  0.50812224  0.66800838  0.90429445  1
  N  N6  1  0.99187776  0.83199162  0.40429445  1
  N  N7  1  0.99187776  0.66800838  0.09570555  1
  N  N8  1  0.12464298  0.37510119  0.35339486  1
  N  N9  1  0.12464298  0.12489881  0.14660514  1
  N  N10  1  0.37535702  0.37510119  0.64660514  1
  N  N11  1  0.37535702  0.12489881  0.85339486  1
  N  N12  1  0.87535702  0.87510119  0.85339486  1
  N  N13  1  0.62464298  0.62489881  0.35339486  1
  N  N14  1  0.62464298  0.87510119  0.14660514  1
  N  N15  1  0.87535702  0.62489881  0.64660514  1
loop_
_geom_bond_atom_site_label_1
_geom_bond_atom_site_label_2
_geom_bond_distance
_geom_bond_site_symmetry_2
Ga0 N6 1.991597 1_555
Ga0 N7 1.991597 1_555
Ga0 N13 2.043808 1_555
Ga0 N14 2.043808 1_555
Ga1 N4 1.991597 1_555
Ga1 N5 1.991597 1_555
Ga1 N12 2.043808 1_555
Ga1 N15 2.043808 1_555
Ga2 N2 1.991597 1_555
Ga2 N3 1.991597 1_555
Ga2 N11 2.043808 1_555
Ga2 N10 2.043808 1_555
Ga3 N0 1.991597 1_555
Ga3 N1 1.991597 1_555
Ga3 N8 2.043808 1_555
Ga3 N9 2.043808 1_555
Ga4 N9 1.959276 1_555
Ga4 N11 1.959276 1_554
Ga4 N1 1.997668 1_555
Ga4 N3 1.997668 1_554
Ga5 N15 1.959276 1_555
Ga5 N13 1.959276 1_555
Ga5 N6 1.997668 1_555
Ga5 N4 1.997668 1_555
Ga6 N14 1.959276 1_555
Ga6 N12 1.959276 1_554
Ga6 N7 1.997668 1_555
Ga6 N5 1.997668 1_554
Ga7 N8 1.959276 1_555
Ga7 N10 1.959276 1_555
Ga7 N0 1.997668 1_555
Ga7 N2 1.997668 1_555
N0 Sr11 2.567253 1_555
N0 Sr5 2.587601 1_545
N0 Sr9 2.770305 1_555
N0 Sr2 2.904929 1_555
N1 Sr10 2.567253 1_555
N1 Sr4 2.587601 1_555
N1 Sr8 2.770305 1_554
N1 Sr3 2.904929 1_555
N2 Sr9 2.567253 1_455
N2 Sr7 2.587601 1_545
N2 Sr11 2.770305 1_455
N2 Sr2 2.904929 1_455
N3 Sr8 2.567253 1_455
N3 Sr6 2.587601 1_555
N3 Sr10 2.770305 1_456
N3 Sr3 2.904929 1_456
N4 Sr7 2.567253 1_555
N4 Sr9 2.587601 1_565
N4 Sr5 2.770305 1_555
N4 Sr0 2.904929 1_555
N5 Sr6 2.567253 1_555
N5 Sr8 2.587601 1_555
N5 Sr4 2.770305 1_556
N5 Sr1 2.904929 1_556
N6 Sr5 2.567253 1_655
N6 Sr11 2.587601 1_565
N6 Sr7 2.770305 1_655
N6 Sr0 2.904929 1_655
N7 Sr4 2.567253 1_655
N7 Sr10 2.587601 1_555
N7 Sr6 2.770305 1_654
N7 Sr1 2.904929 1_655
N8 Sr10 2.502030 1_455
N8 Sr0 2.695248 1_555
N8 Sr2 2.706505 1_455
N9 Sr11 2.502030 1_455
N9 Sr1 2.695248 1_545
N9 Sr3 2.706505 1_455
N10 Sr8 2.502030 1_555
N10 Sr0 2.695248 1_555
N10 Sr2 2.706505 1_555
N11 Sr9 2.502030 1_555
N11 Sr1 2.695248 1_546
N11 Sr3 2.706505 1_556
N12 Sr7 2.502030 1_655
N12 Sr3 2.695248 1_566
N12 Sr1 2.706505 1_656
N13 Sr4 2.502030 1_555
N13 Sr2 2.695248 1_555
N13 Sr0 2.706505 1_555
N14 Sr5 2.502030 1_555
N14 Sr3 2.695248 1_565
N14 Sr1 2.706505 1_555
N15 Sr6 2.502030 1_655
N15 Sr2 2.695248 1_555
N15 Sr0 2.706505 1_655
