# generated using pymatgen
data_Mg3Si4
_symmetry_space_group_name_H-M   'P 1'
_cell_length_a   8.49366675
_cell_length_b   8.49366675
_cell_length_c   8.10100381
_cell_angle_alpha   88.57370012
_cell_angle_beta   88.57370012
_cell_angle_gamma   26.56279521
_symmetry_Int_Tables_number   1
_chemical_formula_structural   Mg3Si4
_chemical_formula_sum   'Mg6 Si8'
_cell_volume   261.25703168
_cell_formula_units_Z   2
loop_
 _symmetry_equiv_pos_site_id
 _symmetry_equiv_pos_as_xyz
  1  'x, y, z'
loop_
 _atom_site_type_symbol
 _atom_site_label
 _atom_site_symmetry_multiplicity
 _atom_site_fract_x
 _atom_site_fract_y
 _atom_site_fract_z
 _atom_site_occupancy
  Mg  Mg0  1  0.02650200  0.02650200  0.45967700  1
  Mg  Mg1  1  0.94428100  0.94428100  0.04438900  1
  Mg  Mg2  1  0.14175300  0.14175300  0.08613100  1
  Mg  Mg3  1  0.78654600  0.78654600  0.21426800  1
  Mg  Mg4  1  0.23314600  0.23314600  0.51921700  1
  Mg  Mg5  1  0.43519100  0.43519100  0.72828000  1
  Si  Si0  1  0.64397500  0.64397500  0.37196800  1
  Si  Si1  1  0.85737600  0.85737600  0.53342200  1
  Si  Si2  1  0.62881500  0.62881500  0.68599200  1
  Si  Si3  1  0.05927800  0.05927800  0.79619400  1
  Si  Si4  1  0.52551200  0.52551200  0.21144600  1
  Si  Si5  1  0.30601400  0.30601400  0.95748200  1
  Si  Si6  1  0.39427000  0.39427000  0.36114700  1
  Si  Si7  1  0.77102200  0.77102200  0.78370600  1
loop_
_geom_bond_atom_site_label_1
_geom_bond_atom_site_label_2
_geom_bond_distance
_geom_bond_site_symmetry_2
Mg0 Si3 2.793020 1_555
Mg0 Si4 2.802366 1_545
Mg0 Si4 2.802366 1_455
Mg0 Si0 2.830871 1_455
Mg0 Si0 2.830871 1_545
Mg0 Si1 2.844283 1_445
Mg0 Si6 3.051769 1_455
Mg0 Si6 3.051769 1_545
Mg0 Si2 3.191976 1_545
Mg0 Si2 3.191976 1_455
Mg1 Si3 2.731634 1_664
Mg1 Si4 2.745103 1_565
Mg1 Si4 2.745103 1_655
Mg1 Si5 3.100182 1_654
Mg1 Si5 3.100182 1_564
Mg2 Si3 2.745884 1_554
Mg2 Si5 2.883841 1_554
Mg2 Si4 2.903730 1_455
Mg2 Si4 2.903730 1_545
Mg2 Si0 3.029035 1_545
Mg2 Si0 3.029035 1_455
Mg3 Si0 2.652185 1_555
Mg3 Si5 2.864295 1_654
Mg3 Si5 2.864295 1_564
Mg3 Si1 2.865453 1_555
Mg3 Si6 2.916100 1_655
Mg3 Si6 2.916100 1_565
Mg4 Si0 2.737486 1_545
Mg4 Si0 2.737486 1_455
Mg4 Si1 2.837482 1_545
Mg4 Si1 2.837482 1_455
Mg4 Si2 2.913574 1_455
Mg4 Si2 2.913574 1_545
Mg4 Si6 2.925990 1_555
Mg4 Si7 2.976426 1_545
Mg4 Si7 2.976426 1_455
Mg5 Si5 2.793901 1_555
Mg5 Si1 2.838715 1_455
Mg5 Si1 2.838715 1_545
Mg5 Si3 2.894251 1_655
Mg5 Si3 2.894251 1_565
Mg5 Si6 3.066950 1_555
Mg5 Si2 3.210737 1_555
Si0 Si4 2.378485 1_555
Si0 Si2 2.549840 1_555
Si1 Si7 2.449734 1_555
Si1 Si6 2.466520 1_655
Si1 Si6 2.466520 1_565
Si2 Si3 2.423573 1_565
Si2 Si3 2.423573 1_655
Si2 Si7 2.499899 1_555
Si4 Si6 2.458503 1_555
Si5 Si7 2.483070 1_455
Si5 Si7 2.483070 1_545
