# generated using pymatgen
data_YbAl2Pd
_symmetry_space_group_name_H-M   'P 1'
_cell_length_a   5.42282751
_cell_length_b   5.42282751
_cell_length_c   7.27003000
_cell_angle_alpha   90.00000000
_cell_angle_beta   90.00000000
_cell_angle_gamma   133.45167103
_symmetry_Int_Tables_number   1
_chemical_formula_structural   YbAl2Pd
_chemical_formula_sum   'Yb2 Al4 Pd2'
_cell_volume   155.20200575
_cell_formula_units_Z   2
loop_
 _symmetry_equiv_pos_site_id
 _symmetry_equiv_pos_as_xyz
  1  'x, y, z'
loop_
 _atom_site_type_symbol
 _atom_site_label
 _atom_site_symmetry_multiplicity
 _atom_site_fract_x
 _atom_site_fract_y
 _atom_site_fract_z
 _atom_site_occupancy
  Yb  Yb0  1  0.56352200  0.43647800  0.25000000  1
  Yb  Yb1  1  0.43647800  0.56352200  0.75000000  1
  Al  Al0  1  0.84835800  0.15164200  0.44444000  1
  Al  Al1  1  0.15164200  0.84835800  0.55556000  1
  Al  Al2  1  0.84835800  0.15164200  0.05556000  1
  Al  Al3  1  0.15164200  0.84835800  0.94444000  1
  Pd  Pd0  1  0.28397900  0.71602100  0.25000000  1
  Pd  Pd1  1  0.71602100  0.28397900  0.75000000  1
loop_
_geom_bond_atom_site_label_1
_geom_bond_atom_site_label_2
_geom_bond_distance
_geom_bond_site_symmetry_2
Al0 Pd1 2.583245 1_555
Al0 Pd0 2.645925 1_545
Al0 Pd0 2.645925 1_655
Al0 Yb0 3.170424 1_555
Al0 Yb1 3.208868 1_545
Al0 Yb1 3.208868 1_655
Al0 Yb0 3.344390 1_655
Al0 Yb0 3.344390 1_545
Al1 Pd0 2.583245 1_555
Al1 Pd1 2.645925 1_455
Al1 Pd1 2.645925 1_565
Al1 Yb1 3.170424 1_555
Al1 Yb0 3.208868 1_565
Al1 Yb0 3.208868 1_455
Al1 Yb1 3.344390 1_565
Al1 Yb1 3.344390 1_455
Al2 Pd1 2.583245 1_554
Al2 Pd0 2.645925 1_545
Al2 Pd0 2.645925 1_655
Al2 Yb0 3.170424 1_555
Al2 Yb1 3.208868 1_544
Al2 Yb1 3.208868 1_654
Al2 Yb0 3.344390 1_655
Al2 Yb0 3.344390 1_545
Al3 Pd0 2.583245 1_556
Al3 Pd1 2.645925 1_455
Al3 Pd1 2.645925 1_565
Al3 Yb1 3.170424 1_555
Al3 Yb0 3.208868 1_566
Al3 Yb0 3.208868 1_456
Al3 Yb1 3.344390 1_565
Al3 Yb1 3.344390 1_455
Pd0 Yb0 2.785111 1_555
Pd0 Yb0 3.068485 1_565
Pd0 Yb0 3.068485 1_455
Pd1 Yb1 2.785111 1_555
Pd1 Yb1 3.068485 1_655
Pd1 Yb1 3.068485 1_545
