# generated using pymatgen
data_KNb3(PO5)3
_symmetry_space_group_name_H-M   'P 1'
_cell_length_a   14.99039800
_cell_length_b   6.56858800
_cell_length_c   15.04475837
_cell_angle_alpha   64.04922991
_cell_angle_beta   90.00000000
_cell_angle_gamma   90.00000000
_symmetry_Int_Tables_number   1
_chemical_formula_structural   KNb3(PO5)3
_chemical_formula_sum   'K4 Nb12 P12 O60'
_cell_volume   1332.02504992
_cell_formula_units_Z   4
loop_
 _symmetry_equiv_pos_site_id
 _symmetry_equiv_pos_as_xyz
  1  'x, y, z'
loop_
 _atom_site_type_symbol
 _atom_site_label
 _atom_site_symmetry_multiplicity
 _atom_site_fract_x
 _atom_site_fract_y
 _atom_site_fract_z
 _atom_site_occupancy
  K  K0  1  0.82323000  0.91983300  0.49123000  1
  K  K1  1  0.32323000  0.08016700  0.00877000  1
  K  K2  1  0.17677000  0.08016700  0.50877000  1
  K  K3  1  0.67677000  0.91983300  0.99123000  1
  Nb  Nb0  1  0.88698800  0.43705400  0.06201700  1
  Nb  Nb1  1  0.11301200  0.56294600  0.93798300  1
  Nb  Nb2  1  0.61301200  0.43705400  0.56201700  1
  Nb  Nb3  1  0.38698800  0.56294600  0.43798300  1
  Nb  Nb4  1  0.47360400  0.35963700  0.14123300  1
  Nb  Nb5  1  0.52639600  0.64036300  0.85876700  1
  Nb  Nb6  1  0.02639600  0.35963700  0.64123300  1
  Nb  Nb7  1  0.97360400  0.64036300  0.35876700  1
  Nb  Nb8  1  0.77658600  0.69179200  0.80683400  1
  Nb  Nb9  1  0.22341400  0.30820800  0.19316600  1
  Nb  Nb10  1  0.72341400  0.69179200  0.30683400  1
  Nb  Nb11  1  0.27658600  0.30820800  0.69316600  1
  P  P0  1  0.87951500  0.87459400  0.12553200  1
  P  P1  1  0.12048500  0.12540600  0.87446800  1
  P  P2  1  0.62048500  0.87459400  0.62553200  1
  P  P3  1  0.37951500  0.12540600  0.37446800  1
  P  P4  1  0.70202700  0.27228000  0.22755700  1
  P  P5  1  0.29797300  0.72772000  0.77244300  1
  P  P6  1  0.79797300  0.27228000  0.72755700  1
  P  P7  1  0.20202700  0.72772000  0.27244300  1
  P  P8  1  0.00265100  0.20645500  0.29356800  1
  P  P9  1  0.99734900  0.79354500  0.70643200  1
  P  P10  1  0.49734900  0.20645500  0.79356800  1
  P  P11  1  0.50265100  0.79354500  0.20643200  1
  O  O0  1  0.82606600  0.56581200  0.93493300  1
  O  O1  1  0.17393400  0.43418800  0.06506700  1
  O  O2  1  0.67393400  0.56581200  0.43493300  1
  O  O3  1  0.32606600  0.43418800  0.56506700  1
  O  O4  1  0.60644700  0.31292600  0.18736500  1
  O  O5  1  0.39355300  0.68707400  0.81263500  1
  O  O6  1  0.89355300  0.31292600  0.68736500  1
  O  O7  1  0.10644700  0.68707400  0.31263500  1
  O  O8  1  0.95253700  0.79598000  0.20397800  1
  O  O9  1  0.04746300  0.20402000  0.79602200  1
  O  O10  1  0.54746300  0.79598000  0.70397800  1
  O  O11  1  0.45253700  0.20402000  0.29602200  1
  O  O12  1  0.94504700  0.29952200  0.20047400  1
  O  O13  1  0.05495300  0.70047800  0.79952600  1
  O  O14  1  0.55495300  0.29952200  0.70047400  1
  O  O15  1  0.44504700  0.70047800  0.29952600  1
  O  O16  1  0.76547300  0.36250300  0.13821600  1
  O  O17  1  0.23452700  0.63749700  0.86178400  1
  O  O18  1  0.73452700  0.36250300  0.63821600  1
  O  O19  1  0.26547300  0.63749700  0.36178400  1
  O  O20  1  0.71639200  0.83163800  0.66804700  1
  O  O21  1  0.28360800  0.16836200  0.33195300  1
  O  O22  1  0.78360800  0.83163800  0.16804700  1
  O  O23  1  0.21639200  0.16836200  0.83195300  1
  O  O24  1  0.88677100  0.13211800  0.05890800  1
  O  O25  1  0.11357900  0.24942500  0.94119700  1
  O  O26  1  0.61357900  0.75057500  0.55880300  1
  O  O27  1  0.38677100  0.86788200  0.44109200  1
  O  O28  1  0.11322900  0.86788200  0.94109200  1
  O  O29  1  0.88642100  0.75057500  0.05880300  1
  O  O30  1  0.38642100  0.24942500  0.44119700  1
  O  O31  1  0.61322900  0.13211800  0.55890800  1
  O  O32  1  0.89701100  0.77080200  0.72909800  1
  O  O33  1  0.10298900  0.22919800  0.27090200  1
  O  O34  1  0.60298900  0.77080200  0.22909800  1
  O  O35  1  0.39701100  0.22919800  0.77090200  1
  O  O36  1  0.78015100  0.39348200  0.79485700  1
  O  O37  1  0.22004500  0.98337600  0.20483200  1
  O  O38  1  0.72004500  0.01662400  0.29516800  1
  O  O39  1  0.28015100  0.60651800  0.70514300  1
  O  O40  1  0.21984900  0.60651800  0.20514300  1
  O  O41  1  0.77995500  0.01662400  0.79516800  1
  O  O42  1  0.27995500  0.98337600  0.70483200  1
  O  O43  1  0.71984900  0.39348200  0.29485700  1
  O  O44  1  0.50000000  0.50000000  0.00000000  1
  O  O45  1  0.00000000  0.50000000  0.50000000  1
  O  O46  1  0.97870500  0.95390900  0.35913900  1
  O  O47  1  0.02085200  0.67216900  0.64088100  1
  O  O48  1  0.52085200  0.32783100  0.85911900  1
  O  O49  1  0.47870500  0.04609100  0.14086100  1
  O  O50  1  0.02129500  0.04609100  0.64086100  1
  O  O51  1  0.97914800  0.32783100  0.35911900  1
  O  O52  1  0.47914800  0.67216900  0.14088100  1
  O  O53  1  0.52129500  0.95390900  0.85913900  1
  O  O54  1  0.00000000  0.50000000  0.00000000  1
  O  O55  1  0.50000000  0.50000000  0.50000000  1
  O  O56  1  0.65429400  0.63667500  0.86463400  1
  O  O57  1  0.34570600  0.36332500  0.13536600  1
  O  O58  1  0.84570600  0.63667500  0.36463400  1
  O  O59  1  0.15429400  0.36332500  0.63536600  1
loop_
_geom_bond_atom_site_label_1
_geom_bond_atom_site_label_2
_geom_bond_distance
_geom_bond_site_symmetry_2
K0 O20 2.937397 1_555
K0 O46 3.006978 1_555
K0 O38 3.139459 1_565
K0 O58 3.209488 1_555
K1 O23 2.937397 1_554
K1 O49 3.006978 1_555
K1 O37 3.139459 1_545
K1 O57 3.209488 1_555
K2 O21 2.937397 1_555
K2 O50 3.006978 1_555
K2 O42 3.139459 1_545
K2 O59 3.209488 1_555
K3 O22 2.937397 1_556
K3 O53 3.006978 1_555
K3 O41 3.139459 1_565
K3 O56 3.209488 1_555
Nb0 O54 1.890457 1_655
Nb0 O0 1.946698 1_554
Nb0 O24 2.023907 1_555
Nb0 O29 2.038712 1_555
Nb0 O12 2.065366 1_555
Nb0 O16 2.093030 1_555
Nb1 O54 1.890457 1_556
Nb1 O1 1.946698 1_556
Nb1 O28 2.023907 1_555
Nb1 O25 2.038712 1_555
Nb1 O13 2.065366 1_555
Nb1 O17 2.093030 1_555
Nb2 O55 1.890457 1_555
Nb2 O2 1.946698 1_555
Nb2 O31 2.023907 1_555
Nb2 O26 2.038712 1_555
Nb2 O14 2.065366 1_555
Nb2 O18 2.093030 1_555
Nb3 O55 1.890457 1_555
Nb3 O3 1.946698 1_555
Nb3 O27 2.023907 1_555
Nb3 O30 2.038712 1_555
Nb3 O15 2.065366 1_555
Nb3 O19 2.093030 1_555
Nb4 O57 1.918938 1_555
Nb4 O44 1.951132 1_555
Nb4 O52 2.052265 1_555
Nb4 O49 2.063427 1_555
Nb4 O4 2.086868 1_555
Nb4 O11 2.117637 1_555
Nb5 O56 1.918938 1_555
Nb5 O44 1.951132 1_556
Nb5 O48 2.052265 1_555
Nb5 O53 2.063427 1_555
Nb5 O5 2.086868 1_555
Nb5 O10 2.117637 1_555
Nb6 O59 1.918938 1_555
Nb6 O45 1.951132 1_555
Nb6 O47 2.052265 1_555
Nb6 O50 2.063427 1_555
Nb6 O6 2.086868 1_455
Nb6 O9 2.117637 1_555
Nb7 O58 1.918938 1_555
Nb7 O45 1.951132 1_655
Nb7 O51 2.052265 1_555
Nb7 O46 2.063427 1_555
Nb7 O7 2.086868 1_655
Nb7 O8 2.117637 1_555
Nb8 O0 1.885031 1_555
Nb8 O56 1.993079 1_555
Nb8 O36 2.045454 1_555
Nb8 O41 2.063547 1_565
Nb8 O20 2.083067 1_555
Nb8 O32 2.089192 1_555
Nb9 O1 1.885031 1_555
Nb9 O57 1.993079 1_555
Nb9 O40 2.045454 1_555
Nb9 O37 2.063547 1_545
Nb9 O21 2.083067 1_555
Nb9 O33 2.089192 1_555
Nb10 O2 1.885031 1_555
Nb10 O58 1.993079 1_555
Nb10 O43 2.045454 1_555
Nb10 O38 2.063547 1_565
Nb10 O22 2.083067 1_555
Nb10 O34 2.089192 1_555
Nb11 O3 1.885031 1_555
Nb11 O59 1.993079 1_555
Nb11 O39 2.045454 1_555
Nb11 O42 2.063547 1_545
Nb11 O23 2.083067 1_555
Nb11 O35 2.089192 1_555
O4 P4 1.532479 1_555
O5 P5 1.532479 1_555
O6 P6 1.532479 1_555
O7 P7 1.532479 1_555
O8 P0 1.524586 1_555
O9 P1 1.524586 1_555
O10 P2 1.524586 1_555
O11 P3 1.524586 1_555
O12 P8 1.526967 1_655
O13 P9 1.526967 1_455
O14 P10 1.526967 1_555
O15 P11 1.526967 1_555
O16 P4 1.537939 1_555
O17 P5 1.537939 1_555
O18 P6 1.537939 1_555
O19 P7 1.537939 1_555
O20 P2 1.548457 1_555
O21 P3 1.548457 1_555
O22 P0 1.548457 1_555
O23 P1 1.548457 1_555
O24 P0 1.547256 1_545
O25 P1 1.548533 1_555
O26 P2 1.548533 1_555
O27 P3 1.547256 1_565
O28 P1 1.547256 1_565
O29 P0 1.548533 1_555
O30 P3 1.548533 1_555
O31 P2 1.547256 1_545
O32 P9 1.535042 1_555
O33 P8 1.535042 1_555
O34 P11 1.535042 1_555
O35 P10 1.535042 1_555
O36 P6 1.560723 1_555
O37 P7 1.559709 1_555
O38 P4 1.559709 1_555
O39 P5 1.560723 1_555
O40 P7 1.560723 1_555
O41 P6 1.559709 1_555
O42 P5 1.559709 1_555
O43 P4 1.560723 1_555
O46 P8 1.556164 1_665
O47 P9 1.555793 1_455
O48 P10 1.555793 1_555
O49 P11 1.556164 1_545
O50 P9 1.556164 1_445
O51 P8 1.555793 1_655
O52 P11 1.555793 1_555
O53 P10 1.556164 1_565
