# generated using pymatgen
data_Nd3Y
_symmetry_space_group_name_H-M   'P 1'
_cell_length_a   7.46268518
_cell_length_b   7.46268518
_cell_length_c   5.90466130
_cell_angle_alpha   90.00000000
_cell_angle_beta   90.00000000
_cell_angle_gamma   119.99999542
_symmetry_Int_Tables_number   1
_chemical_formula_structural   Nd3Y
_chemical_formula_sum   'Nd6 Y2'
_cell_volume   284.78419615
_cell_formula_units_Z   2
loop_
 _symmetry_equiv_pos_site_id
 _symmetry_equiv_pos_as_xyz
  1  'x, y, z'
loop_
 _atom_site_type_symbol
 _atom_site_label
 _atom_site_symmetry_multiplicity
 _atom_site_fract_x
 _atom_site_fract_y
 _atom_site_fract_z
 _atom_site_occupancy
  Nd  Nd0  1  0.16758554  0.33517107  0.25000000  1
  Nd  Nd1  1  0.66482893  0.83241446  0.25000000  1
  Nd  Nd2  1  0.16758554  0.83241446  0.25000000  1
  Nd  Nd3  1  0.83241446  0.66482893  0.75000000  1
  Nd  Nd4  1  0.33517107  0.16758554  0.75000000  1
  Nd  Nd5  1  0.83241446  0.16758554  0.75000000  1
  Y  Y0  1  0.33333300  0.66666700  0.75000000  1
  Y  Y1  1  0.66666700  0.33333300  0.25000000  1
loop_
_geom_bond_atom_site_label_1
_geom_bond_atom_site_label_2
_geom_bond_distance
_geom_bond_site_symmetry_2
Nd0 Y0 3.647767 1_554
Nd0 Y0 3.647767 1_555
Nd0 Nd4 3.661768 1_555
Nd0 Nd4 3.661768 1_554
Nd0 Nd5 3.661768 1_455
Nd0 Nd5 3.661768 1_454
Nd0 Nd2 3.710771 1_555
Nd0 Nd1 3.710771 1_555
Nd0 Y1 3.731358 1_455
Nd0 Y1 3.731365 1_555
Nd0 Nd2 3.751914 1_545
Nd0 Nd1 3.751915 1_445
Nd1 Y0 3.647767 1_555
Nd1 Y0 3.647767 1_554
Nd1 Nd3 3.661768 1_555
Nd1 Nd3 3.661768 1_554
Nd1 Nd5 3.661768 1_564
Nd1 Nd5 3.661768 1_565
Nd1 Nd2 3.710771 1_555
Nd1 Y1 3.731358 1_565
Nd1 Y1 3.731365 1_555
Nd1 Nd2 3.751914 1_655
Nd2 Y0 3.647763 1_555
Nd2 Y0 3.647763 1_554
Nd2 Nd4 3.661768 1_565
Nd2 Nd4 3.661768 1_564
Nd2 Nd3 3.661768 1_455
Nd2 Nd3 3.661768 1_454
Nd2 Y1 3.731362 1_455
Nd2 Y1 3.731362 1_565
Nd3 Y1 3.647767 1_556
Nd3 Y1 3.647767 1_555
Nd3 Nd5 3.710771 1_555
Nd3 Nd4 3.710771 1_555
Nd3 Y0 3.731358 1_655
Nd3 Y0 3.731365 1_555
Nd3 Nd5 3.751914 1_565
Nd3 Nd4 3.751915 1_665
Nd4 Y1 3.647767 1_556
Nd4 Y1 3.647767 1_555
Nd4 Nd5 3.710771 1_555
Nd4 Y0 3.731358 1_545
Nd4 Y0 3.731365 1_555
Nd4 Nd5 3.751914 1_455
Nd5 Y1 3.647763 1_555
Nd5 Y1 3.647763 1_556
Nd5 Y0 3.731362 1_545
Nd5 Y0 3.731362 1_655
