# generated using pymatgen
data_Sr2Y2Mn2O7
_symmetry_space_group_name_H-M   'P 1'
_cell_length_a   12.62272772
_cell_length_b   12.62272772
_cell_length_c   12.62272772
_cell_angle_alpha   153.51920402
_cell_angle_beta   152.86241443
_cell_angle_gamma   38.27953962
_symmetry_Int_Tables_number   1
_chemical_formula_structural   Sr2Y2Mn2O7
_chemical_formula_sum   'Sr4 Y4 Mn4 O14'
_cell_volume   408.39563127
_cell_formula_units_Z   2
loop_
 _symmetry_equiv_pos_site_id
 _symmetry_equiv_pos_as_xyz
  1  'x, y, z'
loop_
 _atom_site_type_symbol
 _atom_site_label
 _atom_site_symmetry_multiplicity
 _atom_site_fract_x
 _atom_site_fract_y
 _atom_site_fract_z
 _atom_site_occupancy
  Sr  Sr0  1  0.31963600  0.85132900  0.45937600  1
  Sr  Sr1  1  0.68036400  0.13974000  0.53169200  1
  Sr  Sr2  1  0.10804700  0.63974000  0.45937600  1
  Sr  Sr3  1  0.89195300  0.35132900  0.53169200  1
  Y  Y0  1  0.00000000  0.47499600  0.47499600  1
  Y  Y1  1  0.50000000  0.97499600  0.47499600  1
  Y  Y2  1  0.69146800  0.77736500  0.96883300  1
  Y  Y3  1  0.30853200  0.27736500  0.08589800  1
  Mn  Mn0  1  0.42810300  0.39551100  0.97868600  1
  Mn  Mn1  1  0.57189700  0.55058300  0.96740800  1
  Mn  Mn2  1  0.08317500  0.05058300  0.97868600  1
  Mn  Mn3  1  0.91682500  0.89551100  0.96740800  1
  O  O0  1  0.34362700  0.65545000  0.49907700  1
  O  O1  1  0.65637300  0.15545000  0.31182300  1
  O  O2  1  0.23775500  0.70293700  0.06291100  1
  O  O3  1  0.76224500  0.82515600  0.46518200  1
  O  O4  1  0.85997400  0.32515600  0.06291100  1
  O  O5  1  0.14002600  0.20293700  0.46518200  1
  O  O6  1  0.62784900  0.09995900  0.85999800  1
  O  O7  1  0.37215100  0.23214800  0.47211000  1
  O  O8  1  0.26003900  0.73214800  0.85999800  1
  O  O9  1  0.73996100  0.59995900  0.47211000  1
  O  O10  1  0.88936000  0.76981900  0.99436900  1
  O  O11  1  0.11064000  0.10500900  0.88046000  1
  O  O12  1  0.72455000  0.60500900  0.99436900  1
  O  O13  1  0.27545000  0.26981900  0.88046000  1
loop_
_geom_bond_atom_site_label_1
_geom_bond_atom_site_label_2
_geom_bond_distance
_geom_bond_site_symmetry_2
Mn0 O6 2.114069 1_555
Mn0 O2 2.117673 1_556
Mn0 O9 2.118008 1_556
Mn0 O13 2.189388 1_555
Mn0 O5 2.206052 1_555
Mn1 O7 2.114071 1_555
Mn1 O3 2.117673 1_556
Mn1 O8 2.118005 1_555
Mn1 O12 2.189378 1_555
Mn1 O4 2.206052 1_556
Mn2 O8 2.114074 1_545
Mn2 O4 2.117673 1_456
Mn2 O7 2.118010 1_556
Mn2 O11 2.189365 1_555
Mn2 O3 2.206052 1_445
Mn3 O9 2.114069 1_555
Mn3 O5 2.117673 1_666
Mn3 O6 2.118008 1_565
Mn3 O10 2.189378 1_555
Mn3 O2 2.206052 1_656
O0 Y2 2.177492 1_555
O0 Y3 2.196001 1_555
O0 Sr2 2.688628 1_555
O0 Sr0 2.688628 1_555
O1 Y3 2.177490 1_555
O1 Y2 2.196004 1_544
O1 Sr1 2.688616 1_555
O1 Sr3 2.688638 1_555
O2 Y1 2.243025 1_555
O2 Sr0 2.583418 1_555
O2 Y0 2.837420 1_554
O2 Sr3 2.959596 1_454
O3 Y1 2.243025 1_555
O3 Sr1 2.583427 1_565
O3 Y0 2.837420 1_655
O3 Sr2 2.959601 1_655
O4 Y0 2.243025 1_655
O4 Sr2 2.583418 1_655
O4 Y1 2.837420 1_544
O4 Sr1 2.959612 1_554
O5 Y0 2.243025 1_555
O5 Sr3 2.583409 1_455
O5 Y1 2.837420 1_545
O5 Sr0 2.959601 1_545
O6 Y1 2.241623 1_545
O6 Sr0 2.509994 1_545
O7 Y1 2.241611 1_545
O7 Sr1 2.510009 1_555
O8 Y0 2.241614 1_555
O8 Sr2 2.510003 1_555
O9 Y0 2.241623 1_655
O9 Sr3 2.509985 1_555
O10 Y2 2.144996 1_555
O10 Sr0 2.496393 1_656
O10 Sr3 2.618106 1_555
O11 Y3 2.144996 1_556
O11 Sr1 2.496393 1_455
O11 Sr2 2.618101 1_545
O12 Y2 2.144996 1_555
O12 Sr2 2.496393 1_656
O12 Sr1 2.618101 1_555
O13 Y3 2.144996 1_556
O13 Sr3 2.496403 1_455
O13 Sr0 2.618106 1_545
