# generated using pymatgen
data_Sr5Ca3Mn4(FeO6)4
_symmetry_space_group_name_H-M   'P 1'
_cell_length_a   7.77046218
_cell_length_b   7.77046218
_cell_length_c   7.75429701
_cell_angle_alpha   89.99841165
_cell_angle_beta   89.99841165
_cell_angle_gamma   89.99832113
_symmetry_Int_Tables_number   1
_chemical_formula_structural   Sr5Ca3Mn4(FeO6)4
_chemical_formula_sum   'Sr5 Ca3 Mn4 Fe4 O24'
_cell_volume   468.20509234
_cell_formula_units_Z   1
loop_
 _symmetry_equiv_pos_site_id
 _symmetry_equiv_pos_as_xyz
  1  'x, y, z'
loop_
 _atom_site_type_symbol
 _atom_site_label
 _atom_site_symmetry_multiplicity
 _atom_site_fract_x
 _atom_site_fract_y
 _atom_site_fract_z
 _atom_site_occupancy
  Sr  Sr0  1  0.74905900  0.25101500  0.25073400  1
  Sr  Sr1  1  0.25095400  0.25095400  0.25066400  1
  Sr  Sr2  1  0.74903800  0.74903800  0.25060300  1
  Sr  Sr3  1  0.25101500  0.74905900  0.25073400  1
  Sr  Sr4  1  0.74898900  0.74898900  0.74931300  1
  Ca  Ca0  1  0.74861500  0.25128900  0.74898500  1
  Ca  Ca1  1  0.25137300  0.25137300  0.74904300  1
  Ca  Ca2  1  0.25128900  0.74861500  0.74898500  1
  Mn  Mn0  1  0.49942200  0.00079900  0.50172200  1
  Mn  Mn1  1  0.49938700  0.49938700  0.99763200  1
  Mn  Mn2  1  0.00079900  0.49942200  0.50172200  1
  Mn  Mn3  1  0.49949400  0.49949400  0.50154500  1
  Fe  Fe0  1  0.00078200  0.00078200  0.99779600  1
  Fe  Fe1  1  0.49946900  0.00060000  0.99808700  1
  Fe  Fe2  1  0.00060900  0.00060900  0.50173100  1
  Fe  Fe3  1  0.00060000  0.49946900  0.99808700  1
  O  O0  1  0.00076500  0.24698200  0.99388900  1
  O  O1  1  0.49932100  0.25372500  0.99367400  1
  O  O2  1  0.00066500  0.25376200  0.50645300  1
  O  O3  1  0.49955300  0.25093800  0.50719500  1
  O  O4  1  0.00276700  0.75323900  0.99572800  1
  O  O5  1  0.49706400  0.74615200  0.99578600  1
  O  O6  1  0.00292100  0.74618300  0.50417800  1
  O  O7  1  0.49655500  0.74898900  0.50434600  1
  O  O8  1  0.00073200  0.00073200  0.24659100  1
  O  O9  1  0.49946600  0.00062700  0.25390300  1
  O  O10  1  0.00256400  0.00256400  0.75286800  1
  O  O11  1  0.49717300  0.00272800  0.74633600  1
  O  O12  1  0.00062700  0.49946600  0.25390300  1
  O  O13  1  0.49957500  0.49957500  0.25109300  1
  O  O14  1  0.00272800  0.49717300  0.74633600  1
  O  O15  1  0.49666200  0.49666200  0.74909200  1
  O  O16  1  0.75323900  0.00276700  0.99572800  1
  O  O17  1  0.24698200  0.00076500  0.99388900  1
  O  O18  1  0.74618300  0.00292100  0.50417800  1
  O  O19  1  0.25376200  0.00066500  0.50645300  1
  O  O20  1  0.74615200  0.49706400  0.99578600  1
  O  O21  1  0.25372500  0.49932100  0.99367400  1
  O  O22  1  0.74898900  0.49655500  0.50434600  1
  O  O23  1  0.25093800  0.49955300  0.50719500  1
loop_
_geom_bond_atom_site_label_1
_geom_bond_atom_site_label_2
_geom_bond_distance
_geom_bond_site_symmetry_2
Ca0 O22 2.688981 1_555
Ca0 O3 2.694623 1_555
Ca0 O20 2.703767 1_555
Ca0 O18 2.707171 1_555
Ca0 O1 2.711590 1_555
Ca0 O2 2.715320 1_655
Ca0 O16 2.718665 1_555
Ca0 O0 2.728861 1_655
Ca0 O15 2.732780 1_555
Ca0 O11 2.747453 1_555
Ca0 O14 2.747745 1_655
Ca0 O10 2.762238 1_655
Ca1 O3 2.689944 1_555
Ca1 O23 2.689944 1_555
Ca1 O15 2.695543 1_555
Ca1 O1 2.703884 1_555
Ca1 O21 2.703884 1_555
Ca1 O19 2.708191 1_555
Ca1 O2 2.708191 1_555
Ca1 O14 2.716837 1_555
Ca1 O11 2.716837 1_555
Ca1 O17 2.719891 1_555
Ca1 O0 2.719891 1_555
Ca1 O10 2.734385 1_555
Ca2 O7 2.688981 1_555
Ca2 O23 2.694623 1_555
Ca2 O5 2.703767 1_555
Ca2 O6 2.707171 1_555
Ca2 O21 2.711590 1_555
Ca2 O19 2.715320 1_565
Ca2 O4 2.718665 1_555
Ca2 O17 2.728861 1_565
Ca2 O15 2.732780 1_555
Ca2 O14 2.747453 1_555
Ca2 O11 2.747745 1_565
Ca2 O10 2.762238 1_565
Mn0 O11 1.896949 1_555
Mn0 O19 1.909244 1_555
Mn0 O18 1.917614 1_555
Mn0 O9 1.921663 1_555
Mn0 O3 1.944160 1_555
Mn0 O7 1.956913 1_545
Mn1 O1 1.909155 1_555
Mn1 O21 1.909155 1_555
Mn1 O20 1.917616 1_555
Mn1 O5 1.917616 1_555
Mn1 O15 1.927487 1_555
Mn1 O13 1.965413 1_556
Mn2 O14 1.896949 1_555
Mn2 O2 1.909244 1_555
Mn2 O6 1.917614 1_555
Mn2 O12 1.921663 1_555
Mn2 O23 1.944160 1_555
Mn2 O22 1.956913 1_455
Mn3 O15 1.919804 1_555
Mn3 O3 1.931891 1_555
Mn3 O23 1.931891 1_555
Mn3 O7 1.938948 1_555
Mn3 O22 1.938948 1_555
Mn3 O13 1.942079 1_555
Fe0 O10 1.899345 1_555
Fe0 O0 1.913327 1_555
Fe0 O17 1.913327 1_555
Fe0 O4 1.923652 1_545
Fe0 O16 1.923652 1_455
Fe0 O8 1.929230 1_556
Fe1 O11 1.952304 1_555
Fe1 O17 1.962212 1_555
Fe1 O1 1.967195 1_555
Fe1 O16 1.972067 1_555
Fe1 O5 1.977348 1_545
Fe1 O9 1.983673 1_556
Fe2 O10 1.947510 1_555
Fe2 O2 1.967458 1_555
Fe2 O19 1.967458 1_555
Fe2 O6 1.977179 1_545
Fe2 O18 1.977179 1_455
Fe2 O8 1.978432 1_555
Fe3 O14 1.952304 1_555
Fe3 O0 1.962212 1_555
Fe3 O21 1.967195 1_555
Fe3 O4 1.972067 1_555
Fe3 O20 1.977348 1_455
Fe3 O12 1.983673 1_556
O0 Sr1 2.783012 1_556
O0 Sr0 2.791573 1_456
O1 Sr1 2.774171 1_556
O1 Sr0 2.782054 1_556
O2 Sr1 2.777927 1_555
O2 Sr0 2.784789 1_455
O3 Sr1 2.772864 1_555
O3 Sr0 2.777313 1_555
O4 Sr4 2.746096 1_455
O4 Sr3 2.762677 1_556
O4 Sr2 2.791789 1_456
O5 Sr4 2.735901 1_555
O5 Sr3 2.750276 1_556
O5 Sr2 2.781833 1_556
O6 Sr4 2.739871 1_455
O6 Sr3 2.753007 1_555
O6 Sr2 2.785483 1_455
O7 Sr4 2.730582 1_555
O7 Sr3 2.740067 1_555
O7 Sr2 2.778546 1_555
O8 Sr1 2.749936 1_555
O8 Sr3 2.758178 1_545
O8 Sr0 2.758178 1_455
O8 Sr2 2.766103 1_445
O9 Sr1 2.740987 1_555
O9 Sr0 2.747322 1_555
O9 Sr3 2.747582 1_545
O9 Sr2 2.753753 1_545
O10 Sr4 2.786738 1_445
O11 Sr4 2.777871 1_545
O12 Sr1 2.740987 1_555
O12 Sr3 2.747322 1_555
O12 Sr0 2.747582 1_455
O12 Sr2 2.753753 1_455
O13 Sr1 2.732161 1_555
O13 Sr3 2.736492 1_555
O13 Sr0 2.736492 1_555
O13 Sr2 2.741415 1_555
O14 Sr4 2.777871 1_455
O15 Sr4 2.772886 1_555
O16 Sr4 2.746096 1_545
O16 Sr0 2.762677 1_556
O16 Sr2 2.791789 1_546
O17 Sr1 2.783012 1_556
O17 Sr3 2.791573 1_546
O18 Sr4 2.739871 1_545
O18 Sr0 2.753007 1_555
O18 Sr2 2.785483 1_545
O19 Sr1 2.777927 1_555
O19 Sr3 2.784789 1_545
O20 Sr4 2.735901 1_555
O20 Sr0 2.750276 1_556
O20 Sr2 2.781833 1_556
O21 Sr1 2.774171 1_556
O21 Sr3 2.782054 1_556
O22 Sr4 2.730582 1_555
O22 Sr0 2.740067 1_555
O22 Sr2 2.778546 1_555
O23 Sr1 2.772864 1_555
O23 Sr3 2.777313 1_555
