# generated using pymatgen
data_NaAl(H2N)4
_symmetry_space_group_name_H-M   'P 1'
_cell_length_a   9.26458281
_cell_length_b   7.83941800
_cell_length_c   8.63689063
_cell_angle_alpha   90.00000000
_cell_angle_beta   108.83181333
_cell_angle_gamma   90.00000000
_symmetry_Int_Tables_number   1
_chemical_formula_structural   NaAl(H2N)4
_chemical_formula_sum   'Na4 Al4 H32 N16'
_cell_volume   593.70956188
_cell_formula_units_Z   4
loop_
 _symmetry_equiv_pos_site_id
 _symmetry_equiv_pos_as_xyz
  1  'x, y, z'
loop_
 _atom_site_type_symbol
 _atom_site_label
 _atom_site_symmetry_multiplicity
 _atom_site_fract_x
 _atom_site_fract_y
 _atom_site_fract_z
 _atom_site_occupancy
  Na  Na0  1  0.82302100  0.27534700  0.75356000  1
  Na  Na1  1  0.17697900  0.77534700  0.74644000  1
  Na  Na2  1  0.17697900  0.72465300  0.24644000  1
  Na  Na3  1  0.82302100  0.22465300  0.25356000  1
  Al  Al0  1  0.42478700  0.95822100  0.62372600  1
  Al  Al1  1  0.57521300  0.45822100  0.87627400  1
  Al  Al2  1  0.57521300  0.04177900  0.37627400  1
  Al  Al3  1  0.42478700  0.54177900  0.12372600  1
  H  H0  1  0.28758100  0.09240400  0.33526400  1
  H  H1  1  0.71241900  0.59240400  0.16473600  1
  H  H2  1  0.71241900  0.90759600  0.66473600  1
  H  H3  1  0.28758100  0.40759600  0.83526400  1
  H  H4  1  0.39871700  0.37864500  0.36547800  1
  H  H5  1  0.60128300  0.87864500  0.13452200  1
  H  H6  1  0.60128300  0.62135500  0.63452200  1
  H  H7  1  0.39871700  0.12135500  0.86547800  1
  H  H8  1  0.92719700  0.62941000  0.02515200  1
  H  H9  1  0.07280300  0.12941000  0.47484800  1
  H  H10  1  0.07280300  0.37059000  0.97484800  1
  H  H11  1  0.92719700  0.87059000  0.52515200  1
  H  H12  1  0.88948800  0.01603800  0.98522800  1
  H  H13  1  0.11051200  0.51603800  0.51477200  1
  H  H14  1  0.11051200  0.98396200  0.01477200  1
  H  H15  1  0.88948800  0.48396200  0.48522800  1
  H  H16  1  0.30937900  0.69279800  0.01264600  1
  H  H17  1  0.69062100  0.19279800  0.48735400  1
  H  H18  1  0.69062100  0.30720200  0.98735400  1
  H  H19  1  0.30937900  0.80720200  0.51264600  1
  H  H20  1  0.04390100  0.30722600  0.02408100  1
  H  H21  1  0.95609900  0.80722600  0.47591900  1
  H  H22  1  0.95609900  0.69277400  0.97591900  1
  H  H23  1  0.04390100  0.19277400  0.52408100  1
  H  H24  1  0.45844300  0.16372400  0.07360700  1
  H  H25  1  0.54155700  0.66372400  0.42639300  1
  H  H26  1  0.54155700  0.83627600  0.92639300  1
  H  H27  1  0.45844300  0.33627600  0.57360700  1
  H  H28  1  0.27058600  0.16518900  0.96736800  1
  H  H29  1  0.72941400  0.66518900  0.53263200  1
  H  H30  1  0.72941400  0.83481100  0.03263200  1
  H  H31  1  0.27058600  0.33481100  0.46736800  1
  N  N0  1  0.61280300  0.87973900  0.56987600  1
  N  N1  1  0.38719700  0.37973900  0.93012400  1
  N  N2  1  0.38719700  0.12026100  0.43012400  1
  N  N3  1  0.61280300  0.62026100  0.06987600  1
  N  N4  1  0.62240200  0.80137300  0.03955000  1
  N  N5  1  0.37759800  0.30137300  0.46045000  1
  N  N6  1  0.37759800  0.19862700  0.96045000  1
  N  N7  1  0.62240200  0.69862700  0.53955000  1
  N  N8  1  0.09749400  0.49279700  0.65404400  1
  N  N9  1  0.90250600  0.99279700  0.84595600  1
  N  N10  1  0.90250600  0.50720300  0.34595600  1
  N  N11  1  0.09749400  0.00720300  0.15404400  1
  N  N12  1  0.96146900  0.04528500  0.13150700  1
  N  N13  1  0.03853100  0.54528500  0.36849300  1
  N  N14  1  0.03853100  0.95471500  0.86849300  1
  N  N15  1  0.96146900  0.45471500  0.63150700  1
loop_
_geom_bond_atom_site_label_1
_geom_bond_atom_site_label_2
_geom_bond_distance
_geom_bond_site_symmetry_2
Al0 H19 1.674222 1_555
Al0 N0 2.037658 1_555
Al0 N2 2.038378 1_565
Al1 H18 1.674222 1_555
Al1 N1 2.037658 1_555
Al1 N3 2.038378 1_556
Al2 H17 1.674222 1_555
Al2 N2 2.037658 1_555
Al2 N0 2.038378 1_545
Al3 H16 1.674222 1_555
Al3 N3 2.037658 1_555
Al3 N1 2.038378 1_554
H0 N2 1.040451 1_555
H1 N3 1.040451 1_555
H2 N0 1.040451 1_555
H3 N1 1.040451 1_555
H4 N5 1.087050 1_555
H5 N4 1.087050 1_555
H6 N7 1.087050 1_555
H7 N6 1.087050 1_555
H10 H20 0.756811 1_556
H11 H21 0.756811 1_555
H12 N12 1.244805 1_556
H12 N9 1.260283 1_545
H13 N13 1.244805 1_555
H13 N8 1.260283 1_555
H14 N14 1.244805 1_554
H14 N11 1.260283 1_565
H15 N15 1.244805 1_555
H15 N10 1.260283 1_555
H16 Na1 2.321418 1_554
H17 Na0 2.321418 1_555
H18 Na3 2.321418 1_556
H19 Na2 2.321418 1_555
H22 H8 0.756811 1_556
H23 H9 0.756811 1_555
H24 N6 1.057568 1_554
H25 N7 1.057568 1_555
H26 N4 1.057568 1_556
H27 N5 1.057568 1_555
H28 N6 1.045679 1_555
H29 N7 1.045679 1_555
H30 N4 1.045679 1_555
H31 N5 1.045679 1_555
N8 Na1 2.388739 1_555
N9 Na0 2.388739 1_565
N10 Na3 2.388739 1_555
N11 Na2 2.388739 1_545
N12 Na3 2.367830 1_555
N13 Na2 2.367830 1_555
N14 Na1 2.367830 1_555
N15 Na0 2.367830 1_555
