# generated using pymatgen
data_Ir4C5
_symmetry_space_group_name_H-M   'P 1'
_cell_length_a   5.04239600
_cell_length_b   5.04239600
_cell_length_c   15.07161900
_cell_angle_alpha   90.00000000
_cell_angle_beta   90.00000000
_cell_angle_gamma   90.00000000
_symmetry_Int_Tables_number   1
_chemical_formula_structural   Ir4C5
_chemical_formula_sum   'Ir16 C20'
_cell_volume   383.20732863
_cell_formula_units_Z   4
loop_
 _symmetry_equiv_pos_site_id
 _symmetry_equiv_pos_as_xyz
  1  'x, y, z'
loop_
 _atom_site_type_symbol
 _atom_site_label
 _atom_site_symmetry_multiplicity
 _atom_site_fract_x
 _atom_site_fract_y
 _atom_site_fract_z
 _atom_site_occupancy
  Ir  Ir0  1  0.00000000  0.00000000  0.50000000  1
  Ir  Ir1  1  0.00000000  0.00000000  0.00000000  1
  Ir  Ir2  1  0.00000000  0.00000000  0.25000000  1
  Ir  Ir3  1  0.00000000  0.00000000  0.75000000  1
  Ir  Ir4  1  0.50000000  0.50000000  0.36474800  1
  Ir  Ir5  1  0.50000000  0.50000000  0.86474800  1
  Ir  Ir6  1  0.50000000  0.50000000  0.63525200  1
  Ir  Ir7  1  0.50000000  0.50000000  0.13525200  1
  Ir  Ir8  1  0.50000000  0.00000000  0.43988600  1
  Ir  Ir9  1  0.50000000  0.00000000  0.93988600  1
  Ir  Ir10  1  0.00000000  0.50000000  0.56011400  1
  Ir  Ir11  1  0.00000000  0.50000000  0.06011400  1
  Ir  Ir12  1  0.50000000  0.00000000  0.17353100  1
  Ir  Ir13  1  0.50000000  0.00000000  0.67353100  1
  Ir  Ir14  1  0.00000000  0.50000000  0.82646900  1
  Ir  Ir15  1  0.00000000  0.50000000  0.32646900  1
  C  C0  1  0.32227900  0.32227900  0.25000000  1
  C  C1  1  0.67772100  0.67772100  0.25000000  1
  C  C2  1  0.32227900  0.67772100  0.75000000  1
  C  C3  1  0.67772100  0.32227900  0.75000000  1
  C  C4  1  0.18961900  0.33364300  0.44565800  1
  C  C5  1  0.81038100  0.66635700  0.44565800  1
  C  C6  1  0.18961900  0.66635700  0.94565800  1
  C  C7  1  0.81038100  0.33364300  0.94565800  1
  C  C8  1  0.33364300  0.81038100  0.55434200  1
  C  C9  1  0.66635700  0.18961900  0.55434200  1
  C  C10  1  0.66635700  0.81038100  0.05434200  1
  C  C11  1  0.33364300  0.18961900  0.05434200  1
  C  C12  1  0.22991100  0.83966900  0.35316800  1
  C  C13  1  0.77008900  0.16033100  0.35316800  1
  C  C14  1  0.22991100  0.16033100  0.85316800  1
  C  C15  1  0.77008900  0.83966900  0.85316800  1
  C  C16  1  0.83966900  0.77008900  0.64683200  1
  C  C17  1  0.16033100  0.22991100  0.64683200  1
  C  C18  1  0.16033100  0.77008900  0.14683200  1
  C  C19  1  0.83966900  0.22991100  0.14683200  1
loop_
_geom_bond_atom_site_label_1
_geom_bond_atom_site_label_2
_geom_bond_distance
_geom_bond_site_symmetry_2
C0 Ir7 2.144082 1_555
C0 Ir4 2.144082 1_555
C0 Ir15 2.184528 1_555
C0 Ir12 2.184528 1_555
C0 Ir2 2.298180 1_555
C1 Ir7 2.144082 1_555
C1 Ir4 2.144082 1_555
C1 Ir12 2.184528 1_565
C1 Ir15 2.184528 1_655
C1 Ir2 2.298180 1_665
C2 Ir5 2.144082 1_555
C2 Ir6 2.144082 1_555
C2 Ir14 2.184528 1_555
C2 Ir13 2.184528 1_565
C2 Ir3 2.298180 1_565
C3 Ir5 2.144082 1_555
C3 Ir6 2.144082 1_555
C3 Ir14 2.184528 1_655
C3 Ir13 2.184528 1_555
C3 Ir3 2.298180 1_655
C4 Ir0 2.101267 1_555
C4 Ir10 2.143267 1_555
C4 Ir4 2.154094 1_555
C4 Ir15 2.201089 1_555
C4 Ir8 2.299419 1_555
C5 Ir0 2.101267 1_665
C5 Ir10 2.143267 1_655
C5 Ir4 2.154094 1_555
C5 Ir15 2.201089 1_655
C5 Ir8 2.299419 1_565
C6 Ir1 2.101267 1_566
C6 Ir11 2.143267 1_556
C6 Ir5 2.154094 1_555
C6 Ir14 2.201089 1_555
C6 Ir9 2.299419 1_565
C7 Ir1 2.101267 1_656
C7 Ir11 2.143267 1_656
C7 Ir5 2.154094 1_555
C7 Ir14 2.201089 1_655
C7 Ir9 2.299419 1_555
C8 Ir0 2.101267 1_565
C8 Ir8 2.143267 1_565
C8 Ir6 2.154094 1_555
C8 Ir13 2.201089 1_565
C8 Ir10 2.299419 1_555
C9 Ir0 2.101267 1_655
C9 Ir8 2.143267 1_555
C9 Ir6 2.154094 1_555
C9 Ir13 2.201089 1_555
C9 Ir10 2.299419 1_655
C10 Ir1 2.101267 1_665
C10 Ir9 2.143267 1_564
C10 Ir7 2.154094 1_555
C10 Ir12 2.201089 1_565
C10 Ir11 2.299419 1_655
C11 Ir1 2.101267 1_555
C11 Ir9 2.143267 1_554
C11 Ir7 2.154094 1_555
C11 Ir12 2.201089 1_555
C11 Ir11 2.299419 1_555
C12 Ir8 2.053425 1_565
C12 Ir2 2.101266 1_565
C12 Ir15 2.106989 1_555
C12 Ir4 2.195158 1_555
C12 Ir0 2.625820 1_565
C13 Ir8 2.053425 1_555
C13 Ir2 2.101266 1_655
C13 Ir15 2.106989 1_655
C13 Ir4 2.195158 1_555
C13 Ir0 2.625820 1_655
C14 Ir9 2.053425 1_555
C14 Ir3 2.101266 1_555
C14 Ir14 2.106989 1_555
C14 Ir5 2.195158 1_555
C14 Ir1 2.625820 1_556
C15 Ir9 2.053425 1_565
C15 Ir3 2.101266 1_665
C15 Ir14 2.106989 1_655
C15 Ir5 2.195158 1_555
C15 Ir1 2.625820 1_666
C16 Ir10 2.053425 1_655
C16 Ir3 2.101266 1_665
C16 Ir13 2.106989 1_565
C16 Ir6 2.195158 1_555
C16 Ir0 2.625820 1_665
C17 Ir10 2.053425 1_555
C17 Ir3 2.101266 1_555
C17 Ir13 2.106989 1_555
C17 Ir6 2.195158 1_555
C17 Ir0 2.625820 1_555
C18 Ir11 2.053425 1_555
C18 Ir2 2.101266 1_565
C18 Ir12 2.106989 1_565
C18 Ir7 2.195158 1_555
C18 Ir1 2.625820 1_565
C19 Ir11 2.053425 1_655
C19 Ir2 2.101266 1_655
C19 Ir12 2.106989 1_555
C19 Ir7 2.195158 1_555
C19 Ir1 2.625820 1_655
