# generated using pymatgen
data_Ba2Sr6Ti7MnO24
_symmetry_space_group_name_H-M   'P 1'
_cell_length_a   7.91475549
_cell_length_b   7.91475549
_cell_length_c   7.90825700
_cell_angle_alpha   90.00000000
_cell_angle_beta   90.00000000
_cell_angle_gamma   90.03609794
_symmetry_Int_Tables_number   1
_chemical_formula_structural   Ba2Sr6Ti7MnO24
_chemical_formula_sum   'Ba2 Sr6 Ti7 Mn1 O24'
_cell_volume   495.39964801
_cell_formula_units_Z   1
loop_
 _symmetry_equiv_pos_site_id
 _symmetry_equiv_pos_as_xyz
  1  'x, y, z'
loop_
 _atom_site_type_symbol
 _atom_site_label
 _atom_site_symmetry_multiplicity
 _atom_site_fract_x
 _atom_site_fract_y
 _atom_site_fract_z
 _atom_site_occupancy
  Ba  Ba0  1  0.75140900  0.75140900  0.75144100  1
  Ba  Ba1  1  0.24859100  0.24859100  0.75144100  1
  Sr  Sr0  1  0.75169100  0.75169100  0.24828400  1
  Sr  Sr1  1  0.24856700  0.75143300  0.24840900  1
  Sr  Sr2  1  0.24857200  0.75142800  0.75169700  1
  Sr  Sr3  1  0.75143300  0.24856700  0.24840900  1
  Sr  Sr4  1  0.24830900  0.24830900  0.24828400  1
  Sr  Sr5  1  0.75142800  0.24857200  0.75169700  1
  Ti  Ti0  1  0.50000000  0.00000000  0.00261600  1
  Ti  Ti1  1  0.00000000  0.00000000  0.49520200  1
  Ti  Ti2  1  0.50000000  0.00000000  0.49742200  1
  Ti  Ti3  1  0.00000000  0.50000000  0.00261600  1
  Ti  Ti4  1  0.50000000  0.50000000  0.00277100  1
  Ti  Ti5  1  0.00000000  0.50000000  0.49742200  1
  Ti  Ti6  1  0.50000000  0.50000000  0.49735500  1
  Mn  Mn0  1  0.00000000  0.00000000  0.00123200  1
  O  O0  1  0.00272400  0.75382300  0.00467300  1
  O  O1  1  0.49780500  0.75067000  0.00449700  1
  O  O2  1  0.00214400  0.75074600  0.49565300  1
  O  O3  1  0.49784100  0.75032400  0.49565700  1
  O  O4  1  0.99727600  0.24617700  0.00467300  1
  O  O5  1  0.50219500  0.24933000  0.00449700  1
  O  O6  1  0.99785600  0.24925400  0.49565300  1
  O  O7  1  0.50215900  0.24967600  0.49565700  1
  O  O8  1  0.00000000  0.00000000  0.24636300  1
  O  O9  1  0.50000000  0.00000000  0.24944600  1
  O  O10  1  0.00000000  0.00000000  0.75480300  1
  O  O11  1  0.50000000  0.00000000  0.75077400  1
  O  O12  1  0.00000000  0.50000000  0.24944600  1
  O  O13  1  0.50000000  0.50000000  0.24981000  1
  O  O14  1  0.00000000  0.50000000  0.75077400  1
  O  O15  1  0.50000000  0.50000000  0.75036700  1
  O  O16  1  0.75382300  0.00272400  0.00467300  1
  O  O17  1  0.24617700  0.99727600  0.00467300  1
  O  O18  1  0.75074600  0.00214400  0.49565300  1
  O  O19  1  0.24925400  0.99785600  0.49565300  1
  O  O20  1  0.75067000  0.49780500  0.00449700  1
  O  O21  1  0.24933000  0.50219500  0.00449700  1
  O  O22  1  0.75032400  0.49784100  0.49565700  1
  O  O23  1  0.24967600  0.50215900  0.49565700  1
loop_
_geom_bond_atom_site_label_1
_geom_bond_atom_site_label_2
_geom_bond_distance
_geom_bond_site_symmetry_2
Ba0 O10 2.781768 1_665
Ba0 O11 2.799219 1_565
Ba0 O14 2.799219 1_655
Ba0 O15 2.813186 1_555
Ba0 O16 2.822645 1_566
Ba0 O0 2.822645 1_656
Ba0 O2 2.833757 1_655
Ba0 O18 2.833757 1_565
Ba0 O20 2.834406 1_556
Ba0 O1 2.834406 1_556
Ba0 O22 2.849484 1_555
Ba0 O3 2.849484 1_555
Ba1 O10 2.781768 1_555
Ba1 O11 2.799219 1_555
Ba1 O14 2.799219 1_555
Ba1 O15 2.813186 1_555
Ba1 O17 2.822645 1_546
Ba1 O4 2.822645 1_456
Ba1 O6 2.833757 1_455
Ba1 O19 2.833757 1_545
Ba1 O21 2.834406 1_556
Ba1 O5 2.834406 1_556
Ba1 O7 2.849484 1_555
Ba1 O23 2.849484 1_555
Mn0 O8 1.938559 1_555
Mn0 O16 1.948754 1_455
Mn0 O0 1.948754 1_545
Mn0 O17 1.948754 1_545
Mn0 O4 1.948754 1_455
Mn0 O10 1.948824 1_554
O0 Ti3 2.009115 1_555
O0 Sr1 2.738951 1_555
O0 Sr0 2.767567 1_455
O0 Sr2 2.790886 1_554
O1 Ti0 1.973508 1_565
O1 Ti4 1.984126 1_555
O1 Sr1 2.759014 1_555
O1 Sr0 2.784750 1_555
O1 Sr2 2.808577 1_554
O2 Ti1 1.972871 1_565
O2 Ti5 1.984704 1_555
O2 Sr1 2.761714 1_555
O2 Sr0 2.785037 1_455
O2 Sr2 2.811442 1_555
O3 Ti2 1.976237 1_565
O3 Ti6 1.981383 1_555
O3 Sr1 2.777733 1_555
O3 Sr0 2.804262 1_555
O3 Sr2 2.827080 1_555
O4 Ti3 2.009115 1_655
O4 Sr3 2.738951 1_555
O4 Sr4 2.767567 1_655
O4 Sr5 2.790886 1_554
O5 Ti0 1.973508 1_555
O5 Ti4 1.984126 1_555
O5 Sr3 2.759014 1_555
O5 Sr4 2.784750 1_555
O5 Sr5 2.808577 1_554
O6 Ti1 1.972871 1_655
O6 Ti5 1.984704 1_655
O6 Sr3 2.761714 1_555
O6 Sr4 2.785037 1_655
O6 Sr5 2.811442 1_555
O7 Ti2 1.976237 1_555
O7 Ti6 1.981383 1_555
O7 Sr3 2.777733 1_555
O7 Sr4 2.804262 1_555
O7 Sr5 2.827080 1_555
O8 Ti1 1.967883 1_555
O8 Sr0 2.778527 1_445
O8 Sr4 2.778527 1_555
O8 Sr3 2.783172 1_455
O8 Sr1 2.783172 1_545
O9 Ti0 1.951995 1_555
O9 Ti2 1.961058 1_555
O9 Sr1 2.797465 1_545
O9 Sr3 2.797465 1_555
O9 Sr0 2.799249 1_545
O9 Sr4 2.799249 1_555
O10 Ti1 2.052991 1_555
O10 Sr2 2.783290 1_545
O10 Sr5 2.783290 1_455
O11 Ti0 1.991631 1_556
O11 Ti2 2.003573 1_555
O11 Sr5 2.797462 1_555
O11 Sr2 2.797462 1_545
O12 Ti3 1.951995 1_555
O12 Ti5 1.961058 1_555
O12 Sr1 2.797465 1_555
O12 Sr3 2.797465 1_455
O12 Sr0 2.799249 1_455
O12 Sr4 2.799249 1_555
O13 Ti4 1.953648 1_555
O13 Ti6 1.957649 1_555
O13 Sr3 2.815237 1_555
O13 Sr1 2.815237 1_555
O13 Sr0 2.816355 1_555
O13 Sr4 2.816355 1_555
O14 Ti3 1.991631 1_556
O14 Ti5 2.003573 1_555
O14 Sr5 2.797462 1_455
O14 Sr2 2.797462 1_555
O15 Ti4 1.996076 1_556
O15 Ti6 2.000884 1_555
O15 Sr2 2.815179 1_555
O15 Sr5 2.815179 1_555
O16 Ti0 2.009115 1_555
O16 Sr3 2.738951 1_555
O16 Sr0 2.767567 1_545
O16 Sr5 2.790886 1_554
O17 Ti0 2.009115 1_565
O17 Sr1 2.738951 1_555
O17 Sr4 2.767567 1_565
O17 Sr2 2.790886 1_554
O18 Ti1 1.972871 1_655
O18 Ti2 1.984704 1_555
O18 Sr3 2.761714 1_555
O18 Sr0 2.785037 1_545
O18 Sr5 2.811442 1_555
O19 Ti1 1.972871 1_565
O19 Ti2 1.984704 1_565
O19 Sr1 2.761714 1_555
O19 Sr4 2.785037 1_565
O19 Sr2 2.811442 1_555
O20 Ti3 1.973508 1_655
O20 Ti4 1.984126 1_555
O20 Sr3 2.759014 1_555
O20 Sr0 2.784750 1_555
O20 Sr5 2.808577 1_554
O21 Ti3 1.973508 1_555
O21 Ti4 1.984126 1_555
O21 Sr1 2.759014 1_555
O21 Sr4 2.784750 1_555
O21 Sr2 2.808577 1_554
O22 Ti5 1.976237 1_655
O22 Ti6 1.981383 1_555
O22 Sr3 2.777733 1_555
O22 Sr0 2.804262 1_555
O22 Sr5 2.827080 1_555
O23 Ti5 1.976237 1_555
O23 Ti6 1.981383 1_555
O23 Sr1 2.777733 1_555
O23 Sr4 2.804262 1_555
O23 Sr2 2.827080 1_555
