# generated using pymatgen
data_BaNdDyFeO6
_symmetry_space_group_name_H-M   'P 1'
_cell_length_a   5.83922992
_cell_length_b   5.83922992
_cell_length_c   5.83922992
_cell_angle_alpha   60.00000000
_cell_angle_beta   60.00000000
_cell_angle_gamma   60.00000000
_symmetry_Int_Tables_number   1
_chemical_formula_structural   BaNdDyFeO6
_chemical_formula_sum   'Ba1 Nd1 Dy1 Fe1 O6'
_cell_volume   140.78349061
_cell_formula_units_Z   1
loop_
 _symmetry_equiv_pos_site_id
 _symmetry_equiv_pos_as_xyz
  1  'x, y, z'
loop_
 _atom_site_type_symbol
 _atom_site_label
 _atom_site_symmetry_multiplicity
 _atom_site_fract_x
 _atom_site_fract_y
 _atom_site_fract_z
 _atom_site_occupancy
  Ba  Ba0  1  0.75000000  0.75000000  0.75000000  1
  Nd  Nd0  1  0.25000000  0.25000000  0.25000000  1
  Dy  Dy0  1  -0.00000000  0.00000000  -0.00000000  1
  Fe  Fe0  1  0.50000000  0.50000000  0.50000000  1
  O  O0  1  0.73600760  0.26399240  0.26399240  1
  O  O1  1  0.26399240  0.73600760  0.73600760  1
  O  O2  1  0.73600760  0.26399240  0.73600760  1
  O  O3  1  0.26399240  0.73600760  0.26399240  1
  O  O4  1  0.73600760  0.73600760  0.26399240  1
  O  O5  1  0.26399240  0.26399240  0.73600760  1
loop_
_geom_bond_atom_site_label_1
_geom_bond_atom_site_label_2
_geom_bond_distance
_geom_bond_site_symmetry_2
Ba0 O4 2.921901 1_556
Ba0 O1 2.921901 1_655
Ba0 O2 2.921901 1_565
Ba0 O5 2.921901 1_655
Ba0 O5 2.921901 1_565
Ba0 O3 2.921901 1_556
Ba0 O0 2.921901 1_556
Ba0 O0 2.921901 1_565
Ba0 O3 2.921901 1_655
Ba0 O2 2.921901 1_555
Ba0 O1 2.921901 1_555
Ba0 O4 2.921901 1_555
Nd0 O3 2.921901 1_555
Nd0 O0 2.921901 1_555
Nd0 O5 2.921901 1_555
Nd0 O4 2.921901 1_545
Nd0 O1 2.921901 1_545
Nd0 O2 2.921901 1_554
Nd0 O4 2.921901 1_455
Nd0 O1 2.921901 1_554
Nd0 O2 2.921901 1_455
Nd0 O3 2.921901 1_545
Nd0 O5 2.921901 1_554
Nd0 O0 2.921901 1_455
Dy0 O3 2.180028 1_545
Dy0 O5 2.180028 1_554
Dy0 O0 2.180028 1_455
Dy0 O4 2.180028 1_445
Dy0 O2 2.180028 1_454
Dy0 O1 2.180028 1_544
Fe0 O2 1.948931 1_555
Fe0 O4 1.948931 1_555
Fe0 O1 1.948931 1_555
Fe0 O5 1.948931 1_555
Fe0 O3 1.948931 1_555
Fe0 O0 1.948931 1_555
