# generated using pymatgen
data_SiSnN2
_symmetry_space_group_name_H-M   'P 1'
_cell_length_a   5.05668100
_cell_length_b   11.09989000
_cell_length_c   15.16980900
_cell_angle_alpha   90.00000000
_cell_angle_beta   90.00000000
_cell_angle_gamma   90.00000000
_symmetry_Int_Tables_number   1
_chemical_formula_structural   SiSnN2
_chemical_formula_sum   'Si16 Sn16 N32'
_cell_volume   851.46018490
_cell_formula_units_Z   16
loop_
 _symmetry_equiv_pos_site_id
 _symmetry_equiv_pos_as_xyz
  1  'x, y, z'
loop_
 _atom_site_type_symbol
 _atom_site_label
 _atom_site_symmetry_multiplicity
 _atom_site_fract_x
 _atom_site_fract_y
 _atom_site_fract_z
 _atom_site_occupancy
  Si  Si0  1  0.71526900  0.98812600  0.18779800  1
  Si  Si1  1  0.21526900  0.51187400  0.81220200  1
  Si  Si2  1  0.28473100  0.48812600  0.31220200  1
  Si  Si3  1  0.78473100  0.01187400  0.68779800  1
  Si  Si4  1  0.28473100  0.01187400  0.81220200  1
  Si  Si5  1  0.78473100  0.48812600  0.18779800  1
  Si  Si6  1  0.71526900  0.51187400  0.68779800  1
  Si  Si7  1  0.21526900  0.98812600  0.31220200  1
  Si  Si8  1  0.81640300  0.24925000  0.06158800  1
  Si  Si9  1  0.31640300  0.25075000  0.93841200  1
  Si  Si10  1  0.18359700  0.74925000  0.43841200  1
  Si  Si11  1  0.68359700  0.75075000  0.56158800  1
  Si  Si12  1  0.18359700  0.75075000  0.93841200  1
  Si  Si13  1  0.68359700  0.74925000  0.06158800  1
  Si  Si14  1  0.81640300  0.25075000  0.56158800  1
  Si  Si15  1  0.31640300  0.24925000  0.43841200  1
  Sn  Sn0  1  0.71653000  0.96718000  0.43142600  1
  Sn  Sn1  1  0.21653000  0.53282000  0.56857400  1
  Sn  Sn2  1  0.28347000  0.46718000  0.06857400  1
  Sn  Sn3  1  0.78347000  0.03282000  0.93142600  1
  Sn  Sn4  1  0.28347000  0.03282000  0.56857400  1
  Sn  Sn5  1  0.78347000  0.46718000  0.43142600  1
  Sn  Sn6  1  0.71653000  0.53282000  0.93142600  1
  Sn  Sn7  1  0.21653000  0.96718000  0.06857400  1
  Sn  Sn8  1  0.88465900  0.22367400  0.31545200  1
  Sn  Sn9  1  0.38465900  0.27632600  0.68454800  1
  Sn  Sn10  1  0.11534100  0.72367400  0.18454800  1
  Sn  Sn11  1  0.61534100  0.77632600  0.81545200  1
  Sn  Sn12  1  0.11534100  0.77632600  0.68454800  1
  Sn  Sn13  1  0.61534100  0.72367400  0.31545200  1
  Sn  Sn14  1  0.88465900  0.27632600  0.81545200  1
  Sn  Sn15  1  0.38465900  0.22367400  0.18454800  1
  N  N0  1  0.62166200  0.48106100  0.28955400  1
  N  N1  1  0.12166200  0.01893900  0.71044600  1
  N  N2  1  0.37833800  0.98106100  0.21044600  1
  N  N3  1  0.87833800  0.51893900  0.78955400  1
  N  N4  1  0.37833800  0.51893900  0.71044600  1
  N  N5  1  0.87833800  0.98106100  0.28955400  1
  N  N6  1  0.62166200  0.01893900  0.78955400  1
  N  N7  1  0.12166200  0.48106100  0.21044600  1
  N  N8  1  0.65638500  0.27130800  0.45751700  1
  N  N9  1  0.15638500  0.22869200  0.54248300  1
  N  N10  1  0.34361500  0.77130800  0.04248300  1
  N  N11  1  0.84361500  0.72869200  0.95751700  1
  N  N12  1  0.34361500  0.72869200  0.54248300  1
  N  N13  1  0.84361500  0.77130800  0.45751700  1
  N  N14  1  0.65638500  0.22869200  0.95751700  1
  N  N15  1  0.15638500  0.27130800  0.04248300  1
  N  N16  1  0.66697800  0.37043800  0.11976600  1
  N  N17  1  0.16697800  0.12956200  0.88023400  1
  N  N18  1  0.33302200  0.87043800  0.38023400  1
  N  N19  1  0.83302200  0.62956200  0.61976600  1
  N  N20  1  0.33302200  0.62956200  0.88023400  1
  N  N21  1  0.83302200  0.87043800  0.11976600  1
  N  N22  1  0.66697800  0.12956200  0.61976600  1
  N  N23  1  0.16697800  0.37043800  0.38023400  1
  N  N24  1  0.74248500  0.12490000  0.12830700  1
  N  N25  1  0.24248500  0.37510000  0.87169300  1
  N  N26  1  0.25751500  0.62490000  0.37169300  1
  N  N27  1  0.75751500  0.87510000  0.62830700  1
  N  N28  1  0.25751500  0.87510000  0.87169300  1
  N  N29  1  0.75751500  0.62490000  0.12830700  1
  N  N30  1  0.74248500  0.37510000  0.62830700  1
  N  N31  1  0.24248500  0.12490000  0.37169300  1
loop_
_geom_bond_atom_site_label_1
_geom_bond_atom_site_label_2
_geom_bond_distance
_geom_bond_site_symmetry_2
N0 Si2 1.739816 1_555
N0 Si5 1.751815 1_555
N0 Sn5 2.307607 1_555
N0 Sn13 2.721671 1_555
N1 Si3 1.739816 1_455
N1 Si4 1.751815 1_555
N1 Sn4 2.307607 1_555
N1 Sn12 2.721671 1_545
N2 Si0 1.739816 1_555
N2 Si7 1.751815 1_555
N2 Sn7 2.307607 1_555
N2 Sn15 2.721671 1_565
N3 Si1 1.739816 1_655
N3 Si6 1.751815 1_555
N3 Sn6 2.307607 1_555
N3 Sn14 2.721671 1_555
N4 Si6 1.739816 1_555
N4 Si1 1.751815 1_555
N4 Sn1 2.307607 1_555
N4 Sn9 2.721671 1_555
N5 Si7 1.739816 1_655
N5 Si0 1.751815 1_555
N5 Sn0 2.307607 1_555
N5 Sn8 2.721671 1_565
N6 Si4 1.739816 1_555
N6 Si3 1.751815 1_555
N6 Sn3 2.307607 1_555
N6 Sn11 2.721671 1_545
N7 Si5 1.739816 1_455
N7 Si2 1.751815 1_555
N7 Sn2 2.307607 1_555
N7 Sn10 2.721671 1_555
N8 Si15 1.760547 1_555
N8 Si14 1.788637 1_555
N8 Sn5 2.301431 1_555
N8 Sn8 2.501287 1_555
N9 Si14 1.760547 1_455
N9 Si15 1.788637 1_555
N9 Sn4 2.301431 1_555
N9 Sn9 2.501287 1_555
N10 Si13 1.760547 1_555
N10 Si12 1.788637 1_554
N10 Sn7 2.301431 1_555
N10 Sn10 2.501287 1_555
N11 Si12 1.760547 1_655
N11 Si13 1.788637 1_556
N11 Sn6 2.301431 1_555
N11 Sn11 2.501287 1_555
N12 Si11 1.760547 1_555
N12 Si10 1.788637 1_555
N12 Sn1 2.301431 1_555
N12 Sn12 2.501287 1_555
N13 Si10 1.760547 1_655
N13 Si11 1.788637 1_555
N13 Sn0 2.301431 1_555
N13 Sn13 2.501287 1_555
N14 Si9 1.760547 1_555
N14 Si8 1.788637 1_556
N14 Sn3 2.301431 1_555
N14 Sn14 2.501287 1_555
N15 Si8 1.760547 1_455
N15 Si9 1.788637 1_554
N15 Sn2 2.301431 1_555
N15 Sn15 2.501287 1_555
N16 Si5 1.768084 1_555
N16 Si8 1.777444 1_555
N16 Sn2 2.348822 1_555
N16 Sn15 2.378580 1_555
N17 Si4 1.768084 1_555
N17 Si9 1.777444 1_555
N17 Sn3 2.348822 1_455
N17 Sn14 2.378580 1_455
N18 Si7 1.768084 1_555
N18 Si10 1.777444 1_555
N18 Sn0 2.348822 1_555
N18 Sn13 2.378580 1_555
N19 Si6 1.768084 1_555
N19 Si11 1.777444 1_555
N19 Sn1 2.348822 1_655
N19 Sn12 2.378580 1_655
N20 Si1 1.768084 1_555
N20 Si12 1.777444 1_555
N20 Sn6 2.348822 1_555
N20 Sn11 2.378580 1_555
N21 Si0 1.768084 1_555
N21 Si13 1.777444 1_555
N21 Sn7 2.348822 1_655
N21 Sn10 2.378580 1_655
N22 Si3 1.768084 1_555
N22 Si14 1.777444 1_555
N22 Sn4 2.348822 1_555
N22 Sn9 2.378580 1_555
N23 Si2 1.768084 1_555
N23 Si15 1.777444 1_555
N23 Sn5 2.348822 1_455
N23 Sn8 2.378580 1_455
N24 Si8 1.751924 1_555
N24 Si0 1.771510 1_545
N24 Sn15 2.281209 1_555
N25 Si9 1.751924 1_555
N25 Si1 1.771510 1_555
N25 Sn14 2.281209 1_455
N26 Si10 1.751924 1_555
N26 Si2 1.771510 1_555
N26 Sn13 2.281209 1_555
N27 Si11 1.751924 1_555
N27 Si3 1.771510 1_565
N27 Sn12 2.281209 1_655
N28 Si12 1.751924 1_555
N28 Si4 1.771510 1_565
N28 Sn11 2.281209 1_555
N29 Si13 1.751924 1_555
N29 Si5 1.771510 1_555
N29 Sn10 2.281209 1_655
N30 Si14 1.751924 1_555
N30 Si6 1.771510 1_555
N30 Sn9 2.281209 1_555
N31 Si15 1.751924 1_555
N31 Si7 1.771510 1_545
N31 Sn8 2.281209 1_455
