# generated using pymatgen
data_Na12(CuO2)7
_symmetry_space_group_name_H-M   'P 1'
_cell_length_a   10.64225487
_cell_length_b   10.64231515
_cell_length_c   5.63518453
_cell_angle_alpha   81.89777527
_cell_angle_beta   81.89328048
_cell_angle_gamma   134.70239502
_symmetry_Int_Tables_number   1
_chemical_formula_structural   Na12(CuO2)7
_chemical_formula_sum   'Na12 Cu7 O14'
_cell_volume   422.14202847
_cell_formula_units_Z   1
loop_
 _symmetry_equiv_pos_site_id
 _symmetry_equiv_pos_as_xyz
  1  'x, y, z'
loop_
 _atom_site_type_symbol
 _atom_site_label
 _atom_site_symmetry_multiplicity
 _atom_site_fract_x
 _atom_site_fract_y
 _atom_site_fract_z
 _atom_site_occupancy
  Na  Na0  1  0.16226228  0.61789228  0.38343919  1
  Na  Na1  1  0.61782290  0.16222521  0.38346547  1
  Na  Na2  1  0.76732550  0.46452613  0.61166012  1
  Na  Na3  1  0.46453206  0.76733345  0.61168132  1
  Na  Na4  1  0.62431597  0.62431889  0.61850107  1
  Na  Na5  1  0.30432813  0.45419068  0.38901150  1
  Na  Na6  1  0.45417261  0.30431465  0.38902686  1
  Na  Na7  1  0.24859293  0.88814193  0.64083167  1
  Na  Na8  1  0.88819381  0.24875948  0.64079113  1
  Na  Na9  1  0.02744066  0.86040597  0.33504379  1
  Na  Na10  1  0.86039984  0.02746693  0.33508907  1
  Na  Na11  1  0.05615185  0.05616103  0.67121872  1
  Cu  Cu0  1  0.46007054  0.03329605  0.99644656  1
  Cu  Cu1  1  0.03329215  0.46006164  0.99643984  1
  Cu  Cu2  1  0.33490403  0.19283640  0.97160895  1
  Cu  Cu3  1  0.19284493  0.33491631  0.97159824  1
  Cu  Cu4  1  0.88104635  0.59479059  0.02392319  1
  Cu  Cu5  1  0.59485563  0.88107490  0.02391243  1
  Cu  Cu6  1  0.73870482  0.73867795  0.03358947  1
  O  O0  1  0.56956811  -0.00039297  0.77110604  1
  O  O1  1  -0.00043425  0.56948874  0.77110261  1
  O  O2  1  0.46539151  0.90690386  0.25186091  1
  O  O3  1  0.90688495  0.46534953  0.25186302  1
  O  O4  1  0.45843012  0.16241572  0.73868322  1
  O  O5  1  0.16243127  0.45843702  0.73867229  1
  O  O6  1  0.32088596  0.32088439  0.72392588  1
  O  O7  1  0.88005063  0.73619360  0.77373413  1
  O  O8  1  0.73617936  0.87998451  0.77374521  1
  O  O9  1  0.35221089  0.06697423  0.22697952  1
  O  O10  1  0.06700793  0.35224967  0.22696373  1
  O  O11  1  0.18566241  0.18567212  0.22994339  1
  O  O12  1  0.75584610  0.60850058  0.27702790  1
  O  O13  1  0.60853202  0.75585152  0.27701354  1
loop_
_geom_bond_atom_site_label_1
_geom_bond_atom_site_label_2
_geom_bond_distance
_geom_bond_site_symmetry_2
Na0 O2 2.267225 1_555
Na0 O3 2.296103 1_455
Na0 O1 2.323100 1_555
Na0 O5 2.436125 1_555
Na0 O10 2.592361 1_555
Na1 O3 2.267367 1_555
Na1 O2 2.295841 1_545
Na1 O0 2.323400 1_555
Na1 O4 2.435700 1_555
Na1 O9 2.592156 1_555
Na2 O1 2.277894 1_655
Na2 O12 2.330755 1_555
Na2 O3 2.333283 1_555
Na2 O4 2.339747 1_555
Na2 O7 2.608832 1_555
Na3 O0 2.277916 1_565
Na3 O13 2.330966 1_555
Na3 O2 2.333331 1_555
Na3 O5 2.339734 1_555
Na3 O8 2.608864 1_555
Na4 O13 2.313754 1_555
Na4 O12 2.313798 1_555
Na4 O6 2.335889 1_555
Na4 O8 2.448147 1_555
Na4 O7 2.448712 1_555
Na5 O6 2.301392 1_555
Na5 O13 2.327329 1_555
Na5 O5 2.333849 1_555
Na5 O10 2.337638 1_555
Na5 O11 2.555142 1_555
Na6 O6 2.301186 1_555
Na6 O12 2.327305 1_555
Na6 O4 2.334019 1_555
Na6 O9 2.337727 1_555
Na6 O11 2.555208 1_555
Na7 O1 2.273419 1_555
Na7 O9 2.312574 1_565
Na7 O4 2.332739 1_565
Na7 O7 2.909686 1_455
Na8 O0 2.273289 1_555
Na8 O10 2.312657 1_655
Na8 O5 2.332411 1_655
Na8 O8 2.911731 1_545
Na9 O12 2.293576 1_455
Na9 O7 2.321042 1_455
Na9 O9 2.342884 1_565
Na9 O11 2.471705 1_565
Na10 O13 2.293720 1_545
Na10 O8 2.321011 1_545
Na10 O10 2.342945 1_655
Na10 O11 2.471663 1_655
Na11 O6 2.295235 1_555
Na11 O11 2.318962 1_555
Na11 O8 2.366942 1_445
Na11 O7 2.367153 1_445
Cu0 O0 1.843290 1_555
Cu0 O9 1.850186 1_556
Cu0 O2 1.862402 1_546
Cu0 O4 1.864592 1_555
Cu1 O1 1.843152 1_555
Cu1 O10 1.850197 1_556
Cu1 O3 1.862221 1_456
Cu1 O5 1.864543 1_555
Cu2 O6 1.906821 1_555
Cu2 O9 1.943573 1_556
Cu2 O4 1.946206 1_555
Cu2 O11 1.947792 1_556
Cu3 O6 1.906743 1_555
Cu3 O10 1.943481 1_556
Cu3 O5 1.946201 1_555
Cu3 O11 1.947819 1_556
Cu4 O12 1.904495 1_555
Cu4 O7 1.918597 1_554
Cu4 O3 1.938279 1_555
Cu4 O1 1.942241 1_654
Cu5 O13 1.904490 1_555
Cu5 O8 1.918516 1_554
Cu5 O2 1.938318 1_555
Cu5 O0 1.942260 1_564
Cu6 O12 1.929996 1_555
Cu6 O13 1.930061 1_555
Cu6 O7 1.962989 1_554
Cu6 O8 1.963051 1_554
