# generated using pymatgen
data_U4Ge6Os7
_symmetry_space_group_name_H-M   'P 1'
_cell_length_a   7.22391626
_cell_length_b   7.22391626
_cell_length_c   7.22391626
_cell_angle_alpha   109.47122063
_cell_angle_beta   109.47122063
_cell_angle_gamma   109.47122063
_symmetry_Int_Tables_number   1
_chemical_formula_structural   U4Ge6Os7
_chemical_formula_sum   'U4 Ge6 Os7'
_cell_volume   290.19920543
_cell_formula_units_Z   1
loop_
 _symmetry_equiv_pos_site_id
 _symmetry_equiv_pos_as_xyz
  1  'x, y, z'
loop_
 _atom_site_type_symbol
 _atom_site_label
 _atom_site_symmetry_multiplicity
 _atom_site_fract_x
 _atom_site_fract_y
 _atom_site_fract_z
 _atom_site_occupancy
  U  U0  1  0.00000000  0.00000000  0.50000000  1
  U  U1  1  0.00000000  0.50000000  0.00000000  1
  U  U2  1  0.50000000  0.00000000  0.00000000  1
  U  U3  1  0.50000000  0.50000000  0.50000000  1
  Ge  Ge0  1  0.69218000  0.69218000  0.00000000  1
  Ge  Ge1  1  0.30782000  0.00000000  0.30782000  1
  Ge  Ge2  1  0.00000000  0.30782000  0.30782000  1
  Ge  Ge3  1  0.30782000  0.30782000  0.00000000  1
  Ge  Ge4  1  0.69218000  0.00000000  0.69218000  1
  Ge  Ge5  1  0.00000000  0.69218000  0.69218000  1
  Os  Os0  1  0.75000000  0.25000000  0.50000000  1
  Os  Os1  1  0.75000000  0.50000000  0.25000000  1
  Os  Os2  1  0.50000000  0.25000000  0.75000000  1
  Os  Os3  1  0.25000000  0.50000000  0.75000000  1
  Os  Os4  1  0.25000000  0.75000000  0.50000000  1
  Os  Os5  1  0.50000000  0.75000000  0.25000000  1
  Os  Os6  1  0.00000000  0.00000000  0.00000000  1
loop_
_geom_bond_atom_site_label_1
_geom_bond_atom_site_label_2
_geom_bond_distance
_geom_bond_site_symmetry_2
Ge0 Os6 2.567668 1_665
Ge0 Os5 2.630314 1_555
Ge0 Os2 2.630314 1_554
Ge0 Os3 2.630314 1_554
Ge0 Os1 2.630314 1_555
Ge0 U0 2.988329 1_665
Ge0 U1 2.988329 1_655
Ge0 U3 2.988329 1_554
Ge0 U2 2.988329 1_565
Ge1 Os6 2.567668 1_555
Ge1 Os0 2.630314 1_555
Ge1 Os2 2.630314 1_555
Ge1 Os4 2.630314 1_545
Ge1 Os5 2.630314 1_545
Ge1 U1 2.988329 1_545
Ge1 U0 2.988329 1_555
Ge1 U3 2.988329 1_555
Ge1 U2 2.988329 1_555
Ge2 Os6 2.567668 1_555
Ge2 Os3 2.630314 1_555
Ge2 Os4 2.630314 1_555
Ge2 Os0 2.630314 1_455
Ge2 Os1 2.630314 1_455
Ge2 U0 2.988329 1_555
Ge2 U2 2.988329 1_455
Ge2 U1 2.988329 1_555
Ge2 U3 2.988329 1_555
Ge3 Os6 2.567668 1_555
Ge3 Os5 2.630314 1_555
Ge3 Os2 2.630314 1_554
Ge3 Os3 2.630314 1_554
Ge3 Os1 2.630314 1_555
Ge3 U1 2.988329 1_555
Ge3 U0 2.988329 1_554
Ge3 U3 2.988329 1_555
Ge3 U2 2.988329 1_555
Ge4 Os6 2.567668 1_656
Ge4 Os0 2.630314 1_555
Ge4 Os4 2.630314 1_545
Ge4 Os2 2.630314 1_555
Ge4 Os5 2.630314 1_545
Ge4 U0 2.988329 1_655
Ge4 U2 2.988329 1_556
Ge4 U3 2.988329 1_545
Ge4 U1 2.988329 1_656
Ge5 Os6 2.567668 1_566
Ge5 Os3 2.630314 1_555
Ge5 Os4 2.630314 1_555
Ge5 Os0 2.630314 1_455
Ge5 Os1 2.630314 1_455
Ge5 U2 2.988329 1_566
Ge5 U1 2.988329 1_556
Ge5 U0 2.988329 1_565
Ge5 U3 2.988329 1_455
Os0 U3 2.949151 1_555
Os0 U1 2.949151 1_656
Os0 U2 2.949151 1_555
Os0 U0 2.949151 1_655
Os1 U1 2.949151 1_655
Os1 U3 2.949151 1_555
Os1 U0 2.949151 1_665
Os1 U2 2.949151 1_555
Os2 U3 2.949151 1_555
Os2 U2 2.949151 1_556
Os2 U0 2.949151 1_555
Os2 U1 2.949151 1_656
Os3 U3 2.949151 1_555
Os3 U1 2.949151 1_556
Os3 U0 2.949151 1_555
Os3 U2 2.949151 1_566
Os4 U3 2.949151 1_555
Os4 U2 2.949151 1_566
Os4 U1 2.949151 1_555
Os4 U0 2.949151 1_565
Os5 U3 2.949151 1_555
Os5 U2 2.949151 1_565
Os5 U0 2.949151 1_665
Os5 U1 2.949151 1_555
