# generated using pymatgen
data_CaPBrO8
_symmetry_space_group_name_H-M   'P 1'
_cell_length_a   10.39441562
_cell_length_b   10.39441562
_cell_length_c   7.06412495
_cell_angle_alpha   79.55665243
_cell_angle_beta   79.55665243
_cell_angle_gamma   34.46884086
_symmetry_Int_Tables_number   1
_chemical_formula_structural   CaPBrO8
_chemical_formula_sum   'Ca2 P2 Br2 O16'
_cell_volume   424.10865904
_cell_formula_units_Z   2
loop_
 _symmetry_equiv_pos_site_id
 _symmetry_equiv_pos_as_xyz
  1  'x, y, z'
loop_
 _atom_site_type_symbol
 _atom_site_label
 _atom_site_symmetry_multiplicity
 _atom_site_fract_x
 _atom_site_fract_y
 _atom_site_fract_z
 _atom_site_occupancy
  Ca  Ca0  1  0.65937200  0.34062800  0.25000000  1
  Ca  Ca1  1  0.34062800  0.65937200  0.75000000  1
  P  P0  1  0.14769600  0.85230400  0.25000000  1
  P  P1  1  0.85230400  0.14769600  0.75000000  1
  Br  Br0  1  0.00000000  0.50000000  0.00000000  1
  Br  Br1  1  0.50000000  0.00000000  0.50000000  1
  O  O0  1  0.93332100  0.93977800  0.28119500  1
  O  O1  1  0.06022200  0.06667900  0.21880500  1
  O  O2  1  0.06667900  0.06022200  0.71880500  1
  O  O3  1  0.93977800  0.93332100  0.78119500  1
  O  O4  1  0.30345700  0.69624300  0.07738200  1
  O  O5  1  0.30375700  0.69654300  0.42261800  1
  O  O6  1  0.69654300  0.30375700  0.92261800  1
  O  O7  1  0.69624300  0.30345700  0.57738200  1
  O  O8  1  0.50130900  0.16265500  0.19617200  1
  O  O9  1  0.83734500  0.49869100  0.30382800  1
  O  O10  1  0.49869100  0.83734500  0.80382800  1
  O  O11  1  0.16265500  0.50130900  0.69617200  1
  O  O12  1  0.38885400  0.94756700  0.94829800  1
  O  O13  1  0.05243300  0.61114600  0.55170200  1
  O  O14  1  0.61114600  0.05243300  0.05170200  1
  O  O15  1  0.94756700  0.38885400  0.44829800  1
loop_
_geom_bond_atom_site_label_1
_geom_bond_atom_site_label_2
_geom_bond_distance
_geom_bond_site_symmetry_2
Ca0 O6 2.323321 1_554
Ca0 O7 2.323321 1_555
Ca0 O0 2.418498 1_545
Ca0 O1 2.418498 1_655
Ca0 O4 2.507993 1_555
Ca0 O5 2.507993 1_555
Ca1 O5 2.323321 1_555
Ca1 O4 2.323321 1_556
Ca1 O3 2.418498 1_455
Ca1 O2 2.418498 1_565
Ca1 O7 2.507993 1_555
Ca1 O6 2.507993 1_555
Br0 O9 2.485360 1_455
Br0 O11 2.485360 1_554
Br1 O10 2.485360 1_545
Br1 O8 2.485360 1_555
O0 P0 1.547425 1_655
O1 P0 1.547425 1_545
O2 P1 1.547425 1_455
O3 P1 1.547425 1_565
O4 P0 1.552581 1_555
O5 P0 1.552581 1_555
O6 P1 1.552581 1_555
O7 P1 1.552581 1_555
O10 O12 1.225691 1_555
O11 O13 1.225691 1_555
O14 O8 1.225691 1_555
O15 O9 1.225691 1_555
