# generated using pymatgen
data_La2CuBiS5
_symmetry_space_group_name_H-M   'P 1'
_cell_length_a   3.99958916
_cell_length_b   12.03047679
_cell_length_c   17.06117363
_cell_angle_alpha   90.00000000
_cell_angle_beta   90.00000000
_cell_angle_gamma   90.00000000
_symmetry_Int_Tables_number   1
_chemical_formula_structural   La2CuBiS5
_chemical_formula_sum   'La8 Cu4 Bi4 S20'
_cell_volume   820.93188689
_cell_formula_units_Z   4
loop_
 _symmetry_equiv_pos_site_id
 _symmetry_equiv_pos_as_xyz
  1  'x, y, z'
loop_
 _atom_site_type_symbol
 _atom_site_label
 _atom_site_symmetry_multiplicity
 _atom_site_fract_x
 _atom_site_fract_y
 _atom_site_fract_z
 _atom_site_occupancy
  La  La0  1  0.25000000  0.03305259  0.67297550  1
  La  La1  1  0.25000000  0.53305259  0.82702450  1
  La  La2  1  0.75000000  0.96694741  0.32702450  1
  La  La3  1  0.75000000  0.46694741  0.17297550  1
  La  La4  1  0.25000000  0.37355980  0.59735014  1
  La  La5  1  0.25000000  0.87355980  0.90264986  1
  La  La6  1  0.75000000  0.62644020  0.40264986  1
  La  La7  1  0.75000000  0.12644020  0.09735014  1
  Cu  Cu0  1  0.25000000  0.40817627  0.99785463  1
  Cu  Cu1  1  0.25000000  0.90817627  0.50214537  1
  Cu  Cu2  1  0.75000000  0.59182373  0.00214537  1
  Cu  Cu3  1  0.75000000  0.09182373  0.49785463  1
  Bi  Bi0  1  0.25000000  0.30014420  0.36321283  1
  Bi  Bi1  1  0.25000000  0.80014420  0.13678717  1
  Bi  Bi2  1  0.75000000  0.69985580  0.63678717  1
  Bi  Bi3  1  0.75000000  0.19985580  0.86321283  1
  S  S0  1  0.25000000  0.01082092  0.20186486  1
  S  S1  1  0.25000000  0.51082092  0.29813514  1
  S  S2  1  0.75000000  0.98917908  0.79813514  1
  S  S3  1  0.75000000  0.48917908  0.70186486  1
  S  S4  1  0.25000000  0.08615379  0.42727667  1
  S  S5  1  0.25000000  0.58615379  0.07272333  1
  S  S6  1  0.75000000  0.91384621  0.57272333  1
  S  S7  1  0.75000000  0.41384621  0.92727667  1
  S  S8  1  0.25000000  0.10611614  0.96882270  1
  S  S9  1  0.25000000  0.60611614  0.53117730  1
  S  S10  1  0.75000000  0.89388386  0.03117730  1
  S  S11  1  0.75000000  0.39388386  0.46882270  1
  S  S12  1  0.25000000  0.26389615  0.76614290  1
  S  S13  1  0.25000000  0.76389615  0.73385710  1
  S  S14  1  0.75000000  0.73610385  0.23385710  1
  S  S15  1  0.75000000  0.23610385  0.26614290  1
  S  S16  1  0.25000000  0.30904600  0.11080431  1
  S  S17  1  0.25000000  0.80904600  0.38919569  1
  S  S18  1  0.75000000  0.69095400  0.88919569  1
  S  S19  1  0.75000000  0.19095400  0.61080431  1
loop_
_geom_bond_atom_site_label_1
_geom_bond_atom_site_label_2
_geom_bond_distance
_geom_bond_site_symmetry_2
La0 S19 2.955145 1_555
La0 S19 2.955145 1_455
La0 S2 2.972806 1_445
La0 S2 2.972806 1_545
La0 S6 2.996896 1_445
La0 S6 2.996896 1_545
La0 S12 3.199885 1_555
La0 S13 3.400601 1_545
La1 S18 2.955145 1_455
La1 S18 2.955145 1_555
La1 S3 2.972806 1_455
La1 S3 2.972806 1_555
La1 S7 2.996896 1_555
La1 S7 2.996896 1_455
La1 S13 3.199885 1_555
La1 S12 3.400601 1_555
La2 S17 2.955145 1_555
La2 S17 2.955145 1_655
La2 S0 2.972806 1_565
La2 S0 2.972806 1_665
La2 S4 2.996896 1_565
La2 S4 2.996896 1_665
La2 S14 3.199885 1_555
La2 S15 3.400601 1_565
La3 S16 2.955145 1_555
La3 S16 2.955145 1_655
La3 S1 2.972806 1_655
La3 S1 2.972806 1_555
La3 S5 2.996896 1_655
La3 S5 2.996896 1_555
La3 S15 3.199885 1_555
La3 S14 3.400601 1_555
La4 S11 2.977828 1_455
La4 S11 2.977828 1_555
La4 S19 2.979589 1_455
La4 S19 2.979589 1_555
La4 S9 3.016967 1_555
La4 S3 3.018863 1_455
La4 S3 3.018863 1_555
La4 S12 3.167622 1_555
La5 S10 2.977828 1_456
La5 S10 2.977828 1_556
La5 S18 2.979589 1_455
La5 S18 2.979589 1_555
La5 S8 3.016967 1_565
La5 S2 3.018863 1_455
La5 S2 3.018863 1_555
La5 S13 3.167622 1_555
La6 S9 2.977828 1_555
La6 S9 2.977828 1_655
La6 S17 2.979589 1_555
La6 S17 2.979589 1_655
La6 S11 3.016967 1_555
La6 S1 3.018863 1_555
La6 S1 3.018863 1_655
La6 S14 3.167622 1_555
La7 S8 2.977828 1_654
La7 S8 2.977828 1_554
La7 S16 2.979589 1_555
La7 S16 2.979589 1_655
La7 S10 3.016967 1_545
La7 S0 3.018863 1_555
La7 S0 3.018863 1_655
La7 S15 3.167622 1_555
Cu0 S16 2.266229 1_556
Cu0 S7 2.335335 1_455
Cu0 S7 2.335335 1_555
Cu0 S5 2.493223 1_556
Cu0 La1 3.278970 1_555
Cu1 S17 2.266229 1_555
Cu1 S6 2.335335 1_555
Cu1 S6 2.335335 1_455
Cu1 S4 2.493223 1_565
Cu1 La0 3.278970 1_565
Cu2 S18 2.266229 1_554
Cu2 S5 2.335335 1_555
Cu2 S5 2.335335 1_655
Cu2 S7 2.493223 1_554
Cu2 La3 3.278970 1_555
Cu3 S19 2.266229 1_555
Cu3 S4 2.335335 1_655
Cu3 S4 2.335335 1_555
Cu3 S6 2.493223 1_545
Cu3 La2 3.278970 1_545
Bi0 S15 2.708414 1_555
Bi0 S15 2.708414 1_455
Bi0 S1 2.767069 1_555
Bi0 S4 2.796825 1_555
Bi0 S11 2.918483 1_455
Bi0 S11 2.918483 1_555
Bi1 S14 2.708414 1_455
Bi1 S14 2.708414 1_555
Bi1 S0 2.767069 1_565
Bi1 S5 2.796825 1_555
Bi1 S10 2.918483 1_455
Bi1 S10 2.918483 1_555
Bi2 S13 2.708414 1_555
Bi2 S13 2.708414 1_655
Bi2 S3 2.767069 1_555
Bi2 S6 2.796825 1_555
Bi2 S9 2.918483 1_655
Bi2 S9 2.918483 1_555
Bi3 S12 2.708414 1_655
Bi3 S12 2.708414 1_555
Bi3 S2 2.767069 1_545
Bi3 S7 2.796825 1_555
Bi3 S8 2.918483 1_555
Bi3 S8 2.918483 1_655
