# generated using pymatgen
data_Pr(FeSb3)4
_symmetry_space_group_name_H-M   'P 1'
_cell_length_a   7.91562581
_cell_length_b   7.91562819
_cell_length_c   7.91541634
_cell_angle_alpha   109.47070894
_cell_angle_beta   109.47067850
_cell_angle_gamma   109.47175363
_symmetry_Int_Tables_number   1
_chemical_formula_structural   Pr(FeSb3)4
_chemical_formula_sum   'Pr1 Fe4 Sb12'
_cell_volume   381.79066544
_cell_formula_units_Z   1
loop_
 _symmetry_equiv_pos_site_id
 _symmetry_equiv_pos_as_xyz
  1  'x, y, z'
loop_
 _atom_site_type_symbol
 _atom_site_label
 _atom_site_symmetry_multiplicity
 _atom_site_fract_x
 _atom_site_fract_y
 _atom_site_fract_z
 _atom_site_occupancy
  Pr  Pr0  1  -0.00000000  0.00000000  0.00000000  1
  Fe  Fe0  1  -0.00000000  0.00000000  0.50000000  1
  Fe  Fe1  1  0.50000000  0.00000000  0.00000000  1
  Fe  Fe2  1  -0.00000000  0.50000000  0.00000000  1
  Fe  Fe3  1  0.50000000  0.50000000  0.50000000  1
  Sb  Sb0  1  0.33523600  0.17308495  0.83785995  1
  Sb  Sb1  1  0.66476400  0.82691505  0.16214005  1
  Sb  Sb2  1  0.66476737  0.50261907  0.83785415  1
  Sb  Sb3  1  0.33523263  0.49738093  0.16214585  1
  Sb  Sb4  1  0.17308495  0.83784795  0.33522400  1
  Sb  Sb5  1  0.82691505  0.16215205  0.66477600  1
  Sb  Sb6  1  0.50261907  0.83785269  0.66476391  1
  Sb  Sb7  1  0.49738093  0.16214731  0.33523609  1
  Sb  Sb8  1  0.83785369  0.33523463  0.17308778  1
  Sb  Sb9  1  0.16214631  0.66476537  0.82691222  1
  Sb  Sb10  1  0.83784895  0.66476400  0.50262395  1
  Sb  Sb11  1  0.16215105  0.33523600  0.49737605  1
loop_
_geom_bond_atom_site_label_1
_geom_bond_atom_site_label_2
_geom_bond_distance
_geom_bond_site_symmetry_2
Pr0 Sb10 3.403616 1_444
Pr0 Sb11 3.403616 1_555
Pr0 Sb1 3.403617 1_445
Pr0 Sb0 3.403617 1_554
Pr0 Sb5 3.403618 1_454
Pr0 Sb4 3.403618 1_545
Pr0 Sb3 3.403704 1_555
Pr0 Sb2 3.403704 1_444
Pr0 Sb8 3.403706 1_455
Pr0 Sb9 3.403706 1_544
Pr0 Sb7 3.403708 1_555
Pr0 Sb6 3.403708 1_444
Fe0 Sb1 2.544265 1_445
Fe0 Sb0 2.544265 1_555
Fe0 Sb11 2.544266 1_555
Fe0 Sb10 2.544266 1_445
Fe0 Sb5 2.544274 1_455
Fe0 Sb4 2.544274 1_545
Fe1 Sb0 2.544177 1_554
Fe1 Sb1 2.544177 1_545
Fe1 Sb6 2.544203 1_544
Fe1 Sb7 2.544203 1_555
Fe1 Sb9 2.544249 1_544
Fe1 Sb8 2.544249 1_555
Fe2 Sb4 2.544167 1_555
Fe2 Sb5 2.544167 1_454
Fe2 Sb8 2.544189 1_455
Fe2 Sb9 2.544189 1_554
Fe2 Sb3 2.544234 1_555
Fe2 Sb2 2.544234 1_454
Fe3 Sb10 2.544176 1_555
Fe3 Sb11 2.544176 1_555
Fe3 Sb2 2.544198 1_555
Fe3 Sb3 2.544198 1_555
Fe3 Sb6 2.544240 1_555
Fe3 Sb7 2.544240 1_555
Sb0 Sb3 2.964072 1_556
Sb0 Sb2 3.011995 1_555
Sb1 Sb2 2.964072 1_554
Sb1 Sb3 3.011995 1_555
Sb4 Sb7 2.964064 1_565
Sb4 Sb6 3.011985 1_555
Sb5 Sb6 2.964064 1_545
Sb5 Sb7 3.011985 1_555
Sb10 Sb9 2.964068 1_655
Sb10 Sb8 3.011989 1_555
Sb11 Sb8 2.964068 1_455
Sb11 Sb9 3.011989 1_555
