# generated using pymatgen
data_CaCrAsO5
_symmetry_space_group_name_H-M   'P 1'
_cell_length_a   5.99220700
_cell_length_b   7.56100800
_cell_length_c   8.91824500
_cell_angle_alpha   90.00000000
_cell_angle_beta   90.00000000
_cell_angle_gamma   90.00000000
_symmetry_Int_Tables_number   1
_chemical_formula_structural   CaCrAsO5
_chemical_formula_sum   'Ca4 Cr4 As4 O20'
_cell_volume   404.06004157
_cell_formula_units_Z   4
loop_
 _symmetry_equiv_pos_site_id
 _symmetry_equiv_pos_as_xyz
  1  'x, y, z'
loop_
 _atom_site_type_symbol
 _atom_site_label
 _atom_site_symmetry_multiplicity
 _atom_site_fract_x
 _atom_site_fract_y
 _atom_site_fract_z
 _atom_site_occupancy
  Ca  Ca0  1  0.97276300  0.85118200  0.66996600  1
  Ca  Ca1  1  0.52723700  0.14881800  0.16996600  1
  Ca  Ca2  1  0.02723700  0.35118200  0.83003400  1
  Ca  Ca3  1  0.47276300  0.64881800  0.33003400  1
  Cr  Cr0  1  0.25505300  0.75595100  0.99555300  1
  Cr  Cr1  1  0.24494700  0.24404900  0.49555300  1
  Cr  Cr2  1  0.74494700  0.25595100  0.50444700  1
  Cr  Cr3  1  0.75505300  0.74404900  0.00444700  1
  As  As0  1  0.48084800  0.10726400  0.80879900  1
  As  As1  1  0.01915200  0.89273600  0.30879900  1
  As  As2  1  0.51915200  0.60726400  0.69120100  1
  As  As3  1  0.98084800  0.39273600  0.19120100  1
  O  O0  1  0.50811900  0.92052800  0.92681100  1
  O  O1  1  0.99188100  0.07947200  0.42681100  1
  O  O2  1  0.49188100  0.42052800  0.57318900  1
  O  O3  1  0.00811900  0.57947200  0.07318900  1
  O  O4  1  0.41500800  0.27203600  0.93024900  1
  O  O5  1  0.08499200  0.72796400  0.43024900  1
  O  O6  1  0.58499200  0.77203600  0.56975100  1
  O  O7  1  0.91500800  0.22796400  0.06975100  1
  O  O8  1  0.73183900  0.13369400  0.71570000  1
  O  O9  1  0.76816100  0.86630600  0.21570000  1
  O  O10  1  0.26816100  0.63369400  0.78430000  1
  O  O11  1  0.23183900  0.36630600  0.28430000  1
  O  O12  1  0.25193200  0.09492800  0.69102000  1
  O  O13  1  0.24806800  0.90507200  0.19102000  1
  O  O14  1  0.74806800  0.59492800  0.80898000  1
  O  O15  1  0.75193200  0.40507200  0.30898000  1
  O  O16  1  0.99767800  0.87619300  0.91643700  1
  O  O17  1  0.50232200  0.12380700  0.41643700  1
  O  O18  1  0.00232200  0.37619300  0.58356300  1
  O  O19  1  0.49767800  0.62380700  0.08356300  1
loop_
_geom_bond_atom_site_label_1
_geom_bond_atom_site_label_2
_geom_bond_distance
_geom_bond_site_symmetry_2
Ca0 O16 2.211254 1_555
Ca0 O5 2.427067 1_655
Ca0 O12 2.496030 1_665
Ca0 O6 2.560473 1_555
Ca0 O8 2.610239 1_565
Ca0 O10 2.622414 1_655
Ca0 O14 2.665316 1_555
Ca0 O1 2.773989 1_565
Ca1 O17 2.211254 1_555
Ca1 O4 2.427067 1_554
Ca1 O13 2.496030 1_545
Ca1 O7 2.560473 1_555
Ca1 O9 2.610239 1_545
Ca1 O11 2.622414 1_555
Ca1 O15 2.665316 1_555
Ca1 O0 2.773989 1_544
Ca2 O18 2.211254 1_555
Ca2 O7 2.427067 1_456
Ca2 O14 2.496030 1_455
Ca2 O4 2.560473 1_555
Ca2 O10 2.610239 1_555
Ca2 O8 2.622414 1_455
Ca2 O12 2.665316 1_555
Ca2 O3 2.773989 1_556
Ca3 O19 2.211254 1_555
Ca3 O6 2.427067 1_555
Ca3 O15 2.496030 1_555
Ca3 O5 2.560473 1_555
Ca3 O11 2.610239 1_555
Ca3 O9 2.622414 1_555
Ca3 O13 2.665316 1_555
Ca3 O2 2.773989 1_555
Cr0 O16 1.924295 1_455
Cr0 O19 1.930816 1_556
Cr0 O0 2.055197 1_555
Cr0 O13 2.076498 1_556
Cr0 O10 2.100033 1_555
Cr0 O3 2.109349 1_556
Cr1 O17 1.924295 1_555
Cr1 O18 1.930816 1_555
Cr1 O1 2.055197 1_455
Cr1 O12 2.076498 1_555
Cr1 O11 2.100033 1_555
Cr1 O2 2.109349 1_555
Cr2 O18 1.924295 1_655
Cr2 O17 1.930816 1_555
Cr2 O2 2.055197 1_555
Cr2 O15 2.076498 1_555
Cr2 O8 2.100033 1_555
Cr2 O1 2.109349 1_555
Cr3 O19 1.924295 1_555
Cr3 O16 1.930816 1_554
Cr3 O3 2.055197 1_655
Cr3 O14 2.076498 1_554
Cr3 O9 2.100033 1_555
Cr3 O0 2.109349 1_554
As0 O4 1.697329 1_555
As0 O8 1.729533 1_555
As0 O12 1.730201 1_555
As0 O0 1.768579 1_545
As1 O5 1.697329 1_555
As1 O9 1.729533 1_455
As1 O13 1.730201 1_555
As1 O1 1.768579 1_465
As2 O6 1.697329 1_555
As2 O10 1.729533 1_555
As2 O14 1.730201 1_555
As2 O2 1.768579 1_555
As3 O7 1.697329 1_555
As3 O11 1.729533 1_655
As3 O15 1.730201 1_555
As3 O3 1.768579 1_655
