# generated using pymatgen
data_Nb2GaCo3
_symmetry_space_group_name_H-M   'P 1'
_cell_length_a   4.84209191
_cell_length_b   4.84209191
_cell_length_c   8.15438379
_cell_angle_alpha   90.00000000
_cell_angle_beta   90.00000000
_cell_angle_gamma   120.00000199
_symmetry_Int_Tables_number   1
_chemical_formula_structural   Nb2GaCo3
_chemical_formula_sum   'Nb4 Ga2 Co6'
_cell_volume   165.57235561
_cell_formula_units_Z   2
loop_
 _symmetry_equiv_pos_site_id
 _symmetry_equiv_pos_as_xyz
  1  'x, y, z'
loop_
 _atom_site_type_symbol
 _atom_site_label
 _atom_site_symmetry_multiplicity
 _atom_site_fract_x
 _atom_site_fract_y
 _atom_site_fract_z
 _atom_site_occupancy
  Nb  Nb0  1  0.33333300  0.66666700  0.93063261  1
  Nb  Nb1  1  0.66666700  0.33333300  0.06936739  1
  Nb  Nb2  1  0.66666700  0.33333300  0.43063261  1
  Nb  Nb3  1  0.33333300  0.66666700  0.56936739  1
  Ga  Ga0  1  0.00000000  0.00000000  -0.00000000  1
  Ga  Ga1  1  0.00000000  0.00000000  0.50000000  1
  Co  Co0  1  0.82745123  0.17254877  0.75000000  1
  Co  Co1  1  0.82745123  0.65490246  0.75000000  1
  Co  Co2  1  0.34509754  0.17254877  0.75000000  1
  Co  Co3  1  0.17254877  0.82745123  0.25000000  1
  Co  Co4  1  0.17254877  0.34509754  0.25000000  1
  Co  Co5  1  0.65490246  0.82745123  0.25000000  1
loop_
_geom_bond_atom_site_label_1
_geom_bond_atom_site_label_2
_geom_bond_distance
_geom_bond_site_symmetry_2
Nb0 Nb3 2.945895 1_555
Nb0 Nb1 3.015808 1_456
Nb0 Nb1 3.015808 1_566
Nb0 Nb1 3.015816 1_556
Nb1 Nb2 2.945895 1_555
Nb2 Nb3 3.015808 1_545
Nb2 Nb3 3.015808 1_655
Nb2 Nb3 3.015816 1_555
Ga0 Nb1 2.852232 1_455
Ga0 Nb0 2.852232 1_544
Ga0 Nb1 2.852236 1_445
Ga0 Nb1 2.852236 1_555
Ga0 Nb0 2.852236 1_554
Ga0 Nb0 2.852236 1_444
Ga1 Nb3 2.852232 1_545
Ga1 Nb2 2.852232 1_455
Ga1 Nb3 2.852236 1_555
Ga1 Nb3 2.852236 1_445
Ga1 Nb2 2.852236 1_445
Ga1 Nb2 2.852236 1_555
Co0 Co1 2.335601 1_555
Co0 Co2 2.335601 1_555
Co0 Ga1 2.500008 1_655
Co0 Ga0 2.500008 1_656
Co0 Co2 2.506491 1_655
Co0 Co1 2.506491 1_545
Co0 Nb3 2.834338 1_655
Co0 Nb0 2.834338 1_545
Co0 Nb3 2.834338 1_545
Co0 Nb0 2.834338 1_655
Co0 Nb2 2.932648 1_555
Co0 Nb1 2.932648 1_556
Co1 Co2 2.335601 1_555
Co1 Ga1 2.500008 1_665
Co1 Ga0 2.500008 1_666
Co1 Co2 2.506491 1_665
Co1 Nb0 2.834336 1_655
Co1 Nb3 2.834336 1_655
Co1 Nb3 2.834340 1_555
Co1 Nb0 2.834340 1_555
Co1 Nb2 2.932650 1_555
Co1 Nb1 2.932650 1_556
Co2 Ga1 2.500008 1_555
Co2 Ga0 2.500008 1_556
Co2 Nb0 2.834336 1_545
Co2 Nb3 2.834336 1_545
Co2 Nb3 2.834340 1_555
Co2 Nb0 2.834340 1_555
Co2 Nb1 2.932650 1_556
Co2 Nb2 2.932650 1_555
Co3 Co5 2.335601 1_555
Co3 Co4 2.335601 1_555
Co3 Ga1 2.500008 1_565
Co3 Ga0 2.500008 1_565
Co3 Co4 2.506491 1_565
Co3 Co5 2.506491 1_455
Co3 Nb2 2.834338 1_455
Co3 Nb1 2.834338 1_455
Co3 Nb2 2.834338 1_565
Co3 Nb1 2.834338 1_565
Co3 Nb0 2.932648 1_554
Co3 Nb3 2.932648 1_555
Co4 Co5 2.335601 1_555
Co4 Ga1 2.500008 1_555
Co4 Ga0 2.500008 1_555
Co4 Co5 2.506491 1_445
Co4 Nb1 2.834336 1_455
Co4 Nb2 2.834336 1_455
Co4 Nb1 2.834340 1_555
Co4 Nb2 2.834340 1_555
Co4 Nb3 2.932650 1_555
Co4 Nb0 2.932650 1_554
Co5 Ga0 2.500008 1_665
Co5 Ga1 2.500008 1_665
Co5 Nb2 2.834336 1_565
Co5 Nb1 2.834336 1_565
Co5 Nb1 2.834340 1_555
Co5 Nb2 2.834340 1_555
Co5 Nb3 2.932650 1_555
Co5 Nb0 2.932650 1_554
