# generated using pymatgen
data_Tb5P12Ru19
_symmetry_space_group_name_H-M   'P 1'
_cell_length_a   3.98196500
_cell_length_b   12.55713310
_cell_length_c   12.55729874
_cell_angle_alpha   119.99956226
_cell_angle_beta   90.00000000
_cell_angle_gamma   90.00000000
_symmetry_Int_Tables_number   1
_chemical_formula_structural   Tb5P12Ru19
_chemical_formula_sum   'Tb5 P12 Ru19'
_cell_volume   543.77183514
_cell_formula_units_Z   1
loop_
 _symmetry_equiv_pos_site_id
 _symmetry_equiv_pos_as_xyz
  1  'x, y, z'
loop_
 _atom_site_type_symbol
 _atom_site_label
 _atom_site_symmetry_multiplicity
 _atom_site_fract_x
 _atom_site_fract_y
 _atom_site_fract_z
 _atom_site_occupancy
  Tb  Tb0  1  0.50000000  0.99999700  0.18457000  1
  Tb  Tb1  1  0.50000000  0.18456200  0.00000000  1
  Tb  Tb2  1  0.50000000  0.81542800  0.81543000  1
  Tb  Tb3  1  0.00000000  0.33330400  0.66667400  1
  Tb  Tb4  1  0.00000000  0.66663000  0.33332600  1
  P  P0  1  0.00000000  0.99999700  0.81555700  1
  P  P1  1  0.00000000  0.81556900  0.00000000  1
  P  P2  1  0.00000000  0.18443900  0.18444300  1
  P  P3  1  0.50000000  0.30732000  0.47756900  1
  P  P4  1  0.50000000  0.17023300  0.69266900  1
  P  P5  1  0.50000000  0.52243200  0.82976100  1
  P  P6  1  0.50000000  0.82975100  0.52243100  1
  P  P7  1  0.50000000  0.47756300  0.30733100  1
  P  P8  1  0.50000000  0.69267200  0.17023900  1
  P  P9  1  0.00000000  0.00000400  0.37272500  1
  P  P10  1  0.00000000  0.37271700  0.00000000  1
  P  P11  1  0.00000000  0.62727900  0.62727500  1
  Ru  Ru0  1  0.00000000  0.00000200  0.55443100  1
  Ru  Ru1  1  0.00000000  0.55443000  0.00000000  1
  Ru  Ru2  1  0.00000000  0.44557100  0.44556900  1
  Ru  Ru3  1  0.50000000  0.99999900  0.71705100  1
  Ru  Ru4  1  0.50000000  0.71705500  0.00000000  1
  Ru  Ru5  1  0.50000000  0.28294800  0.28294900  1
  Ru  Ru6  1  0.00000000  0.19255600  0.37699700  1
  Ru  Ru7  1  0.00000000  0.18444300  0.80745000  1
  Ru  Ru8  1  0.00000000  0.62300800  0.81556100  1
  Ru  Ru9  1  0.00000000  0.81555900  0.62300300  1
  Ru  Ru10  1  0.00000000  0.37699300  0.19255000  1
  Ru  Ru11  1  0.00000000  0.80744700  0.18443900  1
  Ru  Ru12  1  0.50000000  0.12599700  0.49110100  1
  Ru  Ru13  1  0.50000000  0.36509900  0.87400400  1
  Ru  Ru14  1  0.50000000  0.50889600  0.63489500  1
  Ru  Ru15  1  0.50000000  0.63489600  0.50889900  1
  Ru  Ru16  1  0.50000000  0.49109500  0.12599600  1
  Ru  Ru17  1  0.50000000  0.87400100  0.36510500  1
  Ru  Ru18  1  0.00000000  0.00000700  0.00000000  1
loop_
_geom_bond_atom_site_label_1
_geom_bond_atom_site_label_2
_geom_bond_distance
_geom_bond_site_symmetry_2
P0 Ru18 2.316043 1_566
P0 Ru3 2.343957 1_555
P0 Ru3 2.343957 1_455
P0 Ru9 2.368647 1_555
P0 Ru7 2.368655 1_565
P0 Tb2 3.054808 1_555
P0 Tb2 3.054808 1_455
P0 Tb1 3.054817 1_466
P0 Tb1 3.054817 1_566
P1 Ru18 2.316013 1_565
P1 Ru4 2.343995 1_455
P1 Ru4 2.343995 1_555
P1 Ru11 2.368697 1_555
P1 Ru8 2.368697 1_554
P1 Tb0 3.054770 1_555
P1 Tb0 3.054770 1_455
P1 Tb2 3.054774 1_554
P1 Tb2 3.054774 1_454
P2 Ru18 2.316037 1_555
P2 Ru5 2.343961 1_455
P2 Ru5 2.343961 1_555
P2 Ru6 2.368641 1_555
P2 Ru10 2.368667 1_555
P2 Tb0 3.054808 1_545
P2 Tb0 3.054808 1_445
P2 Tb1 3.054822 1_555
P2 Tb1 3.054822 1_455
P3 Ru14 2.304221 1_555
P3 Ru5 2.306163 1_555
P3 Ru12 2.366439 1_555
P3 Ru6 2.411593 1_655
P3 Ru6 2.411593 1_555
P3 Ru2 2.799445 1_655
P3 Ru2 2.799445 1_555
P3 Tb3 2.989084 1_655
P3 Tb3 2.989084 1_555
P4 Ru12 2.304191 1_555
P4 Ru3 2.306030 1_545
P4 Ru13 2.366611 1_555
P4 Ru7 2.411664 1_655
P4 Ru7 2.411664 1_555
P4 Ru0 2.799306 1_655
P4 Ru0 2.799306 1_555
P4 Tb3 2.988658 1_655
P4 Tb3 2.988658 1_555
P5 Ru13 2.304227 1_555
P5 Ru4 2.306133 1_556
P5 Ru14 2.366587 1_555
P5 Ru8 2.411646 1_555
P5 Ru8 2.411646 1_655
P5 Ru1 2.799367 1_556
P5 Ru1 2.799367 1_656
P5 Tb3 2.989086 1_655
P5 Tb3 2.989086 1_555
P6 Ru17 2.304221 1_555
P6 Ru3 2.306163 1_555
P6 Ru15 2.366439 1_555
P6 Ru9 2.411593 1_555
P6 Ru9 2.411593 1_655
P6 Ru0 2.799445 1_565
P6 Ru0 2.799445 1_665
P6 Tb4 2.989084 1_555
P6 Tb4 2.989084 1_655
P7 Ru15 2.304195 1_555
P7 Ru5 2.306017 1_555
P7 Ru16 2.366618 1_555
P7 Ru10 2.411662 1_655
P7 Ru10 2.411662 1_555
P7 Ru2 2.799300 1_655
P7 Ru2 2.799300 1_555
P7 Tb4 2.988667 1_555
P7 Tb4 2.988667 1_655
P8 Ru16 2.304239 1_555
P8 Ru4 2.306125 1_555
P8 Ru17 2.366582 1_555
P8 Ru11 2.411639 1_655
P8 Ru11 2.411639 1_555
P8 Ru1 2.799370 1_555
P8 Ru1 2.799370 1_655
P8 Tb4 2.989091 1_555
P8 Tb4 2.989091 1_655
P9 Ru0 2.281749 1_555
P9 Ru6 2.391530 1_555
P9 Ru11 2.391630 1_545
P9 Ru12 2.514949 1_555
P9 Ru12 2.514949 1_455
P9 Ru17 2.515003 1_445
P9 Ru17 2.515003 1_545
P9 Tb0 3.089699 1_445
P9 Tb0 3.089699 1_545
P10 Ru1 2.281794 1_555
P10 Ru10 2.391513 1_555
P10 Ru7 2.391513 1_554
P10 Ru13 2.514970 1_454
P10 Ru13 2.514970 1_554
P10 Ru16 2.514970 1_455
P10 Ru16 2.514970 1_555
P10 Tb1 3.089709 1_455
P10 Tb1 3.089709 1_555
P11 Ru2 2.281749 1_555
P11 Ru9 2.391530 1_555
P11 Ru8 2.391630 1_555
P11 Ru15 2.514949 1_555
P11 Ru15 2.514949 1_455
P11 Ru14 2.515003 1_555
P11 Ru14 2.515003 1_455
P11 Tb2 3.089704 1_555
P11 Tb2 3.089704 1_455
Ru0 Ru9 2.846043 1_545
Ru0 Ru7 2.846115 1_555
Ru0 Ru12 2.890982 1_555
Ru0 Ru12 2.890982 1_455
Ru0 Ru17 2.891022 1_545
Ru0 Ru17 2.891022 1_445
Ru1 Ru8 2.846069 1_554
Ru1 Ru11 2.846069 1_555
Ru1 Ru16 2.891034 1_555
Ru1 Ru16 2.891034 1_455
Ru1 Ru13 2.891034 1_454
Ru1 Ru13 2.891034 1_554
Ru2 Ru6 2.846043 1_555
Ru3 Ru9 2.826234 1_655
Ru3 Ru9 2.826234 1_555
Ru3 Ru7 2.826264 1_665
Ru3 Ru7 2.826264 1_565
Ru3 Tb2 3.124255 1_555
Ru3 Tb1 3.124275 1_566
Ru4 Ru8 2.826245 1_554
Ru4 Ru8 2.826245 1_654
Ru4 Tb0 3.124192 1_555
Ru4 Tb2 3.124202 1_554
Ru5 Ru6 2.826234 1_555
Ru5 Ru6 2.826234 1_655
Ru5 Tb0 3.124267 1_545
Ru5 Tb1 3.124275 1_555
Ru6 Tb0 3.131586 1_545
Ru6 Tb0 3.131586 1_445
Ru6 Tb3 3.150653 1_555
Ru7 Tb1 3.131562 1_456
Ru7 Tb1 3.131562 1_556
Ru7 Tb3 3.150165 1_555
Ru8 Tb2 3.131489 1_455
Ru8 Tb2 3.131489 1_555
Ru8 Tb3 3.150894 1_555
Ru9 Tb2 3.131581 1_555
Ru9 Tb2 3.131581 1_455
Ru9 Tb4 3.150653 1_555
Ru10 Ru16 2.812969 1_555
Ru10 Ru16 2.812969 1_455
Ru10 Ru5 2.826264 1_555
Ru10 Ru5 2.826264 1_455
Ru10 Ru2 2.846115 1_555
Ru10 Tb1 3.131562 1_455
Ru10 Tb1 3.131562 1_555
Ru10 Tb4 3.150166 1_555
Ru11 Ru17 2.813072 1_455
Ru11 Ru17 2.813072 1_555
Ru11 Ru4 2.826245 1_455
Ru11 Ru4 2.826245 1_555
Ru11 Tb0 3.131479 1_555
Ru11 Tb0 3.131479 1_455
Ru11 Tb4 3.150894 1_555
Ru12 Ru17 2.740417 1_545
Ru12 Ru6 2.813026 1_655
Ru12 Ru6 2.813026 1_555
Ru12 Tb3 3.140406 1_555
Ru12 Tb3 3.140406 1_655
Ru12 Tb0 3.351057 1_545
Ru13 Ru16 2.740410 1_556
Ru13 Ru7 2.812969 1_655
Ru13 Ru7 2.812969 1_555
Ru13 Tb3 3.140415 1_555
Ru13 Tb3 3.140415 1_655
Ru13 Tb1 3.351036 1_556
Ru14 Ru15 2.740417 1_555
Ru14 Ru8 2.813072 1_655
Ru14 Ru8 2.813072 1_555
Ru14 Ru2 2.891022 1_655
Ru14 Ru2 2.891022 1_555
Ru14 Tb3 3.140839 1_655
Ru14 Tb3 3.140839 1_555
Ru14 Tb2 3.351034 1_555
Ru15 Ru9 2.813026 1_655
Ru15 Ru9 2.813026 1_555
Ru15 Ru2 2.890982 1_655
Ru15 Ru2 2.890982 1_555
Ru15 Tb4 3.140406 1_655
Ru15 Tb4 3.140406 1_555
Ru15 Tb2 3.351058 1_555
Ru16 Tb4 3.140415 1_655
Ru16 Tb4 3.140415 1_555
Ru16 Tb1 3.351037 1_555
Ru17 Tb4 3.140839 1_555
Ru17 Tb4 3.140839 1_655
Ru17 Tb0 3.351024 1_555
Ru18 Tb1 3.055279 1_455
Ru18 Tb1 3.055279 1_555
Ru18 Tb2 3.055488 1_444
Ru18 Tb2 3.055488 1_544
Ru18 Tb0 3.055493 1_545
Ru18 Tb0 3.055493 1_445
