# generated using pymatgen
data_LuBPt2
_symmetry_space_group_name_H-M   'P 1'
_cell_length_a   5.24262795
_cell_length_b   5.24268131
_cell_length_c   7.92783853
_cell_angle_alpha   90.00011591
_cell_angle_beta   89.99948138
_cell_angle_gamma   120.00370519
_symmetry_Int_Tables_number   1
_chemical_formula_structural   LuBPt2
_chemical_formula_sum   'Lu3 B3 Pt6'
_cell_volume   188.69991713
_cell_formula_units_Z   3
loop_
 _symmetry_equiv_pos_site_id
 _symmetry_equiv_pos_as_xyz
  1  'x, y, z'
loop_
 _atom_site_type_symbol
 _atom_site_label
 _atom_site_symmetry_multiplicity
 _atom_site_fract_x
 _atom_site_fract_y
 _atom_site_fract_z
 _atom_site_occupancy
  Lu  Lu0  1  0.49999264  0.49999517  0.83328623  1
  Lu  Lu1  1  0.49999218  0.99998975  0.50002269  1
  Lu  Lu2  1  0.00001500  0.49999814  0.16671980  1
  B  B0  1  0.50000672  0.50000495  0.33341281  1
  B  B1  1  0.50000059  0.00000309  -0.00004688  1
  B  B2  1  -0.00000265  0.49999921  0.66662125  1
  Pt  Pt0  1  0.15197363  0.84808508  0.83328668  1
  Pt  Pt1  1  0.15188981  0.30378931  0.50005405  1
  Pt  Pt2  1  0.69609340  0.84808234  0.16665025  1
  Pt  Pt3  1  0.84801929  0.15191715  0.83329025  1
  Pt  Pt4  1  0.84811720  0.69621514  0.50005509  1
  Pt  Pt5  1  0.30390419  0.15192169  0.16664978  1
loop_
_geom_bond_atom_site_label_1
_geom_bond_atom_site_label_2
_geom_bond_distance
_geom_bond_site_symmetry_2
Lu0 Pt0 2.962005 1_545
Lu0 Pt3 2.962059 1_565
Lu0 Pt3 2.962269 1_455
Lu0 Pt0 2.962305 1_655
Lu0 Pt1 3.080653 1_555
Lu0 Pt4 3.080672 1_555
Lu0 Pt5 3.081447 1_556
Lu0 Pt2 3.081493 1_556
Lu0 Pt3 3.160564 1_555
Lu0 Pt0 3.160583 1_555
Lu1 Pt4 2.961851 1_455
Lu1 Pt1 2.961951 1_665
Lu1 Pt4 2.962138 1_555
Lu1 Pt1 2.962143 1_565
Lu1 Pt0 3.080645 1_555
Lu1 Pt3 3.080711 1_565
Lu1 Pt2 3.081406 1_555
Lu1 Pt5 3.081450 1_565
Lu1 Pt1 3.160838 1_555
Lu1 Pt4 3.160951 1_565
Lu2 Pt2 2.962042 1_445
Lu2 Pt5 2.962084 1_565
Lu2 Pt5 2.962423 1_555
Lu2 Pt2 2.962603 1_455
Lu2 Pt1 3.081353 1_555
Lu2 Pt4 3.081416 1_455
Lu2 Pt3 3.081929 1_454
Lu2 Pt0 3.081969 1_554
Lu2 Pt2 3.160251 1_555
Lu2 Pt5 3.160398 1_455
B0 Pt1 2.063168 1_555
B0 Pt4 2.063169 1_555
B0 Pt2 2.063632 1_555
B0 Pt5 2.063666 1_555
B0 Lu1 2.935278 1_555
B0 Lu1 2.935357 1_545
B0 Lu2 2.935546 1_555
B0 Lu2 2.935634 1_655
B1 Pt3 2.062929 1_554
B1 Pt0 2.062995 1_544
B1 Pt5 2.063155 1_555
B1 Pt2 2.063166 1_545
B1 Lu0 2.935505 1_554
B1 Lu0 2.935537 1_544
B1 Lu2 2.935704 1_545
B1 Lu2 2.935764 1_655
B2 Pt4 2.062813 1_455
B2 Pt1 2.062826 1_555
B2 Pt3 2.063191 1_455
B2 Pt0 2.063192 1_555
B2 Lu1 2.935091 1_555
B2 Lu1 2.935176 1_445
B2 Lu0 2.935488 1_555
B2 Lu0 2.935492 1_455
