# generated using pymatgen
data_CaCeAlFe2Si3O13
_symmetry_space_group_name_H-M   'P 1'
_cell_length_a   5.85701400
_cell_length_b   9.01372600
_cell_length_c   10.22218360
_cell_angle_alpha   64.82301752
_cell_angle_beta   90.00000000
_cell_angle_gamma   90.00000000
_symmetry_Int_Tables_number   1
_chemical_formula_structural   CaCeAlFe2Si3O13
_chemical_formula_sum   'Ca2 Ce2 Al2 Fe4 Si6 O26'
_cell_volume   488.39580417
_cell_formula_units_Z   2
loop_
 _symmetry_equiv_pos_site_id
 _symmetry_equiv_pos_as_xyz
  1  'x, y, z'
loop_
 _atom_site_type_symbol
 _atom_site_label
 _atom_site_symmetry_multiplicity
 _atom_site_fract_x
 _atom_site_fract_y
 _atom_site_fract_z
 _atom_site_occupancy
  Ca  Ca0  1  0.25000000  0.61994700  0.14957700  1
  Ca  Ca1  1  0.75000000  0.38005300  0.85042300  1
  Ce  Ce0  1  0.25000000  0.19303100  0.43833100  1
  Ce  Ce1  1  0.75000000  0.80696900  0.56166900  1
  Al  Al0  1  0.00000000  0.50000000  0.50000000  1
  Al  Al1  1  0.50000000  0.50000000  0.50000000  1
  Fe  Fe0  1  0.25000000  0.92183500  0.77325500  1
  Fe  Fe1  1  0.75000000  0.07816500  0.22674500  1
  Fe  Fe2  1  0.00000000  0.00000000  0.00000000  1
  Fe  Fe3  1  0.50000000  0.00000000  0.00000000  1
  Si  Si0  1  0.25000000  0.30251000  0.04581500  1
  Si  Si1  1  0.75000000  0.69749000  0.95418500  1
  Si  Si2  1  0.25000000  0.86251200  0.33343400  1
  Si  Si3  1  0.75000000  0.13748800  0.66656600  1
  Si  Si4  1  0.25000000  0.58188000  0.73268800  1
  Si  Si5  1  0.75000000  0.41812000  0.26731200  1
  O  O0  1  0.25000000  0.49172800  0.91272400  1
  O  O1  1  0.75000000  0.50827200  0.08727600  1
  O  O2  1  0.01161900  0.21271800  0.03366200  1
  O  O3  1  0.98838100  0.78728200  0.96633800  1
  O  O4  1  0.51161900  0.78728200  0.96633800  1
  O  O5  1  0.48838100  0.21271800  0.03366200  1
  O  O6  1  0.25000000  0.66053400  0.41788100  1
  O  O7  1  0.75000000  0.33946600  0.58211900  1
  O  O8  1  0.25000000  0.07295000  0.86596400  1
  O  O9  1  0.75000000  0.92705000  0.13403600  1
  O  O10  1  0.25000000  0.32541000  0.19600000  1
  O  O11  1  0.75000000  0.67459000  0.80400000  1
  O  O12  1  0.25000000  0.77800400  0.67393500  1
  O  O13  1  0.75000000  0.22199600  0.32606500  1
  O  O14  1  0.02088800  0.52437600  0.67409500  1
  O  O15  1  0.97911200  0.47562400  0.32590500  1
  O  O16  1  0.52088800  0.47562400  0.32590500  1
  O  O17  1  0.47911200  0.52437600  0.67409500  1
  O  O18  1  0.25000000  0.35081600  0.54567000  1
  O  O19  1  0.75000000  0.64918400  0.45433000  1
  O  O20  1  0.25000000  0.89631500  0.16045100  1
  O  O21  1  0.75000000  0.10368500  0.83954900  1
  O  O22  1  0.02768300  0.94537000  0.37742200  1
  O  O23  1  0.97231700  0.05463000  0.62257800  1
  O  O24  1  0.52768300  0.05463000  0.62257800  1
  O  O25  1  0.47231700  0.94537000  0.37742200  1
loop_
_geom_bond_atom_site_label_1
_geom_bond_atom_site_label_2
_geom_bond_distance
_geom_bond_site_symmetry_2
Ca0 O15 2.337396 1_455
Ca0 O16 2.337396 1_555
Ca0 O4 2.393260 1_554
Ca0 O3 2.393260 1_454
Ca0 O10 2.490308 1_555
Ca0 O20 2.540385 1_555
Ca1 O17 2.337396 1_555
Ca1 O14 2.337396 1_655
Ca1 O2 2.393260 1_656
Ca1 O5 2.393260 1_556
Ca1 O11 2.490308 1_555
Ca1 O21 2.540385 1_555
Ce0 O18 2.134109 1_555
Ce0 O10 2.246148 1_555
Ce0 O23 2.397826 1_455
Ce0 O24 2.397826 1_555
Ce0 O25 2.872128 1_545
Ce0 O22 2.872128 1_545
Ce1 O19 2.134109 1_555
Ce1 O11 2.246148 1_555
Ce1 O22 2.397826 1_655
Ce1 O25 2.397826 1_555
Ce1 O23 2.872128 1_565
Ce1 O24 2.872128 1_565
Al0 O14 1.887597 1_555
Al0 O15 1.887597 1_455
Al0 O19 1.906852 1_455
Al0 O18 1.906852 1_555
Al0 O7 1.977131 1_455
Al0 O6 1.977131 1_555
Al1 O17 1.887597 1_555
Al1 O16 1.887597 1_555
Al1 O19 1.906852 1_555
Al1 O18 1.906852 1_555
Al1 O7 1.977131 1_555
Al1 O6 1.977131 1_555
Fe0 O12 1.957412 1_555
Fe0 O8 1.962589 1_565
Fe0 O24 2.209445 1_565
Fe0 O23 2.209445 1_465
Fe0 O4 2.382814 1_555
Fe0 O3 2.382814 1_455
Fe1 O13 1.957412 1_555
Fe1 O9 1.962589 1_545
Fe1 O22 2.209445 1_645
Fe1 O25 2.209445 1_545
Fe1 O2 2.382814 1_655
Fe1 O5 2.382814 1_555
Fe2 O9 1.920196 1_445
Fe2 O8 1.920196 1_554
Fe2 O2 2.088239 1_555
Fe2 O3 2.088239 1_444
Fe2 O20 2.098428 1_545
Fe2 O21 2.098428 1_454
Fe3 O9 1.920196 1_545
Fe3 O8 1.920196 1_554
Fe3 O5 2.088239 1_555
Fe3 O4 2.088239 1_544
Fe3 O20 2.098428 1_545
Fe3 O21 2.098428 1_554
O0 Si4 1.665788 1_555
O0 Si0 1.669008 1_556
O1 Si5 1.665788 1_555
O1 Si1 1.669008 1_554
O2 Si0 1.644817 1_555
O3 Si1 1.644817 1_555
O4 Si1 1.644817 1_555
O5 Si0 1.644817 1_555
O6 Si2 1.650004 1_555
O7 Si3 1.650004 1_555
O10 Si0 1.633745 1_555
O11 Si1 1.633745 1_555
O12 Si4 1.607017 1_555
O13 Si5 1.607017 1_555
O14 Si4 1.640814 1_555
O15 Si5 1.640814 1_555
O16 Si5 1.640814 1_555
O17 Si4 1.640814 1_555
O20 Si2 1.661682 1_555
O21 Si3 1.661682 1_555
O22 Si2 1.655663 1_555
O23 Si3 1.655663 1_555
O24 Si3 1.655663 1_555
O25 Si2 1.655663 1_555
