# generated using pymatgen
data_Zr2CoRh
_symmetry_space_group_name_H-M   'P 1'
_cell_length_a   11.38436435
_cell_length_b   11.38436435
_cell_length_c   11.38436435
_cell_angle_alpha   134.23084755
_cell_angle_beta   115.56355256
_cell_angle_gamma   82.58455223
_symmetry_Int_Tables_number   1
_chemical_formula_structural   Zr2CoRh
_chemical_formula_sum   'Zr2 Co1 Rh1'
_cell_volume   919.36334969
_cell_formula_units_Z   1
loop_
 _symmetry_equiv_pos_site_id
 _symmetry_equiv_pos_as_xyz
  1  'x, y, z'
loop_
 _atom_site_type_symbol
 _atom_site_label
 _atom_site_symmetry_multiplicity
 _atom_site_fract_x
 _atom_site_fract_y
 _atom_site_fract_z
 _atom_site_occupancy
  Zr  Zr0  1  -0.00000000  0.24024715  0.24024715  1
  Zr  Zr1  1  0.00000000  0.75975285  0.75975285  1
  Co  Co0  1  -0.00000000  -0.00000000  -0.00000000  1
  Rh  Rh0  1  -0.00000000  0.50000000  0.50000000  1
loop_
_geom_bond_atom_site_label_1
_geom_bond_atom_site_label_2
_geom_bond_distance
_geom_bond_site_symmetry_2
Co0 Zr1 2.127199 1_544
Co0 Zr0 2.127199 1_555
Rh0 Zr0 2.299907 1_555
Rh0 Zr1 2.299907 1_555
