# generated using pymatgen
data_Sr4Ca2TlCu4PbO14
_symmetry_space_group_name_H-M   'P 1'
_cell_length_a   12.82905816
_cell_length_b   12.82905816
_cell_length_c   12.82905816
_cell_angle_alpha   155.81683338
_cell_angle_beta   155.81683338
_cell_angle_gamma   34.46408979
_symmetry_Int_Tables_number   1
_chemical_formula_structural   Sr4Ca2TlCu4PbO14
_chemical_formula_sum   'Sr4 Ca2 Tl1 Cu4 Pb1 O14'
_cell_volume   353.96724789
_cell_formula_units_Z   1
loop_
 _symmetry_equiv_pos_site_id
 _symmetry_equiv_pos_as_xyz
  1  'x, y, z'
loop_
 _atom_site_type_symbol
 _atom_site_label
 _atom_site_symmetry_multiplicity
 _atom_site_fract_x
 _atom_site_fract_y
 _atom_site_fract_z
 _atom_site_occupancy
  Sr  Sr0  1  0.39240900  0.89240900  0.50000000  1
  Sr  Sr1  1  0.89240900  0.39240900  0.50000000  1
  Sr  Sr2  1  0.10759100  0.60759100  0.50000000  1
  Sr  Sr3  1  0.60759100  0.10759100  0.50000000  1
  Ca  Ca0  1  0.25000000  0.75000000  0.50000000  1
  Ca  Ca1  1  0.75000000  0.25000000  0.50000000  1
  Tl  Tl0  1  0.50000000  0.50000000  0.00000000  1
  Cu  Cu0  1  0.82226200  0.82226200  0.00000000  1
  Cu  Cu1  1  0.32043500  0.32043500  0.00000000  1
  Cu  Cu2  1  0.67956500  0.67956500  0.00000000  1
  Cu  Cu3  1  0.17773800  0.17773800  0.00000000  1
  Pb  Pb0  1  0.00000000  0.00000000  0.00000000  1
  O  O0  1  0.06530200  0.06530200  0.50064000  1
  O  O1  1  0.56466200  0.56466200  0.49936000  1
  O  O2  1  0.06530200  0.56466200  0.00000000  1
  O  O3  1  0.56466200  0.06530200  0.00000000  1
  O  O4  1  0.93469800  0.93469800  0.49936000  1
  O  O5  1  0.43533800  0.43533800  0.50064000  1
  O  O6  1  0.93469800  0.43533800  0.00000000  1
  O  O7  1  0.43533800  0.93469800  0.00000000  1
  O  O8  1  0.91288000  0.91288000  0.00000000  1
  O  O9  1  0.41506000  0.41506000  0.00000000  1
  O  O10  1  0.58494000  0.58494000  0.00000000  1
  O  O11  1  0.08712000  0.08712000  0.00000000  1
  O  O12  1  0.00000000  0.50000000  0.50000000  1
  O  O13  1  0.50000000  0.00000000  0.50000000  1
loop_
_geom_bond_atom_site_label_1
_geom_bond_atom_site_label_2
_geom_bond_distance
_geom_bond_site_symmetry_2
Ca0 O4 2.479304 1_455
Ca0 O1 2.479304 1_555
Ca0 O6 2.479304 1_455
Ca0 O2 2.479304 1_555
Ca0 O5 2.479304 1_555
Ca0 O3 2.479304 1_566
Ca0 O7 2.479304 1_556
Ca0 O0 2.479304 1_565
Ca1 O4 2.479304 1_545
Ca1 O1 2.479304 1_555
Ca1 O7 2.479304 1_545
Ca1 O5 2.479304 1_555
Ca1 O2 2.479304 1_656
Ca1 O6 2.479304 1_556
Ca1 O3 2.479304 1_555
Ca1 O0 2.479304 1_655
Cu0 O0 1.911033 1_665
Cu0 O2 1.911033 1_655
Cu0 O3 1.911033 1_565
Cu0 O1 1.911033 1_554
Cu0 O8 2.220721 1_555
Cu1 O1 1.902521 1_555
Cu1 O2 1.902521 1_555
Cu1 O3 1.902521 1_555
Cu1 O0 1.902521 1_554
Cu1 O9 2.318918 1_555
Cu2 O4 1.902521 1_555
Cu2 O6 1.902521 1_555
Cu2 O7 1.902521 1_555
Cu2 O5 1.902521 1_554
Cu2 O10 2.318918 1_555
Cu3 O5 1.911033 1_555
Cu3 O7 1.911033 1_545
Cu3 O6 1.911033 1_455
Cu3 O4 1.911033 1_444
Cu3 O11 2.220721 1_555
O0 Sr1 2.685389 1_455
O0 Sr0 2.685389 1_545
O1 Sr1 2.685389 1_555
O1 Sr0 2.685389 1_555
O2 Sr1 2.685389 1_454
O2 Sr0 2.685389 1_555
O3 Sr1 2.685389 1_555
O3 Sr0 2.685389 1_544
O4 Sr2 2.685389 1_655
O4 Sr3 2.685389 1_565
O5 Sr2 2.685389 1_555
O5 Sr3 2.685389 1_555
O6 Sr2 2.685389 1_655
O6 Sr3 2.685389 1_554
O7 Sr2 2.685389 1_554
O7 Sr3 2.685389 1_565
O8 Pb0 2.134997 1_665
O8 Sr0 2.733790 1_554
O8 Sr1 2.733790 1_554
O8 Sr1 2.733790 1_565
O8 Sr0 2.733790 1_655
O9 Tl0 2.081573 1_555
O9 Sr1 2.744097 1_555
O9 Sr0 2.744097 1_544
O9 Sr1 2.744097 1_454
O9 Sr0 2.744097 1_555
O10 Tl0 2.081573 1_555
O10 Sr3 2.744097 1_554
O10 Sr2 2.744097 1_655
O10 Sr2 2.744097 1_554
O10 Sr3 2.744097 1_565
O11 Pb0 2.134997 1_555
O11 Sr3 2.733790 1_555
O11 Sr3 2.733790 1_454
O11 Sr2 2.733790 1_544
O11 Sr2 2.733790 1_555
O12 Sr1 2.636668 1_455
O12 Sr2 2.636668 1_555
O12 Tl0 2.687366 1_556
O12 Tl0 2.687366 1_455
O12 Pb0 2.687366 1_555
O12 Pb0 2.687366 1_566
O13 Sr0 2.636668 1_545
O13 Sr3 2.636668 1_555
O13 Tl0 2.687366 1_556
O13 Tl0 2.687366 1_545
O13 Pb0 2.687366 1_555
O13 Pb0 2.687366 1_656
