# generated using pymatgen
data_Li4Co3O7
_symmetry_space_group_name_H-M   'P 1'
_cell_length_a   10.71209145
_cell_length_b   10.71209145
_cell_length_c   8.15329950
_cell_angle_alpha   78.27040681
_cell_angle_beta   78.27040681
_cell_angle_gamma   15.77857818
_symmetry_Int_Tables_number   1
_chemical_formula_structural   Li4Co3O7
_chemical_formula_sum   'Li8 Co6 O14'
_cell_volume   248.98835013
_cell_formula_units_Z   2
loop_
 _symmetry_equiv_pos_site_id
 _symmetry_equiv_pos_as_xyz
  1  'x, y, z'
loop_
 _atom_site_type_symbol
 _atom_site_label
 _atom_site_symmetry_multiplicity
 _atom_site_fract_x
 _atom_site_fract_y
 _atom_site_fract_z
 _atom_site_occupancy
  Li  Li0  1  0.50000000  0.50000000  0.50000000  1
  Li  Li1  1  0.35773800  0.35773800  0.07499300  1
  Li  Li2  1  0.21391900  0.21391900  0.64670300  1
  Li  Li3  1  0.06926100  0.06926100  0.20306600  1
  Li  Li4  1  0.93073900  0.93073900  0.79693400  1
  Li  Li5  1  0.78608100  0.78608100  0.35329700  1
  Li  Li6  1  0.64226200  0.64226200  0.92500700  1
  Li  Li7  1  0.50000000  0.50000000  0.00000000  1
  Co  Co0  1  0.06962700  0.06962700  0.72683300  1
  Co  Co1  1  0.93037300  0.93037300  0.27316700  1
  Co  Co2  1  0.78875100  0.78875100  0.86127900  1
  Co  Co3  1  0.64258900  0.64258900  0.42793400  1
  Co  Co4  1  0.35741100  0.35741100  0.57206600  1
  Co  Co5  1  0.21124900  0.21124900  0.13872100  1
  O  O0  1  0.50598700  0.50598700  0.74588300  1
  O  O1  1  0.36203100  0.36203100  0.32347900  1
  O  O2  1  0.21783800  0.21783800  0.89969900  1
  O  O3  1  0.07471300  0.07471300  0.48534600  1
  O  O4  1  0.92815500  0.92815500  0.06139400  1
  O  O5  1  0.78919100  0.78919100  0.61756900  1
  O  O6  1  0.64294900  0.64294900  0.18029700  1
  O  O7  1  0.49401300  0.49401300  0.25411700  1
  O  O8  1  0.35705100  0.35705100  0.81970300  1
  O  O9  1  0.21080900  0.21080900  0.38243100  1
  O  O10  1  0.07184500  0.07184500  0.93860600  1
  O  O11  1  0.92528700  0.92528700  0.51465400  1
  O  O12  1  0.78216200  0.78216200  0.10030100  1
  O  O13  1  0.63796900  0.63796900  0.67652100  1
loop_
_geom_bond_atom_site_label_1
_geom_bond_atom_site_label_2
_geom_bond_distance
_geom_bond_site_symmetry_2
Li0 O0 2.034637 1_555
Li0 O7 2.034637 1_555
Li0 O11 2.147617 1_545
Li0 O3 2.147617 1_655
Li0 O3 2.147617 1_565
Li0 O11 2.147617 1_455
Li1 O1 2.046622 1_555
Li1 O4 2.083085 1_455
Li1 O4 2.083085 1_545
Li1 O8 2.084497 1_554
Li1 O12 2.154272 1_545
Li1 O12 2.154272 1_455
Li2 O2 2.081413 1_555
Li2 O5 2.148063 1_455
Li2 O5 2.148063 1_545
Li2 O13 2.158226 1_545
Li2 O13 2.158226 1_455
Li2 O9 2.169196 1_555
Li3 O6 2.126627 1_545
Li3 O6 2.126627 1_455
Li3 O10 2.145639 1_554
Li3 O7 2.147626 1_455
Li3 O7 2.147626 1_545
Li3 O3 2.328015 1_555
Li4 O8 2.126627 1_565
Li4 O8 2.126627 1_655
Li4 O4 2.145639 1_556
Li4 O0 2.147626 1_565
Li4 O0 2.147626 1_655
Li4 O11 2.328015 1_555
Li5 O12 2.081413 1_555
Li5 O9 2.148063 1_655
Li5 O9 2.148063 1_565
Li5 O1 2.158226 1_655
Li5 O1 2.158226 1_565
Li5 O5 2.169196 1_555
Li6 O13 2.046622 1_555
Li6 O10 2.083085 1_655
Li6 O10 2.083085 1_565
Li6 O6 2.084497 1_556
Li6 O2 2.154272 1_565
Li6 O2 2.154272 1_655
Li7 O7 2.049592 1_555
Li7 O0 2.049592 1_554
Li7 O10 2.103271 1_654
Li7 O10 2.103271 1_564
Li7 O4 2.103271 1_455
Li7 O4 2.103271 1_545
Co0 O10 1.736920 1_555
Co0 O3 1.949628 1_555
Co0 O0 1.980868 1_545
Co0 O0 1.980868 1_455
Co0 O13 2.046793 1_455
Co0 O13 2.046793 1_545
Co1 O4 1.736920 1_555
Co1 O11 1.949628 1_555
Co1 O7 1.980868 1_565
Co1 O7 1.980868 1_655
Co1 O1 2.046793 1_655
Co1 O1 2.046793 1_565
Co2 O12 1.924991 1_556
Co2 O5 1.985145 1_555
Co2 O8 2.043512 1_655
Co2 O8 2.043512 1_565
Co2 O2 2.081143 1_655
Co2 O2 2.081143 1_565
Co3 O13 2.008975 1_555
Co3 O6 2.017505 1_555
Co3 O9 2.043273 1_655
Co3 O9 2.043273 1_565
Co3 O3 2.044274 1_655
Co3 O3 2.044274 1_565
Co4 O1 2.008975 1_555
Co4 O8 2.017505 1_555
Co4 O5 2.043273 1_545
Co4 O5 2.043273 1_455
Co4 O11 2.044274 1_455
Co4 O11 2.044274 1_545
Co5 O2 1.924991 1_554
Co5 O9 1.985145 1_555
Co5 O6 2.043512 1_545
Co5 O6 2.043512 1_455
Co5 O12 2.081143 1_455
Co5 O12 2.081143 1_545
