# generated using pymatgen
data_Cs2TlBiCl6
_symmetry_space_group_name_H-M   'P 1'
_cell_length_a   8.18976307
_cell_length_b   8.18976307
_cell_length_c   8.18976307
_cell_angle_alpha   60.00000000
_cell_angle_beta   60.00000000
_cell_angle_gamma   60.00000000
_symmetry_Int_Tables_number   1
_chemical_formula_structural   Cs2TlBiCl6
_chemical_formula_sum   'Cs2 Tl1 Bi1 Cl6'
_cell_volume   388.41770231
_cell_formula_units_Z   1
loop_
 _symmetry_equiv_pos_site_id
 _symmetry_equiv_pos_as_xyz
  1  'x, y, z'
loop_
 _atom_site_type_symbol
 _atom_site_label
 _atom_site_symmetry_multiplicity
 _atom_site_fract_x
 _atom_site_fract_y
 _atom_site_fract_z
 _atom_site_occupancy
  Cs  Cs0  1  0.75000000  0.75000000  0.75000000  1
  Cs  Cs1  1  0.25000000  0.25000000  0.25000000  1
  Tl  Tl0  1  0.50000000  0.50000000  0.50000000  1
  Bi  Bi0  1  0.00000000  0.00000000  0.00000000  1
  Cl  Cl0  1  0.76487800  0.23512200  0.23512200  1
  Cl  Cl1  1  0.23512200  0.23512200  0.76487800  1
  Cl  Cl2  1  0.23512200  0.76487800  0.76487800  1
  Cl  Cl3  1  0.23512200  0.76487800  0.23512200  1
  Cl  Cl4  1  0.76487800  0.23512200  0.76487800  1
  Cl  Cl5  1  0.76487800  0.76487800  0.23512200  1
loop_
_geom_bond_atom_site_label_1
_geom_bond_atom_site_label_2
_geom_bond_distance
_geom_bond_site_symmetry_2
Bi0 Cl1 2.723200 1_554
Bi0 Cl0 2.723200 1_455
Bi0 Cl3 2.723200 1_545
Bi0 Cl5 2.723200 1_445
Bi0 Cl2 2.723200 1_544
Bi0 Cl4 2.723200 1_454
Cl0 Tl0 3.067837 1_555
Cl0 Cs0 4.098506 1_545
Cl0 Cs1 4.098506 1_555
Cl0 Cs0 4.098506 1_554
Cl0 Cs1 4.098506 1_655
Cl1 Tl0 3.067837 1_555
Cl1 Cs0 4.098506 1_545
Cl1 Cs1 4.098506 1_555
Cl1 Cs0 4.098506 1_455
Cl1 Cs1 4.098506 1_556
Cl2 Tl0 3.067837 1_555
Cl2 Cs1 4.098506 1_556
Cl2 Cs1 4.098506 1_565
Cl2 Cs0 4.098506 1_455
Cl2 Cs0 4.098506 1_555
Cl3 Tl0 3.067837 1_555
Cl3 Cs1 4.098506 1_555
Cl3 Cs0 4.098506 1_554
Cl3 Cs0 4.098506 1_455
Cl3 Cs1 4.098506 1_565
Cl4 Tl0 3.067837 1_555
Cl4 Cs1 4.098506 1_655
Cl4 Cs1 4.098506 1_556
Cl4 Cs0 4.098506 1_555
Cl4 Cs0 4.098506 1_545
Cl5 Tl0 3.067837 1_555
Cl5 Cs1 4.098506 1_655
Cl5 Cs0 4.098506 1_555
Cl5 Cs1 4.098506 1_565
Cl5 Cs0 4.098506 1_554
