# generated using pymatgen
data_Rb4(ZnAs)7
_symmetry_space_group_name_H-M   'P 1'
_cell_length_a   4.54723300
_cell_length_b   12.57710648
_cell_length_c   17.33116700
_cell_angle_alpha   90.00000000
_cell_angle_beta   90.00000000
_cell_angle_gamma   100.41485633
_symmetry_Int_Tables_number   1
_chemical_formula_structural   Rb4(ZnAs)7
_chemical_formula_sum   'Rb8 Zn14 As14'
_cell_volume   974.85717656
_cell_formula_units_Z   2
loop_
 _symmetry_equiv_pos_site_id
 _symmetry_equiv_pos_as_xyz
  1  'x, y, z'
loop_
 _atom_site_type_symbol
 _atom_site_label
 _atom_site_symmetry_multiplicity
 _atom_site_fract_x
 _atom_site_fract_y
 _atom_site_fract_z
 _atom_site_occupancy
  Rb  Rb0  1  0.14001900  0.28003800  0.88762600  1
  Rb  Rb1  1  0.85998100  0.71996200  0.11237400  1
  Rb  Rb2  1  0.14001900  0.28003800  0.61237400  1
  Rb  Rb3  1  0.85998100  0.71996200  0.38762600  1
  Rb  Rb4  1  0.71298100  0.42596200  0.25000000  1
  Rb  Rb5  1  0.28701900  0.57403800  0.75000000  1
  Rb  Rb6  1  0.00000000  0.00000000  0.50000000  1
  Rb  Rb7  1  0.00000000  0.00000000  0.00000000  1
  Zn  Zn0  1  0.14838400  0.29676700  0.39058500  1
  Zn  Zn1  1  0.85161600  0.70323300  0.60941500  1
  Zn  Zn2  1  0.14838400  0.29676700  0.10941500  1
  Zn  Zn3  1  0.85161600  0.70323300  0.89058500  1
  Zn  Zn4  1  0.28411900  0.56823800  0.96902300  1
  Zn  Zn5  1  0.71588100  0.43176200  0.03097700  1
  Zn  Zn6  1  0.28411900  0.56823800  0.53097700  1
  Zn  Zn7  1  0.71588100  0.43176200  0.46902300  1
  Zn  Zn8  1  0.57422600  0.14845200  0.32927300  1
  Zn  Zn9  1  0.42577400  0.85154800  0.67072700  1
  Zn  Zn10  1  0.57422600  0.14845200  0.17072700  1
  Zn  Zn11  1  0.42577400  0.85154800  0.82927300  1
  Zn  Zn12  1  0.00250100  0.00500300  0.25000000  1
  Zn  Zn13  1  0.99749900  0.99499700  0.75000000  1
  As  As0  1  0.47181000  0.94362100  0.31970600  1
  As  As1  1  0.52819000  0.05637900  0.68029400  1
  As  As2  1  0.47181000  0.94362100  0.18029400  1
  As  As3  1  0.52819000  0.05637900  0.81970600  1
  As  As4  1  0.24947800  0.49895700  0.39519000  1
  As  As5  1  0.75052200  0.50104300  0.60481000  1
  As  As6  1  0.24947800  0.49895700  0.10481000  1
  As  As7  1  0.75052200  0.50104300  0.89519000  1
  As  As8  1  0.61447000  0.22894000  0.45886900  1
  As  As9  1  0.38553000  0.77106000  0.54113100  1
  As  As10  1  0.61447000  0.22894000  0.04113100  1
  As  As11  1  0.38553000  0.77106000  0.95886900  1
  As  As12  1  0.10549300  0.21098700  0.25000000  1
  As  As13  1  0.89450700  0.78901300  0.75000000  1
loop_
_geom_bond_atom_site_label_1
_geom_bond_atom_site_label_2
_geom_bond_distance
_geom_bond_site_symmetry_2
As0 As2 2.416173 1_555
As0 Zn8 2.539157 1_565
As0 Zn12 2.684273 1_565
As0 Zn12 2.684274 1_665
As0 Rb3 3.769516 1_455
As0 Rb3 3.769519 1_555
As0 Rb6 3.926764 1_565
As0 Rb6 3.926767 1_665
As1 As3 2.416173 1_555
As1 Zn9 2.539157 1_545
As1 Zn13 2.684273 1_545
As1 Zn13 2.684274 1_445
As1 Rb2 3.769516 1_655
As1 Rb2 3.769519 1_555
As1 Rb6 3.926764 1_655
As1 Rb6 3.926767 1_555
As2 Zn10 2.539157 1_565
As2 Zn12 2.684273 1_565
As2 Zn12 2.684274 1_665
As2 Rb1 3.769516 1_455
As2 Rb1 3.769519 1_555
As2 Rb7 3.926764 1_565
As2 Rb7 3.926767 1_665
As3 Zn11 2.539157 1_545
As3 Zn13 2.684273 1_545
As3 Zn13 2.684274 1_445
As3 Rb0 3.769516 1_655
As3 Rb0 3.769519 1_555
As3 Rb7 3.926764 1_656
As3 Rb7 3.926767 1_556
As4 Zn0 2.502342 1_555
As4 Zn6 2.504534 1_555
As4 Zn7 2.738177 1_455
As4 Zn7 2.738181 1_555
As4 Rb4 3.509480 1_455
As4 Rb4 3.509483 1_555
As4 Rb3 3.558120 1_455
As4 Rb3 3.558123 1_555
As5 Zn1 2.502342 1_555
As5 Zn7 2.504534 1_555
As5 Zn6 2.738177 1_655
As5 Zn6 2.738181 1_555
As5 Rb5 3.509480 1_655
As5 Rb5 3.509483 1_555
As5 Rb2 3.558120 1_655
As5 Rb2 3.558123 1_555
As6 Zn2 2.502342 1_555
As6 Zn4 2.504534 1_554
As6 Zn5 2.738177 1_455
As6 Zn5 2.738181 1_555
As6 Rb4 3.509480 1_455
As6 Rb4 3.509483 1_555
As6 Rb1 3.558120 1_455
As6 Rb1 3.558123 1_555
As7 Zn3 2.502342 1_555
As7 Zn5 2.504534 1_556
As7 Zn4 2.738177 1_655
As7 Zn4 2.738181 1_555
As7 Rb5 3.509480 1_655
As7 Rb5 3.509483 1_555
As7 Rb0 3.558120 1_655
As7 Rb0 3.558123 1_555
As8 Zn8 2.456830 1_555
As8 Zn7 2.515051 1_555
As8 Zn0 2.696998 1_555
As8 Zn0 2.697002 1_655
As8 Rb2 3.556219 1_555
As8 Rb2 3.556219 1_655
As8 Rb6 3.701014 1_655
As8 Rb6 3.701014 1_555
As9 Zn9 2.456830 1_555
As9 Zn6 2.515051 1_555
As9 Zn1 2.696998 1_555
As9 Zn1 2.697002 1_455
As9 Rb3 3.556219 1_555
As9 Rb3 3.556219 1_455
As9 Rb6 3.701014 1_565
As9 Rb6 3.701014 1_665
As10 Zn10 2.456830 1_555
As10 Zn5 2.515051 1_555
As10 Zn2 2.696998 1_555
As10 Zn2 2.697002 1_655
As10 Rb0 3.556219 1_554
As10 Rb0 3.556219 1_654
As10 Rb7 3.701014 1_655
As10 Rb7 3.701014 1_555
As11 Zn11 2.456830 1_555
As11 Zn4 2.515051 1_555
As11 Zn3 2.696998 1_555
As11 Zn3 2.697002 1_455
As11 Rb1 3.556219 1_556
As11 Rb1 3.556219 1_456
As11 Rb7 3.701014 1_566
As11 Rb7 3.701014 1_666
As12 Zn12 2.548000 1_555
As12 Zn0 2.657528 1_555
As12 Zn2 2.657528 1_555
As12 Zn8 2.766819 1_455
As12 Zn10 2.766819 1_455
As12 Zn8 2.766823 1_555
As12 Zn10 2.766823 1_555
As12 Rb4 3.498680 1_455
As12 Rb4 3.498683 1_555
As13 Zn13 2.548000 1_555
As13 Zn1 2.657528 1_555
As13 Zn3 2.657528 1_555
As13 Zn11 2.766819 1_655
As13 Zn9 2.766819 1_655
As13 Zn9 2.766823 1_555
As13 Zn11 2.766823 1_555
As13 Rb5 3.498680 1_655
As13 Rb5 3.498683 1_555
