# generated using pymatgen
data_BaInF5
_symmetry_space_group_name_H-M   'P 1'
_cell_length_a   7.71506906
_cell_length_b   7.60899170
_cell_length_c   15.64893954
_cell_angle_alpha   84.44044390
_cell_angle_beta   90.00000000
_cell_angle_gamma   90.00000000
_symmetry_Int_Tables_number   1
_chemical_formula_structural   BaInF5
_chemical_formula_sum   'Ba8 In8 F40'
_cell_volume   914.33241083
_cell_formula_units_Z   8
loop_
 _symmetry_equiv_pos_site_id
 _symmetry_equiv_pos_as_xyz
  1  'x, y, z'
loop_
 _atom_site_type_symbol
 _atom_site_label
 _atom_site_symmetry_multiplicity
 _atom_site_fract_x
 _atom_site_fract_y
 _atom_site_fract_z
 _atom_site_occupancy
  Ba  Ba0  1  0.35188520  0.00263685  0.13713715  1
  Ba  Ba1  1  0.64811480  0.99736315  0.86286285  1
  Ba  Ba2  1  0.85188520  0.99736315  0.36286285  1
  Ba  Ba3  1  0.14811480  0.00263685  0.63713715  1
  Ba  Ba4  1  0.84461010  0.30178208  0.08681841  1
  Ba  Ba5  1  0.15538990  0.69821792  0.91318159  1
  Ba  Ba6  1  0.34461010  0.69821792  0.41318159  1
  Ba  Ba7  1  0.65538990  0.30178208  0.58681841  1
  In  In0  1  0.87905422  0.50538849  0.33756329  1
  In  In1  1  0.12094578  0.49461151  0.66243671  1
  In  In2  1  0.37905422  0.49461151  0.16243671  1
  In  In3  1  0.62094578  0.50538849  0.83756329  1
  In  In4  1  0.81881184  0.80670546  0.12472554  1
  In  In5  1  0.18118816  0.19329454  0.87527446  1
  In  In6  1  0.31881184  0.19329454  0.37527446  1
  In  In7  1  0.68118816  0.80670546  0.62472554  1
  F  F0  1  0.29871979  0.68873828  0.06963213  1
  F  F1  1  0.70128021  0.31126172  0.93036787  1
  F  F2  1  0.79871979  0.31126172  0.43036787  1
  F  F3  1  0.20128021  0.68873828  0.56963213  1
  F  F4  1  0.91695689  0.64412975  0.03915197  1
  F  F5  1  0.08304311  0.35587025  0.96084803  1
  F  F6  1  0.41695689  0.35587025  0.46084803  1
  F  F7  1  0.58304311  0.64412975  0.53915197  1
  F  F8  1  0.48379800  0.99144287  0.60440717  1
  F  F9  1  0.51620200  0.00855713  0.39559283  1
  F  F10  1  0.98379800  0.00855713  0.89559283  1
  F  F11  1  0.01620200  0.99144287  0.10440717  1
  F  F12  1  0.69961677  0.97470745  0.20518044  1
  F  F13  1  0.30038323  0.02529255  0.79481956  1
  F  F14  1  0.19961677  0.02529255  0.29481956  1
  F  F15  1  0.80038323  0.97470745  0.70518044  1
  F  F16  1  0.95494555  0.68240242  0.22989651  1
  F  F17  1  0.04505445  0.31759758  0.77010349  1
  F  F18  1  0.45494555  0.31759758  0.27010349  1
  F  F19  1  0.54505445  0.68240242  0.72989651  1
  F  F20  1  0.67059316  0.96222634  0.03612579  1
  F  F21  1  0.32940684  0.03777366  0.96387421  1
  F  F22  1  0.17059316  0.03777366  0.46387421  1
  F  F23  1  0.82940684  0.96222634  0.53612579  1
  F  F24  1  0.66946555  0.66992878  0.34735099  1
  F  F25  1  0.33053445  0.33007122  0.65264901  1
  F  F26  1  0.16946555  0.33007122  0.15264901  1
  F  F27  1  0.83053445  0.66992878  0.84735099  1
  F  F28  1  0.83922599  0.31047263  0.25703672  1
  F  F29  1  0.16077401  0.68952737  0.74296328  1
  F  F30  1  0.33922599  0.68952737  0.24296328  1
  F  F31  1  0.66077401  0.31047263  0.75703672  1
  F  F32  1  0.50028002  0.31140739  0.09211756  1
  F  F33  1  0.49971998  0.68859261  0.90788244  1
  F  F34  1  0.00028002  0.68859261  0.40788244  1
  F  F35  1  0.99971998  0.31140739  0.59211756  1
  F  F36  1  0.63786261  0.60112334  0.15040910  1
  F  F37  1  0.36213739  0.39887666  0.84959090  1
  F  F38  1  0.13786261  0.39887666  0.34959090  1
  F  F39  1  0.86213739  0.60112334  0.65040910  1
loop_
_geom_bond_atom_site_label_1
_geom_bond_atom_site_label_2
_geom_bond_distance
_geom_bond_site_symmetry_2
Ba0 F11 2.642955 1_545
Ba0 F32 2.646922 1_555
Ba0 F21 2.704198 1_554
Ba0 F0 2.734551 1_545
Ba0 F14 2.753374 1_555
Ba0 F30 2.768333 1_545
Ba0 F12 2.886589 1_545
Ba0 F26 2.892080 1_555
Ba0 F20 2.955226 1_545
Ba1 F10 2.642955 1_565
Ba1 F33 2.646922 1_555
Ba1 F20 2.704198 1_556
Ba1 F1 2.734551 1_565
Ba1 F15 2.753374 1_555
Ba1 F31 2.768333 1_565
Ba1 F13 2.886589 1_565
Ba1 F27 2.892080 1_555
Ba1 F21 2.955226 1_565
Ba2 F9 2.642955 1_565
Ba2 F34 2.646922 1_655
Ba2 F23 2.704198 1_555
Ba2 F2 2.734551 1_565
Ba2 F12 2.753374 1_555
Ba2 F28 2.768333 1_565
Ba2 F14 2.886589 1_665
Ba2 F24 2.892080 1_555
Ba2 F22 2.955226 1_665
Ba3 F8 2.642955 1_545
Ba3 F35 2.646922 1_455
Ba3 F22 2.704198 1_555
Ba3 F3 2.734551 1_545
Ba3 F13 2.753374 1_555
Ba3 F29 2.768333 1_545
Ba3 F15 2.886589 1_445
Ba3 F25 2.892080 1_555
Ba3 F23 2.955226 1_445
Ba4 F32 2.659055 1_555
Ba4 F28 2.671276 1_555
Ba4 F1 2.681022 1_554
Ba4 F4 2.697605 1_555
Ba4 F11 2.697860 1_645
Ba4 F5 2.698532 1_654
Ba4 F26 2.726173 1_655
Ba4 F36 3.026806 1_555
Ba4 F20 3.082899 1_545
Ba4 F12 3.159530 1_545
Ba5 F33 2.659055 1_555
Ba5 F29 2.671276 1_555
Ba5 F0 2.681022 1_556
Ba5 F5 2.697605 1_555
Ba5 F10 2.697860 1_465
Ba5 F4 2.698532 1_456
Ba5 F27 2.726173 1_455
Ba5 F37 3.026806 1_555
Ba5 F21 3.082899 1_565
Ba5 F13 3.159530 1_565
Ba6 F34 2.659055 1_555
Ba6 F30 2.671276 1_555
Ba6 F3 2.681022 1_555
Ba6 F6 2.697605 1_555
Ba6 F9 2.697860 1_565
Ba6 F7 2.698532 1_555
Ba6 F24 2.726173 1_555
Ba6 F38 3.026806 1_555
Ba6 F22 3.082899 1_565
Ba6 F14 3.159530 1_565
Ba7 F35 2.659055 1_555
Ba7 F31 2.671276 1_555
Ba7 F2 2.681022 1_555
Ba7 F7 2.697605 1_555
Ba7 F8 2.697860 1_545
Ba7 F6 2.698532 1_555
Ba7 F25 2.726173 1_555
Ba7 F39 3.026806 1_555
Ba7 F23 3.082899 1_545
Ba7 F15 3.159530 1_545
F0 In2 2.063852 1_555
F1 In3 2.063852 1_555
F2 In0 2.063852 1_555
F3 In1 2.063852 1_555
F4 In4 2.053745 1_555
F5 In5 2.053745 1_555
F6 In6 2.053745 1_555
F7 In7 2.053745 1_555
F8 In7 2.075946 1_555
F9 In6 2.075946 1_555
F10 In5 2.075946 1_655
F11 In4 2.075946 1_455
F12 In4 2.092079 1_555
F13 In5 2.092079 1_555
F14 In6 2.092079 1_555
F15 In7 2.092079 1_555
F16 In4 2.098751 1_555
F16 In0 2.134486 1_555
F17 In5 2.098751 1_555
F17 In1 2.134486 1_555
F18 In6 2.098751 1_555
F18 In2 2.134486 1_555
F19 In7 2.098751 1_555
F19 In3 2.134486 1_555
F20 In4 2.076637 1_555
F21 In5 2.076637 1_555
F22 In6 2.076637 1_555
F23 In7 2.076637 1_555
F24 In0 2.059792 1_555
F25 In1 2.059792 1_555
F26 In2 2.059792 1_555
F27 In3 2.059792 1_555
F28 In0 2.060137 1_555
F29 In1 2.060137 1_555
F30 In2 2.060137 1_555
F31 In3 2.060137 1_555
F32 In2 2.079929 1_555
F33 In3 2.079929 1_555
F34 In0 2.079929 1_455
F35 In1 2.079929 1_655
F36 In4 2.106083 1_555
F36 In2 2.156294 1_555
F37 In5 2.106083 1_555
F37 In3 2.156294 1_555
F38 In6 2.106083 1_555
F38 In0 2.156294 1_455
F39 In7 2.106083 1_555
F39 In1 2.156294 1_655
