# generated using pymatgen
data_Gd2Mn17C3
_symmetry_space_group_name_H-M   'P 1'
_cell_length_a   6.48211835
_cell_length_b   6.48211835
_cell_length_c   6.48211847
_cell_angle_alpha   83.14902693
_cell_angle_beta   83.14902693
_cell_angle_gamma   83.14903494
_symmetry_Int_Tables_number   1
_chemical_formula_structural   Gd2Mn17C3
_chemical_formula_sum   'Gd2 Mn17 C3'
_cell_volume   266.96001972
_cell_formula_units_Z   1
loop_
 _symmetry_equiv_pos_site_id
 _symmetry_equiv_pos_as_xyz
  1  'x, y, z'
loop_
 _atom_site_type_symbol
 _atom_site_label
 _atom_site_symmetry_multiplicity
 _atom_site_fract_x
 _atom_site_fract_y
 _atom_site_fract_z
 _atom_site_occupancy
  Gd  Gd0  1  0.65016300  0.65016300  0.65016300  1
  Gd  Gd1  1  0.34983700  0.34983700  0.34983700  1
  Mn  Mn0  1  0.00000000  0.00000000  0.50000000  1
  Mn  Mn1  1  0.00000000  0.50000000  0.00000000  1
  Mn  Mn2  1  0.50000000  0.00000000  0.00000000  1
  Mn  Mn3  1  0.27895500  0.72104500  0.00000000  1
  Mn  Mn4  1  0.72104500  0.00000000  0.27895500  1
  Mn  Mn5  1  0.00000000  0.27895500  0.72104500  1
  Mn  Mn6  1  0.27895500  0.00000000  0.72104500  1
  Mn  Mn7  1  0.00000000  0.72104500  0.27895500  1
  Mn  Mn8  1  0.72104500  0.27895500  0.00000000  1
  Mn  Mn9  1  0.33843700  0.33843700  0.86722300  1
  Mn  Mn10  1  0.33843700  0.86722300  0.33843700  1
  Mn  Mn11  1  0.86722300  0.33843700  0.33843700  1
  Mn  Mn12  1  0.66156300  0.66156300  0.13277700  1
  Mn  Mn13  1  0.66156300  0.13277700  0.66156300  1
  Mn  Mn14  1  0.13277700  0.66156300  0.66156300  1
  Mn  Mn15  1  0.90638400  0.90638400  0.90638400  1
  Mn  Mn16  1  0.09361600  0.09361600  0.09361600  1
  C  C0  1  0.50000000  0.50000000  0.00000000  1
  C  C1  1  0.50000000  0.00000000  0.50000000  1
  C  C2  1  0.00000000  0.50000000  0.50000000  1
loop_
_geom_bond_atom_site_label_1
_geom_bond_atom_site_label_2
_geom_bond_distance
_geom_bond_site_symmetry_2
Gd0 Mn15 3.201499 1_555
Gd0 Mn0 3.377259 1_665
Gd0 Mn2 3.377259 1_566
Gd0 Mn1 3.377259 1_656
Gd1 Mn16 3.201499 1_555
Gd1 Mn0 3.377259 1_555
Gd1 Mn2 3.377259 1_555
Gd1 Mn1 3.377259 1_555
Mn0 Mn10 2.422128 1_545
Mn0 Mn14 2.422128 1_545
Mn0 Mn13 2.422128 1_455
Mn0 Mn11 2.422128 1_455
Mn0 Mn7 2.437377 1_545
Mn0 Mn4 2.437377 1_455
Mn0 Mn6 2.437377 1_555
Mn0 Mn5 2.437377 1_555
Mn0 Mn16 2.645896 1_555
Mn0 Mn15 2.645896 1_445
Mn1 Mn11 2.422128 1_455
Mn1 Mn14 2.422128 1_554
Mn1 Mn9 2.422128 1_554
Mn1 Mn12 2.422128 1_455
Mn1 Mn8 2.437377 1_455
Mn1 Mn3 2.437377 1_555
Mn1 Mn5 2.437377 1_554
Mn1 Mn7 2.437377 1_555
Mn1 Mn16 2.645896 1_555
Mn1 Mn15 2.645896 1_454
Mn2 Mn9 2.422128 1_554
Mn2 Mn3 2.437377 1_545
Mn2 Mn8 2.437377 1_555
Mn2 Mn6 2.437377 1_554
Mn2 Mn4 2.437377 1_555
Mn10 Mn2 2.422128 1_565
Mn10 Mn16 2.584583 1_565
Mn11 Mn16 2.584583 1_655
Mn12 Mn2 2.422128 1_565
Mn12 Mn15 2.584582 1_554
Mn13 Mn2 2.422128 1_556
Mn13 Mn15 2.584583 1_545
Mn14 Mn15 2.584583 1_455
Mn15 Mn16 2.339477 1_666
Mn15 Mn2 2.645896 1_566
Mn15 Mn6 2.669746 1_665
Mn15 Mn5 2.669746 1_665
Mn15 Mn7 2.669746 1_656
Mn15 Mn4 2.669746 1_566
Mn15 Mn8 2.669746 1_566
Mn15 Mn3 2.669746 1_656
Mn16 Mn9 2.584582 1_554
Mn16 Mn2 2.645896 1_555
Mn16 Mn4 2.669746 1_455
Mn16 Mn7 2.669746 1_545
Mn16 Mn5 2.669746 1_554
Mn16 Mn6 2.669746 1_554
Mn16 Mn3 2.669746 1_545
Mn16 Mn8 2.669746 1_455
C0 Mn3 1.901647 1_555
C0 Mn8 1.901647 1_555
C0 Mn12 1.904222 1_555
C0 Mn9 1.904222 1_554
C0 Gd1 2.492014 1_555
C0 Gd0 2.492014 1_554
C1 Mn4 1.901646 1_555
C1 Mn6 1.901646 1_555
C1 Mn10 1.904222 1_545
C1 Mn13 1.904222 1_555
C1 Gd0 2.492014 1_545
C1 Gd1 2.492014 1_555
C2 Mn7 1.901646 1_555
C2 Mn5 1.901646 1_555
C2 Mn11 1.904222 1_455
C2 Mn14 1.904222 1_555
C2 Gd1 2.492014 1_555
C2 Gd0 2.492014 1_455
