# generated using pymatgen
data_Li2CrO2
_symmetry_space_group_name_H-M   'P 1'
_cell_length_a   2.96326838
_cell_length_b   5.48970077
_cell_length_c   12.58565214
_cell_angle_alpha   78.26534920
_cell_angle_beta   89.99964837
_cell_angle_gamma   90.00118262
_symmetry_Int_Tables_number   1
_chemical_formula_structural   Li2CrO2
_chemical_formula_sum   'Li8 Cr4 O8'
_cell_volume   200.45755571
_cell_formula_units_Z   4
loop_
 _symmetry_equiv_pos_site_id
 _symmetry_equiv_pos_as_xyz
  1  'x, y, z'
loop_
 _atom_site_type_symbol
 _atom_site_label
 _atom_site_symmetry_multiplicity
 _atom_site_fract_x
 _atom_site_fract_y
 _atom_site_fract_z
 _atom_site_occupancy
  Li  Li0  1  0.99996700  0.63025000  0.16410500  1
  Li  Li1  1  0.49997600  0.63266000  0.41338600  1
  Li  Li2  1  0.99997600  0.63035200  0.66405900  1
  Li  Li3  1  0.49997500  0.63266200  0.91339700  1
  Li  Li4  1  0.99998200  0.36734900  0.33661200  1
  Li  Li5  1  0.49997600  0.36974600  0.58589600  1
  Li  Li6  1  0.99998200  0.36733600  0.83660500  1
  Li  Li7  1  0.49997100  0.36965600  0.08593800  1
  Cr  Cr0  1  0.50018600  0.99956400  0.74704100  1
  Cr  Cr1  1  0.00013900  0.00042900  0.00296900  1
  Cr  Cr2  1  0.50008900  0.99956800  0.24711200  1
  Cr  Cr3  1  0.00007900  0.00042900  0.50287800  1
  O  O0  1  0.99993000  0.25971900  0.19385600  1
  O  O1  1  0.49995500  0.25753000  0.44420800  1
  O  O2  1  0.99998100  0.25976900  0.69383800  1
  O  O3  1  0.49996200  0.25745600  0.94421600  1
  O  O4  1  0.99996800  0.74248000  0.30578700  1
  O  O5  1  0.49994300  0.74028900  0.55614000  1
  O  O6  1  0.00001700  0.74253500  0.80578900  1
  O  O7  1  0.49994800  0.74022700  0.05616500  1
loop_
_geom_bond_atom_site_label_1
_geom_bond_atom_site_label_2
_geom_bond_distance
_geom_bond_site_symmetry_2
Li0 O0 1.991978 1_555
Li0 O4 2.001531 1_555
Li0 O7 2.017773 1_655
Li0 O7 2.017886 1_555
Li1 O5 2.002214 1_555
Li1 O4 2.015032 1_555
Li1 O4 2.015097 1_455
Li1 O1 2.016548 1_555
Li2 O2 1.992252 1_555
Li2 O6 2.001981 1_655
Li2 O5 2.017545 1_655
Li2 O5 2.017719 1_555
Li3 O7 2.002215 1_556
Li3 O6 2.015105 1_555
Li3 O6 2.015257 1_655
Li3 O3 2.016958 1_555
Li4 O0 2.002241 1_555
Li4 O1 2.014997 1_655
Li4 O1 2.015084 1_555
Li4 O4 2.016553 1_555
Li5 O5 1.992042 1_555
Li5 O1 2.001565 1_555
Li5 O2 2.017819 1_455
Li5 O2 2.017871 1_555
Li6 O2 2.002208 1_555
Li6 O3 2.015182 1_655
Li6 O3 2.015238 1_555
Li6 O6 2.016921 1_655
Li7 O7 1.992189 1_555
Li7 O3 2.001930 1_554
Li7 O0 2.017551 1_555
Li7 O0 2.017699 1_455
Cr0 O2 2.071980 1_565
Cr0 O2 2.072897 1_465
Cr0 O6 2.075364 1_655
Cr0 O6 2.076031 1_555
Cr1 O7 2.072032 1_545
Cr1 O7 2.072793 1_445
Cr1 O3 2.075306 1_554
Cr1 O3 2.076103 1_454
Cr2 O0 2.072015 1_565
Cr2 O0 2.072737 1_465
Cr2 O4 2.075462 1_555
Cr2 O4 2.075926 1_455
Cr3 O5 2.072088 1_545
Cr3 O5 2.072616 1_445
Cr3 O1 2.075437 1_555
Cr3 O1 2.076010 1_455
