# generated using pymatgen
data_Ta3Co5B2
_symmetry_space_group_name_H-M   'P 1'
_cell_length_a   8.39775400
_cell_length_b   8.39775400
_cell_length_c   3.24807500
_cell_angle_alpha   90.00000000
_cell_angle_beta   90.00000000
_cell_angle_gamma   90.00000000
_symmetry_Int_Tables_number   1
_chemical_formula_structural   Ta3Co5B2
_chemical_formula_sum   'Ta6 Co10 B4'
_cell_volume   229.06162942
_cell_formula_units_Z   2
loop_
 _symmetry_equiv_pos_site_id
 _symmetry_equiv_pos_as_xyz
  1  'x, y, z'
loop_
 _atom_site_type_symbol
 _atom_site_label
 _atom_site_symmetry_multiplicity
 _atom_site_fract_x
 _atom_site_fract_y
 _atom_site_fract_z
 _atom_site_occupancy
  Ta  Ta0  1  0.50000000  0.50000000  0.00000000  1
  Ta  Ta1  1  0.00000000  0.00000000  0.00000000  1
  Ta  Ta2  1  0.82488100  0.32488100  0.00000000  1
  Ta  Ta3  1  0.17511900  0.67511900  0.00000000  1
  Ta  Ta4  1  0.32488100  0.17511900  0.00000000  1
  Ta  Ta5  1  0.67511900  0.82488100  0.00000000  1
  Co  Co0  1  0.50000000  0.00000000  0.50000000  1
  Co  Co1  1  0.00000000  0.50000000  0.50000000  1
  Co  Co2  1  0.72038900  0.56959000  0.50000000  1
  Co  Co3  1  0.27961100  0.43041000  0.50000000  1
  Co  Co4  1  0.22038900  0.93041000  0.50000000  1
  Co  Co5  1  0.77961100  0.06959000  0.50000000  1
  Co  Co6  1  0.43041000  0.72038900  0.50000000  1
  Co  Co7  1  0.56959000  0.27961100  0.50000000  1
  Co  Co8  1  0.06959000  0.22038900  0.50000000  1
  Co  Co9  1  0.93041000  0.77961100  0.50000000  1
  B  B0  1  0.61811800  0.11811800  0.00000000  1
  B  B1  1  0.38188200  0.88188200  0.00000000  1
  B  B2  1  0.11811800  0.38188200  0.00000000  1
  B  B3  1  0.88188200  0.61811800  0.00000000  1
loop_
_geom_bond_atom_site_label_1
_geom_bond_atom_site_label_2
_geom_bond_distance
_geom_bond_site_symmetry_2
Co0 Co7 2.419735 1_555
Co0 Co4 2.419735 1_545
Co0 Co5 2.419735 1_555
Co0 Co6 2.419735 1_545
Co0 Ta4 2.638724 1_555
Co0 Ta4 2.638724 1_556
Co0 Ta5 2.638724 1_546
Co0 Ta5 2.638724 1_545
Co1 Co3 2.419735 1_555
Co1 Co8 2.419735 1_555
Co1 Co2 2.419735 1_455
Co1 Co9 2.419735 1_455
Co1 Ta3 2.638724 1_555
Co1 Ta3 2.638724 1_556
Co1 Ta2 2.638724 1_456
Co1 Ta2 2.638724 1_455
Co2 Co9 2.494255 1_555
Co2 Ta0 2.530688 1_556
Co2 Ta0 2.530688 1_555
Co2 Ta5 2.716286 1_555
Co2 Ta5 2.716286 1_556
Co2 Co6 2.744770 1_555
Co2 Co7 2.744770 1_555
Co2 Ta2 2.762345 1_555
Co2 Ta2 2.762345 1_556
Co3 Co8 2.494255 1_555
Co3 Ta0 2.530688 1_556
Co3 Ta0 2.530688 1_555
Co3 Ta4 2.716286 1_555
Co3 Ta4 2.716286 1_556
Co3 Co6 2.744770 1_555
Co3 Co7 2.744770 1_555
Co3 Ta3 2.762345 1_555
Co3 Ta3 2.762345 1_556
Co4 Co6 2.494255 1_555
Co4 Ta1 2.530688 1_566
Co4 Ta1 2.530688 1_565
Co4 Ta3 2.716286 1_555
Co4 Ta3 2.716286 1_556
Co4 Co9 2.744770 1_455
Co4 Co8 2.744770 1_565
Co4 Ta4 2.762345 1_566
Co4 Ta4 2.762345 1_565
Co5 Co7 2.494255 1_555
Co5 Ta1 2.530688 1_656
Co5 Ta1 2.530688 1_655
Co5 Ta2 2.716286 1_556
Co5 Ta2 2.716286 1_555
Co5 Co9 2.744770 1_545
Co5 Co8 2.744770 1_655
Co5 Ta5 2.762345 1_545
Co5 Ta5 2.762345 1_546
Co6 Ta0 2.530688 1_556
Co6 Ta0 2.530688 1_555
Co6 Ta3 2.716286 1_555
Co6 Ta3 2.716286 1_556
Co6 Ta5 2.762345 1_555
Co6 Ta5 2.762345 1_556
Co7 Ta0 2.530688 1_556
Co7 Ta0 2.530688 1_555
Co7 Ta2 2.716286 1_555
Co7 Ta2 2.716286 1_556
Co7 Ta4 2.762345 1_555
Co7 Ta4 2.762345 1_556
Co8 Ta1 2.530688 1_556
Co8 Ta1 2.530688 1_555
Co8 Ta4 2.716286 1_555
Co8 Ta4 2.716286 1_556
Co8 Ta2 2.762345 1_455
Co8 Ta2 2.762345 1_456
Co9 Ta1 2.530688 1_666
Co9 Ta1 2.530688 1_665
Co9 Ta5 2.716286 1_555
Co9 Ta5 2.716286 1_556
Co9 Ta3 2.762345 1_656
Co9 Ta3 2.762345 1_655
B0 Co0 2.146004 1_555
B0 Co0 2.146004 1_554
B0 Co7 2.154715 1_555
B0 Co7 2.154715 1_554
B0 Co5 2.154715 1_554
B0 Co5 2.154715 1_555
B0 Ta2 2.455562 1_555
B0 Ta4 2.508625 1_555
B0 Ta5 2.508625 1_545
B1 Co0 2.146004 1_565
B1 Co0 2.146004 1_564
B1 Co4 2.154715 1_555
B1 Co4 2.154715 1_554
B1 Co6 2.154715 1_555
B1 Co6 2.154715 1_554
B1 Ta3 2.455562 1_555
B1 Ta4 2.508625 1_565
B1 Ta5 2.508625 1_555
B2 Co1 2.146004 1_554
B2 Co1 2.146004 1_555
B2 Co3 2.154715 1_554
B2 Co3 2.154715 1_555
B2 Co8 2.154715 1_554
B2 Co8 2.154715 1_555
B2 Ta4 2.455562 1_555
B2 Ta2 2.508625 1_455
B2 Ta3 2.508625 1_555
B3 Co1 2.146004 1_654
B3 Co1 2.146004 1_655
B3 Co2 2.154715 1_554
B3 Co9 2.154715 1_555
B3 Co2 2.154715 1_555
B3 Co9 2.154715 1_554
B3 Ta5 2.455562 1_555
B3 Ta3 2.508625 1_655
B3 Ta2 2.508625 1_555
