# generated using pymatgen
data_RbYb(WO4)2
_symmetry_space_group_name_H-M   'P 1'
_cell_length_a   8.09009640
_cell_length_b   9.05705509
_cell_length_c   10.58585000
_cell_angle_alpha   90.00000000
_cell_angle_beta   90.00000000
_cell_angle_gamma   98.83516011
_symmetry_Int_Tables_number   1
_chemical_formula_structural   RbYb(WO4)2
_chemical_formula_sum   'Rb4 Yb4 W8 O32'
_cell_volume   766.44751903
_cell_formula_units_Z   4
loop_
 _symmetry_equiv_pos_site_id
 _symmetry_equiv_pos_as_xyz
  1  'x, y, z'
loop_
 _atom_site_type_symbol
 _atom_site_label
 _atom_site_symmetry_multiplicity
 _atom_site_fract_x
 _atom_site_fract_y
 _atom_site_fract_z
 _atom_site_occupancy
  Rb  Rb0  1  0.07184700  0.51211700  0.21303600  1
  Rb  Rb1  1  0.92815300  0.48788300  0.78696400  1
  Rb  Rb2  1  0.42815300  0.48788300  0.71303600  1
  Rb  Rb3  1  0.57184700  0.51211700  0.28696400  1
  Yb  Yb0  1  0.02432900  0.06076400  0.77316000  1
  Yb  Yb1  1  0.97567100  0.93923600  0.22684000  1
  Yb  Yb2  1  0.47567100  0.93923600  0.27316000  1
  Yb  Yb3  1  0.52432900  0.06076400  0.72684000  1
  W  W0  1  0.29176300  0.21899000  0.00528900  1
  W  W1  1  0.70823700  0.78101000  0.99471100  1
  W  W2  1  0.20823700  0.78101000  0.50528900  1
  W  W3  1  0.79176300  0.21899000  0.49471100  1
  W  W4  1  0.17655800  0.16123700  0.49056400  1
  W  W5  1  0.82344200  0.83876300  0.50943600  1
  W  W6  1  0.32344200  0.83876300  0.99056400  1
  W  W7  1  0.67655800  0.16123700  0.00943600  1
  O  O0  1  0.25396400  0.00505700  0.39773900  1
  O  O1  1  0.74603600  0.99494300  0.60226100  1
  O  O2  1  0.24603600  0.99494300  0.89773900  1
  O  O3  1  0.75396400  0.00505700  0.10226100  1
  O  O4  1  0.34999400  0.39300400  0.08776400  1
  O  O5  1  0.65000600  0.60699600  0.91223600  1
  O  O6  1  0.15000600  0.60699600  0.58776400  1
  O  O7  1  0.84999400  0.39300400  0.41223600  1
  O  O8  1  0.11766600  0.13609200  0.11091100  1
  O  O9  1  0.88233400  0.86390800  0.88908900  1
  O  O10  1  0.38233400  0.86390800  0.61091100  1
  O  O11  1  0.61766600  0.13609200  0.38908900  1
  O  O12  1  0.33124200  0.72672800  0.37176900  1
  O  O13  1  0.66875800  0.27327200  0.62823100  1
  O  O14  1  0.16875800  0.27327200  0.87176900  1
  O  O15  1  0.83124200  0.72672800  0.12823100  1
  O  O16  1  0.26606700  0.32700900  0.41182800  1
  O  O17  1  0.73393300  0.67299100  0.58817200  1
  O  O18  1  0.23393300  0.67299100  0.91182800  1
  O  O19  1  0.76606700  0.32700900  0.08817200  1
  O  O20  1  0.00342000  0.23041300  0.60225100  1
  O  O21  1  0.99658000  0.76958700  0.39774900  1
  O  O22  1  0.49658000  0.76958700  0.10225100  1
  O  O23  1  0.50342000  0.23041300  0.89774900  1
  O  O24  1  0.30167200  0.15436200  0.63581200  1
  O  O25  1  0.69832800  0.84563800  0.36418800  1
  O  O26  1  0.19832800  0.84563800  0.13581200  1
  O  O27  1  0.80167200  0.15436200  0.86418800  1
  O  O28  1  0.45207400  0.09238000  0.09822100  1
  O  O29  1  0.54792600  0.90762000  0.90177900  1
  O  O30  1  0.04792600  0.90762000  0.59822100  1
  O  O31  1  0.95207400  0.09238000  0.40177900  1
loop_
_geom_bond_atom_site_label_1
_geom_bond_atom_site_label_2
_geom_bond_distance
_geom_bond_site_symmetry_2
O0 W4 1.905446 1_555
O0 W2 2.306542 1_545
O0 Yb2 2.374895 1_545
O0 Yb1 2.878343 1_445
O1 W5 1.905446 1_555
O1 W3 2.306542 1_565
O1 Yb3 2.374895 1_565
O1 Yb0 2.878343 1_665
O2 W6 1.905446 1_555
O2 W0 2.306542 1_566
O2 Yb0 2.374895 1_565
O2 Yb3 2.878343 1_565
O3 W7 1.905446 1_555
O3 W1 2.306542 1_544
O3 Yb1 2.374895 1_545
O3 Yb2 2.878343 1_545
O4 W0 1.800014 1_555
O4 Rb3 2.870021 1_555
O4 Rb0 2.954943 1_555
O5 W1 1.800014 1_555
O5 Rb2 2.870021 1_555
O5 Rb1 2.954943 1_555
O6 W2 1.800014 1_555
O6 Rb1 2.870021 1_455
O6 Rb2 2.954943 1_555
O7 W3 1.800014 1_555
O7 Rb0 2.870021 1_655
O7 Rb3 2.954943 1_555
O8 W0 1.863540 1_555
O8 Yb1 2.318484 1_445
O9 W1 1.863540 1_555
O9 Yb0 2.318484 1_665
O10 W2 1.863540 1_555
O10 Yb3 2.318484 1_565
O11 W3 1.863540 1_555
O11 Yb2 2.318484 1_545
O12 W2 1.838484 1_555
O12 Yb2 2.338490 1_555
O12 Rb3 3.087918 1_555
O12 Rb0 3.122891 1_555
O13 W3 1.838484 1_555
O13 Yb3 2.338490 1_555
O13 Rb2 3.087918 1_555
O13 Rb1 3.122891 1_555
O14 W0 1.838484 1_556
O14 Yb0 2.338490 1_555
O14 Rb1 3.087918 1_455
O14 Rb2 3.122891 1_555
O15 W1 1.838484 1_554
O15 Yb1 2.338490 1_555
O15 Rb0 3.087918 1_655
O15 Rb3 3.122891 1_555
O16 W4 1.771812 1_555
O16 Rb3 3.066516 1_555
O16 Rb0 3.243031 1_555
O17 W5 1.771812 1_555
O17 Rb2 3.066516 1_555
O17 Rb1 3.243031 1_555
O18 W6 1.771812 1_555
O18 Rb1 3.066516 1_455
O18 Rb2 3.243031 1_555
O19 W7 1.771812 1_555
O19 Rb0 3.066516 1_655
O19 Rb3 3.243031 1_555
O20 W4 2.005474 1_555
O20 W3 2.045557 1_455
O20 Yb0 2.396375 1_555
O20 Rb1 3.173041 1_455
O21 W5 2.005474 1_555
O21 W2 2.045557 1_655
O21 Yb1 2.396375 1_555
O21 Rb0 3.173041 1_655
O22 W6 2.005474 1_554
O22 W1 2.045557 1_554
O22 Yb2 2.396375 1_555
O22 Rb3 3.173041 1_555
O23 W7 2.005474 1_556
O23 W0 2.045557 1_556
O23 Yb3 2.396375 1_555
O23 Rb2 3.173041 1_555
O24 W4 1.847129 1_555
O24 Yb3 2.315382 1_555
O24 Yb0 2.698636 1_555
O24 Rb2 3.144925 1_555
O25 W5 1.847129 1_555
O25 Yb2 2.315382 1_555
O25 Yb1 2.698636 1_555
O25 Rb3 3.144925 1_555
O26 W6 1.847129 1_554
O26 Yb1 2.315382 1_455
O26 Yb2 2.698636 1_555
O26 Rb0 3.144925 1_555
O27 W7 1.847129 1_556
O27 Yb0 2.315382 1_655
O27 Yb3 2.698636 1_555
O27 Rb1 3.144925 1_555
O28 W7 2.054889 1_555
O28 W0 2.102766 1_555
O28 Yb2 2.339038 1_545
O29 W6 2.054889 1_555
O29 W1 2.102766 1_555
O29 Yb3 2.339038 1_565
O30 W5 2.054889 1_455
O30 W2 2.102766 1_555
O30 Yb0 2.339038 1_565
O31 W4 2.054889 1_655
O31 W3 2.102766 1_555
O31 Yb1 2.339038 1_545
