# generated using pymatgen
data_Ba4B10Cl2O19
_symmetry_space_group_name_H-M   'P 1'
_cell_length_a   6.76387600
_cell_length_b   11.75117600
_cell_length_c   11.88097500
_cell_angle_alpha   90.00000000
_cell_angle_beta   90.00000000
_cell_angle_gamma   90.00000000
_symmetry_Int_Tables_number   1
_chemical_formula_structural   Ba4B10Cl2O19
_chemical_formula_sum   'Ba8 B20 Cl4 O38'
_cell_volume   944.34144455
_cell_formula_units_Z   2
loop_
 _symmetry_equiv_pos_site_id
 _symmetry_equiv_pos_as_xyz
  1  'x, y, z'
loop_
 _atom_site_type_symbol
 _atom_site_label
 _atom_site_symmetry_multiplicity
 _atom_site_fract_x
 _atom_site_fract_y
 _atom_site_fract_z
 _atom_site_occupancy
  Ba  Ba0  1  0.38019600  0.72963500  0.97929200  1
  Ba  Ba1  1  0.38019600  0.27036500  0.02070800  1
  Ba  Ba2  1  0.88019600  0.77036500  0.47929200  1
  Ba  Ba3  1  0.88019600  0.22963500  0.52070800  1
  Ba  Ba4  1  0.03264500  0.54058600  0.73978400  1
  Ba  Ba5  1  0.03264500  0.45941400  0.26021600  1
  Ba  Ba6  1  0.53264500  0.95941400  0.23978400  1
  Ba  Ba7  1  0.53264500  0.04058600  0.76021600  1
  B  B0  1  0.84787100  0.76983400  0.04389000  1
  B  B1  1  0.84787100  0.23016600  0.95611000  1
  B  B2  1  0.34787100  0.73016600  0.54389000  1
  B  B3  1  0.34787100  0.26983400  0.45611000  1
  B  B4  1  0.51098800  0.48514300  0.74600600  1
  B  B5  1  0.51098800  0.51485700  0.25399400  1
  B  B6  1  0.01098800  0.01485700  0.24600600  1
  B  B7  1  0.01098800  0.98514300  0.75399400  1
  B  B8  1  0.88034100  0.79330800  0.81999800  1
  B  B9  1  0.88034100  0.20669200  0.18000200  1
  B  B10  1  0.38034100  0.70669200  0.31999800  1
  B  B11  1  0.38034100  0.29330800  0.68000200  1
  B  B12  1  0.22604600  0.81067800  0.72986000  1
  B  B13  1  0.22604600  0.18932200  0.27014000  1
  B  B14  1  0.72604600  0.68932200  0.22986000  1
  B  B15  1  0.72604600  0.31067800  0.77014000  1
  B  B16  1  0.55968000  0.71204200  0.71284500  1
  B  B17  1  0.55968000  0.28795800  0.28715500  1
  B  B18  1  0.05968000  0.78795800  0.21284500  1
  B  B19  1  0.05968000  0.21204200  0.78715500  1
  Cl  Cl0  1  0.38331900  0.00000000  0.00000000  1
  Cl  Cl1  1  0.88331900  0.50000000  0.50000000  1
  Cl  Cl2  1  0.14422100  0.50000000  0.00000000  1
  Cl  Cl3  1  0.64422100  0.00000000  0.50000000  1
  O  O0  1  0.50681200  0.50000000  0.00000000  1
  O  O1  1  0.00681200  0.00000000  0.50000000  1
  O  O2  1  0.36110300  0.41846700  0.70252000  1
  O  O3  1  0.36110300  0.58153300  0.29748000  1
  O  O4  1  0.86110300  0.08153300  0.20252000  1
  O  O5  1  0.86110300  0.91846700  0.79748000  1
  O  O6  1  0.03377200  0.78851200  0.08618600  1
  O  O7  1  0.03377200  0.21148800  0.91381400  1
  O  O8  1  0.53377200  0.71148800  0.58618600  1
  O  O9  1  0.53377200  0.28851200  0.41381400  1
  O  O10  1  0.68406700  0.43567200  0.78314600  1
  O  O11  1  0.68406700  0.56432800  0.21685400  1
  O  O12  1  0.18406700  0.06432800  0.28314600  1
  O  O13  1  0.18406700  0.93567200  0.71685400  1
  O  O14  1  0.09241000  0.76088600  0.81517600  1
  O  O15  1  0.09241000  0.23911400  0.18482400  1
  O  O16  1  0.59241000  0.73911400  0.31517600  1
  O  O17  1  0.59241000  0.26088600  0.68482400  1
  O  O18  1  0.69293200  0.74868400  0.11969600  1
  O  O19  1  0.69293200  0.25131600  0.88030400  1
  O  O20  1  0.19293200  0.75131600  0.61969600  1
  O  O21  1  0.19293200  0.24868400  0.38030400  1
  O  O22  1  0.47411200  0.60028400  0.75839100  1
  O  O23  1  0.47411200  0.39971600  0.24160900  1
  O  O24  1  0.97411200  0.89971600  0.25839100  1
  O  O25  1  0.97411200  0.10028400  0.74160900  1
  O  O26  1  0.77060400  0.72596200  0.73402400  1
  O  O27  1  0.77060400  0.27403800  0.26597600  1
  O  O28  1  0.27060400  0.77403800  0.23402400  1
  O  O29  1  0.27060400  0.22596200  0.76597600  1
  O  O30  1  0.79405800  0.76918800  0.93274300  1
  O  O31  1  0.79405800  0.23081200  0.06725700  1
  O  O32  1  0.29405800  0.73081200  0.43274300  1
  O  O33  1  0.29405800  0.26918800  0.56725700  1
  O  O34  1  0.43574800  0.80240000  0.76272700  1
  O  O35  1  0.43574800  0.19760000  0.23727300  1
  O  O36  1  0.93574800  0.69760000  0.26272700  1
  O  O37  1  0.93574800  0.30240000  0.73727300  1
loop_
_geom_bond_atom_site_label_1
_geom_bond_atom_site_label_2
_geom_bond_distance
_geom_bond_site_symmetry_2
Ba0 O18 2.703204 1_556
Ba0 O34 2.737277 1_555
Ba0 O6 2.753551 1_556
Ba0 O14 2.779543 1_555
Ba0 O0 2.841792 1_556
Ba0 O30 2.891027 1_555
Ba0 O22 3.098727 1_555
Ba0 Cl2 3.144819 1_556
Ba0 O28 3.159308 1_556
Ba0 Cl0 3.186689 1_566
Ba1 O19 2.703204 1_554
Ba1 O35 2.737277 1_555
Ba1 O7 2.753551 1_554
Ba1 O15 2.779543 1_555
Ba1 O0 2.841792 1_555
Ba1 O31 2.891027 1_555
Ba1 O23 3.098727 1_555
Ba1 Cl2 3.144819 1_555
Ba1 O29 3.159308 1_554
Ba1 Cl0 3.186689 1_555
Ba2 O20 2.703204 1_655
Ba2 O36 2.737277 1_555
Ba2 O8 2.753551 1_555
Ba2 O16 2.779543 1_555
Ba2 O1 2.841792 1_665
Ba2 O32 2.891027 1_655
Ba2 O24 3.098727 1_555
Ba2 Cl3 3.144819 1_565
Ba2 O26 3.159308 1_555
Ba2 Cl1 3.186689 1_555
Ba3 O21 2.703204 1_655
Ba3 O37 2.737277 1_555
Ba3 O9 2.753551 1_555
Ba3 O17 2.779543 1_555
Ba3 O1 2.841792 1_655
Ba3 O33 2.891027 1_655
Ba3 O25 3.098727 1_555
Ba3 Cl3 3.144819 1_555
Ba3 O27 3.159308 1_555
Ba3 Cl1 3.186689 1_555
Ba4 O2 2.681619 1_555
Ba4 O10 2.710036 1_455
Ba4 O14 2.769034 1_555
Ba4 O26 2.809181 1_455
Ba4 O37 2.874830 1_455
Ba4 O20 3.056672 1_555
Ba4 Cl1 3.060009 1_455
Ba4 O22 3.075283 1_555
Ba4 Cl2 3.217939 1_556
Ba5 O3 2.681619 1_555
Ba5 O11 2.710036 1_455
Ba5 O15 2.769034 1_555
Ba5 O27 2.809181 1_455
Ba5 O36 2.874830 1_455
Ba5 O21 3.056672 1_555
Ba5 Cl1 3.060009 1_455
Ba5 O23 3.075283 1_555
Ba5 Cl2 3.217939 1_555
Ba6 O4 2.681619 1_565
Ba6 O12 2.710036 1_565
Ba6 O16 2.769034 1_555
Ba6 O28 2.809181 1_555
Ba6 O35 2.874830 1_565
Ba6 O18 3.056672 1_555
Ba6 Cl0 3.060009 1_565
Ba6 O24 3.075283 1_555
Ba6 Cl3 3.217939 1_565
Ba7 O5 2.681619 1_545
Ba7 O13 2.710036 1_545
Ba7 O17 2.769034 1_555
Ba7 O29 2.809181 1_555
Ba7 O34 2.874830 1_545
Ba7 O19 3.056672 1_555
Ba7 Cl0 3.060009 1_556
Ba7 O25 3.075283 1_555
Ba7 Cl3 3.217939 1_555
B0 O30 1.369801 1_554
B0 O6 1.371781 1_655
B0 O18 1.404001 1_555
B1 O31 1.369801 1_556
B1 O7 1.371781 1_655
B1 O19 1.404001 1_555
B2 O32 1.369801 1_555
B2 O8 1.371781 1_555
B2 O20 1.404001 1_555
B3 O33 1.369801 1_555
B3 O9 1.371781 1_555
B3 O21 1.404001 1_555
B4 O10 1.379555 1_555
B4 O2 1.381534 1_555
B4 O22 1.383686 1_555
B5 O11 1.379555 1_555
B5 O3 1.381534 1_555
B5 O23 1.383686 1_555
B6 O12 1.379555 1_555
B6 O4 1.381534 1_455
B6 O24 1.383686 1_445
B7 O13 1.379555 1_555
B7 O5 1.381534 1_455
B7 O25 1.383686 1_465
B8 O14 1.485250 1_655
B8 O30 1.488372 1_555
B8 O26 1.490170 1_555
B8 O5 1.500553 1_555
B9 O15 1.485250 1_655
B9 O31 1.488372 1_555
B9 O27 1.490170 1_555
B9 O4 1.500553 1_555
B10 O16 1.485250 1_555
B10 O32 1.488372 1_555
B10 O28 1.490170 1_555
B10 O3 1.500553 1_555
B11 O17 1.485250 1_555
B11 O33 1.488372 1_555
B11 O29 1.490170 1_555
B11 O2 1.500553 1_555
B12 O34 1.474381 1_555
B12 O14 1.478800 1_555
B12 O20 1.499959 1_555
B12 O13 1.503978 1_555
B13 O35 1.474381 1_555
B13 O15 1.478800 1_555
B13 O21 1.499959 1_555
B13 O12 1.503978 1_555
B14 O36 1.474381 1_555
B14 O16 1.478800 1_555
B14 O18 1.499959 1_555
B14 O11 1.503978 1_555
B15 O37 1.474381 1_555
B15 O17 1.478800 1_555
B15 O19 1.499959 1_555
B15 O10 1.503978 1_555
B16 O26 1.457890 1_555
B16 O34 1.476942 1_555
B16 O8 1.515015 1_555
B16 O22 1.533794 1_555
B17 O27 1.457890 1_555
B17 O35 1.476942 1_555
B17 O9 1.515015 1_555
B17 O23 1.533794 1_555
B18 O28 1.457890 1_555
B18 O36 1.476942 1_455
B18 O6 1.515015 1_555
B18 O24 1.533794 1_455
B19 O29 1.457890 1_555
B19 O37 1.476942 1_455
B19 O7 1.515015 1_555
B19 O25 1.533794 1_455
Cl2 O0 2.452521 1_555
Cl3 O1 2.452521 1_655
