# generated using pymatgen
data_Sr3Ta7Si(BiO4)9
_symmetry_space_group_name_H-M   'P 1'
_cell_length_a   5.55841400
_cell_length_b   5.53253781
_cell_length_c   25.31513979
_cell_angle_alpha   90.49934158
_cell_angle_beta   88.78924118
_cell_angle_gamma   89.76514248
_symmetry_Int_Tables_number   1
_chemical_formula_structural   Sr3Ta7Si(BiO4)9
_chemical_formula_sum   'Sr3 Ta7 Si1 Bi9 O36'
_cell_volume   778.28410007
_cell_formula_units_Z   1
loop_
 _symmetry_equiv_pos_site_id
 _symmetry_equiv_pos_as_xyz
  1  'x, y, z'
loop_
 _atom_site_type_symbol
 _atom_site_label
 _atom_site_symmetry_multiplicity
 _atom_site_fract_x
 _atom_site_fract_y
 _atom_site_fract_z
 _atom_site_occupancy
  Sr  Sr0  1  0.00691700  0.24872200  0.00052100  1
  Sr  Sr1  1  0.01182000  0.74369100  0.49626700  1
  Sr  Sr2  1  0.50586000  0.75204600  0.00049100  1
  Ta  Ta0  1  0.52394100  0.24971400  0.91711700  1
  Ta  Ta1  1  0.01667700  0.25073700  0.58436700  1
  Ta  Ta2  1  0.01366100  0.75532900  0.08595700  1
  Ta  Ta3  1  0.01243400  0.24218300  0.41500000  1
  Ta  Ta4  1  0.02482100  0.74942400  0.91625400  1
  Ta  Ta5  1  0.51881200  0.74109100  0.58415200  1
  Ta  Ta6  1  0.51425400  0.24725600  0.08665800  1
  Si  Si0  1  0.52264400  0.73447100  0.41995800  1
  Bi  Bi0  1  0.47405700  0.21855000  0.48864100  1
  Bi  Bi1  1  0.47621200  0.77305400  0.20589700  1
  Bi  Bi2  1  0.47477500  0.27977400  0.70180800  1
  Bi  Bi3  1  0.94666800  0.22204200  0.80246000  1
  Bi  Bi4  1  0.92858800  0.73034300  0.30950400  1
  Bi  Bi5  1  0.98034700  0.22037900  0.20595600  1
  Bi  Bi6  1  0.97912300  0.72516200  0.70211300  1
  Bi  Bi7  1  0.45121200  0.78637300  0.80187300  1
  Bi  Bi8  1  0.44926900  0.28832900  0.30525100  1
  O  O0  1  0.52952900  0.30004300  0.99772600  1
  O  O1  1  0.53504400  0.79822800  0.49109300  1
  O  O2  1  0.03793600  0.70327400  0.99794900  1
  O  O3  1  0.06302600  0.20660500  0.49789700  1
  O  O4  1  0.55581400  0.69140400  0.35278800  1
  O  O5  1  0.55394700  0.17546900  0.84201700  1
  O  O6  1  0.02431000  0.31662400  0.65649200  1
  O  O7  1  0.00613900  0.82530700  0.15824700  1
  O  O8  1  0.04163700  0.30937000  0.34226100  1
  O  O9  1  0.04602800  0.82730900  0.84193200  1
  O  O10  1  0.51400100  0.68788400  0.65598400  1
  O  O11  1  0.51907400  0.18723000  0.15857500  1
  O  O12  1  0.73269100  0.99767800  0.25622400  1
  O  O13  1  0.73326000  0.49679100  0.75124000  1
  O  O14  1  0.23616000  0.01078500  0.74795700  1
  O  O15  1  0.23538300  0.51140700  0.25168400  1
  O  O16  1  0.23788500  0.01234000  0.25440900  1
  O  O17  1  0.23388100  0.51191500  0.75152600  1
  O  O18  1  0.73540100  0.99647800  0.74791700  1
  O  O19  1  0.73000200  0.50285600  0.25376700  1
  O  O20  1  0.75448000  0.98455700  0.06658600  1
  O  O21  1  0.75820400  0.47864700  0.56526000  1
  O  O22  1  0.26407700  0.02281500  0.93057000  1
  O  O23  1  0.29547800  0.50956200  0.43095100  1
  O  O24  1  0.25445100  0.02020400  0.06826400  1
  O  O25  1  0.25506200  0.52509100  0.56648800  1
  O  O26  1  0.76401100  0.97746100  0.93195700  1
  O  O27  1  0.76977600  0.48850900  0.43146200  1
  O  O28  1  0.80520700  0.97061300  0.58231200  1
  O  O29  1  0.79257900  0.47921900  0.08363000  1
  O  O30  1  0.31777000  0.00238600  0.41742300  1
  O  O31  1  0.31901000  0.53375300  0.91116300  1
  O  O32  1  0.30974100  0.03081800  0.58035100  1
  O  O33  1  0.29247800  0.52595700  0.08554000  1
  O  O34  1  0.79656400  0.97579500  0.41585800  1
  O  O35  1  0.81897200  0.46644400  0.91228200  1
loop_
_geom_bond_atom_site_label_1
_geom_bond_atom_site_label_2
_geom_bond_distance
_geom_bond_site_symmetry_2
Bi0 O3 2.293016 1_555
Bi0 O30 2.339330 1_555
Bi0 O1 2.350195 1_545
Bi0 O23 2.408215 1_555
Bi0 O27 2.642926 1_555
Bi0 O32 2.695034 1_555
Bi1 O16 2.214547 1_565
Bi1 O15 2.282645 1_555
Bi1 O12 2.294262 1_555
Bi1 O19 2.404108 1_555
Bi1 O11 2.604391 1_565
Bi2 O17 2.216533 1_555
Bi2 O13 2.266220 1_555
Bi2 O14 2.306447 1_555
Bi2 O18 2.449986 1_545
Bi2 O10 2.555440 1_555
Bi2 O6 2.783566 1_555
Bi3 O18 2.212097 1_545
Bi3 O13 2.341693 1_555
Bi3 O14 2.392003 1_655
Bi3 O5 2.398121 1_555
Bi3 O9 2.474728 1_645
Bi3 O17 2.598693 1_655
Bi4 O19 2.199909 1_555
Bi4 O12 2.296973 1_555
Bi4 O4 2.334995 1_555
Bi4 O15 2.522769 1_655
Bi4 O8 2.559426 1_655
Bi4 O16 2.700671 1_665
Bi5 O16 2.227959 1_655
Bi5 O12 2.235978 1_545
Bi5 O19 2.392002 1_555
Bi5 O15 2.449023 1_655
Bi5 O7 2.490149 1_645
Bi6 O13 2.231676 1_555
Bi6 O17 2.246942 1_655
Bi6 O18 2.306417 1_555
Bi6 O14 2.437584 1_665
Bi6 O6 2.538348 1_655
Bi7 O14 2.218016 1_565
Bi7 O17 2.331484 1_555
Bi7 O18 2.379854 1_555
Bi7 O5 2.447324 1_565
Bi7 O9 2.459126 1_555
Bi7 O13 2.554655 1_555
Bi8 O15 2.204719 1_555
Bi8 O16 2.326571 1_555
Bi8 O19 2.344883 1_555
Bi8 O8 2.435441 1_555
Bi8 O12 2.543581 1_545
Bi8 O4 2.601174 1_555
O0 Ta0 2.058035 1_555
O0 Ta6 2.272566 1_556
O0 Sr2 2.503935 1_556
O0 Sr0 2.670001 1_656
O0 Sr0 2.919325 1_556
O0 Sr2 3.036558 1_546
O1 Si0 1.834775 1_555
O1 Ta5 2.379517 1_555
O1 Sr1 2.672101 1_655
O1 Sr1 2.925434 1_555
O2 Ta4 2.088792 1_555
O2 Ta2 2.245136 1_556
O2 Sr0 2.522747 1_556
O2 Sr2 2.618059 1_556
O2 Sr2 2.967973 1_456
O2 Sr0 3.021984 1_566
O3 Ta3 2.133874 1_555
O3 Ta1 2.209987 1_555
O3 Sr1 2.578085 1_545
O3 Sr1 2.984614 1_555
O4 Si0 1.720906 1_555
O5 Ta0 1.945098 1_555
O6 Ta1 1.860167 1_555
O7 Ta2 1.866799 1_555
O8 Ta3 1.885487 1_555
O9 Ta4 1.935118 1_555
O10 Ta5 1.844294 1_555
O11 Ta6 1.854205 1_555
O20 Ta2 1.987456 1_655
O20 Ta6 2.023869 1_565
O20 Sr2 2.537496 1_555
O20 Sr0 2.619568 1_665
O21 Ta1 1.978165 1_655
O21 Ta5 2.013142 1_555
O21 Sr1 2.673111 1_655
O22 Ta0 1.944156 1_555
O22 Ta4 2.053054 1_545
O22 Sr0 2.565326 1_556
O22 Sr2 2.704372 1_546
O23 Si0 1.795607 1_555
O23 Ta3 2.205006 1_555
O23 Sr1 2.594914 1_555
O24 Ta6 1.978205 1_555
O24 Ta2 2.035100 1_545
O24 Sr0 2.560413 1_555
O24 Sr2 2.633394 1_545
O25 Ta5 1.951935 1_555
O25 Ta1 2.065830 1_555
O25 Sr1 2.564446 1_555
O26 Ta4 1.950187 1_655
O26 Ta0 2.050643 1_565
O26 Sr2 2.563491 1_556
O26 Sr0 2.675477 1_666
O27 Ta3 1.949728 1_655
O27 Si0 1.957552 1_555
O27 Sr1 2.561857 1_655
O28 Ta1 1.949960 1_665
O28 Ta5 2.040412 1_555
O28 Sr1 2.733974 1_655
O29 Ta2 1.965703 1_655
O29 Ta6 2.014740 1_555
O29 Sr0 2.703131 1_655
O29 Sr2 3.070068 1_555
O30 Si0 1.867859 1_545
O30 Ta3 2.152127 1_555
O30 Sr1 2.974993 1_545
O31 Ta0 1.945876 1_555
O31 Ta4 2.021567 1_555
O31 Sr2 2.777208 1_556
O31 Sr0 3.245303 1_556
O32 Ta5 1.980216 1_545
O32 Ta1 2.029498 1_555
O32 Sr1 3.147732 1_545
O33 Ta6 1.970936 1_555
O33 Ta2 1.998816 1_555
O33 Sr2 2.749196 1_555
O33 Sr0 3.100168 1_555
O34 Ta3 1.904275 1_665
O34 Si0 2.030751 1_555
O34 Sr1 2.712925 1_655
O35 Ta4 1.946070 1_655
O35 Ta0 2.037701 1_555
O35 Sr0 2.768987 1_656
O35 Sr2 3.203724 1_556
