# generated using pymatgen
data_Ba2Cu(SBr)2
_symmetry_space_group_name_H-M   'P 1'
_cell_length_a   9.57586108
_cell_length_b   9.57586108
_cell_length_c   9.57586108
_cell_angle_alpha   151.62303862
_cell_angle_beta   151.62303862
_cell_angle_gamma   40.56404851
_symmetry_Int_Tables_number   1
_chemical_formula_structural   Ba2Cu(SBr)2
_chemical_formula_sum   'Ba2 Cu1 S2 Br2'
_cell_volume   197.93660580
_cell_formula_units_Z   1
loop_
 _symmetry_equiv_pos_site_id
 _symmetry_equiv_pos_as_xyz
  1  'x, y, z'
loop_
 _atom_site_type_symbol
 _atom_site_label
 _atom_site_symmetry_multiplicity
 _atom_site_fract_x
 _atom_site_fract_y
 _atom_site_fract_z
 _atom_site_occupancy
  Ba  Ba0  1  0.37950700  0.37950700  0.00000000  1
  Ba  Ba1  1  0.62049300  0.62049300  0.00000000  1
  Cu  Cu0  1  0.00000000  0.00000000  0.00000000  1
  S  S0  1  0.00000000  0.50000000  0.50000000  1
  S  S1  1  0.50000000  0.00000000  0.50000000  1
  Br  Br0  1  0.18306700  0.18306700  0.00000000  1
  Br  Br1  1  0.81693300  0.81693300  0.00000000  1
loop_
_geom_bond_atom_site_label_1
_geom_bond_atom_site_label_2
_geom_bond_distance
_geom_bond_site_symmetry_2
Ba0 S0 3.192888 1_554
Ba0 S0 3.192888 1_655
Ba0 S1 3.192888 1_565
Ba0 S1 3.192888 1_554
Ba0 Br1 3.504560 1_455
Ba0 Br1 3.504560 1_444
Ba0 Br1 3.504560 1_545
Ba0 Br1 3.504560 1_556
Ba0 Br0 3.528902 1_555
Ba1 S1 3.192888 1_554
Ba1 S1 3.192888 1_565
Ba1 S0 3.192888 1_655
Ba1 S0 3.192888 1_554
Ba1 Br0 3.504560 1_554
Ba1 Br0 3.504560 1_666
Ba1 Br0 3.504560 1_655
Ba1 Br0 3.504560 1_565
Ba1 Br1 3.528902 1_555
Cu0 S1 2.347163 1_454
Cu0 S0 2.347163 1_544
Cu0 S0 2.347163 1_555
Cu0 S1 2.347163 1_555
