# generated using pymatgen
data_Ho2GaNi2
_symmetry_space_group_name_H-M   'P 1'
_cell_length_a   4.16627185
_cell_length_b   5.26980807
_cell_length_c   5.26980807
_cell_angle_alpha   60.26514436
_cell_angle_beta   66.71555384
_cell_angle_gamma   66.71555384
_symmetry_Int_Tables_number   1
_chemical_formula_structural   Ho2GaNi2
_chemical_formula_sum   'Ho2 Ga1 Ni2'
_cell_volume   89.35862791
_cell_formula_units_Z   1
loop_
 _symmetry_equiv_pos_site_id
 _symmetry_equiv_pos_as_xyz
  1  'x, y, z'
loop_
 _atom_site_type_symbol
 _atom_site_label
 _atom_site_symmetry_multiplicity
 _atom_site_fract_x
 _atom_site_fract_y
 _atom_site_fract_z
 _atom_site_occupancy
  Ho  Ho0  1  0.20184642  0.29815358  0.29815358  1
  Ho  Ho1  1  0.79815358  0.70184642  0.70184642  1
  Ga  Ga0  1  0.00000000  0.00000000  0.00000000  1
  Ni  Ni0  1  0.50000000  0.26719110  0.73280890  1
  Ni  Ni1  1  0.50000000  0.73280890  0.26719110  1
loop_
_geom_bond_atom_site_label_1
_geom_bond_atom_site_label_2
_geom_bond_distance
_geom_bond_site_symmetry_2
Ho0 Ni0 2.800318 1_554
Ho0 Ni1 2.800318 1_545
Ho0 Ni1 2.921432 1_555
Ho0 Ni0 2.921432 1_555
Ho0 Ni0 2.921432 1_455
Ho0 Ni1 2.921432 1_455
Ho0 Ho1 3.272949 1_455
Ho0 Ho1 3.456525 1_445
Ho0 Ho1 3.456525 1_454
Ho0 Ho1 3.456525 1_554
Ho0 Ho1 3.456525 1_545
Ho1 Ni1 2.800318 1_556
Ho1 Ni0 2.800318 1_565
Ho1 Ni1 2.921432 1_555
Ho1 Ni0 2.921432 1_555
Ho1 Ni0 2.921432 1_655
Ho1 Ni1 2.921432 1_655
Ga0 Ni1 2.517531 1_545
Ga0 Ni0 2.517531 1_554
Ga0 Ni1 2.517531 1_445
Ga0 Ni0 2.517531 1_454
Ga0 Ho0 3.110706 1_545
Ga0 Ho1 3.110706 1_445
Ga0 Ho0 3.110706 1_554
Ga0 Ho1 3.110706 1_454
Ga0 Ho0 3.191039 1_555
Ga0 Ho1 3.191039 1_444
Ga0 Ho1 3.191040 1_544
Ga0 Ho0 3.191040 1_455
Ni0 Ni1 2.463544 1_555
Ni0 Ni1 2.827370 1_546
