# generated using pymatgen
data_Dy3GaS6
_symmetry_space_group_name_H-M   'P 1'
_cell_length_a   8.50270115
_cell_length_b   8.50270115
_cell_length_c   6.43933995
_cell_angle_alpha   90.00000000
_cell_angle_beta   90.00000000
_cell_angle_gamma   102.36156315
_symmetry_Int_Tables_number   1
_chemical_formula_structural   Dy3GaS6
_chemical_formula_sum   'Dy6 Ga2 S12'
_cell_volume   454.74506827
_cell_formula_units_Z   2
loop_
 _symmetry_equiv_pos_site_id
 _symmetry_equiv_pos_as_xyz
  1  'x, y, z'
loop_
 _atom_site_type_symbol
 _atom_site_label
 _atom_site_symmetry_multiplicity
 _atom_site_fract_x
 _atom_site_fract_y
 _atom_site_fract_z
 _atom_site_occupancy
  Dy  Dy0  1  0.28443553  0.08556109  0.22661737  1
  Dy  Dy1  1  0.91443891  0.71556447  0.22661737  1
  Dy  Dy2  1  0.71556447  0.91443891  0.72661737  1
  Dy  Dy3  1  0.08556109  0.28443553  0.72661737  1
  Dy  Dy4  1  0.40202483  0.59797517  0.13647719  1
  Dy  Dy5  1  0.59797517  0.40202483  0.63647719  1
  Ga  Ga0  1  0.20085310  0.79914690  0.76271852  1
  Ga  Ga1  1  0.79914690  0.20085310  0.26271852  1
  S  S0  1  0.56748647  0.10184537  0.44078397  1
  S  S1  1  0.89815463  0.43251353  0.44078397  1
  S  S2  1  0.43251353  0.89815463  0.94078397  1
  S  S3  1  0.10184537  0.56748647  0.94078397  1
  S  S4  1  0.63191951  0.69319371  0.43048372  1
  S  S5  1  0.30680629  0.36808049  0.43048372  1
  S  S6  1  0.36808049  0.30680629  0.93048372  1
  S  S7  1  0.69319371  0.63191951  0.93048372  1
  S  S8  1  0.21704083  0.78295917  0.41284325  1
  S  S9  1  0.78295917  0.21704083  0.91284325  1
  S  S10  1  0.95918924  0.04081076  0.40719092  1
  S  S11  1  0.04081076  0.95918924  0.90719092  1
loop_
_geom_bond_atom_site_label_1
_geom_bond_atom_site_label_2
_geom_bond_distance
_geom_bond_site_symmetry_2
Dy0 S6 2.666104 1_554
Dy0 S5 2.708201 1_555
Dy0 S0 2.751469 1_555
Dy0 S8 2.784798 1_545
Dy0 S2 2.893284 1_544
Dy0 S10 2.948580 1_455
Dy0 S11 2.953533 1_544
Dy1 S7 2.666104 1_554
Dy1 S4 2.708201 1_555
Dy1 S1 2.751469 1_555
Dy1 S8 2.784798 1_655
Dy1 S3 2.893284 1_654
Dy1 S10 2.948580 1_565
Dy1 S11 2.953533 1_654
Dy2 S4 2.666104 1_555
Dy2 S7 2.708201 1_555
Dy2 S2 2.751469 1_555
Dy2 S9 2.784798 1_565
Dy2 S0 2.893284 1_565
Dy2 S11 2.948580 1_655
Dy2 S10 2.953533 1_565
Dy3 S5 2.666104 1_555
Dy3 S6 2.708201 1_555
Dy3 S3 2.751469 1_555
Dy3 S9 2.784798 1_455
Dy3 S1 2.893284 1_455
Dy3 S11 2.948580 1_545
Dy3 S10 2.953533 1_455
Dy4 S4 2.717181 1_555
Dy4 S5 2.717181 1_555
Dy4 S7 2.768766 1_554
Dy4 S6 2.768766 1_554
Dy4 S2 2.808250 1_554
Dy4 S3 2.808250 1_554
Dy4 S8 3.028870 1_555
Dy5 S6 2.717181 1_555
Dy5 S7 2.717181 1_555
Dy5 S4 2.768766 1_555
Dy5 S5 2.768766 1_555
Dy5 S1 2.808250 1_555
Dy5 S0 2.808250 1_555
Dy5 S9 3.028870 1_555
Ga0 S8 2.263152 1_555
Ga0 S2 2.278888 1_555
Ga0 S3 2.278888 1_555
Ga0 S11 2.315562 1_555
Ga1 S9 2.263152 1_554
Ga1 S1 2.278888 1_555
Ga1 S0 2.278888 1_555
Ga1 S10 2.315562 1_555
