# generated using pymatgen
data_CaSiH4(OF3)2
_symmetry_space_group_name_H-M   'P 1'
_cell_length_a   5.81511360
_cell_length_b   9.32129400
_cell_length_c   10.63193660
_cell_angle_alpha   90.00000000
_cell_angle_beta   99.34533194
_cell_angle_gamma   90.00000000
_symmetry_Int_Tables_number   1
_chemical_formula_structural   CaSiH4(OF3)2
_chemical_formula_sum   'Ca4 Si4 H16 O8 F24'
_cell_volume   568.64868701
_cell_formula_units_Z   4
loop_
 _symmetry_equiv_pos_site_id
 _symmetry_equiv_pos_as_xyz
  1  'x, y, z'
loop_
 _atom_site_type_symbol
 _atom_site_label
 _atom_site_symmetry_multiplicity
 _atom_site_fract_x
 _atom_site_fract_y
 _atom_site_fract_z
 _atom_site_occupancy
  Ca  Ca0  1  0.84058300  0.31523600  0.54616800  1
  Ca  Ca1  1  0.34058300  0.18476400  0.04616800  1
  Ca  Ca2  1  0.15941700  0.68476400  0.45383200  1
  Ca  Ca3  1  0.65941700  0.81523600  0.95383200  1
  Si  Si0  1  0.59779400  0.53639400  0.23416300  1
  Si  Si1  1  0.09779400  0.96360600  0.73416300  1
  Si  Si2  1  0.40220600  0.46360600  0.76583700  1
  Si  Si3  1  0.90220600  0.03639400  0.26583700  1
  H  H0  1  0.74829900  0.64813600  0.57405200  1
  H  H1  1  0.24829900  0.85186400  0.07405200  1
  H  H2  1  0.25170100  0.35186400  0.42594800  1
  H  H3  1  0.75170100  0.14813600  0.92594800  1
  H  H4  1  0.95874200  0.59223100  0.67580400  1
  H  H5  1  0.45874200  0.90776900  0.17580400  1
  H  H6  1  0.04125800  0.40776900  0.32419600  1
  H  H7  1  0.54125800  0.09223100  0.82419600  1
  H  H8  1  0.43886200  0.13979500  0.40722600  1
  H  H9  1  0.93886200  0.36020500  0.90722600  1
  H  H10  1  0.56113800  0.86020500  0.59277400  1
  H  H11  1  0.06113800  0.63979500  0.09277400  1
  H  H12  1  0.39095500  0.14827500  0.54831000  1
  H  H13  1  0.89095500  0.35172500  0.04831000  1
  H  H14  1  0.60904500  0.85172500  0.45169000  1
  H  H15  1  0.10904500  0.64827500  0.95169000  1
  O  O0  1  0.88213400  0.58107000  0.58662400  1
  O  O1  1  0.38213400  0.91893000  0.08662400  1
  O  O2  1  0.11786600  0.41893000  0.41337600  1
  O  O3  1  0.61786600  0.08107000  0.91337600  1
  O  O4  1  0.45520400  0.20229000  0.48200400  1
  O  O5  1  0.95520400  0.29771000  0.98200400  1
  O  O6  1  0.54479600  0.79771000  0.51799600  1
  O  O7  1  0.04479600  0.70229000  0.01799600  1
  F  F0  1  0.39954500  0.41591800  0.15887200  1
  F  F1  1  0.89954500  0.08408200  0.65887200  1
  F  F2  1  0.60045500  0.58408200  0.84112800  1
  F  F3  1  0.10045500  0.91591800  0.34112800  1
  F  F4  1  0.80322700  0.65260100  0.31349200  1
  F  F5  1  0.30322700  0.84739900  0.81349200  1
  F  F6  1  0.19677300  0.34739900  0.68650800  1
  F  F7  1  0.69677300  0.15260100  0.18650800  1
  F  F8  1  0.37738900  0.63224700  0.28674600  1
  F  F9  1  0.87738900  0.86775300  0.78674600  1
  F  F10  1  0.62261100  0.36775300  0.71325400  1
  F  F11  1  0.12261100  0.13224700  0.21325400  1
  F  F12  1  0.82472900  0.44564500  0.18230200  1
  F  F13  1  0.32472900  0.05435500  0.68230200  1
  F  F14  1  0.17527100  0.55435500  0.81769800  1
  F  F15  1  0.67527100  0.94564500  0.31769800  1
  F  F16  1  0.56979600  0.64140900  0.10193100  1
  F  F17  1  0.06979600  0.85859100  0.60193100  1
  F  F18  1  0.43020400  0.35859100  0.89806900  1
  F  F19  1  0.93020400  0.14140900  0.39806900  1
  F  F20  1  0.62656800  0.43236500  0.36891100  1
  F  F21  1  0.12656800  0.06763500  0.86891100  1
  F  F22  1  0.37343200  0.56763500  0.63108900  1
  F  F23  1  0.87343200  0.93236500  0.13108900  1
loop_
_geom_bond_atom_site_label_1
_geom_bond_atom_site_label_2
_geom_bond_distance
_geom_bond_site_symmetry_2
Ca0 F20 2.351764 1_555
Ca0 F6 2.367005 1_655
Ca0 F19 2.375449 1_555
Ca0 F10 2.394436 1_555
Ca0 F1 2.462214 1_555
Ca0 O4 2.469706 1_555
Ca0 O2 2.503357 1_655
Ca0 O0 2.519863 1_555
Ca1 F21 2.351764 1_554
Ca1 F7 2.367005 1_555
Ca1 F18 2.375449 1_554
Ca1 F11 2.394436 1_555
Ca1 F0 2.462214 1_555
Ca1 O5 2.469706 1_454
Ca1 O3 2.503357 1_554
Ca1 O1 2.519863 1_545
Ca2 F22 2.351764 1_555
Ca2 F4 2.367005 1_455
Ca2 F17 2.375449 1_555
Ca2 F8 2.394436 1_555
Ca2 F3 2.462214 1_555
Ca2 O6 2.469706 1_555
Ca2 O0 2.503357 1_455
Ca2 O2 2.519863 1_555
Ca3 F23 2.351764 1_556
Ca3 F5 2.367005 1_555
Ca3 F16 2.375449 1_556
Ca3 F9 2.394436 1_555
Ca3 F2 2.462214 1_555
Ca3 O7 2.469706 1_656
Ca3 O1 2.503357 1_556
Ca3 O3 2.519863 1_565
H0 O0 0.990243 1_555
H1 O1 0.990243 1_555
H2 O2 0.990243 1_555
H3 O3 0.990243 1_555
H4 O0 0.985444 1_555
H5 O1 0.985444 1_555
H6 O2 0.985444 1_555
H7 O3 0.985444 1_555
H8 O4 0.977712 1_555
H9 O5 0.977712 1_555
H10 O6 0.977712 1_555
H11 O7 0.977712 1_555
H12 O4 0.987724 1_555
H13 O5 0.987724 1_554
H14 O6 0.987724 1_555
H15 O7 0.987724 1_556
F0 Si0 1.712083 1_555
F1 Si1 1.712083 1_645
F2 Si2 1.712083 1_555
F3 Si3 1.712083 1_465
F4 Si0 1.727589 1_555
F5 Si1 1.727589 1_555
F6 Si2 1.727589 1_555
F7 Si3 1.727589 1_555
F8 Si0 1.728078 1_555
F9 Si1 1.728078 1_655
F10 Si2 1.728078 1_555
F11 Si3 1.728078 1_455
F12 Si0 1.731289 1_555
F13 Si1 1.731289 1_545
F14 Si2 1.731289 1_555
F15 Si3 1.731289 1_565
F16 Si0 1.699080 1_555
F17 Si1 1.699080 1_555
F18 Si2 1.699080 1_555
F19 Si3 1.699080 1_555
F20 Si0 1.715479 1_555
F21 Si1 1.715479 1_545
F22 Si2 1.715479 1_555
F23 Si3 1.715479 1_565
