# generated using pymatgen
data_K2Ca5N4
_symmetry_space_group_name_H-M   'P 1'
_cell_length_a   7.92593266
_cell_length_b   7.92593266
_cell_length_c   16.82938710
_cell_angle_alpha   90.00000000
_cell_angle_beta   90.00000000
_cell_angle_gamma   90.00000000
_symmetry_Int_Tables_number   1
_chemical_formula_structural   K2Ca5N4
_chemical_formula_sum   'K8 Ca20 N16'
_cell_volume   1057.22897295
_cell_formula_units_Z   4
loop_
 _symmetry_equiv_pos_site_id
 _symmetry_equiv_pos_as_xyz
  1  'x, y, z'
loop_
 _atom_site_type_symbol
 _atom_site_label
 _atom_site_symmetry_multiplicity
 _atom_site_fract_x
 _atom_site_fract_y
 _atom_site_fract_z
 _atom_site_occupancy
  K  K0  1  0.08134113  0.91865887  0.25000000  1
  K  K1  1  0.41865887  0.91865887  0.75000000  1
  K  K2  1  0.08134113  0.58134113  0.75000000  1
  K  K3  1  0.41865887  0.58134113  0.25000000  1
  K  K4  1  0.91865887  0.08134113  0.75000000  1
  K  K5  1  0.58134113  0.08134113  0.25000000  1
  K  K6  1  0.91865887  0.41865887  0.25000000  1
  K  K7  1  0.58134113  0.41865887  0.75000000  1
  Ca  Ca0  1  0.75000000  0.75000000  0.40959855  1
  Ca  Ca1  1  0.75000000  0.75000000  0.90959855  1
  Ca  Ca2  1  0.25000000  0.25000000  0.59040145  1
  Ca  Ca3  1  0.25000000  0.25000000  0.09040145  1
  Ca  Ca4  1  0.13423591  0.57827524  0.43391962  1
  Ca  Ca5  1  0.36576409  0.57827524  0.93391962  1
  Ca  Ca6  1  0.13423591  0.92172476  0.93391962  1
  Ca  Ca7  1  0.36576409  0.92172476  0.43391962  1
  Ca  Ca8  1  0.57827524  0.13423591  0.93391962  1
  Ca  Ca9  1  0.92172476  0.13423591  0.43391962  1
  Ca  Ca10  1  0.57827524  0.36576409  0.43391962  1
  Ca  Ca11  1  0.92172476  0.36576409  0.93391962  1
  Ca  Ca12  1  0.86576409  0.42172476  0.56608038  1
  Ca  Ca13  1  0.63423591  0.42172476  0.06608038  1
  Ca  Ca14  1  0.86576409  0.07827524  0.06608038  1
  Ca  Ca15  1  0.63423591  0.07827524  0.56608038  1
  Ca  Ca16  1  0.42172476  0.86576409  0.06608038  1
  Ca  Ca17  1  0.07827524  0.86576409  0.56608038  1
  Ca  Ca18  1  0.42172476  0.63423591  0.56608038  1
  Ca  Ca19  1  0.07827524  0.63423591  0.06608038  1
  N  N0  1  0.63442791  0.05284736  0.41755790  1
  N  N1  1  0.86557209  0.05284736  0.91755790  1
  N  N2  1  0.63442791  0.44715264  0.91755790  1
  N  N3  1  0.86557209  0.44715264  0.41755790  1
  N  N4  1  0.05284736  0.63442791  0.91755790  1
  N  N5  1  0.44715264  0.63442791  0.41755790  1
  N  N6  1  0.05284736  0.86557209  0.41755790  1
  N  N7  1  0.44715264  0.86557209  0.91755790  1
  N  N8  1  0.36557209  0.94715264  0.58244210  1
  N  N9  1  0.13442791  0.94715264  0.08244210  1
  N  N10  1  0.36557209  0.55284736  0.08244210  1
  N  N11  1  0.13442791  0.55284736  0.58244210  1
  N  N12  1  0.94715264  0.36557209  0.08244210  1
  N  N13  1  0.55284736  0.36557209  0.58244210  1
  N  N14  1  0.94715264  0.13442791  0.58244210  1
  N  N15  1  0.55284736  0.13442791  0.08244210  1
loop_
_geom_bond_atom_site_label_1
_geom_bond_atom_site_label_2
_geom_bond_distance
_geom_bond_site_symmetry_2
K0 N6 2.860046 1_555
K0 N9 2.860046 1_555
K1 N8 2.860046 1_555
K1 N7 2.860046 1_555
K2 N11 2.860046 1_555
K2 N4 2.860046 1_555
K3 N10 2.860046 1_555
K3 N5 2.860046 1_555
K4 N1 2.860046 1_555
K4 N14 2.860046 1_555
K5 N15 2.860046 1_555
K5 N0 2.860046 1_555
K6 N12 2.860046 1_555
K6 N3 2.860046 1_555
K7 N13 2.860046 1_555
K7 N2 2.860046 1_555
Ca0 N0 2.572683 1_565
Ca0 N6 2.572683 1_655
Ca0 N3 2.572683 1_555
Ca0 N5 2.572683 1_555
Ca1 N4 2.572683 1_655
Ca1 N1 2.572683 1_565
Ca1 N2 2.572683 1_555
Ca1 N7 2.572683 1_555
Ca2 N14 2.572683 1_455
Ca2 N11 2.572683 1_555
Ca2 N8 2.572683 1_545
Ca2 N13 2.572683 1_555
Ca3 N12 2.572683 1_455
Ca3 N9 2.572683 1_545
Ca3 N15 2.572683 1_555
Ca3 N10 2.572683 1_555
Ca4 N6 2.382670 1_555
Ca4 N3 2.385434 1_455
Ca4 N11 2.507655 1_555
Ca4 N5 2.534774 1_555
Ca5 N7 2.382670 1_555
Ca5 N2 2.385434 1_555
Ca5 N10 2.507655 1_556
Ca5 N4 2.534774 1_555
Ca6 N4 2.382670 1_555
Ca6 N1 2.385434 1_465
Ca6 N9 2.507655 1_556
Ca6 N7 2.534774 1_555
Ca7 N5 2.382670 1_555
Ca7 N0 2.385434 1_565
Ca7 N8 2.507655 1_555
Ca7 N6 2.534774 1_555
Ca8 N1 2.382670 1_555
Ca8 N7 2.385434 1_545
Ca8 N15 2.507655 1_556
Ca8 N2 2.534774 1_555
Ca9 N0 2.382670 1_555
Ca9 N6 2.385434 1_645
Ca9 N14 2.507655 1_555
Ca9 N3 2.534774 1_555
Ca10 N3 2.382670 1_555
Ca10 N5 2.385434 1_555
Ca10 N13 2.507655 1_555
Ca10 N0 2.534774 1_555
Ca11 N2 2.382670 1_555
Ca11 N4 2.385434 1_655
Ca11 N12 2.507655 1_556
Ca11 N1 2.534774 1_555
Ca12 N14 2.382670 1_555
Ca12 N11 2.385434 1_655
Ca12 N3 2.507655 1_555
Ca12 N13 2.534774 1_555
Ca13 N15 2.382670 1_555
Ca13 N10 2.385434 1_555
Ca13 N2 2.507655 1_554
Ca13 N12 2.534774 1_555
Ca14 N12 2.382670 1_555
Ca14 N9 2.385434 1_645
Ca14 N1 2.507655 1_554
Ca14 N15 2.534774 1_555
Ca15 N13 2.382670 1_555
Ca15 N8 2.385434 1_545
Ca15 N0 2.507655 1_555
Ca15 N14 2.534774 1_555
Ca16 N9 2.382670 1_555
Ca16 N15 2.385434 1_565
Ca16 N7 2.507655 1_554
Ca16 N10 2.534774 1_555
Ca17 N8 2.382670 1_555
Ca17 N14 2.385434 1_465
Ca17 N6 2.507655 1_555
Ca17 N11 2.534774 1_555
Ca18 N11 2.382670 1_555
Ca18 N13 2.385434 1_555
Ca18 N5 2.507655 1_555
Ca18 N8 2.534774 1_555
Ca19 N10 2.382670 1_555
Ca19 N12 2.385434 1_455
Ca19 N4 2.507655 1_554
Ca19 N9 2.534774 1_555
