# generated using pymatgen
data_ZnSnS3
_symmetry_space_group_name_H-M   'P 1'
_cell_length_a   6.86009815
_cell_length_b   6.86009815
_cell_length_c   6.86009869
_cell_angle_alpha   55.93674715
_cell_angle_beta   55.93674715
_cell_angle_gamma   55.93674573
_symmetry_Int_Tables_number   1
_chemical_formula_structural   ZnSnS3
_chemical_formula_sum   'Zn2 Sn2 S6'
_cell_volume   206.78893400
_cell_formula_units_Z   2
loop_
 _symmetry_equiv_pos_site_id
 _symmetry_equiv_pos_as_xyz
  1  'x, y, z'
loop_
 _atom_site_type_symbol
 _atom_site_label
 _atom_site_symmetry_multiplicity
 _atom_site_fract_x
 _atom_site_fract_y
 _atom_site_fract_z
 _atom_site_occupancy
  Zn  Zn0  1  0.79089700  0.79089700  0.79089700  1
  Zn  Zn1  1  0.29089700  0.29089700  0.29089700  1
  Sn  Sn0  1  0.50555000  0.50555000  0.50555000  1
  Sn  Sn1  1  0.00555000  0.00555000  0.00555000  1
  S  S0  1  0.18915900  0.59278400  0.91101000  1
  S  S1  1  0.91101000  0.18915900  0.59278400  1
  S  S2  1  0.59278400  0.91101000  0.18915900  1
  S  S3  1  0.09278400  0.68915900  0.41101000  1
  S  S4  1  0.41101000  0.09278400  0.68915900  1
  S  S5  1  0.68915900  0.41101000  0.09278400  1
loop_
_geom_bond_atom_site_label_1
_geom_bond_atom_site_label_2
_geom_bond_distance
_geom_bond_site_symmetry_2
S0 Zn1 2.437223 1_556
S0 Sn0 2.540174 1_555
S0 Zn0 2.664272 1_455
S0 Sn1 2.678044 1_566
S1 Zn1 2.437222 1_655
S1 Sn0 2.540174 1_555
S1 Zn0 2.664272 1_545
S1 Sn1 2.678044 1_656
S2 Zn1 2.437222 1_565
S2 Sn0 2.540174 1_555
S2 Zn0 2.664272 1_554
S2 Sn1 2.678044 1_665
S3 Zn0 2.437223 1_455
S3 Sn1 2.540174 1_565
S3 Zn1 2.664272 1_555
S3 Sn0 2.678044 1_555
S4 Zn0 2.437222 1_545
S4 Sn1 2.540174 1_556
S4 Zn1 2.664272 1_555
S4 Sn0 2.678044 1_555
S5 Zn0 2.437222 1_554
S5 Sn1 2.540174 1_655
S5 Zn1 2.664272 1_555
S5 Sn0 2.678044 1_555
