# generated using pymatgen
data_ZrTi3As2
_symmetry_space_group_name_H-M   'P 1'
_cell_length_a   7.75991036
_cell_length_b   7.75991036
_cell_length_c   7.75991036
_cell_angle_alpha   152.20683323
_cell_angle_beta   152.20683323
_cell_angle_gamma   39.71133393
_symmetry_Int_Tables_number   1
_chemical_formula_structural   ZrTi3As2
_chemical_formula_sum   'Zr1 Ti3 As2'
_cell_volume   101.40296140
_cell_formula_units_Z   1
loop_
 _symmetry_equiv_pos_site_id
 _symmetry_equiv_pos_as_xyz
  1  'x, y, z'
loop_
 _atom_site_type_symbol
 _atom_site_label
 _atom_site_symmetry_multiplicity
 _atom_site_fract_x
 _atom_site_fract_y
 _atom_site_fract_z
 _atom_site_occupancy
  Zr  Zr0  1  0.68132483  0.68132483  -0.00000000  1
  Ti  Ti0  1  0.99820709  0.49820709  0.50000000  1
  Ti  Ti1  1  0.49820709  0.99820709  0.50000000  1
  Ti  Ti2  1  0.32271144  0.32271144  0.00000000  1
  As  As0  1  0.86716773  0.86716773  0.00000000  1
  As  As1  1  0.13238282  0.13238282  -0.00000000  1
loop_
_geom_bond_atom_site_label_1
_geom_bond_atom_site_label_2
_geom_bond_distance
_geom_bond_site_symmetry_2
As0 Ti0 2.670618 1_565
As0 Ti0 2.670618 1_554
As0 Ti1 2.670618 1_655
As0 Ti1 2.670618 1_554
As0 Zr0 2.712783 1_555
As0 Ti2 2.714381 1_554
As0 Ti2 2.714381 1_655
As0 Ti2 2.714381 1_565
As0 Ti2 2.714381 1_666
As1 Ti0 2.703598 1_455
As1 Ti1 2.703598 1_444
As1 Ti1 2.703598 1_545
As1 Ti0 2.703598 1_444
As1 Zr0 2.730776 1_545
As1 Zr0 2.730776 1_455
As1 Zr0 2.730776 1_556
As1 Zr0 2.730776 1_444
As1 Ti2 2.778262 1_555
