# generated using pymatgen
data_Li4Zr3O8
_symmetry_space_group_name_H-M   'P 1'
_cell_length_a   5.46520982
_cell_length_b   5.46520982
_cell_length_c   6.21606000
_cell_angle_alpha   90.00000000
_cell_angle_beta   90.00000000
_cell_angle_gamma   111.56416470
_symmetry_Int_Tables_number   1
_chemical_formula_structural   Li4Zr3O8
_chemical_formula_sum   'Li4 Zr3 O8'
_cell_volume   172.66920214
_cell_formula_units_Z   1
loop_
 _symmetry_equiv_pos_site_id
 _symmetry_equiv_pos_as_xyz
  1  'x, y, z'
loop_
 _atom_site_type_symbol
 _atom_site_label
 _atom_site_symmetry_multiplicity
 _atom_site_fract_x
 _atom_site_fract_y
 _atom_site_fract_z
 _atom_site_occupancy
  Li  Li0  1  0.50000000  0.00000000  0.75543400  1
  Li  Li1  1  0.00000000  0.50000000  0.24456600  1
  Li  Li2  1  0.00000000  0.00000000  0.50000000  1
  Li  Li3  1  0.50000000  0.50000000  0.00000000  1
  Zr  Zr0  1  0.00000000  0.00000000  0.00000000  1
  Zr  Zr1  1  0.00000000  0.50000000  0.72270600  1
  Zr  Zr2  1  0.50000000  0.00000000  0.27729400  1
  O  O0  1  0.73631800  0.78089500  0.23225100  1
  O  O1  1  0.21910500  0.26368200  0.76774900  1
  O  O2  1  0.76731900  0.23268100  0.50000000  1
  O  O3  1  0.24100900  0.75899100  0.00000000  1
  O  O4  1  0.75899100  0.24100900  0.00000000  1
  O  O5  1  0.23268100  0.76731900  0.50000000  1
  O  O6  1  0.78089500  0.73631800  0.76774900  1
  O  O7  1  0.26368200  0.21910500  0.23225100  1
loop_
_geom_bond_atom_site_label_1
_geom_bond_atom_site_label_2
_geom_bond_distance
_geom_bond_site_symmetry_2
Li0 O4 2.163110 1_556
Li0 O3 2.163110 1_546
Li0 O5 2.215155 1_545
Li0 O2 2.215155 1_555
Li0 O6 2.462815 1_545
Li0 O1 2.462815 1_555
Li1 O3 2.163110 1_555
Li1 O4 2.163110 1_455
Li1 O5 2.215155 1_555
Li1 O2 2.215155 1_455
Li1 O0 2.462815 1_455
Li1 O7 2.462815 1_555
Li2 O5 2.103068 1_545
Li2 O2 2.103068 1_455
Li2 O0 2.238785 1_445
Li2 O1 2.238785 1_555
Li2 O6 2.238785 1_445
Li2 O7 2.238785 1_555
Li3 O6 2.156736 1_554
Li3 O0 2.156736 1_555
Li3 O1 2.156736 1_554
Li3 O7 2.156736 1_555
Li3 O3 2.340868 1_555
Li3 O4 2.340868 1_555
O0 Zr2 2.077782 1_565
O0 Zr0 2.079988 1_665
O1 Zr1 2.077782 1_555
O1 Zr0 2.079988 1_556
O2 Zr1 2.074189 1_655
O2 Zr2 2.074189 1_555
O3 Zr0 2.178340 1_565
O3 Zr2 2.310624 1_565
O3 Zr1 2.310624 1_554
O4 Zr0 2.178340 1_655
O4 Zr2 2.310624 1_555
O4 Zr1 2.310624 1_654
O5 Zr1 2.074189 1_555
O5 Zr2 2.074189 1_565
O6 Zr1 2.077782 1_655
O6 Zr0 2.079988 1_666
O7 Zr2 2.077782 1_555
O7 Zr0 2.079988 1_555
