# generated using pymatgen
data_CsReO2
_symmetry_space_group_name_H-M   'P 1'
_cell_length_a   6.76619300
_cell_length_b   6.76619300
_cell_length_c   8.64427503
_cell_angle_alpha   113.03967863
_cell_angle_beta   113.03967863
_cell_angle_gamma   90.00000000
_symmetry_Int_Tables_number   1
_chemical_formula_structural   CsReO2
_chemical_formula_sum   'Cs4 Re4 O8'
_cell_volume   329.60295685
_cell_formula_units_Z   4
loop_
 _symmetry_equiv_pos_site_id
 _symmetry_equiv_pos_as_xyz
  1  'x, y, z'
loop_
 _atom_site_type_symbol
 _atom_site_label
 _atom_site_symmetry_multiplicity
 _atom_site_fract_x
 _atom_site_fract_y
 _atom_site_fract_z
 _atom_site_occupancy
  Cs  Cs0  1  0.62500000  0.87500000  0.25000000  1
  Cs  Cs1  1  0.62500000  0.37500000  0.25000000  1
  Cs  Cs2  1  0.62500000  0.37500000  0.75000000  1
  Cs  Cs3  1  0.12500000  0.37500000  0.75000000  1
  Re  Re0  1  0.12500000  0.37500000  0.25000000  1
  Re  Re1  1  0.12500000  0.87500000  0.25000000  1
  Re  Re2  1  0.12500000  0.87500000  0.75000000  1
  Re  Re3  1  0.62500000  0.87500000  0.75000000  1
  O  O0  1  0.30376800  0.14319200  0.27061800  1
  O  O1  1  0.96685100  0.12742600  0.27061800  1
  O  O2  1  0.37742600  0.05376800  0.77061800  1
  O  O3  1  0.94623200  0.60680800  0.22938200  1
  O  O4  1  0.39319200  0.71685100  0.77061800  1
  O  O5  1  0.28314900  0.62257400  0.22938200  1
  O  O6  1  0.87257400  0.69623200  0.72938200  1
  O  O7  1  0.85680800  0.03314900  0.72938200  1
loop_
_geom_bond_atom_site_label_1
_geom_bond_atom_site_label_2
_geom_bond_distance
_geom_bond_site_symmetry_2
Cs0 O1 2.781737 1_565
Cs0 O5 2.781737 1_555
Cs0 O0 2.845861 1_565
Cs0 O3 2.845861 1_555
Cs0 O7 3.495539 1_565
Cs0 O4 3.495539 1_554
Cs1 O0 2.781731 1_555
Cs1 O3 2.781731 1_555
Cs1 O5 2.845866 1_555
Cs1 O1 2.845866 1_555
Cs1 O6 3.495538 1_555
Cs1 O2 3.495538 1_554
Cs2 O7 2.781737 1_555
Cs2 O4 2.781737 1_555
Cs2 O6 2.845861 1_555
Cs2 O2 2.845861 1_555
Cs2 O3 3.495538 1_556
Cs2 O0 3.495538 1_555
Cs3 O6 2.781731 1_455
Cs3 O2 2.781731 1_555
Cs3 O7 2.845866 1_455
Cs3 O4 2.845866 1_555
Cs3 O5 3.495539 1_556
Cs3 O1 3.495539 1_455
O0 Re0 2.001242 1_555
O0 Re1 2.089465 1_545
O1 Re1 2.001238 1_645
O1 Re0 2.089462 1_655
O2 Re2 2.001242 1_545
O2 Re3 2.089465 1_545
O3 Re0 2.001242 1_655
O3 Re1 2.089465 1_655
O4 Re3 2.001239 1_555
O4 Re2 2.089462 1_555
O5 Re1 2.001238 1_555
O5 Re0 2.089462 1_555
O6 Re2 2.001242 1_655
O6 Re3 2.089465 1_555
O7 Re3 2.001239 1_545
O7 Re2 2.089462 1_645
