# generated using pymatgen
data_AlCu3(SbO3)4
_symmetry_space_group_name_H-M   'P 1'
_cell_length_a   6.81623481
_cell_length_b   6.81623481
_cell_length_c   6.81623481
_cell_angle_alpha   109.47122063
_cell_angle_beta   109.47122063
_cell_angle_gamma   109.47122063
_symmetry_Int_Tables_number   1
_chemical_formula_structural   AlCu3(SbO3)4
_chemical_formula_sum   'Al1 Cu3 Sb4 O12'
_cell_volume   243.78767025
_cell_formula_units_Z   1
loop_
 _symmetry_equiv_pos_site_id
 _symmetry_equiv_pos_as_xyz
  1  'x, y, z'
loop_
 _atom_site_type_symbol
 _atom_site_label
 _atom_site_symmetry_multiplicity
 _atom_site_fract_x
 _atom_site_fract_y
 _atom_site_fract_z
 _atom_site_occupancy
  Al  Al0  1  0.00000000  0.00000000  0.00000000  1
  Cu  Cu0  1  0.00000000  0.50000000  0.50000000  1
  Cu  Cu1  1  0.50000000  0.00000000  0.50000000  1
  Cu  Cu2  1  0.50000000  0.50000000  0.00000000  1
  Sb  Sb0  1  0.00000000  0.00000000  0.50000000  1
  Sb  Sb1  1  0.00000000  0.50000000  0.00000000  1
  Sb  Sb2  1  0.50000000  0.00000000  0.00000000  1
  Sb  Sb3  1  0.50000000  0.50000000  0.50000000  1
  O  O0  1  0.30191900  0.12812700  0.82620800  1
  O  O1  1  0.69808100  0.87187300  0.17379200  1
  O  O2  1  0.69808100  0.52428900  0.82620800  1
  O  O3  1  0.47571100  0.17379200  0.30191900  1
  O  O4  1  0.17379200  0.30191900  0.47571100  1
  O  O5  1  0.82620800  0.30191900  0.12812700  1
  O  O6  1  0.87187300  0.17379200  0.69808100  1
  O  O7  1  0.82620800  0.69808100  0.52428900  1
  O  O8  1  0.30191900  0.47571100  0.17379200  1
  O  O9  1  0.52428900  0.82620800  0.69808100  1
  O  O10  1  0.17379200  0.69808100  0.87187300  1
  O  O11  1  0.12812700  0.82620800  0.30191900  1
loop_
_geom_bond_atom_site_label_1
_geom_bond_atom_site_label_2
_geom_bond_distance
_geom_bond_site_symmetry_2
Cu0 O5 2.074044 1_455
Cu0 O10 2.074044 1_555
Cu0 O4 2.074044 1_555
Cu0 O7 2.074044 1_455
Cu1 O11 2.074044 1_545
Cu1 O6 2.074044 1_555
Cu1 O3 2.074044 1_555
Cu1 O9 2.074044 1_545
Cu2 O0 2.074044 1_554
Cu2 O1 2.074044 1_555
Cu2 O8 2.074044 1_555
Cu2 O2 2.074044 1_554
O0 Sb0 2.097264 1_555
O0 Sb2 2.097264 1_556
O1 Sb2 2.097264 1_565
O1 Sb0 2.097264 1_665
O2 Sb3 2.097264 1_555
O2 Sb1 2.097264 1_656
O3 Sb3 2.097264 1_555
O3 Sb2 2.097264 1_555
O4 Sb3 2.097264 1_555
O4 Sb0 2.097264 1_555
O5 Sb2 2.097264 1_555
O5 Sb1 2.097264 1_655
O6 Sb0 2.097264 1_655
O6 Sb1 2.097264 1_656
O7 Sb3 2.097264 1_555
O7 Sb0 2.097264 1_665
O8 Sb3 2.097264 1_555
O8 Sb1 2.097264 1_555
O9 Sb3 2.097264 1_555
O9 Sb2 2.097264 1_566
O10 Sb1 2.097264 1_556
O10 Sb2 2.097264 1_566
O11 Sb1 2.097264 1_555
O11 Sb0 2.097264 1_565
