# generated using pymatgen
data_SeS7
_symmetry_space_group_name_H-M   'P 1'
_cell_length_a   4.84764450
_cell_length_b   9.39907372
_cell_length_c   15.11216180
_cell_angle_alpha   89.98312424
_cell_angle_beta   89.78713167
_cell_angle_gamma   89.95586560
_symmetry_Int_Tables_number   1
_chemical_formula_structural   SeS7
_chemical_formula_sum   'Se3 S21'
_cell_volume   688.55600444
_cell_formula_units_Z   3
loop_
 _symmetry_equiv_pos_site_id
 _symmetry_equiv_pos_as_xyz
  1  'x, y, z'
loop_
 _atom_site_type_symbol
 _atom_site_label
 _atom_site_symmetry_multiplicity
 _atom_site_fract_x
 _atom_site_fract_y
 _atom_site_fract_z
 _atom_site_occupancy
  Se  Se0  1  0.50011747  0.17884241  0.61257335  1
  Se  Se1  1  0.49175070  0.81992096  0.61369241  1
  Se  Se2  1  0.01266015  0.32161757  0.88703746  1
  S  S0  1  0.26115368  0.22945179  0.49230333  1
  S  S1  1  0.73316757  0.76847688  0.49337601  1
  S  S2  1  0.76620812  0.27438821  0.00676018  1
  S  S3  1  0.22924376  0.73319422  0.00139226  1
  S  S4  1  0.73400930  0.37434483  0.64323732  1
  S  S5  1  0.25829979  0.62436644  0.64572887  1
  S  S6  1  0.24095985  0.12320363  0.85883682  1
  S  S7  1  0.77316059  0.86796310  0.86097614  1
  S  S8  1  0.27129446  0.63115670  0.35688054  1
  S  S9  1  0.72811668  0.36933963  0.35775106  1
  S  S10  1  0.76916993  0.86954956  0.14032510  1
  S  S11  1  0.22771495  0.12986348  0.14080969  1
  S  S12  1  0.99945981  0.68980281  0.89078987  1
  S  S13  1  0.49825763  0.80999972  0.38434822  1
  S  S14  1  0.50111352  0.18967301  0.38360034  1
  S  S15  1  0.99463988  0.69046122  0.11150622  1
  S  S16  1  0.00394924  0.31091269  0.11587904  1
  S  S17  1  0.49848553  0.49898156  0.72491739  1
  S  S18  1  0.00569694  0.99568691  0.77931023  1
  S  S19  1  0.50215427  0.50035321  0.27676582  1
  S  S20  1  0.99921919  0.99845047  0.22120332  1
loop_
_geom_bond_atom_site_label_1
_geom_bond_atom_site_label_2
_geom_bond_distance
_geom_bond_site_symmetry_2
S0 S14 2.043770 1_555
S0 Se0 2.210414 1_555
S1 S13 2.043699 1_555
S1 Se1 2.212067 1_555
S2 Se2 2.209555 1_654
S4 Se0 2.210084 1_555
S5 Se1 2.211804 1_555
S6 Se2 2.208643 1_555
S10 S15 2.052257 1_555
S10 S20 2.053894 1_555
S11 S16 2.052847 1_555
S11 S20 2.054216 1_445
S12 S7 2.052056 1_555
S12 S3 2.053237 1_656
S13 S8 2.053071 1_555
S14 S9 2.052933 1_555
S15 S3 2.051844 1_655
S16 S2 2.044605 1_455
S17 S5 2.045499 1_555
S17 S4 2.046429 1_555
S18 S6 2.048091 1_565
S18 S7 2.055690 1_455
S19 S8 2.053886 1_555
S19 S9 2.054523 1_555
