# generated using pymatgen
data_DyFeB4
_symmetry_space_group_name_H-M   'P 1'
_cell_length_a   3.41274990
_cell_length_b   5.88876298
_cell_length_c   11.40213121
_cell_angle_alpha   90.00000000
_cell_angle_beta   90.00000000
_cell_angle_gamma   90.00000000
_symmetry_Int_Tables_number   1
_chemical_formula_structural   DyFeB4
_chemical_formula_sum   'Dy4 Fe4 B16'
_cell_volume   229.14720875
_cell_formula_units_Z   4
loop_
 _symmetry_equiv_pos_site_id
 _symmetry_equiv_pos_as_xyz
  1  'x, y, z'
loop_
 _atom_site_type_symbol
 _atom_site_label
 _atom_site_symmetry_multiplicity
 _atom_site_fract_x
 _atom_site_fract_y
 _atom_site_fract_z
 _atom_site_occupancy
  Dy  Dy0  1  -0.00000000  0.62725375  0.34969504  1
  Dy  Dy1  1  -0.00000000  0.37274625  0.65030496  1
  Dy  Dy2  1  0.00000000  0.12725375  0.15030496  1
  Dy  Dy3  1  0.00000000  0.87274625  0.84969504  1
  Fe  Fe0  1  -0.00000000  0.62873181  0.08373366  1
  Fe  Fe1  1  0.00000000  0.37126819  0.91626634  1
  Fe  Fe2  1  -0.00000000  0.12873181  0.41626634  1
  Fe  Fe3  1  0.00000000  0.87126819  0.58373366  1
  B  B0  1  0.50000000  0.78124730  0.18341037  1
  B  B1  1  0.50000000  0.21875270  0.81658963  1
  B  B2  1  0.50000000  0.28124730  0.31658963  1
  B  B3  1  0.50000000  0.71875270  0.68341037  1
  B  B4  1  0.50000000  0.86134678  0.03286708  1
  B  B5  1  0.50000000  0.13865322  0.96713292  1
  B  B6  1  0.50000000  0.36134678  0.46713292  1
  B  B7  1  0.50000000  0.63865322  0.53286708  1
  B  B8  1  0.50000000  0.88768994  0.45342484  1
  B  B9  1  0.50000000  0.11231006  0.54657516  1
  B  B10  1  0.50000000  0.38768994  0.04657516  1
  B  B11  1  0.50000000  0.61231006  0.95342484  1
  B  B12  1  0.50000000  0.97763311  0.30949130  1
  B  B13  1  0.50000000  0.02236689  0.69050870  1
  B  B14  1  0.50000000  0.47763311  0.19050870  1
  B  B15  1  0.50000000  0.52236689  0.80949130  1
loop_
_geom_bond_atom_site_label_1
_geom_bond_atom_site_label_2
_geom_bond_distance
_geom_bond_site_symmetry_2
B0 B4 1.780143 1_555
B0 B14 1.789743 1_555
B0 B12 1.845018 1_555
B0 Fe0 2.238312 1_655
B0 Fe0 2.238312 1_555
B0 Dy2 2.684364 1_665
B0 Dy2 2.684364 1_565
B0 Dy0 2.707189 1_655
B0 Dy0 2.707189 1_555
B1 B5 1.780143 1_555
B1 B15 1.789743 1_555
B1 B13 1.845018 1_555
B1 Fe1 2.238312 1_655
B1 Fe1 2.238312 1_555
B1 Dy3 2.684364 1_645
B1 Dy3 2.684364 1_545
B1 Dy1 2.707189 1_555
B1 Dy1 2.707189 1_655
B2 B6 1.780143 1_555
B2 Fe2 2.238312 1_655
B2 Fe2 2.238312 1_555
B2 Dy0 2.684364 1_555
B2 Dy0 2.684364 1_655
B2 Dy2 2.707189 1_555
B2 Dy2 2.707189 1_655
B3 B7 1.780143 1_555
B3 Fe3 2.238312 1_555
B3 Fe3 2.238312 1_655
B3 Dy1 2.684364 1_555
B3 Dy1 2.684364 1_655
B3 Dy3 2.707189 1_555
B3 Dy3 2.707189 1_655
B4 B5 1.796782 1_564
B4 Fe0 2.263734 1_655
B4 Fe0 2.263734 1_555
B4 Dy2 2.675197 1_565
B4 Dy2 2.675197 1_665
B4 Dy3 2.697827 1_554
B4 Dy3 2.697827 1_654
B5 Fe1 2.263734 1_555
B5 Fe1 2.263734 1_655
B5 Dy3 2.675197 1_545
B5 Dy3 2.675197 1_645
B5 Dy2 2.697827 1_556
B5 Dy2 2.697827 1_656
B6 B9 1.723708 1_555
B6 B7 1.796782 1_555
B6 Fe2 2.263734 1_655
B6 Fe2 2.263734 1_555
B6 Dy0 2.675197 1_655
B6 Dy0 2.675197 1_555
B6 Dy1 2.697827 1_555
B6 Dy1 2.697827 1_655
B7 B8 1.723708 1_555
B7 Fe3 2.263734 1_555
B7 Fe3 2.263734 1_655
B7 Dy1 2.675197 1_555
B7 Dy1 2.675197 1_655
B7 Dy0 2.697827 1_655
B7 Dy0 2.697827 1_555
B8 B9 1.696381 1_565
B8 Fe2 2.259653 1_665
B8 Fe2 2.259653 1_565
B8 Fe3 2.264655 1_655
B8 Fe3 2.264655 1_555
B8 Dy0 2.581214 1_655
B8 Dy0 2.581214 1_555
B9 Fe3 2.259653 1_545
B9 Fe3 2.259653 1_645
B9 Fe2 2.264655 1_555
B9 Fe2 2.264655 1_655
B9 Dy1 2.581214 1_655
B9 Dy1 2.581214 1_555
B10 B11 1.696381 1_554
B10 B5 1.723708 1_554
B10 B14 1.724501 1_555
B10 Fe0 2.259653 1_655
B10 Fe0 2.259653 1_555
B10 Fe1 2.264655 1_654
B10 Fe1 2.264655 1_554
B10 Dy2 2.581214 1_555
B10 Dy2 2.581214 1_655
B11 B4 1.723708 1_556
B11 B15 1.724501 1_555
B11 Fe1 2.259653 1_555
B11 Fe1 2.259653 1_655
B11 Fe0 2.264655 1_556
B11 Fe0 2.264655 1_656
B11 Dy3 2.581214 1_555
B11 Dy3 2.581214 1_655
B12 B8 1.724501 1_555
B12 B2 1.789743 1_565
B12 Fe2 2.277202 1_565
B12 Fe2 2.277202 1_665
B12 Dy2 2.642437 1_565
B12 Dy2 2.642437 1_665
B12 Dy0 2.716443 1_555
B12 Dy0 2.716443 1_655
B13 B9 1.724501 1_555
B13 B3 1.789743 1_545
B13 Fe3 2.277202 1_545
B13 Fe3 2.277202 1_645
B13 Dy3 2.642437 1_645
B13 Dy3 2.642437 1_545
B13 Dy1 2.716443 1_555
B13 Dy1 2.716443 1_655
B14 B2 1.845018 1_555
B14 Fe0 2.277202 1_655
B14 Fe0 2.277202 1_555
B14 Dy0 2.642437 1_655
B14 Dy0 2.642437 1_555
B14 Dy2 2.716443 1_555
B14 Dy2 2.716443 1_655
B15 B3 1.845018 1_555
B15 Fe1 2.277202 1_555
B15 Fe1 2.277202 1_655
B15 Dy1 2.642437 1_655
B15 Dy1 2.642437 1_555
B15 Dy3 2.716443 1_555
B15 Dy3 2.716443 1_655
