# generated using pymatgen
data_NbFeO3
_symmetry_space_group_name_H-M   'P 1'
_cell_length_a   4.00364200
_cell_length_b   4.00364200
_cell_length_c   4.00364200
_cell_angle_alpha   90.00000000
_cell_angle_beta   90.00000000
_cell_angle_gamma   90.00000000
_symmetry_Int_Tables_number   1
_chemical_formula_structural   NbFeO3
_chemical_formula_sum   'Nb1 Fe1 O3'
_cell_volume   64.17497522
_cell_formula_units_Z   1
loop_
 _symmetry_equiv_pos_site_id
 _symmetry_equiv_pos_as_xyz
  1  'x, y, z'
loop_
 _atom_site_type_symbol
 _atom_site_label
 _atom_site_symmetry_multiplicity
 _atom_site_fract_x
 _atom_site_fract_y
 _atom_site_fract_z
 _atom_site_occupancy
  Nb  Nb0  1  0.50000000  0.50000000  0.50000000  1
  Fe  Fe0  1  0.00000000  0.00000000  0.00000000  1
  O  O0  1  0.50000000  0.50000000  0.00000000  1
  O  O1  1  0.50000000  0.00000000  0.50000000  1
  O  O2  1  0.00000000  0.50000000  0.50000000  1
loop_
_geom_bond_atom_site_label_1
_geom_bond_atom_site_label_2
_geom_bond_distance
_geom_bond_site_symmetry_2
Nb0 O0 2.001821 1_555
Nb0 O2 2.001821 1_555
Nb0 O1 2.001821 1_565
Nb0 O0 2.001821 1_556
Nb0 O2 2.001821 1_655
Nb0 O1 2.001821 1_555
Fe0 O0 2.831002 1_455
Fe0 O2 2.831002 1_544
Fe0 O2 2.831002 1_545
Fe0 O1 2.831002 1_555
Fe0 O1 2.831002 1_455
Fe0 O1 2.831002 1_454
Fe0 O1 2.831002 1_554
Fe0 O0 2.831002 1_545
Fe0 O0 2.831002 1_555
Fe0 O0 2.831002 1_445
Fe0 O2 2.831002 1_555
Fe0 O2 2.831002 1_554
