# generated using pymatgen
data_K2PrN5O17
_symmetry_space_group_name_H-M   'P 1'
_cell_length_a   12.44012632
_cell_length_b   12.21490447
_cell_length_c   8.43704759
_cell_angle_alpha   71.43270685
_cell_angle_beta   68.55801550
_cell_angle_gamma   40.00927765
_symmetry_Int_Tables_number   1
_chemical_formula_structural   K2PrN5O17
_chemical_formula_sum   'K4 Pr2 N10 O34'
_cell_volume   765.61511298
_cell_formula_units_Z   2
loop_
 _symmetry_equiv_pos_site_id
 _symmetry_equiv_pos_as_xyz
  1  'x, y, z'
loop_
 _atom_site_type_symbol
 _atom_site_label
 _atom_site_symmetry_multiplicity
 _atom_site_fract_x
 _atom_site_fract_y
 _atom_site_fract_z
 _atom_site_occupancy
  K  K0  1  0.10696900  0.68739500  0.42766100  1
  K  K1  1  0.42766100  0.77797400  0.10696900  1
  K  K2  1  0.56260500  0.14303100  0.47202600  1
  K  K3  1  0.47202600  0.82233900  0.56260500  1
  Pr  Pr0  1  0.75586500  0.24413500  0.75586500  1
  Pr  Pr1  1  0.00586500  0.49413500  0.00586500  1
  N  N0  1  0.09061400  0.05937600  0.82749300  1
  N  N1  1  0.82749300  0.02251700  0.09061400  1
  N  N2  1  0.19062400  0.15938600  0.22748300  1
  N  N3  1  0.22748300  0.42250700  0.19062400  1
  N  N4  1  0.95419600  0.06433700  0.42372600  1
  N  N5  1  0.42372600  0.55774100  0.95419600  1
  N  N6  1  0.18566300  0.29580400  0.69225900  1
  N  N7  1  0.69225900  0.82627400  0.18566300  1
  N  N8  1  0.49566400  0.50433600  0.49566400  1
  N  N9  1  0.74566400  0.75433600  0.74566400  1
  O  O0  1  0.91517500  0.96039000  0.94402100  1
  O  O1  1  0.94402100  0.18041400  0.91517500  1
  O  O2  1  0.28961000  0.33482500  0.06958600  1
  O  O3  1  0.06958600  0.30597900  0.28961000  1
  O  O4  1  0.91398900  0.00467200  0.55798000  1
  O  O5  1  0.55798000  0.52336000  0.91398900  1
  O  O6  1  0.24532800  0.33601100  0.72664000  1
  O  O7  1  0.72664000  0.69202000  0.24532800  1
  O  O8  1  0.09372000  0.02499700  0.69685300  1
  O  O9  1  0.69685300  0.18442900  0.09372000  1
  O  O10  1  0.22500300  0.15628000  0.06557100  1
  O  O11  1  0.06557100  0.55314700  0.22500300  1
  O  O12  1  0.32019700  0.38277700  0.27172300  1
  O  O13  1  0.27172300  0.02530400  0.32019700  1
  O  O14  1  0.86722300  0.92980300  0.22469600  1
  O  O15  1  0.22469600  0.97827700  0.86722300  1
  O  O16  1  0.88444000  0.21111600  0.43069200  1
  O  O17  1  0.43069200  0.47375100  0.88444000  1
  O  O18  1  0.03888400  0.36556000  0.77624900  1
  O  O19  1  0.77624900  0.81930800  0.03888400  1
  O  O20  1  0.05646100  0.98045700  0.29609100  1
  O  O21  1  0.29609100  0.66699200  0.05646100  1
  O  O22  1  0.26954300  0.19353900  0.58300800  1
  O  O23  1  0.58300800  0.95390900  0.26954300  1
  O  O24  1  0.39478000  0.60522000  0.39478000  1
  O  O25  1  0.64478000  0.85522000  0.64478000  1
  O  O26  1  0.54337900  0.36491800  0.55311300  1
  O  O27  1  0.55311300  0.53858900  0.54337900  1
  O  O28  1  0.88508100  0.70662100  0.71141100  1
  O  O29  1  0.71141100  0.69688700  0.88508200  1
  O  O30  1  0.62196500  0.14063600  0.82663200  1
  O  O31  1  0.82663200  0.41076700  0.62196500  1
  O  O32  1  0.10936400  0.62803500  0.83923300  1
  O  O33  1  0.83923300  0.42336800  0.10936400  1
loop_
_geom_bond_atom_site_label_1
_geom_bond_atom_site_label_2
_geom_bond_distance
_geom_bond_site_symmetry_2
K0 O14 2.751690 1_455
K0 O24 2.801706 1_555
K0 O28 2.817694 1_455
K0 O12 2.838762 1_555
K0 O4 2.919442 1_465
K0 O20 2.995869 1_555
K0 O11 3.098523 1_555
K0 O21 3.101205 1_555
K0 O32 3.320192 1_555
K1 O15 2.751690 1_554
K1 O24 2.801699 1_555
K1 O29 2.817697 1_554
K1 O13 2.838780 1_565
K1 O5 2.919422 1_554
K1 O21 2.995847 1_555
K1 O10 3.098543 1_565
K1 O20 3.101201 1_555
K1 O33 3.320190 1_555
K2 O12 2.751690 1_555
K2 O25 2.801704 1_545
K2 O26 2.817678 1_555
K2 O14 2.838771 1_545
K2 O6 2.919434 1_555
K2 O22 2.995871 1_555
K2 O9 3.098536 1_555
K2 O23 3.101218 1_545
K2 O30 3.320184 1_555
K3 O13 2.751690 1_565
K3 O25 2.801694 1_555
K3 O27 2.817702 1_555
K3 O15 2.838768 1_555
K3 O7 2.919434 1_555
K3 O23 2.995855 1_555
K3 O8 3.098542 1_565
K3 O22 3.101197 1_565
K3 O31 3.320189 1_555
N0 O15 1.241779 1_545
N0 O8 1.277299 1_555
N0 O1 1.280133 1_455
N1 O14 1.241783 1_545
N1 O9 1.277292 1_555
N1 O0 1.280133 1_544
N2 O13 1.241784 1_555
N2 O10 1.277291 1_555
N2 O3 1.280133 1_555
N3 O12 1.241790 1_555
N3 O11 1.277292 1_555
N3 O2 1.280133 1_555
N4 O20 1.237802 1_645
N4 O16 1.271781 1_555
N4 O4 1.297242 1_555
N5 O21 1.237806 1_556
N5 O17 1.271792 1_555
N5 O5 1.297249 1_555
N6 O22 1.237808 1_555
N6 O18 1.271783 1_555
N6 O6 1.297238 1_555
N7 O23 1.237801 1_555
N7 O19 1.271786 1_555
N7 O7 1.297248 1_555
N8 O24 1.249795 1_555
N8 O27 1.274187 1_555
N8 O26 1.274197 1_555
N9 O25 1.249795 1_555
N9 O28 1.274187 1_555
N9 O29 1.274192 1_555
O0 Pr0 2.595056 1_565
O1 Pr0 2.595056 1_555
O2 Pr1 2.595056 1_555
O3 Pr1 2.595056 1_555
O4 Pr0 2.665972 1_555
O5 Pr0 2.665981 1_555
O6 Pr1 2.665978 1_556
O7 Pr1 2.665976 1_655
O8 Pr0 2.676278 1_455
O9 Pr0 2.676279 1_554
O10 Pr1 2.676278 1_555
O11 Pr1 2.676287 1_555
O16 Pr0 2.599226 1_555
O17 Pr0 2.599226 1_555
O18 Pr1 2.599218 1_556
O19 Pr1 2.599227 1_655
O26 Pr0 2.795498 1_555
O27 Pr0 2.795493 1_555
O28 Pr1 2.795493 1_656
O29 Pr1 2.795489 1_656
O30 Pr0 2.597602 1_555
O31 Pr0 2.597602 1_555
O32 Pr1 2.597602 1_556
O33 Pr1 2.597602 1_655
