# generated using pymatgen
data_Li2MnCo3O8
_symmetry_space_group_name_H-M   'P 1'
_cell_length_a   5.98796753
_cell_length_b   5.77408176
_cell_length_c   5.77874140
_cell_angle_alpha   61.42672459
_cell_angle_beta   61.01441182
_cell_angle_gamma   91.48079589
_symmetry_Int_Tables_number   1
_chemical_formula_structural   Li2MnCo3O8
_chemical_formula_sum   'Li2 Mn1 Co3 O8'
_cell_volume   144.59954409
_cell_formula_units_Z   1
loop_
 _symmetry_equiv_pos_site_id
 _symmetry_equiv_pos_as_xyz
  1  'x, y, z'
loop_
 _atom_site_type_symbol
 _atom_site_label
 _atom_site_symmetry_multiplicity
 _atom_site_fract_x
 _atom_site_fract_y
 _atom_site_fract_z
 _atom_site_occupancy
  Li  Li0  1  0.50000400  0.50000200  0.49999600  1
  Li  Li1  1  0.50000100  0.99999700  0.50000000  1
  Mn  Mn0  1  0.99997900  0.99999600  0.99999900  1
  Co  Co0  1  0.00001000  0.50000000  0.00000100  1
  Co  Co1  1  0.00000400  0.49999600  0.49999700  1
  Co  Co2  1  0.00000300  0.00000300  0.50000100  1
  O  O0  1  0.20601500  0.74686900  0.00948500  1
  O  O1  1  0.20607600  0.25240400  0.00952900  1
  O  O2  1  0.20967600  0.71784400  0.54945000  1
  O  O3  1  0.21308600  0.22303000  0.53927500  1
  O  O4  1  0.78691200  0.77697000  0.46072800  1
  O  O5  1  0.79032600  0.28215700  0.45055100  1
  O  O6  1  0.79392500  0.74759600  0.99047100  1
  O  O7  1  0.79398400  0.25313600  0.99051800  1
loop_
_geom_bond_atom_site_label_1
_geom_bond_atom_site_label_2
_geom_bond_distance
_geom_bond_site_symmetry_2
Li0 O6 2.152192 1_554
Li0 O1 2.152227 1_556
Li0 O5 2.159029 1_555
Li0 O2 2.159046 1_555
Li0 O4 2.166470 1_555
Li0 O3 2.166488 1_555
Li1 O7 2.151961 1_564
Li1 O0 2.151975 1_556
Li1 O4 2.162746 1_555
Li1 O3 2.162788 1_565
Li1 O2 2.164468 1_555
Li1 O5 2.164498 1_565
Mn0 O6 1.923283 1_555
Mn0 O1 1.923490 1_666
Mn0 O3 1.928166 1_665
Mn0 O4 1.928194 1_556
Mn0 O7 1.934684 1_565
Mn0 O0 1.934792 1_656
Co0 O5 1.885429 1_455
Co0 O2 1.885436 1_554
Co0 O0 1.898923 1_555
Co0 O7 1.898978 1_454
Co0 O1 1.910804 1_555
Co0 O6 1.910881 1_454
Co1 O5 1.962146 1_455
Co1 O2 1.962188 1_555
Co1 O0 2.059978 1_555
Co1 O7 2.060012 1_455
Co1 O3 2.067837 1_555
Co1 O4 2.067910 1_455
Co2 O3 1.952738 1_555
Co2 O4 1.952791 1_445
Co2 O6 2.060598 1_445
Co2 O1 2.060608 1_555
Co2 O5 2.078551 1_455
Co2 O2 2.078556 1_545
