# generated using pymatgen
data_Tm3Th
_symmetry_space_group_name_H-M   'P 1'
_cell_length_a   7.13000656
_cell_length_b   7.13000656
_cell_length_c   5.67712088
_cell_angle_alpha   90.00000000
_cell_angle_beta   90.00000000
_cell_angle_gamma   119.99999410
_symmetry_Int_Tables_number   1
_chemical_formula_structural   Tm3Th
_chemical_formula_sum   'Tm6 Th2'
_cell_volume   249.94166490
_cell_formula_units_Z   2
loop_
 _symmetry_equiv_pos_site_id
 _symmetry_equiv_pos_as_xyz
  1  'x, y, z'
loop_
 _atom_site_type_symbol
 _atom_site_label
 _atom_site_symmetry_multiplicity
 _atom_site_fract_x
 _atom_site_fract_y
 _atom_site_fract_z
 _atom_site_occupancy
  Tm  Tm0  1  0.16629844  0.33259689  0.25000000  1
  Tm  Tm1  1  0.66740311  0.83370156  0.25000000  1
  Tm  Tm2  1  0.16629844  0.83370156  0.25000000  1
  Tm  Tm3  1  0.83370156  0.66740311  0.75000000  1
  Tm  Tm4  1  0.33259689  0.16629844  0.75000000  1
  Tm  Tm5  1  0.83370156  0.16629844  0.75000000  1
  Th  Th0  1  0.33333300  0.66666700  0.75000000  1
  Th  Th1  1  0.66666700  0.33333300  0.25000000  1
loop_
_geom_bond_atom_site_label_1
_geom_bond_atom_site_label_2
_geom_bond_distance
_geom_bond_site_symmetry_2
Tm0 Tm4 3.503590 1_555
Tm0 Tm4 3.503590 1_554
Tm0 Tm5 3.503590 1_454
Tm0 Tm5 3.503590 1_455
Tm0 Tm2 3.557127 1_545
Tm0 Tm1 3.557127 1_445
Tm0 Tm2 3.572880 1_555
Tm0 Tm1 3.572880 1_555
Tm1 Tm3 3.503590 1_555
Tm1 Tm3 3.503590 1_554
Tm1 Tm5 3.503590 1_565
Tm1 Tm5 3.503590 1_564
Tm1 Tm2 3.557127 1_655
Tm1 Tm2 3.572880 1_555
Tm2 Tm4 3.503590 1_565
Tm2 Tm3 3.503590 1_455
Tm2 Tm4 3.503590 1_564
Tm2 Tm3 3.503590 1_454
Tm3 Tm5 3.557127 1_565
Tm3 Tm4 3.557127 1_665
Tm3 Tm5 3.572880 1_555
Tm3 Tm4 3.572880 1_555
Tm4 Tm5 3.557127 1_455
Tm4 Tm5 3.572880 1_555
Th0 Tm2 3.508926 1_555
Th0 Tm2 3.508926 1_556
Th0 Tm1 3.508930 1_555
Th0 Tm0 3.508930 1_555
Th0 Tm0 3.508930 1_556
Th0 Tm1 3.508930 1_556
Th0 Tm3 3.565003 1_455
Th0 Tm4 3.565003 1_565
Th0 Tm5 3.565007 1_455
Th0 Tm5 3.565007 1_565
Th0 Tm3 3.565010 1_555
Th0 Tm4 3.565010 1_555
Th1 Tm5 3.508926 1_554
Th1 Tm5 3.508926 1_555
Th1 Tm3 3.508930 1_555
Th1 Tm4 3.508930 1_555
Th1 Tm3 3.508930 1_554
Th1 Tm4 3.508930 1_554
Th1 Tm1 3.565003 1_545
Th1 Tm0 3.565003 1_655
Th1 Tm2 3.565007 1_545
Th1 Tm2 3.565007 1_655
Th1 Tm0 3.565010 1_555
Th1 Tm1 3.565010 1_555
