# generated using pymatgen
data_Li3Co2Si3O10
_symmetry_space_group_name_H-M   'P 1'
_cell_length_a   5.34744700
_cell_length_b   5.36232218
_cell_length_c   16.94442191
_cell_angle_alpha   90.76698057
_cell_angle_beta   94.82057155
_cell_angle_gamma   119.21704402
_symmetry_Int_Tables_number   1
_chemical_formula_structural   Li3Co2Si3O10
_chemical_formula_sum   'Li6 Co4 Si6 O20'
_cell_volume   421.73438983
_cell_formula_units_Z   2
loop_
 _symmetry_equiv_pos_site_id
 _symmetry_equiv_pos_as_xyz
  1  'x, y, z'
loop_
 _atom_site_type_symbol
 _atom_site_label
 _atom_site_symmetry_multiplicity
 _atom_site_fract_x
 _atom_site_fract_y
 _atom_site_fract_z
 _atom_site_occupancy
  Li  Li0  1  0.50249100  0.67565900  0.05564200  1
  Li  Li1  1  0.37632800  0.55518900  0.73011800  1
  Li  Li2  1  0.50306400  0.82435900  0.55448400  1
  Li  Li3  1  0.49758200  0.17729500  0.44643100  1
  Li  Li4  1  0.61606200  0.44055500  0.26640200  1
  Li  Li5  1  0.49888200  0.32481600  0.94767100  1
  Co  Co0  1  0.18695000  0.17654400  0.58652900  1
  Co  Co1  1  0.81328000  0.99570300  0.91665600  1
  Co  Co2  1  0.19453200  0.00900800  0.08854400  1
  Co  Co3  1  0.81239500  0.82510100  0.41369600  1
  Si  Si0  1  0.00895000  0.14045100  0.25032400  1
  Si  Si1  1  0.15043300  0.47664000  0.40308300  1
  Si  Si2  1  0.14911000  0.66539100  0.89815800  1
  Si  Si3  1  0.85325700  0.33214300  0.09828600  1
  Si  Si4  1  0.84854600  0.52637300  0.59715800  1
  Si  Si5  1  0.99069200  0.86092300  0.75018900  1
  O  O0  1  0.79984500  0.86393600  0.29666400  1
  O  O1  1  0.77296000  0.88885100  0.80686300  1
  O  O2  1  0.42889700  0.78206800  0.43655000  1
  O  O3  1  0.44206200  0.66201400  0.93447500  1
  O  O4  1  0.22770200  0.40784700  0.31570400  1
  O  O5  1  0.13109100  0.20973200  0.45549100  1
  O  O6  1  0.85607700  0.05747800  0.05192500  1
  O  O7  1  0.16083300  0.53569800  0.60546100  1
  O  O8  1  0.14654900  0.62856800  0.08595600  1
  O  O9  1  0.17141300  0.72383100  0.80257900  1
  O  O10  1  0.82620100  0.26634700  0.19436000  1
  O  O11  1  0.85843300  0.36053800  0.91097600  1
  O  O12  1  0.83988600  0.47119000  0.39651500  1
  O  O13  1  0.13485600  0.93465200  0.94254100  1
  O  O14  1  0.86440000  0.78968300  0.54389600  1
  O  O15  1  0.76649700  0.59880700  0.68436000  1
  O  O16  1  0.56444600  0.34447700  0.06332100  1
  O  O17  1  0.57346100  0.21901700  0.56388000  1
  O  O18  1  0.23381300  0.10842600  0.19912700  1
  O  O19  1  0.19802300  0.14066600  0.70598700  1
loop_
_geom_bond_atom_site_label_1
_geom_bond_atom_site_label_2
_geom_bond_distance
_geom_bond_site_symmetry_2
Li0 O8 1.910246 1_555
Li0 O16 1.963122 1_555
Li0 O6 2.003801 1_565
Li0 O3 2.046070 1_554
Li1 O19 1.964251 1_555
Li1 O9 2.165592 1_555
Li1 O15 2.193012 1_555
Li1 O1 2.271624 1_555
Li1 O7 2.295171 1_555
Li2 O17 1.961858 1_565
Li2 O2 1.992205 1_555
Li2 O7 2.006802 1_555
Li2 O14 2.051432 1_555
Li3 O2 1.968442 1_545
Li3 O17 1.984680 1_555
Li3 O12 2.007311 1_555
Li3 O5 2.068148 1_555
Li4 O0 2.022133 1_555
Li4 O18 2.156297 1_555
Li4 O10 2.202340 1_555
Li4 O4 2.231904 1_555
Li4 O12 2.382234 1_555
Li5 O16 1.953732 1_556
Li5 O3 1.986837 1_555
Li5 O11 1.991122 1_555
Li5 O13 2.040804 1_545
Co0 O14 2.014369 1_445
Co0 O7 2.021155 1_555
Co0 O19 2.034476 1_555
Co0 O17 2.036448 1_555
Co0 O5 2.236495 1_555
Co1 O11 1.855456 1_565
Co1 O1 1.902430 1_555
Co1 O13 1.919185 1_655
Co1 O3 1.970037 1_555
Co1 O6 2.287603 1_566
Co2 O18 1.907121 1_555
Co2 O8 1.927235 1_545
Co2 O6 2.000748 1_455
Co2 O16 2.005089 1_555
Co2 O13 2.469385 1_544
Co3 O12 1.993166 1_555
Co3 O0 1.995657 1_555
Co3 O5 1.996609 1_665
Co3 O2 2.020548 1_555
Co3 O14 2.222663 1_555
O0 Si0 1.620368 1_665
O1 Si5 1.629273 1_555
O2 Si1 1.635135 1_555
O3 Si2 1.642877 1_555
O4 Si1 1.654069 1_555
O4 Si0 1.659468 1_555
O5 Si1 1.659125 1_555
O6 Si3 1.667122 1_555
O7 Si4 1.640059 1_455
O8 Si3 1.631028 1_455
O9 Si2 1.656765 1_555
O9 Si5 1.682027 1_455
O10 Si3 1.673518 1_555
O10 Si0 1.677923 1_655
O11 Si2 1.649614 1_655
O12 Si1 1.640858 1_655
O13 Si2 1.656541 1_555
O14 Si4 1.656928 1_555
O15 Si5 1.656893 1_555
O15 Si4 1.669311 1_555
O16 Si3 1.639373 1_555
O17 Si4 1.633118 1_555
O18 Si0 1.612712 1_555
O19 Si5 1.608236 1_445
