# generated using pymatgen
data_BaGe3Ir
_symmetry_space_group_name_H-M   'P 1'
_cell_length_a   6.06025635
_cell_length_b   6.06025635
_cell_length_c   6.06025635
_cell_angle_alpha   135.64909467
_cell_angle_beta   135.64909467
_cell_angle_gamma   64.52330937
_symmetry_Int_Tables_number   1
_chemical_formula_structural   BaGe3Ir
_chemical_formula_sum   'Ba1 Ge3 Ir1'
_cell_volume   107.25389637
_cell_formula_units_Z   1
loop_
 _symmetry_equiv_pos_site_id
 _symmetry_equiv_pos_as_xyz
  1  'x, y, z'
loop_
 _atom_site_type_symbol
 _atom_site_label
 _atom_site_symmetry_multiplicity
 _atom_site_fract_x
 _atom_site_fract_y
 _atom_site_fract_z
 _atom_site_occupancy
  Ba  Ba0  1  0.58948967  0.58948967  -0.00000000  1
  Ge  Ge0  1  0.00082537  0.00082537  0.00000000  1
  Ge  Ge1  1  0.34184117  0.84184117  0.50000000  1
  Ge  Ge2  1  0.84184117  0.34184117  0.50000000  1
  Ir  Ir0  1  0.24100363  0.24100363  0.00000000  1
loop_
_geom_bond_atom_site_label_1
_geom_bond_atom_site_label_2
_geom_bond_distance
_geom_bond_site_symmetry_2
Ba0 Ge0 3.360104 1_666
Ba0 Ge0 3.360104 1_554
Ba0 Ge0 3.360104 1_565
Ba0 Ge0 3.360104 1_655
Ba0 Ge2 3.416850 1_454
Ba0 Ge1 3.416850 1_555
Ba0 Ge1 3.416850 1_544
Ba0 Ge2 3.416850 1_555
Ba0 Ge2 3.452808 1_565
Ba0 Ge1 3.452808 1_655
Ba0 Ge1 3.452808 1_554
Ba0 Ge2 3.452808 1_554
Ba0 Ir0 3.571752 1_555
Ba0 Ir0 3.588318 1_666
Ba0 Ir0 3.588318 1_655
Ba0 Ir0 3.588318 1_554
Ba0 Ir0 3.588318 1_565
Ge0 Ir0 2.461668 1_555
Ge0 Ge2 2.808460 1_455
Ge0 Ge1 2.808460 1_545
Ge0 Ge1 2.808460 1_444
Ge0 Ge2 2.808460 1_444
Ge1 Ir0 2.510059 1_566
Ge1 Ir0 2.510059 1_555
Ge2 Ir0 2.510059 1_656
Ge2 Ir0 2.510059 1_555
