# generated using pymatgen
data_Ho2Ni12As7
_symmetry_space_group_name_H-M   'P 1'
_cell_length_a   9.37306440
_cell_length_b   9.37306440
_cell_length_c   3.83796500
_cell_angle_alpha   90.00000000
_cell_angle_beta   90.00000000
_cell_angle_gamma   120.00000284
_symmetry_Int_Tables_number   1
_chemical_formula_structural   Ho2Ni12As7
_chemical_formula_sum   'Ho2 Ni12 As7'
_cell_volume   292.00805484
_cell_formula_units_Z   1
loop_
 _symmetry_equiv_pos_site_id
 _symmetry_equiv_pos_as_xyz
  1  'x, y, z'
loop_
 _atom_site_type_symbol
 _atom_site_label
 _atom_site_symmetry_multiplicity
 _atom_site_fract_x
 _atom_site_fract_y
 _atom_site_fract_z
 _atom_site_occupancy
  Ho  Ho0  1  0.66666700  0.33333300  0.00000000  1
  Ho  Ho1  1  0.33333300  0.66666700  0.50000000  1
  Ni  Ni0  1  0.05344400  0.43543100  0.00000000  1
  Ni  Ni1  1  0.56456900  0.61801200  0.00000000  1
  Ni  Ni2  1  0.38198800  0.94655600  0.00000000  1
  Ni  Ni3  1  0.27686300  0.15166000  0.00000000  1
  Ni  Ni4  1  0.84834000  0.12520400  0.00000000  1
  Ni  Ni5  1  0.87479600  0.72313700  0.00000000  1
  Ni  Ni6  1  0.42620000  0.37978600  0.50000000  1
  Ni  Ni7  1  0.62021400  0.04641400  0.50000000  1
  Ni  Ni8  1  0.95358600  0.57380000  0.50000000  1
  Ni  Ni9  1  0.09610300  0.21114100  0.50000000  1
  Ni  Ni10  1  0.78885900  0.88496300  0.50000000  1
  Ni  Ni11  1  0.11503700  0.90389700  0.50000000  1
  As  As0  1  0.28812400  0.40635600  0.00000000  1
  As  As1  1  0.59364400  0.88176800  0.00000000  1
  As  As2  1  0.11823200  0.71187600  0.00000000  1
  As  As3  1  0.40639600  0.11185600  0.50000000  1
  As  As4  1  0.88814400  0.29454100  0.50000000  1
  As  As5  1  0.70545900  0.59360400  0.50000000  1
  As  As6  1  0.00000000  0.00000000  0.00000000  1
loop_
_geom_bond_atom_site_label_1
_geom_bond_atom_site_label_2
_geom_bond_distance
_geom_bond_site_symmetry_2
Ho0 Ni7 3.151748 1_554
Ho0 Ni7 3.151748 1_555
Ho0 Ni8 3.151751 1_555
Ho0 Ni8 3.151751 1_554
Ho0 Ni6 3.151756 1_555
Ho0 Ni6 3.151756 1_554
Ho0 Ni4 3.166573 1_555
Ho0 Ni5 3.166588 1_555
Ho0 Ni3 3.166589 1_555
Ho0 Ni2 3.254104 1_545
Ho0 Ni0 3.254105 1_655
Ho0 Ni1 3.254105 1_555
Ho1 Ni2 3.094575 1_555
Ho1 Ni2 3.094575 1_556
Ho1 Ni0 3.094580 1_555
Ho1 Ni0 3.094580 1_556
Ho1 Ni1 3.094589 1_556
Ho1 Ni1 3.094589 1_555
Ho1 Ni8 3.213828 1_455
Ho1 Ni7 3.213831 1_565
Ho1 Ni6 3.213837 1_555
As0 Ni3 2.336296 1_555
As0 Ni1 2.347178 1_555
As0 Ni0 2.347824 1_555
As0 Ni6 2.396198 1_555
As0 Ni6 2.396198 1_554
As0 Ni9 2.641334 1_554
As0 Ni9 2.641334 1_555
As0 Ho1 2.963329 1_555
As0 Ho1 2.963329 1_554
As1 Ni4 2.336300 1_565
As1 Ni2 2.347172 1_555
As1 Ni1 2.347833 1_555
As1 Ni7 2.396198 1_565
As1 Ni7 2.396198 1_564
As1 Ni10 2.641330 1_554
As1 Ni10 2.641330 1_555
As1 Ho1 2.963327 1_555
As1 Ho1 2.963327 1_554
As2 Ni5 2.336305 1_455
As2 Ni0 2.347181 1_555
As2 Ni2 2.347829 1_555
As2 Ni8 2.396198 1_454
As2 Ni8 2.396198 1_455
As2 Ni11 2.641337 1_554
As2 Ni11 2.641337 1_555
As2 Ho1 2.963322 1_555
As2 Ho1 2.963322 1_554
As3 Ni7 2.371098 1_555
As3 Ni3 2.397655 1_555
As3 Ni3 2.397655 1_556
As3 Ni2 2.404353 1_545
As3 Ni2 2.404353 1_546
As3 Ni6 2.423850 1_555
As3 Ni11 2.436028 1_545
As3 Ho0 2.979764 1_556
As3 Ho0 2.979764 1_555
As4 Ni8 2.371088 1_555
As4 Ni4 2.397655 1_556
As4 Ni4 2.397655 1_555
As4 Ni0 2.404348 1_655
As4 Ni0 2.404348 1_656
As4 Ni7 2.423854 1_555
As4 Ni9 2.436028 1_655
As4 Ho0 2.979755 1_555
As4 Ho0 2.979755 1_556
As5 Ni6 2.371091 1_555
As5 Ni5 2.397655 1_556
As5 Ni5 2.397655 1_555
As5 Ni1 2.404342 1_555
As5 Ni1 2.404342 1_556
As5 Ni8 2.423859 1_555
As5 Ni10 2.436028 1_555
As5 Ho0 2.979769 1_556
As5 Ho0 2.979769 1_555
As6 Ni5 2.250801 1_445
As6 Ni3 2.250801 1_555
As6 Ni4 2.250809 1_455
As6 Ni11 2.574448 1_544
As6 Ni11 2.574448 1_545
As6 Ni10 2.574453 1_444
As6 Ni10 2.574453 1_445
As6 Ni9 2.574454 1_554
As6 Ni9 2.574454 1_555
