# generated using pymatgen
data_YMg3
_symmetry_space_group_name_H-M   'P 1'
_cell_length_a   12.83580466
_cell_length_b   12.83580466
_cell_length_c   12.83580466
_cell_angle_alpha   150.41953699
_cell_angle_beta   126.68527360
_cell_angle_gamma   62.15492792
_symmetry_Int_Tables_number   1
_chemical_formula_structural   YMg3
_chemical_formula_sum   'Y8 Mg24'
_cell_volume   829.79631802
_cell_formula_units_Z   8
loop_
 _symmetry_equiv_pos_site_id
 _symmetry_equiv_pos_as_xyz
  1  'x, y, z'
loop_
 _atom_site_type_symbol
 _atom_site_label
 _atom_site_symmetry_multiplicity
 _atom_site_fract_x
 _atom_site_fract_y
 _atom_site_fract_z
 _atom_site_occupancy
  Y  Y0_0  1  0.16833500  0.00000000  0.16833500  1
  Y  Y0_1  1  0.16833500  0.00000000  0.66833500  1
  Y  Y0_2  1  0.16833500  0.50000000  0.16833500  1
  Y  Y0_3  1  0.16833500  0.50000000  0.66833500  1
  Y  Y0_4  1  0.66833500  0.00000000  0.16833500  1
  Y  Y0_5  1  0.66833500  0.00000000  0.66833500  1
  Y  Y0_6  1  0.66833500  0.50000000  0.16833500  1
  Y  Y0_7  1  0.66833500  0.50000000  0.66833500  1
  Mg  Mg0_0  1  0.41529450  0.25000000  0.16529450  1
  Mg  Mg0_1  1  0.41529450  0.25000000  0.66529450  1
  Mg  Mg0_2  1  0.41529450  0.75000000  0.16529450  1
  Mg  Mg0_3  1  0.41529450  0.75000000  0.66529450  1
  Mg  Mg0_4  1  0.91529450  0.25000000  0.16529450  1
  Mg  Mg0_5  1  0.91529450  0.25000000  0.66529450  1
  Mg  Mg0_6  1  0.91529450  0.75000000  0.16529450  1
  Mg  Mg0_7  1  0.91529450  0.75000000  0.66529450  1
  Mg  Mg1_0  1  0.12361400  0.12376200  0.49985200  1
  Mg  Mg1_1  1  0.12361400  0.12376200  0.99985200  1
  Mg  Mg1_2  1  0.12361400  0.62376200  0.49985200  1
  Mg  Mg1_3  1  0.12361400  0.62376200  0.99985200  1
  Mg  Mg1_4  1  0.62361400  0.12376200  0.49985200  1
  Mg  Mg1_5  1  0.62361400  0.12376200  0.99985200  1
  Mg  Mg1_6  1  0.62361400  0.62376200  0.49985200  1
  Mg  Mg1_7  1  0.62361400  0.62376200  0.99985200  1
  Mg  Mg2_0  1  0.37609000  0.37623800  0.49985200  1
  Mg  Mg2_1  1  0.37609000  0.37623800  0.99985200  1
  Mg  Mg2_2  1  0.37609000  0.87623800  0.49985200  1
  Mg  Mg2_3  1  0.37609000  0.87623800  0.99985200  1
  Mg  Mg2_4  1  0.87609000  0.37623800  0.49985200  1
  Mg  Mg2_5  1  0.87609000  0.37623800  0.99985200  1
  Mg  Mg2_6  1  0.87609000  0.87623800  0.49985200  1
  Mg  Mg2_7  1  0.87609000  0.87623800  0.99985200  1
loop_
_geom_bond_atom_site_label_1
_geom_bond_atom_site_label_2
_geom_bond_distance
_geom_bond_site_symmetry_2
Y0_0 Y0_3 3.276736 1_555
Y0_0 Y0_3 3.276736 1_544
Y0_1 Y0_2 3.276736 1_556
Y0_1 Y0_2 3.276736 1_545
Y0_4 Y0_7 3.276736 1_544
Y0_4 Y0_7 3.276736 1_555
Y0_5 Y0_6 3.276736 1_556
Y0_5 Y0_6 3.276736 1_545
Mg0_0 Mg0_3 3.276736 1_544
Mg0_0 Mg0_3 3.276736 1_555
Mg0_0 Y0_2 3.282507 1_555
Mg0_0 Y0_1 3.282507 1_554
Mg0_0 Mg1_6 3.322259 1_555
Mg0_0 Mg1_5 3.322259 1_554
Mg0_0 Mg2_0 3.322259 1_555
Mg0_0 Mg2_3 3.322259 1_544
Mg0_0 Y0_7 3.343381 1_555
Mg0_0 Y0_4 3.343381 1_555
Mg0_0 Mg2_1 3.366732 1_554
Mg0_0 Mg1_1 3.366732 1_554
Mg0_1 Mg0_2 3.276736 1_556
Mg0_1 Mg0_2 3.276736 1_545
Mg0_1 Y0_3 3.282507 1_555
Mg0_1 Y0_0 3.282507 1_555
Mg0_1 Mg2_1 3.322259 1_555
Mg0_1 Mg1_7 3.322259 1_555
Mg0_1 Mg1_4 3.322259 1_555
Mg0_1 Mg2_2 3.322259 1_545
Mg0_1 Y0_6 3.343381 1_556
Mg0_1 Y0_5 3.343381 1_555
Mg0_1 Mg2_0 3.366732 1_555
Mg0_1 Mg1_0 3.366732 1_555
Mg0_2 Y0_0 3.282507 1_565
Mg0_2 Y0_3 3.282507 1_554
Mg0_2 Mg1_4 3.322259 1_565
Mg0_2 Mg2_2 3.322259 1_555
Mg0_2 Mg1_7 3.322259 1_554
Mg0_2 Mg2_1 3.322259 1_554
Mg0_2 Y0_5 3.343381 1_565
Mg0_2 Y0_6 3.343381 1_555
Mg0_2 Mg2_3 3.366732 1_554
Mg0_2 Mg1_3 3.366732 1_554
Mg0_3 Y0_2 3.282507 1_555
Mg0_3 Y0_1 3.282507 1_565
Mg0_3 Mg1_6 3.322259 1_555
Mg0_3 Mg1_5 3.322259 1_565
Mg0_3 Mg2_3 3.322259 1_555
Mg0_3 Mg2_0 3.322259 1_555
Mg0_3 Y0_4 3.343381 1_566
Mg0_3 Y0_7 3.343381 1_555
Mg0_3 Mg2_2 3.366732 1_555
Mg0_3 Mg1_2 3.366732 1_555
Mg0_4 Mg0_7 3.276736 1_544
Mg0_4 Mg0_7 3.276736 1_555
Mg0_4 Y0_6 3.282507 1_555
Mg0_4 Y0_5 3.282507 1_554
Mg0_4 Mg2_4 3.322259 1_555
Mg0_4 Mg1_2 3.322259 1_655
Mg0_4 Mg1_1 3.322259 1_654
Mg0_4 Mg2_7 3.322259 1_544
Mg0_4 Y0_0 3.343381 1_655
Mg0_4 Y0_3 3.343381 1_655
Mg0_4 Mg2_5 3.366732 1_554
Mg0_4 Mg1_5 3.366732 1_554
Mg0_5 Mg0_6 3.276736 1_556
Mg0_5 Mg0_6 3.276736 1_545
Mg0_5 Y0_7 3.282507 1_555
Mg0_5 Y0_4 3.282507 1_555
Mg0_5 Mg1_0 3.322259 1_655
Mg0_5 Mg1_3 3.322259 1_655
Mg0_5 Mg2_5 3.322259 1_555
Mg0_5 Mg2_6 3.322259 1_545
Mg0_5 Y0_2 3.343381 1_656
Mg0_5 Y0_1 3.343381 1_655
Mg0_5 Mg2_4 3.366732 1_555
Mg0_5 Mg1_4 3.366732 1_555
Mg0_6 Y0_7 3.282507 1_554
Mg0_6 Y0_4 3.282507 1_565
Mg0_6 Mg2_6 3.322259 1_555
Mg0_6 Mg1_0 3.322259 1_665
Mg0_6 Mg1_3 3.322259 1_654
Mg0_6 Mg2_5 3.322259 1_554
Mg0_6 Y0_1 3.343381 1_665
Mg0_6 Y0_2 3.343381 1_655
Mg0_6 Mg2_7 3.366732 1_554
Mg0_6 Mg1_7 3.366732 1_554
Mg0_7 Y0_5 3.282507 1_565
Mg0_7 Y0_6 3.282507 1_555
Mg0_7 Mg1_2 3.322259 1_655
Mg0_7 Mg2_7 3.322259 1_555
Mg0_7 Mg1_1 3.322259 1_665
Mg0_7 Mg2_4 3.322259 1_555
Mg0_7 Y0_0 3.343381 1_666
Mg0_7 Y0_3 3.343381 1_655
Mg0_7 Mg2_6 3.366732 1_555
Mg0_7 Mg1_6 3.366732 1_555
Mg1_0 Mg1_3 3.276736 1_544
Mg1_0 Mg1_3 3.276736 1_555
Mg1_0 Mg2_4 3.313346 1_455
Mg1_0 Mg2_7 3.313346 1_444
Mg1_0 Mg2_1 3.313346 1_555
Mg1_0 Mg2_2 3.313346 1_545
Mg1_0 Y0_1 3.342204 1_555
Mg1_0 Y0_3 3.357032 1_555
Mg1_0 Y0_0 3.357032 1_555
Mg1_1 Mg1_2 3.276736 1_556
Mg1_1 Mg1_2 3.276736 1_545
Mg1_1 Mg2_5 3.313346 1_455
Mg1_1 Mg2_6 3.313346 1_445
Mg1_1 Mg2_0 3.313346 1_556
Mg1_1 Mg2_3 3.313346 1_545
Mg1_1 Y0_0 3.342204 1_556
Mg1_1 Y0_1 3.357032 1_555
Mg1_1 Y0_2 3.357032 1_556
Mg1_2 Mg2_6 3.313346 1_455
Mg1_2 Mg2_5 3.313346 1_454
Mg1_2 Mg2_3 3.313346 1_555
Mg1_2 Mg2_0 3.313346 1_555
Mg1_2 Y0_3 3.342204 1_555
Mg1_2 Y0_2 3.357032 1_555
Mg1_2 Y0_1 3.357032 1_565
Mg1_3 Mg2_7 3.313346 1_455
Mg1_3 Mg2_4 3.313346 1_455
Mg1_3 Mg2_2 3.313346 1_556
Mg1_3 Mg2_1 3.313346 1_555
Mg1_3 Y0_2 3.342204 1_556
Mg1_3 Y0_0 3.357032 1_566
Mg1_3 Y0_3 3.357032 1_555
Mg1_4 Mg1_7 3.276736 1_544
Mg1_4 Mg1_7 3.276736 1_555
Mg1_4 Mg2_0 3.313346 1_555
Mg1_4 Mg2_3 3.313346 1_544
Mg1_4 Mg2_5 3.313346 1_555
Mg1_4 Mg2_6 3.313346 1_545
Mg1_4 Y0_5 3.342204 1_555
Mg1_4 Y0_7 3.357032 1_555
Mg1_4 Y0_4 3.357032 1_555
Mg1_5 Mg1_6 3.276736 1_545
Mg1_5 Mg1_6 3.276736 1_556
Mg1_5 Mg2_1 3.313346 1_555
Mg1_5 Mg2_2 3.313346 1_545
Mg1_5 Mg2_4 3.313346 1_556
Mg1_5 Mg2_7 3.313346 1_545
Mg1_5 Y0_4 3.342204 1_556
Mg1_5 Y0_5 3.357032 1_555
Mg1_5 Y0_6 3.357032 1_556
Mg1_6 Mg2_2 3.313346 1_555
Mg1_6 Mg2_1 3.313346 1_554
Mg1_6 Mg2_7 3.313346 1_555
Mg1_6 Mg2_4 3.313346 1_555
Mg1_6 Y0_7 3.342204 1_555
Mg1_6 Y0_5 3.357032 1_565
Mg1_6 Y0_6 3.357032 1_555
Mg1_7 Mg2_3 3.313346 1_555
Mg1_7 Mg2_0 3.313346 1_555
Mg1_7 Mg2_6 3.313346 1_556
Mg1_7 Mg2_5 3.313346 1_555
Mg1_7 Y0_6 3.342204 1_556
Mg1_7 Y0_7 3.357032 1_555
Mg1_7 Y0_4 3.357032 1_566
Mg2_0 Mg2_3 3.276736 1_544
Mg2_0 Mg2_3 3.276736 1_555
Mg2_0 Y0_7 3.342204 1_555
Mg2_0 Y0_0 3.357032 1_555
Mg2_0 Y0_3 3.357032 1_555
Mg2_1 Mg2_2 3.276736 1_556
Mg2_1 Mg2_2 3.276736 1_545
Mg2_1 Y0_6 3.342204 1_556
Mg2_1 Y0_1 3.357032 1_555
Mg2_1 Y0_2 3.357032 1_556
Mg2_2 Y0_5 3.342204 1_565
Mg2_2 Y0_2 3.357032 1_555
Mg2_2 Y0_1 3.357032 1_565
Mg2_3 Y0_4 3.342204 1_566
Mg2_3 Y0_3 3.357032 1_555
Mg2_3 Y0_0 3.357032 1_566
Mg2_4 Mg2_7 3.276736 1_544
Mg2_4 Mg2_7 3.276736 1_555
Mg2_4 Y0_3 3.342204 1_655
Mg2_4 Y0_4 3.357032 1_555
Mg2_4 Y0_7 3.357032 1_555
Mg2_5 Mg2_6 3.276736 1_556
Mg2_5 Mg2_6 3.276736 1_545
Mg2_5 Y0_2 3.342204 1_656
Mg2_5 Y0_5 3.357032 1_555
Mg2_5 Y0_6 3.357032 1_556
Mg2_6 Y0_1 3.342204 1_665
Mg2_6 Y0_6 3.357032 1_555
Mg2_6 Y0_5 3.357032 1_565
Mg2_7 Y0_0 3.342204 1_666
Mg2_7 Y0_7 3.357032 1_555
Mg2_7 Y0_4 3.357032 1_566
