# generated using pymatgen
data_Li9Mn7O16
_symmetry_space_group_name_H-M   'P 1'
_cell_length_a   6.06568014
_cell_length_b   6.06568014
_cell_length_c   10.55816021
_cell_angle_alpha   69.21045129
_cell_angle_beta   69.21045129
_cell_angle_gamma   56.53732601
_symmetry_Int_Tables_number   1
_chemical_formula_structural   Li9Mn7O16
_chemical_formula_sum   'Li9 Mn7 O16'
_cell_volume   296.59038769
_cell_formula_units_Z   1
loop_
 _symmetry_equiv_pos_site_id
 _symmetry_equiv_pos_as_xyz
  1  'x, y, z'
loop_
 _atom_site_type_symbol
 _atom_site_label
 _atom_site_symmetry_multiplicity
 _atom_site_fract_x
 _atom_site_fract_y
 _atom_site_fract_z
 _atom_site_occupancy
  Li  Li0  1  0.74898700  0.74898700  0.24314800  1
  Li  Li1  1  0.74310700  0.74310700  0.75996500  1
  Li  Li2  1  0.74515800  0.25772900  0.24980400  1
  Li  Li3  1  0.74227100  0.25484200  0.75019600  1
  Li  Li4  1  0.25772900  0.74515800  0.24980400  1
  Li  Li5  1  0.25484200  0.74227100  0.75019600  1
  Li  Li6  1  0.25689300  0.25689300  0.24003500  1
  Li  Li7  1  0.25101300  0.25101300  0.75685200  1
  Li  Li8  1  0.50000000  0.50000000  0.00000000  1
  Mn  Mn0  1  0.00000000  0.50000000  0.00000000  1
  Mn  Mn1  1  0.00000000  0.00000000  0.00000000  1
  Mn  Mn2  1  0.00000000  0.50000000  0.50000000  1
  Mn  Mn3  1  0.00000000  0.00000000  0.50000000  1
  Mn  Mn4  1  0.50000000  0.50000000  0.50000000  1
  Mn  Mn5  1  0.50000000  0.00000000  0.00000000  1
  Mn  Mn6  1  0.50000000  0.00000000  0.50000000  1
  O  O0  1  0.63688100  0.63688100  0.11384200  1
  O  O1  1  0.63924000  0.63924000  0.62113800  1
  O  O2  1  0.62862700  0.10615700  0.10313200  1
  O  O3  1  0.63861500  0.13940000  0.61693600  1
  O  O4  1  0.10615700  0.62862700  0.10313200  1
  O  O5  1  0.13940000  0.63861500  0.61693600  1
  O  O6  1  0.14045900  0.14045900  0.11810000  1
  O  O7  1  0.13942000  0.13942000  0.61956700  1
  O  O8  1  0.86058000  0.86058000  0.38043300  1
  O  O9  1  0.85954100  0.85954100  0.88190000  1
  O  O10  1  0.86060000  0.36138500  0.38306400  1
  O  O11  1  0.89384300  0.37137300  0.89686800  1
  O  O12  1  0.36138500  0.86060000  0.38306400  1
  O  O13  1  0.37137300  0.89384300  0.89686800  1
  O  O14  1  0.36076000  0.36076000  0.37886200  1
  O  O15  1  0.36311900  0.36311900  0.88615800  1
loop_
_geom_bond_atom_site_label_1
_geom_bond_atom_site_label_2
_geom_bond_distance
_geom_bond_site_symmetry_2
Li0 O4 2.039704 1_655
Li0 O2 2.039704 1_565
Li0 O0 2.148632 1_555
Li0 O12 2.158084 1_555
Li0 O10 2.158084 1_555
Li0 O8 2.217108 1_555
Li1 O13 2.088181 1_555
Li1 O11 2.088181 1_555
Li1 O9 2.120365 1_555
Li1 O1 2.165899 1_555
Li1 O3 2.209711 1_565
Li1 O5 2.209711 1_655
Li2 O14 2.103812 1_555
Li2 O0 2.107407 1_555
Li2 O6 2.154831 1_655
Li2 O8 2.159292 1_545
Li2 O10 2.162895 1_555
Li2 O2 2.499477 1_555
Li3 O1 2.103812 1_555
Li3 O15 2.107407 1_555
Li3 O9 2.154831 1_545
Li3 O7 2.159292 1_655
Li3 O3 2.162895 1_555
Li3 O11 2.499477 1_555
Li4 O14 2.103812 1_555
Li4 O0 2.107407 1_555
Li4 O6 2.154831 1_565
Li4 O8 2.159292 1_455
Li4 O12 2.162895 1_555
Li4 O4 2.499477 1_555
Li5 O1 2.103812 1_555
Li5 O15 2.107407 1_555
Li5 O9 2.154831 1_455
Li5 O7 2.159292 1_565
Li5 O5 2.162895 1_555
Li5 O13 2.499477 1_555
Li6 O4 2.088181 1_555
Li6 O2 2.088181 1_555
Li6 O6 2.120365 1_555
Li6 O14 2.165899 1_555
Li6 O10 2.209711 1_455
Li6 O12 2.209711 1_545
Li7 O11 2.039704 1_455
Li7 O13 2.039704 1_545
Li7 O15 2.148632 1_555
Li7 O5 2.158084 1_555
Li7 O3 2.158084 1_555
Li7 O7 2.217108 1_555
Li8 O2 2.049983 1_555
Li8 O4 2.049983 1_555
Li8 O11 2.049983 1_554
Li8 O13 2.049983 1_554
Li8 O15 2.236179 1_554
Li8 O0 2.236179 1_555
Mn0 O0 1.948784 1_455
Mn0 O15 1.948784 1_554
Mn0 O9 1.952315 1_454
Mn0 O6 1.952315 1_555
Mn0 O11 1.965669 1_454
Mn0 O4 1.965669 1_555
Mn1 O2 1.957436 1_455
Mn1 O4 1.957436 1_545
Mn1 O13 1.957436 1_544
Mn1 O11 1.957436 1_454
Mn1 O6 2.305491 1_555
Mn1 O9 2.305491 1_444
Mn2 O8 1.962295 1_455
Mn2 O7 1.962295 1_555
Mn2 O1 1.969651 1_455
Mn2 O14 1.969651 1_555
Mn2 O10 2.282146 1_455
Mn2 O5 2.282146 1_555
Mn3 O3 1.954539 1_455
Mn3 O12 1.954539 1_545
Mn3 O10 1.954539 1_455
Mn3 O5 1.954539 1_545
Mn3 O7 2.308332 1_555
Mn3 O8 2.308332 1_445
Mn4 O10 1.951221 1_555
Mn4 O12 1.951221 1_555
Mn4 O5 1.951221 1_555
Mn4 O3 1.951221 1_555
Mn4 O1 2.320077 1_555
Mn4 O14 2.320077 1_555
Mn5 O0 1.948784 1_545
Mn5 O15 1.948784 1_554
Mn5 O9 1.952315 1_544
Mn5 O6 1.952315 1_555
Mn5 O13 1.965669 1_544
Mn5 O2 1.965669 1_555
Mn6 O8 1.962295 1_545
Mn6 O7 1.962295 1_555
Mn6 O1 1.969651 1_545
Mn6 O14 1.969651 1_555
Mn6 O12 2.282146 1_545
Mn6 O3 2.282146 1_555
