# generated using pymatgen
data_BaO5
_symmetry_space_group_name_H-M   'P 1'
_cell_length_a   5.09525900
_cell_length_b   7.06975000
_cell_length_c   10.78143000
_cell_angle_alpha   90.00000000
_cell_angle_beta   90.00000000
_cell_angle_gamma   90.00000000
_symmetry_Int_Tables_number   1
_chemical_formula_structural   BaO5
_chemical_formula_sum   'Ba4 O20'
_cell_volume   388.37090661
_cell_formula_units_Z   4
loop_
 _symmetry_equiv_pos_site_id
 _symmetry_equiv_pos_as_xyz
  1  'x, y, z'
loop_
 _atom_site_type_symbol
 _atom_site_label
 _atom_site_symmetry_multiplicity
 _atom_site_fract_x
 _atom_site_fract_y
 _atom_site_fract_z
 _atom_site_occupancy
  Ba  Ba0  1  0.47569800  0.43712400  0.25000000  1
  Ba  Ba1  1  0.52430200  0.56287600  0.75000000  1
  Ba  Ba2  1  0.97569800  0.06287600  0.75000000  1
  Ba  Ba3  1  0.02430200  0.93712400  0.25000000  1
  O  O0  1  0.43960800  0.07185900  0.57978600  1
  O  O1  1  0.56039200  0.92814100  0.42021400  1
  O  O2  1  0.93960800  0.42814100  0.42021400  1
  O  O3  1  0.56039200  0.92814100  0.07978600  1
  O  O4  1  0.06039200  0.57185900  0.57978600  1
  O  O5  1  0.43960800  0.07185900  0.92021400  1
  O  O6  1  0.06039200  0.57185900  0.92021400  1
  O  O7  1  0.93960800  0.42814100  0.07978600  1
  O  O8  1  0.06484600  0.26922000  0.08620900  1
  O  O9  1  0.93515400  0.73078000  0.91379100  1
  O  O10  1  0.56484600  0.23078000  0.91379100  1
  O  O11  1  0.93515400  0.73078000  0.58620900  1
  O  O12  1  0.43515400  0.76922000  0.08620900  1
  O  O13  1  0.06484600  0.26922000  0.41379100  1
  O  O14  1  0.43515400  0.76922000  0.41379100  1
  O  O15  1  0.56484600  0.23078000  0.58620900  1
  O  O16  1  0.52796100  0.05900100  0.25000000  1
  O  O17  1  0.47203900  0.94099900  0.75000000  1
  O  O18  1  0.02796100  0.44099900  0.75000000  1
  O  O19  1  0.97203900  0.55900100  0.25000000  1
loop_
_geom_bond_atom_site_label_1
_geom_bond_atom_site_label_2
_geom_bond_distance
_geom_bond_site_symmetry_2
Ba0 O19 2.671740 1_555
Ba0 O16 2.686466 1_555
Ba0 O19 2.707061 1_455
Ba0 O12 2.945066 1_555
Ba0 O14 2.945066 1_555
Ba0 O13 2.984926 1_555
Ba0 O8 2.984926 1_555
Ba0 O2 2.993173 1_555
Ba0 O7 2.993173 1_555
Ba1 O18 2.671740 1_555
Ba1 O17 2.686466 1_555
Ba1 O18 2.707061 1_655
Ba1 O10 2.945066 1_555
Ba1 O15 2.945066 1_555
Ba1 O9 2.984926 1_555
Ba1 O11 2.984926 1_555
Ba1 O6 2.993173 1_555
Ba1 O4 2.993173 1_555
Ba2 O17 2.671740 1_645
Ba2 O18 2.686466 1_655
Ba2 O17 2.707061 1_545
Ba2 O9 2.945066 1_545
Ba2 O11 2.945066 1_545
Ba2 O15 2.984926 1_555
Ba2 O10 2.984926 1_555
Ba2 O0 2.993173 1_655
Ba2 O5 2.993173 1_655
Ba3 O16 2.671740 1_465
Ba3 O19 2.686466 1_455
Ba3 O16 2.707061 1_565
Ba3 O13 2.945066 1_565
Ba3 O8 2.945066 1_565
Ba3 O12 2.984926 1_555
Ba3 O14 2.984926 1_555
Ba3 O1 2.993173 1_455
Ba3 O3 2.993173 1_455
O0 O15 1.293954 1_555
O1 O14 1.293954 1_555
O6 O9 1.293954 1_455
O7 O8 1.293954 1_655
O10 O5 1.293954 1_555
O11 O4 1.293954 1_655
O12 O3 1.293954 1_555
O13 O2 1.293954 1_455
