# generated using pymatgen
data_Li6MnV3(PO4)6
_symmetry_space_group_name_H-M   'P 1'
_cell_length_a   8.45886600
_cell_length_b   8.81164401
_cell_length_c   12.49078375
_cell_angle_alpha   90.69535106
_cell_angle_beta   92.37037994
_cell_angle_gamma   90.00282849
_symmetry_Int_Tables_number   1
_chemical_formula_structural   Li6MnV3(PO4)6
_chemical_formula_sum   'Li12 Mn2 V6 P12 O48'
_cell_volume   930.15422500
_cell_formula_units_Z   2
loop_
 _symmetry_equiv_pos_site_id
 _symmetry_equiv_pos_as_xyz
  1  'x, y, z'
loop_
 _atom_site_type_symbol
 _atom_site_label
 _atom_site_symmetry_multiplicity
 _atom_site_fract_x
 _atom_site_fract_y
 _atom_site_fract_z
 _atom_site_occupancy
  Li  Li0  1  0.99863400  0.99969300  0.99779700  1
  Li  Li1  1  0.99890300  0.90087500  0.75082000  1
  Li  Li2  1  0.99479000  0.99523500  0.50222800  1
  Li  Li3  1  0.99207300  0.10020700  0.24853300  1
  Li  Li4  1  0.29168300  0.19484700  0.95212500  1
  Li  Li5  1  0.29338400  0.80905500  0.45578600  1
  Li  Li6  1  0.50976600  0.49666300  0.99625900  1
  Li  Li7  1  0.50050100  0.59726000  0.74960700  1
  Li  Li8  1  0.50115700  0.49908900  0.50267600  1
  Li  Li9  1  0.50637400  0.39964200  0.24935300  1
  Li  Li10  1  0.70553500  0.18659600  0.54913500  1
  Li  Li11  1  0.70946400  0.80643200  0.04621400  1
  Mn  Mn0  1  0.71584800  0.99872100  0.35654300  1
  Mn  Mn1  1  0.78749300  0.50316400  0.14646800  1
  V  V0  1  0.21233700  0.50146200  0.85645300  1
  V  V1  1  0.21352300  0.49788000  0.35551100  1
  V  V2  1  0.28448500  0.00210800  0.64143000  1
  V  V3  1  0.28546300  0.99769000  0.14130800  1
  V  V4  1  0.71616000  0.00388300  0.85761200  1
  V  V5  1  0.78599600  0.49893400  0.64463200  1
  P  P0  1  0.00074000  0.20295600  0.75011300  1
  P  P1  1  0.00091200  0.79801400  0.25004900  1
  P  P2  1  0.15721500  0.64321900  0.60411700  1
  P  P3  1  0.15132800  0.35736600  0.10499300  1
  P  P4  1  0.34809100  0.85441500  0.89625600  1
  P  P5  1  0.35214400  0.14564600  0.39740200  1
  P  P6  1  0.49928700  0.29399700  0.75010700  1
  P  P7  1  0.50441700  0.70906500  0.25236700  1
  P  P8  1  0.65236000  0.85238900  0.60520800  1
  P  P9  1  0.65296000  0.15045400  0.10086600  1
  P  P10  1  0.84117900  0.64568200  0.89398600  1
  P  P11  1  0.83794800  0.35177700  0.39546200  1
  O  O0  1  0.00861700  0.58181500  0.89624200  1
  O  O1  1  0.00828400  0.40675100  0.39269800  1
  O  O2  1  0.06735300  0.09193600  0.66369200  1
  O  O3  1  0.07068600  0.90806300  0.16633800  1
  O  O4  1  0.12939300  0.29686600  0.81060600  1
  O  O5  1  0.12509300  0.70192000  0.30957900  1
  O  O6  1  0.14530000  0.82022900  0.58913800  1
  O  O7  1  0.14091300  0.18001500  0.09263400  1
  O  O8  1  0.25222700  0.59647600  0.70625300  1
  O  O9  1  0.24929400  0.93943200  0.98175700  1
  O  O10  1  0.25437000  0.58962800  0.50612600  1
  O  O11  1  0.24434400  0.40602900  0.20923700  1
  O  O12  1  0.25342100  0.05995200  0.48012400  1
  O  O13  1  0.27275000  0.90472800  0.78799200  1
  O  O14  1  0.24910800  0.40972600  0.00957800  1
  O  O15  1  0.28033100  0.09529700  0.28685900  1
  O  O16  1  0.34289500  0.67916100  0.91008700  1
  O  O17  1  0.34780200  0.32055100  0.41093700  1
  O  O18  1  0.37924500  0.19608100  0.68704300  1
  O  O19  1  0.38630000  0.80493800  0.18780500  1
  O  O20  1  0.42935800  0.40183900  0.83731700  1
  O  O21  1  0.43254100  0.59938000  0.33458900  1
  O  O22  1  0.47429900  0.89405800  0.59065600  1
  O  O23  1  0.47549300  0.10582700  0.09017300  1
  O  O24  1  0.52554400  0.89344700  0.90953400  1
  O  O25  1  0.53086400  0.10598600  0.41139600  1
  O  O26  1  0.56876400  0.40171800  0.66509000  1
  O  O27  1  0.58012000  0.60302600  0.16544500  1
  O  O28  1  0.62045700  0.19630700  0.81074200  1
  O  O29  1  0.62313200  0.80741700  0.31795600  1
  O  O30  1  0.65341200  0.67695700  0.58863800  1
  O  O31  1  0.64818500  0.32697900  0.08832600  1
  O  O32  1  0.72211900  0.89727600  0.71773000  1
  O  O33  1  0.73758100  0.59701600  0.98708100  1
  O  O34  1  0.73509800  0.10094900  0.20628500  1
  O  O35  1  0.75431000  0.94109600  0.52734400  1
  O  O36  1  0.75024600  0.59825200  0.78916600  1
  O  O37  1  0.74557500  0.40127200  0.49532100  1
  O  O38  1  0.74888300  0.06714700  0.01351400  1
  O  O39  1  0.73867300  0.39848000  0.29605300  1
  O  O40  1  0.86109800  0.82285700  0.90795200  1
  O  O41  1  0.85297500  0.17242000  0.40708400  1
  O  O42  1  0.87324800  0.29728900  0.69104000  1
  O  O43  1  0.87279400  0.70691700  0.18628300  1
  O  O44  1  0.93395000  0.09354800  0.83496300  1
  O  O45  1  0.93209300  0.90895300  0.33602500  1
  O  O46  1  0.98859900  0.58494200  0.60373900  1
  O  O47  1  0.98071400  0.41463400  0.10442000  1
loop_
_geom_bond_atom_site_label_1
_geom_bond_atom_site_label_2
_geom_bond_distance
_geom_bond_site_symmetry_2
Li0 O9 2.202371 1_655
Li0 O38 2.210554 1_566
Li0 O40 2.211408 1_555
Li0 O44 2.251444 1_565
Li0 O7 2.283115 1_666
Li0 O3 2.321735 1_656
Li1 O44 2.072066 1_565
Li1 O2 2.109626 1_665
Li1 O13 2.343768 1_655
Li1 O32 2.360732 1_555
Li1 O40 2.430128 1_555
Li1 O6 2.507817 1_655
Li2 O35 2.126087 1_555
Li2 O2 2.241916 1_665
Li2 O45 2.244923 1_555
Li2 O6 2.259184 1_655
Li2 O41 2.283922 1_565
Li2 O12 2.289374 1_665
Li3 O3 2.092191 1_645
Li3 O45 2.093398 1_545
Li3 O34 2.215574 1_555
Li3 O41 2.423559 1_555
Li3 O15 2.465864 1_655
Li3 O7 2.471356 1_655
Li4 O14 2.053842 1_556
Li4 O7 2.216877 1_556
Li4 O9 2.315598 1_545
Li4 O4 2.378095 1_555
Li4 O23 2.411901 1_556
Li5 O10 2.071078 1_555
Li5 O6 2.126461 1_555
Li5 O12 2.255361 1_565
Li5 O22 2.344557 1_555
Li5 O5 2.448638 1_555
Li6 O33 2.128191 1_555
Li6 O31 2.204437 1_556
Li6 O20 2.224907 1_555
Li6 O14 2.347179 1_556
Li6 O27 2.355059 1_556
Li6 O16 2.377721 1_555
Li7 O26 2.103129 1_555
Li7 O8 2.147003 1_555
Li7 O36 2.149579 1_555
Li7 O20 2.151245 1_555
Li7 O30 2.541284 1_555
Li7 O16 2.549961 1_555
Li8 O10 2.236722 1_555
Li8 O37 2.244967 1_555
Li8 O30 2.261112 1_555
Li8 O26 2.263862 1_555
Li8 O17 2.303021 1_555
Li8 O21 2.338846 1_555
Li9 O39 2.026542 1_555
Li9 O21 2.151944 1_555
Li9 O27 2.190651 1_555
Li9 O11 2.252964 1_555
Li9 O31 2.462284 1_555
Li9 O17 2.572247 1_555
Li10 O37 2.048048 1_555
Li10 O41 2.212911 1_555
Li10 O35 2.217900 1_545
Li10 O25 2.325418 1_555
Li10 O42 2.419846 1_555
Li11 O33 1.997184 1_554
Li11 O40 2.199535 1_554
Li11 O43 2.361383 1_555
Li11 O38 2.364253 1_565
Li11 O24 2.394812 1_554
Li11 O27 2.612836 1_555
Mn0 O29 1.907319 1_555
Mn0 O25 1.970882 1_565
Mn0 O41 2.000612 1_565
Mn0 O45 2.017745 1_555
Mn0 O34 2.103991 1_565
Mn0 O35 2.210008 1_555
Mn1 O47 1.901828 1_555
Mn1 O27 1.984185 1_555
Mn1 O43 1.984927 1_555
Mn1 O31 2.056180 1_555
Mn1 O39 2.148975 1_555
Mn1 O33 2.190021 1_554
O0 P10 1.523377 1_455
O0 V0 1.944301 1_555
O1 P11 1.521954 1_455
O1 V1 1.987507 1_555
O2 P0 1.569870 1_555
O2 V2 2.028380 1_555
O3 P1 1.567675 1_555
O3 V3 2.018652 1_555
O4 P0 1.535161 1_555
O4 V0 2.002991 1_555
O5 P1 1.524483 1_555
O5 V1 2.027537 1_555
O6 P2 1.575919 1_555
O6 V2 2.071730 1_565
O7 P3 1.570604 1_555
O7 V3 2.099576 1_545
O8 P2 1.539839 1_555
O8 V0 2.103587 1_555
O9 P4 1.566736 1_555
O9 V3 2.062418 1_556
O10 P2 1.570267 1_555
O10 V1 2.054641 1_555
O11 P3 1.549208 1_555
O11 V1 2.016128 1_555
O12 P5 1.557380 1_555
O12 V2 2.090349 1_555
O13 P4 1.541011 1_555
O13 V2 2.037319 1_565
O14 P3 1.553136 1_555
O14 V0 2.096841 1_554
O15 P5 1.545342 1_555
O15 V3 2.003869 1_545
O16 P4 1.556812 1_555
O16 V0 2.008335 1_555
O17 P5 1.549008 1_555
O17 V1 2.042652 1_555
O18 P6 1.520939 1_555
O18 V2 1.956271 1_555
O19 P7 1.520611 1_555
O19 V3 1.983115 1_555
O20 P6 1.570908 1_555
O20 V0 2.056474 1_555
O21 P7 1.560203 1_555
O21 V1 2.084721 1_555
O22 P8 1.554189 1_555
O22 V2 1.989076 1_565
O23 P9 1.551795 1_555
O23 V3 1.999829 1_545
O24 P4 1.541728 1_555
O24 V4 2.017192 1_565
O25 P5 1.554929 1_555
O26 P6 1.565277 1_555
O26 V5 2.054180 1_555
O27 P7 1.579515 1_555
O28 P6 1.522123 1_555
O28 V4 1.964201 1_555
O29 P7 1.531434 1_555
O30 P8 1.557222 1_555
O30 V5 2.041965 1_555
O31 P9 1.565588 1_555
O32 P8 1.548521 1_555
O32 V4 1.976175 1_565
O33 P10 1.549310 1_555
O34 P9 1.531403 1_555
O35 P8 1.545434 1_555
O36 P10 1.543998 1_555
O36 V5 2.030627 1_555
O37 P11 1.556920 1_555
O37 V5 2.060100 1_555
O38 P9 1.562552 1_555
O38 V4 2.026957 1_554
O39 P11 1.530535 1_555
O40 P10 1.577057 1_555
O40 V4 2.098501 1_565
O41 P11 1.593440 1_555
O42 P0 1.532179 1_655
O42 V5 2.006884 1_555
O43 P1 1.538251 1_655
O44 P0 1.564018 1_655
O44 V4 2.036317 1_555
O45 P1 1.572913 1_655
O46 P2 1.515706 1_655
O46 V5 1.963169 1_555
O47 P3 1.528670 1_655
