# generated using pymatgen
data_Sr3LaMn4O10
_symmetry_space_group_name_H-M   'P 1'
_cell_length_a   3.97457000
_cell_length_b   5.62442200
_cell_length_c   10.84881582
_cell_angle_alpha   89.88248058
_cell_angle_beta   90.00000000
_cell_angle_gamma   90.00000000
_symmetry_Int_Tables_number   1
_chemical_formula_structural   Sr3LaMn4O10
_chemical_formula_sum   'Sr3 La1 Mn4 O10'
_cell_volume   242.52106752
_cell_formula_units_Z   1
loop_
 _symmetry_equiv_pos_site_id
 _symmetry_equiv_pos_as_xyz
  1  'x, y, z'
loop_
 _atom_site_type_symbol
 _atom_site_label
 _atom_site_symmetry_multiplicity
 _atom_site_fract_x
 _atom_site_fract_y
 _atom_site_fract_z
 _atom_site_occupancy
  Sr  Sr0  1  0.50000000  0.78829000  0.86091400  1
  Sr  Sr1  1  0.50000000  0.71202500  0.37111000  1
  Sr  Sr2  1  0.50000000  0.28901100  0.63254100  1
  La  La0  1  0.50000000  0.19975800  0.13448000  1
  Mn  Mn0  1  0.00000000  0.23502700  0.37767300  1
  Mn  Mn1  1  0.00000000  0.76571600  0.62261200  1
  Mn  Mn2  1  0.00000000  0.73070200  0.12053300  1
  Mn  Mn3  1  0.00000000  0.26832300  0.87940400  1
  O  O0  1  0.00000000  0.94682000  0.27539600  1
  O  O1  1  0.00000000  0.04753600  0.72792400  1
  O  O2  1  0.00000000  0.42593300  0.20848700  1
  O  O3  1  0.00000000  0.54791000  0.77711600  1
  O  O4  1  0.00000000  0.50282000  0.49784300  1
  O  O5  1  0.00000000  0.01827100  0.00995000  1
  O  O6  1  0.50000000  0.21461600  0.38651100  1
  O  O7  1  0.50000000  0.79599300  0.60402200  1
  O  O8  1  0.50000000  0.71420400  0.10488500  1
  O  O9  1  0.50000000  0.29704500  0.90860000  1
loop_
_geom_bond_atom_site_label_1
_geom_bond_atom_site_label_2
_geom_bond_distance
_geom_bond_site_symmetry_2
La0 O2 2.493265 1_555
La0 O2 2.493265 1_655
La0 O9 2.509783 1_554
La0 O5 2.611918 1_555
La0 O5 2.611918 1_655
La0 O6 2.735686 1_555
La0 O8 2.750423 1_545
La0 O0 2.881215 1_545
La0 O0 2.881215 1_645
La0 O8 2.910566 1_555
Mn0 O0 1.966263 1_545
Mn0 O6 1.992895 1_455
Mn0 O6 1.992895 1_555
Mn0 O4 1.994060 1_555
Mn0 O2 2.124563 1_555
Mn1 O1 1.955817 1_565
Mn1 O7 2.004703 1_455
Mn1 O7 2.004703 1_555
Mn1 O4 2.006690 1_555
Mn1 O3 2.074097 1_555
Mn2 O2 1.960125 1_555
Mn2 O8 1.996696 1_455
Mn2 O8 1.996696 1_555
Mn2 O5 2.011795 1_565
Mn2 O0 2.075712 1_555
Mn3 O3 1.922781 1_555
Mn3 O5 1.993892 1_556
Mn3 O9 2.018894 1_455
Mn3 O9 2.018894 1_555
Mn3 O1 2.061827 1_555
O0 Sr1 2.601128 1_455
O0 Sr1 2.601128 1_555
O1 Sr2 2.618955 1_455
O1 Sr2 2.618955 1_555
O1 Sr0 2.854537 1_445
O1 Sr0 2.854537 1_545
O2 Sr1 3.108504 1_455
O2 Sr1 3.108504 1_555
O3 Sr0 2.570744 1_455
O3 Sr0 2.570744 1_555
O3 Sr2 2.922183 1_455
O3 Sr2 2.922183 1_555
O4 Sr1 2.686549 1_555
O4 Sr1 2.686549 1_455
O4 Sr2 2.742930 1_455
O4 Sr2 2.742930 1_555
O5 Sr0 2.871463 1_444
O5 Sr0 2.871463 1_544
O6 Sr2 2.702581 1_555
O6 Sr1 2.802281 1_555
O6 Sr1 2.832060 1_545
O7 Sr1 2.571527 1_555
O7 Sr0 2.787222 1_555
O7 Sr2 2.790779 1_565
O7 Sr2 2.867586 1_555
O8 Sr0 2.678552 1_554
O8 Sr1 2.888227 1_555
O9 Sr0 2.809942 1_555
O9 Sr0 2.908887 1_545
O9 Sr2 2.995347 1_555
