# generated using pymatgen
data_La(PRh)2
_symmetry_space_group_name_H-M   'P 1'
_cell_length_a   4.19785066
_cell_length_b   4.19785066
_cell_length_c   9.61585675
_cell_angle_alpha   90.00000000
_cell_angle_beta   90.00000000
_cell_angle_gamma   90.00000000
_symmetry_Int_Tables_number   1
_chemical_formula_structural   La(PRh)2
_chemical_formula_sum   'La2 P4 Rh4'
_cell_volume   169.45014843
_cell_formula_units_Z   2
loop_
 _symmetry_equiv_pos_site_id
 _symmetry_equiv_pos_as_xyz
  1  'x, y, z'
loop_
 _atom_site_type_symbol
 _atom_site_label
 _atom_site_symmetry_multiplicity
 _atom_site_fract_x
 _atom_site_fract_y
 _atom_site_fract_z
 _atom_site_occupancy
  La  La0  1  0.00000000  0.50000000  0.25726130  1
  La  La1  1  0.50000000  0.00000000  0.74273870  1
  P  P0  1  -0.00000000  -0.00000000  0.50000000  1
  P  P1  1  0.50000000  0.50000000  0.50000000  1
  P  P2  1  -0.00000000  0.50000000  0.86237208  1
  P  P3  1  0.50000000  0.00000000  0.13762792  1
  Rh  Rh0  1  -0.00000000  -0.00000000  0.00000000  1
  Rh  Rh1  1  0.50000000  0.50000000  0.00000000  1
  Rh  Rh2  1  0.00000000  0.50000000  0.60967516  1
  Rh  Rh3  1  0.50000000  -0.00000000  0.39032484  1
loop_
_geom_bond_atom_site_label_1
_geom_bond_atom_site_label_2
_geom_bond_distance
_geom_bond_site_symmetry_2
La0 P0 3.139060 1_555
La0 P1 3.139060 1_555
La0 P1 3.139060 1_455
La0 P0 3.139060 1_565
La0 P3 3.183448 1_455
La0 P3 3.183448 1_465
La0 P3 3.183448 1_565
La0 P3 3.183448 1_555
La0 Rh3 3.232359 1_565
La0 Rh3 3.232359 1_465
La0 Rh3 3.232359 1_555
La0 Rh3 3.232359 1_455
La0 Rh1 3.244243 1_455
La0 Rh0 3.244243 1_565
La0 Rh0 3.244243 1_555
La0 Rh1 3.244243 1_555
La1 P0 3.139060 1_555
La1 P1 3.139060 1_545
La1 P0 3.139060 1_655
La1 P1 3.139060 1_555
La1 P2 3.183448 1_655
La1 P2 3.183448 1_645
La1 P2 3.183448 1_555
La1 P2 3.183448 1_545
La1 Rh2 3.232359 1_655
La1 Rh2 3.232359 1_545
La1 Rh2 3.232359 1_645
La1 Rh2 3.232359 1_555
La1 Rh0 3.244243 1_656
La1 Rh1 3.244243 1_556
La1 Rh1 3.244243 1_546
La1 Rh0 3.244243 1_556
P0 Rh2 2.348981 1_545
P0 Rh3 2.348981 1_555
P0 Rh2 2.348981 1_555
P0 Rh3 2.348981 1_455
P1 Rh3 2.348981 1_565
P1 Rh3 2.348981 1_555
P1 Rh2 2.348981 1_655
P1 Rh2 2.348981 1_555
P2 Rh2 2.429897 1_555
P2 Rh0 2.481311 1_556
P2 Rh1 2.481311 1_456
P2 Rh1 2.481311 1_556
P2 Rh0 2.481311 1_566
P3 Rh3 2.429897 1_555
P3 Rh1 2.481311 1_555
P3 Rh0 2.481311 1_655
P3 Rh0 2.481311 1_555
P3 Rh1 2.481311 1_545
