# generated using pymatgen
data_Mo15N16
_symmetry_space_group_name_H-M   'P 1'
_cell_length_a   7.97625374
_cell_length_b   7.97625374
_cell_length_c   10.00610704
_cell_angle_alpha   89.95391237
_cell_angle_beta   89.95391237
_cell_angle_gamma   91.58537679
_symmetry_Int_Tables_number   1
_chemical_formula_structural   Mo15N16
_chemical_formula_sum   'Mo30 N32'
_cell_volume   636.35066415
_cell_formula_units_Z   2
loop_
 _symmetry_equiv_pos_site_id
 _symmetry_equiv_pos_as_xyz
  1  'x, y, z'
loop_
 _atom_site_type_symbol
 _atom_site_label
 _atom_site_symmetry_multiplicity
 _atom_site_fract_x
 _atom_site_fract_y
 _atom_site_fract_z
 _atom_site_occupancy
  Mo  Mo0  1  0.49042098  0.74924662  0.01480809  1
  Mo  Mo1  1  0.49231945  0.75146992  0.51183938  1
  Mo  Mo2  1  0.61460884  0.62398421  0.23481574  1
  Mo  Mo3  1  0.62398421  0.61460884  0.73481574  1
  Mo  Mo4  1  0.99134019  0.75022370  0.48972739  1
  Mo  Mo5  1  0.74924662  0.49042098  0.51480809  1
  Mo  Mo6  1  0.75146992  0.49231945  0.01183938  1
  Mo  Mo7  1  0.98986567  0.75327861  0.98550244  1
  Mo  Mo8  1  0.88153491  0.38344421  0.74208100  1
  Mo  Mo9  1  0.11677692  0.61820242  0.26632966  1
  Mo  Mo10  1  0.85878760  0.35703699  0.23409208  1
  Mo  Mo11  1  0.25294059  0.49006992  0.98463365  1
  Mo  Mo12  1  0.99241097  0.25124539  0.01161909  1
  Mo  Mo13  1  0.99072072  0.24933115  0.51475710  1
  Mo  Mo14  1  0.25013195  0.49164283  0.48975798  1
  Mo  Mo15  1  0.12245155  0.11639283  0.23436928  1
  Mo  Mo16  1  0.37049746  0.36911850  0.76330952  1
  Mo  Mo17  1  0.11639283  0.12245155  0.73436928  1
  Mo  Mo18  1  0.36911850  0.37049746  0.26330952  1
  Mo  Mo19  1  0.25124539  0.99241097  0.51161909  1
  Mo  Mo20  1  0.49006992  0.25294059  0.48463365  1
  Mo  Mo21  1  0.24933115  0.99072072  0.01475710  1
  Mo  Mo22  1  0.49164283  0.25013195  0.98975798  1
  Mo  Mo23  1  0.35703699  0.85878760  0.73409208  1
  Mo  Mo24  1  0.38344421  0.88153491  0.24208100  1
  Mo  Mo25  1  0.61820242  0.11677692  0.76632966  1
  Mo  Mo26  1  0.75327861  0.98986567  0.48550244  1
  Mo  Mo27  1  0.75022370  0.99134019  0.98972739  1
  Mo  Mo28  1  0.86751925  0.87188372  0.76303804  1
  Mo  Mo29  1  0.87188372  0.86751925  0.26303804  1
  N  N0  1  0.25047794  0.75096709  0.91905778  1
  N  N1  1  0.36987348  0.61207751  0.66798839  1
  N  N2  1  0.35987059  0.61178129  0.16605745  1
  N  N3  1  0.50650181  0.50377744  0.91517679  1
  N  N4  1  0.75229619  0.75365333  0.58482637  1
  N  N5  1  0.50377744  0.50650181  0.41517679  1
  N  N6  1  0.61178129  0.35987059  0.66605745  1
  N  N7  1  0.61207751  0.36987348  0.16798839  1
  N  N8  1  0.85914074  0.61061018  0.33484725  1
  N  N9  1  0.87035782  0.61741336  0.83456461  1
  N  N10  1  0.00122635  0.50148899  0.57884484  1
  N  N11  1  0.75096709  0.25047794  0.41905778  1
  N  N12  1  0.75076405  0.25062424  0.91835614  1
  N  N13  1  0.00523398  0.50505551  0.08427371  1
  N  N14  1  0.11682824  0.37023195  0.83354352  1
  N  N15  1  0.86932790  0.11118005  0.16713232  1
  N  N16  1  0.86064102  0.11307522  0.66637880  1
  N  N17  1  0.11132759  0.35985461  0.33488404  1
  N  N18  1  0.00397533  0.00649725  0.91489815  1
  N  N19  1  0.25276458  0.25420531  0.08453742  1
  N  N20  1  0.00649725  0.00397533  0.41489815  1
  N  N21  1  0.25420531  0.25276458  0.58453742  1
  N  N22  1  0.37023195  0.11682824  0.33354352  1
  N  N23  1  0.11118005  0.86932790  0.66713232  1
  N  N24  1  0.11307522  0.86064102  0.16637880  1
  N  N25  1  0.35985461  0.11132759  0.83488404  1
  N  N26  1  0.50505551  0.00523398  0.58427371  1
  N  N27  1  0.25062424  0.75076405  0.41835614  1
  N  N28  1  0.50148899  0.00122635  0.07884484  1
  N  N29  1  0.61061018  0.85914074  0.83484725  1
  N  N30  1  0.61741336  0.87035782  0.33456461  1
  N  N31  1  0.75365333  0.75229619  0.08482637  1
loop_
_geom_bond_atom_site_label_1
_geom_bond_atom_site_label_2
_geom_bond_distance
_geom_bond_site_symmetry_2
Mo0 N28 2.109555 1_565
Mo0 N2 2.123343 1_555
Mo0 N0 2.141334 1_554
Mo0 N3 2.204677 1_554
Mo0 N29 2.208640 1_554
Mo0 N31 2.213452 1_555
Mo1 N1 2.136803 1_555
Mo1 N27 2.143320 1_555
Mo1 N26 2.150270 1_565
Mo1 N5 2.185057 1_555
Mo1 N4 2.198660 1_555
Mo1 N30 2.232346 1_555
Mo2 N31 2.112327 1_555
Mo2 N7 2.134387 1_555
Mo2 N2 2.145385 1_555
Mo2 N8 2.198173 1_555
Mo2 N30 2.204366 1_555
Mo2 N5 2.205777 1_555
Mo3 N4 2.112327 1_555
Mo3 N1 2.134387 1_555
Mo3 N6 2.145385 1_555
Mo3 N29 2.198173 1_555
Mo3 N9 2.204366 1_555
Mo3 N3 2.205777 1_555
Mo4 N4 2.131116 1_555
Mo4 N20 2.157694 1_665
Mo4 N8 2.166591 1_555
Mo4 N10 2.177945 1_655
Mo4 N27 2.187294 1_655
Mo4 N23 2.218670 1_655
Mo5 N10 2.109555 1_655
Mo5 N6 2.123343 1_555
Mo5 N11 2.141334 1_555
Mo5 N5 2.204677 1_555
Mo5 N8 2.208640 1_555
Mo5 N4 2.213452 1_555
Mo6 N7 2.136803 1_555
Mo6 N12 2.143320 1_554
Mo6 N13 2.150270 1_655
Mo6 N3 2.185057 1_554
Mo6 N31 2.198660 1_555
Mo6 N9 2.232346 1_554
Mo7 N9 2.076495 1_555
Mo7 N31 2.129259 1_556
Mo7 N18 2.139183 1_665
Mo7 N0 2.182503 1_655
Mo7 N13 2.218611 1_656
Mo7 N24 2.221158 1_656
Mo8 N9 2.087788 1_555
Mo8 N14 2.093907 1_655
Mo8 N10 2.100261 1_655
Mo8 N6 2.285603 1_555
Mo8 N16 2.288041 1_555
Mo8 N12 2.292225 1_555
Mo9 N27 2.124739 1_555
Mo9 N8 2.165039 1_455
Mo9 N17 2.170582 1_555
Mo9 N24 2.177292 1_555
Mo9 N2 2.184349 1_555
Mo9 N13 2.210283 1_555
Mo10 N15 2.076707 1_555
Mo10 N7 2.081693 1_555
Mo10 N11 2.200428 1_555
Mo10 N13 2.218932 1_655
Mo10 N17 2.252986 1_655
Mo10 N8 2.260563 1_555
Mo11 N14 2.079782 1_555
Mo11 N19 2.129665 1_556
Mo11 N3 2.137926 1_555
Mo11 N0 2.182087 1_555
Mo11 N13 2.218575 1_556
Mo11 N2 2.219208 1_556
Mo12 N15 2.137146 1_555
Mo12 N12 2.142025 1_554
Mo12 N13 2.151376 1_655
Mo12 N18 2.183801 1_654
Mo12 N19 2.201165 1_655
Mo12 N14 2.236703 1_654
Mo13 N10 2.110997 1_655
Mo13 N16 2.119389 1_555
Mo13 N11 2.139618 1_555
Mo13 N20 2.204707 1_655
Mo13 N17 2.211267 1_655
Mo13 N21 2.214563 1_655
Mo14 N21 2.128710 1_555
Mo14 N5 2.155973 1_555
Mo14 N17 2.161767 1_555
Mo14 N10 2.179043 1_555
Mo14 N27 2.186175 1_555
Mo14 N1 2.229394 1_555
Mo15 N19 2.113763 1_555
Mo15 N15 2.127962 1_455
Mo15 N24 2.150270 1_545
Mo15 N17 2.191572 1_555
Mo15 N20 2.207100 1_555
Mo15 N22 2.212136 1_555
Mo16 N3 2.140193 1_555
Mo16 N14 2.141622 1_555
Mo16 N6 2.158983 1_555
Mo16 N1 2.159347 1_555
Mo16 N25 2.176231 1_555
Mo16 N21 2.208906 1_555
Mo17 N21 2.113763 1_555
Mo17 N23 2.127962 1_545
Mo17 N16 2.150270 1_455
Mo17 N25 2.191572 1_555
Mo17 N18 2.207100 1_555
Mo17 N14 2.212136 1_555
Mo18 N5 2.140193 1_555
Mo18 N22 2.141622 1_555
Mo18 N2 2.158983 1_555
Mo18 N7 2.159347 1_555
Mo18 N17 2.176231 1_555
Mo18 N19 2.208906 1_555
Mo19 N23 2.137146 1_555
Mo19 N27 2.142025 1_555
Mo19 N26 2.151376 1_565
Mo19 N20 2.183801 1_565
Mo19 N21 2.201165 1_565
Mo19 N22 2.236703 1_565
Mo20 N22 2.079782 1_555
Mo20 N21 2.129665 1_555
Mo20 N5 2.137926 1_555
Mo20 N11 2.182087 1_555
Mo20 N26 2.218575 1_555
Mo20 N6 2.219208 1_555
Mo21 N28 2.110997 1_565
Mo21 N24 2.119389 1_555
Mo21 N0 2.139618 1_554
Mo21 N18 2.204707 1_564
Mo21 N25 2.211267 1_564
Mo21 N19 2.214563 1_565
Mo22 N19 2.128710 1_556
Mo22 N3 2.155973 1_555
Mo22 N25 2.161767 1_555
Mo22 N28 2.179043 1_556
Mo22 N12 2.186175 1_555
Mo22 N7 2.229394 1_556
Mo23 N23 2.076707 1_555
Mo23 N1 2.081693 1_555
Mo23 N0 2.200428 1_555
Mo23 N26 2.218932 1_565
Mo23 N25 2.252986 1_565
Mo23 N29 2.260563 1_555
Mo24 N30 2.087788 1_555
Mo24 N22 2.093907 1_565
Mo24 N28 2.100261 1_565
Mo24 N2 2.285603 1_555
Mo24 N24 2.288041 1_555
Mo24 N27 2.292225 1_555
Mo25 N12 2.124739 1_555
Mo25 N29 2.165039 1_545
Mo25 N25 2.170582 1_555
Mo25 N16 2.177292 1_555
Mo25 N6 2.184349 1_555
Mo25 N26 2.210283 1_555
Mo26 N30 2.076495 1_555
Mo26 N4 2.129259 1_555
Mo26 N20 2.139183 1_665
Mo26 N11 2.182503 1_565
Mo26 N26 2.218611 1_565
Mo26 N16 2.221158 1_565
Mo27 N31 2.131116 1_556
Mo27 N18 2.157694 1_665
Mo27 N29 2.166591 1_555
Mo27 N28 2.177945 1_566
Mo27 N12 2.187294 1_565
Mo27 N15 2.218670 1_566
Mo28 N18 2.141746 1_665
Mo28 N9 2.152380 1_555
Mo28 N16 2.154625 1_565
Mo28 N23 2.167429 1_655
Mo28 N29 2.170648 1_555
Mo28 N4 2.207073 1_555
Mo29 N20 2.141746 1_665
Mo29 N30 2.152380 1_555
Mo29 N24 2.154625 1_655
Mo29 N15 2.167429 1_565
Mo29 N8 2.170648 1_555
Mo29 N31 2.207073 1_555
