# generated using pymatgen
data_UMnAl
_symmetry_space_group_name_H-M   'P 1'
_cell_length_a   5.33487261
_cell_length_b   5.33487261
_cell_length_c   8.17192700
_cell_angle_alpha   90.00000000
_cell_angle_beta   90.00000000
_cell_angle_gamma   120.66855673
_symmetry_Int_Tables_number   1
_chemical_formula_structural   UMnAl
_chemical_formula_sum   'U4 Mn4 Al4'
_cell_volume   200.04967661
_cell_formula_units_Z   4
loop_
 _symmetry_equiv_pos_site_id
 _symmetry_equiv_pos_as_xyz
  1  'x, y, z'
loop_
 _atom_site_type_symbol
 _atom_site_label
 _atom_site_symmetry_multiplicity
 _atom_site_fract_x
 _atom_site_fract_y
 _atom_site_fract_z
 _atom_site_occupancy
  U  U0  1  0.33111700  0.66888300  0.19461400  1
  U  U1  1  0.67252000  0.32748000  0.33732900  1
  U  U2  1  0.67252000  0.32748000  0.66267100  1
  U  U3  1  0.33111700  0.66888300  0.80538600  1
  Mn  Mn0  1  0.82777100  0.17222900  0.00000000  1
  Mn  Mn1  1  0.17378800  0.34569500  0.50000000  1
  Mn  Mn2  1  0.65430500  0.82621200  0.50000000  1
  Mn  Mn3  1  0.16962000  0.83038000  0.50000000  1
  Al  Al0  1  0.99719000  0.00281000  0.25880400  1
  Al  Al1  1  0.99719000  0.00281000  0.74119600  1
  Al  Al2  1  0.82952800  0.65969800  0.00000000  1
  Al  Al3  1  0.34030200  0.17047200  0.00000000  1
loop_
_geom_bond_atom_site_label_1
_geom_bond_atom_site_label_2
_geom_bond_distance
_geom_bond_site_symmetry_2
U0 U3 3.180743 1_554
U0 U1 3.239461 1_565
U0 U1 3.239461 1_455
U0 U1 3.373251 1_555
U1 U2 2.658671 1_555
U2 U3 3.239461 1_655
U2 U3 3.239461 1_545
U2 U3 3.373251 1_555
Mn0 U0 3.082555 1_545
Mn0 U0 3.082555 1_655
Mn0 U3 3.082555 1_544
Mn0 U3 3.082555 1_654
Mn0 U2 3.109788 1_554
Mn0 U1 3.109788 1_555
Mn1 Mn2 2.537549 1_555
Mn1 Mn3 2.597145 1_555
Mn1 Mn3 2.737865 1_545
Mn1 Mn2 2.743323 1_445
Mn1 U3 2.903259 1_555
Mn1 U0 2.903259 1_555
Mn1 U1 2.943268 1_455
Mn1 U2 2.943268 1_455
Mn1 U2 3.019852 1_555
Mn1 U1 3.019852 1_555
Mn2 Mn3 2.597145 1_555
Mn2 Mn3 2.737865 1_655
Mn2 U3 2.903259 1_555
Mn2 U0 2.903259 1_555
Mn2 U2 2.943268 1_565
Mn2 U1 2.943268 1_565
Mn2 U2 3.019852 1_555
Mn2 U1 3.019852 1_555
Mn3 U3 2.910295 1_555
Mn3 U0 2.910295 1_555
Mn3 U2 2.956308 1_455
Mn3 U1 2.956308 1_565
Mn3 U2 2.956308 1_565
Mn3 U1 2.956308 1_455
Al0 Mn1 2.522031 1_655
Al0 Mn2 2.522031 1_545
Al0 Mn3 2.537840 1_645
Al0 Mn0 2.634405 1_555
Al0 Al3 2.636912 1_655
Al0 Al2 2.636912 1_545
Al0 U1 3.077733 1_555
Al0 U0 3.101249 1_655
Al0 U0 3.101249 1_545
Al0 U0 3.140041 1_645
Al0 U1 3.166389 1_655
Al0 U1 3.166389 1_545
Al1 Mn1 2.522031 1_655
Al1 Mn2 2.522031 1_545
Al1 Mn3 2.537840 1_645
Al1 Mn0 2.634405 1_556
Al1 Al3 2.636912 1_656
Al1 Al2 2.636912 1_546
Al1 U2 3.077733 1_555
Al1 U3 3.101249 1_655
Al1 U3 3.101249 1_545
Al1 U3 3.140041 1_645
Al1 U2 3.166389 1_655
Al1 U2 3.166389 1_545
Al2 Al3 2.583540 1_555
Al2 Mn0 2.595816 1_555
Al2 Al3 2.697332 1_665
Al2 Mn0 2.739081 1_565
Al2 U0 3.091671 1_655
Al2 U3 3.091671 1_654
Al2 U0 3.120042 1_555
Al2 U3 3.120042 1_554
Al2 U2 3.150769 1_554
Al2 U1 3.150769 1_555
Al3 Mn0 2.595816 1_555
Al3 Mn0 2.739081 1_455
Al3 U0 3.091671 1_545
Al3 U3 3.091671 1_544
Al3 U0 3.120042 1_555
Al3 U3 3.120042 1_554
Al3 U2 3.150769 1_554
Al3 U1 3.150769 1_555
