# generated using pymatgen
data_RbSeO4
_symmetry_space_group_name_H-M   'P 1'
_cell_length_a   4.44299900
_cell_length_b   7.77553070
_cell_length_c   10.87631342
_cell_angle_alpha   110.86035972
_cell_angle_beta   101.49130661
_cell_angle_gamma   89.84706921
_symmetry_Int_Tables_number   1
_chemical_formula_structural   RbSeO4
_chemical_formula_sum   'Rb3 Se3 O12'
_cell_volume   343.11545678
_cell_formula_units_Z   3
loop_
 _symmetry_equiv_pos_site_id
 _symmetry_equiv_pos_as_xyz
  1  'x, y, z'
loop_
 _atom_site_type_symbol
 _atom_site_label
 _atom_site_symmetry_multiplicity
 _atom_site_fract_x
 _atom_site_fract_y
 _atom_site_fract_z
 _atom_site_occupancy
  Rb  Rb0  1  0.91192300  0.19520800  0.45700300  1
  Rb  Rb1  1  0.48652900  0.78646000  0.78906900  1
  Rb  Rb2  1  0.32520000  0.45704900  0.13107700  1
  Se  Se0  1  0.61642700  0.28630200  0.79079200  1
  Se  Se1  1  0.19571200  0.95470800  0.12993100  1
  Se  Se2  1  0.90530400  0.69714900  0.45979900  1
  O  O0  1  0.45478000  0.79739500  0.07334300  1
  O  O1  1  0.94739900  0.51368500  0.32992600  1
  O  O2  1  0.95922800  0.85421200  0.19647800  1
  O  O3  1  0.80486100  0.45742800  0.92485800  1
  O  O4  1  0.85345500  0.11974200  0.72328800  1
  O  O5  1  0.36921100  0.14439900  0.25256800  1
  O  O6  1  0.44278400  0.35674300  0.66965700  1
  O  O7  1  0.59814400  0.80454700  0.40334400  1
  O  O8  1  0.21702300  0.85680800  0.51743500  1
  O  O9  1  0.00622200  0.99578800  0.99745900  1
  O  O10  1  0.35756400  0.18428200  0.84641300  1
  O  O11  1  0.85933400  0.64228600  0.58874100  1
loop_
_geom_bond_atom_site_label_1
_geom_bond_atom_site_label_2
_geom_bond_distance
_geom_bond_site_symmetry_2
O0 Se1 1.714200 1_555
O0 Rb2 3.010760 1_555
O0 Rb1 3.094054 1_554
O1 Se2 1.653482 1_555
O1 Rb2 2.907439 1_655
O1 Rb2 3.075630 1_555
O1 Rb0 3.254801 1_555
O2 Se1 1.717153 1_655
O2 Rb0 3.160215 1_565
O2 Rb2 3.399440 1_655
O3 Se0 1.653892 1_555
O3 Rb2 2.883400 1_656
O3 Rb2 3.388450 1_556
O3 Rb1 3.544903 1_555
O4 Se0 1.717256 1_555
O4 Rb0 3.211024 1_555
O4 Rb1 3.419487 1_545
O5 Se1 1.656534 1_545
O5 Rb0 2.856136 1_555
O5 Rb2 3.142670 1_555
O5 Rb0 3.224598 1_455
O6 Se0 1.654596 1_555
O6 Rb0 2.874621 1_455
O6 Rb1 3.114651 1_555
O6 Rb0 3.333117 1_555
O7 Se2 1.721055 1_555
O7 Rb0 3.153894 1_565
O7 Rb2 3.229347 1_555
O8 Se2 1.720837 1_455
O8 Rb0 3.170272 1_465
O8 Rb1 3.193623 1_555
O9 Se1 1.652201 1_556
O9 Rb1 2.902645 1_455
O9 Rb1 3.409044 1_555
O9 Rb2 3.532462 1_566
O10 Se0 1.715191 1_555
O10 Rb1 3.007428 1_545
O10 Rb2 3.099018 1_556
O11 Se2 1.652609 1_555
O11 Rb1 2.904493 1_555
O11 Rb1 3.102787 1_655
O11 Rb0 3.282343 1_555
