# generated using pymatgen
data_Zn(SnN)2
_symmetry_space_group_name_H-M   'P 1'
_cell_length_a   3.35232600
_cell_length_b   3.35232600
_cell_length_c   8.06420900
_cell_angle_alpha   90.00000000
_cell_angle_beta   90.00000000
_cell_angle_gamma   90.00000000
_symmetry_Int_Tables_number   1
_chemical_formula_structural   Zn(SnN)2
_chemical_formula_sum   'Zn1 Sn2 N2'
_cell_volume   90.62630338
_cell_formula_units_Z   1
loop_
 _symmetry_equiv_pos_site_id
 _symmetry_equiv_pos_as_xyz
  1  'x, y, z'
loop_
 _atom_site_type_symbol
 _atom_site_label
 _atom_site_symmetry_multiplicity
 _atom_site_fract_x
 _atom_site_fract_y
 _atom_site_fract_z
 _atom_site_occupancy
  Zn  Zn0  1  0.00000000  0.00000000  0.00000000  1
  Sn  Sn0  1  0.50000000  0.50000000  0.69417300  1
  Sn  Sn1  1  0.50000000  0.50000000  0.30582700  1
  N  N0  1  0.50000000  0.00000000  0.14581000  1
  N  N1  1  0.00000000  0.50000000  0.85419000  1
loop_
_geom_bond_atom_site_label_1
_geom_bond_atom_site_label_2
_geom_bond_distance
_geom_bond_site_symmetry_2
N0 Zn0 2.047469 1_655
N0 Zn0 2.047469 1_555
N0 Sn1 2.115344 1_555
N0 Sn1 2.115344 1_545
N1 Zn0 2.047469 1_566
N1 Zn0 2.047469 1_556
N1 Sn0 2.115344 1_455
N1 Sn0 2.115344 1_555
