# generated using pymatgen
data_Rb3Ni2(NO3)7
_symmetry_space_group_name_H-M   'P 1'
_cell_length_a   7.21813414
_cell_length_b   8.97532753
_cell_length_c   28.03145725
_cell_angle_alpha   90.00000000
_cell_angle_beta   90.00000000
_cell_angle_gamma   90.00000000
_symmetry_Int_Tables_number   1
_chemical_formula_structural   Rb3Ni2(NO3)7
_chemical_formula_sum   'Rb12 Ni8 N28 O84'
_cell_volume   1816.02126739
_cell_formula_units_Z   4
loop_
 _symmetry_equiv_pos_site_id
 _symmetry_equiv_pos_as_xyz
  1  'x, y, z'
loop_
 _atom_site_type_symbol
 _atom_site_label
 _atom_site_symmetry_multiplicity
 _atom_site_fract_x
 _atom_site_fract_y
 _atom_site_fract_z
 _atom_site_occupancy
  Rb  Rb0  1  0.91199335  0.98341440  0.25000000  1
  Rb  Rb1  1  0.58800665  0.48341440  0.25000000  1
  Rb  Rb2  1  0.08800665  0.01658560  0.75000000  1
  Rb  Rb3  1  0.41199335  0.51658560  0.75000000  1
  Rb  Rb4  1  0.87922164  0.99713521  0.43579423  1
  Rb  Rb5  1  0.62077836  0.49713521  0.06420577  1
  Rb  Rb6  1  0.12077836  0.00286479  0.93579423  1
  Rb  Rb7  1  0.37922164  0.50286479  0.56420577  1
  Rb  Rb8  1  0.12077836  0.00286479  0.56420577  1
  Rb  Rb9  1  0.37922164  0.50286479  0.93579423  1
  Rb  Rb10  1  0.87922164  0.99713521  0.06420577  1
  Rb  Rb11  1  0.62077836  0.49713521  0.43579423  1
  Ni  Ni0  1  0.09965011  0.37036486  0.35879188  1
  Ni  Ni1  1  0.40034989  0.87036486  0.14120812  1
  Ni  Ni2  1  0.90034989  0.62963514  0.85879188  1
  Ni  Ni3  1  0.59965011  0.12963514  0.64120812  1
  Ni  Ni4  1  0.90034989  0.62963514  0.64120812  1
  Ni  Ni5  1  0.59965011  0.12963514  0.85879188  1
  Ni  Ni6  1  0.09965011  0.37036486  0.14120812  1
  Ni  Ni7  1  0.40034989  0.87036486  0.35879188  1
  N  N0  1  0.37496256  0.87706363  0.25000000  1
  N  N1  1  0.12503744  0.37706363  0.25000000  1
  N  N2  1  0.62503744  0.12293637  0.75000000  1
  N  N3  1  0.87496256  0.62293637  0.75000000  1
  N  N4  1  0.10697231  0.34005555  0.46382010  1
  N  N5  1  0.39302769  0.84005555  0.03617990  1
  N  N6  1  0.89302769  0.65994445  0.96382010  1
  N  N7  1  0.60697231  0.15994445  0.53617990  1
  N  N8  1  0.89302769  0.65994445  0.53617990  1
  N  N9  1  0.60697231  0.15994445  0.96382010  1
  N  N10  1  0.10697231  0.34005555  0.03617990  1
  N  N11  1  0.39302769  0.84005555  0.46382010  1
  N  N12  1  0.08381087  0.68314456  0.38185501  1
  N  N13  1  0.41618913  0.18314456  0.11814499  1
  N  N14  1  0.91618913  0.31685544  0.88185501  1
  N  N15  1  0.58381087  0.81685544  0.61814499  1
  N  N16  1  0.91618913  0.31685544  0.61814499  1
  N  N17  1  0.58381087  0.81685544  0.88185501  1
  N  N18  1  0.08381087  0.68314456  0.11814499  1
  N  N19  1  0.41618913  0.18314456  0.38185501  1
  N  N20  1  0.69031194  0.75691527  0.32804048  1
  N  N21  1  0.80968806  0.25691527  0.17195952  1
  N  N22  1  0.30968806  0.24308473  0.82804048  1
  N  N23  1  0.19031194  0.74308473  0.67195952  1
  N  N24  1  0.30968806  0.24308473  0.67195952  1
  N  N25  1  0.19031194  0.74308473  0.82804048  1
  N  N26  1  0.69031194  0.75691527  0.17195952  1
  N  N27  1  0.80968806  0.25691527  0.32804048  1
  O  O0  1  0.01261461  0.31445669  0.42504126  1
  O  O1  1  0.48738539  0.81445669  0.07495874  1
  O  O2  1  0.98738539  0.68554331  0.92504126  1
  O  O3  1  0.51261461  0.18554331  0.57495874  1
  O  O4  1  0.98738539  0.68554331  0.57495874  1
  O  O5  1  0.51261461  0.18554331  0.92504126  1
  O  O6  1  0.01261461  0.31445669  0.07495874  1
  O  O7  1  0.48738539  0.81445669  0.42504126  1
  O  O8  1  0.95970152  0.34152307  0.25000000  1
  O  O9  1  0.54029848  0.84152307  0.25000000  1
  O  O10  1  0.04029848  0.65847693  0.75000000  1
  O  O11  1  0.45970152  0.15847693  0.75000000  1
  O  O12  1  0.90979558  0.75082856  0.50306614  1
  O  O13  1  0.59020442  0.25082856  0.99693386  1
  O  O14  1  0.09020442  0.24917144  0.00306614  1
  O  O15  1  0.40979558  0.74917144  0.49693386  1
  O  O16  1  0.09020442  0.24917144  0.49693386  1
  O  O17  1  0.40979558  0.74917144  0.00306614  1
  O  O18  1  0.90979558  0.75082856  0.99693386  1
  O  O19  1  0.59020442  0.25082856  0.50306614  1
  O  O20  1  0.82464741  0.70768856  0.30638421  1
  O  O21  1  0.67535259  0.20768856  0.19361579  1
  O  O22  1  0.17535259  0.29231144  0.80638421  1
  O  O23  1  0.32464741  0.79231144  0.69361579  1
  O  O24  1  0.17535259  0.29231144  0.69361579  1
  O  O25  1  0.32464741  0.79231144  0.80638421  1
  O  O26  1  0.82464741  0.70768856  0.19361579  1
  O  O27  1  0.67535259  0.20768856  0.30638421  1
  O  O28  1  0.20672577  0.45268396  0.46649857  1
  O  O29  1  0.29327423  0.95268396  0.03350143  1
  O  O30  1  0.79327423  0.54731604  0.96649857  1
  O  O31  1  0.70672577  0.04731604  0.53350143  1
  O  O32  1  0.79327423  0.54731604  0.53350143  1
  O  O33  1  0.70672577  0.04731604  0.96649857  1
  O  O34  1  0.20672577  0.45268396  0.03350143  1
  O  O35  1  0.29327423  0.95268396  0.46649857  1
  O  O36  1  0.81972560  0.39282485  0.34154724  1
  O  O37  1  0.68027440  0.89282485  0.15845276  1
  O  O38  1  0.18027440  0.60717515  0.84154724  1
  O  O39  1  0.31972560  0.10717515  0.65845276  1
  O  O40  1  0.18027440  0.60717515  0.65845276  1
  O  O41  1  0.31972560  0.10717515  0.84154724  1
  O  O42  1  0.81972560  0.39282485  0.15845276  1
  O  O43  1  0.68027440  0.89282485  0.34154724  1
  O  O44  1  0.93410472  0.65665997  0.40100876  1
  O  O45  1  0.56589528  0.15665997  0.09899124  1
  O  O46  1  0.06589528  0.34334003  0.90100876  1
  O  O47  1  0.43410472  0.84334003  0.59899124  1
  O  O48  1  0.06589528  0.34334003  0.59899124  1
  O  O49  1  0.43410472  0.84334003  0.90100876  1
  O  O50  1  0.93410472  0.65665997  0.09899124  1
  O  O51  1  0.56589528  0.15665997  0.40100876  1
  O  O52  1  0.95351312  0.17824443  0.33692639  1
  O  O53  1  0.54648688  0.67824443  0.16307361  1
  O  O54  1  0.04648688  0.82175557  0.83692639  1
  O  O55  1  0.45351312  0.32175557  0.66307361  1
  O  O56  1  0.04648688  0.82175557  0.66307361  1
  O  O57  1  0.45351312  0.32175557  0.83692639  1
  O  O58  1  0.95351312  0.17824443  0.16307361  1
  O  O59  1  0.54648688  0.67824443  0.33692639  1
  O  O60  1  0.28634531  0.89551917  0.28880166  1
  O  O61  1  0.21365469  0.39551917  0.21119834  1
  O  O62  1  0.71365469  0.10448083  0.78880166  1
  O  O63  1  0.78634531  0.60448083  0.71119834  1
  O  O64  1  0.71365469  0.10448083  0.71119834  1
  O  O65  1  0.78634531  0.60448083  0.78880166  1
  O  O66  1  0.28634531  0.89551917  0.21119834  1
  O  O67  1  0.21365469  0.39551917  0.28880166  1
  O  O68  1  0.36079786  0.31789322  0.37815669  1
  O  O69  1  0.13920214  0.81789322  0.12184331  1
  O  O70  1  0.63920214  0.68210678  0.87815669  1
  O  O71  1  0.86079786  0.18210678  0.62184331  1
  O  O72  1  0.63920214  0.68210678  0.62184331  1
  O  O73  1  0.86079786  0.18210678  0.87815669  1
  O  O74  1  0.36079786  0.31789322  0.12184331  1
  O  O75  1  0.13920214  0.81789322  0.37815669  1
  O  O76  1  0.18765433  0.58180810  0.36513202  1
  O  O77  1  0.31234567  0.08180810  0.13486798  1
  O  O78  1  0.81234567  0.41819190  0.86513202  1
  O  O79  1  0.68765433  0.91819190  0.63486798  1
  O  O80  1  0.81234567  0.41819190  0.63486798  1
  O  O81  1  0.68765433  0.91819190  0.86513202  1
  O  O82  1  0.18765433  0.58180810  0.13486798  1
  O  O83  1  0.31234567  0.08180810  0.36513202  1
loop_
_geom_bond_atom_site_label_1
_geom_bond_atom_site_label_2
_geom_bond_distance
_geom_bond_site_symmetry_2
Ni0 O76 2.009139 1_555
Ni0 O68 2.017344 1_555
Ni0 O0 2.023653 1_555
Ni0 O36 2.087309 1_455
Ni0 O52 2.112277 1_455
Ni0 O67 2.139462 1_555
Ni1 O77 2.009139 1_565
Ni1 O69 2.017344 1_555
Ni1 O1 2.023653 1_555
Ni1 O37 2.087309 1_555
Ni1 O53 2.112277 1_555
Ni1 O66 2.139462 1_555
Ni2 O78 2.009139 1_555
Ni2 O70 2.017344 1_555
Ni2 O2 2.023653 1_555
Ni2 O38 2.087309 1_655
Ni2 O54 2.112277 1_655
Ni2 O65 2.139462 1_555
Ni3 O79 2.009139 1_545
Ni3 O71 2.017344 1_555
Ni3 O3 2.023653 1_555
Ni3 O39 2.087309 1_555
Ni3 O55 2.112277 1_555
Ni3 O64 2.139462 1_555
Ni4 O80 2.009139 1_555
Ni4 O72 2.017344 1_555
Ni4 O4 2.023653 1_555
Ni4 O40 2.087309 1_655
Ni4 O56 2.112277 1_655
Ni4 O63 2.139462 1_555
Ni5 O81 2.009139 1_545
Ni5 O73 2.017344 1_555
Ni5 O5 2.023653 1_555
Ni5 O41 2.087309 1_555
Ni5 O57 2.112277 1_555
Ni5 O62 2.139462 1_555
Ni6 O82 2.009139 1_555
Ni6 O74 2.017344 1_555
Ni6 O6 2.023653 1_555
Ni6 O42 2.087309 1_455
Ni6 O58 2.112277 1_455
Ni6 O61 2.139462 1_555
Ni7 O83 2.009139 1_565
Ni7 O75 2.017344 1_555
Ni7 O7 2.023653 1_555
Ni7 O43 2.087309 1_555
Ni7 O59 2.112277 1_555
Ni7 O60 2.139462 1_555
N0 O9 1.235313 1_555
N0 O66 1.272640 1_555
N0 O60 1.272640 1_555
N1 O8 1.235313 1_455
N1 O61 1.272640 1_555
N1 O67 1.272640 1_555
N2 O11 1.235313 1_555
N2 O64 1.272640 1_555
N2 O62 1.272640 1_555
N3 O10 1.235313 1_655
N3 O63 1.272640 1_555
N3 O65 1.272640 1_555
N4 O16 1.241630 1_555
N4 O28 1.243366 1_555
N4 O0 1.303187 1_555
N5 O17 1.241630 1_555
N5 O29 1.243366 1_555
N5 O1 1.303187 1_555
N6 O18 1.241630 1_555
N6 O30 1.243366 1_555
N6 O2 1.303187 1_555
N7 O19 1.241630 1_555
N7 O31 1.243366 1_555
N7 O3 1.303187 1_555
N8 O12 1.241630 1_555
N8 O32 1.243366 1_555
N8 O4 1.303187 1_555
N9 O13 1.241630 1_555
N9 O33 1.243366 1_555
N9 O5 1.303187 1_555
N10 O14 1.241630 1_555
N10 O34 1.243366 1_555
N10 O6 1.303187 1_555
N11 O15 1.241630 1_555
N11 O35 1.243366 1_555
N11 O7 1.303187 1_555
N12 O44 1.229825 1_455
N12 O76 1.268393 1_555
N12 O75 1.278001 1_555
N13 O45 1.229825 1_555
N13 O77 1.268393 1_555
N13 O74 1.278001 1_555
N14 O46 1.229825 1_655
N14 O78 1.268393 1_555
N14 O73 1.278001 1_555
N15 O47 1.229825 1_555
N15 O79 1.268393 1_555
N15 O72 1.278001 1_555
N16 O48 1.229825 1_655
N16 O80 1.268393 1_555
N16 O71 1.278001 1_555
N17 O49 1.229825 1_555
N17 O81 1.268393 1_555
N17 O70 1.278001 1_555
N18 O50 1.229825 1_455
N18 O82 1.268393 1_555
N18 O69 1.278001 1_555
N19 O51 1.229825 1_555
N19 O83 1.268393 1_555
N19 O68 1.278001 1_555
N20 O20 1.226357 1_555
N20 O43 1.279293 1_555
N20 O59 1.279988 1_555
N21 O21 1.226357 1_555
N21 O42 1.279293 1_555
N21 O58 1.279988 1_555
N22 O22 1.226357 1_555
N22 O41 1.279293 1_555
N22 O57 1.279988 1_555
N23 O23 1.226357 1_555
N23 O40 1.279293 1_555
N23 O56 1.279988 1_555
N24 O24 1.226357 1_555
N24 O39 1.279293 1_555
N24 O55 1.279988 1_555
N25 O25 1.226357 1_555
N25 O38 1.279293 1_555
N25 O54 1.279988 1_555
N26 O26 1.226357 1_555
N26 O37 1.279293 1_555
N26 O53 1.279988 1_555
N27 O27 1.226357 1_555
N27 O36 1.279293 1_555
N27 O52 1.279988 1_555
O0 Rb4 3.021490 1_445
O0 Rb11 3.283074 1_455
O1 Rb5 3.021490 1_555
O1 Rb10 3.283074 1_555
O2 Rb6 3.021490 1_665
O2 Rb9 3.283074 1_655
O3 Rb7 3.021490 1_555
O3 Rb8 3.283074 1_555
O4 Rb8 3.021490 1_665
O4 Rb7 3.283074 1_655
O5 Rb9 3.021490 1_555
O5 Rb6 3.283074 1_555
O6 Rb10 3.021490 1_445
O6 Rb5 3.283074 1_455
O7 Rb11 3.021490 1_555
O7 Rb4 3.283074 1_555
O8 Rb1 2.969855 1_555
O8 Rb0 3.232538 1_545
O9 Rb0 2.969855 1_555
O9 Rb1 3.232538 1_555
O10 Rb3 2.969855 1_555
O10 Rb2 3.232538 1_565
O11 Rb2 2.969855 1_555
O11 Rb3 3.232538 1_555
O12 Rb4 2.914069 1_555
O12 Rb8 3.220805 1_665
O13 Rb5 2.914069 1_556
O13 Rb9 3.220805 1_555
O14 Rb6 2.914069 1_554
O14 Rb10 3.220805 1_445
O15 Rb7 2.914069 1_555
O15 Rb11 3.220805 1_555
O16 Rb8 2.914069 1_555
O16 Rb4 3.220805 1_445
O17 Rb9 2.914069 1_554
O17 Rb5 3.220805 1_555
O18 Rb10 2.914069 1_556
O18 Rb6 3.220805 1_665
O19 Rb11 2.914069 1_555
O19 Rb7 3.220805 1_555
O20 Rb0 3.003309 1_555
O20 Rb1 3.076947 1_555
O21 Rb1 3.003309 1_555
O21 Rb0 3.076947 1_545
O22 Rb2 3.003309 1_555
O22 Rb3 3.076947 1_555
O23 Rb3 3.003309 1_555
O23 Rb2 3.076947 1_565
O24 Rb2 3.003309 1_555
O24 Rb3 3.076947 1_555
O25 Rb3 3.003309 1_555
O25 Rb2 3.076947 1_565
O26 Rb0 3.003309 1_555
O26 Rb1 3.076947 1_555
O27 Rb1 3.003309 1_555
O27 Rb0 3.076947 1_545
O28 Rb7 3.042130 1_555
O28 Rb11 3.135635 1_555
O29 Rb6 3.042130 1_564
O29 Rb10 3.135635 1_455
O30 Rb5 3.042130 1_556
O30 Rb9 3.135635 1_555
O31 Rb4 3.042130 1_545
O31 Rb8 3.135635 1_655
O32 Rb11 3.042130 1_555
O32 Rb7 3.135635 1_555
O33 Rb10 3.042130 1_546
O33 Rb6 3.135635 1_655
O34 Rb9 3.042130 1_554
O34 Rb5 3.135635 1_555
O35 Rb8 3.042130 1_565
O35 Rb4 3.135635 1_455
O36 Rb11 3.149320 1_555
O36 Rb1 3.169227 1_555
O37 Rb10 3.149320 1_555
O37 Rb0 3.169227 1_555
O38 Rb9 3.149320 1_555
O38 Rb3 3.169227 1_555
O39 Rb8 3.149320 1_555
O39 Rb2 3.169227 1_555
O40 Rb7 3.149320 1_555
O40 Rb3 3.169227 1_555
O41 Rb6 3.149320 1_555
O41 Rb2 3.169227 1_555
O42 Rb5 3.149320 1_555
O42 Rb1 3.169227 1_555
O43 Rb4 3.149320 1_555
O43 Rb0 3.169227 1_555
O44 Rb11 2.848822 1_555
O44 Rb4 3.232045 1_555
O45 Rb10 2.848822 1_545
O45 Rb5 3.232045 1_555
O46 Rb9 2.848822 1_555
O46 Rb6 3.232045 1_555
O47 Rb8 2.848822 1_565
O47 Rb7 3.232045 1_555
O48 Rb7 2.848822 1_555
O48 Rb8 3.232045 1_555
O49 Rb6 2.848822 1_565
O49 Rb9 3.232045 1_555
O50 Rb5 2.848822 1_555
O50 Rb10 3.232045 1_555
O51 Rb4 2.848822 1_545
O51 Rb11 3.232045 1_555
O52 Rb0 3.014136 1_545
O52 Rb4 3.257387 1_545
O53 Rb1 3.014136 1_555
O53 Rb5 3.257387 1_555
O54 Rb2 3.014136 1_565
O54 Rb6 3.257387 1_565
O55 Rb3 3.014136 1_555
O55 Rb7 3.257387 1_555
O56 Rb2 3.014136 1_565
O56 Rb8 3.257387 1_565
O57 Rb3 3.014136 1_555
O57 Rb9 3.257387 1_555
O58 Rb0 3.014136 1_545
O58 Rb10 3.257387 1_545
O59 Rb1 3.014136 1_555
O59 Rb11 3.257387 1_555
O60 Rb0 3.017753 1_455
O61 Rb1 3.017753 1_555
O62 Rb2 3.017753 1_655
O63 Rb3 3.017753 1_555
O64 Rb2 3.017753 1_655
O65 Rb3 3.017753 1_555
O66 Rb0 3.017753 1_455
O67 Rb1 3.017753 1_555
O68 Rb11 2.952964 1_555
O69 Rb10 2.952964 1_455
O70 Rb9 2.952964 1_555
O71 Rb8 2.952964 1_655
O72 Rb7 2.952964 1_555
O73 Rb6 2.952964 1_655
O74 Rb5 2.952964 1_555
O75 Rb4 2.952964 1_455
