# generated using pymatgen
data_LiLa2Fe2(TeO6)2
_symmetry_space_group_name_H-M   'P 1'
_cell_length_a   5.35080427
_cell_length_b   5.35015124
_cell_length_c   10.24813420
_cell_angle_alpha   89.98387519
_cell_angle_beta   90.02542216
_cell_angle_gamma   60.03711556
_symmetry_Int_Tables_number   1
_chemical_formula_structural   LiLa2Fe2(TeO6)2
_chemical_formula_sum   'Li1 La2 Fe2 Te2 O12'
_cell_volume   254.16909839
_cell_formula_units_Z   1
loop_
 _symmetry_equiv_pos_site_id
 _symmetry_equiv_pos_as_xyz
  1  'x, y, z'
loop_
 _atom_site_type_symbol
 _atom_site_label
 _atom_site_symmetry_multiplicity
 _atom_site_fract_x
 _atom_site_fract_y
 _atom_site_fract_z
 _atom_site_occupancy
  Li  Li0  1  0.66535100  0.66545200  0.02142300  1
  La  La0  1  0.99981900  0.99983600  0.49072800  1
  La  La1  1  0.99928900  0.99939400  0.00699200  1
  Fe  Fe0  1  0.33336700  0.33345000  0.75525800  1
  Fe  Fe1  1  0.66667600  0.66630900  0.26710500  1
  Te  Te0  1  0.66684400  0.66688400  0.74531100  1
  Te  Te1  1  0.33275900  0.33282400  0.24211000  1
  O  O0  1  0.99092300  0.37867300  0.64536900  1
  O  O1  1  0.63070000  0.99160900  0.64554700  1
  O  O2  1  0.37838600  0.63081900  0.64540700  1
  O  O3  1  0.61509300  0.01257100  0.13278500  1
  O  O4  1  0.37013400  0.61537200  0.13251300  1
  O  O5  1  0.01283700  0.37023300  0.13252800  1
  O  O6  1  0.03582900  0.62849300  0.35175300  1
  O  O7  1  0.33486700  0.03583000  0.35216300  1
  O  O8  1  0.62837900  0.33488200  0.35173300  1
  O  O9  1  0.39192400  0.97604400  0.86258400  1
  O  O10  1  0.63246300  0.39170100  0.86259200  1
  O  O11  1  0.97685900  0.63212300  0.86234900  1
loop_
_geom_bond_atom_site_label_1
_geom_bond_atom_site_label_2
_geom_bond_distance
_geom_bond_site_symmetry_2
Li0 O4 2.070598 1_555
Li0 O5 2.076519 1_655
Li0 O3 2.079987 1_565
Li0 O10 2.254786 1_554
Li0 O9 2.262627 1_554
Li0 O11 2.274502 1_554
La0 O7 2.369511 1_665
La0 O8 2.372715 1_565
La0 O6 2.373219 1_655
La0 O1 2.551429 1_555
La0 O2 2.552350 1_655
La0 O0 2.554871 1_565
La1 O4 2.395288 1_655
La1 O5 2.396209 1_665
La1 O3 2.398049 1_565
La1 O11 2.511927 1_554
La1 O10 2.515645 1_564
La1 O9 2.521960 1_654
Fe0 O1 2.058270 1_545
Fe0 O2 2.058789 1_555
Fe0 O0 2.058994 1_455
Fe0 O11 2.086833 1_455
Fe0 O9 2.089114 1_545
Fe0 O10 2.089306 1_555
Fe1 O6 2.072276 1_655
Fe1 O8 2.073787 1_555
Fe1 O7 2.077687 1_565
Fe1 O3 2.211436 1_565
Fe1 O5 2.216946 1_655
Fe1 O4 2.219172 1_555
O0 Te0 1.940440 1_555
O1 Te0 1.940156 1_555
O2 Te0 1.940101 1_555
O3 Te1 1.972378 1_555
O4 Te1 1.971769 1_555
O5 Te1 1.971686 1_555
O6 Te1 1.944560 1_555
O7 Te1 1.943714 1_555
O8 Te1 1.944261 1_555
O9 Te0 1.979012 1_555
O10 Te0 1.978828 1_555
O11 Te0 1.978602 1_555
