# generated using pymatgen
data_Li4MnCo2O7
_symmetry_space_group_name_H-M   'P 1'
_cell_length_a   10.36527460
_cell_length_b   10.36527460
_cell_length_c   5.18398969
_cell_angle_alpha   84.64139519
_cell_angle_beta   84.64139519
_cell_angle_gamma   151.05037226
_symmetry_Int_Tables_number   1
_chemical_formula_structural   Li4MnCo2O7
_chemical_formula_sum   'Li8 Mn2 Co4 O14'
_cell_volume   250.06845265
_cell_formula_units_Z   2
loop_
 _symmetry_equiv_pos_site_id
 _symmetry_equiv_pos_as_xyz
  1  'x, y, z'
loop_
 _atom_site_type_symbol
 _atom_site_label
 _atom_site_symmetry_multiplicity
 _atom_site_fract_x
 _atom_site_fract_y
 _atom_site_fract_z
 _atom_site_occupancy
  Li  Li0  1  0.93096400  0.06903600  0.50000000  1
  Li  Li1  1  0.35683500  0.64316500  0.50000000  1
  Li  Li2  1  0.78093100  0.21906900  0.50000000  1
  Li  Li3  1  0.21260600  0.78739400  0.50000000  1
  Li  Li4  1  0.64118200  0.35881800  0.50000000  1
  Li  Li5  1  0.07358500  0.92641500  0.50000000  1
  Li  Li6  1  0.50377900  0.49622100  0.50000000  1
  Li  Li7  1  0.57327200  0.42672800  0.00000000  1
  Mn  Mn0  1  0.00009400  0.99990600  0.00000000  1
  Mn  Mn1  1  0.85638100  0.14361900  0.00000000  1
  Co  Co0  1  0.42975600  0.57024400  0.00000000  1
  Co  Co1  1  0.28443100  0.71556900  0.00000000  1
  Co  Co2  1  0.71269900  0.28730100  0.00000000  1
  Co  Co3  1  0.14304000  0.85696000  0.00000000  1
  O  O0  1  0.70073700  0.84697600  0.23651100  1
  O  O1  1  0.10997300  0.39630400  0.20442000  1
  O  O2  1  0.56107200  0.98489900  0.23104900  1
  O  O3  1  0.99124000  0.55649400  0.23139800  1
  O  O4  1  0.40914200  0.11181300  0.22531300  1
  O  O5  1  0.84976300  0.71488500  0.23857500  1
  O  O6  1  0.24213000  0.25224200  0.20859300  1
  O  O7  1  0.15302400  0.29926300  0.76348900  1
  O  O8  1  0.60369600  0.89002700  0.79558000  1
  O  O9  1  0.01510100  0.43892800  0.76895100  1
  O  O10  1  0.44350600  0.00876000  0.76860200  1
  O  O11  1  0.88818700  0.59085800  0.77468700  1
  O  O12  1  0.28511500  0.15023700  0.76142500  1
  O  O13  1  0.74775800  0.75787000  0.79140700  1
loop_
_geom_bond_atom_site_label_1
_geom_bond_atom_site_label_2
_geom_bond_distance
_geom_bond_site_symmetry_2
Li0 O13 2.031265 1_545
Li0 O6 2.031265 1_655
Li0 O0 2.107520 1_545
Li0 O7 2.107520 1_655
Li0 O8 2.186453 1_545
Li0 O1 2.186453 1_655
Li1 O9 2.091734 1_555
Li1 O2 2.091734 1_555
Li1 O0 2.099485 1_555
Li1 O7 2.099485 1_555
Li1 O1 2.334262 1_555
Li1 O8 2.334262 1_555
Li2 O3 2.025764 1_555
Li2 O10 2.025764 1_555
Li2 O9 2.138644 1_655
Li2 O2 2.138644 1_545
Li2 O8 2.210840 1_545
Li2 O1 2.210840 1_655
Li3 O11 2.015078 1_455
Li3 O4 2.015078 1_565
Li3 O10 2.130778 1_565
Li3 O3 2.130778 1_455
Li3 O9 2.183243 1_555
Li3 O2 2.183243 1_555
Li4 O12 2.164784 1_555
Li4 O5 2.164784 1_555
Li4 O10 2.194318 1_555
Li4 O3 2.194318 1_555
Li4 O4 2.216148 1_555
Li4 O11 2.216148 1_555
Li5 O12 2.065508 1_565
Li5 O5 2.065508 1_455
Li5 O11 2.164348 1_455
Li5 O4 2.164348 1_565
Li5 O6 2.229013 1_565
Li5 O13 2.229013 1_455
Li6 O5 2.031770 1_555
Li6 O12 2.031770 1_555
Li6 O7 2.193984 1_555
Li6 O0 2.193984 1_555
Li6 O6 2.346998 1_555
Li6 O13 2.346998 1_555
Li7 O4 2.027695 1_555
Li7 O11 2.027695 1_554
Li7 O6 2.073361 1_555
Li7 O13 2.073361 1_554
Li7 O5 2.243975 1_555
Li7 O12 2.243975 1_554
Mn0 O5 1.893869 1_455
Mn0 O12 1.893869 1_564
Mn0 O6 1.963545 1_565
Mn0 O13 1.963545 1_454
Mn0 O7 1.990592 1_564
Mn0 O0 1.990592 1_455
Mn1 O2 1.909116 1_545
Mn1 O9 1.909116 1_654
Mn1 O0 1.950720 1_545
Mn1 O7 1.950720 1_654
Mn1 O8 1.970348 1_544
Mn1 O1 1.970348 1_655
Co0 O13 1.881230 1_554
Co0 O6 1.881230 1_555
Co0 O1 1.972000 1_555
Co0 O8 1.972000 1_554
Co0 O7 2.195530 1_554
Co0 O0 2.195530 1_555
Co1 O3 1.890346 1_455
Co1 O10 1.890346 1_564
Co1 O8 1.964294 1_554
Co1 O1 1.964294 1_555
Co1 O2 2.169544 1_555
Co1 O9 2.169544 1_554
Co2 O4 1.863733 1_555
Co2 O11 1.863733 1_554
Co2 O2 2.013787 1_545
Co2 O9 2.013787 1_654
Co2 O3 2.175689 1_555
Co2 O10 2.175689 1_554
Co3 O10 1.996959 1_564
Co3 O3 1.996959 1_455
Co3 O12 2.015499 1_564
Co3 O5 2.015499 1_455
Co3 O4 2.092075 1_565
Co3 O11 2.092075 1_454
