# generated using pymatgen
data_Sm6TlFe13
_symmetry_space_group_name_H-M   'P 1'
_cell_length_a   8.00579500
_cell_length_b   8.00579500
_cell_length_c   12.90163745
_cell_angle_alpha   108.07506333
_cell_angle_beta   108.07506333
_cell_angle_gamma   90.00000000
_symmetry_Int_Tables_number   1
_chemical_formula_structural   Sm6TlFe13
_chemical_formula_sum   'Sm12 Tl2 Fe26'
_cell_volume   743.05004520
_cell_formula_units_Z   2
loop_
 _symmetry_equiv_pos_site_id
 _symmetry_equiv_pos_as_xyz
  1  'x, y, z'
loop_
 _atom_site_type_symbol
 _atom_site_label
 _atom_site_symmetry_multiplicity
 _atom_site_fract_x
 _atom_site_fract_y
 _atom_site_fract_z
 _atom_site_occupancy
  Sm  Sm0  1  0.60422300  0.60422300  0.20844600  1
  Sm  Sm1  1  0.10422300  0.10422300  0.20844600  1
  Sm  Sm2  1  0.39577700  0.39577700  0.79155400  1
  Sm  Sm3  1  0.89577700  0.89577700  0.79155400  1
  Sm  Sm4  1  0.97879200  0.47879200  0.63125200  1
  Sm  Sm5  1  0.65246000  0.15246000  0.63125200  1
  Sm  Sm6  1  0.15246000  0.97879200  0.63125200  1
  Sm  Sm7  1  0.47879200  0.65246000  0.63125200  1
  Sm  Sm8  1  0.02120800  0.52120800  0.36874800  1
  Sm  Sm9  1  0.34754000  0.84754000  0.36874800  1
  Sm  Sm10  1  0.84754000  0.02120800  0.36874800  1
  Sm  Sm11  1  0.52120800  0.34754000  0.36874800  1
  Tl  Tl0  1  0.25000000  0.25000000  0.50000000  1
  Tl  Tl1  1  0.75000000  0.75000000  0.50000000  1
  Fe  Fe0  1  0.00000000  0.50000000  0.00000000  1
  Fe  Fe1  1  0.50000000  0.00000000  0.00000000  1
  Fe  Fe2  1  0.71006200  0.56631400  0.00000000  1
  Fe  Fe3  1  0.28993800  0.43368600  0.00000000  1
  Fe  Fe4  1  0.78993800  0.06631400  0.00000000  1
  Fe  Fe5  1  0.21006200  0.93368600  0.00000000  1
  Fe  Fe6  1  0.56631400  0.28993800  0.00000000  1
  Fe  Fe7  1  0.43368600  0.71006200  0.00000000  1
  Fe  Fe8  1  0.06631400  0.21006200  0.00000000  1
  Fe  Fe9  1  0.93368600  0.78993800  0.00000000  1
  Fe  Fe10  1  0.11985400  0.61985400  0.88161700  1
  Fe  Fe11  1  0.76176200  0.26176200  0.88161700  1
  Fe  Fe12  1  0.26176200  0.11985400  0.88161700  1
  Fe  Fe13  1  0.61985400  0.76176200  0.88161700  1
  Fe  Fe14  1  0.88014600  0.38014600  0.11838300  1
  Fe  Fe15  1  0.23823800  0.73823800  0.11838300  1
  Fe  Fe16  1  0.73823800  0.88014600  0.11838300  1
  Fe  Fe17  1  0.38014600  0.23823800  0.11838300  1
  Fe  Fe18  1  0.29173100  0.79173100  0.81036100  1
  Fe  Fe19  1  0.51862900  0.01862900  0.81036100  1
  Fe  Fe20  1  0.01862900  0.29173100  0.81036100  1
  Fe  Fe21  1  0.79173100  0.51862900  0.81036100  1
  Fe  Fe22  1  0.70826900  0.20826900  0.18963900  1
  Fe  Fe23  1  0.48137100  0.98137100  0.18963900  1
  Fe  Fe24  1  0.98137100  0.70826900  0.18963900  1
  Fe  Fe25  1  0.20826900  0.48137100  0.18963900  1
loop_
_geom_bond_atom_site_label_1
_geom_bond_atom_site_label_2
_geom_bond_distance
_geom_bond_site_symmetry_2
Sm0 Tl1 3.380089 1_555
Sm1 Tl0 3.380089 1_555
Sm2 Tl0 3.380089 1_555
Sm3 Tl1 3.380089 1_555
Sm4 Tl0 3.360588 1_655
Sm4 Tl1 3.360588 1_555
Sm5 Tl1 3.360588 1_545
Sm5 Tl0 3.360588 1_555
Sm6 Tl0 3.360588 1_565
Sm6 Tl1 3.360588 1_455
Sm7 Tl1 3.360588 1_555
Sm7 Tl0 3.360588 1_555
Sm8 Tl0 3.360588 1_555
Sm8 Tl1 3.360588 1_455
Sm9 Tl1 3.360588 1_555
Sm9 Tl0 3.360588 1_565
Sm10 Tl1 3.360588 1_545
Sm10 Tl0 3.360588 1_655
Sm11 Tl0 3.360588 1_555
Sm11 Tl1 3.360588 1_555
Fe0 Fe3 2.381123 1_555
Fe0 Fe2 2.381123 1_455
Fe0 Fe8 2.381123 1_555
Fe0 Fe9 2.381123 1_455
Fe0 Fe14 2.448043 1_455
Fe0 Fe10 2.448043 1_554
Fe0 Fe15 2.448053 1_555
Fe0 Fe11 2.448053 1_454
Fe0 Fe25 2.546265 1_555
Fe0 Fe21 2.546265 1_454
Fe0 Fe24 2.546265 1_455
Fe0 Fe20 2.546265 1_554
Fe1 Fe6 2.381123 1_555
Fe1 Fe5 2.381123 1_545
Fe1 Fe4 2.381123 1_555
Fe1 Fe7 2.381123 1_545
Fe1 Fe16 2.448048 1_545
Fe1 Fe12 2.448048 1_554
Fe1 Fe17 2.448048 1_555
Fe1 Fe13 2.448048 1_544
Fe1 Fe19 2.546262 1_554
Fe1 Fe23 2.546262 1_545
Fe1 Fe18 2.546268 1_544
Fe1 Fe22 2.546268 1_555
Fe2 Fe7 2.493997 1_555
Fe2 Fe6 2.493997 1_555
Fe2 Fe9 2.531849 1_555
Fe2 Fe21 2.640530 1_554
Fe2 Fe24 2.640535 1_555
Fe2 Sm0 2.991640 1_555
Fe2 Sm2 2.991640 1_554
Fe3 Fe7 2.493997 1_555
Fe3 Fe6 2.493997 1_555
Fe3 Fe8 2.531849 1_555
Fe3 Sm2 2.991640 1_554
Fe3 Sm0 2.991640 1_555
Fe4 Fe8 2.493997 1_655
Fe4 Fe9 2.493997 1_545
Fe4 Fe6 2.531849 1_555
Fe4 Sm3 2.991640 1_544
Fe4 Sm1 2.991640 1_655
Fe5 Fe8 2.493997 1_565
Fe5 Fe9 2.493997 1_455
Fe5 Fe7 2.531849 1_555
Fe5 Sm1 2.991640 1_565
Fe5 Sm3 2.991640 1_454
Fe6 Sm2 2.991640 1_554
Fe6 Sm0 2.991640 1_555
Fe7 Sm0 2.991640 1_555
Fe7 Sm2 2.991640 1_554
Fe8 Sm1 2.991640 1_555
Fe8 Sm3 2.991640 1_444
Fe9 Sm3 2.991640 1_554
Fe9 Sm1 2.991640 1_665
Fe10 Fe7 2.470057 1_556
Fe10 Fe5 2.470057 1_556
Fe10 Fe18 2.490359 1_555
Fe10 Fe20 2.538025 1_555
Fe10 Fe21 2.538025 1_455
Fe10 Fe9 2.555437 1_456
Fe10 Fe3 2.555437 1_556
Fe10 Fe15 2.744912 1_556
Fe10 Sm4 2.908133 1_455
Fe10 Sm3 3.122044 1_455
Fe10 Sm2 3.122044 1_555
Fe11 Fe4 2.470050 1_556
Fe11 Fe6 2.470050 1_556
Fe11 Fe19 2.490359 1_555
Fe11 Fe20 2.538025 1_655
Fe11 Fe21 2.538025 1_555
Fe11 Fe8 2.555441 1_656
Fe11 Fe2 2.555441 1_556
Fe11 Fe14 2.744912 1_556
Fe11 Sm5 2.908134 1_555
Fe11 Sm3 3.122042 1_545
Fe11 Sm2 3.122042 1_555
Fe12 Fe8 2.470051 1_556
Fe12 Fe3 2.470057 1_556
Fe12 Fe20 2.490359 1_555
Fe12 Fe19 2.538025 1_555
Fe12 Fe18 2.538025 1_545
Fe12 Fe5 2.555434 1_546
Fe12 Fe6 2.555444 1_556
Fe12 Fe17 2.744912 1_556
Fe12 Sm6 2.908133 1_545
Fe12 Sm3 3.122038 1_445
Fe12 Sm2 3.122048 1_555
Fe13 Fe2 2.470051 1_556
Fe13 Fe9 2.470057 1_556
Fe13 Fe21 2.490359 1_555
Fe13 Fe19 2.538025 1_565
Fe13 Fe18 2.538025 1_555
Fe13 Fe7 2.555434 1_556
Fe13 Fe4 2.555444 1_566
Fe13 Fe16 2.744912 1_556
Fe13 Sm7 2.908133 1_555
Fe13 Sm2 3.122038 1_555
Fe13 Sm3 3.122048 1_555
Fe14 Fe6 2.470057 1_555
Fe14 Fe4 2.470057 1_555
Fe14 Fe22 2.490359 1_555
Fe14 Fe25 2.538025 1_655
Fe14 Fe24 2.538025 1_555
Fe14 Fe2 2.555437 1_555
Fe14 Fe8 2.555437 1_655
Fe14 Sm8 2.908133 1_655
Fe14 Sm1 3.122044 1_655
Fe14 Sm0 3.122044 1_555
Fe15 Fe7 2.470050 1_555
Fe15 Fe5 2.470050 1_555
Fe15 Fe23 2.490359 1_555
Fe15 Fe25 2.538025 1_555
Fe15 Fe24 2.538025 1_455
Fe15 Fe3 2.555441 1_555
Fe15 Fe9 2.555441 1_455
Fe15 Sm9 2.908134 1_555
Fe15 Sm0 3.122042 1_555
Fe15 Sm1 3.122042 1_565
Fe16 Fe9 2.470051 1_555
Fe16 Fe2 2.470057 1_555
Fe16 Fe24 2.490359 1_555
Fe16 Fe23 2.538025 1_555
Fe16 Fe22 2.538025 1_565
Fe16 Fe4 2.555434 1_565
Fe16 Fe7 2.555444 1_555
Fe16 Sm10 2.908133 1_565
Fe16 Sm1 3.122038 1_665
Fe16 Sm0 3.122048 1_555
Fe17 Fe3 2.470051 1_555
Fe17 Fe8 2.470057 1_555
Fe17 Fe25 2.490359 1_555
Fe17 Fe23 2.538025 1_545
Fe17 Fe22 2.538025 1_555
Fe17 Fe6 2.555434 1_555
Fe17 Fe5 2.555444 1_545
Fe17 Sm11 2.908133 1_555
Fe17 Sm0 3.122038 1_555
Fe17 Sm1 3.122048 1_555
Fe18 Fe19 2.568917 1_565
Fe18 Fe5 2.640531 1_556
Fe18 Fe7 2.640531 1_556
Fe18 Sm7 3.061747 1_555
Fe18 Sm6 3.061747 1_555
Fe18 Sm3 3.232536 1_455
Fe18 Sm2 3.232536 1_555
Fe18 Sm4 3.272351 1_455
Fe19 Fe6 2.640534 1_556
Fe19 Fe4 2.640534 1_556
Fe19 Sm7 3.061742 1_545
Fe19 Sm6 3.061742 1_545
Fe19 Sm2 3.232541 1_555
Fe19 Sm3 3.232541 1_545
Fe19 Sm5 3.272360 1_555
Fe20 Fe21 2.568917 1_455
Fe20 Fe8 2.640530 1_556
Fe20 Fe3 2.640535 1_556
Fe20 Sm5 3.061741 1_455
Fe20 Sm4 3.061748 1_455
Fe20 Sm3 3.232533 1_445
Fe20 Sm2 3.232543 1_555
Fe20 Sm6 3.272356 1_545
Fe21 Fe9 2.640535 1_556
Fe21 Sm5 3.061741 1_555
Fe21 Sm4 3.061748 1_555
Fe21 Sm2 3.232533 1_555
Fe21 Sm3 3.232543 1_555
Fe21 Sm7 3.272356 1_555
Fe22 Fe23 2.568917 1_545
Fe22 Fe4 2.640531 1_555
Fe22 Fe6 2.640531 1_555
Fe22 Sm10 3.061747 1_555
Fe22 Sm11 3.061747 1_555
Fe22 Sm1 3.232536 1_655
Fe22 Sm0 3.232536 1_555
Fe22 Sm8 3.272351 1_655
Fe23 Fe7 2.640534 1_555
Fe23 Fe5 2.640534 1_555
Fe23 Sm10 3.061742 1_565
Fe23 Sm11 3.061742 1_565
Fe23 Sm1 3.232541 1_565
Fe23 Sm0 3.232541 1_555
Fe23 Sm9 3.272360 1_555
Fe24 Fe25 2.568917 1_655
Fe24 Fe9 2.640530 1_555
Fe24 Sm9 3.061741 1_655
Fe24 Sm8 3.061748 1_655
Fe24 Sm1 3.232533 1_665
Fe24 Sm0 3.232543 1_555
Fe24 Sm10 3.272356 1_565
Fe25 Fe3 2.640530 1_555
Fe25 Fe8 2.640535 1_555
Fe25 Sm9 3.061741 1_555
Fe25 Sm8 3.061748 1_555
Fe25 Sm0 3.232533 1_555
Fe25 Sm1 3.232543 1_555
Fe25 Sm11 3.272356 1_555
