# generated using pymatgen
data_PrYSi2O7
_symmetry_space_group_name_H-M   'P 1'
_cell_length_a   5.58919394
_cell_length_b   9.50731200
_cell_length_c   11.72783539
_cell_angle_alpha   90.00000000
_cell_angle_beta   92.36926430
_cell_angle_gamma   90.00000000
_symmetry_Int_Tables_number   1
_chemical_formula_structural   PrYSi2O7
_chemical_formula_sum   'Pr4 Y4 Si8 O28'
_cell_volume   622.66344798
_cell_formula_units_Z   4
loop_
 _symmetry_equiv_pos_site_id
 _symmetry_equiv_pos_as_xyz
  1  'x, y, z'
loop_
 _atom_site_type_symbol
 _atom_site_label
 _atom_site_symmetry_multiplicity
 _atom_site_fract_x
 _atom_site_fract_y
 _atom_site_fract_z
 _atom_site_occupancy
  Pr  Pr0  1  0.25133000  0.30751600  0.68342100  1
  Pr  Pr1  1  0.24867000  0.80751600  0.81657900  1
  Pr  Pr2  1  0.74867000  0.69248400  0.31657900  1
  Pr  Pr3  1  0.75133000  0.19248400  0.18342100  1
  Y  Y0  1  0.71784200  0.12542300  0.86224500  1
  Y  Y1  1  0.78215800  0.62542300  0.63775500  1
  Y  Y2  1  0.28215800  0.87457700  0.13775500  1
  Y  Y3  1  0.21784200  0.37457700  0.36224500  1
  Si  Si0  1  0.45279500  0.01499900  0.39907300  1
  Si  Si1  1  0.04720500  0.51499900  0.10092700  1
  Si  Si2  1  0.54720500  0.98500100  0.60092700  1
  Si  Si3  1  0.95279500  0.48500100  0.89907300  1
  Si  Si4  1  0.28552000  0.65358400  0.54346100  1
  Si  Si5  1  0.21448000  0.15358400  0.95653900  1
  Si  Si6  1  0.71448000  0.34641600  0.45653900  1
  Si  Si7  1  0.78552000  0.84641600  0.04346100  1
  O  O0  1  0.40806900  0.15019100  0.31400600  1
  O  O1  1  0.09193100  0.65019100  0.18599400  1
  O  O2  1  0.59193100  0.84980900  0.68599400  1
  O  O3  1  0.90806900  0.34980900  0.81400600  1
  O  O4  1  0.44492900  0.87891000  0.31281800  1
  O  O5  1  0.05507100  0.37891000  0.18718200  1
  O  O6  1  0.55507100  0.12109000  0.68718200  1
  O  O7  1  0.94492900  0.62109000  0.81281800  1
  O  O8  1  0.88350900  0.96001900  0.14848400  1
  O  O9  1  0.61649100  0.46001900  0.35151600  1
  O  O10  1  0.11649100  0.03998100  0.85151600  1
  O  O11  1  0.38350900  0.53998100  0.64848400  1
  O  O12  1  0.11365200  0.75659600  0.61877300  1
  O  O13  1  0.38634800  0.25659600  0.88122700  1
  O  O14  1  0.88634800  0.24340400  0.38122700  1
  O  O15  1  0.61365200  0.74340400  0.11877300  1
  O  O16  1  0.79125800  0.49873900  0.01684700  1
  O  O17  1  0.70874200  0.99873900  0.48315300  1
  O  O18  1  0.20874200  0.50126100  0.98315300  1
  O  O19  1  0.29125800  0.00126100  0.51684700  1
  O  O20  1  0.04185400  0.80118300  0.99185500  1
  O  O21  1  0.45814700  0.30118300  0.50814500  1
  O  O22  1  0.95814700  0.19881700  0.00814500  1
  O  O23  1  0.54185300  0.69881700  0.49185500  1
  O  O24  1  0.60956200  0.90491600  0.93669600  1
  O  O25  1  0.89043800  0.40491600  0.56330400  1
  O  O26  1  0.39043800  0.09508400  0.06330400  1
  O  O27  1  0.10956200  0.59508400  0.43669600  1
loop_
_geom_bond_atom_site_label_1
_geom_bond_atom_site_label_2
_geom_bond_distance
_geom_bond_site_symmetry_2
O0 Si0 1.639881 1_555
O0 Y3 2.459923 1_555
O0 Pr3 2.535918 1_555
O1 Si1 1.639881 1_555
O1 Y2 2.459923 1_555
O1 Pr2 2.535918 1_455
O2 Si2 1.639881 1_555
O2 Y1 2.459923 1_555
O2 Pr1 2.535918 1_555
O3 Si3 1.639881 1_555
O3 Y0 2.459923 1_555
O3 Pr0 2.535918 1_655
O4 Si0 1.641823 1_565
O4 Y2 2.211377 1_555
O4 Pr2 2.453419 1_555
O5 Si1 1.641823 1_555
O5 Y3 2.211377 1_555
O5 Pr3 2.453419 1_455
O6 Si2 1.641823 1_545
O6 Y0 2.211377 1_555
O6 Pr0 2.453419 1_555
O7 Si3 1.641823 1_555
O7 Y1 2.211377 1_555
O7 Pr1 2.453419 1_655
O8 Si7 1.711074 1_555
O8 Pr3 2.371353 1_565
O8 Y2 2.379796 1_655
O9 Si6 1.711074 1_555
O9 Pr2 2.371353 1_555
O9 Y3 2.379796 1_555
O10 Si5 1.711074 1_555
O10 Pr1 2.371353 1_545
O10 Y0 2.379796 1_455
O11 Si4 1.711074 1_555
O11 Pr0 2.371353 1_555
O11 Y1 2.379796 1_555
O12 Si4 1.652935 1_555
O12 Y1 2.252051 1_455
O12 Pr1 2.457793 1_555
O13 Si5 1.652935 1_555
O13 Y0 2.252051 1_555
O13 Pr0 2.457793 1_555
O14 Si6 1.652935 1_555
O14 Y3 2.252051 1_655
O14 Pr3 2.457793 1_555
O15 Si7 1.652935 1_555
O15 Y2 2.252051 1_555
O15 Pr2 2.457793 1_555
O16 Si3 1.686159 1_554
O16 Si1 1.710571 1_655
O17 Si2 1.686159 1_555
O17 Si0 1.710571 1_565
O18 Si1 1.686159 1_556
O18 Si3 1.710571 1_455
O19 Si0 1.686159 1_555
O19 Si2 1.710571 1_545
O20 Si7 1.635714 1_456
O20 Y2 2.242465 1_556
O20 Pr1 2.400374 1_555
O21 Si6 1.635709 1_555
O21 Y3 2.242468 1_555
O21 Pr0 2.400376 1_555
O22 Si5 1.635709 1_654
O22 Y0 2.242468 1_554
O22 Pr3 2.400376 1_555
O23 Si4 1.635709 1_555
O23 Y1 2.242468 1_555
O23 Pr2 2.400376 1_555
O24 Si7 1.656059 1_556
O24 Y0 2.359525 1_565
O24 Pr1 2.583739 1_555
O25 Si6 1.656059 1_555
O25 Y1 2.359525 1_555
O25 Pr0 2.583739 1_655
O26 Si5 1.656059 1_554
O26 Y2 2.359525 1_545
O26 Pr3 2.583739 1_555
O27 Si4 1.656059 1_555
O27 Y3 2.359525 1_555
O27 Pr2 2.583739 1_455
