# generated using pymatgen
data_VCu12As3S16
_symmetry_space_group_name_H-M   'P 1'
_cell_length_a   10.58424332
_cell_length_b   10.58424332
_cell_length_c   10.58424358
_cell_angle_alpha   90.07787697
_cell_angle_beta   90.07787697
_cell_angle_gamma   90.07788017
_symmetry_Int_Tables_number   1
_chemical_formula_structural   VCu12As3S16
_chemical_formula_sum   'V2 Cu24 As6 S32'
_cell_volume   1185.70937077
_cell_formula_units_Z   2
loop_
 _symmetry_equiv_pos_site_id
 _symmetry_equiv_pos_as_xyz
  1  'x, y, z'
loop_
 _atom_site_type_symbol
 _atom_site_label
 _atom_site_symmetry_multiplicity
 _atom_site_fract_x
 _atom_site_fract_y
 _atom_site_fract_z
 _atom_site_occupancy
  V  V0  1  0.49978700  0.49978700  0.49978700  1
  V  V1  1  0.99978700  0.99978700  0.99978700  1
  Cu  Cu0  1  0.49923800  0.49898900  0.24113700  1
  Cu  Cu1  1  0.75703500  0.50041900  0.50060500  1
  Cu  Cu2  1  0.49898900  0.24113700  0.49923800  1
  Cu  Cu3  1  0.24113700  0.49923800  0.49898900  1
  Cu  Cu4  1  0.50060500  0.75703500  0.50041900  1
  Cu  Cu5  1  0.50041900  0.50060500  0.75703500  1
  Cu  Cu6  1  0.74113700  0.99898900  0.99923800  1
  Cu  Cu7  1  0.00060500  0.00041900  0.25703500  1
  Cu  Cu8  1  0.99923800  0.74113700  0.99898900  1
  Cu  Cu9  1  0.99898900  0.99923800  0.74113700  1
  Cu  Cu10  1  0.00041900  0.25703500  0.00060500  1
  Cu  Cu11  1  0.25703500  0.00060500  0.00041900  1
  Cu  Cu12  1  0.49923200  0.00120700  0.25145700  1
  Cu  Cu13  1  0.75145700  0.50120700  0.99923200  1
  Cu  Cu14  1  0.00120700  0.25145700  0.49923200  1
  Cu  Cu15  1  0.25145700  0.49923200  0.00120700  1
  Cu  Cu16  1  0.99923200  0.75145700  0.50120700  1
  Cu  Cu17  1  0.50120700  0.99923200  0.75145700  1
  Cu  Cu18  1  0.75050900  0.24939700  0.24932300  1
  Cu  Cu19  1  0.24932300  0.75050900  0.24939700  1
  Cu  Cu20  1  0.24939700  0.24932300  0.75050900  1
  Cu  Cu21  1  0.74932300  0.74939700  0.25050900  1
  Cu  Cu22  1  0.74939700  0.25050900  0.74932300  1
  Cu  Cu23  1  0.25050900  0.74932300  0.74939700  1
  As  As0  1  0.00189500  0.49814500  0.25390600  1
  As  As1  1  0.75390600  0.99814500  0.50189500  1
  As  As2  1  0.49814500  0.25390600  0.00189500  1
  As  As3  1  0.25390600  0.00189500  0.49814500  1
  As  As4  1  0.50189500  0.75390600  0.99814500  1
  As  As5  1  0.99814500  0.50189500  0.75390600  1
  S  S0  1  0.87237600  0.37753600  0.12816400  1
  S  S1  1  0.87235300  0.12833200  0.37658500  1
  S  S2  1  0.62223200  0.12837500  0.12753000  1
  S  S3  1  0.12753000  0.62223200  0.12837500  1
  S  S4  1  0.12816400  0.87237600  0.37753600  1
  S  S5  1  0.37658500  0.87235300  0.12833200  1
  S  S6  1  0.12833200  0.37658500  0.87235300  1
  S  S7  1  0.12837500  0.12753000  0.62223200  1
  S  S8  1  0.37753600  0.12816400  0.87237600  1
  S  S9  1  0.87292100  0.62325200  0.86825400  1
  S  S10  1  0.86825400  0.87292100  0.62325200  1
  S  S11  1  0.62325200  0.86825400  0.87292100  1
  S  S12  1  0.62816400  0.87753600  0.37237600  1
  S  S13  1  0.87658500  0.62833200  0.37235300  1
  S  S14  1  0.62753000  0.62837500  0.12223200  1
  S  S15  1  0.62837500  0.12223200  0.62753000  1
  S  S16  1  0.87753600  0.37237600  0.62816400  1
  S  S17  1  0.62833200  0.37235300  0.87658500  1
  S  S18  1  0.37235300  0.87658500  0.62833200  1
  S  S19  1  0.12223200  0.62753000  0.62837500  1
  S  S20  1  0.37237600  0.62816400  0.87753600  1
  S  S21  1  0.36825400  0.12325200  0.37292100  1
  S  S22  1  0.12325200  0.37292100  0.36825400  1
  S  S23  1  0.37292100  0.36825400  0.12325200  1
  S  S24  1  0.62095400  0.37857300  0.37887700  1
  S  S25  1  0.37887700  0.62095400  0.37857300  1
  S  S26  1  0.37857300  0.37887700  0.62095400  1
  S  S27  1  0.62010700  0.62010700  0.62010700  1
  S  S28  1  0.87887700  0.87857300  0.12095400  1
  S  S29  1  0.87857300  0.12095400  0.87887700  1
  S  S30  1  0.12095400  0.87887700  0.87857300  1
  S  S31  1  0.12010700  0.12010700  0.12010700  1
loop_
_geom_bond_atom_site_label_1
_geom_bond_atom_site_label_2
_geom_bond_distance
_geom_bond_site_symmetry_2
Cu0 S23 2.290143 1_555
Cu0 S14 2.303773 1_555
Cu0 S25 2.325891 1_555
Cu0 S24 2.326764 1_555
Cu1 S13 2.298200 1_555
Cu1 S16 2.300250 1_555
Cu1 S27 2.304484 1_555
Cu1 S24 2.320142 1_555
Cu2 S21 2.290143 1_555
Cu2 S15 2.303773 1_555
Cu2 S24 2.325891 1_555
Cu2 S26 2.326764 1_555
Cu3 S22 2.290143 1_555
Cu3 S19 2.303773 1_555
Cu3 S26 2.325891 1_555
Cu3 S25 2.326764 1_555
Cu4 S18 2.298200 1_555
Cu4 S12 2.300250 1_555
Cu4 S27 2.304484 1_555
Cu4 S25 2.320142 1_555
Cu5 S17 2.298200 1_555
Cu5 S20 2.300250 1_555
Cu5 S27 2.304483 1_555
Cu5 S26 2.320142 1_555
Cu6 S11 2.290143 1_555
Cu6 S2 2.303773 1_566
Cu6 S29 2.325891 1_565
Cu6 S28 2.326764 1_556
Cu7 S1 2.298200 1_455
Cu7 S4 2.300250 1_545
Cu7 S31 2.304483 1_555
Cu7 S28 2.320142 1_445
Cu8 S9 2.290143 1_555
Cu8 S3 2.303773 1_656
Cu8 S28 2.325891 1_556
Cu8 S30 2.326764 1_655
Cu9 S10 2.290143 1_555
Cu9 S7 2.303773 1_665
Cu9 S30 2.325891 1_655
Cu9 S29 2.326764 1_565
Cu10 S6 2.298200 1_554
Cu10 S0 2.300250 1_455
Cu10 S31 2.304484 1_555
Cu10 S29 2.320142 1_454
Cu11 S5 2.298200 1_545
Cu11 S8 2.300250 1_554
Cu11 S31 2.304484 1_555
Cu11 S30 2.320142 1_544
Cu12 S12 2.284358 1_545
Cu12 S5 2.286742 1_545
Cu12 S2 2.287283 1_555
Cu12 S21 2.290948 1_555
Cu13 S0 2.284358 1_556
Cu13 S17 2.286742 1_555
Cu13 S14 2.287283 1_556
Cu13 S9 2.290948 1_555
Cu14 S16 2.284358 1_455
Cu14 S1 2.286742 1_455
Cu14 S7 2.287283 1_555
Cu14 S22 2.290948 1_555
Cu15 S20 2.284358 1_554
Cu15 S6 2.286742 1_554
Cu15 S3 2.287283 1_555
Cu15 S23 2.290948 1_555
Cu16 S4 2.284358 1_655
Cu16 S13 2.286742 1_555
Cu16 S19 2.287283 1_655
Cu16 S10 2.290948 1_555
Cu17 S8 2.284358 1_565
Cu17 S18 2.286742 1_555
Cu17 S15 2.287283 1_565
Cu17 S11 2.290948 1_555
Cu18 S1 2.263597 1_555
Cu18 S2 2.265377 1_555
Cu18 S0 2.269834 1_555
Cu18 S24 2.373817 1_555
Cu19 S5 2.263597 1_555
Cu19 S3 2.265377 1_555
Cu19 S4 2.269835 1_555
Cu19 S25 2.373817 1_555
Cu20 S6 2.263597 1_555
Cu20 S7 2.265377 1_555
Cu20 S8 2.269835 1_555
Cu20 S26 2.373817 1_555
Cu21 S13 2.263597 1_555
Cu21 S14 2.265377 1_555
Cu21 S12 2.269835 1_555
Cu21 S28 2.373817 1_555
Cu22 S17 2.263597 1_555
Cu22 S15 2.265377 1_555
Cu22 S16 2.269834 1_555
Cu22 S29 2.373817 1_555
Cu23 S18 2.263597 1_555
Cu23 S19 2.265377 1_555
Cu23 S20 2.269835 1_555
Cu23 S30 2.373817 1_555
As0 S22 2.208193 1_555
As0 S13 2.287855 1_455
As0 S3 2.294185 1_555
As0 S0 2.294726 1_455
As1 S10 2.208193 1_555
As1 S1 2.287855 1_565
As1 S15 2.294185 1_565
As1 S12 2.294726 1_555
As2 S23 2.208193 1_555
As2 S17 2.287855 1_554
As2 S2 2.294185 1_555
As2 S8 2.294726 1_554
As3 S21 2.208193 1_555
As3 S18 2.287855 1_545
As3 S7 2.294185 1_555
As3 S4 2.294726 1_545
As4 S11 2.208193 1_555
As4 S5 2.287855 1_556
As4 S14 2.294185 1_556
As4 S20 2.294726 1_555
As5 S9 2.208193 1_555
As5 S6 2.287855 1_655
As5 S19 2.294185 1_655
As5 S16 2.294726 1_555
S24 V0 2.221013 1_555
S25 V0 2.221013 1_555
S26 V0 2.221012 1_555
S27 V0 2.202760 1_555
S28 V1 2.221012 1_554
S29 V1 2.221013 1_545
S30 V1 2.221013 1_455
S31 V1 2.202760 1_444
