# generated using pymatgen
data_Li5V2Co3O10
_symmetry_space_group_name_H-M   'P 1'
_cell_length_a   5.05108800
_cell_length_b   5.18273486
_cell_length_c   7.90867097
_cell_angle_alpha   108.96137860
_cell_angle_beta   101.02320035
_cell_angle_gamma   101.11742538
_symmetry_Int_Tables_number   1
_chemical_formula_structural   Li5V2Co3O10
_chemical_formula_sum   'Li5 V2 Co3 O10'
_cell_volume   184.79940144
_cell_formula_units_Z   1
loop_
 _symmetry_equiv_pos_site_id
 _symmetry_equiv_pos_as_xyz
  1  'x, y, z'
loop_
 _atom_site_type_symbol
 _atom_site_label
 _atom_site_symmetry_multiplicity
 _atom_site_fract_x
 _atom_site_fract_y
 _atom_site_fract_z
 _atom_site_occupancy
  Li  Li0  1  0.20906900  0.50473400  0.40284300  1
  Li  Li1  1  0.40418000  0.51179200  0.79375900  1
  Li  Li2  1  0.50000000  0.00000000  0.50000000  1
  Li  Li3  1  0.59582000  0.48820800  0.20624100  1
  Li  Li4  1  0.79093100  0.49526600  0.59715700  1
  V  V0  1  0.10945100  0.01059100  0.69029300  1
  V  V1  1  0.89054900  0.98940900  0.30970700  1
  Co  Co0  1  0.00000000  0.50000000  0.00000000  1
  Co  Co1  1  0.71529400  0.99895300  0.90677500  1
  Co  Co2  1  0.28470600  0.00104700  0.09322500  1
  O  O0  1  0.04585500  0.23982200  0.84512200  1
  O  O1  1  0.34523500  0.76902400  0.93806700  1
  O  O2  1  0.13399600  0.77915500  0.54313400  1
  O  O3  1  0.21621700  0.23144600  0.24160400  1
  O  O4  1  0.43056700  0.23391300  0.66141200  1
  O  O5  1  0.56943300  0.76608700  0.33858800  1
  O  O6  1  0.78378300  0.76855400  0.75839600  1
  O  O7  1  0.86600400  0.22084500  0.45686600  1
  O  O8  1  0.65476500  0.23097600  0.06193300  1
  O  O9  1  0.95414500  0.76017800  0.15487800  1
loop_
_geom_bond_atom_site_label_1
_geom_bond_atom_site_label_2
_geom_bond_distance
_geom_bond_site_symmetry_2
Li0 O3 1.580227 1_555
Li0 O2 1.655598 1_555
Li0 O7 2.249116 1_455
Li0 O5 2.292693 1_555
Li1 O4 1.528131 1_555
Li1 O1 1.569314 1_555
Li1 O6 2.233486 1_555
Li1 O0 2.257675 1_555
Li2 O4 1.597418 1_555
Li2 O5 1.597418 1_545
Li2 O7 2.126756 1_555
Li2 O2 2.126756 1_545
Li3 O5 1.528131 1_555
Li3 O8 1.569314 1_555
Li3 O3 2.233486 1_555
Li3 O9 2.257675 1_555
Li4 O6 1.580227 1_555
Li4 O7 1.655598 1_555
Li4 O2 2.249116 1_655
Li4 O4 2.292693 1_555
Co0 O9 1.589915 1_455
Co0 O0 1.589915 1_554
Co1 O6 1.525297 1_555
Co1 O8 1.539997 1_566
Co1 O1 2.117726 1_555
Co1 O0 2.118278 1_665
Co2 O3 1.525297 1_555
Co2 O1 1.539997 1_544
Co2 O8 2.117726 1_555
Co2 O9 2.118278 1_445
O0 V0 1.538253 1_555
O2 V0 1.419133 1_565
O3 V1 2.133476 1_445
O4 V0 1.900561 1_555
O5 V1 1.900561 1_555
O6 V0 2.133476 1_665
O7 V1 1.419133 1_545
O9 V1 1.538253 1_555
