# generated using pymatgen
data_Mg30TiCrO32
_symmetry_space_group_name_H-M   'P 1'
_cell_length_a   8.59630400
_cell_length_b   8.51483300
_cell_length_c   8.51483300
_cell_angle_alpha   90.00000000
_cell_angle_beta   90.00000000
_cell_angle_gamma   90.00000000
_symmetry_Int_Tables_number   1
_chemical_formula_structural   Mg30TiCrO32
_chemical_formula_sum   'Mg30 Ti1 Cr1 O32'
_cell_volume   623.25250795
_cell_formula_units_Z   1
loop_
 _symmetry_equiv_pos_site_id
 _symmetry_equiv_pos_as_xyz
  1  'x, y, z'
loop_
 _atom_site_type_symbol
 _atom_site_label
 _atom_site_symmetry_multiplicity
 _atom_site_fract_x
 _atom_site_fract_y
 _atom_site_fract_z
 _atom_site_occupancy
  Mg  Mg0  1  0.00000000  0.00000000  0.50000000  1
  Mg  Mg1  1  0.00000000  0.50000000  0.00000000  1
  Mg  Mg2  1  0.50000000  0.00000000  0.00000000  1
  Mg  Mg3  1  0.50000000  0.00000000  0.50000000  1
  Mg  Mg4  1  0.50000000  0.50000000  0.00000000  1
  Mg  Mg5  1  0.50000000  0.50000000  0.50000000  1
  Mg  Mg6  1  0.00000000  0.25075600  0.25075600  1
  Mg  Mg7  1  0.00000000  0.25075600  0.74924400  1
  Mg  Mg8  1  0.00000000  0.74924400  0.25075600  1
  Mg  Mg9  1  0.00000000  0.74924400  0.74924400  1
  Mg  Mg10  1  0.50000000  0.25006100  0.25006100  1
  Mg  Mg11  1  0.50000000  0.25006100  0.74993900  1
  Mg  Mg12  1  0.50000000  0.74993900  0.25006100  1
  Mg  Mg13  1  0.50000000  0.74993900  0.74993900  1
  Mg  Mg14  1  0.25113500  0.00000000  0.24968900  1
  Mg  Mg15  1  0.25113500  0.00000000  0.75031100  1
  Mg  Mg16  1  0.25168200  0.50000000  0.25016000  1
  Mg  Mg17  1  0.25168200  0.50000000  0.74984000  1
  Mg  Mg18  1  0.74886500  0.00000000  0.24968900  1
  Mg  Mg19  1  0.74886500  0.00000000  0.75031100  1
  Mg  Mg20  1  0.74831800  0.50000000  0.25016000  1
  Mg  Mg21  1  0.74831800  0.50000000  0.74984000  1
  Mg  Mg22  1  0.25113500  0.24968900  0.00000000  1
  Mg  Mg23  1  0.25168200  0.25016000  0.50000000  1
  Mg  Mg24  1  0.25113500  0.75031100  0.00000000  1
  Mg  Mg25  1  0.25168200  0.74984000  0.50000000  1
  Mg  Mg26  1  0.74886500  0.24968900  0.00000000  1
  Mg  Mg27  1  0.74831800  0.25016000  0.50000000  1
  Mg  Mg28  1  0.74886500  0.75031100  0.00000000  1
  Mg  Mg29  1  0.74831800  0.74984000  0.50000000  1
  Ti  Ti0  1  0.00000000  0.00000000  0.00000000  1
  Cr  Cr0  1  0.00000000  0.50000000  0.50000000  1
  O  O0  1  0.25890100  0.00000000  0.00000000  1
  O  O1  1  0.24991400  0.00000000  0.50000000  1
  O  O2  1  0.24991400  0.50000000  0.00000000  1
  O  O3  1  0.26246200  0.50000000  0.50000000  1
  O  O4  1  0.74109900  0.00000000  0.00000000  1
  O  O5  1  0.75008600  0.00000000  0.50000000  1
  O  O6  1  0.75008600  0.50000000  0.00000000  1
  O  O7  1  0.73753800  0.50000000  0.50000000  1
  O  O8  1  0.24890900  0.24970900  0.24970900  1
  O  O9  1  0.24890900  0.24970900  0.75029100  1
  O  O10  1  0.24890900  0.75029100  0.24970900  1
  O  O11  1  0.24890900  0.75029100  0.75029100  1
  O  O12  1  0.75109100  0.24970900  0.24970900  1
  O  O13  1  0.75109100  0.24970900  0.75029100  1
  O  O14  1  0.75109100  0.75029100  0.24970900  1
  O  O15  1  0.75109100  0.75029100  0.75029100  1
  O  O16  1  0.00000000  0.00000000  0.25300500  1
  O  O17  1  0.00000000  0.00000000  0.74699500  1
  O  O18  1  0.00000000  0.50000000  0.24718900  1
  O  O19  1  0.00000000  0.50000000  0.75281100  1
  O  O20  1  0.50000000  0.00000000  0.25079000  1
  O  O21  1  0.50000000  0.00000000  0.74921000  1
  O  O22  1  0.50000000  0.50000000  0.24829500  1
  O  O23  1  0.50000000  0.50000000  0.75170500  1
  O  O24  1  0.00000000  0.25300500  0.00000000  1
  O  O25  1  0.00000000  0.24718900  0.50000000  1
  O  O26  1  0.00000000  0.74699500  0.00000000  1
  O  O27  1  0.00000000  0.75281100  0.50000000  1
  O  O28  1  0.50000000  0.25079000  0.00000000  1
  O  O29  1  0.50000000  0.24829500  0.50000000  1
  O  O30  1  0.50000000  0.74921000  0.00000000  1
  O  O31  1  0.50000000  0.75170500  0.50000000  1
loop_
_geom_bond_atom_site_label_1
_geom_bond_atom_site_label_2
_geom_bond_distance
_geom_bond_site_symmetry_2
Mg0 O17 2.103121 1_555
Mg0 O16 2.103121 1_555
Mg0 O25 2.104773 1_555
Mg0 O27 2.104773 1_545
Mg0 O5 2.148337 1_455
Mg0 O1 2.148337 1_555
Mg1 O26 2.103121 1_555
Mg1 O24 2.103121 1_555
Mg1 O18 2.104773 1_555
Mg1 O19 2.104773 1_554
Mg1 O6 2.148337 1_455
Mg1 O2 2.148337 1_555
Mg2 O4 2.072560 1_555
Mg2 O0 2.072560 1_555
Mg2 O30 2.135435 1_545
Mg2 O21 2.135435 1_554
Mg2 O20 2.135435 1_555
Mg2 O28 2.135435 1_555
Mg3 O29 2.114190 1_555
Mg3 O31 2.114190 1_545
Mg3 O20 2.121982 1_555
Mg3 O21 2.121982 1_555
Mg3 O5 2.149815 1_555
Mg3 O1 2.149815 1_555
Mg4 O22 2.114190 1_555
Mg4 O23 2.114190 1_554
Mg4 O28 2.121982 1_555
Mg4 O30 2.121982 1_555
Mg4 O2 2.149815 1_555
Mg4 O6 2.149815 1_555
Mg5 O3 2.041949 1_555
Mg5 O7 2.041949 1_555
Mg5 O23 2.143226 1_555
Mg5 O31 2.143226 1_555
Mg5 O22 2.143226 1_555
Mg5 O29 2.143226 1_555
Mg6 O25 2.122488 1_555
Mg6 O18 2.122488 1_555
Mg6 O24 2.135231 1_555
Mg6 O16 2.135231 1_555
Mg6 O8 2.139735 1_555
Mg6 O12 2.139735 1_455
Mg7 O25 2.122488 1_555
Mg7 O19 2.122488 1_555
Mg7 O17 2.135231 1_555
Mg7 O24 2.135231 1_556
Mg7 O9 2.139735 1_555
Mg7 O13 2.139735 1_455
Mg8 O27 2.122488 1_555
Mg8 O18 2.122488 1_555
Mg8 O16 2.135231 1_565
Mg8 O26 2.135231 1_555
Mg8 O10 2.139735 1_555
Mg8 O14 2.139735 1_455
Mg9 O27 2.122488 1_555
Mg9 O19 2.122488 1_555
Mg9 O26 2.135231 1_556
Mg9 O17 2.135231 1_565
Mg9 O11 2.139735 1_555
Mg9 O15 2.139735 1_455
Mg10 O22 2.128242 1_555
Mg10 O29 2.128242 1_555
Mg10 O20 2.129237 1_555
Mg10 O28 2.129237 1_555
Mg10 O12 2.158459 1_555
Mg10 O8 2.158459 1_555
Mg11 O23 2.128242 1_555
Mg11 O29 2.128242 1_555
Mg11 O21 2.129237 1_555
Mg11 O28 2.129237 1_556
Mg11 O13 2.158459 1_555
Mg11 O9 2.158459 1_555
Mg12 O22 2.128242 1_555
Mg12 O31 2.128242 1_555
Mg12 O20 2.129237 1_565
Mg12 O30 2.129237 1_555
Mg12 O14 2.158459 1_555
Mg12 O10 2.158459 1_555
Mg13 O23 2.128242 1_555
Mg13 O31 2.128242 1_555
Mg13 O30 2.129237 1_556
Mg13 O21 2.129237 1_565
Mg13 O15 2.158459 1_555
Mg13 O11 2.158459 1_555
Mg14 O10 2.126317 1_545
Mg14 O8 2.126317 1_555
Mg14 O0 2.127108 1_555
Mg14 O1 2.131382 1_555
Mg14 O20 2.139340 1_555
Mg14 O16 2.159017 1_555
Mg15 O11 2.126317 1_545
Mg15 O9 2.126317 1_555
Mg15 O0 2.127108 1_556
Mg15 O1 2.131382 1_555
Mg15 O21 2.139340 1_555
Mg15 O17 2.159017 1_555
Mg16 O3 2.129363 1_555
Mg16 O2 2.130125 1_555
Mg16 O8 2.131323 1_555
Mg16 O10 2.131323 1_555
Mg16 O22 2.134676 1_555
Mg16 O18 2.163683 1_555
Mg17 O3 2.129363 1_555
Mg17 O2 2.130125 1_556
Mg17 O11 2.131323 1_555
Mg17 O9 2.131323 1_555
Mg17 O23 2.134676 1_555
Mg17 O19 2.163683 1_555
Mg18 O14 2.126317 1_545
Mg18 O12 2.126317 1_555
Mg18 O4 2.127108 1_555
Mg18 O5 2.131382 1_555
Mg18 O20 2.139340 1_555
Mg18 O16 2.159017 1_655
Mg19 O15 2.126317 1_545
Mg19 O13 2.126317 1_555
Mg19 O4 2.127108 1_556
Mg19 O5 2.131382 1_555
Mg19 O21 2.139340 1_555
Mg19 O17 2.159017 1_655
Mg20 O7 2.129363 1_555
Mg20 O6 2.130125 1_555
Mg20 O14 2.131323 1_555
Mg20 O12 2.131323 1_555
Mg20 O22 2.134676 1_555
Mg20 O18 2.163683 1_655
Mg21 O7 2.129363 1_555
Mg21 O6 2.130125 1_556
Mg21 O15 2.131323 1_555
Mg21 O13 2.131323 1_555
Mg21 O23 2.134676 1_555
Mg21 O19 2.163683 1_655
Mg22 O9 2.126317 1_554
Mg22 O8 2.126317 1_555
Mg22 O0 2.127108 1_555
Mg22 O2 2.131382 1_555
Mg22 O28 2.139340 1_555
Mg22 O24 2.159017 1_555
Mg23 O3 2.129363 1_555
Mg23 O1 2.130125 1_555
Mg23 O8 2.131323 1_555
Mg23 O9 2.131323 1_555
Mg23 O29 2.134676 1_555
Mg23 O25 2.163683 1_555
Mg24 O10 2.126317 1_555
Mg24 O11 2.126317 1_554
Mg24 O0 2.127108 1_565
Mg24 O2 2.131382 1_555
Mg24 O30 2.139340 1_555
Mg24 O26 2.159017 1_555
Mg25 O3 2.129363 1_555
Mg25 O1 2.130125 1_565
Mg25 O11 2.131323 1_555
Mg25 O10 2.131323 1_555
Mg25 O31 2.134676 1_555
Mg25 O27 2.163683 1_555
Mg26 O13 2.126317 1_554
Mg26 O12 2.126317 1_555
Mg26 O4 2.127108 1_555
Mg26 O6 2.131382 1_555
Mg26 O28 2.139340 1_555
Mg26 O24 2.159017 1_655
Mg27 O7 2.129363 1_555
Mg27 O5 2.130125 1_555
Mg27 O13 2.131323 1_555
Mg27 O12 2.131323 1_555
Mg27 O29 2.134676 1_555
Mg27 O25 2.163683 1_655
Mg28 O14 2.126317 1_555
Mg28 O15 2.126317 1_554
Mg28 O4 2.127108 1_565
Mg28 O6 2.131382 1_555
Mg28 O30 2.139340 1_555
Mg28 O26 2.159017 1_655
Mg29 O7 2.129363 1_555
Mg29 O5 2.130125 1_565
Mg29 O14 2.131323 1_555
Mg29 O15 2.131323 1_555
Mg29 O31 2.134676 1_555
Mg29 O27 2.163683 1_655
Cr0 O25 2.152643 1_555
Cr0 O18 2.152643 1_555
Cr0 O19 2.152643 1_555
Cr0 O27 2.152643 1_555
Cr0 O3 2.256203 1_555
Cr0 O7 2.256203 1_455
O0 Ti0 2.225592 1_555
O4 Ti0 2.225592 1_655
O16 Ti0 2.154295 1_555
O17 Ti0 2.154295 1_556
O24 Ti0 2.154295 1_555
O26 Ti0 2.154295 1_565
