# generated using pymatgen
data_KYbP2H4O9
_symmetry_space_group_name_H-M   'P 1'
_cell_length_a   11.03757300
_cell_length_b   7.78595800
_cell_length_c   10.36566261
_cell_angle_alpha   88.85117324
_cell_angle_beta   90.00000000
_cell_angle_gamma   90.00000000
_symmetry_Int_Tables_number   1
_chemical_formula_structural   KYbP2H4O9
_chemical_formula_sum   'K4 Yb4 P8 H16 O36'
_cell_volume   890.62607911
_cell_formula_units_Z   4
loop_
 _symmetry_equiv_pos_site_id
 _symmetry_equiv_pos_as_xyz
  1  'x, y, z'
loop_
 _atom_site_type_symbol
 _atom_site_label
 _atom_site_symmetry_multiplicity
 _atom_site_fract_x
 _atom_site_fract_y
 _atom_site_fract_z
 _atom_site_occupancy
  K  K0  1  0.29781600  0.73241100  0.12444800  1
  K  K1  1  0.79781600  0.26758900  0.37555200  1
  K  K2  1  0.70218400  0.26758900  0.87555200  1
  K  K3  1  0.20218400  0.73241100  0.62444800  1
  Yb  Yb0  1  0.37116900  0.24735600  0.17422600  1
  Yb  Yb1  1  0.87116900  0.75264400  0.32577400  1
  Yb  Yb2  1  0.62883100  0.75264400  0.82577400  1
  Yb  Yb3  1  0.12883100  0.24735600  0.67422600  1
  P  P0  1  0.10736500  0.40183000  0.34175500  1
  P  P1  1  0.60736500  0.59817000  0.15824500  1
  P  P2  1  0.89263500  0.59817000  0.65824500  1
  P  P3  1  0.39263500  0.40183000  0.84175500  1
  P  P4  1  0.14152300  0.03192000  0.36633100  1
  P  P5  1  0.64152300  0.96808000  0.13366900  1
  P  P6  1  0.85847700  0.96808000  0.63366900  1
  P  P7  1  0.35847700  0.03192000  0.86633100  1
  H  H0  1  0.17778000  0.55557000  0.90456200  1
  H  H1  1  0.67778000  0.44443000  0.59543800  1
  H  H2  1  0.82222000  0.44443000  0.09543800  1
  H  H3  1  0.32222000  0.55557000  0.40456200  1
  H  H4  1  0.07980300  0.69476200  0.87695600  1
  H  H5  1  0.57980300  0.30523800  0.62304400  1
  H  H6  1  0.92019700  0.30523800  0.12304400  1
  H  H7  1  0.42019700  0.69476200  0.37695600  1
  H  H8  1  0.45115300  0.32399300  0.44950000  1
  H  H9  1  0.95115300  0.67600700  0.05050000  1
  H  H10  1  0.54884700  0.67600700  0.55050000  1
  H  H11  1  0.04884700  0.32399300  0.94950000  1
  H  H12  1  0.52220900  0.16962800  0.40130700  1
  H  H13  1  0.02220900  0.83037200  0.09869300  1
  H  H14  1  0.47779100  0.83037200  0.59869300  1
  H  H15  1  0.97779100  0.16962800  0.90130700  1
  O  O0  1  0.14629400  0.42220100  0.48251300  1
  O  O1  1  0.64629400  0.57779900  0.01748700  1
  O  O2  1  0.85370600  0.57779900  0.51748700  1
  O  O3  1  0.35370600  0.42220100  0.98251300  1
  O  O4  1  0.99441900  0.50366500  0.30384300  1
  O  O5  1  0.49441900  0.49633500  0.19615700  1
  O  O6  1  0.00558100  0.49633500  0.69615700  1
  O  O7  1  0.50558100  0.50366500  0.80384300  1
  O  O8  1  0.21614000  0.43098600  0.25216600  1
  O  O9  1  0.71614000  0.56901400  0.24783400  1
  O  O10  1  0.78386000  0.56901400  0.74783400  1
  O  O11  1  0.28386000  0.43098600  0.75216600  1
  O  O12  1  0.06123400  0.20284600  0.32418000  1
  O  O13  1  0.56123400  0.79715400  0.17582000  1
  O  O14  1  0.93876600  0.79715400  0.67582000  1
  O  O15  1  0.43876600  0.20284600  0.82418000  1
  O  O16  1  0.17264300  0.05054900  0.50907900  1
  O  O17  1  0.67264300  0.94945100  0.99092100  1
  O  O18  1  0.82735700  0.94945100  0.49092100  1
  O  O19  1  0.32735700  0.05054900  0.00907900  1
  O  O20  1  0.05699600  0.88084200  0.34430800  1
  O  O21  1  0.55699600  0.11915800  0.15569200  1
  O  O22  1  0.94300400  0.11915800  0.65569200  1
  O  O23  1  0.44300400  0.88084200  0.84430800  1
  O  O24  1  0.25185800  0.02871900  0.27798400  1
  O  O25  1  0.75185800  0.97128100  0.22201600  1
  O  O26  1  0.74814200  0.97128100  0.72201600  1
  O  O27  1  0.24814200  0.02871900  0.77798400  1
  O  O28  1  0.12821000  0.64365200  0.94603600  1
  O  O29  1  0.62821000  0.35634800  0.55396400  1
  O  O30  1  0.87179000  0.35634800  0.05396400  1
  O  O31  1  0.37179000  0.64365200  0.44603600  1
  O  O32  1  0.44133500  0.21989100  0.39980900  1
  O  O33  1  0.94133500  0.78010900  0.10019100  1
  O  O34  1  0.55866500  0.78010900  0.60019100  1
  O  O35  1  0.05866500  0.21989100  0.89980900  1
loop_
_geom_bond_atom_site_label_1
_geom_bond_atom_site_label_2
_geom_bond_distance
_geom_bond_site_symmetry_2
K0 O28 2.730108 1_554
K0 O19 2.748314 1_565
K0 O8 2.819334 1_555
K0 O24 2.873999 1_565
K0 O3 2.919111 1_554
K0 O5 2.930058 1_555
K0 O13 3.000326 1_555
K1 O29 2.730108 1_555
K1 O18 2.748314 1_545
K1 O9 2.819334 1_555
K1 O25 2.873999 1_545
K1 O2 2.919111 1_555
K1 O4 2.930058 1_555
K1 O12 3.000326 1_655
K2 O30 2.730108 1_556
K2 O17 2.748314 1_545
K2 O10 2.819334 1_555
K2 O26 2.873999 1_545
K2 O1 2.919111 1_556
K2 O7 2.930058 1_555
K2 O15 3.000326 1_555
K3 O31 2.730108 1_555
K3 O16 2.748314 1_565
K3 O11 2.819334 1_555
K3 O27 2.873999 1_565
K3 O0 2.919111 1_555
K3 O6 2.930058 1_555
K3 O14 3.000326 1_455
H0 O28 0.983016 1_555
H1 O29 0.983016 1_555
H2 O30 0.983016 1_555
H3 O31 0.983016 1_555
H4 O28 0.972185 1_555
H4 K3 2.954766 1_555
H5 O29 0.972185 1_555
H5 K2 2.954766 1_555
H6 O30 0.972185 1_555
H6 K1 2.954766 1_555
H7 O31 0.972185 1_555
H7 K0 2.954766 1_555
H8 O32 0.975068 1_555
H9 O33 0.975068 1_555
H10 O34 0.975068 1_555
H11 O35 0.975068 1_555
H12 O32 0.974668 1_555
H13 O33 0.974668 1_455
H14 O34 0.974668 1_555
H15 O35 0.974668 1_655
O0 P0 1.532282 1_555
O0 Yb3 2.393951 1_555
O1 P1 1.532282 1_555
O1 Yb2 2.393951 1_554
O2 P2 1.532282 1_555
O2 Yb1 2.393951 1_555
O3 P3 1.532282 1_555
O3 Yb0 2.393951 1_556
O4 P0 1.524710 1_655
O4 Yb1 2.382839 1_555
O5 P1 1.524710 1_555
O5 Yb0 2.382839 1_555
O6 P2 1.524710 1_455
O6 Yb3 2.382839 1_555
O7 P3 1.524710 1_555
O7 Yb2 2.382839 1_555
O8 P0 1.531972 1_555
O8 Yb0 2.381423 1_555
O9 P1 1.531972 1_555
O9 Yb1 2.381423 1_555
O10 P2 1.531972 1_555
O10 Yb2 2.381423 1_555
O11 P3 1.531972 1_555
O11 Yb3 2.381423 1_555
O12 P0 1.644395 1_555
O12 P4 1.650460 1_555
O13 P1 1.644395 1_555
O13 P5 1.650460 1_555
O14 P2 1.644395 1_555
O14 P6 1.650460 1_555
O15 P3 1.644395 1_555
O15 P7 1.650460 1_555
O16 P4 1.528749 1_555
O16 Yb3 2.370133 1_555
O17 P5 1.528749 1_556
O17 Yb2 2.370133 1_555
O18 P6 1.528749 1_555
O18 Yb1 2.370133 1_555
O19 P7 1.528749 1_554
O19 Yb0 2.370133 1_555
O20 P4 1.522160 1_565
O20 Yb1 2.290811 1_455
O21 P5 1.522160 1_545
O21 Yb0 2.290811 1_555
O22 P6 1.522160 1_545
O22 Yb3 2.290811 1_655
O23 P7 1.522160 1_565
O23 Yb2 2.290811 1_555
O24 P4 1.524235 1_555
O24 Yb0 2.390687 1_555
O25 P5 1.524235 1_555
O25 Yb1 2.390687 1_555
O26 P6 1.524235 1_555
O26 Yb2 2.390687 1_555
O27 P7 1.524235 1_555
O27 Yb3 2.390687 1_555
O32 Yb0 2.468440 1_555
O33 Yb1 2.468440 1_555
O34 Yb2 2.468440 1_555
O35 Yb3 2.468440 1_555
