# generated using pymatgen
data_ZnCr(GeO3)2
_symmetry_space_group_name_H-M   'P 1'
_cell_length_a   6.86269145
_cell_length_b   7.86857692
_cell_length_c   10.05817042
_cell_angle_alpha   73.36614416
_cell_angle_beta   81.14139501
_cell_angle_gamma   95.86139420
_symmetry_Int_Tables_number   1
_chemical_formula_structural   ZnCr(GeO3)2
_chemical_formula_sum   'Zn4 Cr4 Ge8 O24'
_cell_volume   508.03257526
_cell_formula_units_Z   4
loop_
 _symmetry_equiv_pos_site_id
 _symmetry_equiv_pos_as_xyz
  1  'x, y, z'
loop_
 _atom_site_type_symbol
 _atom_site_label
 _atom_site_symmetry_multiplicity
 _atom_site_fract_x
 _atom_site_fract_y
 _atom_site_fract_z
 _atom_site_occupancy
  Zn  Zn0  1  0.25191700  0.00587000  0.75595900  1
  Zn  Zn1  1  0.25067800  0.50537500  0.25640500  1
  Zn  Zn2  1  0.74913600  0.99400300  0.24351700  1
  Zn  Zn3  1  0.74818200  0.49479900  0.74411100  1
  Cr  Cr0  1  0.90500200  0.17486000  0.92405100  1
  Cr  Cr1  1  0.09488700  0.82430300  0.07536700  1
  Cr  Cr2  1  0.90538800  0.67570600  0.42453400  1
  Cr  Cr3  1  0.09471800  0.32514300  0.57603200  1
  Ge  Ge0  1  0.38953300  0.73136900  0.48351500  1
  Ge  Ge1  1  0.38886300  0.23120800  0.98358200  1
  Ge  Ge2  1  0.78840100  0.92746900  0.68374900  1
  Ge  Ge3  1  0.78833200  0.42654000  0.18275800  1
  Ge  Ge4  1  0.61115800  0.26905600  0.51633500  1
  Ge  Ge5  1  0.61046000  0.76836400  0.01660200  1
  Ge  Ge6  1  0.21180500  0.07314900  0.31702900  1
  Ge  Ge7  1  0.21136100  0.57275400  0.81650500  1
  O  O0  1  0.30890400  0.94412100  0.46325000  1
  O  O1  1  0.30725900  0.44365800  0.96317900  1
  O  O2  1  0.58848200  0.86552800  0.83653600  1
  O  O3  1  0.58924600  0.36440400  0.33602900  1
  O  O4  1  0.69254900  0.05657100  0.53704700  1
  O  O5  1  0.69135500  0.55568100  0.03649300  1
  O  O6  1  0.41092100  0.13551900  0.16378700  1
  O  O7  1  0.41140700  0.63455900  0.66365800  1
  O  O8  1  0.14345600  0.26021100  0.36087400  1
  O  O9  1  0.14379000  0.76046600  0.85949300  1
  O  O10  1  0.37381200  0.23821100  0.62204600  1
  O  O11  1  0.37339000  0.73763200  0.12254500  1
  O  O12  1  0.85655500  0.74001400  0.64054300  1
  O  O13  1  0.85624800  0.23929600  0.13906400  1
  O  O14  1  0.62677100  0.76187900  0.37775100  1
  O  O15  1  0.62603600  0.26230000  0.87767300  1
  O  O16  1  0.20171900  0.58708600  0.44377200  1
  O  O17  1  0.20220100  0.08616300  0.94369200  1
  O  O18  1  0.97630400  0.07638500  0.71393700  1
  O  O19  1  0.97635500  0.57531800  0.21260000  1
  O  O20  1  0.79782300  0.41401200  0.55631100  1
  O  O21  1  0.79823700  0.91273300  0.05624300  1
  O  O22  1  0.02380000  0.92433900  0.28702400  1
  O  O23  1  0.02355800  0.42394400  0.78640200  1
loop_
_geom_bond_atom_site_label_1
_geom_bond_atom_site_label_2
_geom_bond_distance
_geom_bond_site_symmetry_2
Cr0 O23 2.047926 1_655
Cr0 O21 2.092874 1_546
Cr0 O15 2.171744 1_555
Cr0 O17 2.240965 1_655
Cr0 O13 2.342127 1_556
Cr0 O18 2.450020 1_555
Cr1 O19 2.045907 1_455
Cr1 O17 2.090286 1_564
Cr1 O11 2.168765 1_555
Cr1 O21 2.235849 1_455
Cr1 O9 2.348166 1_554
Cr1 O22 2.471367 1_555
Cr2 O22 2.044691 1_655
Cr2 O20 2.089854 1_555
Cr2 O14 2.167120 1_555
Cr2 O16 2.234483 1_655
Cr2 O12 2.351294 1_555
Cr2 O19 2.475478 1_555
Cr3 O18 2.046763 1_455
Cr3 O16 2.092214 1_555
Cr3 O10 2.170248 1_555
Cr3 O20 2.239597 1_455
Cr3 O8 2.345465 1_555
Cr3 O23 2.453796 1_555
Ge0 O14 1.755135 1_555
Ge0 O0 1.782908 1_555
Ge0 O7 1.789624 1_555
Ge0 O16 1.797117 1_555
Ge1 O15 1.754791 1_555
Ge1 O1 1.783383 1_555
Ge1 O6 1.789294 1_556
Ge1 O17 1.796207 1_555
Ge2 O12 1.740268 1_555
Ge2 O18 1.773060 1_565
Ge2 O4 1.794208 1_565
Ge2 O2 1.807415 1_555
Ge3 O13 1.740401 1_555
Ge3 O19 1.771294 1_555
Ge3 O5 1.795444 1_555
Ge3 O3 1.807115 1_555
Ge4 O10 1.755173 1_555
Ge4 O4 1.782692 1_555
Ge4 O3 1.789558 1_555
Ge4 O20 1.796228 1_555
Ge5 O11 1.754725 1_555
Ge5 O5 1.783578 1_555
Ge5 O2 1.789531 1_554
Ge5 O21 1.796837 1_555
Ge6 O8 1.740675 1_555
Ge6 O22 1.772142 1_545
Ge6 O0 1.795265 1_545
Ge6 O6 1.806953 1_555
Ge7 O9 1.739931 1_555
Ge7 O23 1.771655 1_555
Ge7 O1 1.794163 1_555
Ge7 O7 1.808390 1_555
O8 Zn1 1.917917 1_555
O9 Zn0 1.918818 1_565
O10 Zn0 1.946051 1_555
O11 Zn1 1.946682 1_555
O12 Zn3 1.918018 1_555
O13 Zn2 1.918558 1_545
O14 Zn2 1.946752 1_555
O15 Zn3 1.946054 1_555
O16 Zn1 2.149576 1_555
O17 Zn0 2.147011 1_555
O18 Zn0 2.095326 1_655
O19 Zn1 2.090320 1_655
O20 Zn3 2.149804 1_555
O21 Zn2 2.146786 1_555
O22 Zn2 2.091100 1_455
O23 Zn3 2.095283 1_455
