# generated using pymatgen
data_Nd3Nb(ClO2)3
_symmetry_space_group_name_H-M   'P 1'
_cell_length_a   9.49205769
_cell_length_b   9.49205769
_cell_length_c   5.32870100
_cell_angle_alpha   90.00000000
_cell_angle_beta   90.00000000
_cell_angle_gamma   119.99999781
_symmetry_Int_Tables_number   1
_chemical_formula_structural   Nd3Nb(ClO2)3
_chemical_formula_sum   'Nd6 Nb2 Cl6 O12'
_cell_volume   415.78874689
_cell_formula_units_Z   2
loop_
 _symmetry_equiv_pos_site_id
 _symmetry_equiv_pos_as_xyz
  1  'x, y, z'
loop_
 _atom_site_type_symbol
 _atom_site_label
 _atom_site_symmetry_multiplicity
 _atom_site_fract_x
 _atom_site_fract_y
 _atom_site_fract_z
 _atom_site_occupancy
  Nd  Nd0  1  0.40332600  0.09022900  0.25000000  1
  Nd  Nd1  1  0.59667400  0.90977100  0.75000000  1
  Nd  Nd2  1  0.90977100  0.31309700  0.25000000  1
  Nd  Nd3  1  0.09022900  0.68690300  0.75000000  1
  Nd  Nd4  1  0.68690300  0.59667400  0.25000000  1
  Nd  Nd5  1  0.31309700  0.40332600  0.75000000  1
  Nb  Nb0  1  0.33333300  0.66666700  0.25000000  1
  Nb  Nb1  1  0.66666700  0.33333300  0.75000000  1
  Cl  Cl0  1  0.18952000  0.24031200  0.25000000  1
  Cl  Cl1  1  0.81048000  0.75968800  0.75000000  1
  Cl  Cl2  1  0.75968800  0.94920800  0.25000000  1
  Cl  Cl3  1  0.24031200  0.05079200  0.75000000  1
  Cl  Cl4  1  0.05079200  0.81048000  0.25000000  1
  Cl  Cl5  1  0.94920800  0.18952000  0.75000000  1
  O  O0  1  0.15634700  0.52024600  0.01024600  1
  O  O1  1  0.84365300  0.47975400  0.98975400  1
  O  O2  1  0.47975400  0.63610100  0.01024600  1
  O  O3  1  0.84365300  0.47975400  0.51024600  1
  O  O4  1  0.52024600  0.36389900  0.98975400  1
  O  O5  1  0.15634700  0.52024600  0.48975400  1
  O  O6  1  0.36389900  0.84365300  0.01024600  1
  O  O7  1  0.52024600  0.36389900  0.51024600  1
  O  O8  1  0.63610100  0.15634700  0.98975400  1
  O  O9  1  0.47975400  0.63610100  0.48975400  1
  O  O10  1  0.63610100  0.15634700  0.51024600  1
  O  O11  1  0.36389900  0.84365300  0.48975400  1
loop_
_geom_bond_atom_site_label_1
_geom_bond_atom_site_label_2
_geom_bond_distance
_geom_bond_site_symmetry_2
Nd0 O10 2.410868 1_555
Nd0 O8 2.410868 1_554
Nd0 O11 2.524746 1_545
Nd0 O6 2.524746 1_545
Nd0 O7 2.649505 1_555
Nd0 O4 2.649505 1_554
Nd1 O6 2.410868 1_556
Nd1 O11 2.410868 1_555
Nd1 O8 2.524746 1_565
Nd1 O10 2.524746 1_565
Nd1 O2 2.649505 1_556
Nd1 O9 2.649505 1_555
Nd2 O3 2.410868 1_555
Nd2 O1 2.410868 1_554
Nd2 O5 2.524746 1_655
Nd2 O0 2.524746 1_655
Nd2 O10 2.649505 1_555
Nd2 O8 2.649505 1_554
Nd3 O0 2.410868 1_556
Nd3 O5 2.410868 1_555
Nd3 O1 2.524746 1_455
Nd3 O3 2.524746 1_455
Nd3 O6 2.649505 1_556
Nd3 O11 2.649505 1_555
Nd4 O7 2.410868 1_555
Nd4 O4 2.410868 1_554
Nd4 O9 2.524746 1_555
Nd4 O2 2.524746 1_555
Nd4 O3 2.649505 1_555
Nd4 O1 2.649505 1_554
Nd5 O2 2.410868 1_556
Nd5 O9 2.410868 1_555
Nd5 O4 2.524746 1_555
Nd5 O7 2.524746 1_555
Nd5 O0 2.649505 1_556
Nd5 O5 2.649505 1_555
Nb0 O11 2.012769 1_555
Nb0 O6 2.012769 1_555
Nb0 O5 2.012771 1_555
Nb0 O0 2.012771 1_555
Nb0 O9 2.012776 1_555
Nb0 O2 2.012776 1_555
Nb1 O8 2.012769 1_555
Nb1 O10 2.012769 1_555
Nb1 O1 2.012771 1_555
Nb1 O3 2.012771 1_555
Nb1 O4 2.012776 1_555
Nb1 O7 2.012776 1_555
Cl0 Nd0 3.006549 1_555
Cl0 Nd5 3.008973 1_555
Cl0 Nd5 3.008973 1_554
Cl0 Nd2 3.059900 1_455
Cl1 Nd1 3.006549 1_555
Cl1 Nd4 3.008973 1_556
Cl1 Nd4 3.008973 1_555
Cl1 Nd3 3.059900 1_655
Cl2 Nd2 3.006549 1_565
Cl2 Nd1 3.008973 1_554
Cl2 Nd1 3.008973 1_555
Cl2 Nd4 3.059900 1_555
Cl3 Nd3 3.006549 1_545
Cl3 Nd0 3.008973 1_555
Cl3 Nd0 3.008973 1_556
Cl3 Nd5 3.059900 1_555
Cl4 Nd4 3.006549 1_455
Cl4 Nd3 3.008973 1_555
Cl4 Nd3 3.008973 1_554
Cl4 Nd0 3.059900 1_565
Cl5 Nd5 3.006549 1_655
Cl5 Nd2 3.008973 1_556
Cl5 Nd2 3.008973 1_555
Cl5 Nd1 3.059900 1_545
