# generated using pymatgen
data_Yb3Si2ClO8
_symmetry_space_group_name_H-M   'P 1'
_cell_length_a   6.25287010
_cell_length_b   6.95564360
_cell_length_c   18.06426146
_cell_angle_alpha   90.39457322
_cell_angle_beta   89.85712870
_cell_angle_gamma   89.80643975
_symmetry_Int_Tables_number   1
_chemical_formula_structural   Yb3Si2ClO8
_chemical_formula_sum   'Yb12 Si8 Cl4 O32'
_cell_volume   785.63855147
_cell_formula_units_Z   4
loop_
 _symmetry_equiv_pos_site_id
 _symmetry_equiv_pos_as_xyz
  1  'x, y, z'
loop_
 _atom_site_type_symbol
 _atom_site_label
 _atom_site_symmetry_multiplicity
 _atom_site_fract_x
 _atom_site_fract_y
 _atom_site_fract_z
 _atom_site_occupancy
  Yb  Yb0  1  0.12883400  0.01659700  0.09406100  1
  Yb  Yb1  1  0.62756500  0.48112500  0.90545300  1
  Yb  Yb2  1  0.37021700  0.51912900  0.40584100  1
  Yb  Yb3  1  0.88459800  0.28731700  0.24979300  1
  Yb  Yb4  1  0.11515600  0.71133200  0.74980500  1
  Yb  Yb5  1  0.61757300  0.78923200  0.24871800  1
  Yb  Yb6  1  0.86840200  0.98153100  0.90525900  1
  Yb  Yb7  1  0.38234900  0.21107700  0.75033900  1
  Yb  Yb8  1  0.37659300  0.51965200  0.09517100  1
  Yb  Yb9  1  0.12447700  0.02542500  0.40562200  1
  Yb  Yb10  1  0.62918200  0.47951100  0.59438600  1
  Yb  Yb11  1  0.87451100  0.97547100  0.59396000  1
  Si  Si0  1  0.63246800  0.01526500  0.39770200  1
  Si  Si1  1  0.62957400  0.01496400  0.10145000  1
  Si  Si2  1  0.36625100  0.98542400  0.89874700  1
  Si  Si3  1  0.36909300  0.98216000  0.60137700  1
  Si  Si4  1  0.12959800  0.47919100  0.60128700  1
  Si  Si5  1  0.87312500  0.51286600  0.10090400  1
  Si  Si6  1  0.87088100  0.52320300  0.39964000  1
  Si  Si7  1  0.12872200  0.48726800  0.89985700  1
  Cl  Cl0  1  0.23388800  0.57247600  0.24965000  1
  Cl  Cl1  1  0.73391200  0.92923900  0.74963200  1
  Cl  Cl2  1  0.27011200  0.07582300  0.25029800  1
  Cl  Cl3  1  0.76519100  0.42676700  0.75040200  1
  O  O0  1  0.28700600  0.46926500  0.82777900  1
  O  O1  1  0.03438900  0.33210100  0.11738700  1
  O  O2  1  0.03017700  0.34165300  0.38161200  1
  O  O3  1  0.71635600  0.51015200  0.47213600  1
  O  O4  1  0.52657600  0.80025700  0.90855900  1
  O  O5  1  0.78038300  0.00179300  0.02781800  1
  O  O6  1  0.78953700  0.03034400  0.32577100  1
  O  O7  1  0.03305900  0.70605600  0.40940100  1
  O  O8  1  0.96969000  0.66083300  0.61860400  1
  O  O9  1  0.52851200  0.16486000  0.61819500  1
  O  O10  1  0.97014000  0.30149800  0.91019000  1
  O  O11  1  0.28900300  0.46498300  0.67314800  1
  O  O12  1  0.28342300  0.48894200  0.52840300  1
  O  O13  1  0.46833700  0.83583300  0.11838500  1
  O  O14  1  0.21584500  0.99390300  0.52870100  1
  O  O15  1  0.21141300  0.96788400  0.67361000  1
  O  O16  1  0.78336200  0.00667600  0.47107100  1
  O  O17  1  0.20919900  0.00208200  0.97067800  1
  O  O18  1  0.03659400  0.69444100  0.09054800  1
  O  O19  1  0.79185200  0.03070400  0.17229500  1
  O  O20  1  0.53092300  0.16348500  0.88284900  1
  O  O21  1  0.96778300  0.29630400  0.59068500  1
  O  O22  1  0.71919300  0.49812400  0.02833000  1
  O  O23  1  0.28477400  0.50730100  0.97203000  1
  O  O24  1  0.20908300  0.96953900  0.82653700  1
  O  O25  1  0.96290100  0.66424400  0.88329100  1
  O  O26  1  0.46480100  0.19478900  0.40763900  1
  O  O27  1  0.53495800  0.80130200  0.59213000  1
  O  O28  1  0.46858900  0.19880800  0.09087400  1
  O  O29  1  0.71013900  0.53739000  0.32777700  1
  O  O30  1  0.47377200  0.83155600  0.38110700  1
  O  O31  1  0.71596700  0.53085400  0.17310500  1
loop_
_geom_bond_atom_site_label_1
_geom_bond_atom_site_label_2
_geom_bond_distance
_geom_bond_site_symmetry_2
Cl0 Yb5 2.837922 1_555
Cl0 Yb8 2.947819 1_555
Cl0 Yb3 2.955265 1_455
Cl0 Yb2 2.974786 1_555
Cl1 Yb4 2.820608 1_655
Cl1 Yb7 2.940411 1_565
Cl1 Yb6 2.956788 1_555
Cl1 Yb11 2.964161 1_555
Cl2 Yb3 2.819810 1_455
Cl2 Yb5 2.943555 1_545
Cl2 Yb9 2.971144 1_555
Cl2 Yb0 2.985696 1_555
Cl3 Yb7 2.829420 1_555
Cl3 Yb1 2.949517 1_555
Cl3 Yb4 2.955657 1_655
Cl3 Yb10 2.970662 1_555
O0 Si7 1.637386 1_555
O0 Yb7 2.343386 1_555
O0 Yb4 2.449817 1_555
O0 Yb1 2.554350 1_555
O1 Si5 1.638425 1_455
O1 Yb0 2.306414 1_555
O1 Yb8 2.542287 1_555
O1 Yb3 2.587691 1_455
O2 Si6 1.636173 1_455
O2 Yb9 2.319387 1_555
O2 Yb2 2.500245 1_555
O2 Yb3 2.577281 1_455
O3 Si6 1.628732 1_555
O3 Yb10 2.284873 1_555
O3 Yb2 2.477010 1_555
O4 Si2 1.640287 1_555
O4 Yb1 2.306060 1_555
O4 Yb6 2.486046 1_555
O5 Si1 1.630426 1_555
O5 Yb6 2.283286 1_544
O5 Yb0 2.490502 1_655
O6 Si0 1.631006 1_555
O6 Yb3 2.338542 1_555
O6 Yb5 2.427700 1_545
O6 Yb9 2.546240 1_655
O7 Si6 1.638167 1_455
O7 Yb9 2.297081 1_565
O7 Yb2 2.473627 1_555
O8 Si4 1.636569 1_655
O8 Yb11 2.312551 1_555
O8 Yb10 2.516053 1_555
O8 Yb4 2.563063 1_655
O9 Si3 1.644881 1_545
O9 Yb10 2.322092 1_555
O9 Yb11 2.564322 1_545
O9 Yb7 2.571645 1_555
O10 Si7 1.642804 1_655
O10 Yb6 2.317959 1_545
O10 Yb1 2.478139 1_555
O11 Si4 1.641924 1_555
O11 Yb7 2.331326 1_555
O11 Yb4 2.445928 1_555
O11 Yb10 2.558785 1_555
O12 Si4 1.630500 1_555
O12 Yb2 2.289446 1_555
O12 Yb10 2.472279 1_555
O13 Si1 1.635446 1_565
O13 Yb8 2.310547 1_555
O13 Yb0 2.504944 1_565
O13 Yb5 2.557014 1_555
O14 Si3 1.629620 1_555
O14 Yb9 2.308652 1_565
O14 Yb11 2.439842 1_455
O15 Si3 1.637251 1_555
O15 Yb4 2.340533 1_555
O15 Yb7 2.431514 1_565
O15 Yb11 2.554638 1_455
O16 Si0 1.630128 1_555
O16 Yb11 2.304779 1_545
O16 Yb9 2.440431 1_655
O17 Si2 1.630025 1_545
O17 Yb0 2.285024 1_556
O17 Yb6 2.443406 1_445
O18 Si5 1.638874 1_455
O18 Yb0 2.316212 1_565
O18 Yb8 2.447374 1_555
O19 Si1 1.638505 1_555
O19 Yb3 2.336383 1_555
O19 Yb5 2.439513 1_545
O19 Yb0 2.535470 1_655
O20 Si2 1.639724 1_545
O20 Yb1 2.326183 1_555
O20 Yb6 2.492370 1_545
O20 Yb7 2.592750 1_555
O21 Si4 1.638588 1_655
O21 Yb11 2.309572 1_545
O21 Yb10 2.467978 1_555
O22 Si5 1.631187 1_555
O22 Yb1 2.296174 1_554
O22 Yb8 2.460066 1_555
O23 Si7 1.635873 1_555
O23 Yb8 2.299840 1_556
O23 Yb1 2.460757 1_555
O24 Si2 1.638494 1_555
O24 Yb4 2.338532 1_555
O24 Yb7 2.434688 1_565
O24 Yb6 2.559131 1_455
O25 Si7 1.636441 1_655
O25 Yb6 2.314120 1_555
O25 Yb1 2.490003 1_555
O25 Yb4 2.613363 1_655
O26 Si0 1.636385 1_555
O26 Yb2 2.330758 1_555
O26 Yb9 2.436025 1_555
O27 Si3 1.635083 1_555
O27 Yb10 2.313238 1_555
O27 Yb11 2.448223 1_555
O28 Si1 1.637259 1_555
O28 Yb8 2.303481 1_555
O28 Yb0 2.478195 1_555
O29 Si6 1.647046 1_555
O29 Yb5 2.339843 1_555
O29 Yb3 2.479081 1_555
O29 Yb2 2.551813 1_555
O30 Si0 1.646852 1_565
O30 Yb2 2.315781 1_555
O30 Yb5 2.567543 1_555
O30 Yb9 2.598432 1_565
O31 Si5 1.634916 1_555
O31 Yb5 2.329934 1_555
O31 Yb3 2.434735 1_555
O31 Yb8 2.550623 1_555
