# generated using pymatgen
data_Fe2Te4BrClO10
_symmetry_space_group_name_H-M   'P 1'
_cell_length_a   6.68430900
_cell_length_b   13.49518650
_cell_length_c   14.49227907
_cell_angle_alpha   107.92522531
_cell_angle_beta   90.00000000
_cell_angle_gamma   90.00000000
_symmetry_Int_Tables_number   1
_chemical_formula_structural   Fe2Te4BrClO10
_chemical_formula_sum   'Fe8 Te16 Br4 Cl4 O40'
_cell_volume   1243.83328082
_cell_formula_units_Z   4
loop_
 _symmetry_equiv_pos_site_id
 _symmetry_equiv_pos_as_xyz
  1  'x, y, z'
loop_
 _atom_site_type_symbol
 _atom_site_label
 _atom_site_symmetry_multiplicity
 _atom_site_fract_x
 _atom_site_fract_y
 _atom_site_fract_z
 _atom_site_occupancy
  Fe  Fe0  1  0.50197500  0.88192000  0.52330300  1
  Fe  Fe1  1  0.00197500  0.11808000  0.97669700  1
  Fe  Fe2  1  0.49802500  0.11808000  0.47669700  1
  Fe  Fe3  1  0.99802500  0.88192000  0.02330300  1
  Fe  Fe4  1  0.79254000  0.06283600  0.64273300  1
  Fe  Fe5  1  0.29254000  0.93716400  0.85726700  1
  Fe  Fe6  1  0.20745900  0.93716400  0.35726700  1
  Fe  Fe7  1  0.70746000  0.06283600  0.14273300  1
  Te  Te0  1  0.30828000  0.10930300  0.71431000  1
  Te  Te1  1  0.80828000  0.89069700  0.78569000  1
  Te  Te2  1  0.69172000  0.89069700  0.28569000  1
  Te  Te3  1  0.19172000  0.10930300  0.21431000  1
  Te  Te4  1  0.79635600  0.28261000  0.85766700  1
  Te  Te5  1  0.29635600  0.71739000  0.64233300  1
  Te  Te6  1  0.20364400  0.71739000  0.14233300  1
  Te  Te7  1  0.70364400  0.28261000  0.35766700  1
  Te  Te8  1  0.98521300  0.80041100  0.48071100  1
  Te  Te9  1  0.48521200  0.19958900  0.01928900  1
  Te  Te10  1  0.01478800  0.19958900  0.51928900  1
  Te  Te11  1  0.51478700  0.80041100  0.98071100  1
  Te  Te12  1  0.96630000  0.36485600  0.14034000  1
  Te  Te13  1  0.46630000  0.63514400  0.35966000  1
  Te  Te14  1  0.03370000  0.63514400  0.85966000  1
  Te  Te15  1  0.53370000  0.36485600  0.64034000  1
  Br  Br0  1  0.22034700  0.43735300  0.04458700  1
  Br  Br1  1  0.72034700  0.56264700  0.45541300  1
  Br  Br2  1  0.77965300  0.56264700  0.95541300  1
  Br  Br3  1  0.27965300  0.43735300  0.54458700  1
  Cl  Cl0  1  0.14184600  0.38232100  0.77890900  1
  Cl  Cl1  1  0.64184600  0.61767900  0.72109100  1
  Cl  Cl2  1  0.85815400  0.61767900  0.22109100  1
  Cl  Cl3  1  0.35815400  0.38232100  0.27890900  1
  O  O0  1  0.05304200  0.78532200  0.60783300  1
  O  O1  1  0.55304200  0.21467800  0.89216700  1
  O  O2  1  0.94695800  0.21467800  0.39216700  1
  O  O3  1  0.44695800  0.78532200  0.10783300  1
  O  O4  1  0.21559800  0.88699800  0.48082800  1
  O  O5  1  0.71559900  0.11300200  0.01917200  1
  O  O6  1  0.78440100  0.11300200  0.51917200  1
  O  O7  1  0.28440100  0.88699800  0.98082800  1
  O  O8  1  0.48696900  0.03708800  0.60290300  1
  O  O9  1  0.98696900  0.96291200  0.89709700  1
  O  O10  1  0.51303100  0.96291200  0.39709700  1
  O  O11  1  0.01303100  0.03708800  0.10290300  1
  O  O12  1  0.98735100  0.18730300  0.87766600  1
  O  O13  1  0.48735100  0.81269700  0.62233400  1
  O  O14  1  0.01264900  0.81269700  0.12233400  1
  O  O15  1  0.51264900  0.18730300  0.37766600  1
  O  O16  1  0.80022500  0.91024200  0.55209200  1
  O  O17  1  0.30022500  0.08975800  0.94790800  1
  O  O18  1  0.19977500  0.08975800  0.44790800  1
  O  O19  1  0.69977500  0.91024200  0.05209200  1
  O  O20  1  0.73017600  0.21281400  0.72493100  1
  O  O21  1  0.23017600  0.78718600  0.77506900  1
  O  O22  1  0.26982400  0.78718600  0.27506900  1
  O  O23  1  0.76982400  0.21281400  0.22493100  1
  O  O24  1  0.09164100  0.23039500  0.09225900  1
  O  O25  1  0.59164100  0.76960500  0.40774100  1
  O  O26  1  0.90835900  0.76960500  0.90774100  1
  O  O27  1  0.40835900  0.23039500  0.59225900  1
  O  O28  1  0.25366900  0.98699400  0.74634200  1
  O  O29  1  0.75366900  0.01300600  0.75365800  1
  O  O30  1  0.74633100  0.01300600  0.25365800  1
  O  O31  1  0.24633100  0.98699400  0.24634200  1
  O  O32  1  0.76090900  0.33737600  0.04810200  1
  O  O33  1  0.26090900  0.66262400  0.45189800  1
  O  O34  1  0.23909100  0.66262400  0.95189800  1
  O  O35  1  0.73909100  0.33737600  0.54810200  1
  O  O36  1  0.07597300  0.09895000  0.63660100  1
  O  O37  1  0.57597300  0.90105000  0.86339900  1
  O  O38  1  0.92402700  0.90105000  0.36339900  1
  O  O39  1  0.42402700  0.09895000  0.13660100  1
loop_
_geom_bond_atom_site_label_1
_geom_bond_atom_site_label_2
_geom_bond_distance
_geom_bond_site_symmetry_2
Fe0 O13 1.940948 1_555
Fe0 O25 1.974557 1_555
Fe0 O4 2.018381 1_555
Fe0 O16 2.048516 1_555
Fe0 O8 2.058835 1_565
Fe0 O10 2.403323 1_555
Fe1 O12 1.940948 1_455
Fe1 O24 1.974557 1_556
Fe1 O5 2.018375 1_456
Fe1 O17 2.048516 1_555
Fe1 O9 2.058835 1_445
Fe1 O11 2.403323 1_556
Fe2 O15 1.940948 1_555
Fe2 O27 1.974557 1_555
Fe2 O6 2.018375 1_555
Fe2 O18 2.048516 1_555
Fe2 O10 2.058835 1_545
Fe2 O8 2.403323 1_555
Fe3 O14 1.940948 1_655
Fe3 O26 1.974557 1_554
Fe3 O7 2.018375 1_654
Fe3 O19 2.048516 1_555
Fe3 O11 2.058835 1_665
Fe3 O9 2.403323 1_554
Fe4 O29 1.941490 1_555
Fe4 O36 1.965049 1_655
Fe4 O20 2.050658 1_555
Fe4 O16 2.074540 1_545
Fe4 O6 2.100964 1_555
Fe4 O8 2.121886 1_555
Fe5 O28 1.941490 1_555
Fe5 O37 1.965049 1_555
Fe5 O21 2.050658 1_555
Fe5 O17 2.074540 1_565
Fe5 O7 2.100964 1_555
Fe5 O9 2.121886 1_455
Fe6 O31 1.941490 1_555
Fe6 O38 1.965042 1_455
Fe6 O22 2.050659 1_555
Fe6 O18 2.074540 1_565
Fe6 O4 2.100964 1_555
Fe6 O10 2.121893 1_555
Fe7 O30 1.941490 1_555
Fe7 O39 1.965049 1_555
Fe7 O23 2.050658 1_555
Fe7 O19 2.074540 1_545
Fe7 O5 2.100964 1_555
Fe7 O11 2.121886 1_655
Br0 Te12 2.569472 1_455
Br1 Te13 2.569472 1_555
Br2 Te14 2.569472 1_655
Br3 Te15 2.569472 1_555
Cl0 Te4 3.064637 1_455
Cl1 Te5 3.064637 1_555
Cl2 Te6 3.064637 1_655
Cl3 Te7 3.064637 1_555
O0 Te8 1.967732 1_455
O0 Te5 2.004420 1_555
O1 Te9 1.967734 1_556
O1 Te4 2.004420 1_555
O2 Te10 1.967734 1_655
O2 Te7 2.004420 1_555
O3 Te11 1.967732 1_554
O3 Te6 2.004420 1_555
O4 Te8 1.932792 1_455
O5 Te9 1.932802 1_555
O6 Te10 1.932802 1_655
O7 Te11 1.932797 1_555
O8 Te0 2.003641 1_555
O9 Te1 2.003641 1_555
O10 Te2 2.003641 1_555
O11 Te3 2.003641 1_555
O12 Te4 1.896740 1_555
O13 Te5 1.896740 1_555
O14 Te6 1.896740 1_555
O15 Te7 1.896740 1_555
O16 Te8 1.962697 1_555
O17 Te9 1.962693 1_556
O18 Te10 1.962693 1_555
O19 Te11 1.962697 1_554
O20 Te4 1.915198 1_555
O21 Te5 1.915198 1_555
O22 Te6 1.915198 1_555
O23 Te7 1.915198 1_555
O24 Te12 1.924021 1_455
O25 Te13 1.924021 1_555
O26 Te14 1.924021 1_655
O27 Te15 1.924021 1_555
O28 Te0 1.882771 1_565
O29 Te1 1.882771 1_545
O30 Te2 1.882771 1_545
O31 Te3 1.882771 1_565
O32 Te12 1.871924 1_555
O32 Te9 2.559314 1_555
O32 Te4 2.638848 1_554
O33 Te13 1.871924 1_555
O33 Te8 2.559309 1_455
O33 Te5 2.638848 1_555
O34 Te14 1.871924 1_555
O34 Te11 2.559309 1_555
O34 Te6 2.638848 1_556
O35 Te15 1.871924 1_555
O35 Te10 2.559314 1_655
O35 Te7 2.638848 1_555
O36 Te0 1.897939 1_555
O36 Te10 2.514662 1_555
O37 Te1 1.897939 1_555
O37 Te11 2.514663 1_555
O38 Te2 1.897939 1_555
O38 Te8 2.514663 1_555
O39 Te3 1.897939 1_555
O39 Te9 2.514662 1_555
