# generated using pymatgen
data_FeBi6P2(O7F)2
_symmetry_space_group_name_H-M   'P 1'
_cell_length_a   8.85261922
_cell_length_b   8.85261922
_cell_length_c   16.98132082
_cell_angle_alpha   71.05422325
_cell_angle_beta   71.05422325
_cell_angle_gamma   36.86969298
_symmetry_Int_Tables_number   1
_chemical_formula_structural   FeBi6P2(O7F)2
_chemical_formula_sum   'Fe2 Bi12 P4 O28 F4'
_cell_volume   750.26348725
_cell_formula_units_Z   2
loop_
 _symmetry_equiv_pos_site_id
 _symmetry_equiv_pos_as_xyz
  1  'x, y, z'
loop_
 _atom_site_type_symbol
 _atom_site_label
 _atom_site_symmetry_multiplicity
 _atom_site_fract_x
 _atom_site_fract_y
 _atom_site_fract_z
 _atom_site_occupancy
  Fe  Fe0  1  0.00000000  0.00000000  0.00000000  1
  Fe  Fe1  1  0.00000000  0.00000000  0.50000000  1
  Bi  Bi0  1  0.88925000  0.89022300  0.32684400  1
  Bi  Bi1  1  0.11075000  0.10977700  0.67315600  1
  Bi  Bi2  1  0.10977700  0.11075000  0.17315600  1
  Bi  Bi3  1  0.89022300  0.88925000  0.82684400  1
  Bi  Bi4  1  0.76736500  0.83445200  0.16578200  1
  Bi  Bi5  1  0.23263500  0.16554800  0.83421800  1
  Bi  Bi6  1  0.16554800  0.23263500  0.33421800  1
  Bi  Bi7  1  0.83445200  0.76736500  0.66578200  1
  Bi  Bi8  1  0.57211500  0.55112900  0.32705300  1
  Bi  Bi9  1  0.42788500  0.44887100  0.67294700  1
  Bi  Bi10  1  0.44887100  0.42788500  0.17294700  1
  Bi  Bi11  1  0.55112900  0.57211500  0.82705300  1
  P  P0  1  0.63414600  0.65408000  0.99621200  1
  P  P1  1  0.36585400  0.34592000  0.00378800  1
  P  P2  1  0.34592000  0.36585400  0.50378800  1
  P  P3  1  0.65408000  0.63414600  0.49621200  1
  O  O0  1  0.82780500  0.05443400  0.11491000  1
  O  O1  1  0.17219500  0.94556600  0.88509000  1
  O  O2  1  0.94556600  0.17219500  0.38509000  1
  O  O3  1  0.05443400  0.82780500  0.61491000  1
  O  O4  1  0.21673000  0.78327000  0.25000000  1
  O  O5  1  0.78327000  0.21673000  0.75000000  1
  O  O6  1  0.71442800  0.28557200  0.25000000  1
  O  O7  1  0.28557200  0.71442800  0.75000000  1
  O  O8  1  0.61889600  0.18072000  0.51457200  1
  O  O9  1  0.38110400  0.81928000  0.48542800  1
  O  O10  1  0.81928000  0.38110400  0.98542800  1
  O  O11  1  0.18072000  0.61889600  0.01457200  1
  O  O12  1  0.38091100  0.79065800  0.04980400  1
  O  O13  1  0.61908900  0.20934200  0.95019600  1
  O  O14  1  0.20934200  0.61908900  0.45019600  1
  O  O15  1  0.79065800  0.38091100  0.54980400  1
  O  O16  1  0.38402700  0.19623200  0.08629200  1
  O  O17  1  0.61597300  0.80376800  0.91370800  1
  O  O18  1  0.80376800  0.61597300  0.41370800  1
  O  O19  1  0.19623200  0.38402700  0.58629200  1
  O  O20  1  0.40307800  0.93344200  0.24283100  1
  O  O21  1  0.59692200  0.06655800  0.75716900  1
  O  O22  1  0.06655800  0.59692200  0.25716900  1
  O  O23  1  0.93344200  0.40307800  0.74283100  1
  O  O24  1  0.56258400  0.09822900  0.25895200  1
  O  O25  1  0.43741600  0.90177100  0.74104800  1
  O  O26  1  0.90177100  0.43741600  0.24104800  1
  O  O27  1  0.09822900  0.56258400  0.75895200  1
  F  F0  1  0.36731900  0.23359700  0.44592600  1
  F  F1  1  0.63268100  0.76640300  0.55407400  1
  F  F2  1  0.76640300  0.63268100  0.05407400  1
  F  F3  1  0.23359700  0.36731900  0.94592600  1
loop_
_geom_bond_atom_site_label_1
_geom_bond_atom_site_label_2
_geom_bond_distance
_geom_bond_site_symmetry_2
Fe0 O1 1.966559 1_544
Fe0 O0 1.966559 1_455
Fe0 O10 2.254324 1_454
Fe0 O11 2.254324 1_545
Fe0 O13 2.521089 1_454
Fe0 O12 2.521089 1_545
Fe1 O3 1.966559 1_545
Fe1 O2 1.966559 1_455
Fe1 O8 2.254324 1_455
Fe1 O9 2.254324 1_545
Fe1 O15 2.521089 1_455
Fe1 O14 2.521089 1_545
Bi0 O22 2.207581 1_655
Bi0 O4 2.226604 1_655
Bi0 O24 2.312793 1_565
Bi0 O6 2.454876 1_565
Bi0 O14 2.808129 1_655
Bi1 O23 2.207581 1_455
Bi1 O5 2.226604 1_455
Bi1 O25 2.312793 1_545
Bi1 O7 2.454876 1_545
Bi1 O15 2.808129 1_455
Bi2 O20 2.207581 1_545
Bi2 O4 2.226604 1_545
Bi2 O26 2.312793 1_455
Bi2 O6 2.454876 1_455
Bi2 O12 2.808129 1_545
Bi3 O21 2.207581 1_565
Bi3 O5 2.226604 1_565
Bi3 O27 2.312793 1_655
Bi3 O7 2.454876 1_655
Bi3 O13 2.808129 1_565
Bi4 O24 2.237362 1_565
Bi4 O0 2.258229 1_565
Bi4 O22 2.341823 1_655
Bi4 O20 2.522448 1_555
Bi4 O16 2.524508 1_565
Bi4 O26 2.604279 1_555
Bi5 O25 2.237362 1_545
Bi5 O1 2.258229 1_545
Bi5 O23 2.341823 1_455
Bi5 O21 2.522448 1_555
Bi5 O17 2.524508 1_545
Bi5 O27 2.604279 1_555
Bi6 O26 2.237362 1_455
Bi6 O2 2.258229 1_455
Bi6 O20 2.341823 1_545
Bi6 O22 2.522448 1_555
Bi6 O18 2.524508 1_455
Bi6 O24 2.604279 1_555
Bi7 O27 2.237362 1_655
Bi7 O3 2.258229 1_655
Bi7 O21 2.341823 1_565
Bi7 O23 2.522448 1_555
Bi7 O19 2.524508 1_655
Bi7 O25 2.604279 1_555
Bi8 O6 2.239217 1_555
Bi8 O26 2.269272 1_555
Bi8 O2 2.319189 1_555
Bi8 O20 2.425407 1_555
Bi8 O4 2.532892 1_555
Bi9 O7 2.239217 1_555
Bi9 O27 2.269272 1_555
Bi9 O3 2.319189 1_555
Bi9 O21 2.425407 1_555
Bi9 O5 2.532892 1_555
Bi10 O6 2.239217 1_555
Bi10 O24 2.269272 1_555
Bi10 O0 2.319189 1_555
Bi10 O22 2.425407 1_555
Bi10 O4 2.532892 1_555
Bi11 O7 2.239217 1_555
Bi11 O25 2.269272 1_555
Bi11 O1 2.319189 1_555
Bi11 O23 2.425407 1_555
Bi11 O5 2.532892 1_555
O8 P2 1.521484 1_555
O9 P3 1.521484 1_555
O10 P0 1.521484 1_555
O11 P1 1.521484 1_555
O12 P0 1.539035 1_554
O13 P1 1.539035 1_556
O14 P2 1.539035 1_555
O15 P3 1.539035 1_555
O16 P1 1.531160 1_555
O17 P0 1.531160 1_555
O18 P3 1.531160 1_555
O19 P2 1.531160 1_555
F0 P2 1.625864 1_555
F1 P3 1.625864 1_555
F2 P0 1.625864 1_554
F3 P1 1.625864 1_556
