# generated using pymatgen
data_Mo2S3
_symmetry_space_group_name_H-M   'P 1'
_cell_length_a   3.20985700
_cell_length_b   6.17036400
_cell_length_c   8.70627230
_cell_angle_alpha   77.04242643
_cell_angle_beta   90.00000000
_cell_angle_gamma   90.00000000
_symmetry_Int_Tables_number   1
_chemical_formula_structural   Mo2S3
_chemical_formula_sum   'Mo4 S6'
_cell_volume   168.04545355
_cell_formula_units_Z   2
loop_
 _symmetry_equiv_pos_site_id
 _symmetry_equiv_pos_as_xyz
  1  'x, y, z'
loop_
 _atom_site_type_symbol
 _atom_site_label
 _atom_site_symmetry_multiplicity
 _atom_site_fract_x
 _atom_site_fract_y
 _atom_site_fract_z
 _atom_site_occupancy
  Mo  Mo0  1  0.25000000  0.68747200  0.00912100  1
  Mo  Mo1  1  0.75000000  0.31252800  0.99087900  1
  Mo  Mo2  1  0.25000000  0.89253500  0.62641400  1
  Mo  Mo3  1  0.75000000  0.10746500  0.37358600  1
  S  S0  1  0.25000000  0.49327400  0.80353300  1
  S  S1  1  0.75000000  0.50672600  0.19646700  1
  S  S2  1  0.25000000  0.02626500  0.15780500  1
  S  S3  1  0.75000000  0.97373500  0.84219500  1
  S  S4  1  0.25000000  0.27347000  0.51325000  1
  S  S5  1  0.75000000  0.72653000  0.48675000  1
loop_
_geom_bond_atom_site_label_1
_geom_bond_atom_site_label_2
_geom_bond_distance
_geom_bond_site_symmetry_2
Mo0 S0 2.366742 1_554
Mo0 S1 2.379972 1_455
Mo0 S1 2.379972 1_555
Mo0 S3 2.580050 1_454
Mo0 S3 2.580050 1_554
Mo0 S2 2.694317 1_565
Mo1 S1 2.366742 1_556
Mo1 S0 2.379972 1_555
Mo1 S0 2.379972 1_655
Mo1 S2 2.580050 1_556
Mo1 S2 2.580050 1_656
Mo1 S3 2.694317 1_545
Mo2 S4 2.336029 1_565
Mo2 S5 2.379519 1_455
Mo2 S5 2.379519 1_555
Mo2 S0 2.596822 1_555
Mo2 S3 2.603511 1_455
Mo2 S3 2.603511 1_555
Mo3 S5 2.336029 1_545
Mo3 S4 2.379519 1_555
Mo3 S4 2.379519 1_655
Mo3 S1 2.596822 1_555
Mo3 S2 2.603511 1_555
Mo3 S2 2.603511 1_655
