# generated using pymatgen
data_BaMg14Sn
_symmetry_space_group_name_H-M   'P 1'
_cell_length_a   6.64132666
_cell_length_b   6.63364304
_cell_length_c   10.52890121
_cell_angle_alpha   90.00000000
_cell_angle_beta   90.00000000
_cell_angle_gamma   119.96174185
_symmetry_Int_Tables_number   1
_chemical_formula_structural   BaMg14Sn
_chemical_formula_sum   'Ba1 Mg14 Sn1'
_cell_volume   401.87215965
_cell_formula_units_Z   1
loop_
 _symmetry_equiv_pos_site_id
 _symmetry_equiv_pos_as_xyz
  1  'x, y, z'
loop_
 _atom_site_type_symbol
 _atom_site_label
 _atom_site_symmetry_multiplicity
 _atom_site_fract_x
 _atom_site_fract_y
 _atom_site_fract_z
 _atom_site_occupancy
  Ba  Ba0  1  0.16509185  0.83254542  0.12500000  1
  Mg  Mg0  1  0.16344397  0.33172148  0.62500000  1
  Mg  Mg1  1  0.16576971  0.83288436  0.62500000  1
  Mg  Mg2  1  0.66173425  0.33750999  0.12500000  1
  Mg  Mg3  1  0.66834785  0.33243418  0.62500000  1
  Mg  Mg4  1  0.66173425  0.82422326  0.12500000  1
  Mg  Mg5  1  0.66834785  0.83591267  0.62500000  1
  Mg  Mg6  1  0.33766756  0.17733631  0.38771061  1
  Mg  Mg7  1  0.33766756  0.17733631  0.86228939  1
  Mg  Mg8  1  0.33766756  0.66033225  0.38771061  1
  Mg  Mg9  1  0.33766756  0.66033225  0.86228939  1
  Mg  Mg10  1  0.83346849  0.16673475  0.37041795  1
  Mg  Mg11  1  0.83346849  0.16673475  0.87958205  1
  Mg  Mg12  1  0.82219981  0.66110040  0.38887620  1
  Mg  Mg13  1  0.82219981  0.66110040  0.86112380  1
  Sn  Sn0  1  0.18352342  0.34176121  0.12500000  1
loop_
_geom_bond_atom_site_label_1
_geom_bond_atom_site_label_2
_geom_bond_distance
_geom_bond_site_symmetry_2
Ba0 Mg2 3.315736 1_455
Ba0 Mg4 3.315736 1_455
Ba0 Sn0 3.318516 1_555
Ba0 Sn0 3.318517 1_565
Ba0 Mg2 3.326279 1_565
Ba0 Mg4 3.326279 1_555
Ba0 Mg9 3.402584 1_554
Ba0 Mg8 3.402584 1_555
Ba0 Mg7 3.402591 1_564
Ba0 Mg6 3.402591 1_565
Ba0 Mg13 3.407569 1_454
Ba0 Mg12 3.407569 1_455
Mg0 Mg6 3.132618 1_555
Mg0 Mg7 3.132618 1_555
Mg0 Mg8 3.132625 1_555
Mg0 Mg9 3.132625 1_555
Mg0 Mg10 3.284755 1_455
Mg0 Mg11 3.284755 1_455
Mg0 Mg5 3.290458 1_445
Mg0 Mg3 3.290459 1_455
Mg0 Mg1 3.316848 1_545
Mg0 Mg1 3.316849 1_555
Mg0 Mg5 3.350873 1_555
Mg0 Mg3 3.350873 1_555
Mg1 Mg13 3.176263 1_455
Mg1 Mg12 3.176263 1_455
Mg1 Mg8 3.187598 1_555
Mg1 Mg9 3.187598 1_555
Mg1 Mg7 3.187605 1_565
Mg1 Mg6 3.187605 1_565
Mg1 Mg3 3.313619 1_455
Mg1 Mg5 3.313620 1_455
Mg1 Mg3 3.327798 1_565
Mg1 Mg5 3.327798 1_555
Mg2 Sn0 3.190132 1_555
Mg2 Mg4 3.228682 1_555
Mg2 Mg7 3.335860 1_554
Mg2 Mg6 3.335860 1_555
Mg2 Mg4 3.404961 1_545
Mg2 Sn0 3.451375 1_655
Mg3 Mg6 3.141133 1_555
Mg3 Mg7 3.141133 1_555
Mg3 Mg5 3.293746 1_545
Mg3 Mg5 3.339897 1_555
Mg4 Sn0 3.190132 1_555
Mg4 Mg9 3.335860 1_554
Mg4 Mg8 3.335860 1_555
Mg4 Sn0 3.451374 1_665
Mg5 Mg8 3.141132 1_555
Mg5 Mg9 3.141132 1_555
Mg6 Mg8 3.204023 1_555
Mg6 Sn0 3.317241 1_555
Mg6 Mg8 3.429620 1_545
Mg7 Mg9 3.204023 1_555
Mg7 Sn0 3.317241 1_556
Mg7 Mg9 3.429620 1_545
Mg8 Sn0 3.317247 1_555
Mg9 Sn0 3.317247 1_556
Mg10 Mg2 3.248347 1_555
Mg10 Mg4 3.248354 1_545
Mg10 Sn0 3.276234 1_655
Mg10 Mg3 3.286292 1_555
Mg10 Mg5 3.286298 1_545
Mg10 Mg8 3.318986 1_655
Mg10 Mg6 3.318986 1_655
Mg10 Mg12 3.323143 1_555
Mg10 Mg12 3.323143 1_545
Mg10 Mg8 3.333432 1_545
Mg10 Mg6 3.333433 1_555
Mg11 Mg2 3.248347 1_556
Mg11 Mg4 3.248354 1_546
Mg11 Sn0 3.276234 1_656
Mg11 Mg3 3.286292 1_555
Mg11 Mg5 3.286298 1_545
Mg11 Mg9 3.318986 1_655
Mg11 Mg7 3.318986 1_655
Mg11 Mg13 3.323143 1_555
Mg11 Mg13 3.323143 1_545
Mg11 Mg9 3.333432 1_545
Mg11 Mg7 3.333433 1_555
Mg12 Mg5 3.123003 1_555
Mg12 Mg3 3.123010 1_555
Mg12 Mg6 3.215418 1_555
Mg12 Mg8 3.215419 1_555
Mg12 Mg4 3.343295 1_555
Mg12 Mg2 3.343302 1_555
Mg12 Mg6 3.425959 1_665
Mg12 Mg8 3.425959 1_655
Mg13 Mg5 3.123003 1_555
Mg13 Mg3 3.123010 1_555
Mg13 Mg7 3.215418 1_555
Mg13 Mg9 3.215419 1_555
Mg13 Mg4 3.343295 1_556
Mg13 Mg2 3.343302 1_556
Mg13 Mg7 3.425959 1_665
Mg13 Mg9 3.425959 1_655
