# generated using pymatgen
data_LiMn6(OF2)4
_symmetry_space_group_name_H-M   'P 1'
_cell_length_a   4.99801439
_cell_length_b   7.99619236
_cell_length_c   5.85058830
_cell_angle_alpha   94.06605137
_cell_angle_beta   89.87862094
_cell_angle_gamma   89.52688114
_symmetry_Int_Tables_number   1
_chemical_formula_structural   LiMn6(OF2)4
_chemical_formula_sum   'Li1 Mn6 O4 F8'
_cell_volume   233.22191712
_cell_formula_units_Z   1
loop_
 _symmetry_equiv_pos_site_id
 _symmetry_equiv_pos_as_xyz
  1  'x, y, z'
loop_
 _atom_site_type_symbol
 _atom_site_label
 _atom_site_symmetry_multiplicity
 _atom_site_fract_x
 _atom_site_fract_y
 _atom_site_fract_z
 _atom_site_occupancy
  Li  Li0  1  0.11132000  0.67691900  0.10807700  1
  Mn  Mn0  1  0.48831400  0.00748500  0.50063700  1
  Mn  Mn1  1  0.60196200  0.65195700  0.19961000  1
  Mn  Mn2  1  0.49555400  0.33555500  0.82996300  1
  Mn  Mn3  1  0.95585100  0.68336900  0.66327200  1
  Mn  Mn4  1  0.01894000  0.32348100  0.34589100  1
  Mn  Mn5  1  0.98470900  0.99901000  0.99978200  1
  O  O0  1  0.80842600  0.76326100  0.98458800  1
  O  O1  1  0.68274900  0.79530900  0.46840100  1
  O  O2  1  0.69530100  0.42870400  0.09697400  1
  O  O3  1  0.31587200  0.22764200  0.55649400  1
  F  F0  1  0.78205200  0.44212600  0.60990800  1
  F  F1  1  0.78373100  0.10308800  0.30394400  1
  F  F2  1  0.70283900  0.11057200  0.79712000  1
  F  F3  1  0.27498400  0.55982400  0.85867200  1
  F  F4  1  0.28693000  0.88449000  0.19995000  1
  F  F5  1  0.20760000  0.57109900  0.36003300  1
  F  F6  1  0.21016700  0.22373800  0.04353700  1
  F  F7  1  0.20380600  0.90403400  0.69814800  1
loop_
_geom_bond_atom_site_label_1
_geom_bond_atom_site_label_2
_geom_bond_distance
_geom_bond_site_symmetry_2
Li0 O0 1.829905 1_454
Mn0 O1 1.945511 1_545
Mn0 O3 1.959808 1_555
Mn1 O2 1.896865 1_555
Mn1 O0 1.899467 1_554
Mn1 O1 1.924758 1_555
Mn2 O2 1.961051 1_556
Mn2 O3 1.983441 1_555
Mn3 O1 2.023689 1_555
Mn3 O0 2.073899 1_555
Mn4 O3 2.104952 1_555
Mn4 O2 2.367808 1_455
Mn5 O0 2.083688 1_555
F0 Mn4 2.110373 1_655
F0 Mn3 2.125225 1_555
F0 Mn2 2.145236 1_555
F1 Mn0 2.055460 1_555
F1 Mn4 2.126507 1_655
F1 Mn5 2.153351 1_544
F2 Mn2 2.065436 1_555
F2 Mn5 2.079103 1_545
F2 Mn0 2.158154 1_555
F3 Li0 1.861051 1_556
F3 Mn2 2.093632 1_555
F3 Mn3 2.229087 1_455
F4 Li0 1.927091 1_555
F4 Mn5 2.151368 1_454
F4 Mn0 2.203089 1_565
F4 Mn1 2.426430 1_555
F5 Li0 1.814843 1_555
F5 Mn4 2.196427 1_555
F5 Mn3 2.298402 1_455
F5 Mn1 2.298512 1_555
F6 Mn4 2.111617 1_555
F6 Mn5 2.129279 1_444
F6 Mn2 2.137110 1_554
F7 Mn0 2.046858 1_565
F7 Mn3 2.162631 1_455
F7 Mn5 2.162916 1_455
