# generated using pymatgen
data_LiMg14BO15
_symmetry_space_group_name_H-M   'P 1'
_cell_length_a   8.58677190
_cell_length_b   8.29531783
_cell_length_c   4.26715068
_cell_angle_alpha   90.00000000
_cell_angle_beta   90.00000000
_cell_angle_gamma   90.00000000
_symmetry_Int_Tables_number   1
_chemical_formula_structural   LiMg14BO15
_chemical_formula_sum   'Li1 Mg14 B1 O15'
_cell_volume   303.94915166
_cell_formula_units_Z   1
loop_
 _symmetry_equiv_pos_site_id
 _symmetry_equiv_pos_as_xyz
  1  'x, y, z'
loop_
 _atom_site_type_symbol
 _atom_site_label
 _atom_site_symmetry_multiplicity
 _atom_site_fract_x
 _atom_site_fract_y
 _atom_site_fract_z
 _atom_site_occupancy
  Li  Li0  1  0.99722735  0.00000000  -0.00000000  1
  Mg  Mg0  1  0.49973518  0.00000000  -0.00000000  1
  Mg  Mg1  1  0.50018632  0.50000000  -0.00000000  1
  Mg  Mg2  1  0.99965749  0.25853591  0.50000000  1
  Mg  Mg3  1  0.99965749  0.74146409  0.50000000  1
  Mg  Mg4  1  0.49719284  0.24951115  0.50000000  1
  Mg  Mg5  1  0.49719284  0.75048885  0.50000000  1
  Mg  Mg6  1  0.24031276  0.00000000  0.50000000  1
  Mg  Mg7  1  0.24313080  0.50000000  0.50000000  1
  Mg  Mg8  1  0.75728626  0.00000000  0.50000000  1
  Mg  Mg9  1  0.75910127  0.50000000  0.50000000  1
  Mg  Mg10  1  0.24692055  0.24630791  0.00000000  1
  Mg  Mg11  1  0.24692055  0.75369209  -0.00000000  1
  Mg  Mg12  1  0.74914136  0.25812555  0.00000000  1
  Mg  Mg13  1  0.74914136  0.74187445  -0.00000000  1
  B  B0  1  0.06095539  0.50000000  -0.00000000  1
  O  O0  1  0.24369990  0.00000000  -0.00000000  1
  O  O1  1  0.75101565  0.00000000  -0.00000000  1
  O  O2  1  0.72708793  0.50000000  -0.00000000  1
  O  O3  1  0.24548454  0.25070793  0.50000000  1
  O  O4  1  0.24548454  0.74929207  0.50000000  1
  O  O5  1  0.75259316  0.25159788  0.50000000  1
  O  O6  1  0.75259316  0.74840212  0.50000000  1
  O  O7  1  -0.00094105  0.00000000  0.50000000  1
  O  O8  1  0.00846109  0.50000000  0.50000000  1
  O  O9  1  0.49835412  0.00000000  0.50000000  1
  O  O10  1  0.48534646  0.50000000  0.50000000  1
  O  O11  1  0.00717083  0.32698111  -0.00000000  1
  O  O12  1  0.00717083  0.67301889  0.00000000  1
  O  O13  1  0.49135952  0.25069831  0.00000000  1
  O  O14  1  0.49135952  0.74930169  -0.00000000  1
loop_
_geom_bond_atom_site_label_1
_geom_bond_atom_site_label_2
_geom_bond_distance
_geom_bond_site_symmetry_2
Li0 O1 2.114164 1_555
Li0 O0 2.116404 1_655
Li0 O7 2.133633 1_654
Li0 O7 2.133633 1_655
Mg0 O14 2.080865 1_545
Mg0 O13 2.080865 1_555
Mg0 O9 2.133608 1_555
Mg0 O9 2.133608 1_554
Mg0 O1 2.157688 1_555
Mg0 O0 2.198517 1_555
Mg1 O2 1.948352 1_555
Mg1 O14 2.069425 1_555
Mg1 O13 2.069425 1_555
Mg1 O10 2.137377 1_555
Mg1 O10 2.137377 1_554
Mg2 O8 2.004447 1_655
Mg2 O3 2.111859 1_655
Mg2 O5 2.122266 1_555
Mg2 O7 2.144644 1_655
Mg2 O11 2.208772 1_655
Mg2 O11 2.208772 1_656
Mg3 O8 2.004447 1_655
Mg3 O4 2.111859 1_655
Mg3 O6 2.122266 1_555
Mg3 O7 2.144644 1_665
Mg3 O12 2.208772 1_656
Mg3 O12 2.208772 1_655
Mg4 O9 2.069798 1_555
Mg4 O10 2.080373 1_555
Mg4 O13 2.134186 1_555
Mg4 O13 2.134186 1_556
Mg4 O3 2.161385 1_555
Mg4 O5 2.193133 1_555
Mg5 O9 2.069798 1_565
Mg5 O10 2.080373 1_555
Mg5 O14 2.134186 1_556
Mg5 O14 2.134186 1_555
Mg5 O4 2.161385 1_555
Mg5 O6 2.193133 1_555
Mg6 O7 2.071591 1_555
Mg6 O4 2.080176 1_545
Mg6 O3 2.080176 1_555
Mg6 O0 2.133774 1_555
Mg6 O0 2.133774 1_556
Mg6 O9 2.215742 1_555
Mg7 O8 2.015055 1_555
Mg7 O4 2.068056 1_555
Mg7 O3 2.068056 1_555
Mg7 O10 2.079851 1_555
Mg8 O7 2.076047 1_655
Mg8 O5 2.087473 1_555
Mg8 O6 2.087473 1_545
Mg8 O1 2.134255 1_555
Mg8 O1 2.134255 1_556
Mg8 O9 2.223391 1_555
Mg9 O6 2.061332 1_555
Mg9 O5 2.061332 1_555
Mg9 O8 2.141196 1_655
Mg9 O2 2.151211 1_556
Mg9 O2 2.151211 1_555
Mg9 O10 2.350670 1_555
Mg10 O0 2.043390 1_555
Mg10 O13 2.099258 1_555
Mg10 O3 2.133923 1_554
Mg10 O3 2.133923 1_555
Mg10 O11 2.164715 1_555
Mg11 O0 2.043390 1_565
Mg11 O14 2.099258 1_555
Mg11 O4 2.133923 1_554
Mg11 O4 2.133923 1_555
Mg11 O12 2.164715 1_555
Mg12 O2 2.015342 1_555
Mg12 O5 2.134468 1_554
Mg12 O5 2.134468 1_555
Mg12 O1 2.141294 1_555
Mg12 O13 2.214371 1_555
Mg12 O11 2.288079 1_655
Mg13 O2 2.015342 1_555
Mg13 O6 2.134468 1_555
Mg13 O6 2.134468 1_554
Mg13 O1 2.141294 1_565
Mg13 O14 2.214371 1_555
Mg13 O12 2.288079 1_655
B0 O11 1.507722 1_555
B0 O12 1.507722 1_555
B0 O8 2.180671 1_555
B0 O8 2.180671 1_554
