# generated using pymatgen
data_FeNiP2O9
_symmetry_space_group_name_H-M   'P 1'
_cell_length_a   6.31723900
_cell_length_b   7.73982400
_cell_length_c   14.09115500
_cell_angle_alpha   90.00000000
_cell_angle_beta   90.00000000
_cell_angle_gamma   90.00000000
_symmetry_Int_Tables_number   1
_chemical_formula_structural   FeNiP2O9
_chemical_formula_sum   'Fe4 Ni4 P8 O36'
_cell_volume   688.97741392
_cell_formula_units_Z   4
loop_
 _symmetry_equiv_pos_site_id
 _symmetry_equiv_pos_as_xyz
  1  'x, y, z'
loop_
 _atom_site_type_symbol
 _atom_site_label
 _atom_site_symmetry_multiplicity
 _atom_site_fract_x
 _atom_site_fract_y
 _atom_site_fract_z
 _atom_site_occupancy
  Fe  Fe0  1  0.75000000  0.84564500  0.38096900  1
  Fe  Fe1  1  0.25000000  0.15435500  0.61903100  1
  Fe  Fe2  1  0.25000000  0.34564500  0.11903100  1
  Fe  Fe3  1  0.75000000  0.65435500  0.88096900  1
  Ni  Ni0  1  0.50000000  0.50000000  0.50000000  1
  Ni  Ni1  1  0.50000000  0.00000000  0.00000000  1
  Ni  Ni2  1  0.00000000  0.00000000  0.00000000  1
  Ni  Ni3  1  0.00000000  0.50000000  0.50000000  1
  P  P0  1  0.25000000  0.84954000  0.43846700  1
  P  P1  1  0.75000000  0.15046000  0.56153300  1
  P  P2  1  0.75000000  0.34954000  0.06153300  1
  P  P3  1  0.25000000  0.65046000  0.93846700  1
  P  P4  1  0.75000000  0.89038500  0.18775200  1
  P  P5  1  0.25000000  0.10961500  0.81224800  1
  P  P6  1  0.25000000  0.39038500  0.31224800  1
  P  P7  1  0.75000000  0.60961500  0.68775200  1
  O  O0  1  0.04613900  0.09805100  0.87203600  1
  O  O1  1  0.54613900  0.90194900  0.12796400  1
  O  O2  1  0.95386100  0.59805100  0.62796400  1
  O  O3  1  0.45386100  0.40194900  0.37203600  1
  O  O4  1  0.95386100  0.90194900  0.12796400  1
  O  O5  1  0.45386100  0.09805100  0.87203600  1
  O  O6  1  0.04613900  0.40194900  0.37203600  1
  O  O7  1  0.54613900  0.59805100  0.62796400  1
  O  O8  1  0.25000000  0.83846900  0.97976700  1
  O  O9  1  0.75000000  0.16153100  0.02023300  1
  O  O10  1  0.75000000  0.33846900  0.52023300  1
  O  O11  1  0.25000000  0.66153100  0.47976700  1
  O  O12  1  0.75000000  0.64076000  0.45354400  1
  O  O13  1  0.25000000  0.35924000  0.54645600  1
  O  O14  1  0.25000000  0.14076000  0.04645600  1
  O  O15  1  0.75000000  0.85924000  0.95354400  1
  O  O16  1  0.75000000  0.72298300  0.24863900  1
  O  O17  1  0.25000000  0.27701700  0.75136100  1
  O  O18  1  0.25000000  0.22298300  0.25136100  1
  O  O19  1  0.75000000  0.77701700  0.74863900  1
  O  O20  1  0.44369100  0.63430500  0.87324700  1
  O  O21  1  0.94369100  0.36569500  0.12675300  1
  O  O22  1  0.55630900  0.13430500  0.62675300  1
  O  O23  1  0.05630900  0.86569500  0.37324700  1
  O  O24  1  0.55630900  0.36569500  0.12675300  1
  O  O25  1  0.05630900  0.63430500  0.87324700  1
  O  O26  1  0.44369100  0.86569500  0.37324700  1
  O  O27  1  0.94369100  0.13430500  0.62675300  1
  O  O28  1  0.75000000  0.47084100  0.76808200  1
  O  O29  1  0.25000000  0.52915900  0.23191800  1
  O  O30  1  0.25000000  0.97084100  0.73191800  1
  O  O31  1  0.75000000  0.02915900  0.26808200  1
  O  O32  1  0.75000000  0.48201200  0.98229600  1
  O  O33  1  0.25000000  0.51798800  0.01770400  1
  O  O34  1  0.25000000  0.98201200  0.51770400  1
  O  O35  1  0.75000000  0.01798800  0.48229600  1
loop_
_geom_bond_atom_site_label_1
_geom_bond_atom_site_label_2
_geom_bond_distance
_geom_bond_site_symmetry_2
Fe0 O12 1.886935 1_555
Fe0 O23 1.944287 1_655
Fe0 O26 1.944287 1_555
Fe0 O35 1.953959 1_565
Fe0 O16 2.092455 1_555
Fe0 O31 2.132555 1_565
Fe1 O13 1.886935 1_555
Fe1 O22 1.944287 1_555
Fe1 O27 1.944287 1_455
Fe1 O34 1.953959 1_545
Fe1 O17 2.092455 1_555
Fe1 O30 2.132555 1_545
Fe2 O14 1.886935 1_555
Fe2 O24 1.944287 1_555
Fe2 O21 1.944287 1_455
Fe2 O33 1.953959 1_555
Fe2 O18 2.092455 1_555
Fe2 O29 2.132555 1_555
Fe3 O15 1.886935 1_555
Fe3 O25 1.944287 1_655
Fe3 O20 1.944287 1_555
Fe3 O32 1.953959 1_555
Fe3 O19 2.092455 1_555
Fe3 O28 2.132555 1_555
Ni0 O7 1.977946 1_555
Ni0 O3 1.977946 1_555
Ni0 O13 2.027230 1_555
Ni0 O12 2.027230 1_555
Ni0 O11 2.034345 1_555
Ni0 O10 2.034345 1_555
Ni1 O1 1.977946 1_545
Ni1 O5 1.977946 1_554
Ni1 O14 2.027230 1_555
Ni1 O15 2.027230 1_544
Ni1 O9 2.034345 1_555
Ni1 O8 2.034345 1_544
Ni2 O4 1.977946 1_445
Ni2 O0 1.977946 1_554
Ni2 O14 2.027230 1_555
Ni2 O15 2.027230 1_444
Ni2 O9 2.034345 1_455
Ni2 O8 2.034345 1_544
Ni3 O2 1.977946 1_455
Ni3 O6 1.977946 1_555
Ni3 O13 2.027230 1_555
Ni3 O12 2.027230 1_455
Ni3 O11 2.034345 1_555
Ni3 O10 2.034345 1_455
O0 P5 1.541530 1_555
O1 P4 1.541530 1_555
O2 P7 1.541530 1_555
O3 P6 1.541530 1_555
O4 P4 1.541530 1_555
O5 P5 1.541530 1_555
O6 P6 1.541530 1_555
O7 P7 1.541530 1_555
O8 P3 1.567215 1_555
O9 P2 1.567215 1_555
O10 P1 1.567215 1_555
O11 P0 1.567215 1_555
O16 P4 1.553979 1_555
O17 P5 1.553979 1_555
O18 P6 1.553979 1_555
O19 P7 1.553979 1_555
O20 P3 1.535389 1_555
O21 P2 1.535389 1_555
O22 P1 1.535389 1_555
O23 P0 1.535389 1_555
O24 P2 1.535389 1_555
O25 P3 1.535389 1_555
O26 P0 1.535389 1_555
O27 P1 1.535389 1_555
O28 P7 1.560434 1_555
O29 P6 1.560434 1_555
O30 P5 1.560434 1_565
O31 P4 1.560434 1_545
O32 P2 1.515890 1_556
O33 P3 1.515890 1_554
O34 P0 1.515890 1_555
O35 P1 1.515890 1_555
