# generated using pymatgen
data_Zr3Ti2(PbO3)5
_symmetry_space_group_name_H-M   'P 1'
_cell_length_a   9.20212901
_cell_length_b   9.20212901
_cell_length_c   7.30095287
_cell_angle_alpha   75.24636609
_cell_angle_beta   75.24636609
_cell_angle_gamma   37.01391444
_symmetry_Int_Tables_number   1
_chemical_formula_structural   Zr3Ti2(PbO3)5
_chemical_formula_sum   'Zr3 Ti2 Pb5 O15'
_cell_volume   358.51313803
_cell_formula_units_Z   1
loop_
 _symmetry_equiv_pos_site_id
 _symmetry_equiv_pos_as_xyz
  1  'x, y, z'
loop_
 _atom_site_type_symbol
 _atom_site_label
 _atom_site_symmetry_multiplicity
 _atom_site_fract_x
 _atom_site_fract_y
 _atom_site_fract_z
 _atom_site_occupancy
  Zr  Zr0  1  0.99863500  0.99863500  0.97216300  1
  Zr  Zr1  1  0.59867700  0.59867700  0.57161200  1
  Zr  Zr2  1  0.20125700  0.20125700  0.16973100  1
  Ti  Ti0  1  0.80189700  0.80189700  0.76132900  1
  Ti  Ti1  1  0.40261400  0.40261400  0.36216500  1
  Pb  Pb0  1  0.79941700  0.79941700  0.22027200  1
  Pb  Pb1  1  0.39371400  0.39371400  0.82279500  1
  Pb  Pb2  1  0.99348500  0.99348500  0.43711000  1
  Pb  Pb3  1  0.60747300  0.60747300  0.02179900  1
  Pb  Pb4  1  0.20837900  0.20837900  0.62524000  1
  O  O0  1  0.69793700  0.19531400  0.21448700  1
  O  O1  1  0.31498500  0.79059000  0.80523400  1
  O  O2  1  0.91497600  0.39679400  0.40144300  1
  O  O3  1  0.51615600  0.99011100  0.99256400  1
  O  O4  1  0.09885000  0.59866100  0.60613300  1
  O  O5  1  0.19531400  0.69793700  0.21448700  1
  O  O6  1  0.79059000  0.31498500  0.80523400  1
  O  O7  1  0.39679400  0.91497600  0.40144300  1
  O  O8  1  0.99011100  0.51615600  0.99256400  1
  O  O9  1  0.59866100  0.09885000  0.60613300  1
  O  O10  1  0.09231700  0.09231700  0.11584400  1
  O  O11  1  0.70082500  0.70082500  0.71031600  1
  O  O12  1  0.30203700  0.30203700  0.31159100  1
  O  O13  1  0.89369600  0.89369600  0.89808300  1
  O  O14  1  0.49120500  0.49120500  0.50322900  1
loop_
_geom_bond_atom_site_label_1
_geom_bond_atom_site_label_2
_geom_bond_distance
_geom_bond_site_symmetry_2
O0 Ti1 1.860936 1_555
O0 Zr0 2.280808 1_544
O0 Pb2 2.476935 1_545
O1 Zr0 2.026343 1_455
O1 Zr1 2.178741 1_555
O1 Pb3 2.480174 1_556
O2 Zr1 2.040850 1_555
O2 Zr2 2.179474 1_655
O2 Pb4 2.508731 1_655
O3 Zr2 2.055429 1_566
O3 Ti0 2.172388 1_555
O3 Pb0 2.460519 1_556
O4 Ti0 1.894610 1_455
O4 Ti1 2.299632 1_555
O4 Pb1 2.432255 1_555
O5 Ti1 1.860936 1_555
O5 Zr0 2.280808 1_454
O5 Pb2 2.476935 1_455
O6 Zr0 2.026343 1_545
O6 Zr1 2.178741 1_555
O6 Pb3 2.480174 1_556
O7 Zr1 2.040850 1_555
O7 Zr2 2.179474 1_565
O7 Pb4 2.508731 1_565
O8 Zr2 2.055429 1_656
O8 Ti0 2.172388 1_555
O8 Pb0 2.460519 1_556
O9 Ti0 1.894610 1_545
O9 Ti1 2.299632 1_555
O9 Pb1 2.432255 1_555
O10 Zr2 2.042397 1_555
O10 Zr0 2.166744 1_444
O10 Pb2 2.510730 1_445
O11 Ti0 1.898189 1_555
O11 Zr1 2.274488 1_555
O11 Pb3 2.415784 1_556
O12 Ti1 1.888278 1_555
O12 Zr2 2.268198 1_555
O12 Pb4 2.430064 1_555
O13 Zr0 2.044198 1_555
O13 Ti0 2.103050 1_555
O13 Pb0 2.482291 1_556
O14 Zr1 2.066471 1_555
O14 Ti1 2.075208 1_555
O14 Pb1 2.491252 1_555
