# generated using pymatgen
data_Mn(C2N3)3
_symmetry_space_group_name_H-M   'P 1'
_cell_length_a   7.64314730
_cell_length_b   13.62497746
_cell_length_c   11.44816000
_cell_angle_alpha   90.00000000
_cell_angle_beta   90.00000000
_cell_angle_gamma   26.96043610
_symmetry_Int_Tables_number   1
_chemical_formula_structural   Mn(C2N3)3
_chemical_formula_sum   'Mn2 C12 N18'
_cell_volume   540.50710752
_cell_formula_units_Z   2
loop_
 _symmetry_equiv_pos_site_id
 _symmetry_equiv_pos_as_xyz
  1  'x, y, z'
loop_
 _atom_site_type_symbol
 _atom_site_label
 _atom_site_symmetry_multiplicity
 _atom_site_fract_x
 _atom_site_fract_y
 _atom_site_fract_z
 _atom_site_occupancy
  Mn  Mn0  1  0.00000000  0.27408200  0.25000000  1
  Mn  Mn1  1  0.00000000  0.72591800  0.75000000  1
  C  C0  1  0.67675800  0.78561800  0.25000000  1
  C  C1  1  0.67675800  0.53762300  0.75000000  1
  C  C2  1  0.32324200  0.21438200  0.75000000  1
  C  C3  1  0.32324200  0.46237700  0.25000000  1
  C  C4  1  0.67611600  0.31023100  0.90131700  1
  C  C5  1  0.67611600  0.01365300  0.09868300  1
  C  C6  1  0.67611600  0.31023100  0.59868300  1
  C  C7  1  0.67611600  0.01365300  0.40131700  1
  C  C8  1  0.32388400  0.68976900  0.09868300  1
  C  C9  1  0.32388400  0.98634700  0.90131700  1
  C  C10  1  0.32388400  0.68976900  0.40131700  1
  C  C11  1  0.32388400  0.98634700  0.59868300  1
  N  N0  1  0.00000000  0.57621600  0.25000000  1
  N  N1  1  0.00000000  0.42378400  0.75000000  1
  N  N2  1  0.37459300  0.97620200  0.25000000  1
  N  N3  1  0.37459300  0.64920500  0.75000000  1
  N  N4  1  0.62540700  0.02379800  0.75000000  1
  N  N5  1  0.62540700  0.35079500  0.25000000  1
  N  N6  1  0.00000000  0.12144400  0.94776200  1
  N  N7  1  0.00000000  0.87855600  0.05223800  1
  N  N8  1  0.00000000  0.12144400  0.55223800  1
  N  N9  1  0.00000000  0.87855600  0.44776200  1
  N  N10  1  0.37233300  0.48432700  0.86370500  1
  N  N11  1  0.37233300  0.14333900  0.13629500  1
  N  N12  1  0.37233300  0.48432700  0.63629500  1
  N  N13  1  0.37233300  0.14333900  0.36370500  1
  N  N14  1  0.62766700  0.51567300  0.13629500  1
  N  N15  1  0.62766700  0.85666100  0.86370500  1
  N  N16  1  0.62766700  0.51567300  0.36370500  1
  N  N17  1  0.62766700  0.85666100  0.63629500  1
loop_
_geom_bond_atom_site_label_1
_geom_bond_atom_site_label_2
_geom_bond_distance
_geom_bond_site_symmetry_2
Mn0 N13 1.982259 1_555
Mn0 N11 1.982259 1_555
Mn0 N14 1.982264 1_455
Mn0 N16 1.982264 1_455
Mn0 N5 1.988733 1_455
Mn0 N2 1.988733 1_545
Mn1 N17 1.982259 1_455
Mn1 N15 1.982259 1_455
Mn1 N10 1.982264 1_555
Mn1 N12 1.982264 1_555
Mn1 N3 1.988733 1_555
Mn1 N4 1.988733 1_465
C0 N2 1.177291 1_555
C0 N0 1.295550 1_655
C1 N3 1.177285 1_555
C1 N1 1.295557 1_655
C2 N4 1.177291 1_555
C2 N1 1.295550 1_555
C3 N5 1.177285 1_555
C3 N0 1.295557 1_555
C4 N10 1.176883 1_555
C4 N6 1.294649 1_655
C5 N11 1.176887 1_555
C5 N7 1.294649 1_645
C6 N12 1.176883 1_555
C6 N8 1.294649 1_655
C7 N13 1.176887 1_555
C7 N9 1.294649 1_645
C8 N14 1.176883 1_555
C8 N7 1.294649 1_555
C9 N15 1.176887 1_555
C9 N6 1.294649 1_565
C10 N16 1.176883 1_555
C10 N9 1.294649 1_555
C11 N17 1.176887 1_555
C11 N8 1.294649 1_565
