# generated using pymatgen
data_RbNb3CuCl9
_symmetry_space_group_name_H-M   'P 1'
_cell_length_a   9.45572400
_cell_length_b   9.47075796
_cell_length_c   9.47459431
_cell_angle_alpha   119.70891577
_cell_angle_beta   105.57744098
_cell_angle_gamma   95.73010008
_symmetry_Int_Tables_number   1
_chemical_formula_structural   RbNb3CuCl9
_chemical_formula_sum   'Rb2 Nb6 Cu2 Cl18'
_cell_volume   681.81287195
_cell_formula_units_Z   2
loop_
 _symmetry_equiv_pos_site_id
 _symmetry_equiv_pos_as_xyz
  1  'x, y, z'
loop_
 _atom_site_type_symbol
 _atom_site_label
 _atom_site_symmetry_multiplicity
 _atom_site_fract_x
 _atom_site_fract_y
 _atom_site_fract_z
 _atom_site_occupancy
  Rb  Rb0  1  0.66540000  0.21402600  0.52474300  1
  Rb  Rb1  1  0.33460000  0.78597400  0.47525700  1
  Nb  Nb0  1  0.86679500  0.55456600  0.10255500  1
  Nb  Nb1  1  0.13794100  0.32621500  0.25056100  1
  Nb  Nb2  1  0.14071900  0.67830000  0.01822500  1
  Nb  Nb3  1  0.13320500  0.44543400  0.89744500  1
  Nb  Nb4  1  0.86205900  0.67378500  0.74943900  1
  Nb  Nb5  1  0.85928100  0.32170000  0.98177500  1
  Cu  Cu0  1  0.36816100  0.13187300  0.81330100  1
  Cu  Cu1  1  0.63183900  0.86812700  0.18669900  1
  Cl  Cl0  1  0.32393000  0.10411600  0.57264900  1
  Cl  Cl1  1  0.33025200  0.90318600  0.04965500  1
  Cl  Cl2  1  0.67181800  0.49477700  0.68084700  1
  Cl  Cl3  1  0.32818200  0.50522300  0.31915300  1
  Cl  Cl4  1  0.69676200  0.61734500  0.23511600  1
  Cl  Cl5  1  0.32124500  0.64575600  0.90194000  1
  Cl  Cl6  1  0.67607000  0.89588400  0.42735100  1
  Cl  Cl7  1  0.00519400  0.35648600  0.41529200  1
  Cl  Cl8  1  0.32049100  0.22890100  0.17646800  1
  Cl  Cl9  1  0.30323800  0.38265500  0.76488400  1
  Cl  Cl10  1  0.99858300  0.08439500  0.27270500  1
  Cl  Cl11  1  0.99046100  0.22585400  0.85714900  1
  Cl  Cl12  1  0.00141700  0.91560500  0.72729500  1
  Cl  Cl13  1  0.67950900  0.77109900  0.82353200  1
  Cl  Cl14  1  0.66974800  0.09681400  0.95034500  1
  Cl  Cl15  1  0.99480600  0.64351400  0.58470800  1
  Cl  Cl16  1  0.00953900  0.77414600  0.14285100  1
  Cl  Cl17  1  0.67875500  0.35424400  0.09806000  1
loop_
_geom_bond_atom_site_label_1
_geom_bond_atom_site_label_2
_geom_bond_distance
_geom_bond_site_symmetry_2
Nb0 Nb5 1.897884 1_554
Nb2 Nb3 1.897884 1_554
Cl0 Cu0 2.077153 1_555
Cl0 Cl9 2.417982 1_555
Cl0 Rb1 2.700928 1_545
Cl1 Cl5 2.102978 1_554
Cl1 Nb2 2.481792 1_555
Cl1 Cu1 2.925102 1_555
Cl2 Nb4 2.050252 1_555
Cl2 Rb0 2.298410 1_555
Cl3 Nb1 2.050252 1_555
Cl3 Rb1 2.298410 1_555
Cl4 Nb0 2.247481 1_555
Cl4 Cl6 2.417982 1_555
Cl4 Cu1 2.729141 1_555
Cl5 Cl9 2.124496 1_555
Cl5 Nb2 2.236354 1_556
Cl5 Nb3 2.443011 1_555
Cl5 Cu1 3.035964 1_556
Cl6 Cu1 2.077153 1_555
Cl6 Rb0 2.700928 1_565
Cl7 Nb1 2.185012 1_555
Cl8 Nb1 2.156150 1_555
Cl9 Nb3 2.247481 1_555
Cl9 Cu0 2.729141 1_555
Cl10 Cl7 2.222906 1_655
Cl10 Cl16 2.589217 1_645
Cl10 Nb1 2.654743 1_655
Cl11 Nb5 1.925071 1_555
Cl11 Nb3 2.160564 1_655
Cl11 Cl12 2.589217 1_645
Cl12 Cl15 2.222906 1_455
Cl12 Nb4 2.654743 1_455
Cl13 Nb4 2.156150 1_555
Cl14 Cl17 2.102978 1_556
Cl14 Nb5 2.481792 1_555
Cl14 Cu0 2.925102 1_555
Cl15 Nb4 2.185012 1_555
Cl16 Nb2 1.925071 1_555
Cl16 Nb0 2.160564 1_455
Cl17 Cl4 2.124496 1_555
Cl17 Nb5 2.236354 1_554
Cl17 Nb0 2.443011 1_555
Cl17 Cu0 3.035964 1_554
