# generated using pymatgen
data_Ga5Ir3
_symmetry_space_group_name_H-M   'P 1'
_cell_length_a   5.87590800
_cell_length_b   5.87590800
_cell_length_c   15.16055400
_cell_angle_alpha   90.00000000
_cell_angle_beta   90.00000000
_cell_angle_gamma   90.00000000
_symmetry_Int_Tables_number   1
_chemical_formula_structural   Ga5Ir3
_chemical_formula_sum   'Ga20 Ir12'
_cell_volume   523.43775711
_cell_formula_units_Z   4
loop_
 _symmetry_equiv_pos_site_id
 _symmetry_equiv_pos_as_xyz
  1  'x, y, z'
loop_
 _atom_site_type_symbol
 _atom_site_label
 _atom_site_symmetry_multiplicity
 _atom_site_fract_x
 _atom_site_fract_y
 _atom_site_fract_z
 _atom_site_occupancy
  Ga  Ga0  1  0.32783800  0.68677500  0.65334000  1
  Ga  Ga1  1  0.74151500  0.15761000  0.44274200  1
  Ga  Ga2  1  0.81686700  0.68313300  0.75000000  1
  Ga  Ga3  1  0.84239000  0.74151500  0.55725800  1
  Ga  Ga4  1  0.31322500  0.32783800  0.34666000  1
  Ga  Ga5  1  0.67216200  0.31322500  0.65334000  1
  Ga  Ga6  1  0.81322500  0.17216200  0.84666000  1
  Ga  Ga7  1  0.34239000  0.75848500  0.05725800  1
  Ga  Ga8  1  0.31686700  0.81686700  0.25000000  1
  Ga  Ga9  1  0.18313300  0.31686700  0.75000000  1
  Ga  Ga10  1  0.15761000  0.25848500  0.55725800  1
  Ga  Ga11  1  0.25848500  0.84239000  0.44274200  1
  Ga  Ga12  1  0.68313300  0.18313300  0.25000000  1
  Ga  Ga13  1  0.75848500  0.65761000  0.94274200  1
  Ga  Ga14  1  0.68677500  0.67216200  0.34666000  1
  Ga  Ga15  1  0.18677500  0.82783800  0.84666000  1
  Ga  Ga16  1  0.65761000  0.24151500  0.05725800  1
  Ga  Ga17  1  0.17216200  0.18677500  0.15334000  1
  Ga  Ga18  1  0.24151500  0.34239000  0.94274200  1
  Ga  Ga19  1  0.82783800  0.81322500  0.15334000  1
  Ir  Ir0  1  0.50000000  0.50000000  0.82397200  1
  Ir  Ir1  1  0.50000000  0.00000000  0.93950200  1
  Ir  Ir2  1  0.00000000  0.00000000  0.32397200  1
  Ir  Ir3  1  0.50000000  0.50000000  0.17602800  1
  Ir  Ir4  1  0.50000000  0.00000000  0.56049800  1
  Ir  Ir5  1  0.00000000  0.50000000  0.43950200  1
  Ir  Ir6  1  0.00000000  0.00000000  0.00000000  1
  Ir  Ir7  1  0.00000000  0.50000000  0.06049800  1
  Ir  Ir8  1  0.00000000  0.00000000  0.67602800  1
  Ir  Ir9  1  0.50000000  0.50000000  0.50000000  1
  Ir  Ir10  1  0.50000000  0.00000000  0.75000000  1
  Ir  Ir11  1  0.00000000  0.50000000  0.25000000  1
loop_
_geom_bond_atom_site_label_1
_geom_bond_atom_site_label_2
_geom_bond_distance
_geom_bond_site_symmetry_2
Ga0 Ir4 2.528217 1_565
Ga0 Ir10 2.560894 1_565
Ga0 Ir8 2.686353 1_565
Ga0 Ga9 2.755851 1_555
Ga0 Ir9 2.762629 1_555
Ga0 Ga5 2.985161 1_555
Ga0 Ir0 2.986591 1_555
Ga0 Ga10 3.074992 1_555
Ga1 Ir4 2.461437 1_555
Ga1 Ir5 2.521273 1_655
Ga1 Ir2 2.531156 1_655
Ga1 Ir9 2.610552 1_555
Ga1 Ga12 2.945963 1_555
Ga1 Ga4 3.074992 1_555
Ga2 Ir0 2.425325 1_555
Ga2 Ir8 2.425325 1_665
Ga2 Ir10 2.633098 1_565
Ga2 Ga5 2.755851 1_555
Ga2 Ga3 2.945963 1_555
Ga2 Ga9 3.043593 1_655
Ga3 Ir5 2.461437 1_655
Ga3 Ir4 2.521273 1_565
Ga3 Ir8 2.531156 1_665
Ga3 Ir9 2.610552 1_555
Ga3 Ga5 3.074992 1_555
Ga4 Ir5 2.528217 1_555
Ga4 Ir11 2.560894 1_555
Ga4 Ir2 2.686353 1_555
Ga4 Ir9 2.762629 1_555
Ga4 Ir3 2.986591 1_555
Ga5 Ir4 2.528217 1_555
Ga5 Ir10 2.560894 1_555
Ga5 Ir8 2.686353 1_655
Ga5 Ir9 2.762629 1_555
Ga5 Ir0 2.986591 1_555
Ga6 Ir1 2.528217 1_555
Ga6 Ir10 2.560894 1_555
Ga6 Ir0 2.686353 1_555
Ga6 Ga9 2.755851 1_655
Ga6 Ir6 2.762629 1_656
Ga6 Ir8 2.986591 1_655
Ga7 Ir1 2.461437 1_564
Ga7 Ir7 2.521273 1_555
Ga7 Ir3 2.531156 1_555
Ga7 Ir6 2.610552 1_565
Ga7 Ga8 2.945963 1_555
Ga8 Ir3 2.425325 1_555
Ga8 Ir2 2.425325 1_565
Ga8 Ir11 2.633098 1_555
Ga9 Ir0 2.425325 1_555
Ga9 Ir8 2.425325 1_555
Ga9 Ir10 2.633098 1_555
Ga10 Ir5 2.461437 1_555
Ga10 Ir4 2.521273 1_555
Ga10 Ir8 2.531156 1_555
Ga10 Ir9 2.610552 1_555
Ga10 Ga9 2.945963 1_555
Ga11 Ir4 2.461437 1_565
Ga11 Ir5 2.521273 1_555
Ga11 Ir2 2.531156 1_565
Ga11 Ir9 2.610552 1_555
Ga11 Ga8 2.945963 1_555
Ga11 Ga14 3.074992 1_555
Ga12 Ir3 2.425325 1_555
Ga12 Ir2 2.425325 1_655
Ga12 Ir11 2.633098 1_655
Ga12 Ga4 2.755851 1_555
Ga12 Ga19 2.755851 1_545
Ga12 Ga16 2.945963 1_555
Ga12 Ga8 3.043593 1_545
Ga13 Ir7 2.461437 1_656
Ga13 Ir1 2.521273 1_565
Ga13 Ir0 2.531156 1_555
Ga13 Ir6 2.610552 1_666
Ga13 Ga2 2.945963 1_555
Ga13 Ga15 3.074992 1_655
Ga14 Ir5 2.528217 1_655
Ga14 Ir11 2.560894 1_655
Ga14 Ir2 2.686353 1_665
Ga14 Ga8 2.755851 1_555
Ga14 Ir9 2.762629 1_555
Ga14 Ga4 2.985161 1_555
Ga14 Ir3 2.986591 1_555
Ga15 Ir1 2.528217 1_565
Ga15 Ir10 2.560894 1_565
Ga15 Ir0 2.686353 1_555
Ga15 Ga2 2.755851 1_455
Ga15 Ir6 2.762629 1_566
Ga15 Ga6 2.985161 1_465
Ga15 Ir8 2.986591 1_565
Ga16 Ir1 2.461437 1_554
Ga16 Ir7 2.521273 1_655
Ga16 Ir3 2.531156 1_555
Ga16 Ir6 2.610552 1_655
Ga16 Ga19 3.074992 1_545
Ga17 Ir7 2.528217 1_555
Ga17 Ir11 2.560894 1_555
Ga17 Ir3 2.686353 1_555
Ga17 Ga8 2.755851 1_545
Ga17 Ir6 2.762629 1_555
Ga17 Ga19 2.985161 1_445
Ga17 Ir2 2.986591 1_555
Ga17 Ga7 3.074992 1_545
Ga18 Ir7 2.461437 1_556
Ga18 Ir1 2.521273 1_555
Ga18 Ir0 2.531156 1_555
Ga18 Ir6 2.610552 1_556
Ga18 Ga9 2.945963 1_555
Ga18 Ga6 3.074992 1_455
Ga19 Ir7 2.528217 1_655
Ga19 Ir11 2.560894 1_655
Ga19 Ir3 2.686353 1_555
Ga19 Ir6 2.762629 1_665
Ga19 Ir2 2.986591 1_665
Ir1 Ir10 2.872955 1_555
Ir10 Ir4 2.872955 1_555
Ir11 Ir5 2.872955 1_555
Ir11 Ir7 2.872955 1_555
