# generated using pymatgen
data_Tm2AlSi2
_symmetry_space_group_name_H-M   'P 1'
_cell_length_a   4.04388239
_cell_length_b   5.49579374
_cell_length_c   5.49579385
_cell_angle_alpha   61.37375344
_cell_angle_beta   68.41342993
_cell_angle_gamma   68.41342303
_symmetry_Int_Tables_number   1
_chemical_formula_structural   Tm2AlSi2
_chemical_formula_sum   'Tm2 Al1 Si2'
_cell_volume   96.90393790
_cell_formula_units_Z   1
loop_
 _symmetry_equiv_pos_site_id
 _symmetry_equiv_pos_as_xyz
  1  'x, y, z'
loop_
 _atom_site_type_symbol
 _atom_site_label
 _atom_site_symmetry_multiplicity
 _atom_site_fract_x
 _atom_site_fract_y
 _atom_site_fract_z
 _atom_site_occupancy
  Tm  Tm0  1  0.78951301  0.71048699  0.71048699  1
  Tm  Tm1  1  0.21048699  0.28951301  0.28951301  1
  Al  Al0  1  -0.00000000  0.00000000  -0.00000000  1
  Si  Si0  1  0.50000000  0.28938997  0.71061003  1
  Si  Si1  1  0.50000000  0.71061003  0.28938997  1
loop_
_geom_bond_atom_site_label_1
_geom_bond_atom_site_label_2
_geom_bond_distance
_geom_bond_site_symmetry_2
Al0 Si1 2.592965 1_545
Al0 Si0 2.592965 1_454
Al0 Si0 2.592965 1_554
Al0 Si1 2.592965 1_445
Si0 Si1 2.362839 1_555
Si0 Tm1 2.952633 1_555
Si0 Tm0 2.952633 1_555
Si0 Tm0 2.952634 1_455
Si0 Tm1 2.952634 1_655
Si0 Tm0 2.958637 1_545
Si0 Tm1 2.958638 1_556
Si1 Tm0 2.952633 1_555
Si1 Tm1 2.952633 1_555
Si1 Tm1 2.952634 1_655
Si1 Tm0 2.952634 1_455
Si1 Tm1 2.958637 1_565
Si1 Tm0 2.958638 1_554
