# generated using pymatgen
data_NaCdPO4
_symmetry_space_group_name_H-M   'P 1'
_cell_length_a   5.12018400
_cell_length_b   6.60693900
_cell_length_c   11.02134400
_cell_angle_alpha   90.00000000
_cell_angle_beta   90.00000000
_cell_angle_gamma   90.00000000
_symmetry_Int_Tables_number   1
_chemical_formula_structural   NaCdPO4
_chemical_formula_sum   'Na4 Cd4 P4 O16'
_cell_volume   372.83821762
_cell_formula_units_Z   4
loop_
 _symmetry_equiv_pos_site_id
 _symmetry_equiv_pos_as_xyz
  1  'x, y, z'
loop_
 _atom_site_type_symbol
 _atom_site_label
 _atom_site_symmetry_multiplicity
 _atom_site_fract_x
 _atom_site_fract_y
 _atom_site_fract_z
 _atom_site_occupancy
  Na  Na0  1  0.50154600  0.50879900  0.99456500  1
  Na  Na1  1  0.49845400  0.00879900  0.00543500  1
  Na  Na2  1  0.00154600  0.00879900  0.50543500  1
  Na  Na3  1  0.99845400  0.50879900  0.49456500  1
  Cd  Cd0  1  0.48489300  0.25340700  0.71399000  1
  Cd  Cd1  1  0.51510700  0.75340700  0.28601000  1
  Cd  Cd2  1  0.98489300  0.75340700  0.78601000  1
  Cd  Cd3  1  0.01510700  0.25340700  0.21399000  1
  P  P0  1  0.93165900  0.25037600  0.89644500  1
  P  P1  1  0.06834100  0.75037600  0.10355500  1
  P  P2  1  0.43165900  0.75037600  0.60355500  1
  P  P3  1  0.56834100  0.25037600  0.39644500  1
  O  O0  1  0.23375100  0.24691900  0.89342200  1
  O  O1  1  0.76624900  0.74691900  0.10657800  1
  O  O2  1  0.73375100  0.74691900  0.60657800  1
  O  O3  1  0.26624900  0.24691900  0.39342200  1
  O  O4  1  0.81351700  0.43641300  0.82610200  1
  O  O5  1  0.18648300  0.93641300  0.17389800  1
  O  O6  1  0.31351700  0.93641300  0.67389800  1
  O  O7  1  0.68648300  0.43641300  0.32610200  1
  O  O8  1  0.80380100  0.06203300  0.83292600  1
  O  O9  1  0.19619900  0.56203300  0.16707400  1
  O  O10  1  0.30380100  0.56203300  0.66707400  1
  O  O11  1  0.69619900  0.06203300  0.33292600  1
  O  O12  1  0.67472800  0.25855200  0.52851100  1
  O  O13  1  0.32527200  0.75855200  0.47148900  1
  O  O14  1  0.17472800  0.75855200  0.97148900  1
  O  O15  1  0.82527200  0.25855200  0.02851100  1
loop_
_geom_bond_atom_site_label_1
_geom_bond_atom_site_label_2
_geom_bond_distance
_geom_bond_site_symmetry_2
Na0 O14 2.363828 1_555
Na0 O15 2.370870 1_556
Na0 O1 2.415799 1_556
Na0 O0 2.473133 1_555
Na0 O9 2.486543 1_556
Na0 O4 2.495504 1_555
Na1 O15 2.363828 1_555
Na1 O14 2.370870 1_544
Na1 O0 2.415799 1_554
Na1 O1 2.473133 1_545
Na1 O8 2.486543 1_554
Na1 O5 2.495504 1_545
Na2 O12 2.363828 1_455
Na2 O13 2.370870 1_545
Na2 O3 2.415799 1_555
Na2 O2 2.473133 1_445
Na2 O11 2.486543 1_455
Na2 O6 2.495504 1_545
Na3 O13 2.363828 1_655
Na3 O12 2.370870 1_555
Na3 O2 2.415799 1_555
Na3 O3 2.473133 1_655
Na3 O10 2.486543 1_655
Na3 O7 2.495504 1_555
Cd0 O12 2.263799 1_555
Cd0 O10 2.298898 1_555
Cd0 O6 2.313343 1_545
Cd0 O0 2.359277 1_555
Cd0 O4 2.412449 1_555
Cd0 O8 2.446067 1_555
Cd1 O13 2.263799 1_555
Cd1 O11 2.298898 1_565
Cd1 O7 2.313343 1_555
Cd1 O1 2.359277 1_555
Cd1 O5 2.412449 1_555
Cd1 O9 2.446067 1_555
Cd2 O14 2.263799 1_655
Cd2 O8 2.298898 1_565
Cd2 O4 2.313343 1_555
Cd2 O2 2.359277 1_555
Cd2 O6 2.412449 1_655
Cd2 O10 2.446067 1_655
Cd3 O15 2.263799 1_455
Cd3 O9 2.298898 1_555
Cd3 O5 2.313343 1_545
Cd3 O3 2.359277 1_555
Cd3 O7 2.412449 1_455
Cd3 O11 2.446067 1_455
O0 P0 1.547294 1_455
O1 P1 1.547294 1_655
O2 P2 1.547294 1_555
O3 P3 1.547294 1_555
O4 P0 1.574083 1_555
O5 P1 1.574083 1_555
O6 P2 1.574083 1_555
O7 P3 1.574083 1_555
O8 P0 1.570708 1_555
O9 P1 1.570708 1_555
O10 P2 1.570708 1_555
O11 P3 1.570708 1_555
O12 P3 1.555072 1_555
O13 P2 1.555072 1_555
O14 P1 1.555072 1_556
O15 P0 1.555072 1_554
