# generated using pymatgen
data_Pr2Te5
_symmetry_space_group_name_H-M   'P 1'
_cell_length_a   22.65240897
_cell_length_b   22.65240897
_cell_length_c   4.46476600
_cell_angle_alpha   90.00000000
_cell_angle_beta   90.00000000
_cell_angle_gamma   168.68764995
_symmetry_Int_Tables_number   1
_chemical_formula_structural   Pr2Te5
_chemical_formula_sum   'Pr4 Te10'
_cell_volume   449.39934022
_cell_formula_units_Z   2
loop_
 _symmetry_equiv_pos_site_id
 _symmetry_equiv_pos_as_xyz
  1  'x, y, z'
loop_
 _atom_site_type_symbol
 _atom_site_label
 _atom_site_symmetry_multiplicity
 _atom_site_fract_x
 _atom_site_fract_y
 _atom_site_fract_z
 _atom_site_occupancy
  Pr  Pr0  1  0.09771400  0.90228600  0.25000000  1
  Pr  Pr1  1  0.90228600  0.09771400  0.75000000  1
  Pr  Pr2  1  0.30675600  0.69324400  0.25000000  1
  Pr  Pr3  1  0.69324400  0.30675600  0.75000000  1
  Te  Te0  1  0.95861600  0.04138400  0.25000000  1
  Te  Te1  1  0.04138400  0.95861600  0.75000000  1
  Te  Te2  1  0.54183900  0.45816100  0.25000000  1
  Te  Te3  1  0.45816100  0.54183900  0.75000000  1
  Te  Te4  1  0.74998600  0.25001400  0.25000000  1
  Te  Te5  1  0.25001400  0.74998600  0.75000000  1
  Te  Te6  1  0.17258600  0.82741400  0.25000000  1
  Te  Te7  1  0.82741400  0.17258600  0.75000000  1
  Te  Te8  1  0.38019300  0.61980700  0.25000000  1
  Te  Te9  1  0.61980700  0.38019300  0.75000000  1
loop_
_geom_bond_atom_site_label_1
_geom_bond_atom_site_label_2
_geom_bond_distance
_geom_bond_site_symmetry_2
Pr0 Te9 3.310604 1_455
Pr0 Te9 3.310604 1_454
Pr0 Te9 3.310604 1_564
Pr0 Te9 3.310604 1_565
Pr0 Te2 3.366041 1_455
Pr0 Te2 3.366041 1_565
Pr0 Te6 3.375547 1_555
Pr0 Te1 3.381283 1_554
Pr0 Te1 3.381283 1_555
Pr1 Te8 3.310604 1_546
Pr1 Te8 3.310604 1_545
Pr1 Te8 3.310604 1_655
Pr1 Te8 3.310604 1_656
Pr1 Te3 3.366041 1_545
Pr1 Te3 3.366041 1_655
Pr1 Te7 3.375547 1_555
Pr1 Te0 3.381283 1_556
Pr1 Te0 3.381283 1_555
Pr2 Te7 3.291718 1_455
Pr2 Te7 3.291718 1_454
Pr2 Te7 3.291718 1_564
Pr2 Te7 3.291718 1_565
Pr2 Te8 3.310851 1_555
Pr2 Te5 3.395257 1_554
Pr2 Te5 3.395257 1_555
Pr2 Te4 3.396344 1_565
Pr2 Te4 3.396344 1_455
Pr3 Te6 3.291718 1_545
Pr3 Te6 3.291718 1_546
Pr3 Te6 3.291718 1_656
Pr3 Te6 3.291718 1_655
Pr3 Te9 3.310851 1_555
Pr3 Te4 3.395257 1_555
Pr3 Te4 3.395257 1_556
Pr3 Te5 3.396344 1_655
Pr3 Te5 3.396344 1_545
Te0 Te3 3.157279 1_544
Te0 Te3 3.157279 1_545
Te0 Te3 3.157279 1_654
Te0 Te3 3.157279 1_655
Te1 Te2 3.157279 1_455
Te1 Te2 3.157279 1_456
Te1 Te2 3.157279 1_566
Te1 Te2 3.157279 1_565
Te4 Te5 3.157213 1_654
Te4 Te5 3.157213 1_655
Te4 Te5 3.157213 1_544
Te4 Te5 3.157213 1_545
