# generated using pymatgen
data_Yb2Ge3Pd
_symmetry_space_group_name_H-M   'P 1'
_cell_length_a   4.04202100
_cell_length_b   4.33524060
_cell_length_c   7.40967849
_cell_angle_alpha   89.73381170
_cell_angle_beta   90.00000000
_cell_angle_gamma   90.00000000
_symmetry_Int_Tables_number   1
_chemical_formula_structural   Yb2Ge3Pd
_chemical_formula_sum   'Yb2 Ge3 Pd1'
_cell_volume   129.83938450
_cell_formula_units_Z   1
loop_
 _symmetry_equiv_pos_site_id
 _symmetry_equiv_pos_as_xyz
  1  'x, y, z'
loop_
 _atom_site_type_symbol
 _atom_site_label
 _atom_site_symmetry_multiplicity
 _atom_site_fract_x
 _atom_site_fract_y
 _atom_site_fract_z
 _atom_site_occupancy
  Yb  Yb0  1  0.00000000  0.00036200  0.00767600  1
  Yb  Yb1  1  0.00000000  0.49970000  0.49341700  1
  Ge  Ge0  1  0.50000000  0.50208100  0.83536800  1
  Ge  Ge1  1  0.50000000  0.49976200  0.16789100  1
  Ge  Ge2  1  0.50000000  0.99772800  0.66516900  1
  Pd  Pd0  1  0.50000000  0.00016700  0.33048000  1
loop_
_geom_bond_atom_site_label_1
_geom_bond_atom_site_label_2
_geom_bond_distance
_geom_bond_site_symmetry_2
Ge0 Ge1 2.463862 1_556
Ge0 Ge2 2.486437 1_555
Ge0 Ge2 2.529188 1_545
Ge0 Yb0 3.225914 1_566
Ge0 Yb0 3.225914 1_666
Ge0 Yb0 3.227957 1_556
Ge0 Yb0 3.227957 1_656
Ge0 Yb1 3.241097 1_655
Ge0 Yb1 3.241097 1_555
Ge1 Pd0 2.473480 1_555
Ge1 Pd0 2.486334 1_565
Ge1 Yb1 3.146813 1_655
Ge1 Yb1 3.146813 1_555
Ge1 Yb0 3.190566 1_565
Ge1 Yb0 3.190566 1_665
Ge1 Yb0 3.194523 1_655
Ge1 Yb0 3.194523 1_555
Ge2 Pd0 2.479911 1_565
Ge2 Yb1 3.223536 1_655
Ge2 Yb1 3.223536 1_555
Ge2 Yb1 3.227080 1_565
Ge2 Yb1 3.227080 1_665
Ge2 Yb0 3.244326 1_566
Ge2 Yb0 3.244326 1_666
Pd0 Yb0 3.131378 1_555
Pd0 Yb0 3.131378 1_655
Pd0 Yb1 3.197671 1_645
Pd0 Yb1 3.197671 1_545
Pd0 Yb1 3.202527 1_655
Pd0 Yb1 3.202527 1_555
