# generated using pymatgen
data_SrMg14Fe
_symmetry_space_group_name_H-M   'P 1'
_cell_length_a   6.38141551
_cell_length_b   6.38141501
_cell_length_c   10.31628337
_cell_angle_alpha   90.00000000
_cell_angle_beta   90.00000000
_cell_angle_gamma   120.00000266
_symmetry_Int_Tables_number   1
_chemical_formula_structural   SrMg14Fe
_chemical_formula_sum   'Sr1 Mg14 Fe1'
_cell_volume   363.82111110
_cell_formula_units_Z   1
loop_
 _symmetry_equiv_pos_site_id
 _symmetry_equiv_pos_as_xyz
  1  'x, y, z'
loop_
 _atom_site_type_symbol
 _atom_site_label
 _atom_site_symmetry_multiplicity
 _atom_site_fract_x
 _atom_site_fract_y
 _atom_site_fract_z
 _atom_site_occupancy
  Sr  Sr0  1  0.16666700  0.33333300  0.62500000  1
  Mg  Mg0  1  0.15473354  0.82736627  0.12500000  1
  Mg  Mg1  1  0.17973344  0.83986622  0.62500000  1
  Mg  Mg2  1  0.67263373  0.34526646  0.12500000  1
  Mg  Mg3  1  0.66013378  0.32026656  0.62500000  1
  Mg  Mg4  1  0.67263373  0.82736627  0.12500000  1
  Mg  Mg5  1  0.66013378  0.83986622  0.62500000  1
  Mg  Mg6  1  0.32858635  0.17141365  0.34551954  1
  Mg  Mg7  1  0.32858635  0.17141365  0.90448046  1
  Mg  Mg8  1  0.32858635  0.65717369  0.34551954  1
  Mg  Mg9  1  0.32858635  0.65717369  0.90448046  1
  Mg  Mg10  1  0.84282631  0.17141365  0.34551954  1
  Mg  Mg11  1  0.84282631  0.17141365  0.90448046  1
  Mg  Mg12  1  0.83333300  0.66666700  0.38721286  1
  Mg  Mg13  1  0.83333300  0.66666700  0.86278714  1
  Fe  Fe0  1  0.16666700  0.33333300  0.12500000  1
loop_
_geom_bond_atom_site_label_1
_geom_bond_atom_site_label_2
_geom_bond_distance
_geom_bond_site_symmetry_2
Mg0 Mg9 2.964903 1_554
Mg0 Mg8 2.964903 1_555
Mg0 Mg7 2.964910 1_564
Mg0 Mg6 2.964910 1_565
Mg0 Mg2 3.076479 1_455
Mg0 Mg4 3.076479 1_455
Mg0 Mg12 3.236091 1_455
Mg0 Mg13 3.236091 1_454
Mg0 Mg2 3.304936 1_565
Mg0 Mg4 3.304936 1_555
Mg1 Mg3 3.065634 1_565
Mg1 Mg5 3.065634 1_555
Mg1 Mg13 3.111658 1_455
Mg1 Mg12 3.111658 1_455
Mg1 Sr0 3.191525 1_555
Mg1 Sr0 3.191525 1_565
Mg1 Mg3 3.315781 1_455
Mg1 Mg5 3.315781 1_455
Mg1 Mg8 3.417855 1_555
Mg1 Mg9 3.417855 1_555
Mg1 Mg6 3.417861 1_565
Mg1 Mg7 3.417861 1_565
Mg2 Mg7 2.964910 1_554
Mg2 Mg6 2.964910 1_555
Mg2 Mg4 3.076479 1_555
Mg2 Mg4 3.304936 1_545
Mg3 Mg5 3.065634 1_545
Mg3 Sr0 3.191525 1_655
Mg3 Sr0 3.191525 1_555
Mg3 Mg5 3.315781 1_555
Mg3 Mg6 3.417861 1_555
Mg3 Mg7 3.417861 1_555
Mg4 Mg9 2.964910 1_554
Mg4 Mg8 2.964910 1_555
Mg5 Sr0 3.191525 1_555
Mg5 Sr0 3.191525 1_665
Mg5 Mg8 3.417860 1_555
Mg5 Mg9 3.417860 1_555
Mg6 Mg8 3.099836 1_555
Mg6 Mg8 3.281579 1_545
Mg6 Sr0 3.393495 1_555
Mg7 Mg9 3.099836 1_555
Mg7 Mg9 3.281579 1_545
Mg7 Sr0 3.393495 1_555
Mg8 Sr0 3.393501 1_555
Mg9 Sr0 3.393501 1_555
Mg10 Mg2 2.964903 1_555
Mg10 Mg4 2.964910 1_545
Mg10 Mg8 3.099836 1_655
Mg10 Mg6 3.099837 1_655
Mg10 Mg12 3.219995 1_545
Mg10 Mg12 3.219995 1_555
Mg10 Mg8 3.281579 1_545
Mg10 Mg6 3.281579 1_555
Mg10 Sr0 3.393501 1_655
Mg10 Mg3 3.417855 1_555
Mg10 Mg5 3.417860 1_545
Mg11 Mg2 2.964903 1_556
Mg11 Mg4 2.964910 1_546
Mg11 Mg9 3.099836 1_655
Mg11 Mg7 3.099837 1_655
Mg11 Mg13 3.219995 1_545
Mg11 Mg13 3.219995 1_555
Mg11 Mg9 3.281579 1_545
Mg11 Mg7 3.281579 1_555
Mg11 Sr0 3.393501 1_655
Mg11 Mg3 3.417855 1_555
Mg11 Mg5 3.417860 1_545
Mg12 Mg5 3.111651 1_555
Mg12 Mg3 3.111658 1_555
Mg12 Mg6 3.219995 1_665
Mg12 Mg6 3.219995 1_555
Mg12 Mg8 3.219996 1_555
Mg12 Mg8 3.219996 1_655
Mg12 Mg4 3.236085 1_555
Mg12 Mg2 3.236091 1_555
Mg13 Mg5 3.111651 1_555
Mg13 Mg3 3.111658 1_555
Mg13 Mg7 3.219995 1_665
Mg13 Mg7 3.219995 1_555
Mg13 Mg9 3.219996 1_555
Mg13 Mg9 3.219996 1_655
Mg13 Mg4 3.236085 1_556
Mg13 Mg2 3.236091 1_556
Fe0 Mg7 2.894535 1_554
Fe0 Mg6 2.894535 1_555
Fe0 Mg9 2.894541 1_554
Fe0 Mg8 2.894541 1_555
Fe0 Mg11 2.894541 1_454
Fe0 Mg10 2.894541 1_455
Fe0 Mg4 3.191389 1_445
Fe0 Mg0 3.191389 1_545
Fe0 Mg4 3.191389 1_555
Fe0 Mg0 3.191389 1_555
Fe0 Mg2 3.191389 1_555
Fe0 Mg2 3.191389 1_455
