# generated using pymatgen
data_CsCrH24(SeO10)2
_symmetry_space_group_name_H-M   'P 1'
_cell_length_a   12.71158484
_cell_length_b   12.71156587
_cell_length_c   12.71158391
_cell_angle_alpha   89.99993356
_cell_angle_beta   89.99987947
_cell_angle_gamma   89.99998819
_symmetry_Int_Tables_number   1
_chemical_formula_structural   CsCrH24(SeO10)2
_chemical_formula_sum   'Cs4 Cr4 H96 Se8 O80'
_cell_volume   2053.99045590
_cell_formula_units_Z   4
loop_
 _symmetry_equiv_pos_site_id
 _symmetry_equiv_pos_as_xyz
  1  'x, y, z'
loop_
 _atom_site_type_symbol
 _atom_site_label
 _atom_site_symmetry_multiplicity
 _atom_site_fract_x
 _atom_site_fract_y
 _atom_site_fract_z
 _atom_site_occupancy
  Cs  Cs0  1  0.50000214  0.50000244  0.99999443  1
  Cs  Cs1  1  0.50000376  0.99999482  0.49999496  1
  Cs  Cs2  1  0.00000142  0.49999922  0.49999714  1
  Cs  Cs3  1  0.00000272  0.99999645  0.99999559  1
  Cr  Cr0  1  0.00016336  0.00016141  0.50040307  1
  Cr  Cr1  1  0.99965829  0.49995147  0.00049119  1
  Cr  Cr2  1  0.49996153  0.00027346  0.00018738  1
  Cr  Cr3  1  0.49961282  0.49978711  0.49992791  1
  H  H0  1  0.38128509  0.33301476  0.21555289  1
  H  H1  1  0.61872527  0.83301390  0.28443336  1
  H  H2  1  0.11872272  0.66698300  0.71555424  1
  H  H3  1  0.88128582  0.16698286  0.78443331  1
  H  H4  1  0.21556375  0.38127678  0.33300819  1
  H  H5  1  0.28444321  0.61871629  0.83301112  1
  H  H6  1  0.71556285  0.11871923  0.66697879  1
  H  H7  1  0.78444196  0.88128050  0.16697684  1
  H  H8  1  0.33301947  0.21556009  0.38127214  1
  H  H9  1  0.83301906  0.28443898  0.61871186  1
  H  H10  1  0.66698730  0.71555914  0.11871117  1
  H  H11  1  0.16698792  0.78443895  0.88127327  1
  H  H12  1  0.61872394  0.66698212  0.78443198  1
  H  H13  1  0.38128282  0.16698241  0.71555224  1
  H  H14  1  0.88128231  0.33301407  0.28443317  1
  H  H15  1  0.11872268  0.83301560  0.21555482  1
  H  H16  1  0.78444170  0.61871545  0.66697529  1
  H  H17  1  0.71556403  0.38127778  0.16697912  1
  H  H18  1  0.28444320  0.88127922  0.33300929  1
  H  H19  1  0.21556367  0.11871703  0.83300941  1
  H  H20  1  0.66698875  0.78443923  0.61871304  1
  H  H21  1  0.16698727  0.71555855  0.38127407  1
  H  H22  1  0.33301878  0.28444014  0.88127160  1
  H  H23  1  0.83301929  0.21555796  0.11871229  1
  H  H24  1  0.49835208  0.29668923  0.22506048  1
  H  H25  1  0.50165604  0.79668819  0.27492473  1
  H  H26  1  0.00165615  0.70330783  0.72506258  1
  H  H27  1  0.99835401  0.20331131  0.77492157  1
  H  H28  1  0.22507266  0.49834681  0.29668175  1
  H  H29  1  0.27493232  0.50165164  0.79668798  1
  H  H30  1  0.72507034  0.00165059  0.70329986  1
  H  H31  1  0.77493409  0.99834654  0.20330345  1
  H  H32  1  0.29669108  0.22506918  0.49834175  1
  H  H33  1  0.79669408  0.27493043  0.50164457  1
  H  H34  1  0.70331253  0.72506802  0.00164450  1
  H  H35  1  0.20331393  0.77493087  0.99834120  1
  H  H36  1  0.50165672  0.70330599  0.77492671  1
  H  H37  1  0.49835047  0.20330775  0.72506334  1
  H  H38  1  0.99835243  0.29668961  0.27492552  1
  H  H39  1  0.00165730  0.79668810  0.22505946  1
  H  H40  1  0.77493770  0.50165190  0.70330221  1
  H  H41  1  0.72507124  0.49834817  0.20330613  1
  H  H42  1  0.27493587  0.99834755  0.29668358  1
  H  H43  1  0.22507329  0.00164904  0.79668262  1
  H  H44  1  0.70331494  0.77492825  0.50164337  1
  H  H45  1  0.20331472  0.72506784  0.49834103  1
  H  H46  1  0.29669313  0.27492843  0.99834093  1
  H  H47  1  0.79669390  0.22506286  0.00164503  1
  H  H48  1  0.92403396  0.80727328  0.47021706  1
  H  H49  1  0.07597869  0.30726997  0.02977229  1
  H  H50  1  0.57597850  0.19273132  0.97021555  1
  H  H51  1  0.42403791  0.69272681  0.52976836  1
  H  H52  1  0.47023004  0.92402716  0.80726635  1
  H  H53  1  0.02977568  0.07596177  0.30726494  1
  H  H54  1  0.97022427  0.57597641  0.19272937  1
  H  H55  1  0.52977892  0.42402821  0.69272373  1
  H  H56  1  0.80727447  0.47022266  0.92401376  1
  H  H57  1  0.30727120  0.02977389  0.07596556  1
  H  H58  1  0.19274062  0.97022231  0.57596683  1
  H  H59  1  0.69273072  0.52977248  0.42402773  1
  H  H60  1  0.07597862  0.19273722  0.52976802  1
  H  H61  1  0.92403226  0.69272885  0.97021663  1
  H  H62  1  0.42403945  0.80727136  0.02976979  1
  H  H63  1  0.57598008  0.30727034  0.47021516  1
  H  H64  1  0.52978217  0.07596997  0.19272682  1
  H  H65  1  0.97022753  0.92402140  0.69272617  1
  H  H66  1  0.02977783  0.42403678  0.80727018  1
  H  H67  1  0.47022644  0.57597483  0.30726124  1
  H  H68  1  0.19273724  0.52977232  0.07596004  1
  H  H69  1  0.69273200  0.97022314  0.92402133  1
  H  H70  1  0.80727918  0.02977487  0.42402267  1
  H  H71  1  0.30727197  0.47022318  0.57596931  1
  H  H72  1  0.05184164  0.79392236  0.47668397  1
  H  H73  1  0.94816349  0.29391446  0.02330790  1
  H  H74  1  0.44815828  0.20608178  0.97667843  1
  H  H75  1  0.55184715  0.70607500  0.52330550  1
  H  H76  1  0.47669178  0.05183452  0.79391401  1
  H  H77  1  0.02331769  0.94816337  0.29392205  1
  H  H78  1  0.97669100  0.44814734  0.20608377  1
  H  H79  1  0.52331608  0.55184162  0.70606996  1
  H  H80  1  0.79391762  0.47668719  0.05183495  1
  H  H81  1  0.29392315  0.02331030  0.94815018  1
  H  H82  1  0.20608386  0.97668443  0.44814555  1
  H  H83  1  0.70607779  0.52330995  0.55182983  1
  H  H84  1  0.94815639  0.20608229  0.52330830  1
  H  H85  1  0.05184635  0.70607444  0.97668078  1
  H  H86  1  0.55184231  0.79392204  0.02330496  1
  H  H87  1  0.44816233  0.29391384  0.47667967  1
  H  H88  1  0.52331887  0.94814911  0.20607428  1
  H  H89  1  0.97669010  0.05184655  0.70608077  1
  H  H90  1  0.02331267  0.55183306  0.79392202  1
  H  H91  1  0.47669376  0.44815787  0.29390979  1
  H  H92  1  0.20607770  0.52331190  0.94815045  1
  H  H93  1  0.70608543  0.97668649  0.05183407  1
  H  H94  1  0.79392240  0.02331048  0.55182904  1
  H  H95  1  0.29391879  0.47668538  0.44814750  1
  Se  Se0  1  0.31470247  0.68530124  0.18529554  1
  Se  Se1  1  0.68531152  0.18529803  0.31469134  1
  Se  Se2  1  0.18530081  0.31469513  0.68530135  1
  Se  Se3  1  0.81469513  0.81469478  0.81469281  1
  Se  Se4  1  0.68530578  0.31469745  0.81468393  1
  Se  Se5  1  0.31470521  0.81469218  0.68529581  1
  Se  Se6  1  0.81469091  0.68530056  0.31469715  1
  Se  Se7  1  0.18530454  0.18530159  0.18529604  1
  O  O0  1  0.23829392  0.76170837  0.26170091  1
  O  O1  1  0.76171344  0.26170905  0.23828306  1
  O  O2  1  0.26171370  0.23829195  0.76170008  1
  O  O3  1  0.73829634  0.73829331  0.73828747  1
  O  O4  1  0.76171245  0.23828737  0.73828094  1
  O  O5  1  0.23829731  0.73829307  0.76170042  1
  O  O6  1  0.73829658  0.76170701  0.23828390  1
  O  O7  1  0.26171483  0.26171049  0.26170283  1
  O  O8  1  0.26542455  0.56301053  0.17942720  1
  O  O9  1  0.73458265  0.06300938  0.32056539  1
  O  O10  1  0.23458754  0.43698682  0.67941327  1
  O  O11  1  0.76542077  0.93699181  0.82056332  1
  O  O12  1  0.17943168  0.26541504  0.56300223  1
  O  O13  1  0.32057796  0.73458013  0.06300881  1
  O  O14  1  0.67943526  0.23458429  0.43698392  1
  O  O15  1  0.82057156  0.76541165  0.93698410  1
  O  O16  1  0.56301301  0.17943008  0.26540603  1
  O  O17  1  0.06301674  0.32056860  0.73456786  1
  O  O18  1  0.43699426  0.67942203  0.23457837  1
  O  O19  1  0.93699679  0.82057000  0.76541306  1
  O  O20  1  0.73458778  0.43698630  0.82056817  1
  O  O21  1  0.26542246  0.93699181  0.67941652  1
  O  O22  1  0.76541729  0.56300930  0.32056780  1
  O  O23  1  0.23458732  0.06300776  0.17942218  1
  O  O24  1  0.82056736  0.73457676  0.43698237  1
  O  O25  1  0.67942904  0.26541662  0.93698515  1
  O  O26  1  0.32057511  0.76541479  0.56300116  1
  O  O27  1  0.17943250  0.23458423  0.06300335  1
  O  O28  1  0.43699075  0.82057220  0.73457648  1
  O  O29  1  0.93699398  0.67941899  0.26540867  1
  O  O30  1  0.56301217  0.32057335  0.76541074  1
  O  O31  1  0.06301761  0.17942925  0.23457236  1
  O  O32  1  0.45422886  0.35964829  0.21013623  1
  O  O33  1  0.54578169  0.85964927  0.28985233  1
  O  O34  1  0.04578358  0.64035663  0.71013290  1
  O  O35  1  0.95423049  0.14035059  0.78984974  1
  O  O36  1  0.21014448  0.45422004  0.35964153  1
  O  O37  1  0.28986156  0.54577583  0.85964381  1
  O  O38  1  0.71014499  0.04577762  0.64034471  1
  O  O39  1  0.78986225  0.95422220  0.14034858  1
  O  O40  1  0.35964875  0.21013937  0.45421643  1
  O  O41  1  0.85965394  0.28985344  0.54576960  1
  O  O42  1  0.64035730  0.71013477  0.04577029  1
  O  O43  1  0.14035277  0.78986234  0.95421480  1
  O  O44  1  0.54578243  0.64034652  0.78985148  1
  O  O45  1  0.45422390  0.14035428  0.71013036  1
  O  O46  1  0.95422642  0.35965233  0.28985145  1
  O  O47  1  0.04578280  0.85964154  0.21012874  1
  O  O48  1  0.78986439  0.54577466  0.64034790  1
  O  O49  1  0.71014618  0.45422021  0.14034471  1
  O  O50  1  0.28986386  0.95422407  0.35964489  1
  O  O51  1  0.21014513  0.04577425  0.85964325  1
  O  O52  1  0.64036049  0.78986118  0.54576918  1
  O  O53  1  0.14035942  0.71013699  0.45421701  1
  O  O54  1  0.35965275  0.28986037  0.95421441  1
  O  O55  1  0.85965324  0.21013905  0.04577086  1
  O  O56  1  0.99044683  0.84219050  0.49537479  1
  O  O57  1  0.00955882  0.34218151  0.00462489  1
  O  O58  1  0.50956628  0.15784104  0.99537195  1
  O  O59  1  0.49042941  0.65780442  0.50461124  1
  O  O60  1  0.49538905  0.99044478  0.84218288  1
  O  O61  1  0.00463024  0.00956819  0.34220479  1
  O  O62  1  0.99537780  0.50956329  0.15785193  1
  O  O63  1  0.50462139  0.49042525  0.65780874  1
  O  O64  1  0.84215554  0.49538180  0.99044197  1
  O  O65  1  0.34217972  0.00462463  0.00956677  1
  O  O66  1  0.15783871  0.99537814  0.50956995  1
  O  O67  1  0.65780001  0.50461815  0.49042861  1
  O  O68  1  0.00957568  0.15783506  0.50461649  1
  O  O69  1  0.99042555  0.65781820  0.99537564  1
  O  O70  1  0.49044138  0.84220112  0.00461615  1
  O  O71  1  0.50955619  0.34216514  0.49537099  1
  O  O72  1  0.50462823  0.00957429  0.15782650  1
  O  O73  1  0.99538303  0.99043921  0.65784648  1
  O  O74  1  0.00461477  0.49043641  0.84221121  1
  O  O75  1  0.49537880  0.50955960  0.34216689  1
  O  O76  1  0.15780671  0.50461632  0.00957435  1
  O  O77  1  0.65782648  0.99537730  0.99043778  1
  O  O78  1  0.84219959  0.00462360  0.49044097  1
  O  O79  1  0.34216073  0.49538007  0.50955462  1
loop_
_geom_bond_atom_site_label_1
_geom_bond_atom_site_label_2
_geom_bond_distance
_geom_bond_site_symmetry_2
Cs0 O42 3.264441 1_556
Cs0 O44 3.264482 1_555
Cs0 O37 3.264494 1_555
Cs0 O54 3.264512 1_555
Cs0 O32 3.264524 1_556
Cs0 O49 3.264548 1_556
Cs1 O52 3.264460 1_555
Cs1 O50 3.264478 1_555
Cs1 O33 3.264487 1_555
Cs1 O45 3.264513 1_565
Cs1 O38 3.264517 1_565
Cs1 O40 3.264571 1_565
Cs2 O48 3.264457 1_455
Cs2 O34 3.264510 1_555
Cs2 O41 3.264517 1_455
Cs2 O46 3.264524 1_455
Cs2 O53 3.264525 1_555
Cs2 O36 3.264562 1_555
Cs3 O43 3.264433 1_555
Cs3 O47 3.264457 1_556
Cs3 O55 3.264505 1_466
Cs3 O39 3.264505 1_456
Cs3 O51 3.264529 1_565
Cs3 O35 3.264566 1_465
Cr0 O73 2.006087 1_445
Cr0 O68 2.008561 1_555
Cr0 O66 2.008609 1_545
Cr0 O78 2.012759 1_455
Cr0 O56 2.012868 1_445
Cr0 O61 2.015302 1_555
Cr1 O62 2.004771 1_555
Cr1 O64 2.007022 1_554
Cr1 O57 2.010135 1_655
Cr1 O69 2.011214 1_554
Cr1 O76 2.014503 1_655
Cr1 O74 2.016606 1_654
Cr2 O58 2.007582 1_554
Cr2 O72 2.008204 1_555
Cr2 O65 2.009958 1_555
Cr2 O77 2.011500 1_544
Cr2 O60 2.013209 1_544
Cr2 O70 2.013775 1_545
Cr3 O79 2.005985 1_555
Cr3 O71 2.008440 1_555
Cr3 O75 2.009957 1_555
Cr3 O63 2.011448 1_555
Cr3 O59 2.012917 1_555
Cr3 O67 2.015368 1_555
H0 O32 0.989503 1_555
H1 O33 0.989511 1_555
H2 O34 0.989421 1_555
H3 O35 0.989508 1_555
H4 O36 0.989498 1_555
H5 O37 0.989460 1_555
H6 O38 0.989480 1_555
H7 O39 0.989457 1_555
H8 O40 0.989495 1_555
H9 O41 0.989489 1_555
H10 O42 0.989461 1_555
H11 O43 0.989489 1_555
H12 O44 0.989488 1_555
H13 O45 0.989452 1_555
H14 O46 0.989530 1_555
H15 O47 0.989432 1_555
H16 O48 0.989446 1_555
H17 O49 0.989491 1_555
H18 O50 0.989528 1_555
H19 O51 0.989493 1_555
H20 O52 0.989487 1_555
H21 O53 0.989472 1_555
H22 O54 0.989498 1_555
H23 O55 0.989479 1_555
H24 O32 0.995523 1_555
H25 O33 0.995569 1_555
H26 O34 0.995486 1_555
H27 O35 0.995551 1_555
H28 O36 0.995565 1_555
H29 O37 0.995510 1_555
H30 O38 0.995513 1_555
H31 O39 0.995498 1_555
H32 O40 0.995537 1_555
H33 O41 0.995543 1_555
H34 O42 0.995524 1_555
H35 O43 0.995586 1_555
H36 O44 0.995546 1_555
H37 O45 0.995511 1_555
H38 O46 0.995584 1_555
H39 O47 0.995497 1_555
H40 O48 0.995476 1_555
H41 O49 0.995584 1_555
H42 O50 0.995557 1_555
H43 O51 0.995563 1_555
H44 O52 0.995515 1_555
H45 O53 0.995508 1_555
H46 O54 0.995571 1_555
H47 O55 0.995545 1_555
H48 O56 1.005967 1_555
H48 O24 1.661996 1_555
H49 O57 1.005968 1_555
H49 O27 1.661779 1_555
H50 O58 1.005803 1_555
H50 O25 1.661740 1_555
H51 O59 1.005765 1_555
H51 O26 1.661890 1_555
H52 O60 1.006019 1_555
H52 O28 1.661847 1_555
H53 O61 1.005837 1_555
H53 O31 1.661998 1_555
H54 O62 1.005729 1_555
H54 O29 1.661617 1_555
H55 O63 1.005784 1_555
H55 O30 1.661804 1_555
H56 O64 1.005935 1_555
H56 O20 1.661722 1_555
H57 O65 1.005733 1_555
H57 O23 1.661802 1_555
H58 O66 1.005703 1_555
H58 O21 1.661710 1_555
H59 O67 1.005900 1_555
H59 O22 1.661863 1_555
H60 O68 1.005752 1_555
H60 O12 1.661727 1_555
H61 O69 1.005726 1_555
H61 O15 1.661832 1_555
H62 O70 1.005903 1_555
H62 O13 1.661920 1_555
H63 O71 1.005950 1_555
H63 O14 1.661795 1_555
H64 O72 1.005673 1_555
H64 O16 1.661796 1_555
H65 O73 1.005799 1_555
H65 O19 1.661760 1_555
H66 O74 1.005980 1_555
H66 O17 1.662065 1_555
H67 O75 1.005904 1_555
H67 O18 1.661694 1_555
H68 O76 1.005746 1_555
H68 O8 1.661950 1_555
H69 O77 1.005924 1_555
H69 O11 1.661843 1_555
H70 O78 1.006017 1_555
H70 O9 1.661903 1_555
H71 O79 1.005822 1_555
H71 O10 1.661686 1_555
H72 O56 1.020770 1_455
H72 O53 1.575422 1_555
H73 O57 1.020744 1_655
H73 O55 1.575259 1_555
H74 O58 1.020698 1_555
H74 O54 1.575247 1_555
H75 O59 1.021023 1_555
H75 O52 1.575383 1_555
H76 O60 1.020746 1_545
H76 O45 1.575427 1_555
H77 O61 1.020970 1_565
H77 O47 1.575524 1_555
H78 O62 1.020686 1_555
H78 O46 1.575057 1_555
H79 O63 1.020939 1_555
H79 O44 1.575273 1_555
H80 O64 1.020533 1_554
H80 O49 1.575229 1_555
H81 O65 1.020880 1_556
H81 O51 1.575256 1_555
H82 O66 1.020891 1_555
H82 O50 1.575206 1_555
H83 O67 1.020911 1_555
H83 O48 1.575434 1_555
H84 O68 1.020852 1_655
H84 O41 1.575148 1_555
H85 O69 1.020944 1_455
H85 O43 1.575339 1_555
H86 O70 1.020908 1_555
H86 O42 1.575410 1_555
H87 O71 1.020635 1_555
H87 O40 1.575283 1_555
H88 O72 1.020909 1_565
H88 O33 1.575187 1_555
H89 O73 1.020640 1_545
H89 O35 1.575140 1_555
H90 O74 1.020969 1_555
H90 O34 1.575515 1_555
H91 O75 1.020737 1_555
H91 O32 1.575243 1_555
H92 O76 1.021089 1_556
H92 O37 1.575301 1_555
H93 O77 1.020716 1_554
H93 O39 1.575316 1_555
H94 O78 1.020762 1_555
H94 O38 1.575335 1_555
H95 O79 1.020703 1_555
H95 O36 1.575220 1_555
O0 Se0 1.682260 1_555
O1 Se1 1.682260 1_555
O2 Se2 1.682215 1_555
O3 Se3 1.682149 1_555
O4 Se4 1.682251 1_555
O5 Se5 1.682190 1_555
O6 Se6 1.682210 1_555
O7 Se7 1.682299 1_555
O8 Se0 1.677627 1_555
O9 Se1 1.677574 1_555
O10 Se2 1.677691 1_555
O11 Se3 1.677686 1_555
O12 Se2 1.677739 1_555
O13 Se0 1.677590 1_555
O14 Se1 1.677695 1_555
O15 Se3 1.677664 1_555
O16 Se1 1.677757 1_555
O17 Se2 1.677498 1_555
O18 Se0 1.677672 1_555
O19 Se3 1.677769 1_555
O20 Se4 1.677634 1_555
O21 Se5 1.677761 1_555
O22 Se6 1.677614 1_555
O23 Se7 1.677690 1_555
O24 Se6 1.677561 1_555
O25 Se4 1.677770 1_555
O26 Se5 1.677674 1_555
O27 Se7 1.677676 1_555
O28 Se5 1.677589 1_555
O29 Se6 1.677831 1_555
O30 Se4 1.677646 1_555
O31 Se7 1.677578 1_555
