# generated using pymatgen
data_Pr2Al2Ge
_symmetry_space_group_name_H-M   'P 1'
_cell_length_a   4.11226039
_cell_length_b   4.50109637
_cell_length_c   13.56001145
_cell_angle_alpha   90.00000431
_cell_angle_beta   98.72210332
_cell_angle_gamma   90.00000000
_symmetry_Int_Tables_number   1
_chemical_formula_structural   Pr2Al2Ge
_chemical_formula_sum   'Pr4 Al4 Ge2'
_cell_volume   248.08887619
_cell_formula_units_Z   2
loop_
 _symmetry_equiv_pos_site_id
 _symmetry_equiv_pos_as_xyz
  1  'x, y, z'
loop_
 _atom_site_type_symbol
 _atom_site_label
 _atom_site_symmetry_multiplicity
 _atom_site_fract_x
 _atom_site_fract_y
 _atom_site_fract_z
 _atom_site_occupancy
  Pr  Pr0  1  0.20487031  0.25000000  0.41006069  1
  Pr  Pr1  1  0.79512592  0.75000000  0.58993650  1
  Pr  Pr2  1  0.57472534  0.25000000  0.14972736  1
  Pr  Pr3  1  0.42527569  0.75000000  0.85027387  1
  Al  Al0  1  0.88111422  0.25000000  0.76143158  1
  Al  Al1  1  0.11888692  0.75000000  0.23856734  1
  Al  Al2  1  0.97648568  0.25000000  0.95258286  1
  Al  Al3  1  0.02351437  0.75000000  0.04741819  1
  Ge  Ge0  1  0.32542188  0.25000000  0.65046771  1
  Ge  Ge1  1  0.67458067  0.75000000  0.34953491  1
loop_
_geom_bond_atom_site_label_1
_geom_bond_atom_site_label_2
_geom_bond_distance
_geom_bond_site_symmetry_2
Al0 Ge0 2.536957 1_655
Al0 Ge0 2.538334 1_555
Al0 Al2 2.562038 1_555
Al0 Pr1 3.216900 1_545
Al0 Pr1 3.216901 1_555
Al0 Pr3 3.272023 1_655
Al0 Pr3 3.272023 1_645
Al0 Pr3 3.273380 1_555
Al0 Pr3 3.273380 1_545
Al1 Ge1 2.536988 1_455
Al1 Ge1 2.538362 1_555
Al1 Al3 2.562010 1_555
Al1 Pr0 3.216884 1_565
Al1 Pr0 3.216884 1_555
Al1 Pr2 3.272015 1_455
Al1 Pr2 3.272015 1_465
Al1 Pr2 3.273365 1_555
Al1 Pr2 3.273366 1_565
Al2 Al3 2.584696 1_656
Al2 Al3 2.584697 1_646
Al2 Pr3 3.342474 1_645
Al2 Pr3 3.342474 1_655
Al2 Pr3 3.342737 1_545
Al2 Pr3 3.342737 1_555
Al2 Pr2 3.347243 1_656
Al2 Pr2 3.348957 1_556
Al3 Pr2 3.342473 1_465
Al3 Pr2 3.342473 1_455
Al3 Pr2 3.342741 1_565
Al3 Pr2 3.342741 1_555
Al3 Pr3 3.347239 1_454
Al3 Pr3 3.348957 1_554
Ge0 Pr1 3.154423 1_545
Ge0 Pr1 3.154423 1_555
Ge0 Pr1 3.154575 1_445
Ge0 Pr1 3.154575 1_455
Ge0 Pr0 3.222223 1_555
Ge0 Pr3 3.498124 1_555
Ge0 Pr3 3.498124 1_545
Ge1 Pr0 3.154414 1_565
Ge1 Pr0 3.154414 1_555
Ge1 Pr0 3.154547 1_665
Ge1 Pr0 3.154547 1_655
Ge1 Pr1 3.222150 1_555
Ge1 Pr2 3.498138 1_555
Ge1 Pr2 3.498138 1_565
