# generated using pymatgen
data_NaAlSi3O8
_symmetry_space_group_name_H-M   'P 1'
_cell_length_a   7.17614988
_cell_length_b   7.74235060
_cell_length_c   7.79389499
_cell_angle_alpha   115.65806626
_cell_angle_beta   103.79375070
_cell_angle_gamma   103.53213248
_symmetry_Int_Tables_number   1
_chemical_formula_structural   NaAlSi3O8
_chemical_formula_sum   'Na2 Al2 Si6 O16'
_cell_volume   349.81773528
_cell_formula_units_Z   2
loop_
 _symmetry_equiv_pos_site_id
 _symmetry_equiv_pos_as_xyz
  1  'x, y, z'
loop_
 _atom_site_type_symbol
 _atom_site_label
 _atom_site_symmetry_multiplicity
 _atom_site_fract_x
 _atom_site_fract_y
 _atom_site_fract_z
 _atom_site_occupancy
  Na  Na0  1  0.13449300  0.26606700  0.27258000  1
  Na  Na1  1  0.86550700  0.73393300  0.72742000  1
  Al  Al0  1  0.34071400  0.80382700  0.57344300  1
  Al  Al1  1  0.65928600  0.19617300  0.42655700  1
  Si  Si0  1  0.22026800  0.82888400  0.18057800  1
  Si  Si1  1  0.22549500  0.18814400  0.84086600  1
  Si  Si2  1  0.77973200  0.17111600  0.81942200  1
  Si  Si3  1  0.77450500  0.81185600  0.15913400  1
  Si  Si4  1  0.33525300  0.57306800  0.80421000  1
  Si  Si5  1  0.66474700  0.42693200  0.19579000  1
  O  O0  1  0.38646800  0.06685400  0.30683400  1
  O  O1  1  0.41097200  0.31985900  0.07285200  1
  O  O2  1  0.61353200  0.93314600  0.69316600  1
  O  O3  1  0.58902800  0.68014100  0.92714800  1
  O  O4  1  0.21722600  0.96068200  0.69821000  1
  O  O5  1  0.22721000  0.69571000  0.95219700  1
  O  O6  1  0.78277400  0.03931800  0.30179000  1
  O  O7  1  0.77279000  0.30429000  0.04780300  1
  O  O8  1  0.27574300  0.58016900  0.59416600  1
  O  O9  1  0.72425700  0.41983100  0.40583400  1
  O  O10  1  0.98801600  0.84124100  0.11235200  1
  O  O11  1  0.01198400  0.15875900  0.88764800  1
  O  O12  1  0.24242700  0.71250000  0.30855900  1
  O  O13  1  0.24981400  0.32740900  0.73260800  1
  O  O14  1  0.75757300  0.28750000  0.69144100  1
  O  O15  1  0.75018600  0.67259100  0.26739200  1
loop_
_geom_bond_atom_site_label_1
_geom_bond_atom_site_label_2
_geom_bond_distance
_geom_bond_site_symmetry_2
Na0 O8 2.362203 1_555
Na0 O11 2.589553 1_554
Na0 O0 2.674209 1_555
Na0 O10 2.771624 1_445
Na0 O6 2.837402 1_455
Na0 O1 2.860178 1_555
Na0 O7 2.921314 1_455
Na1 O9 2.362203 1_555
Na1 O10 2.589553 1_556
Na1 O2 2.674209 1_555
Na1 O11 2.771624 1_665
Na1 O4 2.837402 1_655
Na1 O3 2.860178 1_555
Na1 O5 2.921314 1_655
Al0 O12 1.751460 1_555
Al0 O4 1.759999 1_555
Al0 O2 1.763105 1_555
Al0 O8 1.772660 1_555
Al1 O14 1.751460 1_555
Al1 O6 1.759999 1_555
Al1 O0 1.763105 1_555
Al1 O9 1.772660 1_555
O0 Si0 1.620899 1_545
O1 Si5 1.641751 1_555
O1 Si1 1.643508 1_554
O2 Si2 1.620899 1_565
O3 Si4 1.641751 1_555
O3 Si3 1.643508 1_556
O4 Si1 1.601598 1_565
O5 Si4 1.629605 1_555
O5 Si0 1.646476 1_556
O6 Si3 1.601598 1_545
O7 Si5 1.629605 1_555
O7 Si2 1.646476 1_554
O8 Si4 1.618926 1_555
O9 Si5 1.618926 1_555
O10 Si3 1.645419 1_555
O10 Si0 1.663063 1_655
O11 Si1 1.645419 1_555
O11 Si2 1.663063 1_455
O12 Si0 1.613064 1_555
O13 Si1 1.635537 1_555
O13 Si4 1.636090 1_555
O14 Si2 1.613064 1_555
O15 Si3 1.635537 1_555
O15 Si5 1.636090 1_555
