# generated using pymatgen
data_EuTl3
_symmetry_space_group_name_H-M   'P 1'
_cell_length_a   4.86560246
_cell_length_b   4.86613753
_cell_length_c   4.86603825
_cell_angle_alpha   89.92775581
_cell_angle_beta   89.93816695
_cell_angle_gamma   90.04988987
_symmetry_Int_Tables_number   1
_chemical_formula_structural   EuTl3
_chemical_formula_sum   'Eu1 Tl3'
_cell_volume   115.21148040
_cell_formula_units_Z   1
loop_
 _symmetry_equiv_pos_site_id
 _symmetry_equiv_pos_as_xyz
  1  'x, y, z'
loop_
 _atom_site_type_symbol
 _atom_site_label
 _atom_site_symmetry_multiplicity
 _atom_site_fract_x
 _atom_site_fract_y
 _atom_site_fract_z
 _atom_site_occupancy
  Eu  Eu0  1  0.00000000  -0.00000000  0.00000000  1
  Tl  Tl0  1  0.50000000  0.50000000  0.00000000  1
  Tl  Tl1  1  0.50000000  -0.00000000  0.50000000  1
  Tl  Tl2  1  0.00000000  0.50000000  0.50000000  1
loop_
_geom_bond_atom_site_label_1
_geom_bond_atom_site_label_2
_geom_bond_distance
_geom_bond_site_symmetry_2
Eu0 Tl2 3.438674 1_545
Eu0 Tl2 3.438674 1_554
Eu0 Tl1 3.438798 1_455
Eu0 Tl1 3.438798 1_554
Eu0 Tl0 3.439191 1_555
Eu0 Tl0 3.439191 1_445
Eu0 Tl0 3.442187 1_545
Eu0 Tl0 3.442187 1_455
Eu0 Tl1 3.442511 1_454
Eu0 Tl1 3.442511 1_555
Eu0 Tl2 3.443012 1_555
Eu0 Tl2 3.443012 1_544
Tl0 Tl1 3.438674 1_555
Tl0 Tl1 3.438674 1_564
Tl0 Tl2 3.438798 1_555
Tl0 Tl2 3.438798 1_654
Tl0 Tl2 3.442511 1_554
Tl0 Tl2 3.442511 1_655
Tl0 Tl1 3.443012 1_554
Tl0 Tl1 3.443012 1_565
Tl1 Tl2 3.439191 1_545
Tl1 Tl2 3.439191 1_655
Tl1 Tl2 3.442187 1_645
Tl1 Tl2 3.442187 1_555
