# generated using pymatgen
data_Na2Zn3H4(Se2O7)2
_symmetry_space_group_name_H-M   'P 1'
_cell_length_a   8.89230887
_cell_length_b   8.89230887
_cell_length_c   15.12795032
_cell_angle_alpha   73.87461051
_cell_angle_beta   73.87461051
_cell_angle_gamma   44.20571156
_symmetry_Int_Tables_number   1
_chemical_formula_structural   Na2Zn3H4(Se2O7)2
_chemical_formula_sum   'Na4 Zn6 H8 Se8 O28'
_cell_volume   795.68808505
_cell_formula_units_Z   2
loop_
 _symmetry_equiv_pos_site_id
 _symmetry_equiv_pos_as_xyz
  1  'x, y, z'
loop_
 _atom_site_type_symbol
 _atom_site_label
 _atom_site_symmetry_multiplicity
 _atom_site_fract_x
 _atom_site_fract_y
 _atom_site_fract_z
 _atom_site_occupancy
  Na  Na0  1  0.25871300  0.53085600  0.49088700  1
  Na  Na1  1  0.46914400  0.74128700  0.00911300  1
  Na  Na2  1  0.74128700  0.46914400  0.50911300  1
  Na  Na3  1  0.53085600  0.25871300  0.99088700  1
  Zn  Zn0  1  0.85009500  0.17257800  0.11862100  1
  Zn  Zn1  1  0.82742200  0.14990500  0.38137900  1
  Zn  Zn2  1  0.14990500  0.82742200  0.88137900  1
  Zn  Zn3  1  0.17257800  0.85009500  0.61862100  1
  Zn  Zn4  1  0.32295600  0.67704400  0.25000000  1
  Zn  Zn5  1  0.67704400  0.32295600  0.75000000  1
  H  H0  1  0.78781600  0.79543200  0.38898900  1
  H  H1  1  0.20456800  0.21218400  0.11101100  1
  H  H2  1  0.21218400  0.20456800  0.61101100  1
  H  H3  1  0.79543200  0.78781600  0.88898900  1
  H  H4  1  0.99110100  0.55090400  0.38242100  1
  H  H5  1  0.44909600  0.00889900  0.11757900  1
  H  H6  1  0.00889900  0.44909600  0.61757900  1
  H  H7  1  0.55090400  0.99110100  0.88242100  1
  Se  Se0  1  0.07119400  0.72161100  0.10689700  1
  Se  Se1  1  0.27838900  0.92880600  0.39310300  1
  Se  Se2  1  0.92880600  0.27838900  0.89310300  1
  Se  Se3  1  0.72161100  0.07119400  0.60689700  1
  Se  Se4  1  0.76764300  0.51781400  0.22071400  1
  Se  Se5  1  0.48218600  0.23235700  0.27928600  1
  Se  Se6  1  0.23235700  0.48218600  0.77928600  1
  Se  Se7  1  0.51781400  0.76764300  0.72071400  1
  O  O0  1  0.12183500  0.85050900  0.14847600  1
  O  O1  1  0.14949100  0.87816500  0.35152400  1
  O  O2  1  0.87816500  0.14949100  0.85152400  1
  O  O3  1  0.85050900  0.12183500  0.64847600  1
  O  O4  1  0.24270500  0.64413700  0.00442200  1
  O  O5  1  0.35586300  0.75729500  0.49557800  1
  O  O6  1  0.75729500  0.35586300  0.99557800  1
  O  O7  1  0.64413700  0.24270500  0.50442200  1
  O  O8  1  0.95558900  0.82384200  0.57661000  1
  O  O9  1  0.17615800  0.04441100  0.92339000  1
  O  O10  1  0.04441100  0.17615800  0.42339000  1
  O  O11  1  0.82384200  0.95558900  0.07661000  1
  O  O12  1  0.29232800  0.46873300  0.33263000  1
  O  O13  1  0.53126700  0.70767200  0.16737000  1
  O  O14  1  0.70767200  0.53126700  0.66737000  1
  O  O15  1  0.46873300  0.29232800  0.83263000  1
  O  O16  1  0.83732200  0.65164300  0.40805800  1
  O  O17  1  0.34835700  0.16267800  0.09194200  1
  O  O18  1  0.16267800  0.34835700  0.59194200  1
  O  O19  1  0.65164300  0.83732200  0.90805800  1
  O  O20  1  0.94240800  0.28925100  0.16395700  1
  O  O21  1  0.71074900  0.05759200  0.33604300  1
  O  O22  1  0.05759200  0.71074900  0.83604300  1
  O  O23  1  0.28925100  0.94240800  0.66395700  1
  O  O24  1  0.65553500  0.45752700  0.32002600  1
  O  O25  1  0.54247300  0.34446500  0.17997400  1
  O  O26  1  0.34446500  0.54247300  0.67997400  1
  O  O27  1  0.45752700  0.65553500  0.82002600  1
loop_
_geom_bond_atom_site_label_1
_geom_bond_atom_site_label_2
_geom_bond_distance
_geom_bond_site_symmetry_2
Na0 O18 2.362954 1_555
Na0 O8 2.366837 1_455
Na0 O7 2.421124 1_555
Na0 O12 2.495323 1_555
Na0 O5 2.722700 1_555
Na0 O1 2.854193 1_555
Na1 O19 2.362954 1_554
Na1 O9 2.366837 1_564
Na1 O6 2.421124 1_554
Na1 O13 2.495323 1_555
Na1 O4 2.722700 1_555
Na1 O0 2.854193 1_555
Na2 O16 2.362954 1_555
Na2 O10 2.366837 1_655
Na2 O5 2.421124 1_555
Na2 O14 2.495323 1_555
Na2 O7 2.722700 1_555
Na2 O3 2.854193 1_555
Na3 O17 2.362954 1_556
Na3 O11 2.366837 1_546
Na3 O4 2.421124 1_556
Na3 O15 2.495323 1_555
Na3 O6 2.722700 1_555
Na3 O2 2.854193 1_555
H0 O16 0.985161 1_555
H1 O17 0.985161 1_555
H2 O18 0.985161 1_555
H3 O19 0.985161 1_555
H4 O16 0.982333 1_555
H5 O17 0.982333 1_555
H6 O18 0.982333 1_555
H7 O19 0.982333 1_555
O0 Se0 1.791655 1_555
O0 Zn4 2.047291 1_555
O0 Zn0 2.052108 1_465
O1 Se1 1.791655 1_555
O1 Zn4 2.047291 1_555
O1 Zn1 2.052108 1_465
O2 Se2 1.791655 1_555
O2 Zn5 2.047291 1_555
O2 Zn2 2.052108 1_645
O3 Se3 1.791655 1_555
O3 Zn5 2.047291 1_555
O3 Zn3 2.052108 1_645
O4 Se0 1.725521 1_555
O4 Zn2 2.010447 1_554
O5 Se1 1.725521 1_555
O5 Zn3 2.010447 1_555
O6 Se2 1.725521 1_555
O6 Zn0 2.010447 1_556
O7 Se3 1.725521 1_555
O7 Zn1 2.010447 1_555
O8 Se3 1.687012 1_565
O8 Zn3 2.364510 1_655
O9 Se2 1.687012 1_455
O9 Zn2 2.364510 1_545
O10 Se1 1.687012 1_545
O10 Zn1 2.364510 1_455
O11 Se0 1.687012 1_655
O11 Zn0 2.364510 1_565
O12 Se5 1.737071 1_555
O12 Zn4 2.077488 1_555
O13 Se4 1.737071 1_555
O13 Zn4 2.077488 1_555
O14 Se7 1.737071 1_555
O14 Zn5 2.077488 1_555
O15 Se6 1.737071 1_555
O15 Zn5 2.077488 1_555
O20 Se4 1.727135 1_555
O20 Zn0 2.037054 1_555
O21 Se5 1.727135 1_555
O21 Zn1 2.037054 1_555
O22 Se6 1.727135 1_555
O22 Zn2 2.037054 1_555
O23 Se7 1.727135 1_555
O23 Zn3 2.037054 1_555
O24 Se4 1.739315 1_555
O24 Zn1 2.015895 1_555
O24 Zn4 2.448247 1_555
O25 Se5 1.739315 1_555
O25 Zn0 2.015895 1_555
O25 Zn4 2.448247 1_555
O26 Se6 1.739315 1_555
O26 Zn3 2.015895 1_555
O26 Zn5 2.448247 1_555
O27 Se7 1.739315 1_555
O27 Zn2 2.015895 1_555
O27 Zn5 2.448247 1_555
