# generated using pymatgen
data_Ce5AgPb3
_symmetry_space_group_name_H-M   'P 1'
_cell_length_a   9.75690002
_cell_length_b   9.75674536
_cell_length_c   6.66257298
_cell_angle_alpha   90.00000000
_cell_angle_beta   90.00000000
_cell_angle_gamma   119.99915665
_symmetry_Int_Tables_number   1
_chemical_formula_structural   Ce5AgPb3
_chemical_formula_sum   'Ce10 Ag2 Pb6'
_cell_volume   549.27916614
_cell_formula_units_Z   2
loop_
 _symmetry_equiv_pos_site_id
 _symmetry_equiv_pos_as_xyz
  1  'x, y, z'
loop_
 _atom_site_type_symbol
 _atom_site_label
 _atom_site_symmetry_multiplicity
 _atom_site_fract_x
 _atom_site_fract_y
 _atom_site_fract_z
 _atom_site_occupancy
  Ce  Ce0  1  0.66670282  0.33333412  0.50000303  1
  Ce  Ce1  1  0.33335652  0.66666567  0.49999625  1
  Ce  Ce2  1  0.33335652  0.66666567  0.00000375  1
  Ce  Ce3  1  0.66670282  0.33333412  -0.00000303  1
  Ce  Ce4  1  0.71946160  0.71950422  0.25000000  1
  Ce  Ce5  1  0.28049422  -0.00003029  0.25000000  1
  Ce  Ce6  1  0.00001945  0.28052293  0.25000000  1
  Ce  Ce7  1  0.28048897  0.28054085  0.75000000  1
  Ce  Ce8  1  0.71946420  -0.00003631  0.75000000  1
  Ce  Ce9  1  0.00002147  0.71951505  0.75000000  1
  Ag  Ag0  1  0.99993523  -0.00001936  0.49999516  1
  Ag  Ag1  1  0.99993523  -0.00001936  0.00000484  1
  Pb  Pb0  1  0.37151914  0.37161737  0.25000000  1
  Pb  Pb1  1  0.62848799  -0.00001719  0.25000000  1
  Pb  Pb2  1  0.00006008  0.62845947  0.25000000  1
  Pb  Pb3  1  0.62840634  0.62848310  0.75000000  1
  Pb  Pb4  1  0.37155516  -0.00007012  0.75000000  1
  Pb  Pb5  1  0.00003225  0.37155007  0.75000000  1
loop_
_geom_bond_atom_site_label_1
_geom_bond_atom_site_label_2
_geom_bond_distance
_geom_bond_site_symmetry_2
Ce0 Pb5 3.503986 1_655
Ce0 Pb1 3.504148 1_555
Ce0 Pb2 3.504198 1_655
Ce0 Pb4 3.504484 1_555
Ce0 Pb3 3.504645 1_555
Ce0 Pb0 3.504931 1_555
Ce1 Pb0 3.503108 1_555
Ce1 Pb3 3.503282 1_555
Ce1 Pb4 3.503464 1_565
Ce1 Pb2 3.503736 1_555
Ce1 Pb1 3.503985 1_565
Ce1 Pb5 3.504000 1_555
Ce2 Pb0 3.503108 1_555
Ce2 Pb3 3.503282 1_554
Ce2 Pb4 3.503464 1_564
Ce2 Pb2 3.503736 1_555
Ce2 Pb1 3.503985 1_565
Ce2 Pb5 3.504000 1_554
Ce3 Pb5 3.503986 1_654
Ce3 Pb1 3.504148 1_555
Ce3 Pb2 3.504198 1_655
Ce3 Pb4 3.504484 1_554
Ce3 Pb3 3.504645 1_554
Ce3 Pb0 3.504931 1_555
Ce4 Pb1 3.271939 1_565
Ce4 Pb2 3.273587 1_655
Ce4 Pb0 3.394585 1_555
Ce4 Pb3 3.447676 1_554
Ce4 Pb3 3.447676 1_555
Ce5 Pb2 3.272257 1_545
Ce5 Pb0 3.273659 1_555
Ce5 Pb1 3.395277 1_555
Ce5 Pb4 3.447782 1_554
Ce5 Pb4 3.447782 1_555
Ce6 Pb0 3.272124 1_555
Ce6 Pb1 3.272720 1_455
Ce6 Pb2 3.394530 1_555
Ce6 Pb5 3.447627 1_555
Ce6 Pb5 3.447627 1_554
Ce7 Pb5 3.272003 1_555
Ce7 Pb4 3.273817 1_555
Ce7 Pb3 3.394733 1_555
Ce7 Pb0 3.447714 1_556
Ce7 Pb0 3.447714 1_555
Ce8 Pb3 3.271984 1_545
Ce8 Pb5 3.273139 1_655
Ce8 Pb4 3.394349 1_555
Ce8 Pb1 3.447543 1_555
Ce8 Pb1 3.447543 1_556
Ce9 Pb4 3.272389 1_565
Ce9 Pb3 3.273391 1_455
Ce9 Pb5 3.395058 1_555
Ce9 Pb2 3.447763 1_556
Ce9 Pb2 3.447763 1_555
Ag0 Ce8 3.203530 1_555
Ag0 Ce4 3.203612 1_545
Ag0 Ce6 3.203773 1_655
Ag0 Ce9 3.203878 1_645
Ag0 Ce7 3.204329 1_655
Ag0 Ce5 3.204346 1_655
Ag1 Ce8 3.203530 1_554
Ag1 Ce4 3.203612 1_545
Ag1 Ce6 3.203773 1_655
Ag1 Ce9 3.203878 1_644
Ag1 Ce7 3.204329 1_654
Ag1 Ce5 3.204346 1_655
