# generated using pymatgen
data_YbH18(BrO6)3
_symmetry_space_group_name_H-M   'P 1'
_cell_length_a   6.96834400
_cell_length_b   12.07114400
_cell_length_c   12.08227729
_cell_angle_alpha   60.03047685
_cell_angle_beta   90.00000000
_cell_angle_gamma   90.00000000
_symmetry_Int_Tables_number   1
_chemical_formula_structural   YbH18(BrO6)3
_chemical_formula_sum   'Yb2 H36 Br6 O36'
_cell_volume   880.42169388
_cell_formula_units_Z   2
loop_
 _symmetry_equiv_pos_site_id
 _symmetry_equiv_pos_as_xyz
  1  'x, y, z'
loop_
 _atom_site_type_symbol
 _atom_site_label
 _atom_site_symmetry_multiplicity
 _atom_site_fract_x
 _atom_site_fract_y
 _atom_site_fract_z
 _atom_site_occupancy
  Yb  Yb0  1  0.74669500  0.66680800  0.66638500  1
  Yb  Yb1  1  0.24669500  0.33319200  0.33361500  1
  H  H0  1  0.43931800  0.63075400  0.50047900  1
  H  H1  1  0.43892800  0.50049400  0.86872700  1
  H  H2  1  0.43811800  0.86886400  0.63061400  1
  H  H3  1  0.43811800  0.50052100  0.63061400  1
  H  H4  1  0.43931800  0.86876700  0.50047900  1
  H  H5  1  0.43892800  0.63077900  0.86872700  1
  H  H6  1  0.56258800  0.36894100  0.49913100  1
  H  H7  1  0.56185200  0.49887400  0.13188100  1
  H  H8  1  0.56161400  0.13240600  0.36922300  1
  H  H9  1  0.56161400  0.49837100  0.36922300  1
  H  H10  1  0.56258800  0.13192800  0.49913100  1
  H  H11  1  0.56185200  0.36924500  0.13188100  1
  H  H12  1  0.93931800  0.36924600  0.49952100  1
  H  H13  1  0.93892800  0.49950600  0.13127300  1
  H  H14  1  0.93811800  0.13113600  0.36938600  1
  H  H15  1  0.93811800  0.49947900  0.36938600  1
  H  H16  1  0.93931800  0.13123300  0.49952100  1
  H  H17  1  0.93892800  0.36922100  0.13127300  1
  H  H18  1  0.06258800  0.63105900  0.50086900  1
  H  H19  1  0.06185200  0.50112600  0.86811900  1
  H  H20  1  0.06161400  0.86759400  0.63077700  1
  H  H21  1  0.06161400  0.50162900  0.63077700  1
  H  H22  1  0.06258800  0.86807200  0.50086900  1
  H  H23  1  0.06185200  0.63075500  0.86811900  1
  H  H24  1  0.75816500  0.88024300  0.74724400  1
  H  H25  1  0.75848100  0.74745500  0.37325400  1
  H  H26  1  0.75826600  0.37310600  0.87906500  1
  H  H27  1  0.75826600  0.74783000  0.87906500  1
  H  H28  1  0.75816500  0.37251300  0.74724400  1
  H  H29  1  0.75848100  0.87929100  0.37325400  1
  H  H30  1  0.25816500  0.11975700  0.25275600  1
  H  H31  1  0.25848100  0.25254500  0.62674600  1
  H  H32  1  0.25826600  0.62689400  0.12093500  1
  H  H33  1  0.25826600  0.25217000  0.12093500  1
  H  H34  1  0.25816500  0.62748700  0.25275600  1
  H  H35  1  0.25848100  0.12070900  0.62674600  1
  Br  Br0  1  0.75514500  0.13374000  0.13397500  1
  Br  Br1  1  0.75445100  0.13342200  0.73315600  1
  Br  Br2  1  0.75514500  0.73228500  0.13397500  1
  Br  Br3  1  0.25514500  0.86626000  0.86602500  1
  Br  Br4  1  0.25445100  0.86657800  0.26684400  1
  Br  Br5  1  0.25514500  0.26771500  0.86602500  1
  O  O0  1  0.51126600  0.58011800  0.58042000  1
  O  O1  1  0.51169000  0.58029500  0.83941100  1
  O  O2  1  0.51126600  0.83946100  0.58042000  1
  O  O3  1  0.48752900  0.41923700  0.42033400  1
  O  O4  1  0.48776100  0.41955500  0.16089000  1
  O  O5  1  0.48752900  0.16042900  0.42033400  1
  O  O6  1  0.01126600  0.41988200  0.41958000  1
  O  O7  1  0.01169000  0.41970500  0.16058900  1
  O  O8  1  0.01126600  0.16053900  0.41958000  1
  O  O9  1  0.98752900  0.58076300  0.57966600  1
  O  O10  1  0.98776100  0.58044500  0.83911000  1
  O  O11  1  0.98752900  0.83957100  0.57966600  1
  O  O12  1  0.75105300  0.07193700  0.29514200  1
  O  O13  1  0.74917300  0.29444500  0.63355400  1
  O  O14  1  0.75170900  0.63352400  0.07119900  1
  O  O15  1  0.75170900  0.29527600  0.07119900  1
  O  O16  1  0.75105300  0.63292100  0.29514200  1
  O  O17  1  0.74917300  0.07200100  0.63355400  1
  O  O18  1  0.25105300  0.92806300  0.70485800  1
  O  O19  1  0.24917300  0.70555500  0.36644600  1
  O  O20  1  0.25170900  0.36647600  0.92880100  1
  O  O21  1  0.25170900  0.70472400  0.92880100  1
  O  O22  1  0.25105300  0.36707900  0.70485800  1
  O  O23  1  0.24917300  0.92799900  0.36644600  1
  O  O24  1  0.73690400  0.78754700  0.78697900  1
  O  O25  1  0.73361600  0.78728600  0.42542800  1
  O  O26  1  0.73690400  0.42547400  0.78697900  1
  O  O27  1  0.23690400  0.21245300  0.21302100  1
  O  O28  1  0.23361600  0.21271400  0.57457200  1
  O  O29  1  0.23690400  0.57452600  0.21302100  1
  O  O30  1  0.54591300  0.09525800  0.09529200  1
  O  O31  1  0.54304300  0.09635400  0.80729200  1
  O  O32  1  0.54591300  0.80945000  0.09529200  1
  O  O33  1  0.04591300  0.90474200  0.90470800  1
  O  O34  1  0.04304300  0.90364600  0.19270800  1
  O  O35  1  0.04591300  0.19055000  0.90470800  1
loop_
_geom_bond_atom_site_label_1
_geom_bond_atom_site_label_2
_geom_bond_distance
_geom_bond_site_symmetry_2
H0 O0 0.983892 1_555
H1 O1 0.984673 1_555
H2 O2 0.984190 1_555
H3 O0 0.984190 1_555
H4 O2 0.983890 1_555
H5 O1 0.984663 1_555
H6 O3 0.985436 1_555
H7 O4 0.985330 1_555
H8 O5 0.985390 1_555
H9 O3 0.985390 1_555
H10 O5 0.985436 1_555
H11 O4 0.985330 1_555
H12 O6 0.983892 1_655
H13 O7 0.984673 1_655
H14 O8 0.984190 1_655
H15 O6 0.984190 1_655
H16 O8 0.983890 1_655
H17 O7 0.984663 1_655
H18 O9 0.985436 1_455
H19 O10 0.985330 1_455
H20 O11 0.985390 1_455
H21 O9 0.985390 1_455
H22 O11 0.985436 1_455
H23 O10 0.985330 1_455
H24 O24 0.983757 1_555
H25 O25 0.980504 1_555
H26 O26 0.978254 1_555
H27 O24 0.978255 1_555
H28 O26 0.983757 1_555
H29 O25 0.980504 1_555
H30 O27 0.983757 1_555
H31 O28 0.980504 1_555
H32 O29 0.978254 1_555
H33 O27 0.978255 1_555
H34 O29 0.983757 1_555
H35 O28 0.980504 1_555
Br0 O30 1.666402 1_555
Br0 O12 1.702302 1_555
Br0 O15 1.703072 1_555
Br1 O31 1.665032 1_555
Br1 O13 1.700204 1_555
Br1 O17 1.700204 1_555
Br2 O32 1.666402 1_555
Br2 O16 1.702302 1_555
Br2 O14 1.703084 1_555
Br3 O33 1.666402 1_555
Br3 O18 1.702302 1_555
Br3 O21 1.703072 1_555
Br4 O34 1.665032 1_555
Br4 O19 1.700204 1_555
Br4 O23 1.700204 1_555
Br5 O35 1.666402 1_555
Br5 O22 1.702302 1_555
Br5 O20 1.703084 1_555
O0 Yb0 2.439498 1_555
O1 Yb0 2.441624 1_555
O2 Yb0 2.439483 1_555
O3 Yb1 2.465826 1_555
O4 Yb1 2.467840 1_555
O5 Yb1 2.465818 1_555
O6 Yb1 2.439498 1_555
O7 Yb1 2.441624 1_555
O8 Yb1 2.439483 1_555
O9 Yb0 2.465826 1_555
O10 Yb0 2.467840 1_555
O11 Yb0 2.465818 1_555
O24 Yb0 2.524572 1_555
O25 Yb0 2.523688 1_555
O26 Yb0 2.524583 1_555
O27 Yb1 2.524572 1_555
O28 Yb1 2.523688 1_555
O29 Yb1 2.524583 1_555
