# generated using pymatgen
data_Ca3(ReN2)2
_symmetry_space_group_name_H-M   'P 1'
_cell_length_a   7.07157795
_cell_length_b   9.19001060
_cell_length_c   5.36736206
_cell_angle_alpha   90.00000385
_cell_angle_beta   93.61192825
_cell_angle_gamma   130.52539222
_symmetry_Int_Tables_number   1
_chemical_formula_structural   Ca3(ReN2)2
_chemical_formula_sum   'Ca6 Re4 N8'
_cell_volume   264.22721950
_cell_formula_units_Z   2
loop_
 _symmetry_equiv_pos_site_id
 _symmetry_equiv_pos_as_xyz
  1  'x, y, z'
loop_
 _atom_site_type_symbol
 _atom_site_label
 _atom_site_symmetry_multiplicity
 _atom_site_fract_x
 _atom_site_fract_y
 _atom_site_fract_z
 _atom_site_occupancy
  Ca  Ca0  1  0.21158700  0.93591200  0.01933800  1
  Ca  Ca1  1  0.78841300  0.72432500  0.48066200  1
  Ca  Ca2  1  0.78841300  0.06408800  0.98066200  1
  Ca  Ca3  1  0.21158700  0.27567500  0.51933800  1
  Ca  Ca4  1  0.00000000  0.56648600  0.75000000  1
  Ca  Ca5  1  0.00000000  0.43351400  0.25000000  1
  Re  Re0  1  0.51859000  0.14782700  0.56302500  1
  Re  Re1  1  0.48141000  0.62923700  0.93697500  1
  Re  Re2  1  0.48141000  0.85217300  0.43697500  1
  Re  Re3  1  0.51859000  0.37076300  0.06302500  1
  N  N0  1  0.22056700  0.87210800  0.56010400  1
  N  N1  1  0.77943300  0.65154000  0.93989600  1
  N  N2  1  0.77943300  0.12789200  0.43989600  1
  N  N3  1  0.22056700  0.34846000  0.06010400  1
  N  N4  1  0.65867000  0.25410400  0.90753600  1
  N  N5  1  0.34133000  0.59543400  0.59246400  1
  N  N6  1  0.34133000  0.74589600  0.09246400  1
  N  N7  1  0.65867000  0.40456600  0.40753600  1
loop_
_geom_bond_atom_site_label_1
_geom_bond_atom_site_label_2
_geom_bond_distance
_geom_bond_site_symmetry_2
Ca0 N1 2.409886 1_454
Ca0 N6 2.466165 1_555
Ca0 N0 2.547856 1_554
Ca0 N4 2.670396 1_564
Ca0 N0 2.966049 1_555
Ca1 N0 2.409884 1_655
Ca1 N7 2.466165 1_555
Ca1 N1 2.547859 1_555
Ca1 N5 2.670396 1_555
Ca1 N1 2.966051 1_554
Ca2 N3 2.409886 1_656
Ca2 N4 2.466165 1_555
Ca2 N2 2.547856 1_556
Ca2 N6 2.670396 1_546
Ca2 N2 2.966049 1_555
Ca3 N2 2.409884 1_455
Ca3 N5 2.466165 1_555
Ca3 N3 2.547859 1_555
Ca3 N7 2.670396 1_555
Ca3 N3 2.966051 1_556
Ca4 N1 2.422267 1_455
Ca4 N0 2.422274 1_555
Ca4 N5 2.456529 1_555
Ca4 N4 2.456529 1_455
Ca4 N6 2.488450 1_556
Ca4 N7 2.488450 1_455
Ca5 N3 2.422267 1_555
Ca5 N2 2.422274 1_455
Ca5 N7 2.456529 1_455
Ca5 N6 2.456529 1_555
Ca5 N4 2.488450 1_454
Ca5 N5 2.488450 1_555
N0 Re0 1.979453 1_565
N0 Re2 2.113179 1_555
N1 Re1 1.979458 1_555
N1 Re3 2.113173 1_556
N2 Re2 1.979453 1_545
N2 Re0 2.113179 1_555
N3 Re3 1.979458 1_555
N3 Re1 2.113173 1_554
N4 Re0 1.966289 1_555
N4 Re3 2.076407 1_556
N5 Re1 1.966289 1_555
N5 Re2 2.076408 1_555
N6 Re2 1.966289 1_555
N6 Re1 2.076407 1_554
N7 Re3 1.966289 1_555
N7 Re0 2.076408 1_555
