# generated using pymatgen
data_Bi6N5O26
_symmetry_space_group_name_H-M   'P 1'
_cell_length_a   17.45478687
_cell_length_b   9.20304740
_cell_length_c   18.36990328
_cell_angle_alpha   90.00000000
_cell_angle_beta   127.75284224
_cell_angle_gamma   90.00000000
_symmetry_Int_Tables_number   1
_chemical_formula_structural   Bi6N5O26
_chemical_formula_sum   'Bi24 N20 O104'
_cell_volume   2333.14864778
_cell_formula_units_Z   4
loop_
 _symmetry_equiv_pos_site_id
 _symmetry_equiv_pos_as_xyz
  1  'x, y, z'
loop_
 _atom_site_type_symbol
 _atom_site_label
 _atom_site_symmetry_multiplicity
 _atom_site_fract_x
 _atom_site_fract_y
 _atom_site_fract_z
 _atom_site_occupancy
  Bi  Bi0  1  0.04692393  0.67033352  0.94520106  1
  Bi  Bi1  1  0.95307607  0.17033352  0.55479894  1
  Bi  Bi2  1  0.95307607  0.32966648  0.05479894  1
  Bi  Bi3  1  0.04692393  0.82966648  0.44520106  1
  Bi  Bi4  1  0.23479548  0.69715770  0.91465547  1
  Bi  Bi5  1  0.76520452  0.19715770  0.58534453  1
  Bi  Bi6  1  0.76520452  0.30284230  0.08534453  1
  Bi  Bi7  1  0.23479548  0.80284230  0.41465547  1
  Bi  Bi8  1  0.31889150  0.64331863  0.15432914  1
  Bi  Bi9  1  0.68110850  0.14331863  0.34567086  1
  Bi  Bi10  1  0.68110850  0.35668137  0.84567086  1
  Bi  Bi11  1  0.31889150  0.85668137  0.65432914  1
  Bi  Bi12  1  0.09897850  0.01333790  0.87555783  1
  Bi  Bi13  1  0.90102150  0.51333790  0.62444217  1
  Bi  Bi14  1  0.90102150  0.98666210  0.12444217  1
  Bi  Bi15  1  0.09897850  0.48666210  0.37555783  1
  Bi  Bi16  1  0.34447389  0.98849914  0.07911251  1
  Bi  Bi17  1  0.65552611  0.48849914  0.42088749  1
  Bi  Bi18  1  0.65552611  0.01150086  0.92088749  1
  Bi  Bi19  1  0.34447389  0.51150086  0.57911251  1
  Bi  Bi20  1  0.13348240  0.98380383  0.09666279  1
  Bi  Bi21  1  0.86651760  0.48380383  0.40333721  1
  Bi  Bi22  1  0.86651760  0.01619617  0.90333721  1
  Bi  Bi23  1  0.13348240  0.51619617  0.59666279  1
  N  N0  1  0.14150644  0.32532465  0.81719889  1
  N  N1  1  0.85849356  0.82532465  0.68280111  1
  N  N2  1  0.85849356  0.67467535  0.18280111  1
  N  N3  1  0.14150644  0.17467535  0.31719889  1
  N  N4  1  0.04221051  0.84104951  0.65170796  1
  N  N5  1  0.95778949  0.34104951  0.84829204  1
  N  N6  1  0.95778949  0.15895049  0.34829204  1
  N  N7  1  0.04221051  0.65895049  0.15170796  1
  N  N8  1  0.22788135  0.19199332  0.69459834  1
  N  N9  1  0.77211865  0.69199332  0.80540166  1
  N  N10  1  0.77211865  0.80800668  0.30540166  1
  N  N11  1  0.22788135  0.30800668  0.19459834  1
  N  N12  1  0.43016767  0.20022601  0.71099514  1
  N  N13  1  0.56983233  0.70022601  0.78900486  1
  N  N14  1  0.56983233  0.79977399  0.28900486  1
  N  N15  1  0.43016767  0.29977399  0.21099514  1
  N  N16  1  0.40086631  0.80422212  0.88316737  1
  N  N17  1  0.59913369  0.30422212  0.61683263  1
  N  N18  1  0.59913369  0.19577788  0.11683263  1
  N  N19  1  0.40086631  0.69577788  0.38316737  1
  O  O0  1  0.09094985  0.77308271  0.86955655  1
  O  O1  1  0.90905015  0.27308271  0.63044345  1
  O  O2  1  0.90905015  0.22691729  0.13044345  1
  O  O3  1  0.09094985  0.72691729  0.36955655  1
  O  O4  1  0.34361448  0.74828280  0.06216885  1
  O  O5  1  0.65638552  0.24828280  0.43783115  1
  O  O6  1  0.65638552  0.25171720  0.93783115  1
  O  O7  1  0.34361448  0.75171720  0.56216885  1
  O  O8  1  0.17393125  0.74533620  0.08822953  1
  O  O9  1  0.82606875  0.24533620  0.41177047  1
  O  O10  1  0.82606875  0.25466380  0.91177047  1
  O  O11  1  0.17393125  0.75466380  0.58822953  1
  O  O12  1  0.19427056  0.04983556  0.02574193  1
  O  O13  1  0.80572944  0.54983556  0.47425807  1
  O  O14  1  0.80572944  0.95016444  0.97425807  1
  O  O15  1  0.19427056  0.45016444  0.52574193  1
  O  O16  1  0.01967299  0.91643051  0.95189622  1
  O  O17  1  0.98032701  0.41643051  0.54810378  1
  O  O18  1  0.98032701  0.08356949  0.04810378  1
  O  O19  1  0.01967299  0.58356949  0.45189622  1
  O  O20  1  0.24199029  0.94080235  0.92218808  1
  O  O21  1  0.75800971  0.44080235  0.57781192  1
  O  O22  1  0.75800971  0.05919765  0.07781192  1
  O  O23  1  0.24199029  0.55919765  0.42218808  1
  O  O24  1  0.19659245  0.57110511  0.00092507  1
  O  O25  1  0.80340755  0.07110511  0.49907493  1
  O  O26  1  0.80340755  0.42889489  0.99907493  1
  O  O27  1  0.19659245  0.92889489  0.50092507  1
  O  O28  1  0.32198443  0.88784380  0.17706666  1
  O  O29  1  0.67801557  0.38784380  0.32293334  1
  O  O30  1  0.67801557  0.11215620  0.82293334  1
  O  O31  1  0.32198443  0.61215620  0.67706666  1
  O  O32  1  0.16746396  0.31170191  0.89824800  1
  O  O33  1  0.83253604  0.81170191  0.60175200  1
  O  O34  1  0.83253604  0.68829809  0.10175200  1
  O  O35  1  0.16746396  0.18829809  0.39824800  1
  O  O36  1  0.13521277  0.44992716  0.78459299  1
  O  O37  1  0.86478723  0.94992716  0.71540701  1
  O  O38  1  0.86478723  0.55007284  0.21540701  1
  O  O39  1  0.13521277  0.05007284  0.28459299  1
  O  O40  1  0.12124586  0.21246364  0.76922660  1
  O  O41  1  0.87875414  0.71246364  0.73077340  1
  O  O42  1  0.87875414  0.78753636  0.23077340  1
  O  O43  1  0.12124586  0.28753636  0.26922660  1
  O  O44  1  0.08322137  0.72323703  0.69288647  1
  O  O45  1  0.91677863  0.22323703  0.80711353  1
  O  O46  1  0.91677863  0.27676297  0.30711353  1
  O  O47  1  0.08322137  0.77676297  0.19288647  1
  O  O48  1  0.04252874  0.94928700  0.69498833  1
  O  O49  1  0.95747126  0.44928700  0.80501167  1
  O  O50  1  0.95747126  0.05071300  0.30501167  1
  O  O51  1  0.04252874  0.55071300  0.19498833  1
  O  O52  1  0.99808899  0.85295659  0.56567312  1
  O  O53  1  0.00191101  0.35295659  0.93432688  1
  O  O54  1  0.00191101  0.14704341  0.43432688  1
  O  O55  1  0.99808899  0.64704341  0.06567312  1
  O  O56  1  0.28508874  0.29165772  0.74478159  1
  O  O57  1  0.71491126  0.79165772  0.75521841  1
  O  O58  1  0.71491126  0.70834228  0.25521841  1
  O  O59  1  0.28508874  0.20834228  0.24478159  1
  O  O60  1  0.24678291  0.06070041  0.71574386  1
  O  O61  1  0.75321709  0.56070041  0.78425614  1
  O  O62  1  0.75321709  0.93929959  0.28425614  1
  O  O63  1  0.24678291  0.43929959  0.21574386  1
  O  O64  1  0.14627193  0.22690069  0.61784510  1
  O  O65  1  0.85372807  0.72690069  0.88215490  1
  O  O66  1  0.85372807  0.77309931  0.38215490  1
  O  O67  1  0.14627193  0.27309931  0.11784510  1
  O  O68  1  0.46532442  0.09102541  0.76394128  1
  O  O69  1  0.53467558  0.59102541  0.73605872  1
  O  O70  1  0.53467558  0.90897459  0.23605872  1
  O  O71  1  0.46532442  0.40897459  0.26394128  1
  O  O72  1  0.35263375  0.18720056  0.63003353  1
  O  O73  1  0.64736625  0.68720056  0.86996647  1
  O  O74  1  0.64736625  0.81279944  0.36996647  1
  O  O75  1  0.35263375  0.31279944  0.13003353  1
  O  O76  1  0.47235352  0.32220818  0.73917455  1
  O  O77  1  0.52764648  0.82220818  0.76082545  1
  O  O78  1  0.52764648  0.67779182  0.26082545  1
  O  O79  1  0.47235352  0.17779182  0.23917455  1
  O  O80  1  0.45901737  0.84098512  0.86747892  1
  O  O81  1  0.54098263  0.34098512  0.63252108  1
  O  O82  1  0.54098263  0.15901488  0.13252108  1
  O  O83  1  0.45901737  0.65901488  0.36747892  1
  O  O84  1  0.42853059  0.79114889  0.96436045  1
  O  O85  1  0.57146941  0.29114889  0.53563955  1
  O  O86  1  0.57146941  0.20885111  0.03563955  1
  O  O87  1  0.42853059  0.70885111  0.46436045  1
  O  O88  1  0.31307832  0.77891611  0.81620703  1
  O  O89  1  0.68692168  0.27891611  0.68379297  1
  O  O90  1  0.68692168  0.22108389  0.18379297  1
  O  O91  1  0.31307832  0.72108389  0.31620703  1
  O  O92  1  0.41634286  0.45773030  0.89647071  1
  O  O93  1  0.58365714  0.95773030  0.60352929  1
  O  O94  1  0.58365714  0.54226970  0.10352929  1
  O  O95  1  0.41634286  0.04226970  0.39647071  1
  O  O96  1  0.38369563  0.39394510  0.93498701  1
  O  O97  1  0.61630437  0.89394510  0.56501299  1
  O  O98  1  0.61630437  0.60605490  0.06501299  1
  O  O99  1  0.38369563  0.10605490  0.43498701  1
  O  O100  1  0.38492735  0.25456147  0.93725695  1
  O  O101  1  0.61507265  0.75456147  0.56274305  1
  O  O102  1  0.61507265  0.74543853  0.06274305  1
  O  O103  1  0.38492735  0.24543853  0.43725695  1
loop_
_geom_bond_atom_site_label_1
_geom_bond_atom_site_label_2
_geom_bond_distance
_geom_bond_site_symmetry_2
Bi0 O0 2.173300 1_555
Bi0 O8 2.271994 1_556
Bi0 O24 2.330664 1_556
Bi0 O16 2.332922 1_555
Bi1 O1 2.173300 1_555
Bi1 O9 2.271994 1_555
Bi1 O25 2.330664 1_555
Bi1 O17 2.332922 1_555
Bi2 O2 2.173300 1_555
Bi2 O10 2.271994 1_554
Bi2 O26 2.330664 1_554
Bi2 O18 2.332922 1_555
Bi3 O3 2.173300 1_555
Bi3 O11 2.271994 1_555
Bi3 O27 2.330664 1_555
Bi3 O19 2.332922 1_555
Bi4 O4 2.206712 1_556
Bi4 O0 2.220714 1_555
Bi4 O20 2.245313 1_555
Bi4 O24 2.365568 1_556
Bi5 O5 2.206712 1_555
Bi5 O1 2.220714 1_555
Bi5 O21 2.245313 1_555
Bi5 O25 2.365568 1_555
Bi6 O6 2.206712 1_554
Bi6 O2 2.220714 1_555
Bi6 O22 2.245313 1_555
Bi6 O26 2.365568 1_554
Bi7 O7 2.206712 1_555
Bi7 O3 2.220714 1_555
Bi7 O23 2.245313 1_555
Bi7 O27 2.365568 1_555
Bi8 O4 2.209101 1_555
Bi8 O8 2.235154 1_555
Bi8 O28 2.283410 1_555
Bi8 O24 2.360855 1_555
Bi9 O5 2.209101 1_555
Bi9 O9 2.235154 1_555
Bi9 O29 2.283410 1_555
Bi9 O25 2.360855 1_555
Bi10 O6 2.209101 1_555
Bi10 O10 2.235154 1_555
Bi10 O30 2.283410 1_555
Bi10 O26 2.360855 1_555
Bi11 O7 2.209101 1_555
Bi11 O11 2.235154 1_555
Bi11 O31 2.283410 1_555
Bi11 O27 2.360855 1_555
Bi12 O20 2.189123 1_545
Bi12 O12 2.207184 1_556
Bi12 O0 2.213989 1_545
Bi12 O16 2.656144 1_545
Bi13 O21 2.189123 1_555
Bi13 O13 2.207184 1_555
Bi13 O1 2.213989 1_555
Bi13 O17 2.656144 1_555
Bi14 O22 2.189123 1_565
Bi14 O14 2.207184 1_554
Bi14 O2 2.213989 1_565
Bi14 O18 2.656144 1_565
Bi15 O23 2.189123 1_555
Bi15 O15 2.207184 1_555
Bi15 O3 2.213989 1_555
Bi15 O19 2.656144 1_555
Bi16 O4 2.231296 1_555
Bi16 O12 2.237411 1_565
Bi16 O28 2.261637 1_555
Bi16 O20 2.321230 1_554
Bi17 O5 2.231296 1_555
Bi17 O13 2.237411 1_555
Bi17 O29 2.261637 1_555
Bi17 O21 2.321230 1_555
Bi18 O6 2.231296 1_555
Bi18 O14 2.237411 1_545
Bi18 O30 2.261637 1_555
Bi18 O22 2.321230 1_556
Bi19 O7 2.231296 1_555
Bi19 O15 2.237411 1_555
Bi19 O31 2.261637 1_555
Bi19 O23 2.321230 1_555
Bi20 O12 2.210228 1_565
Bi20 O16 2.221244 1_554
Bi20 O8 2.339402 1_555
Bi20 O18 2.421813 1_465
Bi20 O67 2.680159 1_565
Bi20 O28 2.799369 1_555
Bi21 O13 2.210228 1_555
Bi21 O17 2.221244 1_555
Bi21 O9 2.339402 1_555
Bi21 O19 2.421813 1_655
Bi21 O66 2.680159 1_555
Bi21 O29 2.799369 1_555
Bi22 O14 2.210228 1_545
Bi22 O18 2.221244 1_556
Bi22 O10 2.339402 1_555
Bi22 O16 2.421813 1_645
Bi22 O65 2.680159 1_545
Bi22 O30 2.799369 1_555
Bi23 O15 2.210228 1_555
Bi23 O19 2.221244 1_555
Bi23 O11 2.339402 1_555
Bi23 O17 2.421813 1_455
Bi23 O64 2.680159 1_555
Bi23 O31 2.799369 1_555
N0 O40 1.264464 1_555
N0 O36 1.266977 1_555
N0 O32 1.269523 1_555
N1 O41 1.264464 1_555
N1 O37 1.266977 1_555
N1 O33 1.269523 1_555
N2 O42 1.264464 1_555
N2 O38 1.266977 1_555
N2 O34 1.269523 1_555
N3 O43 1.264464 1_555
N3 O39 1.266977 1_555
N3 O35 1.269523 1_555
N4 O44 1.263777 1_555
N4 O52 1.269848 1_455
N4 O48 1.272392 1_555
N5 O45 1.263777 1_555
N5 O53 1.269848 1_655
N5 O49 1.272392 1_555
N6 O46 1.263777 1_555
N6 O54 1.269848 1_655
N6 O50 1.272392 1_555
N7 O47 1.263777 1_555
N7 O55 1.269848 1_455
N7 O51 1.272392 1_555
N8 O56 1.249406 1_555
N8 O60 1.250114 1_555
N8 O64 1.288772 1_555
N9 O57 1.249406 1_555
N9 O61 1.250114 1_555
N9 O65 1.288772 1_555
N10 O58 1.249406 1_555
N10 O62 1.250114 1_555
N10 O66 1.288772 1_555
N11 O59 1.249406 1_555
N11 O63 1.250114 1_555
N11 O67 1.288772 1_555
N12 O72 1.262210 1_555
N12 O68 1.265576 1_555
N12 O76 1.266360 1_555
N13 O73 1.262210 1_555
N13 O69 1.265576 1_555
N13 O77 1.266360 1_555
N14 O74 1.262210 1_555
N14 O70 1.265576 1_555
N14 O78 1.266360 1_555
N15 O75 1.262210 1_555
N15 O71 1.265576 1_555
N15 O79 1.266360 1_555
N16 O80 1.259356 1_555
N16 O84 1.261084 1_555
N16 O88 1.267782 1_555
N17 O81 1.259356 1_555
N17 O85 1.261084 1_555
N17 O89 1.267782 1_555
N18 O82 1.259356 1_555
N18 O86 1.261084 1_555
N18 O90 1.267782 1_555
N19 O83 1.259356 1_555
N19 O87 1.261084 1_555
N19 O91 1.267782 1_555
O92 O96 1.289825 1_555
O93 O97 1.289825 1_555
O94 O98 1.289825 1_555
O95 O99 1.289825 1_555
O100 O96 1.283184 1_555
O101 O97 1.283184 1_555
O102 O98 1.283184 1_555
O103 O99 1.283184 1_555
