# generated using pymatgen
data_Nd2CuSi3Rh2
_symmetry_space_group_name_H-M   'P 1'
_cell_length_a   8.82925139
_cell_length_b   8.82925139
_cell_length_c   4.10340000
_cell_angle_alpha   90.00000000
_cell_angle_beta   90.00000000
_cell_angle_gamma   152.92929087
_symmetry_Int_Tables_number   1
_chemical_formula_structural   Nd2CuSi3Rh2
_chemical_formula_sum   'Nd2 Cu1 Si3 Rh2'
_cell_volume   145.57562866
_cell_formula_units_Z   1
loop_
 _symmetry_equiv_pos_site_id
 _symmetry_equiv_pos_as_xyz
  1  'x, y, z'
loop_
 _atom_site_type_symbol
 _atom_site_label
 _atom_site_symmetry_multiplicity
 _atom_site_fract_x
 _atom_site_fract_y
 _atom_site_fract_z
 _atom_site_occupancy
  Nd  Nd0  1  0.89757800  0.10242200  0.00000000  1
  Nd  Nd1  1  0.10254200  0.89745800  0.50000000  1
  Cu  Cu0  1  0.53450500  0.46549500  0.00000000  1
  Si  Si0  1  0.46633500  0.53366500  0.50000000  1
  Si  Si1  1  0.67518200  0.32481800  0.00000000  1
  Si  Si2  1  0.32407200  0.67592800  0.50000000  1
  Rh  Rh0  1  0.24983300  0.75016700  0.00000000  1
  Rh  Rh1  1  0.74995500  0.25004500  0.50000000  1
loop_
_geom_bond_atom_site_label_1
_geom_bond_atom_site_label_2
_geom_bond_distance
_geom_bond_site_symmetry_2
Nd0 Si0 3.142144 1_544
Nd0 Si0 3.142144 1_545
Nd0 Si0 3.142144 1_654
Nd0 Si0 3.142144 1_655
Nd0 Si2 3.173673 1_654
Nd0 Si2 3.173673 1_655
Nd0 Si2 3.173673 1_544
Nd0 Si2 3.173673 1_545
Nd0 Rh1 3.260775 1_555
Nd0 Rh1 3.260775 1_554
Nd0 Rh0 3.271696 1_655
Nd0 Rh0 3.271696 1_545
Nd1 Si0 3.120633 1_455
Nd1 Si0 3.120633 1_565
Nd1 Si1 3.167790 1_565
Nd1 Si1 3.167790 1_566
Nd1 Si1 3.167790 1_455
Nd1 Si1 3.167790 1_456
Nd1 Rh0 3.256347 1_555
Nd1 Rh0 3.256347 1_556
Nd1 Rh1 3.267279 1_565
Nd1 Rh1 3.267279 1_455
Cu0 Si0 2.362029 1_555
Cu0 Si0 2.362029 1_554
Cu0 Si1 2.415150 1_555
Cu0 Nd0 3.129906 1_565
Cu0 Nd0 3.129906 1_455
Cu0 Nd1 3.137521 1_654
Cu0 Nd1 3.137521 1_655
Cu0 Nd1 3.137521 1_544
Cu0 Nd1 3.137521 1_545
Si0 Si2 2.442378 1_555
Rh0 Si2 2.415351 1_555
Rh0 Si2 2.415351 1_554
Rh0 Si1 2.431609 1_455
Rh0 Si1 2.431609 1_565
Rh1 Si1 2.420202 1_556
Rh1 Si1 2.420202 1_555
Rh1 Si2 2.426790 1_545
Rh1 Si2 2.426790 1_655
