# generated using pymatgen
data_YGa2Ni
_symmetry_space_group_name_H-M   'P 1'
_cell_length_a   4.06313663
_cell_length_b   5.47592039
_cell_length_c   6.61848378
_cell_angle_alpha   90.00000000
_cell_angle_beta   90.00000000
_cell_angle_gamma   111.77732979
_symmetry_Int_Tables_number   1
_chemical_formula_structural   YGa2Ni
_chemical_formula_sum   'Y2 Ga4 Ni2'
_cell_volume   136.74801466
_cell_formula_units_Z   2
loop_
 _symmetry_equiv_pos_site_id
 _symmetry_equiv_pos_as_xyz
  1  'x, y, z'
loop_
 _atom_site_type_symbol
 _atom_site_label
 _atom_site_symmetry_multiplicity
 _atom_site_fract_x
 _atom_site_fract_y
 _atom_site_fract_z
 _atom_site_occupancy
  Y  Y0  1  0.06876955  0.13754010  0.75000000  1
  Y  Y1  1  0.93123045  0.86245990  0.25000000  1
  Ga  Ga0  1  0.35115787  0.70231474  0.94489712  1
  Ga  Ga1  1  0.35115787  0.70231474  0.55510288  1
  Ga  Ga2  1  0.64884213  0.29768526  0.05510288  1
  Ga  Ga3  1  0.64884213  0.29768526  0.44489712  1
  Ni  Ni0  1  0.78815078  0.57630056  0.75000000  1
  Ni  Ni1  1  0.21184922  0.42369944  0.25000000  1
loop_
_geom_bond_atom_site_label_1
_geom_bond_atom_site_label_2
_geom_bond_distance
_geom_bond_site_symmetry_2
Y0 Y1 3.592738 1_446
Y0 Y1 3.592738 1_445
Ga0 Ni1 2.466768 1_556
Ga0 Ni0 2.490340 1_455
Ga0 Ni0 2.490340 1_555
Ga0 Ga1 2.579847 1_555
Ga0 Y1 2.977935 1_556
Ga0 Y1 2.977935 1_456
Ga0 Ga2 2.982104 1_556
Ga0 Ga2 2.982109 1_456
Ga0 Ga2 3.114154 1_566
Ga0 Y0 3.148329 1_555
Ga0 Y0 3.269448 1_665
Ga0 Y0 3.269453 1_565
Ga1 Ni1 2.466768 1_555
Ga1 Ni0 2.490340 1_455
Ga1 Ni0 2.490340 1_555
Ga1 Y1 2.977935 1_555
Ga1 Y1 2.977935 1_455
Ga1 Ga3 2.982104 1_555
Ga1 Ga3 2.982109 1_455
Ga1 Ga3 3.114154 1_565
Ga1 Y0 3.148329 1_555
Ga1 Y0 3.269448 1_665
Ga1 Y0 3.269453 1_565
Ga2 Ni0 2.466768 1_554
Ga2 Ni1 2.490340 1_655
Ga2 Ni1 2.490340 1_555
Ga2 Ga3 2.579847 1_555
Ga2 Y0 2.977935 1_554
Ga2 Y0 2.977935 1_654
Ga2 Y1 3.148329 1_555
Ga2 Y1 3.269448 1_445
Ga2 Y1 3.269453 1_545
Ga3 Ni0 2.466768 1_555
Ga3 Ni1 2.490340 1_655
Ga3 Ni1 2.490340 1_555
Ga3 Y0 2.977935 1_555
Ga3 Y0 2.977935 1_655
Ga3 Y1 3.148329 1_555
Ga3 Y1 3.269448 1_445
Ga3 Y1 3.269453 1_545
Ni0 Y0 2.853970 1_665
Ni0 Y0 3.017496 1_655
Ni0 Y0 3.017501 1_555
Ni1 Y1 2.853970 1_445
Ni1 Y1 3.017496 1_455
Ni1 Y1 3.017501 1_555
