# generated using pymatgen
data_CsBa2Co2F9
_symmetry_space_group_name_H-M   'P 1'
_cell_length_a   7.96310093
_cell_length_b   7.96310093
_cell_length_c   7.96310101
_cell_angle_alpha   44.31315379
_cell_angle_beta   44.31315379
_cell_angle_gamma   44.31315708
_symmetry_Int_Tables_number   1
_chemical_formula_structural   CsBa2Co2F9
_chemical_formula_sum   'Cs1 Ba2 Co2 F9'
_cell_volume   223.96378266
_cell_formula_units_Z   1
loop_
 _symmetry_equiv_pos_site_id
 _symmetry_equiv_pos_as_xyz
  1  'x, y, z'
loop_
 _atom_site_type_symbol
 _atom_site_label
 _atom_site_symmetry_multiplicity
 _atom_site_fract_x
 _atom_site_fract_y
 _atom_site_fract_z
 _atom_site_occupancy
  Cs  Cs0  1  0.21449000  0.21449000  0.21449000  1
  Ba  Ba0  1  0.99915300  0.99915300  0.99915300  1
  Ba  Ba1  1  0.79302600  0.79302600  0.79302600  1
  Co  Co0  1  0.38944300  0.38944300  0.38944300  1
  Co  Co1  1  0.60542200  0.60542200  0.60542200  1
  F  F0  1  0.26562600  0.77171800  0.26562600  1
  F  F1  1  0.77171800  0.26562600  0.26562600  1
  F  F2  1  0.26562600  0.26562600  0.77171800  1
  F  F3  1  0.73448600  0.21790100  0.73448600  1
  F  F4  1  0.21790100  0.73448600  0.73448600  1
  F  F5  1  0.73448600  0.73448600  0.21790100  1
  F  F6  1  0.98761500  0.51050500  0.51050500  1
  F  F7  1  0.51050500  0.51050500  0.98761500  1
  F  F8  1  0.51050500  0.98761500  0.51050500  1
loop_
_geom_bond_atom_site_label_1
_geom_bond_atom_site_label_2
_geom_bond_distance
_geom_bond_site_symmetry_2
Cs0 F1 2.981814 1_455
Cs0 F0 2.981814 1_545
Cs0 F2 2.981814 1_554
Cs0 F3 3.019817 1_554
Cs0 F4 3.019817 1_554
Cs0 F3 3.019817 1_455
Cs0 F4 3.019817 1_545
Cs0 F5 3.019817 1_455
Cs0 F5 3.019817 1_545
Cs0 F7 3.184273 1_554
Cs0 F8 3.184273 1_545
Cs0 F6 3.184273 1_455
Ba0 F2 2.780241 1_665
Ba0 F1 2.780241 1_566
Ba0 F0 2.780241 1_656
Ba0 F5 2.786948 1_556
Ba0 F3 2.786949 1_565
Ba0 F4 2.786949 1_655
Ba0 F8 3.005311 1_556
Ba0 F6 3.005311 1_556
Ba0 F6 3.005311 1_565
Ba0 F8 3.005311 1_655
Ba0 F7 3.005311 1_565
Ba0 F7 3.005311 1_655
Ba1 F4 2.770992 1_655
Ba1 F3 2.770992 1_565
Ba1 F5 2.770992 1_556
Ba1 F0 3.052422 1_556
Ba1 F1 3.052422 1_556
Ba1 F0 3.052422 1_655
Ba1 F1 3.052422 1_565
Ba1 F2 3.052422 1_655
Ba1 F2 3.052422 1_565
Ba1 F7 3.128790 1_555
Ba1 F6 3.128790 1_555
Ba1 F8 3.128790 1_555
Co0 F2 2.002904 1_555
Co0 F0 2.002904 1_555
Co0 F1 2.002904 1_555
Co0 F7 2.144426 1_554
Co0 F8 2.144426 1_545
Co0 F6 2.144426 1_455
Co1 F5 2.017293 1_555
Co1 F3 2.017293 1_555
Co1 F4 2.017293 1_555
Co1 F7 2.153786 1_555
Co1 F8 2.153786 1_555
Co1 F6 2.153786 1_555
