# generated using pymatgen
data_MoW(SeS)2
_symmetry_space_group_name_H-M   'P 1'
_cell_length_a   3.25583541
_cell_length_b   3.25583541
_cell_length_c   36.35693400
_cell_angle_alpha   90.00000000
_cell_angle_beta   90.00000000
_cell_angle_gamma   119.99998792
_symmetry_Int_Tables_number   1
_chemical_formula_structural   MoW(SeS)2
_chemical_formula_sum   'Mo2 W2 Se4 S4'
_cell_volume   333.76655759
_cell_formula_units_Z   2
loop_
 _symmetry_equiv_pos_site_id
 _symmetry_equiv_pos_as_xyz
  1  'x, y, z'
loop_
 _atom_site_type_symbol
 _atom_site_label
 _atom_site_symmetry_multiplicity
 _atom_site_fract_x
 _atom_site_fract_y
 _atom_site_fract_z
 _atom_site_occupancy
  Mo  Mo0  1  0.00000000  0.00000000  0.09390400  1
  Mo  Mo1  1  0.00000000  0.00000000  0.46969100  1
  W  W0  1  0.33333300  0.66666700  0.28182600  1
  W  W1  1  0.33333300  0.66666700  0.65755100  1
  Se  Se0  1  0.33333300  0.66666700  0.04712300  1
  Se  Se1  1  0.33333300  0.66666700  0.42291600  1
  Se  Se2  1  0.33333300  0.66666700  0.14066300  1
  Se  Se3  1  0.33333300  0.66666700  0.51639200  1
  S  S0  1  0.00000000  0.00000000  0.32447500  1
  S  S1  1  0.00000000  0.00000000  0.70025300  1
  S  S2  1  0.00000000  0.00000000  0.23910100  1
  S  S3  1  0.00000000  0.00000000  0.61485300  1
loop_
_geom_bond_atom_site_label_1
_geom_bond_atom_site_label_2
_geom_bond_distance
_geom_bond_site_symmetry_2
Mo0 Se2 2.534468 1_545
Mo0 Se2 2.534470 1_445
Mo0 Se2 2.534470 1_555
Mo0 Se0 2.535005 1_545
Mo0 Se0 2.535007 1_445
Mo0 Se0 2.535007 1_555
Mo1 Se3 2.533054 1_545
Mo1 Se3 2.533056 1_445
Mo1 Se3 2.533056 1_555
Mo1 Se1 2.534858 1_545
Mo1 Se1 2.534861 1_445
Mo1 Se1 2.534861 1_555
S0 W0 2.436760 1_545
S0 W0 2.436763 1_445
S0 W0 2.436763 1_555
S1 W1 2.437987 1_545
S1 W1 2.437989 1_445
S1 W1 2.437989 1_555
S2 W0 2.438519 1_545
S2 W0 2.438522 1_555
S2 W0 2.438522 1_445
S3 W1 2.437894 1_545
S3 W1 2.437897 1_555
S3 W1 2.437897 1_445
