# generated using pymatgen
data_Na3NpO10
_symmetry_space_group_name_H-M   'P 1'
_cell_length_a   5.24057900
_cell_length_b   5.74073308
_cell_length_c   7.82402563
_cell_angle_alpha   102.97754444
_cell_angle_beta   108.53998383
_cell_angle_gamma   95.09246051
_symmetry_Int_Tables_number   1
_chemical_formula_structural   Na3NpO10
_chemical_formula_sum   'Na3 Np1 O10'
_cell_volume   214.17494804
_cell_formula_units_Z   1
loop_
 _symmetry_equiv_pos_site_id
 _symmetry_equiv_pos_as_xyz
  1  'x, y, z'
loop_
 _atom_site_type_symbol
 _atom_site_label
 _atom_site_symmetry_multiplicity
 _atom_site_fract_x
 _atom_site_fract_y
 _atom_site_fract_z
 _atom_site_occupancy
  Na  Na0  1  0.50000000  0.50000000  0.00000000  1
  Na  Na1  1  0.61916200  0.20025000  0.36771400  1
  Na  Na2  1  0.38083800  0.79975000  0.63228600  1
  Np  Np0  1  0.00000000  0.00000000  0.00000000  1
  O  O0  1  0.91118900  0.95450400  0.28145800  1
  O  O1  1  0.08881100  0.04549600  0.71854200  1
  O  O2  1  0.71057100  0.17388800  0.94628000  1
  O  O3  1  0.28942900  0.82611200  0.05372000  1
  O  O4  1  0.25064000  0.28855600  0.14732100  1
  O  O5  1  0.74936000  0.71144400  0.85267900  1
  O  O6  1  0.23597800  0.29235600  0.56446100  1
  O  O7  1  0.76402200  0.70764400  0.43553900  1
  O  O8  1  0.09670900  0.27283700  0.67924800  1
  O  O9  1  0.90329100  0.72716300  0.32075200  1
loop_
_geom_bond_atom_site_label_1
_geom_bond_atom_site_label_2
_geom_bond_distance
_geom_bond_site_symmetry_2
Na0 O3 2.282003 1_555
Na0 O2 2.282003 1_554
Na0 O4 2.411305 1_555
Na0 O5 2.411305 1_554
Na0 O9 2.670815 1_555
Na0 O8 2.670815 1_554
Na1 O0 2.323846 1_545
Na1 O4 2.325692 1_555
Na1 O8 2.803106 1_655
Na1 O3 2.811772 1_545
Na1 O7 2.828322 1_555
Na1 O6 2.910394 1_555
Na2 O1 2.323846 1_565
Na2 O5 2.325692 1_555
Na2 O9 2.803106 1_455
Na2 O2 2.811772 1_565
Na2 O6 2.828322 1_555
Na2 O7 2.910394 1_555
Np0 O2 1.877654 1_454
Np0 O3 1.877654 1_545
Np0 O4 1.895070 1_555
Np0 O5 1.895070 1_444
Np0 O1 2.454130 1_554
Np0 O0 2.454130 1_445
O0 O9 1.406500 1_555
O1 O8 1.406500 1_555
O6 O8 1.341392 1_555
O7 O9 1.341392 1_555
