# generated using pymatgen
data_RbErS2O9
_symmetry_space_group_name_H-M   'P 1'
_cell_length_a   8.55736900
_cell_length_b   10.59367819
_cell_length_c   10.15393430
_cell_angle_alpha   120.17599367
_cell_angle_beta   90.00000000
_cell_angle_gamma   90.00000000
_symmetry_Int_Tables_number   1
_chemical_formula_structural   RbErS2O9
_chemical_formula_sum   'Rb4 Er4 S8 O36'
_cell_volume   795.75447701
_cell_formula_units_Z   4
loop_
 _symmetry_equiv_pos_site_id
 _symmetry_equiv_pos_as_xyz
  1  'x, y, z'
loop_
 _atom_site_type_symbol
 _atom_site_label
 _atom_site_symmetry_multiplicity
 _atom_site_fract_x
 _atom_site_fract_y
 _atom_site_fract_z
 _atom_site_occupancy
  Rb  Rb0  1  0.33178500  0.68261900  0.96416100  1
  Rb  Rb1  1  0.66821500  0.31738100  0.03583900  1
  Rb  Rb2  1  0.83178500  0.81738100  0.53583900  1
  Rb  Rb3  1  0.16821500  0.18261900  0.46416100  1
  Er  Er0  1  0.36896300  0.96817600  0.71790100  1
  Er  Er1  1  0.63103700  0.03182400  0.28209900  1
  Er  Er2  1  0.86896300  0.53182400  0.78209900  1
  Er  Er3  1  0.13103700  0.46817600  0.21790100  1
  S  S0  1  0.13191100  0.31603000  0.87598900  1
  S  S1  1  0.86808900  0.68397000  0.12401100  1
  S  S2  1  0.63191100  0.18397000  0.62401100  1
  S  S3  1  0.36808900  0.81603000  0.37598900  1
  S  S4  1  0.19666100  0.60881500  0.59814400  1
  S  S5  1  0.80333900  0.39118500  0.40185600  1
  S  S6  1  0.69666100  0.89118500  0.90185600  1
  S  S7  1  0.30333900  0.10881500  0.09814400  1
  O  O0  1  0.79092500  0.02643800  0.97068100  1
  O  O1  1  0.20907500  0.97356200  0.02931900  1
  O  O2  1  0.29092500  0.47356200  0.52931900  1
  O  O3  1  0.70907500  0.52643800  0.47068100  1
  O  O4  1  0.20569400  0.17631000  0.76365800  1
  O  O5  1  0.79430600  0.82369000  0.23634200  1
  O  O6  1  0.70569400  0.32369000  0.73634200  1
  O  O7  1  0.29430600  0.67631000  0.26365800  1
  O  O8  1  0.30057600  0.74038400  0.68000800  1
  O  O9  1  0.69942400  0.25961600  0.31999200  1
  O  O10  1  0.80057600  0.75961600  0.81999200  1
  O  O11  1  0.19942400  0.24038400  0.18000800  1
  O  O12  1  0.39168400  0.12011500  0.97792100  1
  O  O13  1  0.60831600  0.87988500  0.02207900  1
  O  O14  1  0.89168400  0.37988500  0.52207900  1
  O  O15  1  0.10831600  0.62011500  0.47792100  1
  O  O16  1  0.11621700  0.93927600  0.77817200  1
  O  O17  1  0.88378300  0.06072400  0.22182900  1
  O  O18  1  0.61621700  0.56072400  0.72182800  1
  O  O19  1  0.38378300  0.43927600  0.27817200  1
  O  O20  1  0.25154600  0.41988000  0.98632400  1
  O  O21  1  0.74845400  0.58012000  0.01367600  1
  O  O22  1  0.75154600  0.08012000  0.51367600  1
  O  O23  1  0.24845400  0.91988000  0.48632400  1
  O  O24  1  0.01314300  0.29976000  0.97333600  1
  O  O25  1  0.98685700  0.70024000  0.02666400  1
  O  O26  1  0.51314300  0.20024000  0.52666400  1
  O  O27  1  0.48685700  0.79976000  0.47333600  1
  O  O28  1  0.06001900  0.38093900  0.78938000  1
  O  O29  1  0.93998100  0.61906100  0.21062000  1
  O  O30  1  0.56001900  0.11906100  0.71062000  1
  O  O31  1  0.43998100  0.88093900  0.28938000  1
  O  O32  1  0.58954000  0.88833200  0.78566100  1
  O  O33  1  0.41046000  0.11166800  0.21433900  1
  O  O34  1  0.08954000  0.61166800  0.71433900  1
  O  O35  1  0.91046000  0.38833200  0.28566100  1
loop_
_geom_bond_atom_site_label_1
_geom_bond_atom_site_label_2
_geom_bond_distance
_geom_bond_site_symmetry_2
Er0 O12 2.308053 1_565
Er0 O16 2.309654 1_555
Er0 O32 2.310145 1_555
Er0 O30 2.313494 1_565
Er0 O8 2.319570 1_555
Er0 O23 2.375907 1_555
Er0 O27 2.431795 1_555
Er0 O4 2.449415 1_565
Er1 O13 2.308053 1_545
Er1 O17 2.309651 1_555
Er1 O33 2.310145 1_555
Er1 O31 2.313494 1_545
Er1 O9 2.319570 1_555
Er1 O22 2.375907 1_555
Er1 O26 2.431795 1_555
Er1 O5 2.449415 1_545
Er2 O14 2.308053 1_555
Er2 O18 2.309654 1_555
Er2 O34 2.310145 1_655
Er2 O28 2.313494 1_655
Er2 O10 2.319570 1_555
Er2 O21 2.375907 1_556
Er2 O25 2.431795 1_556
Er2 O6 2.449415 1_555
Er3 O15 2.308053 1_555
Er3 O19 2.309654 1_555
Er3 O35 2.310145 1_455
Er3 O29 2.313494 1_455
Er3 O11 2.319570 1_555
Er3 O20 2.375907 1_554
Er3 O24 2.431795 1_554
Er3 O7 2.449415 1_555
O0 S6 1.478316 1_545
O0 Rb1 2.998341 1_556
O1 S7 1.478316 1_565
O1 Rb0 2.998341 1_554
O2 S4 1.478316 1_555
O2 Rb3 2.998341 1_555
O3 S5 1.478316 1_555
O3 Rb2 2.998341 1_555
O4 S0 1.480956 1_555
O4 Rb3 3.091890 1_555
O5 S1 1.480956 1_555
O5 Rb2 3.091890 1_555
O6 S2 1.480956 1_555
O6 Rb1 3.091890 1_556
O7 S3 1.480956 1_555
O7 Rb0 3.091890 1_554
O8 S4 1.503211 1_555
O8 Rb0 3.247399 1_555
O9 S5 1.503211 1_555
O9 Rb1 3.247399 1_555
O10 S6 1.503211 1_555
O10 Rb2 3.247399 1_555
O11 S7 1.503211 1_555
O11 Rb3 3.247399 1_555
O12 S7 1.490964 1_556
O12 Rb1 3.012844 1_556
O13 S6 1.490964 1_554
O13 Rb0 3.012844 1_554
O14 S5 1.490964 1_555
O14 Rb3 3.012844 1_655
O15 S4 1.490964 1_555
O15 Rb2 3.012844 1_455
O16 Rb2 3.232982 1_455
O17 Rb3 3.232976 1_655
O18 Rb0 3.232982 1_555
O19 Rb1 3.232982 1_555
O20 S0 1.508138 1_555
O20 Rb0 2.983115 1_555
O21 S1 1.508138 1_555
O21 Rb1 2.983115 1_555
O22 S2 1.508138 1_555
O22 Rb2 2.983115 1_545
O23 S3 1.508138 1_555
O23 Rb3 2.983115 1_565
O24 S0 1.486935 1_555
O24 Rb1 3.005149 1_456
O25 S1 1.486935 1_555
O25 Rb0 3.005149 1_654
O26 S2 1.486935 1_555
O26 Rb3 3.005149 1_555
O27 S3 1.486935 1_555
O27 Rb2 3.005149 1_555
O28 S0 1.494195 1_555
O28 Rb3 3.033372 1_555
O29 S1 1.494195 1_555
O29 Rb2 3.033372 1_555
O30 S2 1.494195 1_555
O30 Rb1 3.033372 1_556
O31 S3 1.494195 1_555
O31 Rb0 3.033372 1_554
O32 S6 1.482353 1_555
O32 Rb2 3.062701 1_555
O33 S7 1.482353 1_555
O33 Rb3 3.062701 1_555
O34 S4 1.482353 1_555
O34 Rb0 3.062701 1_555
O35 S5 1.482353 1_555
O35 Rb1 3.062701 1_555
