# generated using pymatgen
data_Cu
_symmetry_space_group_name_H-M   'P 1'
_cell_length_a   4.47642420
_cell_length_b   23.14050791
_cell_length_c   44.44748345
_cell_angle_alpha   101.93424184
_cell_angle_beta   90.00000000
_cell_angle_gamma   90.00000000
_symmetry_Int_Tables_number   1
_chemical_formula_structural   Cu
_chemical_formula_sum   Cu8
_cell_volume   4504.65297820
_cell_formula_units_Z   8
loop_
 _symmetry_equiv_pos_site_id
 _symmetry_equiv_pos_as_xyz
  1  'x, y, z'
loop_
 _atom_site_type_symbol
 _atom_site_label
 _atom_site_symmetry_multiplicity
 _atom_site_fract_x
 _atom_site_fract_y
 _atom_site_fract_z
 _atom_site_occupancy
  Cu  Cu0_0  1  0.25000000  0.46720000  0.36095000  1
  Cu  Cu0_1  1  0.25000000  0.46720000  0.86095000  1
  Cu  Cu0_2  1  0.25000000  0.96720000  0.36095000  1
  Cu  Cu0_3  1  0.25000000  0.96720000  0.86095000  1
  Cu  Cu0_4  1  0.75000000  0.46720000  0.36095000  1
  Cu  Cu0_5  1  0.75000000  0.46720000  0.86095000  1
  Cu  Cu0_6  1  0.75000000  0.96720000  0.36095000  1
  Cu  Cu0_7  1  0.75000000  0.96720000  0.86095000  1
loop_
_geom_bond_atom_site_label_1
_geom_bond_atom_site_label_2
_geom_bond_distance
_geom_bond_site_symmetry_2
Cu0_0 Cu0_4 2.238212 1_555
Cu0_0 Cu0_4 2.238212 1_455
Cu0_1 Cu0_5 2.238212 1_455
Cu0_1 Cu0_5 2.238212 1_555
Cu0_2 Cu0_6 2.238212 1_455
Cu0_2 Cu0_6 2.238212 1_555
Cu0_3 Cu0_7 2.238212 1_555
Cu0_3 Cu0_7 2.238212 1_455
