# generated using pymatgen
data_SrEuNbBiO6
_symmetry_space_group_name_H-M   'P 1'
_cell_length_a   8.79302043
_cell_length_b   8.75528061
_cell_length_c   8.80387955
_cell_angle_alpha   90.00000000
_cell_angle_beta   90.00000000
_cell_angle_gamma   90.00000000
_symmetry_Int_Tables_number   1
_chemical_formula_structural   SrEuNbBiO6
_chemical_formula_sum   'Sr4 Eu4 Nb4 Bi4 O24'
_cell_volume   677.76984777
_cell_formula_units_Z   4
loop_
 _symmetry_equiv_pos_site_id
 _symmetry_equiv_pos_as_xyz
  1  'x, y, z'
loop_
 _atom_site_type_symbol
 _atom_site_label
 _atom_site_symmetry_multiplicity
 _atom_site_fract_x
 _atom_site_fract_y
 _atom_site_fract_z
 _atom_site_occupancy
  Sr  Sr0  1  -0.00000000  0.50000000  0.50000000  1
  Sr  Sr1  1  0.50000000  0.50000000  0.00000000  1
  Sr  Sr2  1  0.50000000  -0.00000000  0.00000000  1
  Sr  Sr3  1  -0.00000000  0.50000000  0.00000000  1
  Eu  Eu0  1  0.50000000  -0.00000000  0.50000000  1
  Eu  Eu1  1  -0.00000000  -0.00000000  0.50000000  1
  Eu  Eu2  1  -0.00000000  -0.00000000  0.00000000  1
  Eu  Eu3  1  0.50000000  0.50000000  0.50000000  1
  Nb  Nb0  1  0.25083295  0.25115546  0.24771893  1
  Nb  Nb1  1  0.74916705  0.74884454  0.24771893  1
  Nb  Nb2  1  0.74916705  0.25115546  0.75228107  1
  Nb  Nb3  1  0.25083295  0.74884454  0.75228107  1
  Bi  Bi0  1  0.74951055  0.75031901  0.75015905  1
  Bi  Bi1  1  0.25048945  0.24968099  0.75015905  1
  Bi  Bi2  1  0.25048945  0.75031901  0.24984095  1
  Bi  Bi3  1  0.74951055  0.24968099  0.24984095  1
  O  O0  1  0.02063039  0.19948370  0.29044772  1
  O  O1  1  0.97936961  0.80051630  0.29044772  1
  O  O2  1  0.97936961  0.19948370  0.70955228  1
  O  O3  1  0.02063039  0.80051630  0.70955228  1
  O  O4  1  0.28901215  0.02080925  0.20290285  1
  O  O5  1  0.28901215  0.97919075  0.79709715  1
  O  O6  1  0.71098785  0.97919075  0.20290285  1
  O  O7  1  0.71098785  0.02080925  0.79709715  1
  O  O8  1  0.20175023  0.28781738  0.02248677  1
  O  O9  1  0.79824977  0.28781738  0.97751323  1
  O  O10  1  0.20175023  0.71218262  0.97751323  1
  O  O11  1  0.79824977  0.71218262  0.02248677  1
  O  O12  1  0.47827988  0.29792025  0.21213006  1
  O  O13  1  0.52172012  0.70207975  0.21213006  1
  O  O14  1  0.52172012  0.29792025  0.78786994  1
  O  O15  1  0.47827988  0.70207975  0.78786994  1
  O  O16  1  0.21203349  0.47734748  0.29806649  1
  O  O17  1  0.21203349  0.52265252  0.70193351  1
  O  O18  1  0.78796651  0.52265252  0.29806649  1
  O  O19  1  0.78796651  0.47734748  0.70193351  1
  O  O20  1  0.30160948  0.20760300  0.48045247  1
  O  O21  1  0.69839052  0.20760300  0.51954753  1
  O  O22  1  0.30160948  0.79239700  0.51954753  1
  O  O23  1  0.69839052  0.79239700  0.48045247  1
loop_
_geom_bond_atom_site_label_1
_geom_bond_atom_site_label_2
_geom_bond_distance
_geom_bond_site_symmetry_2
Eu0 O22 2.525169 1_545
Eu0 O23 2.525169 1_545
Eu0 O21 2.525169 1_555
Eu0 O20 2.525169 1_555
Eu1 O0 2.546930 1_555
Eu1 O1 2.546930 1_445
Eu1 O2 2.546930 1_455
Eu1 O3 2.546930 1_545
Eu2 O10 3.088082 1_544
Eu2 O9 3.088082 1_454
Eu2 O8 3.088082 1_555
Eu2 O11 3.088082 1_445
Eu2 O2 3.101916 1_454
Eu2 O3 3.101916 1_544
Eu2 O1 3.101916 1_445
Eu2 O0 3.101916 1_555
Eu2 O5 3.111644 1_544
Eu2 O7 3.111644 1_454
Eu2 O6 3.111644 1_445
Eu2 O4 3.111644 1_555
Eu3 O15 3.096743 1_555
Eu3 O14 3.096743 1_555
Eu3 O12 3.096743 1_555
Eu3 O13 3.096743 1_555
Eu3 O18 3.100227 1_555
Eu3 O19 3.100227 1_555
Eu3 O16 3.100227 1_555
Eu3 O17 3.100227 1_555
Eu3 O20 3.102647 1_555
Eu3 O23 3.102647 1_555
Eu3 O21 3.102647 1_555
Eu3 O22 3.102647 1_555
Nb0 O8 2.054570 1_555
Nb0 O16 2.057851 1_555
Nb0 O12 2.065331 1_555
Nb0 O4 2.082220 1_555
Nb0 O0 2.107953 1_555
Nb0 O20 2.131425 1_555
Nb1 O11 2.054570 1_555
Nb1 O18 2.057851 1_555
Nb1 O13 2.065331 1_555
Nb1 O6 2.082220 1_555
Nb1 O1 2.107953 1_555
Nb1 O23 2.131425 1_555
Nb2 O9 2.054570 1_555
Nb2 O19 2.057851 1_555
Nb2 O14 2.065331 1_555
Nb2 O7 2.082220 1_555
Nb2 O2 2.107953 1_555
Nb2 O21 2.131425 1_555
Nb3 O10 2.054570 1_555
Nb3 O17 2.057851 1_555
Nb3 O15 2.065331 1_555
Nb3 O5 2.082220 1_555
Nb3 O3 2.107953 1_555
Nb3 O22 2.131425 1_555
Bi0 O7 2.427748 1_565
Bi0 O23 2.444556 1_555
Bi0 O15 2.444694 1_555
Bi0 O3 2.450354 1_655
Bi0 O19 2.450801 1_555
Bi0 O11 2.458323 1_556
Bi1 O5 2.427748 1_545
Bi1 O20 2.444556 1_555
Bi1 O14 2.444694 1_555
Bi1 O2 2.450354 1_455
Bi1 O17 2.450801 1_555
Bi1 O8 2.458323 1_556
Bi2 O4 2.427748 1_565
Bi2 O22 2.444556 1_555
Bi2 O13 2.444694 1_555
Bi2 O1 2.450354 1_455
Bi2 O16 2.450801 1_555
Bi2 O10 2.458323 1_554
Bi3 O6 2.427748 1_545
Bi3 O21 2.444556 1_555
Bi3 O12 2.444694 1_555
Bi3 O0 2.450354 1_655
Bi3 O18 2.450801 1_555
Bi3 O9 2.458323 1_554
O4 Sr2 2.581864 1_555
O5 Sr2 2.581864 1_566
O6 Sr2 2.581864 1_565
O7 Sr2 2.581864 1_556
O8 Sr3 2.576308 1_555
O9 Sr3 2.576308 1_656
O10 Sr3 2.576308 1_556
O11 Sr3 2.576308 1_655
O12 Sr1 2.579648 1_555
O13 Sr1 2.579648 1_555
O14 Sr1 2.579648 1_556
O15 Sr1 2.579648 1_556
O16 Sr0 2.583785 1_555
O17 Sr0 2.583785 1_555
O18 Sr0 2.583785 1_655
O19 Sr0 2.583785 1_655
