# generated using pymatgen
data_CaMn(GeO3)2
_symmetry_space_group_name_H-M   'P 1'
_cell_length_a   5.53370083
_cell_length_b   6.97161181
_cell_length_c   6.97160000
_cell_angle_alpha   83.52073543
_cell_angle_beta   79.30370881
_cell_angle_gamma   79.30348216
_symmetry_Int_Tables_number   1
_chemical_formula_structural   CaMn(GeO3)2
_chemical_formula_sum   'Ca2 Mn2 Ge4 O12'
_cell_volume   258.83337745
_cell_formula_units_Z   2
loop_
 _symmetry_equiv_pos_site_id
 _symmetry_equiv_pos_as_xyz
  1  'x, y, z'
loop_
 _atom_site_type_symbol
 _atom_site_label
 _atom_site_symmetry_multiplicity
 _atom_site_fract_x
 _atom_site_fract_y
 _atom_site_fract_z
 _atom_site_occupancy
  Ca  Ca0  1  0.74999800  0.30326600  0.69673700  1
  Ca  Ca1  1  0.24999200  0.69673700  0.30326800  1
  Mn  Mn0  1  0.25011500  0.09215200  0.90782200  1
  Mn  Mn1  1  0.75000800  0.90782000  0.09218000  1
  Ge  Ge0  1  0.76957800  0.38409400  0.18946000  1
  Ge  Ge1  1  0.73040700  0.81053800  0.61590300  1
  Ge  Ge2  1  0.23040600  0.61590400  0.81053500  1
  Ge  Ge3  1  0.26957500  0.18946600  0.38409800  1
  O  O0  1  0.52069700  0.32406100  0.39064200  1
  O  O1  1  0.97928300  0.60936200  0.67594100  1
  O  O2  1  0.47928300  0.67595100  0.60935500  1
  O  O3  1  0.02070100  0.39064600  0.32405100  1
  O  O4  1  0.14878400  0.11292300  0.62171200  1
  O  O5  1  0.35120600  0.37829200  0.88707300  1
  O  O6  1  0.85120600  0.88707900  0.37829200  1
  O  O7  1  0.64877800  0.62171300  0.11292400  1
  O  O8  1  0.85788400  0.20860700  0.01782400  1
  O  O9  1  0.64211000  0.98217600  0.79139200  1
  O  O10  1  0.14210700  0.79138800  0.98217600  1
  O  O11  1  0.35788000  0.01782400  0.20861300  1
loop_
_geom_bond_atom_site_label_1
_geom_bond_atom_site_label_2
_geom_bond_distance
_geom_bond_site_symmetry_2
Ca0 O4 2.354874 1_655
Ca0 O5 2.354883 1_555
Ca0 O8 2.412301 1_556
Ca0 O9 2.412327 1_545
Ca0 O1 2.655508 1_555
Ca0 O0 2.655550 1_555
Ca0 O3 2.811151 1_655
Ca0 O2 2.811172 1_555
Ca1 O6 2.354871 1_455
Ca1 O7 2.354879 1_555
Ca1 O11 2.412307 1_565
Ca1 O10 2.412324 1_554
Ca1 O2 2.655475 1_555
Ca1 O3 2.655509 1_555
Ca1 O1 2.811085 1_455
Ca1 O0 2.811088 1_555
Mn0 O5 2.152302 1_555
Mn0 O4 2.152639 1_555
Mn0 O9 2.195801 1_545
Mn0 O8 2.196994 1_456
Mn0 O11 2.264017 1_556
Mn0 O10 2.264387 1_545
Mn1 O6 2.152361 1_555
Mn1 O7 2.152405 1_555
Mn1 O10 2.196337 1_654
Mn1 O11 2.196475 1_565
Mn1 O8 2.264253 1_565
Mn1 O9 2.264301 1_554
Ge0 O7 1.731381 1_555
Ge0 O8 1.748935 1_555
Ge0 O3 1.825069 1_655
Ge0 O0 1.844874 1_555
Ge1 O6 1.731343 1_555
Ge1 O9 1.748953 1_555
Ge1 O2 1.825053 1_555
Ge1 O1 1.844837 1_555
Ge2 O5 1.731343 1_555
Ge2 O10 1.748943 1_555
Ge2 O1 1.825067 1_455
Ge2 O2 1.844879 1_555
Ge3 O4 1.731352 1_555
Ge3 O11 1.748954 1_555
Ge3 O0 1.825074 1_555
Ge3 O3 1.844864 1_555
