# generated using pymatgen
data_NaRh(SO4)2
_symmetry_space_group_name_H-M   'P 1'
_cell_length_a   4.76859174
_cell_length_b   4.76859174
_cell_length_c   7.21793413
_cell_angle_alpha   87.62960871
_cell_angle_beta   87.62960871
_cell_angle_gamma   66.56947829
_symmetry_Int_Tables_number   1
_chemical_formula_structural   NaRh(SO4)2
_chemical_formula_sum   'Na1 Rh1 S2 O8'
_cell_volume   150.41370181
_cell_formula_units_Z   1
loop_
 _symmetry_equiv_pos_site_id
 _symmetry_equiv_pos_as_xyz
  1  'x, y, z'
loop_
 _atom_site_type_symbol
 _atom_site_label
 _atom_site_symmetry_multiplicity
 _atom_site_fract_x
 _atom_site_fract_y
 _atom_site_fract_z
 _atom_site_occupancy
  Na  Na0  1  0.00000000  0.00000000  0.50000000  1
  Rh  Rh0  1  0.00000000  0.00000000  0.00000000  1
  S  S0  1  0.36627400  0.36627400  0.78464600  1
  S  S1  1  0.63372600  0.63372600  0.21535400  1
  O  O0  1  0.28348900  0.28348900  0.61072900  1
  O  O1  1  0.71651100  0.71651100  0.38927100  1
  O  O2  1  0.71357600  0.24487300  0.78902000  1
  O  O3  1  0.28642400  0.75512700  0.21098000  1
  O  O4  1  0.75512700  0.28642400  0.21098000  1
  O  O5  1  0.24487300  0.71357600  0.78902000  1
  O  O6  1  0.25626300  0.25626300  0.95780600  1
  O  O7  1  0.74373700  0.74373700  0.04219400  1
loop_
_geom_bond_atom_site_label_1
_geom_bond_atom_site_label_2
_geom_bond_distance
_geom_bond_site_symmetry_2
Na0 O1 2.434302 1_445
Na0 O0 2.434302 1_555
Na0 O5 2.505674 1_545
Na0 O2 2.505674 1_455
Na0 O3 2.505674 1_545
Na0 O4 2.505674 1_455
O0 S0 1.446871 1_555
O1 S1 1.446871 1_555
O2 S0 1.522917 1_555
O2 Rh0 2.074769 1_656
O3 S1 1.522917 1_555
O3 Rh0 2.074769 1_565
O4 S1 1.522917 1_555
O4 Rh0 2.074769 1_655
O5 S0 1.522917 1_555
O5 Rh0 2.074769 1_566
O6 S0 1.490952 1_555
O6 Rh0 2.050710 1_556
O7 S1 1.490952 1_555
O7 Rh0 2.050710 1_665
