# generated using pymatgen
data_Ce5Si3
_symmetry_space_group_name_H-M   'P 1'
_cell_length_a   5.97154400
_cell_length_b   8.87514969
_cell_length_c   8.83605341
_cell_angle_alpha   120.14647041
_cell_angle_beta   90.00000000
_cell_angle_gamma   90.00000000
_symmetry_Int_Tables_number   1
_chemical_formula_structural   Ce5Si3
_chemical_formula_sum   'Ce10 Si6'
_cell_volume   404.95652744
_cell_formula_units_Z   2
loop_
 _symmetry_equiv_pos_site_id
 _symmetry_equiv_pos_as_xyz
  1  'x, y, z'
loop_
 _atom_site_type_symbol
 _atom_site_label
 _atom_site_symmetry_multiplicity
 _atom_site_fract_x
 _atom_site_fract_y
 _atom_site_fract_z
 _atom_site_occupancy
  Ce  Ce0  1  0.50000200  0.33306500  0.66617600  1
  Ce  Ce1  1  0.50000200  0.66688900  0.33382400  1
  Ce  Ce2  1  0.00000200  0.66693500  0.33382400  1
  Ce  Ce3  1  0.00000200  0.33311100  0.66617600  1
  Ce  Ce4  1  0.74995300  0.26110200  0.00000000  1
  Ce  Ce5  1  0.75001200  0.73917100  0.73873200  1
  Ce  Ce6  1  0.75001200  0.00044000  0.26126800  1
  Ce  Ce7  1  0.24995300  0.73889800  0.00000000  1
  Ce  Ce8  1  0.25001200  0.26082900  0.26126800  1
  Ce  Ce9  1  0.25001200  0.99956000  0.73873200  1
  Si  Si0  1  0.74997200  0.61638800  0.00000000  1
  Si  Si1  1  0.75002300  0.38358900  0.38366100  1
  Si  Si2  1  0.75002300  0.99992900  0.61633900  1
  Si  Si3  1  0.24997200  0.38361200  0.00000000  1
  Si  Si4  1  0.25002300  0.61641100  0.61633900  1
  Si  Si5  1  0.25002300  0.00007100  0.38366100  1
loop_
_geom_bond_atom_site_label_1
_geom_bond_atom_site_label_2
_geom_bond_distance
_geom_bond_site_symmetry_2
Ce0 Si5 3.127934 1_555
Ce0 Si1 3.128270 1_555
Ce0 Si0 3.130783 1_556
Ce0 Si3 3.130819 1_556
Ce0 Si2 3.139574 1_545
Ce0 Si4 3.139818 1_555
Ce1 Si4 3.127929 1_555
Ce1 Si2 3.128275 1_555
Ce1 Si0 3.130783 1_555
Ce1 Si3 3.130819 1_555
Ce1 Si1 3.139582 1_555
Ce1 Si5 3.139810 1_565
Ce2 Si2 3.127934 1_455
Ce2 Si4 3.128270 1_555
Ce2 Si3 3.130783 1_555
Ce2 Si0 3.130819 1_455
Ce2 Si5 3.139574 1_565
Ce2 Si1 3.139818 1_455
Ce3 Si1 3.127929 1_455
Ce3 Si5 3.128275 1_555
Ce3 Si3 3.130783 1_556
Ce3 Si0 3.130819 1_456
Ce3 Si4 3.139582 1_555
Ce3 Si2 3.139810 1_445
Ce4 Si2 2.995429 1_544
Ce4 Si1 2.995430 1_555
Ce4 Si0 3.153216 1_555
Ce4 Si3 3.177478 1_555
Ce4 Si3 3.177691 1_655
Ce5 Si2 3.006542 1_555
Ce5 Si0 3.007299 1_556
Ce5 Si1 3.139707 1_555
Ce5 Si4 3.176094 1_555
Ce5 Si4 3.176217 1_655
Ce6 Si1 3.006525 1_555
Ce6 Si0 3.007305 1_545
Ce6 Si2 3.139706 1_545
Ce6 Si5 3.176097 1_555
Ce6 Si5 3.176220 1_655
Ce7 Si5 2.995429 1_565
Ce7 Si4 2.995430 1_554
Ce7 Si3 3.153216 1_555
Ce7 Si0 3.177478 1_455
Ce7 Si0 3.177691 1_555
Ce8 Si5 3.006542 1_555
Ce8 Si3 3.007299 1_555
Ce8 Si4 3.139707 1_555
Ce8 Si1 3.176094 1_455
Ce8 Si1 3.176217 1_555
Ce9 Si4 3.006525 1_555
Ce9 Si3 3.007305 1_566
Ce9 Si5 3.139706 1_565
Ce9 Si2 3.176097 1_455
Ce9 Si2 3.176220 1_555
