# generated using pymatgen
data_LuPt
_symmetry_space_group_name_H-M   'P 1'
_cell_length_a   4.44971655
_cell_length_b   6.77033704
_cell_length_c   5.44025489
_cell_angle_alpha   90.00000000
_cell_angle_beta   90.00000000
_cell_angle_gamma   90.00000000
_symmetry_Int_Tables_number   1
_chemical_formula_structural   LuPt
_chemical_formula_sum   'Lu4 Pt4'
_cell_volume   163.89355826
_cell_formula_units_Z   4
loop_
 _symmetry_equiv_pos_site_id
 _symmetry_equiv_pos_as_xyz
  1  'x, y, z'
loop_
 _atom_site_type_symbol
 _atom_site_label
 _atom_site_symmetry_multiplicity
 _atom_site_fract_x
 _atom_site_fract_y
 _atom_site_fract_z
 _atom_site_occupancy
  Lu  Lu0  1  0.75000000  0.81827653  0.35781809  1
  Lu  Lu1  1  0.25000000  0.18172347  0.64218191  1
  Lu  Lu2  1  0.25000000  0.68172347  0.85781809  1
  Lu  Lu3  1  0.75000000  0.31827653  0.14218191  1
  Pt  Pt0  1  0.75000000  0.95664695  0.84239607  1
  Pt  Pt1  1  0.25000000  0.04335305  0.15760393  1
  Pt  Pt2  1  0.25000000  0.54335305  0.34239607  1
  Pt  Pt3  1  0.75000000  0.45664695  0.65760393  1
loop_
_geom_bond_atom_site_label_1
_geom_bond_atom_site_label_2
_geom_bond_distance
_geom_bond_site_symmetry_2
Lu0 Pt0 2.797734 1_555
Lu0 Pt2 2.901993 1_555
Lu0 Pt2 2.901993 1_655
Lu0 Pt1 2.908348 1_565
Lu0 Pt1 2.908348 1_665
Lu0 Pt3 2.941821 1_555
Lu0 Pt0 2.956381 1_554
Lu1 Pt1 2.797734 1_555
Lu1 Pt3 2.901993 1_455
Lu1 Pt3 2.901993 1_555
Lu1 Pt0 2.908348 1_545
Lu1 Pt0 2.908348 1_445
Lu1 Pt2 2.941821 1_555
Lu1 Pt1 2.956381 1_556
Lu2 Pt2 2.797734 1_556
Lu2 Pt0 2.901993 1_455
Lu2 Pt0 2.901993 1_555
Lu2 Pt3 2.908348 1_455
Lu2 Pt3 2.908348 1_555
Lu2 Pt1 2.941821 1_566
Lu2 Pt2 2.956381 1_555
Lu3 Pt3 2.797734 1_554
Lu3 Pt1 2.901993 1_555
Lu3 Pt1 2.901993 1_655
Lu3 Pt2 2.908348 1_555
Lu3 Pt2 2.908348 1_655
Lu3 Pt0 2.941821 1_544
Lu3 Pt3 2.956381 1_555
