# generated using pymatgen
data_FeAsO4
_symmetry_space_group_name_H-M   'P 1'
_cell_length_a   9.27322165
_cell_length_b   9.27308053
_cell_length_c   9.27317128
_cell_angle_alpha   138.65929325
_cell_angle_beta   108.44817642
_cell_angle_gamma   86.14348685
_symmetry_Int_Tables_number   1
_chemical_formula_structural   FeAsO4
_chemical_formula_sum   'Fe6 As6 O24'
_cell_volume   480.83622884
_cell_formula_units_Z   6
loop_
 _symmetry_equiv_pos_site_id
 _symmetry_equiv_pos_as_xyz
  1  'x, y, z'
loop_
 _atom_site_type_symbol
 _atom_site_label
 _atom_site_symmetry_multiplicity
 _atom_site_fract_x
 _atom_site_fract_y
 _atom_site_fract_z
 _atom_site_occupancy
  Fe  Fe0  1  0.00000027  0.50000758  0.50000645  1
  Fe  Fe1  1  0.50000125  0.00000288  0.50000132  1
  Fe  Fe2  1  0.88731021  0.88730875  0.50000642  1
  Fe  Fe3  1  0.61268988  0.11268562  -0.00000337  1
  Fe  Fe4  1  0.11269238  0.11269298  0.50000111  1
  Fe  Fe5  1  0.38730515  0.88731363  0.00000370  1
  As  As0  1  0.25001582  0.81686914  0.56688751  1
  As  As1  1  0.74999325  0.18313092  0.43312121  1
  As  As2  1  0.82266838  0.32268218  0.00000988  1
  As  As3  1  0.67731366  0.67732092  0.49997989  1
  As  As4  1  0.17733577  0.67732055  -0.00000480  1
  As  As5  1  0.32267661  0.32268289  0.50001193  1
  O  O0  1  0.12298472  0.97430492  0.59729392  1
  O  O1  1  0.37702292  0.97432465  0.85135105  1
  O  O2  1  0.62297528  0.02567069  0.14864957  1
  O  O3  1  0.87701387  0.02568255  0.40270247  1
  O  O4  1  0.14376906  0.57876793  0.43502433  1
  O  O5  1  0.35626064  0.79125091  0.43501715  1
  O  O6  1  0.85623684  0.42122810  0.56497235  1
  O  O7  1  0.64374105  0.20874460  0.56497519  1
  O  O8  1  0.14037502  0.40315441  0.82369585  1
  O  O9  1  0.35962446  0.18333026  0.26279280  1
  O  O10  1  0.42053695  0.59683822  0.73721326  1
  O  O11  1  0.07947314  0.81668111  0.17630907  1
  O  O12  1  0.65120916  0.80515882  0.42508389  1
  O  O13  1  0.84878309  0.27386853  0.15393762  1
  O  O14  1  0.61993043  0.19485211  0.84606459  1
  O  O15  1  0.88005394  0.72611593  0.57490051  1
  O  O16  1  0.34879852  0.19485002  0.57491605  1
  O  O17  1  0.15121728  0.72613121  0.84606829  1
  O  O18  1  0.38007363  0.80515258  0.15393758  1
  O  O19  1  0.11994007  0.27388646  0.42509129  1
  O  O20  1  0.92052809  0.18331305  0.82369241  1
  O  O21  1  0.57945263  0.40316412  0.26278085  1
  O  O22  1  0.64037279  0.81666695  0.73720428  1
  O  O23  1  0.85961981  0.59684483  0.17630538  1
loop_
_geom_bond_atom_site_label_1
_geom_bond_atom_site_label_2
_geom_bond_distance
_geom_bond_site_symmetry_2
Fe0 O6 1.993503 1_455
Fe0 O4 1.993548 1_555
Fe0 O15 2.025923 1_455
Fe0 O19 2.025924 1_555
Fe0 O17 2.026011 1_555
Fe0 O13 2.026034 1_455
Fe1 O7 1.993515 1_555
Fe1 O5 1.993534 1_545
Fe1 O16 2.025865 1_555
Fe1 O12 2.025881 1_545
Fe1 O18 2.025994 1_545
Fe1 O14 2.025995 1_555
Fe2 O20 1.948269 1_565
Fe2 O23 1.948303 1_555
Fe2 O3 2.034039 1_565
Fe2 O0 2.034063 1_655
Fe2 O15 2.079203 1_555
Fe2 O12 2.079294 1_555
Fe3 O22 1.948331 1_544
Fe3 O21 1.948371 1_555
Fe3 O2 2.033972 1_555
Fe3 O1 2.034001 1_544
Fe3 O14 2.079262 1_554
Fe3 O13 2.079267 1_555
Fe4 O8 1.948289 1_555
Fe4 O11 1.948309 1_545
Fe4 O0 2.034078 1_545
Fe4 O3 2.034097 1_455
Fe4 O19 2.079323 1_555
Fe4 O16 2.079371 1_555
Fe5 O9 1.948306 1_565
Fe5 O10 1.948351 1_554
Fe5 O1 2.033943 1_554
Fe5 O2 2.034020 1_565
Fe5 O18 2.079211 1_555
Fe5 O17 2.079232 1_554
As0 O4 1.678388 1_555
As0 O5 1.678483 1_555
As0 O1 1.720175 1_555
As0 O0 1.720253 1_555
As1 O6 1.678395 1_555
As1 O7 1.678434 1_555
As1 O3 1.720237 1_555
As1 O2 1.720241 1_555
As2 O23 1.665881 1_555
As2 O20 1.665947 1_554
As2 O13 1.742897 1_555
As2 O14 1.742919 1_554
As3 O21 1.665858 1_555
As3 O22 1.665930 1_555
As3 O12 1.742855 1_555
As3 O15 1.742914 1_555
As4 O8 1.665899 1_554
As4 O11 1.665949 1_555
As4 O17 1.742861 1_554
As4 O18 1.742921 1_555
As5 O10 1.665849 1_555
As5 O9 1.665914 1_555
As5 O16 1.742870 1_555
As5 O19 1.742881 1_555
