# generated using pymatgen
data_Na2Ca3Ta2Ti3O15
_symmetry_space_group_name_H-M   'P 1'
_cell_length_a   5.45175574
_cell_length_b   5.54668617
_cell_length_c   39.05695995
_cell_angle_alpha   89.96108677
_cell_angle_beta   90.05068239
_cell_angle_gamma   90.00573792
_symmetry_Int_Tables_number   1
_chemical_formula_structural   Na2Ca3Ta2Ti3O15
_chemical_formula_sum   'Na8 Ca12 Ta8 Ti12 O60'
_cell_volume   1181.04962947
_cell_formula_units_Z   4
loop_
 _symmetry_equiv_pos_site_id
 _symmetry_equiv_pos_as_xyz
  1  'x, y, z'
loop_
 _atom_site_type_symbol
 _atom_site_label
 _atom_site_symmetry_multiplicity
 _atom_site_fract_x
 _atom_site_fract_y
 _atom_site_fract_z
 _atom_site_occupancy
  Na  Na0  1  0.00543100  0.97375600  0.34714500  1
  Na  Na1  1  0.00417800  0.97396700  0.55013600  1
  Na  Na2  1  0.00397300  0.97407000  0.75033800  1
  Na  Na3  1  0.00345000  0.97676000  0.95106400  1
  Na  Na4  1  0.49793900  0.47868300  0.14818100  1
  Na  Na5  1  0.49649400  0.48161300  0.55014600  1
  Na  Na6  1  0.49708800  0.48164900  0.75039400  1
  Na  Na7  1  0.49696300  0.48258800  0.95106500  1
  Ca  Ca0  1  0.00578600  0.95803900  0.14813200  1
  Ca  Ca1  1  0.49809600  0.46572600  0.34689100  1
  Ca  Ca2  1  0.50902100  0.54293400  0.05248400  1
  Ca  Ca3  1  0.50708700  0.54082700  0.25205200  1
  Ca  Ca4  1  0.50870500  0.53897900  0.65027500  1
  Ca  Ca5  1  0.50655400  0.53734900  0.45009900  1
  Ca  Ca6  1  0.50864500  0.53944400  0.85061200  1
  Ca  Ca7  1  0.99123200  0.04889500  0.25196700  1
  Ca  Ca8  1  0.98986600  0.04747600  0.05202500  1
  Ca  Ca9  1  0.98973900  0.05256000  0.45027400  1
  Ca  Ca10  1  0.98895300  0.05121100  0.65028000  1
  Ca  Ca11  1  0.98992300  0.05072200  0.85057900  1
  Ta  Ta0  1  0.49465800  0.00401500  0.50019400  1
  Ta  Ta1  1  0.49623500  0.00530000  0.90156300  1
  Ta  Ta2  1  0.49506200  0.00449300  0.70087300  1
  Ta  Ta3  1  0.49431900  0.01000500  0.00077000  1
  Ta  Ta4  1  0.50010500  0.00735100  0.19947700  1
  Ta  Ta5  1  0.49700200  0.00194700  0.39770000  1
  Ta  Ta6  1  0.49506100  0.00806600  0.59874200  1
  Ta  Ta7  1  0.49496900  0.00835000  0.79942100  1
  Ti  Ti0  1  0.00809400  0.51459000  0.00149400  1
  Ti  Ti1  1  0.00549600  0.51449100  0.10152500  1
  Ti  Ti2  1  0.00814500  0.50468700  0.20001000  1
  Ti  Ti3  1  0.00038500  0.51824300  0.30129800  1
  Ti  Ti4  1  0.00367800  0.51111500  0.40079100  1
  Ti  Ti5  1  0.99692000  0.51000400  0.50350200  1
  Ti  Ti6  1  0.00889000  0.51373200  0.60173800  1
  Ti  Ti7  1  0.99748000  0.50993500  0.70397400  1
  Ti  Ti8  1  0.00904100  0.51393700  0.80200800  1
  Ti  Ti9  1  0.99917800  0.51086800  0.90389000  1
  Ti  Ti10  1  0.49742700  0.01864400  0.10057900  1
  Ti  Ti11  1  0.49434600  0.01190300  0.29941400  1
  O  O0  1  0.07513800  0.47869300  0.04992100  1
  O  O1  1  0.07402800  0.47830600  0.24889900  1
  O  O2  1  0.07747000  0.47776800  0.44750000  1
  O  O3  1  0.07738200  0.47884600  0.64821500  1
  O  O4  1  0.07632500  0.47879200  0.84864000  1
  O  O5  1  0.20941100  0.20259400  0.39219300  1
  O  O6  1  0.20417600  0.20134000  0.59347500  1
  O  O7  1  0.19335600  0.19466100  0.19288700  1
  O  O8  1  0.20303600  0.20041500  0.79390000  1
  O  O9  1  0.20664100  0.19947200  0.10643300  1
  O  O10  1  0.22227500  0.21084500  0.30596100  1
  O  O11  1  0.20471300  0.20377800  0.50492100  1
  O  O12  1  0.20284200  0.20174200  0.99458300  1
  O  O13  1  0.20464800  0.20337300  0.70520100  1
  O  O14  1  0.20444700  0.20271400  0.90541800  1
  O  O15  1  0.28206800  0.71000000  0.10676800  1
  O  O16  1  0.28868700  0.70531100  0.19285200  1
  O  O17  1  0.29505700  0.70383200  0.30608900  1
  O  O18  1  0.30667000  0.69344500  0.39202500  1
  O  O19  1  0.29483200  0.70258900  0.59341400  1
  O  O20  1  0.29384800  0.70107400  0.90563000  1
  O  O21  1  0.29361600  0.70223100  0.70554300  1
  O  O22  1  0.29518600  0.70149400  0.79381300  1
  O  O23  1  0.29297200  0.70241200  0.50524100  1
  O  O24  1  0.29332800  0.70115800  0.99445000  1
  O  O25  1  0.42387500  0.97544800  0.05056000  1
  O  O26  1  0.42174400  0.97725000  0.24986800  1
  O  O27  1  0.42075100  0.97663500  0.64959600  1
  O  O28  1  0.41990600  0.97609300  0.44909600  1
  O  O29  1  0.42185800  0.97628300  0.84995900  1
  O  O30  1  0.57465800  0.01533400  0.34923400  1
  O  O31  1  0.57483200  0.01697500  0.15005300  1
  O  O32  1  0.57478800  0.01499900  0.54945500  1
  O  O33  1  0.57407700  0.01466100  0.74971300  1
  O  O34  1  0.57184500  0.01305900  0.95037600  1
  O  O35  1  0.71000200  0.28241000  0.00977300  1
  O  O36  1  0.71052200  0.27535300  0.09120800  1
  O  O37  1  0.71242300  0.28068900  0.29204900  1
  O  O38  1  0.70227200  0.28904000  0.20961500  1
  O  O39  1  0.71039000  0.28083800  0.60909700  1
  O  O40  1  0.70883100  0.28657900  0.40773700  1
  O  O41  1  0.71268200  0.27969800  0.48974600  1
  O  O42  1  0.71256200  0.28004500  0.69019100  1
  O  O43  1  0.70974400  0.28135300  0.80931100  1
  O  O44  1  0.71265600  0.27976600  0.89057100  1
  O  O45  1  0.78738600  0.78070200  0.09262900  1
  O  O46  1  0.78888400  0.78033400  0.00946100  1
  O  O47  1  0.78614300  0.78029800  0.69036000  1
  O  O48  1  0.79137800  0.79051000  0.20780000  1
  O  O49  1  0.78701900  0.77838000  0.29066600  1
  O  O50  1  0.78558500  0.78006600  0.49005400  1
  O  O51  1  0.79422600  0.78611600  0.40891300  1
  O  O52  1  0.78706400  0.78122200  0.60887700  1
  O  O53  1  0.78674700  0.77975600  0.89073700  1
  O  O54  1  0.78777400  0.78122900  0.80907200  1
  O  O55  1  0.93453500  0.51522400  0.15020600  1
  O  O56  1  0.92978500  0.51525400  0.34922200  1
  O  O57  1  0.93394900  0.51439200  0.54887700  1
  O  O58  1  0.93479900  0.51431900  0.74912800  1
  O  O59  1  0.93653600  0.51388300  0.94971200  1
loop_
_geom_bond_atom_site_label_1
_geom_bond_atom_site_label_2
_geom_bond_distance
_geom_bond_site_symmetry_2
Na0 O30 2.361276 1_465
Na0 O10 2.390492 1_565
Na0 O5 2.437759 1_565
Na0 O56 2.577581 1_455
Na0 O17 2.704479 1_555
Na0 O49 2.730668 1_455
Na0 O18 2.859856 1_555
Na0 O51 2.868852 1_455
Na1 O32 2.352115 1_465
Na1 O6 2.375698 1_565
Na1 O11 2.436958 1_565
Na1 O57 2.578169 1_455
Na1 O19 2.761534 1_555
Na1 O52 2.794419 1_455
Na1 O23 2.798419 1_555
Na1 O50 2.842843 1_455
Na2 O33 2.354603 1_465
Na2 O8 2.376566 1_565
Na2 O13 2.433622 1_565
Na2 O58 2.578250 1_455
Na2 O22 2.771606 1_555
Na2 O54 2.792285 1_455
Na2 O21 2.799431 1_555
Na2 O47 2.837480 1_455
Na3 O34 2.361751 1_465
Na3 O12 2.372194 1_565
Na3 O14 2.439262 1_565
Na3 O59 2.593751 1_455
Na3 O24 2.774525 1_555
Na3 O46 2.785419 1_456
Na3 O20 2.828918 1_555
Na3 O53 2.853018 1_455
Na4 O15 2.375194 1_555
Na4 O55 2.390052 1_555
Na4 O16 2.435642 1_555
Na4 O31 2.596044 1_555
Na4 O36 2.752241 1_555
Na4 O9 2.752730 1_555
Na4 O38 2.845475 1_555
Na4 O7 2.879026 1_555
Na5 O19 2.360762 1_555
Na5 O57 2.392355 1_555
Na5 O23 2.408509 1_555
Na5 O32 2.623325 1_555
Na5 O6 2.796610 1_555
Na5 O39 2.809499 1_555
Na5 O11 2.832577 1_555
Na5 O41 2.866576 1_555
Na6 O22 2.362354 1_555
Na6 O58 2.393698 1_555
Na6 O21 2.406238 1_555
Na6 O33 2.624220 1_555
Na6 O43 2.804564 1_555
Na6 O8 2.809147 1_555
Na6 O13 2.835148 1_555
Na6 O42 2.857962 1_555
Na7 O24 2.362184 1_555
Na7 O59 2.403331 1_555
Na7 O20 2.416140 1_555
Na7 O34 2.636332 1_555
Na7 O35 2.798480 1_556
Na7 O12 2.808452 1_555
Na7 O14 2.851270 1_555
Na7 O44 2.870462 1_555
Na7 O34 2.970608 1_565
Ca0 O31 2.373380 1_465
Ca0 O9 2.375866 1_565
Ca0 O7 2.413177 1_565
Ca0 O55 2.487920 1_455
Ca0 O15 2.603702 1_555
Ca0 O45 2.661310 1_455
Ca0 O16 2.717869 1_555
Ca0 O48 2.768114 1_455
Ca1 O17 2.345932 1_555
Ca1 O56 2.371091 1_555
Ca1 O18 2.408007 1_555
Ca1 O30 2.534432 1_555
Ca1 O10 2.610313 1_555
Ca1 O37 2.648458 1_555
Ca1 O5 2.781858 1_555
Ca1 O40 2.819052 1_555
Ca2 O36 2.385667 1_555
Ca2 O0 2.394093 1_555
Ca2 O25 2.444654 1_555
Ca2 O35 2.465421 1_555
Ca2 O45 2.549310 1_555
Ca2 O46 2.624216 1_555
Ca2 O15 2.625309 1_555
Ca2 O24 2.698773 1_554
Ca3 O1 2.389310 1_555
Ca3 O37 2.402007 1_555
Ca3 O38 2.415883 1_555
Ca3 O26 2.466459 1_555
Ca3 O49 2.517524 1_555
Ca3 O17 2.571978 1_555
Ca3 O48 2.703401 1_555
Ca3 O16 2.754754 1_555
Ca4 O3 2.376272 1_555
Ca4 O42 2.392194 1_555
Ca4 O39 2.419147 1_555
Ca4 O27 2.474612 1_555
Ca4 O47 2.555135 1_555
Ca4 O52 2.592993 1_555
Ca4 O21 2.619516 1_555
Ca4 O19 2.666081 1_555
Ca5 O2 2.364558 1_555
Ca5 O41 2.386892 1_555
Ca5 O40 2.427951 1_555
Ca5 O28 2.479322 1_555
Ca5 O50 2.561250 1_555
Ca5 O23 2.615285 1_555
Ca5 O51 2.636696 1_555
Ca5 O18 2.659883 1_555
Ca6 O4 2.381944 1_555
Ca6 O44 2.396154 1_555
Ca6 O43 2.420733 1_555
Ca6 O29 2.468929 1_555
Ca6 O53 2.555314 1_555
Ca6 O54 2.597602 1_555
Ca6 O20 2.607642 1_555
Ca6 O22 2.660148 1_555
Ca7 O26 2.381982 1_645
Ca7 O49 2.403114 1_545
Ca7 O1 2.427057 1_655
Ca7 O48 2.493307 1_545
Ca7 O37 2.534059 1_555
Ca7 O10 2.615023 1_655
Ca7 O38 2.642904 1_555
Ca7 O7 2.682206 1_655
Ca8 O25 2.400381 1_645
Ca8 O45 2.433648 1_545
Ca8 O0 2.437883 1_655
Ca8 O46 2.481854 1_545
Ca8 O36 2.503205 1_555
Ca8 O9 2.573111 1_655
Ca8 O35 2.596593 1_555
Ca8 O12 2.667478 1_654
Ca9 O28 2.383742 1_645
Ca9 O2 2.408841 1_655
Ca9 O51 2.435111 1_545
Ca9 O50 2.436531 1_545
Ca9 O41 2.500510 1_555
Ca9 O11 2.574938 1_655
Ca9 O40 2.604477 1_555
Ca9 O5 2.697178 1_655
Ca10 O27 2.390340 1_645
Ca10 O3 2.421710 1_655
Ca10 O47 2.435271 1_545
Ca10 O52 2.463496 1_545
Ca10 O42 2.513689 1_555
Ca10 O39 2.551285 1_555
Ca10 O13 2.587302 1_655
Ca10 O6 2.644688 1_655
Ca11 O29 2.390915 1_645
Ca11 O4 2.421744 1_655
Ca11 O53 2.438318 1_545
Ca11 O54 2.465126 1_545
Ca11 O44 2.519109 1_555
Ca11 O43 2.561396 1_555
Ca11 O14 2.581446 1_655
Ca11 O8 2.634699 1_655
O0 Ti0 1.936222 1_555
O0 Ti1 2.060997 1_555
O1 Ti2 1.948040 1_555
O1 Ti3 2.097784 1_555
O2 Ti4 1.876812 1_555
O2 Ti5 2.238571 1_455
O3 Ti6 1.862886 1_555
O3 Ti7 2.228094 1_455
O4 Ti8 1.867633 1_555
O4 Ti9 2.206175 1_455
O5 Ta5 1.934562 1_555
O5 Ti4 2.073896 1_555
O6 Ta6 1.925071 1_555
O6 Ti6 2.059554 1_555
O7 Ta4 1.985332 1_555
O7 Ti2 2.013832 1_555
O8 Ta7 1.927137 1_555
O8 Ti8 2.060264 1_555
O9 Ti10 1.890160 1_555
O9 Ti1 2.071694 1_555
O10 Ti11 1.866678 1_555
O10 Ti3 2.098400 1_555
O11 Ta0 1.939481 1_555
O11 Ti5 2.042443 1_455
O12 Ta3 1.927138 1_556
O12 Ti0 2.052505 1_556
O13 Ta2 1.937335 1_555
O13 Ti7 2.041925 1_455
O14 Ta1 1.937314 1_555
O14 Ti9 2.043893 1_455
O15 Ti1 1.868372 1_555
O15 Ti10 2.089789 1_565
O16 Ti2 1.911983 1_555
O16 Ta4 2.049832 1_565
O17 Ti3 1.916993 1_555
O17 Ti11 2.041525 1_565
O18 Ti4 1.966918 1_555
O18 Ta5 2.013372 1_565
O19 Ti6 1.906108 1_555
O19 Ta6 2.026213 1_565
O20 Ti9 1.923013 1_455
O20 Ta1 2.022299 1_565
O21 Ti7 1.935835 1_455
O21 Ta2 2.012408 1_565
O22 Ti8 1.902208 1_555
O22 Ta7 2.032460 1_565
O23 Ti5 1.936014 1_455
O23 Ta0 2.011468 1_565
O24 Ti0 1.888048 1_556
O24 Ta3 2.048404 1_566
O25 Ta3 1.991652 1_565
O25 Ti10 2.008467 1_565
O26 Ti11 1.984293 1_565
O26 Ta4 2.021114 1_565
O27 Ta6 2.034811 1_565
O27 Ta2 2.048872 1_565
O28 Ta0 2.042543 1_565
O28 Ta5 2.056175 1_565
O29 Ta7 2.021764 1_565
O29 Ta1 2.061923 1_565
O30 Ta5 1.941435 1_555
O30 Ti11 1.994195 1_555
O31 Ta4 1.973910 1_555
O31 Ti10 1.977498 1_555
O32 Ta0 1.973559 1_555
O32 Ta6 1.974184 1_555
O33 Ta2 1.956054 1_555
O33 Ta7 1.989426 1_555
O34 Ta1 1.950687 1_555
O34 Ta3 2.013530 1_556
O35 Ta3 1.946499 1_555
O35 Ti0 2.098580 1_655
O36 Ti10 1.873703 1_555
O36 Ti1 2.122967 1_655
O37 Ti11 1.928367 1_555
O37 Ti3 2.080978 1_655
O38 Ta4 1.952561 1_555
O38 Ti2 2.086205 1_655
O39 Ta6 1.957142 1_555
O39 Ti6 2.097498 1_655
O40 Ta5 1.994869 1_555
O40 Ti4 2.051451 1_655
O41 Ta0 1.979191 1_555
O41 Ti5 2.078655 1_555
O42 Ta2 1.978822 1_555
O42 Ti7 2.080276 1_555
O43 Ta7 1.952651 1_555
O43 Ti8 2.099516 1_655
O44 Ta1 1.973245 1_555
O44 Ti9 2.086339 1_555
O45 Ti1 1.927142 1_655
O45 Ti10 2.083022 1_565
O46 Ti0 1.923368 1_655
O46 Ta3 2.077459 1_565
O47 Ti7 1.963983 1_555
O47 Ta2 2.058030 1_565
O48 Ti2 2.001048 1_655
O48 Ta4 2.018117 1_565
O49 Ti3 1.898983 1_655
O49 Ti11 2.083830 1_565
O50 Ti5 1.960963 1_555
O50 Ta0 2.053683 1_565
O51 Ti4 1.932057 1_655
O51 Ta5 2.061322 1_565
O52 Ti6 1.934705 1_655
O52 Ta6 2.067048 1_565
O53 Ti9 1.956474 1_555
O53 Ta1 2.062660 1_565
O54 Ti8 1.931534 1_655
O54 Ta7 2.067842 1_565
O55 Ti1 1.940632 1_655
O55 Ti2 1.986632 1_655
O56 Ti3 1.911323 1_655
O56 Ti4 2.053784 1_655
O57 Ti5 1.805633 1_555
O57 Ti6 2.104273 1_655
O58 Ti7 1.796858 1_555
O58 Ti8 2.104267 1_655
O59 Ti9 1.822345 1_555
O59 Ti0 2.059397 1_656
