# generated using pymatgen
data_Tl3Cr4AgO14
_symmetry_space_group_name_H-M   'P 1'
_cell_length_a   7.55763347
_cell_length_b   7.55763347
_cell_length_c   13.80230038
_cell_angle_alpha   78.01283045
_cell_angle_beta   78.01283045
_cell_angle_gamma   90.33895779
_symmetry_Int_Tables_number   1
_chemical_formula_structural   Tl3Cr4AgO14
_chemical_formula_sum   'Tl6 Cr8 Ag2 O28'
_cell_volume   753.35874552
_cell_formula_units_Z   2
loop_
 _symmetry_equiv_pos_site_id
 _symmetry_equiv_pos_as_xyz
  1  'x, y, z'
loop_
 _atom_site_type_symbol
 _atom_site_label
 _atom_site_symmetry_multiplicity
 _atom_site_fract_x
 _atom_site_fract_y
 _atom_site_fract_z
 _atom_site_occupancy
  Tl  Tl0  1  0.62187200  0.24777400  0.50230500  1
  Tl  Tl1  1  0.75222600  0.37812800  0.99769500  1
  Tl  Tl2  1  0.37812800  0.75222600  0.49769500  1
  Tl  Tl3  1  0.24777400  0.62187200  0.00230500  1
  Tl  Tl4  1  0.03212100  0.96787900  0.25000000  1
  Tl  Tl5  1  0.96787900  0.03212100  0.75000000  1
  Cr  Cr0  1  0.86843000  0.72648400  0.54697100  1
  Cr  Cr1  1  0.27351600  0.13157000  0.95302900  1
  Cr  Cr2  1  0.13157000  0.27351600  0.45302900  1
  Cr  Cr3  1  0.72648400  0.86843000  0.04697100  1
  Cr  Cr4  1  0.94924700  0.46723000  0.25635200  1
  Cr  Cr5  1  0.53277000  0.05075300  0.24364800  1
  Cr  Cr6  1  0.05075300  0.53277000  0.74364800  1
  Cr  Cr7  1  0.46723000  0.94924700  0.75635200  1
  Ag  Ag0  1  0.44459800  0.55540200  0.25000000  1
  Ag  Ag1  1  0.55540200  0.44459800  0.75000000  1
  O  O0  1  0.00826300  0.69998900  0.63959600  1
  O  O1  1  0.30001100  0.99173700  0.86040400  1
  O  O2  1  0.99173700  0.30001100  0.36040400  1
  O  O3  1  0.69998900  0.00826300  0.13959600  1
  O  O4  1  0.69787900  0.57079500  0.58381700  1
  O  O5  1  0.42920500  0.30212100  0.91618300  1
  O  O6  1  0.30212100  0.42920500  0.41618300  1
  O  O7  1  0.57079500  0.69787900  0.08381700  1
  O  O8  1  0.99359000  0.70844400  0.43870700  1
  O  O9  1  0.29155600  0.00641000  0.06129300  1
  O  O10  1  0.00641000  0.29155600  0.56129300  1
  O  O11  1  0.70844400  0.99359000  0.93870700  1
  O  O12  1  0.78674200  0.92673100  0.53648400  1
  O  O13  1  0.07326900  0.21325800  0.96351600  1
  O  O14  1  0.21325800  0.07326900  0.46351600  1
  O  O15  1  0.92673100  0.78674200  0.03648400  1
  O  O16  1  0.12438800  0.61490900  0.21970500  1
  O  O17  1  0.38509100  0.87561200  0.28029500  1
  O  O18  1  0.87561200  0.38509100  0.78029500  1
  O  O19  1  0.61490900  0.12438800  0.71970500  1
  O  O20  1  0.75881000  0.56406400  0.29040100  1
  O  O21  1  0.43593600  0.24119000  0.20959900  1
  O  O22  1  0.24119000  0.43593600  0.70959900  1
  O  O23  1  0.56406400  0.75881000  0.79040100  1
  O  O24  1  0.93883500  0.36657300  0.16347900  1
  O  O25  1  0.63342700  0.06116500  0.33652100  1
  O  O26  1  0.06116500  0.63342700  0.83652100  1
  O  O27  1  0.36657300  0.93883500  0.66347900  1
loop_
_geom_bond_atom_site_label_1
_geom_bond_atom_site_label_2
_geom_bond_distance
_geom_bond_site_symmetry_2
Cr0 O8 1.626428 1_555
Cr0 O12 1.627770 1_555
Cr0 O4 1.663051 1_555
Cr0 O0 1.802420 1_655
Cr1 O9 1.626428 1_556
Cr1 O13 1.627770 1_555
Cr1 O5 1.663051 1_555
Cr1 O1 1.802420 1_545
Cr2 O10 1.626428 1_555
Cr2 O14 1.627770 1_555
Cr2 O6 1.663051 1_555
Cr2 O2 1.802420 1_455
Cr3 O11 1.626428 1_554
Cr3 O15 1.627770 1_555
Cr3 O7 1.663051 1_555
Cr3 O3 1.802420 1_565
Cr4 O24 1.635335 1_555
Cr4 O20 1.643854 1_555
Cr4 O16 1.650302 1_655
Cr4 O2 1.790324 1_555
Cr5 O25 1.635335 1_555
Cr5 O21 1.643854 1_555
Cr5 O17 1.650302 1_545
Cr5 O3 1.790324 1_555
Cr6 O26 1.635335 1_555
Cr6 O22 1.643854 1_555
Cr6 O18 1.650302 1_455
Cr6 O0 1.790324 1_555
Cr7 O27 1.635335 1_555
Cr7 O23 1.643854 1_555
Cr7 O19 1.650302 1_565
Cr7 O1 1.790324 1_555
Ag0 O7 2.320219 1_555
Ag0 O6 2.320219 1_555
Ag0 O20 2.552999 1_555
Ag0 O21 2.552999 1_555
Ag0 O16 2.566855 1_555
Ag0 O17 2.566855 1_555
Ag1 O5 2.320219 1_555
Ag1 O4 2.320219 1_555
Ag1 O22 2.552999 1_555
Ag1 O23 2.552999 1_555
Ag1 O18 2.566855 1_555
Ag1 O19 2.566855 1_555
O8 Tl4 2.875755 1_655
O9 Tl4 2.875755 1_545
O10 Tl5 2.875755 1_455
O11 Tl5 2.875755 1_565
O12 Tl0 2.732520 1_565
O13 Tl1 2.732520 1_455
O14 Tl2 2.732520 1_545
O15 Tl3 2.732520 1_655
O16 Tl4 2.853333 1_555
O17 Tl4 2.853333 1_555
O18 Tl5 2.853333 1_555
O19 Tl5 2.853333 1_555
