# generated using pymatgen
data_CdTcO3
_symmetry_space_group_name_H-M   'P 1'
_cell_length_a   5.45780100
_cell_length_b   5.54841400
_cell_length_c   7.89116400
_cell_angle_alpha   90.00000000
_cell_angle_beta   90.00000000
_cell_angle_gamma   90.00000000
_symmetry_Int_Tables_number   1
_chemical_formula_structural   CdTcO3
_chemical_formula_sum   'Cd4 Tc4 O12'
_cell_volume   238.96132889
_cell_formula_units_Z   4
loop_
 _symmetry_equiv_pos_site_id
 _symmetry_equiv_pos_as_xyz
  1  'x, y, z'
loop_
 _atom_site_type_symbol
 _atom_site_label
 _atom_site_symmetry_multiplicity
 _atom_site_fract_x
 _atom_site_fract_y
 _atom_site_fract_z
 _atom_site_occupancy
  Cd  Cd0  1  0.50789700  0.54541000  0.25000000  1
  Cd  Cd1  1  0.99210300  0.04541000  0.25000000  1
  Cd  Cd2  1  0.49210300  0.45459000  0.75000000  1
  Cd  Cd3  1  0.00789700  0.95459000  0.75000000  1
  Tc  Tc0  1  0.00000000  0.50000000  0.00000000  1
  Tc  Tc1  1  0.50000000  0.00000000  0.50000000  1
  Tc  Tc2  1  0.00000000  0.50000000  0.50000000  1
  Tc  Tc3  1  0.50000000  0.00000000  0.00000000  1
  O  O0  1  0.80653500  0.80454500  0.05378900  1
  O  O1  1  0.69346500  0.30454500  0.44621100  1
  O  O2  1  0.19346500  0.19545500  0.55378900  1
  O  O3  1  0.30653500  0.69545500  0.94621100  1
  O  O4  1  0.19346500  0.19545500  0.94621100  1
  O  O5  1  0.30653500  0.69545500  0.55378900  1
  O  O6  1  0.80653500  0.80454500  0.44621100  1
  O  O7  1  0.69346500  0.30454500  0.05378900  1
  O  O8  1  0.39901400  0.95663600  0.25000000  1
  O  O9  1  0.10098600  0.45663600  0.25000000  1
  O  O10  1  0.60098600  0.04336400  0.75000000  1
  O  O11  1  0.89901400  0.54336400  0.75000000  1
loop_
_geom_bond_atom_site_label_1
_geom_bond_atom_site_label_2
_geom_bond_distance
_geom_bond_site_symmetry_2
Cd0 O9 2.274805 1_555
Cd0 O1 2.282345 1_555
Cd0 O7 2.282345 1_555
Cd0 O8 2.357771 1_555
Cd0 O6 2.668551 1_555
Cd0 O0 2.668551 1_555
Cd0 O5 2.765441 1_555
Cd0 O3 2.765441 1_554
Cd1 O8 2.274805 1_645
Cd1 O6 2.282345 1_545
Cd1 O0 2.282345 1_545
Cd1 O9 2.357771 1_655
Cd1 O1 2.668551 1_555
Cd1 O7 2.668551 1_555
Cd1 O2 2.765441 1_655
Cd1 O4 2.765441 1_654
Cd2 O11 2.274805 1_555
Cd2 O3 2.282345 1_555
Cd2 O5 2.282345 1_555
Cd2 O10 2.357771 1_555
Cd2 O4 2.668551 1_555
Cd2 O2 2.668551 1_555
Cd2 O7 2.765441 1_556
Cd2 O1 2.765441 1_555
Cd3 O10 2.274805 1_465
Cd3 O4 2.282345 1_565
Cd3 O2 2.282345 1_565
Cd3 O11 2.357771 1_455
Cd3 O3 2.668551 1_555
Cd3 O5 2.668551 1_555
Cd3 O0 2.765441 1_456
Cd3 O6 2.765441 1_455
O0 Tc0 2.037229 1_655
O0 Tc3 2.038426 1_565
O1 Tc1 2.037229 1_555
O1 Tc2 2.038426 1_655
O2 Tc2 2.037229 1_555
O2 Tc1 2.038426 1_555
O3 Tc3 2.037229 1_566
O3 Tc0 2.038426 1_556
O4 Tc0 2.037229 1_556
O4 Tc3 2.038426 1_556
O5 Tc1 2.037229 1_565
O5 Tc2 2.038426 1_555
O6 Tc2 2.037229 1_655
O6 Tc1 2.038426 1_565
O7 Tc3 2.037229 1_555
O7 Tc0 2.038426 1_655
O8 Tc3 2.062419 1_565
O8 Tc1 2.062419 1_565
O9 Tc2 2.062419 1_555
O9 Tc0 2.062419 1_555
O10 Tc3 2.062419 1_556
O10 Tc1 2.062419 1_555
O11 Tc0 2.062419 1_656
O11 Tc2 2.062419 1_655
