# generated using pymatgen
data_Tm3Si3Ni
_symmetry_space_group_name_H-M   'P 1'
_cell_length_a   5.48477212
_cell_length_b   5.48477212
_cell_length_c   13.33602635
_cell_angle_alpha   71.01510715
_cell_angle_beta   71.01510715
_cell_angle_gamma   44.21006312
_symmetry_Int_Tables_number   1
_chemical_formula_structural   Tm3Si3Ni
_chemical_formula_sum   'Tm6 Si6 Ni2'
_cell_volume   261.93009079
_cell_formula_units_Z   2
loop_
 _symmetry_equiv_pos_site_id
 _symmetry_equiv_pos_as_xyz
  1  'x, y, z'
loop_
 _atom_site_type_symbol
 _atom_site_label
 _atom_site_symmetry_multiplicity
 _atom_site_fract_x
 _atom_site_fract_y
 _atom_site_fract_z
 _atom_site_occupancy
  Tm  Tm0  1  0.46948123  0.46948123  0.38063836  1
  Tm  Tm1  1  0.53051877  0.53051877  0.61936164  1
  Tm  Tm2  1  0.60137995  0.60137995  0.07857621  1
  Tm  Tm3  1  0.39862005  0.39862005  0.92142379  1
  Tm  Tm4  1  0.25309685  0.25309685  0.22791638  1
  Tm  Tm5  1  0.74690315  0.74690315  0.77208362  1
  Si  Si0  1  0.95431728  0.95431728  0.23637518  1
  Si  Si1  1  0.04568272  0.04568272  0.76362482  1
  Si  Si2  1  0.88449340  0.88449340  0.07647795  1
  Si  Si3  1  0.11550660  0.11550660  0.92352205  1
  Si  Si4  1  0.86257188  0.86257188  0.54301468  1
  Si  Si5  1  0.13742812  0.13742812  0.45698532  1
  Ni  Ni0  1  0.75271387  0.75271387  0.40207888  1
  Ni  Ni1  1  0.24728613  0.24728613  0.59792112  1
loop_
_geom_bond_atom_site_label_1
_geom_bond_atom_site_label_2
_geom_bond_distance
_geom_bond_site_symmetry_2
Si0 Si2 2.472521 1_555
Si0 Tm0 2.862385 1_565
Si0 Tm0 2.862385 1_655
Si0 Tm4 2.935448 1_565
Si0 Tm4 2.935448 1_655
Si0 Tm2 2.951871 1_565
Si0 Tm2 2.951871 1_655
Si0 Tm4 2.998818 1_665
Si1 Si3 2.472521 1_555
Si1 Tm1 2.862385 1_545
Si1 Tm1 2.862385 1_455
Si1 Tm5 2.935448 1_455
Si1 Tm5 2.935448 1_545
Si1 Tm3 2.951871 1_545
Si1 Tm3 2.951871 1_455
Si1 Tm5 2.998818 1_445
Si2 Si3 2.511972 1_664
Si2 Tm2 2.867643 1_555
Si2 Tm4 2.868445 1_565
Si2 Tm4 2.868445 1_655
Si2 Tm3 2.889263 1_564
Si2 Tm3 2.889263 1_654
Si2 Tm2 3.027010 1_565
Si2 Tm2 3.027010 1_655
Si3 Tm3 2.867643 1_555
Si3 Tm5 2.868445 1_455
Si3 Tm5 2.868445 1_545
Si3 Tm2 2.889263 1_546
Si3 Tm2 2.889263 1_456
Si3 Tm3 3.027010 1_545
Si3 Tm3 3.027010 1_455
Si4 Si5 2.620854 1_665
Si4 Tm5 2.862209 1_555
Si4 Tm0 2.911589 1_565
Si4 Tm0 2.911589 1_655
Si4 Tm1 3.070903 1_565
Si4 Tm1 3.070903 1_655
Si4 Tm1 3.164255 1_555
Si5 Tm4 2.862209 1_555
Si5 Tm1 2.911589 1_545
Si5 Tm1 2.911589 1_455
Si5 Tm0 3.070903 1_545
Si5 Tm0 3.070903 1_455
Si5 Tm0 3.164255 1_555
Ni0 Si5 2.359320 1_655
Ni0 Si5 2.359320 1_565
Ni0 Si0 2.429367 1_555
Ni0 Si4 2.500581 1_555
Ni0 Tm0 2.958504 1_565
Ni0 Tm0 2.958504 1_655
Ni0 Tm1 2.983431 1_555
Ni0 Tm0 2.990965 1_555
Ni0 Tm4 3.106154 1_655
Ni0 Tm4 3.106154 1_565
Ni1 Si4 2.359320 1_455
Ni1 Si4 2.359320 1_545
Ni1 Si1 2.429367 1_555
Ni1 Si5 2.500581 1_555
Ni1 Tm1 2.958504 1_545
Ni1 Tm1 2.958504 1_455
Ni1 Tm0 2.983431 1_555
Ni1 Tm1 2.990965 1_555
Ni1 Tm5 3.106154 1_545
Ni1 Tm5 3.106154 1_455
