# generated using pymatgen
data_CsLiTa(PO4)2
_symmetry_space_group_name_H-M   'P 1'
_cell_length_a   5.35921756
_cell_length_b   5.12892451
_cell_length_c   8.25060214
_cell_angle_alpha   88.14220659
_cell_angle_beta   83.86503401
_cell_angle_gamma   63.03012909
_symmetry_Int_Tables_number   1
_chemical_formula_structural   CsLiTa(PO4)2
_chemical_formula_sum   'Cs1 Li1 Ta1 P2 O8'
_cell_volume   200.93004218
_cell_formula_units_Z   1
loop_
 _symmetry_equiv_pos_site_id
 _symmetry_equiv_pos_as_xyz
  1  'x, y, z'
loop_
 _atom_site_type_symbol
 _atom_site_label
 _atom_site_symmetry_multiplicity
 _atom_site_fract_x
 _atom_site_fract_y
 _atom_site_fract_z
 _atom_site_occupancy
  Cs  Cs0  1  0.04049500  0.98219400  0.52908300  1
  Li  Li0  1  0.51994800  0.19239100  0.38101400  1
  Ta  Ta0  1  0.97446800  0.00462100  0.99703400  1
  P  P0  1  0.59345100  0.67632200  0.18887300  1
  P  P1  1  0.36563500  0.34849200  0.79426600  1
  O  O0  1  0.76525300  0.76276400  0.05493600  1
  O  O1  1  0.21876000  0.68497700  0.82785000  1
  O  O2  1  0.38391600  0.29642700  0.61046800  1
  O  O3  1  0.27674500  0.80959300  0.15334100  1
  O  O4  1  0.71244100  0.33202700  0.18822500  1
  O  O5  1  0.19913300  0.21365600  0.89920100  1
  O  O6  1  0.60560700  0.78717200  0.35585200  1
  O  O7  1  0.66914800  0.22186400  0.84842700  1
loop_
_geom_bond_atom_site_label_1
_geom_bond_atom_site_label_2
_geom_bond_distance
_geom_bond_site_symmetry_2
Cs0 O1 2.872546 1_555
Cs0 Li0 2.890043 1_465
Cs0 O6 2.938574 1_555
Cs0 O7 3.046967 1_465
Cs0 O2 3.075798 1_565
Cs0 O2 3.138663 1_465
Cs0 O3 3.212425 1_555
Cs0 O2 3.232430 1_555
Cs0 O6 3.375574 1_455
Cs0 O4 3.476728 1_465
Li0 O6 1.927571 1_545
Li0 O2 1.953923 1_555
Li0 O4 2.086332 1_555
O0 P0 1.544823 1_555
O0 Ta0 2.032924 1_564
O1 P1 1.557879 1_555
O1 Ta0 2.039888 1_465
O2 P1 1.533389 1_555
O3 P0 1.573220 1_555
O3 Ta0 2.044774 1_464
O4 P0 1.582224 1_555
O4 Ta0 2.199888 1_554
O5 P1 1.542677 1_555
O5 Ta0 2.039047 1_455
O6 P0 1.526120 1_555
O7 P1 1.563848 1_555
O7 Ta0 2.027004 1_555
