# generated using pymatgen
data_LiAg4(RuO3)4
_symmetry_space_group_name_H-M   'P 1'
_cell_length_a   7.29984655
_cell_length_b   7.29262463
_cell_length_c   7.28505247
_cell_angle_alpha   60.03434821
_cell_angle_beta   90.00000000
_cell_angle_gamma   120.03276445
_symmetry_Int_Tables_number   1
_chemical_formula_structural   LiAg4(RuO3)4
_chemical_formula_sum   'Li1 Ag4 Ru4 O12'
_cell_volume   274.23666836
_cell_formula_units_Z   1
loop_
 _symmetry_equiv_pos_site_id
 _symmetry_equiv_pos_as_xyz
  1  'x, y, z'
loop_
 _atom_site_type_symbol
 _atom_site_label
 _atom_site_symmetry_multiplicity
 _atom_site_fract_x
 _atom_site_fract_y
 _atom_site_fract_z
 _atom_site_occupancy
  Li  Li0  1  0.37377000  0.74754100  0.37623000  1
  Ag  Ag0  1  0.50030000  0.50042600  0.99978700  1
  Ag  Ag1  1  0.99999000  0.99998100  0.99961500  1
  Ag  Ag2  1  0.00012600  0.50042600  0.99978700  1
  Ag  Ag3  1  0.99999000  0.99998100  0.50040400  1
  Ru  Ru0  1  0.50444400  0.00888700  0.98660700  1
  Ru  Ru1  1  0.50444400  0.00888700  0.50450600  1
  Ru  Ru2  1  0.50471700  0.49035700  0.50482200  1
  Ru  Ru3  1  0.98564000  0.49035700  0.50482200  1
  O  O0  1  0.82044800  0.24964400  0.42904500  1
  O  O1  1  0.57184000  0.14368100  0.17816000  1
  O  O2  1  0.57225200  0.74959000  0.17771000  1
  O  O3  1  0.82044800  0.24964400  0.82131100  1
  O  O4  1  0.82076900  0.64153800  0.42923100  1
  O  O5  1  0.42919700  0.24964400  0.42904500  1
  O  O6  1  0.57225200  0.74959000  0.57270000  1
  O  O7  1  0.17733800  0.74959000  0.17771000  1
  O  O8  1  0.17679500  0.35359100  0.57320500  1
  O  O9  1  0.42919700  0.24964400  0.82131100  1
  O  O10  1  0.42907500  0.85815000  0.82092500  1
  O  O11  1  0.17733800  0.74959000  0.57270000  1
loop_
_geom_bond_atom_site_label_1
_geom_bond_atom_site_label_2
_geom_bond_distance
_geom_bond_site_symmetry_2
Li0 O8 2.031516 1_555
Li0 O11 2.036609 1_555
Li0 O7 2.036614 1_555
Li0 O6 2.036614 1_555
Li0 O2 2.036619 1_555
Li0 O1 2.042809 1_565
Ag0 O2 2.579750 1_556
Ag0 O6 2.579751 1_555
Ag0 O1 2.590848 1_556
Ag0 O9 2.594205 1_555
Ag0 O5 2.594205 1_556
Ag0 O10 2.595331 1_555
Ag1 O8 2.575198 1_665
Ag1 O2 2.587137 1_556
Ag1 O7 2.587143 1_656
Ag1 O4 2.596943 1_556
Ag1 O3 2.597316 1_565
Ag1 O9 2.597328 1_665
Ag2 O7 2.579750 1_556
Ag2 O11 2.579751 1_555
Ag2 O1 2.590853 1_456
Ag2 O3 2.594204 1_455
Ag2 O0 2.594204 1_456
Ag2 O10 2.595331 1_555
Ag3 O8 2.575203 1_665
Ag3 O6 2.587137 1_555
Ag3 O11 2.587143 1_655
Ag3 O4 2.596942 1_555
Ag3 O0 2.597316 1_565
Ag3 O5 2.597328 1_665
O0 Ru1 1.920356 1_555
O0 Ru3 1.920820 1_555
O1 Ru1 2.010445 1_555
O1 Ru0 2.010452 1_554
O2 Ru2 2.015560 1_555
O2 Ru0 2.016436 1_564
O3 Ru0 1.920356 1_555
O3 Ru3 1.920815 1_555
O4 Ru2 1.920672 1_555
O4 Ru3 1.920672 1_555
O5 Ru1 1.920356 1_555
O5 Ru2 1.920822 1_555
O6 Ru2 2.015554 1_555
O6 Ru1 2.016436 1_565
O7 Ru3 2.015560 1_455
O7 Ru0 2.016442 1_564
O8 Ru3 2.021601 1_455
O8 Ru2 2.021608 1_555
O9 Ru0 1.920356 1_555
O9 Ru2 1.920816 1_555
O10 Ru0 1.920414 1_565
O10 Ru1 1.920414 1_565
O11 Ru3 2.015554 1_455
O11 Ru1 2.016442 1_565
