# generated using pymatgen
data_Zn(NiO2)2
_symmetry_space_group_name_H-M   'P 1'
_cell_length_a   5.89471193
_cell_length_b   5.89471193
_cell_length_c   5.89471193
_cell_angle_alpha   119.63201956
_cell_angle_beta   119.27380549
_cell_angle_gamma   90.95049971
_symmetry_Int_Tables_number   1
_chemical_formula_structural   Zn(NiO2)2
_chemical_formula_sum   'Zn2 Ni4 O8'
_cell_volume   146.00891906
_cell_formula_units_Z   2
loop_
 _symmetry_equiv_pos_site_id
 _symmetry_equiv_pos_as_xyz
  1  'x, y, z'
loop_
 _atom_site_type_symbol
 _atom_site_label
 _atom_site_symmetry_multiplicity
 _atom_site_fract_x
 _atom_site_fract_y
 _atom_site_fract_z
 _atom_site_occupancy
  Zn  Zn0  1  0.50000000  0.00000000  0.00000000  1
  Zn  Zn1  1  0.50000000  0.50000000  0.50000000  1
  Ni  Ni0  1  0.88124800  0.13124800  0.75000000  1
  Ni  Ni1  1  0.11875200  0.86875200  0.25000000  1
  Ni  Ni2  1  0.50000000  0.50000000  0.00000000  1
  Ni  Ni3  1  0.00000000  0.50000000  0.50000000  1
  O  O0  1  0.72915300  0.73615100  0.99300200  1
  O  O1  1  0.24799100  0.73609000  0.98809900  1
  O  O2  1  0.24314800  0.73615100  0.50699800  1
  O  O3  1  0.24799100  0.25989200  0.51190100  1
  O  O4  1  0.75200900  0.74010800  0.48809900  1
  O  O5  1  0.75200900  0.26391000  0.01190100  1
  O  O6  1  0.75685200  0.26384900  0.49300200  1
  O  O7  1  0.27084700  0.26384900  0.00699800  1
loop_
_geom_bond_atom_site_label_1
_geom_bond_atom_site_label_2
_geom_bond_distance
_geom_bond_site_symmetry_2
Ni0 O6 1.883412 1_555
Ni0 O7 1.883412 1_656
Ni0 O5 1.884537 1_556
Ni0 O4 1.884537 1_545
Ni1 O2 1.883412 1_555
Ni1 O0 1.883412 1_454
Ni1 O1 1.884537 1_554
Ni1 O3 1.884537 1_565
Ni2 O7 1.952693 1_555
Ni2 O0 1.952693 1_554
Ni2 O3 2.052240 1_554
Ni2 O4 2.052240 1_555
Ni2 O5 2.052240 1_555
Ni2 O1 2.052240 1_554
Ni3 O2 1.952689 1_555
Ni3 O6 1.952689 1_455
Ni3 O4 2.052240 1_455
Ni3 O1 2.052240 1_555
Ni3 O5 2.052240 1_455
Ni3 O3 2.052240 1_555
O0 Zn0 2.075112 1_566
O0 Zn1 2.075112 1_555
O1 Zn0 2.084539 1_566
O2 Zn0 2.075113 1_566
O2 Zn1 2.075117 1_555
O3 Zn1 2.084539 1_555
O4 Zn1 2.084539 1_555
O5 Zn0 2.084539 1_555
O6 Zn0 2.075113 1_555
O6 Zn1 2.075117 1_555
O7 Zn0 2.075112 1_555
O7 Zn1 2.075112 1_555
