# generated using pymatgen
data_NiAsRh
_symmetry_space_group_name_H-M   'P 1'
_cell_length_a   3.58561652
_cell_length_b   3.58561652
_cell_length_c   6.11218094
_cell_angle_alpha   90.00000000
_cell_angle_beta   90.00000000
_cell_angle_gamma   90.00000000
_symmetry_Int_Tables_number   1
_chemical_formula_structural   NiAsRh
_chemical_formula_sum   'Ni2 As2 Rh2'
_cell_volume   78.58214559
_cell_formula_units_Z   2
loop_
 _symmetry_equiv_pos_site_id
 _symmetry_equiv_pos_as_xyz
  1  'x, y, z'
loop_
 _atom_site_type_symbol
 _atom_site_label
 _atom_site_symmetry_multiplicity
 _atom_site_fract_x
 _atom_site_fract_y
 _atom_site_fract_z
 _atom_site_occupancy
  Ni  Ni0  1  0.25000000  0.75000000  0.00000000  1
  Ni  Ni1  1  0.75000000  0.25000000  0.00000000  1
  As  As0  1  0.25000000  0.25000000  0.25088855  1
  As  As1  1  0.75000000  0.75000000  0.74911145  1
  Rh  Rh0  1  0.25000000  0.25000000  0.63831332  1
  Rh  Rh1  1  0.75000000  0.75000000  0.36168668  1
loop_
_geom_bond_atom_site_label_1
_geom_bond_atom_site_label_2
_geom_bond_distance
_geom_bond_site_symmetry_2
Ni0 Ni1 2.535414 1_555
Ni0 Ni1 2.535414 1_465
Ni0 Ni1 2.535414 1_455
Ni0 Ni1 2.535414 1_565
Ni0 Rh1 2.846284 1_455
Ni0 Rh1 2.846284 1_555
Ni0 Rh0 2.846284 1_554
Ni0 Rh0 2.846284 1_564
Ni1 Rh1 2.846284 1_555
Ni1 Rh1 2.846284 1_545
Ni1 Rh0 2.846284 1_554
Ni1 Rh0 2.846284 1_654
As0 Ni0 2.359176 1_545
As0 Ni1 2.359176 1_555
As0 Ni1 2.359176 1_455
As0 Ni0 2.359176 1_555
As0 Rh0 2.368010 1_555
As0 Rh1 2.624299 1_555
As0 Rh1 2.624299 1_545
As0 Rh1 2.624299 1_445
As0 Rh1 2.624299 1_455
As1 Ni1 2.359176 1_566
As1 Ni1 2.359176 1_556
As1 Ni0 2.359176 1_656
As1 Ni0 2.359176 1_556
As1 Rh1 2.368010 1_555
As1 Rh0 2.624299 1_655
As1 Rh0 2.624299 1_565
As1 Rh0 2.624299 1_555
As1 Rh0 2.624299 1_665
