# generated using pymatgen
data_Mn2Be3(SiO4)3
_symmetry_space_group_name_H-M   'P 1'
_cell_length_a   7.47564900
_cell_length_b   8.01682100
_cell_length_c   16.01805507
_cell_angle_alpha   60.67884979
_cell_angle_beta   90.00000000
_cell_angle_gamma   90.00000000
_symmetry_Int_Tables_number   1
_chemical_formula_structural   Mn2Be3(SiO4)3
_chemical_formula_sum   'Mn8 Be12 Si12 O48'
_cell_volume   836.99304936
_cell_formula_units_Z   4
loop_
 _symmetry_equiv_pos_site_id
 _symmetry_equiv_pos_as_xyz
  1  'x, y, z'
loop_
 _atom_site_type_symbol
 _atom_site_label
 _atom_site_symmetry_multiplicity
 _atom_site_fract_x
 _atom_site_fract_y
 _atom_site_fract_z
 _atom_site_occupancy
  Mn  Mn0  1  0.46117600  0.16083600  0.09062800  1
  Mn  Mn1  1  0.03882400  0.16083600  0.59062800  1
  Mn  Mn2  1  0.53882400  0.83916400  0.90937200  1
  Mn  Mn3  1  0.96117600  0.83916400  0.40937200  1
  Mn  Mn4  1  0.55394400  0.81409500  0.43195700  1
  Mn  Mn5  1  0.05394400  0.18590500  0.06804300  1
  Mn  Mn6  1  0.44605600  0.18590500  0.56804300  1
  Mn  Mn7  1  0.94605600  0.81409500  0.93195700  1
  Be  Be0  1  0.83913900  0.80487200  0.76679600  1
  Be  Be1  1  0.66044100  0.16213200  0.40251400  1
  Be  Be2  1  0.16044100  0.83786800  0.09748600  1
  Be  Be3  1  0.33955900  0.83786800  0.59748600  1
  Be  Be4  1  0.83955900  0.16213200  0.90251400  1
  Be  Be5  1  0.16179400  0.47464300  0.41766800  1
  Be  Be6  1  0.66179400  0.52535700  0.08233200  1
  Be  Be7  1  0.83820600  0.52535700  0.58233200  1
  Be  Be8  1  0.33820600  0.47464300  0.91766800  1
  Be  Be9  1  0.66086100  0.80487200  0.26679600  1
  Be  Be10  1  0.16086100  0.19512800  0.23320400  1
  Be  Be11  1  0.33913900  0.19512800  0.73320400  1
  Si  Si0  1  0.22397200  0.81028000  0.76655200  1
  Si  Si1  1  0.72397200  0.18972000  0.73344800  1
  Si  Si2  1  0.77602800  0.18972000  0.23344800  1
  Si  Si3  1  0.27602800  0.81028000  0.26655200  1
  Si  Si4  1  0.73371500  0.46579300  0.91951400  1
  Si  Si5  1  0.23371500  0.53420700  0.58048600  1
  Si  Si6  1  0.26628500  0.53420700  0.08048600  1
  Si  Si7  1  0.76628500  0.46579300  0.41951400  1
  Si  Si8  1  0.23440500  0.16082700  0.90214800  1
  Si  Si9  1  0.73440500  0.83917300  0.59785200  1
  Si  Si10  1  0.76559500  0.83917300  0.09785200  1
  Si  Si11  1  0.26559500  0.16082700  0.40214800  1
  O  O0  1  0.13101500  0.71881000  0.04064500  1
  O  O1  1  0.03152000  0.77476100  0.82325100  1
  O  O2  1  0.53152000  0.22523900  0.67674900  1
  O  O3  1  0.96848000  0.22523900  0.17674900  1
  O  O4  1  0.46848000  0.77476100  0.32325100  1
  O  O5  1  0.53322300  0.36650000  0.96136100  1
  O  O6  1  0.03322300  0.63350000  0.53863900  1
  O  O7  1  0.46677700  0.63350000  0.03863900  1
  O  O8  1  0.96677700  0.36650000  0.46136100  1
  O  O9  1  0.03462900  0.07223600  0.89431200  1
  O  O10  1  0.53462900  0.92776400  0.60568800  1
  O  O11  1  0.96537100  0.92776400  0.10568800  1
  O  O12  1  0.12827500  0.08098500  0.35035500  1
  O  O13  1  0.62827500  0.91901500  0.14964500  1
  O  O14  1  0.87172500  0.91901500  0.64964500  1
  O  O15  1  0.37172500  0.08098500  0.85035500  1
  O  O16  1  0.63101500  0.28119000  0.45935500  1
  O  O17  1  0.46537100  0.07223600  0.39431200  1
  O  O18  1  0.36898500  0.71881000  0.54064500  1
  O  O19  1  0.86898500  0.28119000  0.95935500  1
  O  O20  1  0.77013500  0.94144100  0.47623500  1
  O  O21  1  0.62598100  0.28506200  0.14459200  1
  O  O22  1  0.87401900  0.28506200  0.64459200  1
  O  O23  1  0.37401900  0.71493800  0.85540800  1
  O  O24  1  0.73864100  0.26674400  0.80750100  1
  O  O25  1  0.23864100  0.73325600  0.69249900  1
  O  O26  1  0.26135900  0.73325600  0.19249900  1
  O  O27  1  0.76135900  0.26674400  0.30750100  1
  O  O28  1  0.73097500  0.61680600  0.80920500  1
  O  O29  1  0.23097500  0.38319400  0.69079500  1
  O  O30  1  0.26902500  0.38319400  0.19079500  1
  O  O31  1  0.76902500  0.61680600  0.30920500  1
  O  O32  1  0.23430800  0.38300500  0.86733200  1
  O  O33  1  0.73430800  0.61699500  0.63266800  1
  O  O34  1  0.76569200  0.61699500  0.13266800  1
  O  O35  1  0.26569200  0.38300500  0.36733200  1
  O  O36  1  0.73571600  0.94964100  0.80202400  1
  O  O37  1  0.23571600  0.05035900  0.69797600  1
  O  O38  1  0.26428400  0.05035900  0.19797600  1
  O  O39  1  0.76428400  0.94964100  0.30202400  1
  O  O40  1  0.78040900  0.58846800  0.97817200  1
  O  O41  1  0.28040900  0.41153200  0.52182800  1
  O  O42  1  0.21959100  0.41153200  0.02182800  1
  O  O43  1  0.71959100  0.58846800  0.47817200  1
  O  O44  1  0.72986500  0.94144100  0.97623500  1
  O  O45  1  0.22986500  0.05855900  0.52376500  1
  O  O46  1  0.27013500  0.05855900  0.02376500  1
  O  O47  1  0.12598100  0.71493800  0.35540800  1
loop_
_geom_bond_atom_site_label_1
_geom_bond_atom_site_label_2
_geom_bond_distance
_geom_bond_site_symmetry_2
Mn0 O5 1.988036 1_554
Mn0 O21 2.024847 1_555
Mn0 O38 2.101436 1_555
Mn0 O13 2.101780 1_545
Mn0 O46 2.172344 1_555
Mn0 O42 2.519152 1_555
Mn1 O8 1.988036 1_455
Mn1 O22 2.024847 1_455
Mn1 O37 2.101436 1_555
Mn1 O14 2.101780 1_445
Mn1 O45 2.172344 1_555
Mn1 O41 2.519152 1_555
Mn2 O7 1.988036 1_556
Mn2 O23 2.024847 1_555
Mn2 O36 2.101436 1_555
Mn2 O15 2.101780 1_565
Mn2 O44 2.172344 1_555
Mn2 O40 2.519152 1_555
Mn3 O6 1.988036 1_655
Mn3 O47 2.024847 1_655
Mn3 O39 2.101436 1_555
Mn3 O12 2.101780 1_665
Mn3 O20 2.172344 1_555
Mn3 O43 2.519152 1_555
Mn4 O17 1.965338 1_565
Mn4 O43 2.010421 1_555
Mn4 O4 2.019252 1_555
Mn4 O18 2.055191 1_555
Mn4 O20 2.206005 1_555
Mn4 O39 2.402081 1_555
Mn5 O11 1.965338 1_445
Mn5 O42 2.010421 1_555
Mn5 O3 2.019252 1_455
Mn5 O19 2.055191 1_454
Mn5 O46 2.206005 1_555
Mn5 O38 2.402081 1_555
Mn6 O10 1.965338 1_545
Mn6 O41 2.010421 1_555
Mn6 O2 2.019252 1_555
Mn6 O16 2.055191 1_555
Mn6 O45 2.206005 1_555
Mn6 O37 2.402081 1_555
Mn7 O9 1.965338 1_665
Mn7 O40 2.010421 1_555
Mn7 O1 2.019252 1_655
Mn7 O0 2.055191 1_656
Mn7 O44 2.206005 1_555
Mn7 O36 2.402081 1_555
Be0 O28 1.544449 1_555
Be0 O1 1.652444 1_655
Be0 O14 1.654166 1_555
Be0 O36 1.704277 1_555
Be1 O27 1.529270 1_555
Be1 O16 1.624656 1_555
Be1 O17 1.660102 1_555
Be1 O20 1.775076 1_545
Be2 O26 1.529270 1_555
Be2 O0 1.624656 1_555
Be2 O11 1.660102 1_455
Be2 O46 1.775076 1_565
Be3 O25 1.529270 1_555
Be3 O18 1.624656 1_555
Be3 O10 1.660102 1_555
Be3 O45 1.775076 1_565
Be4 O24 1.529270 1_555
Be4 O19 1.624656 1_555
Be4 O9 1.660102 1_655
Be4 O44 1.775076 1_545
Be5 O35 1.540521 1_555
Be5 O8 1.665109 1_455
Be5 O47 1.701666 1_555
Be5 O41 1.731818 1_555
Be6 O34 1.540521 1_555
Be6 O7 1.665109 1_555
Be6 O21 1.701666 1_555
Be6 O40 1.731818 1_554
Be7 O33 1.540521 1_555
Be7 O6 1.665109 1_655
Be7 O22 1.701666 1_555
Be7 O43 1.731818 1_555
Be8 O32 1.540521 1_555
Be8 O5 1.665109 1_555
Be8 O23 1.701666 1_555
Be8 O42 1.731818 1_556
Be9 O31 1.544449 1_555
Be9 O4 1.652444 1_555
Be9 O13 1.654166 1_555
Be9 O39 1.704277 1_555
Be10 O30 1.544449 1_555
Be10 O3 1.652444 1_455
Be10 O12 1.654166 1_555
Be10 O38 1.704277 1_555
Be11 O29 1.544449 1_555
Be11 O2 1.652444 1_555
Be11 O15 1.654166 1_555
Be11 O37 1.704277 1_555
O0 Si6 1.641658 1_555
O1 Si0 1.650002 1_555
O2 Si1 1.650002 1_555
O3 Si2 1.650002 1_555
O4 Si3 1.650002 1_555
O5 Si4 1.675347 1_555
O6 Si5 1.675347 1_555
O7 Si6 1.675347 1_555
O8 Si7 1.675347 1_555
O9 Si8 1.684602 1_555
O10 Si9 1.684602 1_555
O11 Si10 1.684602 1_555
O12 Si11 1.634590 1_555
O13 Si10 1.634590 1_555
O14 Si9 1.634590 1_555
O15 Si8 1.634590 1_555
O16 Si7 1.641658 1_555
O17 Si11 1.684602 1_555
O18 Si5 1.641658 1_555
O19 Si4 1.641658 1_555
O20 Si9 1.724595 1_555
O21 Si2 1.674134 1_555
O22 Si1 1.674134 1_555
O23 Si0 1.674134 1_555
O24 Si1 1.586734 1_555
O25 Si0 1.586734 1_555
O26 Si3 1.586734 1_555
O27 Si2 1.586734 1_555
O28 Si4 1.578942 1_555
O29 Si5 1.578942 1_555
O30 Si6 1.578942 1_555
O31 Si7 1.578942 1_555
O32 Si8 1.584511 1_555
O33 Si9 1.584511 1_555
O34 Si10 1.584511 1_555
O35 Si11 1.584511 1_555
O36 Si1 1.687613 1_565
O37 Si0 1.687613 1_545
O38 Si3 1.687613 1_545
O39 Si2 1.687613 1_565
O40 Si4 1.696141 1_555
O41 Si5 1.696141 1_555
O42 Si6 1.696141 1_555
O43 Si7 1.696141 1_555
O44 Si10 1.724595 1_556
O45 Si11 1.724595 1_555
O46 Si8 1.724595 1_554
O47 Si3 1.674134 1_555
