# generated using pymatgen
data_LiMn2(SO5)2
_symmetry_space_group_name_H-M   'P 1'
_cell_length_a   5.43317872
_cell_length_b   5.33895234
_cell_length_c   7.54969802
_cell_angle_alpha   68.61526015
_cell_angle_beta   111.59626782
_cell_angle_gamma   82.05451719
_symmetry_Int_Tables_number   1
_chemical_formula_structural   LiMn2(SO5)2
_chemical_formula_sum   'Li1 Mn2 S2 O10'
_cell_volume   179.97350103
_cell_formula_units_Z   1
loop_
 _symmetry_equiv_pos_site_id
 _symmetry_equiv_pos_as_xyz
  1  'x, y, z'
loop_
 _atom_site_type_symbol
 _atom_site_label
 _atom_site_symmetry_multiplicity
 _atom_site_fract_x
 _atom_site_fract_y
 _atom_site_fract_z
 _atom_site_occupancy
  Li  Li0  1  0.63362300  0.51909000  0.77209200  1
  Mn  Mn0  1  0.00443400  0.49725400  0.49829600  1
  Mn  Mn1  1  0.49961500  0.99744100  0.00570800  1
  S  S0  1  0.91848800  0.91030900  0.75719100  1
  S  S1  1  0.09200900  0.08934100  0.24720700  1
  O  O0  1  0.33664300  0.32970200  0.74999100  1
  O  O1  1  0.66937100  0.66487100  0.25553200  1
  O  O2  1  0.22943200  0.80714200  0.87392000  1
  O  O3  1  0.81905600  0.22869600  0.64895000  1
  O  O4  1  0.78086900  0.19643400  0.10314500  1
  O  O5  1  0.18822800  0.77335400  0.37416500  1
  O  O6  1  0.82676500  0.79066300  0.60292500  1
  O  O7  1  0.78945600  0.80875100  0.90159400  1
  O  O8  1  0.15628300  0.21766100  0.39412200  1
  O  O9  1  0.23072900  0.16929200  0.10980500  1
loop_
_geom_bond_atom_site_label_1
_geom_bond_atom_site_label_2
_geom_bond_distance
_geom_bond_site_symmetry_2
Li0 O0 2.007401 1_555
Li0 O4 2.204896 1_556
Li0 O6 2.211644 1_555
Li0 O7 2.218025 1_555
Li0 O3 2.364717 1_555
Mn0 O1 1.836149 1_455
Mn0 O0 1.859604 1_555
Mn0 O5 2.033904 1_555
Mn0 O3 2.101709 1_455
Mn0 O8 2.126217 1_555
Mn0 O6 2.248408 1_455
Mn1 O1 1.839886 1_555
Mn1 O0 1.862226 1_564
Mn1 O4 2.048474 1_565
Mn1 O2 2.061902 1_554
Mn1 O9 2.143396 1_565
Mn1 O7 2.272143 1_554
O2 S0 1.492290 1_455
O3 S0 1.502424 1_545
O4 S1 1.514396 1_655
O5 S1 1.498735 1_565
O6 S0 1.488668 1_555
O7 S0 1.486819 1_555
O8 S1 1.468575 1_555
O9 S1 1.472378 1_555
