# generated using pymatgen
data_Er2S3O20
_symmetry_space_group_name_H-M   'P 1'
_cell_length_a   7.47942384
_cell_length_b   7.47942384
_cell_length_c   18.40847028
_cell_angle_alpha   81.49880435
_cell_angle_beta   81.49880435
_cell_angle_gamma   51.99110881
_symmetry_Int_Tables_number   1
_chemical_formula_structural   Er2S3O20
_chemical_formula_sum   'Er4 S6 O40'
_cell_volume   800.34763149
_cell_formula_units_Z   2
loop_
 _symmetry_equiv_pos_site_id
 _symmetry_equiv_pos_as_xyz
  1  'x, y, z'
loop_
 _atom_site_type_symbol
 _atom_site_label
 _atom_site_symmetry_multiplicity
 _atom_site_fract_x
 _atom_site_fract_y
 _atom_site_fract_z
 _atom_site_occupancy
  Er  Er0  1  0.15087600  0.18242100  0.10458300  1
  Er  Er1  1  0.81757900  0.84912400  0.39541700  1
  Er  Er2  1  0.84912400  0.81757900  0.89541700  1
  Er  Er3  1  0.18242100  0.15087600  0.60458300  1
  S  S0  1  0.70794900  0.29205100  0.25000000  1
  S  S1  1  0.29205100  0.70794900  0.75000000  1
  S  S2  1  0.23943100  0.19060800  0.91035400  1
  S  S3  1  0.80939200  0.76056900  0.58964600  1
  S  S4  1  0.76056900  0.80939200  0.08964600  1
  S  S5  1  0.19060800  0.23943100  0.41035400  1
  O  O0  1  0.31615900  0.36758900  0.07091000  1
  O  O1  1  0.63241100  0.68384100  0.42909000  1
  O  O2  1  0.68384100  0.63241100  0.92909000  1
  O  O3  1  0.36758900  0.31615900  0.57091000  1
  O  O4  1  0.85830600  0.20455100  0.06726700  1
  O  O5  1  0.79544900  0.14169400  0.43273300  1
  O  O6  1  0.14169400  0.79544900  0.93273300  1
  O  O7  1  0.20455100  0.85830600  0.56726700  1
  O  O8  1  0.11502700  0.87824900  0.13117800  1
  O  O9  1  0.12175100  0.88497300  0.36882200  1
  O  O10  1  0.88497300  0.12175100  0.86882200  1
  O  O11  1  0.87824900  0.11502700  0.63117800  1
  O  O12  1  0.34411400  0.25539900  0.18351500  1
  O  O13  1  0.74460100  0.65588600  0.31648500  1
  O  O14  1  0.65588600  0.74460100  0.81648500  1
  O  O15  1  0.25539900  0.34411400  0.68351500  1
  O  O16  1  0.52633600  0.38735800  0.19825500  1
  O  O17  1  0.61264200  0.47366400  0.30174500  1
  O  O18  1  0.47366400  0.61264200  0.80174500  1
  O  O19  1  0.38735800  0.52633600  0.69825500  1
  O  O20  1  0.92132800  0.23861800  0.20923600  1
  O  O21  1  0.76138200  0.07867200  0.29076400  1
  O  O22  1  0.07867200  0.76138200  0.79076400  1
  O  O23  1  0.23861800  0.92132800  0.70923600  1
  O  O24  1  0.22928000  0.09306800  0.98559900  1
  O  O25  1  0.90693200  0.77072000  0.51440100  1
  O  O26  1  0.77072000  0.90693200  0.01440100  1
  O  O27  1  0.09306800  0.22928000  0.48559900  1
  O  O28  1  0.91504600  0.55707800  0.08930700  1
  O  O29  1  0.44292200  0.08495400  0.41069300  1
  O  O30  1  0.08495400  0.44292200  0.91069300  1
  O  O31  1  0.55707800  0.91504600  0.58930700  1
  O  O32  1  0.52635000  0.88087100  0.11235200  1
  O  O33  1  0.11912900  0.47365000  0.38764800  1
  O  O34  1  0.47365000  0.11912900  0.88764800  1
  O  O35  1  0.88087100  0.52635000  0.61235200  1
  O  O36  1  0.18259000  0.11310300  0.85351900  1
  O  O37  1  0.88689700  0.81741000  0.64648100  1
  O  O38  1  0.81741000  0.88689700  0.14648100  1
  O  O39  1  0.11310300  0.18259000  0.35351900  1
loop_
_geom_bond_atom_site_label_1
_geom_bond_atom_site_label_2
_geom_bond_distance
_geom_bond_site_symmetry_2
Er0 O28 2.206600 1_455
Er0 O24 2.271204 1_554
Er0 O20 2.282217 1_455
Er0 O32 2.284024 1_545
Er0 O4 2.291827 1_455
Er0 O0 2.336398 1_555
Er0 O8 2.422909 1_545
Er0 O12 2.514972 1_555
Er1 O29 2.206600 1_565
Er1 O25 2.271204 1_555
Er1 O21 2.282217 1_565
Er1 O33 2.284024 1_655
Er1 O5 2.291827 1_565
Er1 O1 2.336398 1_555
Er1 O9 2.422909 1_655
Er1 O13 2.514972 1_555
Er2 O30 2.206600 1_655
Er2 O26 2.271204 1_556
Er2 O22 2.282217 1_655
Er2 O34 2.284024 1_565
Er2 O6 2.291827 1_655
Er2 O2 2.336398 1_555
Er2 O10 2.422909 1_565
Er2 O14 2.514972 1_555
Er3 O31 2.206600 1_545
Er3 O27 2.271204 1_555
Er3 O23 2.282217 1_545
Er3 O35 2.284024 1_455
Er3 O7 2.291827 1_545
Er3 O3 2.336398 1_555
Er3 O11 2.422909 1_455
Er3 O15 2.514972 1_555
O16 S0 1.499969 1_555
O17 S0 1.499969 1_555
O18 S1 1.499969 1_555
O19 S1 1.499969 1_555
O20 S0 1.489615 1_555
O21 S0 1.489615 1_555
O22 S1 1.489615 1_555
O23 S1 1.489615 1_555
O24 S2 1.481545 1_555
O25 S3 1.481545 1_555
O26 S4 1.481545 1_555
O27 S5 1.481545 1_555
O28 S4 1.487407 1_555
O29 S5 1.487407 1_555
O30 S2 1.487407 1_555
O31 S3 1.487407 1_555
O32 S4 1.491828 1_555
O33 S5 1.491828 1_555
O34 S2 1.491828 1_555
O35 S3 1.491828 1_555
O36 S2 1.491899 1_555
O37 S3 1.491899 1_555
O38 S4 1.491899 1_555
O39 S5 1.491899 1_555
