# generated using pymatgen
data_YbSI
_symmetry_space_group_name_H-M   'P 1'
_cell_length_a   9.36278418
_cell_length_b   9.36278418
_cell_length_c   4.89634300
_cell_angle_alpha   90.00000000
_cell_angle_beta   90.00000000
_cell_angle_gamma   120.00000126
_symmetry_Int_Tables_number   1
_chemical_formula_structural   YbSI
_chemical_formula_sum   'Yb4 S4 I4'
_cell_volume   371.71705255
_cell_formula_units_Z   4
loop_
 _symmetry_equiv_pos_site_id
 _symmetry_equiv_pos_as_xyz
  1  'x, y, z'
loop_
 _atom_site_type_symbol
 _atom_site_label
 _atom_site_symmetry_multiplicity
 _atom_site_fract_x
 _atom_site_fract_y
 _atom_site_fract_z
 _atom_site_occupancy
  Yb  Yb0  1  0.66526600  0.83308000  0.00000000  1
  Yb  Yb1  1  0.16781400  0.33473400  0.00000000  1
  Yb  Yb2  1  0.16692000  0.83218600  0.00000000  1
  Yb  Yb3  1  0.66666700  0.33333300  0.00000000  1
  S  S0  1  0.99817000  0.49798300  0.00000000  1
  S  S1  1  0.49981300  0.00183000  0.00000000  1
  S  S2  1  0.50201700  0.50018700  0.00000000  1
  S  S3  1  0.00000000  0.00000000  0.00000000  1
  I  I0  1  0.84729700  0.16574600  0.50000000  1
  I  I1  1  0.31844900  0.15270300  0.50000000  1
  I  I2  1  0.83425400  0.68155100  0.50000000  1
  I  I3  1  0.33333300  0.66666700  0.50000000  1
loop_
_geom_bond_atom_site_label_1
_geom_bond_atom_site_label_2
_geom_bond_distance
_geom_bond_site_symmetry_2
S0 Yb3 2.687982 1_555
S0 Yb1 2.699399 1_655
S0 Yb2 2.709899 1_655
S1 Yb3 2.687982 1_555
S1 Yb2 2.699399 1_545
S1 Yb0 2.709899 1_545
S2 Yb3 2.687990 1_555
S2 Yb0 2.699399 1_555
S2 Yb1 2.709899 1_555
S3 Yb1 2.714163 1_555
S3 Yb0 2.714163 1_445
S3 Yb2 2.714163 1_545
I0 Yb1 3.571333 1_655
I0 Yb1 3.571333 1_656
I0 Yb0 3.645692 1_545
I0 Yb0 3.645692 1_546
I0 Yb3 3.737559 1_555
I0 Yb3 3.737559 1_556
I1 Yb2 3.571333 1_545
I1 Yb2 3.571333 1_546
I1 Yb1 3.645692 1_556
I1 Yb1 3.645692 1_555
I1 Yb3 3.737565 1_555
I1 Yb3 3.737565 1_556
I2 Yb0 3.571333 1_555
I2 Yb0 3.571333 1_556
I2 Yb2 3.645692 1_656
I2 Yb2 3.645692 1_655
I2 Yb3 3.737565 1_555
I2 Yb3 3.737565 1_556
I3 Yb2 3.638326 1_556
I3 Yb2 3.638326 1_555
I3 Yb0 3.638331 1_555
I3 Yb0 3.638331 1_556
I3 Yb1 3.638332 1_556
I3 Yb1 3.638332 1_555
