# generated using pymatgen
data_KNaHg2
_symmetry_space_group_name_H-M   'P 1'
_cell_length_a   13.47280865
_cell_length_b   12.99764407
_cell_length_c   12.99764402
_cell_angle_alpha   59.43932641
_cell_angle_beta   58.78312885
_cell_angle_gamma   58.78313178
_symmetry_Int_Tables_number   1
_chemical_formula_structural   KNaHg2
_chemical_formula_sum   'K1 Na1 Hg2'
_cell_volume   1572.64567908
_cell_formula_units_Z   1
loop_
 _symmetry_equiv_pos_site_id
 _symmetry_equiv_pos_as_xyz
  1  'x, y, z'
loop_
 _atom_site_type_symbol
 _atom_site_label
 _atom_site_symmetry_multiplicity
 _atom_site_fract_x
 _atom_site_fract_y
 _atom_site_fract_z
 _atom_site_occupancy
  K  K0  1  0.50000000  0.00000000  0.00000000  1
  Na  Na0  1  0.00000000  0.00000000  0.00000000  1
  Hg  Hg0  1  0.76281280  1.00000000  1.00000000  1
  Hg  Hg1  1  0.23718720  0.00000000  0.00000000  1
loop_
_geom_bond_atom_site_label_1
_geom_bond_atom_site_label_2
_geom_bond_distance
_geom_bond_site_symmetry_2
Hg0 Na0 3.195578 1_666
Hg0 K0 3.540827 1_566
Hg1 Na0 3.195578 1_555
Hg1 K0 3.540827 1_555
