# generated using pymatgen
data_YbNiC2
_symmetry_space_group_name_H-M   'P 1'
_cell_length_a   3.75756750
_cell_length_b   3.75756750
_cell_length_c   3.54946600
_cell_angle_alpha   90.00000000
_cell_angle_beta   90.00000000
_cell_angle_gamma   106.15764595
_symmetry_Int_Tables_number   1
_chemical_formula_structural   YbNiC2
_chemical_formula_sum   'Yb1 Ni1 C2'
_cell_volume   48.13642336
_cell_formula_units_Z   1
loop_
 _symmetry_equiv_pos_site_id
 _symmetry_equiv_pos_as_xyz
  1  'x, y, z'
loop_
 _atom_site_type_symbol
 _atom_site_label
 _atom_site_symmetry_multiplicity
 _atom_site_fract_x
 _atom_site_fract_y
 _atom_site_fract_z
 _atom_site_occupancy
  Yb  Yb0  1  0.99464100  0.00535900  0.00000000  1
  Ni  Ni0  1  0.61433500  0.38566500  0.50000000  1
  C  C0  1  0.45017900  0.84415500  0.50000000  1
  C  C1  1  0.15584500  0.54982100  0.50000000  1
loop_
_geom_bond_atom_site_label_1
_geom_bond_atom_site_label_2
_geom_bond_distance
_geom_bond_site_symmetry_2
C0 C1 1.328759 1_555
C0 Ni0 1.955041 1_565
C0 Ni0 1.984939 1_555
C0 Yb0 2.648092 1_565
C0 Yb0 2.648092 1_566
C0 Yb0 2.650213 1_465
C0 Yb0 2.650213 1_466
C1 Ni0 1.955041 1_455
C1 Ni0 1.984939 1_555
C1 Yb0 2.648092 1_455
C1 Yb0 2.648092 1_456
C1 Yb0 2.650213 1_465
C1 Yb0 2.650213 1_466
