# generated using pymatgen
data_Er(BRu)4
_symmetry_space_group_name_H-M   'P 1'
_cell_length_a   9.18646412
_cell_length_b   9.18646412
_cell_length_c   9.18646412
_cell_angle_alpha   131.99582961
_cell_angle_beta   131.99582961
_cell_angle_gamma   70.23561364
_symmetry_Int_Tables_number   1
_chemical_formula_structural   Er(BRu)4
_chemical_formula_sum   'Er4 B16 Ru16'
_cell_volume   419.70160446
_cell_formula_units_Z   4
loop_
 _symmetry_equiv_pos_site_id
 _symmetry_equiv_pos_as_xyz
  1  'x, y, z'
loop_
 _atom_site_type_symbol
 _atom_site_label
 _atom_site_symmetry_multiplicity
 _atom_site_fract_x
 _atom_site_fract_y
 _atom_site_fract_z
 _atom_site_occupancy
  Er  Er0  1  0.25000000  0.25000000  0.00000000  1
  Er  Er1  1  0.75000000  0.75000000  0.00000000  1
  Er  Er2  1  0.50000000  0.00000000  0.50000000  1
  Er  Er3  1  0.00000000  0.50000000  0.50000000  1
  B  B0  1  0.22189100  0.91451700  0.97230500  1
  B  B1  1  0.72189100  0.74958600  0.30737400  1
  B  B2  1  0.16451700  0.97189100  0.47230500  1
  B  B3  1  0.66451700  0.19221200  0.19262600  1
  B  B4  1  0.52810900  0.33548300  0.52769500  1
  B  B5  1  0.02810900  0.50041400  0.19262600  1
  B  B6  1  0.58548300  0.27810900  0.02769500  1
  B  B7  1  0.08548300  0.05778800  0.30737400  1
  B  B8  1  0.44221200  0.41451700  0.69262600  1
  B  B9  1  0.94221200  0.24958600  0.02769500  1
  B  B10  1  0.99958600  0.47189100  0.80737400  1
  B  B11  1  0.49958600  0.69221200  0.52769500  1
  B  B12  1  0.30778800  0.83548300  0.80737400  1
  B  B13  1  0.80778800  0.00041400  0.47230500  1
  B  B14  1  0.75041400  0.77810900  0.69262600  1
  B  B15  1  0.25041400  0.55778800  0.97230500  1
  Ru  Ru0  1  0.53920300  0.07256000  0.23530100  1
  Ru  Ru1  1  0.03920300  0.80390300  0.46664300  1
  Ru  Ru2  1  0.32256000  0.28920300  0.73530100  1
  Ru  Ru3  1  0.82256000  0.08726000  0.03335700  1
  Ru  Ru4  1  0.21079700  0.17744000  0.26469900  1
  Ru  Ru5  1  0.71079700  0.44609700  0.03335700  1
  Ru  Ru6  1  0.42744000  0.96079700  0.76469900  1
  Ru  Ru7  1  0.92744000  0.16274000  0.46664300  1
  Ru  Ru8  1  0.33726000  0.57256000  0.53335700  1
  Ru  Ru9  1  0.83726000  0.30390300  0.76469900  1
  Ru  Ru10  1  0.05390300  0.78920300  0.96664300  1
  Ru  Ru11  1  0.55390300  0.58726000  0.26469900  1
  Ru  Ru12  1  0.41274000  0.67744000  0.96664300  1
  Ru  Ru13  1  0.91274000  0.94609700  0.73530100  1
  Ru  Ru14  1  0.69609700  0.46079700  0.53335700  1
  Ru  Ru15  1  0.19609700  0.66274000  0.23530100  1
loop_
_geom_bond_atom_site_label_1
_geom_bond_atom_site_label_2
_geom_bond_distance
_geom_bond_site_symmetry_2
Er0 Ru15 2.913622 1_555
Er0 Ru9 2.913622 1_454
Er0 Ru6 2.913627 1_544
Er0 Ru0 2.913627 1_555
Er0 Ru4 3.160711 1_555
Er0 Ru2 3.160711 1_554
Er0 Ru11 3.160725 1_555
Er0 Ru13 3.160725 1_444
Er0 Ru8 3.217502 1_555
Er0 Ru1 3.217502 1_544
Er0 Ru14 3.217502 1_555
Er0 Ru7 3.217502 1_454
Er1 Ru7 2.913622 1_565
Er1 Ru1 2.913622 1_655
Er1 Ru8 2.913622 1_554
Er1 Ru14 2.913622 1_554
Er1 Ru12 3.160720 1_554
Er1 Ru5 3.160720 1_555
Er1 Ru10 3.160720 1_654
Er1 Ru3 3.160720 1_565
Er1 Ru9 3.217501 1_554
Er1 Ru15 3.217501 1_655
Er1 Ru0 3.217506 1_565
Er1 Ru6 3.217506 1_554
Er2 Ru13 2.913622 1_545
Er2 Ru11 2.913622 1_545
Er2 Ru4 2.913627 1_555
Er2 Ru2 2.913627 1_555
Er2 Ru0 3.160711 1_555
Er2 Ru6 3.160711 1_545
Er2 Ru9 3.160725 1_555
Er2 Ru15 3.160725 1_545
Er2 Ru10 3.217502 1_544
Er2 Ru12 3.217502 1_544
Er2 Ru3 3.217502 1_556
Er2 Ru5 3.217502 1_556
Er3 Ru12 2.913622 1_555
Er3 Ru10 2.913622 1_555
Er3 Ru3 2.913622 1_455
Er3 Ru5 2.913622 1_455
Er3 Ru1 3.160720 1_555
Er3 Ru7 3.160720 1_455
Er3 Ru8 3.160720 1_555
Er3 Ru14 3.160720 1_455
Er3 Ru11 3.217501 1_455
Er3 Ru13 3.217501 1_455
Er3 Ru4 3.217506 1_555
Er3 Ru2 3.217506 1_555
B0 B12 1.784878 1_555
B0 Ru4 2.139490 1_566
B0 Ru10 2.173341 1_555
B0 Ru13 2.214467 1_455
B0 Ru0 2.277359 1_566
B0 Ru12 2.282066 1_555
B0 Er3 2.964207 1_555
B0 Er0 3.005095 1_566
B0 Er2 3.214561 1_566
B1 B13 1.784878 1_565
B1 Ru5 2.139495 1_555
B1 Ru11 2.173334 1_555
B1 Ru12 2.214469 1_554
B1 Ru1 2.277361 1_655
B1 Ru13 2.282072 1_555
B1 Er2 2.964207 1_565
B1 Er1 3.005095 1_555
B1 Er3 3.214561 1_655
B2 B7 1.784878 1_565
B2 Ru6 2.139490 1_555
B2 Ru1 2.173341 1_555
B2 Ru15 2.214467 1_555
B2 Ru2 2.277359 1_565
B2 Ru7 2.282066 1_465
B2 Er1 2.964207 1_455
B2 Er2 3.005095 1_565
B2 Er0 3.214561 1_566
B3 B6 1.784878 1_555
B3 Ru7 2.139495 1_555
B3 Ru0 2.173349 1_555
B3 Ru14 2.214469 1_555
B3 Ru3 2.277361 1_555
B3 Ru6 2.282070 1_544
B3 Er0 2.964207 1_555
B3 Er3 3.005095 1_655
B3 Er1 3.214561 1_545
B4 B8 1.784878 1_555
B4 Ru0 2.139490 1_555
B4 Ru14 2.173341 1_555
B4 Ru9 2.214467 1_555
B4 Ru4 2.277359 1_555
B4 Ru8 2.282066 1_555
B4 Er1 2.964207 1_556
B4 Er2 3.005095 1_555
B4 Er0 3.214561 1_555
B5 B9 1.784878 1_455
B5 Ru1 2.139495 1_555
B5 Ru15 2.173334 1_555
B5 Ru8 2.214469 1_555
B5 Ru5 2.277361 1_455
B5 Ru9 2.282072 1_454
B5 Er0 2.964207 1_555
B5 Er3 3.005095 1_555
B5 Er1 3.214561 1_455
B6 Ru2 2.139490 1_554
B6 Ru5 2.173341 1_555
B6 Ru11 2.214467 1_555
B6 Ru6 2.277359 1_544
B6 Ru3 2.282066 1_555
B6 Er3 2.964207 1_655
B6 Er0 3.005095 1_555
B6 Er2 3.214561 1_554
B7 Ru3 2.139495 1_455
B7 Ru4 2.173349 1_555
B7 Ru10 2.214469 1_544
B7 Ru7 2.277361 1_455
B7 Ru2 2.282070 1_555
B7 Er2 2.964207 1_555
B7 Er1 3.005095 1_445
B7 Er3 3.214561 1_555
B8 Ru12 2.139495 1_555
B8 Ru2 2.173349 1_555
B8 Ru5 2.214469 1_556
B8 Ru8 2.277361 1_555
B8 Ru4 2.282070 1_555
B8 Er2 2.964207 1_555
B8 Er1 3.005095 1_556
B8 Er3 3.214561 1_555
B9 Ru13 2.139493 1_544
B9 Ru3 2.173341 1_555
B9 Ru4 2.214465 1_655
B9 Ru9 2.277369 1_554
B9 Ru5 2.282066 1_555
B9 Er3 2.964207 1_655
B9 Er0 3.005095 1_655
B9 Er2 3.214561 1_554
B10 B15 1.784878 1_655
B10 Ru14 2.139495 1_555
B10 Ru9 2.173334 1_555
B10 Ru7 2.214469 1_555
B10 Ru10 2.277361 1_655
B10 Ru15 2.282072 1_656
B10 Er0 2.964207 1_656
B10 Er3 3.005095 1_655
B10 Er1 3.214561 1_556
B11 B14 1.784878 1_555
B11 Ru15 2.139493 1_555
B11 Ru8 2.173341 1_555
B11 Ru6 2.214465 1_555
B11 Ru11 2.277369 1_555
B11 Ru14 2.282066 1_555
B11 Er1 2.964207 1_556
B11 Er2 3.005095 1_565
B11 Er0 3.214561 1_555
B12 Ru8 2.139495 1_555
B12 Ru6 2.173349 1_555
B12 Ru1 2.214469 1_555
B12 Ru12 2.277361 1_555
B12 Ru0 2.282070 1_566
B12 Er0 2.964207 1_566
B12 Er3 3.005095 1_555
B12 Er1 3.214561 1_556
B13 Ru9 2.139493 1_555
B13 Ru7 2.173341 1_555
B13 Ru0 2.214465 1_555
B13 Ru13 2.277369 1_545
B13 Ru1 2.282066 1_645
B13 Er1 2.964207 1_545
B13 Er2 3.005095 1_555
B13 Er0 3.214561 1_656
B14 Ru10 2.139495 1_655
B14 Ru13 2.173334 1_555
B14 Ru3 2.214469 1_566
B14 Ru14 2.277361 1_555
B14 Ru11 2.282072 1_555
B14 Er2 2.964207 1_565
B14 Er1 3.005095 1_556
B14 Er3 3.214561 1_655
B15 Ru11 2.139493 1_556
B15 Ru12 2.173341 1_555
B15 Ru2 2.214465 1_555
B15 Ru15 2.277369 1_556
B15 Ru10 2.282066 1_555
B15 Er3 2.964207 1_555
B15 Er0 3.005095 1_556
B15 Er2 3.214561 1_566
