# generated using pymatgen
data_Pr4ZrCo25
_symmetry_space_group_name_H-M   'P 1'
_cell_length_a   21.74522317
_cell_length_b   21.74522317
_cell_length_c   3.96917500
_cell_angle_alpha   90.00000000
_cell_angle_beta   90.00000000
_cell_angle_gamma   166.84926524
_symmetry_Int_Tables_number   1
_chemical_formula_structural   Pr4ZrCo25
_chemical_formula_sum   'Pr4 Zr1 Co25'
_cell_volume   427.00746601
_cell_formula_units_Z   1
loop_
 _symmetry_equiv_pos_site_id
 _symmetry_equiv_pos_as_xyz
  1  'x, y, z'
loop_
 _atom_site_type_symbol
 _atom_site_label
 _atom_site_symmetry_multiplicity
 _atom_site_fract_x
 _atom_site_fract_y
 _atom_site_fract_z
 _atom_site_occupancy
  Pr  Pr0  1  0.90159100  0.09840900  0.00000000  1
  Pr  Pr1  1  0.30027700  0.69972300  0.00000000  1
  Pr  Pr2  1  0.69972300  0.30027700  0.00000000  1
  Pr  Pr3  1  0.09840900  0.90159100  0.00000000  1
  Zr  Zr0  1  0.50000000  0.50000000  0.00000000  1
  Co  Co0  1  0.43646800  0.56353200  0.00000000  1
  Co  Co1  1  0.83374000  0.16626000  0.00000000  1
  Co  Co2  1  0.23324800  0.76675200  0.00000000  1
  Co  Co3  1  0.63322900  0.36677100  0.00000000  1
  Co  Co4  1  0.03033700  0.96966300  0.00000000  1
  Co  Co5  1  0.96966300  0.03033700  0.00000000  1
  Co  Co6  1  0.36677100  0.63322900  0.00000000  1
  Co  Co7  1  0.76675200  0.23324800  0.00000000  1
  Co  Co8  1  0.16626000  0.83374000  0.00000000  1
  Co  Co9  1  0.56353200  0.43646800  0.00000000  1
  Co  Co10  1  0.40129500  0.59870500  0.50000000  1
  Co  Co11  1  0.80027500  0.19972500  0.50000000  1
  Co  Co12  1  0.19972500  0.80027500  0.50000000  1
  Co  Co13  1  0.59870500  0.40129500  0.50000000  1
  Co  Co14  1  0.00000000  0.00000000  0.50000000  1
  Co  Co15  1  0.21383600  0.30724300  0.50000000  1
  Co  Co16  1  0.60098200  0.89956200  0.50000000  1
  Co  Co17  1  0.00000000  0.50000000  0.50000000  1
  Co  Co18  1  0.39901800  0.10043800  0.50000000  1
  Co  Co19  1  0.78616400  0.69275700  0.50000000  1
  Co  Co20  1  0.69275700  0.78616400  0.50000000  1
  Co  Co21  1  0.10043800  0.39901800  0.50000000  1
  Co  Co22  1  0.50000000  0.00000000  0.50000000  1
  Co  Co23  1  0.89956200  0.60098200  0.50000000  1
  Co  Co24  1  0.30724300  0.21383600  0.50000000  1
loop_
_geom_bond_atom_site_label_1
_geom_bond_atom_site_label_2
_geom_bond_distance
_geom_bond_site_symmetry_2
Co0 Co15 2.426799 1_554
Co0 Co15 2.426799 1_555
Co0 Co20 2.426799 1_554
Co0 Co20 2.426799 1_555
Co0 Co10 2.499571 1_554
Co0 Co10 2.499571 1_555
Co0 Zr0 2.744860 1_555
Co0 Co5 2.873530 1_455
Co0 Co5 2.873530 1_565
Co0 Pr0 2.910481 1_455
Co0 Pr0 2.910481 1_565
Co1 Co21 2.454150 1_655
Co1 Co21 2.454150 1_654
Co1 Co16 2.454150 1_545
Co1 Co16 2.454150 1_544
Co1 Co11 2.455407 1_555
Co1 Co11 2.455407 1_554
Co1 Pr1 2.879326 1_655
Co1 Pr1 2.879326 1_545
Co1 Pr0 2.931460 1_555
Co2 Co22 2.452040 1_565
Co2 Co22 2.452040 1_564
Co2 Pr2 2.880672 1_455
Co2 Pr2 2.880672 1_565
Co2 Pr1 2.895946 1_555
Co3 Pr2 2.872831 1_555
Co3 Pr3 2.909206 1_545
Co3 Pr3 2.909206 1_655
Co4 Co5 2.621382 1_465
Co4 Zr0 2.813938 1_455
Co4 Zr0 2.813938 1_565
Co4 Co9 2.873530 1_565
Co4 Co9 2.873530 1_455
Co4 Pr3 2.941008 1_555
Co5 Zr0 2.813938 1_545
Co5 Zr0 2.813938 1_655
Co5 Pr0 2.941008 1_555
Co6 Pr1 2.872831 1_555
Co6 Pr0 2.909206 1_455
Co6 Pr0 2.909206 1_565
Co7 Pr1 2.880672 1_545
Co7 Pr1 2.880672 1_655
Co7 Pr2 2.895946 1_555
Co8 Pr2 2.879326 1_565
Co8 Pr2 2.879326 1_455
Co8 Pr3 2.931460 1_555
Co9 Zr0 2.744860 1_555
Co9 Pr3 2.910481 1_545
Co9 Pr3 2.910481 1_655
Co10 Co6 2.482624 1_555
Co10 Co6 2.482624 1_556
Co10 Co21 2.515917 1_555
Co10 Co16 2.515917 1_555
Co10 Co15 2.543574 1_555
Co10 Co20 2.543574 1_555
Co10 Pr0 3.184193 1_455
Co10 Pr0 3.184193 1_456
Co10 Pr0 3.184193 1_565
Co10 Pr0 3.184193 1_566
Co11 Co7 2.456884 1_556
Co11 Co7 2.456884 1_555
Co11 Co22 2.503618 1_555
Co11 Co17 2.503618 1_655
Co11 Co16 2.508945 1_545
Co11 Co21 2.508945 1_655
Co11 Pr1 3.184167 1_546
Co11 Pr1 3.184167 1_655
Co11 Pr1 3.184167 1_656
Co11 Pr1 3.184167 1_545
Co12 Co8 2.455407 1_556
Co12 Co8 2.455407 1_555
Co12 Co2 2.456884 1_555
Co12 Co2 2.456884 1_556
Co12 Co17 2.503618 1_555
Co12 Co22 2.503618 1_565
Co12 Co23 2.508945 1_455
Co12 Co18 2.508945 1_565
Co12 Pr2 3.184167 1_565
Co12 Pr2 3.184167 1_455
Co12 Pr2 3.184167 1_456
Co12 Pr2 3.184167 1_566
Co13 Co3 2.482624 1_556
Co13 Co3 2.482624 1_555
Co13 Co9 2.499571 1_555
Co13 Co9 2.499571 1_556
Co13 Co18 2.515917 1_555
Co13 Co23 2.515917 1_555
Co13 Co24 2.543574 1_555
Co13 Co19 2.543574 1_555
Co13 Pr3 3.184193 1_545
Co13 Pr3 3.184193 1_546
Co13 Pr3 3.184193 1_656
Co13 Pr3 3.184193 1_655
Co14 Co5 2.378339 1_456
Co14 Co5 2.378339 1_455
Co14 Co4 2.378339 1_546
Co14 Co4 2.378339 1_545
Co14 Co24 2.398965 1_555
Co14 Co15 2.398965 1_555
Co14 Co19 2.398965 1_445
Co14 Co20 2.398965 1_445
Co14 Zr0 3.184167 1_446
Co14 Zr0 3.184167 1_555
Co14 Zr0 3.184167 1_556
Co14 Zr0 3.184167 1_445
Co15 Co20 2.385072 1_555
Co15 Co5 2.474292 1_456
Co15 Co5 2.474292 1_455
Co15 Co20 2.595022 1_445
Co15 Zr0 3.071193 1_555
Co15 Zr0 3.071193 1_556
Co15 Pr0 3.257675 1_456
Co15 Pr0 3.257675 1_455
Co16 Co6 2.444085 1_555
Co16 Co6 2.444085 1_556
Co16 Co21 2.487338 1_665
Co16 Co21 2.492756 1_555
Co16 Pr1 3.199963 1_556
Co16 Pr1 3.199963 1_555
Co16 Pr0 3.212124 1_565
Co16 Pr0 3.212124 1_566
Co17 Co2 2.452040 1_555
Co17 Co2 2.452040 1_556
Co17 Co7 2.452040 1_456
Co17 Co7 2.452040 1_455
Co17 Co22 2.490047 1_565
Co17 Co22 2.490047 1_455
Co17 Pr1 3.194850 1_556
Co17 Pr1 3.194850 1_555
Co17 Pr2 3.194850 1_455
Co17 Pr2 3.194850 1_456
Co18 Co3 2.444085 1_556
Co18 Co3 2.444085 1_555
Co18 Co8 2.454150 1_545
Co18 Co8 2.454150 1_546
Co18 Co23 2.487338 1_445
Co18 Co23 2.492756 1_555
Co18 Pr2 3.199963 1_556
Co18 Pr2 3.199963 1_555
Co18 Pr3 3.212124 1_546
Co18 Pr3 3.212124 1_545
Co19 Co24 2.385072 1_555
Co19 Co9 2.426799 1_556
Co19 Co9 2.426799 1_555
Co19 Co4 2.474292 1_655
Co19 Co4 2.474292 1_656
Co19 Co24 2.595022 1_665
Co19 Zr0 3.071193 1_555
Co19 Zr0 3.071193 1_556
Co19 Pr3 3.257675 1_655
Co19 Pr3 3.257675 1_656
Co20 Co5 2.474292 1_565
Co20 Co5 2.474292 1_566
Co20 Zr0 3.071193 1_555
Co20 Zr0 3.071193 1_556
Co20 Pr0 3.257675 1_566
Co20 Pr0 3.257675 1_565
Co21 Co6 2.444085 1_555
Co21 Co6 2.444085 1_556
Co21 Pr1 3.199963 1_556
Co21 Pr1 3.199963 1_555
Co21 Pr0 3.212124 1_456
Co21 Pr0 3.212124 1_455
Co22 Co7 2.452040 1_556
Co22 Co7 2.452040 1_555
Co22 Pr2 3.194850 1_555
Co22 Pr2 3.194850 1_556
Co22 Pr1 3.194850 1_546
Co22 Pr1 3.194850 1_545
Co23 Co3 2.444085 1_556
Co23 Co3 2.444085 1_555
Co23 Co8 2.454150 1_655
Co23 Co8 2.454150 1_656
Co23 Pr2 3.199963 1_555
Co23 Pr2 3.199963 1_556
Co23 Pr3 3.212124 1_655
Co23 Pr3 3.212124 1_656
Co24 Co9 2.426799 1_555
Co24 Co9 2.426799 1_556
Co24 Co4 2.474292 1_545
Co24 Co4 2.474292 1_546
Co24 Zr0 3.071193 1_555
Co24 Zr0 3.071193 1_556
Co24 Pr3 3.257675 1_545
Co24 Pr3 3.257675 1_546
