# generated using pymatgen
data_Rb2PtC4(N2Cl)2
_symmetry_space_group_name_H-M   'P 1'
_cell_length_a   7.10834100
_cell_length_b   9.60165931
_cell_length_c   9.97968424
_cell_angle_alpha   89.07091551
_cell_angle_beta   104.16034105
_cell_angle_gamma   107.40529794
_symmetry_Int_Tables_number   1
_chemical_formula_structural   Rb2PtC4(N2Cl)2
_chemical_formula_sum   'Rb4 Pt2 C8 N8 Cl4'
_cell_volume   629.00073653
_cell_formula_units_Z   2
loop_
 _symmetry_equiv_pos_site_id
 _symmetry_equiv_pos_as_xyz
  1  'x, y, z'
loop_
 _atom_site_type_symbol
 _atom_site_label
 _atom_site_symmetry_multiplicity
 _atom_site_fract_x
 _atom_site_fract_y
 _atom_site_fract_z
 _atom_site_occupancy
  Rb  Rb0  1  0.12698300  0.82417000  0.43171100  1
  Rb  Rb1  1  0.87301700  0.17583000  0.56828900  1
  Rb  Rb2  1  0.28832500  0.65594100  0.95190100  1
  Rb  Rb3  1  0.71167500  0.34405900  0.04809900  1
  Pt  Pt0  1  0.00000000  0.00000000  0.00000000  1
  Pt  Pt1  1  0.50000000  0.50000000  0.50000000  1
  C  C0  1  0.93568600  0.07385500  0.16658500  1
  C  C1  1  0.06431400  0.92614500  0.83341500  1
  C  C2  1  0.85131500  0.79511800  0.03850200  1
  C  C3  1  0.14868500  0.20488200  0.96149800  1
  C  C4  1  0.70844200  0.49874000  0.67820200  1
  C  C5  1  0.29155800  0.50126000  0.32179800  1
  C  C6  1  0.60338300  0.71951400  0.49366400  1
  C  C7  1  0.39661700  0.28048600  0.50633600  1
  N  N0  1  0.89474000  0.11591800  0.26181000  1
  N  N1  1  0.10526000  0.88408200  0.73819000  1
  N  N2  1  0.76161400  0.67738200  0.06145300  1
  N  N3  1  0.23838600  0.32261800  0.93854700  1
  N  N4  1  0.82823900  0.49044300  0.77939300  1
  N  N5  1  0.17176100  0.50955700  0.22060700  1
  N  N6  1  0.65609100  0.84639200  0.48625800  1
  N  N7  1  0.34390900  0.15360800  0.51374200  1
  Cl  Cl0  1  0.68874200  0.02104200  0.86110700  1
  Cl  Cl1  1  0.31125800  0.97895800  0.13889300  1
  Cl  Cl2  1  0.73571900  0.47195000  0.37947400  1
  Cl  Cl3  1  0.26428100  0.52805000  0.62052600  1
loop_
_geom_bond_atom_site_label_1
_geom_bond_atom_site_label_2
_geom_bond_distance
_geom_bond_site_symmetry_2
C0 N0 1.170057 1_555
C0 Pt0 2.019826 1_655
C1 N1 1.170057 1_555
C1 Pt0 2.019826 1_566
C2 N2 1.169956 1_555
C2 Pt0 2.016160 1_665
C3 N3 1.169956 1_555
C3 Pt0 2.016160 1_556
C4 N4 1.169842 1_555
C4 Pt1 2.019655 1_555
C5 N5 1.169842 1_555
C5 Pt1 2.019655 1_555
C6 N6 1.169405 1_555
C6 Pt1 2.019458 1_555
C7 N7 1.169405 1_555
C7 Pt1 2.019458 1_555
N0 Rb1 3.170308 1_555
N0 Rb3 3.352077 1_555
N1 Rb0 3.170308 1_555
N1 Rb2 3.352077 1_555
N2 Rb3 3.114110 1_555
N2 Rb2 3.217064 1_554
N3 Rb2 3.114110 1_555
N3 Rb3 3.217064 1_556
N4 Rb3 3.181384 1_556
N4 Rb2 3.226392 1_655
N5 Rb2 3.181384 1_554
N5 Rb3 3.226392 1_455
N6 Rb1 3.098669 1_565
N6 Rb0 3.587278 1_655
N6 Rb0 3.606871 1_555
N7 Rb0 3.098669 1_545
N7 Rb1 3.587278 1_455
N7 Rb1 3.606871 1_555
Cl0 Pt0 2.369650 1_656
Cl0 Rb3 3.586734 1_556
Cl0 Rb1 3.609905 1_555
Cl1 Pt0 2.369650 1_565
Cl1 Rb2 3.586734 1_554
Cl1 Rb0 3.609905 1_555
Cl2 Pt1 2.365036 1_555
Cl2 Rb3 3.493289 1_555
Cl2 Rb0 3.628350 1_655
Cl2 Rb1 3.629566 1_555
Cl3 Pt1 2.365036 1_555
Cl3 Rb2 3.493289 1_555
Cl3 Rb1 3.628350 1_455
Cl3 Rb0 3.629566 1_555
