# generated using pymatgen
data_Tm2Se3
_symmetry_space_group_name_H-M   'P 1'
_cell_length_a   6.96319135
_cell_length_b   6.96319228
_cell_length_c   12.70899221
_cell_angle_alpha   100.64896363
_cell_angle_beta   100.64897620
_cell_angle_gamma   108.98168114
_symmetry_Int_Tables_number   1
_chemical_formula_structural   Tm2Se3
_chemical_formula_sum   'Tm8 Se12'
_cell_volume   552.42420368
_cell_formula_units_Z   4
loop_
 _symmetry_equiv_pos_site_id
 _symmetry_equiv_pos_as_xyz
  1  'x, y, z'
loop_
 _atom_site_type_symbol
 _atom_site_label
 _atom_site_symmetry_multiplicity
 _atom_site_fract_x
 _atom_site_fract_y
 _atom_site_fract_z
 _atom_site_occupancy
  Tm  Tm0  1  0.70914571  0.95897893  0.91791212  1
  Tm  Tm1  1  0.54102120  0.79085428  0.58208785  1
  Tm  Tm2  1  0.29085015  0.04101000  0.08208097  1
  Tm  Tm3  1  0.45899052  0.20914947  0.41791921  1
  Tm  Tm4  1  0.37247479  0.62249837  0.24481952  1
  Tm  Tm5  1  0.87750186  0.12752518  0.25518048  1
  Tm  Tm6  1  0.62752272  0.37749812  0.75517812  1
  Tm  Tm7  1  0.12250251  0.87247785  0.74482196  1
  Se  Se0  1  0.86726632  0.11720088  0.74989085  1
  Se  Se1  1  0.38279891  0.63273350  0.75010902  1
  Se  Se2  1  0.13273949  0.88280406  0.25011106  1
  Se  Se3  1  0.61719569  0.36726022  0.24988905  1
  Se  Se4  1  0.54817507  0.80448412  0.08789073  1
  Se  Se5  1  0.69551571  0.95182461  0.41210931  1
  Se  Se6  1  0.21635424  0.46068575  0.41196042  1
  Se  Se7  1  0.03931398  0.28364559  0.08803959  1
  Se  Se8  1  0.45181221  0.19551678  0.91210103  1
  Se  Se9  1  0.30448317  0.04818783  0.58789887  1
  Se  Se10  1  0.78365675  0.53932111  0.58804027  1
  Se  Se11  1  0.96067898  0.71634336  0.91195958  1
loop_
_geom_bond_atom_site_label_1
_geom_bond_atom_site_label_2
_geom_bond_distance
_geom_bond_site_symmetry_2
Se0 Tm1 2.816515 1_545
Se0 Tm0 2.816951 1_545
Se0 Tm7 2.835225 1_645
Se0 Tm6 2.835718 1_555
Se1 Tm0 2.816517 1_555
Se1 Tm1 2.816951 1_555
Se1 Tm6 2.835225 1_555
Se1 Tm7 2.835717 1_555
Se2 Tm3 2.816558 1_565
Se2 Tm2 2.816979 1_565
Se2 Tm5 2.835223 1_465
Se2 Tm4 2.835721 1_555
Se3 Tm2 2.816556 1_555
Se3 Tm3 2.816978 1_555
Se3 Tm4 2.835225 1_555
Se3 Tm5 2.835722 1_555
Se4 Tm2 2.800775 1_565
Se4 Tm4 2.812037 1_555
Se4 Tm5 2.813121 1_565
Se4 Tm0 2.837204 1_554
Se5 Tm3 2.800770 1_565
Se5 Tm5 2.812039 1_565
Se5 Tm4 2.813119 1_555
Se5 Tm1 2.837202 1_555
Se6 Tm3 2.802631 1_555
Se6 Tm4 2.811527 1_555
Se6 Tm5 2.812898 1_455
Se6 Tm1 2.836634 1_555
Se7 Tm2 2.802627 1_555
Se7 Tm5 2.811525 1_455
Se7 Tm4 2.812900 1_555
Se7 Tm0 2.836632 1_444
Se8 Tm0 2.800891 1_545
Se8 Tm6 2.811988 1_555
Se8 Tm7 2.813003 1_545
Se8 Tm2 2.837228 1_556
Se9 Tm1 2.800892 1_545
Se9 Tm7 2.811986 1_545
Se9 Tm6 2.813008 1_555
Se9 Tm3 2.837225 1_555
Se10 Tm1 2.802607 1_555
Se10 Tm6 2.811559 1_555
Se10 Tm7 2.812876 1_655
Se10 Tm3 2.836603 1_555
Se11 Tm0 2.802607 1_555
Se11 Tm7 2.811559 1_655
Se11 Tm6 2.812871 1_555
Se11 Tm2 2.836605 1_666
