# generated using pymatgen
data_Te2MoW3(SeS2)2
_symmetry_space_group_name_H-M   'P 1'
_cell_length_a   3.30990764
_cell_length_b   3.30990764
_cell_length_c   37.81801000
_cell_angle_alpha   90.00000000
_cell_angle_beta   90.00000000
_cell_angle_gamma   119.99999286
_symmetry_Int_Tables_number   1
_chemical_formula_structural   Te2MoW3(SeS2)2
_chemical_formula_sum   'Te2 Mo1 W3 Se2 S4'
_cell_volume   358.80714839
_cell_formula_units_Z   1
loop_
 _symmetry_equiv_pos_site_id
 _symmetry_equiv_pos_as_xyz
  1  'x, y, z'
loop_
 _atom_site_type_symbol
 _atom_site_label
 _atom_site_symmetry_multiplicity
 _atom_site_fract_x
 _atom_site_fract_y
 _atom_site_fract_z
 _atom_site_occupancy
  Te  Te0  1  0.00000000  0.00000000  0.70851300  1
  Te  Te1  1  0.00000000  0.00000000  0.60668900  1
  Mo  Mo0  1  0.00000000  0.00000000  0.09392700  1
  W  W0  1  0.00000000  0.00000000  0.46958500  1
  W  W1  1  0.33333300  0.66666700  0.28179200  1
  W  W2  1  0.33333300  0.66666700  0.65760500  1
  Se  Se0  1  0.33333300  0.66666700  0.42496100  1
  Se  Se1  1  0.33333300  0.66666700  0.51426300  1
  S  S0  1  0.00000000  0.00000000  0.32237800  1
  S  S1  1  0.33333300  0.66666700  0.05346100  1
  S  S2  1  0.33333300  0.66666700  0.13438500  1
  S  S3  1  0.00000000  0.00000000  0.24119100  1
loop_
_geom_bond_atom_site_label_1
_geom_bond_atom_site_label_2
_geom_bond_distance
_geom_bond_site_symmetry_2
Te0 W2 2.712631 1_545
Te0 W2 2.712633 1_555
Te0 W2 2.712633 1_445
Te1 W2 2.712846 1_545
Te1 W2 2.712848 1_555
Te1 W2 2.712848 1_445
Mo0 S2 2.448029 1_545
Mo0 S2 2.448032 1_555
Mo0 S2 2.448032 1_445
Mo0 S1 2.448218 1_545
Mo0 S1 2.448221 1_445
Mo0 S1 2.448221 1_555
Se0 W0 2.549468 1_565
Se0 W0 2.549470 1_555
Se0 W0 2.549470 1_665
Se1 W0 2.550820 1_565
Se1 W0 2.550822 1_555
Se1 W0 2.550822 1_665
S0 W1 2.451058 1_545
S0 W1 2.451060 1_445
S0 W1 2.451060 1_555
S3 W1 2.451413 1_545
S3 W1 2.451415 1_445
S3 W1 2.451415 1_555
