# generated using pymatgen
data_Mn(PO5)2
_symmetry_space_group_name_H-M   'P 1'
_cell_length_a   8.86820200
_cell_length_b   5.23171900
_cell_length_c   8.34221280
_cell_angle_alpha   54.35039875
_cell_angle_beta   90.00000000
_cell_angle_gamma   90.00000000
_symmetry_Int_Tables_number   1
_chemical_formula_structural   Mn(PO5)2
_chemical_formula_sum   'Mn2 P4 O20'
_cell_volume   314.51126315
_cell_formula_units_Z   2
loop_
 _symmetry_equiv_pos_site_id
 _symmetry_equiv_pos_as_xyz
  1  'x, y, z'
loop_
 _atom_site_type_symbol
 _atom_site_label
 _atom_site_symmetry_multiplicity
 _atom_site_fract_x
 _atom_site_fract_y
 _atom_site_fract_z
 _atom_site_occupancy
  Mn  Mn0  1  0.00000000  0.00000000  0.00000000  1
  Mn  Mn1  1  0.50000000  0.00000000  0.50000000  1
  P  P0  1  0.81145100  0.61501300  0.65597200  1
  P  P1  1  0.18854900  0.38498700  0.34402800  1
  P  P2  1  0.31145100  0.38498700  0.84402800  1
  P  P3  1  0.68854900  0.61501300  0.15597200  1
  O  O0  1  0.36777900  0.11633500  0.83367400  1
  O  O1  1  0.63222100  0.88366500  0.16632600  1
  O  O2  1  0.86777900  0.88366500  0.66632600  1
  O  O3  1  0.13222100  0.11633500  0.33367400  1
  O  O4  1  0.37602000  0.36152600  0.02648600  1
  O  O5  1  0.62398000  0.63847400  0.97351400  1
  O  O6  1  0.87602000  0.63847400  0.47351400  1
  O  O7  1  0.12398000  0.36152600  0.52648600  1
  O  O8  1  0.33864000  0.72227000  0.65905500  1
  O  O9  1  0.66136000  0.27773000  0.34094500  1
  O  O10  1  0.83864000  0.27773000  0.84094500  1
  O  O11  1  0.16136000  0.72227000  0.15905500  1
  O  O12  1  0.05579700  0.90837500  0.81784500  1
  O  O13  1  0.94420300  0.09162500  0.18215500  1
  O  O14  1  0.55579700  0.09162500  0.68215500  1
  O  O15  1  0.44420300  0.90837500  0.31784500  1
  O  O16  1  0.63627600  0.64763000  0.62824800  1
  O  O17  1  0.36372400  0.35237000  0.37175200  1
  O  O18  1  0.13627600  0.35237000  0.87175200  1
  O  O19  1  0.86372400  0.64763000  0.12824800  1
loop_
_geom_bond_atom_site_label_1
_geom_bond_atom_site_label_2
_geom_bond_distance
_geom_bond_site_symmetry_2
Mn0 O13 1.905996 1_455
Mn0 O12 1.905996 1_544
Mn0 O11 1.916291 1_545
Mn0 O10 1.916291 1_454
Mn0 O18 1.924739 1_554
Mn0 O19 1.924739 1_445
Mn1 O14 1.905996 1_555
Mn1 O15 1.905996 1_545
Mn1 O8 1.916291 1_545
Mn1 O9 1.916291 1_555
Mn1 O16 1.924739 1_545
Mn1 O17 1.924739 1_555
O0 P2 1.540767 1_555
O1 P3 1.540767 1_555
O2 P0 1.540767 1_555
O3 P1 1.540767 1_555
O4 P2 1.562682 1_554
O5 P3 1.562682 1_556
O6 P0 1.562682 1_555
O7 P1 1.562682 1_555
O8 P2 1.542407 1_555
O9 P3 1.542407 1_555
O10 P0 1.542407 1_555
O11 P1 1.542407 1_555
O16 P0 1.565225 1_555
O17 P1 1.565225 1_555
O18 P2 1.565225 1_555
O19 P3 1.565225 1_555
