# generated using pymatgen
data_SmYB12
_symmetry_space_group_name_H-M   'P 1'
_cell_length_a   4.10986400
_cell_length_b   4.10986400
_cell_length_c   8.22396200
_cell_angle_alpha   90.00000000
_cell_angle_beta   90.00000000
_cell_angle_gamma   90.00000000
_symmetry_Int_Tables_number   1
_chemical_formula_structural   SmYB12
_chemical_formula_sum   'Sm1 Y1 B12'
_cell_volume   138.91079492
_cell_formula_units_Z   1
loop_
 _symmetry_equiv_pos_site_id
 _symmetry_equiv_pos_as_xyz
  1  'x, y, z'
loop_
 _atom_site_type_symbol
 _atom_site_label
 _atom_site_symmetry_multiplicity
 _atom_site_fract_x
 _atom_site_fract_y
 _atom_site_fract_z
 _atom_site_occupancy
  Sm  Sm0  1  0.00000000  0.00000000  0.00000000  1
  Y  Y0  1  0.00000000  0.00000000  0.50000000  1
  B  B0  1  0.19930800  0.50000000  0.25030500  1
  B  B1  1  0.19930800  0.50000000  0.74969500  1
  B  B2  1  0.50000000  0.50000000  0.40060900  1
  B  B3  1  0.50000000  0.50000000  0.90028300  1
  B  B4  1  0.50000000  0.19930800  0.25030500  1
  B  B5  1  0.50000000  0.19930800  0.74969500  1
  B  B6  1  0.50000000  0.50000000  0.09971700  1
  B  B7  1  0.50000000  0.50000000  0.59939100  1
  B  B8  1  0.50000000  0.80069200  0.25030500  1
  B  B9  1  0.50000000  0.80069200  0.74969500  1
  B  B10  1  0.80069200  0.50000000  0.25030500  1
  B  B11  1  0.80069200  0.50000000  0.74969500  1
loop_
_geom_bond_atom_site_label_1
_geom_bond_atom_site_label_2
_geom_bond_distance
_geom_bond_site_symmetry_2
B0 B10 1.638258 1_455
B0 B4 1.747690 1_555
B0 B8 1.747690 1_555
B0 B2 1.747896 1_555
B0 B6 1.749548 1_555
B0 Y0 3.018362 1_565
B0 Y0 3.018362 1_555
B0 Sm0 3.021777 1_555
B0 Sm0 3.021777 1_565
B1 B11 1.638258 1_455
B1 B5 1.747690 1_555
B1 B9 1.747690 1_555
B1 B7 1.747896 1_555
B1 B3 1.749548 1_555
B1 Y0 3.018362 1_565
B1 Y0 3.018362 1_555
B1 Sm0 3.021777 1_566
B1 Sm0 3.021777 1_556
B2 B7 1.634776 1_555
B2 B8 1.747896 1_555
B2 B4 1.747896 1_555
B2 Y0 3.018876 1_565
B2 Y0 3.018876 1_555
B2 Y0 3.018876 1_665
B2 Y0 3.018876 1_655
B3 B6 1.640138 1_556
B3 B5 1.749548 1_555
B3 B9 1.749548 1_555
B3 Sm0 3.019603 1_556
B3 Sm0 3.019603 1_656
B3 Sm0 3.019603 1_566
B3 Sm0 3.019603 1_666
B4 B8 1.638258 1_545
B4 B6 1.749548 1_555
B4 Y0 3.018362 1_555
B4 Y0 3.018362 1_655
B4 Sm0 3.021777 1_655
B4 Sm0 3.021777 1_555
B5 B9 1.638258 1_545
B5 B7 1.747896 1_555
B5 Y0 3.018362 1_555
B5 Y0 3.018362 1_655
B5 Sm0 3.021777 1_556
B5 Sm0 3.021777 1_656
B6 B8 1.749548 1_555
B6 Sm0 3.019603 1_555
B6 Sm0 3.019603 1_565
B6 Sm0 3.019603 1_665
B6 Sm0 3.019603 1_655
B7 B9 1.747896 1_555
B7 Y0 3.018876 1_565
B7 Y0 3.018876 1_555
B7 Y0 3.018876 1_665
B7 Y0 3.018876 1_655
B8 Y0 3.018362 1_565
B8 Y0 3.018362 1_665
B8 Sm0 3.021777 1_565
B8 Sm0 3.021777 1_665
B9 Y0 3.018362 1_565
B9 Y0 3.018362 1_665
B9 Sm0 3.021777 1_566
B9 Sm0 3.021777 1_666
B10 B4 1.747690 1_555
B10 B8 1.747690 1_555
B10 B2 1.747896 1_555
B10 B6 1.749548 1_555
B10 Y0 3.018362 1_665
B10 Y0 3.018362 1_655
B10 Sm0 3.021777 1_655
B10 Sm0 3.021777 1_665
B11 B5 1.747690 1_555
B11 B9 1.747690 1_555
B11 B7 1.747896 1_555
B11 B3 1.749548 1_555
B11 Y0 3.018362 1_665
B11 Y0 3.018362 1_655
B11 Sm0 3.021777 1_666
B11 Sm0 3.021777 1_656
