# generated using pymatgen
data_Ho2PbS4
_symmetry_space_group_name_H-M   'P 1'
_cell_length_a   3.95670308
_cell_length_b   12.02689431
_cell_length_c   14.35508194
_cell_angle_alpha   90.00116474
_cell_angle_beta   90.00045438
_cell_angle_gamma   90.00300183
_symmetry_Int_Tables_number   1
_chemical_formula_structural   Ho2PbS4
_chemical_formula_sum   'Ho8 Pb4 S16'
_cell_volume   683.11312701
_cell_formula_units_Z   4
loop_
 _symmetry_equiv_pos_site_id
 _symmetry_equiv_pos_as_xyz
  1  'x, y, z'
loop_
 _atom_site_type_symbol
 _atom_site_label
 _atom_site_symmetry_multiplicity
 _atom_site_fract_x
 _atom_site_fract_y
 _atom_site_fract_z
 _atom_site_occupancy
  Ho  Ho0  1  0.25000043  0.44025550  0.39115452  1
  Ho  Ho1  1  0.24998406  0.94027010  0.10885105  1
  Ho  Ho2  1  0.75000287  0.55974482  0.60884015  1
  Ho  Ho3  1  0.74998722  0.05974744  0.89116216  1
  Ho  Ho4  1  0.24999273  0.41557618  0.89942479  1
  Ho  Ho5  1  0.24998711  0.91557441  0.60056877  1
  Ho  Ho6  1  0.75002329  0.58442127  0.10055522  1
  Ho  Ho7  1  0.75000637  0.08441041  0.39943791  1
  Pb  Pb0  1  0.24987458  0.77824333  0.33648167  1
  Pb  Pb1  1  0.24992513  0.27826354  0.16350049  1
  Pb  Pb2  1  0.75027688  0.22173087  0.66351727  1
  Pb  Pb3  1  0.75000438  0.72176606  0.83652056  1
  S  S0  1  0.24999921  0.20528712  0.82974127  1
  S  S1  1  0.25002077  0.70528390  0.67026341  1
  S  S2  1  0.74996741  0.79470920  0.17026604  1
  S  S3  1  0.74999205  0.29471505  0.32973005  1
  S  S4  1  0.25002128  0.12658513  0.52749995  1
  S  S5  1  0.25002845  0.62658897  0.97249014  1
  S  S6  1  0.74994452  0.87341482  0.47250754  1
  S  S7  1  0.74997263  0.37342345  0.02748830  1
  S  S8  1  0.24996778  0.01702402  0.28812396  1
  S  S9  1  0.25003527  0.51702139  0.21186376  1
  S  S10  1  0.75001295  0.98297703  0.71188917  1
  S  S11  1  0.74999907  0.48296776  0.78812613  1
  S  S12  1  0.24998413  0.41194612  0.57688819  1
  S  S13  1  0.24995849  0.91194963  0.92311408  1
  S  S14  1  0.75002394  0.58804942  0.42309764  1
  S  S15  1  0.75000601  0.08805505  0.07689778  1
loop_
_geom_bond_atom_site_label_1
_geom_bond_atom_site_label_2
_geom_bond_distance
_geom_bond_site_symmetry_2
Ho0 S12 2.687880 1_555
Ho0 S14 2.698815 1_555
Ho0 S14 2.698821 1_455
Ho0 S9 2.734337 1_555
Ho0 S3 2.784769 1_455
Ho0 S3 2.784862 1_555
Ho1 S13 2.687930 1_554
Ho1 S15 2.698782 1_565
Ho1 S15 2.698786 1_465
Ho1 S8 2.734012 1_565
Ho1 S2 2.784937 1_455
Ho1 S2 2.784963 1_555
Ho2 S14 2.687999 1_555
Ho2 S12 2.698861 1_555
Ho2 S12 2.698894 1_655
Ho2 S11 2.734318 1_555
Ho2 S1 2.784780 1_655
Ho2 S1 2.784820 1_555
Ho3 S15 2.687891 1_556
Ho3 S13 2.698865 1_645
Ho3 S13 2.698900 1_545
Ho3 S10 2.734080 1_545
Ho3 S0 2.784790 1_655
Ho3 S0 2.784843 1_555
Ho4 S11 2.668986 1_555
Ho4 S11 2.668993 1_455
Ho4 S0 2.719741 1_555
Ho4 S5 2.746010 1_555
Ho4 S7 2.747769 1_556
Ho4 S7 2.747867 1_456
Ho5 S10 2.669162 1_455
Ho5 S10 2.669232 1_555
Ho5 S1 2.719854 1_555
Ho5 S4 2.746045 1_565
Ho5 S6 2.747706 1_555
Ho5 S6 2.747889 1_455
Ho6 S9 2.669048 1_555
Ho6 S9 2.669162 1_655
Ho6 S2 2.719873 1_555
Ho6 S7 2.745852 1_555
Ho6 S5 2.747860 1_554
Ho6 S5 2.747872 1_654
Ho7 S8 2.669010 1_655
Ho7 S8 2.669155 1_555
Ho7 S3 2.720082 1_555
Ho7 S6 2.745882 1_545
Ho7 S4 2.747826 1_555
Ho7 S4 2.747852 1_655
Pb0 S8 2.954512 1_565
Pb0 S6 3.005999 1_455
Pb0 S6 3.006264 1_555
Pb0 S2 3.105609 1_455
Pb0 S2 3.106088 1_555
Pb1 S9 2.954237 1_555
Pb1 S7 3.005886 1_455
Pb1 S7 3.006075 1_555
Pb1 S3 3.105835 1_455
Pb1 S3 3.106135 1_555
Pb2 S10 2.954247 1_545
Pb2 S4 3.005318 1_655
Pb2 S4 3.006549 1_555
Pb2 S0 3.105218 1_655
Pb2 S0 3.106629 1_555
Pb3 S11 2.954815 1_555
Pb3 S5 3.005570 1_555
Pb3 S5 3.005754 1_655
Pb3 S1 3.106252 1_555
Pb3 S1 3.106372 1_655
