# generated using pymatgen
data_MgSi2(AgO)8
_symmetry_space_group_name_H-M   'P 1'
_cell_length_a   6.21415900
_cell_length_b   6.55312021
_cell_length_c   6.72894961
_cell_angle_alpha   95.02373194
_cell_angle_beta   90.00000000
_cell_angle_gamma   90.00000000
_symmetry_Int_Tables_number   1
_chemical_formula_structural   MgSi2(AgO)8
_chemical_formula_sum   'Mg1 Si2 Ag8 O8'
_cell_volume   272.96453361
_cell_formula_units_Z   1
loop_
 _symmetry_equiv_pos_site_id
 _symmetry_equiv_pos_as_xyz
  1  'x, y, z'
loop_
 _atom_site_type_symbol
 _atom_site_label
 _atom_site_symmetry_multiplicity
 _atom_site_fract_x
 _atom_site_fract_y
 _atom_site_fract_z
 _atom_site_occupancy
  Mg  Mg0  1  0.48509000  0.25000000  0.75000000  1
  Si  Si0  1  0.65477100  0.25000000  0.25000000  1
  Si  Si1  1  0.33150600  0.75000000  0.75000000  1
  Ag  Ag0  1  0.07830200  0.09575200  0.49678500  1
  Ag  Ag1  1  0.70713400  0.67822300  0.03197300  1
  Ag  Ag2  1  0.70713400  0.82177700  0.46802700  1
  Ag  Ag3  1  0.90531700  0.45921500  0.64165600  1
  Ag  Ag4  1  0.90531700  0.04078500  0.85834400  1
  Ag  Ag5  1  0.33878900  0.54580900  0.32130900  1
  Ag  Ag6  1  0.07830200  0.40424800  0.00321500  1
  Ag  Ag7  1  0.33878900  0.95419100  0.17869100  1
  O  O0  1  0.49325000  0.54972700  0.73849600  1
  O  O1  1  0.80755300  0.45703700  0.30329400  1
  O  O2  1  0.16933800  0.75826100  0.94874800  1
  O  O3  1  0.48963400  0.30154500  0.06401900  1
  O  O4  1  0.80755300  0.04296300  0.19670600  1
  O  O5  1  0.49325000  0.95027300  0.76150400  1
  O  O6  1  0.16933800  0.74173900  0.55125200  1
  O  O7  1  0.48963400  0.19845500  0.43598100  1
loop_
_geom_bond_atom_site_label_1
_geom_bond_atom_site_label_2
_geom_bond_distance
_geom_bond_site_symmetry_2
Mg0 O0 1.973085 1_555
Mg0 O5 1.973085 1_545
Mg0 O3 2.110625 1_556
Mg0 O7 2.110625 1_555
Ag0 O6 2.446458 1_545
Ag0 O4 2.627794 1_455
Ag0 O7 2.683682 1_555
Ag1 O0 2.466607 1_554
Ag1 O1 2.507387 1_555
Ag1 O4 2.620514 1_565
Ag2 O5 2.466607 1_555
Ag2 O4 2.507387 1_565
Ag2 O1 2.620514 1_555
Ag3 O1 2.355315 1_555
Ag3 O6 2.585891 1_655
Ag3 O0 2.695491 1_555
Ag4 O4 2.355315 1_556
Ag4 O2 2.585891 1_645
Ag4 O5 2.695491 1_545
Ag5 O6 2.191680 1_555
Ag5 O3 2.439857 1_555
Ag5 O7 2.638751 1_555
Ag6 O2 2.446458 1_554
Ag6 O1 2.627794 1_455
Ag6 O3 2.683682 1_555
Ag7 O2 2.191680 1_554
Ag7 O7 2.439857 1_565
Ag7 O3 2.638751 1_565
O0 Si1 1.649503 1_555
O1 Si0 1.668986 1_555
O2 Si1 1.671626 1_555
O3 Si0 1.675510 1_555
O4 Si0 1.668986 1_555
O5 Si1 1.649503 1_555
O6 Si1 1.671626 1_555
O7 Si0 1.675510 1_555
