# generated using pymatgen
data_Th2Si3Os
_symmetry_space_group_name_H-M   'P 1'
_cell_length_a   7.76240470
_cell_length_b   7.76240470
_cell_length_c   7.76240470
_cell_angle_alpha   149.47697775
_cell_angle_beta   148.37138746
_cell_angle_gamma   44.52943161
_symmetry_Int_Tables_number   1
_chemical_formula_structural   Th2Si3Os
_chemical_formula_sum   'Th2 Si3 Os1'
_cell_volume   124.20097004
_cell_formula_units_Z   1
loop_
 _symmetry_equiv_pos_site_id
 _symmetry_equiv_pos_as_xyz
  1  'x, y, z'
loop_
 _atom_site_type_symbol
 _atom_site_label
 _atom_site_symmetry_multiplicity
 _atom_site_fract_x
 _atom_site_fract_y
 _atom_site_fract_z
 _atom_site_occupancy
  Th  Th0  1  0.74772532  0.24772532  0.50000000  1
  Th  Th1  1  0.00379862  0.00379862  0.00000000  1
  Si  Si0  1  0.58339503  0.58339503  -0.00000000  1
  Si  Si1  1  0.33067299  0.83067299  0.50000000  1
  Si  Si2  1  0.41809342  0.41809342  0.00000000  1
  Os  Os0  1  0.16631262  0.66631262  0.50000000  1
loop_
_geom_bond_atom_site_label_1
_geom_bond_atom_site_label_2
_geom_bond_distance
_geom_bond_site_symmetry_2
Si0 Si2 2.374943 1_555
Si0 Th0 3.122366 1_565
Si0 Th0 3.122366 1_554
Si0 Th1 3.155579 1_554
Si0 Th1 3.155579 1_655
Si0 Th1 3.155579 1_565
Si0 Th1 3.155579 1_666
Si1 Si2 2.398424 1_555
Si1 Si2 2.398424 1_566
Si1 Th0 3.173346 1_555
Si1 Th0 3.173346 1_566
Si1 Th0 3.173346 1_465
Si1 Th0 3.173346 1_454
Si1 Th1 3.265257 1_666
Si1 Th1 3.265257 1_565
Si2 Th1 3.188436 1_655
Si2 Th1 3.188436 1_554
Si2 Th1 3.188436 1_565
Si2 Th1 3.188436 1_666
Si2 Th0 3.235179 1_454
Si2 Th0 3.235179 1_555
Os0 Si1 2.361420 1_555
Os0 Si0 2.427794 1_455
Os0 Si0 2.427794 1_556
Os0 Th1 3.102681 1_555
Os0 Th1 3.102681 1_566
Os0 Th0 3.165130 1_465
Os0 Th0 3.165130 1_566
Os0 Th0 3.165130 1_555
Os0 Th0 3.165130 1_454
