# generated using pymatgen
data_ZrVFe
_symmetry_space_group_name_H-M   'P 1'
_cell_length_a   5.13225958
_cell_length_b   5.07948391
_cell_length_c   8.38826036
_cell_angle_alpha   89.99994606
_cell_angle_beta   90.00016302
_cell_angle_gamma   59.65576763
_symmetry_Int_Tables_number   1
_chemical_formula_structural   ZrVFe
_chemical_formula_sum   'Zr4 V4 Fe4'
_cell_volume   188.71821424
_cell_formula_units_Z   4
loop_
 _symmetry_equiv_pos_site_id
 _symmetry_equiv_pos_as_xyz
  1  'x, y, z'
loop_
 _atom_site_type_symbol
 _atom_site_label
 _atom_site_symmetry_multiplicity
 _atom_site_fract_x
 _atom_site_fract_y
 _atom_site_fract_z
 _atom_site_occupancy
  Zr  Zr0  1  0.33324243  0.33350712  0.56916607  1
  Zr  Zr1  1  0.66747997  0.66503958  0.44197662  1
  Zr  Zr2  1  0.66747907  0.66504174  0.05802186  1
  Zr  Zr3  1  0.33324015  0.33352309  0.93081902  1
  V  V0  1  0.66304336  0.16976553  0.24999326  1
  V  V1  1  0.16718999  0.16976711  0.24999336  1
  V  V2  1  0.00207149  0.99585663  0.50890956  1
  V  V3  1  0.00207293  0.99585424  0.99108056  1
  Fe  Fe0  1  0.82866960  0.34266067  0.75002500  1
  Fe  Fe1  1  0.34065254  0.83100753  0.75002272  1
  Fe  Fe2  1  0.82834133  0.83100977  0.75002294  1
  Fe  Fe3  1  0.16651614  0.66696699  0.24997003  1
loop_
_geom_bond_atom_site_label_1
_geom_bond_atom_site_label_2
_geom_bond_distance
_geom_bond_site_symmetry_2
Zr0 Zr3 3.033639 1_555
Zr0 Zr1 3.118495 1_545
Zr0 Zr1 3.136128 1_455
Zr0 Zr1 3.136162 1_555
Zr2 Zr3 3.118584 1_564
Zr2 Zr3 3.136147 1_554
Zr2 Zr3 3.136169 1_654
V0 V1 2.544844 1_555
V0 V1 2.587415 1_655
V0 V3 2.640405 1_644
V0 V2 2.640417 1_645
V0 Zr2 2.996740 1_555
V0 Zr1 2.996789 1_555
V0 Zr2 3.017845 1_545
V0 Zr1 3.017903 1_545
V0 Zr0 3.049969 1_555
V0 Zr3 3.049974 1_554
V1 V3 2.640400 1_544
V1 V2 2.640423 1_545
V1 Zr2 2.996733 1_455
V1 Zr1 2.996790 1_455
V1 Zr2 3.017856 1_545
V1 Zr1 3.017905 1_545
V1 Zr0 3.049943 1_555
V1 Zr3 3.049987 1_554
V2 Zr0 2.947156 1_555
V2 Zr1 2.986692 1_465
V2 Zr1 3.000542 1_455
V2 Zr1 3.000547 1_555
V2 Zr0 3.005192 1_565
V2 Zr0 3.005231 1_465
V3 Zr3 2.947087 1_555
V3 Zr2 2.986727 1_466
V3 Zr2 3.000546 1_556
V3 Zr2 3.000547 1_456
V3 Zr3 3.005250 1_465
V3 Zr3 3.005264 1_565
Fe0 Fe1 2.479698 1_555
Fe0 Fe2 2.479711 1_555
Fe0 V3 2.529789 1_645
Fe0 V2 2.530191 1_645
Fe0 Fe2 2.599774 1_545
Fe0 Fe1 2.599792 1_645
Fe0 Zr2 2.944812 1_556
Fe0 Zr1 2.945180 1_555
Fe0 Zr3 2.981026 1_555
Fe0 Zr3 2.981034 1_655
Fe0 Zr0 2.981295 1_655
Fe0 Zr0 2.981322 1_555
Fe1 Fe2 2.502951 1_555
Fe1 V3 2.517788 1_555
Fe1 V2 2.518155 1_555
Fe1 Fe2 2.629308 1_455
Fe1 Zr3 2.952740 1_565
Fe1 Zr0 2.952933 1_565
Fe1 Zr2 2.961473 1_556
Fe1 Zr1 2.961828 1_555
Fe1 Zr3 2.963797 1_555
Fe1 Zr0 2.964123 1_555
Fe2 V3 2.517770 1_655
Fe2 V2 2.518151 1_655
Fe2 Zr3 2.952735 1_565
Fe2 Zr0 2.952948 1_565
Fe2 Zr2 2.961485 1_556
Fe2 Zr1 2.961831 1_555
Fe2 Zr3 2.963804 1_655
Fe2 Zr0 2.964113 1_655
Fe3 V1 2.523773 1_555
Fe3 V0 2.523783 1_555
Fe3 V0 2.555710 1_465
Fe3 V1 2.555714 1_565
Fe3 V3 2.606630 1_554
Fe3 V2 2.606992 1_555
Fe3 Zr2 3.029442 1_455
Fe3 Zr2 3.029453 1_555
Fe3 Zr1 3.029705 1_555
Fe3 Zr1 3.029711 1_455
Fe3 Zr3 3.050172 1_554
Fe3 Zr0 3.050530 1_555
