# generated using pymatgen
data_Mg6CrSi
_symmetry_space_group_name_H-M   'P 1'
_cell_length_a   4.91201800
_cell_length_b   6.06147200
_cell_length_c   10.73625700
_cell_angle_alpha   90.00000000
_cell_angle_beta   90.00000000
_cell_angle_gamma   90.00000000
_symmetry_Int_Tables_number   1
_chemical_formula_structural   Mg6CrSi
_chemical_formula_sum   'Mg12 Cr2 Si2'
_cell_volume   319.66195548
_cell_formula_units_Z   2
loop_
 _symmetry_equiv_pos_site_id
 _symmetry_equiv_pos_as_xyz
  1  'x, y, z'
loop_
 _atom_site_type_symbol
 _atom_site_label
 _atom_site_symmetry_multiplicity
 _atom_site_fract_x
 _atom_site_fract_y
 _atom_site_fract_z
 _atom_site_occupancy
  Mg  Mg0  1  0.50000000  0.25055700  0.41680300  1
  Mg  Mg1  1  0.50000000  0.74944300  0.41680300  1
  Mg  Mg2  1  0.00000000  0.74798800  0.08569500  1
  Mg  Mg3  1  0.00000000  0.25201200  0.08569500  1
  Mg  Mg4  1  0.00000000  0.00000000  0.33029500  1
  Mg  Mg5  1  0.00000000  0.50000000  0.32899600  1
  Mg  Mg6  1  0.50000000  0.75055700  0.91680300  1
  Mg  Mg7  1  0.50000000  0.24944300  0.91680300  1
  Mg  Mg8  1  0.00000000  0.24798800  0.58569500  1
  Mg  Mg9  1  0.00000000  0.75201200  0.58569500  1
  Mg  Mg10  1  0.00000000  0.50000000  0.83029500  1
  Mg  Mg11  1  0.00000000  0.00000000  0.82899600  1
  Cr  Cr0  1  0.50000000  0.50000000  0.16737500  1
  Cr  Cr1  1  0.50000000  0.00000000  0.66737500  1
  Si  Si0  1  0.50000000  0.00000000  0.16833600  1
  Si  Si1  1  0.50000000  0.50000000  0.66833600  1
loop_
_geom_bond_atom_site_label_1
_geom_bond_atom_site_label_2
_geom_bond_distance
_geom_bond_site_symmetry_2
Mg0 Mg1 3.023984 1_555
Mg0 Mg4 3.033345 1_655
Mg0 Mg4 3.033345 1_555
Mg0 Mg5 3.034274 1_655
Mg0 Mg5 3.034274 1_555
Mg0 Mg1 3.037488 1_545
Mg0 Mg8 3.052894 1_655
Mg0 Mg8 3.052894 1_555
Mg0 Si0 3.069642 1_555
Mg0 Si1 3.094987 1_555
Mg1 Mg4 3.033345 1_565
Mg1 Mg4 3.033345 1_665
Mg1 Mg5 3.034274 1_655
Mg1 Mg5 3.034274 1_555
Mg1 Mg9 3.052894 1_655
Mg1 Mg9 3.052894 1_555
Mg1 Si0 3.069642 1_565
Mg1 Si1 3.094987 1_555
Mg2 Mg3 3.006345 1_555
Mg2 Mg5 3.013771 1_555
Mg2 Si0 3.025335 1_565
Mg2 Si0 3.025335 1_465
Mg2 Mg4 3.038057 1_565
Mg2 Mg6 3.052894 1_554
Mg2 Mg6 3.052894 1_454
Mg2 Mg3 3.055127 1_565
Mg3 Mg5 3.013771 1_555
Mg3 Si0 3.025335 1_555
Mg3 Si0 3.025335 1_455
Mg3 Mg4 3.038057 1_555
Mg3 Mg7 3.052894 1_454
Mg3 Mg7 3.052894 1_554
Mg4 Si0 3.009239 1_555
Mg4 Si0 3.009239 1_455
Mg4 Mg5 3.030768 1_545
Mg4 Mg5 3.030768 1_555
Mg4 Mg8 3.127029 1_555
Mg4 Mg9 3.127029 1_545
Mg5 Mg8 3.151018 1_555
Mg5 Mg9 3.151018 1_555
Mg6 Mg7 3.023984 1_565
Mg6 Mg7 3.037488 1_555
Mg6 Si1 3.069642 1_555
Mg6 Si0 3.094987 1_566
Mg7 Si1 3.069642 1_555
Mg7 Si0 3.094987 1_556
Mg8 Mg9 3.006345 1_545
Mg8 Si1 3.025335 1_555
Mg8 Si1 3.025335 1_455
Mg8 Mg9 3.055127 1_555
Mg9 Si1 3.025335 1_555
Mg9 Si1 3.025335 1_455
Mg10 Si1 3.009239 1_455
Mg10 Si1 3.009239 1_555
Mg10 Mg11 3.030768 1_555
Mg10 Mg11 3.030768 1_565
Mg10 Mg6 3.033345 1_555
Mg10 Mg7 3.033345 1_555
Mg10 Mg6 3.033345 1_455
Mg10 Mg7 3.033345 1_455
Mg10 Mg9 3.038057 1_555
Mg10 Mg8 3.038057 1_555
Mg10 Mg3 3.127029 1_556
Mg10 Mg2 3.127029 1_556
Mg11 Mg8 3.013771 1_555
Mg11 Mg9 3.013771 1_545
Mg11 Mg6 3.034274 1_445
Mg11 Mg6 3.034274 1_545
Mg11 Mg7 3.034274 1_455
Mg11 Mg7 3.034274 1_555
Mg11 Mg3 3.151018 1_556
Mg11 Mg2 3.151018 1_546
Cr0 Mg5 3.007144 1_655
Cr0 Mg5 3.007144 1_555
Cr0 Mg2 3.010071 1_655
Cr0 Mg3 3.010071 1_555
Cr0 Mg3 3.010071 1_655
Cr0 Mg2 3.010071 1_555
Cr0 Si0 3.030754 1_565
Cr0 Si0 3.030754 1_555
Cr0 Mg1 3.075287 1_555
Cr0 Mg0 3.075287 1_555
Cr0 Mg7 3.089302 1_554
Cr0 Mg6 3.089302 1_554
Cr1 Mg11 3.007144 1_655
Cr1 Mg11 3.007144 1_555
Cr1 Mg9 3.010071 1_545
Cr1 Mg9 3.010071 1_645
Cr1 Mg8 3.010071 1_655
Cr1 Mg8 3.010071 1_555
Cr1 Si1 3.030754 1_555
Cr1 Si1 3.030754 1_545
Cr1 Mg6 3.075287 1_545
Cr1 Mg7 3.075287 1_555
Cr1 Mg1 3.089302 1_545
Cr1 Mg0 3.089302 1_555
