# generated using pymatgen
data_PuCu6
_symmetry_space_group_name_H-M   'P 1'
_cell_length_a   5.02668600
_cell_length_b   8.02328700
_cell_length_c   10.06820300
_cell_angle_alpha   90.00000000
_cell_angle_beta   90.00000000
_cell_angle_gamma   90.00000000
_symmetry_Int_Tables_number   1
_chemical_formula_structural   PuCu6
_chemical_formula_sum   'Pu4 Cu24'
_cell_volume   406.05610849
_cell_formula_units_Z   4
loop_
 _symmetry_equiv_pos_site_id
 _symmetry_equiv_pos_as_xyz
  1  'x, y, z'
loop_
 _atom_site_type_symbol
 _atom_site_label
 _atom_site_symmetry_multiplicity
 _atom_site_fract_x
 _atom_site_fract_y
 _atom_site_fract_z
 _atom_site_occupancy
  Pu  Pu0  1  0.25000000  0.25841600  0.56554600  1
  Pu  Pu1  1  0.25000000  0.75841600  0.93445400  1
  Pu  Pu2  1  0.75000000  0.74158400  0.43445400  1
  Pu  Pu3  1  0.75000000  0.24158400  0.06554600  1
  Cu  Cu0  1  0.25000000  0.13808100  0.85748500  1
  Cu  Cu1  1  0.25000000  0.63808100  0.64251500  1
  Cu  Cu2  1  0.75000000  0.86191900  0.14251500  1
  Cu  Cu3  1  0.75000000  0.36191900  0.35748500  1
  Cu  Cu4  1  0.25000000  0.81689600  0.24470100  1
  Cu  Cu5  1  0.25000000  0.31689600  0.25529900  1
  Cu  Cu6  1  0.75000000  0.18310400  0.75529900  1
  Cu  Cu7  1  0.75000000  0.68310400  0.74470100  1
  Cu  Cu8  1  0.25000000  0.56282200  0.40414000  1
  Cu  Cu9  1  0.25000000  0.06282200  0.09586000  1
  Cu  Cu10  1  0.75000000  0.43717800  0.59586000  1
  Cu  Cu11  1  0.75000000  0.93717800  0.90414000  1
  Cu  Cu12  1  0.25000000  0.89956700  0.48392400  1
  Cu  Cu13  1  0.25000000  0.39956700  0.01607600  1
  Cu  Cu14  1  0.75000000  0.10043300  0.51607600  1
  Cu  Cu15  1  0.75000000  0.60043300  0.98392400  1
  Cu  Cu16  1  0.00583400  0.43399600  0.80893700  1
  Cu  Cu17  1  0.49416600  0.93399600  0.69106300  1
  Cu  Cu18  1  0.50583400  0.56600400  0.19106300  1
  Cu  Cu19  1  0.99416600  0.06600400  0.30893700  1
  Cu  Cu20  1  0.99416600  0.56600400  0.19106300  1
  Cu  Cu21  1  0.50583400  0.06600400  0.30893700  1
  Cu  Cu22  1  0.49416600  0.43399600  0.80893700  1
  Cu  Cu23  1  0.00583400  0.93399600  0.69106300  1
loop_
_geom_bond_atom_site_label_1
_geom_bond_atom_site_label_2
_geom_bond_distance
_geom_bond_site_symmetry_2
Cu0 Cu9 2.474801 1_556
Cu0 Cu13 2.636483 1_556
Cu0 Cu23 2.644825 1_545
Cu0 Cu17 2.644825 1_545
Cu0 Cu22 2.717015 1_555
Cu0 Cu16 2.717015 1_555
Cu0 Cu6 2.739685 1_455
Cu0 Cu6 2.739685 1_555
Cu0 Cu11 3.022544 1_445
Cu0 Cu11 3.022544 1_545
Cu0 Pu0 3.093808 1_555
Cu0 Pu1 3.143188 1_545
Cu0 Pu3 3.375604 1_456
Cu0 Pu3 3.375604 1_556
Cu1 Cu8 2.474801 1_555
Cu1 Cu12 2.636483 1_555
Cu1 Cu22 2.644825 1_555
Cu1 Cu16 2.644825 1_555
Cu1 Cu17 2.717015 1_555
Cu1 Cu23 2.717015 1_555
Cu1 Cu7 2.739685 1_455
Cu1 Cu7 2.739685 1_555
Cu1 Cu10 3.022544 1_555
Cu1 Cu10 3.022544 1_455
Cu1 Pu1 3.093808 1_555
Cu1 Pu0 3.143188 1_555
Cu1 Pu2 3.375604 1_555
Cu1 Pu2 3.375604 1_455
Cu2 Cu21 2.644825 1_565
Cu2 Cu20 2.717015 1_555
Cu2 Cu4 2.739685 1_555
Cu2 Cu4 2.739685 1_655
Cu2 Cu9 3.022544 1_565
Cu2 Cu9 3.022544 1_665
Cu2 Pu2 3.093808 1_555
Cu2 Pu3 3.143188 1_565
Cu2 Pu1 3.375604 1_654
Cu2 Pu1 3.375604 1_554
Cu3 Cu5 2.739685 1_655
Cu3 Cu5 2.739685 1_555
Cu3 Cu8 3.022544 1_555
Cu3 Cu8 3.022544 1_655
Cu3 Pu3 3.093808 1_555
Cu3 Pu2 3.143188 1_555
Cu3 Pu0 3.375604 1_655
Cu3 Pu0 3.375604 1_555
Cu4 Cu9 2.477690 1_565
Cu4 Cu8 2.594685 1_555
Cu4 Pu1 3.158673 1_554
Cu4 Pu2 3.214329 1_555
Cu4 Pu2 3.214329 1_455
Cu5 Cu8 2.477690 1_555
Cu5 Cu9 2.594685 1_555
Cu5 Pu0 3.158673 1_555
Cu5 Pu3 3.214329 1_455
Cu5 Pu3 3.214329 1_555
Cu6 Pu3 3.158673 1_556
Cu6 Pu0 3.214329 1_655
Cu6 Pu0 3.214329 1_555
Cu7 Pu2 3.158673 1_555
Cu7 Pu1 3.214329 1_555
Cu7 Pu1 3.214329 1_655
Cu8 Pu2 2.909836 1_455
Cu8 Pu2 2.909836 1_555
Cu8 Pu0 2.933574 1_555
Cu9 Pu3 2.909836 1_555
Cu9 Pu3 2.909836 1_455
Cu9 Pu1 2.933574 1_544
Cu10 Cu3 2.474801 1_555
Cu10 Cu7 2.477690 1_555
Cu10 Cu16 2.501352 1_655
Cu10 Cu22 2.501352 1_555
Cu10 Cu6 2.594685 1_555
Cu10 Cu14 2.818687 1_555
Cu10 Pu0 2.909836 1_655
Cu10 Pu0 2.909836 1_555
Cu10 Pu2 2.933574 1_555
Cu11 Cu2 2.474801 1_556
Cu11 Cu6 2.477690 1_565
Cu11 Cu23 2.501352 1_655
Cu11 Cu17 2.501352 1_555
Cu11 Cu7 2.594685 1_555
Cu11 Cu15 2.818687 1_555
Cu11 Pu1 2.909836 1_555
Cu11 Pu1 2.909836 1_655
Cu11 Pu3 2.933574 1_566
Cu12 Cu23 2.435583 1_555
Cu12 Cu17 2.435583 1_555
Cu12 Cu4 2.498209 1_555
Cu12 Cu21 2.557530 1_565
Cu12 Cu19 2.557530 1_465
Cu12 Cu8 2.818687 1_555
Cu12 Pu2 2.858607 1_555
Cu12 Pu2 2.858607 1_455
Cu12 Pu0 2.994133 1_565
Cu12 Cu14 3.003158 1_465
Cu12 Cu14 3.003158 1_565
Cu13 Cu22 2.435583 1_554
Cu13 Cu16 2.435583 1_554
Cu13 Cu5 2.498209 1_555
Cu13 Cu20 2.557530 1_455
Cu13 Cu18 2.557530 1_555
Cu13 Cu9 2.818687 1_555
Cu13 Pu3 2.858607 1_455
Cu13 Pu3 2.858607 1_555
Cu13 Pu1 2.994133 1_554
Cu13 Cu15 3.003158 1_554
Cu13 Cu15 3.003158 1_454
Cu14 Cu19 2.435583 1_555
Cu14 Cu21 2.435583 1_555
Cu14 Cu6 2.498209 1_555
Cu14 Cu17 2.557530 1_545
Cu14 Cu23 2.557530 1_645
Cu14 Cu3 2.636483 1_555
Cu14 Pu0 2.858607 1_555
Cu14 Pu0 2.858607 1_655
Cu14 Pu2 2.994133 1_545
Cu15 Cu20 2.435583 1_556
Cu15 Cu18 2.435583 1_556
Cu15 Cu7 2.498209 1_555
Cu15 Cu16 2.557530 1_655
Cu15 Cu22 2.557530 1_555
Cu15 Cu2 2.636483 1_556
Cu15 Pu1 2.858607 1_655
Cu15 Pu1 2.858607 1_555
Cu15 Pu3 2.994133 1_556
Cu16 Cu6 2.448982 1_455
Cu16 Cu22 2.454692 1_555
Cu16 Cu7 2.463072 1_455
Cu16 Cu22 2.571994 1_455
Cu16 Pu0 3.081541 1_555
Cu16 Pu1 3.143017 1_555
Cu16 Pu3 3.272916 1_456
Cu17 Cu7 2.448982 1_555
Cu17 Cu23 2.454692 1_555
Cu17 Cu6 2.463072 1_565
Cu17 Cu23 2.571994 1_655
Cu17 Pu1 3.081541 1_555
Cu17 Pu0 3.143017 1_565
Cu17 Pu2 3.272916 1_555
Cu18 Cu4 2.448982 1_555
Cu18 Cu20 2.454692 1_555
Cu18 Cu5 2.463072 1_555
Cu18 Cu8 2.501352 1_555
Cu18 Cu20 2.571994 1_455
Cu18 Cu3 2.644825 1_555
Cu18 Cu2 2.717015 1_555
Cu18 Pu2 3.081541 1_555
Cu18 Pu3 3.143017 1_555
Cu18 Pu1 3.272916 1_554
Cu19 Cu5 2.448982 1_655
Cu19 Cu21 2.454692 1_555
Cu19 Cu4 2.463072 1_645
Cu19 Cu9 2.501352 1_655
Cu19 Cu21 2.571994 1_655
Cu19 Cu2 2.644825 1_545
Cu19 Cu3 2.717015 1_555
Cu19 Pu3 3.081541 1_555
Cu19 Pu2 3.143017 1_545
Cu19 Pu0 3.272916 1_655
Cu20 Cu4 2.448982 1_655
Cu20 Cu5 2.463072 1_655
Cu20 Cu8 2.501352 1_655
Cu20 Cu3 2.644825 1_555
Cu20 Pu2 3.081541 1_555
Cu20 Pu3 3.143017 1_555
Cu20 Pu1 3.272916 1_654
Cu21 Cu5 2.448982 1_555
Cu21 Cu4 2.463072 1_545
Cu21 Cu9 2.501352 1_555
Cu21 Cu3 2.717015 1_555
Cu21 Pu3 3.081541 1_555
Cu21 Pu2 3.143017 1_545
Cu21 Pu0 3.272916 1_555
Cu22 Cu6 2.448982 1_555
Cu22 Cu7 2.463072 1_555
Cu22 Pu0 3.081541 1_555
Cu22 Pu1 3.143017 1_555
Cu22 Pu3 3.272916 1_556
Cu23 Cu7 2.448982 1_455
Cu23 Cu6 2.463072 1_465
Cu23 Pu1 3.081541 1_555
Cu23 Pu0 3.143017 1_565
Cu23 Pu2 3.272916 1_455
