# generated using pymatgen
data_YbCeO3
_symmetry_space_group_name_H-M   'P 1'
_cell_length_a   5.74674900
_cell_length_b   5.93770300
_cell_length_c   8.45043800
_cell_angle_alpha   90.00000000
_cell_angle_beta   90.00000000
_cell_angle_gamma   90.00000000
_symmetry_Int_Tables_number   1
_chemical_formula_structural   YbCeO3
_chemical_formula_sum   'Yb4 Ce4 O12'
_cell_volume   288.34997582
_cell_formula_units_Z   4
loop_
 _symmetry_equiv_pos_site_id
 _symmetry_equiv_pos_as_xyz
  1  'x, y, z'
loop_
 _atom_site_type_symbol
 _atom_site_label
 _atom_site_symmetry_multiplicity
 _atom_site_fract_x
 _atom_site_fract_y
 _atom_site_fract_z
 _atom_site_occupancy
  Yb  Yb0  1  0.00000000  0.00000000  0.00000000  1
  Yb  Yb1  1  0.50000000  0.50000000  0.00000000  1
  Yb  Yb2  1  0.00000000  0.00000000  0.50000000  1
  Yb  Yb3  1  0.50000000  0.50000000  0.50000000  1
  Ce  Ce0  1  0.01578100  0.45247800  0.25000000  1
  Ce  Ce1  1  0.98421900  0.54752200  0.75000000  1
  Ce  Ce2  1  0.51578100  0.04752200  0.75000000  1
  Ce  Ce3  1  0.48421900  0.95247800  0.25000000  1
  O  O0  1  0.32865100  0.17368800  0.08241900  1
  O  O1  1  0.67134900  0.82631200  0.91758100  1
  O  O2  1  0.82865100  0.32631200  0.91758100  1
  O  O3  1  0.67134900  0.82631200  0.58241900  1
  O  O4  1  0.17134900  0.67368800  0.08241900  1
  O  O5  1  0.32865100  0.17368800  0.41758100  1
  O  O6  1  0.17134900  0.67368800  0.41758100  1
  O  O7  1  0.82865100  0.32631200  0.58241900  1
  O  O8  1  0.65977000  0.59616300  0.25000000  1
  O  O9  1  0.34023000  0.40383700  0.75000000  1
  O  O10  1  0.15977000  0.90383700  0.75000000  1
  O  O11  1  0.84023000  0.09616300  0.25000000  1
loop_
_geom_bond_atom_site_label_1
_geom_bond_atom_site_label_2
_geom_bond_distance
_geom_bond_site_symmetry_2
Ce0 O6 2.128360 1_555
Ce0 O4 2.128360 1_555
Ce0 O8 2.216667 1_455
Ce0 O11 2.343913 1_455
Ce1 O2 2.128360 1_555
Ce1 O7 2.128360 1_555
Ce1 O9 2.216667 1_655
Ce1 O10 2.343913 1_655
Ce2 O1 2.128360 1_545
Ce2 O3 2.128360 1_545
Ce2 O10 2.216667 1_545
Ce2 O9 2.343913 1_555
Ce3 O5 2.128360 1_565
Ce3 O0 2.128360 1_565
Ce3 O11 2.216667 1_565
Ce3 O8 2.343913 1_555
O0 Yb0 2.261806 1_555
O0 Yb1 2.282277 1_555
O1 Yb0 2.261806 1_666
O1 Yb1 2.282277 1_556
O2 Yb1 2.261806 1_556
O2 Yb0 2.282277 1_656
O3 Yb2 2.261806 1_665
O3 Yb3 2.282277 1_555
O4 Yb1 2.261806 1_555
O4 Yb0 2.282277 1_565
O5 Yb2 2.261806 1_555
O5 Yb3 2.282277 1_555
O6 Yb3 2.261806 1_555
O6 Yb2 2.282277 1_565
O7 Yb3 2.261806 1_555
O7 Yb2 2.282277 1_655
O8 Yb1 2.373217 1_555
O8 Yb3 2.373217 1_555
O9 Yb1 2.373217 1_556
O9 Yb3 2.373217 1_555
O10 Yb2 2.373217 1_565
O10 Yb0 2.373217 1_566
O11 Yb2 2.373217 1_655
O11 Yb0 2.373217 1_655
