# generated using pymatgen
data_Te2MoWSeS
_symmetry_space_group_name_H-M   'P 1'
_cell_length_a   3.39998578
_cell_length_b   3.39998578
_cell_length_c   38.73843800
_cell_angle_alpha   90.00000000
_cell_angle_beta   90.00000000
_cell_angle_gamma   119.99999581
_symmetry_Int_Tables_number   1
_chemical_formula_structural   Te2MoWSeS
_chemical_formula_sum   'Te4 Mo2 W2 Se2 S2'
_cell_volume   387.81710297
_cell_formula_units_Z   2
loop_
 _symmetry_equiv_pos_site_id
 _symmetry_equiv_pos_as_xyz
  1  'x, y, z'
loop_
 _atom_site_type_symbol
 _atom_site_label
 _atom_site_symmetry_multiplicity
 _atom_site_fract_x
 _atom_site_fract_y
 _atom_site_fract_z
 _atom_site_occupancy
  Te  Te0  1  0.00000000  0.00000000  0.33041100  1
  Te  Te1  1  0.00000000  0.00000000  0.70581600  1
  Te  Te2  1  0.00000000  0.00000000  0.23312100  1
  Te  Te3  1  0.00000000  0.00000000  0.60923900  1
  Mo  Mo0  1  0.00000000  0.00000000  0.09393500  1
  Mo  Mo1  1  0.33333300  0.66666700  0.65755800  1
  W  W0  1  0.00000000  0.00000000  0.46969300  1
  W  W1  1  0.33333300  0.66666700  0.28180600  1
  Se  Se0  1  0.33333300  0.66666700  0.42699300  1
  Se  Se1  1  0.33333300  0.66666700  0.51231000  1
  S  S0  1  0.33333300  0.66666700  0.05513500  1
  S  S1  1  0.33333300  0.66666700  0.13273200  1
loop_
_geom_bond_atom_site_label_1
_geom_bond_atom_site_label_2
_geom_bond_distance
_geom_bond_site_symmetry_2
Te0 W1 2.720025 1_545
Te0 W1 2.720027 1_445
Te0 W1 2.720027 1_555
Te2 W1 2.722171 1_545
Te2 W1 2.722174 1_445
Te2 W1 2.722174 1_555
Mo0 S1 2.472268 1_545
Mo0 S1 2.472270 1_555
Mo0 S1 2.472270 1_445
Mo0 S0 2.472338 1_545
Mo0 S0 2.472341 1_555
Mo0 S0 2.472341 1_445
Mo1 Te1 2.710737 1_565
Mo1 Te1 2.710740 1_555
Mo1 Te1 2.710740 1_665
Mo1 Te3 2.712368 1_565
Mo1 Te3 2.712370 1_555
Mo1 Te3 2.712370 1_665
Se0 W0 2.566991 1_565
Se0 W0 2.566994 1_665
Se0 W0 2.566994 1_555
Se1 W0 2.564920 1_565
Se1 W0 2.564923 1_665
Se1 W0 2.564923 1_555
