# generated using pymatgen
data_Pr2Mn2Se2O3
_symmetry_space_group_name_H-M   'P 1'
_cell_length_a   4.17089400
_cell_length_b   4.17089400
_cell_length_c   9.98442841
_cell_angle_alpha   102.05613629
_cell_angle_beta   102.05613629
_cell_angle_gamma   90.00000000
_symmetry_Int_Tables_number   1
_chemical_formula_structural   Pr2Mn2Se2O3
_chemical_formula_sum   'Pr2 Mn2 Se2 O3'
_cell_volume   165.94212489
_cell_formula_units_Z   1
loop_
 _symmetry_equiv_pos_site_id
 _symmetry_equiv_pos_as_xyz
  1  'x, y, z'
loop_
 _atom_site_type_symbol
 _atom_site_label
 _atom_site_symmetry_multiplicity
 _atom_site_fract_x
 _atom_site_fract_y
 _atom_site_fract_z
 _atom_site_occupancy
  Pr  Pr0  1  0.31091900  0.31091900  0.62183800  1
  Pr  Pr1  1  0.68908100  0.68908100  0.37816200  1
  Mn  Mn0  1  0.00000000  0.50000000  0.00000000  1
  Mn  Mn1  1  0.50000000  0.00000000  0.00000000  1
  Se  Se0  1  0.89853900  0.89853900  0.79707800  1
  Se  Se1  1  0.10146100  0.10146100  0.20292200  1
  O  O0  1  0.75000000  0.25000000  0.50000000  1
  O  O1  1  0.25000000  0.75000000  0.50000000  1
  O  O2  1  0.50000000  0.50000000  0.00000000  1
loop_
_geom_bond_atom_site_label_1
_geom_bond_atom_site_label_2
_geom_bond_distance
_geom_bond_site_symmetry_2
Pr0 Se0 3.390046 1_445
Pr0 Se0 3.390046 1_455
Pr0 Se0 3.390046 1_545
Pr0 Se0 3.390046 1_555
Pr1 Se1 3.390046 1_665
Pr1 Se1 3.390046 1_565
Pr1 Se1 3.390046 1_655
Pr1 Se1 3.390046 1_555
Mn0 O2 2.085447 1_455
Mn0 O2 2.085447 1_555
Mn0 Se1 2.845319 1_555
Mn0 Se1 2.845319 1_565
Mn0 Se0 2.845319 1_454
Mn0 Se0 2.845319 1_444
Mn1 O2 2.085447 1_545
Mn1 O2 2.085447 1_555
Mn1 Se1 2.845319 1_555
Mn1 Se1 2.845319 1_655
Mn1 Se0 2.845319 1_444
Mn1 Se0 2.845319 1_544
O0 Pr0 2.387425 1_655
O0 Pr1 2.387425 1_545
O0 Pr1 2.387425 1_555
O0 Pr0 2.387425 1_555
O1 Pr0 2.387425 1_565
O1 Pr1 2.387425 1_455
O1 Pr0 2.387425 1_555
O1 Pr1 2.387425 1_555
