# generated using pymatgen
data_EuAl2O4
_symmetry_space_group_name_H-M   'P 1'
_cell_length_a   8.78679975
_cell_length_b   5.15898983
_cell_length_c   8.41576037
_cell_angle_alpha   86.64672714
_cell_angle_beta   90.00000000
_cell_angle_gamma   90.00000000
_symmetry_Int_Tables_number   1
_chemical_formula_structural   EuAl2O4
_chemical_formula_sum   'Eu4 Al8 O16'
_cell_volume   380.84175020
_cell_formula_units_Z   4
loop_
 _symmetry_equiv_pos_site_id
 _symmetry_equiv_pos_as_xyz
  1  'x, y, z'
loop_
 _atom_site_type_symbol
 _atom_site_label
 _atom_site_symmetry_multiplicity
 _atom_site_fract_x
 _atom_site_fract_y
 _atom_site_fract_z
 _atom_site_occupancy
  Eu  Eu0  1  0.49995858  0.25306814  0.51045171  1
  Eu  Eu1  1  -0.00004142  0.74693186  0.48954829  1
  Eu  Eu2  1  0.49287187  0.19626650  0.97177368  1
  Eu  Eu3  1  0.99287187  0.80373350  0.02822632  1
  Al  Al0  1  0.33013730  0.70885864  0.81041547  1
  Al  Al1  1  0.83013730  0.29114136  0.18958453  1
  Al  Al2  1  0.33727121  0.72596160  0.20113976  1
  Al  Al3  1  0.83727121  0.27403840  0.79886024  1
  Al  Al4  1  0.16785061  0.22002432  0.29130125  1
  Al  Al5  1  0.66785061  0.77997568  0.70869875  1
  Al  Al6  1  0.66956633  0.80259554  0.32080204  1
  Al  Al7  1  0.16956633  0.19740446  0.67919796  1
  O  O0  1  0.67021253  0.43888574  0.73342377  1
  O  O1  1  0.17021253  0.56111426  0.26657623  1
  O  O2  1  0.81609307  0.59290103  0.27106826  1
  O  O3  1  0.31609307  0.40709897  0.72893174  1
  O  O4  1  0.98987316  0.34251739  0.67011604  1
  O  O5  1  0.48987316  0.65748261  0.32988396  1
  O  O6  1  0.48269154  0.89902757  0.73477194  1
  O  O7  1  0.98269154  0.10097243  0.26522806  1
  O  O8  1  0.79369561  0.94030158  0.83055785  1
  O  O9  1  0.29369561  0.05969842  0.16944215  1
  O  O10  1  0.16455848  0.90068639  0.79466004  1
  O  O11  1  0.66455848  0.09931361  0.20533996  1
  O  O12  1  0.71793081  0.88886235  0.51388028  1
  O  O13  1  0.21793081  0.11113765  0.48611972  1
  O  O14  1  0.38469189  0.63794556  0.00918771  1
  O  O15  1  0.88469189  0.36205444  0.99081229  1
loop_
_geom_bond_atom_site_label_1
_geom_bond_atom_site_label_2
_geom_bond_distance
_geom_bond_site_symmetry_2
Eu0 O5 2.509806 1_555
Eu0 O6 2.553351 1_545
Eu0 O13 2.595516 1_555
Eu0 O3 2.606385 1_555
Eu0 O0 2.624608 1_555
Eu0 O12 2.682009 1_545
Eu0 O11 3.090727 1_555
Eu1 O4 2.509806 1_455
Eu1 O7 2.553351 1_465
Eu1 O12 2.595516 1_455
Eu1 O2 2.606385 1_455
Eu1 O1 2.624608 1_555
Eu1 O13 2.682009 1_565
Eu1 O10 3.090727 1_555
Eu2 O9 2.487880 1_556
Eu2 O11 2.504934 1_556
Eu2 O14 2.505739 1_556
Eu2 O6 2.587568 1_545
Eu2 O3 2.740898 1_555
Eu2 O0 2.779343 1_555
Eu2 O14 3.032020 1_546
Eu2 O8 3.213514 1_545
Eu3 O8 2.487880 1_554
Eu3 O10 2.504934 1_654
Eu3 O15 2.505739 1_554
Eu3 O7 2.587568 1_565
Eu3 O2 2.740898 1_555
Eu3 O1 2.779343 1_655
Eu3 O15 3.032020 1_564
Eu3 O9 3.213514 1_665
Al0 O3 1.741813 1_555
Al0 O14 1.757941 1_556
Al0 O6 1.758281 1_555
Al0 O10 1.760219 1_555
Al1 O2 1.741813 1_555
Al1 O15 1.757941 1_554
Al1 O7 1.758281 1_555
Al1 O11 1.760219 1_555
Al2 O5 1.746976 1_555
Al2 O14 1.753625 1_555
Al2 O1 1.768191 1_555
Al2 O9 1.768740 1_565
Al3 O4 1.746976 1_555
Al3 O15 1.753625 1_555
Al3 O0 1.768191 1_555
Al3 O8 1.768740 1_545
Al4 O9 1.748663 1_555
Al4 O7 1.757306 1_455
Al4 O13 1.757715 1_555
Al4 O1 1.759933 1_555
Al5 O8 1.748663 1_555
Al5 O6 1.757306 1_555
Al5 O12 1.757715 1_555
Al5 O0 1.759933 1_555
Al6 O5 1.747174 1_555
Al6 O2 1.748178 1_555
Al6 O12 1.761694 1_555
Al6 O11 1.765042 1_565
Al7 O4 1.747174 1_455
Al7 O3 1.748178 1_555
Al7 O13 1.761694 1_555
Al7 O10 1.765042 1_545
