# generated using pymatgen
data_Li8EuSn7
_symmetry_space_group_name_H-M   'P 1'
_cell_length_a   13.70814972
_cell_length_b   13.70814972
_cell_length_c   11.56484500
_cell_angle_alpha   90.00000000
_cell_angle_beta   90.00000000
_cell_angle_gamma   160.64998834
_symmetry_Int_Tables_number   1
_chemical_formula_structural   Li8EuSn7
_chemical_formula_sum   'Li16 Eu2 Sn14'
_cell_volume   720.06026614
_cell_formula_units_Z   2
loop_
 _symmetry_equiv_pos_site_id
 _symmetry_equiv_pos_as_xyz
  1  'x, y, z'
loop_
 _atom_site_type_symbol
 _atom_site_label
 _atom_site_symmetry_multiplicity
 _atom_site_fract_x
 _atom_site_fract_y
 _atom_site_fract_z
 _atom_site_occupancy
  Li  Li0  1  0.97680500  0.02319500  0.25000000  1
  Li  Li1  1  0.02319500  0.97680500  0.75000000  1
  Li  Li2  1  0.00000000  0.00000000  0.00000000  1
  Li  Li3  1  0.00000000  0.00000000  0.50000000  1
  Li  Li4  1  0.75712600  0.24287400  0.09438000  1
  Li  Li5  1  0.24287400  0.75712600  0.90562000  1
  Li  Li6  1  0.24287400  0.75712600  0.59438000  1
  Li  Li7  1  0.75712600  0.24287400  0.40562000  1
  Li  Li8  1  0.89173100  0.10826900  0.51814900  1
  Li  Li9  1  0.10826900  0.89173100  0.48185100  1
  Li  Li10  1  0.10826900  0.89173100  0.01814900  1
  Li  Li11  1  0.89173100  0.10826900  0.98185100  1
  Li  Li12  1  0.54470300  0.45529700  0.12492700  1
  Li  Li13  1  0.45529700  0.54470300  0.87507300  1
  Li  Li14  1  0.45529700  0.54470300  0.62492700  1
  Li  Li15  1  0.54470300  0.45529700  0.37507300  1
  Eu  Eu0  1  0.85817300  0.14182700  0.25000000  1
  Eu  Eu1  1  0.14182700  0.85817300  0.75000000  1
  Sn  Sn0  1  0.43481300  0.56518700  0.12064300  1
  Sn  Sn1  1  0.56518700  0.43481300  0.87935700  1
  Sn  Sn2  1  0.56518700  0.43481300  0.62064300  1
  Sn  Sn3  1  0.43481300  0.56518700  0.37935700  1
  Sn  Sn4  1  0.26345900  0.73654100  0.25000000  1
  Sn  Sn5  1  0.73654100  0.26345900  0.75000000  1
  Sn  Sn6  1  0.07980100  0.92019900  0.25000000  1
  Sn  Sn7  1  0.92019900  0.07980100  0.75000000  1
  Sn  Sn8  1  0.65498600  0.34501400  0.25000000  1
  Sn  Sn9  1  0.34501400  0.65498600  0.75000000  1
  Sn  Sn10  1  0.66993900  0.33006100  0.54518200  1
  Sn  Sn11  1  0.33006100  0.66993900  0.45481800  1
  Sn  Sn12  1  0.33006100  0.66993900  0.04518200  1
  Sn  Sn13  1  0.66993900  0.33006100  0.95481800  1
loop_
_geom_bond_atom_site_label_1
_geom_bond_atom_site_label_2
_geom_bond_distance
_geom_bond_site_symmetry_2
Li0 Sn6 2.783606 1_645
Li0 Li3 2.958391 1_655
Li0 Li2 2.958391 1_655
Li0 Sn3 2.972102 1_545
Li0 Sn0 2.972102 1_545
Li0 Sn3 2.972102 1_655
Li0 Sn0 2.972102 1_655
Li0 Li15 3.281309 1_655
Li0 Li12 3.281309 1_655
Li0 Li12 3.281309 1_545
Li0 Li15 3.281309 1_545
Li1 Sn7 2.783606 1_465
Li1 Li2 2.958391 1_566
Li1 Li3 2.958391 1_565
Li1 Sn1 2.972102 1_455
Li1 Sn1 2.972102 1_565
Li1 Sn2 2.972102 1_455
Li1 Sn2 2.972102 1_565
Li1 Li13 3.281309 1_565
Li1 Li14 3.281309 1_565
Li1 Li13 3.281309 1_455
Li1 Li14 3.281309 1_455
Li2 Sn0 3.218365 1_555
Li2 Sn0 3.218365 1_445
Li2 Sn1 3.218365 1_444
Li2 Sn1 3.218365 1_554
Li3 Li8 2.933634 1_455
Li3 Li9 2.933634 1_545
Li3 Sn2 3.218365 1_555
Li3 Sn2 3.218365 1_445
Li3 Sn3 3.218365 1_445
Li3 Sn3 3.218365 1_555
Li4 Sn13 2.856118 1_554
Li4 Sn4 2.928431 1_545
Li4 Sn4 2.928431 1_655
Li4 Sn12 3.084905 1_545
Li4 Sn12 3.084905 1_655
Li4 Li5 3.197058 1_654
Li4 Li5 3.197058 1_544
Li4 Sn8 3.295330 1_555
Li5 Sn12 2.856118 1_556
Li5 Sn5 2.928431 1_455
Li5 Sn5 2.928431 1_565
Li5 Sn13 3.084905 1_455
Li5 Sn13 3.084905 1_565
Li5 Sn9 3.295330 1_555
Li6 Sn11 2.856118 1_555
Li6 Sn5 2.928431 1_455
Li6 Sn5 2.928431 1_565
Li6 Sn10 3.084905 1_455
Li6 Sn10 3.084905 1_565
Li6 Li7 3.197058 1_455
Li6 Li7 3.197058 1_565
Li6 Sn9 3.295330 1_555
Li7 Sn10 2.856118 1_555
Li7 Sn4 2.928431 1_545
Li7 Sn4 2.928431 1_655
Li7 Sn11 3.084905 1_545
Li7 Sn11 3.084905 1_655
Li7 Sn8 3.295330 1_555
Li8 Sn7 2.789523 1_555
Li8 Sn11 2.936288 1_545
Li8 Sn11 2.936288 1_655
Li8 Sn3 3.039654 1_545
Li8 Sn3 3.039654 1_655
Li9 Sn6 2.789523 1_555
Li9 Sn10 2.936288 1_455
Li9 Sn10 2.936288 1_565
Li9 Sn2 3.039654 1_455
Li9 Sn2 3.039654 1_565
Li10 Sn6 2.789523 1_555
Li10 Li2 2.933634 1_565
Li10 Sn13 2.936288 1_454
Li10 Sn13 2.936288 1_564
Li10 Sn1 3.039654 1_454
Li10 Sn1 3.039654 1_564
Li10 Li12 3.127891 1_565
Li10 Li12 3.127891 1_455
Li11 Sn7 2.789523 1_555
Li11 Li2 2.933634 1_656
Li11 Sn12 2.936288 1_546
Li11 Sn12 2.936288 1_656
Li11 Sn0 3.039654 1_546
Li11 Sn0 3.039654 1_656
Li11 Li13 3.127891 1_655
Li11 Li13 3.127891 1_545
Li12 Sn6 2.880871 1_545
Li12 Sn6 2.880871 1_655
Li12 Li15 2.892900 1_555
Li12 Sn1 2.893434 1_554
Li12 Sn0 2.970339 1_555
Li12 Li2 2.975634 1_555
Li12 Li2 2.975634 1_665
Li12 Sn8 3.312987 1_555
Li13 Sn7 2.880871 1_455
Li13 Sn7 2.880871 1_565
Li13 Li14 2.892900 1_555
Li13 Sn0 2.893434 1_556
Li13 Sn1 2.970339 1_555
Li13 Li2 2.975634 1_556
Li13 Li2 2.975634 1_666
Li13 Sn9 3.312987 1_555
Li14 Sn7 2.880871 1_455
Li14 Sn7 2.880871 1_565
Li14 Sn3 2.893434 1_555
Li14 Sn2 2.970339 1_555
Li14 Li3 2.975634 1_555
Li14 Li3 2.975634 1_665
Li14 Li8 3.127891 1_565
Li14 Li8 3.127891 1_455
Li14 Sn9 3.312987 1_555
Li15 Sn6 2.880871 1_545
Li15 Sn6 2.880871 1_655
Li15 Sn2 2.893434 1_555
Li15 Sn3 2.970339 1_555
Li15 Li3 2.975634 1_555
Li15 Li3 2.975634 1_665
Li15 Li9 3.127891 1_655
Li15 Li9 3.127891 1_545
Li15 Sn8 3.312987 1_555
Eu0 Li0 3.206190 1_555
Eu0 Li8 3.231005 1_555
Eu0 Li11 3.231005 1_554
Eu0 Li4 3.270625 1_555
Eu0 Li7 3.270625 1_555
Eu0 Sn11 3.390478 1_545
Eu0 Sn12 3.390478 1_545
Eu0 Sn12 3.390478 1_655
Eu0 Sn11 3.390478 1_655
Eu0 Sn3 3.440305 1_545
Eu0 Sn0 3.440305 1_545
Eu0 Sn3 3.440305 1_655
Eu0 Sn0 3.440305 1_655
Eu0 Sn4 3.443815 1_545
Eu0 Sn4 3.443815 1_655
Eu1 Li1 3.206190 1_555
Eu1 Li10 3.231005 1_556
Eu1 Li9 3.231005 1_555
Eu1 Li6 3.270625 1_555
Eu1 Li5 3.270625 1_555
Eu1 Sn13 3.390478 1_455
Eu1 Sn13 3.390478 1_565
Eu1 Sn10 3.390478 1_455
Eu1 Sn10 3.390478 1_565
Eu1 Sn1 3.440305 1_455
Eu1 Sn1 3.440305 1_565
Eu1 Sn2 3.440305 1_455
Eu1 Sn2 3.440305 1_565
Eu1 Sn5 3.443815 1_455
Eu1 Sn5 3.443815 1_565
Sn0 Sn12 2.962520 1_555
Sn0 Sn3 2.991987 1_555
Sn1 Sn13 2.962520 1_555
Sn1 Sn2 2.991987 1_555
Sn6 Sn8 3.071863 1_565
Sn6 Sn8 3.071863 1_455
Sn7 Sn9 3.071863 1_655
Sn7 Sn9 3.071863 1_545
Sn10 Sn2 2.962520 1_555
Sn10 Sn5 2.975016 1_555
Sn10 Sn8 3.437571 1_555
Sn11 Sn3 2.962520 1_555
Sn11 Sn4 2.975016 1_555
Sn11 Sn9 3.437571 1_555
Sn12 Sn4 2.975016 1_555
Sn12 Sn9 3.437571 1_554
Sn13 Sn5 2.975016 1_555
Sn13 Sn8 3.437571 1_556
