# generated using pymatgen
data_Li9Mn2Co5O16
_symmetry_space_group_name_H-M   'P 1'
_cell_length_a   6.44035300
_cell_length_b   6.47450411
_cell_length_c   7.83791834
_cell_angle_alpha   87.70681698
_cell_angle_beta   114.23496939
_cell_angle_gamma   108.22944208
_symmetry_Int_Tables_number   1
_chemical_formula_structural   Li9Mn2Co5O16
_chemical_formula_sum   'Li9 Mn2 Co5 O16'
_cell_volume   281.58751902
_cell_formula_units_Z   1
loop_
 _symmetry_equiv_pos_site_id
 _symmetry_equiv_pos_as_xyz
  1  'x, y, z'
loop_
 _atom_site_type_symbol
 _atom_site_label
 _atom_site_symmetry_multiplicity
 _atom_site_fract_x
 _atom_site_fract_y
 _atom_site_fract_z
 _atom_site_occupancy
  Li  Li0  1  0.87018200  0.05858900  0.30944500  1
  Li  Li1  1  0.86673400  0.56301800  0.81115200  1
  Li  Li2  1  0.13514600  0.93040500  0.68977100  1
  Li  Li3  1  0.12042800  0.44050800  0.18839800  1
  Li  Li4  1  0.37658500  0.81250700  0.05582500  1
  Li  Li5  1  0.38636000  0.32206200  0.57120800  1
  Li  Li6  1  0.62507200  0.68987600  0.44355700  1
  Li  Li7  1  0.61919600  0.18330800  0.93042700  1
  Li  Li8  1  0.49811500  0.75128900  0.74924400  1
  Mn  Mn0  1  0.99534700  0.99603800  0.99662000  1
  Mn  Mn1  1  0.25368600  0.38155200  0.87354000  1
  Co  Co0  1  0.00843800  0.50867600  0.50700000  1
  Co  Co1  1  0.25759300  0.87404500  0.38409000  1
  Co  Co2  1  0.50118400  0.24505600  0.24995200  1
  Co  Co3  1  0.74537000  0.62172800  0.11765900  1
  Co  Co4  1  0.74697100  0.12680300  0.62709400  1
  O  O0  1  0.71126600  0.89948900  0.04172700  1
  O  O1  1  0.69715400  0.39629700  0.52414800  1
  O  O2  1  0.95668800  0.77263300  0.40996500  1
  O  O3  1  0.95811900  0.27335700  0.91830400  1
  O  O4  1  0.18706500  0.63812200  0.78705400  1
  O  O5  1  0.19155700  0.13480600  0.26277100  1
  O  O6  1  0.43909200  0.51268200  0.13676500  1
  O  O7  1  0.45125700  0.03646700  0.64458900  1
  O  O8  1  0.06123400  0.24224400  0.61321300  1
  O  O9  1  0.04231400  0.72674200  0.08834600  1
  O  O10  1  0.29623300  0.10073900  0.96627400  1
  O  O11  1  0.28962900  0.59723600  0.45659600  1
  O  O12  1  0.54843000  0.97275300  0.34103400  1
  O  O13  1  0.54459700  0.46309200  0.84631100  1
  O  O14  1  0.82465600  0.87432100  0.73733200  1
  O  O15  1  0.79430400  0.35356400  0.22059300  1
loop_
_geom_bond_atom_site_label_1
_geom_bond_atom_site_label_2
_geom_bond_distance
_geom_bond_site_symmetry_2
Li0 O0 2.064448 1_545
Li0 O12 2.086586 1_545
Li0 O2 2.127711 1_545
Li0 O15 2.137588 1_555
Li0 O5 2.151612 1_655
Li0 O8 2.345792 1_655
Li1 O4 2.052606 1_655
Li1 O13 2.100979 1_555
Li1 O9 2.130748 1_656
Li1 O14 2.142490 1_555
Li1 O3 2.174313 1_555
Li1 O1 2.204107 1_555
Li2 O4 2.084573 1_555
Li2 O14 2.101506 1_455
Li2 O7 2.107005 1_565
Li2 O2 2.132962 1_455
Li2 O10 2.149173 1_565
Li2 O8 2.221009 1_565
Li3 O11 2.057755 1_555
Li3 O3 2.098649 1_454
Li3 O9 2.108463 1_555
Li3 O15 2.115672 1_455
Li3 O6 2.158894 1_555
Li3 O5 2.173218 1_555
Li4 O0 2.099162 1_555
Li4 O4 2.102281 1_554
Li4 O10 2.108126 1_564
Li4 O6 2.124514 1_555
Li4 O9 2.167768 1_555
Li4 O12 2.175919 1_555
Li5 O7 2.031177 1_555
Li5 O13 2.071966 1_555
Li5 O1 2.088919 1_555
Li5 O11 2.115687 1_555
Li5 O8 2.152978 1_555
Li5 O5 2.383521 1_555
Li6 O12 2.089476 1_555
Li6 O11 2.098346 1_555
Li6 O1 2.107777 1_555
Li6 O2 2.156879 1_555
Li6 O14 2.282561 1_555
Li6 O6 2.351491 1_555
Li7 O13 2.033662 1_555
Li7 O10 2.112624 1_555
Li7 O3 2.117339 1_555
Li7 O0 2.148980 1_546
Li7 O7 2.151924 1_555
Li7 O15 2.230828 1_556
Li8 O14 2.042833 1_555
Li8 O4 2.046816 1_555
Li8 O7 2.048720 1_565
Li8 O13 2.049155 1_555
Li8 O0 2.197475 1_556
Li8 O11 2.208116 1_555
Mn0 O0 1.913354 1_556
Mn0 O9 1.923405 1_656
Mn0 O14 1.926582 1_555
Mn0 O3 1.928321 1_565
Mn0 O10 1.953162 1_665
Mn0 O5 2.007808 1_666
Mn1 O4 1.876194 1_555
Mn1 O13 1.880142 1_555
Mn1 O8 1.970969 1_555
Mn1 O6 1.971445 1_556
Mn1 O3 1.982850 1_455
Mn1 O10 1.987812 1_555
Co0 O2 1.911652 1_455
Co0 O11 1.919380 1_555
Co0 O8 1.950383 1_555
Co0 O1 1.966563 1_455
Co0 O4 2.077251 1_555
Co0 O15 2.173038 1_455
Co1 O11 1.905543 1_555
Co1 O2 1.934875 1_455
Co1 O12 1.945130 1_555
Co1 O5 1.980952 1_565
Co1 O7 2.022596 1_565
Co1 O9 2.217262 1_555
Co2 O15 1.903738 1_555
Co2 O5 1.940174 1_555
Co2 O12 1.940895 1_545
Co2 O6 1.992138 1_555
Co2 O1 2.083006 1_555
Co2 O10 2.131734 1_554
Co3 O0 1.921125 1_555
Co3 O9 1.925392 1_655
Co3 O6 1.942816 1_555
Co3 O15 1.945822 1_555
Co3 O13 2.082402 1_554
Co3 O2 2.200733 1_555
Co4 O7 1.870584 1_555
Co4 O14 1.926883 1_545
Co4 O1 1.955380 1_555
Co4 O8 1.973507 1_655
Co4 O12 2.164324 1_545
Co4 O3 2.185675 1_555
