# generated using pymatgen
data_Ca5Sc2(CoO6)2
_symmetry_space_group_name_H-M   'P 1'
_cell_length_a   6.39051784
_cell_length_b   6.44915794
_cell_length_c   6.43491569
_cell_angle_alpha   91.06992019
_cell_angle_beta   93.63842951
_cell_angle_gamma   93.68782574
_symmetry_Int_Tables_number   1
_chemical_formula_structural   Ca5Sc2(CoO6)2
_chemical_formula_sum   'Ca5 Sc2 Co2 O12'
_cell_volume   264.05358508
_cell_formula_units_Z   1
loop_
 _symmetry_equiv_pos_site_id
 _symmetry_equiv_pos_as_xyz
  1  'x, y, z'
loop_
 _atom_site_type_symbol
 _atom_site_label
 _atom_site_symmetry_multiplicity
 _atom_site_fract_x
 _atom_site_fract_y
 _atom_site_fract_z
 _atom_site_occupancy
  Ca  Ca0  1  0.24918800  0.61453500  0.88533100  1
  Ca  Ca1  1  0.11023900  0.74033100  0.37778900  1
  Ca  Ca2  1  0.38998100  0.12220100  0.75905200  1
  Ca  Ca3  1  0.62344900  0.88805700  0.24517200  1
  Ca  Ca4  1  0.87606600  0.25560900  0.61298800  1
  Sc  Sc0  1  0.25146300  0.25149400  0.24744100  1
  Sc  Sc1  1  0.74907800  0.74296900  0.75822900  1
  Co  Co0  1  0.00520600  0.00202900  0.99705300  1
  Co  Co1  1  0.49521500  0.50285000  0.49789000  1
  O  O0  1  0.97014000  0.06916200  0.28554500  1
  O  O1  1  0.53165900  0.21396900  0.42911800  1
  O  O2  1  0.04708600  0.91345800  0.71680100  1
  O  O3  1  0.45239800  0.78355300  0.58708200  1
  O  O4  1  0.92493200  0.72235900  0.04360000  1
  O  O5  1  0.57219300  0.45715700  0.77805100  1
  O  O6  1  0.29587300  0.96252100  0.08710300  1
  O  O7  1  0.20468100  0.41205300  0.53638500  1
  O  O8  1  0.71719800  0.02870900  0.89904100  1
  O  O9  1  0.78266100  0.60015100  0.47305100  1
  O  O10  1  0.39415600  0.55661500  0.22152200  1
  O  O11  1  0.10713800  0.27858800  0.94338600  1
loop_
_geom_bond_atom_site_label_1
_geom_bond_atom_site_label_2
_geom_bond_distance
_geom_bond_site_symmetry_2
Ca0 O11 2.340497 1_555
Ca0 O10 2.344832 1_556
Ca0 O5 2.488311 1_555
Ca0 O4 2.498281 1_456
Ca0 O6 2.562657 1_556
Ca0 O7 2.567054 1_555
Ca0 O3 2.601974 1_555
Ca0 O2 2.604069 1_555
Ca1 O9 2.348504 1_455
Ca1 O4 2.385405 1_455
Ca1 O0 2.423843 1_465
Ca1 O7 2.460660 1_555
Ca1 O10 2.484052 1_555
Ca1 O3 2.491273 1_555
Ca1 O2 2.499450 1_555
Ca1 O6 2.668819 1_555
Ca2 O8 2.343300 1_555
Ca2 O5 2.384476 1_555
Ca2 O1 2.428890 1_555
Ca2 O6 2.457856 1_546
Ca2 O11 2.480578 1_555
Ca2 O2 2.493822 1_545
Ca2 O3 2.496268 1_545
Ca2 O7 2.668146 1_555
Ca3 O6 2.350488 1_555
Ca3 O0 2.433719 1_565
Ca3 O10 2.509163 1_555
Ca3 O1 2.513324 1_565
Ca3 O8 2.513485 1_564
Ca3 O3 2.599166 1_555
Ca3 O9 2.605444 1_555
Ca3 O4 2.658302 1_555
Ca4 O7 2.355506 1_655
Ca4 O1 2.428532 1_555
Ca4 O9 2.506312 1_555
Ca4 O11 2.506863 1_655
Ca4 O0 2.531034 1_555
Ca4 O8 2.589780 1_555
Ca4 O2 2.604293 1_645
Ca4 O5 2.669016 1_555
Co0 O4 1.877933 1_446
Co0 O11 1.904419 1_555
Co0 O2 1.921615 1_545
Co0 O8 1.926749 1_455
Co0 O0 1.928530 1_456
Co0 O6 1.944437 1_546
Co1 O5 1.872136 1_555
Co1 O10 1.898973 1_555
Co1 O9 1.919987 1_555
Co1 O3 1.930365 1_555
Co1 O1 1.938842 1_555
Co1 O7 1.943033 1_555
O0 Sc0 2.114163 1_655
O1 Sc0 2.105271 1_555
O2 Sc1 2.170909 1_455
O3 Sc1 2.164619 1_555
O4 Sc1 2.102174 1_554
O5 Sc1 2.109656 1_555
O6 Sc0 2.156756 1_565
O7 Sc0 2.158045 1_555
O8 Sc1 2.065856 1_545
O9 Sc1 2.067432 1_555
O10 Sc0 2.128899 1_555
O11 Sc0 2.124574 1_556
