# generated using pymatgen
data_Ba4CN4
_symmetry_space_group_name_H-M   'P 1'
_cell_length_a   13.19043000
_cell_length_b   4.05985900
_cell_length_c   15.62327900
_cell_angle_alpha   90.00000000
_cell_angle_beta   90.00000000
_cell_angle_gamma   90.00000000
_symmetry_Int_Tables_number   1
_chemical_formula_structural   Ba4CN4
_chemical_formula_sum   'Ba16 C4 N16'
_cell_volume   836.64668120
_cell_formula_units_Z   4
loop_
 _symmetry_equiv_pos_site_id
 _symmetry_equiv_pos_as_xyz
  1  'x, y, z'
loop_
 _atom_site_type_symbol
 _atom_site_label
 _atom_site_symmetry_multiplicity
 _atom_site_fract_x
 _atom_site_fract_y
 _atom_site_fract_z
 _atom_site_occupancy
  Ba  Ba0  1  0.59890600  0.25000000  0.90408100  1
  Ba  Ba1  1  0.09890600  0.25000000  0.59591900  1
  Ba  Ba2  1  0.40109400  0.75000000  0.09591900  1
  Ba  Ba3  1  0.90109400  0.75000000  0.40408100  1
  Ba  Ba4  1  0.64022700  0.25000000  0.45214300  1
  Ba  Ba5  1  0.14022700  0.25000000  0.04785700  1
  Ba  Ba6  1  0.35977300  0.75000000  0.54785700  1
  Ba  Ba7  1  0.85977300  0.75000000  0.95214300  1
  Ba  Ba8  1  0.82333300  0.25000000  0.74573100  1
  Ba  Ba9  1  0.32333300  0.25000000  0.75426900  1
  Ba  Ba10  1  0.17666700  0.75000000  0.25426900  1
  Ba  Ba11  1  0.67666700  0.75000000  0.24573100  1
  Ba  Ba12  1  0.91467900  0.25000000  0.18022800  1
  Ba  Ba13  1  0.41467900  0.25000000  0.31977300  1
  Ba  Ba14  1  0.08532100  0.75000000  0.81977300  1
  Ba  Ba15  1  0.58532100  0.75000000  0.68022700  1
  C  C0  1  0.65816500  0.25000000  0.08823100  1
  C  C1  1  0.15816500  0.25000000  0.41176900  1
  C  C2  1  0.34183500  0.75000000  0.91176900  1
  C  C3  1  0.84183500  0.75000000  0.58823100  1
  N  N0  1  0.56928300  0.25000000  0.11493200  1
  N  N1  1  0.06928300  0.25000000  0.38506800  1
  N  N2  1  0.43071700  0.75000000  0.88506800  1
  N  N3  1  0.93071700  0.75000000  0.61493200  1
  N  N4  1  0.74616000  0.25000000  0.05920200  1
  N  N5  1  0.24616000  0.25000000  0.44079800  1
  N  N6  1  0.25384000  0.75000000  0.94079800  1
  N  N7  1  0.75384000  0.75000000  0.55920200  1
  N  N8  1  0.79374900  0.25000000  0.32986800  1
  N  N9  1  0.29374900  0.25000000  0.17013200  1
  N  N10  1  0.20625100  0.75000000  0.67013200  1
  N  N11  1  0.70625100  0.75000000  0.82986800  1
  N  N12  1  0.96190300  0.25000000  0.85932800  1
  N  N13  1  0.46190300  0.25000000  0.64067200  1
  N  N14  1  0.03809700  0.75000000  0.14067200  1
  N  N15  1  0.53809700  0.75000000  0.35932800  1
loop_
_geom_bond_atom_site_label_1
_geom_bond_atom_site_label_2
_geom_bond_distance
_geom_bond_site_symmetry_2
Ba0 N11 2.733091 1_545
Ba0 N11 2.733091 1_555
Ba0 C0 2.981319 1_556
Ba0 N2 3.021676 1_545
Ba0 N2 3.021676 1_555
Ba0 N4 3.105808 1_556
Ba0 N0 3.317277 1_556
Ba1 N10 2.733091 1_545
Ba1 N10 2.733091 1_555
Ba1 C1 2.981319 1_555
Ba1 N3 3.021676 1_445
Ba1 N3 3.021676 1_455
Ba1 N5 3.105808 1_555
Ba1 N1 3.317277 1_555
Ba2 N9 2.733091 1_555
Ba2 N9 2.733091 1_565
Ba2 C2 2.981319 1_554
Ba2 N0 3.021676 1_555
Ba2 N0 3.021676 1_565
Ba2 N6 3.105808 1_554
Ba2 N2 3.317277 1_554
Ba3 N8 2.733091 1_565
Ba3 N8 2.733091 1_555
Ba3 C3 2.981319 1_555
Ba3 N1 3.021676 1_655
Ba3 N1 3.021676 1_665
Ba3 N7 3.105808 1_555
Ba3 N3 3.317277 1_555
Ba4 N8 2.783899 1_555
Ba4 N15 2.835157 1_555
Ba4 N15 2.835157 1_545
Ba4 N7 3.027220 1_545
Ba4 N7 3.027220 1_555
Ba5 N9 2.783899 1_555
Ba5 N14 2.835157 1_555
Ba5 N14 2.835157 1_545
Ba5 N6 3.027220 1_544
Ba5 N6 3.027220 1_554
Ba6 N10 2.783899 1_555
Ba6 N13 2.835157 1_565
Ba6 N13 2.835157 1_555
Ba6 N5 3.027220 1_555
Ba6 N5 3.027220 1_565
Ba7 N11 2.783899 1_555
Ba7 N12 2.835157 1_565
Ba7 N12 2.835157 1_555
Ba7 N4 3.027220 1_566
Ba7 N4 3.027220 1_556
Ba8 N12 2.547668 1_555
Ba8 N11 2.869419 1_545
Ba8 N11 2.869419 1_555
Ba9 N13 2.547668 1_555
Ba9 N10 2.869419 1_555
Ba9 N10 2.869419 1_545
Ba10 N14 2.547668 1_555
Ba10 N9 2.869419 1_555
Ba10 N9 2.869419 1_565
Ba11 N15 2.547668 1_555
Ba11 N8 2.869419 1_555
Ba11 N8 2.869419 1_565
Ba12 N14 2.674455 1_645
Ba12 N14 2.674455 1_655
Ba12 N8 2.830199 1_555
Ba12 N4 2.918256 1_555
Ba13 N15 2.674451 1_545
Ba13 N15 2.674451 1_555
Ba13 N9 2.830212 1_555
Ba13 N5 2.918246 1_555
Ba14 N12 2.674451 1_465
Ba14 N12 2.674451 1_455
Ba14 N10 2.830212 1_555
Ba14 N6 2.918246 1_555
Ba15 N13 2.674451 1_555
Ba15 N13 2.674451 1_565
Ba15 N11 2.830212 1_555
Ba15 N7 2.918246 1_555
C0 N0 1.244396 1_555
C0 N4 1.246151 1_555
C1 N1 1.244396 1_555
C1 N5 1.246151 1_555
C2 N2 1.244396 1_555
C2 N6 1.246151 1_555
C3 N3 1.244396 1_555
C3 N7 1.246151 1_555
