# generated using pymatgen
data_Mn2V2O7
_symmetry_space_group_name_H-M   'P 1'
_cell_length_a   5.09478604
_cell_length_b   5.55659958
_cell_length_c   5.55658193
_cell_angle_alpha   107.51192386
_cell_angle_beta   97.24219818
_cell_angle_gamma   97.24220263
_symmetry_Int_Tables_number   1
_chemical_formula_structural   Mn2V2O7
_chemical_formula_sum   'Mn2 V2 O7'
_cell_volume   146.56482346
_cell_formula_units_Z   1
loop_
 _symmetry_equiv_pos_site_id
 _symmetry_equiv_pos_as_xyz
  1  'x, y, z'
loop_
 _atom_site_type_symbol
 _atom_site_label
 _atom_site_symmetry_multiplicity
 _atom_site_fract_x
 _atom_site_fract_y
 _atom_site_fract_z
 _atom_site_occupancy
  Mn  Mn0  1  0.49999800  0.68618900  0.31381300  1
  Mn  Mn1  1  0.49999900  0.31119200  0.68880500  1
  V  V0  1  0.10301100  0.75362100  0.75907200  1
  V  V1  1  0.89698900  0.24093000  0.24638300  1
  O  O0  1  0.00000400  0.99256200  0.00742200  1
  O  O1  1  0.70464500  0.06751500  0.39646500  1
  O  O2  1  0.29535400  0.60354100  0.93248000  1
  O  O3  1  0.70912500  0.38798300  0.06779600  1
  O  O4  1  0.29087300  0.93219800  0.61201800  1
  O  O5  1  0.21762600  0.41735800  0.41909600  1
  O  O6  1  0.78237500  0.58091200  0.58265200  1
loop_
_geom_bond_atom_site_label_1
_geom_bond_atom_site_label_2
_geom_bond_distance
_geom_bond_site_symmetry_2
Mn0 O1 2.127034 1_565
Mn0 O2 2.127060 1_554
Mn0 O5 2.199901 1_555
Mn0 O6 2.199926 1_555
Mn0 O4 2.280050 1_555
Mn0 O3 2.280081 1_555
Mn1 O3 2.128602 1_556
Mn1 O4 2.128626 1_545
Mn1 O5 2.205920 1_555
Mn1 O6 2.205933 1_555
Mn1 O1 2.240186 1_555
Mn1 O2 2.240209 1_555
O0 V0 1.788344 1_554
O0 V1 1.788484 1_465
O1 V1 1.742371 1_555
O2 V0 1.742336 1_555
O3 V1 1.736141 1_555
O4 V0 1.736104 1_555
O5 V1 1.784772 1_455
O5 V0 2.414518 1_555
O6 V0 1.784751 1_655
O6 V1 2.414554 1_555
