# generated using pymatgen
data_MgTi2Zn2(PO5)2
_symmetry_space_group_name_H-M   'P 1'
_cell_length_a   5.69902223
_cell_length_b   7.51202529
_cell_length_c   8.50199265
_cell_angle_alpha   88.46996976
_cell_angle_beta   39.61953432
_cell_angle_gamma   104.90680420
_symmetry_Int_Tables_number   1
_chemical_formula_structural   MgTi2Zn2(PO5)2
_chemical_formula_sum   'Mg1 Ti2 Zn2 P2 O10'
_cell_volume   208.82874834
_cell_formula_units_Z   1
loop_
 _symmetry_equiv_pos_site_id
 _symmetry_equiv_pos_as_xyz
  1  'x, y, z'
loop_
 _atom_site_type_symbol
 _atom_site_label
 _atom_site_symmetry_multiplicity
 _atom_site_fract_x
 _atom_site_fract_y
 _atom_site_fract_z
 _atom_site_occupancy
  Mg  Mg0  1  0.06469200  0.81484100  0.08065200  1
  Ti  Ti0  1  0.42328300  0.46329400  0.55280900  1
  Ti  Ti1  1  0.49749800  0.99440100  0.51147300  1
  Zn  Zn0  1  0.38980900  0.27960600  0.25251400  1
  Zn  Zn1  1  0.73636200  0.82499200  0.63749400  1
  P  P0  1  0.52005600  0.27547900  0.82915600  1
  P  P1  1  0.46019700  0.72778800  0.17778200  1
  O  O0  1  0.76791400  0.21683000  0.58038000  1
  O  O1  1  0.40087300  0.42756400  0.80812200  1
  O  O2  1  0.30039600  0.84690500  0.36712800  1
  O  O3  1  0.52735900  0.56574600  0.24500300  1
  O  O4  1  0.16223400  0.63252800  0.19762300  1
  O  O5  1  0.90115800  0.87279500  0.90130400  1
  O  O6  1  0.76907700  0.35267500  0.85844100  1
  O  O7  1  0.12973400  0.09081500  0.08945800  1
  O  O8  1  0.55725100  0.73587300  0.49129900  1
  O  O9  1  0.46546300  0.23040500  0.43689700  1
loop_
_geom_bond_atom_site_label_1
_geom_bond_atom_site_label_2
_geom_bond_distance
_geom_bond_site_symmetry_2
Mg0 O7 2.023987 1_565
Mg0 O4 2.084300 1_555
Mg0 O8 2.087203 1_455
Mg0 O3 2.269700 1_455
Mg0 O5 2.397046 1_454
Mg0 Zn1 2.543551 1_554
O0 P0 1.558903 1_555
O0 Zn0 2.098467 1_655
O0 Ti1 2.372440 1_545
O1 P0 1.540787 1_555
O1 Ti0 2.079498 1_555
O2 P1 1.568170 1_555
O2 Zn1 1.991944 1_455
O2 Ti1 2.356165 1_555
O3 P1 1.579376 1_555
O3 Zn0 2.070633 1_555
O3 Ti0 2.249199 1_555
O4 P1 1.533340 1_555
O4 Ti0 2.432852 1_455
O5 P1 1.543252 1_556
O5 Ti1 2.063337 1_655
O6 P0 1.594049 1_555
O6 Zn0 2.081633 1_556
O6 Ti0 2.169918 1_655
O7 P0 1.560297 1_554
O7 Ti1 2.232167 1_445
O8 Ti0 1.890112 1_555
O8 Ti1 2.045746 1_555
O8 Zn1 2.163914 1_555
O9 Ti1 1.965512 1_545
O9 Zn0 1.967803 1_555
O9 Ti0 2.008253 1_555
