# generated using pymatgen
data_Y8Cu3(SnS7)3
_symmetry_space_group_name_H-M   'P 1'
_cell_length_a   19.04704800
_cell_length_b   9.64823600
_cell_length_c   9.70762912
_cell_angle_alpha   60.85053975
_cell_angle_beta   90.00000000
_cell_angle_gamma   90.00000000
_symmetry_Int_Tables_number   1
_chemical_formula_structural   Y8Cu3(SnS7)3
_chemical_formula_sum   'Y16 Cu6 Sn6 S42'
_cell_volume   1558.03828278
_cell_formula_units_Z   2
loop_
 _symmetry_equiv_pos_site_id
 _symmetry_equiv_pos_as_xyz
  1  'x, y, z'
loop_
 _atom_site_type_symbol
 _atom_site_label
 _atom_site_symmetry_multiplicity
 _atom_site_fract_x
 _atom_site_fract_y
 _atom_site_fract_z
 _atom_site_occupancy
  Y  Y0  1  0.28822200  0.79075400  0.36350800  1
  Y  Y1  1  0.62278700  0.78361200  0.37384800  1
  Y  Y2  1  0.95647500  0.78828200  0.36485600  1
  Y  Y3  1  0.12288000  0.62659300  0.15054600  1
  Y  Y4  1  0.45798400  0.63996000  0.14241500  1
  Y  Y5  1  0.78916600  0.63529500  0.14752400  1
  Y  Y6  1  0.28916600  0.36470500  0.85247600  1
  Y  Y7  1  0.62288000  0.37340700  0.84945400  1
  Y  Y8  1  0.95798400  0.36004000  0.85758500  1
  Y  Y9  1  0.12278700  0.21638800  0.62615200  1
  Y  Y10  1  0.45647500  0.21171800  0.63514400  1
  Y  Y11  1  0.78822200  0.20924600  0.63649200  1
  Y  Y12  1  0.45776700  0.15411000  0.21193800  1
  Y  Y13  1  0.79398700  0.15017500  0.21182300  1
  Y  Y14  1  0.29398700  0.84982500  0.78817700  1
  Y  Y15  1  0.95776700  0.84589000  0.78806200  1
  Cu  Cu0  1  0.33850900  0.99886900  0.99484200  1
  Cu  Cu1  1  0.66184900  0.99394700  0.98823700  1
  Cu  Cu2  1  0.99576500  0.99905500  0.00038600  1
  Cu  Cu3  1  0.16184900  0.00605300  0.01176300  1
  Cu  Cu4  1  0.49576500  0.00094500  0.99961400  1
  Cu  Cu5  1  0.83850900  0.00113100  0.00515800  1
  Sn  Sn0  1  0.10095700  0.67069300  0.66534100  1
  Sn  Sn1  1  0.44016700  0.66591500  0.66464000  1
  Sn  Sn2  1  0.76620500  0.67507900  0.67410600  1
  Sn  Sn3  1  0.26620500  0.32492100  0.32589400  1
  Sn  Sn4  1  0.60095700  0.32930700  0.33465900  1
  Sn  Sn5  1  0.94016700  0.33408500  0.33536000  1
  S  S0  1  0.06512100  0.32541900  0.32769500  1
  S  S1  1  0.39459800  0.33645200  0.33135200  1
  S  S2  1  0.72832000  0.33211000  0.33348100  1
  S  S3  1  0.22832000  0.66789000  0.66651900  1
  S  S4  1  0.56512100  0.67458100  0.67230500  1
  S  S5  1  0.89459800  0.66354800  0.66864800  1
  S  S6  1  0.04046100  0.51643600  0.56724200  1
  S  S7  1  0.37361300  0.51882600  0.56599400  1
  S  S8  1  0.70901600  0.51635300  0.57117900  1
  S  S9  1  0.21338700  0.07367300  0.50009400  1
  S  S10  1  0.54047300  0.08146600  0.47602000  1
  S  S11  1  0.87654900  0.08406000  0.48048700  1
  S  S12  1  0.21749700  0.46012400  0.06404800  1
  S  S13  1  0.54368700  0.43501600  0.08016700  1
  S  S14  1  0.87853000  0.43360600  0.08537700  1
  S  S15  1  0.04368700  0.56498400  0.91983300  1
  S  S16  1  0.37853000  0.56639400  0.91462300  1
  S  S17  1  0.71749700  0.53987600  0.93595200  1
  S  S18  1  0.04047300  0.91853400  0.52398000  1
  S  S19  1  0.37654900  0.91594000  0.51951300  1
  S  S20  1  0.71338700  0.92632700  0.49990600  1
  S  S21  1  0.20901600  0.48364700  0.42882100  1
  S  S22  1  0.54046100  0.48356400  0.43275800  1
  S  S23  1  0.87361300  0.48117400  0.43400600  1
  S  S24  1  0.15388500  0.26286800  0.87386200  1
  S  S25  1  0.48582700  0.26423800  0.88403400  1
  S  S26  1  0.82012200  0.26060000  0.88095300  1
  S  S27  1  0.31830500  0.15270400  0.73897900  1
  S  S28  1  0.65091800  0.15740100  0.73876200  1
  S  S29  1  0.98562300  0.14623000  0.73993300  1
  S  S30  1  0.32012200  0.73940000  0.11904700  1
  S  S31  1  0.65388500  0.73713200  0.12613800  1
  S  S32  1  0.98582700  0.73576200  0.11596600  1
  S  S33  1  0.15091800  0.84259900  0.26123800  1
  S  S34  1  0.48562300  0.85377000  0.26006700  1
  S  S35  1  0.81830500  0.84729600  0.26102100  1
  S  S36  1  0.15437400  0.89259600  0.85933900  1
  S  S37  1  0.47209400  0.89504100  0.84991900  1
  S  S38  1  0.82046200  0.88775200  0.85498900  1
  S  S39  1  0.32046200  0.11224800  0.14501100  1
  S  S40  1  0.65437400  0.10740400  0.14066100  1
  S  S41  1  0.97209400  0.10495900  0.15008100  1
loop_
_geom_bond_atom_site_label_1
_geom_bond_atom_site_label_2
_geom_bond_distance
_geom_bond_site_symmetry_2
Cu0 S30 2.214279 1_556
Cu0 S27 2.220143 1_565
Cu0 S39 2.234599 1_566
Cu1 S28 2.162151 1_565
Cu1 S31 2.173311 1_556
Cu1 S40 2.232915 1_566
Cu2 S41 2.192161 1_565
Cu2 S29 2.224595 1_564
Cu2 S32 2.229634 1_555
Cu3 S33 2.162151 1_545
Cu3 S24 2.173311 1_554
Cu3 S36 2.232915 1_544
Cu4 S37 2.192161 1_545
Cu4 S34 2.224595 1_546
Cu4 S25 2.229634 1_555
Cu5 S26 2.214279 1_554
Cu5 S35 2.220143 1_545
Cu5 S38 2.234599 1_544
S0 Sn5 2.383907 1_455
S0 Y9 2.781777 1_555
S0 Y3 2.782672 1_555
S1 Sn3 2.449783 1_555
S1 Y12 2.805933 1_555
S1 Y10 2.842017 1_555
S1 Y4 2.857351 1_555
S2 Sn4 2.426005 1_555
S2 Y11 2.821814 1_555
S2 Y5 2.830982 1_555
S2 Y13 2.839016 1_555
S3 Sn0 2.426005 1_555
S3 Y0 2.821814 1_555
S3 Y6 2.830982 1_555
S3 Y14 2.839016 1_555
S4 Sn1 2.383907 1_555
S4 Y1 2.781777 1_555
S4 Y7 2.782672 1_555
S5 Sn2 2.449783 1_555
S5 Y15 2.805933 1_555
S5 Y2 2.842017 1_555
S5 Y8 2.857351 1_555
S6 Sn0 2.414624 1_555
S6 Y2 2.877196 1_455
S6 Y8 2.923312 1_455
S6 Y9 3.090910 1_555
S7 Sn1 2.421133 1_555
S7 Y0 2.892847 1_555
S7 Y6 2.916158 1_555
S7 Y10 3.127868 1_555
S8 Sn2 2.453734 1_555
S8 Y1 2.864286 1_555
S8 Y7 2.874341 1_555
S8 Y11 3.102813 1_555
S9 Sn3 2.398873 1_555
S9 Y9 2.830706 1_555
S9 Y14 2.993042 1_545
S10 Sn4 2.394080 1_555
S10 Y12 2.791867 1_555
S10 Y10 2.901086 1_555
S11 Sn5 2.441625 1_555
S11 Y13 2.839238 1_555
S11 Y11 2.892174 1_555
S11 Y15 3.147166 1_545
S12 Sn3 2.406950 1_555
S12 Y3 2.801143 1_555
S12 Y6 2.961649 1_554
S13 Sn4 2.424647 1_555
S13 Y4 2.846713 1_555
S13 Y12 2.877946 1_555
S13 Y7 2.990261 1_554
S14 Sn5 2.432972 1_555
S14 Y5 2.862089 1_555
S14 Y13 2.882332 1_555
S14 Y8 3.035297 1_554
S15 Sn0 2.424647 1_555
S15 Y8 2.846713 1_455
S15 Y15 2.877946 1_455
S15 Y3 2.990261 1_556
S16 Sn1 2.432972 1_555
S16 Y6 2.862089 1_555
S16 Y14 2.882332 1_555
S16 Y4 3.035297 1_556
S17 Sn2 2.406950 1_555
S17 Y7 2.801143 1_555
S17 Y5 2.961649 1_556
S18 Sn0 2.394080 1_555
S18 Y15 2.791867 1_455
S18 Y2 2.901086 1_455
S19 Sn1 2.441625 1_555
S19 Y14 2.839238 1_555
S19 Y0 2.892174 1_555
S19 Y12 3.147166 1_565
S20 Sn2 2.398873 1_555
S20 Y1 2.830706 1_555
S20 Y13 2.993042 1_565
S21 Sn3 2.453734 1_555
S21 Y9 2.864286 1_555
S21 Y3 2.874341 1_555
S21 Y0 3.102813 1_555
S22 Sn4 2.414624 1_555
S22 Y10 2.877196 1_555
S22 Y4 2.923312 1_555
S22 Y1 3.090910 1_555
S23 Sn5 2.421133 1_555
S23 Y11 2.892847 1_555
S23 Y5 2.916158 1_555
S23 Y2 3.127868 1_555
S24 Y9 2.717528 1_555
S24 Y6 2.729320 1_555
S25 Y10 2.756760 1_555
S25 Y7 2.773469 1_555
S25 Y12 2.872682 1_556
S26 Y11 2.718809 1_555
S26 Y8 2.766783 1_555
S26 Y13 2.892389 1_556
S27 Y14 2.760898 1_545
S27 Y10 2.776173 1_555
S27 Y6 2.810911 1_555
S28 Y11 2.755274 1_555
S28 Y7 2.822212 1_555
S29 Y15 2.752788 1_545
S29 Y9 2.788435 1_655
S29 Y8 2.851724 1_555
S30 Y0 2.718809 1_555
S30 Y4 2.766783 1_555
S30 Y14 2.892389 1_554
S31 Y1 2.717528 1_555
S31 Y5 2.729320 1_555
S32 Y2 2.756760 1_555
S32 Y3 2.773469 1_655
S32 Y15 2.872682 1_554
S33 Y0 2.755274 1_555
S33 Y3 2.822212 1_555
S34 Y12 2.752788 1_565
S34 Y1 2.788435 1_555
S34 Y4 2.851724 1_555
S35 Y13 2.760898 1_565
S35 Y2 2.776173 1_555
S35 Y5 2.810911 1_555
S36 Y3 2.805392 1_556
S36 Y14 2.827836 1_555
S36 Y9 2.890772 1_565
S37 Y4 2.717338 1_556
S37 Y10 2.750459 1_565
S38 Y5 2.759409 1_556
S38 Y15 2.771360 1_555
S38 Y11 2.843970 1_565
S39 Y6 2.759409 1_554
S39 Y12 2.771360 1_555
S39 Y0 2.843970 1_545
S40 Y7 2.805392 1_554
S40 Y13 2.827836 1_555
S40 Y1 2.890772 1_545
S41 Y8 2.717338 1_554
S41 Y2 2.750459 1_545
