# generated using pymatgen
data_La4Fe(SbSe5)2
_symmetry_space_group_name_H-M   'P 1'
_cell_length_a   7.96031200
_cell_length_b   13.83732800
_cell_length_c   15.73608100
_cell_angle_alpha   90.00000000
_cell_angle_beta   90.00000000
_cell_angle_gamma   90.00000000
_symmetry_Int_Tables_number   1
_chemical_formula_structural   La4Fe(SbSe5)2
_chemical_formula_sum   'La16 Fe4 Sb8 Se40'
_cell_volume   1733.32063782
_cell_formula_units_Z   4
loop_
 _symmetry_equiv_pos_site_id
 _symmetry_equiv_pos_as_xyz
  1  'x, y, z'
loop_
 _atom_site_type_symbol
 _atom_site_label
 _atom_site_symmetry_multiplicity
 _atom_site_fract_x
 _atom_site_fract_y
 _atom_site_fract_z
 _atom_site_occupancy
  La  La0  1  0.12932100  0.75000000  0.06490400  1
  La  La1  1  0.87067900  0.25000000  0.93509600  1
  La  La2  1  0.37067900  0.25000000  0.06490400  1
  La  La3  1  0.62932100  0.75000000  0.93509600  1
  La  La4  1  0.37405100  0.75000000  0.68885200  1
  La  La5  1  0.62594900  0.25000000  0.31114800  1
  La  La6  1  0.12594900  0.25000000  0.68885200  1
  La  La7  1  0.87405100  0.75000000  0.31114800  1
  La  La8  1  0.25000000  0.50000000  0.37744300  1
  La  La9  1  0.75000000  0.00000000  0.62255700  1
  La  La10  1  0.75000000  0.50000000  0.62255700  1
  La  La11  1  0.25000000  0.00000000  0.37744300  1
  La  La12  1  0.25000000  0.50000000  0.87482600  1
  La  La13  1  0.75000000  0.00000000  0.12517400  1
  La  La14  1  0.75000000  0.50000000  0.12517400  1
  La  La15  1  0.25000000  0.00000000  0.87482600  1
  Fe  Fe0  1  0.25000000  0.50000000  0.12352600  1
  Fe  Fe1  1  0.75000000  0.00000000  0.87647400  1
  Fe  Fe2  1  0.75000000  0.50000000  0.87647400  1
  Fe  Fe3  1  0.25000000  0.00000000  0.12352600  1
  Sb  Sb0  1  0.44707000  0.75000000  0.21544400  1
  Sb  Sb1  1  0.55293000  0.25000000  0.78455600  1
  Sb  Sb2  1  0.05293000  0.25000000  0.21544400  1
  Sb  Sb3  1  0.94707000  0.75000000  0.78455600  1
  Sb  Sb4  1  0.05120800  0.75000000  0.53576100  1
  Sb  Sb5  1  0.94879200  0.25000000  0.46423900  1
  Sb  Sb6  1  0.44879200  0.25000000  0.53576100  1
  Sb  Sb7  1  0.55120800  0.75000000  0.46423900  1
  Se  Se0  1  0.41672200  0.60149000  0.54509200  1
  Se  Se1  1  0.58327800  0.10149000  0.45490800  1
  Se  Se2  1  0.08327800  0.39851000  0.54509200  1
  Se  Se3  1  0.91672200  0.89851000  0.45490800  1
  Se  Se4  1  0.58327800  0.39851000  0.45490800  1
  Se  Se5  1  0.41672200  0.89851000  0.54509200  1
  Se  Se6  1  0.91672200  0.60149000  0.45490800  1
  Se  Se7  1  0.08327800  0.10149000  0.54509200  1
  Se  Se8  1  0.25681200  0.75000000  0.37422800  1
  Se  Se9  1  0.74318800  0.25000000  0.62577200  1
  Se  Se10  1  0.24318800  0.25000000  0.37422800  1
  Se  Se11  1  0.75681200  0.75000000  0.62577200  1
  Se  Se12  1  0.41578300  0.60470900  0.03640700  1
  Se  Se13  1  0.58421700  0.10470900  0.96359300  1
  Se  Se14  1  0.08421700  0.39529100  0.03640700  1
  Se  Se15  1  0.91578300  0.89529100  0.96359300  1
  Se  Se16  1  0.58421700  0.39529100  0.96359300  1
  Se  Se17  1  0.41578300  0.89529100  0.03640700  1
  Se  Se18  1  0.91578300  0.60470900  0.96359300  1
  Se  Se19  1  0.08421700  0.10470900  0.03640700  1
  Se  Se20  1  0.08576300  0.60142000  0.70595000  1
  Se  Se21  1  0.91423700  0.10142000  0.29405000  1
  Se  Se22  1  0.41423700  0.39858000  0.70595000  1
  Se  Se23  1  0.58576300  0.89858000  0.29405000  1
  Se  Se24  1  0.91423700  0.39858000  0.29405000  1
  Se  Se25  1  0.08576300  0.89858000  0.70595000  1
  Se  Se26  1  0.58576300  0.60142000  0.29405000  1
  Se  Se27  1  0.41423700  0.10142000  0.70595000  1
  Se  Se28  1  0.07781300  0.60206900  0.20997200  1
  Se  Se29  1  0.92218700  0.10206900  0.79002800  1
  Se  Se30  1  0.42218700  0.39793100  0.20997200  1
  Se  Se31  1  0.57781300  0.89793100  0.79002800  1
  Se  Se32  1  0.92218700  0.39793100  0.79002800  1
  Se  Se33  1  0.07781300  0.89793100  0.20997200  1
  Se  Se34  1  0.57781300  0.60206900  0.79002800  1
  Se  Se35  1  0.42218700  0.10206900  0.20997200  1
  Se  Se36  1  0.74298300  0.75000000  0.12585200  1
  Se  Se37  1  0.25701700  0.25000000  0.87414800  1
  Se  Se38  1  0.75701700  0.25000000  0.12585200  1
  Se  Se39  1  0.24298300  0.75000000  0.87414800  1
loop_
_geom_bond_atom_site_label_1
_geom_bond_atom_site_label_2
_geom_bond_distance
_geom_bond_site_symmetry_2
La0 Se12 3.072922 1_555
La0 Se17 3.072922 1_555
La0 Se15 3.077804 1_454
La0 Se18 3.077804 1_454
La0 Se28 3.093442 1_555
La0 Se33 3.093442 1_555
La0 Se39 3.135148 1_554
La0 Se36 3.221451 1_455
La0 Sb0 3.465473 1_555
La1 Se16 3.072922 1_555
La1 Se13 3.072922 1_555
La1 Se19 3.077804 1_656
La1 Se14 3.077804 1_656
La1 Se32 3.093442 1_555
La1 Se29 3.093442 1_555
La1 Se38 3.135148 1_556
La1 Se37 3.221451 1_655
La1 Sb1 3.465473 1_555
La2 Se19 3.072922 1_555
La2 Se14 3.072922 1_555
La2 Se13 3.077804 1_554
La2 Se16 3.077804 1_554
La2 Se30 3.093442 1_555
La2 Se35 3.093442 1_555
La2 Se37 3.135148 1_554
La2 Se38 3.221451 1_555
La2 Sb2 3.465473 1_555
La3 Se18 3.072922 1_555
La3 Se15 3.072922 1_555
La3 Se12 3.077804 1_556
La3 Se17 3.077804 1_556
La3 Se34 3.093442 1_555
La3 Se31 3.093442 1_555
La3 Se36 3.135148 1_556
La3 Se39 3.221451 1_555
La3 Sb3 3.465473 1_555
La4 Se34 3.058729 1_555
La4 Se31 3.058729 1_555
La4 Se0 3.075055 1_555
La4 Se5 3.075055 1_555
La4 Se25 3.092849 1_555
La4 Se20 3.092849 1_555
La4 Se39 3.096877 1_555
La4 Se11 3.204512 1_555
La5 Se30 3.058729 1_555
La5 Se35 3.058729 1_555
La5 Se4 3.075055 1_555
La5 Se1 3.075055 1_555
La5 Se21 3.092849 1_555
La5 Se24 3.092849 1_555
La5 Se38 3.096877 1_555
La5 Se10 3.204512 1_555
La6 Se32 3.058729 1_455
La6 Se29 3.058729 1_455
La6 Se2 3.075055 1_555
La6 Se7 3.075055 1_555
La6 Se27 3.092849 1_555
La6 Se22 3.092849 1_555
La6 Se37 3.096877 1_555
La6 Se9 3.204512 1_455
La7 Se33 3.058729 1_655
La7 Se28 3.058729 1_655
La7 Se3 3.075055 1_555
La7 Se6 3.075055 1_555
La7 Se26 3.092849 1_555
La7 Se23 3.092849 1_555
La7 Se36 3.096877 1_555
La7 Se8 3.204512 1_655
La8 Se6 3.239837 1_455
La8 Se4 3.239837 1_555
La8 Se0 3.270065 1_555
La8 Se2 3.270065 1_555
La8 Se28 3.289146 1_555
La8 Se30 3.289146 1_555
La8 Se24 3.291702 1_455
La8 Se26 3.291702 1_555
La8 Se8 3.460127 1_555
La8 Se10 3.460127 1_555
La9 Se5 3.239837 1_545
La9 Se7 3.239837 1_655
La9 Se3 3.270065 1_545
La9 Se1 3.270065 1_555
La9 Se31 3.289146 1_545
La9 Se29 3.289146 1_555
La9 Se27 3.291702 1_555
La9 Se25 3.291702 1_645
La9 Se11 3.460127 1_545
La9 Se9 3.460127 1_555
La10 Se0 3.239837 1_555
La10 Se2 3.239837 1_655
La10 Se6 3.270065 1_555
La10 Se4 3.270065 1_555
La10 Se34 3.289146 1_555
La10 Se32 3.289146 1_555
La10 Se22 3.291702 1_555
La10 Se20 3.291702 1_655
La10 Se11 3.460127 1_555
La10 Se9 3.460127 1_555
La11 Se3 3.239837 1_445
La11 Se1 3.239837 1_555
La11 Se5 3.270065 1_545
La11 Se7 3.270065 1_555
La11 Se35 3.289146 1_555
La11 Se33 3.289146 1_545
La11 Se21 3.291702 1_455
La11 Se23 3.291702 1_545
La11 Se8 3.460127 1_545
La11 Se10 3.460127 1_555
La12 Se14 3.210286 1_556
La12 Se12 3.210286 1_556
La12 Se34 3.253432 1_555
La12 Se32 3.253432 1_455
La12 Se22 3.277307 1_555
La12 Se20 3.277307 1_555
La12 Se18 3.335952 1_455
La12 Se16 3.335952 1_555
La12 Se39 3.459799 1_555
La12 Se37 3.459799 1_555
La13 Se13 3.210286 1_554
La13 Se15 3.210286 1_544
La13 Se33 3.253432 1_645
La13 Se35 3.253432 1_555
La13 Se23 3.277307 1_545
La13 Se21 3.277307 1_555
La13 Se17 3.335952 1_545
La13 Se19 3.335952 1_655
La13 Se38 3.459799 1_555
La13 Se36 3.459799 1_545
La14 Se16 3.210286 1_554
La14 Se18 3.210286 1_554
La14 Se28 3.253432 1_655
La14 Se30 3.253432 1_555
La14 Se26 3.277307 1_555
La14 Se24 3.277307 1_555
La14 Se14 3.335952 1_655
La14 Se12 3.335952 1_555
La14 Se36 3.459799 1_555
La14 Se38 3.459799 1_555
La15 Se19 3.210286 1_556
La15 Se17 3.210286 1_546
La15 Se29 3.253432 1_455
La15 Se31 3.253432 1_545
La15 Se27 3.277307 1_555
La15 Se25 3.277307 1_545
La15 Se13 3.335952 1_555
La15 Se15 3.335952 1_445
La15 Se39 3.459799 1_545
La15 Se37 3.459799 1_555
Fe0 Se14 2.391706 1_555
Fe0 Se12 2.391706 1_555
Fe0 Se28 2.392479 1_555
Fe0 Se30 2.392479 1_555
Fe1 Se13 2.391706 1_555
Fe1 Se15 2.391706 1_545
Fe1 Se31 2.392479 1_545
Fe1 Se29 2.392479 1_555
Fe2 Se16 2.391706 1_555
Fe2 Se18 2.391706 1_555
Fe2 Se34 2.392479 1_555
Fe2 Se32 2.392479 1_555
Fe3 Se19 2.391706 1_555
Fe3 Se17 2.391706 1_545
Fe3 Se33 2.392479 1_545
Fe3 Se35 2.392479 1_555
Sb0 Se23 2.641189 1_555
Sb0 Se26 2.641189 1_555
Sb0 Se36 2.745228 1_555
Sb0 Se8 2.921804 1_555
Sb1 Se27 2.641189 1_555
Sb1 Se22 2.641189 1_555
Sb1 Se37 2.745228 1_555
Sb1 Se9 2.921804 1_555
Sb2 Se24 2.641189 1_455
Sb2 Se21 2.641189 1_455
Sb2 Se38 2.745228 1_455
Sb2 Se10 2.921804 1_555
Sb3 Se25 2.641189 1_655
Sb3 Se20 2.641189 1_655
Sb3 Se39 2.745228 1_655
Sb3 Se11 2.921804 1_555
Sb4 Se3 2.643444 1_455
Sb4 Se6 2.643444 1_455
Sb4 Se11 2.738278 1_455
Sb4 Se8 3.023232 1_555
Sb5 Se2 2.643444 1_655
Sb5 Se7 2.643444 1_655
Sb5 Se10 2.738278 1_655
Sb5 Se9 3.023232 1_555
Sb6 Se4 2.643444 1_555
Sb6 Se1 2.643444 1_555
Sb6 Se9 2.738278 1_555
Sb6 Se10 3.023232 1_555
Sb7 Se0 2.643444 1_555
Sb7 Se5 2.643444 1_555
Sb7 Se8 2.738278 1_555
Sb7 Se11 3.023232 1_555
