# generated using pymatgen
data_CaW2O7
_symmetry_space_group_name_H-M   'P 1'
_cell_length_a   7.11770500
_cell_length_b   6.84438500
_cell_length_c   8.72556088
_cell_angle_alpha   73.59126958
_cell_angle_beta   90.00000000
_cell_angle_gamma   90.00000000
_symmetry_Int_Tables_number   1
_chemical_formula_structural   CaW2O7
_chemical_formula_sum   'Ca2 W4 O14'
_cell_volume   407.76416541
_cell_formula_units_Z   2
loop_
 _symmetry_equiv_pos_site_id
 _symmetry_equiv_pos_as_xyz
  1  'x, y, z'
loop_
 _atom_site_type_symbol
 _atom_site_label
 _atom_site_symmetry_multiplicity
 _atom_site_fract_x
 _atom_site_fract_y
 _atom_site_fract_z
 _atom_site_occupancy
  Ca  Ca0  1  0.12848900  0.12114600  0.35991600  1
  Ca  Ca1  1  0.62848900  0.87885400  0.64008400  1
  W  W0  1  0.15126800  0.89272600  0.79195300  1
  W  W1  1  0.65126800  0.10727400  0.20804700  1
  W  W2  1  0.67927600  0.32906900  0.79563300  1
  W  W3  1  0.17927600  0.67093100  0.20436700  1
  O  O0  1  0.35279300  0.61905400  0.35233600  1
  O  O1  1  0.85279300  0.38094600  0.64766400  1
  O  O2  1  0.78227600  0.05308200  0.39767500  1
  O  O3  1  0.28227600  0.94691800  0.60232500  1
  O  O4  1  0.02869500  0.45072600  0.24971400  1
  O  O5  1  0.52869500  0.54927400  0.75028600  1
  O  O6  1  0.42412200  0.19866000  0.24583700  1
  O  O7  1  0.92412200  0.80134000  0.75416300  1
  O  O8  1  0.05720800  0.89813500  0.21688700  1
  O  O9  1  0.55720800  0.10186500  0.78311300  1
  O  O10  1  0.26199200  0.71862100  0.98384100  1
  O  O11  1  0.76199200  0.28137900  0.01615900  1
  O  O12  1  0.10882300  0.12277600  0.83321000  1
  O  O13  1  0.60882300  0.87722400  0.16679000  1
loop_
_geom_bond_atom_site_label_1
_geom_bond_atom_site_label_2
_geom_bond_distance
_geom_bond_site_symmetry_2
Ca0 O8 2.284948 1_545
Ca0 O4 2.300474 1_555
Ca0 O6 2.324158 1_555
Ca0 O3 2.380974 1_545
Ca0 O2 2.512239 1_455
Ca1 O9 2.284948 1_565
Ca1 O5 2.300474 1_555
Ca1 O7 2.324158 1_555
Ca1 O2 2.380974 1_565
Ca1 O3 2.512239 1_555
O0 W3 1.749106 1_555
O1 W2 1.749106 1_555
O2 W1 1.843391 1_555
O3 W0 1.843391 1_555
O4 W3 1.799980 1_555
O5 W2 1.799980 1_555
O6 W1 1.797327 1_555
O7 W0 1.797327 1_655
O8 W3 1.811367 1_555
O9 W2 1.811367 1_555
O10 W0 1.928018 1_555
O10 W3 1.949593 1_556
O11 W1 1.928018 1_555
O11 W2 1.949593 1_554
O12 W0 1.737905 1_545
O13 W1 1.737905 1_565
