# generated using pymatgen
data_SrCrO2
_symmetry_space_group_name_H-M   'P 1'
_cell_length_a   5.35285619
_cell_length_b   6.72403553
_cell_length_c   6.72402587
_cell_angle_alpha   74.47488095
_cell_angle_beta   82.76853795
_cell_angle_gamma   82.76860045
_symmetry_Int_Tables_number   1
_chemical_formula_structural   SrCrO2
_chemical_formula_sum   'Sr4 Cr4 O8'
_cell_volume   230.25292051
_cell_formula_units_Z   4
loop_
 _symmetry_equiv_pos_site_id
 _symmetry_equiv_pos_as_xyz
  1  'x, y, z'
loop_
 _atom_site_type_symbol
 _atom_site_label
 _atom_site_symmetry_multiplicity
 _atom_site_fract_x
 _atom_site_fract_y
 _atom_site_fract_z
 _atom_site_occupancy
  Sr  Sr0  1  0.50228200  0.25156600  0.75156700  1
  Sr  Sr1  1  0.99770700  0.49843600  0.99843300  1
  Sr  Sr2  1  0.50228100  0.75156800  0.25156500  1
  Sr  Sr3  1  0.99771000  0.99843200  0.49843300  1
  Cr  Cr0  1  0.01008700  0.49410400  0.49409800  1
  Cr  Cr1  1  0.48990700  0.75590700  0.75590500  1
  Cr  Cr2  1  0.01000500  0.99410800  0.99411400  1
  Cr  Cr3  1  0.49002000  0.25588300  0.25588900  1
  O  O0  1  0.00162000  0.24893600  0.74893800  1
  O  O1  1  0.49841500  0.50104200  0.00104200  1
  O  O2  1  0.00161900  0.74893700  0.24893700  1
  O  O3  1  0.49841700  0.00104300  0.50104400  1
  O  O4  1  0.24991200  0.62504900  0.62504700  1
  O  O5  1  0.75004100  0.87496200  0.87496100  1
  O  O6  1  0.24990600  0.12505300  0.12505200  1
  O  O7  1  0.75007100  0.37497500  0.37497500  1
loop_
_geom_bond_atom_site_label_1
_geom_bond_atom_site_label_2
_geom_bond_distance
_geom_bond_site_symmetry_2
Cr0 O7 2.031065 1_455
Cr0 O2 2.035378 1_555
Cr0 O0 2.035435 1_555
Cr0 O4 2.045163 1_555
Cr1 O5 2.031005 1_555
Cr1 O3 2.035400 1_565
Cr1 O1 2.035421 1_556
Cr1 O4 2.045085 1_555
Cr2 O5 2.031032 1_455
Cr2 O2 2.035367 1_556
Cr2 O0 2.035408 1_565
Cr2 O6 2.045416 1_566
Cr3 O7 2.030920 1_555
Cr3 O3 2.035377 1_555
Cr3 O1 2.035421 1_555
Cr3 O6 2.045349 1_555
O0 Sr1 2.668005 1_455
O0 Sr0 2.668578 1_455
O0 Sr0 2.684567 1_555
O0 Sr3 2.685407 1_445
O1 Sr0 2.667807 1_554
O1 Sr1 2.668367 1_554
O1 Sr1 2.684773 1_454
O1 Sr2 2.685582 1_555
O2 Sr3 2.667987 1_455
O2 Sr2 2.668578 1_455
O2 Sr2 2.684567 1_555
O2 Sr1 2.685387 1_454
O3 Sr2 2.667825 1_545
O3 Sr3 2.668366 1_545
O3 Sr3 2.684774 1_445
O3 Sr0 2.685565 1_555
O4 Sr3 2.672540 1_455
O4 Sr1 2.672557 1_455
O4 Sr2 2.673360 1_555
O4 Sr0 2.673373 1_555
O5 Sr1 2.676486 1_555
O5 Sr3 2.676497 1_555
O5 Sr2 2.677048 1_556
O5 Sr0 2.677050 1_565
O6 Sr3 2.672517 1_445
O6 Sr1 2.672537 1_454
O6 Sr0 2.673386 1_554
O6 Sr2 2.673389 1_545
O7 Sr1 2.676492 1_554
O7 Sr3 2.676506 1_545
O7 Sr0 2.677060 1_555
O7 Sr2 2.677073 1_555
