# generated using pymatgen
data_Mg14CdBi
_symmetry_space_group_name_H-M   'P 1'
_cell_length_a   6.38697355
_cell_length_b   6.53450731
_cell_length_c   10.44257692
_cell_angle_alpha   90.00000000
_cell_angle_beta   90.00000000
_cell_angle_gamma   120.76710739
_symmetry_Int_Tables_number   1
_chemical_formula_structural   Mg14CdBi
_chemical_formula_sum   'Mg14 Cd1 Bi1'
_cell_volume   374.48727528
_cell_formula_units_Z   1
loop_
 _symmetry_equiv_pos_site_id
 _symmetry_equiv_pos_as_xyz
  1  'x, y, z'
loop_
 _atom_site_type_symbol
 _atom_site_label
 _atom_site_symmetry_multiplicity
 _atom_site_fract_x
 _atom_site_fract_y
 _atom_site_fract_z
 _atom_site_occupancy
  Mg  Mg0  1  0.16805510  0.33402705  0.62500000  1
  Mg  Mg1  1  0.16738016  0.83368958  0.62500000  1
  Mg  Mg2  1  0.66815962  0.33324786  0.12500000  1
  Mg  Mg3  1  0.66638151  0.33380598  0.62500000  1
  Mg  Mg4  1  0.66815962  0.83491076  0.12500000  1
  Mg  Mg5  1  0.66638151  0.83257452  0.62500000  1
  Mg  Mg6  1  0.33529522  0.17224507  0.37870427  1
  Mg  Mg7  1  0.33529522  0.17224507  0.87129573  1
  Mg  Mg8  1  0.33529522  0.66305114  0.37870427  1
  Mg  Mg9  1  0.33529522  0.66305114  0.87129573  1
  Mg  Mg10  1  0.83387530  0.16693815  0.37584854  1
  Mg  Mg11  1  0.83387530  0.16693815  0.87415146  1
  Mg  Mg12  1  0.82832387  0.66416244  0.38095990  1
  Mg  Mg13  1  0.82832387  0.66416244  0.86904010  1
  Cd  Cd0  1  0.16315860  0.33157880  0.12500000  1
  Bi  Bi0  1  0.16674466  0.83337183  0.12500000  1
loop_
_geom_bond_atom_site_label_1
_geom_bond_atom_site_label_2
_geom_bond_distance
_geom_bond_site_symmetry_2
Mg0 Mg6 3.166837 1_555
Mg0 Mg7 3.166837 1_555
Mg0 Mg8 3.166843 1_555
Mg0 Mg9 3.166843 1_555
Mg0 Mg10 3.183205 1_455
Mg0 Mg11 3.183205 1_455
Mg0 Mg5 3.183537 1_555
Mg0 Mg3 3.183537 1_555
Mg0 Mg5 3.203437 1_445
Mg0 Mg3 3.203437 1_455
Mg0 Mg1 3.267256 1_545
Mg0 Mg1 3.267256 1_555
Mg1 Mg13 3.155436 1_455
Mg1 Mg12 3.155436 1_455
Mg1 Mg3 3.190842 1_565
Mg1 Mg5 3.190842 1_555
Mg1 Mg3 3.196144 1_455
Mg1 Mg5 3.196144 1_455
Mg1 Mg8 3.198743 1_555
Mg1 Mg9 3.198743 1_555
Mg1 Mg6 3.198750 1_565
Mg1 Mg7 3.198750 1_565
Mg2 Mg7 3.218272 1_554
Mg2 Mg6 3.218272 1_555
Mg2 Mg4 3.256387 1_545
Mg2 Mg4 3.278120 1_555
Mg3 Mg6 3.149158 1_555
Mg3 Mg7 3.149158 1_555
Mg3 Mg5 3.259207 1_555
Mg3 Mg5 3.275301 1_545
Mg4 Mg9 3.218272 1_554
Mg4 Mg8 3.218272 1_555
Mg5 Mg8 3.149158 1_555
Mg5 Mg9 3.149158 1_555
Mg6 Mg8 3.207176 1_555
Mg6 Mg8 3.327331 1_545
Mg7 Mg9 3.207176 1_555
Mg7 Mg9 3.327331 1_545
Mg10 Mg8 3.185095 1_655
Mg10 Mg6 3.185095 1_655
Mg10 Mg8 3.202435 1_545
Mg10 Mg6 3.202435 1_555
Mg10 Mg3 3.208754 1_555
Mg10 Mg5 3.208761 1_545
Mg10 Mg2 3.215572 1_555
Mg10 Mg4 3.215579 1_545
Mg10 Mg12 3.267832 1_545
Mg10 Mg12 3.267832 1_555
Mg11 Mg9 3.185095 1_655
Mg11 Mg7 3.185095 1_655
Mg11 Mg9 3.202435 1_545
Mg11 Mg7 3.202435 1_555
Mg11 Mg3 3.208754 1_555
Mg11 Mg5 3.208761 1_545
Mg11 Mg2 3.215572 1_556
Mg11 Mg4 3.215579 1_546
Mg11 Mg13 3.267832 1_545
Mg11 Mg13 3.267832 1_555
Mg12 Mg6 3.145340 1_555
Mg12 Mg8 3.145341 1_555
Mg12 Mg5 3.152750 1_555
Mg12 Mg3 3.152757 1_555
Mg12 Mg6 3.241819 1_665
Mg12 Mg8 3.241819 1_655
Mg12 Mg4 3.256287 1_555
Mg12 Mg2 3.256294 1_555
Mg13 Mg7 3.145340 1_555
Mg13 Mg9 3.145341 1_555
Mg13 Mg5 3.152750 1_555
Mg13 Mg3 3.152757 1_555
Mg13 Mg7 3.241819 1_665
Mg13 Mg9 3.241819 1_655
Mg13 Mg4 3.256287 1_556
Mg13 Mg2 3.256294 1_556
Cd0 Mg4 3.167138 1_445
Cd0 Mg2 3.167138 1_455
Cd0 Mg10 3.182370 1_455
Cd0 Mg11 3.182370 1_454
Cd0 Mg4 3.219862 1_555
Cd0 Mg2 3.219863 1_555
Cd0 Mg7 3.237722 1_554
Cd0 Mg6 3.237722 1_555
Cd0 Mg9 3.237729 1_554
Cd0 Mg8 3.237729 1_555
Bi0 Mg2 3.189605 1_455
Bi0 Mg4 3.189605 1_455
Bi0 Mg2 3.197391 1_565
Bi0 Mg4 3.197392 1_555
Bi0 Mg12 3.254800 1_455
Bi0 Mg13 3.254800 1_454
Bi0 Mg9 3.262260 1_554
Bi0 Mg8 3.262260 1_555
Bi0 Mg7 3.262266 1_564
Bi0 Mg6 3.262266 1_565
Bi0 Cd0 3.267313 1_555
Bi0 Cd0 3.267313 1_565
