# generated using pymatgen
data_EuBr3
_symmetry_space_group_name_H-M   'P 1'
_cell_length_a   7.01450262
_cell_length_b   7.01450262
_cell_length_c   9.12489466
_cell_angle_alpha   90.00000000
_cell_angle_beta   90.00000000
_cell_angle_gamma   145.86091608
_symmetry_Int_Tables_number   1
_chemical_formula_structural   EuBr3
_chemical_formula_sum   'Eu2 Br6'
_cell_volume   251.96612876
_cell_formula_units_Z   2
loop_
 _symmetry_equiv_pos_site_id
 _symmetry_equiv_pos_as_xyz
  1  'x, y, z'
loop_
 _atom_site_type_symbol
 _atom_site_label
 _atom_site_symmetry_multiplicity
 _atom_site_fract_x
 _atom_site_fract_y
 _atom_site_fract_z
 _atom_site_occupancy
  Eu  Eu0  1  0.25448997  0.74551003  0.25000000  1
  Eu  Eu1  1  0.74551003  0.25448997  0.75000000  1
  Br  Br0  1  0.64555164  0.35444836  0.06588103  1
  Br  Br1  1  0.35444836  0.64555164  0.93411897  1
  Br  Br2  1  0.35444836  0.64555164  0.56588103  1
  Br  Br3  1  0.64555164  0.35444836  0.43411897  1
  Br  Br4  1  0.90929804  0.09070196  0.25000000  1
  Br  Br5  1  0.09070196  0.90929804  0.75000000  1
loop_
_geom_bond_atom_site_label_1
_geom_bond_atom_site_label_2
_geom_bond_distance
_geom_bond_site_symmetry_2
Br0 Eu0 3.032569 1_545
Br0 Eu0 3.032569 1_655
Br0 Eu1 3.178864 1_554
Br1 Eu1 3.032569 1_455
Br1 Eu1 3.032569 1_565
Br1 Eu0 3.178864 1_556
Br2 Eu1 3.032569 1_455
Br2 Eu1 3.032569 1_565
Br2 Eu0 3.178864 1_555
Br3 Eu0 3.032569 1_545
Br3 Eu0 3.032569 1_655
Br3 Eu1 3.178864 1_555
Br4 Eu0 2.923994 1_655
Br4 Eu0 2.923994 1_545
Br5 Eu1 2.923994 1_455
Br5 Eu1 2.923994 1_565
