# generated using pymatgen
data_Cs2HgCl4
_symmetry_space_group_name_H-M   'P 1'
_cell_length_a   7.56496627
_cell_length_b   9.79999473
_cell_length_c   27.44593837
_cell_angle_alpha   88.79052226
_cell_angle_beta   90.00000000
_cell_angle_gamma   90.00000000
_symmetry_Int_Tables_number   1
_chemical_formula_structural   Cs2HgCl4
_chemical_formula_sum   'Cs16 Hg8 Cl32'
_cell_volume   2034.29603650
_cell_formula_units_Z   8
loop_
 _symmetry_equiv_pos_site_id
 _symmetry_equiv_pos_as_xyz
  1  'x, y, z'
loop_
 _atom_site_type_symbol
 _atom_site_label
 _atom_site_symmetry_multiplicity
 _atom_site_fract_x
 _atom_site_fract_y
 _atom_site_fract_z
 _atom_site_occupancy
  Cs  Cs0  1  0.24977833  0.61516454  0.78677917  1
  Cs  Cs1  1  0.74977833  0.38483546  0.71322083  1
  Cs  Cs2  1  0.75022167  0.38483546  0.21322083  1
  Cs  Cs3  1  0.25022167  0.61516454  0.28677917  1
  Cs  Cs4  1  0.24510239  0.99320904  0.65426204  1
  Cs  Cs5  1  0.74510239  0.00679096  0.84573796  1
  Cs  Cs6  1  0.75489761  0.00679096  0.34573796  1
  Cs  Cs7  1  0.25489761  0.99320904  0.15426204  1
  Cs  Cs8  1  0.77610883  0.87920848  0.06126217  1
  Cs  Cs9  1  0.27610883  0.12079152  0.43873783  1
  Cs  Cs10  1  0.22389117  0.12079152  0.93873783  1
  Cs  Cs11  1  0.72389117  0.87920848  0.56126217  1
  Cs  Cs12  1  0.71063932  0.51333902  0.91186247  1
  Cs  Cs13  1  0.21063932  0.48666098  0.58813753  1
  Cs  Cs14  1  0.28936068  0.48666098  0.08813753  1
  Cs  Cs15  1  0.78936068  0.51333902  0.41186247  1
  Hg  Hg0  1  0.23512031  0.19870014  0.78533963  1
  Hg  Hg1  1  0.73512031  0.80129986  0.71466037  1
  Hg  Hg2  1  0.76487969  0.80129986  0.21466037  1
  Hg  Hg3  1  0.26487969  0.19870014  0.28533963  1
  Hg  Hg4  1  0.78012369  0.28448324  0.03956663  1
  Hg  Hg5  1  0.28012369  0.71551676  0.46043337  1
  Hg  Hg6  1  0.21987631  0.71551676  0.96043337  1
  Hg  Hg7  1  0.71987631  0.28448324  0.53956663  1
  Cl  Cl0  1  0.13801502  0.96101651  0.77884012  1
  Cl  Cl1  1  0.63801502  0.03898349  0.72115988  1
  Cl  Cl2  1  0.86198498  0.03898349  0.22115988  1
  Cl  Cl3  1  0.36198498  0.96101651  0.27884012  1
  Cl  Cl4  1  0.25122168  0.33012476  0.70441387  1
  Cl  Cl5  1  0.75122168  0.66987524  0.79558613  1
  Cl  Cl6  1  0.74877832  0.66987524  0.29558613  1
  Cl  Cl7  1  0.24877832  0.33012476  0.20441387  1
  Cl  Cl8  1  0.98356975  0.31774298  0.83230360  1
  Cl  Cl9  1  0.48356975  0.68225702  0.66769640  1
  Cl  Cl10  1  0.01643025  0.68225702  0.16769640  1
  Cl  Cl11  1  0.51643025  0.31774298  0.33230360  1
  Cl  Cl12  1  0.01099237  0.29889984  0.33012416  1
  Cl  Cl13  1  0.51099237  0.70110016  0.16987584  1
  Cl  Cl14  1  0.98900763  0.70110016  0.66987584  1
  Cl  Cl15  1  0.48900763  0.29889984  0.83012416  1
  Cl  Cl16  1  0.75777932  0.53624451  0.04013845  1
  Cl  Cl17  1  0.25777932  0.46375549  0.45986155  1
  Cl  Cl18  1  0.24222068  0.46375549  0.95986155  1
  Cl  Cl19  1  0.74222068  0.53624451  0.54013845  1
  Cl  Cl20  1  0.69309656  0.17216050  0.96110419  1
  Cl  Cl21  1  0.19309656  0.82783950  0.53889581  1
  Cl  Cl22  1  0.30690344  0.82783950  0.03889581  1
  Cl  Cl23  1  0.80690344  0.17216050  0.46110419  1
  Cl  Cl24  1  0.58768874  0.19731559  0.10931024  1
  Cl  Cl25  1  0.08768874  0.80268441  0.39068976  1
  Cl  Cl26  1  0.41231126  0.80268441  0.89068976  1
  Cl  Cl27  1  0.91231126  0.19731559  0.60931024  1
  Cl  Cl28  1  0.42368451  0.17616394  0.55771403  1
  Cl  Cl29  1  0.92368451  0.82383606  0.94228597  1
  Cl  Cl30  1  0.57631549  0.82383606  0.44228597  1
  Cl  Cl31  1  0.07631549  0.17616394  0.05771403  1
loop_
_geom_bond_atom_site_label_1
_geom_bond_atom_site_label_2
_geom_bond_distance
_geom_bond_site_symmetry_2
Cl0 Hg0 2.452474 1_565
Cl0 Cs0 3.495543 1_555
Cl0 Cs4 3.521498 1_555
Cl0 Cs5 3.527344 1_465
Cl1 Hg1 2.452474 1_545
Cl1 Cs1 3.495543 1_555
Cl1 Cs5 3.521498 1_555
Cl1 Cs4 3.527344 1_545
Cl2 Hg2 2.452474 1_545
Cl2 Cs2 3.495543 1_555
Cl2 Cs6 3.521498 1_555
Cl2 Cs7 3.527344 1_645
Cl3 Hg3 2.452474 1_565
Cl3 Cs3 3.495543 1_555
Cl3 Cs7 3.521498 1_555
Cl3 Cs6 3.527344 1_565
Cl4 Hg0 2.546787 1_555
Cl4 Cs13 3.524965 1_555
Cl4 Cs4 3.604214 1_545
Cl4 Cs0 3.630427 1_555
Cl4 Cs1 3.817862 1_555
Cl4 Cs1 3.839436 1_455
Cl5 Hg1 2.546787 1_555
Cl5 Cs12 3.524965 1_555
Cl5 Cs5 3.604214 1_565
Cl5 Cs1 3.630427 1_555
Cl5 Cs0 3.817862 1_655
Cl5 Cs0 3.839436 1_555
Cl6 Hg2 2.546787 1_555
Cl6 Cs15 3.524965 1_555
Cl6 Cs6 3.604214 1_565
Cl6 Cs2 3.630427 1_555
Cl6 Cs3 3.817862 1_555
Cl6 Cs3 3.839436 1_655
Cl7 Hg3 2.546787 1_555
Cl7 Cs14 3.524965 1_555
Cl7 Cs7 3.604214 1_545
Cl7 Cs3 3.630427 1_555
Cl7 Cs2 3.817862 1_455
Cl7 Cs2 3.839436 1_555
Cl8 Hg0 2.589831 1_655
Cl8 Cs5 3.553750 1_555
Cl8 Cs12 3.589146 1_555
Cl8 Cs0 3.736133 1_655
Cl8 Cs1 3.761869 1_555
Cl8 Cs10 3.914831 1_655
Cl9 Hg1 2.589831 1_555
Cl9 Cs4 3.553750 1_555
Cl9 Cs13 3.589146 1_555
Cl9 Cs1 3.736133 1_555
Cl9 Cs0 3.761869 1_555
Cl9 Cs11 3.914831 1_555
Cl10 Hg2 2.589831 1_455
Cl10 Cs7 3.553750 1_555
Cl10 Cs14 3.589146 1_555
Cl10 Cs2 3.736133 1_455
Cl10 Cs3 3.761869 1_555
Cl10 Cs8 3.914831 1_455
Cl11 Hg3 2.589831 1_555
Cl11 Cs6 3.553750 1_555
Cl11 Cs15 3.589146 1_555
Cl11 Cs3 3.736133 1_555
Cl11 Cs2 3.761869 1_555
Cl11 Cs9 3.914831 1_555
Cl12 Hg3 2.492971 1_555
Cl12 Cs6 3.475633 1_455
Cl12 Cs15 3.529762 1_455
Cl12 Cs3 3.760461 1_555
Cl12 Cs2 3.844661 1_455
Cl12 Cs9 3.966835 1_555
Cl13 Hg2 2.492971 1_555
Cl13 Cs7 3.475633 1_555
Cl13 Cs14 3.529762 1_555
Cl13 Cs2 3.760461 1_555
Cl13 Cs3 3.844661 1_555
Cl13 Cs8 3.966835 1_555
Cl14 Hg1 2.492971 1_555
Cl14 Cs4 3.475633 1_655
Cl14 Cs13 3.529762 1_655
Cl14 Cs1 3.760461 1_555
Cl14 Cs0 3.844661 1_655
Cl14 Cs11 3.966835 1_555
Cl15 Hg0 2.492971 1_555
Cl15 Cs5 3.475633 1_555
Cl15 Cs12 3.529762 1_555
Cl15 Cs0 3.760461 1_555
Cl15 Cs1 3.844661 1_555
Cl15 Cs10 3.966835 1_555
Cl16 Hg4 2.473423 1_555
Cl16 Cs8 3.425527 1_555
Cl16 Cs12 3.550483 1_554
Cl16 Cs14 3.808081 1_555
Cl17 Hg5 2.473423 1_555
Cl17 Cs9 3.425527 1_555
Cl17 Cs13 3.550483 1_555
Cl17 Cs15 3.808081 1_455
Cl18 Hg6 2.473423 1_555
Cl18 Cs10 3.425527 1_555
Cl18 Cs14 3.550483 1_556
Cl18 Cs12 3.808081 1_555
Cl19 Hg7 2.473423 1_555
Cl19 Cs11 3.425527 1_555
Cl19 Cs15 3.550483 1_555
Cl19 Cs13 3.808081 1_655
Cl20 Hg4 2.526388 1_556
Cl20 Cs12 3.582272 1_555
Cl20 Cs5 3.608808 1_555
Cl20 Cs10 3.639013 1_555
Cl20 Cs8 3.982467 1_546
Cl20 Cs10 4.094764 1_655
Cl21 Hg5 2.526388 1_555
Cl21 Cs13 3.582272 1_555
Cl21 Cs4 3.608808 1_555
Cl21 Cs11 3.639013 1_455
Cl21 Cs9 3.982467 1_565
Cl21 Cs11 4.094764 1_555
Cl22 Hg6 2.526388 1_554
Cl22 Cs14 3.582272 1_555
Cl22 Cs7 3.608808 1_555
Cl22 Cs8 3.639013 1_555
Cl22 Cs10 3.982467 1_564
Cl22 Cs8 4.094764 1_455
Cl23 Hg7 2.526388 1_555
Cl23 Cs15 3.582272 1_555
Cl23 Cs6 3.608808 1_555
Cl23 Cs9 3.639013 1_655
Cl23 Cs11 3.982467 1_545
Cl23 Cs9 4.094764 1_555
Cl24 Hg4 2.538509 1_555
Cl24 Cs7 3.428847 1_545
Cl24 Cs2 3.639182 1_555
Cl24 Cs14 3.660873 1_555
Cl24 Cs8 3.696324 1_545
Cl25 Hg5 2.538509 1_555
Cl25 Cs6 3.428847 1_465
Cl25 Cs3 3.639182 1_555
Cl25 Cs15 3.660873 1_455
Cl25 Cs9 3.696324 1_565
Cl26 Hg6 2.538509 1_555
Cl26 Cs5 3.428847 1_565
Cl26 Cs0 3.639182 1_555
Cl26 Cs12 3.660873 1_555
Cl26 Cs10 3.696324 1_565
Cl27 Hg7 2.538509 1_555
Cl27 Cs4 3.428847 1_645
Cl27 Cs1 3.639182 1_555
Cl27 Cs13 3.660873 1_655
Cl27 Cs11 3.696324 1_545
Cl28 Hg7 2.524530 1_555
Cl28 Cs4 3.443973 1_545
Cl28 Cs9 3.504077 1_555
Cl28 Cs13 3.558238 1_555
Cl28 Cs11 3.691103 1_545
Cl29 Hg6 2.524530 1_655
Cl29 Cs5 3.443973 1_565
Cl29 Cs8 3.504077 1_556
Cl29 Cs12 3.558238 1_555
Cl29 Cs10 3.691103 1_665
Cl30 Hg5 2.524530 1_555
Cl30 Cs6 3.443973 1_565
Cl30 Cs11 3.504077 1_555
Cl30 Cs15 3.558238 1_555
Cl30 Cs9 3.691103 1_565
Cl31 Hg4 2.524530 1_455
Cl31 Cs7 3.443973 1_545
Cl31 Cs10 3.504077 1_554
Cl31 Cs14 3.558238 1_555
Cl31 Cs8 3.691103 1_445
