# generated using pymatgen
data_Na3FeS2(O4F)2
_symmetry_space_group_name_H-M   'P 1'
_cell_length_a   6.73968800
_cell_length_b   8.94933400
_cell_length_c   14.24180400
_cell_angle_alpha   90.00000000
_cell_angle_beta   90.00000000
_cell_angle_gamma   90.00000000
_symmetry_Int_Tables_number   1
_chemical_formula_structural   Na3FeS2(O4F)2
_chemical_formula_sum   'Na12 Fe4 S8 O32 F8'
_cell_volume   859.00464766
_cell_formula_units_Z   4
loop_
 _symmetry_equiv_pos_site_id
 _symmetry_equiv_pos_as_xyz
  1  'x, y, z'
loop_
 _atom_site_type_symbol
 _atom_site_label
 _atom_site_symmetry_multiplicity
 _atom_site_fract_x
 _atom_site_fract_y
 _atom_site_fract_z
 _atom_site_occupancy
  Na  Na0  1  0.52101600  0.66599900  0.90405500  1
  Na  Na1  1  0.02101600  0.83400100  0.59594500  1
  Na  Na2  1  0.47898400  0.16599900  0.59594500  1
  Na  Na3  1  0.97898400  0.33400100  0.90405500  1
  Na  Na4  1  0.47898400  0.33400100  0.09594500  1
  Na  Na5  1  0.97898400  0.16599900  0.40405500  1
  Na  Na6  1  0.52101600  0.83400100  0.40405500  1
  Na  Na7  1  0.02101600  0.66599900  0.09594500  1
  Na  Na8  1  0.75000000  0.00000000  0.04834900  1
  Na  Na9  1  0.25000000  0.50000000  0.45165100  1
  Na  Na10  1  0.25000000  0.00000000  0.95165100  1
  Na  Na11  1  0.75000000  0.50000000  0.54834900  1
  Fe  Fe0  1  0.75000000  0.00000000  0.80484600  1
  Fe  Fe1  1  0.25000000  0.50000000  0.69515400  1
  Fe  Fe2  1  0.25000000  0.00000000  0.19515400  1
  Fe  Fe3  1  0.75000000  0.50000000  0.30484600  1
  S  S0  1  0.00379100  0.69323400  0.85637700  1
  S  S1  1  0.50379100  0.80676600  0.64362300  1
  S  S2  1  0.99620900  0.19323400  0.64362300  1
  S  S3  1  0.49620900  0.30676600  0.85637700  1
  S  S4  1  0.99620900  0.30676600  0.14362300  1
  S  S5  1  0.49620900  0.19323400  0.35637700  1
  S  S6  1  0.00379100  0.80676600  0.35637700  1
  S  S7  1  0.50379100  0.69323400  0.14362300  1
  O  O0  1  0.44783600  0.44293300  0.79728600  1
  O  O1  1  0.94783600  0.05706700  0.70271400  1
  O  O2  1  0.55216400  0.94293300  0.70271400  1
  O  O3  1  0.05216400  0.55706700  0.79728600  1
  O  O4  1  0.55216400  0.55706700  0.20271400  1
  O  O5  1  0.05216400  0.94293300  0.29728600  1
  O  O6  1  0.44783600  0.05706700  0.29728600  1
  O  O7  1  0.94783600  0.44293300  0.20271400  1
  O  O8  1  0.18642300  0.76656900  0.88819300  1
  O  O9  1  0.68642300  0.73343100  0.61180700  1
  O  O10  1  0.81357700  0.26656900  0.61180700  1
  O  O11  1  0.31357700  0.23343100  0.88819300  1
  O  O12  1  0.81357700  0.23343100  0.11180700  1
  O  O13  1  0.31357700  0.26656900  0.38819300  1
  O  O14  1  0.18642300  0.73343100  0.38819300  1
  O  O15  1  0.68642300  0.76656900  0.11180700  1
  O  O16  1  0.88082000  0.63966700  0.93523000  1
  O  O17  1  0.38082000  0.86033300  0.56477000  1
  O  O18  1  0.11918000  0.13966700  0.56477000  1
  O  O19  1  0.61918000  0.36033300  0.93523000  1
  O  O20  1  0.11918000  0.36033300  0.06477000  1
  O  O21  1  0.61918000  0.13966700  0.43523000  1
  O  O22  1  0.88082000  0.86033300  0.43523000  1
  O  O23  1  0.38082000  0.63966700  0.06477000  1
  O  O24  1  0.38457800  0.70515400  0.70634100  1
  O  O25  1  0.88457800  0.79484600  0.79365900  1
  O  O26  1  0.61542200  0.20515400  0.79365900  1
  O  O27  1  0.11542200  0.29484600  0.70634100  1
  O  O28  1  0.61542200  0.29484600  0.29365900  1
  O  O29  1  0.11542200  0.20515400  0.20634100  1
  O  O30  1  0.38457800  0.79484600  0.20634100  1
  O  O31  1  0.88457800  0.70515400  0.29365900  1
  F  F0  1  0.57673000  0.92791500  0.90446300  1
  F  F1  1  0.07673000  0.57208500  0.59553700  1
  F  F2  1  0.42327000  0.42791500  0.59553700  1
  F  F3  1  0.92327000  0.07208500  0.90446300  1
  F  F4  1  0.42327000  0.07208500  0.09553700  1
  F  F5  1  0.92327000  0.42791500  0.40446300  1
  F  F6  1  0.57673000  0.57208500  0.40446300  1
  F  F7  1  0.07673000  0.92791500  0.09553700  1
loop_
_geom_bond_atom_site_label_1
_geom_bond_atom_site_label_2
_geom_bond_distance
_geom_bond_site_symmetry_2
Na0 O8 2.438515 1_555
Na0 O16 2.476514 1_555
Na0 O23 2.487420 1_556
Na0 O0 2.557462 1_555
Na0 O19 2.849181 1_555
Na1 O9 2.438515 1_455
Na1 O17 2.476514 1_555
Na1 O22 2.487420 1_455
Na1 O1 2.557462 1_465
Na1 O18 2.849181 1_565
Na2 O10 2.438515 1_555
Na2 O18 2.476514 1_555
Na2 O21 2.487420 1_555
Na2 O2 2.557462 1_545
Na2 O17 2.849181 1_545
Na3 O11 2.438515 1_655
Na3 O19 2.476514 1_555
Na3 O20 2.487420 1_656
Na3 O3 2.557462 1_655
Na3 O16 2.849181 1_555
Na4 O12 2.438515 1_555
Na4 O20 2.476514 1_555
Na4 O19 2.487420 1_554
Na4 O4 2.557462 1_555
Na4 O23 2.849181 1_555
Na5 O13 2.438515 1_655
Na5 O21 2.476514 1_555
Na5 O18 2.487420 1_655
Na5 O5 2.557462 1_645
Na5 O22 2.849181 1_545
Na6 O14 2.438515 1_555
Na6 O22 2.476514 1_555
Na6 O17 2.487420 1_555
Na6 O6 2.557462 1_565
Na6 O21 2.849181 1_565
Na7 O15 2.438515 1_455
Na7 O23 2.476514 1_555
Na7 O16 2.487420 1_454
Na7 O7 2.557462 1_455
Na7 O20 2.849181 1_555
Na8 O12 2.316143 1_555
Na8 O15 2.316143 1_545
Na9 O14 2.316143 1_555
Na9 O13 2.316143 1_555
Na10 O11 2.316143 1_555
Na10 O8 2.316143 1_545
Na11 O9 2.316143 1_555
Na11 O10 2.316143 1_555
Fe0 O1 2.038223 1_555
Fe0 O2 2.038223 1_545
Fe0 O26 2.054002 1_555
Fe0 O25 2.054002 1_545
Fe1 O0 2.038223 1_555
Fe1 O3 2.038223 1_555
Fe1 O24 2.054002 1_555
Fe1 O27 2.054002 1_555
Fe2 O6 2.038223 1_555
Fe2 O5 2.038223 1_545
Fe2 O29 2.054002 1_555
Fe2 O30 2.054002 1_545
Fe3 O4 2.038223 1_555
Fe3 O7 2.038223 1_555
Fe3 O31 2.054002 1_555
Fe3 O28 2.054002 1_555
O0 S3 1.516414 1_555
O1 S2 1.516414 1_555
O2 S1 1.516414 1_555
O3 S0 1.516414 1_555
O4 S7 1.516414 1_555
O5 S6 1.516414 1_555
O6 S5 1.516414 1_555
O7 S4 1.516414 1_555
O8 S0 1.466668 1_555
O9 S1 1.466668 1_555
O10 S2 1.466668 1_555
O11 S3 1.466668 1_555
O12 S4 1.466668 1_555
O13 S5 1.466668 1_555
O14 S6 1.466668 1_555
O15 S7 1.466668 1_555
O16 S0 1.475754 1_655
O17 S1 1.475754 1_555
O18 S2 1.475754 1_455
O19 S3 1.475754 1_555
O20 S4 1.475754 1_455
O21 S5 1.475754 1_555
O22 S6 1.475754 1_655
O23 S7 1.475754 1_555
O24 S1 1.506757 1_555
O25 S0 1.506757 1_655
O26 S3 1.506757 1_555
O27 S2 1.506757 1_455
O28 S5 1.506757 1_555
O29 S4 1.506757 1_455
O30 S7 1.506757 1_555
O31 S6 1.506757 1_655
F0 Fe0 1.947480 1_565
F0 Na0 2.373867 1_555
F0 Na10 2.390998 1_565
F0 Na8 2.445220 1_566
F1 Fe1 1.947480 1_555
F1 Na1 2.373867 1_555
F1 Na11 2.390998 1_455
F1 Na9 2.445220 1_555
F2 Fe1 1.947480 1_555
F2 Na2 2.373867 1_555
F2 Na11 2.390998 1_555
F2 Na9 2.445220 1_555
F3 Fe0 1.947480 1_555
F3 Na3 2.373867 1_555
F3 Na10 2.390998 1_655
F3 Na8 2.445220 1_556
F4 Fe2 1.947480 1_555
F4 Na4 2.373867 1_555
F4 Na8 2.390998 1_555
F4 Na10 2.445220 1_554
F5 Fe3 1.947480 1_555
F5 Na5 2.373867 1_555
F5 Na9 2.390998 1_655
F5 Na11 2.445220 1_555
F6 Fe3 1.947480 1_555
F6 Na6 2.373867 1_555
F6 Na9 2.390998 1_555
F6 Na11 2.445220 1_555
F7 Fe2 1.947480 1_565
F7 Na7 2.373867 1_555
F7 Na8 2.390998 1_465
F7 Na10 2.445220 1_564
