# generated using pymatgen
data_BiPd3
_symmetry_space_group_name_H-M   'P 1'
_cell_length_a   4.61470101
_cell_length_b   4.61470101
_cell_length_c   4.61470101
_cell_angle_alpha   60.00000000
_cell_angle_beta   60.00000000
_cell_angle_gamma   60.00000000
_symmetry_Int_Tables_number   1
_chemical_formula_structural   BiPd3
_chemical_formula_sum   'Bi1 Pd3'
_cell_volume   69.48894325
_cell_formula_units_Z   1
loop_
 _symmetry_equiv_pos_site_id
 _symmetry_equiv_pos_as_xyz
  1  'x, y, z'
loop_
 _atom_site_type_symbol
 _atom_site_label
 _atom_site_symmetry_multiplicity
 _atom_site_fract_x
 _atom_site_fract_y
 _atom_site_fract_z
 _atom_site_occupancy
  Bi  Bi0  1  0.50000000  0.50000000  0.50000000  1
  Pd  Pd0  1  0.75000000  0.75000000  0.75000000  1
  Pd  Pd1  1  0.25000000  0.25000000  0.25000000  1
  Pd  Pd2  1  0.00000000  0.00000000  0.00000000  1
loop_
_geom_bond_atom_site_label_1
_geom_bond_atom_site_label_2
_geom_bond_distance
_geom_bond_site_symmetry_2
Bi0 Pd1 2.825916 1_565
Bi0 Pd0 2.825916 1_545
Bi0 Pd1 2.825916 1_655
Bi0 Pd0 2.825916 1_555
Bi0 Pd1 2.825916 1_555
Bi0 Pd0 2.825916 1_554
Bi0 Pd0 2.825916 1_455
Bi0 Pd1 2.825916 1_556
Pd0 Pd2 2.825916 1_656
Pd0 Pd2 2.825916 1_566
Pd0 Pd2 2.825916 1_665
Pd0 Pd2 2.825916 1_666
Pd1 Pd2 2.825916 1_556
Pd1 Pd2 2.825916 1_555
Pd1 Pd2 2.825916 1_655
Pd1 Pd2 2.825916 1_565
