# generated using pymatgen
data_NaV6O15
_symmetry_space_group_name_H-M   'P 1'
_cell_length_a   3.66387500
_cell_length_b   8.07701349
_cell_length_c   10.27058621
_cell_angle_alpha   109.14908953
_cell_angle_beta   90.00000000
_cell_angle_gamma   76.89073315
_symmetry_Int_Tables_number   1
_chemical_formula_structural   NaV6O15
_chemical_formula_sum   'Na1 V6 O15'
_cell_volume   278.72329733
_cell_formula_units_Z   1
loop_
 _symmetry_equiv_pos_site_id
 _symmetry_equiv_pos_as_xyz
  1  'x, y, z'
loop_
 _atom_site_type_symbol
 _atom_site_label
 _atom_site_symmetry_multiplicity
 _atom_site_fract_x
 _atom_site_fract_y
 _atom_site_fract_z
 _atom_site_occupancy
  Na  Na0  1  0.99555700  0.00888700  0.39367100  1
  V  V0  1  0.66376600  0.67246900  0.10000300  1
  V  V1  1  0.33562600  0.32874800  0.89766300  1
  V  V2  1  0.88273300  0.23453300  0.11493800  1
  V  V3  1  0.11493200  0.77013700  0.88574200  1
  V  V4  1  0.71402800  0.57194400  0.40739800  1
  V  V5  1  0.28475800  0.43048400  0.59223300  1
  O  O0  1  0.36694200  0.26611600  0.07215800  1
  O  O1  1  0.63290100  0.73419800  0.92625000  1
  O  O2  1  0.56451200  0.87097600  0.22357700  1
  O  O3  1  0.43447200  0.13105500  0.78229600  1
  O  O4  1  0.24468600  0.51062700  0.42663700  1
  O  O5  1  0.75592300  0.48815300  0.57637800  1
  O  O6  1  0.73894800  0.52210400  0.22162200  1
  O  O7  1  0.26218300  0.47563400  0.77944900  1
  O  O8  1  0.89268000  0.21464000  0.26942200  1
  O  O9  1  0.10911500  0.78177100  0.73036200  1
  O  O10  1  0.60443700  0.79112600  0.46551900  1
  O  O11  1  0.39494900  0.21010100  0.52804600  1
  O  O12  1  0.18686200  0.62627600  0.05348700  1
  O  O13  1  0.81355700  0.37288600  0.94738000  1
  O  O14  1  0.99943300  0.00113400  0.99976800  1
loop_
_geom_bond_atom_site_label_1
_geom_bond_atom_site_label_2
_geom_bond_distance
_geom_bond_site_symmetry_2
Na0 O8 2.374765 1_555
Na0 O11 2.508905 1_655
Na0 O11 2.508910 1_555
Na0 O2 2.511610 1_645
Na0 O2 2.511612 1_545
Na0 O10 2.772445 1_645
Na0 O10 2.772447 1_545
O0 V2 1.919453 1_555
O0 V2 1.919456 1_455
O0 V1 2.012312 1_554
O1 V3 1.920478 1_555
O1 V3 1.920482 1_655
O1 V0 2.001031 1_556
O2 V0 1.647500 1_555
O3 V1 1.606617 1_555
O4 V4 1.921431 1_455
O4 V4 1.921435 1_555
O4 V5 2.003085 1_555
O5 V5 1.907372 1_555
O5 V5 1.907376 1_655
O5 V4 2.053557 1_555
O6 V4 1.813940 1_555
O6 V0 1.988626 1_555
O6 V2 2.156010 1_555
O7 V5 1.833943 1_555
O7 V1 1.937589 1_555
O7 V3 2.203475 1_555
O8 V2 1.645956 1_555
O9 V3 1.628949 1_555
O10 V4 1.623544 1_555
O11 V5 1.634096 1_555
O12 V0 1.897191 1_455
O12 V0 1.897194 1_555
O12 V1 2.348638 1_554
O12 V3 2.358439 1_554
O13 V1 1.902067 1_655
O13 V1 1.902067 1_555
O13 V2 2.325454 1_556
O13 V0 2.350031 1_556
O14 V3 1.800005 1_645
O14 V2 1.818590 1_556
