# generated using pymatgen
data_Hf4Si7Ni4
_symmetry_space_group_name_H-M   'P 1'
_cell_length_a   9.44515807
_cell_length_b   9.44515807
_cell_length_c   9.44515807
_cell_angle_alpha   94.19236817
_cell_angle_beta   94.19236817
_cell_angle_gamma   148.62623735
_symmetry_Int_Tables_number   1
_chemical_formula_structural   Hf4Si7Ni4
_chemical_formula_sum   'Hf8 Si14 Ni8'
_cell_volume   422.34042422
_cell_formula_units_Z   2
loop_
 _symmetry_equiv_pos_site_id
 _symmetry_equiv_pos_as_xyz
  1  'x, y, z'
loop_
 _atom_site_type_symbol
 _atom_site_label
 _atom_site_symmetry_multiplicity
 _atom_site_fract_x
 _atom_site_fract_y
 _atom_site_fract_z
 _atom_site_occupancy
  Hf  Hf0  1  0.13638100  0.13638100  0.27276300  1
  Hf  Hf1  1  0.86361900  0.86361900  0.72723700  1
  Hf  Hf2  1  0.86361900  0.13638100  0.00000000  1
  Hf  Hf3  1  0.13638100  0.86361900  0.00000000  1
  Hf  Hf4  1  0.50000000  0.30494000  0.80494000  1
  Hf  Hf5  1  0.50000000  0.69506000  0.19506000  1
  Hf  Hf6  1  0.69506000  0.50000000  0.19506000  1
  Hf  Hf7  1  0.30494000  0.50000000  0.80494000  1
  Si  Si0  1  0.50000000  0.09137100  0.59137100  1
  Si  Si1  1  0.50000000  0.90862900  0.40862900  1
  Si  Si2  1  0.90862900  0.50000000  0.40862900  1
  Si  Si3  1  0.09137100  0.50000000  0.59137100  1
  Si  Si4  1  0.74962500  0.74962500  0.00000000  1
  Si  Si5  1  0.25037500  0.25037500  0.00000000  1
  Si  Si6  1  0.29127800  0.29127800  0.58255600  1
  Si  Si7  1  0.70872200  0.70872200  0.41744400  1
  Si  Si8  1  0.70872200  0.29127800  0.00000000  1
  Si  Si9  1  0.29127800  0.70872200  0.00000000  1
  Si  Si10  1  0.00000000  0.29606300  0.29606300  1
  Si  Si11  1  0.00000000  0.70393700  0.70393700  1
  Si  Si12  1  0.70393700  0.00000000  0.70393700  1
  Si  Si13  1  0.29606300  0.00000000  0.29606300  1
  Ni  Ni0  1  0.39707700  0.89707700  0.79415300  1
  Ni  Ni1  1  0.10292300  0.60292300  0.20584700  1
  Ni  Ni2  1  0.10292300  0.89707700  0.50000000  1
  Ni  Ni3  1  0.39707700  0.60292300  0.50000000  1
  Ni  Ni4  1  0.60292300  0.39707700  0.50000000  1
  Ni  Ni5  1  0.89707700  0.10292300  0.50000000  1
  Ni  Ni6  1  0.89707700  0.39707700  0.79415300  1
  Ni  Ni7  1  0.60292300  0.10292300  0.20584700  1
loop_
_geom_bond_atom_site_label_1
_geom_bond_atom_site_label_2
_geom_bond_distance
_geom_bond_site_symmetry_2
Hf0 Si10 2.700532 1_555
Hf0 Si13 2.700532 1_555
Hf0 Si4 2.790589 1_445
Hf0 Si5 2.790591 1_555
Hf0 Si6 2.817059 1_555
Hf0 Si7 2.872749 1_445
Hf0 Si7 2.872754 1_555
Hf0 Ni2 3.066593 1_545
Hf0 Ni5 3.066593 1_455
Hf0 Ni3 3.066595 1_555
Hf0 Ni4 3.066595 1_555
Hf1 Si11 2.700532 1_655
Hf1 Si12 2.700532 1_565
Hf1 Si5 2.790589 1_666
Hf1 Si4 2.790591 1_556
Hf1 Si7 2.817059 1_555
Hf1 Si6 2.872749 1_665
Hf1 Si6 2.872754 1_555
Hf1 Ni5 3.066593 1_565
Hf1 Ni2 3.066593 1_655
Hf1 Ni3 3.066595 1_555
Hf1 Ni4 3.066595 1_555
Hf2 Si10 2.700533 1_655
Hf2 Si12 2.700533 1_554
Hf2 Si4 2.790582 1_545
Hf2 Si5 2.790582 1_655
Hf2 Si8 2.817069 1_555
Hf2 Si9 2.872756 1_545
Hf2 Si9 2.872756 1_655
Hf2 Ni1 3.066605 1_655
Hf2 Ni0 3.066605 1_544
Hf2 Ni6 3.066607 1_554
Hf2 Ni7 3.066607 1_555
Hf3 Si13 2.700533 1_565
Hf3 Si11 2.700533 1_554
Hf3 Si4 2.790582 1_455
Hf3 Si5 2.790582 1_565
Hf3 Si9 2.817069 1_555
Hf3 Si8 2.872756 1_455
Hf3 Si8 2.872756 1_565
Hf3 Ni7 3.066605 1_565
Hf3 Ni6 3.066605 1_454
Hf3 Ni0 3.066607 1_554
Hf3 Ni1 3.066607 1_555
Hf4 Si8 2.689899 1_556
Hf4 Si6 2.689899 1_555
Hf4 Si0 2.746488 1_555
Hf4 Si5 2.813885 1_556
Hf4 Si4 2.813885 1_556
Hf4 Si11 2.865123 1_545
Hf4 Si11 2.865123 1_655
Hf4 Ni0 3.054374 1_545
Hf4 Ni4 3.054375 1_555
Hf4 Ni2 3.054375 1_545
Hf4 Ni6 3.054377 1_555
Hf5 Si9 2.689899 1_555
Hf5 Si7 2.689899 1_555
Hf5 Si1 2.746488 1_555
Hf5 Si4 2.813885 1_555
Hf5 Si5 2.813885 1_555
Hf5 Si10 2.865123 1_555
Hf5 Si10 2.865123 1_665
Hf5 Ni7 3.054374 1_565
Hf5 Ni5 3.054375 1_565
Hf5 Ni3 3.054375 1_555
Hf5 Ni1 3.054377 1_555
Hf6 Si8 2.689899 1_555
Hf6 Si7 2.689899 1_555
Hf6 Si2 2.746488 1_555
Hf6 Si4 2.813885 1_555
Hf6 Si5 2.813885 1_555
Hf6 Si13 2.865123 1_665
Hf6 Si13 2.865123 1_555
Hf6 Ni1 3.054374 1_655
Hf6 Ni2 3.054375 1_655
Hf6 Ni4 3.054375 1_555
Hf6 Ni7 3.054377 1_555
Hf7 Si9 2.689899 1_556
Hf7 Si6 2.689899 1_555
Hf7 Si3 2.746488 1_555
Hf7 Si4 2.813885 1_556
Hf7 Si5 2.813885 1_556
Hf7 Si12 2.865123 1_565
Hf7 Si12 2.865123 1_455
Hf7 Ni6 3.054374 1_455
Hf7 Ni3 3.054375 1_555
Hf7 Ni5 3.054375 1_455
Hf7 Ni0 3.054377 1_555
Si0 Si1 2.350054 1_545
Si2 Si3 2.350054 1_655
Si4 Si5 2.549951 1_555
Si4 Si5 2.557613 1_665
Ni0 Si8 2.387007 1_566
Ni0 Si9 2.387009 1_556
Ni0 Si0 2.391864 1_565
Ni0 Si3 2.391867 1_555
Ni0 Si12 2.396354 1_565
Ni0 Si11 2.396357 1_555
Ni0 Ni6 2.553782 1_455
Ni0 Ni6 2.553782 1_565
Ni1 Si8 2.387007 1_455
Ni1 Si9 2.387009 1_555
Ni1 Si2 2.391864 1_455
Ni1 Si1 2.391867 1_555
Ni1 Si10 2.396354 1_555
Ni1 Si13 2.396357 1_565
Ni1 Ni7 2.553782 1_455
Ni1 Ni7 2.553782 1_565
Ni2 Si6 2.387001 1_565
Ni2 Si7 2.387001 1_455
Ni2 Si2 2.391872 1_455
Ni2 Si0 2.391872 1_565
Ni2 Si11 2.396359 1_555
Ni2 Si13 2.396359 1_565
Ni2 Ni4 2.553782 1_565
Ni2 Ni4 2.553782 1_455
Ni3 Si6 2.387001 1_555
Ni3 Si7 2.387001 1_555
Ni3 Si1 2.391872 1_555
Ni3 Si3 2.391872 1_555
Ni3 Si12 2.396359 1_565
Ni3 Si10 2.396359 1_555
Ni3 Ni5 2.553782 1_455
Ni3 Ni5 2.553782 1_565
Ni4 Si6 2.387001 1_555
Ni4 Si7 2.387001 1_555
Ni4 Si2 2.391872 1_555
Ni4 Si0 2.391872 1_555
Ni4 Si11 2.396359 1_655
Ni4 Si13 2.396359 1_555
Ni5 Si6 2.387001 1_655
Ni5 Si7 2.387001 1_545
Ni5 Si1 2.391872 1_545
Ni5 Si3 2.391872 1_655
Ni5 Si12 2.396359 1_555
Ni5 Si10 2.396359 1_655
Ni6 Si9 2.387007 1_656
Ni6 Si8 2.387009 1_556
Ni6 Si3 2.391864 1_655
Ni6 Si0 2.391867 1_555
Ni6 Si11 2.396354 1_655
Ni6 Si12 2.396357 1_555
Ni7 Si9 2.387007 1_545
Ni7 Si8 2.387009 1_555
Ni7 Si1 2.391864 1_545
Ni7 Si2 2.391867 1_555
Ni7 Si13 2.396354 1_555
Ni7 Si10 2.396357 1_655
