# generated using pymatgen
data_MgTi7H16
_symmetry_space_group_name_H-M   'P 1'
_cell_length_a   6.28442142
_cell_length_b   6.28442142
_cell_length_c   6.28442142
_cell_angle_alpha   60.00000000
_cell_angle_beta   60.00000000
_cell_angle_gamma   60.00000000
_symmetry_Int_Tables_number   1
_chemical_formula_structural   MgTi7H16
_chemical_formula_sum   'Mg1 Ti7 H16'
_cell_volume   175.50152810
_cell_formula_units_Z   1
loop_
 _symmetry_equiv_pos_site_id
 _symmetry_equiv_pos_as_xyz
  1  'x, y, z'
loop_
 _atom_site_type_symbol
 _atom_site_label
 _atom_site_symmetry_multiplicity
 _atom_site_fract_x
 _atom_site_fract_y
 _atom_site_fract_z
 _atom_site_occupancy
  Mg  Mg0  1  0.00000000  0.00000000  0.00000000  1
  Ti  Ti0  1  0.50000000  0.50000000  0.50000000  1
  Ti  Ti1  1  0.00000000  0.00000000  0.50000000  1
  Ti  Ti2  1  0.50000000  0.00000000  0.50000000  1
  Ti  Ti3  1  0.00000000  0.50000000  0.50000000  1
  Ti  Ti4  1  0.50000000  0.50000000  0.00000000  1
  Ti  Ti5  1  0.00000000  0.50000000  0.00000000  1
  Ti  Ti6  1  0.50000000  0.00000000  0.00000000  1
  H  H0  1  0.87196300  0.87196300  0.38411200  1
  H  H1  1  0.87196300  0.38411200  0.87196300  1
  H  H2  1  0.38411200  0.87196300  0.87196300  1
  H  H3  1  0.87196300  0.87196300  0.87196300  1
  H  H4  1  0.12803700  0.12803700  0.61588800  1
  H  H5  1  0.12803700  0.61588800  0.12803700  1
  H  H6  1  0.61588800  0.12803700  0.12803700  1
  H  H7  1  0.12803700  0.12803700  0.12803700  1
  H  H8  1  0.62450600  0.62450600  0.12648300  1
  H  H9  1  0.62450600  0.12648300  0.62450600  1
  H  H10  1  0.12648300  0.62450600  0.62450600  1
  H  H11  1  0.62450600  0.62450600  0.62450600  1
  H  H12  1  0.37549400  0.37549400  0.87351700  1
  H  H13  1  0.37549400  0.87351700  0.37549400  1
  H  H14  1  0.87351700  0.37549400  0.37549400  1
  H  H15  1  0.37549400  0.37549400  0.37549400  1
loop_
_geom_bond_atom_site_label_1
_geom_bond_atom_site_label_2
_geom_bond_distance
_geom_bond_site_symmetry_2
H0 Ti1 1.909124 1_665
H0 Ti3 1.909129 1_655
H0 Ti2 1.909129 1_565
H0 Mg0 1.970959 1_665
H1 Ti5 1.909124 1_656
H1 Ti3 1.909129 1_655
H1 Ti4 1.909129 1_556
H1 Mg0 1.970959 1_656
H2 Ti6 1.909124 1_566
H2 Ti2 1.909129 1_565
H2 Ti4 1.909129 1_556
H2 Mg0 1.970959 1_566
H3 Ti5 1.909129 1_656
H3 Ti6 1.909129 1_566
H3 Ti1 1.909129 1_665
H3 Mg0 1.970954 1_666
H4 Ti1 1.909124 1_555
H4 Ti3 1.909129 1_555
H4 Ti2 1.909129 1_555
H4 Mg0 1.970959 1_556
H5 Ti5 1.909124 1_555
H5 Ti3 1.909129 1_555
H5 Ti4 1.909129 1_555
H5 Mg0 1.970959 1_565
H6 Ti6 1.909124 1_555
H6 Ti4 1.909129 1_555
H6 Ti2 1.909129 1_555
H6 Mg0 1.970959 1_655
H7 Ti1 1.909129 1_555
H7 Ti5 1.909129 1_555
H7 Ti6 1.909129 1_555
H7 Mg0 1.970954 1_555
H8 Ti0 1.916594 1_555
H8 Ti5 1.926751 1_655
H8 Ti6 1.926751 1_565
H8 Ti4 1.926757 1_555
H9 Ti0 1.916594 1_555
H9 Ti6 1.926751 1_556
H9 Ti1 1.926751 1_655
H9 Ti2 1.926757 1_555
H10 Ti0 1.916594 1_555
H10 Ti5 1.926751 1_556
H10 Ti1 1.926751 1_565
H10 Ti3 1.926757 1_555
H11 Ti0 1.916599 1_555
H11 Ti3 1.926751 1_655
H11 Ti2 1.926751 1_565
H11 Ti4 1.926751 1_556
H12 Ti0 1.916594 1_555
H12 Ti5 1.926751 1_556
H12 Ti6 1.926751 1_556
H12 Ti4 1.926757 1_556
H13 Ti0 1.916594 1_555
H13 Ti1 1.926751 1_565
H13 Ti6 1.926751 1_565
H13 Ti2 1.926757 1_565
H14 Ti0 1.916594 1_555
H14 Ti1 1.926751 1_655
H14 Ti5 1.926751 1_655
H14 Ti3 1.926757 1_655
H15 Ti0 1.916599 1_555
H15 Ti3 1.926751 1_555
H15 Ti4 1.926751 1_555
H15 Ti2 1.926751 1_555
