# generated using pymatgen
data_Ti3Cr2Sn(PO4)6
_symmetry_space_group_name_H-M   'P 1'
_cell_length_a   8.79580739
_cell_length_b   8.79580739
_cell_length_c   8.79580722
_cell_angle_alpha   59.10186168
_cell_angle_beta   59.10186168
_cell_angle_gamma   59.10185992
_symmetry_Int_Tables_number   1
_chemical_formula_structural   Ti3Cr2Sn(PO4)6
_chemical_formula_sum   'Ti3 Cr2 Sn1 P6 O24'
_cell_volume   471.33291038
_cell_formula_units_Z   1
loop_
 _symmetry_equiv_pos_site_id
 _symmetry_equiv_pos_as_xyz
  1  'x, y, z'
loop_
 _atom_site_type_symbol
 _atom_site_label
 _atom_site_symmetry_multiplicity
 _atom_site_fract_x
 _atom_site_fract_y
 _atom_site_fract_z
 _atom_site_occupancy
  Ti  Ti0  1  0.85563900  0.85563900  0.85563900  1
  Ti  Ti1  1  0.64477600  0.64477600  0.64477600  1
  Ti  Ti2  1  0.35612000  0.35612100  0.35612100  1
  Cr  Cr0  1  0.99763000  0.99763000  0.99763000  1
  Cr  Cr1  1  0.50077600  0.50077600  0.50077600  1
  Sn  Sn0  1  0.14432000  0.14432000  0.14432000  1
  P  P0  1  0.46143300  0.04108500  0.74730600  1
  P  P1  1  0.04108500  0.74730600  0.46143300  1
  P  P2  1  0.74730600  0.46143300  0.04108500  1
  P  P3  1  0.25148600  0.54487900  0.95676100  1
  P  P4  1  0.95676100  0.25148600  0.54487900  1
  P  P5  1  0.54487900  0.95676100  0.25148600  1
  O  O0  1  0.69518300  0.49985600  0.87960600  1
  O  O1  1  0.49985600  0.87960600  0.69518300  1
  O  O2  1  0.08381200  0.73322000  0.94011900  1
  O  O3  1  0.87960600  0.69518300  0.49985600  1
  O  O4  1  0.19940500  0.38717800  0.98502800  1
  O  O5  1  0.41816400  0.56336900  0.76785200  1
  O  O6  1  0.94011900  0.08381200  0.73322000  1
  O  O7  1  0.76785200  0.41816400  0.56336900  1
  O  O8  1  0.62003100  0.00286300  0.80380900  1
  O  O9  1  0.56336900  0.76785200  0.41816400  1
  O  O10  1  0.26845000  0.05603100  0.91367200  1
  O  O11  1  0.00286300  0.80380900  0.62003100  1
  O  O12  1  0.98502800  0.19940500  0.38717800  1
  O  O13  1  0.73322000  0.94011900  0.08381200  1
  O  O14  1  0.44170100  0.23136900  0.58208400  1
  O  O15  1  0.38717800  0.98502800  0.19940500  1
  O  O16  1  0.23136900  0.58208400  0.44170100  1
  O  O17  1  0.05603100  0.91367200  0.26845000  1
  O  O18  1  0.58208400  0.44170100  0.23136900  1
  O  O19  1  0.80380900  0.62003100  0.00286300  1
  O  O20  1  0.12209300  0.30242800  0.50046400  1
  O  O21  1  0.91367200  0.26845000  0.05603100  1
  O  O22  1  0.50046400  0.12209300  0.30242800  1
  O  O23  1  0.30242800  0.50046400  0.12209300  1
loop_
_geom_bond_atom_site_label_1
_geom_bond_atom_site_label_2
_geom_bond_distance
_geom_bond_site_symmetry_2
Cr0 O6 2.289806 1_565
Cr0 O2 2.289806 1_655
Cr0 O13 2.289806 1_556
Cr0 O17 2.354566 1_656
Cr0 O21 2.354566 1_566
Cr0 O10 2.354566 1_665
Cr1 O5 2.348175 1_555
Cr1 O7 2.348175 1_555
Cr1 O9 2.348175 1_555
Cr1 O18 2.353537 1_555
Cr1 O16 2.353537 1_555
Cr1 O14 2.353537 1_555
O0 P2 1.535714 1_556
O0 Ti1 1.934899 1_555
O1 P0 1.535714 1_565
O1 Ti1 1.934899 1_555
O2 P3 1.550590 1_555
O2 Ti0 2.056679 1_455
O3 P1 1.535714 1_655
O3 Ti1 1.934899 1_555
O4 P3 1.541805 1_555
O4 Sn0 2.013166 1_556
O5 P3 1.549908 1_555
O5 Ti1 2.027617 1_555
O6 P4 1.550590 1_555
O6 Ti0 2.056679 1_545
O7 P4 1.549908 1_555
O7 Ti1 2.027617 1_555
O8 P0 1.537795 1_555
O8 Ti0 1.946091 1_545
O9 P5 1.549908 1_555
O9 Ti1 2.027617 1_555
O10 P0 1.567564 1_555
O10 Sn0 2.093626 1_556
O11 P1 1.537795 1_555
O11 Ti0 1.946091 1_455
O12 P4 1.541805 1_555
O12 Sn0 2.013166 1_655
O13 P5 1.550590 1_555
O13 Ti0 2.056679 1_554
O14 P0 1.551132 1_555
O14 Ti2 2.041899 1_555
O15 P5 1.541805 1_555
O15 Sn0 2.013166 1_565
O16 P1 1.551132 1_555
O16 Ti2 2.041895 1_555
O17 P1 1.567564 1_555
O17 Sn0 2.093626 1_565
O18 P2 1.551132 1_555
O18 Ti2 2.041901 1_555
O19 P2 1.537795 1_555
O19 Ti0 1.946091 1_554
O20 P4 1.540824 1_455
O20 Ti2 1.941841 1_555
O21 P2 1.567564 1_555
O21 Sn0 2.093626 1_655
O22 P5 1.540824 1_545
O22 Ti2 1.941848 1_555
O23 P3 1.540824 1_554
O23 Ti2 1.941844 1_555
