# generated using pymatgen
data_La4CdPt
_symmetry_space_group_name_H-M   'P 1'
_cell_length_a   10.18623421
_cell_length_b   10.18625923
_cell_length_c   10.18623396
_cell_angle_alpha   59.99999674
_cell_angle_beta   59.99993924
_cell_angle_gamma   59.99999302
_symmetry_Int_Tables_number   1
_chemical_formula_structural   La4CdPt
_chemical_formula_sum   'La16 Cd4 Pt4'
_cell_volume   747.35474764
_cell_formula_units_Z   4
loop_
 _symmetry_equiv_pos_site_id
 _symmetry_equiv_pos_as_xyz
  1  'x, y, z'
loop_
 _atom_site_type_symbol
 _atom_site_label
 _atom_site_symmetry_multiplicity
 _atom_site_fract_x
 _atom_site_fract_y
 _atom_site_fract_z
 _atom_site_occupancy
  La  La0  1  0.59942295  0.59942328  0.59939877  1
  La  La1  1  0.59942151  0.59942014  0.20175699  1
  La  La2  1  0.59942749  0.20174898  0.59940854  1
  La  La3  1  0.20175096  0.59942645  0.59940921  1
  La  La4  1  0.05710681  0.44289605  0.44287385  1
  La  La5  1  0.44289400  0.05710511  0.05712471  1
  La  La6  1  0.44289677  0.05710666  0.44287133  1
  La  La7  1  0.05710455  0.44289265  0.05712448  1
  La  La8  1  0.44288558  0.44288299  0.05711761  1
  La  La9  1  0.05711700  0.05711574  0.44288009  1
  La  La10  1  0.18744452  0.81255248  0.81254906  1
  La  La11  1  0.81254856  0.18744358  0.18745404  1
  La  La12  1  0.81255036  0.18744733  0.81254961  1
  La  La13  1  0.18743970  0.81255182  0.18745501  1
  La  La14  1  0.81254435  0.81254800  0.18745724  1
  La  La15  1  0.18744520  0.18744971  0.81254957  1
  Cd  Cd0  1  0.82892516  0.82893119  0.82893368  1
  Cd  Cd1  1  0.82892438  0.82892577  0.51322806  1
  Cd  Cd2  1  0.82892559  0.51320386  0.82893518  1
  Cd  Cd3  1  0.51321071  0.82892579  0.82893416  1
  Pt  Pt0  1  0.39265238  0.39264960  0.39264686  1
  Pt  Pt1  1  0.39265592  0.39264986  0.82204534  1
  Pt  Pt2  1  0.39265460  0.82205142  0.39264667  1
  Pt  Pt3  1  0.82205094  0.39265155  0.39264995  1
loop_
_geom_bond_atom_site_label_1
_geom_bond_atom_site_label_2
_geom_bond_distance
_geom_bond_site_symmetry_2
La0 Pt2 2.982870 1_555
La0 Pt3 2.982872 1_555
La0 Pt1 2.983020 1_555
La0 La14 3.677945 1_555
La0 La12 3.678248 1_555
La0 La10 3.678258 1_555
La1 Pt2 2.982877 1_555
La1 Pt3 2.982884 1_555
La1 Pt0 2.983017 1_555
La1 La14 3.678017 1_555
La1 La11 3.678257 1_555
La1 La13 3.678292 1_555
La2 Pt3 2.982907 1_555
La2 Pt0 2.982987 1_555
La2 Pt1 2.982995 1_555
La3 Pt2 2.982927 1_555
La3 Pt0 2.983007 1_555
La3 Pt1 2.983017 1_555
La4 Pt3 2.994778 1_455
La4 Pt0 2.994970 1_555
La5 Pt2 2.994755 1_545
La5 Pt1 2.994994 1_554
La6 Pt2 2.994766 1_545
La6 Pt0 2.994968 1_555
La7 Pt3 2.994775 1_455
La7 Pt1 2.995030 1_554
La8 Pt0 2.994831 1_555
La8 Pt1 2.994902 1_554
La9 Pt3 2.994892 1_455
La9 Pt2 2.994894 1_545
La10 Pt2 3.677099 1_555
La10 Pt1 3.677120 1_555
La10 La3 3.678114 1_555
La10 La7 3.802459 1_556
La10 La9 3.802467 1_565
La10 La8 3.802540 1_556
La10 La6 3.802549 1_565
La10 La12 3.818768 1_465
La10 La15 3.818806 1_565
La10 La13 3.818852 1_556
La10 La14 3.818858 1_456
La11 Pt0 3.677050 1_555
La11 Pt3 3.677131 1_555
La11 La2 3.678060 1_555
La11 La6 3.802367 1_555
La11 La9 3.802448 1_655
La11 La8 3.802464 1_555
La11 La7 3.802539 1_655
La11 La13 3.818736 1_645
La11 La14 3.818789 1_545
La11 La15 3.818821 1_654
La11 La12 3.818836 1_554
La12 Pt1 3.677040 1_555
La12 Pt3 3.677073 1_555
La12 La2 3.678120 1_555
La12 La5 3.802434 1_556
La12 La8 3.802491 1_556
La12 La9 3.802491 1_655
La12 La4 3.802536 1_655
La12 La15 3.818779 1_655
La12 La14 3.818859 1_546
La13 Pt0 3.677111 1_555
La13 Pt2 3.677134 1_555
La13 La3 3.678078 1_555
La13 La4 3.802388 1_555
La13 La9 3.802422 1_565
La13 La8 3.802524 1_555
La13 La5 3.802558 1_565
La13 La14 3.818780 1_455
La13 La15 3.818841 1_564
La14 Pt2 3.676976 1_555
La14 Pt3 3.677037 1_555
La14 La6 3.802273 1_565
La14 La4 3.802323 1_655
La14 La5 3.802336 1_565
La14 La7 3.802385 1_655
La15 Pt0 3.677113 1_555
La15 Pt1 3.677153 1_555
La15 La3 3.678268 1_555
La15 La2 3.678285 1_555
La15 La4 3.802581 1_555
La15 La7 3.802608 1_556
La15 La6 3.802625 1_555
La15 La5 3.802643 1_556
Cd0 Cd1 3.215883 1_555
Cd0 Cd3 3.215966 1_555
Cd0 Cd2 3.216071 1_555
Cd0 La12 3.493072 1_565
Cd0 La10 3.493075 1_655
Cd0 La14 3.493114 1_556
Cd0 La1 3.614129 1_556
Cd0 La2 3.614147 1_565
Cd0 La3 3.614205 1_655
Cd0 La5 3.659265 1_566
Cd0 La7 3.659325 1_656
Cd0 La9 3.659414 1_665
Cd1 Cd3 3.215892 1_555
Cd1 Cd2 3.215946 1_555
Cd1 La13 3.493128 1_655
Cd1 La11 3.493154 1_565
Cd1 La14 3.493195 1_555
Cd1 La2 3.614085 1_565
Cd1 La3 3.614111 1_655
Cd1 La0 3.614125 1_555
Cd1 La6 3.659331 1_565
Cd1 La4 3.659346 1_655
Cd1 La9 3.659359 1_665
Cd2 Cd3 3.215985 1_555
Cd2 La15 3.493071 1_655
Cd2 La12 3.493074 1_555
Cd2 La11 3.493095 1_556
Cd2 La0 3.614224 1_555
Cd2 La1 3.614227 1_556
Cd2 La3 3.614287 1_655
Cd2 La8 3.659286 1_556
Cd2 La7 3.659395 1_656
Cd2 La4 3.659416 1_655
Cd3 La15 3.493149 1_565
Cd3 La13 3.493149 1_556
Cd3 La10 3.493151 1_555
Cd3 La1 3.614213 1_556
Cd3 La0 3.614248 1_555
Cd3 La2 3.614250 1_565
Cd3 La8 3.659337 1_556
Cd3 La5 3.659388 1_566
Cd3 La6 3.659457 1_565
