# generated using pymatgen
data_Th2(Al3Ni2)5
_symmetry_space_group_name_H-M   'P 1'
_cell_length_a   10.88830513
_cell_length_b   10.88830513
_cell_length_c   10.88830513
_cell_angle_alpha   159.17552350
_cell_angle_beta   118.46326017
_cell_angle_gamma   65.71542185
_symmetry_Int_Tables_number   1
_chemical_formula_structural   Th2(Al3Ni2)5
_chemical_formula_sum   'Th2 Al15 Ni10'
_cell_volume   401.01722202
_cell_formula_units_Z   1
loop_
 _symmetry_equiv_pos_site_id
 _symmetry_equiv_pos_as_xyz
  1  'x, y, z'
loop_
 _atom_site_type_symbol
 _atom_site_label
 _atom_site_symmetry_multiplicity
 _atom_site_fract_x
 _atom_site_fract_y
 _atom_site_fract_z
 _atom_site_occupancy
  Th  Th0  1  0.27173700  0.27173700  0.00000000  1
  Th  Th1  1  0.72826300  0.72826300  0.00000000  1
  Al  Al0  1  0.60056700  0.29543700  0.30513100  1
  Al  Al1  1  0.39943300  0.70456300  0.69486900  1
  Al  Al2  1  0.00969400  0.70456300  0.30513100  1
  Al  Al3  1  0.99030600  0.29543700  0.69486900  1
  Al  Al4  1  0.50000000  0.50000000  0.00000000  1
  Al  Al5  1  0.77030000  0.89614800  0.87415200  1
  Al  Al6  1  0.22970000  0.10385200  0.12584800  1
  Al  Al7  1  0.97800400  0.10385200  0.87415200  1
  Al  Al8  1  0.02199600  0.89614800  0.12584800  1
  Al  Al9  1  0.88021200  0.50000000  0.38021200  1
  Al  Al10  1  0.11978800  0.50000000  0.61978800  1
  Al  Al11  1  0.58581500  0.41371400  0.17210200  1
  Al  Al12  1  0.41418500  0.58628700  0.82789800  1
  Al  Al13  1  0.75838800  0.58628700  0.17210200  1
  Al  Al14  1  0.24161200  0.41371400  0.82789800  1
  Ni  Ni0  1  0.51672400  0.83552300  0.68120100  1
  Ni  Ni1  1  0.48327600  0.16447700  0.31879900  1
  Ni  Ni2  1  0.84567800  0.16447700  0.68120100  1
  Ni  Ni3  1  0.15432200  0.83552300  0.31879900  1
  Ni  Ni4  1  0.87859100  0.37859100  0.50000000  1
  Ni  Ni5  1  0.12140900  0.62140900  0.50000000  1
  Ni  Ni6  1  0.42023300  0.92023300  0.50000000  1
  Ni  Ni7  1  0.57976700  0.07976700  0.50000000  1
  Ni  Ni8  1  0.72084000  0.00000000  0.72084000  1
  Ni  Ni9  1  0.27916000  0.00000000  0.27916000  1
loop_
_geom_bond_atom_site_label_1
_geom_bond_atom_site_label_2
_geom_bond_distance
_geom_bond_site_symmetry_2
Al0 Ni1 2.400450 1_555
Al0 Ni0 2.513196 1_555
Al0 Ni0 2.513199 1_544
Al0 Ni4 2.650774 1_555
Al0 Th1 3.177273 1_556
Al0 Th1 3.177275 1_545
Al0 Th0 3.426758 1_555
Al1 Ni0 2.400450 1_555
Al1 Ni1 2.513196 1_555
Al1 Ni1 2.513199 1_566
Al1 Ni5 2.650774 1_555
Al1 Th0 3.177273 1_555
Al1 Th0 3.177275 1_566
Al1 Th1 3.426758 1_556
Al2 Ni3 2.400459 1_555
Al2 Ni2 2.513198 1_454
Al2 Ni2 2.513198 1_465
Al2 Ni5 2.650764 1_555
Al2 Th0 3.177274 1_555
Al2 Th0 3.177274 1_566
Al2 Th1 3.426765 1_455
Al3 Ni2 2.400459 1_555
Al3 Ni3 2.513198 1_656
Al3 Ni3 2.513198 1_645
Al3 Ni4 2.650764 1_555
Al3 Th1 3.177274 1_556
Al3 Th1 3.177274 1_545
Al3 Th0 3.426765 1_656
Al4 Ni7 2.449802 1_554
Al4 Ni7 2.449802 1_565
Al4 Ni6 2.449802 1_544
Al4 Ni6 2.449802 1_555
Al5 Ni0 2.418742 1_555
Al5 Ni4 2.437429 1_555
Al5 Ni4 2.437429 1_566
Al5 Ni8 2.554614 1_565
Al5 Al9 2.736048 1_555
Al5 Al9 2.736048 1_566
Al5 Th1 3.375961 1_556
Al6 Ni1 2.418742 1_555
Al6 Ni5 2.437429 1_544
Al6 Ni5 2.437429 1_555
Al6 Ni9 2.554614 1_555
Al6 Th0 3.375961 1_555
Al7 Ni2 2.418742 1_555
Al7 Ni5 2.437429 1_645
Al7 Ni5 2.437429 1_656
Al7 Ni8 2.554614 1_555
Al7 Al9 2.736048 1_545
Al7 Al9 2.736048 1_556
Al7 Th0 3.375961 1_656
Al8 Ni3 2.418742 1_555
Al8 Ni4 2.437429 1_465
Al8 Ni4 2.437429 1_454
Al8 Ni9 2.554614 1_565
Al8 Th1 3.375961 1_455
Al9 Ni5 2.590993 1_655
Al9 Ni4 2.590993 1_555
Al9 Ni8 2.650389 1_554
Al9 Ni8 2.650389 1_565
Al10 Ni4 2.590993 1_455
Al10 Ni5 2.590993 1_555
Al10 Ni9 2.650389 1_566
Al10 Ni9 2.650389 1_555
Al10 Al9 2.668932 1_455
Al10 Al8 2.736048 1_556
Al10 Al8 2.736048 1_545
Al10 Al6 2.736048 1_566
Al10 Al6 2.736048 1_555
Al10 Al14 2.804698 1_555
Al10 Al12 2.804709 1_555
Al11 Ni0 2.434844 1_555
Al11 Ni0 2.434848 1_544
Al11 Al4 2.483398 1_555
Al11 Ni8 2.580423 1_565
Al11 Ni8 2.580426 1_554
Al11 Al9 2.804708 1_555
Al11 Th0 3.228161 1_555
Al12 Ni1 2.434840 1_566
Al12 Ni1 2.434840 1_555
Al12 Al4 2.483408 1_556
Al12 Ni9 2.580429 1_555
Al12 Ni9 2.580429 1_566
Al12 Th1 3.228157 1_556
Al13 Ni2 2.434844 1_565
Al13 Ni2 2.434848 1_554
Al13 Al4 2.483398 1_555
Al13 Ni8 2.580423 1_565
Al13 Ni8 2.580426 1_554
Al13 Al9 2.804708 1_555
Al13 Th1 3.228161 1_555
Al14 Ni3 2.434851 1_545
Al14 Ni3 2.434851 1_556
Al14 Al4 2.483396 1_556
Al14 Ni9 2.580418 1_555
Al14 Ni9 2.580418 1_566
Al14 Th0 3.228172 1_556
Ni0 Ni6 2.544806 1_555
Ni0 Th0 3.051014 1_555
Ni0 Th0 3.051014 1_566
Ni1 Ni7 2.544806 1_555
Ni1 Th1 3.051014 1_545
Ni1 Th1 3.051014 1_556
Ni2 Ni7 2.544806 1_555
Ni2 Th1 3.051014 1_545
Ni2 Th1 3.051014 1_556
Ni3 Ni6 2.544806 1_555
Ni3 Th0 3.051014 1_555
Ni3 Th0 3.051014 1_566
Ni4 Th1 3.381484 1_545
Ni4 Th1 3.381484 1_556
Ni5 Th0 3.381484 1_566
Ni5 Th0 3.381484 1_555
Ni6 Th0 3.354288 1_566
Ni6 Th0 3.354288 1_555
Ni7 Th1 3.354288 1_556
Ni7 Th1 3.354288 1_545
