# generated using pymatgen
data_DyYC4
_symmetry_space_group_name_H-M   'P 1'
_cell_length_a   4.04868017
_cell_length_b   4.04868017
_cell_length_c   5.19885553
_cell_angle_alpha   90.00000000
_cell_angle_beta   90.00000000
_cell_angle_gamma   79.72590159
_symmetry_Int_Tables_number   1
_chemical_formula_structural   DyYC4
_chemical_formula_sum   'Dy1 Y1 C4'
_cell_volume   83.85224199
_cell_formula_units_Z   1
loop_
 _symmetry_equiv_pos_site_id
 _symmetry_equiv_pos_as_xyz
  1  'x, y, z'
loop_
 _atom_site_type_symbol
 _atom_site_label
 _atom_site_symmetry_multiplicity
 _atom_site_fract_x
 _atom_site_fract_y
 _atom_site_fract_z
 _atom_site_occupancy
  Dy  Dy0  1  0.50000000  0.50000000  0.50000000  1
  Y  Y0  1  0.00000000  0.00000000  0.00000000  1
  C  C0  1  0.39522600  0.39522600  0.00000000  1
  C  C1  1  0.89512800  0.89512800  0.50000000  1
  C  C2  1  0.10487200  0.10487200  0.50000000  1
  C  C3  1  0.60477400  0.60477400  0.00000000  1
loop_
_geom_bond_atom_site_label_1
_geom_bond_atom_site_label_2
_geom_bond_distance
_geom_bond_site_symmetry_2
C0 C3 1.302418 1_555
C0 Y0 2.456476 1_555
C0 Y0 2.675477 1_655
C0 Y0 2.675477 1_565
C0 Dy0 2.679757 1_554
C0 Dy0 2.679757 1_555
C1 C2 1.303637 1_665
C1 Dy0 2.455867 1_555
C1 Dy0 2.675626 1_565
C1 Dy0 2.675626 1_655
C1 Y0 2.679905 1_666
C1 Y0 2.679905 1_665
C2 Dy0 2.455867 1_555
C2 Dy0 2.675626 1_455
C2 Dy0 2.675626 1_545
C2 Y0 2.679905 1_556
C2 Y0 2.679905 1_555
C3 Y0 2.456476 1_665
C3 Y0 2.675477 1_565
C3 Y0 2.675477 1_655
C3 Dy0 2.679757 1_554
C3 Dy0 2.679757 1_555
