# generated using pymatgen
data_YMg
_symmetry_space_group_name_H-M   'P 1'
_cell_length_a   18.06418075
_cell_length_b   18.06418075
_cell_length_c   11.12308000
_cell_angle_alpha   90.00000000
_cell_angle_beta   90.00000000
_cell_angle_gamma   157.99179399
_symmetry_Int_Tables_number   1
_chemical_formula_structural   YMg
_chemical_formula_sum   'Y24 Mg24'
_cell_volume   1360.16294231
_cell_formula_units_Z   24
loop_
 _symmetry_equiv_pos_site_id
 _symmetry_equiv_pos_as_xyz
  1  'x, y, z'
loop_
 _atom_site_type_symbol
 _atom_site_label
 _atom_site_symmetry_multiplicity
 _atom_site_fract_x
 _atom_site_fract_y
 _atom_site_fract_z
 _atom_site_occupancy
  Y  Y0_0  1  0.49969450  0.00030550  0.00000000  1
  Y  Y0_1  1  0.49969450  0.00030550  0.50000000  1
  Y  Y0_2  1  0.49969450  0.50030550  0.00000000  1
  Y  Y0_3  1  0.49969450  0.50030550  0.50000000  1
  Y  Y0_4  1  0.99969450  0.00030550  0.00000000  1
  Y  Y0_5  1  0.99969450  0.00030550  0.50000000  1
  Y  Y0_6  1  0.99969450  0.50030550  0.00000000  1
  Y  Y0_7  1  0.99969450  0.50030550  0.50000000  1
  Y  Y1_0  1  0.33389900  0.16610100  0.00000000  1
  Y  Y1_1  1  0.33389900  0.16610100  0.50000000  1
  Y  Y1_2  1  0.33389900  0.66610100  0.00000000  1
  Y  Y1_3  1  0.33389900  0.66610100  0.50000000  1
  Y  Y1_4  1  0.83389900  0.16610100  0.00000000  1
  Y  Y1_5  1  0.83389900  0.16610100  0.50000000  1
  Y  Y1_6  1  0.83389900  0.66610100  0.00000000  1
  Y  Y1_7  1  0.83389900  0.66610100  0.50000000  1
  Y  Y2_0  1  0.22224150  0.27775850  0.25000000  1
  Y  Y2_1  1  0.22224150  0.27775850  0.75000000  1
  Y  Y2_2  1  0.22224150  0.77775850  0.25000000  1
  Y  Y2_3  1  0.22224150  0.77775850  0.75000000  1
  Y  Y2_4  1  0.72224150  0.27775850  0.25000000  1
  Y  Y2_5  1  0.72224150  0.27775850  0.75000000  1
  Y  Y2_6  1  0.72224150  0.77775850  0.25000000  1
  Y  Y2_7  1  0.72224150  0.77775850  0.75000000  1
  Mg  Mg0_0  1  0.16678950  0.33321050  0.00000000  1
  Mg  Mg0_1  1  0.16678950  0.33321050  0.50000000  1
  Mg  Mg0_2  1  0.16678950  0.83321050  0.00000000  1
  Mg  Mg0_3  1  0.16678950  0.83321050  0.50000000  1
  Mg  Mg0_4  1  0.66678950  0.33321050  0.00000000  1
  Mg  Mg0_5  1  0.66678950  0.33321050  0.50000000  1
  Mg  Mg0_6  1  0.66678950  0.83321050  0.00000000  1
  Mg  Mg0_7  1  0.66678950  0.83321050  0.50000000  1
  Mg  Mg1_0  1  0.05565400  0.44434600  0.25000000  1
  Mg  Mg1_1  1  0.05565400  0.44434600  0.75000000  1
  Mg  Mg1_2  1  0.05565400  0.94434600  0.25000000  1
  Mg  Mg1_3  1  0.05565400  0.94434600  0.75000000  1
  Mg  Mg1_4  1  0.55565400  0.44434600  0.25000000  1
  Mg  Mg1_5  1  0.55565400  0.44434600  0.75000000  1
  Mg  Mg1_6  1  0.55565400  0.94434600  0.25000000  1
  Mg  Mg1_7  1  0.55565400  0.94434600  0.75000000  1
  Mg  Mg2_0  1  0.38838850  0.11161150  0.25000000  1
  Mg  Mg2_1  1  0.38838850  0.11161150  0.75000000  1
  Mg  Mg2_2  1  0.38838850  0.61161150  0.25000000  1
  Mg  Mg2_3  1  0.38838850  0.61161150  0.75000000  1
  Mg  Mg2_4  1  0.88838850  0.11161150  0.25000000  1
  Mg  Mg2_5  1  0.88838850  0.11161150  0.75000000  1
  Mg  Mg2_6  1  0.88838850  0.61161150  0.25000000  1
  Mg  Mg2_7  1  0.88838850  0.61161150  0.75000000  1
loop_
_geom_bond_atom_site_label_1
_geom_bond_atom_site_label_2
_geom_bond_distance
_geom_bond_site_symmetry_2
Y0_0 Y2_2 3.413632 1_545
Y0_0 Y2_3 3.413632 1_544
Y0_0 Y2_5 3.413632 1_554
Y0_0 Y2_4 3.413632 1_555
Y0_0 Y0_6 3.448078 1_555
Y0_0 Y0_6 3.448078 1_445
Y0_0 Y1_2 3.448176 1_545
Y0_0 Y1_4 3.448176 1_555
Y0_1 Y2_2 3.413632 1_545
Y0_1 Y2_3 3.413632 1_545
Y0_1 Y2_4 3.413632 1_555
Y0_1 Y2_5 3.413632 1_555
Y0_1 Y0_7 3.448078 1_555
Y0_1 Y0_7 3.448078 1_445
Y0_1 Y1_3 3.448176 1_545
Y0_1 Y1_5 3.448176 1_555
Y0_2 Y2_6 3.413632 1_555
Y0_2 Y2_0 3.413632 1_555
Y0_2 Y2_7 3.413632 1_554
Y0_2 Y2_1 3.413632 1_554
Y0_2 Y0_4 3.448078 1_565
Y0_2 Y0_4 3.448078 1_455
Y0_2 Y1_6 3.448176 1_555
Y0_2 Y1_0 3.448176 1_555
Y0_3 Y2_6 3.413632 1_555
Y0_3 Y2_0 3.413632 1_555
Y0_3 Y2_1 3.413632 1_555
Y0_3 Y2_7 3.413632 1_555
Y0_3 Y0_5 3.448078 1_565
Y0_3 Y0_5 3.448078 1_455
Y0_3 Y1_7 3.448176 1_555
Y0_3 Y1_1 3.448176 1_555
Y0_4 Y2_7 3.413632 1_544
Y0_4 Y2_6 3.413632 1_545
Y0_4 Y2_1 3.413632 1_654
Y0_4 Y2_0 3.413632 1_655
Y0_4 Y1_6 3.448176 1_545
Y0_4 Y1_0 3.448176 1_655
Y0_5 Y2_6 3.413632 1_545
Y0_5 Y2_7 3.413632 1_545
Y0_5 Y2_1 3.413632 1_655
Y0_5 Y2_0 3.413632 1_655
Y0_5 Y1_7 3.448176 1_545
Y0_5 Y1_1 3.448176 1_655
Y0_6 Y2_4 3.413632 1_555
Y0_6 Y2_5 3.413632 1_554
Y0_6 Y2_3 3.413632 1_654
Y0_6 Y2_2 3.413632 1_655
Y0_6 Y1_2 3.448176 1_655
Y0_6 Y1_4 3.448176 1_555
Y0_7 Y2_4 3.413632 1_555
Y0_7 Y2_5 3.413632 1_555
Y0_7 Y2_3 3.413632 1_655
Y0_7 Y2_2 3.413632 1_655
Y0_7 Y1_3 3.448176 1_655
Y0_7 Y1_5 3.448176 1_555
Y1_0 Y1_6 3.448078 1_555
Y1_0 Y1_6 3.448078 1_445
Y1_1 Y1_7 3.448078 1_555
Y1_1 Y1_7 3.448078 1_445
Y1_2 Y1_4 3.448078 1_565
Y1_2 Y1_4 3.448078 1_455
Y1_3 Y1_5 3.448078 1_565
Y1_3 Y1_5 3.448078 1_455
Y2_0 Y2_6 3.448078 1_555
Y2_0 Y2_6 3.448078 1_445
Y2_1 Y2_7 3.448078 1_555
Y2_1 Y2_7 3.448078 1_445
Y2_2 Y2_4 3.448078 1_565
Y2_2 Y2_4 3.448078 1_455
Y2_3 Y2_5 3.448078 1_565
Y2_3 Y2_5 3.448078 1_455
Mg0_0 Y2_1 3.405880 1_554
Mg0_0 Y2_0 3.405880 1_555
Mg0_0 Y1_2 3.407898 1_555
Mg0_0 Y1_4 3.407898 1_455
Mg0_0 Y0_2 3.408342 1_555
Mg0_0 Y0_4 3.408342 1_455
Mg0_0 Mg2_5 3.423372 1_454
Mg0_0 Mg2_3 3.423372 1_554
Mg0_0 Mg2_4 3.423372 1_455
Mg0_0 Mg2_2 3.423372 1_555
Mg0_0 Mg0_6 3.448078 1_445
Mg0_0 Mg0_6 3.448078 1_555
Mg0_1 Y2_0 3.405880 1_555
Mg0_1 Y2_1 3.405880 1_555
Mg0_1 Y1_3 3.407898 1_555
Mg0_1 Y1_5 3.407898 1_455
Mg0_1 Y0_3 3.408342 1_555
Mg0_1 Y0_5 3.408342 1_455
Mg0_1 Mg2_5 3.423372 1_455
Mg0_1 Mg2_4 3.423372 1_455
Mg0_1 Mg2_2 3.423372 1_555
Mg0_1 Mg2_3 3.423372 1_555
Mg0_1 Mg0_7 3.448078 1_445
Mg0_1 Mg0_7 3.448078 1_555
Mg0_2 Y2_2 3.405880 1_555
Mg0_2 Y2_3 3.405880 1_554
Mg0_2 Y1_0 3.407898 1_565
Mg0_2 Y1_6 3.407898 1_455
Mg0_2 Y0_6 3.408342 1_455
Mg0_2 Y0_0 3.408342 1_565
Mg0_2 Mg2_6 3.423372 1_455
Mg0_2 Mg2_7 3.423372 1_454
Mg0_2 Mg2_1 3.423372 1_564
Mg0_2 Mg2_0 3.423372 1_565
Mg0_2 Mg0_4 3.448078 1_565
Mg0_2 Mg0_4 3.448078 1_455
Mg0_3 Y2_2 3.405880 1_555
Mg0_3 Y2_3 3.405880 1_555
Mg0_3 Y1_1 3.407898 1_565
Mg0_3 Y1_7 3.407898 1_455
Mg0_3 Y0_7 3.408342 1_455
Mg0_3 Y0_1 3.408342 1_565
Mg0_3 Mg2_7 3.423372 1_455
Mg0_3 Mg2_6 3.423372 1_455
Mg0_3 Mg2_1 3.423372 1_565
Mg0_3 Mg2_0 3.423372 1_565
Mg0_3 Mg0_5 3.448078 1_565
Mg0_3 Mg0_5 3.448078 1_455
Mg0_4 Y2_4 3.405880 1_555
Mg0_4 Y2_5 3.405880 1_554
Mg0_4 Y1_0 3.407898 1_555
Mg0_4 Y1_6 3.407898 1_555
Mg0_4 Y0_6 3.408342 1_555
Mg0_4 Y0_0 3.408342 1_555
Mg0_4 Mg2_7 3.423372 1_554
Mg0_4 Mg2_6 3.423372 1_555
Mg0_4 Mg2_1 3.423372 1_554
Mg0_4 Mg2_0 3.423372 1_555
Mg0_5 Y2_5 3.405880 1_555
Mg0_5 Y2_4 3.405880 1_555
Mg0_5 Y1_1 3.407898 1_555
Mg0_5 Y1_7 3.407898 1_555
Mg0_5 Y0_7 3.408342 1_555
Mg0_5 Y0_1 3.408342 1_555
Mg0_5 Mg2_1 3.423372 1_555
Mg0_5 Mg2_0 3.423372 1_555
Mg0_5 Mg2_6 3.423372 1_555
Mg0_5 Mg2_7 3.423372 1_555
Mg0_6 Y2_6 3.405880 1_555
Mg0_6 Y2_7 3.405880 1_554
Mg0_6 Y1_2 3.407898 1_555
Mg0_6 Y1_4 3.407898 1_565
Mg0_6 Y0_4 3.408342 1_565
Mg0_6 Y0_2 3.408342 1_555
Mg0_6 Mg2_3 3.423372 1_554
Mg0_6 Mg2_4 3.423372 1_565
Mg0_6 Mg2_5 3.423372 1_564
Mg0_6 Mg2_2 3.423372 1_555
Mg0_7 Y2_6 3.405880 1_555
Mg0_7 Y2_7 3.405880 1_555
Mg0_7 Y1_3 3.407898 1_555
Mg0_7 Y1_5 3.407898 1_565
Mg0_7 Y0_5 3.408342 1_565
Mg0_7 Y0_3 3.408342 1_555
Mg0_7 Mg2_3 3.423372 1_555
Mg0_7 Mg2_5 3.423372 1_565
Mg0_7 Mg2_4 3.423372 1_565
Mg0_7 Mg2_2 3.423372 1_555
Mg1_0 Mg2_4 3.403127 1_455
Mg1_0 Mg2_2 3.403127 1_555
Mg1_0 Y0_6 3.416304 1_455
Mg1_0 Y0_7 3.416304 1_455
Mg1_0 Y1_4 3.421748 1_455
Mg1_0 Y1_5 3.421748 1_455
Mg1_0 Y1_3 3.421748 1_555
Mg1_0 Y1_2 3.421748 1_555
Mg1_0 Y2_2 3.423880 1_555
Mg1_0 Y2_4 3.423880 1_455
Mg1_0 Mg1_6 3.448078 1_445
Mg1_0 Mg1_6 3.448078 1_555
Mg1_1 Mg2_5 3.403127 1_455
Mg1_1 Mg2_3 3.403127 1_555
Mg1_1 Y0_6 3.416304 1_456
Mg1_1 Y0_7 3.416304 1_455
Mg1_1 Y1_4 3.421748 1_456
Mg1_1 Y1_5 3.421748 1_455
Mg1_1 Y1_3 3.421748 1_555
Mg1_1 Y1_2 3.421748 1_556
Mg1_1 Y2_3 3.423880 1_555
Mg1_1 Y2_5 3.423880 1_455
Mg1_1 Mg1_7 3.448078 1_445
Mg1_1 Mg1_7 3.448078 1_555
Mg1_2 Mg2_0 3.403127 1_565
Mg1_2 Mg2_6 3.403127 1_455
Mg1_2 Y0_5 3.416304 1_465
Mg1_2 Y0_4 3.416304 1_465
Mg1_2 Y1_7 3.421748 1_455
Mg1_2 Y1_0 3.421748 1_565
Mg1_2 Y1_6 3.421748 1_455
Mg1_2 Y1_1 3.421748 1_565
Mg1_2 Y2_0 3.423880 1_565
Mg1_2 Y2_6 3.423880 1_455
Mg1_2 Mg1_4 3.448078 1_565
Mg1_2 Mg1_4 3.448078 1_455
Mg1_3 Mg2_1 3.403127 1_565
Mg1_3 Mg2_7 3.403127 1_455
Mg1_3 Y0_5 3.416304 1_465
Mg1_3 Y0_4 3.416304 1_466
Mg1_3 Y1_7 3.421748 1_455
Mg1_3 Y1_0 3.421748 1_566
Mg1_3 Y1_1 3.421748 1_565
Mg1_3 Y1_6 3.421748 1_456
Mg1_3 Y2_1 3.423880 1_565
Mg1_3 Y2_7 3.423880 1_455
Mg1_3 Mg1_5 3.448078 1_565
Mg1_3 Mg1_5 3.448078 1_455
Mg1_4 Mg2_6 3.403127 1_555
Mg1_4 Mg2_0 3.403127 1_555
Mg1_4 Y0_3 3.416304 1_555
Mg1_4 Y0_2 3.416304 1_555
Mg1_4 Y1_6 3.421748 1_555
Mg1_4 Y1_7 3.421748 1_555
Mg1_4 Y1_1 3.421748 1_555
Mg1_4 Y1_0 3.421748 1_555
Mg1_4 Y2_6 3.423880 1_555
Mg1_4 Y2_0 3.423880 1_555
Mg1_5 Mg2_7 3.403127 1_555
Mg1_5 Mg2_1 3.403127 1_555
Mg1_5 Y0_3 3.416304 1_555
Mg1_5 Y0_2 3.416304 1_556
Mg1_5 Y1_7 3.421748 1_555
Mg1_5 Y1_6 3.421748 1_556
Mg1_5 Y1_1 3.421748 1_555
Mg1_5 Y1_0 3.421748 1_556
Mg1_5 Y2_1 3.423880 1_555
Mg1_5 Y2_7 3.423880 1_555
Mg1_6 Mg2_4 3.403127 1_565
Mg1_6 Mg2_2 3.403127 1_555
Mg1_6 Y0_0 3.416304 1_565
Mg1_6 Y0_1 3.416304 1_565
Mg1_6 Y1_3 3.421748 1_555
Mg1_6 Y1_4 3.421748 1_565
Mg1_6 Y1_5 3.421748 1_565
Mg1_6 Y1_2 3.421748 1_555
Mg1_6 Y2_4 3.423880 1_565
Mg1_6 Y2_2 3.423880 1_555
Mg1_7 Mg2_5 3.403127 1_565
Mg1_7 Mg2_3 3.403127 1_555
Mg1_7 Y0_0 3.416304 1_566
Mg1_7 Y0_1 3.416304 1_565
Mg1_7 Y1_3 3.421748 1_555
Mg1_7 Y1_4 3.421748 1_566
Mg1_7 Y1_5 3.421748 1_565
Mg1_7 Y1_2 3.421748 1_556
Mg1_7 Y2_5 3.423880 1_565
Mg1_7 Y2_3 3.423880 1_555
Mg2_0 Y1_0 3.386286 1_555
Mg2_0 Y1_1 3.386286 1_555
Mg2_0 Y2_2 3.437386 1_545
Mg2_0 Y2_4 3.437386 1_555
Mg2_0 Mg2_6 3.448078 1_445
Mg2_0 Mg2_6 3.448078 1_555
Mg2_1 Y1_1 3.386286 1_555
Mg2_1 Y1_0 3.386286 1_556
Mg2_1 Y2_3 3.437386 1_545
Mg2_1 Y2_5 3.437386 1_555
Mg2_1 Mg2_7 3.448078 1_555
Mg2_1 Mg2_7 3.448078 1_445
Mg2_2 Y1_2 3.386286 1_555
Mg2_2 Y1_3 3.386286 1_555
Mg2_2 Y2_0 3.437386 1_555
Mg2_2 Y2_6 3.437386 1_555
Mg2_2 Mg2_4 3.448078 1_565
Mg2_2 Mg2_4 3.448078 1_455
Mg2_3 Y1_2 3.386286 1_556
Mg2_3 Y1_3 3.386286 1_555
Mg2_3 Y2_1 3.437386 1_555
Mg2_3 Y2_7 3.437386 1_555
Mg2_3 Mg2_5 3.448078 1_565
Mg2_3 Mg2_5 3.448078 1_455
Mg2_4 Y1_5 3.386286 1_555
Mg2_4 Y1_4 3.386286 1_555
Mg2_4 Y2_0 3.437386 1_655
Mg2_4 Y2_6 3.437386 1_545
Mg2_5 Y1_5 3.386286 1_555
Mg2_5 Y1_4 3.386286 1_556
Mg2_5 Y2_1 3.437386 1_655
Mg2_5 Y2_7 3.437386 1_545
Mg2_6 Y1_7 3.386286 1_555
Mg2_6 Y1_6 3.386286 1_555
Mg2_6 Y2_4 3.437386 1_555
Mg2_6 Y2_2 3.437386 1_655
Mg2_7 Y1_7 3.386286 1_555
Mg2_7 Y1_6 3.386286 1_556
Mg2_7 Y2_5 3.437386 1_555
Mg2_7 Y2_3 3.437386 1_655
