# generated using pymatgen
data_Na2FeO2
_symmetry_space_group_name_H-M   'P 1'
_cell_length_a   2.96612668
_cell_length_b   5.63782251
_cell_length_c   8.57819013
_cell_angle_alpha   103.11730435
_cell_angle_beta   80.07211106
_cell_angle_gamma   105.25841736
_symmetry_Int_Tables_number   1
_chemical_formula_structural   Na2FeO2
_chemical_formula_sum   'Na4 Fe2 O4'
_cell_volume   133.80820124
_cell_formula_units_Z   2
loop_
 _symmetry_equiv_pos_site_id
 _symmetry_equiv_pos_as_xyz
  1  'x, y, z'
loop_
 _atom_site_type_symbol
 _atom_site_label
 _atom_site_symmetry_multiplicity
 _atom_site_fract_x
 _atom_site_fract_y
 _atom_site_fract_z
 _atom_site_occupancy
  Na  Na0  1  0.68538700  0.52830533  0.15706523  1
  Na  Na1  1  0.68538603  0.02830764  0.65706671  1
  Na  Na2  1  0.31461497  0.97169236  0.34293329  1
  Na  Na3  1  0.31461300  0.47169467  0.84293477  1
  Fe  Fe0  1  0.00000000  0.50000000  0.50000000  1
  Fe  Fe1  1  0.00000000  0.00000000  -0.00000000  1
  O  O0  1  0.36488295  0.79715323  0.06775325  1
  O  O1  1  0.36488137  0.29715711  0.56775468  1
  O  O2  1  0.63511963  0.70284289  0.43224532  1
  O  O3  1  0.63511605  0.20284677  0.93224675  1
loop_
_geom_bond_atom_site_label_1
_geom_bond_atom_site_label_2
_geom_bond_distance
_geom_bond_site_symmetry_2
Na0 O0 2.307542 1_555
Na0 O0 2.309371 1_655
Na0 O3 2.336078 1_554
Na0 O2 2.337575 1_555
Na1 O1 2.307551 1_555
Na1 O1 2.309375 1_655
Na1 O2 2.336114 1_545
Na1 O3 2.337576 1_555
Na2 O2 2.307551 1_555
Na2 O2 2.309375 1_455
Na2 O1 2.336114 1_565
Na2 O0 2.337576 1_555
Na3 O3 2.307540 1_555
Na3 O3 2.309373 1_455
Na3 O0 2.336078 1_556
Na3 O1 2.337575 1_555
Fe0 O1 1.996167 1_455
Fe0 O2 1.996170 1_555
Fe0 O2 1.996744 1_455
Fe0 O1 1.996746 1_555
Fe1 O3 1.996167 1_554
Fe1 O0 1.996169 1_445
Fe1 O0 1.996760 1_545
Fe1 O3 1.996763 1_454
