# generated using pymatgen
data_EuNiGe2
_symmetry_space_group_name_H-M   'P 1'
_cell_length_a   8.76025273
_cell_length_b   8.76025273
_cell_length_c   4.18499800
_cell_angle_alpha   90.00000000
_cell_angle_beta   90.00000000
_cell_angle_gamma   151.49411644
_symmetry_Int_Tables_number   1
_chemical_formula_structural   EuNiGe2
_chemical_formula_sum   'Eu2 Ni2 Ge4'
_cell_volume   153.27578695
_cell_formula_units_Z   2
loop_
 _symmetry_equiv_pos_site_id
 _symmetry_equiv_pos_as_xyz
  1  'x, y, z'
loop_
 _atom_site_type_symbol
 _atom_site_label
 _atom_site_symmetry_multiplicity
 _atom_site_fract_x
 _atom_site_fract_y
 _atom_site_fract_z
 _atom_site_occupancy
  Eu  Eu0  1  0.89214700  0.10785300  0.75000000  1
  Eu  Eu1  1  0.10785300  0.89214700  0.25000000  1
  Ni  Ni0  1  0.68103100  0.31896900  0.75000000  1
  Ni  Ni1  1  0.31896900  0.68103100  0.25000000  1
  Ge  Ge0  1  0.54373100  0.45626900  0.75000000  1
  Ge  Ge1  1  0.45626900  0.54373100  0.25000000  1
  Ge  Ge2  1  0.24955300  0.75044700  0.75000000  1
  Ge  Ge3  1  0.75044700  0.24955300  0.25000000  1
loop_
_geom_bond_atom_site_label_1
_geom_bond_atom_site_label_2
_geom_bond_distance
_geom_bond_site_symmetry_2
Eu0 Ge3 3.188812 1_556
Eu0 Ge3 3.188812 1_555
Eu0 Ge1 3.196244 1_545
Eu0 Ge1 3.196244 1_546
Eu0 Ge1 3.196244 1_655
Eu0 Ge1 3.196244 1_656
Eu0 Ge2 3.242691 1_545
Eu0 Ge2 3.242691 1_655
Eu0 Ni1 3.251849 1_546
Eu0 Ni1 3.251849 1_545
Eu0 Ni1 3.251849 1_656
Eu0 Ni1 3.251849 1_655
Eu0 Ge0 3.358223 1_545
Eu0 Ge0 3.358223 1_655
Eu1 Ge2 3.188812 1_555
Eu1 Ge2 3.188812 1_554
Eu1 Ge0 3.196244 1_455
Eu1 Ge0 3.196244 1_454
Eu1 Ge0 3.196244 1_565
Eu1 Ge0 3.196244 1_564
Eu1 Ge3 3.242691 1_455
Eu1 Ge3 3.242691 1_565
Eu1 Ni0 3.251849 1_455
Eu1 Ni0 3.251849 1_454
Eu1 Ni0 3.251849 1_564
Eu1 Ni0 3.251849 1_565
Eu1 Ge1 3.358223 1_455
Eu1 Ge1 3.358223 1_565
Ge0 Ni0 2.331518 1_555
Ge0 Ge1 2.566008 1_556
Ge0 Ge1 2.566008 1_555
Ge1 Ni1 2.331518 1_555
Ge2 Ni1 2.401675 1_556
Ge2 Ni1 2.401675 1_555
Ge2 Ni0 2.450657 1_565
Ge2 Ni0 2.450657 1_455
Ge3 Ni0 2.401675 1_555
Ge3 Ni0 2.401675 1_554
Ge3 Ni1 2.450657 1_655
Ge3 Ni1 2.450657 1_545
