# generated using pymatgen
data_CsMg6Zn
_symmetry_space_group_name_H-M   'P 1'
_cell_length_a   9.66582604
_cell_length_b   9.66582604
_cell_length_c   5.22620500
_cell_angle_alpha   90.00000000
_cell_angle_beta   90.00000000
_cell_angle_gamma   144.13048286
_symmetry_Int_Tables_number   1
_chemical_formula_structural   CsMg6Zn
_chemical_formula_sum   'Cs1 Mg6 Zn1'
_cell_volume   286.10042849
_cell_formula_units_Z   1
loop_
 _symmetry_equiv_pos_site_id
 _symmetry_equiv_pos_as_xyz
  1  'x, y, z'
loop_
 _atom_site_type_symbol
 _atom_site_label
 _atom_site_symmetry_multiplicity
 _atom_site_fract_x
 _atom_site_fract_y
 _atom_site_fract_z
 _atom_site_occupancy
  Cs  Cs0  1  0.29091400  0.70908600  0.50000000  1
  Mg  Mg0  1  0.31456200  0.18238900  0.50000000  1
  Mg  Mg1  1  0.81761100  0.68543800  0.50000000  1
  Mg  Mg2  1  0.20098100  0.28633000  0.00000000  1
  Mg  Mg3  1  0.71367000  0.79901900  0.00000000  1
  Mg  Mg4  1  0.61697000  0.38303000  0.00000000  1
  Mg  Mg5  1  0.10897200  0.89102800  0.00000000  1
  Zn  Zn0  1  0.93632300  0.06367700  0.50000000  1
loop_
_geom_bond_atom_site_label_1
_geom_bond_atom_site_label_2
_geom_bond_distance
_geom_bond_site_symmetry_2
Cs0 Zn0 4.001450 1_565
Cs0 Zn0 4.001450 1_455
Cs0 Mg5 4.245730 1_555
Cs0 Mg5 4.245730 1_556
Cs0 Mg2 4.304038 1_555
Cs0 Mg2 4.304038 1_556
Cs0 Mg3 4.304038 1_556
Cs0 Mg3 4.304038 1_555
Cs0 Mg1 4.391679 1_455
Cs0 Mg0 4.391679 1_565
Mg0 Zn0 2.807837 1_455
Mg0 Mg5 3.104563 1_545
Mg0 Mg5 3.104563 1_546
Mg0 Mg4 3.153733 1_556
Mg0 Mg4 3.153733 1_555
Mg0 Mg2 3.290985 1_556
Mg0 Mg2 3.290985 1_555
Mg1 Zn0 2.807837 1_565
Mg1 Mg5 3.104563 1_656
Mg1 Mg5 3.104563 1_655
Mg1 Mg4 3.153733 1_556
Mg1 Mg4 3.153733 1_555
Mg1 Mg3 3.290985 1_555
Mg1 Mg3 3.290985 1_556
Mg2 Mg3 2.900899 1_445
Mg2 Zn0 3.013523 1_455
Mg2 Zn0 3.013523 1_454
Mg2 Mg3 3.051971 1_555
Mg2 Mg5 3.143728 1_545
Mg2 Mg4 3.309088 1_555
Mg3 Zn0 3.013523 1_564
Mg3 Zn0 3.013523 1_565
Mg3 Mg5 3.143728 1_655
Mg3 Mg4 3.309088 1_555
Mg4 Mg5 2.980068 1_545
Mg4 Mg5 2.980068 1_655
