# generated using pymatgen
data_LiB11
_symmetry_space_group_name_H-M   'P 1'
_cell_length_a   5.18627592
_cell_length_b   5.18627592
_cell_length_c   5.18627592
_cell_angle_alpha   128.38440513
_cell_angle_beta   128.38440513
_cell_angle_gamma   76.00312934
_symmetry_Int_Tables_number   1
_chemical_formula_structural   LiB11
_chemical_formula_sum   'Li1 B11'
_cell_volume   83.33626764
_cell_formula_units_Z   1
loop_
 _symmetry_equiv_pos_site_id
 _symmetry_equiv_pos_as_xyz
  1  'x, y, z'
loop_
 _atom_site_type_symbol
 _atom_site_label
 _atom_site_symmetry_multiplicity
 _atom_site_fract_x
 _atom_site_fract_y
 _atom_site_fract_z
 _atom_site_occupancy
  Li  Li0  1  0.75000000  0.25000000  0.50000000  1
  B  B0  1  0.65988300  0.65988300  0.00000000  1
  B  B1  1  0.34011700  0.34011700  0.00000000  1
  B  B2  1  0.30127700  0.30127700  0.60255500  1
  B  B3  1  0.69872300  0.69872300  0.39744500  1
  B  B4  1  0.69872300  0.30127700  0.00000000  1
  B  B5  1  0.30127700  0.69872300  0.00000000  1
  B  B6  1  0.08011000  0.83041300  0.24969700  1
  B  B7  1  0.58071600  0.83041300  0.75030300  1
  B  B8  1  0.16958700  0.41928400  0.24969700  1
  B  B9  1  0.16958700  0.91989000  0.75030300  1
  B  B10  1  0.00000000  0.00000000  0.00000000  1
loop_
_geom_bond_atom_site_label_1
_geom_bond_atom_site_label_2
_geom_bond_distance
_geom_bond_site_symmetry_2
B0 B6 1.792807 1_655
B0 B7 1.792807 1_554
B0 B3 1.821620 1_555
B0 B4 1.821625 1_555
B0 B5 1.821625 1_555
B0 B2 1.821626 1_554
B0 Li0 2.374971 1_565
B0 Li0 2.374971 1_554
B1 B9 1.792807 1_544
B1 B8 1.792807 1_555
B1 B2 1.821620 1_554
B1 B4 1.821625 1_555
B1 B5 1.821625 1_555
B1 B3 1.821626 1_555
B1 Li0 2.374971 1_454
B1 Li0 2.374971 1_555
B2 B4 1.794756 1_556
B2 B5 1.794756 1_556
B2 B6 1.956144 1_545
B2 B8 1.956149 1_555
B2 Li0 2.613730 1_455
B2 Li0 2.613736 1_555
B3 B4 1.794756 1_555
B3 B5 1.794756 1_555
B3 B9 1.956144 1_655
B3 B7 1.956149 1_555
B3 Li0 2.613730 1_565
B3 Li0 2.613736 1_555
B4 B7 1.956145 1_544
B4 B8 1.956145 1_655
B4 Li0 2.613733 1_555
B4 Li0 2.613733 1_554
B5 B6 1.956145 1_555
B5 B9 1.956145 1_554
B5 Li0 2.613733 1_454
B5 Li0 2.613733 1_565
B6 B9 2.069565 1_555
B6 B8 2.069565 1_555
B6 B7 2.255127 1_454
B6 B7 2.260601 1_555
B6 Li0 2.607937 1_454
B6 Li0 2.607937 1_465
B7 B8 2.069565 1_555
B7 B9 2.069565 1_555
B7 Li0 2.607937 1_555
B7 Li0 2.607937 1_566
B8 B9 2.255127 1_544
B8 B9 2.260601 1_555
B8 Li0 2.607937 1_454
B8 Li0 2.607937 1_555
B9 Li0 2.607937 1_465
B9 Li0 2.607937 1_566
B10 B7 1.786821 1_444
B10 B8 1.786821 1_555
B10 B6 1.786821 1_545
B10 B9 1.786821 1_544
B10 B4 1.924016 1_455
B10 B5 1.924016 1_545
B10 B2 1.924020 1_555
B10 B3 1.924020 1_444
