# generated using pymatgen
data_CaFe(GeO3)2
_symmetry_space_group_name_H-M   'P 1'
_cell_length_a   6.90030951
_cell_length_b   8.01449115
_cell_length_c   9.60135621
_cell_angle_alpha   76.89256960
_cell_angle_beta   79.27717291
_cell_angle_gamma   91.64097452
_symmetry_Int_Tables_number   1
_chemical_formula_structural   CaFe(GeO3)2
_chemical_formula_sum   'Ca4 Fe4 Ge8 O24'
_cell_volume   506.72110499
_cell_formula_units_Z   4
loop_
 _symmetry_equiv_pos_site_id
 _symmetry_equiv_pos_as_xyz
  1  'x, y, z'
loop_
 _atom_site_type_symbol
 _atom_site_label
 _atom_site_symmetry_multiplicity
 _atom_site_fract_x
 _atom_site_fract_y
 _atom_site_fract_z
 _atom_site_occupancy
  Ca  Ca0  1  0.30327100  0.97340100  0.72388900  1
  Ca  Ca1  1  0.30392200  0.47303500  0.22279500  1
  Ca  Ca2  1  0.69610200  0.02694500  0.27721800  1
  Ca  Ca3  1  0.69672200  0.52659700  0.77610800  1
  Fe  Fe0  1  0.91053600  0.16968900  0.91987700  1
  Fe  Fe1  1  0.08948500  0.33030600  0.58010900  1
  Fe  Fe2  1  0.90975100  0.67036900  0.42001800  1
  Fe  Fe3  1  0.09027000  0.82963900  0.07995900  1
  Ge  Ge0  1  0.38382800  0.70751300  0.48051600  1
  Ge  Ge1  1  0.38378200  0.20771000  0.98052200  1
  Ge  Ge2  1  0.81197100  0.94445300  0.67230700  1
  Ge  Ge3  1  0.81235100  0.44417800  0.17097300  1
  Ge  Ge4  1  0.61621700  0.29230200  0.51948700  1
  Ge  Ge5  1  0.61617400  0.79248400  0.01947800  1
  Ge  Ge6  1  0.18764900  0.05581900  0.32904900  1
  Ge  Ge7  1  0.18802200  0.55553700  0.82768200  1
  O  O0  1  0.32576000  0.93376000  0.45701700  1
  O  O1  1  0.32329600  0.43356600  0.95743900  1
  O  O2  1  0.60796900  0.85033400  0.82629900  1
  O  O3  1  0.60989600  0.34926000  0.32568500  1
  O  O4  1  0.67670900  0.06644600  0.54256200  1
  O  O5  1  0.67421400  0.56623600  0.04301700  1
  O  O6  1  0.39008900  0.15074600  0.17432100  1
  O  O7  1  0.39203100  0.64966000  0.67370100  1
  O  O8  1  0.11270900  0.23625600  0.38954600  1
  O  O9  1  0.11106700  0.73585400  0.88678200  1
  O  O10  1  0.37578800  0.26979700  0.61785200  1
  O  O11  1  0.37525600  0.77106500  0.11754200  1
  O  O12  1  0.88886200  0.76413700  0.61317800  1
  O  O13  1  0.88729700  0.26375800  0.11046000  1
  O  O14  1  0.62472700  0.72898000  0.38243500  1
  O  O15  1  0.62422600  0.23019500  0.88217400  1
  O  O16  1  0.20331600  0.58059200  0.43772800  1
  O  O17  1  0.20582300  0.07821900  0.93816900  1
  O  O18  1  0.98175500  0.07746900  0.71958900  1
  O  O19  1  0.98409000  0.57655100  0.21657700  1
  O  O20  1  0.79418200  0.42180300  0.56181700  1
  O  O21  1  0.79673800  0.91936600  0.06226200  1
  O  O22  1  0.01588900  0.92345800  0.28347000  1
  O  O23  1  0.01825700  0.42251500  0.78039100  1
loop_
_geom_bond_atom_site_label_1
_geom_bond_atom_site_label_2
_geom_bond_distance
_geom_bond_site_symmetry_2
Ca0 O9 2.358519 1_555
Ca0 O10 2.361183 1_565
Ca0 O17 2.385815 1_565
Ca0 O18 2.396622 1_465
Ca0 O2 2.609291 1_555
Ca0 O0 2.629572 1_555
Ca0 O4 2.803375 1_565
Ca0 O7 2.808493 1_555
Ca1 O8 2.365978 1_555
Ca1 O11 2.370975 1_555
Ca1 O19 2.386181 1_455
Ca1 O16 2.406584 1_555
Ca1 O1 2.617310 1_554
Ca1 O3 2.620922 1_555
Ca1 O5 2.780433 1_555
Ca1 O6 2.787860 1_555
Ca2 O13 2.366126 1_555
Ca2 O14 2.370476 1_545
Ca2 O22 2.385842 1_645
Ca2 O21 2.406907 1_545
Ca2 O4 2.617267 1_555
Ca2 O6 2.621256 1_555
Ca2 O0 2.780773 1_545
Ca2 O3 2.788096 1_555
Ca3 O12 2.358433 1_555
Ca3 O15 2.361257 1_555
Ca3 O20 2.385813 1_555
Ca3 O23 2.396769 1_655
Ca3 O7 2.609225 1_555
Ca3 O5 2.629903 1_556
Ca3 O1 2.803313 1_555
Ca3 O2 2.808461 1_555
Fe0 O13 2.113270 1_556
Fe0 O15 2.123836 1_555
Fe0 O23 2.182746 1_655
Fe0 O21 2.185584 1_546
Fe0 O18 2.190803 1_555
Fe0 O17 2.209135 1_655
Fe1 O8 2.113014 1_555
Fe1 O10 2.123907 1_555
Fe1 O18 2.182808 1_455
Fe1 O16 2.185393 1_555
Fe1 O23 2.190707 1_555
Fe1 O20 2.209313 1_455
Fe2 O14 2.111660 1_555
Fe2 O12 2.136336 1_555
Fe2 O22 2.172793 1_655
Fe2 O20 2.175540 1_555
Fe2 O16 2.192304 1_655
Fe2 O19 2.226945 1_555
Fe3 O11 2.111343 1_555
Fe3 O9 2.136617 1_554
Fe3 O19 2.173065 1_455
Fe3 O17 2.175570 1_564
Fe3 O21 2.191931 1_455
Fe3 O22 2.227584 1_555
Ge0 O14 1.734133 1_555
Ge0 O16 1.749962 1_555
Ge0 O7 1.819098 1_555
Ge0 O0 1.840936 1_555
Ge1 O15 1.731929 1_555
Ge1 O17 1.747728 1_555
Ge1 O6 1.821710 1_556
Ge1 O1 1.842713 1_555
Ge2 O12 1.730948 1_555
Ge2 O18 1.749573 1_565
Ge2 O4 1.819728 1_565
Ge2 O2 1.842679 1_555
Ge3 O13 1.734335 1_555
Ge3 O19 1.747385 1_555
Ge3 O5 1.821792 1_555
Ge3 O3 1.841539 1_555
Ge4 O10 1.731889 1_555
Ge4 O20 1.747698 1_555
Ge4 O3 1.821758 1_555
Ge4 O4 1.842729 1_555
Ge5 O11 1.734209 1_555
Ge5 O21 1.750016 1_555
Ge5 O2 1.819044 1_554
Ge5 O5 1.840869 1_555
Ge6 O8 1.734377 1_555
Ge6 O22 1.747302 1_545
Ge6 O0 1.821751 1_545
Ge6 O6 1.841580 1_555
Ge7 O9 1.730947 1_555
Ge7 O23 1.749557 1_555
Ge7 O1 1.819788 1_555
Ge7 O7 1.842654 1_555
