# generated using pymatgen
data_Sm5Tl3
_symmetry_space_group_name_H-M   'P 1'
_cell_length_a   6.29831800
_cell_length_b   9.35593172
_cell_length_c   9.35593172
_cell_angle_alpha   83.49464160
_cell_angle_beta   70.33044715
_cell_angle_gamma   70.33044715
_symmetry_Int_Tables_number   1
_chemical_formula_structural   Sm5Tl3
_chemical_formula_sum   'Sm10 Tl6'
_cell_volume   488.85186184
_cell_formula_units_Z   2
loop_
 _symmetry_equiv_pos_site_id
 _symmetry_equiv_pos_as_xyz
  1  'x, y, z'
loop_
 _atom_site_type_symbol
 _atom_site_label
 _atom_site_symmetry_multiplicity
 _atom_site_fract_x
 _atom_site_fract_y
 _atom_site_fract_z
 _atom_site_occupancy
  Sm  Sm0  1  0.21819300  0.69724200  0.86637300  1
  Sm  Sm1  1  0.78180700  0.30275800  0.13362700  1
  Sm  Sm2  1  0.28180700  0.13362700  0.30275800  1
  Sm  Sm3  1  0.71819300  0.86637300  0.69724200  1
  Sm  Sm4  1  0.08456600  0.13362700  0.69724200  1
  Sm  Sm5  1  0.91543400  0.86637300  0.30275800  1
  Sm  Sm6  1  0.58456600  0.69724200  0.13362700  1
  Sm  Sm7  1  0.41543400  0.30275800  0.86637300  1
  Sm  Sm8  1  0.75000000  0.50000000  0.50000000  1
  Sm  Sm9  1  0.25000000  0.50000000  0.50000000  1
  Tl  Tl0  1  0.66065100  0.17869900  0.50000000  1
  Tl  Tl1  1  0.33934900  0.82130100  0.50000000  1
  Tl  Tl2  1  0.83934900  0.50000000  0.82130100  1
  Tl  Tl3  1  0.16065100  0.50000000  0.17869900  1
  Tl  Tl4  1  0.25000000  0.00000000  0.00000000  1
  Tl  Tl5  1  0.75000000  0.00000000  0.00000000  1
loop_
_geom_bond_atom_site_label_1
_geom_bond_atom_site_label_2
_geom_bond_distance
_geom_bond_site_symmetry_2
Sm0 Tl3 3.254365 1_556
Sm0 Tl4 3.313565 1_566
Sm0 Tl5 3.313568 1_466
Sm0 Tl1 3.407775 1_555
Sm0 Sm7 3.475408 1_555
Sm0 Tl2 3.618626 1_555
Sm0 Tl2 3.618637 1_455
Sm0 Sm3 3.789152 1_555
Sm0 Sm3 3.789152 1_455
Sm0 Sm6 3.932038 1_556
Sm0 Sm6 3.932038 1_456
Sm0 Sm8 3.989645 1_555
Sm0 Sm9 3.989648 1_555
Sm0 Sm4 4.123208 1_565
Sm0 Sm5 4.123208 1_456
Sm1 Tl2 3.254365 1_554
Sm1 Tl5 3.313565 1_555
Sm1 Tl4 3.313568 1_655
Sm1 Tl0 3.407775 1_555
Sm1 Sm6 3.475408 1_555
Sm1 Tl3 3.618626 1_555
Sm1 Tl3 3.618637 1_655
Sm1 Sm2 3.789152 1_555
Sm1 Sm2 3.789152 1_655
Sm1 Sm7 3.932038 1_654
Sm1 Sm7 3.932038 1_554
Sm1 Sm9 3.989645 1_555
Sm1 Sm8 3.989648 1_555
Sm1 Sm5 4.123208 1_545
Sm1 Sm4 4.123208 1_654
Sm2 Tl1 3.254365 1_545
Sm2 Tl4 3.313565 1_555
Sm2 Tl5 3.313568 1_555
Sm2 Tl3 3.407775 1_555
Sm2 Sm4 3.475408 1_555
Sm2 Tl0 3.618626 1_455
Sm2 Tl0 3.618637 1_555
Sm2 Sm5 3.932038 1_545
Sm2 Sm5 3.932038 1_445
Sm2 Sm8 3.989645 1_455
Sm2 Sm9 3.989648 1_555
Sm2 Sm7 4.123208 1_554
Sm2 Sm6 4.123208 1_545
Sm3 Tl0 3.254365 1_565
Sm3 Tl5 3.313565 1_566
Sm3 Tl4 3.313568 1_566
Sm3 Tl2 3.407775 1_555
Sm3 Sm5 3.475408 1_555
Sm3 Tl1 3.618626 1_655
Sm3 Tl1 3.618637 1_555
Sm3 Sm4 3.932038 1_665
Sm3 Sm4 3.932038 1_565
Sm3 Sm9 3.989645 1_655
Sm3 Sm8 3.989648 1_555
Sm3 Sm6 4.123208 1_556
Sm3 Sm7 4.123208 1_565
Sm4 Tl1 3.254365 1_545
Sm4 Tl4 3.313565 1_556
Sm4 Tl5 3.313568 1_456
Sm4 Tl2 3.407775 1_455
Sm4 Tl0 3.618631 1_455
Sm4 Tl0 3.618631 1_555
Sm4 Sm7 3.789147 1_555
Sm4 Sm7 3.789157 1_455
Sm4 Sm9 3.989645 1_555
Sm4 Sm8 3.989648 1_455
Sm5 Tl0 3.254365 1_565
Sm5 Tl5 3.313565 1_565
Sm5 Tl4 3.313568 1_665
Sm5 Tl3 3.407775 1_655
Sm5 Tl1 3.618631 1_555
Sm5 Tl1 3.618631 1_655
Sm5 Sm6 3.789147 1_555
Sm5 Sm6 3.789157 1_655
Sm5 Sm8 3.989645 1_555
Sm5 Sm9 3.989648 1_655
Sm6 Tl2 3.254365 1_554
Sm6 Tl5 3.313565 1_565
Sm6 Tl4 3.313568 1_565
Sm6 Tl1 3.407775 1_555
Sm6 Tl3 3.618631 1_555
Sm6 Tl3 3.618631 1_655
Sm6 Sm8 3.989645 1_555
Sm6 Sm9 3.989648 1_555
Sm7 Tl3 3.254365 1_556
Sm7 Tl4 3.313565 1_556
Sm7 Tl5 3.313568 1_556
Sm7 Tl0 3.407775 1_555
Sm7 Tl2 3.618631 1_455
Sm7 Tl2 3.618631 1_555
Sm7 Sm9 3.989645 1_555
Sm7 Sm8 3.989648 1_555
Sm8 Sm9 3.149159 1_655
Sm8 Sm9 3.149159 1_555
Sm8 Tl2 3.239128 1_555
Sm8 Tl0 3.239128 1_555
Sm8 Tl1 3.239132 1_555
Sm8 Tl3 3.239132 1_655
Sm9 Tl1 3.239128 1_555
Sm9 Tl3 3.239128 1_555
Sm9 Tl2 3.239132 1_455
Sm9 Tl0 3.239132 1_555
Tl4 Tl5 3.149159 1_455
Tl4 Tl5 3.149159 1_555
