# generated using pymatgen
data_Mg64Si32Bi
_symmetry_space_group_name_H-M   'P 1'
_cell_length_a   12.75554650
_cell_length_b   12.75554650
_cell_length_c   12.75554650
_cell_angle_alpha   90.00000000
_cell_angle_beta   90.00000000
_cell_angle_gamma   90.00000000
_symmetry_Int_Tables_number   1
_chemical_formula_structural   Mg64Si32Bi
_chemical_formula_sum   'Mg64 Si32 Bi1'
_cell_volume   2075.37801060
_cell_formula_units_Z   1
loop_
 _symmetry_equiv_pos_site_id
 _symmetry_equiv_pos_as_xyz
  1  'x, y, z'
loop_
 _atom_site_type_symbol
 _atom_site_label
 _atom_site_symmetry_multiplicity
 _atom_site_fract_x
 _atom_site_fract_y
 _atom_site_fract_z
 _atom_site_occupancy
  Mg  Mg0  1  0.37545214  0.37545214  0.62454786  1
  Mg  Mg1  1  0.37545214  0.62454786  0.37545214  1
  Mg  Mg2  1  0.62454786  0.37545214  0.37545214  1
  Mg  Mg3  1  0.62454786  0.62454786  0.62454786  1
  Mg  Mg4  1  0.62454786  0.62454786  0.37545214  1
  Mg  Mg5  1  0.62454786  0.37545214  0.62454786  1
  Mg  Mg6  1  0.37545214  0.62454786  0.62454786  1
  Mg  Mg7  1  0.37545214  0.37545214  0.37545214  1
  Mg  Mg8  1  0.37553003  0.37553003  0.12598486  1
  Mg  Mg9  1  0.37553003  0.87401514  0.62446997  1
  Mg  Mg10  1  0.87401514  0.37553003  0.62446997  1
  Mg  Mg11  1  0.37553003  0.62446997  0.87401514  1
  Mg  Mg12  1  0.37553003  0.12598486  0.37553003  1
  Mg  Mg13  1  0.87401514  0.62446997  0.37553003  1
  Mg  Mg14  1  0.62446997  0.37553003  0.87401514  1
  Mg  Mg15  1  0.62446997  0.87401514  0.37553003  1
  Mg  Mg16  1  0.12598486  0.37553003  0.37553003  1
  Mg  Mg17  1  0.62446997  0.62446997  0.12598486  1
  Mg  Mg18  1  0.62446997  0.12598486  0.62446997  1
  Mg  Mg19  1  0.12598486  0.62446997  0.62446997  1
  Mg  Mg20  1  0.62446997  0.62446997  0.87401514  1
  Mg  Mg21  1  0.62446997  0.12598486  0.37553003  1
  Mg  Mg22  1  0.12598486  0.62446997  0.37553003  1
  Mg  Mg23  1  0.62446997  0.37553003  0.12598486  1
  Mg  Mg24  1  0.62446997  0.87401514  0.62446997  1
  Mg  Mg25  1  0.12598486  0.37553003  0.62446997  1
  Mg  Mg26  1  0.37553003  0.62446997  0.12598486  1
  Mg  Mg27  1  0.37553003  0.12598486  0.62446997  1
  Mg  Mg28  1  0.87401514  0.62446997  0.62446997  1
  Mg  Mg29  1  0.37553003  0.37553003  0.87401514  1
  Mg  Mg30  1  0.37553003  0.87401514  0.37553003  1
  Mg  Mg31  1  0.87401514  0.37553003  0.37553003  1
  Mg  Mg32  1  0.12689107  0.37614427  0.12689107  1
  Mg  Mg33  1  0.37614427  0.87310893  0.87310893  1
  Mg  Mg34  1  0.87310893  0.12689107  0.62385573  1
  Mg  Mg35  1  0.12689107  0.87310893  0.62385573  1
  Mg  Mg36  1  0.37614427  0.12689107  0.12689107  1
  Mg  Mg37  1  0.87310893  0.37614427  0.87310893  1
  Mg  Mg38  1  0.12689107  0.62385573  0.87310893  1
  Mg  Mg39  1  0.87310893  0.87310893  0.37614427  1
  Mg  Mg40  1  0.12689107  0.12689107  0.37614427  1
  Mg  Mg41  1  0.87310893  0.62385573  0.12689107  1
  Mg  Mg42  1  0.62385573  0.87310893  0.12689107  1
  Mg  Mg43  1  0.62385573  0.12689107  0.87310893  1
  Mg  Mg44  1  0.87310893  0.62385573  0.87310893  1
  Mg  Mg45  1  0.62385573  0.12689107  0.12689107  1
  Mg  Mg46  1  0.12689107  0.87310893  0.37614427  1
  Mg  Mg47  1  0.87310893  0.12689107  0.37614427  1
  Mg  Mg48  1  0.62385573  0.87310893  0.87310893  1
  Mg  Mg49  1  0.12689107  0.62385573  0.12689107  1
  Mg  Mg50  1  0.87310893  0.37614427  0.12689107  1
  Mg  Mg51  1  0.12689107  0.12689107  0.62385573  1
  Mg  Mg52  1  0.87310893  0.87310893  0.62385573  1
  Mg  Mg53  1  0.12689107  0.37614427  0.87310893  1
  Mg  Mg54  1  0.37614427  0.12689107  0.87310893  1
  Mg  Mg55  1  0.37614427  0.87310893  0.12689107  1
  Mg  Mg56  1  0.86552078  0.86552078  0.13447922  1
  Mg  Mg57  1  0.86552078  0.13447922  0.86552078  1
  Mg  Mg58  1  0.13447922  0.86552078  0.86552078  1
  Mg  Mg59  1  0.13447922  0.13447922  0.13447922  1
  Mg  Mg60  1  0.13447922  0.13447922  0.86552078  1
  Mg  Mg61  1  0.13447922  0.86552078  0.13447922  1
  Mg  Mg62  1  0.86552078  0.13447922  0.13447922  1
  Mg  Mg63  1  0.86552078  0.86552078  0.86552078  1
  Si  Si0  1  0.25237142  0.25237142  0.74762858  1
  Si  Si1  1  0.25237142  0.74762858  0.25237142  1
  Si  Si2  1  0.74762858  0.25237142  0.25237142  1
  Si  Si3  1  0.74762858  0.74762858  0.74762858  1
  Si  Si4  1  0.74762858  0.74762858  0.25237142  1
  Si  Si5  1  0.74762858  0.25237142  0.74762858  1
  Si  Si6  1  0.25237142  0.74762858  0.74762858  1
  Si  Si7  1  0.25237142  0.25237142  0.25237142  1
  Si  Si8  1  0.00000000  0.00000000  0.75209109  1
  Si  Si9  1  -0.00000000  0.24790891  -0.00000000  1
  Si  Si10  1  0.24790891  0.00000000  -0.00000000  1
  Si  Si11  1  -0.00000000  0.00000000  0.24790891  1
  Si  Si12  1  0.00000000  0.75209109  -0.00000000  1
  Si  Si13  1  0.75209109  0.00000000  -0.00000000  1
  Si  Si14  1  -0.00000000  0.50000000  0.75194136  1
  Si  Si15  1  0.50000000  0.24805864  -0.00000000  1
  Si  Si16  1  0.24805864  0.00000000  0.50000000  1
  Si  Si17  1  0.00000000  0.24805864  0.50000000  1
  Si  Si18  1  0.50000000  0.00000000  0.75194136  1
  Si  Si19  1  0.24805864  0.50000000  -0.00000000  1
  Si  Si20  1  -0.00000000  0.50000000  0.24805864  1
  Si  Si21  1  0.50000000  0.75194136  -0.00000000  1
  Si  Si22  1  -0.00000000  0.75194136  0.50000000  1
  Si  Si23  1  0.50000000  0.00000000  0.24805864  1
  Si  Si24  1  0.75194136  0.00000000  0.50000000  1
  Si  Si25  1  0.75194136  0.50000000  -0.00000000  1
  Si  Si26  1  0.50000000  0.50000000  0.75000504  1
  Si  Si27  1  0.50000000  0.24999496  0.50000000  1
  Si  Si28  1  0.24999496  0.50000000  0.50000000  1
  Si  Si29  1  0.50000000  0.50000000  0.24999496  1
  Si  Si30  1  0.50000000  0.75000504  0.50000000  1
  Si  Si31  1  0.75000504  0.50000000  0.50000000  1
  Bi  Bi0  1  -0.00000000  0.00000000  -0.00000000  1
loop_
_geom_bond_atom_site_label_1
_geom_bond_atom_site_label_2
_geom_bond_distance
_geom_bond_site_symmetry_2
Mg0 Si0 2.719254 1_555
Mg0 Si26 2.758380 1_555
Mg0 Si28 2.758380 1_555
Mg0 Si27 2.758380 1_555
Mg1 Si1 2.719254 1_555
Mg1 Si30 2.758380 1_555
Mg1 Si28 2.758380 1_555
Mg1 Si29 2.758380 1_555
Mg2 Si2 2.719254 1_555
Mg2 Si31 2.758380 1_555
Mg2 Si27 2.758380 1_555
Mg2 Si29 2.758380 1_555
Mg3 Si3 2.719254 1_555
Mg3 Si26 2.758380 1_555
Mg3 Si31 2.758380 1_555
Mg3 Si30 2.758380 1_555
Mg4 Si4 2.719254 1_555
Mg4 Si31 2.758380 1_555
Mg4 Si30 2.758380 1_555
Mg4 Si29 2.758380 1_555
Mg5 Si5 2.719254 1_555
Mg5 Si31 2.758380 1_555
Mg5 Si26 2.758380 1_555
Mg5 Si27 2.758380 1_555
Mg6 Si6 2.719254 1_555
Mg6 Si26 2.758380 1_555
Mg6 Si30 2.758380 1_555
Mg6 Si28 2.758380 1_555
Mg7 Si7 2.719254 1_555
Mg7 Si29 2.758380 1_555
Mg7 Si28 2.758380 1_555
Mg7 Si27 2.758380 1_555
Mg8 Si7 2.744952 1_555
Mg8 Si29 2.746564 1_555
Mg8 Si15 2.783338 1_555
Mg8 Si19 2.783338 1_555
Mg9 Si6 2.744952 1_555
Mg9 Si30 2.746564 1_555
Mg9 Si18 2.783338 1_565
Mg9 Si16 2.783338 1_565
Mg10 Si5 2.744952 1_555
Mg10 Si31 2.746564 1_555
Mg10 Si14 2.783338 1_655
Mg10 Si17 2.783338 1_655
Mg11 Si6 2.744952 1_555
Mg11 Si26 2.746564 1_555
Mg11 Si21 2.783338 1_556
Mg11 Si19 2.783338 1_556
Mg12 Si7 2.744952 1_555
Mg12 Si27 2.746564 1_555
Mg12 Si16 2.783338 1_555
Mg12 Si23 2.783338 1_555
Mg13 Si4 2.744952 1_555
Mg13 Si31 2.746564 1_555
Mg13 Si22 2.783338 1_655
Mg13 Si20 2.783338 1_655
Mg14 Si5 2.744952 1_555
Mg14 Si26 2.746564 1_555
Mg14 Si25 2.783338 1_556
Mg14 Si15 2.783338 1_556
Mg15 Si4 2.744952 1_555
Mg15 Si30 2.746564 1_555
Mg15 Si24 2.783338 1_565
Mg15 Si23 2.783338 1_565
Mg16 Si7 2.744952 1_555
Mg16 Si28 2.746564 1_555
Mg16 Si17 2.783338 1_555
Mg16 Si20 2.783338 1_555
Mg17 Si4 2.744952 1_555
Mg17 Si29 2.746564 1_555
Mg17 Si25 2.783338 1_555
Mg17 Si21 2.783338 1_555
Mg18 Si5 2.744952 1_555
Mg18 Si27 2.746564 1_555
Mg18 Si18 2.783338 1_555
Mg18 Si24 2.783338 1_555
Mg19 Si6 2.744952 1_555
Mg19 Si28 2.746564 1_555
Mg19 Si22 2.783338 1_555
Mg19 Si14 2.783338 1_555
Mg20 Si3 2.744952 1_555
Mg20 Si26 2.746564 1_555
Mg20 Si25 2.783338 1_556
Mg20 Si21 2.783338 1_556
Mg21 Si2 2.744952 1_555
Mg21 Si27 2.746564 1_555
Mg21 Si24 2.783338 1_555
Mg21 Si23 2.783338 1_555
Mg22 Si1 2.744952 1_555
Mg22 Si28 2.746564 1_555
Mg22 Si22 2.783338 1_555
Mg22 Si20 2.783338 1_555
Mg23 Si2 2.744952 1_555
Mg23 Si29 2.746564 1_555
Mg23 Si25 2.783338 1_555
Mg23 Si15 2.783338 1_555
Mg24 Si3 2.744952 1_555
Mg24 Si30 2.746564 1_555
Mg24 Si24 2.783338 1_565
Mg24 Si18 2.783338 1_565
Mg25 Si0 2.744952 1_555
Mg25 Si28 2.746564 1_555
Mg25 Si14 2.783338 1_555
Mg25 Si17 2.783338 1_555
Mg26 Si1 2.744952 1_555
Mg26 Si29 2.746564 1_555
Mg26 Si21 2.783338 1_555
Mg26 Si19 2.783338 1_555
Mg27 Si0 2.744952 1_555
Mg27 Si27 2.746564 1_555
Mg27 Si18 2.783338 1_555
Mg27 Si16 2.783338 1_555
Mg28 Si3 2.744952 1_555
Mg28 Si31 2.746564 1_555
Mg28 Si14 2.783338 1_655
Mg28 Si22 2.783338 1_655
Mg29 Si0 2.744952 1_555
Mg29 Si26 2.746564 1_555
Mg29 Si19 2.783338 1_556
Mg29 Si15 2.783338 1_556
Mg30 Si1 2.744952 1_555
Mg30 Si30 2.746564 1_555
Mg30 Si23 2.783338 1_565
Mg30 Si16 2.783338 1_565
Mg31 Si2 2.744952 1_555
Mg31 Si31 2.746564 1_555
Mg31 Si17 2.783338 1_655
Mg31 Si20 2.783338 1_655
Mg32 Si19 2.739420 1_555
Mg32 Si20 2.739420 1_555
Mg32 Si7 2.759752 1_555
Mg32 Si9 2.813371 1_555
Mg33 Si21 2.739420 1_556
Mg33 Si18 2.739420 1_565
Mg33 Si6 2.759752 1_555
Mg33 Si10 2.813371 1_566
Mg34 Si17 2.739420 1_655
Mg34 Si24 2.739420 1_555
Mg34 Si5 2.759752 1_555
Mg34 Si8 2.813371 1_655
Mg35 Si16 2.739420 1_565
Mg35 Si22 2.739420 1_555
Mg35 Si6 2.759752 1_555
Mg35 Si8 2.813371 1_565
Mg36 Si23 2.739420 1_555
Mg36 Si15 2.739420 1_555
Mg36 Si7 2.759752 1_555
Mg36 Si10 2.813371 1_555
Mg37 Si14 2.739420 1_655
Mg37 Si25 2.739420 1_556
Mg37 Si5 2.759752 1_555
Mg37 Si9 2.813371 1_656
Mg38 Si14 2.739420 1_555
Mg38 Si19 2.739420 1_556
Mg38 Si6 2.759752 1_555
Mg38 Si12 2.813371 1_556
Mg39 Si24 2.739420 1_565
Mg39 Si22 2.739420 1_655
Mg39 Si4 2.759752 1_555
Mg39 Si11 2.813371 1_665
Mg40 Si17 2.739420 1_555
Mg40 Si16 2.739420 1_555
Mg40 Si7 2.759752 1_555
Mg40 Si11 2.813371 1_555
Mg41 Si25 2.739420 1_555
Mg41 Si20 2.739420 1_655
Mg41 Si4 2.759752 1_555
Mg41 Si12 2.813371 1_655
Mg42 Si21 2.739420 1_555
Mg42 Si23 2.739420 1_565
Mg42 Si4 2.759752 1_555
Mg42 Si13 2.813371 1_565
Mg43 Si15 2.739420 1_556
Mg43 Si18 2.739420 1_555
Mg43 Si5 2.759752 1_555
Mg43 Si13 2.813371 1_556
Mg44 Si25 2.739420 1_556
Mg44 Si14 2.739420 1_655
Mg44 Si3 2.759752 1_555
Mg44 Si12 2.813371 1_656
Mg45 Si23 2.739420 1_555
Mg45 Si15 2.739420 1_555
Mg45 Si2 2.759752 1_555
Mg45 Si13 2.813371 1_555
Mg46 Si16 2.739420 1_565
Mg46 Si22 2.739420 1_555
Mg46 Si1 2.759752 1_555
Mg46 Si11 2.813371 1_565
Mg47 Si17 2.739420 1_655
Mg47 Si24 2.739420 1_555
Mg47 Si2 2.759752 1_555
Mg47 Si11 2.813371 1_655
Mg48 Si18 2.739420 1_565
Mg48 Si21 2.739420 1_556
Mg48 Si3 2.759752 1_555
Mg48 Si13 2.813371 1_566
Mg49 Si19 2.739420 1_555
Mg49 Si20 2.739420 1_555
Mg49 Si1 2.759752 1_555
Mg49 Si12 2.813371 1_555
Mg50 Si25 2.739420 1_555
Mg50 Si20 2.739420 1_655
Mg50 Si2 2.759752 1_555
Mg50 Si9 2.813371 1_655
Mg51 Si17 2.739420 1_555
Mg51 Si16 2.739420 1_555
Mg51 Si0 2.759752 1_555
Mg51 Si8 2.813371 1_555
Mg52 Si24 2.739420 1_565
Mg52 Si22 2.739420 1_655
Mg52 Si3 2.759752 1_555
Mg52 Si8 2.813371 1_665
Mg53 Si14 2.739420 1_555
Mg53 Si19 2.739420 1_556
Mg53 Si0 2.759752 1_555
Mg53 Si9 2.813371 1_556
Mg54 Si15 2.739420 1_556
Mg54 Si18 2.739420 1_555
Mg54 Si0 2.759752 1_555
Mg54 Si10 2.813371 1_556
Mg55 Si21 2.739420 1_555
Mg55 Si23 2.739420 1_565
Mg55 Si1 2.759752 1_555
Mg55 Si10 2.813371 1_565
Mg56 Si4 2.604622 1_555
Mg56 Si11 2.824587 1_665
Mg56 Si13 2.824587 1_565
Mg56 Si12 2.824587 1_655
Mg57 Si5 2.604622 1_555
Mg57 Si9 2.824587 1_656
Mg57 Si13 2.824587 1_556
Mg57 Si8 2.824587 1_655
Mg58 Si6 2.604622 1_555
Mg58 Si10 2.824587 1_566
Mg58 Si12 2.824587 1_556
Mg58 Si8 2.824587 1_565
Mg59 Si7 2.604622 1_555
Mg59 Si11 2.824587 1_555
Mg59 Si9 2.824587 1_555
Mg59 Si10 2.824587 1_555
Mg60 Si0 2.604622 1_555
Mg60 Si10 2.824587 1_556
Mg60 Si8 2.824587 1_555
Mg60 Si9 2.824587 1_556
Mg61 Si1 2.604622 1_555
Mg61 Si11 2.824587 1_565
Mg61 Si12 2.824587 1_555
Mg61 Si10 2.824587 1_565
Mg62 Si2 2.604622 1_555
Mg62 Si11 2.824587 1_655
Mg62 Si13 2.824587 1_555
Mg62 Si9 2.824587 1_655
Mg63 Si3 2.604622 1_555
Mg63 Si13 2.824587 1_566
Mg63 Si8 2.824587 1_665
Mg63 Si12 2.824587 1_656
Bi0 Mg56 2.971084 1_445
Bi0 Mg60 2.971084 1_554
Bi0 Mg59 2.971084 1_555
Bi0 Mg61 2.971084 1_545
Bi0 Mg63 2.971084 1_444
Bi0 Mg57 2.971084 1_454
Bi0 Mg62 2.971084 1_455
Bi0 Mg58 2.971084 1_544
