# generated using pymatgen
data_LaNdMn2O6
_symmetry_space_group_name_H-M   'P 1'
_cell_length_a   5.56472800
_cell_length_b   5.71683700
_cell_length_c   7.85012500
_cell_angle_alpha   90.00000000
_cell_angle_beta   90.00000000
_cell_angle_gamma   90.00000000
_symmetry_Int_Tables_number   1
_chemical_formula_structural   LaNdMn2O6
_chemical_formula_sum   'La2 Nd2 Mn4 O12'
_cell_volume   249.73322354
_cell_formula_units_Z   2
loop_
 _symmetry_equiv_pos_site_id
 _symmetry_equiv_pos_as_xyz
  1  'x, y, z'
loop_
 _atom_site_type_symbol
 _atom_site_label
 _atom_site_symmetry_multiplicity
 _atom_site_fract_x
 _atom_site_fract_y
 _atom_site_fract_z
 _atom_site_occupancy
  La  La0  1  0.24010200  0.45758400  0.50000000  1
  La  La1  1  0.75989800  0.95758400  0.50000000  1
  Nd  Nd0  1  0.26226900  0.55306700  0.00000000  1
  Nd  Nd1  1  0.73773100  0.05306700  0.00000000  1
  Mn  Mn0  1  0.75062300  0.50050200  0.75210400  1
  Mn  Mn1  1  0.24937700  0.00050200  0.24789600  1
  Mn  Mn2  1  0.75062300  0.50050200  0.24789600  1
  Mn  Mn3  1  0.24937700  0.00050200  0.75210400  1
  O  O0  1  0.52877200  0.79913300  0.79949900  1
  O  O1  1  0.47122800  0.29913300  0.20050100  1
  O  O2  1  0.96859700  0.19878000  0.29231000  1
  O  O3  1  0.03140300  0.69878000  0.70769000  1
  O  O4  1  0.96859700  0.19878000  0.70769000  1
  O  O5  1  0.03140300  0.69878000  0.29231000  1
  O  O6  1  0.52877200  0.79913300  0.20050100  1
  O  O7  1  0.47122800  0.29913300  0.79949900  1
  O  O8  1  0.15830600  0.97694200  0.00000000  1
  O  O9  1  0.84169400  0.47694200  0.00000000  1
  O  O10  1  0.33258900  0.01557800  0.50000000  1
  O  O11  1  0.66741100  0.51557800  0.50000000  1
loop_
_geom_bond_atom_site_label_1
_geom_bond_atom_site_label_2
_geom_bond_distance
_geom_bond_site_symmetry_2
La0 O11 2.400860 1_555
La0 O5 2.430684 1_555
La0 O3 2.430684 1_555
La0 O10 2.578756 1_555
La0 O2 2.670186 1_455
La0 O4 2.670186 1_455
La0 O7 2.828856 1_555
La0 O1 2.828856 1_555
La1 O10 2.400860 1_565
La1 O2 2.430684 1_565
La1 O4 2.430684 1_565
La1 O11 2.578756 1_555
La1 O5 2.670186 1_655
La1 O3 2.670186 1_655
La1 O6 2.828856 1_555
La1 O0 2.828856 1_555
Nd0 O9 2.380504 1_455
Nd0 O1 2.436571 1_555
Nd0 O7 2.436571 1_554
Nd0 O8 2.491327 1_555
Nd0 O0 2.579834 1_554
Nd0 O6 2.579834 1_555
Nd0 O3 2.758605 1_554
Nd0 O5 2.758605 1_555
Nd1 O8 2.380504 1_645
Nd1 O0 2.436571 1_544
Nd1 O6 2.436571 1_545
Nd1 O9 2.491327 1_555
Nd1 O7 2.579834 1_554
Nd1 O1 2.579834 1_555
Nd1 O2 2.758605 1_555
Nd1 O4 2.758605 1_554
Mn0 O3 1.961563 1_655
Mn0 O7 1.970011 1_555
Mn0 O9 2.015427 1_556
Mn0 O11 2.034324 1_555
Mn0 O4 2.137314 1_555
Mn0 O0 2.139423 1_555
Mn1 O2 1.961563 1_455
Mn1 O6 1.970011 1_545
Mn1 O8 2.015427 1_545
Mn1 O10 2.034324 1_555
Mn1 O5 2.137314 1_545
Mn1 O1 2.139423 1_555
Mn2 O5 1.961563 1_655
Mn2 O1 1.970011 1_555
Mn2 O9 2.015427 1_555
Mn2 O11 2.034324 1_555
Mn2 O2 2.137314 1_555
Mn2 O6 2.139423 1_555
Mn3 O4 1.961563 1_455
Mn3 O0 1.970011 1_545
Mn3 O8 2.015427 1_546
Mn3 O10 2.034324 1_555
Mn3 O3 2.137314 1_545
Mn3 O7 2.139423 1_555
