# generated using pymatgen
data_AsPd3
_symmetry_space_group_name_H-M   'P 1'
_cell_length_a   4.84783559
_cell_length_b   7.52199030
_cell_length_c   7.52199030
_cell_angle_alpha   84.03958783
_cell_angle_beta   71.20130466
_cell_angle_gamma   71.20130466
_symmetry_Int_Tables_number   1
_chemical_formula_structural   AsPd3
_chemical_formula_sum   'As4 Pd12'
_cell_volume   245.80932423
_cell_formula_units_Z   4
loop_
 _symmetry_equiv_pos_site_id
 _symmetry_equiv_pos_as_xyz
  1  'x, y, z'
loop_
 _atom_site_type_symbol
 _atom_site_label
 _atom_site_symmetry_multiplicity
 _atom_site_fract_x
 _atom_site_fract_y
 _atom_site_fract_z
 _atom_site_occupancy
  As  As0  1  0.93792369  0.32445355  0.76147024  1
  As  As1  1  0.02384648  0.67554645  0.23852976  1
  As  As2  1  0.73762276  0.23852976  0.32445355  1
  As  As3  1  0.30060807  0.76147024  0.67554645  1
  Pd  Pd0  1  0.62728595  0.18816333  0.03430499  1
  Pd  Pd1  1  0.84975227  0.81183667  0.96569501  1
  Pd  Pd2  1  0.18455172  0.96569501  0.18816333  1
  Pd  Pd3  1  0.33840906  0.03430499  0.81183667  1
  Pd  Pd4  1  0.50960868  0.60424558  0.33392912  1
  Pd  Pd5  1  0.44778438  0.39575442  0.66607088  1
  Pd  Pd6  1  0.88614474  0.66607088  0.60424558  1
  Pd  Pd7  1  0.15646320  0.33392912  0.39575442  1
  Pd  Pd8  1  0.47436756  0.60580071  0.95296099  1
  Pd  Pd9  1  0.03313026  0.39419929  0.04703901  1
  Pd  Pd10  1  0.91983173  0.04703901  0.60580071  1
  Pd  Pd11  1  0.57267045  0.95296099  0.39419929  1
loop_
_geom_bond_atom_site_label_1
_geom_bond_atom_site_label_2
_geom_bond_distance
_geom_bond_site_symmetry_2
As0 Pd0 2.469163 1_556
As0 Pd9 2.476169 1_656
As0 Pd3 2.499527 1_655
As0 Pd10 2.534711 1_555
As0 Pd5 2.557987 1_655
As0 Pd5 2.578016 1_555
As0 Pd7 2.612401 1_655
As0 Pd8 2.661836 1_555
As0 Pd6 2.684993 1_555
As1 Pd1 2.469165 1_454
As1 Pd8 2.476170 1_554
As1 Pd2 2.499532 1_555
As1 Pd11 2.534711 1_455
As1 Pd4 2.557987 1_555
As1 Pd4 2.578016 1_455
As1 Pd6 2.612400 1_455
As1 Pd9 2.661832 1_555
As1 Pd7 2.684994 1_555
As2 Pd2 2.469165 1_645
As2 Pd11 2.476169 1_545
As2 Pd0 2.499526 1_555
As2 Pd9 2.534713 1_655
As2 Pd7 2.557978 1_555
As2 Pd7 2.578025 1_655
As2 Pd4 2.612400 1_555
As2 Pd10 2.661836 1_555
As2 Pd5 2.684993 1_555
As3 Pd3 2.469158 1_565
As3 Pd10 2.476172 1_465
As3 Pd1 2.499537 1_455
As3 Pd8 2.534706 1_555
As3 Pd6 2.557996 1_455
As3 Pd6 2.578007 1_555
As3 Pd5 2.612401 1_555
As3 Pd11 2.661830 1_555
As3 Pd4 2.684994 1_555
Pd0 Pd9 2.771932 1_555
Pd0 Pd9 2.898177 1_655
Pd0 Pd8 3.030671 1_554
Pd0 Pd11 3.061685 1_545
Pd0 Pd10 3.212707 1_554
Pd1 Pd8 2.771928 1_555
Pd1 Pd8 2.898181 1_655
Pd1 Pd9 3.030671 1_656
Pd1 Pd10 3.061685 1_565
Pd1 Pd11 3.212707 1_556
Pd2 Pd8 3.061685 1_554
Pd2 Pd9 3.212707 1_565
Pd3 Pd9 3.061685 1_556
Pd3 Pd8 3.212707 1_545
Pd4 Pd9 2.861536 1_655
Pd4 Pd8 2.923779 1_554
Pd5 Pd8 2.861531 1_555
Pd5 Pd9 2.923779 1_556
Pd6 Pd8 2.834149 1_555
Pd7 Pd9 2.834151 1_555
Pd8 Pd9 2.931629 1_556
Pd8 Pd9 2.931637 1_656
Pd10 Pd3 2.771936 1_555
Pd10 Pd5 2.834149 1_555
Pd10 Pd7 2.861536 1_655
Pd10 Pd3 2.898173 1_655
Pd10 Pd6 2.923781 1_545
Pd10 Pd11 2.931629 1_645
Pd10 Pd11 2.931637 1_545
Pd10 Pd2 3.030671 1_645
Pd11 Pd2 2.771928 1_555
Pd11 Pd4 2.834149 1_555
Pd11 Pd6 2.861533 1_555
Pd11 Pd2 2.898181 1_655
Pd11 Pd7 2.923776 1_565
Pd11 Pd3 3.030671 1_565
