# generated using pymatgen
data_CaVFe(P2O7)2
_symmetry_space_group_name_H-M   'P 1'
_cell_length_a   4.96435123
_cell_length_b   8.68731579
_cell_length_c   7.13124902
_cell_angle_alpha   95.12169186
_cell_angle_beta   105.36921736
_cell_angle_gamma   86.15043547
_symmetry_Int_Tables_number   1
_chemical_formula_structural   CaVFe(P2O7)2
_chemical_formula_sum   'Ca1 V1 Fe1 P4 O14'
_cell_volume   295.06316230
_cell_formula_units_Z   1
loop_
 _symmetry_equiv_pos_site_id
 _symmetry_equiv_pos_as_xyz
  1  'x, y, z'
loop_
 _atom_site_type_symbol
 _atom_site_label
 _atom_site_symmetry_multiplicity
 _atom_site_fract_x
 _atom_site_fract_y
 _atom_site_fract_z
 _atom_site_occupancy
  Ca  Ca0  1  0.34359000  0.13431900  0.00366000  1
  V  V0  1  0.20258300  0.51897900  0.71382800  1
  Fe  Fe0  1  0.81515300  0.97060800  0.33491100  1
  P  P0  1  0.35954500  0.19900500  0.50084800  1
  P  P1  1  0.26801500  0.75857600  0.11791400  1
  P  P2  1  0.77684600  0.30290100  0.86972600  1
  P  P3  1  0.59628700  0.68880000  0.50456300  1
  O  O0  1  0.05300300  0.33638800  0.82363600  1
  O  O1  1  0.17451800  0.64736100  0.93177200  1
  O  O2  1  0.13946800  0.09096800  0.51058600  1
  O  O3  1  0.26286700  0.37203700  0.50959700  1
  O  O4  1  0.35803400  0.67427500  0.60355700  1
  O  O5  1  0.58010800  0.44286700  0.88100000  1
  O  O6  1  0.60224000  0.17894100  0.70288800  1
  O  O7  1  0.46424600  0.64579300  0.27229900  1
  O  O8  1  0.44352500  0.88616800  0.08286200  1
  O  O9  1  0.50359800  0.16037800  0.33603200  1
  O  O10  1  0.69593300  0.85120800  0.53275200  1
  O  O11  1  0.82450500  0.56027300  0.56226700  1
  O  O12  1  0.84986100  0.20226700  0.04351500  1
  O  O13  1  0.01945800  0.81945800  0.18941600  1
loop_
_geom_bond_atom_site_label_1
_geom_bond_atom_site_label_2
_geom_bond_distance
_geom_bond_site_symmetry_2
Ca0 O8 2.266654 1_545
Ca0 O9 2.287036 1_555
Ca0 O0 2.427214 1_554
Ca0 O12 2.556665 1_555
Ca0 O12 2.565516 1_455
Ca0 O6 2.841597 1_554
Fe0 O13 1.991272 1_655
Fe0 O2 2.043992 1_665
Fe0 O10 2.050134 1_555
Fe0 O9 2.184474 1_565
Fe0 O8 2.315386 1_555
O0 P2 1.543247 1_455
O0 V0 2.090185 1_555
O1 P1 1.554219 1_556
O1 V0 1.860995 1_555
O2 P0 1.506281 1_555
O3 P0 1.547920 1_555
O3 V0 1.920434 1_555
O4 P3 1.546539 1_555
O4 V0 1.919608 1_555
O5 P2 1.517746 1_555
O5 V0 2.039832 1_555
O6 P0 1.629219 1_555
O6 P2 1.635994 1_555
O7 P1 1.617711 1_555
O7 P3 1.630823 1_555
O8 P1 1.531290 1_555
O9 P0 1.532432 1_555
O10 P3 1.505354 1_555
O11 P3 1.537746 1_555
O11 V0 1.929550 1_655
O12 P2 1.531143 1_554
O13 P1 1.503340 1_555
