# generated using pymatgen
data_AcNb3
_symmetry_space_group_name_H-M   'P 1'
_cell_length_a   4.99353152
_cell_length_b   4.99353152
_cell_length_c   4.99353152
_cell_angle_alpha   60.00000000
_cell_angle_beta   60.00000000
_cell_angle_gamma   60.00000000
_symmetry_Int_Tables_number   1
_chemical_formula_structural   AcNb3
_chemical_formula_sum   'Ac1 Nb3'
_cell_volume   88.04574831
_cell_formula_units_Z   1
loop_
 _symmetry_equiv_pos_site_id
 _symmetry_equiv_pos_as_xyz
  1  'x, y, z'
loop_
 _atom_site_type_symbol
 _atom_site_label
 _atom_site_symmetry_multiplicity
 _atom_site_fract_x
 _atom_site_fract_y
 _atom_site_fract_z
 _atom_site_occupancy
  Ac  Ac0  1  0.00000000  0.00000000  0.00000000  1
  Nb  Nb0  1  0.25000000  0.25000000  0.25000000  1
  Nb  Nb1  1  0.75000000  0.75000000  0.75000000  1
  Nb  Nb2  1  0.50000000  0.50000000  0.50000000  1
loop_
_geom_bond_atom_site_label_1
_geom_bond_atom_site_label_2
_geom_bond_distance
_geom_bond_site_symmetry_2
Ac0 Nb0 3.057901 1_455
Ac0 Nb1 3.057901 1_454
Ac0 Nb0 3.057901 1_545
Ac0 Nb1 3.057901 1_544
Ac0 Nb1 3.057901 1_444
Ac0 Nb1 3.057901 1_445
Ac0 Nb0 3.057901 1_555
Ac0 Nb0 3.057901 1_554
Ac0 Nb2 3.530960 1_455
Ac0 Nb2 3.530960 1_454
Ac0 Nb2 3.530960 1_545
Ac0 Nb2 3.530960 1_445
Ac0 Nb2 3.530960 1_544
Ac0 Nb2 3.530960 1_554
Nb0 Nb2 3.057901 1_545
Nb0 Nb2 3.057901 1_455
Nb0 Nb2 3.057901 1_555
Nb0 Nb2 3.057901 1_554
Nb1 Nb2 3.057901 1_565
Nb1 Nb2 3.057901 1_655
Nb1 Nb2 3.057901 1_555
Nb1 Nb2 3.057901 1_556
