# generated using pymatgen
data_Ca(MoO2)2
_symmetry_space_group_name_H-M   'P 1'
_cell_length_a   6.45739856
_cell_length_b   6.45739856
_cell_length_c   22.19575173
_cell_angle_alpha   78.32662076
_cell_angle_beta   78.32662076
_cell_angle_gamma   62.16573347
_symmetry_Int_Tables_number   1
_chemical_formula_structural   Ca(MoO2)2
_chemical_formula_sum   'Ca8 Mo16 O32'
_cell_volume   795.26892626
_cell_formula_units_Z   8
loop_
 _symmetry_equiv_pos_site_id
 _symmetry_equiv_pos_as_xyz
  1  'x, y, z'
loop_
 _atom_site_type_symbol
 _atom_site_label
 _atom_site_symmetry_multiplicity
 _atom_site_fract_x
 _atom_site_fract_y
 _atom_site_fract_z
 _atom_site_occupancy
  Ca  Ca0  1  0.18470000  0.18470000  0.97110200  1
  Ca  Ca1  1  0.74900100  0.74900100  0.87514500  1
  Ca  Ca2  1  0.68299600  0.68299600  0.71781700  1
  Ca  Ca3  1  0.24604900  0.24604900  0.62642100  1
  Ca  Ca4  1  0.74844100  0.74844100  0.37562100  1
  Ca  Ca5  1  0.49667700  0.49667700  0.50137700  1
  Ca  Ca6  1  0.25329300  0.25329300  0.12542300  1
  Ca  Ca7  1  0.00215900  0.00215900  0.24936700  1
  Mo  Mo0  1  0.74752500  0.25572400  0.87480100  1
  Mo  Mo1  1  0.00102300  0.00102300  0.74890300  1
  Mo  Mo2  1  0.25572400  0.74752500  0.87480100  1
  Mo  Mo3  1  0.18255500  0.18255500  0.46935400  1
  Mo  Mo4  1  0.24657500  0.75116600  0.62540400  1
  Mo  Mo5  1  0.32087900  0.32087900  0.77889400  1
  Mo  Mo6  1  0.68947300  0.68947300  0.21997200  1
  Mo  Mo7  1  0.75116600  0.24657500  0.62540400  1
  Mo  Mo8  1  0.74847100  0.24839800  0.37526600  1
  Mo  Mo9  1  0.81194400  0.81194400  0.53139100  1
  Mo  Mo10  1  0.24839800  0.74847100  0.37526600  1
  Mo  Mo11  1  0.75238100  0.25322000  0.12518600  1
  Mo  Mo12  1  0.25322000  0.75238100  0.12518600  1
  Mo  Mo13  1  0.31447300  0.31447300  0.28236400  1
  Mo  Mo14  1  0.50433100  0.50433100  0.99801300  1
  Mo  Mo15  1  0.83243200  0.83243200  0.02767100  1
  O  O0  1  0.39749700  0.83204800  0.93948400  1
  O  O1  1  0.59693100  0.59693100  0.82132300  1
  O  O2  1  0.83204800  0.39749700  0.93948400  1
  O  O3  1  0.39687800  0.39687800  0.92765700  1
  O  O4  1  0.10809800  0.10809800  0.82315200  1
  O  O5  1  0.89808700  0.32577500  0.69030200  1
  O  O6  1  0.64941700  0.11057300  0.80775000  1
  O  O7  1  0.09388500  0.09388500  0.56725400  1
  O  O8  1  0.32577500  0.89808700  0.69030200  1
  O  O9  1  0.90279200  0.90279200  0.93132300  1
  O  O10  1  0.89660600  0.89660600  0.67838800  1
  O  O11  1  0.11057300  0.64941700  0.80775000  1
  O  O12  1  0.38666400  0.86056500  0.43822300  1
  O  O13  1  0.61385000  0.61385000  0.57858300  1
  O  O14  1  0.13097500  0.60812400  0.56326200  1
  O  O15  1  0.59487000  0.59487000  0.31832900  1
  O  O16  1  0.86056500  0.38666400  0.43822300  1
  O  O17  1  0.40410000  0.40410000  0.68200700  1
  O  O18  1  0.38498200  0.38498200  0.42295500  1
  O  O19  1  0.60812400  0.13097500  0.56326200  1
  O  O20  1  0.11207000  0.11207000  0.32727700  1
  O  O21  1  0.88836100  0.36841200  0.18750200  1
  O  O22  1  0.63885400  0.10856400  0.31136900  1
  O  O23  1  0.09833300  0.09833300  0.07397500  1
  O  O24  1  0.36841200  0.88836100  0.18750200  1
  O  O25  1  0.90283000  0.90283000  0.43173000  1
  O  O26  1  0.88620800  0.88620800  0.17216900  1
  O  O27  1  0.10856400  0.63885400  0.31136900  1
  O  O28  1  0.60703900  0.60703900  0.07176500  1
  O  O29  1  0.15547500  0.61223600  0.05715600  1
  O  O30  1  0.40507000  0.40507000  0.18186700  1
  O  O31  1  0.61223600  0.15547500  0.05715600  1
loop_
_geom_bond_atom_site_label_1
_geom_bond_atom_site_label_2
_geom_bond_distance
_geom_bond_site_symmetry_2
Ca0 O0 2.213768 1_545
Ca0 O2 2.213768 1_455
Ca0 O23 2.257334 1_556
Ca0 O3 2.316902 1_555
Ca1 O1 2.281570 1_555
Ca1 O0 2.310943 1_555
Ca1 O2 2.310943 1_555
Ca1 O9 2.334610 1_555
Ca1 O11 2.382520 1_655
Ca1 O6 2.382520 1_565
Ca2 O8 2.204086 1_555
Ca2 O5 2.204086 1_555
Ca2 O1 2.269544 1_555
Ca2 O10 2.317532 1_555
Ca3 O8 2.291305 1_545
Ca3 O5 2.291305 1_455
Ca3 O19 2.335959 1_555
Ca3 O14 2.335959 1_555
Ca3 O17 2.365847 1_555
Ca3 O7 2.366752 1_555
Ca4 O12 2.329484 1_555
Ca4 O16 2.329484 1_555
Ca4 O25 2.339187 1_555
Ca4 O27 2.339227 1_655
Ca4 O22 2.339227 1_565
Ca4 O15 2.350068 1_555
Ca5 O19 2.341291 1_555
Ca5 O14 2.341291 1_555
Ca5 O12 2.345689 1_555
Ca5 O16 2.345689 1_555
Ca5 O18 2.360531 1_555
Ca5 O13 2.380243 1_555
Ca6 O23 2.272963 1_555
Ca6 O30 2.319792 1_555
Ca6 O24 2.338593 1_545
Ca6 O21 2.338593 1_455
Ca6 O31 2.380379 1_555
Ca6 O29 2.380379 1_555
Ca7 O22 2.332512 1_455
Ca7 O27 2.332512 1_545
Ca7 O20 2.336996 1_555
Ca7 O24 2.343108 1_545
Ca7 O21 2.343108 1_455
Ca7 O26 2.370452 1_445
Mo0 O2 2.124331 1_555
Mo0 O1 2.148746 1_555
Mo0 O3 2.182785 1_555
Mo0 O4 2.221172 1_655
Mo0 O9 2.234120 1_545
Mo0 O6 2.235012 1_555
Mo1 O8 2.115578 1_545
Mo1 O5 2.115578 1_455
Mo1 O10 2.153495 1_445
Mo1 O11 2.243976 1_545
Mo1 O6 2.243976 1_455
Mo1 O4 2.245158 1_555
Mo2 O0 2.124331 1_555
Mo2 O1 2.148746 1_555
Mo2 O3 2.182785 1_555
Mo2 O4 2.221172 1_565
Mo2 O9 2.234120 1_455
Mo2 O11 2.235012 1_555
Mo3 O16 2.047313 1_455
Mo3 O12 2.047313 1_545
Mo3 O7 2.162558 1_555
Mo3 O18 2.232484 1_555
Mo4 O8 2.130913 1_555
Mo4 O10 2.182122 1_455
Mo4 O7 2.203893 1_565
Mo4 O17 2.210142 1_555
Mo4 O14 2.211090 1_555
Mo4 O13 2.214193 1_555
Mo5 O11 2.064625 1_555
Mo5 O6 2.064625 1_555
Mo5 O17 2.129911 1_555
Mo5 O4 2.326243 1_555
Mo6 O21 2.051998 1_555
Mo6 O24 2.051998 1_555
Mo6 O26 2.183985 1_555
Mo6 O15 2.186658 1_555
Mo7 O5 2.130913 1_555
Mo7 O10 2.182122 1_545
Mo7 O7 2.203893 1_655
Mo7 O17 2.210142 1_555
Mo7 O19 2.211090 1_555
Mo7 O13 2.214193 1_555
Mo8 O16 2.188938 1_555
Mo8 O25 2.200092 1_545
Mo8 O18 2.201548 1_555
Mo8 O22 2.202071 1_555
Mo8 O20 2.204416 1_655
Mo8 O15 2.208447 1_555
Mo9 O14 2.039040 1_655
Mo9 O19 2.039040 1_565
Mo9 O13 2.193933 1_555
Mo9 O25 2.202952 1_555
Mo10 O12 2.188938 1_555
Mo10 O25 2.200092 1_455
Mo10 O18 2.201548 1_555
Mo10 O27 2.202071 1_555
Mo10 O20 2.204416 1_565
Mo10 O15 2.208447 1_555
Mo11 O23 2.151487 1_655
Mo11 O21 2.180633 1_555
Mo11 O28 2.204198 1_555
Mo11 O30 2.208595 1_555
Mo11 O26 2.214262 1_545
Mo11 O31 2.229223 1_555
Mo12 O23 2.151487 1_565
Mo12 O24 2.180633 1_555
Mo12 O28 2.204198 1_555
Mo12 O30 2.208595 1_555
Mo12 O26 2.214262 1_455
Mo12 O29 2.229223 1_555
Mo13 O27 2.041677 1_555
Mo13 O22 2.041677 1_555
Mo13 O30 2.218912 1_555
Mo13 O20 2.225077 1_555
Mo14 O0 2.128085 1_555
Mo14 O2 2.128085 1_555
Mo14 O3 2.174408 1_555
Mo14 O28 2.202019 1_556
Mo14 O29 2.234079 1_556
Mo14 O31 2.234079 1_556
Mo15 O31 2.051241 1_565
Mo15 O29 2.051241 1_655
Mo15 O9 2.095833 1_554
Mo15 O28 2.453540 1_555
