# generated using pymatgen
data_LiTmU2S3O2
_symmetry_space_group_name_H-M   'P 1'
_cell_length_a   3.70934800
_cell_length_b   3.74195400
_cell_length_c   12.38019868
_cell_angle_alpha   98.69222343
_cell_angle_beta   98.61590395
_cell_angle_gamma   90.00000000
_symmetry_Int_Tables_number   1
_chemical_formula_structural   LiTmU2S3O2
_chemical_formula_sum   'Li1 Tm1 U2 S3 O2'
_cell_volume   167.90403729
_cell_formula_units_Z   1
loop_
 _symmetry_equiv_pos_site_id
 _symmetry_equiv_pos_as_xyz
  1  'x, y, z'
loop_
 _atom_site_type_symbol
 _atom_site_label
 _atom_site_symmetry_multiplicity
 _atom_site_fract_x
 _atom_site_fract_y
 _atom_site_fract_z
 _atom_site_occupancy
  Li  Li0  1  0.92139800  0.42139800  0.84279600  1
  Tm  Tm0  1  0.02997100  0.02997100  0.05994300  1
  U  U0  1  0.30133400  0.30133400  0.60266800  1
  U  U1  1  0.68970600  0.68970600  0.37941200  1
  S  S0  1  0.13456700  0.13456700  0.26913300  1
  S  S1  1  0.86185000  0.86185000  0.72370000  1
  S  S2  1  0.49776400  0.49776400  0.99552800  1
  O  O0  1  0.24601000  0.74601000  0.49201900  1
  O  O1  1  0.74597200  0.24597200  0.49194500  1
loop_
_geom_bond_atom_site_label_1
_geom_bond_atom_site_label_2
_geom_bond_distance
_geom_bond_site_symmetry_2
Li0 S1 2.361369 1_545
Li0 S1 2.361369 1_555
Li0 S2 2.617869 1_655
Li0 S2 2.617870 1_555
S0 Tm0 2.530498 1_555
S0 U1 2.952953 1_555
S0 U1 2.952955 1_455
S0 U1 2.952955 1_545
S0 U1 2.952958 1_445
S1 U0 3.013952 1_555
S1 U0 3.013952 1_655
S1 U0 3.013952 1_565
S1 U0 3.013952 1_665
S2 Tm0 2.747275 1_666
S2 Tm0 2.747277 1_566
S2 Tm0 2.747277 1_656
S2 Tm0 2.747280 1_556
O0 U0 2.300453 1_565
O0 U0 2.300456 1_555
O0 U1 2.301154 1_555
O0 U1 2.301157 1_455
O1 U0 2.287737 1_555
O1 U0 2.287740 1_655
O1 U1 2.313787 1_545
O1 U1 2.313790 1_555
