# generated using pymatgen
data_PuCd11
_symmetry_space_group_name_H-M   'P 1'
_cell_length_a   9.34749095
_cell_length_b   9.34749095
_cell_length_c   9.34749095
_cell_angle_alpha   90.00000000
_cell_angle_beta   90.00000000
_cell_angle_gamma   90.00000000
_symmetry_Int_Tables_number   1
_chemical_formula_structural   PuCd11
_chemical_formula_sum   'Pu3 Cd33'
_cell_volume   816.74250930
_cell_formula_units_Z   3
loop_
 _symmetry_equiv_pos_site_id
 _symmetry_equiv_pos_as_xyz
  1  'x, y, z'
loop_
 _atom_site_type_symbol
 _atom_site_label
 _atom_site_symmetry_multiplicity
 _atom_site_fract_x
 _atom_site_fract_y
 _atom_site_fract_z
 _atom_site_occupancy
  Pu  Pu0  1  0.50000000  0.00000000  0.00000000  1
  Pu  Pu1  1  0.00000000  0.00000000  0.50000000  1
  Pu  Pu2  1  0.00000000  0.50000000  0.00000000  1
  Cd  Cd0  1  0.50000000  0.50000000  0.50000000  1
  Cd  Cd1  1  0.15702248  0.15702248  0.84297752  1
  Cd  Cd2  1  0.15702248  0.84297752  0.15702248  1
  Cd  Cd3  1  0.84297752  0.15702248  0.15702248  1
  Cd  Cd4  1  0.84297752  0.84297752  0.84297752  1
  Cd  Cd5  1  0.84297752  0.84297752  0.15702248  1
  Cd  Cd6  1  0.84297752  0.15702248  0.84297752  1
  Cd  Cd7  1  0.15702248  0.84297752  0.84297752  1
  Cd  Cd8  1  0.15702248  0.15702248  0.15702248  1
  Cd  Cd9  1  0.00000000  0.34441468  0.65558532  1
  Cd  Cd10  1  0.34441468  0.34441468  -0.00000000  1
  Cd  Cd11  1  0.34441468  -0.00000000  0.65558532  1
  Cd  Cd12  1  0.00000000  0.65558532  0.34441468  1
  Cd  Cd13  1  0.34441468  0.65558532  -0.00000000  1
  Cd  Cd14  1  0.34441468  0.00000000  0.34441468  1
  Cd  Cd15  1  0.00000000  0.34441468  0.34441468  1
  Cd  Cd16  1  0.65558532  0.34441468  0.00000000  1
  Cd  Cd17  1  0.65558532  0.00000000  0.34441468  1
  Cd  Cd18  1  0.00000000  0.65558532  0.65558532  1
  Cd  Cd19  1  0.65558532  0.65558532  0.00000000  1
  Cd  Cd20  1  0.65558532  -0.00000000  0.65558532  1
  Cd  Cd21  1  0.50000000  0.26568213  0.73431787  1
  Cd  Cd22  1  0.26568213  0.26568213  0.50000000  1
  Cd  Cd23  1  0.26568213  0.50000000  0.73431787  1
  Cd  Cd24  1  0.50000000  0.73431787  0.26568213  1
  Cd  Cd25  1  0.26568213  0.73431787  0.50000000  1
  Cd  Cd26  1  0.26568213  0.50000000  0.26568213  1
  Cd  Cd27  1  0.50000000  0.26568213  0.26568213  1
  Cd  Cd28  1  0.73431787  0.26568213  0.50000000  1
  Cd  Cd29  1  0.73431787  0.50000000  0.26568213  1
  Cd  Cd30  1  0.50000000  0.73431787  0.73431787  1
  Cd  Cd31  1  0.73431787  0.73431787  0.50000000  1
  Cd  Cd32  1  0.73431787  0.50000000  0.73431787  1
loop_
_geom_bond_atom_site_label_1
_geom_bond_atom_site_label_2
_geom_bond_distance
_geom_bond_site_symmetry_2
Cd0 Cd22 3.097530 1_555
Cd0 Cd27 3.097530 1_555
Cd0 Cd26 3.097530 1_555
Cd0 Cd21 3.097530 1_555
Cd0 Cd23 3.097530 1_555
Cd0 Cd25 3.097530 1_555
Cd0 Cd24 3.097530 1_555
Cd0 Cd28 3.097530 1_555
Cd0 Cd29 3.097530 1_555
Cd0 Cd32 3.097530 1_555
Cd0 Cd30 3.097530 1_555
Cd0 Cd31 3.097530 1_555
Cd1 Cd9 2.879387 1_555
Cd1 Cd11 2.879387 1_555
Cd1 Cd10 2.879387 1_556
Cd1 Cd7 2.935532 1_545
Cd1 Cd6 2.935532 1_455
Cd1 Cd8 2.935532 1_556
Cd1 Cd21 3.513058 1_555
Cd1 Cd22 3.513058 1_555
Cd1 Cd23 3.513058 1_555
Cd1 Pu1 3.819290 1_555
Cd1 Pu2 3.819290 1_556
Cd1 Pu0 3.819290 1_556
Cd2 Cd5 2.935532 1_455
Cd2 Cd8 2.935532 1_565
Cd2 Cd7 2.935532 1_554
Cd2 Cd25 3.513058 1_555
Cd2 Cd26 3.513058 1_555
Cd2 Cd24 3.513058 1_555
Cd2 Pu1 3.819290 1_565
Cd2 Pu2 3.819290 1_555
Cd2 Pu0 3.819290 1_565
Cd3 Cd8 2.935532 1_655
Cd3 Cd6 2.935532 1_554
Cd3 Cd5 2.935532 1_545
Cd3 Pu1 3.819290 1_655
Cd3 Pu2 3.819290 1_655
Cd3 Pu0 3.819290 1_555
Cd4 Cd5 2.935532 1_556
Cd4 Cd7 2.935532 1_655
Cd4 Cd6 2.935532 1_565
Cd4 Pu0 3.819290 1_566
Cd4 Pu1 3.819290 1_665
Cd4 Pu2 3.819290 1_656
Cd5 Pu1 3.819290 1_665
Cd5 Pu2 3.819290 1_655
Cd5 Pu0 3.819290 1_565
Cd6 Cd9 2.879387 1_655
Cd6 Pu1 3.819290 1_655
Cd6 Pu2 3.819290 1_656
Cd6 Pu0 3.819290 1_556
Cd7 Pu0 3.819290 1_566
Cd7 Pu2 3.819290 1_556
Cd7 Pu1 3.819290 1_565
Cd8 Pu1 3.819290 1_555
Cd8 Pu2 3.819290 1_555
Cd8 Pu0 3.819290 1_555
Cd9 Pu2 3.532662 1_556
Cd9 Pu1 3.532662 1_555
Cd10 Cd8 2.879387 1_555
Cd10 Cd13 2.908665 1_555
Cd10 Cd16 2.908665 1_555
Cd10 Cd21 2.970570 1_554
Cd10 Cd23 2.970570 1_554
Cd10 Cd26 2.970570 1_555
Cd10 Cd27 2.970570 1_555
Cd10 Pu0 3.532662 1_555
Cd10 Pu2 3.532662 1_555
Cd11 Cd7 2.879387 1_545
Cd11 Cd14 2.908665 1_555
Cd11 Cd20 2.908665 1_555
Cd11 Cd30 2.970570 1_545
Cd11 Cd25 2.970570 1_545
Cd11 Cd21 2.970570 1_555
Cd11 Cd22 2.970570 1_555
Cd11 Pu0 3.532662 1_556
Cd11 Pu1 3.532662 1_555
Cd12 Cd5 2.879387 1_455
Cd12 Cd2 2.879387 1_555
Cd12 Cd18 2.908665 1_555
Cd12 Cd15 2.908665 1_555
Cd12 Cd31 2.970570 1_455
Cd12 Cd29 2.970570 1_455
Cd12 Cd25 2.970570 1_555
Cd12 Cd26 2.970570 1_555
Cd12 Pu1 3.532662 1_565
Cd12 Pu2 3.532662 1_555
Cd13 Cd7 2.879387 1_554
Cd13 Cd2 2.879387 1_555
Cd13 Cd19 2.908665 1_555
Cd13 Cd30 2.970570 1_554
Cd13 Cd23 2.970570 1_554
Cd13 Cd26 2.970570 1_555
Cd13 Cd24 2.970570 1_555
Cd13 Pu0 3.532662 1_565
Cd13 Pu2 3.532662 1_555
Cd14 Cd2 2.879387 1_545
Cd14 Cd8 2.879387 1_555
Cd14 Cd17 2.908665 1_555
Cd14 Cd25 2.970570 1_545
Cd14 Cd24 2.970570 1_545
Cd14 Cd22 2.970570 1_555
Cd14 Cd27 2.970570 1_555
Cd14 Pu0 3.532662 1_555
Cd14 Pu1 3.532662 1_555
Cd15 Cd3 2.879387 1_455
Cd15 Cd8 2.879387 1_555
Cd15 Cd9 2.908665 1_555
Cd15 Cd28 2.970570 1_455
Cd15 Cd29 2.970570 1_455
Cd15 Cd22 2.970570 1_555
Cd15 Cd26 2.970570 1_555
Cd15 Pu1 3.532662 1_555
Cd15 Pu2 3.532662 1_555
Cd16 Cd6 2.879387 1_554
Cd16 Cd3 2.879387 1_555
Cd16 Cd19 2.908665 1_555
Cd16 Cd32 2.970570 1_554
Cd16 Cd21 2.970570 1_554
Cd16 Cd29 2.970570 1_555
Cd16 Cd27 2.970570 1_555
Cd16 Pu2 3.532662 1_655
Cd16 Pu0 3.532662 1_555
Cd17 Cd3 2.879387 1_555
Cd17 Cd5 2.879387 1_545
Cd17 Cd20 2.908665 1_555
Cd17 Cd24 2.970570 1_545
Cd17 Cd31 2.970570 1_545
Cd17 Cd28 2.970570 1_555
Cd17 Cd27 2.970570 1_555
Cd17 Pu1 3.532662 1_655
Cd17 Pu0 3.532662 1_555
Cd18 Cd7 2.879387 1_555
Cd18 Cd4 2.879387 1_455
Cd18 Cd9 2.908665 1_555
Cd18 Cd32 2.970570 1_455
Cd18 Cd31 2.970570 1_455
Cd18 Cd23 2.970570 1_555
Cd18 Cd25 2.970570 1_555
Cd18 Pu1 3.532662 1_565
Cd18 Pu2 3.532662 1_556
Cd19 Cd4 2.879387 1_554
Cd19 Cd5 2.879387 1_555
Cd19 Cd32 2.970570 1_554
Cd19 Cd30 2.970570 1_554
Cd19 Cd29 2.970570 1_555
Cd19 Cd24 2.970570 1_555
Cd19 Pu0 3.532662 1_565
Cd19 Pu2 3.532662 1_655
Cd20 Cd4 2.879387 1_545
Cd20 Cd6 2.879387 1_555
Cd20 Cd30 2.970570 1_545
Cd20 Cd31 2.970570 1_545
Cd20 Cd21 2.970570 1_555
Cd20 Cd28 2.970570 1_555
Cd20 Pu0 3.532662 1_556
Cd20 Pu1 3.532662 1_655
Cd21 Cd23 3.097530 1_555
Cd21 Cd22 3.097530 1_555
Cd21 Cd32 3.097530 1_555
Cd21 Cd28 3.097530 1_555
Cd21 Pu0 3.512145 1_556
Cd21 Cd6 3.513058 1_555
Cd22 Cd9 2.970570 1_555
Cd22 Cd27 3.097530 1_555
Cd22 Cd26 3.097530 1_555
Cd22 Cd23 3.097530 1_555
Cd22 Pu1 3.512145 1_555
Cd22 Cd8 3.513058 1_555
Cd23 Cd9 2.970570 1_555
Cd23 Cd30 3.097530 1_555
Cd23 Cd25 3.097530 1_555
Cd23 Pu2 3.512145 1_556
Cd23 Cd7 3.513058 1_555
Cd24 Cd25 3.097530 1_555
Cd24 Cd26 3.097530 1_555
Cd24 Cd31 3.097530 1_555
Cd24 Cd29 3.097530 1_555
Cd24 Pu0 3.512145 1_565
Cd24 Cd5 3.513058 1_555
Cd25 Cd30 3.097530 1_555
Cd25 Cd26 3.097530 1_555
Cd25 Pu1 3.512145 1_565
Cd25 Cd7 3.513058 1_555
Cd26 Cd27 3.097530 1_555
Cd26 Pu2 3.512145 1_555
Cd26 Cd8 3.513058 1_555
Cd27 Cd28 3.097530 1_555
Cd27 Cd29 3.097530 1_555
Cd27 Pu0 3.512145 1_555
Cd27 Cd8 3.513058 1_555
Cd27 Cd3 3.513058 1_555
Cd28 Cd9 2.970570 1_655
Cd28 Cd29 3.097530 1_555
Cd28 Cd32 3.097530 1_555
Cd28 Pu1 3.512145 1_655
Cd28 Cd6 3.513058 1_555
Cd28 Cd3 3.513058 1_555
Cd29 Cd31 3.097530 1_555
Cd29 Pu2 3.512145 1_655
Cd29 Cd5 3.513058 1_555
Cd29 Cd3 3.513058 1_555
Cd30 Cd32 3.097530 1_555
Cd30 Cd31 3.097530 1_555
Cd30 Pu0 3.512145 1_566
Cd30 Cd4 3.513058 1_555
Cd30 Cd7 3.513058 1_555
Cd31 Cd32 3.097530 1_555
Cd31 Pu1 3.512145 1_665
Cd31 Cd5 3.513058 1_555
Cd31 Cd4 3.513058 1_555
Cd32 Cd9 2.970570 1_655
Cd32 Pu2 3.512145 1_656
Cd32 Cd4 3.513058 1_555
Cd32 Cd6 3.513058 1_555
