# generated using pymatgen
data_Mg8Ni3Pd
_symmetry_space_group_name_H-M   'P 1'
_cell_length_a   26.16888200
_cell_length_b   5.25809900
_cell_length_c   5.28955141
_cell_angle_alpha   60.35954054
_cell_angle_beta   90.00000000
_cell_angle_gamma   90.00000000
_symmetry_Int_Tables_number   1
_chemical_formula_structural   Mg8Ni3Pd
_chemical_formula_sum   'Mg24 Ni9 Pd3'
_cell_volume   632.59457539
_cell_formula_units_Z   3
loop_
 _symmetry_equiv_pos_site_id
 _symmetry_equiv_pos_as_xyz
  1  'x, y, z'
loop_
 _atom_site_type_symbol
 _atom_site_label
 _atom_site_symmetry_multiplicity
 _atom_site_fract_x
 _atom_site_fract_y
 _atom_site_fract_z
 _atom_site_occupancy
  Mg  Mg0  1  0.33475500  0.83257800  0.83975100  1
  Mg  Mg1  1  0.83333000  0.83513200  0.83416000  1
  Mg  Mg2  1  0.99850000  0.32652000  0.83978200  1
  Mg  Mg3  1  0.49873300  0.32663400  0.83949200  1
  Mg  Mg4  1  0.16657900  0.83851000  0.32205000  1
  Mg  Mg5  1  0.66808700  0.84060900  0.32539500  1
  Mg  Mg6  1  0.33475500  0.16742200  0.16024900  1
  Mg  Mg7  1  0.83333000  0.16486800  0.16584000  1
  Mg  Mg8  1  0.99850000  0.67348000  0.16021800  1
  Mg  Mg9  1  0.49873300  0.67336600  0.16050800  1
  Mg  Mg10  1  0.16657900  0.16149000  0.67795000  1
  Mg  Mg11  1  0.66808700  0.15939100  0.67460500  1
  Mg  Mg12  1  0.39222200  0.50000000  0.50000000  1
  Mg  Mg13  1  0.89186200  0.50000000  0.50000000  1
  Mg  Mg14  1  0.05745500  0.00000000  0.50000000  1
  Mg  Mg15  1  0.55752900  0.00000000  0.50000000  1
  Mg  Mg16  1  0.22455800  0.50000000  0.00000000  1
  Mg  Mg17  1  0.72556600  0.50000000  0.00000000  1
  Mg  Mg18  1  0.27589700  0.50000000  0.50000000  1
  Mg  Mg19  1  0.77478300  0.50000000  0.50000000  1
  Mg  Mg20  1  0.10879100  0.50000000  0.00000000  1
  Mg  Mg21  1  0.60914100  0.50000000  0.00000000  1
  Mg  Mg22  1  0.44114400  0.00000000  0.50000000  1
  Mg  Mg23  1  0.94104300  0.00000000  0.50000000  1
  Ni  Ni0  1  0.75045400  0.00000000  0.50000000  1
  Ni  Ni1  1  0.41667700  0.50000000  0.00000000  1
  Ni  Ni2  1  0.91625800  0.50000000  0.00000000  1
  Ni  Ni3  1  0.08289500  0.00000000  0.00000000  1
  Ni  Ni4  1  0.58330800  0.00000000  0.00000000  1
  Ni  Ni5  1  0.25047100  0.00000000  0.00000000  1
  Ni  Ni6  1  0.75041200  0.00000000  0.00000000  1
  Ni  Ni7  1  0.41671500  0.00000000  0.00000000  1
  Ni  Ni8  1  0.91621700  0.00000000  0.00000000  1
  Pd  Pd0  1  0.08275200  0.50000000  0.50000000  1
  Pd  Pd1  1  0.58333100  0.50000000  0.50000000  1
  Pd  Pd2  1  0.25055200  0.00000000  0.50000000  1
loop_
_geom_bond_atom_site_label_1
_geom_bond_atom_site_label_2
_geom_bond_distance
_geom_bond_site_symmetry_2
Mg0 Ni7 2.613755 1_566
Mg0 Ni1 2.627984 1_556
Mg0 Ni5 2.663887 1_566
Mg0 Pd2 2.700967 1_565
Mg0 Mg6 2.987671 1_566
Mg0 Mg6 3.039994 1_556
Mg0 Mg6 3.123983 1_565
Mg0 Mg22 3.192323 1_565
Mg0 Mg16 3.259801 1_556
Mg0 Mg12 3.387597 1_556
Mg0 Mg12 3.401293 1_565
Mg0 Mg18 3.403913 1_556
Mg0 Mg12 3.414346 1_555
Mg0 Mg18 3.417543 1_565
Mg0 Mg18 3.430534 1_555
Mg1 Ni8 2.641593 1_566
Mg1 Ni6 2.642259 1_566
Mg1 Ni2 2.656167 1_556
Mg1 Ni0 2.657769 1_565
Mg2 Ni8 2.619773 1_556
Mg2 Ni2 2.635679 1_556
Mg2 Ni3 2.665385 1_656
Mg2 Pd0 2.702183 1_655
Mg2 Mg8 2.984431 1_546
Mg2 Mg8 3.042973 1_556
Mg2 Mg8 3.124570 1_555
Mg2 Mg20 3.262672 1_656
Mg2 Mg23 3.387300 1_556
Mg2 Mg23 3.389812 1_555
Mg2 Mg23 3.425783 1_565
Mg3 Ni7 2.614373 1_556
Mg3 Ni1 2.632160 1_556
Mg3 Ni4 2.669581 1_556
Mg3 Pd1 2.708809 1_555
Mg3 Mg9 2.985471 1_546
Mg3 Mg9 3.044544 1_556
Mg3 Mg9 3.121909 1_555
Mg4 Ni3 2.643469 1_565
Mg4 Ni5 2.647980 1_565
Mg4 Pd0 2.684977 1_555
Mg4 Pd2 2.688215 1_565
Mg5 Ni6 2.622848 1_565
Mg5 Ni0 2.639507 1_565
Mg5 Ni4 2.675846 1_565
Mg5 Pd1 2.709951 1_555
Mg6 Ni7 2.613755 1_555
Mg6 Ni1 2.627984 1_555
Mg6 Ni5 2.663887 1_555
Mg6 Pd2 2.700967 1_555
Mg7 Ni8 2.641593 1_555
Mg7 Ni6 2.642259 1_555
Mg7 Ni2 2.656167 1_555
Mg7 Ni0 2.657769 1_555
Mg8 Ni8 2.619773 1_565
Mg8 Ni2 2.635679 1_555
Mg8 Ni3 2.665385 1_665
Mg8 Pd0 2.702183 1_655
Mg9 Ni7 2.614373 1_565
Mg9 Ni1 2.632160 1_555
Mg9 Ni4 2.669581 1_565
Mg9 Pd1 2.708809 1_555
Mg10 Ni3 2.643469 1_556
Mg10 Ni5 2.647980 1_556
Mg10 Pd0 2.684977 1_555
Mg10 Pd2 2.688215 1_555
Mg11 Ni6 2.622848 1_556
Mg11 Ni0 2.639507 1_555
Mg11 Ni4 2.675846 1_556
Mg11 Pd1 2.709951 1_555
Mg11 Mg5 2.992052 1_546
Mg11 Mg5 3.046982 1_545
Mg11 Mg5 3.114124 1_555
Mg11 Mg19 3.196928 1_555
Mg11 Mg15 3.269788 1_555
Mg11 Mg17 3.368003 1_546
Mg11 Mg21 3.385322 1_546
Mg11 Mg17 3.388443 1_556
Mg11 Mg21 3.405659 1_556
Mg11 Mg17 3.447030 1_555
Mg11 Mg21 3.463954 1_555
Mg12 Ni1 2.721100 1_555
Mg12 Ni1 2.721100 1_556
Mg12 Ni7 2.727641 1_556
Mg12 Ni7 2.727641 1_565
Mg12 Mg22 2.924192 1_555
Mg12 Mg22 2.924192 1_565
Mg12 Mg18 3.044095 1_555
Mg12 Mg3 3.194601 1_555
Mg12 Mg9 3.194601 1_555
Mg12 Mg6 3.387597 1_556
Mg12 Mg6 3.401293 1_565
Mg12 Mg6 3.414346 1_555
Mg13 Ni2 2.720738 1_556
Mg13 Ni2 2.720738 1_555
Mg13 Ni8 2.726795 1_565
Mg13 Ni8 2.726795 1_556
Mg13 Mg23 2.927166 1_565
Mg13 Mg23 2.927166 1_555
Mg13 Mg19 3.063827 1_555
Mg13 Mg2 3.198151 1_555
Mg13 Mg8 3.198151 1_555
Mg14 Pd0 2.711114 1_545
Mg14 Pd0 2.711114 1_555
Mg14 Ni3 2.727278 1_555
Mg14 Ni3 2.727278 1_556
Mg14 Mg20 2.972195 1_555
Mg14 Mg20 2.972195 1_546
Mg14 Mg23 3.046372 1_455
Mg14 Mg8 3.404883 1_446
Mg14 Mg2 3.404883 1_454
Mg14 Mg2 3.407381 1_455
Mg14 Mg8 3.407381 1_445
Mg14 Mg2 3.443168 1_445
Mg14 Mg8 3.443168 1_455
Mg15 Pd1 2.714371 1_545
Mg15 Pd1 2.714371 1_555
Mg15 Ni4 2.729457 1_555
Mg15 Ni4 2.729457 1_556
Mg15 Mg21 2.975467 1_546
Mg15 Mg21 2.975467 1_555
Mg15 Mg22 3.045665 1_555
Mg15 Mg5 3.269788 1_545
Mg15 Mg9 3.404189 1_546
Mg15 Mg3 3.404189 1_554
Mg15 Mg3 3.404766 1_555
Mg15 Mg9 3.404766 1_545
Mg15 Mg9 3.440823 1_555
Mg15 Mg3 3.440823 1_545
Mg16 Ni5 2.715095 1_555
Mg16 Ni5 2.715095 1_565
Mg16 Pd2 2.737138 1_555
Mg16 Pd2 2.737138 1_564
Mg16 Mg18 2.966444 1_555
Mg16 Mg18 2.966444 1_554
Mg16 Mg20 3.029493 1_555
Mg16 Mg6 3.259801 1_555
Mg17 Ni6 2.708256 1_565
Mg17 Ni6 2.708256 1_555
Mg17 Ni0 2.730089 1_555
Mg17 Ni0 2.730089 1_564
Mg17 Mg19 2.941711 1_554
Mg17 Mg19 2.941711 1_555
Mg17 Mg21 3.046712 1_555
Mg17 Mg5 3.368003 1_545
Mg17 Mg5 3.388443 1_555
Mg17 Mg5 3.447030 1_554
Mg18 Pd2 2.711421 1_565
Mg18 Pd2 2.711421 1_555
Mg18 Ni5 2.733482 1_565
Mg18 Ni5 2.733482 1_556
Mg18 Mg6 3.403913 1_556
Mg18 Mg6 3.417543 1_565
Mg18 Mg6 3.430534 1_555
Mg19 Ni0 2.705040 1_565
Mg19 Ni0 2.705040 1_555
Mg19 Ni6 2.726893 1_556
Mg19 Ni6 2.726893 1_565
Mg19 Mg5 3.196928 1_555
Mg20 Ni3 2.714984 1_565
Mg20 Ni3 2.714984 1_555
Mg20 Pd0 2.731146 1_554
Mg20 Pd0 2.731146 1_555
Mg20 Mg8 3.262672 1_455
Mg21 Ni4 2.714573 1_565
Mg21 Ni4 2.714573 1_555
Mg21 Pd1 2.729657 1_555
Mg21 Pd1 2.729657 1_554
Mg21 Mg9 3.265746 1_555
Mg21 Mg3 3.265746 1_554
Mg21 Mg5 3.385322 1_545
Mg21 Mg5 3.405659 1_555
Mg21 Mg5 3.463954 1_554
Mg22 Ni7 2.720940 1_556
Mg22 Ni7 2.720940 1_555
Mg22 Ni1 2.727481 1_546
Mg22 Ni1 2.727481 1_555
Mg22 Mg6 3.192323 1_555
Mg22 Mg9 3.390030 1_546
Mg22 Mg3 3.390030 1_554
Mg22 Mg3 3.390609 1_555
Mg22 Mg9 3.390609 1_545
Mg22 Mg9 3.426816 1_555
Mg22 Mg3 3.426816 1_545
Mg23 Ni8 2.723400 1_555
Mg23 Ni8 2.723400 1_556
Mg23 Ni2 2.729447 1_555
Mg23 Ni2 2.729447 1_546
Mg23 Mg8 3.387300 1_546
Mg23 Mg8 3.389812 1_545
Mg23 Mg8 3.425783 1_555
Ni0 Ni6 2.644776 1_555
Ni0 Ni6 2.644776 1_556
Ni1 Ni7 2.629050 1_565
Ni1 Ni7 2.629050 1_555
Ni2 Ni8 2.629050 1_555
Ni2 Ni8 2.629050 1_565
Ni3 Pd0 2.651267 1_554
Ni3 Pd0 2.651267 1_545
Ni4 Pd1 2.651265 1_545
Ni4 Pd1 2.651265 1_554
Ni5 Pd2 2.644777 1_555
Ni5 Pd2 2.644777 1_554
