# generated using pymatgen
data_SrMg6Zn
_symmetry_space_group_name_H-M   'P 1'
_cell_length_a   5.12336900
_cell_length_b   6.76017000
_cell_length_c   11.68400300
_cell_angle_alpha   90.00000000
_cell_angle_beta   90.00000000
_cell_angle_gamma   90.00000000
_symmetry_Int_Tables_number   1
_chemical_formula_structural   SrMg6Zn
_chemical_formula_sum   'Sr2 Mg12 Zn2'
_cell_volume   404.67363771
_cell_formula_units_Z   2
loop_
 _symmetry_equiv_pos_site_id
 _symmetry_equiv_pos_as_xyz
  1  'x, y, z'
loop_
 _atom_site_type_symbol
 _atom_site_label
 _atom_site_symmetry_multiplicity
 _atom_site_fract_x
 _atom_site_fract_y
 _atom_site_fract_z
 _atom_site_occupancy
  Sr  Sr0  1  0.50000000  0.50000000  0.17442400  1
  Sr  Sr1  1  0.50000000  0.00000000  0.67442400  1
  Mg  Mg0  1  0.00000000  0.23031400  0.07207300  1
  Mg  Mg1  1  0.00000000  0.76968600  0.07207300  1
  Mg  Mg2  1  0.00000000  0.50000000  0.83078100  1
  Mg  Mg3  1  0.50000000  0.23989400  0.92084800  1
  Mg  Mg4  1  0.50000000  0.76010600  0.92084800  1
  Mg  Mg5  1  0.50000000  0.50000000  0.66249000  1
  Mg  Mg6  1  0.00000000  0.73031400  0.57207300  1
  Mg  Mg7  1  0.00000000  0.26968600  0.57207300  1
  Mg  Mg8  1  0.00000000  0.00000000  0.33078100  1
  Mg  Mg9  1  0.50000000  0.73989400  0.42084800  1
  Mg  Mg10  1  0.50000000  0.26010600  0.42084800  1
  Mg  Mg11  1  0.50000000  0.00000000  0.16249000  1
  Zn  Zn0  1  0.00000000  0.50000000  0.34646400  1
  Zn  Zn1  1  0.00000000  0.00000000  0.84646400  1
loop_
_geom_bond_atom_site_label_1
_geom_bond_atom_site_label_2
_geom_bond_distance
_geom_bond_site_symmetry_2
Sr0 Zn0 3.256193 1_655
Sr0 Zn0 3.256193 1_555
Sr1 Zn1 3.256193 1_555
Sr1 Zn1 3.256193 1_655
Mg0 Zn1 3.061488 1_554
Mg0 Mg3 3.112620 1_554
Mg0 Mg3 3.112620 1_454
Mg0 Mg1 3.113924 1_545
Mg0 Mg11 3.178428 1_455
Mg0 Mg11 3.178428 1_555
Mg0 Mg2 3.357378 1_554
Mg0 Sr0 3.363943 1_455
Mg0 Sr0 3.363943 1_555
Mg0 Mg8 3.400164 1_555
Mg1 Zn1 3.061488 1_564
Mg1 Mg4 3.112620 1_454
Mg1 Mg4 3.112620 1_554
Mg1 Mg11 3.178428 1_465
Mg1 Mg11 3.178428 1_565
Mg1 Mg2 3.357378 1_554
Mg1 Sr0 3.363943 1_455
Mg1 Sr0 3.363943 1_555
Mg1 Mg8 3.400164 1_565
Mg2 Mg5 3.229336 1_555
Mg2 Mg5 3.229336 1_455
Mg2 Mg4 3.280470 1_455
Mg2 Mg4 3.280470 1_555
Mg2 Mg3 3.280470 1_555
Mg2 Mg3 3.280470 1_455
Mg2 Zn1 3.385048 1_565
Mg2 Zn1 3.385048 1_555
Mg2 Mg6 3.400164 1_555
Mg2 Mg7 3.400164 1_555
Mg3 Zn1 3.153975 1_655
Mg3 Zn1 3.153975 1_555
Mg3 Mg4 3.243448 1_545
Mg3 Sr1 3.304526 1_555
Mg3 Sr0 3.445274 1_556
Mg3 Mg5 3.493439 1_555
Mg3 Mg4 3.516722 1_555
Mg4 Zn1 3.153975 1_565
Mg4 Zn1 3.153975 1_665
Mg4 Sr1 3.304526 1_565
Mg4 Sr0 3.445274 1_556
Mg4 Mg5 3.493439 1_555
Mg5 Mg6 3.178428 1_655
Mg5 Mg7 3.178428 1_655
Mg5 Mg6 3.178428 1_555
Mg5 Mg7 3.178428 1_555
Mg5 Mg9 3.255959 1_555
Mg5 Sr1 3.382960 1_565
Mg5 Sr1 3.382960 1_555
Mg6 Zn0 3.061488 1_555
Mg6 Mg9 3.112620 1_455
Mg6 Mg9 3.112620 1_555
Mg6 Mg7 3.113924 1_555
Mg6 Mg8 3.357378 1_565
Mg6 Sr1 3.363943 1_565
Mg6 Sr1 3.363943 1_465
Mg7 Zn0 3.061488 1_555
Mg7 Mg8 3.357378 1_555
Mg7 Sr1 3.363943 1_455
Mg7 Sr1 3.363943 1_555
Mg8 Mg9 3.280470 1_445
Mg8 Mg9 3.280470 1_545
Mg8 Zn0 3.385048 1_555
Mg8 Zn0 3.385048 1_545
Mg9 Zn0 3.153975 1_655
Mg9 Zn0 3.153975 1_555
Mg9 Sr0 3.304526 1_555
Mg9 Sr1 3.445274 1_565
Mg10 Mg7 3.112620 1_655
Mg10 Mg7 3.112620 1_555
Mg10 Zn0 3.153975 1_555
Mg10 Zn0 3.153975 1_655
Mg10 Mg9 3.243448 1_555
Mg10 Mg5 3.255959 1_555
Mg10 Mg8 3.280470 1_555
Mg10 Mg8 3.280470 1_655
Mg10 Sr0 3.304526 1_555
Mg10 Sr1 3.445274 1_555
Mg10 Mg11 3.493439 1_555
Mg10 Mg9 3.516722 1_545
Mg11 Mg8 3.229336 1_655
Mg11 Mg8 3.229336 1_555
Mg11 Mg3 3.255959 1_554
Mg11 Mg4 3.255959 1_544
Mg11 Sr0 3.382960 1_545
Mg11 Sr0 3.382960 1_555
Mg11 Mg9 3.493439 1_545
