# generated using pymatgen
data_Li2FeCuO4
_symmetry_space_group_name_H-M   'P 1'
_cell_length_a   5.13633483
_cell_length_b   5.13636613
_cell_length_c   5.82908700
_cell_angle_alpha   90.00000000
_cell_angle_beta   90.00000000
_cell_angle_gamma   69.17848333
_symmetry_Int_Tables_number   1
_chemical_formula_structural   Li2FeCuO4
_chemical_formula_sum   'Li4 Fe2 Cu2 O8'
_cell_volume   143.74027834
_cell_formula_units_Z   2
loop_
 _symmetry_equiv_pos_site_id
 _symmetry_equiv_pos_as_xyz
  1  'x, y, z'
loop_
 _atom_site_type_symbol
 _atom_site_label
 _atom_site_symmetry_multiplicity
 _atom_site_fract_x
 _atom_site_fract_y
 _atom_site_fract_z
 _atom_site_occupancy
  Li  Li0  1  0.00000000  0.50000000  0.25001300  1
  Li  Li1  1  0.50000000  0.00000000  0.74998700  1
  Li  Li2  1  0.50000000  0.50000000  0.00001400  1
  Li  Li3  1  0.00000000  0.00000000  0.49998600  1
  Fe  Fe0  1  0.50000100  0.50000200  0.50001200  1
  Fe  Fe1  1  0.00000200  0.00000100  0.99999500  1
  Cu  Cu0  1  0.50000000  0.00000000  0.24998700  1
  Cu  Cu1  1  0.00000000  0.49999900  0.75000100  1
  O  O0  1  0.27117800  0.77118300  0.24999800  1
  O  O1  1  0.77120500  0.27119900  0.75000300  1
  O  O2  1  0.72882100  0.22881600  0.24999900  1
  O  O3  1  0.22879400  0.72880100  0.75000300  1
  O  O4  1  0.23591700  0.23595200  0.99998000  1
  O  O5  1  0.73595200  0.73591200  0.50002100  1
  O  O6  1  0.76408300  0.76404800  0.99998000  1
  O  O7  1  0.26404800  0.26408800  0.50002100  1
loop_
_geom_bond_atom_site_label_1
_geom_bond_atom_site_label_2
_geom_bond_distance
_geom_bond_site_symmetry_2
Li0 O7 2.064736 1_555
Li0 O5 2.064736 1_455
Li0 O4 2.064849 1_554
Li0 O6 2.064849 1_454
Li0 O0 2.293354 1_555
Li0 O2 2.293363 1_455
Li1 O5 2.064729 1_545
Li1 O7 2.064729 1_555
Li1 O4 2.064828 1_555
Li1 O6 2.064828 1_545
Li1 O1 2.293536 1_555
Li1 O3 2.293540 1_545
Li2 O0 2.069069 1_555
Li2 O2 2.069074 1_555
Li2 O1 2.069196 1_554
Li2 O3 2.069198 1_554
Li2 O6 2.233183 1_554
Li2 O4 2.233183 1_554
Li3 O2 2.069060 1_455
Li3 O0 2.069063 1_545
Li3 O3 2.069196 1_545
Li3 O1 2.069197 1_455
Li3 O7 2.233204 1_555
Li3 O5 2.233204 1_445
Fe0 O5 1.995247 1_555
Fe0 O7 1.995273 1_555
Fe0 O1 2.069115 1_555
Fe0 O3 2.069115 1_555
Fe0 O0 2.069189 1_555
Fe0 O2 2.069192 1_555
Fe1 O4 1.995269 1_555
Fe1 O6 1.995294 1_445
Fe1 O3 2.069092 1_545
Fe1 O1 2.069096 1_455
Fe1 O0 2.069122 1_546
Fe1 O2 2.069133 1_456
Cu0 O2 1.935102 1_555
Cu0 O0 1.935110 1_545
Cu0 O4 2.064885 1_554
Cu0 O6 2.064885 1_544
Cu0 O5 2.065009 1_545
Cu0 O7 2.065009 1_555
Cu1 O1 1.934924 1_455
Cu1 O3 1.934928 1_555
Cu1 O7 2.064619 1_555
Cu1 O5 2.064623 1_455
Cu1 O4 2.064625 1_555
Cu1 O6 2.064629 1_455
