# generated using pymatgen
data_Ti6P2O
_symmetry_space_group_name_H-M   'P 1'
_cell_length_a   5.18666438
_cell_length_b   5.18666438
_cell_length_c   7.69550443
_cell_angle_alpha   88.84254669
_cell_angle_beta   88.84254669
_cell_angle_gamma   36.89600633
_symmetry_Int_Tables_number   1
_chemical_formula_structural   Ti6P2O
_chemical_formula_sum   'Ti6 P2 O1'
_cell_volume   124.25958267
_cell_formula_units_Z   1
loop_
 _symmetry_equiv_pos_site_id
 _symmetry_equiv_pos_as_xyz
  1  'x, y, z'
loop_
 _atom_site_type_symbol
 _atom_site_label
 _atom_site_symmetry_multiplicity
 _atom_site_fract_x
 _atom_site_fract_y
 _atom_site_fract_z
 _atom_site_occupancy
  Ti  Ti0  1  0.55548764  0.55548764  0.75997682  1
  Ti  Ti1  1  0.44451236  0.44451236  0.24002318  1
  Ti  Ti2  1  0.86238104  0.86238104  0.54712395  1
  Ti  Ti3  1  0.13761896  0.13761896  0.45287605  1
  Ti  Ti4  1  0.86055804  0.86055804  0.94398499  1
  Ti  Ti5  1  0.13944196  0.13944196  0.05601501  1
  P  P0  1  0.25095423  0.25095423  0.75124431  1
  P  P1  1  0.74904577  0.74904577  0.24875569  1
  O  O0  1  0.50000000  0.50000000  0.50000000  1
loop_
_geom_bond_atom_site_label_1
_geom_bond_atom_site_label_2
_geom_bond_distance
_geom_bond_site_symmetry_2
P0 Ti4 2.474909 1_545
P0 Ti4 2.474909 1_455
P0 Ti2 2.508019 1_545
P0 Ti2 2.508019 1_455
P0 Ti0 2.528332 1_545
P0 Ti0 2.528332 1_455
P0 Ti5 2.568115 1_556
P0 Ti3 2.573885 1_555
P1 Ti5 2.474909 1_565
P1 Ti5 2.474909 1_655
P1 Ti3 2.508019 1_565
P1 Ti3 2.508019 1_655
P1 Ti1 2.528332 1_565
P1 Ti1 2.528332 1_655
P1 Ti4 2.568115 1_554
P1 Ti2 2.573885 1_555
O0 Ti0 2.085009 1_555
O0 Ti1 2.085009 1_555
O0 Ti2 2.153670 1_545
O0 Ti2 2.153670 1_455
O0 Ti3 2.153670 1_655
O0 Ti3 2.153670 1_565
