# generated using pymatgen
data_NaGaP2O7
_symmetry_space_group_name_H-M   'P 1'
_cell_length_a   7.92306500
_cell_length_b   7.37408800
_cell_length_c   9.57433286
_cell_angle_alpha   67.84418012
_cell_angle_beta   90.00000000
_cell_angle_gamma   90.00000000
_symmetry_Int_Tables_number   1
_chemical_formula_structural   NaGaP2O7
_chemical_formula_sum   'Na4 Ga4 P8 O28'
_cell_volume   518.08003316
_cell_formula_units_Z   4
loop_
 _symmetry_equiv_pos_site_id
 _symmetry_equiv_pos_as_xyz
  1  'x, y, z'
loop_
 _atom_site_type_symbol
 _atom_site_label
 _atom_site_symmetry_multiplicity
 _atom_site_fract_x
 _atom_site_fract_y
 _atom_site_fract_z
 _atom_site_occupancy
  Na  Na0  1  0.52500800  0.71039400  0.29714800  1
  Na  Na1  1  0.47499200  0.28960600  0.70285200  1
  Na  Na2  1  0.02500800  0.28960600  0.20285200  1
  Na  Na3  1  0.97499200  0.71039400  0.79714800  1
  Ga  Ga0  1  0.99319900  0.74192800  0.24914900  1
  Ga  Ga1  1  0.00680100  0.25807200  0.75085100  1
  Ga  Ga2  1  0.49319900  0.25807200  0.25085100  1
  Ga  Ga3  1  0.50680100  0.74192800  0.74914900  1
  P  P0  1  0.28952600  0.67196600  0.04634100  1
  P  P1  1  0.71047400  0.32803400  0.95365900  1
  P  P2  1  0.78952600  0.32803400  0.45365900  1
  P  P3  1  0.21047400  0.67196600  0.54634100  1
  P  P4  1  0.74569800  0.92591700  0.45552600  1
  P  P5  1  0.25430200  0.07408300  0.54447400  1
  P  P6  1  0.24569800  0.07408300  0.04447400  1
  P  P7  1  0.75430200  0.92591700  0.95552600  1
  O  O0  1  0.34782100  0.87659100  0.05993300  1
  O  O1  1  0.65217900  0.12340900  0.94006700  1
  O  O2  1  0.84782100  0.12340900  0.44006700  1
  O  O3  1  0.15217900  0.87659100  0.55993300  1
  O  O4  1  0.91583100  0.46980800  0.34870900  1
  O  O5  1  0.08416900  0.53019200  0.65129100  1
  O  O6  1  0.41583100  0.53019200  0.15129100  1
  O  O7  1  0.58416900  0.46980800  0.84870900  1
  O  O8  1  0.60563700  0.36415500  0.39689100  1
  O  O9  1  0.39436300  0.63584500  0.60310900  1
  O  O10  1  0.10563700  0.63584500  0.10310900  1
  O  O11  1  0.89436300  0.36415500  0.89689100  1
  O  O12  1  0.86654000  0.81542600  0.39418000  1
  O  O13  1  0.13346000  0.18457400  0.60582000  1
  O  O14  1  0.36654000  0.18457400  0.10582000  1
  O  O15  1  0.63346000  0.81542600  0.89418000  1
  O  O16  1  0.78693200  0.80893900  0.12269400  1
  O  O17  1  0.21306800  0.19106100  0.87730600  1
  O  O18  1  0.28693200  0.19106100  0.37730600  1
  O  O19  1  0.71306800  0.80893900  0.62269400  1
  O  O20  1  0.58356500  0.98914700  0.36098800  1
  O  O21  1  0.41643500  0.01085300  0.63901200  1
  O  O22  1  0.08356500  0.01085300  0.13901200  1
  O  O23  1  0.91643500  0.98914700  0.86098800  1
  O  O24  1  0.70273000  0.30685000  0.11873700  1
  O  O25  1  0.29727000  0.69315000  0.88126300  1
  O  O26  1  0.20273000  0.69315000  0.38126300  1
  O  O27  1  0.79727000  0.30685000  0.61873700  1
loop_
_geom_bond_atom_site_label_1
_geom_bond_atom_site_label_2
_geom_bond_distance
_geom_bond_site_symmetry_2
Na0 O20 2.400370 1_555
Na0 O6 2.421539 1_555
Na0 O8 2.449458 1_555
Na0 O0 2.555705 1_555
Na0 O16 2.590182 1_555
Na0 O26 2.665992 1_555
Na1 O21 2.400370 1_555
Na1 O7 2.421539 1_555
Na1 O9 2.449458 1_555
Na1 O1 2.555705 1_555
Na1 O17 2.590182 1_555
Na1 O27 2.665992 1_555
Na2 O22 2.400370 1_555
Na2 O4 2.421539 1_455
Na2 O10 2.449458 1_555
Na2 O2 2.555705 1_455
Na2 O18 2.590182 1_555
Na2 O24 2.665992 1_455
Na3 O23 2.400370 1_555
Na3 O5 2.421539 1_655
Na3 O11 2.449458 1_555
Na3 O3 2.555705 1_655
Na3 O19 2.590182 1_555
Na3 O25 2.665992 1_655
Ga0 O12 1.948484 1_555
Ga0 O4 1.966791 1_555
Ga0 O16 1.982324 1_555
Ga0 O22 1.994973 1_665
Ga0 O26 2.035243 1_655
Ga0 O10 2.045878 1_655
Ga1 O13 1.948484 1_555
Ga1 O5 1.966791 1_555
Ga1 O17 1.982324 1_555
Ga1 O23 1.994973 1_445
Ga1 O27 2.035243 1_455
Ga1 O11 2.045878 1_455
Ga2 O14 1.948484 1_555
Ga2 O6 1.966791 1_555
Ga2 O18 1.982324 1_555
Ga2 O20 1.994973 1_545
Ga2 O24 2.035243 1_555
Ga2 O8 2.045878 1_555
Ga3 O15 1.948484 1_555
Ga3 O7 1.966791 1_555
Ga3 O19 1.982324 1_555
Ga3 O21 1.994973 1_565
Ga3 O25 2.035243 1_555
Ga3 O9 2.045878 1_555
O0 P6 1.623235 1_565
O0 P0 1.629484 1_555
O1 P7 1.623235 1_545
O1 P1 1.629484 1_555
O2 P4 1.623235 1_545
O2 P2 1.629484 1_555
O3 P5 1.623235 1_565
O3 P3 1.629484 1_555
O4 P2 1.520445 1_555
O5 P3 1.520445 1_555
O6 P0 1.520445 1_555
O7 P1 1.520445 1_555
O8 P2 1.542695 1_555
O9 P3 1.542695 1_555
O10 P0 1.542695 1_555
O11 P1 1.542695 1_555
O12 P4 1.512107 1_555
O13 P5 1.512107 1_555
O14 P6 1.512107 1_555
O15 P7 1.512107 1_555
O16 P7 1.526846 1_554
O17 P6 1.526846 1_556
O18 P5 1.526846 1_555
O19 P4 1.526846 1_555
O20 P4 1.539003 1_555
O21 P5 1.539003 1_555
O22 P6 1.539003 1_555
O23 P7 1.539003 1_555
O24 P1 1.529693 1_554
O25 P0 1.529693 1_556
O26 P3 1.529693 1_555
O27 P2 1.529693 1_555
