# generated using pymatgen
data_MoP4C13O2
_symmetry_space_group_name_H-M   'P 1'
_cell_length_a   10.17573282
_cell_length_b   10.17573282
_cell_length_c   14.61365000
_cell_angle_alpha   90.00000000
_cell_angle_beta   90.00000000
_cell_angle_gamma   100.12480897
_symmetry_Int_Tables_number   1
_chemical_formula_structural   MoP4C13O2
_chemical_formula_sum   'Mo2 P8 C26 O4'
_cell_volume   1489.61376709
_cell_formula_units_Z   2
loop_
 _symmetry_equiv_pos_site_id
 _symmetry_equiv_pos_as_xyz
  1  'x, y, z'
loop_
 _atom_site_type_symbol
 _atom_site_label
 _atom_site_symmetry_multiplicity
 _atom_site_fract_x
 _atom_site_fract_y
 _atom_site_fract_z
 _atom_site_occupancy
  Mo  Mo0  1  0.21536100  0.21536100  0.25000000  1
  Mo  Mo1  1  0.78463900  0.78463900  0.75000000  1
  P  P0  1  0.29124800  0.29124800  0.09002300  1
  P  P1  1  0.70875200  0.70875200  0.90997700  1
  P  P2  1  0.29124800  0.29124800  0.40997700  1
  P  P3  1  0.70875200  0.70875200  0.59002300  1
  P  P4  1  0.25195600  0.97986300  0.25000000  1
  P  P5  1  0.02013700  0.74804400  0.75000000  1
  P  P6  1  0.74804400  0.02013700  0.75000000  1
  P  P7  1  0.97986300  0.25195600  0.25000000  1
  C  C0  1  0.50322600  0.50322600  0.25000000  1
  C  C1  1  0.49677400  0.49677400  0.75000000  1
  C  C2  1  0.35131800  0.20077400  0.98924100  1
  C  C3  1  0.79922600  0.64868200  0.01075900  1
  C  C4  1  0.35131800  0.20077400  0.51075900  1
  C  C5  1  0.79922600  0.64868200  0.48924100  1
  C  C6  1  0.64868200  0.79922600  0.01075900  1
  C  C7  1  0.20077400  0.35131800  0.98924100  1
  C  C8  1  0.64868200  0.79922600  0.48924100  1
  C  C9  1  0.20077400  0.35131800  0.51075900  1
  C  C10  1  0.22471300  0.22471300  0.97089400  1
  C  C11  1  0.77528700  0.77528700  0.02910600  1
  C  C12  1  0.22471300  0.22471300  0.52910600  1
  C  C13  1  0.77528700  0.77528700  0.47089400  1
  C  C14  1  0.32354500  0.86490100  0.33000300  1
  C  C15  1  0.13509900  0.67645500  0.66999700  1
  C  C16  1  0.32354500  0.86490100  0.16999700  1
  C  C17  1  0.13509900  0.67645500  0.83000300  1
  C  C18  1  0.67645500  0.13509900  0.66999700  1
  C  C19  1  0.86490100  0.32354500  0.33000300  1
  C  C20  1  0.67645500  0.13509900  0.83000300  1
  C  C21  1  0.86490100  0.32354500  0.16999700  1
  C  C22  1  0.39650900  0.87767800  0.25000000  1
  C  C23  1  0.12232200  0.60349100  0.75000000  1
  C  C24  1  0.60349100  0.12232200  0.75000000  1
  C  C25  1  0.87767800  0.39650900  0.25000000  1
  O  O0  1  0.57768800  0.42703200  0.25000000  1
  O  O1  1  0.57296800  0.42231200  0.75000000  1
  O  O2  1  0.42231200  0.57296800  0.75000000  1
  O  O3  1  0.42703200  0.57768800  0.25000000  1
loop_
_geom_bond_atom_site_label_1
_geom_bond_atom_site_label_2
_geom_bond_distance
_geom_bond_site_symmetry_2
Mo0 P7 2.488970 1_455
Mo0 P4 2.488970 1_545
Mo0 P2 2.539387 1_555
Mo0 P0 2.539387 1_555
Mo1 P6 2.488970 1_565
Mo1 P5 2.488970 1_655
Mo1 P3 2.539387 1_555
Mo1 P1 2.539387 1_555
C0 O0 1.175500 1_555
C0 O3 1.175500 1_555
C1 O1 1.175500 1_555
C1 O2 1.175500 1_555
C2 P0 1.894250 1_556
C3 P1 1.894250 1_554
C4 P2 1.894250 1_555
C5 P3 1.894250 1_555
C6 P1 1.894250 1_554
C7 P0 1.894250 1_556
C8 P3 1.894250 1_555
C9 P2 1.894250 1_555
C10 C7 1.378868 1_555
C10 C2 1.378868 1_555
C10 P0 1.945861 1_556
C11 C6 1.378868 1_555
C11 C3 1.378868 1_555
C11 P1 1.945861 1_554
C12 C4 1.378868 1_555
C12 C9 1.378868 1_555
C12 P2 1.945861 1_555
C13 C8 1.378868 1_555
C13 C5 1.378868 1_555
C13 P3 1.945861 1_555
C14 C22 1.378801 1_555
C14 P4 1.888292 1_555
C15 C23 1.378801 1_555
C15 P5 1.888292 1_555
C16 C22 1.378801 1_555
C16 P4 1.888292 1_555
C17 C23 1.378801 1_555
C17 P5 1.888292 1_555
C18 C24 1.378801 1_555
C18 P6 1.888292 1_555
C19 C25 1.378801 1_555
C19 P7 1.888292 1_555
C20 C24 1.378801 1_555
C20 P6 1.888292 1_555
C21 C25 1.378801 1_555
C21 P7 1.888292 1_555
C22 P4 1.944888 1_555
C23 P5 1.944888 1_555
C24 P6 1.944888 1_555
C25 P7 1.944888 1_555
