# generated using pymatgen
data_ThMnAl
_symmetry_space_group_name_H-M   'P 1'
_cell_length_a   5.49194808
_cell_length_b   5.49194808
_cell_length_c   5.49194808
_cell_angle_alpha   119.02417441
_cell_angle_beta   119.00744238
_cell_angle_gamma   91.71329465
_symmetry_Int_Tables_number   1
_chemical_formula_structural   ThMnAl
_chemical_formula_sum   'Th2 Mn2 Al2'
_cell_volume   118.81388764
_cell_formula_units_Z   2
loop_
 _symmetry_equiv_pos_site_id
 _symmetry_equiv_pos_as_xyz
  1  'x, y, z'
loop_
 _atom_site_type_symbol
 _atom_site_label
 _atom_site_symmetry_multiplicity
 _atom_site_fract_x
 _atom_site_fract_y
 _atom_site_fract_z
 _atom_site_occupancy
  Th  Th0  1  0.13524100  0.88524100  0.25000000  1
  Th  Th1  1  0.86475900  0.11475900  0.75000000  1
  Mn  Mn0  1  0.50000000  0.00000000  0.00000000  1
  Mn  Mn1  1  0.50000000  0.50000000  0.50000000  1
  Al  Al0  1  0.00000000  0.50000000  0.50000000  1
  Al  Al1  1  0.50000000  0.50000000  0.00000000  1
loop_
_geom_bond_atom_site_label_1
_geom_bond_atom_site_label_2
_geom_bond_distance
_geom_bond_site_symmetry_2
Th0 Th1 3.294004 1_464
Th0 Th1 3.294004 1_565
Th0 Th1 3.470620 1_454
Th0 Th1 3.470620 1_465
Mn0 Mn1 2.786376 1_544
Mn0 Mn1 2.786376 1_555
Mn0 Th0 3.118803 1_545
Mn0 Th1 3.118803 1_554
Mn0 Th0 3.283145 1_645
Mn0 Th0 3.283145 1_544
Mn0 Th1 3.283145 1_454
Mn0 Th1 3.283145 1_555
Mn1 Th1 3.118803 1_565
Mn1 Th0 3.118803 1_545
Mn1 Th0 3.283145 1_555
Mn1 Th1 3.283145 1_454
Mn1 Th0 3.283145 1_656
Mn1 Th1 3.283145 1_555
Al0 Mn1 2.745974 1_455
Al0 Mn0 2.745974 1_566
Al0 Mn1 2.745974 1_555
Al0 Mn0 2.745974 1_455
Al0 Al1 2.787067 1_556
Al0 Al1 2.787067 1_455
Al0 Th1 3.236743 1_454
Al0 Th0 3.236743 1_556
Al0 Th1 3.236743 1_465
Al0 Th0 3.236743 1_545
Al0 Th1 3.259884 1_455
Al0 Th0 3.259884 1_555
Al1 Mn1 2.745974 1_555
Al1 Mn0 2.745974 1_565
Al1 Mn1 2.745974 1_554
Al1 Mn0 2.745974 1_555
Al1 Th1 3.236743 1_554
Al1 Th0 3.236743 1_544
Al1 Th0 3.236743 1_555
Al1 Th1 3.236743 1_565
Al1 Th1 3.259884 1_454
Al1 Th0 3.259884 1_655
