# generated using pymatgen
data_MgTi
_symmetry_space_group_name_H-M   'P 1'
_cell_length_a   16.21911044
_cell_length_b   16.21911044
_cell_length_c   9.76846400
_cell_angle_alpha   90.00000000
_cell_angle_beta   90.00000000
_cell_angle_gamma   158.71494188
_symmetry_Int_Tables_number   1
_chemical_formula_structural   MgTi
_chemical_formula_sum   'Mg24 Ti24'
_cell_volume   932.81781988
_cell_formula_units_Z   24
loop_
 _symmetry_equiv_pos_site_id
 _symmetry_equiv_pos_as_xyz
  1  'x, y, z'
loop_
 _atom_site_type_symbol
 _atom_site_label
 _atom_site_symmetry_multiplicity
 _atom_site_fract_x
 _atom_site_fract_y
 _atom_site_fract_z
 _atom_site_occupancy
  Mg  Mg0_0  1  0.16821150  0.33178850  0.00000000  1
  Mg  Mg0_1  1  0.16821150  0.33178850  0.50000000  1
  Mg  Mg0_2  1  0.16821150  0.83178850  0.00000000  1
  Mg  Mg0_3  1  0.16821150  0.83178850  0.50000000  1
  Mg  Mg0_4  1  0.66821150  0.33178850  0.00000000  1
  Mg  Mg0_5  1  0.66821150  0.33178850  0.50000000  1
  Mg  Mg0_6  1  0.66821150  0.83178850  0.00000000  1
  Mg  Mg0_7  1  0.66821150  0.83178850  0.50000000  1
  Mg  Mg1_0  1  0.05490250  0.44509750  0.25000000  1
  Mg  Mg1_1  1  0.05490250  0.44509750  0.75000000  1
  Mg  Mg1_2  1  0.05490250  0.94509750  0.25000000  1
  Mg  Mg1_3  1  0.05490250  0.94509750  0.75000000  1
  Mg  Mg1_4  1  0.55490250  0.44509750  0.25000000  1
  Mg  Mg1_5  1  0.55490250  0.44509750  0.75000000  1
  Mg  Mg1_6  1  0.55490250  0.94509750  0.25000000  1
  Mg  Mg1_7  1  0.55490250  0.94509750  0.75000000  1
  Mg  Mg2_0  1  0.38807750  0.11192250  0.25000000  1
  Mg  Mg2_1  1  0.38807750  0.11192250  0.75000000  1
  Mg  Mg2_2  1  0.38807750  0.61192250  0.25000000  1
  Mg  Mg2_3  1  0.38807750  0.61192250  0.75000000  1
  Mg  Mg2_4  1  0.88807750  0.11192250  0.25000000  1
  Mg  Mg2_5  1  0.88807750  0.11192250  0.75000000  1
  Mg  Mg2_6  1  0.88807750  0.61192250  0.25000000  1
  Mg  Mg2_7  1  0.88807750  0.61192250  0.75000000  1
  Ti  Ti0_0  1  0.00250900  0.49749100  0.00000000  1
  Ti  Ti0_1  1  0.00250900  0.49749100  0.50000000  1
  Ti  Ti0_2  1  0.00250900  0.99749100  0.00000000  1
  Ti  Ti0_3  1  0.00250900  0.99749100  0.50000000  1
  Ti  Ti0_4  1  0.50250900  0.49749100  0.00000000  1
  Ti  Ti0_5  1  0.50250900  0.49749100  0.50000000  1
  Ti  Ti0_6  1  0.50250900  0.99749100  0.00000000  1
  Ti  Ti0_7  1  0.50250900  0.99749100  0.50000000  1
  Ti  Ti1_0  1  0.32639100  0.17360900  0.00000000  1
  Ti  Ti1_1  1  0.32639100  0.17360900  0.50000000  1
  Ti  Ti1_2  1  0.32639100  0.67360900  0.00000000  1
  Ti  Ti1_3  1  0.32639100  0.67360900  0.50000000  1
  Ti  Ti1_4  1  0.82639100  0.17360900  0.00000000  1
  Ti  Ti1_5  1  0.82639100  0.17360900  0.50000000  1
  Ti  Ti1_6  1  0.82639100  0.67360900  0.00000000  1
  Ti  Ti1_7  1  0.82639100  0.67360900  0.50000000  1
  Ti  Ti2_0  1  0.22657500  0.27342500  0.25000000  1
  Ti  Ti2_1  1  0.22657500  0.27342500  0.75000000  1
  Ti  Ti2_2  1  0.22657500  0.77342500  0.25000000  1
  Ti  Ti2_3  1  0.22657500  0.77342500  0.75000000  1
  Ti  Ti2_4  1  0.72657500  0.27342500  0.25000000  1
  Ti  Ti2_5  1  0.72657500  0.27342500  0.75000000  1
  Ti  Ti2_6  1  0.72657500  0.77342500  0.25000000  1
  Ti  Ti2_7  1  0.72657500  0.77342500  0.75000000  1
loop_
_geom_bond_atom_site_label_1
_geom_bond_atom_site_label_2
_geom_bond_distance
_geom_bond_site_symmetry_2
Mg0_0 Mg0_6 2.995360 1_445
Mg0_0 Mg0_6 2.995360 1_555
Mg0_0 Mg2_2 3.021569 1_555
Mg0_0 Mg2_4 3.021569 1_455
Mg0_0 Mg2_3 3.021569 1_554
Mg0_0 Mg2_5 3.021569 1_454
Mg0_0 Ti2_0 3.070166 1_555
Mg0_0 Ti2_1 3.070166 1_554
Mg0_0 Ti0_4 3.076572 1_555
Mg0_0 Ti0_2 3.076572 1_545
Mg0_0 Ti1_2 3.288144 1_555
Mg0_0 Ti1_4 3.288144 1_455
Mg0_1 Mg0_7 2.995360 1_555
Mg0_1 Mg0_7 2.995360 1_445
Mg0_1 Mg2_5 3.021569 1_455
Mg0_1 Mg2_3 3.021569 1_555
Mg0_1 Mg2_2 3.021569 1_555
Mg0_1 Mg2_4 3.021569 1_455
Mg0_1 Ti2_0 3.070166 1_555
Mg0_1 Ti2_1 3.070166 1_555
Mg0_1 Ti0_5 3.076572 1_555
Mg0_1 Ti0_3 3.076572 1_545
Mg0_1 Ti1_3 3.288144 1_555
Mg0_1 Ti1_5 3.288144 1_455
Mg0_2 Mg0_4 2.995360 1_565
Mg0_2 Mg0_4 2.995360 1_455
Mg0_2 Mg2_0 3.021569 1_565
Mg0_2 Mg2_6 3.021569 1_455
Mg0_2 Mg2_1 3.021569 1_564
Mg0_2 Mg2_7 3.021569 1_454
Mg0_2 Ti2_2 3.070166 1_555
Mg0_2 Ti2_3 3.070166 1_554
Mg0_2 Ti0_6 3.076572 1_555
Mg0_2 Ti0_0 3.076572 1_555
Mg0_2 Ti1_0 3.288144 1_565
Mg0_2 Ti1_6 3.288144 1_455
Mg0_3 Mg0_5 2.995360 1_455
Mg0_3 Mg0_5 2.995360 1_565
Mg0_3 Mg2_1 3.021569 1_565
Mg0_3 Mg2_0 3.021569 1_565
Mg0_3 Mg2_7 3.021569 1_455
Mg0_3 Mg2_6 3.021569 1_455
Mg0_3 Ti2_3 3.070166 1_555
Mg0_3 Ti2_2 3.070166 1_555
Mg0_3 Ti0_7 3.076572 1_555
Mg0_3 Ti0_1 3.076572 1_555
Mg0_3 Ti1_1 3.288144 1_565
Mg0_3 Ti1_7 3.288144 1_455
Mg0_4 Mg2_0 3.021569 1_555
Mg0_4 Mg2_6 3.021569 1_555
Mg0_4 Mg2_1 3.021569 1_554
Mg0_4 Mg2_7 3.021569 1_554
Mg0_4 Ti2_4 3.070166 1_555
Mg0_4 Ti2_5 3.070166 1_554
Mg0_4 Ti0_6 3.076572 1_545
Mg0_4 Ti0_0 3.076572 1_655
Mg0_4 Ti1_6 3.288144 1_555
Mg0_4 Ti1_0 3.288144 1_555
Mg0_5 Mg2_1 3.021569 1_555
Mg0_5 Mg2_0 3.021569 1_555
Mg0_5 Mg2_6 3.021569 1_555
Mg0_5 Mg2_7 3.021569 1_555
Mg0_5 Ti2_4 3.070166 1_555
Mg0_5 Ti2_5 3.070166 1_555
Mg0_5 Ti0_7 3.076572 1_545
Mg0_5 Ti0_1 3.076572 1_655
Mg0_5 Ti1_7 3.288144 1_555
Mg0_5 Ti1_1 3.288144 1_555
Mg0_6 Mg2_2 3.021569 1_555
Mg0_6 Mg2_4 3.021569 1_565
Mg0_6 Mg2_3 3.021569 1_554
Mg0_6 Mg2_5 3.021569 1_564
Mg0_6 Ti2_6 3.070166 1_555
Mg0_6 Ti2_7 3.070166 1_554
Mg0_6 Ti0_4 3.076572 1_555
Mg0_6 Ti0_2 3.076572 1_655
Mg0_6 Ti1_4 3.288144 1_565
Mg0_6 Ti1_2 3.288144 1_555
Mg0_7 Mg2_2 3.021569 1_555
Mg0_7 Mg2_3 3.021569 1_555
Mg0_7 Mg2_4 3.021569 1_565
Mg0_7 Mg2_5 3.021569 1_565
Mg0_7 Ti2_6 3.070166 1_555
Mg0_7 Ti2_7 3.070166 1_555
Mg0_7 Ti0_5 3.076572 1_555
Mg0_7 Ti0_3 3.076572 1_655
Mg0_7 Ti1_5 3.288144 1_565
Mg0_7 Ti1_3 3.288144 1_555
Mg1_0 Ti2_4 2.911795 1_455
Mg1_0 Ti2_2 2.911795 1_555
Mg1_0 Ti1_2 2.945553 1_555
Mg1_0 Ti1_3 2.945553 1_555
Mg1_0 Ti1_4 2.945553 1_455
Mg1_0 Ti1_5 2.945553 1_455
Mg1_0 Ti0_0 2.958697 1_555
Mg1_0 Ti0_1 2.958697 1_555
Mg1_0 Mg1_6 2.995360 1_445
Mg1_0 Mg1_6 2.995360 1_555
Mg1_0 Mg2_2 3.045363 1_555
Mg1_0 Mg2_4 3.045363 1_455
Mg1_1 Ti2_5 2.911795 1_455
Mg1_1 Ti2_3 2.911795 1_555
Mg1_1 Ti1_3 2.945553 1_555
Mg1_1 Ti1_2 2.945553 1_556
Mg1_1 Ti1_5 2.945553 1_455
Mg1_1 Ti1_4 2.945553 1_456
Mg1_1 Ti0_1 2.958697 1_555
Mg1_1 Ti0_0 2.958697 1_556
Mg1_1 Mg1_7 2.995360 1_445
Mg1_1 Mg1_7 2.995360 1_555
Mg1_1 Mg2_3 3.045363 1_555
Mg1_1 Mg2_5 3.045363 1_455
Mg1_2 Ti2_0 2.911795 1_565
Mg1_2 Ti2_6 2.911795 1_455
Mg1_2 Ti1_0 2.945553 1_565
Mg1_2 Ti1_1 2.945553 1_565
Mg1_2 Ti1_7 2.945553 1_455
Mg1_2 Ti1_6 2.945553 1_455
Mg1_2 Ti0_2 2.958697 1_555
Mg1_2 Ti0_3 2.958697 1_555
Mg1_2 Mg1_4 2.995360 1_565
Mg1_2 Mg1_4 2.995360 1_455
Mg1_2 Mg2_0 3.045363 1_565
Mg1_2 Mg2_6 3.045363 1_455
Mg1_3 Ti2_1 2.911795 1_565
Mg1_3 Ti2_7 2.911795 1_455
Mg1_3 Ti1_1 2.945553 1_565
Mg1_3 Ti1_0 2.945553 1_566
Mg1_3 Ti1_7 2.945553 1_455
Mg1_3 Ti1_6 2.945553 1_456
Mg1_3 Ti0_3 2.958697 1_555
Mg1_3 Ti0_2 2.958697 1_556
Mg1_3 Mg1_5 2.995360 1_565
Mg1_3 Mg1_5 2.995360 1_455
Mg1_3 Mg2_1 3.045363 1_565
Mg1_3 Mg2_7 3.045363 1_455
Mg1_4 Ti2_0 2.911795 1_555
Mg1_4 Ti2_6 2.911795 1_555
Mg1_4 Ti1_6 2.945553 1_555
Mg1_4 Ti1_7 2.945553 1_555
Mg1_4 Ti1_0 2.945553 1_555
Mg1_4 Ti1_1 2.945553 1_555
Mg1_4 Ti0_5 2.958697 1_555
Mg1_4 Ti0_4 2.958697 1_555
Mg1_4 Mg2_6 3.045363 1_555
Mg1_4 Mg2_0 3.045363 1_555
Mg1_5 Ti2_1 2.911795 1_555
Mg1_5 Ti2_7 2.911795 1_555
Mg1_5 Ti1_7 2.945553 1_555
Mg1_5 Ti1_6 2.945553 1_556
Mg1_5 Ti1_1 2.945553 1_555
Mg1_5 Ti1_0 2.945553 1_556
Mg1_5 Ti0_5 2.958697 1_555
Mg1_5 Ti0_4 2.958697 1_556
Mg1_5 Mg2_7 3.045363 1_555
Mg1_5 Mg2_1 3.045363 1_555
Mg1_6 Ti2_4 2.911795 1_565
Mg1_6 Ti2_2 2.911795 1_555
Mg1_6 Ti1_4 2.945553 1_565
Mg1_6 Ti1_5 2.945553 1_565
Mg1_6 Ti1_3 2.945553 1_555
Mg1_6 Ti1_2 2.945553 1_555
Mg1_6 Ti0_6 2.958697 1_555
Mg1_6 Ti0_7 2.958697 1_555
Mg1_6 Mg2_4 3.045363 1_565
Mg1_6 Mg2_2 3.045363 1_555
Mg1_7 Ti2_5 2.911795 1_565
Mg1_7 Ti2_3 2.911795 1_555
Mg1_7 Ti1_5 2.945553 1_565
Mg1_7 Ti1_4 2.945553 1_566
Mg1_7 Ti1_3 2.945553 1_555
Mg1_7 Ti1_2 2.945553 1_556
Mg1_7 Ti0_7 2.958697 1_555
Mg1_7 Ti0_6 2.958697 1_556
Mg1_7 Mg2_5 3.045363 1_565
Mg1_7 Mg2_3 3.045363 1_555
Mg2_0 Mg2_6 2.995360 1_445
Mg2_0 Mg2_6 2.995360 1_555
Mg2_0 Ti1_0 3.135501 1_555
Mg2_0 Ti1_1 3.135501 1_555
Mg2_0 Ti2_2 3.194198 1_545
Mg2_0 Ti2_4 3.194198 1_555
Mg2_1 Mg2_7 2.995360 1_555
Mg2_1 Mg2_7 2.995360 1_445
Mg2_1 Ti1_1 3.135501 1_555
Mg2_1 Ti1_0 3.135501 1_556
Mg2_1 Ti2_3 3.194198 1_545
Mg2_1 Ti2_5 3.194198 1_555
Mg2_2 Mg2_4 2.995360 1_455
Mg2_2 Mg2_4 2.995360 1_565
Mg2_2 Ti1_2 3.135501 1_555
Mg2_2 Ti1_3 3.135501 1_555
Mg2_2 Ti2_0 3.194198 1_555
Mg2_2 Ti2_6 3.194198 1_555
Mg2_3 Mg2_5 2.995360 1_455
Mg2_3 Mg2_5 2.995360 1_565
Mg2_3 Ti1_3 3.135501 1_555
Mg2_3 Ti1_2 3.135501 1_556
Mg2_3 Ti2_1 3.194198 1_555
Mg2_3 Ti2_7 3.194198 1_555
Mg2_4 Ti1_5 3.135501 1_555
Mg2_4 Ti1_4 3.135501 1_555
Mg2_4 Ti2_6 3.194198 1_545
Mg2_4 Ti2_0 3.194198 1_655
Mg2_5 Ti1_5 3.135501 1_555
Mg2_5 Ti1_4 3.135501 1_556
Mg2_5 Ti2_7 3.194198 1_545
Mg2_5 Ti2_1 3.194198 1_655
Mg2_6 Ti1_6 3.135501 1_555
Mg2_6 Ti1_7 3.135501 1_555
Mg2_6 Ti2_4 3.194198 1_555
Mg2_6 Ti2_2 3.194198 1_655
Mg2_7 Ti1_7 3.135501 1_555
Mg2_7 Ti1_6 3.135501 1_556
Mg2_7 Ti2_5 3.194198 1_555
Mg2_7 Ti2_3 3.194198 1_655
Ti0_0 Ti1_4 2.791208 1_455
Ti0_0 Ti1_2 2.791208 1_555
Ti0_0 Ti2_4 2.981702 1_455
Ti0_0 Ti2_5 2.981702 1_454
Ti0_0 Ti2_2 2.981702 1_555
Ti0_0 Ti2_3 2.981702 1_554
Ti0_0 Ti0_6 2.995360 1_445
Ti0_0 Ti0_6 2.995360 1_555
Ti0_1 Ti1_5 2.791208 1_455
Ti0_1 Ti1_3 2.791208 1_555
Ti0_1 Ti2_5 2.981702 1_455
Ti0_1 Ti2_4 2.981702 1_455
Ti0_1 Ti2_2 2.981702 1_555
Ti0_1 Ti2_3 2.981702 1_555
Ti0_1 Ti0_7 2.995360 1_445
Ti0_1 Ti0_7 2.995360 1_555
Ti0_2 Ti1_6 2.791208 1_455
Ti0_2 Ti1_0 2.791208 1_565
Ti0_2 Ti2_6 2.981702 1_455
Ti0_2 Ti2_0 2.981702 1_565
Ti0_2 Ti2_7 2.981702 1_454
Ti0_2 Ti2_1 2.981702 1_564
Ti0_2 Ti0_4 2.995360 1_565
Ti0_2 Ti0_4 2.995360 1_455
Ti0_3 Ti1_7 2.791208 1_455
Ti0_3 Ti1_1 2.791208 1_565
Ti0_3 Ti2_6 2.981702 1_455
Ti0_3 Ti2_7 2.981702 1_455
Ti0_3 Ti2_0 2.981702 1_565
Ti0_3 Ti2_1 2.981702 1_565
Ti0_3 Ti0_5 2.995360 1_565
Ti0_3 Ti0_5 2.995360 1_455
Ti0_4 Ti1_6 2.791208 1_555
Ti0_4 Ti1_0 2.791208 1_555
Ti0_4 Ti2_0 2.981702 1_555
Ti0_4 Ti2_1 2.981702 1_554
Ti0_4 Ti2_6 2.981702 1_555
Ti0_4 Ti2_7 2.981702 1_554
Ti0_5 Ti1_7 2.791208 1_555
Ti0_5 Ti1_1 2.791208 1_555
Ti0_5 Ti2_1 2.981702 1_555
Ti0_5 Ti2_0 2.981702 1_555
Ti0_5 Ti2_7 2.981702 1_555
Ti0_5 Ti2_6 2.981702 1_555
Ti0_6 Ti1_2 2.791208 1_555
Ti0_6 Ti1_4 2.791208 1_565
Ti0_6 Ti2_2 2.981702 1_555
Ti0_6 Ti2_3 2.981702 1_554
Ti0_6 Ti2_4 2.981702 1_565
Ti0_6 Ti2_5 2.981702 1_564
Ti0_7 Ti1_3 2.791208 1_555
Ti0_7 Ti1_5 2.791208 1_565
Ti0_7 Ti2_3 2.981702 1_555
Ti0_7 Ti2_2 2.981702 1_555
Ti0_7 Ti2_4 2.981702 1_565
Ti0_7 Ti2_5 2.981702 1_565
Ti1_0 Ti1_6 2.995360 1_445
Ti1_0 Ti1_6 2.995360 1_555
Ti1_1 Ti1_7 2.995360 1_555
Ti1_1 Ti1_7 2.995360 1_445
Ti1_2 Ti1_4 2.995360 1_565
Ti1_2 Ti1_4 2.995360 1_455
Ti1_3 Ti1_5 2.995360 1_565
Ti1_3 Ti1_5 2.995360 1_455
Ti2_0 Ti2_6 2.995360 1_445
Ti2_0 Ti2_6 2.995360 1_555
Ti2_1 Ti2_7 2.995360 1_445
Ti2_1 Ti2_7 2.995360 1_555
Ti2_2 Ti2_4 2.995360 1_565
Ti2_2 Ti2_4 2.995360 1_455
Ti2_3 Ti2_5 2.995360 1_565
Ti2_3 Ti2_5 2.995360 1_455
