# generated using pymatgen
data_Si11(H3C)21
_symmetry_space_group_name_H-M   'P 1'
_cell_length_a   9.92403030
_cell_length_b   17.72710145
_cell_length_c   25.76883375
_cell_angle_alpha   90.00000000
_cell_angle_beta   90.00000000
_cell_angle_gamma   93.42763164
_symmetry_Int_Tables_number   1
_chemical_formula_structural   Si11(H3C)21
_chemical_formula_sum   'Si44 H252 C84'
_cell_volume   4525.25414214
_cell_formula_units_Z   4
loop_
 _symmetry_equiv_pos_site_id
 _symmetry_equiv_pos_as_xyz
  1  'x, y, z'
loop_
 _atom_site_type_symbol
 _atom_site_label
 _atom_site_symmetry_multiplicity
 _atom_site_fract_x
 _atom_site_fract_y
 _atom_site_fract_z
 _atom_site_occupancy
  Si  Si0  1  0.92814929  0.94700954  0.51349274  1
  Si  Si1  1  0.42814929  0.44700954  0.98650726  1
  Si  Si2  1  0.07185071  0.05299046  0.48650726  1
  Si  Si3  1  0.57185071  0.55299046  0.01349274  1
  Si  Si4  1  0.79161862  0.88937696  0.44494330  1
  Si  Si5  1  0.29161862  0.38937696  0.05505670  1
  Si  Si6  1  0.20838138  0.11062304  0.55505670  1
  Si  Si7  1  0.70838138  0.61062304  0.94494330  1
  Si  Si8  1  0.74332825  0.75344119  0.44304418  1
  Si  Si9  1  0.24332825  0.25344119  0.05695582  1
  Si  Si10  1  0.25667175  0.24655881  0.55695582  1
  Si  Si11  1  0.75667175  0.74655881  0.94304418  1
  Si  Si12  1  0.94872148  0.68932033  0.43773853  1
  Si  Si13  1  0.44872148  0.18932033  0.06226147  1
  Si  Si14  1  0.05127852  0.31067967  0.56226147  1
  Si  Si15  1  0.55127852  0.81067967  0.93773853  1
  Si  Si16  1  0.93253477  0.57239225  0.39204006  1
  Si  Si17  1  0.43253477  0.07239225  0.10795994  1
  Si  Si18  1  0.06746523  0.42760775  0.60795994  1
  Si  Si19  1  0.56746523  0.92760775  0.89204006  1
  Si  Si20  1  0.86622370  0.57455637  0.30346028  1
  Si  Si21  1  0.36622370  0.07455637  0.19653972  1
  Si  Si22  1  0.13377630  0.42544363  0.69653972  1
  Si  Si23  1  0.63377630  0.92544363  0.80346028  1
  Si  Si24  1  0.72806627  0.67882605  0.29139798  1
  Si  Si25  1  0.22806627  0.17882605  0.20860202  1
  Si  Si26  1  0.27193373  0.32117395  0.70860202  1
  Si  Si27  1  0.77193373  0.82117395  0.79139798  1
  Si  Si28  1  0.61027058  0.71760670  0.36712482  1
  Si  Si29  1  0.11027058  0.21760670  0.13287518  1
  Si  Si30  1  0.38972942  0.28239330  0.63287518  1
  Si  Si31  1  0.88972942  0.78239330  0.86712482  1
  Si  Si32  1  0.61401635  0.71727171  0.51852449  1
  Si  Si33  1  0.11401635  0.21727171  0.98147551  1
  Si  Si34  1  0.38598365  0.28272829  0.48147551  1
  Si  Si35  1  0.88598365  0.78272829  0.01852449  1
  Si  Si36  1  0.75338770  0.45506876  0.28416580  1
  Si  Si37  1  0.25338770  0.95506876  0.21583420  1
  Si  Si38  1  0.24661230  0.54493124  0.71583420  1
  Si  Si39  1  0.74661230  0.04493124  0.78416580  1
  Si  Si40  1  0.05955619  0.58750233  0.24829685  1
  Si  Si41  1  0.55955619  0.08750233  0.25170315  1
  Si  Si42  1  0.94044381  0.41249767  0.75170315  1
  Si  Si43  1  0.44044381  0.91249767  0.74829685  1
  H  H0  1  0.09070325  0.90726230  0.58006926  1
  H  H1  1  0.59070325  0.40726230  0.91993074  1
  H  H2  1  0.90929675  0.09273770  0.41993074  1
  H  H3  1  0.40929675  0.59273770  0.08006926  1
  H  H4  1  0.11381243  0.85630520  0.52165110  1
  H  H5  1  0.61381243  0.35630520  0.97834890  1
  H  H6  1  0.88618757  0.14369480  0.47834890  1
  H  H7  1  0.38618757  0.64369480  0.02165110  1
  H  H8  1  0.97518056  0.83066286  0.56336077  1
  H  H9  1  0.47518056  0.33066286  0.93663923  1
  H  H10  1  0.02481944  0.16933714  0.43663923  1
  H  H11  1  0.52481944  0.66933714  0.06336077  1
  H  H12  1  0.73203146  0.93575931  0.57540942  1
  H  H13  1  0.23203146  0.43575931  0.92459058  1
  H  H14  1  0.26796854  0.06424069  0.42459058  1
  H  H15  1  0.76796854  0.56424069  0.07540942  1
  H  H16  1  0.74763649  0.02806473  0.54869721  1
  H  H17  1  0.24763649  0.52806473  0.95130279  1
  H  H18  1  0.25236351  0.97193527  0.45130279  1
  H  H19  1  0.75236351  0.47193527  0.04869721  1
  H  H20  1  0.86065728  0.00167093  0.59807092  1
  H  H21  1  0.36065728  0.50167093  0.90192908  1
  H  H22  1  0.13934272  0.99832907  0.40192908  1
  H  H23  1  0.63934272  0.49832907  0.09807092  1
  H  H24  1  0.65377955  0.00222196  0.44696133  1
  H  H25  1  0.15377955  0.50222196  0.05303867  1
  H  H26  1  0.34622045  0.99777804  0.55303867  1
  H  H27  1  0.84622045  0.49777804  0.94696133  1
  H  H28  1  0.56921304  0.92897135  0.48347041  1
  H  H29  1  0.06921304  0.42897135  0.01652959  1
  H  H30  1  0.43078696  0.07102865  0.51652959  1
  H  H31  1  0.93078696  0.57102865  0.98347041  1
  H  H32  1  0.56391553  0.92661714  0.41444198  1
  H  H33  1  0.06391553  0.42661714  0.08555802  1
  H  H34  1  0.43608447  0.07338286  0.58555802  1
  H  H35  1  0.93608447  0.57338286  0.91444198  1
  H  H36  1  0.80167880  0.89528046  0.34819659  1
  H  H37  1  0.30167880  0.39528046  0.15180341  1
  H  H38  1  0.19832120  0.10471954  0.65180341  1
  H  H39  1  0.69832120  0.60471954  0.84819659  1
  H  H40  1  0.96824436  0.89567952  0.37390231  1
  H  H41  1  0.46824436  0.39567952  0.12609769  1
  H  H42  1  0.03175564  0.10432048  0.62609769  1
  H  H43  1  0.53175564  0.60432048  0.87390231  1
  H  H44  1  0.87687982  0.97895126  0.37652683  1
  H  H45  1  0.37687982  0.47895126  0.12347317  1
  H  H46  1  0.12312018  0.02104874  0.62347317  1
  H  H47  1  0.62312018  0.52104874  0.87652683  1
  H  H48  1  0.10656477  0.80448848  0.43104703  1
  H  H49  1  0.60656477  0.30448848  0.06895297  1
  H  H50  1  0.89343523  0.19551152  0.56895297  1
  H  H51  1  0.39343523  0.69551152  0.93104703  1
  H  H52  1  0.06334586  0.77021212  0.36774999  1
  H  H53  1  0.56334586  0.27021212  0.13225001  1
  H  H54  1  0.93665414  0.22978788  0.63225001  1
  H  H55  1  0.43665414  0.72978788  0.86774999  1
  H  H56  1  0.18145683  0.72343507  0.40619203  1
  H  H57  1  0.68145683  0.22343507  0.09380797  1
  H  H58  1  0.81854317  0.27656493  0.59380797  1
  H  H59  1  0.31854317  0.77656493  0.90619203  1
  H  H60  1  0.11462453  0.64203985  0.50096122  1
  H  H61  1  0.61462453  0.14203985  0.99903878  1
  H  H62  1  0.88537547  0.35796015  0.49903878  1
  H  H63  1  0.38537547  0.85796015  0.00096122  1
  H  H64  1  0.94852828  0.62368365  0.52560807  1
  H  H65  1  0.44852828  0.12368365  0.97439193  1
  H  H66  1  0.05147172  0.37631635  0.47439193  1
  H  H67  1  0.55147172  0.87631635  0.02560807  1
  H  H68  1  0.02752194  0.71644015  0.52878551  1
  H  H69  1  0.52752194  0.21644015  0.97121449  1
  H  H70  1  0.97247806  0.28355985  0.47121449  1
  H  H71  1  0.47247806  0.78355985  0.02878551  1
  H  H72  1  0.80165659  0.45138481  0.41510415  1
  H  H73  1  0.30165659  0.95138481  0.08489585  1
  H  H74  1  0.19834341  0.54861519  0.58489585  1
  H  H75  1  0.69834341  0.04861519  0.91510415  1
  H  H76  1  0.70454020  0.53028307  0.42887965  1
  H  H77  1  0.20454020  0.03028307  0.07112035  1
  H  H78  1  0.29545980  0.46971693  0.57112035  1
  H  H79  1  0.79545980  0.96971693  0.92887965  1
  H  H80  1  0.83795674  0.50775917  0.47089085  1
  H  H81  1  0.33795674  0.00775917  0.02910915  1
  H  H82  1  0.16204326  0.49224083  0.52910915  1
  H  H83  1  0.66204326  0.99224083  0.97089085  1
  H  H84  1  0.12907684  0.52213777  0.43966629  1
  H  H85  1  0.62907684  0.02213777  0.06033371  1
  H  H86  1  0.87092316  0.47786223  0.56033371  1
  H  H87  1  0.37092316  0.97786223  0.93966629  1
  H  H88  1  0.18432412  0.55875765  0.37865807  1
  H  H89  1  0.68432412  0.05875765  0.12134193  1
  H  H90  1  0.81567588  0.44124235  0.62134193  1
  H  H91  1  0.31567588  0.94124235  0.87865807  1
  H  H92  1  0.09290450  0.46957972  0.38213840  1
  H  H93  1  0.59290450  0.96957972  0.11786160  1
  H  H94  1  0.90709550  0.53042028  0.61786160  1
  H  H95  1  0.40709550  0.03042028  0.88213840  1
  H  H96  1  0.54238180  0.70589300  0.22900629  1
  H  H97  1  0.04238180  0.20589300  0.27099371  1
  H  H98  1  0.45761820  0.29410700  0.77099371  1
  H  H99  1  0.95761820  0.79410700  0.72900629  1
  H  H100  1  0.52591424  0.60894977  0.24754984  1
  H  H101  1  0.02591424  0.10894977  0.25245016  1
  H  H102  1  0.47408576  0.39105023  0.75245016  1
  H  H103  1  0.97408576  0.89105023  0.74754984  1
  H  H104  1  0.65205539  0.64080038  0.20231154  1
  H  H105  1  0.15205539  0.14080038  0.29768846  1
  H  H106  1  0.34794461  0.35919962  0.79768846  1
  H  H107  1  0.84794461  0.85919962  0.70231154  1
  H  H108  1  0.87743307  0.75010039  0.22769361  1
  H  H109  1  0.37743307  0.25010039  0.27230639  1
  H  H110  1  0.12256693  0.24989961  0.77230639  1
  H  H111  1  0.62256693  0.74989961  0.72769361  1
  H  H112  1  0.91452896  0.78306310  0.29189855  1
  H  H113  1  0.41452896  0.28306310  0.20810145  1
  H  H114  1  0.08547104  0.21693690  0.70810145  1
  H  H115  1  0.58547104  0.71693690  0.79189855  1
  H  H116  1  0.76737972  0.81064199  0.25926124  1
  H  H117  1  0.26737972  0.31064199  0.24073876  1
  H  H118  1  0.23262028  0.18935801  0.74073876  1
  H  H119  1  0.73262028  0.68935801  0.75926124  1
  H  H120  1  0.40989053  0.65303792  0.41187380  1
  H  H121  1  0.90989053  0.15303792  0.08812620  1
  H  H122  1  0.59010947  0.34696208  0.58812620  1
  H  H123  1  0.09010947  0.84696208  0.91187380  1
  H  H124  1  0.53122695  0.58600798  0.39774770  1
  H  H125  1  0.03122695  0.08600798  0.10225230  1
  H  H126  1  0.46877305  0.41399202  0.60225230  1
  H  H127  1  0.96877305  0.91399202  0.89774770  1
  H  H128  1  0.42776203  0.61908723  0.34754707  1
  H  H129  1  0.92776203  0.11908723  0.15245293  1
  H  H130  1  0.57223797  0.38091277  0.65245293  1
  H  H131  1  0.07223797  0.88091277  0.84754707  1
  H  H132  1  0.43140840  0.77854403  0.31560840  1
  H  H133  1  0.93140840  0.27854403  0.18439160  1
  H  H134  1  0.56859160  0.22145597  0.68439160  1
  H  H135  1  0.06859160  0.72145597  0.81560840  1
  H  H136  1  0.56091625  0.84776838  0.33299978  1
  H  H137  1  0.06091625  0.34776838  0.16700022  1
  H  H138  1  0.43908375  0.15223162  0.66700022  1
  H  H139  1  0.93908375  0.65223162  0.83299978  1
  H  H140  1  0.43969685  0.81452933  0.37976469  1
  H  H141  1  0.93969685  0.31452933  0.12023531  1
  H  H142  1  0.56030315  0.18547067  0.62023531  1
  H  H143  1  0.06030315  0.68547067  0.87976469  1
  H  H144  1  0.38451971  0.74114571  0.55097554  1
  H  H145  1  0.88451971  0.24114571  0.94902446  1
  H  H146  1  0.61548029  0.25885429  0.44902446  1
  H  H147  1  0.11548029  0.75885429  0.05097554  1
  H  H148  1  0.39081185  0.75472707  0.48269611  1
  H  H149  1  0.89081185  0.25472707  0.01730389  1
  H  H150  1  0.60918815  0.24527293  0.51730389  1
  H  H151  1  0.10918815  0.74527293  0.98269611  1
  H  H152  1  0.46198096  0.82570052  0.52491185  1
  H  H153  1  0.96198096  0.32570052  0.97508815  1
  H  H154  1  0.53801904  0.17429948  0.47508815  1
  H  H155  1  0.03801904  0.67429948  0.02491185  1
  H  H156  1  0.72470731  0.80688377  0.58413267  1
  H  H157  1  0.22470731  0.30688377  0.91586733  1
  H  H158  1  0.27529269  0.19311623  0.41586733  1
  H  H159  1  0.77529269  0.69311623  0.08413267  1
  H  H160  1  0.80082497  0.71839408  0.58482256  1
  H  H161  1  0.30082497  0.21839408  0.91517744  1
  H  H162  1  0.19917503  0.28160592  0.41517744  1
  H  H163  1  0.69917503  0.78160592  0.08482256  1
  H  H164  1  0.63992230  0.72681762  0.61363675  1
  H  H165  1  0.13992230  0.22681762  0.88636325  1
  H  H166  1  0.36007770  0.27318238  0.38636325  1
  H  H167  1  0.86007770  0.77318238  0.11363675  1
  H  H168  1  0.66299765  0.58030724  0.52902528  1
  H  H169  1  0.16299765  0.08030724  0.97097472  1
  H  H170  1  0.33700235  0.41969276  0.47097472  1
  H  H171  1  0.83700235  0.91969276  0.02902528  1
  H  H172  1  0.51426903  0.58874454  0.49133239  1
  H  H173  1  0.01426903  0.08874454  0.00866761  1
  H  H174  1  0.48573097  0.41125546  0.50866761  1
  H  H175  1  0.98573097  0.91125546  0.99133239  1
  H  H176  1  0.51036661  0.60281624  0.55953403  1
  H  H177  1  0.01036661  0.10281624  0.94046597  1
  H  H178  1  0.48963339  0.39718376  0.44046597  1
  H  H179  1  0.98963339  0.89718376  0.05953403  1
  H  H180  1  0.51401773  0.48670751  0.30210045  1
  H  H181  1  0.01401773  0.98670751  0.19789955  1
  H  H182  1  0.48598227  0.51329249  0.69789955  1
  H  H183  1  0.98598227  0.01329249  0.80210045  1
  H  H184  1  0.58329153  0.44174524  0.35680482  1
  H  H185  1  0.08329153  0.94174524  0.14319518  1
  H  H186  1  0.41670847  0.55825476  0.64319518  1
  H  H187  1  0.91670847  0.05825476  0.85680482  1
  H  H188  1  0.53233991  0.38786381  0.30108174  1
  H  H189  1  0.03233991  0.88786381  0.19891826  1
  H  H190  1  0.46766009  0.61213619  0.69891826  1
  H  H191  1  0.96766009  0.11213619  0.80108174  1
  H  H192  1  0.86733295  0.37564395  0.35048273  1
  H  H193  1  0.36733295  0.87564395  0.14951727  1
  H  H194  1  0.13266705  0.62435605  0.64951727  1
  H  H195  1  0.63266705  0.12435605  0.85048273  1
  H  H196  1  0.95607193  0.37621489  0.29057905  1
  H  H197  1  0.45607193  0.87621489  0.20942095  1
  H  H198  1  0.04392807  0.62378511  0.70942095  1
  H  H199  1  0.54392807  0.12378511  0.79057905  1
  H  H200  1  0.80216618  0.32075461  0.29749512  1
  H  H201  1  0.30216618  0.82075461  0.20250488  1
  H  H202  1  0.19783382  0.67924539  0.70250488  1
  H  H203  1  0.69783382  0.17924539  0.79749512  1
  H  H204  1  0.67590929  0.38513089  0.20569130  1
  H  H205  1  0.17590929  0.88513089  0.29430870  1
  H  H206  1  0.32409071  0.61486911  0.79430870  1
  H  H207  1  0.82409071  0.11486911  0.70569130  1
  H  H208  1  0.82318321  0.44241658  0.19040225  1
  H  H209  1  0.32318321  0.94241658  0.30959775  1
  H  H210  1  0.17681679  0.55758342  0.80959775  1
  H  H211  1  0.67681679  0.05758342  0.69040225  1
  H  H212  1  0.66453160  0.48373039  0.19568427  1
  H  H213  1  0.16453160  0.98373039  0.30431573  1
  H  H214  1  0.33546840  0.51626961  0.80431573  1
  H  H215  1  0.83546840  0.01626961  0.69568427  1
  H  H216  1  0.11334203  0.45250079  0.23256076  1
  H  H217  1  0.61334203  0.95250079  0.26743924  1
  H  H218  1  0.88665797  0.54749921  0.76743924  1
  H  H219  1  0.38665797  0.04749921  0.73256076  1
  H  H220  1  0.19265725  0.48698194  0.29057703  1
  H  H221  1  0.69265725  0.98698194  0.20942297  1
  H  H222  1  0.80734275  0.51301806  0.70942297  1
  H  H223  1  0.30734275  0.01301806  0.79057703  1
  H  H224  1  0.25962118  0.51482604  0.22907668  1
  H  H225  1  0.75962118  0.01482604  0.27092332  1
  H  H226  1  0.74037882  0.48517396  0.77092332  1
  H  H227  1  0.24037882  0.98517396  0.72907668  1
  H  H228  1  0.10523119  0.61523365  0.15558429  1
  H  H229  1  0.60523119  0.11523365  0.34441571  1
  H  H230  1  0.89476881  0.38476635  0.84441571  1
  H  H231  1  0.39476881  0.88476635  0.65558429  1
  H  H232  1  0.94481376  0.64718144  0.17249914  1
  H  H233  1  0.44481376  0.14718144  0.32750086  1
  H  H234  1  0.05518624  0.35281856  0.82750086  1
  H  H235  1  0.55518624  0.85281856  0.67249914  1
  H  H236  1  0.96343256  0.54958045  0.16099619  1
  H  H237  1  0.46343256  0.04958045  0.33900381  1
  H  H238  1  0.03656744  0.45041955  0.83900381  1
  H  H239  1  0.53656744  0.95041955  0.66099619  1
  H  H240  1  0.26657696  0.67173837  0.24280106  1
  H  H241  1  0.76657696  0.17173837  0.25719894  1
  H  H242  1  0.73342304  0.32826163  0.75719894  1
  H  H243  1  0.23342304  0.82826163  0.74280106  1
  H  H244  1  0.20604248  0.66992669  0.30782218  1
  H  H245  1  0.70604248  0.16992669  0.19217782  1
  H  H246  1  0.79395752  0.33007331  0.69217782  1
  H  H247  1  0.29395752  0.83007331  0.80782218  1
  H  H248  1  0.12726764  0.72507649  0.26020710  1
  H  H249  1  0.62726764  0.22507649  0.23979290  1
  H  H250  1  0.87273236  0.27492351  0.73979290  1
  H  H251  1  0.37273236  0.77492351  0.76020710  1
  C  C0  1  0.03772173  0.87841662  0.54756958  1
  C  C1  1  0.53772173  0.37841662  0.95243042  1
  C  C2  1  0.96227827  0.12158338  0.45243042  1
  C  C3  1  0.46227827  0.62158338  0.04756958  1
  C  C4  1  0.80506253  0.98147286  0.56342693  1
  C  C5  1  0.30506253  0.48147286  0.93657307  1
  C  C6  1  0.19493747  0.01852714  0.43657307  1
  C  C7  1  0.69493747  0.51852714  0.06342693  1
  C  C8  1  0.62834862  0.94094889  0.44815436  1
  C  C9  1  0.12834862  0.44094889  0.05184564  1
  C  C10  1  0.37165138  0.05905111  0.55184564  1
  C  C11  1  0.87165138  0.55905111  0.94815436  1
  C  C12  1  0.86792418  0.91697566  0.37967156  1
  C  C13  1  0.36792418  0.41697566  0.12032844  1
  C  C14  1  0.13207582  0.08302434  0.62032844  1
  C  C15  1  0.63207582  0.58302434  0.87967156  1
  C  C16  1  0.08757523  0.75324501  0.40750491  1
  C  C17  1  0.58757523  0.25324501  0.09249509  1
  C  C18  1  0.91242477  0.24675499  0.59249509  1
  C  C19  1  0.41242477  0.74675499  0.90750491  1
  C  C20  1  0.01487091  0.66522287  0.50481160  1
  C  C21  1  0.51487091  0.16522287  0.99518840  1
  C  C22  1  0.98512909  0.33477713  0.49518840  1
  C  C23  1  0.48512909  0.83477713  0.00481160  1
  C  C24  1  0.80633851  0.50954197  0.43006933  1
  C  C25  1  0.30633851  0.00954197  0.06993067  1
  C  C26  1  0.19366149  0.49045803  0.56993067  1
  C  C27  1  0.69366149  0.99045803  0.93006933  1
  C  C28  1  0.10118590  0.52699724  0.39854945  1
  C  C29  1  0.60118590  0.02699724  0.10145055  1
  C  C30  1  0.89881410  0.47300276  0.60145055  1
  C  C31  1  0.39881410  0.97300276  0.89854945  1
  C  C32  1  0.59875650  0.65596297  0.23792035  1
  C  C33  1  0.09875650  0.15596297  0.26207965  1
  C  C34  1  0.40124350  0.34403703  0.76207965  1
  C  C35  1  0.90124350  0.84403703  0.73792035  1
  C  C36  1  0.83308660  0.76366068  0.26541388  1
  C  C37  1  0.33308660  0.26366068  0.23458612  1
  C  C38  1  0.16691340  0.23633932  0.73458612  1
  C  C39  1  0.66691340  0.73633932  0.76541388  1
  C  C40  1  0.48358668  0.63595971  0.38298110  1
  C  C41  1  0.98358668  0.13595971  0.11701890  1
  C  C42  1  0.51641332  0.36404029  0.61701890  1
  C  C43  1  0.01641332  0.86404029  0.88298110  1
  C  C44  1  0.50127886  0.79753200  0.34672711  1
  C  C45  1  0.00127886  0.29753200  0.15327289  1
  C  C46  1  0.49872114  0.20246800  0.65327289  1
  C  C47  1  0.99872114  0.70246800  0.84672711  1
  C  C48  1  0.44750312  0.76435313  0.51894952  1
  C  C49  1  0.94750312  0.26435313  0.98105048  1
  C  C50  1  0.55249688  0.23564687  0.48105048  1
  C  C51  1  0.05249688  0.73564687  0.01894952  1
  C  C52  1  0.70463262  0.74547622  0.58085347  1
  C  C53  1  0.20463262  0.24547622  0.91914653  1
  C  C54  1  0.29536738  0.25452378  0.41914653  1
  C  C55  1  0.79536738  0.75452378  0.08085347  1
  C  C56  1  0.57229254  0.61223111  0.52443268  1
  C  C57  1  0.07229254  0.11223111  0.97556732  1
  C  C58  1  0.42770746  0.38776889  0.47556732  1
  C  C59  1  0.92770746  0.88776889  0.02443268  1
  C  C60  1  0.57978114  0.44225830  0.31424069  1
  C  C61  1  0.07978114  0.94225830  0.18575931  1
  C  C62  1  0.42021886  0.55774170  0.68575931  1
  C  C63  1  0.92021886  0.05774170  0.81424069  1
  C  C64  1  0.85516072  0.37485042  0.30811366  1
  C  C65  1  0.35516072  0.87485042  0.19188634  1
  C  C66  1  0.14483928  0.62514958  0.69188634  1
  C  C67  1  0.64483928  0.12514958  0.80811366  1
  C  C68  1  0.72790031  0.44094586  0.21209685  1
  C  C69  1  0.22790031  0.94094586  0.28790315  1
  C  C70  1  0.27209969  0.55905414  0.78790315  1
  C  C71  1  0.77209969  0.05905414  0.71209685  1
  C  C72  1  0.16545797  0.50213054  0.25078634  1
  C  C73  1  0.66545797  0.00213054  0.24921366  1
  C  C74  1  0.83454203  0.49786946  0.74921366  1
  C  C75  1  0.33454203  0.99786946  0.75078634  1
  C  C76  1  0.01254283  0.60109043  0.17787276  1
  C  C77  1  0.51254283  0.10109043  0.32212724  1
  C  C78  1  0.98745717  0.39890957  0.82212724  1
  C  C79  1  0.48745717  0.89890957  0.67787276  1
  C  C80  1  0.17516345  0.67167954  0.26691734  1
  C  C81  1  0.67516345  0.17167954  0.23308266  1
  C  C82  1  0.82483655  0.32832046  0.73308266  1
  C  C83  1  0.32483655  0.82832046  0.76691734  1
loop_
_geom_bond_atom_site_label_1
_geom_bond_atom_site_label_2
_geom_bond_distance
_geom_bond_site_symmetry_2
Si4 Si8 2.429167 1_555
Si5 Si9 2.429167 1_555
Si10 Si14 2.396363 1_555
Si10 Si34 2.396403 1_555
Si10 Si30 2.423672 1_555
Si10 Si6 2.429167 1_555
Si11 Si15 2.396363 1_555
Si11 Si35 2.396403 1_556
Si11 Si31 2.423672 1_555
Si11 Si7 2.429167 1_555
Si12 Si8 2.396363 1_555
Si13 Si9 2.396363 1_555
Si16 Si20 2.376511 1_555
Si17 Si21 2.376511 1_555
Si18 Si22 2.376511 1_555
Si19 Si23 2.376511 1_555
Si20 Si24 2.386649 1_555
Si20 Si40 2.387853 1_655
Si20 Si36 2.388336 1_555
Si21 Si25 2.386649 1_555
Si21 Si41 2.387853 1_555
Si21 Si37 2.388336 1_545
Si22 Si26 2.386649 1_555
Si22 Si42 2.387853 1_455
Si22 Si38 2.388336 1_555
Si23 Si27 2.386649 1_555
Si23 Si43 2.387853 1_555
Si23 Si39 2.388336 1_565
Si28 Si8 2.423672 1_555
Si29 Si9 2.423672 1_555
Si32 Si8 2.396403 1_555
Si33 Si9 2.396403 1_556
C0 H8 1.097543 1_455
C0 H4 1.097873 1_555
C0 H0 1.098706 1_555
C0 Si0 1.894778 1_455
C1 H9 1.097543 1_555
C1 H5 1.097873 1_555
C1 H1 1.098706 1_555
C1 Si1 1.894778 1_555
C2 H10 1.097543 1_655
C2 H6 1.097873 1_555
C2 H2 1.098706 1_555
C2 Si2 1.894778 1_655
C3 H11 1.097543 1_555
C3 H7 1.097873 1_555
C3 H3 1.098706 1_555
C3 Si3 1.894778 1_555
C4 H20 1.098160 1_565
C4 H12 1.098677 1_555
C4 H16 1.098779 1_565
C4 Si0 1.900078 1_555
C5 H21 1.098160 1_555
C5 H13 1.098677 1_555
C5 H17 1.098779 1_555
C5 Si1 1.900078 1_555
C6 H22 1.098160 1_545
C6 H14 1.098677 1_555
C6 H18 1.098779 1_545
C6 Si2 1.900078 1_555
C7 H23 1.098160 1_555
C7 H15 1.098677 1_555
C7 H19 1.098779 1_555
C7 Si3 1.900078 1_555
C8 H28 1.096717 1_555
C8 H32 1.099404 1_555
C8 H24 1.100762 1_565
C8 Si4 1.909224 1_555
C9 H29 1.096717 1_555
C9 H33 1.099404 1_555
C9 H25 1.100762 1_555
C9 Si5 1.909224 1_555
C10 H30 1.096717 1_555
C10 H34 1.099404 1_555
C10 H26 1.100762 1_545
C10 Si6 1.909224 1_555
C11 H31 1.096717 1_555
C11 H35 1.099404 1_555
C11 H27 1.100762 1_555
C11 Si7 1.909224 1_555
C12 H40 1.095785 1_555
C12 H36 1.098964 1_555
C12 H44 1.099917 1_555
C12 Si4 1.896720 1_555
C13 H41 1.095785 1_555
C13 H37 1.098964 1_555
C13 H45 1.099917 1_555
C13 Si5 1.896720 1_555
C14 H42 1.095785 1_555
C14 H38 1.098964 1_555
C14 H46 1.099917 1_555
C14 Si6 1.896720 1_555
C15 H43 1.095785 1_555
C15 H39 1.098964 1_555
C15 H47 1.099917 1_555
C15 Si7 1.896720 1_555
C16 H52 1.098365 1_555
C16 H56 1.098774 1_555
C16 H48 1.099209 1_555
C16 Si12 1.898222 1_455
C17 H53 1.098365 1_555
C17 H57 1.098774 1_555
C17 H49 1.099209 1_555
C17 Si13 1.898222 1_555
C18 H54 1.098365 1_555
C18 H58 1.098774 1_555
C18 H50 1.099209 1_555
C18 Si14 1.898222 1_655
C19 H55 1.098365 1_555
C19 H59 1.098774 1_555
C19 H51 1.099209 1_555
C19 Si15 1.898222 1_555
C20 H64 1.097693 1_455
C20 H60 1.098819 1_555
C20 H68 1.099149 1_555
C20 Si12 1.906388 1_455
C21 H65 1.097693 1_555
C21 H61 1.098819 1_555
C21 H69 1.099149 1_555
C21 Si13 1.906388 1_556
C22 H66 1.097693 1_655
C22 H62 1.098819 1_555
C22 H70 1.099149 1_555
C22 Si14 1.906388 1_655
C23 H67 1.097693 1_555
C23 H63 1.098819 1_555
C23 H71 1.099149 1_555
C23 Si15 1.906388 1_554
C24 H76 1.095969 1_555
C24 H80 1.098720 1_555
C24 H72 1.099099 1_555
C24 Si16 1.898229 1_555
C25 H77 1.095969 1_555
C25 H81 1.098720 1_555
C25 H73 1.099099 1_545
C25 Si17 1.898229 1_555
C26 H78 1.095969 1_555
C26 H82 1.098720 1_555
C26 H74 1.099099 1_555
C26 Si18 1.898229 1_555
C27 H79 1.095969 1_555
C27 H83 1.098720 1_555
C27 H75 1.099099 1_565
C27 Si19 1.898229 1_555
C28 H88 1.097686 1_555
C28 H84 1.099771 1_555
C28 H92 1.100728 1_555
C28 Si16 1.907363 1_455
C29 H89 1.097686 1_555
C29 H85 1.099771 1_555
C29 H93 1.100728 1_545
C29 Si17 1.907363 1_555
C30 H90 1.097686 1_555
C30 H86 1.099771 1_555
C30 H94 1.100728 1_555
C30 Si18 1.907363 1_655
C31 H91 1.097686 1_555
C31 H87 1.099771 1_555
C31 H95 1.100728 1_565
C31 Si19 1.907363 1_555
C32 H100 1.098486 1_555
C32 H96 1.099275 1_555
C32 H104 1.100459 1_555
C32 Si24 1.909949 1_555
C33 H101 1.098486 1_555
C33 H97 1.099275 1_555
C33 H105 1.100459 1_555
C33 Si25 1.909949 1_555
C34 H102 1.098486 1_555
C34 H98 1.099275 1_555
C34 H106 1.100459 1_555
C34 Si26 1.909949 1_555
C35 H103 1.098486 1_555
C35 H99 1.099275 1_555
C35 H107 1.100459 1_555
C35 Si27 1.909949 1_555
C36 H112 1.097307 1_555
C36 H116 1.099503 1_555
C36 H108 1.099508 1_555
C36 Si24 1.899679 1_555
C37 H113 1.097307 1_555
C37 H117 1.099503 1_555
C37 H109 1.099508 1_555
C37 Si25 1.899679 1_555
C38 H114 1.097307 1_555
C38 H118 1.099503 1_555
C38 H110 1.099508 1_555
C38 Si26 1.899679 1_555
C39 H115 1.097307 1_555
C39 H119 1.099503 1_555
C39 H111 1.099508 1_555
C39 Si27 1.899679 1_555
C40 H124 1.096580 1_555
C40 H120 1.098795 1_555
C40 H128 1.100140 1_555
C40 Si28 1.903896 1_555
C41 H125 1.096580 1_655
C41 H121 1.098795 1_555
C41 H129 1.100140 1_555
C41 Si29 1.903896 1_655
C42 H126 1.096580 1_555
C42 H122 1.098795 1_555
C42 H130 1.100140 1_555
C42 Si30 1.903896 1_555
C43 H127 1.096580 1_455
C43 H123 1.098795 1_555
C43 H131 1.100140 1_555
C43 Si31 1.903896 1_455
C44 H136 1.097932 1_555
C44 H132 1.099647 1_555
C44 H140 1.100492 1_555
C44 Si28 1.907071 1_555
C45 H137 1.097932 1_555
C45 H133 1.099647 1_455
C45 H141 1.100492 1_455
C45 Si29 1.907071 1_555
C46 H138 1.097932 1_555
C46 H134 1.099647 1_555
C46 H142 1.100492 1_555
C46 Si30 1.907071 1_555
C47 H139 1.097932 1_555
C47 H135 1.099647 1_655
C47 H143 1.100492 1_655
C47 Si31 1.907071 1_555
C48 H148 1.098594 1_555
C48 H152 1.099203 1_555
C48 H144 1.100120 1_555
C48 Si32 1.895342 1_555
C49 H149 1.098594 1_556
C49 H153 1.099203 1_555
C49 H145 1.100120 1_555
C49 Si33 1.895342 1_655
C50 H150 1.098594 1_555
C50 H154 1.099203 1_555
C50 H146 1.100120 1_555
C50 Si34 1.895342 1_555
C51 H151 1.098594 1_554
C51 H155 1.099203 1_555
C51 H147 1.100120 1_555
C51 Si35 1.895342 1_455
C52 H156 1.098135 1_555
C52 H160 1.098653 1_555
C52 H164 1.100034 1_555
C52 Si32 1.893310 1_555
C53 H157 1.098135 1_555
C53 H161 1.098653 1_555
C53 H165 1.100034 1_555
C53 Si33 1.893310 1_555
C54 H158 1.098135 1_555
C54 H162 1.098653 1_555
C54 H166 1.100034 1_555
C54 Si34 1.893310 1_555
C55 H159 1.098135 1_555
C55 H163 1.098653 1_555
C55 H167 1.100034 1_555
C55 Si35 1.893310 1_555
C56 H172 1.097173 1_555
C56 H168 1.097939 1_555
C56 H176 1.100648 1_555
C56 Si32 1.889371 1_555
C57 H173 1.097173 1_556
C57 H169 1.097939 1_555
C57 H177 1.100648 1_555
C57 Si33 1.889371 1_555
C58 H174 1.097173 1_555
C58 H170 1.097939 1_555
C58 H178 1.100648 1_555
C58 Si34 1.889371 1_555
C59 H175 1.097173 1_554
C59 H171 1.097939 1_555
C59 H179 1.100648 1_555
C59 Si35 1.889371 1_555
C60 H184 1.097436 1_555
C60 H180 1.098258 1_555
C60 H188 1.100976 1_555
C60 Si36 1.890425 1_555
C61 H185 1.097436 1_555
C61 H181 1.098258 1_555
C61 H189 1.100976 1_555
C61 Si37 1.890425 1_555
C62 H186 1.097436 1_555
C62 H182 1.098258 1_555
C62 H190 1.100976 1_555
C62 Si38 1.890425 1_555
C63 H187 1.097436 1_555
C63 H183 1.098258 1_555
C63 H191 1.100976 1_555
C63 Si39 1.890425 1_555
C64 H196 1.097610 1_555
C64 H192 1.098461 1_555
C64 H200 1.100348 1_555
C64 Si36 1.896010 1_555
C65 H197 1.097610 1_555
C65 H193 1.098461 1_555
C65 H201 1.100348 1_555
C65 Si37 1.896010 1_555
C66 H198 1.097610 1_555
C66 H194 1.098461 1_555
C66 H202 1.100348 1_555
C66 Si38 1.896010 1_555
C67 H199 1.097610 1_555
C67 H195 1.098461 1_555
C67 H203 1.100348 1_555
C67 Si39 1.896010 1_555
C68 H208 1.097453 1_555
C68 H212 1.098466 1_555
C68 H204 1.100638 1_555
C68 Si36 1.888922 1_555
C69 H209 1.097453 1_555
C69 H213 1.098466 1_555
C69 H205 1.100638 1_555
C69 Si37 1.888922 1_555
C70 H210 1.097453 1_555
C70 H214 1.098466 1_555
C70 H206 1.100638 1_555
C70 Si38 1.888922 1_555
C71 H211 1.097453 1_555
C71 H215 1.098466 1_555
C71 H207 1.100638 1_555
C71 Si39 1.888922 1_555
C72 H220 1.097727 1_555
C72 H216 1.098950 1_555
C72 H224 1.100780 1_555
C72 Si40 1.894521 1_555
C73 H221 1.097727 1_545
C73 H217 1.098950 1_545
C73 H225 1.100780 1_555
C73 Si41 1.894521 1_555
C74 H222 1.097727 1_555
C74 H218 1.098950 1_555
C74 H226 1.100780 1_555
C74 Si42 1.894521 1_555
C75 H223 1.097727 1_565
C75 H219 1.098950 1_565
C75 H227 1.100780 1_555
C75 Si43 1.894521 1_555
C76 H232 1.097365 1_455
C76 H236 1.098744 1_455
C76 H228 1.100576 1_555
C76 Si40 1.892735 1_555
C77 H233 1.097365 1_555
C77 H237 1.098744 1_555
C77 H229 1.100576 1_555
C77 Si41 1.892735 1_555
C78 H234 1.097365 1_655
C78 H238 1.098744 1_655
C78 H230 1.100576 1_555
C78 Si42 1.892735 1_555
C79 H235 1.097365 1_555
C79 H239 1.098744 1_555
C79 H231 1.100576 1_555
C79 Si43 1.892735 1_555
C80 H248 1.098011 1_555
C80 H244 1.098670 1_555
C80 H240 1.099582 1_555
C80 Si40 1.889050 1_555
C81 H249 1.098011 1_555
C81 H245 1.098670 1_555
C81 H241 1.099582 1_555
C81 Si41 1.889050 1_555
C82 H250 1.098011 1_555
C82 H246 1.098670 1_555
C82 H242 1.099582 1_555
C82 Si42 1.889050 1_555
C83 H251 1.098011 1_555
C83 H247 1.098670 1_555
C83 H243 1.099582 1_555
C83 Si43 1.889050 1_555
