# generated using pymatgen
data_Rb3HoCl6
_symmetry_space_group_name_H-M   'P 1'
_cell_length_a   13.46680766
_cell_length_b   13.46680766
_cell_length_c   12.78380477
_cell_angle_alpha   80.99798892
_cell_angle_beta   80.99798892
_cell_angle_gamma   34.22381227
_symmetry_Int_Tables_number   1
_chemical_formula_structural   Rb3HoCl6
_chemical_formula_sum   'Rb12 Ho4 Cl24'
_cell_volume   1286.34070609
_cell_formula_units_Z   4
loop_
 _symmetry_equiv_pos_site_id
 _symmetry_equiv_pos_as_xyz
  1  'x, y, z'
loop_
 _atom_site_type_symbol
 _atom_site_label
 _atom_site_symmetry_multiplicity
 _atom_site_fract_x
 _atom_site_fract_y
 _atom_site_fract_z
 _atom_site_occupancy
  Rb  Rb0  1  0.29425276  0.80919875  0.06311991  1
  Rb  Rb1  1  0.70574724  0.19080125  0.93688009  1
  Rb  Rb2  1  0.19080125  0.70574724  0.43688009  1
  Rb  Rb3  1  0.80919875  0.29425276  0.56311991  1
  Rb  Rb4  1  0.47032649  0.83721346  0.35504298  1
  Rb  Rb5  1  0.52967351  0.16278654  0.64495702  1
  Rb  Rb6  1  0.16278654  0.52967351  0.14495702  1
  Rb  Rb7  1  0.83721346  0.47032649  0.85504298  1
  Rb  Rb8  1  0.65266038  0.02303166  0.30234710  1
  Rb  Rb9  1  0.34733962  0.97696834  0.69765290  1
  Rb  Rb10  1  0.97696834  0.34733962  0.19765290  1
  Rb  Rb11  1  0.02303166  0.65266038  0.80234710  1
  Ho  Ho0  1  0.79299154  0.20700846  0.25000000  1
  Ho  Ho1  1  0.20700846  0.79299154  0.75000000  1
  Ho  Ho2  1  0.50000000  -0.00000000  -0.00000000  1
  Ho  Ho3  1  0.00000000  0.50000000  0.50000000  1
  Cl  Cl0  1  0.62184991  0.72088845  0.07808194  1
  Cl  Cl1  1  0.37815009  0.27911155  0.92191806  1
  Cl  Cl2  1  0.27911155  0.37815009  0.42191806  1
  Cl  Cl3  1  0.72088845  0.62184991  0.57808194  1
  Cl  Cl4  1  0.50779288  0.37108981  0.17959638  1
  Cl  Cl5  1  0.49220712  0.62891019  0.82040362  1
  Cl  Cl6  1  0.62891019  0.49220712  0.32040362  1
  Cl  Cl7  1  0.37108981  0.50779288  0.67959638  1
  Cl  Cl8  1  0.78653460  0.85870695  0.03408161  1
  Cl  Cl9  1  0.21346540  0.14129305  0.96591839  1
  Cl  Cl10  1  0.14129305  0.21346540  0.46591839  1
  Cl  Cl11  1  0.85870695  0.78653460  0.53408161  1
  Cl  Cl12  1  0.89920631  0.97977839  0.70157878  1
  Cl  Cl13  1  0.10079369  0.02022161  0.29842122  1
  Cl  Cl14  1  0.02022161  0.10079369  0.79842122  1
  Cl  Cl15  1  0.97977839  0.89920631  0.20157878  1
  Cl  Cl16  1  0.72880824  0.15738905  0.43749508  1
  Cl  Cl17  1  0.27119176  0.84261095  0.56250492  1
  Cl  Cl18  1  0.84261095  0.27119176  0.06250492  1
  Cl  Cl19  1  0.15738905  0.72880824  0.93749508  1
  Cl  Cl20  1  0.36442538  0.13612836  0.18835230  1
  Cl  Cl21  1  0.63557462  0.86387164  0.81164770  1
  Cl  Cl22  1  0.86387164  0.63557462  0.31164770  1
  Cl  Cl23  1  0.13612836  0.36442538  0.68835230  1
loop_
_geom_bond_atom_site_label_1
_geom_bond_atom_site_label_2
_geom_bond_distance
_geom_bond_site_symmetry_2
Cl0 Ho2 2.637407 1_565
Cl0 Rb10 3.257401 1_555
Cl0 Rb7 3.488053 1_554
Cl0 Rb0 3.525686 1_555
Cl0 Rb4 3.652729 1_555
Cl1 Ho2 2.637407 1_556
Cl1 Rb11 3.257401 1_555
Cl1 Rb6 3.488053 1_556
Cl1 Rb1 3.525686 1_555
Cl1 Rb5 3.652729 1_555
Cl2 Ho3 2.637407 1_555
Cl2 Rb8 3.257401 1_555
Cl2 Rb5 3.488053 1_555
Cl2 Rb2 3.525686 1_555
Cl2 Rb6 3.652729 1_555
Cl3 Ho3 2.637407 1_655
Cl3 Rb9 3.257401 1_555
Cl3 Rb4 3.488053 1_555
Cl3 Rb3 3.525686 1_555
Cl3 Rb7 3.652729 1_555
Cl4 Ho0 2.620837 1_555
Cl4 Rb6 3.206691 1_555
Cl4 Rb1 3.419739 1_554
Cl4 Rb8 3.431176 1_555
Cl5 Ho1 2.620837 1_555
Cl5 Rb7 3.206691 1_555
Cl5 Rb0 3.419739 1_556
Cl5 Rb9 3.431176 1_555
Cl6 Ho0 2.620837 1_555
Cl6 Rb4 3.206691 1_555
Cl6 Rb3 3.419739 1_555
Cl6 Rb10 3.431176 1_555
Cl7 Ho1 2.620837 1_555
Cl7 Rb5 3.206691 1_555
Cl7 Rb2 3.419739 1_555
Cl7 Rb11 3.431176 1_555
Cl8 Ho2 2.612445 1_565
Cl8 Rb6 3.235829 1_655
Cl8 Rb11 3.409475 1_654
Cl8 Rb1 3.656027 1_564
Cl8 Rb8 3.708237 1_565
Cl9 Ho2 2.612445 1_556
Cl9 Rb7 3.235829 1_455
Cl9 Rb10 3.409475 1_456
Cl9 Rb0 3.656027 1_546
Cl9 Rb9 3.708237 1_545
Cl10 Ho3 2.612445 1_555
Cl10 Rb4 3.235829 1_545
Cl10 Rb9 3.409475 1_545
Cl10 Rb3 3.656027 1_455
Cl10 Rb10 3.708237 1_455
Cl11 Ho3 2.612445 1_655
Cl11 Rb5 3.235829 1_565
Cl11 Rb8 3.409475 1_565
Cl11 Rb2 3.656027 1_655
Cl11 Rb11 3.708237 1_655
Cl12 Ho1 2.639239 1_655
Cl12 Rb11 3.254959 1_655
Cl12 Rb5 3.413185 1_565
Cl12 Rb1 3.448316 1_565
Cl12 Rb3 3.517660 1_565
Cl13 Ho0 2.639239 1_455
Cl13 Rb10 3.254959 1_455
Cl13 Rb4 3.413185 1_545
Cl13 Rb0 3.448316 1_545
Cl13 Rb2 3.517660 1_545
Cl14 Ho1 2.639239 1_545
Cl14 Rb9 3.254959 1_545
Cl14 Rb7 3.413185 1_455
Cl14 Rb3 3.448316 1_455
Cl14 Rb1 3.517660 1_455
Cl15 Ho0 2.639239 1_565
Cl15 Rb8 3.254959 1_565
Cl15 Rb6 3.413185 1_655
Cl15 Rb2 3.448316 1_655
Cl15 Rb0 3.517660 1_655
Cl16 Ho0 2.596981 1_555
Cl16 Rb5 3.426811 1_555
Cl16 Rb8 3.451288 1_555
Cl16 Rb3 3.452293 1_555
Cl16 Rb2 3.622652 1_645
Cl17 Ho1 2.596981 1_555
Cl17 Rb4 3.426811 1_555
Cl17 Rb9 3.451288 1_555
Cl17 Rb2 3.452293 1_555
Cl17 Rb3 3.622652 1_465
Cl18 Ho0 2.596981 1_555
Cl18 Rb7 3.426811 1_554
Cl18 Rb10 3.451288 1_555
Cl18 Rb1 3.452293 1_554
Cl18 Rb0 3.622652 1_645
Cl19 Ho1 2.596981 1_555
Cl19 Rb6 3.426811 1_556
Cl19 Rb11 3.451288 1_555
Cl19 Rb0 3.452293 1_556
Cl19 Rb1 3.622652 1_465
Cl20 Ho2 2.638664 1_555
Cl20 Rb10 3.270900 1_455
Cl20 Rb8 3.287762 1_555
Cl20 Rb6 3.394380 1_555
Cl20 Rb4 3.398812 1_545
Cl21 Ho2 2.638664 1_566
Cl21 Rb11 3.270900 1_655
Cl21 Rb9 3.287762 1_555
Cl21 Rb7 3.394380 1_555
Cl21 Rb5 3.398812 1_565
Cl22 Ho3 2.638664 1_655
Cl22 Rb8 3.270900 1_565
Cl22 Rb10 3.287762 1_555
Cl22 Rb4 3.394380 1_555
Cl22 Rb6 3.398812 1_655
Cl23 Ho3 2.638664 1_555
Cl23 Rb9 3.270900 1_545
Cl23 Rb11 3.287762 1_555
Cl23 Rb5 3.394380 1_555
Cl23 Rb7 3.398812 1_455
