# generated using pymatgen
data_BaTbFe4O7
_symmetry_space_group_name_H-M   'P 1'
_cell_length_a   6.37849364
_cell_length_b   6.37849364
_cell_length_c   10.76551900
_cell_angle_alpha   90.00000000
_cell_angle_beta   90.00000000
_cell_angle_gamma   120.00001698
_symmetry_Int_Tables_number   1
_chemical_formula_structural   BaTbFe4O7
_chemical_formula_sum   'Ba2 Tb2 Fe8 O14'
_cell_volume   379.31654174
_cell_formula_units_Z   2
loop_
 _symmetry_equiv_pos_site_id
 _symmetry_equiv_pos_as_xyz
  1  'x, y, z'
loop_
 _atom_site_type_symbol
 _atom_site_label
 _atom_site_symmetry_multiplicity
 _atom_site_fract_x
 _atom_site_fract_y
 _atom_site_fract_z
 _atom_site_occupancy
  Ba  Ba0  1  0.66666700  0.33333300  0.53407900  1
  Ba  Ba1  1  0.33333300  0.66666700  0.03407900  1
  Tb  Tb0  1  0.66666700  0.33333300  0.94048200  1
  Tb  Tb1  1  0.33333300  0.66666700  0.44048200  1
  Fe  Fe0  1  0.18885500  0.37770900  0.73870500  1
  Fe  Fe1  1  0.18885500  0.81114500  0.73870500  1
  Fe  Fe2  1  0.81114500  0.62229100  0.23870500  1
  Fe  Fe3  1  0.62229100  0.81114500  0.73870500  1
  Fe  Fe4  1  0.81114500  0.18885500  0.23870500  1
  Fe  Fe5  1  0.37770900  0.18885500  0.23870500  1
  Fe  Fe6  1  0.00000000  0.00000000  0.98582200  1
  Fe  Fe7  1  0.00000000  0.00000000  0.48582200  1
  O  O0  1  0.00000000  0.00000000  0.80773400  1
  O  O1  1  0.00000000  0.00000000  0.30773400  1
  O  O2  1  0.15697800  0.31395500  0.55957800  1
  O  O3  1  0.15697800  0.84302200  0.55957800  1
  O  O4  1  0.84302200  0.68604500  0.05957800  1
  O  O5  1  0.68604500  0.84302200  0.55957800  1
  O  O6  1  0.84302200  0.15697800  0.05957800  1
  O  O7  1  0.31395500  0.15697800  0.05957800  1
  O  O8  1  0.49233600  0.98467200  0.83661200  1
  O  O9  1  0.49233600  0.50766400  0.83661200  1
  O  O10  1  0.50766400  0.01532800  0.33661200  1
  O  O11  1  0.01532800  0.50766400  0.83661200  1
  O  O12  1  0.50766400  0.49233600  0.33661200  1
  O  O13  1  0.98467200  0.49233600  0.33661200  1
loop_
_geom_bond_atom_site_label_1
_geom_bond_atom_site_label_2
_geom_bond_distance
_geom_bond_site_symmetry_2
Ba0 O10 2.757708 1_555
Ba0 O13 2.757708 1_555
Ba0 O12 2.757712 1_555
Ba0 O3 3.202827 1_655
Ba0 O3 3.202827 1_545
Ba0 O5 3.202828 1_555
Ba0 O2 3.202828 1_555
Ba0 O2 3.202828 1_655
Ba0 O5 3.202828 1_545
Ba1 O11 2.757708 1_554
Ba1 O8 2.757708 1_554
Ba1 O9 2.757712 1_554
Ba1 O6 3.202827 1_565
Ba1 O6 3.202827 1_455
Ba1 O4 3.202828 1_555
Ba1 O7 3.202828 1_555
Ba1 O7 3.202828 1_565
Ba1 O4 3.202828 1_455
Fe0 O2 1.960289 1_555
Fe0 O9 1.985099 1_555
Fe0 O11 1.985104 1_555
Fe0 O0 2.214832 1_555
Fe1 O3 1.960289 1_555
Fe1 O8 1.985099 1_555
Fe1 O11 1.985099 1_555
Fe1 O0 2.214838 1_565
Fe2 O4 1.960289 1_555
Fe2 O12 1.985099 1_555
Fe2 O13 1.985104 1_555
Fe2 O1 2.214832 1_665
Fe3 O5 1.960289 1_555
Fe3 O9 1.985099 1_555
Fe3 O8 1.985104 1_555
Fe3 O0 2.214832 1_665
Fe4 O6 1.960289 1_555
Fe4 O10 1.985099 1_555
Fe4 O13 1.985099 1_555
Fe4 O1 2.214838 1_655
Fe5 O7 1.960289 1_555
Fe5 O12 1.985099 1_555
Fe5 O10 1.985104 1_555
Fe5 O1 2.214832 1_555
Fe6 O4 1.907395 1_446
Fe6 O7 1.907395 1_556
Fe6 O6 1.907400 1_456
Fe6 O0 1.917210 1_555
Fe7 O2 1.907395 1_555
Fe7 O5 1.907395 1_445
Fe7 O3 1.907400 1_545
Fe7 O1 1.917210 1_555
O2 Tb1 2.332372 1_555
O3 Tb1 2.332363 1_555
O4 Tb0 2.332372 1_554
O5 Tb1 2.332372 1_555
O6 Tb0 2.332363 1_554
O7 Tb0 2.332372 1_554
O8 Tb0 2.227062 1_565
O9 Tb0 2.227068 1_555
O10 Tb1 2.227062 1_545
O11 Tb0 2.227062 1_455
O12 Tb1 2.227068 1_555
O13 Tb1 2.227062 1_655
