# generated using pymatgen
data_GaSi(MoS2)4
_symmetry_space_group_name_H-M   'P 1'
_cell_length_a   7.49563876
_cell_length_b   7.49563876
_cell_length_c   7.49563876
_cell_angle_alpha   60.00000000
_cell_angle_beta   60.00000000
_cell_angle_gamma   60.00000000
_symmetry_Int_Tables_number   1
_chemical_formula_structural   GaSi(MoS2)4
_chemical_formula_sum   'Ga1 Si1 Mo4 S8'
_cell_volume   297.79057468
_cell_formula_units_Z   1
loop_
 _symmetry_equiv_pos_site_id
 _symmetry_equiv_pos_as_xyz
  1  'x, y, z'
loop_
 _atom_site_type_symbol
 _atom_site_label
 _atom_site_symmetry_multiplicity
 _atom_site_fract_x
 _atom_site_fract_y
 _atom_site_fract_z
 _atom_site_occupancy
  Ga  Ga0  1  0.00000000  0.00000000  0.00000000  1
  Si  Si0  1  0.25000000  0.25000000  0.25000000  1
  Mo  Mo0  1  0.40587900  0.78236200  0.40587900  1
  Mo  Mo1  1  0.78236200  0.40587900  0.40587900  1
  Mo  Mo2  1  0.40587900  0.40587900  0.40587900  1
  Mo  Mo3  1  0.40587900  0.40587900  0.78236200  1
  S  S0  1  0.13635900  0.13635900  0.13635900  1
  S  S1  1  0.13635900  0.59092300  0.13635900  1
  S  S2  1  0.59092300  0.13635900  0.13635900  1
  S  S3  1  0.13635900  0.13635900  0.59092300  1
  S  S4  1  0.62437300  0.62437300  0.12688100  1
  S  S5  1  0.62437300  0.62437300  0.62437300  1
  S  S6  1  0.12688100  0.62437300  0.62437300  1
  S  S7  1  0.62437300  0.12688100  0.62437300  1
loop_
_geom_bond_atom_site_label_1
_geom_bond_atom_site_label_2
_geom_bond_distance
_geom_bond_site_symmetry_2
Ga0 S0 2.503618 1_555
Ga0 S1 2.503618 1_545
Ga0 S3 2.503618 1_554
Ga0 S2 2.503618 1_455
Mo0 S6 2.360110 1_555
Mo0 S4 2.360110 1_555
Mo0 S5 2.360116 1_555
Mo1 S7 2.360110 1_555
Mo1 S4 2.360110 1_555
Mo1 S5 2.360116 1_555
Mo2 S6 2.360115 1_555
Mo2 S7 2.360115 1_555
Mo2 S4 2.360115 1_555
Mo3 S6 2.360110 1_555
Mo3 S7 2.360110 1_555
Mo3 S5 2.360116 1_555
S0 Si0 2.086504 1_555
S1 Si0 2.086504 1_555
S2 Si0 2.086504 1_555
S3 Si0 2.086504 1_555
