# generated using pymatgen
data_BePRu2
_symmetry_space_group_name_H-M   'P 1'
_cell_length_a   9.16758570
_cell_length_b   9.16758570
_cell_length_c   9.16758570
_cell_angle_alpha   122.08977047
_cell_angle_beta   119.29130653
_cell_angle_gamma   88.82550014
_symmetry_Int_Tables_number   1
_chemical_formula_structural   BePRu2
_chemical_formula_sum   'Be1 P1 Ru2'
_cell_volume   538.59449352
_cell_formula_units_Z   1
loop_
 _symmetry_equiv_pos_site_id
 _symmetry_equiv_pos_as_xyz
  1  'x, y, z'
loop_
 _atom_site_type_symbol
 _atom_site_label
 _atom_site_symmetry_multiplicity
 _atom_site_fract_x
 _atom_site_fract_y
 _atom_site_fract_z
 _atom_site_occupancy
  Be  Be0  1  0.00000000  0.00000000  0.00000000  1
  P  P0  1  0.00000000  0.50000000  0.50000000  1
  Ru  Ru0  1  0.00000000  0.26513600  0.26513600  1
  Ru  Ru1  1  0.00000000  0.73486400  0.73486400  1
loop_
_geom_bond_atom_site_label_1
_geom_bond_atom_site_label_2
_geom_bond_distance
_geom_bond_site_symmetry_2
Be0 Ru0 2.353480 1_555
Be0 Ru1 2.353480 1_544
P0 Ru1 2.084771 1_555
P0 Ru0 2.084771 1_555
