# generated using pymatgen
data_Li5Mn2CoO8
_symmetry_space_group_name_H-M   'P 1'
_cell_length_a   2.88823524
_cell_length_b   5.88334469
_cell_length_c   8.36155044
_cell_angle_alpha   89.59901198
_cell_angle_beta   89.58661782
_cell_angle_gamma   90.99568306
_symmetry_Int_Tables_number   1
_chemical_formula_structural   Li5Mn2CoO8
_chemical_formula_sum   'Li5 Mn2 Co1 O8'
_cell_volume   142.05475061
_cell_formula_units_Z   1
loop_
 _symmetry_equiv_pos_site_id
 _symmetry_equiv_pos_as_xyz
  1  'x, y, z'
loop_
 _atom_site_type_symbol
 _atom_site_label
 _atom_site_symmetry_multiplicity
 _atom_site_fract_x
 _atom_site_fract_y
 _atom_site_fract_z
 _atom_site_occupancy
  Li  Li0  1  0.99817300  0.50713300  0.02992500  1
  Li  Li1  1  0.50000400  0.25000100  0.24999100  1
  Li  Li2  1  0.50000600  0.75001200  0.74999400  1
  Li  Li3  1  0.00184000  0.99287200  0.47007700  1
  Li  Li4  1  0.50000300  0.75002500  0.25000800  1
  Mn  Mn0  1  0.00719900  0.99677500  0.01264300  1
  Mn  Mn1  1  0.99272500  0.50327200  0.48743100  1
  Co  Co0  1  0.50002200  0.25002500  0.75001500  1
  O  O0  1  0.51329600  0.22728900  0.99767600  1
  O  O1  1  0.00057200  0.00108400  0.22932600  1
  O  O2  1  0.97675800  0.48324600  0.73488700  1
  O  O3  1  0.49928600  0.72283800  0.50039700  1
  O  O4  1  0.50071700  0.77709500  0.99958500  1
  O  O5  1  0.99943200  0.49890900  0.27062700  1
  O  O6  1  0.02324700  0.01675400  0.76510900  1
  O  O7  1  0.48671900  0.27267100  0.50230800  1
loop_
_geom_bond_atom_site_label_1
_geom_bond_atom_site_label_2
_geom_bond_distance
_geom_bond_site_symmetry_2
Li0 O5 2.012916 1_555
Li0 O4 2.145383 1_654
Li0 O0 2.162444 1_554
Li0 O4 2.174908 1_554
Li0 O0 2.254440 1_654
Li0 O2 2.473114 1_554
Li1 O5 2.046630 1_555
Li1 O1 2.046699 1_555
Li1 O5 2.082797 1_455
Li1 O1 2.082847 1_655
Li1 O7 2.115018 1_555
Li1 O0 2.115019 1_554
Li2 O4 2.094166 1_555
Li2 O3 2.094261 1_555
Li2 O6 2.109564 1_565
Li2 O2 2.109653 1_555
Li2 O6 2.164659 1_665
Li2 O2 2.164769 1_455
Li3 O1 2.013325 1_565
Li3 O3 2.145692 1_455
Li3 O7 2.162229 1_565
Li3 O3 2.175183 1_555
Li3 O7 2.254222 1_465
Li3 O6 2.473062 1_565
Li4 O1 2.054375 1_665
Li4 O5 2.054577 1_455
Li4 O1 2.089602 1_565
Li4 O5 2.089795 1_555
Li4 O3 2.098608 1_555
Li4 O4 2.098844 1_554
Mn0 O1 1.812128 1_565
Mn0 O4 1.939285 1_454
Mn0 O4 1.943673 1_554
Mn0 O0 1.979307 1_564
Mn0 O0 1.989292 1_464
Mn0 O6 2.072420 1_564
Mn1 O5 1.813147 1_555
Mn1 O3 1.938965 1_655
Mn1 O3 1.943006 1_555
Mn1 O7 1.979421 1_555
Mn1 O7 1.989792 1_655
Mn1 O2 2.071780 1_555
Co0 O2 1.929775 1_555
Co0 O6 1.930044 1_555
Co0 O2 2.062806 1_455
Co0 O6 2.062904 1_655
Co0 O0 2.074885 1_555
Co0 O7 2.075240 1_555
