# generated using pymatgen
data_GaCo3
_symmetry_space_group_name_H-M   'P 1'
_cell_length_a   5.08567993
_cell_length_b   5.08567993
_cell_length_c   4.11054300
_cell_angle_alpha   90.00000000
_cell_angle_beta   90.00000000
_cell_angle_gamma   119.99999915
_symmetry_Int_Tables_number   1
_chemical_formula_structural   GaCo3
_chemical_formula_sum   'Ga2 Co6'
_cell_volume   92.07206426
_cell_formula_units_Z   2
loop_
 _symmetry_equiv_pos_site_id
 _symmetry_equiv_pos_as_xyz
  1  'x, y, z'
loop_
 _atom_site_type_symbol
 _atom_site_label
 _atom_site_symmetry_multiplicity
 _atom_site_fract_x
 _atom_site_fract_y
 _atom_site_fract_z
 _atom_site_occupancy
  Ga  Ga0  1  0.33333300  0.66666700  0.75000000  1
  Ga  Ga1  1  0.66666700  0.33333300  0.25000000  1
  Co  Co0  1  0.16569600  0.33139100  0.25000000  1
  Co  Co1  1  0.66860900  0.83430400  0.25000000  1
  Co  Co2  1  0.16569600  0.83430400  0.25000000  1
  Co  Co3  1  0.83430400  0.66860900  0.75000000  1
  Co  Co4  1  0.33139100  0.16569600  0.75000000  1
  Co  Co5  1  0.83430400  0.16569600  0.75000000  1
loop_
_geom_bond_atom_site_label_1
_geom_bond_atom_site_label_2
_geom_bond_distance
_geom_bond_site_symmetry_2
Co0 Co4 2.520799 1_555
Co0 Co4 2.520799 1_554
Co0 Co5 2.520804 1_455
Co0 Co5 2.520804 1_454
Co0 Co2 2.528025 1_545
Co0 Co1 2.528025 1_445
Co0 Ga0 2.530747 1_555
Co0 Ga0 2.530747 1_554
Co0 Ga1 2.542854 1_455
Co0 Ga1 2.542854 1_555
Co0 Co2 2.557655 1_555
Co0 Co1 2.557655 1_555
Co1 Co3 2.520799 1_555
Co1 Co3 2.520799 1_554
Co1 Co5 2.520804 1_564
Co1 Co5 2.520804 1_565
Co1 Co2 2.528025 1_655
Co1 Ga0 2.530747 1_555
Co1 Ga0 2.530747 1_554
Co1 Ga1 2.542854 1_565
Co1 Ga1 2.542854 1_555
Co1 Co2 2.557655 1_555
Co2 Co4 2.520804 1_565
Co2 Co3 2.520804 1_454
Co2 Co4 2.520804 1_564
Co2 Co3 2.520804 1_455
Co2 Ga0 2.530742 1_555
Co2 Ga0 2.530742 1_554
Co2 Ga1 2.542854 1_565
Co2 Ga1 2.542854 1_455
Co3 Co5 2.528025 1_565
Co3 Co4 2.528025 1_665
Co3 Ga1 2.530747 1_556
Co3 Ga1 2.530747 1_555
Co3 Ga0 2.542854 1_655
Co3 Ga0 2.542854 1_555
Co3 Co5 2.557655 1_555
Co3 Co4 2.557655 1_555
Co4 Co5 2.528025 1_455
Co4 Ga1 2.530747 1_556
Co4 Ga1 2.530747 1_555
Co4 Ga0 2.542854 1_545
Co4 Ga0 2.542854 1_555
Co4 Co5 2.557655 1_555
Co5 Ga1 2.530742 1_556
Co5 Ga1 2.530742 1_555
Co5 Ga0 2.542854 1_545
Co5 Ga0 2.542854 1_655
