# generated using pymatgen
data_KTa3(TeO6)2
_symmetry_space_group_name_H-M   'P 1'
_cell_length_a   3.98561100
_cell_length_b   15.17885800
_cell_length_c   17.65517200
_cell_angle_alpha   90.00000000
_cell_angle_beta   90.00000000
_cell_angle_gamma   90.00000000
_symmetry_Int_Tables_number   1
_chemical_formula_structural   KTa3(TeO6)2
_chemical_formula_sum   'K4 Ta12 Te8 O48'
_cell_volume   1068.08535383
_cell_formula_units_Z   4
loop_
 _symmetry_equiv_pos_site_id
 _symmetry_equiv_pos_as_xyz
  1  'x, y, z'
loop_
 _atom_site_type_symbol
 _atom_site_label
 _atom_site_symmetry_multiplicity
 _atom_site_fract_x
 _atom_site_fract_y
 _atom_site_fract_z
 _atom_site_occupancy
  K  K0  1  0.22153000  0.07095300  0.75000000  1
  K  K1  1  0.77847000  0.92904700  0.25000000  1
  K  K2  1  0.22153000  0.42904700  0.25000000  1
  K  K3  1  0.77847000  0.57095300  0.75000000  1
  Ta  Ta0  1  0.25241000  0.79373600  0.75000000  1
  Ta  Ta1  1  0.74759000  0.20626400  0.25000000  1
  Ta  Ta2  1  0.25241000  0.70626400  0.25000000  1
  Ta  Ta3  1  0.74759000  0.29373600  0.75000000  1
  Ta  Ta4  1  0.75099800  0.14990700  0.56949500  1
  Ta  Ta5  1  0.24900200  0.85009300  0.06949500  1
  Ta  Ta6  1  0.75099800  0.35009300  0.43050500  1
  Ta  Ta7  1  0.24900200  0.64990700  0.93050500  1
  Ta  Ta8  1  0.24900200  0.85009300  0.43050500  1
  Ta  Ta9  1  0.75099800  0.14990700  0.93050500  1
  Ta  Ta10  1  0.24900200  0.64990700  0.56949500  1
  Ta  Ta11  1  0.75099800  0.35009300  0.06949500  1
  Te  Te0  1  0.62008400  0.91419300  0.59759700  1
  Te  Te1  1  0.37991600  0.08580700  0.09759700  1
  Te  Te2  1  0.62008400  0.58580700  0.40240300  1
  Te  Te3  1  0.37991600  0.41419300  0.90240300  1
  Te  Te4  1  0.37991600  0.08580700  0.40240300  1
  Te  Te5  1  0.62008400  0.91419300  0.90240300  1
  Te  Te6  1  0.37991600  0.41419300  0.59759700  1
  Te  Te7  1  0.62008400  0.58580700  0.09759700  1
  O  O0  1  0.27996900  0.93319200  0.52325400  1
  O  O1  1  0.72003100  0.06680800  0.02325400  1
  O  O2  1  0.27996900  0.56680800  0.47674600  1
  O  O3  1  0.72003100  0.43319200  0.97674600  1
  O  O4  1  0.72003100  0.06680800  0.47674600  1
  O  O5  1  0.27996900  0.93319200  0.97674600  1
  O  O6  1  0.72003100  0.43319200  0.52325400  1
  O  O7  1  0.27996900  0.56680800  0.02325400  1
  O  O8  1  0.70296300  0.03151000  0.62966700  1
  O  O9  1  0.29703700  0.96849000  0.12966700  1
  O  O10  1  0.70296300  0.46849000  0.37033300  1
  O  O11  1  0.29703700  0.53151000  0.87033300  1
  O  O12  1  0.29703700  0.96849000  0.37033300  1
  O  O13  1  0.70296300  0.03151000  0.87033300  1
  O  O14  1  0.29703700  0.53151000  0.62966700  1
  O  O15  1  0.70296300  0.46849000  0.12966700  1
  O  O16  1  0.28596800  0.89637900  0.67367800  1
  O  O17  1  0.71403200  0.10362100  0.17367800  1
  O  O18  1  0.28596800  0.60362100  0.32632200  1
  O  O19  1  0.71403200  0.39637900  0.82632200  1
  O  O20  1  0.71403200  0.10362100  0.32632200  1
  O  O21  1  0.28596800  0.89637900  0.82632200  1
  O  O22  1  0.71403200  0.39637900  0.67367800  1
  O  O23  1  0.28596800  0.60362100  0.17367800  1
  O  O24  1  0.28733100  0.70752300  0.66821700  1
  O  O25  1  0.71266900  0.29247700  0.16821700  1
  O  O26  1  0.28733100  0.79247700  0.33178300  1
  O  O27  1  0.71266900  0.20752300  0.83178300  1
  O  O28  1  0.71266900  0.29247700  0.33178300  1
  O  O29  1  0.28733100  0.70752300  0.83178300  1
  O  O30  1  0.71266900  0.20752300  0.66821700  1
  O  O31  1  0.28733100  0.79247700  0.16821700  1
  O  O32  1  0.78282700  0.80239200  0.75000000  1
  O  O33  1  0.21717300  0.19760800  0.25000000  1
  O  O34  1  0.78282700  0.69760800  0.25000000  1
  O  O35  1  0.21717300  0.30239200  0.75000000  1
  O  O36  1  0.70903800  0.25000000  0.50000000  1
  O  O37  1  0.29096200  0.75000000  0.00000000  1
  O  O38  1  0.29096200  0.75000000  0.50000000  1
  O  O39  1  0.70903800  0.25000000  0.00000000  1
  O  O40  1  0.21848400  0.14470600  0.56741600  1
  O  O41  1  0.78151600  0.85529400  0.06741600  1
  O  O42  1  0.21848400  0.35529400  0.43258400  1
  O  O43  1  0.78151600  0.64470600  0.93258400  1
  O  O44  1  0.78151600  0.85529400  0.43258400  1
  O  O45  1  0.21848400  0.14470600  0.93258400  1
  O  O46  1  0.78151600  0.64470600  0.56741600  1
  O  O47  1  0.21848400  0.35529400  0.06741600  1
loop_
_geom_bond_atom_site_label_1
_geom_bond_atom_site_label_2
_geom_bond_distance
_geom_bond_site_symmetry_2
K0 O13 2.924680 1_555
K0 O8 2.924680 1_555
K0 O16 2.983836 1_545
K0 O21 2.983836 1_545
K0 O13 3.023843 1_455
K0 O8 3.023843 1_455
K0 O27 3.195907 1_555
K0 O30 3.195907 1_555
K0 O27 3.239651 1_455
K0 O30 3.239651 1_455
K1 O12 2.924680 1_555
K1 O9 2.924680 1_555
K1 O17 2.983836 1_565
K1 O20 2.983836 1_565
K1 O12 3.023843 1_655
K1 O9 3.023843 1_655
K1 O31 3.195907 1_555
K1 O26 3.195907 1_555
K1 O31 3.239651 1_655
K1 O26 3.239651 1_655
K2 O10 2.924680 1_555
K2 O15 2.924680 1_555
K2 O23 2.983836 1_555
K2 O18 2.983836 1_555
K2 O10 3.023843 1_455
K2 O15 3.023843 1_455
K2 O25 3.195907 1_555
K2 O28 3.195907 1_555
K2 O25 3.239651 1_455
K2 O28 3.239651 1_455
K3 O11 2.924680 1_555
K3 O14 2.924680 1_555
K3 O22 2.983836 1_555
K3 O19 2.983836 1_555
K3 O11 3.023843 1_655
K3 O14 3.023843 1_655
K3 O29 3.195907 1_555
K3 O24 3.195907 1_555
K3 O29 3.239651 1_655
K3 O24 3.239651 1_655
O0 Te0 1.908791 1_555
O0 Ta8 2.070661 1_555
O1 Te1 1.908791 1_555
O1 Ta9 2.070661 1_554
O2 Te2 1.908791 1_555
O2 Ta10 2.070661 1_555
O3 Te3 1.908791 1_555
O3 Ta11 2.070661 1_556
O4 Te4 1.908791 1_555
O4 Ta4 2.070661 1_555
O5 Te5 1.908791 1_555
O5 Ta5 2.070661 1_556
O6 Te6 1.908791 1_555
O6 Ta6 2.070661 1_555
O7 Te7 1.908791 1_555
O7 Ta7 2.070661 1_554
O8 Te0 1.897558 1_545
O8 Ta4 2.096405 1_555
O9 Te1 1.897558 1_565
O9 Ta5 2.096405 1_555
O10 Te2 1.897558 1_555
O10 Ta6 2.096405 1_555
O11 Te3 1.897558 1_555
O11 Ta7 2.096405 1_555
O12 Te4 1.897558 1_565
O12 Ta8 2.096405 1_555
O13 Te5 1.897558 1_545
O13 Ta9 2.096405 1_555
O14 Te6 1.897558 1_555
O14 Ta10 2.096405 1_555
O15 Te7 1.897558 1_555
O15 Ta11 2.096405 1_555
O16 Te0 1.910673 1_555
O16 Ta0 2.064210 1_555
O17 Te1 1.910673 1_555
O17 Ta1 2.064210 1_555
O18 Te2 1.910673 1_555
O18 Ta2 2.064210 1_555
O19 Te3 1.910673 1_555
O19 Ta3 2.064210 1_555
O20 Te4 1.910673 1_555
O20 Ta1 2.064210 1_555
O21 Te5 1.910673 1_555
O21 Ta0 2.064210 1_555
O22 Te6 1.910673 1_555
O22 Ta3 2.064210 1_555
O23 Te7 1.910673 1_555
O23 Ta2 2.064210 1_555
O24 Ta0 1.953630 1_555
O24 Ta10 1.956030 1_555
O25 Ta1 1.953630 1_555
O25 Ta11 1.956030 1_555
O26 Ta2 1.953630 1_555
O26 Ta8 1.956030 1_555
O27 Ta3 1.953630 1_555
O27 Ta9 1.956030 1_555
O28 Ta1 1.953630 1_555
O28 Ta6 1.956030 1_555
O29 Ta0 1.953630 1_555
O29 Ta7 1.956030 1_555
O30 Ta3 1.953630 1_555
O30 Ta4 1.956030 1_555
O31 Ta2 1.953630 1_555
O31 Ta5 1.956030 1_555
O32 Ta0 1.876181 1_655
O32 Ta0 2.118115 1_555
O33 Ta1 1.876181 1_455
O33 Ta1 2.118115 1_555
O34 Ta2 1.876181 1_655
O34 Ta2 2.118115 1_555
O35 Ta3 1.876181 1_455
O35 Ta3 2.118115 1_555
O36 Ta6 1.960008 1_555
O36 Ta4 1.960008 1_555
O37 Ta5 1.960008 1_555
O37 Ta7 1.960008 1_554
O38 Ta10 1.960008 1_555
O38 Ta8 1.960008 1_555
O39 Ta11 1.960008 1_555
O39 Ta9 1.960008 1_554
O40 Ta4 1.865250 1_455
O40 Ta4 2.124179 1_555
O41 Ta5 1.865250 1_655
O41 Ta5 2.124179 1_555
O42 Ta6 1.865250 1_455
O42 Ta6 2.124179 1_555
O43 Ta7 1.865250 1_655
O43 Ta7 2.124179 1_555
O44 Ta8 1.865250 1_655
O44 Ta8 2.124179 1_555
O45 Ta9 1.865250 1_455
O45 Ta9 2.124179 1_555
O46 Ta10 1.865250 1_655
O46 Ta10 2.124179 1_555
O47 Ta11 1.865250 1_455
O47 Ta11 2.124179 1_555
