# generated using pymatgen
data_H15IrBr3N5
_symmetry_space_group_name_H-M   'P 1'
_cell_length_a   14.59365800
_cell_length_b   11.24749000
_cell_length_c   7.16737100
_cell_angle_alpha   90.00000000
_cell_angle_beta   90.00000000
_cell_angle_gamma   90.00000000
_symmetry_Int_Tables_number   1
_chemical_formula_structural   H15IrBr3N5
_chemical_formula_sum   'H60 Ir4 Br12 N20'
_cell_volume   1176.46677136
_cell_formula_units_Z   4
loop_
 _symmetry_equiv_pos_site_id
 _symmetry_equiv_pos_as_xyz
  1  'x, y, z'
loop_
 _atom_site_type_symbol
 _atom_site_label
 _atom_site_symmetry_multiplicity
 _atom_site_fract_x
 _atom_site_fract_y
 _atom_site_fract_z
 _atom_site_occupancy
  H  H0  1  0.18408300  0.67612400  0.36141500  1
  H  H1  1  0.68408300  0.82387600  0.13858500  1
  H  H2  1  0.81591700  0.17612400  0.63858500  1
  H  H3  1  0.31591700  0.32387600  0.86141500  1
  H  H4  1  0.81591700  0.32387600  0.63858500  1
  H  H5  1  0.31591700  0.17612400  0.86141500  1
  H  H6  1  0.18408300  0.82387600  0.36141500  1
  H  H7  1  0.68408300  0.67612400  0.13858500  1
  H  H8  1  0.26189800  0.75000000  0.48326100  1
  H  H9  1  0.76189800  0.75000000  0.01673900  1
  H  H10  1  0.73810200  0.25000000  0.51673900  1
  H  H11  1  0.23810200  0.25000000  0.98326100  1
  H  H12  1  0.96950400  0.67638500  0.89283800  1
  H  H13  1  0.46950400  0.82361500  0.60716200  1
  H  H14  1  0.03049600  0.17638500  0.10716200  1
  H  H15  1  0.53049600  0.32361500  0.39283800  1
  H  H16  1  0.03049600  0.32361500  0.10716200  1
  H  H17  1  0.53049600  0.17638500  0.39283800  1
  H  H18  1  0.96950400  0.82361500  0.89283800  1
  H  H19  1  0.46950400  0.67638500  0.60716200  1
  H  H20  1  0.04187700  0.75000000  0.02695600  1
  H  H21  1  0.54187700  0.75000000  0.47304400  1
  H  H22  1  0.95812300  0.25000000  0.97304400  1
  H  H23  1  0.45812300  0.25000000  0.52695600  1
  H  H24  1  0.15136800  0.52878400  0.76232000  1
  H  H25  1  0.65136800  0.97121600  0.73768000  1
  H  H26  1  0.84863200  0.02878400  0.23768000  1
  H  H27  1  0.34863200  0.47121600  0.26232000  1
  H  H28  1  0.84863200  0.47121600  0.23768000  1
  H  H29  1  0.34863200  0.02878400  0.26232000  1
  H  H30  1  0.15136800  0.97121600  0.76232000  1
  H  H31  1  0.65136800  0.52878400  0.73768000  1
  H  H32  1  0.04130800  0.53027300  0.70969700  1
  H  H33  1  0.54130800  0.96972700  0.79030300  1
  H  H34  1  0.95869200  0.03027300  0.29030300  1
  H  H35  1  0.45869200  0.46972700  0.20969700  1
  H  H36  1  0.95869200  0.46972700  0.29030300  1
  H  H37  1  0.45869200  0.03027300  0.20969700  1
  H  H38  1  0.04130800  0.96972700  0.70969700  1
  H  H39  1  0.54130800  0.53027300  0.79030300  1
  H  H40  1  0.11807000  0.53048900  0.54103400  1
  H  H41  1  0.61807000  0.96951100  0.95896600  1
  H  H42  1  0.88193000  0.03048900  0.45896600  1
  H  H43  1  0.38193000  0.46951100  0.04103400  1
  H  H44  1  0.88193000  0.46951100  0.45896600  1
  H  H45  1  0.38193000  0.03048900  0.04103400  1
  H  H46  1  0.11807000  0.96951100  0.54103400  1
  H  H47  1  0.61807000  0.53048900  0.95896600  1
  H  H48  1  0.21122000  0.67595900  0.94885600  1
  H  H49  1  0.71122000  0.82404100  0.55114400  1
  H  H50  1  0.78878000  0.17595900  0.05114400  1
  H  H51  1  0.28878000  0.32404100  0.44885600  1
  H  H52  1  0.78878000  0.32404100  0.05114400  1
  H  H53  1  0.28878000  0.17595900  0.44885600  1
  H  H54  1  0.21122000  0.82404100  0.94885600  1
  H  H55  1  0.71122000  0.67595900  0.55114400  1
  H  H56  1  0.27807500  0.75000000  0.80338800  1
  H  H57  1  0.77807500  0.75000000  0.69661200  1
  H  H58  1  0.72192500  0.25000000  0.19661200  1
  H  H59  1  0.22192500  0.25000000  0.30338800  1
  Ir  Ir0  1  0.10458400  0.75000000  0.67333200  1
  Ir  Ir1  1  0.60458400  0.75000000  0.82666800  1
  Ir  Ir2  1  0.89541600  0.25000000  0.32666800  1
  Ir  Ir3  1  0.39541600  0.25000000  0.17333200  1
  Br  Br0  1  0.97145600  0.75000000  0.45100600  1
  Br  Br1  1  0.47145600  0.75000000  0.04899400  1
  Br  Br2  1  0.02854400  0.25000000  0.54899400  1
  Br  Br3  1  0.52854400  0.25000000  0.95100600  1
  Br  Br4  1  0.14824300  0.50688200  0.15773900  1
  Br  Br5  1  0.64824300  0.99311800  0.34226100  1
  Br  Br6  1  0.85175700  0.00688200  0.84226100  1
  Br  Br7  1  0.35175700  0.49311800  0.65773900  1
  Br  Br8  1  0.85175700  0.49311800  0.84226100  1
  Br  Br9  1  0.35175700  0.00688200  0.65773900  1
  Br  Br10  1  0.14824300  0.99311800  0.15773900  1
  Br  Br11  1  0.64824300  0.50688200  0.34226100  1
  N  N0  1  0.19429500  0.75000000  0.44544300  1
  N  N1  1  0.69429500  0.75000000  0.05455700  1
  N  N2  1  0.80570500  0.25000000  0.55455700  1
  N  N3  1  0.30570500  0.25000000  0.94544300  1
  N  N4  1  0.01164600  0.75000000  0.89767600  1
  N  N5  1  0.51164600  0.75000000  0.60232400  1
  N  N6  1  0.98835400  0.25000000  0.10232400  1
  N  N7  1  0.48835400  0.25000000  0.39767600  1
  N  N8  1  0.10385400  0.56400700  0.67189000  1
  N  N9  1  0.60385400  0.93599300  0.82811000  1
  N  N10  1  0.89614600  0.06400700  0.32811000  1
  N  N11  1  0.39614600  0.43599300  0.17189000  1
  N  N12  1  0.89614600  0.43599300  0.32811000  1
  N  N13  1  0.39614600  0.06400700  0.17189000  1
  N  N14  1  0.10385400  0.93599300  0.67189000  1
  N  N15  1  0.60385400  0.56400700  0.82811000  1
  N  N16  1  0.21411300  0.75000000  0.86364100  1
  N  N17  1  0.71411300  0.75000000  0.63635900  1
  N  N18  1  0.78588700  0.25000000  0.13635900  1
  N  N19  1  0.28588700  0.25000000  0.36364100  1
loop_
_geom_bond_atom_site_label_1
_geom_bond_atom_site_label_2
_geom_bond_distance
_geom_bond_site_symmetry_2
H0 N0 1.036993 1_555
H1 N1 1.036993 1_555
H2 N2 1.036993 1_555
H3 N3 1.036993 1_555
H4 N2 1.036993 1_555
H5 N3 1.036993 1_555
H6 N0 1.036993 1_555
H7 N1 1.036993 1_555
H8 N0 1.023133 1_555
H9 N1 1.023133 1_555
H10 N2 1.023133 1_555
H11 N3 1.023133 1_555
H12 N4 1.031985 1_655
H13 N5 1.031985 1_555
H14 N6 1.031985 1_455
H15 N7 1.031985 1_555
H16 N6 1.031985 1_455
H17 N7 1.031985 1_555
H18 N4 1.031985 1_655
H19 N5 1.031985 1_555
H20 N4 1.026267 1_554
H21 N5 1.026267 1_555
H22 N6 1.026267 1_556
H23 N7 1.026267 1_555
H24 N8 1.028519 1_555
H25 N9 1.028519 1_555
H26 N10 1.028519 1_555
H27 N11 1.028519 1_555
H28 N12 1.028519 1_555
H29 N13 1.028519 1_555
H30 N14 1.028519 1_555
H31 N15 1.028519 1_555
H32 N8 1.024963 1_555
H33 N9 1.024963 1_555
H34 N10 1.024963 1_555
H35 N11 1.024963 1_555
H36 N12 1.024963 1_555
H37 N13 1.024963 1_555
H38 N14 1.024963 1_555
H39 N15 1.024963 1_555
H40 N8 1.031896 1_555
H41 N9 1.031896 1_555
H42 N10 1.031896 1_555
H43 N11 1.031896 1_555
H44 N12 1.031896 1_555
H45 N13 1.031896 1_555
H46 N14 1.031896 1_555
H47 N15 1.031896 1_555
H48 N16 1.033603 1_555
H49 N17 1.033603 1_555
H50 N18 1.033603 1_555
H51 N19 1.033603 1_555
H52 N18 1.033603 1_555
H53 N19 1.033603 1_555
H54 N16 1.033603 1_555
H55 N17 1.033603 1_555
H56 N16 1.028498 1_555
H57 N17 1.028498 1_555
H58 N18 1.028498 1_555
H59 N19 1.028498 1_555
Ir0 N14 2.092007 1_555
Ir0 N8 2.092007 1_555
Ir0 N0 2.093303 1_555
Ir0 N16 2.101312 1_555
Ir0 N4 2.103590 1_555
Ir1 N9 2.092007 1_555
Ir1 N15 2.092007 1_555
Ir1 N1 2.093303 1_556
Ir1 N17 2.101312 1_555
Ir1 N5 2.103590 1_555
Ir2 N12 2.092007 1_555
Ir2 N10 2.092007 1_555
Ir2 N2 2.093303 1_555
Ir2 N18 2.101312 1_555
Ir2 N6 2.103590 1_555
Ir3 N11 2.092007 1_555
Ir3 N13 2.092007 1_555
Ir3 N3 2.093303 1_554
Ir3 N19 2.101312 1_555
Ir3 N7 2.103590 1_555
Br0 Ir0 2.512725 1_655
Br1 Ir1 2.512725 1_554
Br2 Ir2 2.512725 1_455
Br3 Ir3 2.512725 1_556
