# generated using pymatgen
data_MnZn2IrO6
_symmetry_space_group_name_H-M   'P 1'
_cell_length_a   5.17769000
_cell_length_b   5.17020200
_cell_length_c   9.48729898
_cell_angle_alpha   57.30715080
_cell_angle_beta   90.00000000
_cell_angle_gamma   90.00000000
_symmetry_Int_Tables_number   1
_chemical_formula_structural   MnZn2IrO6
_chemical_formula_sum   'Mn2 Zn4 Ir2 O12'
_cell_volume   213.73744829
_cell_formula_units_Z   2
loop_
 _symmetry_equiv_pos_site_id
 _symmetry_equiv_pos_as_xyz
  1  'x, y, z'
loop_
 _atom_site_type_symbol
 _atom_site_label
 _atom_site_symmetry_multiplicity
 _atom_site_fract_x
 _atom_site_fract_y
 _atom_site_fract_z
 _atom_site_occupancy
  Mn  Mn0  1  0.50000000  0.00000000  0.00000000  1
  Mn  Mn1  1  0.00000000  0.00000000  0.50000000  1
  Zn  Zn0  1  0.96832700  0.25093400  0.75409600  1
  Zn  Zn1  1  0.46832700  0.74906600  0.74590400  1
  Zn  Zn2  1  0.53167300  0.25093400  0.25409600  1
  Zn  Zn3  1  0.03167300  0.74906600  0.24590400  1
  Ir  Ir0  1  0.50000000  0.50000000  0.50000000  1
  Ir  Ir1  1  0.00000000  0.50000000  0.00000000  1
  O  O0  1  0.40933800  0.61085400  0.26823100  1
  O  O1  1  0.17694700  0.88783900  0.93803500  1
  O  O2  1  0.17783800  0.25404000  0.57379500  1
  O  O3  1  0.67783800  0.74596000  0.92620500  1
  O  O4  1  0.67694700  0.11216100  0.56196500  1
  O  O5  1  0.90933800  0.38914600  0.23176900  1
  O  O6  1  0.09066200  0.61085400  0.76823100  1
  O  O7  1  0.32305300  0.88783900  0.43803500  1
  O  O8  1  0.32216200  0.25404000  0.07379500  1
  O  O9  1  0.82305300  0.11216100  0.06196500  1
  O  O10  1  0.82216200  0.74596000  0.42620500  1
  O  O11  1  0.59066200  0.38914600  0.73176900  1
loop_
_geom_bond_atom_site_label_1
_geom_bond_atom_site_label_2
_geom_bond_distance
_geom_bond_site_symmetry_2
Mn0 O9 1.961626 1_555
Mn0 O1 1.961626 1_544
Mn0 O3 2.014077 1_544
Mn0 O8 2.014077 1_555
Mn0 O11 2.283263 1_554
Mn0 O0 2.283263 1_545
Mn1 O4 1.961626 1_455
Mn1 O7 1.961626 1_545
Mn1 O2 2.014077 1_555
Mn1 O10 2.014077 1_445
Mn1 O6 2.283263 1_545
Mn1 O5 2.283263 1_455
Ir0 O2 1.981898 1_555
Ir0 O10 1.981898 1_555
Ir0 O7 1.983025 1_555
Ir0 O4 1.983025 1_555
Ir0 O0 2.005598 1_555
Ir0 O11 2.005598 1_555
Ir1 O8 1.981898 1_555
Ir1 O3 1.981898 1_454
Ir1 O1 1.983025 1_554
Ir1 O9 1.983025 1_455
Ir1 O6 2.005598 1_554
Ir1 O5 2.005598 1_455
O0 Zn2 2.037540 1_555
O0 Zn3 2.053217 1_555
O1 Zn0 2.048726 1_465
O2 Zn0 2.018263 1_455
O3 Zn1 2.018263 1_555
O4 Zn1 2.048726 1_545
O5 Zn3 2.037540 1_655
O5 Zn2 2.053217 1_555
O6 Zn0 2.037540 1_455
O6 Zn1 2.053217 1_555
O7 Zn2 2.048726 1_565
O8 Zn2 2.018263 1_555
O9 Zn3 2.048726 1_645
O10 Zn3 2.018263 1_655
O11 Zn1 2.037540 1_555
O11 Zn0 2.053217 1_555
