# generated using pymatgen
data_TbNd
_symmetry_space_group_name_H-M   'P 1'
_cell_length_a   7.36509923
_cell_length_b   7.36509923
_cell_length_c   11.68280368
_cell_angle_alpha   90.00000000
_cell_angle_beta   90.00000000
_cell_angle_gamma   120.00001001
_symmetry_Int_Tables_number   1
_chemical_formula_structural   TbNd
_chemical_formula_sum   'Tb8 Nd8'
_cell_volume   548.82624610
_cell_formula_units_Z   8
loop_
 _symmetry_equiv_pos_site_id
 _symmetry_equiv_pos_as_xyz
  1  'x, y, z'
loop_
 _atom_site_type_symbol
 _atom_site_label
 _atom_site_symmetry_multiplicity
 _atom_site_fract_x
 _atom_site_fract_y
 _atom_site_fract_z
 _atom_site_occupancy
  Tb  Tb0_0  1  0.00000000  0.00000000  0.00000000  1
  Tb  Tb0_1  1  0.00000000  0.00000000  0.50000000  1
  Tb  Tb0_2  1  0.00000000  0.50000000  0.00000000  1
  Tb  Tb0_3  1  0.00000000  0.50000000  0.50000000  1
  Tb  Tb0_4  1  0.50000000  0.00000000  0.00000000  1
  Tb  Tb0_5  1  0.50000000  0.00000000  0.50000000  1
  Tb  Tb0_6  1  0.50000000  0.50000000  0.00000000  1
  Tb  Tb0_7  1  0.50000000  0.50000000  0.50000000  1
  Nd  Nd0_0  1  0.16666650  0.33333350  0.25000000  1
  Nd  Nd0_1  1  0.16666650  0.33333350  0.75000000  1
  Nd  Nd0_2  1  0.16666650  0.83333350  0.25000000  1
  Nd  Nd0_3  1  0.16666650  0.83333350  0.75000000  1
  Nd  Nd0_4  1  0.66666650  0.33333350  0.25000000  1
  Nd  Nd0_5  1  0.66666650  0.33333350  0.75000000  1
  Nd  Nd0_6  1  0.66666650  0.83333350  0.25000000  1
  Nd  Nd0_7  1  0.66666650  0.83333350  0.75000000  1
loop_
_geom_bond_atom_site_label_1
_geom_bond_atom_site_label_2
_geom_bond_distance
_geom_bond_site_symmetry_2
Tb0_0 Tb0_6 3.682549 1_445
Tb0_0 Tb0_6 3.682549 1_555
Tb0_0 Tb0_2 3.682550 1_555
Tb0_0 Tb0_4 3.682550 1_455
Tb0_0 Tb0_4 3.682550 1_555
Tb0_0 Tb0_2 3.682550 1_545
Tb0_1 Tb0_7 3.682549 1_445
Tb0_1 Tb0_7 3.682549 1_555
Tb0_1 Tb0_3 3.682550 1_555
Tb0_1 Tb0_5 3.682550 1_455
Tb0_1 Tb0_5 3.682550 1_555
Tb0_1 Tb0_3 3.682550 1_545
Tb0_2 Tb0_4 3.682549 1_565
Tb0_2 Tb0_4 3.682549 1_455
Tb0_2 Tb0_6 3.682550 1_455
Tb0_2 Tb0_6 3.682550 1_555
Tb0_3 Tb0_5 3.682549 1_565
Tb0_3 Tb0_5 3.682549 1_455
Tb0_3 Tb0_7 3.682550 1_455
Tb0_3 Tb0_7 3.682550 1_555
Tb0_4 Tb0_6 3.682550 1_555
Tb0_4 Tb0_6 3.682550 1_545
Tb0_5 Tb0_7 3.682550 1_555
Tb0_5 Tb0_7 3.682550 1_545
Nd0_0 Tb0_2 3.612600 1_555
Nd0_0 Tb0_3 3.612600 1_555
Nd0_0 Tb0_0 3.612601 1_555
Nd0_0 Tb0_1 3.612601 1_555
Nd0_0 Tb0_6 3.612601 1_555
Nd0_0 Tb0_7 3.612601 1_555
Nd0_0 Nd0_6 3.682549 1_445
Nd0_0 Nd0_6 3.682549 1_555
Nd0_0 Nd0_2 3.682550 1_555
Nd0_0 Nd0_4 3.682550 1_555
Nd0_0 Nd0_4 3.682550 1_455
Nd0_0 Nd0_2 3.682550 1_545
Nd0_1 Tb0_2 3.612600 1_556
Nd0_1 Tb0_3 3.612600 1_555
Nd0_1 Tb0_0 3.612601 1_556
Nd0_1 Tb0_1 3.612601 1_555
Nd0_1 Tb0_6 3.612601 1_556
Nd0_1 Tb0_7 3.612601 1_555
Nd0_1 Nd0_7 3.682549 1_445
Nd0_1 Nd0_7 3.682549 1_555
Nd0_1 Nd0_3 3.682550 1_555
Nd0_1 Nd0_5 3.682550 1_455
Nd0_1 Nd0_5 3.682550 1_555
Nd0_1 Nd0_3 3.682550 1_545
Nd0_2 Tb0_0 3.612600 1_565
Nd0_2 Tb0_1 3.612600 1_565
Nd0_2 Tb0_4 3.612601 1_565
Nd0_2 Tb0_5 3.612601 1_565
Nd0_2 Tb0_2 3.612601 1_555
Nd0_2 Tb0_3 3.612601 1_555
Nd0_2 Nd0_4 3.682549 1_565
Nd0_2 Nd0_4 3.682549 1_455
Nd0_2 Nd0_6 3.682550 1_555
Nd0_2 Nd0_6 3.682550 1_455
Nd0_3 Tb0_0 3.612600 1_566
Nd0_3 Tb0_1 3.612600 1_565
Nd0_3 Tb0_4 3.612601 1_566
Nd0_3 Tb0_5 3.612601 1_565
Nd0_3 Tb0_2 3.612601 1_556
Nd0_3 Tb0_3 3.612601 1_555
Nd0_3 Nd0_5 3.682549 1_565
Nd0_3 Nd0_5 3.682549 1_455
Nd0_3 Nd0_7 3.682550 1_555
Nd0_3 Nd0_7 3.682550 1_455
Nd0_4 Tb0_7 3.612600 1_555
Nd0_4 Tb0_6 3.612600 1_555
Nd0_4 Tb0_3 3.612601 1_655
Nd0_4 Tb0_4 3.612601 1_555
Nd0_4 Tb0_5 3.612601 1_555
Nd0_4 Tb0_2 3.612601 1_655
Nd0_4 Nd0_6 3.682550 1_555
Nd0_4 Nd0_6 3.682550 1_545
Nd0_5 Tb0_6 3.612600 1_556
Nd0_5 Tb0_7 3.612600 1_555
Nd0_5 Tb0_2 3.612601 1_656
Nd0_5 Tb0_3 3.612601 1_655
Nd0_5 Tb0_4 3.612601 1_556
Nd0_5 Tb0_5 3.612601 1_555
Nd0_5 Nd0_7 3.682550 1_555
Nd0_5 Nd0_7 3.682550 1_545
Nd0_6 Tb0_5 3.612600 1_565
Nd0_6 Tb0_4 3.612600 1_565
Nd0_6 Tb0_0 3.612601 1_665
Nd0_6 Tb0_1 3.612601 1_665
Nd0_6 Tb0_6 3.612601 1_555
Nd0_6 Tb0_7 3.612601 1_555
Nd0_7 Tb0_5 3.612600 1_565
Nd0_7 Tb0_4 3.612600 1_566
Nd0_7 Tb0_0 3.612601 1_666
Nd0_7 Tb0_1 3.612601 1_665
Nd0_7 Tb0_6 3.612601 1_556
Nd0_7 Tb0_7 3.612601 1_555
