# generated using pymatgen
data_CaLa2BiO6
_symmetry_space_group_name_H-M   'P 1'
_cell_length_a   6.24982626
_cell_length_b   6.24982626
_cell_length_c   6.24982655
_cell_angle_alpha   58.88393644
_cell_angle_beta   58.88393644
_cell_angle_gamma   58.88394336
_symmetry_Int_Tables_number   1
_chemical_formula_structural   CaLa2BiO6
_chemical_formula_sum   'Ca1 La2 Bi1 O6'
_cell_volume   168.22162115
_cell_formula_units_Z   1
loop_
 _symmetry_equiv_pos_site_id
 _symmetry_equiv_pos_as_xyz
  1  'x, y, z'
loop_
 _atom_site_type_symbol
 _atom_site_label
 _atom_site_symmetry_multiplicity
 _atom_site_fract_x
 _atom_site_fract_y
 _atom_site_fract_z
 _atom_site_occupancy
  Ca  Ca0  1  0.50000000  0.50000000  0.50000000  1
  La  La0  1  0.78220600  0.78220600  0.78220600  1
  La  La1  1  0.21779400  0.21779400  0.21779400  1
  Bi  Bi0  1  0.00000000  0.00000000  0.00000000  1
  O  O0  1  0.79384600  0.36531800  0.12195100  1
  O  O1  1  0.12195100  0.79384600  0.36531800  1
  O  O2  1  0.36531800  0.12195100  0.79384600  1
  O  O3  1  0.20615400  0.63468200  0.87804900  1
  O  O4  1  0.63468200  0.87804900  0.20615400  1
  O  O5  1  0.87804900  0.20615400  0.63468200  1
loop_
_geom_bond_atom_site_label_1
_geom_bond_atom_site_label_2
_geom_bond_distance
_geom_bond_site_symmetry_2
Ca0 O4 2.374210 1_555
Ca0 O2 2.374210 1_555
Ca0 O3 2.374210 1_555
Ca0 O0 2.374210 1_555
Ca0 O5 2.374210 1_555
Ca0 O1 2.374210 1_555
La0 O0 2.355469 1_556
La0 O1 2.355469 1_655
La0 O2 2.355469 1_565
La0 O5 2.602680 1_565
La0 O3 2.602680 1_655
La0 O4 2.602680 1_556
La1 O3 2.355469 1_554
La1 O5 2.355469 1_455
La1 O4 2.355469 1_545
La1 O1 2.602680 1_545
La1 O0 2.602680 1_455
La1 O2 2.602680 1_554
Bi0 O2 2.279704 1_554
Bi0 O4 2.279704 1_445
Bi0 O1 2.279704 1_545
Bi0 O5 2.279704 1_454
Bi0 O0 2.279704 1_455
Bi0 O3 2.279704 1_544
