# generated using pymatgen
data_Zn(FeO2)4
_symmetry_space_group_name_H-M   'P 1'
_cell_length_a   6.03992052
_cell_length_b   6.03992052
_cell_length_c   6.03992079
_cell_angle_alpha   58.27589689
_cell_angle_beta   58.27589689
_cell_angle_gamma   58.27590052
_symmetry_Int_Tables_number   1
_chemical_formula_structural   Zn(FeO2)4
_chemical_formula_sum   'Zn1 Fe4 O8'
_cell_volume   149.65140850
_cell_formula_units_Z   1
loop_
 _symmetry_equiv_pos_site_id
 _symmetry_equiv_pos_as_xyz
  1  'x, y, z'
loop_
 _atom_site_type_symbol
 _atom_site_label
 _atom_site_symmetry_multiplicity
 _atom_site_fract_x
 _atom_site_fract_y
 _atom_site_fract_z
 _atom_site_occupancy
  Zn  Zn0  1  0.50000000  0.50000000  0.50000000  1
  Fe  Fe0  1  0.00000000  0.50000000  0.50000000  1
  Fe  Fe1  1  0.50000000  0.00000000  0.50000000  1
  Fe  Fe2  1  0.50000000  0.50000000  0.00000000  1
  Fe  Fe3  1  0.00000000  0.00000000  0.00000000  1
  O  O0  1  0.28072300  0.75599500  0.75599500  1
  O  O1  1  0.24400500  0.24400500  0.71927700  1
  O  O2  1  0.71927700  0.24400500  0.24400500  1
  O  O3  1  0.24400500  0.71927700  0.24400500  1
  O  O4  1  0.26728200  0.26728200  0.26728200  1
  O  O5  1  0.73271800  0.73271800  0.73271800  1
  O  O6  1  0.75599500  0.28072300  0.75599500  1
  O  O7  1  0.75599500  0.75599500  0.28072300  1
loop_
_geom_bond_atom_site_label_1
_geom_bond_atom_site_label_2
_geom_bond_distance
_geom_bond_site_symmetry_2
Fe0 O3 1.954345 1_555
Fe0 O6 1.954345 1_455
Fe0 O1 1.954346 1_555
Fe0 O7 1.954346 1_455
Fe0 O5 1.965354 1_455
Fe0 O4 1.965354 1_555
Fe1 O2 1.954345 1_555
Fe1 O0 1.954345 1_545
Fe1 O1 1.954346 1_555
Fe1 O7 1.954346 1_545
Fe1 O5 1.965354 1_545
Fe1 O4 1.965354 1_555
Fe2 O3 1.954346 1_555
Fe2 O2 1.954346 1_555
Fe2 O0 1.954346 1_554
Fe2 O6 1.954346 1_554
Fe2 O5 1.965353 1_554
Fe2 O4 1.965353 1_555
Fe3 O7 2.060876 1_445
Fe3 O1 2.060876 1_554
Fe3 O6 2.060877 1_454
Fe3 O0 2.060877 1_544
Fe3 O2 2.060877 1_455
Fe3 O3 2.060877 1_545
O0 Zn0 2.177732 1_555
O1 Zn0 2.177731 1_555
O2 Zn0 2.177732 1_555
O3 Zn0 2.177732 1_555
O6 Zn0 2.177732 1_555
O7 Zn0 2.177731 1_555
