# generated using pymatgen
data_Dy3Si2Ni
_symmetry_space_group_name_H-M   'P 1'
_cell_length_a   4.10100969
_cell_length_b   11.24426057
_cell_length_c   11.25724638
_cell_angle_alpha   90.00000000
_cell_angle_beta   90.00000000
_cell_angle_gamma   90.00000000
_symmetry_Int_Tables_number   1
_chemical_formula_structural   Dy3Si2Ni
_chemical_formula_sum   'Dy12 Si8 Ni4'
_cell_volume   519.10339352
_cell_formula_units_Z   4
loop_
 _symmetry_equiv_pos_site_id
 _symmetry_equiv_pos_as_xyz
  1  'x, y, z'
loop_
 _atom_site_type_symbol
 _atom_site_label
 _atom_site_symmetry_multiplicity
 _atom_site_fract_x
 _atom_site_fract_y
 _atom_site_fract_z
 _atom_site_occupancy
  Dy  Dy0  1  0.25000000  0.05753165  0.88225829  1
  Dy  Dy1  1  0.25000000  0.44246835  0.38225829  1
  Dy  Dy2  1  0.75000000  0.94246835  0.11774171  1
  Dy  Dy3  1  0.75000000  0.55753165  0.61774171  1
  Dy  Dy4  1  0.25000000  0.12517650  0.55972709  1
  Dy  Dy5  1  0.25000000  0.37482350  0.05972709  1
  Dy  Dy6  1  0.75000000  0.87482350  0.44027291  1
  Dy  Dy7  1  0.75000000  0.62517650  0.94027291  1
  Dy  Dy8  1  0.25000000  0.80321092  0.71536733  1
  Dy  Dy9  1  0.25000000  0.69678908  0.21536733  1
  Dy  Dy10  1  0.75000000  0.19678908  0.28463267  1
  Dy  Dy11  1  0.75000000  0.30321092  0.78463267  1
  Si  Si0  1  0.25000000  0.81361348  0.97490047  1
  Si  Si1  1  0.25000000  0.68638652  0.47490047  1
  Si  Si2  1  0.75000000  0.18638652  0.02509953  1
  Si  Si3  1  0.75000000  0.31361348  0.52509953  1
  Si  Si4  1  0.25000000  0.49342881  0.80249859  1
  Si  Si5  1  0.25000000  0.00657119  0.30249859  1
  Si  Si6  1  0.75000000  0.50657119  0.19750141  1
  Si  Si7  1  0.75000000  0.99342881  0.69750141  1
  Ni  Ni0  1  0.25000000  0.36487060  0.62900681  1
  Ni  Ni1  1  0.25000000  0.13512940  0.12900681  1
  Ni  Ni2  1  0.75000000  0.63512940  0.37099319  1
  Ni  Ni3  1  0.75000000  0.86487060  0.87099319  1
loop_
_geom_bond_atom_site_label_1
_geom_bond_atom_site_label_2
_geom_bond_distance
_geom_bond_site_symmetry_2
Dy0 Ni1 2.911524 1_556
Dy0 Si0 2.934267 1_545
Dy0 Si2 2.981523 1_456
Dy0 Si2 2.981523 1_556
Dy0 Ni3 2.985572 1_445
Dy0 Ni3 2.985572 1_545
Dy0 Si7 3.008305 1_445
Dy0 Si7 3.008305 1_545
Dy1 Ni0 2.911524 1_555
Dy1 Si1 2.934267 1_555
Dy1 Si3 2.981523 1_455
Dy1 Si3 2.981523 1_555
Dy1 Ni2 2.985572 1_555
Dy1 Ni2 2.985572 1_455
Dy1 Si6 3.008305 1_555
Dy1 Si6 3.008305 1_455
Dy2 Ni3 2.911524 1_554
Dy2 Si2 2.934267 1_565
Dy2 Si0 2.981523 1_554
Dy2 Si0 2.981523 1_654
Dy2 Ni1 2.985572 1_665
Dy2 Ni1 2.985572 1_565
Dy2 Si5 3.008305 1_565
Dy2 Si5 3.008305 1_665
Dy3 Ni2 2.911524 1_555
Dy3 Si3 2.934267 1_555
Dy3 Si1 2.981523 1_655
Dy3 Si1 2.981523 1_555
Dy3 Ni0 2.985572 1_555
Dy3 Ni0 2.985572 1_655
Dy3 Si4 3.008305 1_655
Dy3 Si4 3.008305 1_555
Dy4 Ni0 2.805754 1_555
Dy4 Si7 2.967256 1_445
Dy4 Si7 2.967256 1_545
Dy4 Si3 2.974220 1_455
Dy4 Si3 2.974220 1_555
Dy4 Si5 3.188033 1_555
Dy5 Ni1 2.805754 1_555
Dy5 Si6 2.967256 1_555
Dy5 Si6 2.967256 1_455
Dy5 Si2 2.974220 1_555
Dy5 Si2 2.974220 1_455
Dy5 Si4 3.188033 1_554
Dy6 Ni2 2.805754 1_555
Dy6 Si5 2.967256 1_565
Dy6 Si5 2.967256 1_665
Dy6 Si1 2.974220 1_555
Dy6 Si1 2.974220 1_655
Dy6 Si7 3.188033 1_555
Dy7 Ni3 2.805754 1_555
Dy7 Si4 2.967256 1_655
Dy7 Si4 2.967256 1_555
Dy7 Si0 2.974220 1_555
Dy7 Si0 2.974220 1_655
Dy7 Si6 3.188033 1_556
Dy8 Ni3 2.784686 1_455
Dy8 Ni3 2.784686 1_555
Dy8 Si0 2.923969 1_555
Dy8 Si7 2.969805 1_455
Dy8 Si7 2.969805 1_555
Dy8 Si1 3.008883 1_555
Dy8 Si4 3.618737 1_555
Dy9 Ni2 2.784686 1_555
Dy9 Ni2 2.784686 1_455
Dy9 Si1 2.923969 1_555
Dy9 Si6 2.969805 1_455
Dy9 Si6 2.969805 1_555
Dy9 Si0 3.008883 1_554
Dy9 Si5 3.618737 1_565
Dy10 Ni1 2.784686 1_555
Dy10 Ni1 2.784686 1_655
Dy10 Si2 2.923969 1_555
Dy10 Si5 2.969805 1_555
Dy10 Si5 2.969805 1_655
Dy10 Si3 3.008883 1_555
Dy10 Si6 3.618737 1_555
Dy11 Ni0 2.784686 1_655
Dy11 Ni0 2.784686 1_555
Dy11 Si3 2.923969 1_555
Dy11 Si4 2.969805 1_655
Dy11 Si4 2.969805 1_555
Dy11 Si2 3.008883 1_556
Dy11 Si7 3.618737 1_545
Ni0 Si4 2.429806 1_555
Ni0 Si3 2.430014 1_455
Ni0 Si3 2.430014 1_555
Ni1 Si5 2.429806 1_555
Ni1 Si2 2.430014 1_555
Ni1 Si2 2.430014 1_455
Ni2 Si6 2.429806 1_555
Ni2 Si1 2.430014 1_555
Ni2 Si1 2.430014 1_655
Ni3 Si7 2.429806 1_555
Ni3 Si0 2.430014 1_555
Ni3 Si0 2.430014 1_655
