# generated using pymatgen
data_CaNi5
_symmetry_space_group_name_H-M   'P 1'
_cell_length_a   6.28539513
_cell_length_b   6.28539513
_cell_length_c   6.28539513
_cell_angle_alpha   133.56636821
_cell_angle_beta   103.01470972
_cell_angle_gamma   94.91078420
_symmetry_Int_Tables_number   1
_chemical_formula_structural   CaNi5
_chemical_formula_sum   'Ca2 Ni10'
_cell_volume   164.78539916
_cell_formula_units_Z   2
loop_
 _symmetry_equiv_pos_site_id
 _symmetry_equiv_pos_as_xyz
  1  'x, y, z'
loop_
 _atom_site_type_symbol
 _atom_site_label
 _atom_site_symmetry_multiplicity
 _atom_site_fract_x
 _atom_site_fract_y
 _atom_site_fract_z
 _atom_site_occupancy
  Ca  Ca0  1  0.75000000  0.48021500  0.73021500  1
  Ca  Ca1  1  0.25000000  0.51978500  0.26978500  1
  Ni  Ni0  1  0.08314400  0.86254500  0.77940100  1
  Ni  Ni1  1  0.41685600  0.19625800  0.77940100  1
  Ni  Ni2  1  0.58314400  0.80374200  0.22059900  1
  Ni  Ni3  1  0.91685600  0.13745500  0.22059900  1
  Ni  Ni4  1  0.00000000  0.00000000  0.50000000  1
  Ni  Ni5  1  0.50000000  0.00000000  0.00000000  1
  Ni  Ni6  1  0.74031300  0.00000000  0.74031300  1
  Ni  Ni7  1  0.75968700  0.50000000  0.25968700  1
  Ni  Ni8  1  0.24031300  0.50000000  0.74031300  1
  Ni  Ni9  1  0.25968700  0.00000000  0.25968700  1
loop_
_geom_bond_atom_site_label_1
_geom_bond_atom_site_label_2
_geom_bond_distance
_geom_bond_site_symmetry_2
Ca0 Ni3 2.813711 1_566
Ca0 Ni2 2.813711 1_556
Ca0 Ni1 2.842163 1_555
Ca0 Ni0 2.842167 1_655
Ca0 Ni3 2.896421 1_555
Ca0 Ni2 2.896426 1_545
Ca0 Ni7 3.058179 1_555
Ca0 Ni8 3.058179 1_655
Ca0 Ni9 3.058179 1_555
Ca0 Ni6 3.058179 1_555
Ca0 Ni5 3.080468 1_555
Ca0 Ni4 3.080468 1_655
Ca0 Ni6 3.229761 1_565
Ca0 Ni9 3.229761 1_666
Ca0 Ni8 3.229761 1_555
Ca0 Ni7 3.229761 1_556
Ca0 Ni5 3.234351 1_566
Ca0 Ni4 3.234351 1_666
Ca1 Ni0 2.813711 1_544
Ca1 Ni1 2.813711 1_554
Ca1 Ni2 2.842163 1_555
Ca1 Ni3 2.842167 1_455
Ca1 Ni0 2.896421 1_555
Ca1 Ni1 2.896426 1_565
Ca1 Ni9 3.058179 1_565
Ca1 Ni6 3.058179 1_565
Ca1 Ni7 3.058179 1_455
Ca1 Ni8 3.058179 1_555
Ca1 Ni4 3.080468 1_565
Ca1 Ni5 3.080468 1_566
Ca1 Ni8 3.229761 1_554
Ca1 Ni7 3.229761 1_555
Ca1 Ni9 3.229761 1_555
Ca1 Ni6 3.229761 1_454
Ca1 Ni4 3.234351 1_554
Ca1 Ni5 3.234351 1_555
Ni0 Ni9 2.413077 1_566
Ni0 Ni6 2.413077 1_465
Ni0 Ni4 2.420509 1_565
Ni0 Ni5 2.420509 1_566
Ni0 Ni8 2.439657 1_555
Ni0 Ni7 2.439657 1_455
Ni0 Ni3 2.603469 1_466
Ni0 Ni1 2.836528 1_565
Ni1 Ni8 2.413071 1_555
Ni1 Ni7 2.413078 1_556
Ni1 Ni4 2.420508 1_555
Ni1 Ni5 2.420515 1_556
Ni1 Ni9 2.439655 1_555
Ni1 Ni6 2.439661 1_555
Ni1 Ni2 2.603460 1_556
Ni2 Ni7 2.413071 1_555
Ni2 Ni8 2.413078 1_554
Ni2 Ni4 2.420508 1_665
Ni2 Ni5 2.420515 1_565
Ni2 Ni6 2.439655 1_565
Ni2 Ni9 2.439661 1_565
Ni2 Ni3 2.836528 1_565
Ni3 Ni6 2.413077 1_554
Ni3 Ni9 2.413077 1_655
Ni3 Ni5 2.420509 1_555
Ni3 Ni4 2.420509 1_655
Ni3 Ni8 2.439657 1_655
Ni3 Ni7 2.439657 1_555
Ni4 Ni7 2.460919 1_445
Ni4 Ni8 2.460919 1_555
Ni4 Ni6 2.460919 1_455
Ni4 Ni9 2.460919 1_555
Ni5 Ni9 2.460919 1_555
Ni5 Ni7 2.460919 1_555
Ni5 Ni6 2.460919 1_554
Ni5 Ni8 2.460919 1_544
Ni6 Ni7 2.482409 1_556
Ni6 Ni7 2.482409 1_545
Ni8 Ni9 2.482409 1_555
Ni8 Ni9 2.482409 1_566
