# generated using pymatgen
data_Ba4Sm2Cd3S10
_symmetry_space_group_name_H-M   'P 1'
_cell_length_a   9.39748991
_cell_length_b   9.39748991
_cell_length_c   27.02728900
_cell_angle_alpha   90.00000000
_cell_angle_beta   90.00000000
_cell_angle_gamma   154.04139987
_symmetry_Int_Tables_number   1
_chemical_formula_structural   Ba4Sm2Cd3S10
_chemical_formula_sum   'Ba8 Sm4 Cd6 S20'
_cell_volume   1044.77842657
_cell_formula_units_Z   2
loop_
 _symmetry_equiv_pos_site_id
 _symmetry_equiv_pos_as_xyz
  1  'x, y, z'
loop_
 _atom_site_type_symbol
 _atom_site_label
 _atom_site_symmetry_multiplicity
 _atom_site_fract_x
 _atom_site_fract_y
 _atom_site_fract_z
 _atom_site_occupancy
  Ba  Ba0  1  0.59588000  0.40412000  0.33879500  1
  Ba  Ba1  1  0.40412000  0.59588000  0.83879500  1
  Ba  Ba2  1  0.57592100  0.42407900  0.15660800  1
  Ba  Ba3  1  0.42407900  0.57592100  0.65660800  1
  Ba  Ba4  1  0.16320600  0.83679400  0.61050800  1
  Ba  Ba5  1  0.83679400  0.16320600  0.11050800  1
  Ba  Ba6  1  0.16271100  0.83728900  0.89088400  1
  Ba  Ba7  1  0.83728900  0.16271100  0.39088400  1
  Sm  Sm0  1  0.50282500  0.49717500  0.49974600  1
  Sm  Sm1  1  0.49717500  0.50282500  0.99974600  1
  Sm  Sm2  1  0.07966200  0.92033800  0.75358700  1
  Sm  Sm3  1  0.92033800  0.07966200  0.25358700  1
  Cd  Cd0  1  0.21754500  0.78245500  0.23148800  1
  Cd  Cd1  1  0.78245500  0.21754500  0.73148800  1
  Cd  Cd2  1  0.15971600  0.84028400  0.46210500  1
  Cd  Cd3  1  0.84028400  0.15971600  0.96210500  1
  Cd  Cd4  1  0.15403500  0.84596500  0.04434700  1
  Cd  Cd5  1  0.84596500  0.15403500  0.54434700  1
  S  S0  1  0.42336400  0.57663600  0.32213300  1
  S  S1  1  0.57663600  0.42336400  0.82213300  1
  S  S2  1  0.40976200  0.59023800  0.18316700  1
  S  S3  1  0.59023800  0.40976200  0.68316700  1
  S  S4  1  0.34748500  0.65251500  0.48998800  1
  S  S5  1  0.65251500  0.34748500  0.98998800  1
  S  S6  1  0.34476500  0.65523500  0.01859200  1
  S  S7  1  0.65523500  0.34476500  0.51859100  1
  S  S8  1  0.23313300  0.76686700  0.76699000  1
  S  S9  1  0.76686700  0.23313300  0.26699000  1
  S  S10  1  0.21121700  0.78878300  0.37817900  1
  S  S11  1  0.78878300  0.21121700  0.87817900  1
  S  S12  1  0.20756600  0.79243400  0.13141500  1
  S  S13  1  0.79243400  0.20756600  0.63141500  1
  S  S14  1  0.07397100  0.92602900  0.24703300  1
  S  S15  1  0.92602900  0.07397100  0.74703300  1
  S  S16  1  0.01690700  0.98309300  0.43223200  1
  S  S17  1  0.98309300  0.01690700  0.93223200  1
  S  S18  1  0.98798600  0.01201400  0.57175500  1
  S  S19  1  0.01201400  0.98798600  0.07175500  1
loop_
_geom_bond_atom_site_label_1
_geom_bond_atom_site_label_2
_geom_bond_distance
_geom_bond_site_symmetry_2
Ba0 S10 3.170185 1_655
Ba0 S10 3.170185 1_545
Ba0 S0 3.191525 1_555
Ba0 S14 3.281267 1_545
Ba0 S14 3.281267 1_655
Ba0 S16 3.595038 1_655
Ba0 S16 3.595038 1_545
Ba0 S9 3.684177 1_555
Ba1 S11 3.170185 1_565
Ba1 S11 3.170185 1_455
Ba1 S1 3.191525 1_555
Ba1 S15 3.281267 1_565
Ba1 S15 3.281267 1_455
Ba1 S17 3.595038 1_565
Ba1 S17 3.595038 1_455
Ba1 S8 3.684177 1_555
Ba2 S2 3.126680 1_555
Ba2 S14 3.229403 1_545
Ba2 S14 3.229403 1_655
Ba2 S12 3.275928 1_655
Ba2 S12 3.275928 1_545
Ba2 S19 3.329308 1_655
Ba2 S19 3.329308 1_545
Ba3 S3 3.126680 1_555
Ba3 S15 3.229403 1_455
Ba3 S15 3.229403 1_565
Ba3 S13 3.275928 1_565
Ba3 S13 3.275928 1_455
Ba3 S18 3.329308 1_565
Ba3 S18 3.329308 1_455
Ba4 S3 3.177622 1_565
Ba4 S3 3.177622 1_455
Ba4 S13 3.221160 1_455
Ba4 S13 3.221160 1_565
Ba4 S7 3.263098 1_455
Ba4 S7 3.263098 1_565
Ba4 S18 3.375716 1_465
Ba5 S2 3.177622 1_655
Ba5 S2 3.177622 1_545
Ba5 S12 3.221160 1_545
Ba5 S12 3.221160 1_655
Ba5 S6 3.263078 1_545
Ba5 S6 3.263078 1_655
Ba5 S19 3.375716 1_645
Ba6 S11 3.147098 1_565
Ba6 S11 3.147098 1_455
Ba6 S1 3.223791 1_565
Ba6 S1 3.223791 1_455
Ba6 S5 3.415291 1_455
Ba6 S5 3.415291 1_565
Ba6 S17 3.474301 1_465
Ba6 S8 3.588324 1_555
Ba7 S10 3.147098 1_655
Ba7 S10 3.147098 1_545
Ba7 S0 3.223791 1_655
Ba7 S0 3.223791 1_545
Ba7 S4 3.415291 1_655
Ba7 S4 3.415291 1_545
Ba7 S16 3.474301 1_645
Ba7 S9 3.588324 1_555
Cd0 S9 2.488291 1_565
Cd0 S9 2.488291 1_455
Cd0 S14 2.662881 1_555
Cd0 S12 2.710870 1_555
Cd1 S8 2.488291 1_655
Cd1 S8 2.488291 1_545
Cd1 S15 2.662881 1_555
Cd1 S13 2.710870 1_555
Cd2 S10 2.456590 1_555
Cd2 S7 2.606214 1_455
Cd2 S7 2.606214 1_565
Cd2 S16 2.737298 1_555
Cd3 S11 2.456590 1_555
Cd3 S6 2.606230 1_546
Cd3 S6 2.606230 1_656
Cd3 S17 2.737298 1_555
Cd4 S12 2.549276 1_555
Cd4 S5 2.571803 1_564
Cd4 S5 2.571803 1_454
Cd4 S19 2.704510 1_555
Cd5 S13 2.549276 1_555
Cd5 S4 2.571803 1_655
Cd5 S4 2.571803 1_545
Cd5 S18 2.704510 1_555
S0 Sm3 2.808943 1_455
S0 Sm3 2.808943 1_565
S1 Sm2 2.808943 1_545
S1 Sm2 2.808943 1_655
S2 Sm3 2.848656 1_455
S2 Sm3 2.848656 1_565
S3 Sm2 2.848656 1_545
S3 Sm2 2.848656 1_655
S4 Sm0 2.857218 1_555
S5 Sm1 2.857218 1_555
S6 Sm1 2.837450 1_554
S7 Sm0 2.837445 1_555
S8 Sm2 2.834036 1_555
S9 Sm3 2.834036 1_555
S14 Sm3 2.819327 1_465
S15 Sm2 2.819327 1_645
S16 Sm0 2.801970 1_565
S16 Sm0 2.801970 1_455
S17 Sm1 2.801970 1_655
S17 Sm1 2.801970 1_545
S18 Sm0 2.883835 1_545
S18 Sm0 2.883835 1_655
S19 Sm1 2.883835 1_454
S19 Sm1 2.883835 1_564
