# generated using pymatgen
data_ZnB2(NF2)4
_symmetry_space_group_name_H-M   'P 1'
_cell_length_a   12.50302400
_cell_length_b   7.30715500
_cell_length_c   12.44156700
_cell_angle_alpha   90.00000000
_cell_angle_beta   90.00000000
_cell_angle_gamma   90.00000000
_symmetry_Int_Tables_number   1
_chemical_formula_structural   ZnB2(NF2)4
_chemical_formula_sum   'Zn4 B8 N16 F32'
_cell_volume   1136.68065067
_cell_formula_units_Z   4
loop_
 _symmetry_equiv_pos_site_id
 _symmetry_equiv_pos_as_xyz
  1  'x, y, z'
loop_
 _atom_site_type_symbol
 _atom_site_label
 _atom_site_symmetry_multiplicity
 _atom_site_fract_x
 _atom_site_fract_y
 _atom_site_fract_z
 _atom_site_occupancy
  Zn  Zn0  1  0.20642800  0.25000000  0.08889900  1
  Zn  Zn1  1  0.70642800  0.25000000  0.41110100  1
  Zn  Zn2  1  0.79357200  0.75000000  0.91110100  1
  Zn  Zn3  1  0.29357200  0.75000000  0.58889900  1
  B  B0  1  0.81555800  0.25000000  0.08510800  1
  B  B1  1  0.31555800  0.25000000  0.41489200  1
  B  B2  1  0.18444200  0.75000000  0.91489200  1
  B  B3  1  0.68444200  0.75000000  0.58510800  1
  B  B4  1  0.03011500  0.25000000  0.68240200  1
  B  B5  1  0.53011500  0.25000000  0.81759800  1
  B  B6  1  0.96988500  0.75000000  0.31759800  1
  B  B7  1  0.46988500  0.75000000  0.18240200  1
  N  N0  1  0.05782100  0.25000000  0.02150700  1
  N  N1  1  0.55782100  0.25000000  0.47849300  1
  N  N2  1  0.94217900  0.75000000  0.97849300  1
  N  N3  1  0.44217900  0.75000000  0.52150700  1
  N  N4  1  0.29280200  0.25000000  0.94025200  1
  N  N5  1  0.79280200  0.25000000  0.55974800  1
  N  N6  1  0.70719800  0.75000000  0.05974800  1
  N  N7  1  0.20719800  0.75000000  0.44025200  1
  N  N8  1  0.25531700  0.02604000  0.16834100  1
  N  N9  1  0.75531700  0.47396000  0.33165900  1
  N  N10  1  0.74468300  0.52604000  0.83165900  1
  N  N11  1  0.24468300  0.97396000  0.66834100  1
  N  N12  1  0.74468300  0.97396000  0.83165900  1
  N  N13  1  0.24468300  0.52604000  0.66834100  1
  N  N14  1  0.25531700  0.47396000  0.16834100  1
  N  N15  1  0.75531700  0.02604000  0.33165900  1
  F  F0  1  0.86755900  0.25000000  0.98128200  1
  F  F1  1  0.36755900  0.25000000  0.51871800  1
  F  F2  1  0.13244100  0.75000000  0.01871800  1
  F  F3  1  0.63244100  0.75000000  0.48128200  1
  F  F4  1  0.70413500  0.25000000  0.06981600  1
  F  F5  1  0.20413500  0.25000000  0.43018400  1
  F  F6  1  0.29586500  0.75000000  0.93018400  1
  F  F7  1  0.79586500  0.75000000  0.56981600  1
  F  F8  1  0.84803000  0.09100400  0.14129800  1
  F  F9  1  0.34803000  0.40899600  0.35870200  1
  F  F10  1  0.15197000  0.59100400  0.85870200  1
  F  F11  1  0.65197000  0.90899600  0.64129800  1
  F  F12  1  0.15197000  0.90899600  0.85870200  1
  F  F13  1  0.65197000  0.59100400  0.64129800  1
  F  F14  1  0.84803000  0.40899600  0.14129800  1
  F  F15  1  0.34803000  0.09100400  0.35870200  1
  F  F16  1  0.78256300  0.25000000  0.66423700  1
  F  F17  1  0.28256300  0.25000000  0.83576300  1
  F  F18  1  0.21743700  0.75000000  0.33576300  1
  F  F19  1  0.71743700  0.75000000  0.16423700  1
  F  F20  1  0.03940000  0.25000000  0.78813700  1
  F  F21  1  0.53940000  0.25000000  0.71186300  1
  F  F22  1  0.96060000  0.75000000  0.21186300  1
  F  F23  1  0.46060000  0.75000000  0.28813700  1
  F  F24  1  0.02267300  0.40713300  0.62884900  1
  F  F25  1  0.52267300  0.09286800  0.87115100  1
  F  F26  1  0.97732700  0.90713300  0.37115100  1
  F  F27  1  0.47732700  0.59286700  0.12884900  1
  F  F28  1  0.97732700  0.59286700  0.37115100  1
  F  F29  1  0.47732700  0.90713300  0.12884900  1
  F  F30  1  0.02267300  0.09286800  0.62884900  1
  F  F31  1  0.52267300  0.40713300  0.87115100  1
loop_
_geom_bond_atom_site_label_1
_geom_bond_atom_site_label_2
_geom_bond_distance
_geom_bond_site_symmetry_2
B0 F4 1.406056 1_555
B0 F14 1.415402 1_555
B0 F8 1.415402 1_555
B0 F0 1.446153 1_554
B1 F5 1.406056 1_555
B1 F9 1.415402 1_555
B1 F15 1.415402 1_555
B1 F1 1.446153 1_555
B2 F6 1.406056 1_555
B2 F12 1.415402 1_555
B2 F10 1.415402 1_555
B2 F2 1.446153 1_556
B3 F7 1.406056 1_555
B3 F11 1.415402 1_555
B3 F13 1.415402 1_555
B3 F3 1.446153 1_555
B4 F20 1.320622 1_555
B4 F30 1.330762 1_555
B4 F24 1.330768 1_555
B5 F21 1.320622 1_555
B5 F25 1.330762 1_555
B5 F31 1.330768 1_555
B6 F22 1.320622 1_555
B6 F26 1.330768 1_555
B6 F28 1.330768 1_555
B7 F23 1.320622 1_555
B7 F29 1.330768 1_555
B7 F27 1.330768 1_555
N0 Zn0 2.038460 1_555
N1 Zn1 2.038460 1_555
N2 Zn2 2.038460 1_555
N3 Zn3 2.038460 1_555
N4 Zn0 2.141623 1_556
N5 Zn1 2.141623 1_555
N6 Zn2 2.141623 1_554
N7 Zn3 2.141623 1_555
N8 Zn0 2.007164 1_555
N9 Zn1 2.007164 1_555
N10 Zn2 2.007164 1_555
N11 Zn3 2.007164 1_555
N12 Zn2 2.007164 1_555
N13 Zn3 2.007164 1_555
N14 Zn0 2.007164 1_555
N15 Zn1 2.007164 1_555
F16 N5 1.306295 1_555
F17 N4 1.306295 1_555
F18 N7 1.306295 1_555
F19 N6 1.306295 1_555
