# generated using pymatgen
data_CaYSiO5
_symmetry_space_group_name_H-M   'P 1'
_cell_length_a   5.69880670
_cell_length_b   5.69880670
_cell_length_c   8.00193694
_cell_angle_alpha   78.88950455
_cell_angle_beta   78.88950455
_cell_angle_gamma   108.50302039
_symmetry_Int_Tables_number   1
_chemical_formula_structural   CaYSiO5
_chemical_formula_sum   'Ca2 Y2 Si2 O10'
_cell_volume   232.64883606
_cell_formula_units_Z   2
loop_
 _symmetry_equiv_pos_site_id
 _symmetry_equiv_pos_as_xyz
  1  'x, y, z'
loop_
 _atom_site_type_symbol
 _atom_site_label
 _atom_site_symmetry_multiplicity
 _atom_site_fract_x
 _atom_site_fract_y
 _atom_site_fract_z
 _atom_site_occupancy
  Ca  Ca0  1  0.64853600  0.35146400  0.75000000  1
  Ca  Ca1  1  0.35146400  0.64853600  0.25000000  1
  Y  Y0  1  0.00000000  0.00000000  0.50000000  1
  Y  Y1  1  0.00000000  0.00000000  0.00000000  1
  Si  Si0  1  0.31710000  0.68290000  0.75000000  1
  Si  Si1  1  0.68290000  0.31710000  0.25000000  1
  O  O0  1  0.89128600  0.10871400  0.75000000  1
  O  O1  1  0.10871400  0.89128600  0.25000000  1
  O  O2  1  0.58681900  0.72870400  0.60257100  1
  O  O3  1  0.41318100  0.27129600  0.39742900  1
  O  O4  1  0.27129600  0.41318100  0.89742900  1
  O  O5  1  0.72870400  0.58681900  0.10257100  1
  O  O6  1  0.34109500  0.91957700  0.84498500  1
  O  O7  1  0.65890500  0.08042300  0.15501500  1
  O  O8  1  0.08042300  0.65890500  0.65501500  1
  O  O9  1  0.91957700  0.34109500  0.34498500  1
loop_
_geom_bond_atom_site_label_1
_geom_bond_atom_site_label_2
_geom_bond_distance
_geom_bond_site_symmetry_2
Ca0 O0 2.245482 1_555
Ca0 O8 2.394550 1_655
Ca0 O6 2.394550 1_545
Ca0 O2 2.408221 1_555
Ca0 O4 2.408221 1_555
Ca1 O1 2.245482 1_555
Ca1 O7 2.394550 1_565
Ca1 O9 2.394550 1_455
Ca1 O5 2.408221 1_555
Ca1 O3 2.408221 1_555
O0 Y0 2.239022 1_655
O0 Y1 2.239022 1_656
O1 Y0 2.239022 1_565
O1 Y1 2.239022 1_565
O2 Si0 1.658396 1_555
O2 Y0 2.250287 1_665
O3 Si1 1.658396 1_555
O3 Y0 2.250287 1_555
O4 Si0 1.658396 1_555
O4 Y1 2.250287 1_556
O5 Si1 1.658396 1_555
O5 Y1 2.250287 1_665
O6 Si0 1.653386 1_555
O6 Y1 2.320016 1_566
O7 Si1 1.653386 1_555
O7 Y1 2.320016 1_655
O8 Si0 1.653386 1_555
O8 Y0 2.320016 1_565
O9 Si1 1.653386 1_555
O9 Y0 2.320016 1_655
