# generated using pymatgen
data_Ho3(P3Pd10)2
_symmetry_space_group_name_H-M   'P 1'
_cell_length_a   8.60885591
_cell_length_b   8.60882840
_cell_length_c   8.60883113
_cell_angle_alpha   60.00009521
_cell_angle_beta   60.00022829
_cell_angle_gamma   60.00011602
_symmetry_Int_Tables_number   1
_chemical_formula_structural   Ho3(P3Pd10)2
_chemical_formula_sum   'Ho3 P6 Pd20'
_cell_volume   451.14912918
_cell_formula_units_Z   1
loop_
 _symmetry_equiv_pos_site_id
 _symmetry_equiv_pos_as_xyz
  1  'x, y, z'
loop_
 _atom_site_type_symbol
 _atom_site_label
 _atom_site_symmetry_multiplicity
 _atom_site_fract_x
 _atom_site_fract_y
 _atom_site_fract_z
 _atom_site_occupancy
  Ho  Ho0  1  0.25000014  0.25000033  0.25000521  1
  Ho  Ho1  1  0.75000019  0.74998940  0.74999798  1
  Ho  Ho2  1  0.00001452  0.00001154  -0.00000817  1
  P  P0  1  0.73693434  0.26306333  0.26305949  1
  P  P1  1  0.26306481  0.73693760  0.73693576  1
  P  P2  1  0.26305988  0.73693706  0.26306210  1
  P  P3  1  0.73693826  0.26306434  0.73693729  1
  P  P4  1  0.26305839  0.26306021  0.73693968  1
  P  P5  1  0.73693905  0.73693557  0.26306380  1
  Pd  Pd0  1  0.38410574  0.38411506  0.38411803  1
  Pd  Pd1  1  0.61589082  0.61588349  0.61589470  1
  Pd  Pd2  1  0.38411355  0.38412084  0.84765192  1
  Pd  Pd3  1  0.38410994  0.84765857  0.38412280  1
  Pd  Pd4  1  0.61588214  0.61587578  0.15233962  1
  Pd  Pd5  1  0.61587429  0.15235143  0.61588105  1
  Pd  Pd6  1  0.84766272  0.38411453  0.38411811  1
  Pd  Pd7  1  0.15234365  0.61587359  0.61588434  1
  Pd  Pd8  1  0.34525903  0.99999619  0.00000158  1
  Pd  Pd9  1  0.65473862  0.00000482  0.00000272  1
  Pd  Pd10  1  0.00000092  0.34526564  0.65473599  1
  Pd  Pd11  1  0.00000269  0.65472500  0.34527528  1
  Pd  Pd12  1  0.99999388  0.34526478  -0.00000704  1
  Pd  Pd13  1  0.65472658  0.00000023  0.34527125  1
  Pd  Pd14  1  0.00001119  0.65473423  0.99999561  1
  Pd  Pd15  1  0.34526177  0.00000090  0.65473626  1
  Pd  Pd16  1  0.99999263  -0.00000034  0.34526897  1
  Pd  Pd17  1  0.00001297  0.00000922  0.65473654  1
  Pd  Pd18  1  0.65473541  0.34527359  0.99998911  1
  Pd  Pd19  1  0.34526986  0.65473309  0.99999302  1
loop_
_geom_bond_atom_site_label_1
_geom_bond_atom_site_label_2
_geom_bond_distance
_geom_bond_site_symmetry_2
Ho0 Pd0 2.828032 1_555
Ho0 Pd6 2.828077 1_455
Ho0 Pd3 2.828095 1_545
Ho0 Pd2 2.828180 1_554
Ho0 Pd17 3.322332 1_555
Ho0 Pd11 3.322365 1_555
Ho0 Pd13 3.322369 1_555
Ho0 Pd15 3.322377 1_555
Ho0 Pd10 3.322395 1_555
Ho0 Pd14 3.322412 1_554
Ho0 Pd19 3.322422 1_554
Ho0 Pd9 3.322435 1_555
Ho0 Pd18 3.322466 1_554
Ho0 Pd16 3.322486 1_455
Ho0 Pd8 3.322494 1_545
Ho0 Pd12 3.322556 1_455
Ho1 Pd1 2.827929 1_555
Ho1 Pd4 2.828098 1_556
Ho1 Pd7 2.828120 1_655
Ho1 Pd5 2.828237 1_565
Ho1 Pd18 3.322280 1_555
Ho1 Pd10 3.322327 1_655
Ho1 Pd11 3.322332 1_655
Ho1 Pd12 3.322342 1_556
Ho1 Pd19 3.322365 1_555
Ho1 Pd13 3.322392 1_565
Ho1 Pd16 3.322418 1_565
Ho1 Pd15 3.322439 1_565
Ho1 Pd8 3.322492 1_556
Ho1 Pd14 3.322516 1_655
Ho1 Pd9 3.322575 1_566
Ho1 Pd17 3.322672 1_665
Ho2 Pd8 2.972136 1_545
Ho2 Pd12 2.972142 1_455
Ho2 Pd15 2.972226 1_554
Ho2 Pd10 2.972246 1_554
Ho2 Pd17 2.972261 1_554
Ho2 Pd16 2.972287 1_455
Ho2 Pd19 2.972353 1_544
Ho2 Pd18 2.972385 1_454
Ho2 Pd9 2.972413 1_455
Ho2 Pd14 2.972431 1_544
Ho2 Pd13 2.972503 1_455
Ho2 Pd11 2.972504 1_545
Ho2 P4 3.202525 1_554
Ho2 P2 3.202661 1_545
Ho2 P0 3.202686 1_455
Ho2 P1 3.202750 1_544
Ho2 P3 3.202753 1_454
Ho2 P5 3.202884 1_445
P0 Pd12 2.372657 1_555
P0 Pd16 2.372658 1_555
P0 Pd13 2.372661 1_555
P0 Pd18 2.372677 1_554
P0 Pd4 2.480480 1_555
P0 Pd5 2.480550 1_555
P0 Pd0 2.480606 1_555
P0 Pd6 2.480659 1_555
P1 Pd14 2.372611 1_555
P1 Pd19 2.372618 1_555
P1 Pd17 2.372619 1_565
P1 Pd15 2.372639 1_565
P1 Pd3 2.480487 1_555
P1 Pd2 2.480511 1_555
P1 Pd1 2.480586 1_555
P1 Pd7 2.480648 1_555
P2 Pd8 2.372625 1_555
P2 Pd11 2.372638 1_555
P2 Pd16 2.372685 1_465
P2 Pd19 2.372695 1_554
P2 Pd0 2.480548 1_555
P2 Pd7 2.480553 1_555
P2 Pd4 2.480560 1_555
P2 Pd3 2.480618 1_555
P3 Pd18 2.372601 1_555
P3 Pd9 2.372642 1_556
P3 Pd17 2.372650 1_655
P3 Pd10 2.372659 1_655
P3 Pd1 2.480526 1_555
P3 Pd6 2.480530 1_555
P3 Pd2 2.480579 1_555
P3 Pd5 2.480625 1_555
P4 Pd10 2.372615 1_555
P4 Pd12 2.372624 1_456
P4 Pd15 2.372629 1_555
P4 Pd8 2.372651 1_546
P4 Pd7 2.480487 1_555
P4 Pd5 2.480518 1_555
P4 Pd0 2.480549 1_555
P4 Pd2 2.480589 1_555
P5 Pd9 2.372661 1_565
P5 Pd13 2.372669 1_565
P5 Pd11 2.372693 1_655
P5 Pd14 2.372717 1_654
P5 Pd6 2.480540 1_555
P5 Pd3 2.480609 1_555
P5 Pd1 2.480613 1_555
P5 Pd4 2.480678 1_555
Pd0 Pd11 3.016051 1_555
Pd0 Pd10 3.016095 1_555
Pd0 Pd15 3.016132 1_555
Pd0 Pd13 3.016148 1_555
Pd0 Pd19 3.016184 1_554
Pd0 Pd18 3.016246 1_554
Pd1 Pd18 3.015991 1_555
Pd1 Pd19 3.016051 1_555
Pd1 Pd10 3.016106 1_655
Pd1 Pd11 3.016125 1_655
Pd1 Pd13 3.016137 1_565
Pd1 Pd15 3.016165 1_565
Pd2 Pd9 3.016193 1_556
Pd2 Pd8 3.016240 1_546
Pd3 Pd8 3.016216 1_555
Pd3 Pd9 3.016220 1_565
Pd4 Pd8 3.016175 1_555
Pd4 Pd9 3.016301 1_565
Pd5 Pd8 3.016192 1_546
Pd5 Pd9 3.016258 1_556
Pd8 Pd9 2.664307 1_565
Pd10 Pd11 2.664093 1_555
Pd10 Pd17 2.972199 1_555
Pd10 Pd12 2.972225 1_456
Pd10 Pd18 2.972294 1_455
Pd10 Pd15 2.972318 1_555
Pd10 Pd7 3.016033 1_555
Pd10 Pd6 3.016094 1_455
Pd11 Pd16 2.972340 1_465
Pd11 Pd14 2.972378 1_554
Pd11 Pd19 2.972426 1_554
Pd11 Pd13 2.972429 1_465
Pd11 Pd7 3.016030 1_555
Pd11 Pd6 3.016073 1_455
Pd12 Pd14 2.664255 1_654
Pd12 Pd18 2.972259 1_554
Pd12 Pd8 2.972353 1_645
Pd12 Pd16 2.972380 1_555
Pd12 Pd7 3.016100 1_654
Pd12 Pd4 3.016119 1_555
Pd12 Pd2 3.016230 1_654
Pd12 Pd6 3.016255 1_555
Pd13 Pd15 2.664144 1_555
Pd13 Pd9 2.972287 1_555
Pd13 Pd16 2.972333 1_555
Pd13 Pd18 2.972442 1_554
Pd13 Pd5 3.016099 1_555
Pd13 Pd3 3.016100 1_545
Pd14 Pd19 2.972266 1_555
Pd14 Pd17 2.972349 1_565
Pd14 Pd9 2.972394 1_466
Pd14 Pd2 3.016081 1_555
Pd14 Pd7 3.016183 1_555
Pd14 Pd6 3.016197 1_456
Pd14 Pd4 3.016311 1_456
Pd15 Pd17 2.972160 1_555
Pd15 Pd8 2.972299 1_546
Pd15 Pd19 2.972309 1_545
Pd15 Pd3 3.016087 1_545
Pd15 Pd5 3.016110 1_555
Pd16 Pd17 2.664283 1_655
Pd16 Pd8 2.972359 1_645
Pd16 Pd5 3.016165 1_555
Pd16 Pd6 3.016169 1_555
Pd16 Pd7 3.016197 1_645
Pd16 Pd3 3.016200 1_645
Pd17 Pd9 2.972388 1_456
Pd17 Pd3 3.016078 1_545
Pd17 Pd6 3.016119 1_455
Pd17 Pd7 3.016347 1_545
Pd17 Pd5 3.016376 1_455
Pd18 Pd19 2.664119 1_555
Pd18 Pd9 2.972287 1_556
Pd18 Pd4 3.016028 1_556
Pd18 Pd2 3.016129 1_555
Pd19 Pd8 2.972301 1_556
Pd19 Pd4 3.016072 1_556
Pd19 Pd2 3.016088 1_555
