# generated using pymatgen
data_ErNi5Ge3
_symmetry_space_group_name_H-M   'P 1'
_cell_length_a   3.84435300
_cell_length_b   6.85330200
_cell_length_c   19.05643100
_cell_angle_alpha   90.00000000
_cell_angle_beta   90.00000000
_cell_angle_gamma   90.00000000
_symmetry_Int_Tables_number   1
_chemical_formula_structural   ErNi5Ge3
_chemical_formula_sum   'Er4 Ni20 Ge12'
_cell_volume   502.07048999
_cell_formula_units_Z   4
loop_
 _symmetry_equiv_pos_site_id
 _symmetry_equiv_pos_as_xyz
  1  'x, y, z'
loop_
 _atom_site_type_symbol
 _atom_site_label
 _atom_site_symmetry_multiplicity
 _atom_site_fract_x
 _atom_site_fract_y
 _atom_site_fract_z
 _atom_site_occupancy
  Er  Er0  1  0.25000000  0.62150200  0.64545100  1
  Er  Er1  1  0.25000000  0.87849800  0.14545100  1
  Er  Er2  1  0.75000000  0.37849800  0.35454900  1
  Er  Er3  1  0.75000000  0.12150200  0.85454900  1
  Ni  Ni0  1  0.25000000  0.81244700  0.79892000  1
  Ni  Ni1  1  0.25000000  0.68755300  0.29892000  1
  Ni  Ni2  1  0.75000000  0.18755300  0.20108000  1
  Ni  Ni3  1  0.75000000  0.31244700  0.70108000  1
  Ni  Ni4  1  0.25000000  0.12964800  0.99614400  1
  Ni  Ni5  1  0.25000000  0.37035200  0.49614400  1
  Ni  Ni6  1  0.75000000  0.87035200  0.00385600  1
  Ni  Ni7  1  0.75000000  0.62964800  0.50385600  1
  Ni  Ni8  1  0.25000000  0.87923600  0.51210600  1
  Ni  Ni9  1  0.25000000  0.62076400  0.01210600  1
  Ni  Ni10  1  0.75000000  0.12076400  0.48789400  1
  Ni  Ni11  1  0.75000000  0.37923600  0.98789400  1
  Ni  Ni12  1  0.25000000  0.13901000  0.61172400  1
  Ni  Ni13  1  0.25000000  0.36099000  0.11172400  1
  Ni  Ni14  1  0.75000000  0.86099000  0.38827600  1
  Ni  Ni15  1  0.75000000  0.63901000  0.88827600  1
  Ni  Ni16  1  0.25000000  0.42479300  0.79334800  1
  Ni  Ni17  1  0.25000000  0.07520700  0.29334800  1
  Ni  Ni18  1  0.75000000  0.57520700  0.20665200  1
  Ni  Ni19  1  0.75000000  0.92479300  0.70665200  1
  Ge  Ge0  1  0.25000000  0.40258600  0.91478400  1
  Ge  Ge1  1  0.25000000  0.09741400  0.41478400  1
  Ge  Ge2  1  0.75000000  0.59741400  0.08521600  1
  Ge  Ge3  1  0.75000000  0.90258600  0.58521600  1
  Ge  Ge4  1  0.25000000  0.11721700  0.73677700  1
  Ge  Ge5  1  0.25000000  0.38278300  0.23677700  1
  Ge  Ge6  1  0.75000000  0.88278300  0.26322300  1
  Ge  Ge7  1  0.75000000  0.61721700  0.76322300  1
  Ge  Ge8  1  0.25000000  0.85244900  0.92271600  1
  Ge  Ge9  1  0.25000000  0.64755100  0.42271600  1
  Ge  Ge10  1  0.75000000  0.14755100  0.07728400  1
  Ge  Ge11  1  0.75000000  0.35244900  0.57728400  1
loop_
_geom_bond_atom_site_label_1
_geom_bond_atom_site_label_2
_geom_bond_distance
_geom_bond_site_symmetry_2
Er0 Ge3 2.953505 1_455
Er0 Ge3 2.953505 1_555
Er0 Ge7 2.955092 1_555
Er0 Ge7 2.955092 1_455
Er0 Ge11 2.963476 1_555
Er0 Ge11 2.963476 1_455
Er0 Ni3 3.050357 1_555
Er0 Ni3 3.050357 1_455
Er0 Ni19 3.061912 1_555
Er0 Ni19 3.061912 1_455
Er0 Ni8 3.094674 1_555
Er0 Ni16 3.124213 1_555
Er0 Ni0 3.203992 1_555
Er0 Ni7 3.313409 1_455
Er0 Ni7 3.313409 1_555
Er0 Ni5 3.325364 1_555
Er0 Ni12 3.368547 1_555
Er1 Ge2 2.953505 1_455
Er1 Ge2 2.953505 1_555
Er1 Ge6 2.955092 1_455
Er1 Ge6 2.955092 1_555
Er1 Ge10 2.963476 1_465
Er1 Ge10 2.963476 1_565
Er1 Ni2 3.050357 1_565
Er1 Ni2 3.050357 1_465
Er1 Ni18 3.061912 1_455
Er1 Ni18 3.061912 1_555
Er1 Ni9 3.094674 1_555
Er1 Ni17 3.124213 1_565
Er1 Ni1 3.203992 1_555
Er1 Ni6 3.313409 1_455
Er1 Ni6 3.313409 1_555
Er1 Ni4 3.325364 1_564
Er1 Ni13 3.368547 1_565
Er2 Ge1 2.953505 1_655
Er2 Ge1 2.953505 1_555
Er2 Ge5 2.955092 1_555
Er2 Ge5 2.955092 1_655
Er2 Ge9 2.963476 1_555
Er2 Ge9 2.963476 1_655
Er2 Ni1 3.050357 1_555
Er2 Ni1 3.050357 1_655
Er2 Ni17 3.061912 1_555
Er2 Ni17 3.061912 1_655
Er2 Ni10 3.094674 1_555
Er2 Ni18 3.124213 1_555
Er2 Ni2 3.203992 1_555
Er2 Ni5 3.313409 1_655
Er2 Ni5 3.313409 1_555
Er2 Ni7 3.325364 1_555
Er2 Ni14 3.368547 1_555
Er3 Ge0 2.953505 1_555
Er3 Ge0 2.953505 1_655
Er3 Ge4 2.955092 1_655
Er3 Ge4 2.955092 1_555
Er3 Ge8 2.963476 1_545
Er3 Ge8 2.963476 1_645
Er3 Ni0 3.050357 1_645
Er3 Ni0 3.050357 1_545
Er3 Ni16 3.061912 1_555
Er3 Ni16 3.061912 1_655
Er3 Ni11 3.094674 1_555
Er3 Ni19 3.124213 1_545
Er3 Ni3 3.203992 1_555
Er3 Ni4 3.313409 1_655
Er3 Ni4 3.313409 1_555
Er3 Ni6 3.325364 1_546
Er3 Ni15 3.368547 1_545
Ni0 Ni16 2.658831 1_555
Ni0 Ni19 2.716466 1_555
Ni0 Ni19 2.716466 1_455
Ni0 Ni15 2.829686 1_455
Ni0 Ni15 2.829686 1_555
Ni1 Ni17 2.658831 1_565
Ni1 Ni18 2.716466 1_555
Ni1 Ni18 2.716466 1_455
Ni1 Ni14 2.829686 1_455
Ni1 Ni14 2.829686 1_555
Ni6 Ni9 2.577847 1_555
Ni6 Ni9 2.577847 1_655
Ni7 Ni8 2.577847 1_655
Ni7 Ni8 2.577847 1_555
Ni10 Ni5 2.577847 1_655
Ni10 Ni5 2.577847 1_555
Ni10 Ni8 2.578284 1_645
Ni10 Ni8 2.578284 1_545
Ni10 Ni14 2.602554 1_545
Ni11 Ni4 2.577847 1_655
Ni11 Ni4 2.577847 1_555
Ni11 Ni9 2.578284 1_556
Ni11 Ni9 2.578284 1_656
Ni11 Ni15 2.602554 1_555
Ni12 Ni8 2.602554 1_545
Ni12 Ni3 2.829686 1_455
Ni12 Ni3 2.829686 1_555
Ni13 Ni9 2.602554 1_555
Ni13 Ni2 2.829686 1_455
Ni13 Ni2 2.829686 1_555
Ni16 Ni3 2.716466 1_455
Ni16 Ni3 2.716466 1_555
Ni17 Ni2 2.716466 1_455
Ni17 Ni2 2.716466 1_555
Ni18 Ni2 2.658831 1_555
Ni19 Ni3 2.658831 1_565
Ge0 Ni16 2.319136 1_555
Ge0 Ni11 2.379374 1_555
Ge0 Ni11 2.379374 1_455
Ge0 Ni9 2.382293 1_556
Ge0 Ni4 2.429549 1_555
Ge0 Ni15 2.564227 1_555
Ge0 Ni15 2.564227 1_455
Ge1 Ni17 2.319136 1_555
Ge1 Ni10 2.379374 1_455
Ge1 Ni10 2.379374 1_555
Ge1 Ni8 2.382293 1_545
Ge1 Ni5 2.429549 1_555
Ge1 Ni14 2.564227 1_445
Ge1 Ni14 2.564227 1_545
Ge2 Ni18 2.319136 1_555
Ge2 Ni9 2.379374 1_555
Ge2 Ni9 2.379374 1_655
Ge2 Ni11 2.382293 1_554
Ge2 Ni6 2.429549 1_555
Ge2 Ni13 2.564227 1_555
Ge2 Ni13 2.564227 1_655
Ge3 Ni19 2.319136 1_555
Ge3 Ni8 2.379374 1_555
Ge3 Ni8 2.379374 1_655
Ge3 Ni10 2.382293 1_565
Ge3 Ni7 2.429549 1_555
Ge3 Ni12 2.564227 1_565
Ge3 Ni12 2.564227 1_665
Ge4 Ni16 2.367586 1_555
Ge4 Ni12 2.387740 1_555
Ge4 Ni19 2.400708 1_445
Ge4 Ni19 2.400708 1_545
Ge4 Ni0 2.401036 1_545
Ge4 Ni3 2.438786 1_455
Ge4 Ni3 2.438786 1_555
Ge5 Ni17 2.367586 1_555
Ge5 Ni13 2.387740 1_555
Ge5 Ni18 2.400708 1_555
Ge5 Ni18 2.400708 1_455
Ge5 Ni1 2.401036 1_555
Ge5 Ni2 2.438786 1_455
Ge5 Ni2 2.438786 1_555
Ge6 Ni18 2.367586 1_555
Ge6 Ni14 2.387740 1_555
Ge6 Ni17 2.400708 1_665
Ge6 Ni17 2.400708 1_565
Ge6 Ni2 2.401036 1_565
Ge6 Ni1 2.438786 1_555
Ge6 Ni1 2.438786 1_655
Ge7 Ni19 2.367586 1_555
Ge7 Ni15 2.387740 1_555
Ge7 Ni16 2.400708 1_555
Ge7 Ni16 2.400708 1_655
Ge7 Ni3 2.401036 1_555
Ge7 Ni0 2.438786 1_555
Ge7 Ni0 2.438786 1_655
Ge8 Ni9 2.328710 1_556
Ge8 Ni4 2.359436 1_565
Ge8 Ni0 2.374985 1_555
Ge8 Ni6 2.469954 1_456
Ge8 Ni6 2.469954 1_556
Ge8 Ni15 2.503032 1_455
Ge8 Ni15 2.503032 1_555
Ge9 Ni8 2.328710 1_555
Ge9 Ni5 2.359436 1_555
Ge9 Ni1 2.374985 1_555
Ge9 Ni7 2.469954 1_455
Ge9 Ni7 2.469954 1_555
Ge9 Ni14 2.503032 1_555
Ge9 Ni14 2.503032 1_455
Ge10 Ni11 2.328710 1_554
Ge10 Ni6 2.359436 1_545
Ge10 Ni2 2.374985 1_555
Ge10 Ni4 2.469954 1_654
Ge10 Ni4 2.469954 1_554
Ge10 Ni13 2.503032 1_655
Ge10 Ni13 2.503032 1_555
Ge11 Ni10 2.328710 1_555
Ge11 Ni7 2.359436 1_555
Ge11 Ni3 2.374985 1_555
Ge11 Ni5 2.469954 1_655
Ge11 Ni5 2.469954 1_555
Ge11 Ni12 2.503032 1_655
Ge11 Ni12 2.503032 1_555
