# generated using pymatgen
data_KTbH2C2SO9
_symmetry_space_group_name_H-M   'P 1'
_cell_length_a   8.68161100
_cell_length_b   6.62413000
_cell_length_c   14.77947389
_cell_angle_alpha   67.07000454
_cell_angle_beta   90.00000000
_cell_angle_gamma   90.00000000
_symmetry_Int_Tables_number   1
_chemical_formula_structural   KTbH2C2SO9
_chemical_formula_sum   'K4 Tb4 H8 C8 S4 O36'
_cell_volume   782.77884716
_cell_formula_units_Z   4
loop_
 _symmetry_equiv_pos_site_id
 _symmetry_equiv_pos_as_xyz
  1  'x, y, z'
loop_
 _atom_site_type_symbol
 _atom_site_label
 _atom_site_symmetry_multiplicity
 _atom_site_fract_x
 _atom_site_fract_y
 _atom_site_fract_z
 _atom_site_occupancy
  K  K0  1  0.84861300  0.03376600  0.19801900  1
  K  K1  1  0.34861300  0.96623400  0.30198100  1
  K  K2  1  0.15138700  0.96623400  0.80198100  1
  K  K3  1  0.65138700  0.03376600  0.69801900  1
  Tb  Tb0  1  0.24178500  0.66998400  0.08664400  1
  Tb  Tb1  1  0.74178500  0.33001600  0.41335600  1
  Tb  Tb2  1  0.75821500  0.33001600  0.91335600  1
  Tb  Tb3  1  0.25821500  0.66998400  0.58664400  1
  H  H0  1  0.46682600  0.72333800  0.92020100  1
  H  H1  1  0.96682600  0.27666200  0.57979900  1
  H  H2  1  0.53317400  0.27666200  0.07979900  1
  H  H3  1  0.03317400  0.72333800  0.42020100  1
  H  H4  1  0.45949100  0.96102900  0.91817800  1
  H  H5  1  0.95949100  0.03897100  0.58182200  1
  H  H6  1  0.54050900  0.03897100  0.08182200  1
  H  H7  1  0.04050900  0.96102900  0.41817800  1
  C  C0  1  0.03447000  0.58322300  0.27981300  1
  C  C1  1  0.53447000  0.41677700  0.22018700  1
  C  C2  1  0.96553000  0.41677700  0.72018700  1
  C  C3  1  0.46553000  0.58322300  0.77981300  1
  C  C4  1  0.53318300  0.63622400  0.23185500  1
  C  C5  1  0.03318300  0.36377600  0.26814500  1
  C  C6  1  0.46681700  0.36377600  0.76814500  1
  C  C7  1  0.96681700  0.63622400  0.73185500  1
  S  S0  1  0.16234300  0.25977900  0.97645500  1
  S  S1  1  0.66234300  0.74022100  0.52354500  1
  S  S2  1  0.83765700  0.74022100  0.02354500  1
  S  S3  1  0.33765700  0.25977900  0.47645500  1
  O  O0  1  0.12303400  0.73151400  0.22508000  1
  O  O1  1  0.62303400  0.26848600  0.27492000  1
  O  O2  1  0.87696600  0.26848600  0.77492000  1
  O  O3  1  0.37696600  0.73151400  0.72508000  1
  O  O4  1  0.44306400  0.40028300  0.15560500  1
  O  O5  1  0.94306400  0.59971700  0.34439500  1
  O  O6  1  0.55693600  0.59971700  0.84439500  1
  O  O7  1  0.05693600  0.40028300  0.65560500  1
  O  O8  1  0.45045100  0.78696100  0.17067100  1
  O  O9  1  0.95045100  0.21303900  0.32932900  1
  O  O10  1  0.54954900  0.21303900  0.82932900  1
  O  O11  1  0.04954900  0.78696100  0.67067100  1
  O  O12  1  0.11003100  0.34903800  0.19836400  1
  O  O13  1  0.61003100  0.65096200  0.30163600  1
  O  O14  1  0.88996900  0.65096200  0.80163600  1
  O  O15  1  0.38996900  0.34903800  0.69836400  1
  O  O16  1  0.23403200  0.43863500  0.99948200  1
  O  O17  1  0.73403200  0.56136500  0.50051800  1
  O  O18  1  0.76596800  0.56136500  0.00051800  1
  O  O19  1  0.26596800  0.43863500  0.49948200  1
  O  O20  1  0.99208600  0.25054700  0.99626500  1
  O  O21  1  0.49208600  0.74945300  0.50373500  1
  O  O22  1  0.00791400  0.74945300  0.00373500  1
  O  O23  1  0.50791400  0.25054700  0.49626500  1
  O  O24  1  0.23171700  0.04719100  0.04289900  1
  O  O25  1  0.73171700  0.95280900  0.45710100  1
  O  O26  1  0.76828300  0.95280900  0.95710100  1
  O  O27  1  0.26828300  0.04719100  0.54289900  1
  O  O28  1  0.19015300  0.29809200  0.87280900  1
  O  O29  1  0.69015300  0.70190800  0.62719100  1
  O  O30  1  0.80984700  0.70190800  0.12719100  1
  O  O31  1  0.30984700  0.29809200  0.37280900  1
  O  O32  1  0.40468700  0.81911000  0.94369000  1
  O  O33  1  0.90468700  0.18089000  0.55631000  1
  O  O34  1  0.59531300  0.18089000  0.05631000  1
  O  O35  1  0.09531300  0.81911000  0.44369000  1
loop_
_geom_bond_atom_site_label_1
_geom_bond_atom_site_label_2
_geom_bond_distance
_geom_bond_site_symmetry_2
K0 O9 2.784595 1_555
K0 O30 2.799024 1_545
K0 O34 2.929436 1_555
K0 O5 2.961840 1_545
K0 O1 2.986884 1_555
K0 O20 3.027918 1_554
K0 O0 3.036534 1_645
K0 O12 3.085533 1_655
K0 O13 3.168518 1_545
K1 O8 2.784595 1_555
K1 O31 2.799024 1_565
K1 O35 2.929436 1_555
K1 O4 2.961840 1_565
K1 O0 2.986884 1_555
K1 O21 3.027918 1_555
K1 O1 3.036534 1_565
K1 O13 3.085533 1_555
K1 O12 3.168518 1_565
K2 O11 2.784595 1_555
K2 O28 2.799024 1_565
K2 O32 2.929436 1_555
K2 O7 2.961840 1_565
K2 O3 2.986884 1_555
K2 O22 3.027918 1_556
K2 O2 3.036534 1_465
K2 O14 3.085533 1_455
K2 O15 3.168518 1_565
K3 O10 2.784595 1_555
K3 O29 2.799024 1_545
K3 O33 2.929436 1_555
K3 O6 2.961840 1_545
K3 O2 2.986884 1_555
K3 O23 3.027918 1_555
K3 O3 3.036534 1_545
K3 O15 3.085533 1_555
K3 O14 3.168518 1_545
H0 O32 0.992786 1_555
H1 O33 0.992786 1_555
H2 O34 0.992786 1_555
H3 O35 0.992786 1_555
H4 O32 0.987982 1_555
H5 O33 0.987982 1_555
H6 O34 0.987982 1_555
H7 O35 0.987982 1_555
C0 O0 1.261458 1_555
C0 O5 1.278268 1_455
C1 O1 1.261458 1_555
C1 O4 1.278268 1_555
C2 O2 1.261458 1_555
C2 O7 1.278268 1_655
C3 O3 1.261458 1_555
C3 O6 1.278268 1_555
C4 O13 1.263617 1_555
C4 O8 1.275548 1_555
C5 O12 1.263617 1_555
C5 O9 1.275548 1_455
C6 O15 1.263617 1_555
C6 O10 1.275548 1_555
C7 O14 1.263617 1_555
C7 O11 1.275548 1_655
O0 Tb0 2.462711 1_555
O1 Tb1 2.462711 1_555
O2 Tb2 2.462711 1_555
O3 Tb3 2.462711 1_555
O4 Tb0 2.421809 1_555
O5 Tb1 2.421809 1_555
O6 Tb2 2.421809 1_555
O7 Tb3 2.421809 1_555
O8 Tb0 2.484803 1_555
O9 Tb1 2.484803 1_555
O10 Tb2 2.484803 1_555
O11 Tb3 2.484803 1_555
O12 Tb0 2.412305 1_555
O13 Tb1 2.412305 1_555
O14 Tb2 2.412305 1_555
O15 Tb3 2.412305 1_555
O16 S0 1.490311 1_555
O16 Tb0 2.356017 1_556
O17 S1 1.490311 1_555
O17 Tb1 2.356017 1_555
O18 S2 1.490311 1_555
O18 Tb2 2.356017 1_554
O19 S3 1.490311 1_555
O19 Tb3 2.356017 1_555
O20 S0 1.503431 1_655
O20 Tb2 2.323447 1_555
O21 S1 1.503431 1_555
O21 Tb3 2.323447 1_555
O22 S2 1.503431 1_455
O22 Tb0 2.323447 1_555
O23 S3 1.503431 1_555
O23 Tb1 2.323447 1_555
O24 S0 1.494183 1_554
O24 Tb0 2.325983 1_545
O25 S1 1.494183 1_555
O25 Tb1 2.325983 1_565
O26 S2 1.494183 1_556
O26 Tb2 2.325983 1_565
O27 S3 1.494183 1_555
O27 Tb3 2.325983 1_545
O28 S0 1.471830 1_555
O29 S1 1.471830 1_555
O30 S2 1.471830 1_555
O31 S3 1.471830 1_555
O32 Tb0 2.411121 1_556
O33 Tb1 2.411121 1_555
O34 Tb2 2.411121 1_554
O35 Tb3 2.411121 1_555
