# generated using pymatgen
data_Ho3Ga9Pd2
_symmetry_space_group_name_H-M   'P 1'
_cell_length_a   8.17666706
_cell_length_b   8.17666706
_cell_length_c   8.17666706
_cell_angle_alpha   149.49923982
_cell_angle_beta   109.12994550
_cell_angle_gamma   79.08607114
_symmetry_Int_Tables_number   1
_chemical_formula_structural   Ho3Ga9Pd2
_chemical_formula_sum   'Ho3 Ga9 Pd2'
_cell_volume   257.16183103
_cell_formula_units_Z   1
loop_
 _symmetry_equiv_pos_site_id
 _symmetry_equiv_pos_as_xyz
  1  'x, y, z'
loop_
 _atom_site_type_symbol
 _atom_site_label
 _atom_site_symmetry_multiplicity
 _atom_site_fract_x
 _atom_site_fract_y
 _atom_site_fract_z
 _atom_site_occupancy
  Ho  Ho0  1  0.50000000  0.50000000  0.00000000  1
  Ho  Ho1  1  0.20016700  0.20016700  0.00000000  1
  Ho  Ho2  1  0.79983300  0.79983300  0.00000000  1
  Ga  Ga0  1  0.64502100  0.36288500  0.28213600  1
  Ga  Ga1  1  0.35497900  0.63711500  0.71786400  1
  Ga  Ga2  1  0.08074900  0.36288500  0.71786400  1
  Ga  Ga3  1  0.91925100  0.63711500  0.28213600  1
  Ga  Ga4  1  0.52179600  0.15511000  0.36668600  1
  Ga  Ga5  1  0.47820400  0.84489000  0.63331400  1
  Ga  Ga6  1  0.78842400  0.15511000  0.63331400  1
  Ga  Ga7  1  0.21157600  0.84489000  0.36668600  1
  Ga  Ga8  1  0.00000000  0.50000000  0.50000000  1
  Pd  Pd0  1  0.18212000  0.00000000  0.18212000  1
  Pd  Pd1  1  0.81788000  0.00000000  0.81788000  1
loop_
_geom_bond_atom_site_label_1
_geom_bond_atom_site_label_2
_geom_bond_distance
_geom_bond_site_symmetry_2
Ho1 Pd1 3.058360 1_454
Ho1 Pd0 3.058360 1_555
Ho2 Pd1 3.058360 1_564
Ho2 Pd0 3.058360 1_665
Ga0 Ga5 2.582309 1_544
Ga0 Ga5 2.582309 1_555
Ga0 Ga8 2.693838 1_655
Ga0 Ga4 2.740101 1_555
Ga0 Pd1 2.780390 1_554
Ga0 Pd1 2.780390 1_565
Ga0 Ho2 3.086248 1_545
Ga0 Ho2 3.086248 1_556
Ga0 Ho0 3.185223 1_555
Ga0 Ho1 3.371422 1_555
Ga1 Ga4 2.582309 1_555
Ga1 Ga4 2.582309 1_566
Ga1 Ga8 2.693838 1_555
Ga1 Ga5 2.740101 1_555
Ga1 Pd0 2.780390 1_555
Ga1 Pd0 2.780390 1_566
Ga1 Ho1 3.086248 1_555
Ga1 Ho1 3.086248 1_566
Ga1 Ho0 3.185223 1_556
Ga1 Ho2 3.371422 1_556
Ga2 Ga7 2.582309 1_556
Ga2 Ga7 2.582309 1_545
Ga2 Ga8 2.693838 1_555
Ga2 Ga6 2.740101 1_455
Ga2 Pd0 2.780390 1_555
Ga2 Pd0 2.780390 1_566
Ga2 Ho2 3.086248 1_445
Ga2 Ho2 3.086248 1_456
Ga2 Ho0 3.185223 1_556
Ga2 Ho1 3.371422 1_556
Ga3 Ga6 2.582309 1_565
Ga3 Ga6 2.582309 1_554
Ga3 Ga8 2.693838 1_655
Ga3 Ga7 2.740101 1_655
Ga3 Pd1 2.780390 1_565
Ga3 Pd1 2.780390 1_554
Ga3 Ho1 3.086248 1_666
Ga3 Ho1 3.086248 1_655
Ga3 Ho0 3.185223 1_555
Ga3 Ho2 3.371422 1_555
Ga4 Ga6 2.527987 1_555
Ga4 Pd0 2.624584 1_555
Ga4 Ho2 3.091019 1_556
Ga4 Ho2 3.091019 1_545
Ga4 Ho0 3.170123 1_545
Ga4 Ho0 3.170123 1_556
Ga5 Ga7 2.527987 1_555
Ga5 Pd1 2.624584 1_565
Ga5 Ho1 3.091019 1_566
Ga5 Ho1 3.091019 1_555
Ga5 Ho0 3.170123 1_566
Ga5 Ho0 3.170123 1_555
Ga6 Pd1 2.624584 1_555
Ga6 Ho2 3.091019 1_545
Ga6 Ho2 3.091019 1_556
Ga6 Ho0 3.170123 1_545
Ga6 Ho0 3.170123 1_556
Ga7 Pd0 2.624584 1_565
Ga7 Ho1 3.091019 1_555
Ga7 Ho1 3.091019 1_566
Ga7 Ho0 3.170123 1_555
Ga7 Ho0 3.170123 1_566
Ga8 Pd1 2.758159 1_465
Ga8 Pd0 2.758159 1_555
Ga8 Pd1 2.758159 1_454
Ga8 Pd0 2.758159 1_566
