# generated using pymatgen
data_Li5Fe4(P2O7)4
_symmetry_space_group_name_H-M   'P 1'
_cell_length_a   9.70573300
_cell_length_b   9.76482575
_cell_length_c   11.12086593
_cell_angle_alpha   101.80020024
_cell_angle_beta   89.98360088
_cell_angle_gamma   90.20043067
_symmetry_Int_Tables_number   1
_chemical_formula_structural   Li5Fe4(P2O7)4
_chemical_formula_sum   'Li10 Fe8 P16 O56'
_cell_volume   1031.69728274
_cell_formula_units_Z   2
loop_
 _symmetry_equiv_pos_site_id
 _symmetry_equiv_pos_as_xyz
  1  'x, y, z'
loop_
 _atom_site_type_symbol
 _atom_site_label
 _atom_site_symmetry_multiplicity
 _atom_site_fract_x
 _atom_site_fract_y
 _atom_site_fract_z
 _atom_site_occupancy
  Li  Li0  1  0.56794600  0.16166900  0.53216700  1
  Li  Li1  1  0.09837800  0.34311900  0.95781700  1
  Li  Li2  1  0.40693400  0.41931600  0.97824200  1
  Li  Li3  1  0.07920600  0.33565000  0.46251800  1
  Li  Li4  1  0.95333300  0.61986400  0.50368200  1
  Li  Li5  1  0.41966000  0.84686600  0.96409700  1
  Li  Li6  1  0.87726400  0.65387700  0.03643600  1
  Li  Li7  1  0.09569900  0.91996500  0.97608900  1
  Li  Li8  1  0.40277700  0.81853100  0.44792800  1
  Li  Li9  1  0.71546100  0.88101800  0.54331900  1
  Fe  Fe0  1  0.07802400  0.19577500  0.66824700  1
  Fe  Fe1  1  0.78471900  0.24583100  0.82716300  1
  Fe  Fe2  1  0.28379900  0.24510800  0.18088400  1
  Fe  Fe3  1  0.58019500  0.30068600  0.32137300  1
  Fe  Fe4  1  0.42443100  0.69613400  0.67324700  1
  Fe  Fe5  1  0.71625800  0.75107900  0.83030100  1
  Fe  Fe6  1  0.21963900  0.74495200  0.17541000  1
  Fe  Fe7  1  0.92495700  0.80300100  0.31920000  1
  P  P0  1  0.54870800  0.01954800  0.75275400  1
  P  P1  1  0.29090300  0.11574800  0.88740100  1
  P  P2  1  0.07962600  0.07322500  0.24556300  1
  P  P3  1  0.85257700  0.12517900  0.42057500  1
  P  P4  1  0.35567400  0.37465800  0.57861600  1
  P  P5  1  0.57875700  0.42966300  0.76163500  1
  P  P6  1  0.95265600  0.51623700  0.75285300  1
  P  P7  1  0.78651200  0.38769900  0.11273700  1
  P  P8  1  0.20824600  0.61606200  0.88598500  1
  P  P9  1  0.04455000  0.47956400  0.24885000  1
  P  P10  1  0.41857100  0.56740000  0.24243700  1
  P  P11  1  0.64624200  0.62201400  0.41753100  1
  P  P12  1  0.14504100  0.87361900  0.57742100  1
  P  P13  1  0.92138300  0.93123400  0.75978400  1
  P  P14  1  0.71256500  0.90191200  0.11417000  1
  P  P15  1  0.45127500  0.98167200  0.24781300  1
  O  O0  1  0.57734500  0.01752500  0.61901100  1
  O  O1  1  0.15719200  0.02811200  0.57007400  1
  O  O2  1  0.91563900  0.08627100  0.73671000  1
  O  O3  1  0.40946400  0.10867000  0.78518600  1
  O  O4  1  0.65682800  0.09711400  0.84192200  1
  O  O5  1  0.16846400  0.18026000  0.83008600  1
  O  O6  1  0.33627100  0.22493900  0.00443100  1
  O  O7  1  0.75303700  0.04122000  0.09531300  1
  O  O8  1  0.92916100  0.12831300  0.29283800  1
  O  O9  1  0.10310300  0.08445300  0.11294100  1
  O  O10  1  0.45723600  0.13915000  0.22802700  1
  O  O11  1  0.70957500  0.18698400  0.40878400  1
  O  O12  1  0.18187000  0.18163000  0.31958800  1
  O  O13  1  0.94387600  0.20962800  0.52168600  1
  O  O14  1  0.44228300  0.28924300  0.47585500  1
  O  O15  1  0.69035100  0.32622700  0.69658200  1
  O  O16  1  0.21052300  0.31560300  0.59314500  1
  O  O17  1  0.97183900  0.36205700  0.77784800  1
  O  O18  1  0.43214300  0.36573100  0.70541500  1
  O  O19  1  0.57863200  0.42018200  0.89478300  1
  O  O20  1  0.23241600  0.47450100  0.91577000  1
  O  O21  1  0.84894000  0.29416200  0.99343800  1
  O  O22  1  0.66763700  0.31834500  0.16919200  1
  O  O23  1  0.90590800  0.39175900  0.21615100  1
  O  O24  1  0.41182800  0.41249000  0.26487200  1
  O  O25  1  0.15199000  0.39667000  0.15919100  1
  O  O26  1  0.65601900  0.47034100  0.42943200  1
  O  O27  1  0.91676400  0.51730000  0.62293700  1
  O  O28  1  0.06727200  0.48545100  0.38332900  1
  O  O29  1  0.34615000  0.52945300  0.57229400  1
  O  O30  1  0.86015600  0.59609200  0.85473300  1
  O  O31  1  0.58553600  0.57893900  0.73199900  1
  O  O32  1  0.10167400  0.59318400  0.77307300  1
  O  O33  1  0.33473400  0.68264900  0.83447800  1
  O  O34  1  0.14549400  0.72256300  0.99521700  1
  O  O35  1  0.76270700  0.53286200  0.09685900  1
  O  O36  1  0.40495100  0.57613600  0.11003500  1
  O  O37  1  0.56995400  0.62432600  0.29005400  1
  O  O38  1  0.02790600  0.62866600  0.21857000  1
  O  O39  1  0.78903700  0.69016100  0.40854300  1
  O  O40  1  0.31625000  0.66859300  0.31954900  1
  O  O41  1  0.56158700  0.71746100  0.51946400  1
  O  O42  1  0.05673700  0.78868700  0.47436600  1
  O  O43  1  0.80839200  0.83928100  0.68678600  1
  O  O44  1  0.28806000  0.81199200  0.59302200  1
  O  O45  1  0.52435000  0.86964200  0.77778800  1
  O  O46  1  0.92256100  0.91670300  0.89104700  1
  O  O47  1  0.06826800  0.87079400  0.70504800  1
  O  O48  1  0.27052600  0.97180200  0.91133500  1
  O  O49  1  0.64331200  0.80130300  0.00391800  1
  O  O50  1  0.83051000  0.81845800  0.16716600  1
  O  O51  1  0.36042300  0.89977000  0.14479100  1
  O  O52  1  0.60268300  0.91749000  0.22780000  1
  O  O53  1  0.08600500  0.92154800  0.26812100  1
  O  O54  1  0.83865100  0.97044300  0.43083200  1
  O  O55  1  0.41579500  0.97574100  0.37766700  1
loop_
_geom_bond_atom_site_label_1
_geom_bond_atom_site_label_2
_geom_bond_distance
_geom_bond_site_symmetry_2
Li0 O0 1.865250 1_555
Li0 O14 1.939517 1_555
Li0 O11 1.992151 1_555
Li0 O15 2.474445 1_555
Li1 O20 1.946871 1_555
Li1 O5 2.023018 1_555
Li1 O25 2.253698 1_556
Li1 O17 2.388007 1_455
Li1 O21 2.513048 1_455
Li2 O36 1.890949 1_556
Li2 O19 1.908090 1_555
Li2 O20 1.949942 1_555
Li2 O6 2.091576 1_556
Li3 O28 1.859248 1_555
Li3 O16 1.972853 1_555
Li3 O13 1.997972 1_455
Li3 O12 2.193897 1_555
Li4 O27 1.851584 1_555
Li4 O28 2.006949 1_655
Li4 O42 2.009781 1_655
Li4 O39 2.106912 1_555
Li5 O51 2.052377 1_556
Li5 O48 2.057517 1_555
Li5 O33 2.091575 1_555
Li5 O49 2.279017 1_556
Li5 O45 2.358057 1_555
Li6 O35 1.843717 1_555
Li6 O50 1.987824 1_555
Li6 O30 1.990569 1_554
Li6 O38 2.551288 1_655
Li7 O46 1.925488 1_455
Li7 O48 1.948430 1_555
Li7 O9 1.975022 1_566
Li7 O34 2.041748 1_555
Li8 O55 1.863408 1_555
Li8 O44 1.971798 1_555
Li8 O40 2.006081 1_555
Li8 O41 2.077307 1_555
Li9 O43 1.947956 1_555
Li9 O0 1.958390 1_565
Li9 O54 2.048313 1_555
Li9 O41 2.159119 1_555
Li9 O39 2.257428 1_555
Fe0 O1 1.933922 1_555
Fe0 O16 2.027078 1_555
Fe0 O5 2.036188 1_555
Fe0 O17 2.094220 1_455
Fe0 O13 2.112502 1_455
Fe0 O2 2.127801 1_455
Fe1 O21 1.916292 1_555
Fe1 O4 1.939416 1_555
Fe1 O15 2.008998 1_555
Fe1 O2 2.103848 1_555
Fe1 O17 2.264235 1_555
Fe1 O19 2.638988 1_555
Fe2 O6 1.997718 1_555
Fe2 O25 2.011118 1_555
Fe2 O12 2.031784 1_555
Fe2 O10 2.100844 1_555
Fe2 O24 2.109503 1_555
Fe2 O9 2.367365 1_555
Fe3 O22 1.931757 1_555
Fe3 O26 1.976847 1_555
Fe3 O11 2.050953 1_555
Fe3 O10 2.075517 1_555
Fe3 O24 2.133243 1_555
Fe3 O14 2.198124 1_555
Fe4 O29 1.931650 1_555
Fe4 O33 2.021154 1_555
Fe4 O44 2.061971 1_555
Fe4 O45 2.084752 1_555
Fe4 O31 2.121419 1_555
Fe4 O41 2.209677 1_555
Fe5 O49 2.020895 1_556
Fe5 O30 2.120860 1_555
Fe5 O43 2.155157 1_555
Fe5 O31 2.205587 1_555
Fe5 O45 2.333017 1_555
Fe5 O46 2.571487 1_555
Fe6 O34 2.098054 1_554
Fe6 O51 2.112890 1_555
Fe6 O40 2.121145 1_555
Fe6 O53 2.237551 1_555
Fe6 O38 2.278238 1_555
Fe6 O36 2.451678 1_555
Fe7 O50 1.956513 1_555
Fe7 O54 2.023616 1_555
Fe7 O53 2.088471 1_655
Fe7 O39 2.092469 1_555
Fe7 O38 2.093046 1_655
Fe7 O42 2.175826 1_655
O0 P0 1.509173 1_555
O1 P12 1.531539 1_545
O2 P13 1.587564 1_545
O3 P1 1.608957 1_555
O3 P0 1.610425 1_555
O4 P0 1.531684 1_555
O5 P1 1.544409 1_555
O6 P1 1.566545 1_554
O7 P14 1.470249 1_545
O8 P2 1.608677 1_655
O8 P3 1.608852 1_555
O9 P2 1.518209 1_555
O10 P15 1.598181 1_545
O11 P3 1.531709 1_555
O12 P2 1.555540 1_555
O13 P3 1.531605 1_555
O14 P4 1.524061 1_555
O15 P5 1.557241 1_555
O16 P4 1.541314 1_555
O17 P6 1.597415 1_555
O18 P4 1.611890 1_555
O18 P5 1.624869 1_555
O19 P5 1.502389 1_555
O20 P8 1.505036 1_555
O21 P7 1.571409 1_556
O22 P7 1.533626 1_555
O23 P9 1.594603 1_655
O23 P7 1.627533 1_555
O24 P10 1.583779 1_555
O25 P9 1.553059 1_555
O26 P11 1.516978 1_555
O27 P6 1.488386 1_555
O28 P9 1.501155 1_555
O29 P4 1.530590 1_555
O30 P6 1.529935 1_555
O31 P5 1.559971 1_555
O32 P8 1.606528 1_555
O32 P6 1.621874 1_455
O33 P8 1.550601 1_555
O34 P8 1.554162 1_555
O35 P7 1.482744 1_555
O36 P10 1.498115 1_555
O37 P11 1.603839 1_555
O37 P10 1.619426 1_555
O38 P9 1.568915 1_555
O39 P11 1.547346 1_555
O40 P10 1.535530 1_555
O41 P11 1.549669 1_555
O42 P12 1.530574 1_555
O43 P13 1.537339 1_555
O44 P12 1.538751 1_555
O45 P0 1.562160 1_565
O46 P13 1.495291 1_555
O47 P12 1.608022 1_555
O47 P13 1.615462 1_455
O48 P1 1.495571 1_565
O49 P14 1.556747 1_555
O50 P14 1.589092 1_555
O51 P15 1.533187 1_555
O52 P15 1.597195 1_555
O52 P14 1.636802 1_555
O53 P2 1.553396 1_565
O54 P3 1.543815 1_565
O55 P15 1.497035 1_555
