# generated using pymatgen
data_Ir(N3O4)3
_symmetry_space_group_name_H-M   'P 1'
_cell_length_a   7.94405900
_cell_length_b   7.95969156
_cell_length_c   8.30277251
_cell_angle_alpha   116.73640035
_cell_angle_beta   94.56275867
_cell_angle_gamma   110.79541934
_symmetry_Int_Tables_number   1
_chemical_formula_structural   Ir(N3O4)3
_chemical_formula_sum   'Ir1 N9 O12'
_cell_volume   419.94124324
_cell_formula_units_Z   1
loop_
 _symmetry_equiv_pos_site_id
 _symmetry_equiv_pos_as_xyz
  1  'x, y, z'
loop_
 _atom_site_type_symbol
 _atom_site_label
 _atom_site_symmetry_multiplicity
 _atom_site_fract_x
 _atom_site_fract_y
 _atom_site_fract_z
 _atom_site_occupancy
  Ir  Ir0  1  0.17574400  0.17656700  0.99489800  1
  N  N0  1  0.75404800  0.79563800  0.85364700  1
  N  N1  1  0.13335000  0.74706600  0.14294100  1
  N  N2  1  0.89016000  0.78167600  0.22272800  1
  N  N3  1  0.19801500  0.07235100  0.39537600  1
  N  N4  1  0.65297000  0.01662600  0.80539900  1
  N  N5  1  0.10694000  0.23771400  0.71310500  1
  N  N6  1  0.52172700  0.49496000  0.51910200  1
  N  N7  1  0.62064800  0.21117600  0.20440900  1
  N  N8  1  0.24310500  0.72333900  0.77558400  1
  O  O0  1  0.17692900  0.60503400  0.16611700  1
  O  O1  1  0.85293000  0.65089800  0.35132200  1
  O  O2  1  0.63987700  0.68465100  0.79713100  1
  O  O3  1  0.02764000  0.32583900  0.94615100  1
  O  O4  1  0.62944100  0.99031800  0.95001000  1
  O  O5  1  0.03049000  0.99855900  0.35616200  1
  O  O6  1  0.29224400  0.13060600  0.27861000  1
  O  O7  1  0.23603100  0.92333900  0.05720300  1
  O  O8  1  0.51749900  0.26288600  0.05391500  1
  O  O9  1  0.62729600  0.15449800  0.65185200  1
  O  O10  1  0.15701700  0.41088600  0.60795500  1
  O  O11  1  0.01589700  0.10537400  0.65638900  1
loop_
_geom_bond_atom_site_label_1
_geom_bond_atom_site_label_2
_geom_bond_distance
_geom_bond_site_symmetry_2
Ir0 O3 2.075895 1_555
Ir0 O7 2.478687 1_546
Ir0 O8 2.498774 1_556
Ir0 N5 2.649473 1_555
Ir0 O6 2.684797 1_556
Ir0 O11 2.705742 1_555
N0 O2 0.901996 1_555
N1 O0 1.377688 1_555
N1 O7 1.821857 1_555
N2 O5 1.471890 1_655
N2 O1 1.772755 1_555
N3 O5 1.194175 1_545
N3 O6 1.410224 1_555
N4 O4 1.324591 1_545
N4 O9 2.060972 1_555
N5 O11 0.901654 1_555
N5 O10 1.889206 1_555
N5 O3 1.979726 1_555
N6 O2 2.000593 1_555
N7 O8 1.715077 1_555
N8 O10 2.028904 1_555
O0 O3 1.952618 1_554
O6 O7 1.708206 1_545
