# generated using pymatgen
data_Fe39Si3O56
_symmetry_space_group_name_H-M   'P 1'
_cell_length_a   13.53735164
_cell_length_b   8.51689309
_cell_length_c   10.45831293
_cell_angle_alpha   65.97200642
_cell_angle_beta   97.36238116
_cell_angle_gamma   90.00000000
_symmetry_Int_Tables_number   1
_chemical_formula_structural   Fe39Si3O56
_chemical_formula_sum   'Fe39 Si3 O56'
_cell_volume   1090.42314360
_cell_formula_units_Z   1
loop_
 _symmetry_equiv_pos_site_id
 _symmetry_equiv_pos_as_xyz
  1  'x, y, z'
loop_
 _atom_site_type_symbol
 _atom_site_label
 _atom_site_symmetry_multiplicity
 _atom_site_fract_x
 _atom_site_fract_y
 _atom_site_fract_z
 _atom_site_occupancy
  Fe  Fe0  1  0.03633570  0.68814218  0.85981976  1
  Fe  Fe1  1  0.03653144  0.69291459  0.36012111  1
  Fe  Fe2  1  0.10652130  0.83367594  0.56875224  1
  Fe  Fe3  1  0.17871145  0.98870463  0.78603075  1
  Fe  Fe4  1  0.14482483  0.28604305  0.42621426  1
  Fe  Fe5  1  0.28747996  0.57508339  0.85855784  1
  Fe  Fe6  1  0.99803217  0.99797131  0.00235774  1
  Fe  Fe7  1  0.39445887  0.91067988  0.93269780  1
  Fe  Fe8  1  0.31844308  0.27168003  0.71390152  1
  Fe  Fe9  1  0.25060957  0.62602771  0.49947184  1
  Fe  Fe10  1  0.17921645  0.98001781  0.28470297  1
  Fe  Fe11  1  0.10632556  0.33875071  0.06844989  1
  Fe  Fe12  1  0.21509938  0.67701820  0.14385676  1
  Fe  Fe13  1  0.35471966  0.96788679  0.57016553  1
  Fe  Fe14  1  0.39459768  0.41516547  0.42938831  1
  Fe  Fe15  1  0.46278118  0.55426412  0.63883625  1
  Fe  Fe16  1  0.53747001  0.69609657  0.85014653  1
  Fe  Fe17  1  0.32287343  0.26588408  0.21417957  1
  Fe  Fe18  1  0.24905684  0.12548155  0.00188318  1
  Fe  Fe19  1  0.57142900  0.13903719  0.71428600  1
  Fe  Fe20  1  0.60538699  0.83195710  0.57842447  1
  Fe  Fe21  1  0.46790593  0.55110232  0.14574001  1
  Fe  Fe22  1  0.53529507  0.19443104  0.35207636  1
  Fe  Fe23  1  0.68007582  0.47881537  0.78973475  1
  Fe  Fe24  1  0.78813734  0.82376632  0.85840647  1
  Fe  Fe25  1  0.49937714  0.25005978  0.99707964  1
  Fe  Fe26  1  0.64347986  0.53285343  0.43149236  1
  Fe  Fe27  1  0.89224743  0.41121455  0.92909916  1
  Fe  Fe28  1  0.67495107  0.98255634  0.28283099  1
  Fe  Fe29  1  0.82441392  0.27129555  0.71466948  1
  Fe  Fe30  1  0.60756193  0.83222240  0.07649464  1
  Fe  Fe31  1  0.74839813  0.12909268  0.49587320  1
  Fe  Fe32  1  0.85537704  0.71935623  0.57001316  1
  Fe  Fe33  1  0.81998357  0.76577765  0.21439243  1
  Fe  Fe34  1  0.89380116  0.41307973  0.42668782  1
  Fe  Fe35  1  0.74825932  0.13026778  0.99918369  1
  Fe  Fe36  1  0.96414555  0.06044938  0.64254025  1
  Fe  Fe37  1  0.92775762  0.10658896  0.28471424  1
  Fe  Fe38  1  0.96364055  0.55043478  0.14386903  1
  Si  Si0  1  0.07142900  0.39299206  0.71428600  1
  Si  Si1  1  0.42892512  0.85964563  0.28423894  1
  Si  Si2  1  0.71393188  0.42959857  0.14433306  1
  O  O0  1  0.04065231  0.44787950  0.84157498  1
  O  O1  1  0.03783881  0.94336676  0.84627131  1
  O  O2  1  0.03176075  0.44328419  0.35644657  1
  O  O3  1  0.10501819  0.07535207  0.58229969  1
  O  O4  1  0.17062944  0.74481502  0.78035054  1
  O  O5  1  0.03817041  0.93898499  0.36975594  1
  O  O6  1  0.25163825  0.88268200  0.98662016  1
  O  O7  1  0.16660107  0.24329315  0.77620187  1
  O  O8  1  0.10220469  0.57516849  0.58699702  1
  O  O9  1  0.17615832  0.72863749  0.29131464  1
  O  O10  1  0.24129033  0.87037512  0.50420784  1
  O  O11  1  0.10468659  0.59445593  0.05881606  1
  O  O12  1  0.38732777  0.15246927  0.92373256  1
  O  O13  1  0.31625125  0.01302614  0.72697483  1
  O  O14  1  0.18684518  0.22952346  0.28087285  1
  O  O15  1  0.11109625  0.08544575  0.07212443  1
  O  O16  1  0.39959339  0.67129427  0.93461381  1
  O  O17  1  0.32331861  0.52235490  0.71039977  1
  O  O18  1  0.25821852  0.37811180  0.49978291  1
  O  O19  1  0.46125063  0.30705754  0.63245530  1
  O  O20  1  0.33289305  0.00803629  0.22401195  1
  O  O21  1  0.25277165  0.36942589  0.00994278  1
  O  O22  1  0.53025356  0.93308432  0.86580246  1
  O  O23  1  0.39642110  0.67638034  0.40947072  1
  O  O24  1  0.53749576  0.45628360  0.85388658  1
  O  O25  1  0.32558421  0.50406424  0.22246441  1
  O  O26  1  0.39083265  0.17552216  0.42046620  1
  O  O27  1  0.46716524  0.80668442  0.64304246  1
  O  O28  1  0.45850785  0.30049166  0.14557570  1
  O  O29  1  0.67569176  0.73544089  0.78552954  1
  O  O30  1  0.60536124  0.59588418  0.57468442  1
  O  O31  1  0.53007987  0.44285904  0.35783813  1
  O  O32  1  0.74643590  0.37156506  0.01910028  1
  O  O33  1  0.68160637  0.22522684  0.79611670  1
  O  O34  1  0.61260344  0.08460178  0.56276854  1
  O  O35  1  0.45747754  0.81622850  0.14911784  1
  O  O36  1  0.52638079  0.93771752  0.35085692  1
  O  O37  1  0.81953839  0.51846867  0.71817223  1
  O  O38  1  0.61647621  0.57428844  0.07771508  1
  O  O39  1  0.74326461  0.89162208  0.49395719  1
  O  O40  1  0.88463848  0.16360871  0.92878909  1
  O  O41  1  0.68537946  0.25106134  0.27945316  1
  O  O42  1  0.82660575  0.02571497  0.70159717  1
  O  O43  1  0.75552923  0.36191583  0.50483844  1
  O  O44  1  0.61277713  0.08641117  0.07073387  1
  O  O45  1  0.68434915  0.73178236  0.28299530  1
  O  O46  1  0.90156667  0.66029795  0.92436316  1
  O  O47  1  0.97625593  0.30520902  0.65236913  1
  O  O48  1  0.81727279  0.01224165  0.20610759  1
  O  O49  1  0.89121875  0.15501616  0.44195084  1
  O  O50  1  0.75202435  0.88170236  0.00810580  1
  O  O51  1  0.89008535  0.66508267  0.41862922  1
  O  O52  1  0.97222756  0.81087956  0.64822146  1
  O  O53  1  0.80996395  0.51776224  0.20456005  1
  O  O54  1  0.95601182  0.79611032  0.14769815  1
  O  O55  1  0.96669868  0.30566612  0.13725736  1
loop_
_geom_bond_atom_site_label_1
_geom_bond_atom_site_label_2
_geom_bond_distance
_geom_bond_site_symmetry_2
Fe0 O11 1.994547 1_556
Fe0 O46 2.006399 1_455
Fe0 O4 2.071071 1_555
Fe0 O52 2.089743 1_455
Fe0 O1 2.120251 1_555
Fe0 O0 2.132595 1_555
Fe1 O9 2.086496 1_555
Fe1 O51 2.133931 1_455
Fe1 O5 2.138747 1_555
Fe1 O2 2.142836 1_555
Fe1 O54 2.164565 1_455
Fe1 O8 2.224315 1_555
Fe2 O5 1.994547 1_555
Fe2 O10 2.006403 1_555
Fe2 O52 2.071071 1_455
Fe2 O4 2.089743 1_555
Fe2 O3 2.120246 1_565
Fe2 O8 2.132595 1_555
Fe3 O13 2.020314 1_565
Fe3 O6 2.029150 1_555
Fe3 O3 2.062615 1_565
Fe3 O1 2.071869 1_555
Fe3 O4 2.104521 1_555
Fe3 O7 2.133811 1_565
Fe4 O2 1.893827 1_555
Fe4 O14 1.919180 1_555
Fe4 O18 1.936973 1_555
Fe4 O3 2.003764 1_555
Fe5 O17 1.896653 1_555
Fe5 O21 1.930718 1_556
Fe5 O16 1.956782 1_555
Fe5 O4 1.991601 1_555
Fe6 O15 1.893827 1_665
Fe6 O54 1.919175 1_555
Fe6 O40 1.936973 1_564
Fe6 O1 2.003769 1_654
Fe7 O12 2.024659 1_565
Fe7 O22 2.031284 1_555
Fe7 O16 2.031846 1_555
Fe7 O6 2.069516 1_555
Fe7 O13 2.097299 1_565
Fe7 O35 2.126078 1_556
Fe8 O12 2.092186 1_555
Fe8 O18 2.092836 1_555
Fe8 O17 2.121496 1_555
Fe8 O13 2.151330 1_555
Fe8 O19 2.183291 1_555
Fe8 O7 2.218824 1_555
Fe9 O9 2.099309 1_555
Fe9 O10 2.105899 1_555
Fe9 O18 2.112643 1_555
Fe9 O17 2.114707 1_555
Fe9 O23 2.261331 1_555
Fe9 O8 2.282554 1_555
Fe10 O15 2.109075 1_565
Fe10 O14 2.111798 1_565
Fe10 O9 2.114346 1_555
Fe10 O10 2.146622 1_555
Fe10 O5 2.177444 1_555
Fe10 O20 2.236705 1_565
Fe11 O55 2.086500 1_455
Fe11 O21 2.133927 1_555
Fe11 O11 2.138751 1_555
Fe11 O15 2.142836 1_555
Fe11 O14 2.164565 1_555
Fe11 O0 2.224306 1_554
Fe12 O9 1.899979 1_555
Fe12 O11 1.920461 1_555
Fe12 O25 1.944580 1_555
Fe12 O6 1.969704 1_554
Fe13 O27 1.906176 1_555
Fe13 O10 1.928338 1_555
Fe13 O26 1.938779 1_565
Fe13 O13 1.959791 1_565
Fe14 O19 2.022040 1_555
Fe14 O31 2.046312 1_555
Fe14 O18 2.051643 1_555
Fe14 O25 2.068045 1_555
Fe14 O26 2.081088 1_555
Fe14 O23 2.148810 1_555
Fe15 O17 2.096396 1_555
Fe15 O30 2.107013 1_555
Fe15 O19 2.133493 1_555
Fe15 O24 2.160149 1_555
Fe15 O27 2.168779 1_555
Fe15 O23 2.249188 1_555
Fe16 O24 2.026849 1_555
Fe16 O29 2.051795 1_555
Fe16 O27 2.072351 1_555
Fe16 O22 2.093686 1_555
Fe16 O16 2.139945 1_555
Fe16 O38 2.285035 1_556
Fe17 O14 2.031420 1_555
Fe17 O28 2.034317 1_555
Fe17 O21 2.046259 1_555
Fe17 O26 2.057249 1_555
Fe17 O25 2.065481 1_555
Fe17 O20 2.159672 1_555
Fe18 O15 2.071606 1_555
Fe18 O12 2.112740 1_554
Fe18 O21 2.113713 1_555
Fe18 O6 2.138491 1_544
Fe18 O20 2.262139 1_555
Fe18 O7 2.284665 1_554
Fe19 O33 1.918420 1_555
Fe19 O19 1.918429 1_555
Fe19 O34 1.965017 1_555
Fe19 O22 1.965018 1_545
Fe20 O30 2.026849 1_555
Fe20 O27 2.051799 1_555
Fe20 O29 2.072359 1_555
Fe20 O34 2.093694 1_565
Fe20 O39 2.139958 1_555
Fe20 O36 2.285026 1_555
Fe21 O31 2.082029 1_555
Fe21 O16 2.101059 1_554
Fe21 O28 2.138898 1_555
Fe21 O25 2.156571 1_555
Fe21 O38 2.200578 1_555
Fe21 O35 2.277326 1_555
Fe22 O28 2.096797 1_555
Fe22 O34 2.134490 1_555
Fe22 O31 2.142497 1_555
Fe22 O26 2.150979 1_555
Fe22 O36 2.194855 1_545
Fe22 O41 2.243802 1_555
Fe23 O37 2.096392 1_555
Fe23 O24 2.107013 1_555
Fe23 O33 2.133498 1_555
Fe23 O30 2.160149 1_555
Fe23 O29 2.168775 1_555
Fe23 O32 2.249188 1_556
Fe24 O29 1.906176 1_555
Fe24 O46 1.928333 1_555
Fe24 O50 1.938779 1_556
Fe24 O42 1.959791 1_565
Fe25 O24 1.910469 1_555
Fe25 O28 1.914652 1_556
Fe25 O44 1.927493 1_556
Fe25 O12 1.949645 1_555
Fe26 O30 1.910459 1_555
Fe26 O45 1.914662 1_555
Fe26 O31 1.927493 1_555
Fe26 O43 1.949645 1_555
Fe27 O55 2.099317 1_556
Fe27 O46 2.105899 1_555
Fe27 O40 2.112647 1_555
Fe27 O37 2.114698 1_555
Fe27 O32 2.261331 1_556
Fe27 O0 2.282550 1_655
Fe28 O44 2.082020 1_565
Fe28 O39 2.101063 1_555
Fe28 O45 2.138890 1_555
Fe28 O48 2.156566 1_565
Fe28 O36 2.200582 1_555
Fe28 O41 2.277334 1_565
Fe29 O43 2.092186 1_555
Fe29 O40 2.092844 1_555
Fe29 O37 2.121500 1_555
Fe29 O42 2.151325 1_555
Fe29 O33 2.183296 1_555
Fe29 O47 2.218824 1_555
Fe30 O45 2.096797 1_555
Fe30 O22 2.134490 1_554
Fe30 O44 2.142492 1_565
Fe30 O50 2.150975 1_555
Fe30 O38 2.194860 1_555
Fe30 O35 2.243801 1_555
Fe31 O43 2.024651 1_555
Fe31 O34 2.031284 1_555
Fe31 O39 2.031854 1_545
Fe31 O49 2.069516 1_555
Fe31 O42 2.097307 1_555
Fe31 O41 2.126078 1_555
Fe32 O37 1.896663 1_555
Fe32 O51 1.930713 1_555
Fe32 O39 1.956767 1_555
Fe32 O52 1.991601 1_555
Fe33 O54 2.031424 1_555
Fe33 O45 2.034312 1_555
Fe33 O51 2.046259 1_555
Fe33 O50 2.057249 1_555
Fe33 O48 2.065472 1_565
Fe33 O53 2.159672 1_555
Fe34 O2 2.071594 1_655
Fe34 O43 2.112753 1_555
Fe34 O51 2.113709 1_555
Fe34 O49 2.138500 1_555
Fe34 O53 2.262136 1_555
Fe34 O47 2.284660 1_555
Fe35 O33 2.022040 1_555
Fe35 O44 2.046312 1_556
Fe35 O40 2.051643 1_555
Fe35 O48 2.068046 1_556
Fe35 O50 2.081088 1_546
Fe35 O32 2.148805 1_556
Fe36 O42 2.020318 1_555
Fe36 O49 2.029150 1_555
Fe36 O1 2.062615 1_645
Fe36 O3 2.071869 1_655
Fe36 O52 2.104517 1_545
Fe36 O47 2.133811 1_555
Fe37 O55 1.899974 1_555
Fe37 O5 1.920466 1_645
Fe37 O48 1.944580 1_555
Fe37 O49 1.969704 1_555
Fe38 O2 2.109067 1_655
Fe38 O54 2.111794 1_555
Fe38 O55 2.114347 1_555
Fe38 O46 2.146631 1_554
Fe38 O11 2.177444 1_655
Fe38 O53 2.236705 1_555
O0 Si0 1.677264 1_555
O7 Si0 1.678875 1_555
O8 Si0 1.677260 1_555
O20 Si1 1.681045 1_545
O23 Si1 1.681707 1_555
O32 Si2 1.681717 1_555
O35 Si1 1.687789 1_555
O36 Si1 1.676235 1_555
O38 Si2 1.676235 1_555
O41 Si2 1.687779 1_555
O47 Si0 1.678890 1_655
O53 Si2 1.681045 1_555
