# generated using pymatgen
data_Lu4CdPd
_symmetry_space_group_name_H-M   'P 1'
_cell_length_a   9.41554148
_cell_length_b   9.41572332
_cell_length_c   9.41583500
_cell_angle_alpha   59.99972042
_cell_angle_beta   59.99952800
_cell_angle_gamma   59.99931665
_symmetry_Int_Tables_number   1
_chemical_formula_structural   Lu4CdPd
_chemical_formula_sum   'Lu16 Cd4 Pd4'
_cell_volume   590.25288859
_cell_formula_units_Z   4
loop_
 _symmetry_equiv_pos_site_id
 _symmetry_equiv_pos_as_xyz
  1  'x, y, z'
loop_
 _atom_site_type_symbol
 _atom_site_label
 _atom_site_symmetry_multiplicity
 _atom_site_fract_x
 _atom_site_fract_y
 _atom_site_fract_z
 _atom_site_occupancy
  Lu  Lu0  1  0.60501808  0.60500309  0.60499324  1
  Lu  Lu1  1  0.60502101  0.60499181  0.18498852  1
  Lu  Lu2  1  0.60503426  0.18498218  0.60498945  1
  Lu  Lu3  1  0.18499405  0.60502592  0.60498894  1
  Lu  Lu4  1  0.06074732  0.43923648  0.43925263  1
  Lu  Lu5  1  0.43927390  0.06076080  0.06076442  1
  Lu  Lu6  1  0.43924686  0.06076661  0.43922542  1
  Lu  Lu7  1  0.06076046  0.43923405  0.06075746  1
  Lu  Lu8  1  0.43919766  0.43923403  0.06078674  1
  Lu  Lu9  1  0.06078342  0.06076154  0.43922604  1
  Lu  Lu10  1  0.18497967  0.81503646  0.81505183  1
  Lu  Lu11  1  0.81502243  0.18498414  0.18499497  1
  Lu  Lu12  1  0.81501849  0.18497781  0.81501329  1
  Lu  Lu13  1  0.18497925  0.81501585  0.18494629  1
  Lu  Lu14  1  0.81499340  0.81503972  0.18497521  1
  Lu  Lu15  1  0.18495783  0.18492698  0.81505341  1
  Cd  Cd0  1  0.83236669  0.83240783  0.83240617  1
  Cd  Cd1  1  0.83238876  0.83239218  0.50284063  1
  Cd  Cd2  1  0.83243440  0.50279776  0.83238546  1
  Cd  Cd3  1  0.50271677  0.83239029  0.83241152  1
  Pd  Pd0  1  0.39500232  0.39516603  0.39513768  1
  Pd  Pd1  1  0.39502654  0.39510915  0.81476014  1
  Pd  Pd2  1  0.39530052  0.81470595  0.39499577  1
  Pd  Pd3  1  0.81473591  0.39505633  0.39505680  1
loop_
_geom_bond_atom_site_label_1
_geom_bond_atom_site_label_2
_geom_bond_distance
_geom_bond_site_symmetry_2
Lu0 Pd2 2.794410 1_555
Lu0 Pd1 2.795537 1_555
Lu0 Pd3 2.795548 1_555
Lu1 Pd2 2.794471 1_555
Lu1 Pd3 2.794863 1_555
Lu1 Pd0 2.795264 1_555
Lu2 Pd3 2.794807 1_555
Lu2 Pd0 2.795533 1_555
Lu2 Pd1 2.795644 1_555
Lu3 Pd0 2.794402 1_555
Lu3 Pd1 2.795000 1_555
Lu3 Pd2 2.796210 1_555
Lu4 Pd0 2.794395 1_555
Lu4 Pd3 2.795038 1_455
Lu5 Pd2 2.794288 1_545
Lu5 Pd1 2.794811 1_554
Lu6 Pd2 2.794329 1_545
Lu6 Pd0 2.795318 1_555
Lu7 Pd1 2.794247 1_554
Lu7 Pd3 2.794577 1_455
Lu8 Pd1 2.794758 1_554
Lu8 Pd0 2.795132 1_555
Lu9 Pd3 2.794590 1_455
Lu9 Pd2 2.795925 1_545
Lu10 Pd1 3.424965 1_555
Lu10 Pd2 3.426168 1_555
Lu11 Pd3 3.424348 1_555
Lu11 Pd0 3.425707 1_555
Lu12 Pd3 3.425232 1_555
Lu12 Pd1 3.425321 1_555
Lu13 Pd0 3.424526 1_555
Lu13 Pd2 3.426122 1_555
Lu14 Pd2 3.423109 1_555
Lu14 Pd3 3.425343 1_555
Lu15 Pd0 3.425103 1_555
Lu15 Pd1 3.425218 1_555
Cd0 Cd1 3.103105 1_555
Cd0 Cd2 3.103296 1_555
Cd0 Cd3 3.103890 1_555
Cd0 Lu12 3.164608 1_565
Cd0 Lu14 3.164638 1_556
Cd0 Lu10 3.165010 1_655
Cd0 Lu2 3.249055 1_565
Cd0 Lu1 3.249153 1_556
Cd0 Lu3 3.249447 1_655
Cd0 Lu5 3.413463 1_566
Cd0 Lu7 3.413964 1_656
Cd0 Lu9 3.414109 1_665
Cd1 Cd2 3.103142 1_555
Cd1 Cd3 3.103591 1_555
Cd1 Lu11 3.164796 1_565
Cd1 Lu13 3.164948 1_655
Cd1 Lu14 3.165023 1_555
Cd1 Lu2 3.249074 1_565
Cd1 Lu3 3.249144 1_655
Cd1 Lu0 3.249213 1_555
Cd1 Lu6 3.413825 1_565
Cd1 Lu4 3.413891 1_655
Cd1 Lu9 3.413933 1_665
Cd2 Cd3 3.103879 1_555
Cd2 Lu15 3.164476 1_655
Cd2 Lu11 3.164759 1_556
Cd2 Lu12 3.164771 1_555
Cd2 Lu3 3.249146 1_655
Cd2 Lu1 3.249413 1_556
Cd2 Lu0 3.249438 1_555
Cd2 Lu7 3.413638 1_656
Cd2 Lu4 3.413646 1_655
Cd2 Lu8 3.414401 1_556
Cd3 Lu10 3.163551 1_555
Cd3 Lu13 3.164017 1_556
Cd3 Lu15 3.164085 1_565
Cd3 Lu0 3.249121 1_555
Cd3 Lu1 3.249703 1_556
Cd3 Lu2 3.249853 1_565
Cd3 Lu8 3.413645 1_556
Cd3 Lu6 3.413734 1_565
Cd3 Lu5 3.414396 1_566
