# generated using pymatgen
data_K2PrNb5O15
_symmetry_space_group_name_H-M   'P 1'
_cell_length_a   12.79386400
_cell_length_b   12.79386400
_cell_length_c   3.96860500
_cell_angle_alpha   90.00000000
_cell_angle_beta   90.00000000
_cell_angle_gamma   90.00000000
_symmetry_Int_Tables_number   1
_chemical_formula_structural   K2PrNb5O15
_chemical_formula_sum   'K4 Pr2 Nb10 O30'
_cell_volume   649.59299780
_cell_formula_units_Z   2
loop_
 _symmetry_equiv_pos_site_id
 _symmetry_equiv_pos_as_xyz
  1  'x, y, z'
loop_
 _atom_site_type_symbol
 _atom_site_label
 _atom_site_symmetry_multiplicity
 _atom_site_fract_x
 _atom_site_fract_y
 _atom_site_fract_z
 _atom_site_occupancy
  K  K0  1  0.67014300  0.17014300  0.50000000  1
  K  K1  1  0.32985700  0.82985700  0.50000000  1
  K  K2  1  0.17014300  0.32985700  0.50000000  1
  K  K3  1  0.82985700  0.67014300  0.50000000  1
  Pr  Pr0  1  0.00000000  0.00000000  0.50000000  1
  Pr  Pr1  1  0.50000000  0.50000000  0.50000000  1
  Nb  Nb0  1  0.50000000  0.00000000  0.00000000  1
  Nb  Nb1  1  0.00000000  0.50000000  0.00000000  1
  Nb  Nb2  1  0.21345300  0.07666700  0.00000000  1
  Nb  Nb3  1  0.78654700  0.92333300  0.00000000  1
  Nb  Nb4  1  0.07666700  0.78654700  0.00000000  1
  Nb  Nb5  1  0.71345300  0.42333300  0.00000000  1
  Nb  Nb6  1  0.92333300  0.21345300  0.00000000  1
  Nb  Nb7  1  0.28654700  0.57666700  0.00000000  1
  Nb  Nb8  1  0.57666700  0.71345300  0.00000000  1
  Nb  Nb9  1  0.42333300  0.28654700  0.00000000  1
  O  O0  1  0.19127800  0.07959500  0.50000000  1
  O  O1  1  0.80872200  0.92040500  0.50000000  1
  O  O2  1  0.07959500  0.80872200  0.50000000  1
  O  O3  1  0.69127800  0.42040500  0.50000000  1
  O  O4  1  0.92040500  0.19127800  0.50000000  1
  O  O5  1  0.30872200  0.57959500  0.50000000  1
  O  O6  1  0.57959500  0.69127800  0.50000000  1
  O  O7  1  0.42040500  0.30872200  0.50000000  1
  O  O8  1  0.21756200  0.71756200  0.00000000  1
  O  O9  1  0.78243800  0.28243800  0.00000000  1
  O  O10  1  0.71756200  0.78243800  0.00000000  1
  O  O11  1  0.28243800  0.21756200  0.00000000  1
  O  O12  1  0.50000000  0.00000000  0.50000000  1
  O  O13  1  0.00000000  0.50000000  0.50000000  1
  O  O14  1  0.05874300  0.13221100  0.00000000  1
  O  O15  1  0.94125700  0.86778900  0.00000000  1
  O  O16  1  0.13221100  0.94125700  0.00000000  1
  O  O17  1  0.55874300  0.36778900  0.00000000  1
  O  O18  1  0.86778900  0.05874300  0.00000000  1
  O  O19  1  0.44125700  0.63221100  0.00000000  1
  O  O20  1  0.63221100  0.55874300  0.00000000  1
  O  O21  1  0.36778900  0.44125700  0.00000000  1
  O  O22  1  0.34271900  0.99949700  0.00000000  1
  O  O23  1  0.65728100  0.00050300  0.00000000  1
  O  O24  1  0.99949700  0.65728100  0.00000000  1
  O  O25  1  0.84271900  0.50050300  0.00000000  1
  O  O26  1  0.00050300  0.34271900  0.00000000  1
  O  O27  1  0.15728100  0.49949700  0.00000000  1
  O  O28  1  0.49949700  0.84271900  0.00000000  1
  O  O29  1  0.50050300  0.15728100  0.00000000  1
loop_
_geom_bond_atom_site_label_1
_geom_bond_atom_site_label_2
_geom_bond_distance
_geom_bond_site_symmetry_2
K0 O9 2.839999 1_556
K0 O9 2.839999 1_555
K0 O23 2.945328 1_556
K0 O23 2.945328 1_555
K0 O29 2.945328 1_555
K0 O29 2.945328 1_556
K0 O12 3.078441 1_555
K0 O3 3.213215 1_555
K0 O4 3.213215 1_555
K1 O8 2.839999 1_556
K1 O8 2.839999 1_555
K1 O22 2.945328 1_555
K1 O22 2.945328 1_556
K1 O28 2.945328 1_555
K1 O28 2.945328 1_556
K1 O12 3.078441 1_565
K1 O5 3.213215 1_555
K1 O2 3.213215 1_555
K2 O11 2.839999 1_556
K2 O11 2.839999 1_555
K2 O26 2.945328 1_555
K2 O26 2.945328 1_556
K2 O27 2.945328 1_555
K2 O27 2.945328 1_556
K2 O13 3.078441 1_555
K2 O7 3.213215 1_555
K2 O0 3.213215 1_555
K3 O10 2.839999 1_555
K3 O10 2.839999 1_556
K3 O25 2.945328 1_555
K3 O25 2.945328 1_556
K3 O24 2.945328 1_556
K3 O24 2.945328 1_555
K3 O13 3.078441 1_655
K3 O1 3.213215 1_555
K3 O6 3.213215 1_555
Nb0 O12 1.984303 1_554
Nb0 O12 1.984303 1_555
Nb0 O22 2.012242 1_545
Nb0 O29 2.012242 1_555
Nb0 O28 2.012242 1_545
Nb0 O23 2.012242 1_555
Nb1 O13 1.984303 1_555
Nb1 O13 1.984303 1_554
Nb1 O24 2.012242 1_455
Nb1 O27 2.012242 1_555
Nb1 O25 2.012242 1_455
Nb1 O26 2.012242 1_555
Nb2 O22 1.926099 1_545
Nb2 O0 2.004831 1_554
Nb2 O0 2.004831 1_555
Nb2 O11 2.007060 1_555
Nb2 O16 2.020302 1_545
Nb2 O14 2.103037 1_555
Nb3 O23 1.926099 1_565
Nb3 O1 2.004831 1_554
Nb3 O1 2.004831 1_555
Nb3 O10 2.007060 1_555
Nb3 O18 2.020302 1_565
Nb3 O15 2.103037 1_555
Nb4 O24 1.926099 1_455
Nb4 O2 2.004831 1_554
Nb4 O2 2.004831 1_555
Nb4 O8 2.007060 1_555
Nb4 O15 2.020302 1_455
Nb4 O16 2.103037 1_555
Nb5 O25 1.926099 1_555
Nb5 O3 2.004831 1_554
Nb5 O3 2.004831 1_555
Nb5 O9 2.007060 1_555
Nb5 O20 2.020302 1_555
Nb5 O17 2.103037 1_555
Nb6 O26 1.926099 1_655
Nb6 O4 2.004831 1_554
Nb6 O4 2.004831 1_555
Nb6 O9 2.007060 1_555
Nb6 O14 2.020302 1_655
Nb6 O18 2.103037 1_555
Nb7 O27 1.926099 1_555
Nb7 O5 2.004831 1_554
Nb7 O5 2.004831 1_555
Nb7 O8 2.007060 1_555
Nb7 O21 2.020302 1_555
Nb7 O19 2.103037 1_555
Nb8 O28 1.926099 1_555
Nb8 O6 2.004831 1_555
Nb8 O6 2.004831 1_554
Nb8 O10 2.007060 1_555
Nb8 O19 2.020302 1_555
Nb8 O20 2.103037 1_555
Nb9 O29 1.926099 1_555
Nb9 O7 2.004831 1_554
Nb9 O7 2.004831 1_555
Nb9 O11 2.007060 1_555
Nb9 O17 2.020302 1_555
Nb9 O21 2.103037 1_555
O0 Pr0 2.650604 1_555
O1 Pr0 2.650604 1_665
O2 Pr0 2.650604 1_565
O3 Pr1 2.650604 1_555
O4 Pr0 2.650604 1_655
O5 Pr1 2.650604 1_555
O6 Pr1 2.650604 1_555
O7 Pr1 2.650604 1_555
O14 Pr0 2.713562 1_554
O14 Pr0 2.713562 1_555
O15 Pr0 2.713562 1_665
O15 Pr0 2.713562 1_664
O16 Pr0 2.713562 1_565
O16 Pr0 2.713562 1_564
O17 Pr1 2.713562 1_555
O17 Pr1 2.713562 1_554
O18 Pr0 2.713562 1_654
O18 Pr0 2.713562 1_655
O19 Pr1 2.713562 1_554
O19 Pr1 2.713562 1_555
O20 Pr1 2.713562 1_554
O20 Pr1 2.713562 1_555
O21 Pr1 2.713562 1_555
O21 Pr1 2.713562 1_554
