# generated using pymatgen
data_Ba6YTl3(Cu2O7)3
_symmetry_space_group_name_H-M   'P 1'
_cell_length_a   13.32101400
_cell_length_b   3.71951200
_cell_length_c   11.31860621
_cell_angle_alpha   89.88150150
_cell_angle_beta   90.00000000
_cell_angle_gamma   90.00000000
_symmetry_Int_Tables_number   1
_chemical_formula_structural   Ba6YTl3(Cu2O7)3
_chemical_formula_sum   'Ba6 Y1 Tl3 Cu6 O21'
_cell_volume   560.80938193
_cell_formula_units_Z   1
loop_
 _symmetry_equiv_pos_site_id
 _symmetry_equiv_pos_as_xyz
  1  'x, y, z'
loop_
 _atom_site_type_symbol
 _atom_site_label
 _atom_site_symmetry_multiplicity
 _atom_site_fract_x
 _atom_site_fract_y
 _atom_site_fract_z
 _atom_site_occupancy
  Ba  Ba0  1  0.20969700  0.50181300  0.16691500  1
  Ba  Ba1  1  0.20806000  0.50229000  0.49995900  1
  Ba  Ba2  1  0.20878200  0.50383100  0.83332300  1
  Ba  Ba3  1  0.79030300  0.50181300  0.16691500  1
  Ba  Ba4  1  0.79194000  0.50229000  0.49995900  1
  Ba  Ba5  1  0.79121800  0.50383100  0.83332300  1
  Y  Y0  1  0.50000000  0.50264700  0.16654800  1
  Tl  Tl0  1  0.00000000  0.99859000  0.00302500  1
  Tl  Tl1  1  0.00000000  0.01980200  0.33703000  1
  Tl  Tl2  1  0.00000000  0.01023300  0.67186600  1
  Cu  Cu0  1  0.39046200  0.00319900  0.98355500  1
  Cu  Cu1  1  0.38994200  0.00110700  0.34848500  1
  Cu  Cu2  1  0.39495300  0.00049100  0.66594900  1
  Cu  Cu3  1  0.61005800  0.00110700  0.34848500  1
  Cu  Cu4  1  0.60504700  0.00049100  0.66594900  1
  Cu  Cu5  1  0.60953800  0.00319900  0.98355500  1
  O  O0  1  0.15717500  0.00168200  0.00167700  1
  O  O1  1  0.15777300  0.00059500  0.33081500  1
  O  O2  1  0.15476000  0.00309100  0.66682800  1
  O  O3  1  0.38146900  0.50469500  0.01030300  1
  O  O4  1  0.38095200  0.50306900  0.32247200  1
  O  O5  1  0.36831700  0.50112200  0.66650000  1
  O  O6  1  0.39261000  0.00275700  0.16604300  1
  O  O7  1  0.36070400  0.00179900  0.50787600  1
  O  O8  1  0.36197400  0.00581300  0.82515800  1
  O  O9  1  0.60739000  0.00275700  0.16604300  1
  O  O10  1  0.63929600  0.00179900  0.50787600  1
  O  O11  1  0.63802600  0.00581300  0.82515800  1
  O  O12  1  0.00000000  0.48643400  0.16388400  1
  O  O13  1  0.00000000  0.48255900  0.49201400  1
  O  O14  1  0.00000000  0.51058500  0.83267700  1
  O  O15  1  0.61853100  0.50469500  0.01030300  1
  O  O16  1  0.61904800  0.50306900  0.32247200  1
  O  O17  1  0.63168300  0.50112200  0.66650000  1
  O  O18  1  0.84282500  0.00168200  0.00167700  1
  O  O19  1  0.84222700  0.00059500  0.33081500  1
  O  O20  1  0.84524000  0.00309100  0.66682800  1
loop_
_geom_bond_atom_site_label_1
_geom_bond_atom_site_label_2
_geom_bond_distance
_geom_bond_site_symmetry_2
Ba0 O1 2.715877 1_565
Ba0 O1 2.716827 1_555
Ba0 O0 2.725782 1_565
Ba0 O0 2.731719 1_555
Ba0 O12 2.794174 1_555
Ba0 O4 2.881729 1_555
Ba0 O3 2.894479 1_555
Ba0 O6 3.063131 1_555
Ba0 O6 3.067367 1_565
Ba1 O2 2.739436 1_555
Ba1 O1 2.744913 1_565
Ba1 O2 2.748769 1_565
Ba1 O7 2.755944 1_565
Ba1 O7 2.758158 1_555
Ba1 O1 2.758786 1_555
Ba1 O13 2.774005 1_555
Ba1 O5 2.847905 1_555
Ba1 O4 3.056132 1_555
Ba2 O2 2.739189 1_565
Ba2 O0 2.747230 1_566
Ba2 O2 2.748204 1_555
Ba2 O0 2.752711 1_556
Ba2 O8 2.757702 1_555
Ba2 O8 2.767371 1_565
Ba2 O14 2.781311 1_555
Ba2 O5 2.842856 1_555
Ba2 O3 3.050311 1_556
Ba3 O19 2.715877 1_565
Ba3 O19 2.716827 1_555
Ba3 O18 2.725782 1_565
Ba3 O18 2.731719 1_555
Ba3 O12 2.794174 1_655
Ba3 O16 2.881729 1_555
Ba3 O15 2.894479 1_555
Ba3 O9 3.063131 1_555
Ba3 O9 3.067367 1_565
Ba4 O20 2.739436 1_555
Ba4 O19 2.744913 1_565
Ba4 O20 2.748769 1_565
Ba4 O10 2.755944 1_565
Ba4 O10 2.758158 1_555
Ba4 O19 2.758786 1_555
Ba4 O13 2.774005 1_655
Ba4 O17 2.847905 1_555
Ba4 O16 3.056132 1_555
Ba5 O20 2.739189 1_565
Ba5 O18 2.747230 1_566
Ba5 O20 2.748204 1_555
Ba5 O18 2.752711 1_556
Ba5 O11 2.757702 1_555
Ba5 O11 2.767371 1_565
Ba5 O14 2.781311 1_655
Ba5 O17 2.842856 1_555
Ba5 O15 3.050311 1_556
Cu0 O8 1.832563 1_555
Cu0 O3 1.881944 1_546
Cu0 O3 1.894140 1_556
Cu0 O6 2.065705 1_556
Cu1 O7 1.845654 1_555
Cu1 O4 1.880130 1_545
Cu1 O4 1.893316 1_555
Cu1 O6 2.065291 1_555
Cu2 O7 1.846415 1_555
Cu2 O8 1.854946 1_555
Cu2 O5 1.890993 1_545
Cu2 O5 1.895629 1_555
Cu3 O10 1.845654 1_555
Cu3 O16 1.880130 1_545
Cu3 O16 1.893316 1_555
Cu3 O9 2.065291 1_555
Cu4 O10 1.846415 1_555
Cu4 O11 1.854946 1_555
Cu4 O17 1.890993 1_545
Cu4 O17 1.895629 1_555
Cu5 O11 1.832563 1_555
Cu5 O15 1.881944 1_546
Cu5 O15 1.894140 1_556
Cu5 O9 2.065705 1_556
O0 Tl0 2.093817 1_545
O1 Tl1 2.104091 1_555
O2 Tl2 2.062521 1_555
O3 Y0 2.370781 1_555
O4 Y0 2.372672 1_555
O6 Y0 2.345997 1_555
O6 Y0 2.346627 1_545
O9 Y0 2.345997 1_555
O9 Y0 2.346627 1_545
O12 Tl0 2.573164 1_545
O12 Tl1 2.615166 1_555
O12 Tl0 2.632397 1_555
O12 Tl1 2.791509 1_565
O13 Tl1 2.460153 1_555
O13 Tl1 2.656287 1_565
O13 Tl2 2.686187 1_555
O13 Tl2 2.830662 1_565
O14 Tl2 2.598615 1_565
O14 Tl2 2.605867 1_555
O14 Tl0 2.650809 1_556
O14 Tl0 2.707216 1_546
O15 Y0 2.370781 1_555
O16 Y0 2.372672 1_555
O18 Tl0 2.093817 1_645
O19 Tl1 2.104091 1_655
O20 Tl2 2.062521 1_655
