# generated using pymatgen
data_KSrMg6
_symmetry_space_group_name_H-M   'P 1'
_cell_length_a   5.56618400
_cell_length_b   7.04072800
_cell_length_c   12.33998100
_cell_angle_alpha   90.00000000
_cell_angle_beta   90.00000000
_cell_angle_gamma   90.00000000
_symmetry_Int_Tables_number   1
_chemical_formula_structural   KSrMg6
_chemical_formula_sum   'K2 Sr2 Mg12'
_cell_volume   483.60370166
_cell_formula_units_Z   2
loop_
 _symmetry_equiv_pos_site_id
 _symmetry_equiv_pos_as_xyz
  1  'x, y, z'
loop_
 _atom_site_type_symbol
 _atom_site_label
 _atom_site_symmetry_multiplicity
 _atom_site_fract_x
 _atom_site_fract_y
 _atom_site_fract_z
 _atom_site_occupancy
  K  K0  1  0.00000000  0.00000000  0.83955200  1
  K  K1  1  0.00000000  0.50000000  0.33955200  1
  Sr  Sr0  1  0.50000000  0.00000000  0.66115400  1
  Sr  Sr1  1  0.50000000  0.50000000  0.16115400  1
  Mg  Mg0  1  0.00000000  0.74270700  0.58087000  1
  Mg  Mg1  1  0.00000000  0.25729300  0.58087000  1
  Mg  Mg2  1  0.00000000  0.50000000  0.83313100  1
  Mg  Mg3  1  0.50000000  0.25763100  0.91951100  1
  Mg  Mg4  1  0.50000000  0.74236900  0.91951100  1
  Mg  Mg5  1  0.50000000  0.50000000  0.66539900  1
  Mg  Mg6  1  0.00000000  0.24270700  0.08087000  1
  Mg  Mg7  1  0.00000000  0.75729300  0.08087000  1
  Mg  Mg8  1  0.00000000  0.00000000  0.33313100  1
  Mg  Mg9  1  0.50000000  0.75763100  0.41951100  1
  Mg  Mg10  1  0.50000000  0.24236900  0.41951100  1
  Mg  Mg11  1  0.50000000  0.00000000  0.16539900  1
loop_
_geom_bond_atom_site_label_1
_geom_bond_atom_site_label_2
_geom_bond_distance
_geom_bond_site_symmetry_2
K0 Mg6 3.433331 1_556
K0 Mg7 3.433331 1_546
K0 Mg3 3.465463 1_455
K0 Mg3 3.465463 1_555
K0 Mg4 3.465463 1_445
K0 Mg4 3.465463 1_545
K0 Mg2 3.521256 1_555
K0 Mg2 3.521256 1_545
K0 Sr0 3.548505 1_455
K0 Sr0 3.548505 1_555
K0 Mg1 3.670333 1_555
K0 Mg0 3.670333 1_545
K1 Mg1 3.433331 1_555
K1 Mg0 3.433331 1_555
K1 Mg9 3.465463 1_555
K1 Mg9 3.465463 1_455
K1 Mg10 3.465463 1_555
K1 Mg10 3.465463 1_455
K1 Mg8 3.521256 1_565
K1 Mg8 3.521256 1_555
K1 Sr1 3.548505 1_555
K1 Sr1 3.548505 1_455
K1 Mg7 3.670333 1_555
K1 Mg6 3.670333 1_555
Mg0 Mg1 3.417668 1_555
Mg0 Mg9 3.423651 1_455
Mg0 Mg9 3.423651 1_555
Mg0 Mg5 3.428373 1_455
Mg0 Mg5 3.428373 1_555
Mg0 Sr0 3.465362 1_565
Mg0 Sr0 3.465362 1_465
Mg0 Mg2 3.551089 1_555
Mg0 Mg8 3.553515 1_565
Mg0 Mg1 3.623060 1_565
Mg1 Mg10 3.423651 1_455
Mg1 Mg10 3.423651 1_555
Mg1 Mg5 3.428373 1_455
Mg1 Mg5 3.428373 1_555
Mg1 Sr0 3.465362 1_455
Mg1 Sr0 3.465362 1_555
Mg1 Mg2 3.551089 1_555
Mg1 Mg8 3.553515 1_555
Mg2 Mg3 3.434209 1_555
Mg2 Mg4 3.434209 1_455
Mg2 Mg4 3.434209 1_555
Mg2 Mg3 3.434209 1_455
Mg2 Mg5 3.468388 1_555
Mg2 Mg5 3.468388 1_455
Mg2 Mg7 3.553515 1_556
Mg2 Mg6 3.553515 1_556
Mg3 Mg4 3.412908 1_555
Mg3 Mg6 3.423651 1_556
Mg3 Mg6 3.423651 1_656
Mg3 Sr1 3.435627 1_556
Mg3 Mg5 3.569991 1_555
Mg3 Mg4 3.627820 1_545
Mg3 Sr0 3.668021 1_555
Mg4 Mg7 3.423651 1_656
Mg4 Mg7 3.423651 1_556
Mg4 Sr1 3.435627 1_556
Mg4 Mg5 3.569991 1_555
Mg4 Sr0 3.668021 1_565
Mg5 Sr0 3.520754 1_555
Mg5 Sr0 3.520754 1_565
Mg5 Mg9 3.535104 1_555
Mg6 Mg7 3.417668 1_545
Mg6 Sr1 3.465362 1_455
Mg6 Sr1 3.465362 1_555
Mg6 Mg8 3.551089 1_555
Mg6 Mg7 3.623060 1_555
Mg7 Sr1 3.465362 1_555
Mg7 Sr1 3.465362 1_455
Mg7 Mg8 3.551089 1_565
Mg8 Mg9 3.434209 1_445
Mg8 Mg9 3.434209 1_545
Mg9 Sr0 3.435627 1_565
Mg9 Sr1 3.668021 1_555
Mg10 Mg9 3.412908 1_545
Mg10 Mg8 3.434209 1_555
Mg10 Mg8 3.434209 1_655
Mg10 Sr0 3.435627 1_555
Mg10 Mg5 3.535104 1_555
Mg10 Mg11 3.569991 1_555
Mg10 Mg9 3.627820 1_555
Mg10 Sr1 3.668021 1_555
Mg11 Mg6 3.428373 1_555
Mg11 Mg6 3.428373 1_655
Mg11 Mg7 3.428373 1_545
Mg11 Mg7 3.428373 1_645
Mg11 Mg8 3.468388 1_555
Mg11 Mg8 3.468388 1_655
Mg11 Sr1 3.520754 1_545
Mg11 Sr1 3.520754 1_555
Mg11 Mg3 3.535104 1_554
Mg11 Mg4 3.535104 1_544
Mg11 Mg9 3.569991 1_545
