# generated using pymatgen
data_BaCaZr8(PO4)12
_symmetry_space_group_name_H-M   'P 1'
_cell_length_a   8.91760700
_cell_length_b   9.36286206
_cell_length_c   12.92915060
_cell_angle_alpha   93.81950518
_cell_angle_beta   90.00062041
_cell_angle_gamma   90.00663963
_symmetry_Int_Tables_number   1
_chemical_formula_structural   BaCaZr8(PO4)12
_chemical_formula_sum   'Ba1 Ca1 Zr8 P12 O48'
_cell_volume   1077.11292892
_cell_formula_units_Z   1
loop_
 _symmetry_equiv_pos_site_id
 _symmetry_equiv_pos_as_xyz
  1  'x, y, z'
loop_
 _atom_site_type_symbol
 _atom_site_label
 _atom_site_symmetry_multiplicity
 _atom_site_fract_x
 _atom_site_fract_y
 _atom_site_fract_z
 _atom_site_occupancy
  Ba  Ba0  1  0.50000000  0.50000000  0.50000000  1
  Ca  Ca0  1  0.00000000  0.00000000  0.00000000  1
  Zr  Zr0  1  0.00025300  0.71570300  0.64103500  1
  Zr  Zr1  1  0.49967300  0.21816000  0.14214300  1
  Zr  Zr2  1  0.99974700  0.28429700  0.35896500  1
  Zr  Zr3  1  0.50032700  0.78184000  0.85785700  1
  Zr  Zr4  1  0.49889300  0.19860100  0.65356800  1
  Zr  Zr5  1  0.00123000  0.70263700  0.14589800  1
  Zr  Zr6  1  0.50110700  0.80139900  0.34643200  1
  Zr  Zr7  1  0.99877000  0.29736300  0.85410200  1
  P  P0  1  0.21077300  0.99716400  0.75918500  1
  P  P1  1  0.71475200  0.50085800  0.25292400  1
  P  P2  1  0.63926400  0.85077300  0.60624100  1
  P  P3  1  0.13678500  0.34907800  0.10732600  1
  P  P4  1  0.14728700  0.63980600  0.39189600  1
  P  P5  1  0.65131500  0.13414900  0.89620700  1
  P  P6  1  0.78922700  0.00283600  0.24081500  1
  P  P7  1  0.28524800  0.49914200  0.74707600  1
  P  P8  1  0.36073600  0.14922700  0.39375900  1
  P  P9  1  0.86321500  0.65092200  0.89267400  1
  P  P10  1  0.85271300  0.36019400  0.60810400  1
  P  P11  1  0.34868500  0.86585100  0.10379300  1
  O  O0  1  0.37309300  0.02877900  0.11194500  1
  O  O1  1  0.86871800  0.52443500  0.61287900  1
  O  O2  1  0.68801700  0.09007500  0.17238900  1
  O  O3  1  0.19005700  0.58320800  0.67223000  1
  O  O4  1  0.44001100  0.21895700  0.30385000  1
  O  O5  1  0.93984700  0.71146900  0.79863000  1
  O  O6  1  0.62690700  0.97122100  0.88805500  1
  O  O7  1  0.13128200  0.47556500  0.38712100  1
  O  O8  1  0.31198300  0.90992500  0.82761100  1
  O  O9  1  0.80994300  0.41679200  0.32777000  1
  O  O10  1  0.55998900  0.78104300  0.69615000  1
  O  O11  1  0.06015300  0.28853100  0.20137000  1
  O  O12  1  0.06237500  0.70839700  0.48601600  1
  O  O13  1  0.56525900  0.20720500  0.98800400  1
  O  O14  1  0.12537100  0.89867700  0.67942000  1
  O  O15  1  0.62839500  0.39947400  0.17607900  1
  O  O16  1  0.81031700  0.83473800  0.61407200  1
  O  O17  1  0.30822600  0.33557300  0.11367900  1
  O  O18  1  0.93762500  0.29160300  0.51398400  1
  O  O19  1  0.43474100  0.79279500  0.01199600  1
  O  O20  1  0.87462900  0.10132300  0.32058000  1
  O  O21  1  0.37160500  0.60052600  0.82392100  1
  O  O22  1  0.18968300  0.16526200  0.38592800  1
  O  O23  1  0.69177400  0.66442700  0.88632100  1
  O  O24  1  0.90311600  0.91870400  0.16769100  1
  O  O25  1  0.39999800  0.40679700  0.68107600  1
  O  O26  1  0.41543300  0.22412000  0.49813200  1
  O  O27  1  0.92132600  0.74091900  0.99080100  1
  O  O28  1  0.68304700  0.32270100  0.59743700  1
  O  O29  1  0.17666800  0.83980400  0.08805300  1
  O  O30  1  0.09688400  0.08129600  0.83230900  1
  O  O31  1  0.60000200  0.59320300  0.31892400  1
  O  O32  1  0.58456700  0.77588000  0.50186800  1
  O  O33  1  0.07867400  0.25908100  0.00919900  1
  O  O34  1  0.31695300  0.67729900  0.40256300  1
  O  O35  1  0.82333200  0.16019600  0.91194700  1
  O  O36  1  0.30525100  0.10490100  0.70085000  1
  O  O37  1  0.81188000  0.60273400  0.19145900  1
  O  O38  1  0.59918600  0.01103600  0.60584700  1
  O  O39  1  0.09638700  0.50913300  0.09903100  1
  O  O40  1  0.60019400  0.20087200  0.79584500  1
  O  O41  1  0.08834100  0.70221800  0.29165700  1
  O  O42  1  0.69474900  0.89509900  0.29915000  1
  O  O43  1  0.18812000  0.39726600  0.80854100  1
  O  O44  1  0.40081400  0.98896400  0.39415300  1
  O  O45  1  0.90361300  0.49086700  0.90096900  1
  O  O46  1  0.39980600  0.79912800  0.20415500  1
  O  O47  1  0.91165900  0.29778200  0.70834300  1
loop_
_geom_bond_atom_site_label_1
_geom_bond_atom_site_label_2
_geom_bond_distance
_geom_bond_site_symmetry_2
Ba0 O26 2.689343 1_555
Ba0 O32 2.689343 1_555
Ba0 O34 2.699345 1_555
Ba0 O28 2.699345 1_555
Ba0 O31 2.703674 1_555
Ba0 O25 2.703674 1_555
Ca0 O24 2.499247 1_445
Ca0 O30 2.499247 1_554
Ca0 O29 2.501162 1_545
Ca0 O35 2.501162 1_454
Ca0 O27 2.520267 1_444
Ca0 O33 2.520267 1_555
O0 P11 1.537548 1_545
O0 Zr1 2.116118 1_555
O1 P10 1.541495 1_555
O1 Zr0 2.151295 1_655
O2 P6 1.536514 1_555
O2 Zr1 2.115424 1_555
O3 P7 1.542129 1_555
O3 Zr0 2.152582 1_555
O4 P8 1.542179 1_555
O4 Zr1 2.156905 1_555
O5 P9 1.535761 1_555
O5 Zr0 2.110501 1_655
O6 P5 1.537548 1_565
O6 Zr3 2.116118 1_555
O7 P4 1.541495 1_555
O7 Zr2 2.151295 1_455
O8 P0 1.536514 1_555
O8 Zr3 2.115424 1_555
O9 P1 1.542129 1_555
O9 Zr2 2.152582 1_555
O10 P2 1.542179 1_555
O10 Zr3 2.156905 1_555
O11 P3 1.535761 1_555
O11 Zr2 2.110501 1_455
O12 P4 1.537089 1_555
O12 Zr0 2.076154 1_555
O13 P5 1.535387 1_555
O13 Zr1 2.072920 1_556
O14 P0 1.538507 1_555
O14 Zr0 2.076631 1_555
O15 P1 1.534733 1_555
O15 Zr1 2.071806 1_555
O16 P2 1.536770 1_555
O16 Zr0 2.069956 1_655
O17 P3 1.536725 1_555
O17 Zr1 2.076768 1_555
O18 P10 1.537089 1_555
O18 Zr2 2.076154 1_555
O19 P11 1.535387 1_555
O19 Zr3 2.072920 1_554
O20 P6 1.538507 1_555
O20 Zr2 2.076631 1_555
O21 P7 1.534733 1_555
O21 Zr3 2.071806 1_555
O22 P8 1.536770 1_555
O22 Zr2 2.069956 1_455
O23 P9 1.536725 1_555
O23 Zr3 2.076768 1_555
O24 P6 1.564226 1_565
O24 Zr5 2.204981 1_655
O25 P7 1.557171 1_555
O25 Zr4 2.147581 1_555
O26 P8 1.557075 1_555
O26 Zr4 2.171108 1_555
O27 P9 1.563849 1_555
O27 Zr5 2.180162 1_656
O28 P10 1.557205 1_555
O28 Zr4 2.164614 1_555
O29 P11 1.564378 1_555
O29 Zr5 2.187200 1_555
O30 P0 1.564226 1_545
O30 Zr7 2.204981 1_455
O31 P1 1.557171 1_555
O31 Zr6 2.147581 1_555
O32 P2 1.557075 1_555
O32 Zr6 2.171108 1_555
O33 P3 1.563849 1_555
O33 Zr7 2.180162 1_454
O34 P4 1.557205 1_555
O34 Zr6 2.164614 1_555
O35 P5 1.564378 1_555
O35 Zr7 2.187200 1_555
O36 P0 1.548352 1_545
O36 Zr4 2.048513 1_555
O37 P1 1.546735 1_555
O37 Zr5 2.036220 1_655
O38 P2 1.542875 1_545
O38 Zr4 2.029938 1_555
O39 P3 1.551948 1_555
O39 Zr5 2.055189 1_555
O40 P5 1.545931 1_555
O40 Zr4 2.048195 1_555
O41 P4 1.548667 1_555
O41 Zr5 2.038606 1_555
O42 P6 1.548352 1_565
O42 Zr6 2.048513 1_555
O43 P7 1.546735 1_555
O43 Zr7 2.036220 1_455
O44 P8 1.542875 1_565
O44 Zr6 2.029938 1_555
O45 P9 1.551948 1_555
O45 Zr7 2.055189 1_555
O46 P11 1.545931 1_555
O46 Zr6 2.048195 1_555
O47 P10 1.548667 1_555
O47 Zr7 2.038606 1_555
