# generated using pymatgen
data_RbFe2Te3
_symmetry_space_group_name_H-M   'P 1'
_cell_length_a   5.61440900
_cell_length_b   8.43563890
_cell_length_c   8.43563890
_cell_angle_alpha   105.10062247
_cell_angle_beta   90.00000000
_cell_angle_gamma   90.00000000
_symmetry_Int_Tables_number   1
_chemical_formula_structural   RbFe2Te3
_chemical_formula_sum   'Rb2 Fe4 Te6'
_cell_volume   385.72581247
_cell_formula_units_Z   2
loop_
 _symmetry_equiv_pos_site_id
 _symmetry_equiv_pos_as_xyz
  1  'x, y, z'
loop_
 _atom_site_type_symbol
 _atom_site_label
 _atom_site_symmetry_multiplicity
 _atom_site_fract_x
 _atom_site_fract_y
 _atom_site_fract_z
 _atom_site_occupancy
  Rb  Rb0  1  0.25000000  0.65219600  0.34780400  1
  Rb  Rb1  1  0.75000000  0.34780400  0.65219600  1
  Fe  Fe0  1  0.50000000  0.12392000  0.12392000  1
  Fe  Fe1  1  0.00000000  0.87608000  0.87608000  1
  Fe  Fe2  1  0.00000000  0.12392000  0.12392000  1
  Fe  Fe3  1  0.50000000  0.87608000  0.87608000  1
  Te  Te0  1  0.75000000  0.86627200  0.13372800  1
  Te  Te1  1  0.25000000  0.13372800  0.86627200  1
  Te  Te2  1  0.75000000  0.38056900  0.13685200  1
  Te  Te3  1  0.25000000  0.61943100  0.86314800  1
  Te  Te4  1  0.25000000  0.13685200  0.38056900  1
  Te  Te5  1  0.75000000  0.86314800  0.61943100  1
loop_
_geom_bond_atom_site_label_1
_geom_bond_atom_site_label_2
_geom_bond_distance
_geom_bond_site_symmetry_2
Rb0 Te2 3.764685 1_455
Rb0 Te5 3.764685 1_455
Rb0 Te2 3.764685 1_555
Rb0 Te5 3.764685 1_555
Rb0 Te0 4.012714 1_555
Rb0 Te0 4.012714 1_455
Rb0 Te3 4.025233 1_554
Rb0 Te4 4.025233 1_565
Rb1 Te3 3.764685 1_555
Rb1 Te3 3.764685 1_655
Rb1 Te4 3.764685 1_655
Rb1 Te4 3.764685 1_555
Rb1 Te1 4.012714 1_655
Rb1 Te1 4.012714 1_555
Rb1 Te5 4.025233 1_545
Rb1 Te2 4.025233 1_556
Fe0 Fe3 2.542547 1_544
Fe0 Te4 2.558547 1_555
Fe0 Te2 2.558547 1_555
Fe0 Te1 2.606610 1_554
Fe0 Te0 2.606610 1_545
Fe0 Fe2 2.807205 1_655
Fe0 Fe2 2.807205 1_555
Fe1 Fe2 2.542547 1_566
Fe1 Te3 2.558547 1_555
Fe1 Te5 2.558547 1_455
Fe1 Te1 2.606610 1_565
Fe1 Te0 2.606610 1_456
Fe1 Fe3 2.807205 1_455
Fe1 Fe3 2.807205 1_555
Fe2 Te4 2.558547 1_555
Fe2 Te2 2.558547 1_455
Fe2 Te1 2.606610 1_554
Fe2 Te0 2.606610 1_445
Fe3 Te3 2.558547 1_555
Fe3 Te5 2.558547 1_555
Fe3 Te1 2.606610 1_565
Fe3 Te0 2.606610 1_556
