# generated using pymatgen
data_Cd(C2N3)2
_symmetry_space_group_name_H-M   'P 1'
_cell_length_a   6.61966000
_cell_length_b   7.70977600
_cell_length_c   7.77460300
_cell_angle_alpha   90.00000000
_cell_angle_beta   90.00000000
_cell_angle_gamma   90.00000000
_symmetry_Int_Tables_number   1
_chemical_formula_structural   Cd(C2N3)2
_chemical_formula_sum   'Cd2 C8 N12'
_cell_volume   396.78538349
_cell_formula_units_Z   2
loop_
 _symmetry_equiv_pos_site_id
 _symmetry_equiv_pos_as_xyz
  1  'x, y, z'
loop_
 _atom_site_type_symbol
 _atom_site_label
 _atom_site_symmetry_multiplicity
 _atom_site_fract_x
 _atom_site_fract_y
 _atom_site_fract_z
 _atom_site_occupancy
  Cd  Cd0  1  0.50000000  0.50000000  0.50000000  1
  Cd  Cd1  1  0.00000000  0.00000000  0.00000000  1
  C  C0  1  0.75130200  0.15161500  0.64678200  1
  C  C1  1  0.25130200  0.34838500  0.85321800  1
  C  C2  1  0.75130200  0.15161500  0.35321800  1
  C  C3  1  0.25130200  0.34838500  0.14678200  1
  C  C4  1  0.74869800  0.65161500  0.14678200  1
  C  C5  1  0.24869800  0.84838500  0.35321800  1
  C  C6  1  0.24869800  0.84838500  0.64678200  1
  C  C7  1  0.74869800  0.65161500  0.85321800  1
  N  N0  1  0.80852700  0.71578500  0.00000000  1
  N  N1  1  0.30852700  0.78421500  0.50000000  1
  N  N2  1  0.79464000  0.10302000  0.21485300  1
  N  N3  1  0.29464000  0.39698000  0.28514700  1
  N  N4  1  0.70536000  0.60302000  0.28514700  1
  N  N5  1  0.20536000  0.89698000  0.21485300  1
  N  N6  1  0.20536000  0.89698000  0.78514700  1
  N  N7  1  0.70536000  0.60302000  0.71485300  1
  N  N8  1  0.29464000  0.39698000  0.71485300  1
  N  N9  1  0.79464000  0.10302000  0.78514700  1
  N  N10  1  0.69147300  0.21578500  0.50000000  1
  N  N11  1  0.19147300  0.28421500  0.00000000  1
loop_
_geom_bond_atom_site_label_1
_geom_bond_atom_site_label_2
_geom_bond_distance
_geom_bond_site_symmetry_2
Cd0 N7 2.295448 1_555
Cd0 N8 2.295448 1_555
Cd0 N4 2.295448 1_555
Cd0 N3 2.295448 1_555
Cd0 N10 2.531408 1_555
Cd0 N1 2.531408 1_555
Cd1 N9 2.295448 1_454
Cd1 N6 2.295448 1_544
Cd1 N5 2.295448 1_545
Cd1 N2 2.295448 1_455
Cd1 N11 2.531408 1_555
Cd1 N0 2.531408 1_445
C0 N9 1.174679 1_555
C0 N10 1.305332 1_555
C1 N8 1.174679 1_555
C1 N11 1.305332 1_556
C2 N2 1.174679 1_555
C2 N10 1.305332 1_555
C3 N3 1.174679 1_555
C3 N11 1.305332 1_555
C4 N4 1.174679 1_555
C4 N0 1.305332 1_555
C5 N5 1.174679 1_555
C5 N1 1.305332 1_555
C6 N6 1.174679 1_555
C6 N1 1.305332 1_555
C7 N7 1.174679 1_555
C7 N0 1.305332 1_556
