# generated using pymatgen
data_Gd3OsO7
_symmetry_space_group_name_H-M   'P 1'
_cell_length_a   6.47182737
_cell_length_b   6.47182762
_cell_length_c   7.43967402
_cell_angle_alpha   90.00000000
_cell_angle_beta   90.00000000
_cell_angle_gamma   110.74048075
_symmetry_Int_Tables_number   1
_chemical_formula_structural   Gd3OsO7
_chemical_formula_sum   'Gd6 Os2 O14'
_cell_volume   291.41339572
_cell_formula_units_Z   2
loop_
 _symmetry_equiv_pos_site_id
 _symmetry_equiv_pos_as_xyz
  1  'x, y, z'
loop_
 _atom_site_type_symbol
 _atom_site_label
 _atom_site_symmetry_multiplicity
 _atom_site_fract_x
 _atom_site_fract_y
 _atom_site_fract_z
 _atom_site_occupancy
  Gd  Gd0  1  0.07121642  0.52194495  0.25000000  1
  Gd  Gd1  1  0.92878358  0.47805505  0.75000000  1
  Gd  Gd2  1  0.52194495  0.07121642  0.25000000  1
  Gd  Gd3  1  0.00000000  -0.00000000  0.00000000  1
  Gd  Gd4  1  0.47805505  0.92878358  0.75000000  1
  Gd  Gd5  1  0.00000000  -0.00000000  0.50000000  1
  Os  Os0  1  0.50000000  0.50000000  0.50000000  1
  Os  Os1  1  0.50000000  0.50000000  0.00000000  1
  O  O0  1  0.56219136  0.81687638  0.03899761  1
  O  O1  1  0.43780864  0.18312362  0.96100239  1
  O  O2  1  0.58970272  0.58970272  0.75000000  1
  O  O3  1  0.56219136  0.81687638  0.46100239  1
  O  O4  1  0.18312362  0.43780864  0.96100239  1
  O  O5  1  0.41029728  0.41029728  0.25000000  1
  O  O6  1  0.84384621  0.10859864  0.75000000  1
  O  O7  1  0.81687638  0.56219136  0.03899761  1
  O  O8  1  0.89140136  0.15615379  0.25000000  1
  O  O9  1  0.10859864  0.84384621  0.75000000  1
  O  O10  1  0.43780864  0.18312362  0.53899761  1
  O  O11  1  0.18312362  0.43780864  0.53899761  1
  O  O12  1  0.81687638  0.56219136  0.46100239  1
  O  O13  1  0.15615379  0.89140136  0.25000000  1
loop_
_geom_bond_atom_site_label_1
_geom_bond_atom_site_label_2
_geom_bond_distance
_geom_bond_site_symmetry_2
Gd0 O8 2.237702 1_455
Gd0 O13 2.255749 1_555
Gd0 O7 2.354827 1_455
Gd0 O12 2.354827 1_455
Gd0 O11 2.392289 1_555
Gd0 O4 2.392289 1_554
Gd0 O5 2.541826 1_555
Gd1 O9 2.237702 1_655
Gd1 O6 2.255749 1_555
Gd1 O4 2.354827 1_655
Gd1 O11 2.354827 1_655
Gd1 O7 2.392289 1_556
Gd1 O12 2.392289 1_555
Gd1 O2 2.541826 1_555
Gd2 O13 2.237702 1_545
Gd2 O8 2.255749 1_555
Gd2 O3 2.354827 1_545
Gd2 O0 2.354827 1_545
Gd2 O1 2.392289 1_554
Gd2 O10 2.392289 1_555
Gd2 O5 2.541826 1_555
Gd3 O6 2.340439 1_454
Gd3 O13 2.340439 1_545
Gd3 O9 2.340439 1_544
Gd3 O8 2.340439 1_455
Gd3 O0 2.671823 1_445
Gd3 O1 2.671823 1_554
Gd3 O7 2.671823 1_445
Gd3 O4 2.671823 1_554
Gd4 O6 2.237702 1_565
Gd4 O9 2.255749 1_555
Gd4 O1 2.354827 1_565
Gd4 O10 2.354827 1_565
Gd4 O3 2.392289 1_555
Gd4 O0 2.392289 1_556
Gd4 O2 2.541826 1_555
Gd5 O13 2.340439 1_545
Gd5 O6 2.340439 1_455
Gd5 O9 2.340439 1_545
Gd5 O8 2.340439 1_455
Gd5 O3 2.671823 1_445
Gd5 O10 2.671823 1_555
Gd5 O12 2.671823 1_445
Gd5 O11 2.671823 1_555
O0 Os1 1.966522 1_555
O1 Os1 1.966522 1_556
O2 Os1 1.973485 1_556
O2 Os0 1.973485 1_555
O3 Os0 1.966522 1_555
O4 Os1 1.966522 1_556
O5 Os1 1.973485 1_555
O5 Os0 1.973485 1_555
O7 Os1 1.966522 1_555
O10 Os0 1.966522 1_555
O11 Os0 1.966522 1_555
O12 Os0 1.966522 1_555
