# generated using pymatgen
data_Ti2ZnO4
_symmetry_space_group_name_H-M   'P 1'
_cell_length_a   2.92296100
_cell_length_b   9.60948500
_cell_length_c   10.13878800
_cell_angle_alpha   90.00000000
_cell_angle_beta   90.00000000
_cell_angle_gamma   90.00000000
_symmetry_Int_Tables_number   1
_chemical_formula_structural   Ti2ZnO4
_chemical_formula_sum   'Ti8 Zn4 O16'
_cell_volume   284.77979700
_cell_formula_units_Z   4
loop_
 _symmetry_equiv_pos_site_id
 _symmetry_equiv_pos_as_xyz
  1  'x, y, z'
loop_
 _atom_site_type_symbol
 _atom_site_label
 _atom_site_symmetry_multiplicity
 _atom_site_fract_x
 _atom_site_fract_y
 _atom_site_fract_z
 _atom_site_occupancy
  Ti  Ti0  1  0.24035500  0.12376500  0.43016500  1
  Ti  Ti1  1  0.24035500  0.37623500  0.93016500  1
  Ti  Ti2  1  0.75964500  0.87623500  0.93016500  1
  Ti  Ti3  1  0.24035500  0.37623500  0.56983500  1
  Ti  Ti4  1  0.75964500  0.87623500  0.56983500  1
  Ti  Ti5  1  0.24035500  0.12376500  0.06983500  1
  Ti  Ti6  1  0.75964500  0.62376500  0.06983500  1
  Ti  Ti7  1  0.75964500  0.62376500  0.43016500  1
  Zn  Zn0  1  0.72096700  0.36990200  0.25000000  1
  Zn  Zn1  1  0.72096700  0.13009800  0.75000000  1
  Zn  Zn2  1  0.27903300  0.86990200  0.25000000  1
  Zn  Zn3  1  0.27903300  0.63009800  0.75000000  1
  O  O0  1  0.74366300  0.97633400  0.11385300  1
  O  O1  1  0.25633700  0.02366600  0.88614700  1
  O  O2  1  0.74105200  0.25000000  0.00000000  1
  O  O3  1  0.25633700  0.47633400  0.11385300  1
  O  O4  1  0.25633700  0.47633400  0.38614700  1
  O  O5  1  0.22292100  0.28471000  0.75000000  1
  O  O6  1  0.74366300  0.52366600  0.88614700  1
  O  O7  1  0.77707900  0.78471000  0.75000000  1
  O  O8  1  0.74105200  0.25000000  0.50000000  1
  O  O9  1  0.25894800  0.75000000  0.00000000  1
  O  O10  1  0.74366300  0.97633400  0.38614700  1
  O  O11  1  0.77707900  0.71529000  0.25000000  1
  O  O12  1  0.22292100  0.21529000  0.25000000  1
  O  O13  1  0.25894800  0.75000000  0.50000000  1
  O  O14  1  0.74366300  0.52366600  0.61385300  1
  O  O15  1  0.25633700  0.02366600  0.61385300  1
loop_
_geom_bond_atom_site_label_1
_geom_bond_atom_site_label_2
_geom_bond_distance
_geom_bond_site_symmetry_2
O0 Ti5 2.077034 1_665
O0 Ti5 2.090597 1_565
O0 Ti2 2.096633 1_554
O0 Zn2 2.189946 1_555
O0 Zn2 2.323843 1_655
O1 Ti2 2.077034 1_445
O1 Ti2 2.090597 1_545
O1 Ti5 2.096633 1_556
O1 Zn1 2.189946 1_555
O1 Zn1 2.323843 1_455
O2 Ti5 2.025536 1_655
O2 Ti1 2.025536 1_654
O2 Ti1 2.028474 1_554
O2 Ti5 2.028474 1_555
O3 Ti6 2.077034 1_455
O3 Ti6 2.090597 1_555
O3 Ti1 2.096633 1_554
O3 Zn0 2.189946 1_555
O3 Zn0 2.323843 1_455
O4 Ti7 2.077034 1_455
O4 Ti7 2.090597 1_555
O4 Ti3 2.096633 1_555
O4 Zn0 2.189946 1_555
O4 Zn0 2.323843 1_455
O5 Ti1 2.028004 1_555
O5 Ti3 2.028004 1_555
O5 Zn1 2.080070 1_555
O5 Zn1 2.088081 1_455
O6 Ti1 2.077034 1_655
O6 Ti1 2.090597 1_555
O6 Ti6 2.096633 1_556
O6 Zn3 2.189946 1_555
O6 Zn3 2.323843 1_655
O7 Ti2 2.028004 1_555
O7 Ti4 2.028004 1_555
O7 Zn3 2.080070 1_555
O7 Zn3 2.088081 1_655
O8 Ti3 2.025536 1_655
O8 Ti0 2.025536 1_655
O8 Ti0 2.028474 1_555
O8 Ti3 2.028474 1_555
O9 Ti2 2.025536 1_454
O9 Ti6 2.025536 1_455
O9 Ti6 2.028474 1_555
O9 Ti2 2.028474 1_554
O10 Ti0 2.077034 1_665
O10 Ti0 2.090597 1_565
O10 Ti4 2.096633 1_555
O10 Zn2 2.189946 1_555
O10 Zn2 2.323843 1_655
O11 Ti7 2.028004 1_555
O11 Ti6 2.028004 1_555
O11 Zn2 2.080070 1_555
O11 Zn2 2.088081 1_655
O12 Ti5 2.028004 1_555
O12 Ti0 2.028004 1_555
O12 Zn0 2.080070 1_555
O12 Zn0 2.088081 1_455
O13 Ti7 2.025536 1_455
O13 Ti4 2.025536 1_455
O13 Ti7 2.028474 1_555
O13 Ti4 2.028474 1_555
O14 Ti3 2.077034 1_655
O14 Ti3 2.090597 1_555
O14 Ti7 2.096633 1_555
O14 Zn3 2.189946 1_555
O14 Zn3 2.323843 1_655
O15 Ti4 2.077034 1_445
O15 Ti4 2.090597 1_545
O15 Ti0 2.096633 1_555
O15 Zn1 2.189946 1_555
O15 Zn1 2.323843 1_455
