# generated using pymatgen
data_B4H5
_symmetry_space_group_name_H-M   'P 1'
_cell_length_a   13.46845600
_cell_length_b   5.87189500
_cell_length_c   16.54638199
_cell_angle_alpha   87.49061063
_cell_angle_beta   90.00000000
_cell_angle_gamma   90.00000000
_symmetry_Int_Tables_number   1
_chemical_formula_structural   B4H5
_chemical_formula_sum   'B64 H80'
_cell_volume   1307.32172057
_cell_formula_units_Z   16
loop_
 _symmetry_equiv_pos_site_id
 _symmetry_equiv_pos_as_xyz
  1  'x, y, z'
loop_
 _atom_site_type_symbol
 _atom_site_label
 _atom_site_symmetry_multiplicity
 _atom_site_fract_x
 _atom_site_fract_y
 _atom_site_fract_z
 _atom_site_occupancy
  B  B0  1  0.19048200  0.19699600  0.49109700  1
  B  B1  1  0.69048200  0.80300400  0.00890300  1
  B  B2  1  0.80951800  0.80300400  0.50890300  1
  B  B3  1  0.30951800  0.19699600  0.99109700  1
  B  B4  1  0.39158500  0.21010200  0.54809400  1
  B  B5  1  0.89158500  0.78989800  0.95190600  1
  B  B6  1  0.60841500  0.78989800  0.45190600  1
  B  B7  1  0.10841500  0.21010200  0.04809400  1
  B  B8  1  0.31185800  0.07645900  0.48250400  1
  B  B9  1  0.81185800  0.92354100  0.01749600  1
  B  B10  1  0.68814200  0.92354100  0.51749600  1
  B  B11  1  0.18814200  0.07645900  0.98250400  1
  B  B12  1  0.30321200  0.36811000  0.49422500  1
  B  B13  1  0.80321200  0.63189000  0.00577500  1
  B  B14  1  0.69678800  0.63189000  0.50577500  1
  B  B15  1  0.19678800  0.36811000  0.99422500  1
  B  B16  1  0.32178000  0.41628000  0.60120800  1
  B  B17  1  0.82178000  0.58372000  0.89879200  1
  B  B18  1  0.67822000  0.58372000  0.39879200  1
  B  B19  1  0.17822000  0.41628000  0.10120800  1
  B  B20  1  0.99403600  0.24660900  0.61634000  1
  B  B21  1  0.49403600  0.75339100  0.88366000  1
  B  B22  1  0.00596400  0.75339100  0.38366000  1
  B  B23  1  0.50596400  0.24660900  0.11634000  1
  B  B24  1  0.19891100  0.43026700  0.55726900  1
  B  B25  1  0.69891100  0.56973300  0.94273100  1
  B  B26  1  0.80108900  0.56973300  0.44273100  1
  B  B27  1  0.30108900  0.43026700  0.05726900  1
  B  B28  1  0.97126600  0.09163200  0.71027400  1
  B  B29  1  0.47126600  0.90836800  0.78972600  1
  B  B30  1  0.02873400  0.90836800  0.28972600  1
  B  B31  1  0.52873400  0.09163200  0.21027400  1
  B  B32  1  0.13035400  0.19762000  0.59030100  1
  B  B33  1  0.63035400  0.80238000  0.90969900  1
  B  B34  1  0.86964600  0.80238000  0.40969900  1
  B  B35  1  0.36964600  0.19762000  0.09030100  1
  B  B36  1  0.21331500  0.31542500  0.65429100  1
  B  B37  1  0.71331500  0.68457500  0.84570900  1
  B  B38  1  0.78668500  0.68457500  0.34570900  1
  B  B39  1  0.28668500  0.31542500  0.15429100  1
  B  B40  1  0.17999000  0.22361000  0.75297100  1
  B  B41  1  0.67999000  0.77639000  0.74702900  1
  B  B42  1  0.82001000  0.77639000  0.24702900  1
  B  B43  1  0.32001000  0.22361000  0.25297100  1
  B  B44  1  0.05948100  0.99021400  0.63967300  1
  B  B45  1  0.55948100  0.00978600  0.86032700  1
  B  B46  1  0.94051900  0.00978600  0.36032700  1
  B  B47  1  0.44051900  0.99021400  0.13967300  1
  B  B48  1  0.18458600  0.03100600  0.67198500  1
  B  B49  1  0.68458600  0.96899400  0.82801500  1
  B  B50  1  0.81541400  0.96899400  0.32801500  1
  B  B51  1  0.31541400  0.03100600  0.17198500  1
  B  B52  1  0.09132000  0.00218000  0.74503100  1
  B  B53  1  0.59132000  0.99782000  0.75496900  1
  B  B54  1  0.90868000  0.99782000  0.25496900  1
  B  B55  1  0.40868000  0.00218000  0.24503100  1
  B  B56  1  0.03814600  0.24848400  0.78245300  1
  B  B57  1  0.53814600  0.75151600  0.71754700  1
  B  B58  1  0.96185400  0.75151600  0.21754700  1
  B  B59  1  0.46185400  0.24848400  0.28245300  1
  B  B60  1  0.96293900  0.38295800  0.70669800  1
  B  B61  1  0.46293900  0.61704200  0.79330200  1
  B  B62  1  0.03706100  0.61704200  0.29330200  1
  B  B63  1  0.53706100  0.38295800  0.20669800  1
  H  H0  1  0.22351500  0.99071800  0.51048000  1
  H  H1  1  0.72351500  0.00928200  0.98952000  1
  H  H2  1  0.77648500  0.00928200  0.48952000  1
  H  H3  1  0.27648500  0.99071800  0.01048000  1
  H  H4  1  0.36605500  0.22786200  0.62771300  1
  H  H5  1  0.86605500  0.77213800  0.87228700  1
  H  H6  1  0.63394500  0.77213800  0.37228700  1
  H  H7  1  0.13394500  0.22786200  0.12771300  1
  H  H8  1  0.36052000  0.99288800  0.54908900  1
  H  H9  1  0.86052000  0.00711200  0.95091100  1
  H  H10  1  0.63948000  0.00711200  0.45091100  1
  H  H11  1  0.13948000  0.99288800  0.04908900  1
  H  H12  1  0.32651500  0.50377300  0.44206900  1
  H  H13  1  0.82651500  0.49622700  0.05793100  1
  H  H14  1  0.67348500  0.49622700  0.55793100  1
  H  H15  1  0.17348500  0.50377300  0.94206900  1
  H  H16  1  0.36675200  0.57831400  0.62166000  1
  H  H17  1  0.86675200  0.42168600  0.87834000  1
  H  H18  1  0.63324800  0.42168600  0.37834000  1
  H  H19  1  0.13324800  0.57831400  0.12166000  1
  H  H20  1  0.47966300  0.21008400  0.54176800  1
  H  H21  1  0.97966300  0.78991600  0.95823200  1
  H  H22  1  0.52033700  0.78991600  0.45823200  1
  H  H23  1  0.02033700  0.21008400  0.04176800  1
  H  H24  1  0.34007400  0.97046400  0.42748600  1
  H  H25  1  0.84007400  0.02953600  0.07251400  1
  H  H26  1  0.65992600  0.02953600  0.57251400  1
  H  H27  1  0.15992600  0.97046400  0.92748600  1
  H  H28  1  0.14285600  0.19343400  0.43067800  1
  H  H29  1  0.64285600  0.80656600  0.06932200  1
  H  H30  1  0.85714400  0.80656600  0.56932200  1
  H  H31  1  0.35714400  0.19343400  0.93067800  1
  H  H32  1  0.17974300  0.43219900  0.71528100  1
  H  H33  1  0.67974300  0.56780100  0.78471900  1
  H  H34  1  0.82025700  0.56780100  0.28471900  1
  H  H35  1  0.32025700  0.43219900  0.21528100  1
  H  H36  1  0.03517300  0.46243300  0.75451600  1
  H  H37  1  0.53517300  0.53756700  0.74548400  1
  H  H38  1  0.96482700  0.53756700  0.24548400  1
  H  H39  1  0.46482700  0.46243300  0.25451600  1
  H  H40  1  0.01109900  0.45667500  0.63912600  1
  H  H41  1  0.51109900  0.54332500  0.86087400  1
  H  H42  1  0.98890100  0.54332500  0.36087400  1
  H  H43  1  0.48890100  0.45667500  0.13912600  1
  H  H44  1  0.93693400  0.26752700  0.56147500  1
  H  H45  1  0.43693400  0.73247300  0.93852500  1
  H  H46  1  0.06306600  0.73247300  0.43852500  1
  H  H47  1  0.56306600  0.26752700  0.06147500  1
  H  H48  1  0.16190100  0.61098100  0.54188300  1
  H  H49  1  0.66190100  0.38901900  0.95811700  1
  H  H50  1  0.83809900  0.38901900  0.45811700  1
  H  H51  1  0.33809900  0.61098100  0.04188300  1
  H  H52  1  0.24555700  0.88524600  0.66480600  1
  H  H53  1  0.74555700  0.11475400  0.83519400  1
  H  H54  1  0.75444300  0.11475400  0.33519400  1
  H  H55  1  0.25444300  0.88524600  0.16480500  1
  H  H56  1  0.09696200  0.84673300  0.79429700  1
  H  H57  1  0.59696200  0.15326700  0.70570300  1
  H  H58  1  0.90303800  0.15326700  0.20570300  1
  H  H59  1  0.40303800  0.84673300  0.29429700  1
  H  H60  1  0.03601100  0.82599300  0.60398100  1
  H  H61  1  0.53601100  0.17400700  0.89601900  1
  H  H62  1  0.96398900  0.17400700  0.39601900  1
  H  H63  1  0.46398900  0.82599300  0.10398100  1
  H  H64  1  0.01911800  0.25858100  0.85266600  1
  H  H65  1  0.51911800  0.74141900  0.64733400  1
  H  H66  1  0.98088200  0.74141900  0.14733400  1
  H  H67  1  0.48088200  0.25858100  0.35266600  1
  H  H68  1  0.89317000  0.50455800  0.71581400  1
  H  H69  1  0.39317000  0.49544200  0.78418600  1
  H  H70  1  0.10683000  0.49544200  0.28418600  1
  H  H71  1  0.60683000  0.50455800  0.21581400  1
  H  H72  1  0.90003000  0.97687000  0.72596800  1
  H  H73  1  0.40003000  0.02313000  0.77403200  1
  H  H74  1  0.09997000  0.02313000  0.27403200  1
  H  H75  1  0.59997000  0.97687000  0.22596800  1
  H  H76  1  0.23655400  0.23797100  0.80783300  1
  H  H77  1  0.73655400  0.76202900  0.69216700  1
  H  H78  1  0.76344600  0.76202900  0.19216700  1
  H  H79  1  0.26344600  0.23797100  0.30783300  1
loop_
_geom_bond_atom_site_label_1
_geom_bond_atom_site_label_2
_geom_bond_distance
_geom_bond_site_symmetry_2
B0 H28 1.188763 1_555
B0 H0 1.316773 1_545
B0 B32 1.830514 1_555
B1 H29 1.188763 1_555
B1 H1 1.316773 1_564
B1 B33 1.830514 1_554
B2 H30 1.188763 1_555
B2 H2 1.316773 1_565
B2 B34 1.830514 1_555
B3 H31 1.188763 1_555
B3 H3 1.316773 1_546
B3 B35 1.830514 1_556
B4 H20 1.190884 1_555
B4 H8 1.341746 1_545
B4 H4 1.369926 1_555
B5 H21 1.190884 1_555
B5 H9 1.341746 1_565
B5 H5 1.369926 1_555
B6 H22 1.190884 1_555
B6 H10 1.341746 1_565
B6 H6 1.369926 1_555
B7 H23 1.190884 1_555
B7 H11 1.341746 1_545
B7 H7 1.369926 1_555
B8 H24 1.187493 1_545
B8 H8 1.355304 1_545
B8 H0 1.364944 1_545
B9 H25 1.187493 1_565
B9 H9 1.355304 1_564
B9 H1 1.364944 1_564
B10 H26 1.187493 1_565
B10 H10 1.355304 1_565
B10 H2 1.364944 1_565
B11 H27 1.187493 1_545
B11 H11 1.355304 1_546
B11 H3 1.364944 1_546
B12 H12 1.190644 1_555
B13 H13 1.190644 1_555
B14 H14 1.190644 1_555
B15 H15 1.190644 1_555
B16 H16 1.189471 1_555
B16 H4 1.315103 1_555
B17 H17 1.189471 1_555
B17 H5 1.315103 1_555
B18 H18 1.189471 1_555
B18 H6 1.315103 1_555
B19 H19 1.189471 1_555
B19 H7 1.315103 1_555
B20 H44 1.192029 1_555
B20 H40 1.325584 1_655
B20 B32 1.910524 1_655
B21 H45 1.192029 1_555
B21 H41 1.325584 1_555
B21 B33 1.910524 1_555
B22 H46 1.192029 1_555
B22 H42 1.325584 1_455
B22 B34 1.910524 1_455
B23 H47 1.192029 1_555
B23 H43 1.325584 1_555
B23 B35 1.910524 1_555
B24 H48 1.189803 1_555
B24 B32 1.718169 1_555
B25 H49 1.189803 1_555
B25 B33 1.718169 1_555
B26 H50 1.189803 1_555
B26 B34 1.718169 1_555
B27 H51 1.189803 1_555
B27 B35 1.718169 1_555
B28 H72 1.194460 1_545
B29 H73 1.194460 1_565
B30 H74 1.194460 1_565
B31 H75 1.194460 1_545
B32 B36 1.706513 1_555
B32 B44 1.724707 1_545
B32 B48 1.789310 1_555
B33 B37 1.706513 1_555
B33 B45 1.724707 1_565
B33 B49 1.789310 1_555
B34 B38 1.706513 1_555
B34 B46 1.724707 1_565
B34 B50 1.789310 1_555
B35 B39 1.706513 1_555
B35 B47 1.724707 1_545
B35 B51 1.789310 1_555
B36 H32 1.324243 1_555
B37 H33 1.324243 1_555
B38 H34 1.324243 1_555
B39 H35 1.324243 1_555
B40 H76 1.190899 1_555
B40 H32 1.349892 1_555
B41 H77 1.190899 1_555
B41 H33 1.349892 1_555
B42 H78 1.190899 1_555
B42 H34 1.349892 1_555
B43 H79 1.190899 1_555
B43 H35 1.349892 1_555
B44 H60 1.195165 1_555
B45 H61 1.195165 1_555
B46 H62 1.195165 1_555
B47 H63 1.195165 1_555
B48 H52 1.195785 1_545
B49 H53 1.195785 1_565
B50 H54 1.195785 1_565
B51 H55 1.195787 1_545
B52 H56 1.199281 1_545
B53 H57 1.199281 1_565
B54 H58 1.199281 1_565
B55 H59 1.199281 1_545
B56 H64 1.193707 1_555
B56 H36 1.320109 1_555
B57 H65 1.193707 1_555
B57 H37 1.320109 1_555
B58 H66 1.193707 1_555
B58 H38 1.320109 1_555
B59 H67 1.193707 1_555
B59 H39 1.320109 1_555
B60 H68 1.193738 1_555
B60 H40 1.347519 1_655
B60 H36 1.350048 1_655
B61 H69 1.193738 1_555
B61 H41 1.347519 1_555
B61 H37 1.350048 1_555
B62 H70 1.193738 1_555
B62 H42 1.347519 1_455
B62 H38 1.350048 1_455
B63 H71 1.193738 1_555
B63 H43 1.347519 1_555
B63 H39 1.350048 1_555
