# generated using pymatgen
data_LiAlC16Cl12(OF6)4
_symmetry_space_group_name_H-M   'P 1'
_cell_length_a   10.88957759
_cell_length_b   11.99191498
_cell_length_c   13.83283826
_cell_angle_alpha   90.00000000
_cell_angle_beta   90.00000000
_cell_angle_gamma   92.65248959
_symmetry_Int_Tables_number   1
_chemical_formula_structural   LiAlC16Cl12(OF6)4
_chemical_formula_sum   'Li2 Al2 C32 Cl24 O8 F48'
_cell_volume   1804.45193387
_cell_formula_units_Z   2
loop_
 _symmetry_equiv_pos_site_id
 _symmetry_equiv_pos_as_xyz
  1  'x, y, z'
loop_
 _atom_site_type_symbol
 _atom_site_label
 _atom_site_symmetry_multiplicity
 _atom_site_fract_x
 _atom_site_fract_y
 _atom_site_fract_z
 _atom_site_occupancy
  Li  Li0  1  0.45497629  0.33945579  0.13373275  1
  Li  Li1  1  0.54502371  0.66054421  0.63373275  1
  Al  Al0  1  0.32213041  0.32043770  0.96300172  1
  Al  Al1  1  0.67786959  0.67956230  0.46300172  1
  C  C0  1  0.60721514  0.32259019  0.96728945  1
  C  C1  1  0.39278486  0.67740981  0.46728945  1
  C  C2  1  0.64185679  0.19768080  0.99634241  1
  C  C3  1  0.35814321  0.80231920  0.49634241  1
  C  C4  1  0.68710177  0.41333489  0.02876598  1
  C  C5  1  0.31289823  0.58666511  0.52876598  1
  C  C6  1  0.63906148  0.34658844  0.85699231  1
  C  C7  1  0.36093852  0.65341156  0.35699231  1
  C  C8  1  0.22105798  0.21313947  0.78181983  1
  C  C9  1  0.77894202  0.78686053  0.28181983  1
  C  C10  1  0.26610421  0.09914778  0.73313657  1
  C  C11  1  0.73389579  0.90085222  0.23313657  1
  C  C12  1  0.24966595  0.31694922  0.71174573  1
  C  C13  1  0.75033405  0.68305078  0.21174573  1
  C  C14  1  0.07544331  0.20434324  0.79739449  1
  C  C15  1  0.92455669  0.79565676  0.29739449  1
  C  C16  1  0.20917386  0.20194028  0.14056922  1
  C  C17  1  0.79082614  0.79805972  0.64056922  1
  C  C18  1  0.26212520  0.18978277  0.24965462  1
  C  C19  1  0.73787480  0.81021723  0.74965462  1
  C  C20  1  0.18343283  0.08102868  0.09503320  1
  C  C21  1  0.81656717  0.91897132  0.59503320  1
  C  C22  1  0.08076750  0.26098098  0.14344777  1
  C  C23  1  0.91923250  0.73901902  0.64344777  1
  C  C24  1  0.26599846  0.56583864  0.96231131  1
  C  C25  1  0.73400154  0.43416136  0.46231131  1
  C  C26  1  0.13236381  0.60645903  0.99542257  1
  C  C27  1  0.86763619  0.39354097  0.49542257  1
  C  C28  1  0.36839604  0.60116026  0.04028642  1
  C  C29  1  0.63160396  0.39883974  0.54028642  1
  C  C30  1  0.30548490  0.62672373  0.86311735  1
  C  C31  1  0.69451510  0.37327627  0.36311735  1
  Cl  Cl0  1  0.63633785  0.18725051  0.12639662  1
  Cl  Cl1  1  0.36366215  0.81274949  0.62639662  1
  Cl  Cl2  1  0.78797699  0.16135705  0.95547679  1
  Cl  Cl3  1  0.21202301  0.83864295  0.45547679  1
  Cl  Cl4  1  0.52919386  0.10098613  0.95031493  1
  Cl  Cl5  1  0.47080614  0.89901387  0.45031493  1
  Cl  Cl6  1  0.33020452  0.32371102  0.28595105  1
  Cl  Cl7  1  0.66979548  0.67628898  0.78595105  1
  Cl  Cl8  1  0.38062398  0.09318364  0.25441042  1
  Cl  Cl9  1  0.61937602  0.90681636  0.75441042  1
  Cl  Cl10  1  0.14928255  0.15053898  0.33621515  1
  Cl  Cl11  1  0.85071745  0.84946102  0.83621515  1
  Cl  Cl12  1  0.01628328  0.53865064  0.92428667  1
  Cl  Cl13  1  0.98371672  0.46134936  0.42428667  1
  Cl  Cl14  1  0.11971955  0.75430694  0.98464219  1
  Cl  Cl15  1  0.88028045  0.24569306  0.48464219  1
  Cl  Cl16  1  0.10545881  0.56915850  0.11764269  1
  Cl  Cl17  1  0.89454119  0.43084150  0.61764269  1
  Cl  Cl18  1  0.26876005  0.99179939  0.82233036  1
  Cl  Cl19  1  0.73123995  0.00820061  0.32233036  1
  Cl  Cl20  1  0.41825381  0.11930645  0.68723072  1
  Cl  Cl21  1  0.58174619  0.88069355  0.18723072  1
  Cl  Cl22  1  0.16962887  0.05228347  0.63657851  1
  Cl  Cl23  1  0.83037113  0.94771653  0.13657851  1
  O  O0  1  0.29335785  0.26272501  0.08425809  1
  O  O1  1  0.70664215  0.73727499  0.58425809  1
  O  O2  1  0.48572614  0.33858397  0.98779194  1
  O  O3  1  0.51427386  0.66141603  0.48779194  1
  O  O4  1  0.27912402  0.23094950  0.86815982  1
  O  O5  1  0.72087598  0.76905050  0.36815982  1
  O  O6  1  0.26322839  0.45356546  0.94978677  1
  O  O7  1  0.73677161  0.54643454  0.44978677  1
  F  F0  1  0.62700931  0.43221625  0.11496003  1
  F  F1  1  0.37299069  0.56778375  0.61496003  1
  F  F2  1  0.80103846  0.38340230  0.05098496  1
  F  F3  1  0.19896154  0.61659770  0.55098496  1
  F  F4  1  0.69706174  0.51282837  0.98333680  1
  F  F5  1  0.30293826  0.48717163  0.48333680  1
  F  F6  1  0.76040645  0.37421948  0.84349358  1
  F  F7  1  0.23959355  0.62578052  0.34349358  1
  F  F8  1  0.57421673  0.43348469  0.82605856  1
  F  F9  1  0.42578327  0.56651531  0.32605856  1
  F  F10  1  0.60986825  0.25874659  0.79927057  1
  F  F11  1  0.39013175  0.74125341  0.29927057  1
  F  F12  1  0.37213863  0.52105350  0.11178566  1
  F  F13  1  0.62786137  0.47894650  0.61178566  1
  F  F14  1  0.48119210  0.60526364  0.99884879  1
  F  F15  1  0.51880790  0.39473636  0.49884879  1
  F  F16  1  0.35366947  0.69954450  0.08473638  1
  F  F17  1  0.64633053  0.30045550  0.58473638  1
  F  F18  1  0.35466063  0.73241731  0.87636687  1
  F  F19  1  0.64533937  0.26758269  0.37636687  1
  F  F20  1  0.39315951  0.56830000  0.81864758  1
  F  F21  1  0.60684049  0.43170000  0.31864758  1
  F  F22  1  0.21116081  0.63319407  0.80026424  1
  F  F23  1  0.78883919  0.36680593  0.30026424  1
  F  F24  1  0.17815865  0.40280093  0.73574145  1
  F  F25  1  0.82184135  0.59719907  0.23574145  1
  F  F26  1  0.36801796  0.35517471  0.72260257  1
  F  F27  1  0.63198204  0.64482529  0.22260257  1
  F  F28  1  0.23092769  0.29497268  0.61673435  1
  F  F29  1  0.76907231  0.70502732  0.11673435  1
  F  F30  1  0.01136161  0.22475707  0.71575886  1
  F  F31  1  0.98863839  0.77524293  0.21575886  1
  F  F32  1  0.04404602  0.28045083  0.86426129  1
  F  F33  1  0.95595398  0.71954917  0.36426129  1
  F  F34  1  0.03488000  0.10259525  0.83067503  1
  F  F35  1  0.96512000  0.89740475  0.33067503  1
  F  F36  1  0.13513744  0.00596828  0.15925082  1
  F  F37  1  0.86486256  0.99403172  0.65925082  1
  F  F38  1  0.10275516  0.08625188  0.02013478  1
  F  F39  1  0.89724484  0.91374812  0.52013478  1
  F  F40  1  0.28758567  0.04032818  0.05888789  1
  F  F41  1  0.71241433  0.95967182  0.55888789  1
  F  F42  1  0.05943908  0.30531232  0.05531756  1
  F  F43  1  0.94056092  0.69468768  0.55531756  1
  F  F44  1  0.07991063  0.34488862  0.20887263  1
  F  F45  1  0.92008937  0.65511138  0.70887263  1
  F  F46  1  0.98473502  0.18909352  0.16467230  1
  F  F47  1  0.01526498  0.81090648  0.66467230  1
loop_
_geom_bond_atom_site_label_1
_geom_bond_atom_site_label_2
_geom_bond_distance
_geom_bond_site_symmetry_2
Li0 O2 2.046464 1_554
Li0 O0 2.064607 1_555
Li1 O3 2.046464 1_555
Li1 O1 2.064607 1_555
Al0 O4 1.745163 1_555
Al0 O6 1.757352 1_555
Al0 O2 1.817352 1_555
Al0 O0 1.835888 1_556
Al1 O5 1.745163 1_555
Al1 O7 1.757352 1_555
Al1 O3 1.817352 1_555
Al1 O1 1.835888 1_555
C0 O2 1.375114 1_555
C0 C2 1.612398 1_555
C1 O3 1.375114 1_555
C1 C3 1.612398 1_555
C2 Cl2 1.762191 1_555
C2 Cl4 1.767324 1_555
C2 Cl0 1.804170 1_556
C3 Cl3 1.762191 1_555
C3 Cl5 1.767324 1_555
C3 Cl1 1.804170 1_555
C4 F2 1.343102 1_555
C4 F4 1.348414 1_554
C4 F0 1.383761 1_555
C5 F3 1.343102 1_555
C5 F5 1.348414 1_555
C5 F1 1.383761 1_555
C6 F10 1.348048 1_555
C6 F8 1.354880 1_555
C6 F6 1.360228 1_555
C7 F11 1.348048 1_555
C7 F9 1.354880 1_555
C7 F7 1.360228 1_555
C8 O4 1.363581 1_555
C9 O5 1.363581 1_555
C10 C8 1.620131 1_555
C10 Cl22 1.774519 1_555
C10 Cl20 1.780376 1_555
C10 Cl18 1.784300 1_545
C11 C9 1.620131 1_555
C11 Cl23 1.774519 1_555
C11 Cl21 1.780376 1_555
C11 Cl19 1.784300 1_565
C12 F28 1.354045 1_555
C12 F26 1.356103 1_555
C12 F24 1.360386 1_555
C13 F29 1.354045 1_555
C13 F27 1.356103 1_555
C13 F25 1.360386 1_555
C14 F32 1.354365 1_555
C14 F30 1.355694 1_555
C14 F34 1.358653 1_555
C15 F33 1.354365 1_555
C15 F31 1.355694 1_555
C15 F35 1.358653 1_555
C16 O0 1.384423 1_555
C16 C18 1.624342 1_555
C17 O1 1.384423 1_555
C17 C19 1.624342 1_555
C18 Cl10 1.763982 1_555
C18 Cl8 1.774748 1_555
C18 Cl6 1.808565 1_555
C19 Cl11 1.763982 1_555
C19 Cl9 1.774748 1_555
C19 Cl7 1.808565 1_555
C20 F40 1.351226 1_555
C20 F36 1.353545 1_555
C20 F38 1.361718 1_555
C21 F41 1.351226 1_555
C21 F37 1.353545 1_555
C21 F39 1.361718 1_555
C22 F44 1.353686 1_555
C22 F42 1.354316 1_555
C22 F46 1.356289 1_455
C23 F45 1.353686 1_555
C23 F43 1.354316 1_555
C23 F47 1.356289 1_655
C24 O6 1.356422 1_555
C24 C26 1.621837 1_555
C25 O7 1.356422 1_555
C25 C27 1.621837 1_555
C26 Cl16 1.769772 1_556
C26 Cl12 1.769810 1_555
C26 Cl14 1.790879 1_555
C27 Cl17 1.769772 1_555
C27 Cl13 1.769810 1_555
C27 Cl15 1.790879 1_555
C28 F16 1.346573 1_555
C28 F14 1.354293 1_554
C28 F12 1.380687 1_555
C29 F17 1.346573 1_555
C29 F15 1.354293 1_555
C29 F13 1.380687 1_555
C30 F22 1.350686 1_555
C30 F20 1.357460 1_555
C30 F18 1.365287 1_555
C31 F23 1.350686 1_555
C31 F21 1.357460 1_555
C31 F19 1.365287 1_555
Cl0 Li0 2.752425 1_555
Cl1 Li1 2.752425 1_555
Cl6 Li0 2.508306 1_555
Cl7 Li1 2.508306 1_555
F0 Li0 2.149753 1_555
F1 Li1 2.149753 1_555
F12 Li0 2.414562 1_555
F13 Li1 2.414562 1_555
