# generated using pymatgen
data_RbCoBr3
_symmetry_space_group_name_H-M   'P 1'
_cell_length_a   7.42861131
_cell_length_b   7.42750215
_cell_length_c   6.24458767
_cell_angle_alpha   89.99999801
_cell_angle_beta   90.00002782
_cell_angle_gamma   119.99551735
_symmetry_Int_Tables_number   1
_chemical_formula_structural   RbCoBr3
_chemical_formula_sum   'Rb2 Co2 Br6'
_cell_volume   298.40385943
_cell_formula_units_Z   2
loop_
 _symmetry_equiv_pos_site_id
 _symmetry_equiv_pos_as_xyz
  1  'x, y, z'
loop_
 _atom_site_type_symbol
 _atom_site_label
 _atom_site_symmetry_multiplicity
 _atom_site_fract_x
 _atom_site_fract_y
 _atom_site_fract_z
 _atom_site_occupancy
  Rb  Rb0  1  0.33332827  0.66666459  0.74998559  1
  Rb  Rb1  1  0.66667203  0.33333546  0.25001447  1
  Co  Co0  1  -0.00000007  0.00000009  0.00000012  1
  Co  Co1  1  -0.00000003  0.00000009  0.49999988  1
  Br  Br0  1  0.16091940  0.32189866  0.25001157  1
  Br  Br1  1  0.83908056  0.67810081  0.74998853  1
  Br  Br2  1  0.67826099  0.83913810  0.25001074  1
  Br  Br3  1  0.32173951  0.16086274  0.74998928  1
  Br  Br4  1  0.16092100  0.83903279  0.25001115  1
  Br  Br5  1  0.83907834  0.16096668  0.74998866  1
loop_
_geom_bond_atom_site_label_1
_geom_bond_atom_site_label_2
_geom_bond_distance
_geom_bond_site_symmetry_2
Br0 Co1 2.593193 1_555
Br0 Co0 2.593280 1_555
Br0 Rb1 3.714768 1_455
Br0 Rb1 3.715301 1_555
Br0 Rb0 3.829651 1_555
Br0 Rb0 3.829916 1_554
Br1 Co1 2.593198 1_665
Br1 Co0 2.593284 1_666
Br1 Rb0 3.714768 1_655
Br1 Rb0 3.715300 1_555
Br1 Rb1 3.829649 1_555
Br1 Rb1 3.829914 1_556
Br2 Co1 2.592622 1_665
Br2 Co0 2.592704 1_665
Br2 Rb1 3.714439 1_565
Br2 Rb1 3.714559 1_555
Br2 Rb0 3.830470 1_555
Br2 Rb0 3.830724 1_554
Br3 Co1 2.592626 1_555
Br3 Co0 2.592708 1_556
Br3 Rb0 3.714445 1_545
Br3 Rb0 3.714554 1_555
Br3 Rb1 3.830469 1_555
Br3 Rb1 3.830723 1_556
Br4 Co1 2.593154 1_565
Br4 Co0 2.593237 1_565
Br4 Rb1 3.714798 1_455
Br4 Rb1 3.715222 1_565
Br4 Rb0 3.829697 1_555
Br4 Rb0 3.829959 1_554
Br5 Co1 2.593153 1_655
Br5 Co0 2.593238 1_656
Br5 Rb0 3.714804 1_655
Br5 Rb0 3.715216 1_545
Br5 Rb1 3.829695 1_555
Br5 Rb1 3.829959 1_556
