# generated using pymatgen
data_Na2Mn(SiO3)2
_symmetry_space_group_name_H-M   'P 1'
_cell_length_a   7.46322200
_cell_length_b   10.43616100
_cell_length_c   10.45303400
_cell_angle_alpha   90.00000000
_cell_angle_beta   90.00000000
_cell_angle_gamma   90.00000000
_symmetry_Int_Tables_number   1
_chemical_formula_structural   Na2Mn(SiO3)2
_chemical_formula_sum   'Na12 Mn6 Si12 O36'
_cell_volume   814.15949790
_cell_formula_units_Z   6
loop_
 _symmetry_equiv_pos_site_id
 _symmetry_equiv_pos_as_xyz
  1  'x, y, z'
loop_
 _atom_site_type_symbol
 _atom_site_label
 _atom_site_symmetry_multiplicity
 _atom_site_fract_x
 _atom_site_fract_y
 _atom_site_fract_z
 _atom_site_occupancy
  Na  Na0  1  0.27234700  0.26393700  0.98235800  1
  Na  Na1  1  0.27234700  0.73606300  0.98235800  1
  Na  Na2  1  0.72765300  0.23606300  0.48235800  1
  Na  Na3  1  0.72765300  0.76393700  0.48235800  1
  Na  Na4  1  0.76970500  0.23838600  0.01126900  1
  Na  Na5  1  0.76970500  0.76161400  0.01126900  1
  Na  Na6  1  0.23029500  0.26161400  0.51126900  1
  Na  Na7  1  0.23029500  0.73838600  0.51126900  1
  Na  Na8  1  0.75168600  0.50000000  0.25217600  1
  Na  Na9  1  0.24831400  0.00000000  0.75217600  1
  Na  Na10  1  0.23595300  0.00000000  0.24738100  1
  Na  Na11  1  0.76404700  0.50000000  0.74738100  1
  Mn  Mn0  1  0.74817600  0.00000000  0.24748500  1
  Mn  Mn1  1  0.25182400  0.50000000  0.74748500  1
  Mn  Mn2  1  0.01587600  0.00000000  0.01015400  1
  Mn  Mn3  1  0.98412400  0.50000000  0.51015400  1
  Mn  Mn4  1  0.51861000  0.50000000  0.98350400  1
  Mn  Mn5  1  0.48139000  0.00000000  0.48350400  1
  Si  Si0  1  0.50047900  0.00000000  0.96829100  1
  Si  Si1  1  0.49952100  0.50000000  0.46829100  1
  Si  Si2  1  0.03059600  0.27289100  0.24143000  1
  Si  Si3  1  0.03059600  0.72710900  0.24143000  1
  Si  Si4  1  0.96940400  0.22710900  0.74143000  1
  Si  Si5  1  0.96940400  0.77289100  0.74143000  1
  Si  Si6  1  0.46680400  0.27238400  0.25473800  1
  Si  Si7  1  0.46680400  0.72761600  0.25473800  1
  Si  Si8  1  0.53319600  0.22761600  0.75473800  1
  Si  Si9  1  0.53319600  0.77238400  0.75473800  1
  Si  Si10  1  0.00081300  0.50000000  0.02816300  1
  Si  Si11  1  0.99918700  0.00000000  0.52816300  1
  O  O0  1  0.69390400  0.00000000  0.03837200  1
  O  O1  1  0.30609600  0.50000000  0.53837200  1
  O  O2  1  0.95925300  0.33750700  0.37356600  1
  O  O3  1  0.95925300  0.66249300  0.37356600  1
  O  O4  1  0.04074700  0.16249300  0.87356600  1
  O  O5  1  0.04074700  0.83750700  0.87356600  1
  O  O6  1  0.80641600  0.00000000  0.45705500  1
  O  O7  1  0.19358400  0.50000000  0.95705500  1
  O  O8  1  0.51015200  0.37357200  0.37274400  1
  O  O9  1  0.51015200  0.62642800  0.37274400  1
  O  O10  1  0.48984800  0.12642800  0.87274400  1
  O  O11  1  0.48984800  0.87357200  0.87274400  1
  O  O12  1  0.54461900  0.13732800  0.30847700  1
  O  O13  1  0.54461900  0.86267200  0.30847700  1
  O  O14  1  0.45538100  0.36267200  0.80847700  1
  O  O15  1  0.45538100  0.63732800  0.80847700  1
  O  O16  1  0.95352200  0.13698400  0.18886100  1
  O  O17  1  0.95352200  0.86301600  0.18886100  1
  O  O18  1  0.04647800  0.36301600  0.68886100  1
  O  O19  1  0.04647800  0.63698400  0.68886100  1
  O  O20  1  0.30928300  0.00000000  0.04188600  1
  O  O21  1  0.69071700  0.50000000  0.54188600  1
  O  O22  1  0.24817300  0.25321700  0.25070200  1
  O  O23  1  0.24817300  0.74678300  0.25070200  1
  O  O24  1  0.75182700  0.24678300  0.75070200  1
  O  O25  1  0.75182700  0.75321700  0.75070200  1
  O  O26  1  0.53440200  0.33473600  0.12071300  1
  O  O27  1  0.53440200  0.66526400  0.12071300  1
  O  O28  1  0.46559800  0.16526400  0.62071300  1
  O  O29  1  0.46559800  0.83473600  0.62071300  1
  O  O30  1  0.98999900  0.37279200  0.12240700  1
  O  O31  1  0.98999900  0.62720800  0.12240700  1
  O  O32  1  0.01000100  0.12720800  0.62240700  1
  O  O33  1  0.01000100  0.87279200  0.62240700  1
  O  O34  1  0.19092800  0.00000000  0.45530700  1
  O  O35  1  0.80907200  0.50000000  0.95530700  1
loop_
_geom_bond_atom_site_label_1
_geom_bond_atom_site_label_2
_geom_bond_distance
_geom_bond_site_symmetry_2
Na0 O4 2.324157 1_555
Na0 O10 2.450967 1_555
Na0 O14 2.496274 1_555
Na0 O26 2.542157 1_556
Na0 O7 2.546523 1_555
Na0 O30 2.806078 1_456
Na0 O22 2.813031 1_556
Na0 O20 2.837321 1_556
Na1 O5 2.324157 1_555
Na1 O11 2.450967 1_555
Na1 O15 2.496274 1_555
Na1 O27 2.542157 1_556
Na1 O7 2.546523 1_555
Na1 O31 2.806078 1_456
Na1 O23 2.813031 1_556
Na1 O20 2.837321 1_566
Na2 O2 2.324157 1_555
Na2 O8 2.450967 1_555
Na2 O12 2.496274 1_555
Na2 O28 2.542157 1_555
Na2 O6 2.546523 1_555
Na2 O32 2.806078 1_655
Na2 O24 2.813031 1_555
Na2 O21 2.837321 1_555
Na3 O3 2.324157 1_555
Na3 O9 2.450967 1_555
Na3 O13 2.496274 1_555
Na3 O29 2.542157 1_555
Na3 O6 2.546523 1_565
Na3 O33 2.806078 1_655
Na3 O25 2.813031 1_555
Na3 O21 2.837321 1_555
Na4 O26 2.324611 1_555
Na4 O30 2.453611 1_555
Na4 O16 2.539298 1_555
Na4 O0 2.567026 1_555
Na4 O4 2.605981 1_654
Na4 O24 2.728390 1_554
Na4 O10 2.797196 1_554
Na4 O35 2.807625 1_554
Na5 O27 2.324611 1_555
Na5 O31 2.453611 1_555
Na5 O17 2.539298 1_555
Na5 O0 2.567026 1_565
Na5 O5 2.605981 1_654
Na5 O25 2.728390 1_554
Na5 O11 2.797196 1_554
Na5 O35 2.807625 1_554
Na6 O28 2.324611 1_555
Na6 O32 2.453611 1_555
Na6 O18 2.539298 1_555
Na6 O1 2.567026 1_555
Na6 O2 2.605981 1_455
Na6 O22 2.728390 1_555
Na6 O8 2.797196 1_555
Na6 O34 2.807625 1_555
Na7 O29 2.324611 1_555
Na7 O33 2.453611 1_555
Na7 O19 2.539298 1_555
Na7 O1 2.567026 1_555
Na7 O3 2.605981 1_455
Na7 O23 2.728390 1_555
Na7 O9 2.797196 1_555
Na7 O34 2.807625 1_565
Na8 O9 2.564894 1_555
Na8 O8 2.564894 1_555
Na8 O31 2.601119 1_555
Na8 O30 2.601119 1_555
Na8 O2 2.624044 1_555
Na8 O3 2.624044 1_555
Na8 O27 2.737292 1_555
Na8 O26 2.737292 1_555
Na9 O10 2.564894 1_555
Na9 O11 2.564894 1_545
Na9 O33 2.601119 1_545
Na9 O32 2.601119 1_555
Na9 O4 2.624044 1_555
Na9 O5 2.624044 1_545
Na9 O28 2.737292 1_555
Na9 O29 2.737292 1_545
Na10 O34 2.199281 1_555
Na10 O20 2.216668 1_555
Na10 O16 2.619336 1_455
Na10 O17 2.619336 1_445
Na10 O22 2.644415 1_555
Na10 O23 2.644415 1_545
Na10 O12 2.787226 1_555
Na10 O13 2.787226 1_545
Na11 O35 2.199281 1_555
Na11 O21 2.216668 1_555
Na11 O19 2.619336 1_655
Na11 O18 2.619336 1_655
Na11 O25 2.644415 1_555
Na11 O24 2.644415 1_555
Na11 O15 2.787226 1_555
Na11 O14 2.787226 1_555
Mn0 O16 2.183559 1_555
Mn0 O17 2.183559 1_545
Mn0 O12 2.183669 1_555
Mn0 O13 2.183669 1_545
Mn0 O0 2.223076 1_555
Mn0 O6 2.233348 1_555
Mn1 O19 2.183559 1_555
Mn1 O18 2.183559 1_555
Mn1 O15 2.183669 1_555
Mn1 O14 2.183669 1_555
Mn1 O1 2.223076 1_555
Mn1 O7 2.233348 1_555
Mn2 O20 2.214741 1_555
Mn2 O5 2.224567 1_544
Mn2 O4 2.224567 1_554
Mn2 O16 2.397878 1_455
Mn2 O17 2.397878 1_445
Mn2 O0 2.420984 1_455
Mn3 O21 2.214741 1_555
Mn3 O2 2.224567 1_555
Mn3 O3 2.224567 1_555
Mn3 O18 2.397878 1_655
Mn3 O19 2.397878 1_655
Mn3 O1 2.420984 1_655
Mn4 O35 2.187728 1_555
Mn4 O27 2.246248 1_556
Mn4 O26 2.246248 1_556
Mn4 O14 2.371493 1_555
Mn4 O15 2.371493 1_555
Mn4 O7 2.441446 1_555
Mn5 O34 2.187728 1_555
Mn5 O28 2.246248 1_555
Mn5 O29 2.246248 1_545
Mn5 O13 2.371493 1_545
Mn5 O12 2.371493 1_555
Mn5 O6 2.441446 1_555
O0 Si0 1.618811 1_554
O1 Si1 1.618811 1_555
O2 Si2 1.626657 1_655
O3 Si3 1.626657 1_655
O4 Si4 1.626657 1_455
O5 Si5 1.626657 1_455
O6 Si11 1.619359 1_555
O7 Si10 1.619359 1_556
O8 Si6 1.655718 1_555
O8 Si1 1.656709 1_555
O9 Si7 1.655718 1_555
O9 Si1 1.656709 1_555
O10 Si8 1.655718 1_555
O10 Si0 1.656709 1_555
O11 Si9 1.655718 1_555
O11 Si0 1.656709 1_565
O12 Si6 1.624627 1_555
O13 Si7 1.624627 1_555
O14 Si8 1.624627 1_555
O15 Si9 1.624627 1_555
O16 Si2 1.626205 1_655
O17 Si3 1.626205 1_655
O18 Si4 1.626205 1_455
O19 Si5 1.626205 1_455
O20 Si0 1.621099 1_554
O21 Si1 1.621099 1_555
O22 Si2 1.639622 1_555
O22 Si6 1.644448 1_555
O23 Si3 1.639622 1_555
O23 Si7 1.644448 1_555
O24 Si4 1.639622 1_555
O24 Si8 1.644448 1_555
O25 Si5 1.639622 1_555
O25 Si9 1.644448 1_555
O26 Si6 1.625011 1_555
O27 Si7 1.625011 1_555
O28 Si8 1.625011 1_555
O29 Si9 1.625011 1_555
O30 Si2 1.651270 1_655
O30 Si10 1.655122 1_655
O31 Si3 1.651270 1_655
O31 Si10 1.655122 1_655
O32 Si4 1.651270 1_455
O32 Si11 1.655122 1_455
O33 Si5 1.651270 1_455
O33 Si11 1.655122 1_465
O34 Si11 1.621037 1_455
O35 Si10 1.621037 1_656
