# generated using pymatgen
data_Yb3(CuSi)4
_symmetry_space_group_name_H-M   'P 1'
_cell_length_a   7.71463633
_cell_length_b   7.71463633
_cell_length_c   7.71463633
_cell_angle_alpha   149.52601123
_cell_angle_beta   130.52114304
_cell_angle_gamma   59.23033033
_symmetry_Int_Tables_number   1
_chemical_formula_structural   Yb3(CuSi)4
_chemical_formula_sum   'Yb3 Cu4 Si4'
_cell_volume   175.60665670
_cell_formula_units_Z   1
loop_
 _symmetry_equiv_pos_site_id
 _symmetry_equiv_pos_as_xyz
  1  'x, y, z'
loop_
 _atom_site_type_symbol
 _atom_site_label
 _atom_site_symmetry_multiplicity
 _atom_site_fract_x
 _atom_site_fract_y
 _atom_site_fract_z
 _atom_site_occupancy
  Yb  Yb0  1  0.37066836  0.87066836  0.50000000  1
  Yb  Yb1  1  0.62933164  0.12933164  0.50000000  1
  Yb  Yb2  1  0.00000000  0.00000000  0.00000000  1
  Cu  Cu0  1  0.63883184  0.33045974  0.30837110  1
  Cu  Cu1  1  0.36116816  0.66954026  0.69162890  1
  Cu  Cu2  1  0.02208863  0.33045974  0.69162890  1
  Cu  Cu3  1  0.97791137  0.66954026  0.30837110  1
  Si  Si0  1  0.21626144  0.21626144  0.00000000  1
  Si  Si1  1  0.78373856  0.78373856  0.00000000  1
  Si  Si2  1  0.68550178  0.50000000  0.18550178  1
  Si  Si3  1  0.31449822  0.50000000  0.81449822  1
loop_
_geom_bond_atom_site_label_1
_geom_bond_atom_site_label_2
_geom_bond_distance
_geom_bond_site_symmetry_2
Cu0 Si2 2.408566 1_555
Cu0 Si1 2.456532 1_545
Cu0 Si1 2.456535 1_556
Cu0 Cu2 2.474704 1_655
Cu0 Si0 2.512214 1_555
Cu0 Yb0 2.892468 1_544
Cu0 Yb0 2.892471 1_555
Cu0 Yb1 2.968087 1_555
Cu1 Si3 2.408566 1_555
Cu1 Si0 2.456532 1_566
Cu1 Si0 2.456535 1_555
Cu1 Cu3 2.474704 1_455
Cu1 Si1 2.512214 1_556
Cu1 Yb1 2.892468 1_566
Cu1 Yb1 2.892471 1_555
Cu1 Yb0 2.968087 1_555
Cu2 Si3 2.408572 1_555
Cu2 Si1 2.456534 1_445
Cu2 Si1 2.456534 1_456
Cu2 Si0 2.512207 1_556
Cu2 Yb0 2.892469 1_545
Cu2 Yb0 2.892469 1_556
Cu2 Yb1 2.968082 1_455
Cu3 Si2 2.408572 1_555
Cu3 Si0 2.456534 1_655
Cu3 Si0 2.456534 1_666
Cu3 Si1 2.512207 1_555
Cu3 Yb1 2.892469 1_554
Cu3 Yb1 2.892469 1_565
Cu3 Yb0 2.968082 1_655
Si0 Yb0 2.898356 1_555
Si0 Yb0 2.898356 1_544
Si0 Yb2 2.900857 1_555
Si1 Yb1 2.898356 1_565
Si1 Yb1 2.898356 1_554
Si1 Yb2 2.900857 1_665
Si2 Si3 2.395581 1_554
Si2 Yb2 2.869599 1_655
Si2 Yb2 2.869599 1_666
Si2 Yb1 2.924898 1_554
Si2 Yb1 2.924898 1_565
Si2 Yb0 2.924898 1_555
Si2 Yb0 2.924898 1_544
Si3 Yb2 2.869599 1_566
Si3 Yb2 2.869599 1_555
Si3 Yb1 2.924898 1_566
Si3 Yb1 2.924898 1_555
Si3 Yb0 2.924898 1_545
Si3 Yb0 2.924898 1_556
