# generated using pymatgen
data_K7(FeS2)5
_symmetry_space_group_name_H-M   'P 1'
_cell_length_a   14.98369322
_cell_length_b   14.98369322
_cell_length_c   7.29943286
_cell_angle_alpha   77.95143535
_cell_angle_beta   77.95143535
_cell_angle_gamma   45.53889321
_symmetry_Int_Tables_number   1
_chemical_formula_structural   K7(FeS2)5
_chemical_formula_sum   'K14 Fe10 S20'
_cell_volume   1139.29058765
_cell_formula_units_Z   2
loop_
 _symmetry_equiv_pos_site_id
 _symmetry_equiv_pos_as_xyz
  1  'x, y, z'
loop_
 _atom_site_type_symbol
 _atom_site_label
 _atom_site_symmetry_multiplicity
 _atom_site_fract_x
 _atom_site_fract_y
 _atom_site_fract_z
 _atom_site_occupancy
  K  K0  1  0.10687100  0.89312900  0.75000000  1
  K  K1  1  0.89312900  0.10687100  0.25000000  1
  K  K2  1  0.32727000  0.52211900  0.93283000  1
  K  K3  1  0.47788100  0.67273000  0.56717000  1
  K  K4  1  0.67273000  0.47788100  0.06717000  1
  K  K5  1  0.52211900  0.32727000  0.43283000  1
  K  K6  1  0.88197200  0.82610700  0.01237000  1
  K  K7  1  0.17389300  0.11802800  0.48763000  1
  K  K8  1  0.11802800  0.17389300  0.98763000  1
  K  K9  1  0.82610700  0.88197200  0.51237000  1
  K  K10  1  0.82751700  0.60884400  0.96153200  1
  K  K11  1  0.39115600  0.17248300  0.53846800  1
  K  K12  1  0.17248300  0.39115600  0.03846800  1
  K  K13  1  0.60884400  0.82751700  0.46153200  1
  Fe  Fe0  1  0.76341300  0.23658700  0.75000000  1
  Fe  Fe1  1  0.23658700  0.76341300  0.25000000  1
  Fe  Fe2  1  0.83375700  0.36758900  0.56059700  1
  Fe  Fe3  1  0.63241100  0.16624300  0.93940300  1
  Fe  Fe4  1  0.16624300  0.63241100  0.43940300  1
  Fe  Fe5  1  0.36758900  0.83375700  0.06059700  1
  Fe  Fe6  1  0.07520300  0.52599900  0.50866000  1
  Fe  Fe7  1  0.47400100  0.92479700  0.99134000  1
  Fe  Fe8  1  0.92479700  0.47400100  0.49134000  1
  Fe  Fe9  1  0.52599900  0.07520300  0.00866000  1
  S  S0  1  0.30715400  0.62852700  0.50926100  1
  S  S1  1  0.37147300  0.69284600  0.99073900  1
  S  S2  1  0.69284600  0.37147300  0.49073900  1
  S  S3  1  0.62852700  0.30715400  0.00926100  1
  S  S4  1  0.93595900  0.19660300  0.78193100  1
  S  S5  1  0.80339700  0.06404100  0.71806900  1
  S  S6  1  0.06404100  0.80339700  0.21806900  1
  S  S7  1  0.19660300  0.93595900  0.28193100  1
  S  S8  1  0.74698700  0.54724500  0.67247000  1
  S  S9  1  0.45275500  0.25301300  0.82753000  1
  S  S10  1  0.25301300  0.45275500  0.32753000  1
  S  S11  1  0.54724500  0.74698700  0.17247000  1
  S  S12  1  0.06141800  0.63170900  0.71112800  1
  S  S13  1  0.36829100  0.93858200  0.78887200  1
  S  S14  1  0.93858200  0.36829100  0.28887200  1
  S  S15  1  0.63170900  0.06141800  0.21112800  1
  S  S16  1  0.09050100  0.36883100  0.66483500  1
  S  S17  1  0.63116900  0.90949900  0.83516500  1
  S  S18  1  0.90949900  0.63116900  0.33516500  1
  S  S19  1  0.36883100  0.09050100  0.16483500  1
loop_
_geom_bond_atom_site_label_1
_geom_bond_atom_site_label_2
_geom_bond_distance
_geom_bond_site_symmetry_2
K0 S5 3.342131 1_465
K0 S4 3.342131 1_465
K0 S0 3.442741 1_555
K0 S1 3.442741 1_555
K0 S6 3.502645 1_556
K0 S7 3.502645 1_555
K1 S6 3.342131 1_645
K1 S7 3.342131 1_645
K1 S2 3.442741 1_555
K1 S3 3.442741 1_555
K1 S5 3.502645 1_555
K1 S4 3.502645 1_554
K2 S10 3.106508 1_556
K2 S0 3.138484 1_555
K2 S1 3.178540 1_555
K2 S9 3.233382 1_555
K2 S3 3.315930 1_556
K2 S12 3.688076 1_555
K3 S11 3.106508 1_555
K3 S1 3.138484 1_555
K3 S0 3.178540 1_555
K3 S8 3.233382 1_555
K3 S2 3.315930 1_555
K3 S13 3.688076 1_555
K4 S8 3.106508 1_554
K4 S2 3.138484 1_555
K4 S3 3.178540 1_555
K4 S11 3.233382 1_555
K4 S1 3.315930 1_554
K4 S14 3.688076 1_555
K5 S9 3.106508 1_555
K5 S3 3.138484 1_555
K5 S2 3.178540 1_555
K5 S10 3.233382 1_555
K5 S0 3.315930 1_555
K5 S15 3.688076 1_555
K6 S12 3.127849 1_654
K6 S15 3.152930 1_565
K6 S6 3.163692 1_655
K6 S18 3.177790 1_555
K6 S5 3.269526 1_564
K6 S17 3.483296 1_554
K7 S13 3.127849 1_545
K7 S14 3.152930 1_455
K7 S7 3.163692 1_545
K7 S19 3.177790 1_555
K7 S4 3.269526 1_455
K7 S16 3.483296 1_555
K8 S14 3.127849 1_456
K8 S13 3.152930 1_545
K8 S4 3.163692 1_455
K8 S16 3.177790 1_555
K8 S7 3.269526 1_546
K8 S19 3.483296 1_556
K9 S15 3.127849 1_565
K9 S12 3.152930 1_655
K9 S5 3.163692 1_565
K9 S17 3.177790 1_555
K9 S6 3.269526 1_655
K9 S18 3.483296 1_555
K10 S8 3.193116 1_555
K10 S17 3.260755 1_555
K10 S11 3.277992 1_556
K10 S14 3.336476 1_556
K10 S18 3.378492 1_556
K10 S16 3.603914 1_655
K11 S9 3.193116 1_555
K11 S16 3.260755 1_555
K11 S10 3.277992 1_555
K11 S15 3.336476 1_555
K11 S19 3.378492 1_555
K11 S17 3.603914 1_545
K12 S10 3.193116 1_555
K12 S19 3.260755 1_555
K12 S9 3.277992 1_554
K12 S12 3.336476 1_554
K12 S16 3.378492 1_554
K12 S18 3.603914 1_455
K13 S11 3.193116 1_555
K13 S18 3.260755 1_555
K13 S8 3.277992 1_555
K13 S13 3.336476 1_555
K13 S17 3.378492 1_555
K13 S19 3.603914 1_565
Fe0 S3 2.242579 1_556
Fe0 S2 2.242579 1_555
Fe0 S4 2.262940 1_555
Fe0 S5 2.262940 1_555
Fe1 S0 2.242579 1_555
Fe1 S1 2.242579 1_554
Fe1 S6 2.262940 1_555
Fe1 S7 2.262940 1_555
Fe2 S2 2.232989 1_555
Fe2 S14 2.261631 1_555
Fe2 S8 2.274930 1_555
Fe2 S4 2.308234 1_555
Fe3 S3 2.232989 1_556
Fe3 S15 2.261631 1_556
Fe3 S9 2.274930 1_555
Fe3 S5 2.308234 1_555
Fe4 S0 2.232989 1_555
Fe4 S12 2.261631 1_555
Fe4 S10 2.274930 1_555
Fe4 S6 2.308234 1_555
Fe5 S1 2.232989 1_554
Fe5 S13 2.261631 1_554
Fe5 S11 2.274930 1_555
Fe5 S7 2.308234 1_555
Fe6 S10 2.256088 1_555
Fe6 S12 2.264335 1_555
Fe6 S16 2.264965 1_555
Fe6 S18 2.291346 1_455
Fe7 S11 2.256088 1_556
Fe7 S13 2.264335 1_555
Fe7 S17 2.264965 1_555
Fe7 S19 2.291346 1_566
Fe8 S8 2.256088 1_555
Fe8 S14 2.264335 1_555
Fe8 S18 2.264965 1_555
Fe8 S16 2.291346 1_655
Fe9 S9 2.256088 1_554
Fe9 S15 2.264335 1_555
Fe9 S19 2.264965 1_555
Fe9 S17 2.291346 1_544
