# generated using pymatgen
data_BaSrEuNbO6
_symmetry_space_group_name_H-M   'P 1'
_cell_length_a   8.52219701
_cell_length_b   8.52402461
_cell_length_c   8.54147756
_cell_angle_alpha   90.00000000
_cell_angle_beta   90.00000000
_cell_angle_gamma   90.00000000
_symmetry_Int_Tables_number   1
_chemical_formula_structural   BaSrEuNbO6
_chemical_formula_sum   'Ba4 Sr4 Eu4 Nb4 O24'
_cell_volume   620.48211657
_cell_formula_units_Z   4
loop_
 _symmetry_equiv_pos_site_id
 _symmetry_equiv_pos_as_xyz
  1  'x, y, z'
loop_
 _atom_site_type_symbol
 _atom_site_label
 _atom_site_symmetry_multiplicity
 _atom_site_fract_x
 _atom_site_fract_y
 _atom_site_fract_z
 _atom_site_occupancy
  Ba  Ba0  1  0.00000000  0.00000000  0.00000000  1
  Ba  Ba1  1  0.50000000  0.50000000  0.50000000  1
  Ba  Ba2  1  0.50000000  -0.00000000  0.00000000  1
  Ba  Ba3  1  -0.00000000  -0.00000000  0.50000000  1
  Sr  Sr0  1  0.00000000  0.50000000  0.50000000  1
  Sr  Sr1  1  0.50000000  0.00000000  0.50000000  1
  Sr  Sr2  1  0.50000000  0.50000000  0.00000000  1
  Sr  Sr3  1  0.00000000  0.50000000  0.00000000  1
  Eu  Eu0  1  0.74909235  0.74738139  0.74972679  1
  Eu  Eu1  1  0.25090765  0.25261861  0.74972679  1
  Eu  Eu2  1  0.25090765  0.74738139  0.25027321  1
  Eu  Eu3  1  0.74909235  0.25261861  0.25027321  1
  Nb  Nb0  1  0.24951445  0.25367104  0.25072316  1
  Nb  Nb1  1  0.75048555  0.74632896  0.25072316  1
  Nb  Nb2  1  0.75048555  0.25367104  0.74927684  1
  Nb  Nb3  1  0.24951445  0.74632896  0.74927684  1
  O  O0  1  0.01636454  0.22428915  0.27615904  1
  O  O1  1  0.98363546  0.77571085  0.27615904  1
  O  O2  1  0.98363546  0.22428915  0.72384096  1
  O  O3  1  0.01636454  0.77571085  0.72384096  1
  O  O4  1  0.27350774  0.01848778  0.22196515  1
  O  O5  1  0.27350774  0.98151222  0.77803485  1
  O  O6  1  0.72649226  0.98151222  0.22196515  1
  O  O7  1  0.72649226  0.01848778  0.77803485  1
  O  O8  1  0.21479768  0.28545270  0.01709461  1
  O  O9  1  0.78520232  0.28545270  0.98290539  1
  O  O10  1  0.21479768  0.71454730  0.98290539  1
  O  O11  1  0.78520232  0.71454730  0.01709461  1
  O  O12  1  0.48154340  0.29105315  0.21337654  1
  O  O13  1  0.51845660  0.70894685  0.21337654  1
  O  O14  1  0.51845660  0.29105315  0.78662346  1
  O  O15  1  0.48154340  0.70894685  0.78662346  1
  O  O16  1  0.21502704  0.48338412  0.29283590  1
  O  O17  1  0.21502704  0.51661588  0.70716410  1
  O  O18  1  0.78497296  0.51661588  0.29283590  1
  O  O19  1  0.78497296  0.48338412  0.70716410  1
  O  O20  1  0.29087599  0.21762196  0.48192057  1
  O  O21  1  0.70912401  0.21762196  0.51807943  1
  O  O22  1  0.29087599  0.78237804  0.51807943  1
  O  O23  1  0.70912401  0.78237804  0.48192057  1
loop_
_geom_bond_atom_site_label_1
_geom_bond_atom_site_label_2
_geom_bond_distance
_geom_bond_site_symmetry_2
Ba0 O6 3.008711 1_445
Ba0 O4 3.008711 1_555
Ba0 O5 3.008711 1_544
Ba0 O7 3.008711 1_454
Ba0 O0 3.039502 1_555
Ba0 O2 3.039502 1_454
Ba0 O3 3.039502 1_544
Ba0 O1 3.039502 1_445
Ba0 O9 3.048396 1_454
Ba0 O8 3.048396 1_555
Ba0 O11 3.048396 1_445
Ba0 O10 3.048396 1_544
Ba1 O23 2.998951 1_555
Ba1 O21 2.998951 1_555
Ba1 O22 2.998951 1_555
Ba1 O20 2.998951 1_555
Ba1 O17 3.008193 1_555
Ba1 O16 3.008193 1_555
Ba1 O19 3.008193 1_555
Ba1 O18 3.008193 1_555
Ba1 O12 3.031595 1_555
Ba1 O13 3.031595 1_555
Ba1 O14 3.031595 1_555
Ba1 O15 3.031595 1_555
Ba2 O6 2.710171 1_545
Ba2 O4 2.710171 1_555
Ba2 O7 2.710171 1_554
Ba2 O5 2.710171 1_544
Ba2 O15 3.082453 1_544
Ba2 O14 3.082453 1_554
Ba2 O13 3.082453 1_545
Ba2 O12 3.082453 1_555
Ba3 O0 2.707414 1_555
Ba3 O2 2.707414 1_455
Ba3 O1 2.707414 1_445
Ba3 O3 2.707414 1_545
Ba3 O20 3.099981 1_555
Ba3 O23 3.099981 1_445
Ba3 O22 3.099981 1_545
Ba3 O21 3.099981 1_455
Ba3 O5 3.331318 1_545
Ba3 O7 3.331318 1_455
Ba3 O6 3.331318 1_445
Ba3 O4 3.331318 1_555
Eu0 O19 2.299914 1_555
Eu0 O3 2.301158 1_655
Eu0 O11 2.321291 1_556
Eu0 O15 2.324980 1_555
Eu0 O7 2.331502 1_565
Eu0 O23 2.331842 1_555
Eu1 O17 2.299914 1_555
Eu1 O2 2.301158 1_455
Eu1 O8 2.321291 1_556
Eu1 O14 2.324980 1_555
Eu1 O5 2.331502 1_545
Eu1 O20 2.331842 1_555
Eu2 O16 2.299914 1_555
Eu2 O1 2.301158 1_455
Eu2 O10 2.321291 1_554
Eu2 O13 2.324980 1_555
Eu2 O4 2.331502 1_565
Eu2 O22 2.331842 1_555
Eu3 O18 2.299914 1_555
Eu3 O0 2.301158 1_655
Eu3 O9 2.321291 1_554
Eu3 O12 2.324980 1_555
Eu3 O6 2.331502 1_545
Eu3 O21 2.331842 1_555
Nb0 O16 2.012423 1_555
Nb0 O0 2.014422 1_555
Nb0 O12 2.028149 1_555
Nb0 O20 2.029379 1_555
Nb0 O4 2.030025 1_555
Nb0 O8 2.035455 1_555
Nb1 O18 2.012423 1_555
Nb1 O1 2.014422 1_555
Nb1 O13 2.028149 1_555
Nb1 O23 2.029379 1_555
Nb1 O6 2.030025 1_555
Nb1 O11 2.035455 1_555
Nb2 O19 2.012423 1_555
Nb2 O2 2.014422 1_555
Nb2 O14 2.028149 1_555
Nb2 O21 2.029379 1_555
Nb2 O7 2.030025 1_555
Nb2 O9 2.035455 1_555
Nb3 O17 2.012423 1_555
Nb3 O3 2.014422 1_555
Nb3 O15 2.028149 1_555
Nb3 O22 2.029379 1_555
Nb3 O5 2.030025 1_555
Nb3 O10 2.035455 1_555
O0 Sr0 3.032856 1_555
O1 Sr0 3.032856 1_655
O2 Sr0 3.032856 1_655
O3 Sr0 3.032856 1_555
O4 Sr1 3.064370 1_555
O5 Sr1 3.064370 1_565
O6 Sr1 3.064370 1_565
O7 Sr1 3.064370 1_555
O8 Sr3 2.591671 1_555
O8 Sr2 3.045230 1_555
O9 Sr3 2.591671 1_656
O9 Sr2 3.045230 1_556
O10 Sr3 2.591671 1_556
O10 Sr2 3.045230 1_556
O11 Sr3 2.591671 1_655
O11 Sr2 3.045230 1_555
O12 Sr2 2.553162 1_555
O13 Sr2 2.553162 1_555
O14 Sr2 2.553162 1_556
O15 Sr2 2.553162 1_556
O16 Sr0 2.551316 1_555
O16 Sr3 3.103931 1_555
O17 Sr0 2.551316 1_555
O17 Sr3 3.103931 1_556
O18 Sr0 2.551316 1_655
O18 Sr3 3.103931 1_655
O19 Sr0 2.551316 1_655
O19 Sr3 3.103931 1_656
O20 Sr1 2.577043 1_555
O21 Sr1 2.577043 1_555
O22 Sr1 2.577043 1_565
O23 Sr1 2.577043 1_565
