# generated using pymatgen
data_LiGaSi
_symmetry_space_group_name_H-M   'P 1'
_cell_length_a   4.16250710
_cell_length_b   4.16250710
_cell_length_c   4.16250710
_cell_angle_alpha   60.00000000
_cell_angle_beta   60.00000000
_cell_angle_gamma   60.00000000
_symmetry_Int_Tables_number   1
_chemical_formula_structural   LiGaSi
_chemical_formula_sum   'Li1 Ga1 Si1'
_cell_volume   50.99762666
_cell_formula_units_Z   1
loop_
 _symmetry_equiv_pos_site_id
 _symmetry_equiv_pos_as_xyz
  1  'x, y, z'
loop_
 _atom_site_type_symbol
 _atom_site_label
 _atom_site_symmetry_multiplicity
 _atom_site_fract_x
 _atom_site_fract_y
 _atom_site_fract_z
 _atom_site_occupancy
  Li  Li0  1  0.00000000  0.00000000  0.00000000  1
  Ga  Ga0  1  0.75000000  0.75000000  0.75000000  1
  Si  Si0  1  0.50000000  0.50000000  0.50000000  1
loop_
_geom_bond_atom_site_label_1
_geom_bond_atom_site_label_2
_geom_bond_distance
_geom_bond_site_symmetry_2
Li0 Si0 2.943337 1_445
Li0 Si0 2.943337 1_544
Li0 Si0 2.943337 1_455
Li0 Si0 2.943337 1_545
Li0 Si0 2.943337 1_554
Li0 Si0 2.943337 1_454
Ga0 Si0 2.549005 1_556
Ga0 Li0 2.549005 1_665
Ga0 Si0 2.549005 1_555
Ga0 Li0 2.549005 1_666
Ga0 Li0 2.549005 1_566
Ga0 Li0 2.549005 1_656
Ga0 Si0 2.549005 1_655
Ga0 Si0 2.549005 1_565
