# generated using pymatgen
data_NaCaH3
_symmetry_space_group_name_H-M   'P 1'
_cell_length_a   6.11179051
_cell_length_b   6.11179051
_cell_length_c   6.11179020
_cell_angle_alpha   57.39224941
_cell_angle_beta   57.39224941
_cell_angle_gamma   57.39225342
_symmetry_Int_Tables_number   1
_chemical_formula_structural   NaCaH3
_chemical_formula_sum   'Na2 Ca2 H6'
_cell_volume   151.74470539
_cell_formula_units_Z   2
loop_
 _symmetry_equiv_pos_site_id
 _symmetry_equiv_pos_as_xyz
  1  'x, y, z'
loop_
 _atom_site_type_symbol
 _atom_site_label
 _atom_site_symmetry_multiplicity
 _atom_site_fract_x
 _atom_site_fract_y
 _atom_site_fract_z
 _atom_site_occupancy
  Na  Na0  1  0.71741000  0.71741000  0.71741000  1
  Na  Na1  1  0.21741000  0.21741000  0.21741000  1
  Ca  Ca0  1  0.49886100  0.49886100  0.49886100  1
  Ca  Ca1  1  0.99886100  0.99886100  0.99886100  1
  H  H0  1  0.80733100  0.11493500  0.38346400  1
  H  H1  1  0.11493500  0.38346400  0.80733100  1
  H  H2  1  0.38346400  0.80733100  0.11493500  1
  H  H3  1  0.30733100  0.88346400  0.61493500  1
  H  H4  1  0.88346400  0.61493500  0.30733100  1
  H  H5  1  0.61493500  0.30733100  0.88346400  1
loop_
_geom_bond_atom_site_label_1
_geom_bond_atom_site_label_2
_geom_bond_distance
_geom_bond_site_symmetry_2
Ca0 H2 2.267252 1_555
Ca0 H1 2.267252 1_555
Ca0 H0 2.267253 1_555
Ca0 H5 2.309887 1_555
Ca0 H4 2.309887 1_555
Ca0 H3 2.309887 1_555
Ca1 H3 2.267252 1_655
Ca1 H4 2.267252 1_556
Ca1 H5 2.267253 1_565
Ca1 H0 2.309887 1_566
Ca1 H1 2.309887 1_665
Ca1 H2 2.309887 1_656
H0 Na0 2.292676 1_545
H0 Na1 2.443188 1_655
H1 Na0 2.292676 1_455
H1 Na1 2.443188 1_556
H2 Na0 2.292676 1_554
H2 Na1 2.443188 1_565
H3 Na1 2.292676 1_565
H3 Na0 2.443188 1_555
H4 Na1 2.292676 1_655
H4 Na0 2.443188 1_555
H5 Na1 2.292676 1_556
H5 Na0 2.443188 1_555
