# generated using pymatgen
data_NdMgTl
_symmetry_space_group_name_H-M   'P 1'
_cell_length_a   7.70915055
_cell_length_b   7.70915055
_cell_length_c   4.73702813
_cell_angle_alpha   90.00000000
_cell_angle_beta   90.00000000
_cell_angle_gamma   119.99999801
_symmetry_Int_Tables_number   1
_chemical_formula_structural   NdMgTl
_chemical_formula_sum   'Nd3 Mg3 Tl3'
_cell_volume   243.80895774
_cell_formula_units_Z   3
loop_
 _symmetry_equiv_pos_site_id
 _symmetry_equiv_pos_as_xyz
  1  'x, y, z'
loop_
 _atom_site_type_symbol
 _atom_site_label
 _atom_site_symmetry_multiplicity
 _atom_site_fract_x
 _atom_site_fract_y
 _atom_site_fract_z
 _atom_site_occupancy
  Nd  Nd0  1  0.57442431  1.00000000  -0.00000000  1
  Nd  Nd1  1  1.00000000  0.57442431  -0.00000000  1
  Nd  Nd2  1  0.42557569  0.42557569  0.00000000  1
  Mg  Mg0  1  0.24278715  0.00000000  0.50000000  1
  Mg  Mg1  1  0.00000000  0.24278715  0.50000000  1
  Mg  Mg2  1  0.75721285  0.75721285  0.50000000  1
  Tl  Tl0  1  0.33333300  0.66666700  0.50000000  1
  Tl  Tl1  1  0.66666700  0.33333300  0.50000000  1
  Tl  Tl2  1  -0.00000000  -0.00000000  -0.00000000  1
loop_
_geom_bond_atom_site_label_1
_geom_bond_atom_site_label_2
_geom_bond_distance
_geom_bond_site_symmetry_2
Nd0 Tl2 3.280827 1_665
Nd0 Tl1 3.300245 1_564
Nd0 Tl1 3.300245 1_565
Nd0 Tl0 3.300246 1_555
Nd0 Tl0 3.300246 1_554
Nd1 Tl2 3.280827 1_665
Nd1 Tl0 3.300245 1_655
Nd1 Tl0 3.300245 1_654
Nd1 Tl1 3.300246 1_555
Nd1 Tl1 3.300246 1_554
Nd2 Tl2 3.280827 1_555
Nd2 Tl1 3.300250 1_555
Nd2 Tl1 3.300250 1_554
Nd2 Tl0 3.300250 1_555
Nd2 Tl0 3.300250 1_554
Mg0 Tl0 2.980675 1_545
Mg0 Tl1 2.980680 1_555
Mg0 Tl2 3.018784 1_556
Mg0 Tl2 3.018784 1_555
Mg1 Tl1 2.980675 1_455
Mg1 Tl0 2.980680 1_555
Mg1 Tl2 3.018784 1_556
Mg1 Tl2 3.018784 1_555
Mg2 Tl0 2.980682 1_555
Mg2 Tl1 2.980682 1_555
Mg2 Tl2 3.018784 1_666
Mg2 Tl2 3.018784 1_665
