# generated using pymatgen
data_LiV6O15
_symmetry_space_group_name_H-M   'P 1'
_cell_length_a   8.33163606
_cell_length_b   8.33163518
_cell_length_c   10.30845150
_cell_angle_alpha   69.04134477
_cell_angle_beta   110.95865313
_cell_angle_gamma   154.40532757
_symmetry_Int_Tables_number   1
_chemical_formula_structural   LiV6O15
_chemical_formula_sum   'Li1 V6 O15'
_cell_volume   287.58186557
_cell_formula_units_Z   1
loop_
 _symmetry_equiv_pos_site_id
 _symmetry_equiv_pos_as_xyz
  1  'x, y, z'
loop_
 _atom_site_type_symbol
 _atom_site_label
 _atom_site_symmetry_multiplicity
 _atom_site_fract_x
 _atom_site_fract_y
 _atom_site_fract_z
 _atom_site_occupancy
  Li  Li0  1  0.49931700  0.50068300  0.90691800  1
  V  V0  1  0.11844800  0.88155200  0.10825500  1
  V  V1  1  0.87077300  0.12922700  0.88527200  1
  V  V2  1  0.28540500  0.71459500  0.41043600  1
  V  V3  1  0.33866800  0.66133200  0.11222300  1
  V  V4  1  0.66835500  0.33164500  0.89224600  1
  V  V5  1  0.71356200  0.28643800  0.58306500  1
  O  O0  1  0.18663100  0.81336900  0.94294900  1
  O  O1  1  0.11193000  0.88807000  0.26143300  1
  O  O2  1  0.24195600  0.75804400  0.57066400  1
  O  O3  1  0.37475700  0.62524300  0.94895200  1
  O  O4  1  0.26245200  0.73754800  0.21991800  1
  O  O5  1  0.39066600  0.60933400  0.47812600  1
  O  O6  1  0.43303300  0.56696700  0.23653000  1
  O  O7  1  0.56725200  0.43274800  0.78041100  1
  O  O8  1  0.00644300  0.99355700  0.98803400  1
  O  O9  1  0.60809300  0.39190700  0.52054900  1
  O  O10  1  0.73396200  0.26603800  0.77854300  1
  O  O11  1  0.63531700  0.36468300  0.06567000  1
  O  O12  1  0.75360100  0.24639900  0.42260000  1
  O  O13  1  0.87664700  0.12335300  0.72855500  1
  O  O14  1  0.81439800  0.18560200  0.05864900  1
loop_
_geom_bond_atom_site_label_1
_geom_bond_atom_site_label_2
_geom_bond_distance
_geom_bond_site_symmetry_2
Li0 O7 1.993827 1_555
Li0 O8 2.011811 1_545
Li0 O8 2.011811 1_655
Li0 O11 2.215559 1_556
Li0 O3 2.219864 1_555
O0 V4 1.911365 1_565
O0 V4 1.911365 1_455
O0 V0 2.348686 1_556
O0 V3 2.446571 1_556
O1 V0 1.620875 1_555
O2 V5 1.917888 1_565
O2 V5 1.917889 1_455
O2 V2 2.020413 1_555
O3 V1 1.951856 1_565
O3 V1 1.951856 1_455
O3 V3 1.975016 1_556
O4 V2 1.859791 1_555
O4 V3 1.942911 1_555
O4 V0 2.196467 1_555
O5 V2 1.592758 1_555
O6 V3 1.597430 1_555
O7 V4 1.624378 1_555
O8 V0 1.787064 1_556
O8 V1 2.066150 1_465
O9 V5 1.594425 1_555
O10 V4 1.851219 1_555
O10 V5 1.918432 1_555
O10 V1 2.087648 1_555
O11 V0 1.939570 1_655
O11 V0 1.939570 1_545
O11 V4 2.046526 1_554
O12 V2 1.932912 1_545
O12 V2 1.932912 1_655
O12 V5 1.987209 1_555
O13 V1 1.652908 1_555
O14 V3 1.925242 1_545
O14 V3 1.925242 1_655
O14 V1 2.287903 1_554
O14 V4 2.363841 1_554
