# generated using pymatgen
data_Li9Mn7O16
_symmetry_space_group_name_H-M   'P 1'
_cell_length_a   5.08906900
_cell_length_b   6.96292255
_cell_length_c   8.73000918
_cell_angle_alpha   100.04307216
_cell_angle_beta   93.63544689
_cell_angle_gamma   101.06291682
_symmetry_Int_Tables_number   1
_chemical_formula_structural   Li9Mn7O16
_chemical_formula_sum   'Li9 Mn7 O16'
_cell_volume   297.43973424
_cell_formula_units_Z   1
loop_
 _symmetry_equiv_pos_site_id
 _symmetry_equiv_pos_as_xyz
  1  'x, y, z'
loop_
 _atom_site_type_symbol
 _atom_site_label
 _atom_site_symmetry_multiplicity
 _atom_site_fract_x
 _atom_site_fract_y
 _atom_site_fract_z
 _atom_site_occupancy
  Li  Li0  1  0.25800200  0.31575800  0.69298100  1
  Li  Li1  1  0.25021800  0.56173700  0.43337000  1
  Li  Li2  1  0.73195700  0.20970400  0.81448800  1
  Li  Li3  1  0.74978200  0.43826300  0.56663000  1
  Li  Li4  1  0.26022900  0.05623100  0.93846000  1
  Li  Li5  1  0.26804300  0.79029600  0.18551200  1
  Li  Li6  1  0.74199800  0.68424200  0.30701900  1
  Li  Li7  1  0.73977100  0.94376900  0.06154000  1
  Li  Li8  1  0.50000000  0.50000000  0.00000000  1
  Mn  Mn0  1  0.99974000  0.61308000  0.87758300  1
  Mn  Mn1  1  0.00026000  0.38692000  0.12241700  1
  Mn  Mn2  1  0.00366500  0.87224800  0.62758000  1
  Mn  Mn3  1  0.99633500  0.12775200  0.37242000  1
  Mn  Mn4  1  0.50425200  0.73620400  0.75627800  1
  Mn  Mn5  1  0.50000000  0.00000000  0.50000000  1
  Mn  Mn6  1  0.49574800  0.26379600  0.24372200  1
  O  O0  1  0.13937100  0.59311500  0.67330900  1
  O  O1  1  0.13834700  0.85097900  0.41977000  1
  O  O2  1  0.65151800  0.47391700  0.78915500  1
  O  O3  1  0.64098500  0.72384400  0.54975900  1
  O  O4  1  0.10379700  0.36836000  0.91279800  1
  O  O5  1  0.11713000  0.13295800  0.15795900  1
  O  O6  1  0.63840500  0.97010500  0.29256300  1
  O  O7  1  0.63874900  0.22264200  0.04454000  1
  O  O8  1  0.36159500  0.02989500  0.70743700  1
  O  O9  1  0.35901500  0.27615600  0.45024100  1
  O  O10  1  0.88287000  0.86704200  0.84204100  1
  O  O11  1  0.86165300  0.14902100  0.58023000  1
  O  O12  1  0.36125100  0.77735800  0.95546000  1
  O  O13  1  0.34848200  0.52608300  0.21084500  1
  O  O14  1  0.86062900  0.40688500  0.32669100  1
  O  O15  1  0.89620300  0.63164000  0.08720200  1
loop_
_geom_bond_atom_site_label_1
_geom_bond_atom_site_label_2
_geom_bond_distance
_geom_bond_site_symmetry_2
Li0 O4 2.118660 1_555
Li0 O2 2.132163 1_555
Li0 O0 2.161837 1_555
Li0 O8 2.176603 1_555
Li0 O9 2.195386 1_555
Li0 O11 2.199130 1_455
Li1 O13 2.021932 1_555
Li1 O14 2.134476 1_455
Li1 O3 2.177949 1_555
Li1 O0 2.188864 1_555
Li1 O9 2.190120 1_555
Li1 O1 2.215661 1_555
Li2 O2 2.005095 1_555
Li2 O4 2.049132 1_655
Li2 O7 2.083439 1_556
Li2 O8 2.110988 1_555
Li2 O11 2.184795 1_555
Li3 O2 2.021932 1_555
Li3 O0 2.134476 1_655
Li3 O9 2.177949 1_555
Li3 O14 2.188864 1_555
Li3 O3 2.190120 1_555
Li3 O11 2.215661 1_555
Li4 O8 2.099191 1_555
Li4 O7 2.110410 1_556
Li4 O5 2.111139 1_556
Li4 O12 2.128557 1_545
Li4 O10 2.137568 1_445
Li4 O4 2.493694 1_555
Li5 O13 2.005095 1_555
Li5 O15 2.049132 1_455
Li5 O12 2.083439 1_554
Li5 O6 2.110988 1_555
Li5 O1 2.184795 1_555
Li6 O15 2.118660 1_555
Li6 O13 2.132163 1_555
Li6 O14 2.161837 1_555
Li6 O6 2.176603 1_555
Li6 O3 2.195386 1_555
Li6 O1 2.199130 1_655
Li7 O6 2.099191 1_555
Li7 O12 2.110410 1_554
Li7 O10 2.111139 1_554
Li7 O7 2.128557 1_565
Li7 O5 2.137568 1_665
Li7 O15 2.493694 1_555
Li8 O2 2.032928 1_554
Li8 O13 2.032928 1_555
Li8 O15 2.082758 1_555
Li8 O4 2.082758 1_554
Li8 O7 2.264909 1_555
Li8 O12 2.264909 1_554
Mn0 O2 1.892596 1_555
Mn0 O15 1.925895 1_556
Mn0 O4 1.945969 1_655
Mn0 O0 1.953618 1_655
Mn0 O12 1.979356 1_655
Mn0 O10 2.036799 1_555
Mn1 O13 1.892596 1_555
Mn1 O4 1.925895 1_554
Mn1 O15 1.945969 1_455
Mn1 O14 1.953618 1_455
Mn1 O7 1.979356 1_455
Mn1 O5 2.036799 1_555
Mn2 O3 1.949393 1_455
Mn2 O8 1.952849 1_565
Mn2 O1 1.971272 1_555
Mn2 O10 2.011366 1_455
Mn2 O0 2.272579 1_555
Mn2 O11 2.276301 1_465
Mn3 O9 1.949393 1_655
Mn3 O6 1.952849 1_545
Mn3 O11 1.971272 1_555
Mn3 O5 2.011366 1_655
Mn3 O14 2.272579 1_555
Mn3 O1 2.276301 1_645
Mn4 O12 1.924079 1_555
Mn4 O0 1.957834 1_555
Mn4 O3 1.967247 1_555
Mn4 O10 2.002154 1_555
Mn4 O2 2.158744 1_555
Mn4 O8 2.392757 1_565
Mn5 O1 1.950573 1_545
Mn5 O11 1.950573 1_555
Mn5 O8 1.976221 1_555
Mn5 O6 1.976221 1_545
Mn5 O3 2.276424 1_545
Mn5 O9 2.276424 1_555
Mn6 O7 1.924079 1_555
Mn6 O14 1.957834 1_555
Mn6 O9 1.967247 1_555
Mn6 O5 2.002154 1_555
Mn6 O13 2.158744 1_555
Mn6 O6 2.392757 1_545
