# generated using pymatgen
data_Dy2(B2Rh3)3
_symmetry_space_group_name_H-M   'P 1'
_cell_length_a   5.56503424
_cell_length_b   5.56503424
_cell_length_c   8.52639820
_cell_angle_alpha   90.00000000
_cell_angle_beta   90.00000000
_cell_angle_gamma   120.00000355
_symmetry_Int_Tables_number   1
_chemical_formula_structural   Dy2(B2Rh3)3
_chemical_formula_sum   'Dy2 B6 Rh9'
_cell_volume   228.68196151
_cell_formula_units_Z   1
loop_
 _symmetry_equiv_pos_site_id
 _symmetry_equiv_pos_as_xyz
  1  'x, y, z'
loop_
 _atom_site_type_symbol
 _atom_site_label
 _atom_site_symmetry_multiplicity
 _atom_site_fract_x
 _atom_site_fract_y
 _atom_site_fract_z
 _atom_site_occupancy
  Dy  Dy0  1  0.00000000  0.00000000  0.70608086  1
  Dy  Dy1  1  -0.00000000  -0.00000000  0.29391914  1
  B  B0  1  0.66666700  0.33333300  0.00000000  1
  B  B1  1  0.33333300  0.66666700  0.00000000  1
  B  B2  1  0.66666700  0.33333300  0.66755418  1
  B  B3  1  0.33333300  0.66666700  0.66755418  1
  B  B4  1  0.33333300  0.66666700  0.33244582  1
  B  B5  1  0.66666700  0.33333300  0.33244582  1
  Rh  Rh0  1  0.50000000  0.50000000  0.83581334  1
  Rh  Rh1  1  0.50000000  -0.00000000  0.83581334  1
  Rh  Rh2  1  -0.00000000  0.50000000  0.83581334  1
  Rh  Rh3  1  0.50000000  0.50000000  0.16418666  1
  Rh  Rh4  1  0.50000000  0.00000000  0.16418666  1
  Rh  Rh5  1  0.00000000  0.50000000  0.16418666  1
  Rh  Rh6  1  0.50000000  0.50000000  0.50000000  1
  Rh  Rh7  1  0.50000000  -0.00000000  0.50000000  1
  Rh  Rh8  1  -0.00000000  0.50000000  0.50000000  1
loop_
_geom_bond_atom_site_label_1
_geom_bond_atom_site_label_2
_geom_bond_distance
_geom_bond_site_symmetry_2
Dy0 Rh0 2.994323 1_555
Dy0 Rh0 2.994323 1_445
Dy0 Rh2 2.994323 1_545
Dy0 Rh1 2.994323 1_455
Dy0 Rh2 2.994323 1_555
Dy0 Rh1 2.994323 1_555
Dy1 Rh3 2.994323 1_445
Dy1 Rh3 2.994323 1_555
Dy1 Rh4 2.994323 1_455
Dy1 Rh5 2.994323 1_545
Dy1 Rh5 2.994323 1_555
Dy1 Rh4 2.994323 1_555
B0 Rh5 2.130862 1_655
B0 Rh1 2.130862 1_554
B0 Rh4 2.130862 1_555
B0 Rh2 2.130862 1_654
B0 Rh0 2.130866 1_554
B0 Rh3 2.130866 1_555
B1 Rh1 2.130862 1_564
B1 Rh5 2.130862 1_555
B1 Rh4 2.130862 1_565
B1 Rh2 2.130862 1_554
B1 Rh0 2.130866 1_554
B1 Rh3 2.130866 1_555
B2 Rh8 2.149835 1_655
B2 Rh7 2.149835 1_555
B2 Rh6 2.149838 1_555
B2 Rh1 2.153834 1_555
B2 Rh2 2.153834 1_655
B2 Rh0 2.153838 1_555
B3 Rh7 2.149835 1_565
B3 Rh8 2.149835 1_555
B3 Rh6 2.149838 1_555
B3 Rh1 2.153834 1_565
B3 Rh2 2.153834 1_555
B3 Rh0 2.153838 1_555
B4 Rh7 2.149835 1_565
B4 Rh8 2.149835 1_555
B4 Rh6 2.149838 1_555
B4 Rh4 2.153834 1_565
B4 Rh5 2.153834 1_555
B4 Rh3 2.153838 1_555
B5 Rh8 2.149835 1_655
B5 Rh7 2.149835 1_555
B5 Rh6 2.149838 1_555
B5 Rh4 2.153834 1_555
B5 Rh5 2.153834 1_655
B5 Rh3 2.153838 1_555
