# generated using pymatgen
data_K2TlCl5O2
_symmetry_space_group_name_H-M   'P 1'
_cell_length_a   8.06286357
_cell_length_b   10.21056395
_cell_length_c   12.82528900
_cell_angle_alpha   90.00000000
_cell_angle_beta   90.00000000
_cell_angle_gamma   96.32555895
_symmetry_Int_Tables_number   1
_chemical_formula_structural   K2TlCl5O2
_chemical_formula_sum   'K8 Tl4 Cl20 O8'
_cell_volume   1049.43149530
_cell_formula_units_Z   4
loop_
 _symmetry_equiv_pos_site_id
 _symmetry_equiv_pos_as_xyz
  1  'x, y, z'
loop_
 _atom_site_type_symbol
 _atom_site_label
 _atom_site_symmetry_multiplicity
 _atom_site_fract_x
 _atom_site_fract_y
 _atom_site_fract_z
 _atom_site_occupancy
  K  K0  1  0.48324200  0.41701800  0.18331800  1
  K  K1  1  0.01675800  0.58298200  0.68331800  1
  K  K2  1  0.51675800  0.58298200  0.81668200  1
  K  K3  1  0.98324200  0.41701800  0.31668200  1
  K  K4  1  0.58077300  0.03705100  0.84646600  1
  K  K5  1  0.91922700  0.96294900  0.34646600  1
  K  K6  1  0.41922700  0.96294900  0.15353400  1
  K  K7  1  0.08077300  0.03705100  0.65353400  1
  Tl  Tl0  1  0.54979400  0.21030800  0.49972500  1
  Tl  Tl1  1  0.95020600  0.78969200  0.99972500  1
  Tl  Tl2  1  0.45020700  0.78969200  0.50027500  1
  Tl  Tl3  1  0.04979300  0.21030800  0.00027500  1
  Cl  Cl0  1  0.80375400  0.00299200  0.05875100  1
  Cl  Cl1  1  0.69624600  0.99700800  0.55875100  1
  Cl  Cl2  1  0.19624600  0.99700800  0.94124900  1
  Cl  Cl3  1  0.30375400  0.00299200  0.44124900  1
  Cl  Cl4  1  0.82631600  0.36642700  0.04413800  1
  Cl  Cl5  1  0.67368400  0.63357300  0.54413800  1
  Cl  Cl6  1  0.17368400  0.63357300  0.95586200  1
  Cl  Cl7  1  0.32631600  0.36642700  0.45586200  1
  Cl  Cl8  1  0.33721200  0.34048600  0.95248100  1
  Cl  Cl9  1  0.16278800  0.65951400  0.45248100  1
  Cl  Cl10  1  0.66278800  0.65951400  0.04751900  1
  Cl  Cl11  1  0.83721200  0.34048600  0.54751900  1
  Cl  Cl12  1  0.92565600  0.22210200  0.81304700  1
  Cl  Cl13  1  0.57434400  0.77789800  0.31304700  1
  Cl  Cl14  1  0.07434400  0.77789800  0.18695300  1
  Cl  Cl15  1  0.42565600  0.22210200  0.68695300  1
  Cl  Cl16  1  0.15380000  0.19117000  0.19021300  1
  Cl  Cl17  1  0.34620000  0.80883000  0.69021300  1
  Cl  Cl18  1  0.84620000  0.80883000  0.80978700  1
  Cl  Cl19  1  0.65380000  0.19117000  0.30978700  1
  O  O0  1  0.55214900  0.20270500  0.02733800  1
  O  O1  1  0.94785100  0.79729500  0.52733800  1
  O  O2  1  0.44785100  0.79729500  0.97266200  1
  O  O3  1  0.05214900  0.20270500  0.47266200  1
  O  O4  1  0.80459300  0.43408400  0.83786900  1
  O  O5  1  0.69540700  0.56591600  0.33786900  1
  O  O6  1  0.19540700  0.56591600  0.16213100  1
  O  O7  1  0.30459300  0.43408400  0.66213100  1
loop_
_geom_bond_atom_site_label_1
_geom_bond_atom_site_label_2
_geom_bond_distance
_geom_bond_site_symmetry_2
K0 O6 2.923821 1_555
K0 O5 2.931489 1_555
K0 O0 3.060556 1_555
K1 O7 2.923821 1_555
K1 O4 2.931489 1_455
K1 O1 3.060556 1_455
K2 O4 2.923821 1_555
K2 O7 2.931489 1_555
K2 O2 3.060556 1_555
K3 O5 2.923821 1_555
K3 O6 2.931489 1_655
K3 O3 3.060556 1_655
K4 O0 2.895058 1_556
K4 O2 3.030336 1_545
K5 O1 2.895058 1_555
K5 O3 3.030336 1_665
K6 O2 2.895058 1_554
K6 O0 3.030336 1_565
K7 O3 2.895058 1_555
K7 O1 3.030336 1_445
Cl0 Tl1 2.697671 1_544
Cl0 Tl3 2.837851 1_655
Cl0 K4 3.302071 1_554
Cl0 K6 3.313303 1_545
Cl1 Tl0 2.697671 1_565
Cl1 Tl2 2.837851 1_555
Cl1 K5 3.302071 1_555
Cl1 K7 3.313303 1_665
Cl2 Tl3 2.697675 1_566
Cl2 Tl1 2.837856 1_455
Cl2 K6 3.302071 1_556
Cl2 K4 3.313303 1_565
Cl3 Tl2 2.697675 1_545
Cl3 Tl0 2.837856 1_555
Cl3 K7 3.302071 1_555
Cl3 K5 3.313303 1_445
Cl4 Tl3 2.595601 1_655
Cl4 K0 3.379297 1_555
Cl4 K3 3.733891 1_555
Cl5 Tl2 2.595601 1_555
Cl5 K1 3.379297 1_655
Cl5 K2 3.733891 1_555
Cl6 Tl1 2.595607 1_455
Cl6 K2 3.379297 1_555
Cl6 K1 3.733891 1_555
Cl7 Tl0 2.595607 1_555
Cl7 K3 3.379297 1_455
Cl7 K0 3.733891 1_555
Cl8 Tl3 2.614223 1_556
Cl8 K2 3.235726 1_555
Cl8 K0 3.249473 1_556
Cl9 Tl2 2.614223 1_555
Cl9 K3 3.235726 1_455
Cl9 K1 3.249473 1_555
Cl10 Tl1 2.614216 1_554
Cl10 K0 3.235726 1_555
Cl10 K2 3.249473 1_554
Cl11 Tl0 2.614216 1_555
Cl11 K1 3.235726 1_655
Cl11 K3 3.249473 1_555
Cl12 Tl3 2.609383 1_656
Cl12 K7 3.136936 1_655
Cl12 K4 3.213811 1_555
Cl13 Tl2 2.609383 1_555
Cl13 K6 3.136936 1_555
Cl13 K5 3.213811 1_555
Cl14 Tl1 2.609386 1_454
Cl14 K5 3.136936 1_455
Cl14 K6 3.213811 1_555
Cl15 Tl0 2.609386 1_555
Cl15 K4 3.136936 1_555
Cl15 K7 3.213811 1_555
Cl16 Tl3 2.590691 1_555
Cl16 K3 3.246324 1_455
Cl16 K0 3.321370 1_555
Cl16 K6 3.366063 1_545
Cl16 K5 3.471609 1_445
Cl17 Tl2 2.590691 1_555
Cl17 K2 3.246324 1_555
Cl17 K1 3.321370 1_555
Cl17 K7 3.366063 1_565
Cl17 K4 3.471609 1_565
Cl18 Tl1 2.590688 1_555
Cl18 K1 3.246324 1_655
Cl18 K2 3.321370 1_555
Cl18 K4 3.366063 1_565
Cl18 K7 3.471609 1_665
Cl19 Tl0 2.590688 1_555
Cl19 K0 3.246324 1_555
Cl19 K3 3.321370 1_555
Cl19 K5 3.366063 1_545
Cl19 K6 3.471609 1_545
