# generated using pymatgen
data_Li7Mn2(CoO4)3
_symmetry_space_group_name_H-M   'P 1'
_cell_length_a   2.94839300
_cell_length_b   5.96897500
_cell_length_c   12.53593362
_cell_angle_alpha   76.81276582
_cell_angle_beta   90.00000000
_cell_angle_gamma   90.00000000
_symmetry_Int_Tables_number   1
_chemical_formula_structural   Li7Mn2(CoO4)3
_chemical_formula_sum   'Li7 Mn2 Co3 O12'
_cell_volume   214.80068093
_cell_formula_units_Z   1
loop_
 _symmetry_equiv_pos_site_id
 _symmetry_equiv_pos_as_xyz
  1  'x, y, z'
loop_
 _atom_site_type_symbol
 _atom_site_label
 _atom_site_symmetry_multiplicity
 _atom_site_fract_x
 _atom_site_fract_y
 _atom_site_fract_z
 _atom_site_occupancy
  Li  Li0  1  0.00000000  0.16300200  0.65780900  1
  Li  Li1  1  0.50000000  0.99044000  0.50478200  1
  Li  Li2  1  0.00000000  0.83425900  0.33877600  1
  Li  Li3  1  0.50000000  0.66332000  0.17225000  1
  Li  Li4  1  0.00000000  0.49570500  0.00533700  1
  Li  Li5  1  0.50000000  0.34770400  0.82077800  1
  Li  Li6  1  0.00000000  0.67670900  0.65991100  1
  Mn  Mn0  1  0.00000000  0.99879100  0.00100000  1
  Mn  Mn1  1  0.50000000  0.83030000  0.82410400  1
  Co  Co0  1  0.50000000  0.50679500  0.50661800  1
  Co  Co1  1  0.00000000  0.32622700  0.33642800  1
  Co  Co2  1  0.50000000  0.16863600  0.17332700  1
  O  O0  1  0.00000000  0.72717000  0.50084300  1
  O  O1  1  0.50000000  0.56746900  0.35026000  1
  O  O2  1  0.00000000  0.41809300  0.17549700  1
  O  O3  1  0.50000000  0.22345800  0.99372100  1
  O  O4  1  0.00000000  0.05311600  0.83743100  1
  O  O5  1  0.50000000  0.91348800  0.67789100  1
  O  O6  1  0.00000000  0.61101000  0.83496600  1
  O  O7  1  0.50000000  0.42267000  0.64964000  1
  O  O8  1  0.00000000  0.26628200  0.49425400  1
  O  O9  1  0.50000000  0.09195800  0.33639400  1
  O  O10  1  0.00000000  0.92683300  0.15400300  1
  O  O11  1  0.50000000  0.77656500  0.99398100  1
loop_
_geom_bond_atom_site_label_1
_geom_bond_atom_site_label_2
_geom_bond_distance
_geom_bond_site_symmetry_2
Li0 O8 2.001780 1_555
Li0 O5 2.069711 1_445
Li0 O5 2.069711 1_545
Li0 O7 2.124540 1_455
Li0 O7 2.124540 1_555
Li0 O4 2.196958 1_555
Li1 O9 2.058997 1_565
Li1 O5 2.113160 1_555
Li1 O0 2.163460 1_555
Li1 O0 2.163460 1_655
Li1 O8 2.191453 1_565
Li1 O8 2.191453 1_665
Li2 O0 1.985875 1_555
Li2 O9 2.125852 1_565
Li2 O9 2.125852 1_465
Li2 O1 2.150655 1_555
Li2 O1 2.150655 1_455
Li2 O10 2.255350 1_555
Li3 O2 2.071305 1_655
Li3 O2 2.071305 1_555
Li3 O10 2.129657 1_555
Li3 O10 2.129657 1_655
Li3 O1 2.173590 1_555
Li3 O11 2.182170 1_554
Li4 O2 2.076995 1_555
Li4 O6 2.089132 1_554
Li4 O11 2.212488 1_554
Li4 O11 2.212488 1_454
Li4 O3 2.223324 1_454
Li4 O3 2.223324 1_554
Li5 O7 2.089222 1_555
Li5 O3 2.125237 1_555
Li5 O6 2.191477 1_655
Li5 O6 2.191477 1_555
Li5 O4 2.267439 1_555
Li5 O4 2.267439 1_655
Li6 O0 1.947557 1_555
Li6 O5 2.089714 1_455
Li6 O5 2.089714 1_555
Li6 O6 2.139361 1_555
Li6 O7 2.139682 1_455
Li6 O7 2.139682 1_555
Mn0 O10 1.867474 1_555
Mn0 O3 1.980938 1_564
Mn0 O3 1.980938 1_464
Mn0 O11 1.998437 1_554
Mn0 O11 1.998437 1_454
Mn0 O4 2.001570 1_564
Mn1 O5 1.786303 1_555
Mn1 O6 1.955451 1_555
Mn1 O6 1.955451 1_655
Mn1 O4 2.017772 1_665
Mn1 O4 2.017772 1_565
Mn1 O11 2.079971 1_555
Co0 O7 1.748116 1_555
Co0 O1 1.910297 1_555
Co0 O0 1.966051 1_555
Co0 O0 1.966051 1_655
Co0 O8 2.088013 1_555
Co0 O8 2.088013 1_655
Co1 O8 1.928593 1_555
Co1 O2 1.966195 1_555
Co1 O9 2.031969 1_455
Co1 O9 2.031969 1_555
Co1 O1 2.095412 1_555
Co1 O1 2.095412 1_455
Co2 O9 1.990310 1_555
Co2 O2 2.099906 1_555
Co2 O2 2.099906 1_655
Co2 O10 2.115331 1_545
Co2 O10 2.115331 1_645
Co2 O3 2.200068 1_554
