# generated using pymatgen
data_Li5Ni9P7
_symmetry_space_group_name_H-M   'P 1'
_cell_length_a   8.94042189
_cell_length_b   8.94019155
_cell_length_c   3.61351923
_cell_angle_alpha   89.99999457
_cell_angle_beta   90.00000236
_cell_angle_gamma   119.99821714
_symmetry_Int_Tables_number   1
_chemical_formula_structural   Li5Ni9P7
_chemical_formula_sum   'Li5 Ni9 P7'
_cell_volume   250.13452565
_cell_formula_units_Z   1
loop_
 _symmetry_equiv_pos_site_id
 _symmetry_equiv_pos_as_xyz
  1  'x, y, z'
loop_
 _atom_site_type_symbol
 _atom_site_label
 _atom_site_symmetry_multiplicity
 _atom_site_fract_x
 _atom_site_fract_y
 _atom_site_fract_z
 _atom_site_occupancy
  Li  Li0  1  0.88680765  0.78491006  0.50000015  1
  Li  Li1  1  0.89809242  0.11320273  0.50000012  1
  Li  Li2  1  0.21509004  0.10189530  0.49999976  1
  Li  Li3  1  0.33334355  0.66668309  -0.00000003  1
  Li  Li4  1  0.66668017  0.33334824  0.49999890  1
  Ni  Ni0  1  0.71109526  0.88031422  0.00000039  1
  Ni  Ni1  1  0.16928483  0.28894804  0.00000022  1
  Ni  Ni2  1  0.11962816  0.83071033  0.00000005  1
  Ni  Ni3  1  0.62670260  0.57126081  0.00000030  1
  Ni  Ni4  1  0.94467281  0.37337212  -0.00000039  1
  Ni  Ni5  1  0.42868014  0.05537508  -0.00000007  1
  Ni  Ni6  1  0.56211814  0.95365051  0.50000033  1
  Ni  Ni7  1  0.39155969  0.43789638  0.49999997  1
  Ni  Ni8  1  0.04630668  0.60846623  0.50000013  1
  P  P0  1  0.58615453  0.71324293  0.50000026  1
  P  P1  1  0.12711715  0.41389063  0.50000002  1
  P  P2  1  0.28670897  0.87284828  0.50000002  1
  P  P3  1  0.00001939  0.00001147  -0.00000000  1
  P  P4  1  0.87785673  0.57657439  -0.00000010  1
  P  P5  1  0.69869816  0.12211019  0.00000007  1
  P  P6  1  0.42338192  0.30128797  -0.00000010  1
loop_
_geom_bond_atom_site_label_1
_geom_bond_atom_site_label_2
_geom_bond_distance
_geom_bond_site_symmetry_2
Li0 P0 2.431778 1_555
Li0 P3 2.457770 1_666
Li0 P3 2.457770 1_665
Li0 P4 2.567269 1_556
Li0 P4 2.567270 1_555
Li0 Ni8 2.602126 1_655
Li0 Ni2 2.629160 1_656
Li0 Ni2 2.629160 1_655
Li0 Ni0 2.792770 1_555
Li0 Ni0 2.792771 1_556
Li0 Ni3 2.806942 1_555
Li0 Ni3 2.806942 1_556
Li1 P1 2.432081 1_655
Li1 P3 2.457834 1_656
Li1 P3 2.457835 1_655
Li1 P5 2.567213 1_556
Li1 P5 2.567213 1_555
Li1 Ni6 2.602464 1_545
Li1 Ni0 2.629397 1_545
Li1 Ni0 2.629398 1_546
Li1 Ni1 2.793264 1_655
Li1 Ni1 2.793264 1_656
Li1 Ni4 2.807013 1_556
Li1 Ni4 2.807015 1_555
Li2 P2 2.431925 1_545
Li2 P3 2.457633 1_555
Li2 P3 2.457635 1_556
Li2 P6 2.567197 1_555
Li2 P6 2.567198 1_556
Li2 Ni7 2.602618 1_555
Li2 Ni1 2.629338 1_555
Li2 Ni1 2.629340 1_556
Li2 Ni2 2.793142 1_545
Li2 Ni2 2.793144 1_546
Li2 Ni5 2.806781 1_555
Li2 Ni5 2.806782 1_556
Li3 P2 2.757511 1_554
Li3 P2 2.757512 1_555
Li3 P1 2.757677 1_554
Li3 P1 2.757677 1_555
Li3 P0 2.757813 1_554
Li3 P0 2.757814 1_555
Li3 Ni1 2.933029 1_555
Li3 Ni2 2.933088 1_555
Li3 Ni0 2.933210 1_555
Li3 Ni6 2.963559 1_554
Li3 Ni6 2.963561 1_555
Li3 Ni7 2.963688 1_555
Li3 Ni7 2.963689 1_554
Li3 Ni8 2.963989 1_554
Li3 Ni8 2.963990 1_555
Li3 Ni4 3.136795 1_455
Li3 Ni5 3.136918 1_565
Li3 Ni3 3.137505 1_555
Li4 P4 2.729855 1_555
Li4 P4 2.729860 1_556
Li4 P5 2.730080 1_555
Li4 P5 2.730085 1_556
Li4 P6 2.730300 1_555
Li4 P6 2.730305 1_556
Li4 Ni3 2.945564 1_555
Li4 Ni3 2.945570 1_556
Li4 Ni4 2.946219 1_555
Li4 Ni4 2.946222 1_556
Li4 Ni5 2.946225 1_555
Li4 Ni5 2.946230 1_556
Li4 Ni8 3.036699 1_655
Li4 Ni7 3.036877 1_555
Li4 Ni6 3.037078 1_545
Ni0 P5 2.219194 1_565
Ni0 P3 2.247999 1_665
Ni0 P0 2.252722 1_555
Ni0 P0 2.252723 1_554
Ni0 Ni3 2.473630 1_555
Ni0 Ni6 2.518226 1_555
Ni0 Ni6 2.518226 1_554
Ni1 P6 2.218636 1_555
Ni1 P3 2.248081 1_555
Ni1 P1 2.252844 1_555
Ni1 P1 2.252845 1_554
Ni1 Ni4 2.473425 1_455
Ni1 Ni7 2.518052 1_555
Ni1 Ni7 2.518053 1_554
Ni2 P4 2.218905 1_455
Ni2 P3 2.247871 1_565
Ni2 P2 2.252765 1_555
Ni2 P2 2.252765 1_554
Ni2 Ni5 2.473723 1_565
Ni2 Ni8 2.517834 1_554
Ni2 Ni8 2.517834 1_555
Ni3 P6 2.177763 1_555
Ni3 P4 2.222054 1_555
Ni3 P0 2.338199 1_555
Ni3 P0 2.338199 1_554
Ni4 P4 2.177677 1_555
Ni4 P5 2.223159 1_555
Ni4 P1 2.337808 1_654
Ni4 P1 2.337810 1_655
Ni5 P5 2.177958 1_555
Ni5 P6 2.222570 1_555
Ni5 P2 2.338199 1_544
Ni5 P2 2.338199 1_545
Ni6 P2 2.192263 1_555
Ni6 P0 2.264393 1_555
Ni6 P5 2.276997 1_566
Ni6 P5 2.276998 1_565
Ni7 P0 2.191812 1_555
Ni7 P1 2.264566 1_555
Ni7 P6 2.276918 1_556
Ni7 P6 2.276919 1_555
Ni8 P1 2.191964 1_555
Ni8 P2 2.264144 1_555
Ni8 P4 2.276923 1_456
Ni8 P4 2.276924 1_455
