# generated using pymatgen
data_Dy4Ni3Bi8
_symmetry_space_group_name_H-M   'P 1'
_cell_length_a   4.55033300
_cell_length_b   4.55033300
_cell_length_c   18.67198600
_cell_angle_alpha   90.00000000
_cell_angle_beta   90.00000000
_cell_angle_gamma   90.00000000
_symmetry_Int_Tables_number   1
_chemical_formula_structural   Dy4Ni3Bi8
_chemical_formula_sum   'Dy4 Ni3 Bi8'
_cell_volume   386.61337395
_cell_formula_units_Z   1
loop_
 _symmetry_equiv_pos_site_id
 _symmetry_equiv_pos_as_xyz
  1  'x, y, z'
loop_
 _atom_site_type_symbol
 _atom_site_label
 _atom_site_symmetry_multiplicity
 _atom_site_fract_x
 _atom_site_fract_y
 _atom_site_fract_z
 _atom_site_occupancy
  Dy  Dy0  1  0.50000000  0.00000000  0.38601600  1
  Dy  Dy1  1  0.50000000  0.00000000  0.88649300  1
  Dy  Dy2  1  0.00000000  0.50000000  0.11350700  1
  Dy  Dy3  1  0.00000000  0.50000000  0.61398400  1
  Ni  Ni0  1  0.50000000  0.50000000  0.50000000  1
  Ni  Ni1  1  0.00000000  0.00000000  0.00000000  1
  Ni  Ni2  1  0.00000000  0.00000000  0.50000000  1
  Bi  Bi0  1  0.50000000  0.00000000  0.06985600  1
  Bi  Bi1  1  0.50000000  0.00000000  0.57409200  1
  Bi  Bi2  1  0.00000000  0.50000000  0.42590800  1
  Bi  Bi3  1  0.00000000  0.50000000  0.93014400  1
  Bi  Bi4  1  0.50000000  0.50000000  0.24984500  1
  Bi  Bi5  1  0.50000000  0.50000000  0.75015500  1
  Bi  Bi6  1  0.00000000  0.00000000  0.24976200  1
  Bi  Bi7  1  0.00000000  0.00000000  0.75023800  1
loop_
_geom_bond_atom_site_label_1
_geom_bond_atom_site_label_2
_geom_bond_distance
_geom_bond_site_symmetry_2
Dy0 Ni2 3.115458 1_555
Dy0 Ni0 3.115458 1_555
Dy0 Ni2 3.115458 1_655
Dy0 Ni0 3.115458 1_545
Dy1 Ni1 3.109380 1_656
Dy1 Ni1 3.109380 1_556
Dy2 Ni1 3.109380 1_555
Dy2 Ni1 3.109380 1_565
Dy3 Ni2 3.115458 1_555
Dy3 Ni2 3.115458 1_565
Dy3 Ni0 3.115458 1_555
Dy3 Ni0 3.115458 1_455
Bi0 Ni1 2.622539 1_555
Bi0 Ni1 2.622539 1_655
Bi0 Dy2 3.319198 1_645
Bi0 Dy2 3.319198 1_555
Bi0 Dy2 3.319198 1_545
Bi0 Dy2 3.319198 1_655
Bi0 Dy1 3.423751 1_554
Bi1 Ni2 2.662762 1_555
Bi1 Ni0 2.662762 1_555
Bi1 Ni0 2.662762 1_545
Bi1 Ni2 2.662762 1_655
Bi1 Dy3 3.302663 1_655
Bi1 Dy3 3.302663 1_645
Bi1 Dy3 3.302663 1_555
Bi1 Dy3 3.302663 1_545
Bi2 Ni2 2.662762 1_555
Bi2 Ni2 2.662762 1_565
Bi2 Ni0 2.662762 1_455
Bi2 Ni0 2.662762 1_555
Bi2 Dy0 3.302663 1_455
Bi2 Dy0 3.302663 1_565
Bi2 Dy0 3.302663 1_465
Bi2 Dy0 3.302663 1_555
Bi3 Ni1 2.622539 1_566
Bi3 Ni1 2.622539 1_556
Bi3 Dy1 3.319198 1_455
Bi3 Dy1 3.319198 1_565
Bi3 Dy1 3.319198 1_465
Bi3 Dy1 3.319198 1_555
Bi3 Dy2 3.423751 1_556
Bi4 Bi6 3.217572 1_555
Bi4 Bi6 3.217572 1_565
Bi4 Bi6 3.217572 1_655
Bi4 Bi6 3.217572 1_665
Bi4 Dy0 3.411907 1_565
Bi4 Dy0 3.411907 1_555
Bi4 Dy2 3.414232 1_655
Bi4 Dy2 3.414232 1_555
Bi5 Bi7 3.217572 1_555
Bi5 Bi7 3.217572 1_665
Bi5 Bi7 3.217572 1_565
Bi5 Bi7 3.217572 1_655
Bi5 Dy3 3.411907 1_655
Bi5 Dy3 3.411907 1_555
Bi5 Dy1 3.414232 1_565
Bi5 Dy1 3.414232 1_555
Bi6 Dy0 3.413062 1_455
Bi6 Dy0 3.413062 1_555
Bi6 Dy2 3.413076 1_555
Bi6 Dy2 3.413076 1_545
Bi7 Dy3 3.413062 1_555
Bi7 Dy3 3.413062 1_545
Bi7 Dy1 3.413076 1_555
Bi7 Dy1 3.413076 1_455
