# generated using pymatgen
data_Ba4Tl13Hg3
_symmetry_space_group_name_H-M   'P 1'
_cell_length_a   6.80093004
_cell_length_b   6.80093004
_cell_length_c   19.75889001
_cell_angle_alpha   80.09381845
_cell_angle_beta   80.09381845
_cell_angle_gamma   45.10390336
_symmetry_Int_Tables_number   1
_chemical_formula_structural   Ba4Tl13Hg3
_chemical_formula_sum   'Ba4 Tl13 Hg3'
_cell_volume   636.06489156
_cell_formula_units_Z   1
loop_
 _symmetry_equiv_pos_site_id
 _symmetry_equiv_pos_as_xyz
  1  'x, y, z'
loop_
 _atom_site_type_symbol
 _atom_site_label
 _atom_site_symmetry_multiplicity
 _atom_site_fract_x
 _atom_site_fract_y
 _atom_site_fract_z
 _atom_site_occupancy
  Ba  Ba0  1  0.68525714  0.68525714  0.14667917  1
  Ba  Ba1  1  0.18485443  0.18485443  0.64805312  1
  Ba  Ba2  1  0.81664957  0.81664957  0.35468612  1
  Ba  Ba3  1  0.31372483  0.31372483  0.85148404  1
  Tl  Tl0  1  0.52772677  0.52772677  0.33049727  1
  Tl  Tl1  1  0.02480528  0.02480528  0.82618007  1
  Tl  Tl2  1  0.97982764  0.97982764  0.17131863  1
  Tl  Tl3  1  0.47318353  0.47318353  0.67341802  1
  Tl  Tl4  1  0.11103858  0.11103858  0.44064324  1
  Tl  Tl5  1  0.60397564  0.60397564  0.93903700  1
  Tl  Tl6  1  0.38965445  0.38965445  0.05806586  1
  Tl  Tl7  1  0.89459698  0.89459698  0.56057644  1
  Tl  Tl8  1  0.37521994  0.37521994  0.47557665  1
  Tl  Tl9  1  0.87704373  0.87704373  0.97267585  1
  Tl  Tl10  1  0.12767272  0.12767272  0.02384634  1
  Tl  Tl11  1  0.62398695  0.62398695  0.52690358  1
  Tl  Tl12  1  0.36283135  0.36283135  0.22083491  1
  Hg  Hg0  1  0.86376483  0.86376483  0.72105475  1
  Hg  Hg1  1  0.12980432  0.12980432  0.27977258  1
  Hg  Hg2  1  0.63438130  0.63438130  0.77869635  1
loop_
_geom_bond_atom_site_label_1
_geom_bond_atom_site_label_2
_geom_bond_distance
_geom_bond_site_symmetry_2
Ba0 Tl2 3.637506 1_455
Ba0 Tl2 3.637506 1_545
Ba0 Hg1 3.677188 1_655
Ba0 Hg1 3.677188 1_565
Ba0 Tl10 3.724390 1_655
Ba0 Tl10 3.724390 1_565
Ba0 Tl0 3.798672 1_555
Ba0 Tl9 3.812982 1_554
Ba0 Tl2 3.821070 1_555
Ba0 Tl6 3.845324 1_655
Ba0 Tl6 3.845324 1_565
Ba0 Tl12 3.891477 1_565
Ba0 Tl12 3.891477 1_655
Ba0 Tl12 4.042318 1_555
Ba1 Hg2 3.641279 1_455
Ba1 Hg2 3.641279 1_545
Ba1 Tl3 3.691610 1_455
Ba1 Tl3 3.691610 1_545
Ba1 Tl1 3.713939 1_555
Ba1 Tl11 3.714824 1_545
Ba1 Tl11 3.714824 1_455
Ba1 Tl3 3.747769 1_555
Ba1 Tl8 3.781050 1_555
Ba1 Tl7 3.877619 1_545
Ba1 Tl7 3.877619 1_455
Ba1 Hg0 3.891339 1_545
Ba1 Hg0 3.891339 1_455
Ba1 Hg0 4.022658 1_445
Ba2 Tl12 3.682780 1_565
Ba2 Tl12 3.682780 1_655
Ba2 Tl0 3.686458 1_565
Ba2 Tl0 3.686458 1_655
Ba2 Tl8 3.702028 1_565
Ba2 Tl8 3.702028 1_655
Ba2 Tl0 3.747942 1_555
Ba2 Tl11 3.790554 1_555
Ba2 Tl2 3.816009 1_555
Ba2 Tl4 3.837260 1_655
Ba2 Tl4 3.837260 1_565
Ba2 Hg1 3.936527 1_665
Ba2 Hg1 3.974606 1_565
Ba2 Hg1 3.974606 1_655
Ba3 Hg0 3.638194 1_545
Ba3 Hg0 3.638194 1_455
Ba3 Tl1 3.686457 1_655
Ba3 Tl1 3.686457 1_565
Ba3 Tl3 3.710219 1_555
Ba3 Tl9 3.725543 1_545
Ba3 Tl9 3.725543 1_455
Ba3 Tl10 3.754400 1_556
Ba3 Tl1 3.754744 1_555
Ba3 Tl5 3.878151 1_455
Ba3 Tl5 3.878151 1_545
Ba3 Hg2 3.892840 1_545
Ba3 Hg2 3.892840 1_455
Ba3 Hg2 4.016840 1_555
Tl0 Tl8 3.137126 1_555
Tl0 Tl12 3.264628 1_555
Tl1 Tl9 3.134049 1_445
Tl4 Tl7 3.256933 1_445
Tl4 Tl8 3.513235 1_555
Tl5 Tl6 3.228088 1_556
Tl5 Tl9 3.613526 1_555
Tl6 Tl9 3.126432 1_544
Tl6 Tl9 3.126432 1_454
Tl7 Tl8 3.136161 1_565
Tl7 Tl8 3.136161 1_655
Tl10 Tl5 3.144166 1_454
Tl10 Tl5 3.144166 1_544
Tl10 Tl2 3.150199 1_445
Tl10 Tl6 3.480879 1_555
Tl10 Tl9 3.481414 1_444
Tl11 Tl4 3.136555 1_565
Tl11 Tl4 3.136555 1_655
Tl11 Tl3 3.150594 1_555
Tl11 Tl8 3.460428 1_555
Tl11 Tl7 3.583405 1_555
Tl12 Tl2 3.063448 1_455
Tl12 Tl2 3.063448 1_545
Tl12 Tl6 3.170699 1_555
Hg0 Hg2 2.894360 1_555
Hg0 Tl3 3.016025 1_655
Hg0 Tl3 3.016025 1_565
Hg0 Tl7 3.122003 1_555
Hg0 Tl1 3.157913 1_665
Hg1 Tl12 2.941907 1_555
Hg1 Tl0 2.995526 1_545
Hg1 Tl0 2.995526 1_455
Hg1 Tl2 3.105736 1_445
Hg1 Tl4 3.143258 1_555
Hg2 Tl1 3.016126 1_565
Hg2 Tl1 3.016126 1_655
Hg2 Tl5 3.119656 1_555
Hg2 Tl3 3.161770 1_555
