# generated using pymatgen
data_NdSeF
_symmetry_space_group_name_H-M   'P 1'
_cell_length_a   4.03636881
_cell_length_b   4.03636881
_cell_length_c   7.15778862
_cell_angle_alpha   90.00000000
_cell_angle_beta   90.00000000
_cell_angle_gamma   90.00000000
_symmetry_Int_Tables_number   1
_chemical_formula_structural   NdSeF
_chemical_formula_sum   'Nd2 Se2 F2'
_cell_volume   116.61664749
_cell_formula_units_Z   2
loop_
 _symmetry_equiv_pos_site_id
 _symmetry_equiv_pos_as_xyz
  1  'x, y, z'
loop_
 _atom_site_type_symbol
 _atom_site_label
 _atom_site_symmetry_multiplicity
 _atom_site_fract_x
 _atom_site_fract_y
 _atom_site_fract_z
 _atom_site_occupancy
  Nd  Nd0  1  0.75000000  0.75000000  0.78335847  1
  Nd  Nd1  1  0.25000000  0.25000000  0.21664153  1
  Se  Se0  1  0.25000000  0.25000000  0.64730468  1
  Se  Se1  1  0.75000000  0.75000000  0.35269532  1
  F  F0  1  0.75000000  0.25000000  0.00000000  1
  F  F1  1  0.25000000  0.75000000  0.00000000  1
loop_
_geom_bond_atom_site_label_1
_geom_bond_atom_site_label_2
_geom_bond_distance
_geom_bond_site_symmetry_2
Nd0 Se0 3.015710 1_565
Nd0 Se0 3.015710 1_555
Nd0 Se0 3.015710 1_655
Nd0 Se0 3.015710 1_665
Nd0 Se1 3.082596 1_555
Nd1 Se1 3.015710 1_445
Nd1 Se1 3.015710 1_455
Nd1 Se1 3.015710 1_555
Nd1 Se1 3.015710 1_545
Nd1 Se0 3.082596 1_555
F0 Nd1 2.545125 1_655
F0 Nd1 2.545125 1_555
F0 Nd0 2.545125 1_554
F0 Nd0 2.545125 1_544
F1 Nd0 2.545125 1_454
F1 Nd1 2.545125 1_555
F1 Nd0 2.545125 1_554
F1 Nd1 2.545125 1_565
