# generated using pymatgen
data_Sm(BRu)4
_symmetry_space_group_name_H-M   'P 1'
_cell_length_a   9.20149136
_cell_length_b   9.20149918
_cell_length_c   9.20105425
_cell_angle_alpha   131.96152499
_cell_angle_beta   131.96146286
_cell_angle_gamma   70.29516088
_symmetry_Int_Tables_number   1
_chemical_formula_structural   Sm(BRu)4
_chemical_formula_sum   'Sm4 B16 Ru16'
_cell_volume   422.15830485
_cell_formula_units_Z   4
loop_
 _symmetry_equiv_pos_site_id
 _symmetry_equiv_pos_as_xyz
  1  'x, y, z'
loop_
 _atom_site_type_symbol
 _atom_site_label
 _atom_site_symmetry_multiplicity
 _atom_site_fract_x
 _atom_site_fract_y
 _atom_site_fract_z
 _atom_site_occupancy
  Sm  Sm0  1  0.25001923  0.24999398  -0.00000644  1
  Sm  Sm1  1  0.74999493  0.75003509  0.00000784  1
  Sm  Sm2  1  0.49997638  -0.00000064  0.50000003  1
  Sm  Sm3  1  0.00001110  0.49997328  0.50000116  1
  B  B0  1  0.22386887  0.91463965  0.97560386  1
  B  B1  1  0.72384112  0.74827129  0.30917302  1
  B  B2  1  0.16464401  0.97387440  0.47560653  1
  B  B3  1  0.66467575  0.18908303  0.19080649  1
  B  B4  1  0.52612833  0.33535933  0.52439399  1
  B  B5  1  0.02616149  0.50173258  0.19083156  1
  B  B6  1  0.58535506  0.27612365  0.02439274  1
  B  B7  1  0.08532343  0.06091301  0.30918851  1
  B  B8  1  0.43908138  0.41467150  0.69080897  1
  B  B9  1  0.93903021  0.24825620  0.02440290  1
  B  B10  1  0.99827483  0.47384413  0.80917228  1
  B  B11  1  0.49825951  0.68903523  0.52440250  1
  B  B12  1  0.31091545  0.83532880  0.80918719  1
  B  B13  1  0.81097219  0.00174024  0.47559675  1
  B  B14  1  0.75172863  0.77615824  0.69083102  1
  B  B15  1  0.25173741  0.56096822  0.97559847  1
  Ru  Ru0  1  0.54211878  0.07304862  0.23823336  1
  Ru  Ru1  1  0.04213850  0.80388786  0.46910170  1
  Ru  Ru2  1  0.32303323  0.29209619  0.73823477  1
  Ru  Ru3  1  0.82302354  0.08476472  0.03091031  1
  Ru  Ru4  1  0.20787388  0.17694019  0.26175240  1
  Ru  Ru5  1  0.70786950  0.44611899  0.03090891  1
  Ru  Ru6  1  0.42695821  0.95789670  0.76175562  1
  Ru  Ru7  1  0.92698110  0.16522330  0.46908443  1
  Ru  Ru8  1  0.33477778  0.57304541  0.53090965  1
  Ru  Ru9  1  0.83484791  0.30390328  0.76181437  1
  Ru  Ru10  1  0.05386719  0.79212248  0.96910012  1
  Ru  Ru11  1  0.55388923  0.58482988  0.26181488  1
  Ru  Ru12  1  0.41521179  0.67696195  0.96908827  1
  Ru  Ru13  1  0.91516256  0.94609211  0.73819101  1
  Ru  Ru14  1  0.69613810  0.45788505  0.53090704  1
  Ru  Ru15  1  0.19610941  0.66518207  0.23819376  1
loop_
_geom_bond_atom_site_label_1
_geom_bond_atom_site_label_2
_geom_bond_distance
_geom_bond_site_symmetry_2
B0 B12 1.808393 1_555
B0 Ru4 2.135373 1_566
B0 Ru10 2.166845 1_555
B0 Ru13 2.217569 1_455
B0 Ru0 2.290114 1_566
B0 Ru12 2.292512 1_555
B0 Sm3 2.978056 1_555
B0 Sm0 3.022029 1_566
B0 Sm2 3.199574 1_566
B1 B13 1.808461 1_565
B1 Ru5 2.135398 1_555
B1 Ru11 2.166908 1_555
B1 Ru12 2.216848 1_554
B1 Ru1 2.290323 1_655
B1 Ru13 2.292155 1_555
B1 Sm2 2.978531 1_565
B1 Sm1 3.021591 1_555
B1 Sm3 3.200477 1_655
B2 B7 1.808314 1_565
B2 Ru6 2.135332 1_555
B2 Ru1 2.166635 1_555
B2 Ru15 2.217536 1_555
B2 Ru2 2.289848 1_565
B2 Ru7 2.292439 1_465
B2 Sm1 2.977942 1_455
B2 Sm2 3.021715 1_565
B2 Sm0 3.199419 1_566
B3 B6 1.808296 1_555
B3 Ru7 2.135372 1_555
B3 Ru0 2.166837 1_555
B3 Ru14 2.216968 1_555
B3 Ru3 2.289925 1_555
B3 Ru6 2.292294 1_544
B3 Sm0 2.978277 1_555
B3 Sm3 3.021293 1_655
B3 Sm1 3.199868 1_545
B4 B8 1.808379 1_555
B4 Ru0 2.135437 1_555
B4 Ru14 2.166900 1_555
B4 Ru9 2.217667 1_555
B4 Ru4 2.290156 1_555
B4 Ru8 2.292597 1_555
B4 Sm1 2.978128 1_556
B4 Sm2 3.022061 1_555
B4 Sm0 3.199579 1_555
B5 B9 1.808507 1_455
B5 Ru1 2.135413 1_555
B5 Ru15 2.166910 1_555
B5 Ru8 2.216767 1_555
B5 Ru5 2.290291 1_455
B5 Ru9 2.292151 1_454
B5 Sm0 2.978546 1_555
B5 Sm3 3.021582 1_555
B5 Sm1 3.200485 1_455
B6 Ru2 2.135370 1_554
B6 Ru5 2.166684 1_555
B6 Ru11 2.217630 1_555
B6 Ru6 2.289892 1_544
B6 Ru3 2.292521 1_555
B6 Sm3 2.978003 1_655
B6 Sm0 3.021728 1_555
B6 Sm2 3.199440 1_554
B7 Ru3 2.135320 1_455
B7 Ru4 2.166809 1_555
B7 Ru10 2.216905 1_544
B7 Ru7 2.289893 1_455
B7 Ru2 2.292263 1_555
B7 Sm2 2.978255 1_555
B7 Sm1 3.021222 1_445
B7 Sm3 3.199932 1_555
B8 Ru12 2.135384 1_555
B8 Ru2 2.167068 1_555
B8 Ru5 2.216999 1_556
B8 Ru8 2.290203 1_555
B8 Ru4 2.292352 1_555
B8 Sm2 2.978379 1_555
B8 Sm1 3.021606 1_556
B8 Sm3 3.199994 1_555
B9 Ru13 2.135580 1_544
B9 Ru3 2.166776 1_555
B9 Ru4 2.217372 1_655
B9 Ru9 2.290136 1_554
B9 Ru5 2.292511 1_555
B9 Sm3 2.977890 1_655
B9 Sm0 3.022306 1_655
B9 Sm2 3.199573 1_554
B10 B15 1.808382 1_655
B10 Ru14 2.135361 1_555
B10 Ru9 2.166719 1_555
B10 Ru7 2.216854 1_555
B10 Ru10 2.290114 1_655
B10 Ru15 2.292147 1_656
B10 Sm0 2.978418 1_656
B10 Sm3 3.021317 1_655
B10 Sm1 3.200408 1_556
B11 B14 1.808425 1_555
B11 Ru15 2.135545 1_555
B11 Ru8 2.166580 1_555
B11 Ru6 2.217365 1_555
B11 Ru11 2.289924 1_555
B11 Ru14 2.292512 1_555
B11 Sm1 2.977829 1_556
B11 Sm2 3.021963 1_565
B11 Sm0 3.199506 1_555
B12 Ru8 2.135322 1_555
B12 Ru6 2.167019 1_555
B12 Ru1 2.216926 1_555
B12 Ru12 2.290171 1_555
B12 Ru0 2.292291 1_566
B12 Sm0 2.978331 1_566
B12 Sm3 3.021541 1_555
B12 Sm1 3.200034 1_556
B13 Ru9 2.135570 1_555
B13 Ru7 2.166761 1_555
B13 Ru0 2.217420 1_555
B13 Ru13 2.290165 1_545
B13 Ru1 2.292490 1_645
B13 Sm1 2.977853 1_545
B13 Sm2 3.022339 1_555
B13 Sm0 3.199528 1_656
B14 Ru10 2.135366 1_655
B14 Ru13 2.166704 1_555
B14 Ru3 2.216766 1_566
B14 Ru14 2.290080 1_555
B14 Ru11 2.292120 1_555
B14 Sm2 2.978408 1_565
B14 Sm1 3.021315 1_556
B14 Sm3 3.200391 1_655
B15 Ru11 2.135552 1_556
B15 Ru12 2.166570 1_555
B15 Ru2 2.217413 1_555
B15 Ru15 2.289948 1_556
B15 Ru10 2.292495 1_555
B15 Sm3 2.977804 1_555
B15 Sm0 3.022012 1_556
B15 Sm2 3.199446 1_566
Ru0 Sm0 2.936494 1_555
Ru0 Sm2 3.161144 1_555
Ru0 Sm1 3.218394 1_545
Ru1 Sm1 2.936586 1_455
Ru1 Sm3 3.161157 1_555
Ru1 Sm0 3.218039 1_566
Ru2 Sm2 2.936446 1_555
Ru2 Sm0 3.160564 1_556
Ru2 Sm3 3.218460 1_555
Ru3 Sm3 2.936392 1_655
Ru3 Sm1 3.160372 1_545
Ru3 Sm2 3.218289 1_554
Ru4 Sm2 2.936505 1_555
Ru4 Sm0 3.161124 1_555
Ru4 Sm3 3.218450 1_555
Ru5 Sm3 2.936568 1_655
Ru5 Sm1 3.161173 1_555
Ru5 Sm2 3.218139 1_554
Ru6 Sm0 2.936433 1_566
Ru6 Sm2 3.160567 1_565
Ru6 Sm1 3.218469 1_556
Ru7 Sm1 2.936267 1_545
Ru7 Sm3 3.160470 1_655
Ru7 Sm0 3.218259 1_656
Ru8 Sm1 2.936449 1_556
Ru8 Sm3 3.160860 1_555
Ru8 Sm0 3.218354 1_555
Ru9 Sm0 2.936488 1_656
Ru9 Sm2 3.161228 1_555
Ru9 Sm1 3.218746 1_556
Ru10 Sm3 2.936603 1_555
Ru10 Sm1 3.160652 1_456
Ru10 Sm2 3.218072 1_566
Ru11 Sm2 2.936482 1_565
Ru11 Sm0 3.160728 1_555
Ru11 Sm3 3.218688 1_655
Ru12 Sm3 2.936349 1_555
Ru12 Sm1 3.160942 1_556
Ru12 Sm2 3.218301 1_566
Ru13 Sm2 2.936585 1_565
Ru13 Sm0 3.161163 1_666
Ru13 Sm3 3.218647 1_655
Ru14 Sm1 2.936612 1_556
Ru14 Sm3 3.160649 1_655
Ru14 Sm0 3.218148 1_555
Ru15 Sm0 2.936602 1_555
Ru15 Sm2 3.160644 1_565
Ru15 Sm1 3.218629 1_455
