# generated using pymatgen
data_Pr3OsBr3
_symmetry_space_group_name_H-M   'P 1'
_cell_length_a   10.47581634
_cell_length_b   10.47558757
_cell_length_c   10.47639497
_cell_angle_alpha   109.47103226
_cell_angle_beta   109.47244937
_cell_angle_gamma   109.46912506
_symmetry_Int_Tables_number   1
_chemical_formula_structural   Pr3OsBr3
_chemical_formula_sum   'Pr12 Os4 Br12'
_cell_volume   885.03795405
_cell_formula_units_Z   4
loop_
 _symmetry_equiv_pos_site_id
 _symmetry_equiv_pos_as_xyz
  1  'x, y, z'
loop_
 _atom_site_type_symbol
 _atom_site_label
 _atom_site_symmetry_multiplicity
 _atom_site_fract_x
 _atom_site_fract_y
 _atom_site_fract_z
 _atom_site_occupancy
  Pr  Pr0  1  0.46932093  0.48465952  0.23466608  1
  Pr  Pr1  1  0.74997570  0.23463827  0.26532898  1
  Pr  Pr2  1  0.74997679  0.01534662  0.48463985  1
  Pr  Pr3  1  0.23465499  0.46928448  0.48463710  1
  Pr  Pr4  1  0.26535036  0.75001689  0.23467185  1
  Pr  Pr5  1  0.03071653  0.26535266  0.01536073  1
  Pr  Pr6  1  0.01535241  0.03069200  0.26533348  1
  Pr  Pr7  1  0.48465234  0.75001164  0.01535347  1
  Pr  Pr8  1  0.48466010  0.23465540  0.46931597  1
  Pr  Pr9  1  0.01535457  0.48464624  0.75000787  1
  Pr  Pr10  1  0.26534194  0.01533554  0.03067237  1
  Pr  Pr11  1  0.23464821  0.26536364  0.75000699  1
  Os  Os0  1  0.25000528  0.25000107  0.24999724  1
  Os  Os1  1  0.49998954  -0.00000270  0.24999407  1
  Os  Os2  1  0.00000448  0.25000270  0.50000350  1
  Os  Os3  1  0.25000425  0.50000173  0.00000367  1
  Br  Br0  1  0.25003468  0.75623868  0.74387229  1
  Br  Br1  1  0.51241708  0.50620181  0.75618388  1
  Br  Br2  1  0.98768227  0.74386303  0.99384780  1
  Br  Br3  1  0.74374907  0.24996284  0.75615059  1
  Br  Br4  1  0.99381744  0.98760236  0.74384753  1
  Br  Br5  1  0.25004245  0.99380765  0.50616318  1
  Br  Br6  1  0.75612126  0.51233492  0.50615164  1
  Br  Br7  1  0.50618611  0.24996751  0.99384600  1
  Br  Br8  1  0.75615240  0.74380793  0.24998655  1
  Br  Br9  1  0.74377978  0.99379890  0.98761490  1
  Br  Br10  1  0.99382426  0.50620062  0.24998552  1
  Br  Br11  1  0.50618477  0.75620705  0.51235690  1
loop_
_geom_bond_atom_site_label_1
_geom_bond_atom_site_label_2
_geom_bond_distance
_geom_bond_site_symmetry_2
Os0 Pr5 2.844390 1_555
Os0 Pr3 2.844398 1_555
Os0 Pr6 2.844525 1_555
Os0 Pr0 2.844559 1_555
Os0 Pr8 2.844624 1_555
Os0 Pr10 2.844688 1_555
Os1 Pr2 2.844427 1_555
Os1 Pr7 2.844469 1_545
Os1 Pr1 2.844481 1_555
Os1 Pr4 2.844500 1_545
Os1 Pr10 2.844546 1_555
Os1 Pr8 2.844577 1_555
Os2 Pr11 2.844470 1_555
Os2 Pr3 2.844550 1_555
Os2 Pr9 2.844554 1_555
Os2 Pr2 2.844671 1_455
Os2 Pr6 2.844731 1_555
Os2 Pr1 2.844771 1_455
Os3 Pr11 2.844440 1_554
Os3 Pr9 2.844485 1_554
Os3 Pr5 2.844508 1_555
Os3 Pr7 2.844584 1_555
Os3 Pr0 2.844654 1_555
Os3 Pr4 2.844764 1_555
Br0 Pr7 3.115169 1_556
Br0 Pr9 3.115677 1_555
Br0 Pr10 3.220604 1_566
Br0 Pr3 3.221927 1_555
Br1 Pr3 3.115606 1_555
Br1 Pr11 3.115843 1_555
Br1 Pr8 3.221045 1_555
Br1 Pr7 3.221573 1_556
Br2 Pr10 3.115005 1_666
Br2 Pr4 3.115185 1_656
Br2 Pr6 3.220900 1_666
Br2 Pr9 3.221408 1_655
Br3 Pr2 3.115397 1_555
Br3 Pr9 3.115843 1_655
Br3 Pr8 3.220767 1_555
Br3 Pr5 3.221810 1_656
Br4 Pr5 3.115442 1_666
Br4 Pr11 3.115841 1_665
Br4 Pr10 3.220756 1_666
Br4 Pr2 3.221824 1_565
Br5 Pr8 3.115076 1_565
Br5 Pr6 3.115614 1_565
Br5 Pr4 3.220597 1_555
Br5 Pr11 3.221825 1_565
Br6 Pr8 3.115001 1_555
Br6 Pr1 3.115434 1_555
Br6 Pr0 3.220675 1_555
Br6 Pr9 3.221691 1_655
Br7 Pr10 3.114997 1_556
Br7 Pr0 3.115464 1_556
Br7 Pr1 3.220642 1_556
Br7 Pr11 3.221673 1_555
Br8 Pr7 3.115198 1_555
Br8 Pr2 3.115408 1_565
Br8 Pr0 3.220981 1_555
Br8 Pr6 3.221449 1_665
Br9 Pr1 3.115396 1_566
Br9 Pr6 3.115621 1_666
Br9 Pr7 3.220995 1_556
Br9 Pr5 3.221552 1_666
Br10 Pr5 3.115419 1_655
Br10 Pr3 3.115608 1_655
Br10 Pr4 3.220983 1_655
Br10 Pr1 3.221577 1_555
Br11 Pr4 3.115179 1_555
Br11 Pr0 3.115467 1_555
Br11 Pr2 3.220950 1_565
Br11 Pr3 3.221460 1_555
