# generated using pymatgen
data_MgMnTe4
_symmetry_space_group_name_H-M   'P 1'
_cell_length_a   7.02093100
_cell_length_b   7.01881500
_cell_length_c   7.03449771
_cell_angle_alpha   89.94114443
_cell_angle_beta   90.00000000
_cell_angle_gamma   90.00000000
_symmetry_Int_Tables_number   1
_chemical_formula_structural   MgMnTe4
_chemical_formula_sum   'Mg2 Mn2 Te8'
_cell_volume   346.65012729
_cell_formula_units_Z   2
loop_
 _symmetry_equiv_pos_site_id
 _symmetry_equiv_pos_as_xyz
  1  'x, y, z'
loop_
 _atom_site_type_symbol
 _atom_site_label
 _atom_site_symmetry_multiplicity
 _atom_site_fract_x
 _atom_site_fract_y
 _atom_site_fract_z
 _atom_site_occupancy
  Mg  Mg0  1  0.50000000  0.00000000  0.50000000  1
  Mg  Mg1  1  0.00000000  0.50000000  0.50000000  1
  Mn  Mn0  1  0.50000000  0.50000000  0.00000000  1
  Mn  Mn1  1  0.00000000  0.00000000  0.00000000  1
  Te  Te0  1  0.88108100  0.61851000  0.89049800  1
  Te  Te1  1  0.38108100  0.88149000  0.10950200  1
  Te  Te2  1  0.11173300  0.11193100  0.62076700  1
  Te  Te3  1  0.61173300  0.38806900  0.37923300  1
  Te  Te4  1  0.11891900  0.38149000  0.10950200  1
  Te  Te5  1  0.61891900  0.11851000  0.89049800  1
  Te  Te6  1  0.88826700  0.88806900  0.37923300  1
  Te  Te7  1  0.38826700  0.61193100  0.62076700  1
loop_
_geom_bond_atom_site_label_1
_geom_bond_atom_site_label_2
_geom_bond_distance
_geom_bond_site_symmetry_2
Mg0 Te3 2.958268 1_555
Mg0 Te7 2.958268 1_545
Mg0 Te2 2.961644 1_555
Mg0 Te6 2.961644 1_545
Mg0 Te1 2.989892 1_545
Mg0 Te5 2.989892 1_555
Mg1 Te6 2.958268 1_455
Mg1 Te2 2.958268 1_555
Mg1 Te7 2.961644 1_555
Mg1 Te3 2.961644 1_455
Mg1 Te4 2.989892 1_555
Mg1 Te0 2.989892 1_455
Mn0 Te3 2.888769 1_555
Mn0 Te7 2.888769 1_554
Mn0 Te4 2.905590 1_555
Mn0 Te0 2.905590 1_554
Mn0 Te5 2.909341 1_554
Mn0 Te1 2.909341 1_555
Mn1 Te6 2.888769 1_445
Mn1 Te2 2.888769 1_554
Mn1 Te1 2.905590 1_545
Mn1 Te5 2.905590 1_454
Mn1 Te4 2.909341 1_555
Mn1 Te0 2.909341 1_444
Te0 Te4 2.814973 1_656
Te1 Te5 2.814973 1_564
Te2 Te6 2.796911 1_445
Te3 Te7 2.796911 1_555
