# generated using pymatgen
data_CaP2W2O9
_symmetry_space_group_name_H-M   'P 1'
_cell_length_a   6.77747400
_cell_length_b   7.44016400
_cell_length_c   15.14450300
_cell_angle_alpha   90.00000000
_cell_angle_beta   90.00000000
_cell_angle_gamma   90.00000000
_symmetry_Int_Tables_number   1
_chemical_formula_structural   CaP2W2O9
_chemical_formula_sum   'Ca4 P8 W8 O36'
_cell_volume   763.66940962
_cell_formula_units_Z   4
loop_
 _symmetry_equiv_pos_site_id
 _symmetry_equiv_pos_as_xyz
  1  'x, y, z'
loop_
 _atom_site_type_symbol
 _atom_site_label
 _atom_site_symmetry_multiplicity
 _atom_site_fract_x
 _atom_site_fract_y
 _atom_site_fract_z
 _atom_site_occupancy
  Ca  Ca0  1  0.75000000  0.39828600  0.27797200  1
  Ca  Ca1  1  0.75000000  0.10171400  0.77797200  1
  Ca  Ca2  1  0.25000000  0.89828600  0.22202800  1
  Ca  Ca3  1  0.25000000  0.60171400  0.72202800  1
  P  P0  1  0.25000000  0.87025200  0.42706300  1
  P  P1  1  0.75000000  0.12974800  0.57293700  1
  P  P2  1  0.75000000  0.37025200  0.07293700  1
  P  P3  1  0.25000000  0.62974800  0.92706300  1
  P  P4  1  0.75000000  0.89795300  0.19045200  1
  P  P5  1  0.75000000  0.60204700  0.69045200  1
  P  P6  1  0.25000000  0.39795300  0.30954800  1
  P  P7  1  0.25000000  0.10204700  0.80954800  1
  W  W0  1  0.75000000  0.86767100  0.37613300  1
  W  W1  1  0.25000000  0.13232900  0.62386700  1
  W  W2  1  0.25000000  0.36767100  0.12386700  1
  W  W3  1  0.75000000  0.63232900  0.87613300  1
  W  W4  1  0.50000000  0.50000000  0.50000000  1
  W  W5  1  0.50000000  0.00000000  0.00000000  1
  W  W6  1  0.00000000  0.00000000  0.00000000  1
  W  W7  1  0.00000000  0.50000000  0.50000000  1
  O  O0  1  0.05811600  0.10030000  0.86560600  1
  O  O1  1  0.55811600  0.89970000  0.13439400  1
  O  O2  1  0.94188400  0.60030000  0.63439400  1
  O  O3  1  0.44188400  0.39970000  0.36560600  1
  O  O4  1  0.94188400  0.89970000  0.13439400  1
  O  O5  1  0.44188400  0.10030000  0.86560600  1
  O  O6  1  0.05811600  0.39970000  0.36560600  1
  O  O7  1  0.55811600  0.60030000  0.63439400  1
  O  O8  1  0.25000000  0.81753400  0.97643400  1
  O  O9  1  0.75000000  0.18246600  0.02356600  1
  O  O10  1  0.75000000  0.31753400  0.52356600  1
  O  O11  1  0.25000000  0.68246600  0.47643400  1
  O  O12  1  0.75000000  0.61797300  0.43814500  1
  O  O13  1  0.25000000  0.38202700  0.56185500  1
  O  O14  1  0.25000000  0.11797300  0.06185500  1
  O  O15  1  0.75000000  0.88202700  0.93814500  1
  O  O16  1  0.75000000  0.72562300  0.24959900  1
  O  O17  1  0.25000000  0.27437700  0.75040100  1
  O  O18  1  0.25000000  0.22562300  0.25040100  1
  O  O19  1  0.75000000  0.77437700  0.74959900  1
  O  O20  1  0.42950100  0.62382800  0.86338300  1
  O  O21  1  0.92950100  0.37617200  0.13661700  1
  O  O22  1  0.57049900  0.12382800  0.63661700  1
  O  O23  1  0.07049900  0.87617200  0.36338300  1
  O  O24  1  0.57049900  0.37617200  0.13661700  1
  O  O25  1  0.07049900  0.62382800  0.86338300  1
  O  O26  1  0.42950100  0.87617200  0.36338300  1
  O  O27  1  0.92950100  0.12382800  0.63661700  1
  O  O28  1  0.75000000  0.98237100  0.50509500  1
  O  O29  1  0.25000000  0.55749700  0.24111400  1
  O  O30  1  0.25000000  0.94250300  0.74111400  1
  O  O31  1  0.75000000  0.05749700  0.25888600  1
  O  O32  1  0.75000000  0.51762900  0.00509500  1
  O  O33  1  0.25000000  0.48237100  0.99490500  1
  O  O34  1  0.25000000  0.01762900  0.49490500  1
  O  O35  1  0.75000000  0.44250300  0.75888600  1
loop_
_geom_bond_atom_site_label_1
_geom_bond_atom_site_label_2
_geom_bond_distance
_geom_bond_site_symmetry_2
Ca0 O21 2.467775 1_555
Ca0 O24 2.467775 1_555
Ca0 O16 2.473057 1_555
Ca0 O6 2.474324 1_655
Ca0 O3 2.474324 1_555
Ca0 O31 2.551948 1_555
Ca0 O12 2.925035 1_555
Ca1 O27 2.467775 1_555
Ca1 O22 2.467775 1_555
Ca1 O19 2.473057 1_545
Ca1 O0 2.474324 1_655
Ca1 O5 2.474324 1_555
Ca1 O35 2.551948 1_555
Ca1 O15 2.925035 1_545
Ca2 O26 2.467775 1_555
Ca2 O23 2.467775 1_555
Ca2 O18 2.473057 1_565
Ca2 O1 2.474324 1_555
Ca2 O4 2.474324 1_455
Ca2 O29 2.551948 1_555
Ca2 O14 2.925035 1_565
Ca3 O20 2.467775 1_555
Ca3 O25 2.467775 1_555
Ca3 O17 2.473057 1_555
Ca3 O7 2.474324 1_555
Ca3 O2 2.474324 1_455
Ca3 O30 2.551948 1_555
Ca3 O13 2.925035 1_555
O0 P7 1.553123 1_555
O0 W6 2.203315 1_556
O1 P4 1.553123 1_555
O1 W5 2.203315 1_565
O2 P5 1.553123 1_555
O2 W7 2.203315 1_655
O3 P6 1.553123 1_555
O3 W4 2.203315 1_555
O4 P4 1.553123 1_555
O4 W6 2.203315 1_665
O5 P7 1.553123 1_555
O5 W5 2.203315 1_556
O6 P6 1.553123 1_555
O6 W7 2.203315 1_555
O7 P5 1.553123 1_555
O7 W4 2.203315 1_555
O8 P3 1.584647 1_555
O8 W5 2.200290 1_566
O8 W6 2.200290 1_566
O9 P2 1.584647 1_555
O9 W5 2.200290 1_555
O9 W6 2.200290 1_655
O10 P1 1.584647 1_555
O10 W7 2.200290 1_655
O10 W4 2.200290 1_555
O11 P0 1.584647 1_555
O11 W4 2.200290 1_555
O11 W7 2.200290 1_555
O12 W0 2.081678 1_555
O12 W7 2.125755 1_655
O12 W4 2.125755 1_555
O13 W1 2.081678 1_555
O13 W7 2.125755 1_555
O13 W4 2.125755 1_555
O14 W2 2.081678 1_555
O14 W6 2.125755 1_555
O14 W5 2.125755 1_555
O15 W3 2.081678 1_555
O15 W5 2.125755 1_566
O15 W6 2.125755 1_666
O16 P4 1.564070 1_555
O16 W0 2.188410 1_555
O17 P7 1.564070 1_555
O17 W1 2.188410 1_555
O18 P6 1.564070 1_555
O18 W2 2.188410 1_555
O19 P5 1.564070 1_555
O19 W3 2.188410 1_555
O20 P3 1.553074 1_555
O20 W3 2.181656 1_555
O21 P2 1.553074 1_555
O21 W2 2.181656 1_655
O22 P1 1.553074 1_555
O22 W1 2.181656 1_555
O23 P0 1.553074 1_555
O23 W0 2.181656 1_455
O24 P2 1.553074 1_555
O24 W2 2.181656 1_555
O25 P3 1.553074 1_555
O25 W3 2.181656 1_455
O26 P0 1.553074 1_555
O26 W0 2.181656 1_555
O27 P1 1.553074 1_555
O27 W1 2.181656 1_655
O28 P1 1.502648 1_565
O28 W0 2.131369 1_555
O29 P6 1.575808 1_555
O29 W2 2.268836 1_555
O30 P7 1.575808 1_565
O30 W1 2.268836 1_565
O31 P4 1.575808 1_545
O31 W0 2.268836 1_545
O32 P2 1.502648 1_555
O32 W3 2.131369 1_554
O33 P3 1.502648 1_555
O33 W2 2.131369 1_556
O34 P0 1.502648 1_545
O34 W1 2.131369 1_555
O35 P5 1.575808 1_555
O35 W3 2.268836 1_555
