# generated using pymatgen
data_Pm3Np
_symmetry_space_group_name_H-M   'P 1'
_cell_length_a   7.16674008
_cell_length_b   7.16674008
_cell_length_c   5.74027000
_cell_angle_alpha   90.00000000
_cell_angle_beta   90.00000000
_cell_angle_gamma   120.00000078
_symmetry_Int_Tables_number   1
_chemical_formula_structural   Pm3Np
_chemical_formula_sum   'Pm6 Np2'
_cell_volume   255.33259387
_cell_formula_units_Z   2
loop_
 _symmetry_equiv_pos_site_id
 _symmetry_equiv_pos_as_xyz
  1  'x, y, z'
loop_
 _atom_site_type_symbol
 _atom_site_label
 _atom_site_symmetry_multiplicity
 _atom_site_fract_x
 _atom_site_fract_y
 _atom_site_fract_z
 _atom_site_occupancy
  Pm  Pm0  1  0.83078000  0.16922000  0.75000000  1
  Pm  Pm1  1  0.33843900  0.16922000  0.75000000  1
  Pm  Pm2  1  0.83078000  0.66156100  0.75000000  1
  Pm  Pm3  1  0.16922000  0.83078000  0.25000000  1
  Pm  Pm4  1  0.66156100  0.83078000  0.25000000  1
  Pm  Pm5  1  0.16922000  0.33843900  0.25000000  1
  Np  Np0  1  0.66666700  0.33333300  0.25000000  1
  Np  Np1  1  0.33333300  0.66666700  0.75000000  1
loop_
_geom_bond_atom_site_label_1
_geom_bond_atom_site_label_2
_geom_bond_distance
_geom_bond_site_symmetry_2
Pm0 Pm2 3.528480 1_555
Pm0 Pm1 3.528480 1_555
Pm0 Pm5 3.556684 1_655
Pm0 Pm5 3.556684 1_656
Pm0 Pm4 3.556684 1_546
Pm0 Pm4 3.556684 1_545
Pm0 Pm1 3.638260 1_655
Pm0 Pm2 3.638260 1_545
Pm1 Pm2 3.528480 1_555
Pm1 Pm5 3.556677 1_556
Pm1 Pm5 3.556677 1_555
Pm1 Pm3 3.556684 1_546
Pm1 Pm3 3.556684 1_545
Pm1 Pm2 3.638260 1_445
Pm2 Pm4 3.556677 1_555
Pm2 Pm4 3.556677 1_556
Pm2 Pm3 3.556684 1_656
Pm2 Pm3 3.556684 1_655
Pm3 Pm4 3.528480 1_555
Pm3 Pm5 3.528480 1_555
Pm3 Pm5 3.638260 1_565
Pm3 Pm4 3.638260 1_455
Pm4 Pm5 3.528480 1_555
Pm4 Pm5 3.638260 1_665
Np0 Pm0 3.519616 1_555
Np0 Pm0 3.519616 1_554
Np0 Pm1 3.519623 1_554
Np0 Pm2 3.519623 1_554
Np0 Pm2 3.519623 1_555
Np0 Pm1 3.519623 1_555
Np0 Pm3 3.583510 1_545
Np0 Pm3 3.583510 1_655
Np0 Pm5 3.583510 1_655
Np0 Pm4 3.583510 1_545
Np0 Pm5 3.583510 1_555
Np0 Pm4 3.583510 1_555
Np1 Pm3 3.519616 1_555
Np1 Pm3 3.519616 1_556
Np1 Pm5 3.519623 1_555
Np1 Pm4 3.519623 1_556
Np1 Pm5 3.519623 1_556
Np1 Pm4 3.519623 1_555
Np1 Pm0 3.583510 1_455
Np1 Pm0 3.583510 1_565
Np1 Pm1 3.583510 1_565
Np1 Pm2 3.583510 1_455
Np1 Pm1 3.583510 1_555
Np1 Pm2 3.583510 1_555
