# generated using pymatgen
data_NdInPd
_symmetry_space_group_name_H-M   'P 1'
_cell_length_a   8.14768709
_cell_length_b   8.14768709
_cell_length_c   3.84178931
_cell_angle_alpha   89.45952494
_cell_angle_beta   89.45952494
_cell_angle_gamma   59.29863223
_symmetry_Int_Tables_number   1
_chemical_formula_structural   NdInPd
_chemical_formula_sum   'Nd3 In3 Pd3'
_cell_volume   219.27763078
_cell_formula_units_Z   3
loop_
 _symmetry_equiv_pos_site_id
 _symmetry_equiv_pos_as_xyz
  1  'x, y, z'
loop_
 _atom_site_type_symbol
 _atom_site_label
 _atom_site_symmetry_multiplicity
 _atom_site_fract_x
 _atom_site_fract_y
 _atom_site_fract_z
 _atom_site_occupancy
  Nd  Nd0  1  0.28061600  0.71938400  0.50000000  1
  Nd  Nd1  1  0.71892000  0.00108700  0.49646000  1
  Nd  Nd2  1  0.99891300  0.28108000  0.50354000  1
  In  In0  1  0.38302300  0.99799300  0.99584700  1
  In  In1  1  0.61832000  0.38168000  0.00000000  1
  In  In2  1  0.00200700  0.61697700  0.00415300  1
  Pd  Pd0  1  0.99940900  0.00059100  0.00000000  1
  Pd  Pd1  1  0.66494200  0.66952800  0.48388800  1
  Pd  Pd2  1  0.33047200  0.33505800  0.51611200  1
loop_
_geom_bond_atom_site_label_1
_geom_bond_atom_site_label_2
_geom_bond_distance
_geom_bond_site_symmetry_2
Nd0 Pd2 2.944869 1_555
Nd0 Pd1 2.944869 1_555
Nd0 Pd0 2.971273 1_466
Nd0 Pd0 2.971273 1_465
Nd1 Pd2 2.938071 1_555
Nd1 Pd1 2.951198 1_545
Nd1 Pd0 2.961256 1_555
Nd1 Pd0 3.006472 1_556
Nd2 Pd1 2.938071 1_555
Nd2 Pd2 2.951198 1_655
Nd2 Pd0 2.961256 1_556
Nd2 Pd0 3.006472 1_555
In0 Pd1 3.108576 1_556
In0 Pd0 3.114703 1_466
In0 Pd2 3.137031 1_565
In0 Pd1 3.169187 1_555
In0 Pd2 3.256866 1_566
In0 Nd1 3.337948 1_565
In0 Nd2 3.368974 1_465
In0 Nd1 3.370486 1_566
In0 Nd0 3.379527 1_556
In0 Nd2 3.393732 1_466
In0 Nd0 3.394645 1_555
In1 Pd0 3.072019 1_555
In1 Pd2 3.178971 1_554
In1 Pd1 3.178971 1_555
In1 Pd1 3.222413 1_554
In1 Pd2 3.222413 1_555
In1 Nd0 3.331768 1_555
In1 Nd0 3.331768 1_554
In1 Nd1 3.353806 1_555
In1 Nd2 3.353806 1_554
In1 Nd1 3.393797 1_554
In1 Nd2 3.393797 1_555
In2 Pd2 3.108576 1_554
In2 Pd0 3.114703 1_465
In2 Pd1 3.137031 1_455
In2 Pd2 3.169187 1_555
In2 Pd1 3.256866 1_454
In2 Nd2 3.337948 1_455
In2 Nd1 3.368974 1_465
In2 Nd2 3.370486 1_454
In2 Nd0 3.379527 1_554
In2 Nd1 3.393732 1_464
In2 Nd0 3.394645 1_555
