# generated using pymatgen
data_YEr
_symmetry_space_group_name_H-M   'P 1'
_cell_length_a   7.19768947
_cell_length_b   7.19768947
_cell_length_c   11.56532022
_cell_angle_alpha   90.00000000
_cell_angle_beta   90.00000000
_cell_angle_gamma   120.00003153
_symmetry_Int_Tables_number   1
_chemical_formula_structural   YEr
_chemical_formula_sum   'Y8 Er8'
_cell_volume   518.88888472
_cell_formula_units_Z   8
loop_
 _symmetry_equiv_pos_site_id
 _symmetry_equiv_pos_as_xyz
  1  'x, y, z'
loop_
 _atom_site_type_symbol
 _atom_site_label
 _atom_site_symmetry_multiplicity
 _atom_site_fract_x
 _atom_site_fract_y
 _atom_site_fract_z
 _atom_site_occupancy
  Y  Y0_0  1  0.00000003  0.99999996  0.00000000  1
  Y  Y0_1  1  0.00000003  0.99999996  0.50000000  1
  Y  Y0_2  1  0.00000004  0.49999996  0.00000000  1
  Y  Y0_3  1  0.00000004  0.49999996  0.50000000  1
  Y  Y0_4  1  0.50000004  0.99999996  0.00000000  1
  Y  Y0_5  1  0.50000004  0.99999996  0.50000000  1
  Y  Y0_6  1  0.50000004  0.49999996  0.00000000  1
  Y  Y0_7  1  0.50000004  0.49999996  0.50000000  1
  Er  Er0_0  1  0.16666646  0.33333353  0.25000000  1
  Er  Er0_1  1  0.16666646  0.33333353  0.75000000  1
  Er  Er0_2  1  0.16666647  0.83333353  0.25000000  1
  Er  Er0_3  1  0.16666647  0.83333353  0.75000000  1
  Er  Er0_4  1  0.66666647  0.33333353  0.25000000  1
  Er  Er0_5  1  0.66666647  0.33333353  0.75000000  1
  Er  Er0_6  1  0.66666647  0.83333353  0.25000000  1
  Er  Er0_7  1  0.66666647  0.83333353  0.75000000  1
loop_
_geom_bond_atom_site_label_1
_geom_bond_atom_site_label_2
_geom_bond_distance
_geom_bond_site_symmetry_2
Y0_0 Y0_6 3.598843 1_565
Y0_0 Y0_6 3.598843 1_455
Y0_0 Y0_4 3.598845 1_455
Y0_0 Y0_2 3.598845 1_565
Y0_0 Y0_4 3.598845 1_555
Y0_0 Y0_2 3.598845 1_555
Y0_1 Y0_7 3.598843 1_565
Y0_1 Y0_7 3.598843 1_455
Y0_1 Y0_5 3.598845 1_455
Y0_1 Y0_3 3.598845 1_555
Y0_1 Y0_3 3.598845 1_565
Y0_1 Y0_5 3.598845 1_555
Y0_2 Y0_4 3.598843 1_555
Y0_2 Y0_4 3.598843 1_445
Y0_2 Y0_6 3.598845 1_455
Y0_2 Y0_6 3.598845 1_555
Y0_3 Y0_5 3.598843 1_555
Y0_3 Y0_5 3.598843 1_445
Y0_3 Y0_7 3.598845 1_455
Y0_3 Y0_7 3.598845 1_555
Y0_4 Y0_6 3.598845 1_565
Y0_4 Y0_6 3.598845 1_555
Y0_5 Y0_7 3.598845 1_565
Y0_5 Y0_7 3.598845 1_555
Er0_0 Y0_2 3.560478 1_555
Er0_0 Y0_3 3.560478 1_555
Er0_0 Y0_0 3.560480 1_545
Er0_0 Y0_1 3.560480 1_545
Er0_0 Y0_6 3.560480 1_555
Er0_0 Y0_7 3.560480 1_555
Er0_0 Er0_6 3.598843 1_555
Er0_0 Er0_6 3.598843 1_445
Er0_0 Er0_2 3.598845 1_555
Er0_0 Er0_4 3.598845 1_455
Er0_0 Er0_4 3.598845 1_555
Er0_0 Er0_2 3.598845 1_545
Er0_1 Y0_2 3.560478 1_556
Er0_1 Y0_3 3.560478 1_555
Er0_1 Y0_0 3.560480 1_546
Er0_1 Y0_1 3.560480 1_545
Er0_1 Y0_6 3.560480 1_556
Er0_1 Y0_7 3.560480 1_555
Er0_1 Er0_7 3.598843 1_555
Er0_1 Er0_7 3.598843 1_445
Er0_1 Er0_5 3.598845 1_455
Er0_1 Er0_3 3.598845 1_555
Er0_1 Er0_5 3.598845 1_555
Er0_1 Er0_3 3.598845 1_545
Er0_2 Y0_1 3.560478 1_555
Er0_2 Y0_0 3.560478 1_555
Er0_2 Y0_4 3.560480 1_555
Er0_2 Y0_2 3.560480 1_555
Er0_2 Y0_3 3.560480 1_555
Er0_2 Y0_5 3.560480 1_555
Er0_2 Er0_4 3.598843 1_455
Er0_2 Er0_4 3.598843 1_565
Er0_2 Er0_6 3.598845 1_455
Er0_2 Er0_6 3.598845 1_555
Er0_3 Y0_0 3.560478 1_556
Er0_3 Y0_1 3.560478 1_555
Er0_3 Y0_2 3.560480 1_556
Er0_3 Y0_3 3.560480 1_555
Er0_3 Y0_4 3.560480 1_556
Er0_3 Y0_5 3.560480 1_555
Er0_3 Er0_5 3.598843 1_455
Er0_3 Er0_5 3.598843 1_565
Er0_3 Er0_7 3.598845 1_455
Er0_3 Er0_7 3.598845 1_555
Er0_4 Y0_6 3.560478 1_555
Er0_4 Y0_7 3.560478 1_555
Er0_4 Y0_2 3.560480 1_655
Er0_4 Y0_5 3.560480 1_545
Er0_4 Y0_4 3.560480 1_545
Er0_4 Y0_3 3.560480 1_655
Er0_4 Er0_6 3.598845 1_555
Er0_4 Er0_6 3.598845 1_545
Er0_5 Y0_6 3.560478 1_556
Er0_5 Y0_7 3.560478 1_555
Er0_5 Y0_5 3.560480 1_545
Er0_5 Y0_2 3.560480 1_656
Er0_5 Y0_4 3.560480 1_546
Er0_5 Y0_3 3.560480 1_655
Er0_5 Er0_7 3.598845 1_555
Er0_5 Er0_7 3.598845 1_545
Er0_6 Y0_5 3.560478 1_555
Er0_6 Y0_4 3.560478 1_555
Er0_6 Y0_6 3.560480 1_555
Er0_6 Y0_7 3.560480 1_555
Er0_6 Y0_0 3.560480 1_655
Er0_6 Y0_1 3.560480 1_655
Er0_7 Y0_5 3.560478 1_555
Er0_7 Y0_4 3.560478 1_556
Er0_7 Y0_6 3.560480 1_556
Er0_7 Y0_7 3.560480 1_555
Er0_7 Y0_1 3.560480 1_655
Er0_7 Y0_0 3.560480 1_656
