# generated using pymatgen
data_HfTi3
_symmetry_space_group_name_H-M   'P 1'
_cell_length_a   6.02423773
_cell_length_b   6.02423773
_cell_length_c   4.72538323
_cell_angle_alpha   90.00000000
_cell_angle_beta   90.00000000
_cell_angle_gamma   119.99999989
_symmetry_Int_Tables_number   1
_chemical_formula_structural   HfTi3
_chemical_formula_sum   'Hf2 Ti6'
_cell_volume   148.51553069
_cell_formula_units_Z   2
loop_
 _symmetry_equiv_pos_site_id
 _symmetry_equiv_pos_as_xyz
  1  'x, y, z'
loop_
 _atom_site_type_symbol
 _atom_site_label
 _atom_site_symmetry_multiplicity
 _atom_site_fract_x
 _atom_site_fract_y
 _atom_site_fract_z
 _atom_site_occupancy
  Hf  Hf0  1  0.33333300  0.66666700  0.75000000  1
  Hf  Hf1  1  0.66666700  0.33333300  0.25000000  1
  Ti  Ti0  1  0.16143697  0.32287493  0.25000000  1
  Ti  Ti1  1  0.67712507  0.83856303  0.25000000  1
  Ti  Ti2  1  0.16143697  0.83856303  0.25000000  1
  Ti  Ti3  1  0.83856303  0.67712507  0.75000000  1
  Ti  Ti4  1  0.32287493  0.16143697  0.75000000  1
  Ti  Ti5  1  0.83856303  0.16143697  0.75000000  1
loop_
_geom_bond_atom_site_label_1
_geom_bond_atom_site_label_2
_geom_bond_distance
_geom_bond_site_symmetry_2
Hf0 Ti2 2.966371 1_556
Hf0 Ti2 2.966371 1_555
Hf0 Ti0 2.966371 1_555
Hf0 Ti0 2.966371 1_556
Hf0 Ti1 2.966371 1_556
Hf0 Ti1 2.966371 1_555
Hf0 Ti3 3.012607 1_455
Hf0 Ti4 3.012607 1_565
Hf0 Ti5 3.012613 1_565
Hf0 Ti5 3.012613 1_455
Hf0 Ti4 3.012619 1_555
Hf0 Ti3 3.012619 1_555
Hf1 Ti5 2.966371 1_554
Hf1 Ti5 2.966371 1_555
Hf1 Ti3 2.966371 1_555
Hf1 Ti3 2.966371 1_554
Hf1 Ti4 2.966371 1_555
Hf1 Ti4 2.966371 1_554
Hf1 Ti0 3.012607 1_655
Hf1 Ti1 3.012607 1_545
Hf1 Ti2 3.012613 1_545
Hf1 Ti2 3.012613 1_655
Hf1 Ti1 3.012619 1_555
Hf1 Ti0 3.012619 1_555
Ti0 Ti5 2.901686 1_455
Ti0 Ti5 2.901686 1_454
Ti0 Ti4 2.901692 1_555
Ti0 Ti4 2.901692 1_554
Ti0 Ti2 2.917610 1_545
Ti0 Ti1 2.917610 1_445
Ti0 Ti2 3.106628 1_555
Ti0 Ti1 3.106628 1_555
Ti1 Ti5 2.901686 1_565
Ti1 Ti5 2.901686 1_564
Ti1 Ti3 2.901692 1_554
Ti1 Ti3 2.901692 1_555
Ti1 Ti2 2.917610 1_655
Ti1 Ti2 3.106628 1_555
Ti2 Ti4 2.901686 1_564
Ti2 Ti3 2.901686 1_455
Ti2 Ti4 2.901686 1_565
Ti2 Ti3 2.901686 1_454
Ti3 Ti5 2.917610 1_565
Ti3 Ti4 2.917610 1_665
Ti3 Ti5 3.106628 1_555
Ti3 Ti4 3.106628 1_555
Ti4 Ti5 2.917610 1_455
Ti4 Ti5 3.106628 1_555
