# generated using pymatgen
data_TiPb3
_symmetry_space_group_name_H-M   'P 1'
_cell_length_a   6.52869373
_cell_length_b   6.53834477
_cell_length_c   5.84271978
_cell_angle_alpha   90.09554625
_cell_angle_beta   90.05229692
_cell_angle_gamma   119.95115798
_symmetry_Int_Tables_number   1
_chemical_formula_structural   TiPb3
_chemical_formula_sum   'Ti2 Pb6'
_cell_volume   216.09854911
_cell_formula_units_Z   2
loop_
 _symmetry_equiv_pos_site_id
 _symmetry_equiv_pos_as_xyz
  1  'x, y, z'
loop_
 _atom_site_type_symbol
 _atom_site_label
 _atom_site_symmetry_multiplicity
 _atom_site_fract_x
 _atom_site_fract_y
 _atom_site_fract_z
 _atom_site_occupancy
  Ti  Ti0  1  0.33334900  0.66660100  0.74550500  1
  Ti  Ti1  1  0.66681800  0.33338700  0.25414300  1
  Pb  Pb0  1  0.17127200  0.34253900  0.24944000  1
  Pb  Pb1  1  0.65729500  0.82902400  0.24979600  1
  Pb  Pb2  1  0.17166800  0.82950300  0.24921600  1
  Pb  Pb3  1  0.82875200  0.65725600  0.75048000  1
  Pb  Pb4  1  0.34289300  0.17090400  0.75095900  1
  Pb  Pb5  1  0.82795000  0.17078000  0.75045800  1
loop_
_geom_bond_atom_site_label_1
_geom_bond_atom_site_label_2
_geom_bond_distance
_geom_bond_site_symmetry_2
Pb0 Pb1 3.179298 1_555
Pb0 Pb2 3.182651 1_555
Pb0 Ti1 3.264104 1_455
Pb0 Ti1 3.265647 1_555
Pb0 Pb2 3.355696 1_545
Pb0 Pb1 3.359052 1_445
Pb0 Ti0 3.427076 1_555
Pb0 Ti0 3.473627 1_554
Pb0 Pb4 3.499706 1_554
Pb0 Pb5 3.499794 1_454
Pb0 Pb4 3.515902 1_555
Pb0 Pb5 3.516227 1_455
Pb1 Pb2 3.172073 1_555
Pb1 Ti1 3.267158 1_565
Pb1 Ti1 3.272270 1_555
Pb1 Pb2 3.356626 1_655
Pb1 Ti0 3.430453 1_555
Pb1 Ti0 3.466659 1_554
Pb1 Pb3 3.503668 1_554
Pb1 Pb5 3.503955 1_565
Pb1 Pb5 3.505414 1_564
Pb1 Pb3 3.511742 1_555
Pb2 Ti1 3.266526 1_565
Pb2 Ti1 3.272821 1_455
Pb2 Ti0 3.432805 1_555
Pb2 Ti0 3.468144 1_554
Pb2 Pb3 3.497329 1_454
Pb2 Pb4 3.499039 1_564
Pb2 Pb4 3.508113 1_565
Pb2 Pb3 3.516168 1_455
Pb3 Pb5 3.178137 1_555
Pb3 Pb4 3.178341 1_555
Pb3 Ti0 3.264440 1_655
Pb3 Ti0 3.265373 1_555
Pb3 Pb4 3.360011 1_665
Pb3 Pb5 3.360214 1_565
Pb3 Ti1 3.427835 1_555
Pb3 Ti1 3.471698 1_556
Pb4 Pb5 3.167197 1_555
Pb4 Ti0 3.266745 1_545
Pb4 Ti0 3.272799 1_555
Pb4 Pb5 3.361499 1_455
Pb4 Ti1 3.435860 1_555
Pb4 Ti1 3.461108 1_556
Pb5 Ti0 3.265781 1_545
Pb5 Ti0 3.273720 1_655
Pb5 Ti1 3.430384 1_555
Pb5 Ti1 3.465492 1_556
