# generated using pymatgen
data_GaN
_symmetry_space_group_name_H-M   'P 1'
_cell_length_a   11.75566865
_cell_length_b   11.22902952
_cell_length_c   11.64669980
_cell_angle_alpha   86.26621973
_cell_angle_beta   89.49012122
_cell_angle_gamma   84.97946051
_symmetry_Int_Tables_number   1
_chemical_formula_structural   GaN
_chemical_formula_sum   'Ga50 N50'
_cell_volume   1528.26249139
_cell_formula_units_Z   50
loop_
 _symmetry_equiv_pos_site_id
 _symmetry_equiv_pos_as_xyz
  1  'x, y, z'
loop_
 _atom_site_type_symbol
 _atom_site_label
 _atom_site_symmetry_multiplicity
 _atom_site_fract_x
 _atom_site_fract_y
 _atom_site_fract_z
 _atom_site_occupancy
  Ga  Ga0  1  0.34468909  0.53001916  0.22773841  1
  Ga  Ga1  1  0.25261678  0.55217123  0.55650351  1
  Ga  Ga2  1  0.85484745  0.89388209  0.05161729  1
  Ga  Ga3  1  0.13967458  0.49158458  0.76449346  1
  Ga  Ga4  1  0.31212210  0.25833520  0.31268893  1
  Ga  Ga5  1  0.46955860  0.12293806  0.75120968  1
  Ga  Ga6  1  0.62385501  0.89172978  0.75402458  1
  Ga  Ga7  1  0.88704684  0.29379457  0.46865718  1
  Ga  Ga8  1  0.39196483  0.27061348  0.52322246  1
  Ga  Ga9  1  0.70255251  0.00437989  0.18131607  1
  Ga  Ga10  1  0.17956421  0.70743486  0.30578259  1
  Ga  Ga11  1  0.17292190  0.96684327  0.34035665  1
  Ga  Ga12  1  0.51082125  0.35759167  0.17499832  1
  Ga  Ga13  1  0.62253277  0.42634409  0.37841879  1
  Ga  Ga14  1  0.04403823  0.38260750  0.61019749  1
  Ga  Ga15  1  0.68729914  0.08923312  0.90554968  1
  Ga  Ga16  1  0.17500486  0.16603553  0.49484821  1
  Ga  Ga17  1  0.22686684  0.38401608  0.03953582  1
  Ga  Ga18  1  0.94329760  0.66178475  0.67046989  1
  Ga  Ga19  1  0.26465603  0.61965543  0.96347354  1
  Ga  Ga20  1  0.73291638  0.21171755  0.35256027  1
  Ga  Ga21  1  0.40471116  0.44519409  0.76794370  1
  Ga  Ga22  1  0.04252538  0.58099976  0.22982363  1
  Ga  Ga23  1  0.94933714  0.13722262  0.89389567  1
  Ga  Ga24  1  0.50959325  0.53388649  0.52911150  1
  Ga  Ga25  1  0.05459682  0.65347259  0.94841328  1
  Ga  Ga26  1  0.79428753  0.59651086  0.08922362  1
  Ga  Ga27  1  0.37026637  0.78691781  0.13590727  1
  Ga  Ga28  1  0.61045874  0.82513460  0.98058546  1
  Ga  Ga29  1  0.94477767  0.12538363  0.16829108  1
  Ga  Ga30  1  0.84533965  0.34918041  0.93287658  1
  Ga  Ga31  1  0.91758600  0.14457329  0.67090121  1
  Ga  Ga32  1  0.02086832  0.73871979  0.47658102  1
  Ga  Ga33  1  0.55898075  0.67452638  0.66940828  1
  Ga  Ga34  1  0.90793808  0.89935939  0.35253124  1
  Ga  Ga35  1  0.03087479  0.32173939  0.13453449  1
  Ga  Ga36  1  0.78175357  0.43801871  0.66181430  1
  Ga  Ga37  1  0.72335837  0.74083154  0.50371089  1
  Ga  Ga38  1  0.69147750  0.61832321  0.83373957  1
  Ga  Ga39  1  0.73745290  0.71447443  0.27854396  1
  Ga  Ga40  1  0.90852403  0.54536211  0.46207014  1
  Ga  Ga41  1  0.82938155  0.43654776  0.27146897  1
  Ga  Ga42  1  0.07038989  0.89570210  0.12697934  1
  Ga  Ga43  1  0.49351802  0.96831434  0.52689136  1
  Ga  Ga44  1  0.60541399  0.36147467  0.84234500  1
  Ga  Ga45  1  0.33495576  0.82225587  0.47184801  1
  Ga  Ga46  1  0.41754431  0.89334088  0.85486475  1
  Ga  Ga47  1  0.51909107  0.67485321  0.27534251  1
  Ga  Ga48  1  0.66887993  0.15350591  0.60722416  1
  Ga  Ga49  1  0.69654552  0.28671697  0.10520603  1
  N  N0  1  0.36234044  0.71091860  0.83598971  1
  N  N1  1  0.13219107  0.91833394  0.82982107  1
  N  N2  1  0.54669584  0.98210371  0.26449211  1
  N  N3  1  0.90562499  0.01079166  0.56478820  1
  N  N4  1  0.60516331  0.83764938  0.59928946  1
  N  N5  1  0.80492766  0.59901032  0.60023408  1
  N  N6  1  0.02472357  0.22316476  0.55936096  1
  N  N7  1  0.21956689  0.84608182  0.19902677  1
  N  N8  1  0.15517160  0.42724950  0.46695820  1
  N  N9  1  0.49319159  0.10830117  0.99334103  1
  N  N10  1  0.77034241  0.15055391  0.20101714  1
  N  N11  1  0.74556337  0.45181064  0.82199522  1
  N  N12  1  0.30966622  0.60556909  0.38355788  1
  N  N13  1  0.99364028  0.42769071  0.25088066  1
  N  N14  1  0.17034577  0.18813304  0.79857907  1
  N  N15  1  0.73266351  0.07200502  0.47187785  1
  N  N16  1  0.02049849  0.98836086  0.26482870  1
  N  N17  1  0.29536819  0.95058942  0.63709811  1
  N  N18  1  0.51507978  0.50069600  0.25711561  1
  N  N19  1  0.71574397  0.68893755  0.97043134  1
  N  N20  1  0.95778923  0.64886827  0.09523265  1
  N  N21  1  0.97769770  0.77274254  0.05130395  1
  N  N22  1  0.12910747  0.83765683  0.77893131  1
  N  N23  1  0.45120282  0.85863267  0.01456975  1
  N  N24  1  0.52908039  0.48020695  0.98849917  1
  N  N25  1  0.27058676  0.46006097  0.87761405  1
  N  N26  1  0.00734348  0.58972817  0.81140505  1
  N  N27  1  0.69988759  0.95961909  0.01993716  1
  N  N28  1  0.49284874  0.57510002  0.00442696  1
  N  N29  1  0.20150899  0.12336027  0.07123463  1
  N  N30  1  0.22070946  0.02295946  0.62166411  1
  N  N31  1  0.38888991  0.43061608  0.59800293  1
  N  N32  1  0.17994612  0.39932627  0.37406037  1
  N  N33  1  0.40737357  0.66138469  0.41811585  1
  N  N34  1  0.50162058  0.13546444  0.57537499  1
  N  N35  1  0.80244049  0.86775762  0.22919545  1
  N  N36  1  0.45769168  0.14873556  0.07313382  1
  N  N37  1  0.25932980  0.08873633  0.14452052  1
  N  N38  1  0.83754369  0.83577356  0.76363573  1
  N  N39  1  0.80034223  0.41726484  0.09126927  1
  N  N40  1  0.78359749  0.27510684  0.61676035  1
  N  N41  1  0.41371123  0.64649102  0.76830885  1
  N  N42  1  0.49259980  0.03614405  0.32917272  1
  N  N43  1  0.24932371  0.18602463  0.85237337  1
  N  N44  1  0.83805578  0.01262143  0.48206461  1
  N  N45  1  0.96132470  0.02553898  0.03079030  1
  N  N46  1  0.64856136  0.06216886  0.75547814  1
  N  N47  1  0.88714206  0.89006269  0.82140564  1
  N  N48  1  0.34224753  0.36565645  0.16995949  1
  N  N49  1  0.69724965  0.24567662  0.94457680  1
loop_
_geom_bond_atom_site_label_1
_geom_bond_atom_site_label_2
_geom_bond_distance
_geom_bond_site_symmetry_2
Ga0 N48 2.007835 1_555
Ga0 N18 2.029731 1_555
Ga0 N12 2.075749 1_555
Ga1 N31 2.051384 1_555
Ga1 N12 2.180718 1_555
Ga1 N8 2.204689 1_555
Ga2 N21 1.895459 1_555
Ga2 N27 1.934061 1_555
Ga2 N45 2.020644 1_565
Ga2 N35 2.161711 1_555
Ga3 N26 1.922574 1_555
Ga3 N25 2.027180 1_555
Ga4 N48 2.035769 1_555
Ga4 N32 2.264687 1_555
Ga5 N34 2.076955 1_555
Ga5 N46 2.154599 1_555
Ga6 N4 1.959019 1_555
Ga6 N46 1.961918 1_565
Ga6 N38 2.537189 1_555
Ga7 N6 2.015222 1_655
Ga7 N40 2.111513 1_555
Ga8 N34 1.971097 1_555
Ga8 N31 2.044447 1_555
Ga9 N35 1.904817 1_545
Ga9 N10 1.913933 1_555
Ga9 N27 1.978153 1_545
Ga9 N2 2.091655 1_545
Ga10 N12 2.012860 1_555
Ga10 N7 2.014085 1_555
Ga10 Ga32 2.733334 1_555
Ga11 N16 1.991846 1_555
Ga11 N7 2.234594 1_555
Ga12 N18 1.927302 1_555
Ga12 N48 1.977052 1_555
Ga12 N24 2.512714 1_554
Ga13 N18 1.995542 1_555
Ga14 N6 1.954278 1_555
Ga14 N8 2.169819 1_555
Ga15 N49 1.856669 1_555
Ga15 N46 1.860711 1_555
Ga15 N27 1.904819 1_546
Ga15 N9 2.489917 1_555
Ga16 N6 1.984425 1_555
Ga16 N30 2.146004 1_555
Ga17 N48 2.033858 1_555
Ga17 N25 2.097520 1_554
Ga18 N26 1.912650 1_655
Ga18 N5 2.027664 1_555
Ga18 N38 2.523286 1_555
Ga18 Ga32 2.554281 1_655
Ga19 N25 2.103973 1_555
Ga19 N0 2.133282 1_555
Ga20 N10 1.967636 1_555
Ga20 N15 2.027116 1_555
Ga21 N31 2.008207 1_555
Ga21 N25 2.022688 1_555
Ga21 N41 2.272355 1_555
Ga22 N13 1.862703 1_455
Ga22 N20 1.941542 1_455
Ga23 N45 1.961451 1_556
Ga24 N31 2.036781 1_555
Ga24 N33 2.156466 1_555
Ga25 N26 1.897707 1_555
Ga25 N21 2.006179 1_456
Ga25 N20 2.045952 1_456
Ga26 N19 1.873999 1_554
Ga26 N39 2.006375 1_555
Ga26 N20 2.061662 1_555
Ga27 N23 1.874249 1_555
Ga27 N7 1.988641 1_555
Ga28 N19 1.890628 1_555
Ga28 N23 1.919917 1_556
Ga28 N27 1.993078 1_556
Ga29 N16 1.994164 1_645
Ga29 N45 2.012347 1_555
Ga29 N10 2.080580 1_555
Ga30 N11 1.992022 1_555
Ga30 N39 2.088769 1_556
Ga30 N49 2.174718 1_555
Ga31 N6 2.017125 1_655
Ga31 N3 2.021316 1_555
Ga31 N40 2.126100 1_555
Ga32 Ga34 2.525703 1_455
Ga32 Ga40 2.653414 1_455
Ga33 N4 2.070792 1_555
Ga33 N41 2.086656 1_555
Ga34 N16 1.966601 1_655
Ga34 N35 1.975483 1_555
Ga34 N44 2.147875 1_565
Ga35 N13 1.884536 1_455
Ga36 N11 1.922847 1_555
Ga36 N40 1.933955 1_555
Ga36 N5 1.941784 1_555
Ga37 N4 2.053632 1_555
Ga37 N5 2.058667 1_555
Ga38 N19 1.859218 1_555
Ga38 N11 1.934609 1_555
Ga39 N35 1.992508 1_555
Ga40 N5 2.097235 1_555
Ga41 N13 1.938373 1_555
Ga41 N39 2.157075 1_555
Ga42 N7 1.970843 1_555
Ga42 N16 2.024391 1_555
Ga42 N21 2.075924 1_455
Ga42 N45 2.123716 1_465
Ga43 N34 2.005267 1_565
Ga43 N4 2.026786 1_555
Ga43 N42 2.377722 1_565
Ga43 N17 2.666044 1_555
Ga44 N49 1.962016 1_555
Ga44 N11 2.013410 1_555
Ga44 N24 2.353575 1_555
Ga45 N33 2.061102 1_555
Ga45 N17 2.495054 1_555
Ga46 N23 1.913083 1_556
Ga46 N0 2.226966 1_555
Ga47 N18 1.985475 1_555
Ga47 N33 2.115618 1_555
Ga48 N46 1.973637 1_555
Ga48 N15 1.982767 1_555
Ga48 N40 2.010026 1_555
Ga48 N34 2.034022 1_555
Ga49 N49 1.955424 1_554
Ga49 N10 1.974447 1_555
Ga49 N39 1.985631 1_555
N0 N41 1.224243 1_555
N1 N22 1.117751 1_555
N2 N42 1.150477 1_565
N3 N44 1.252120 1_555
N12 N33 1.428712 1_555
N14 N43 1.122349 1_555
N15 N44 1.357001 1_555
N17 N30 1.149759 1_565
N20 N21 1.487797 1_555
N24 N28 1.138482 1_556
N29 N37 1.123638 1_555
N32 N8 1.173180 1_555
N36 N9 1.121981 1_554
N38 N47 1.134418 1_555
