# generated using pymatgen
data_SnGe4Te4Se
_symmetry_space_group_name_H-M   'P 1'
_cell_length_a   18.55885784
_cell_length_b   18.55885784
_cell_length_c   18.55885717
_cell_angle_alpha   12.97605779
_cell_angle_beta   12.97605779
_cell_angle_gamma   12.97605641
_symmetry_Int_Tables_number   1
_chemical_formula_structural   SnGe4Te4Se
_chemical_formula_sum   'Sn1 Ge4 Te4 Se1'
_cell_volume   280.31025001
_cell_formula_units_Z   1
loop_
 _symmetry_equiv_pos_site_id
 _symmetry_equiv_pos_as_xyz
  1  'x, y, z'
loop_
 _atom_site_type_symbol
 _atom_site_label
 _atom_site_symmetry_multiplicity
 _atom_site_fract_x
 _atom_site_fract_y
 _atom_site_fract_z
 _atom_site_occupancy
  Sn  Sn0  1  0.40676184  0.40676184  0.40676184  1
  Ge  Ge0  1  0.80389790  0.80389790  0.80389790  1
  Ge  Ge1  1  0.20349676  0.20349676  0.20349676  1
  Ge  Ge2  1  0.60294713  0.60294713  0.60294713  1
  Ge  Ge3  1  0.00263795  0.00263795  0.00263795  1
  Te  Te0  1  0.49679953  0.49679953  0.49679953  1
  Te  Te1  1  0.89632191  0.89632191  0.89632191  1
  Te  Te2  1  0.29581582  0.29581582  0.29581582  1
  Te  Te3  1  0.69550563  0.69550563  0.69550563  1
  Se  Se0  1  0.09929354  0.09929354  0.09929354  1
loop_
_geom_bond_atom_site_label_1
_geom_bond_atom_site_label_2
_geom_bond_distance
_geom_bond_site_symmetry_2
Sn0 Te3 3.452817 1_554
Sn0 Te3 3.452817 1_545
Sn0 Te3 3.452817 1_455
Ge0 Te0 2.821497 1_556
Ge0 Te0 2.821497 1_565
Ge0 Te0 2.821497 1_655
Ge1 Te1 2.819332 1_445
Ge1 Te1 2.819332 1_454
Ge1 Te1 2.819332 1_544
Ge1 Te0 3.278174 1_554
Ge1 Te0 3.278175 1_455
Ge1 Te0 3.278175 1_545
Ge2 Te2 2.820564 1_556
Ge2 Te2 2.820564 1_565
Ge2 Te2 2.820564 1_655
Ge2 Te1 3.275496 1_554
Ge2 Te1 3.275496 1_455
Ge2 Te1 3.275496 1_545
Ge3 Te3 2.820535 1_445
Ge3 Te3 2.820535 1_544
Ge3 Te3 2.820535 1_454
Ge3 Te2 3.282826 1_554
Ge3 Te2 3.282826 1_455
Ge3 Te2 3.282826 1_545
Se0 Sn0 2.811070 1_554
Se0 Sn0 2.811070 1_545
Se0 Sn0 2.811070 1_455
