# generated using pymatgen
data_Li7Mn4(P2O7)4
_symmetry_space_group_name_H-M   'P 1'
_cell_length_a   9.91918700
_cell_length_b   9.93181683
_cell_length_c   11.38174979
_cell_angle_alpha   102.61875249
_cell_angle_beta   90.26042002
_cell_angle_gamma   90.35979788
_symmetry_Int_Tables_number   1
_chemical_formula_structural   Li7Mn4(P2O7)4
_chemical_formula_sum   'Li14 Mn8 P16 O56'
_cell_volume   1094.15348124
_cell_formula_units_Z   2
loop_
 _symmetry_equiv_pos_site_id
 _symmetry_equiv_pos_as_xyz
  1  'x, y, z'
loop_
 _atom_site_type_symbol
 _atom_site_label
 _atom_site_symmetry_multiplicity
 _atom_site_fract_x
 _atom_site_fract_y
 _atom_site_fract_z
 _atom_site_occupancy
  Li  Li0  1  0.28881500  0.11485700  0.45019200  1
  Li  Li1  1  0.89509300  0.08668000  0.02650200  1
  Li  Li2  1  0.59483500  0.15749300  0.04399600  1
  Li  Li3  1  0.38744900  0.41286400  0.97177400  1
  Li  Li4  1  0.07747000  0.32957900  0.45613400  1
  Li  Li5  1  0.77567800  0.38033900  0.55362200  1
  Li  Li6  1  0.22151800  0.61131400  0.44830900  1
  Li  Li7  1  0.92189500  0.67072500  0.54594900  1
  Li  Li8  1  0.60635700  0.58404500  0.02895400  1
  Li  Li9  1  0.40693700  0.84743400  0.95465200  1
  Li  Li10  1  0.91092500  0.64994700  0.04151800  1
  Li  Li11  1  0.10801500  0.91496300  0.97050500  1
  Li  Li12  1  0.42707100  0.83879800  0.46107000  1
  Li  Li13  1  0.72045700  0.89737000  0.55301400  1
  Mn  Mn0  1  0.08356500  0.20631800  0.68170200  1
  Mn  Mn1  1  0.78737900  0.25771600  0.82324300  1
  Mn  Mn2  1  0.28273300  0.24271000  0.17264900  1
  Mn  Mn3  1  0.57375900  0.29552100  0.33408300  1
  Mn  Mn4  1  0.42082400  0.70367100  0.67750500  1
  Mn  Mn5  1  0.71512600  0.75567700  0.82379400  1
  Mn  Mn6  1  0.21518400  0.74158600  0.17439000  1
  Mn  Mn7  1  0.92155800  0.79889900  0.32562500  1
  P  P0  1  0.54827800  0.02534400  0.75826300  1
  P  P1  1  0.29590300  0.11819700  0.89004200  1
  P  P2  1  0.06937600  0.05814700  0.24357300  1
  P  P3  1  0.84925000  0.12456900  0.42410300  1
  P  P4  1  0.35078200  0.37766400  0.57151900  1
  P  P5  1  0.56822900  0.44149700  0.75835400  1
  P  P6  1  0.95065200  0.52415200  0.75917900  1
  P  P7  1  0.79208600  0.38026200  0.10838500  1
  P  P8  1  0.20481400  0.61758300  0.89128300  1
  P  P9  1  0.04776100  0.47439400  0.24208100  1
  P  P10  1  0.43330400  0.55753200  0.24411400  1
  P  P11  1  0.64946200  0.62261100  0.42643100  1
  P  P12  1  0.14990800  0.87903400  0.57449900  1
  P  P13  1  0.93244500  0.94077900  0.75547200  1
  P  P14  1  0.70393900  0.88135200  0.10848900  1
  P  P15  1  0.45285400  0.97309100  0.23813400  1
  O  O0  1  0.58423200  0.01722600  0.62977300  1
  O  O1  1  0.16018800  0.02639400  0.55623400  1
  O  O2  1  0.91302800  0.08647000  0.73111800  1
  O  O3  1  0.64404400  0.11668000  0.85311000  1
  O  O4  1  0.40288700  0.09600900  0.77882100  1
  O  O5  1  0.17390600  0.17573400  0.83938700  1
  O  O6  1  0.36587800  0.22216900  0.99724800  1
  O  O7  1  0.72412400  0.01914900  0.07556000  1
  O  O8  1  0.92381900  0.11242900  0.29488200  1
  O  O9  1  0.06587800  0.06209800  0.11154300  1
  O  O10  1  0.46407600  0.12481800  0.21608300  1
  O  O11  1  0.71450200  0.19313600  0.41036900  1
  O  O12  1  0.17538700  0.16361700  0.31099500  1
  O  O13  1  0.93612000  0.22305900  0.51758700  1
  O  O14  1  0.42666300  0.28057500  0.47251300  1
  O  O15  1  0.68273300  0.34445300  0.69997700  1
  O  O16  1  0.21034000  0.31509400  0.58410100  1
  O  O17  1  0.95572900  0.37210700  0.77907500  1
  O  O18  1  0.42660900  0.38149500  0.69855300  1
  O  O19  1  0.55786500  0.43932000  0.89015300  1
  O  O20  1  0.23028500  0.48269400  0.92335500  1
  O  O21  1  0.84800900  0.27141000  0.99975900  1
  O  O22  1  0.66857600  0.32084800  0.15980100  1
  O  O23  1  0.90234000  0.39907100  0.21738500  1
  O  O24  1  0.41713400  0.41062300  0.26983000  1
  O  O25  1  0.14803100  0.39023000  0.15483800  1
  O  O26  1  0.91266300  0.52561600  0.63031300  1
  O  O27  1  0.65748700  0.47435800  0.44498200  1
  O  O28  1  0.33986100  0.52746100  0.55793900  1
  O  O29  1  0.07784000  0.47907000  0.37402700  1
  O  O30  1  0.86223900  0.61248200  0.85641600  1
  O  O31  1  0.58585100  0.58649400  0.73085300  1
  O  O32  1  0.09969700  0.58938700  0.77633900  1
  O  O33  1  0.32484700  0.68800600  0.84368700  1
  O  O34  1  0.13374400  0.72246100  0.99548800  1
  O  O35  1  0.77560200  0.51883500  0.07652200  1
  O  O36  1  0.43599900  0.56208300  0.11261500  1
  O  O37  1  0.58029100  0.61379900  0.29589100  1
  O  O38  1  0.03386200  0.62174400  0.21552200  1
  O  O39  1  0.78991200  0.68516800  0.41827400  1
  O  O40  1  0.32774400  0.65943900  0.31217100  1
  O  O41  1  0.56407200  0.72281000  0.51755200  1
  O  O42  1  0.06333400  0.77771900  0.48258500  1
  O  O43  1  0.82809300  0.83586200  0.68560600  1
  O  O44  1  0.28921500  0.81403800  0.58214000  1
  O  O45  1  0.53463200  0.88002800  0.79174600  1
  O  O46  1  0.93512200  0.93513600  0.88715700  1
  O  O47  1  0.07958400  0.88664700  0.70430400  1
  O  O48  1  0.27726800  0.98098600  0.92493800  1
  O  O49  1  0.63348600  0.77646600  0.00396800  1
  O  O50  1  0.82810800  0.81711400  0.15399200  1
  O  O51  1  0.60147400  0.90707300  0.22353200  1
  O  O52  1  0.36401400  0.88547300  0.13928800  1
  O  O53  1  0.08887600  0.91306300  0.26904500  1
  O  O54  1  0.83731800  0.97701400  0.44245100  1
  O  O55  1  0.41036700  0.97145500  0.36483200  1
loop_
_geom_bond_atom_site_label_1
_geom_bond_atom_site_label_2
_geom_bond_distance
_geom_bond_site_symmetry_2
Li0 O55 1.963086 1_545
Li0 O1 2.078400 1_555
Li0 O12 2.082377 1_555
Li0 O14 2.104511 1_555
Li0 O16 2.364263 1_555
Li1 O7 1.948219 1_555
Li1 O46 1.977022 1_544
Li1 O21 1.982519 1_554
Li1 O9 1.989926 1_655
Li2 O7 1.973634 1_555
Li2 O22 1.986586 1_555
Li2 O3 2.179487 1_554
Li2 O10 2.432987 1_555
Li2 O6 2.451557 1_554
Li3 O20 1.840585 1_555
Li3 O19 1.976063 1_555
Li3 O36 1.985942 1_556
Li3 O6 1.988036 1_555
Li4 O29 1.919355 1_555
Li4 O13 1.971767 1_455
Li4 O16 1.988859 1_555
Li4 O12 2.287822 1_555
Li5 O15 2.005255 1_555
Li5 O26 2.025924 1_555
Li5 O27 2.068911 1_555
Li5 O13 2.213200 1_555
Li5 O11 2.266238 1_555
Li6 O29 1.987799 1_555
Li6 O40 2.017847 1_555
Li6 O28 2.020272 1_555
Li6 O42 2.258758 1_555
Li6 O44 2.336388 1_555
Li7 O26 1.900320 1_555
Li7 O39 1.980484 1_555
Li7 O42 1.985687 1_655
Li7 O43 2.230663 1_555
Li8 O35 1.920795 1_555
Li8 O19 1.945621 1_554
Li8 O36 1.977496 1_555
Li8 O49 2.009291 1_555
Li9 O48 1.934312 1_555
Li9 O33 1.966219 1_555
Li9 O52 2.098449 1_556
Li9 O45 2.329268 1_555
Li9 O49 2.458246 1_556
Li10 O35 1.966148 1_555
Li10 O50 2.041608 1_555
Li10 O30 2.110969 1_554
Li10 O38 2.390076 1_655
Li10 O34 2.415255 1_654
Li11 O48 1.913160 1_555
Li11 O9 1.968714 1_566
Li11 O46 1.988397 1_455
Li11 O34 2.011052 1_555
Li12 O55 1.895990 1_555
Li12 O41 1.980484 1_555
Li12 O44 1.997530 1_555
Li12 O40 2.379033 1_555
Li13 O0 1.892797 1_565
Li13 O54 1.997397 1_555
Li13 O43 2.046192 1_555
Li13 O41 2.286847 1_555
Li13 O39 2.425680 1_555
Mn0 O5 2.084066 1_555
Mn0 O16 2.121908 1_555
Mn0 O1 2.173059 1_555
Mn0 O17 2.188397 1_455
Mn0 O2 2.206925 1_455
Mn0 O13 2.402016 1_455
Mn1 O21 2.070050 1_555
Mn1 O3 2.070385 1_555
Mn1 O15 2.077013 1_555
Mn1 O17 2.136670 1_555
Mn1 O2 2.191980 1_555
Mn2 O25 2.030982 1_555
Mn2 O6 2.132235 1_554
Mn2 O12 2.185278 1_555
Mn2 O24 2.221396 1_555
Mn2 O10 2.263232 1_555
Mn3 O11 2.032108 1_555
Mn3 O27 2.104793 1_555
Mn3 O24 2.152339 1_555
Mn3 O14 2.180305 1_555
Mn3 O10 2.197834 1_555
Mn3 O22 2.261555 1_555
Mn4 O28 2.119323 1_555
Mn4 O44 2.146816 1_555
Mn4 O33 2.156658 1_555
Mn4 O31 2.173996 1_555
Mn4 O45 2.236003 1_555
Mn4 O41 2.353892 1_555
Mn5 O30 2.131131 1_555
Mn5 O49 2.176226 1_556
Mn5 O31 2.184190 1_555
Mn5 O43 2.217137 1_555
Mn5 O45 2.254415 1_555
Mn6 O52 2.146982 1_555
Mn6 O34 2.156145 1_554
Mn6 O53 2.206406 1_555
Mn6 O40 2.219455 1_555
Mn6 O38 2.257196 1_555
Mn7 O54 2.143963 1_555
Mn7 O39 2.146503 1_555
Mn7 O53 2.181724 1_655
Mn7 O50 2.201844 1_555
Mn7 O38 2.231816 1_655
Mn7 O42 2.314847 1_655
O0 P0 1.491981 1_555
O1 P12 1.525404 1_545
O2 P13 1.544646 1_545
O3 P0 1.562882 1_555
O4 P0 1.603488 1_555
O4 P1 1.634147 1_555
O5 P1 1.506524 1_555
O6 P1 1.571538 1_555
O7 P14 1.508278 1_545
O8 P2 1.611257 1_655
O8 P3 1.630431 1_555
O9 P2 1.512037 1_555
O10 P15 1.584171 1_545
O11 P3 1.526665 1_555
O12 P2 1.555475 1_555
O13 P3 1.535508 1_555
O14 P4 1.519283 1_555
O15 P5 1.549594 1_555
O16 P4 1.541803 1_555
O17 P6 1.576207 1_555
O18 P5 1.610997 1_555
O18 P4 1.619698 1_555
O19 P5 1.508937 1_555
O20 P8 1.486252 1_555
O21 P7 1.560388 1_556
O22 P7 1.529674 1_555
O23 P9 1.615619 1_655
O23 P7 1.629073 1_555
O24 P10 1.557039 1_555
O25 P9 1.526669 1_555
O26 P6 1.515862 1_555
O27 P11 1.534959 1_555
O28 P4 1.533424 1_555
O29 P9 1.520456 1_555
O30 P6 1.535524 1_555
O31 P5 1.548113 1_555
O32 P6 1.604263 1_455
O32 P8 1.643474 1_555
O33 P8 1.536626 1_555
O34 P8 1.570247 1_555
O35 P7 1.507571 1_555
O36 P10 1.507561 1_555
O37 P11 1.618366 1_555
O37 P10 1.619688 1_555
O38 P9 1.564457 1_555
O39 P11 1.533301 1_555
O40 P10 1.548837 1_555
O41 P11 1.533291 1_555
O42 P12 1.537992 1_555
O43 P13 1.551281 1_555
O44 P12 1.538933 1_555
O45 P0 1.576345 1_565
O46 P13 1.512159 1_555
O47 P12 1.623656 1_555
O47 P13 1.624540 1_455
O48 P1 1.510963 1_565
O49 P14 1.559036 1_555
O50 P14 1.529929 1_555
O51 P15 1.611684 1_555
O51 P14 1.637675 1_555
O52 P15 1.533989 1_555
O53 P2 1.543798 1_565
O54 P3 1.528738 1_565
O55 P15 1.507661 1_555
