# generated using pymatgen
data_V5Se8
_symmetry_space_group_name_H-M   'P 1'
_cell_length_a   6.94147447
_cell_length_b   6.94078732
_cell_length_c   7.12431800
_cell_angle_alpha   103.33626447
_cell_angle_beta   106.18632253
_cell_angle_gamma   118.53547589
_symmetry_Int_Tables_number   1
_chemical_formula_structural   V5Se8
_chemical_formula_sum   'V5 Se8'
_cell_volume   261.28378130
_cell_formula_units_Z   1
loop_
 _symmetry_equiv_pos_site_id
 _symmetry_equiv_pos_as_xyz
  1  'x, y, z'
loop_
 _atom_site_type_symbol
 _atom_site_label
 _atom_site_symmetry_multiplicity
 _atom_site_fract_x
 _atom_site_fract_y
 _atom_site_fract_z
 _atom_site_occupancy
  V  V0  1  0.00000000  0.00000000  0.00000000  1
  V  V1  1  0.74810529  0.25944439  0.00804883  1
  V  V2  1  0.25189471  0.74055561  0.99195117  1
  V  V3  1  0.21952725  0.71957867  0.49992851  1
  V  V4  1  0.78047275  0.28042133  0.50007149  1
  Se  Se0  1  0.71670005  0.96398973  0.17174449  1
  Se  Se1  1  0.28329995  0.03601027  0.82825551  1
  Se  Se2  1  0.79227483  0.54465730  0.82826451  1
  Se  Se3  1  0.20772517  0.45534270  0.17173549  1
  Se  Se4  1  0.30314154  0.02891636  0.33196110  1
  Se  Se5  1  0.69685846  0.97108364  0.66803890  1
  Se  Se6  1  0.78115448  0.54888978  0.32999366  1
  Se  Se7  1  0.21884552  0.45111022  0.67000634  1
loop_
_geom_bond_atom_site_label_1
_geom_bond_atom_site_label_2
_geom_bond_distance
_geom_bond_site_symmetry_2
Se0 V1 2.535910 1_565
Se0 V0 2.537667 1_665
Se0 V2 2.540598 1_554
Se0 V4 2.571934 1_565
Se1 V2 2.535910 1_545
Se1 V0 2.537667 1_556
Se1 V1 2.540598 1_556
Se1 V3 2.571934 1_545
Se2 V2 2.537171 1_655
Se2 V0 2.538330 1_666
Se2 V1 2.542081 1_556
Se2 V4 2.570725 1_555
Se3 V1 2.537171 1_455
Se3 V0 2.538330 1_555
Se3 V2 2.542081 1_554
Se3 V3 2.570725 1_555
Se4 V2 2.569594 1_544
Se4 V0 2.581539 1_555
Se4 V4 2.599459 1_555
Se4 V3 2.600112 1_545
Se5 V1 2.569594 1_566
Se5 V0 2.581539 1_666
Se5 V3 2.599459 1_555
Se5 V4 2.600112 1_565
Se6 V3 2.443145 1_655
Se6 V4 2.444747 1_555
Se6 V1 2.547539 1_555
Se7 V4 2.443145 1_455
Se7 V3 2.444747 1_555
Se7 V2 2.547539 1_555
