# generated using pymatgen
data_MoWSeS3
_symmetry_space_group_name_H-M   'P 1'
_cell_length_a   3.22217353
_cell_length_b   3.22217353
_cell_length_c   36.39090700
_cell_angle_alpha   90.00000000
_cell_angle_beta   90.00000000
_cell_angle_gamma   119.99999041
_symmetry_Int_Tables_number   1
_chemical_formula_structural   MoWSeS3
_chemical_formula_sum   'Mo2 W2 Se2 S6'
_cell_volume   327.20611069
_cell_formula_units_Z   2
loop_
 _symmetry_equiv_pos_site_id
 _symmetry_equiv_pos_as_xyz
  1  'x, y, z'
loop_
 _atom_site_type_symbol
 _atom_site_label
 _atom_site_symmetry_multiplicity
 _atom_site_fract_x
 _atom_site_fract_y
 _atom_site_fract_z
 _atom_site_occupancy
  Mo  Mo0  1  0.00000000  0.00000000  0.09392300  1
  Mo  Mo1  1  0.33333300  0.66666700  0.28178700  1
  W  W0  1  0.00000000  0.00000000  0.46965600  1
  W  W1  1  0.33333300  0.66666700  0.65755100  1
  Se  Se0  1  0.33333300  0.66666700  0.42239100  1
  Se  Se1  1  0.33333300  0.66666700  0.51692500  1
  S  S0  1  0.00000000  0.00000000  0.32451900  1
  S  S1  1  0.00000000  0.00000000  0.70044900  1
  S  S2  1  0.33333300  0.66666700  0.05116700  1
  S  S3  1  0.33333300  0.66666700  0.13667400  1
  S  S4  1  0.00000000  0.00000000  0.23905000  1
  S  S5  1  0.00000000  0.00000000  0.61465600  1
loop_
_geom_bond_atom_site_label_1
_geom_bond_atom_site_label_2
_geom_bond_distance
_geom_bond_site_symmetry_2
Mo0 S3 2.425107 1_545
Mo0 S3 2.425109 1_445
Mo0 S3 2.425109 1_555
Mo0 S2 2.425224 1_545
Mo0 S2 2.425226 1_445
Mo0 S2 2.425226 1_555
Mo1 S0 2.424664 1_565
Mo1 S0 2.424666 1_555
Mo1 S0 2.424666 1_665
Mo1 S4 2.424780 1_565
Mo1 S4 2.424783 1_665
Mo1 S4 2.424783 1_555
Se0 W0 2.533624 1_565
Se0 W0 2.533626 1_555
Se0 W0 2.533626 1_665
Se1 W0 2.533723 1_565
Se1 W0 2.533725 1_555
Se1 W0 2.533725 1_665
S1 W1 2.428542 1_545
S1 W1 2.428545 1_445
S1 W1 2.428545 1_555
S5 W1 2.428472 1_545
S5 W1 2.428474 1_555
S5 W1 2.428474 1_445
