# generated using pymatgen
data_Fe2H4NF6
_symmetry_space_group_name_H-M   'P 1'
_cell_length_a   7.26697900
_cell_length_b   7.57349200
_cell_length_c   10.15983200
_cell_angle_alpha   90.00000000
_cell_angle_beta   90.00000000
_cell_angle_gamma   90.00000000
_symmetry_Int_Tables_number   1
_chemical_formula_structural   Fe2H4NF6
_chemical_formula_sum   'Fe8 H16 N4 F24'
_cell_volume   559.16065226
_cell_formula_units_Z   4
loop_
 _symmetry_equiv_pos_site_id
 _symmetry_equiv_pos_as_xyz
  1  'x, y, z'
loop_
 _atom_site_type_symbol
 _atom_site_label
 _atom_site_symmetry_multiplicity
 _atom_site_fract_x
 _atom_site_fract_y
 _atom_site_fract_z
 _atom_site_occupancy
  Fe  Fe0  1  0.00000000  0.00000000  0.00000000  1
  Fe  Fe1  1  0.50000000  0.00000000  0.50000000  1
  Fe  Fe2  1  0.00000000  0.50000000  0.00000000  1
  Fe  Fe3  1  0.50000000  0.50000000  0.50000000  1
  Fe  Fe4  1  0.20888800  0.25000000  0.26684600  1
  Fe  Fe5  1  0.79111200  0.75000000  0.73315400  1
  Fe  Fe6  1  0.29111200  0.75000000  0.76684600  1
  Fe  Fe7  1  0.70888800  0.25000000  0.23315400  1
  H  H0  1  0.14224000  0.25000000  0.62728800  1
  H  H1  1  0.85776000  0.75000000  0.37271200  1
  H  H2  1  0.35776000  0.75000000  0.12728800  1
  H  H3  1  0.64224000  0.25000000  0.87271200  1
  H  H4  1  0.05231300  0.63915900  0.33647400  1
  H  H5  1  0.94768700  0.36084100  0.66352600  1
  H  H6  1  0.44768700  0.36084100  0.83647400  1
  H  H7  1  0.94768700  0.13915900  0.66352600  1
  H  H8  1  0.55231300  0.63915900  0.16352600  1
  H  H9  1  0.05231300  0.86084100  0.33647400  1
  H  H10  1  0.55231300  0.86084100  0.16352600  1
  H  H11  1  0.44768700  0.13915900  0.83647400  1
  H  H12  1  0.46730800  0.25000000  0.98197000  1
  H  H13  1  0.53269200  0.75000000  0.01803000  1
  H  H14  1  0.03269200  0.75000000  0.48197000  1
  H  H15  1  0.96730800  0.25000000  0.51803000  1
  N  N0  1  0.00112000  0.25000000  0.61824300  1
  N  N1  1  0.99888000  0.75000000  0.38175700  1
  N  N2  1  0.49888000  0.75000000  0.11824300  1
  N  N3  1  0.50112000  0.25000000  0.88175700  1
  F  F0  1  0.44033200  0.25000000  0.15517700  1
  F  F1  1  0.55966800  0.75000000  0.84482300  1
  F  F2  1  0.05966800  0.75000000  0.65517700  1
  F  F3  1  0.94033200  0.25000000  0.34482300  1
  F  F4  1  0.26842600  0.06220800  0.41627200  1
  F  F5  1  0.73157400  0.93779200  0.58372800  1
  F  F6  1  0.23157400  0.93779200  0.91627200  1
  F  F7  1  0.73157400  0.56220800  0.58372800  1
  F  F8  1  0.76842600  0.06220800  0.08372800  1
  F  F9  1  0.26842600  0.43779200  0.41627200  1
  F  F10  1  0.76842600  0.43779200  0.08372800  1
  F  F11  1  0.23157400  0.56220800  0.91627200  1
  F  F12  1  0.56069000  0.25000000  0.53577600  1
  F  F13  1  0.43931000  0.75000000  0.46422400  1
  F  F14  1  0.93931000  0.75000000  0.03577600  1
  F  F15  1  0.06069000  0.25000000  0.96422400  1
  F  F16  1  0.12794100  0.48908500  0.16856900  1
  F  F17  1  0.87205900  0.51091500  0.83143100  1
  F  F18  1  0.37205900  0.51091500  0.66856900  1
  F  F19  1  0.87205900  0.98908500  0.83143100  1
  F  F20  1  0.62794100  0.48908500  0.33143100  1
  F  F21  1  0.12794100  0.01091500  0.16856900  1
  F  F22  1  0.62794100  0.01091500  0.33143100  1
  F  F23  1  0.37205900  0.98908500  0.66856900  1
loop_
_geom_bond_atom_site_label_1
_geom_bond_atom_site_label_2
_geom_bond_distance
_geom_bond_site_symmetry_2
H0 N0 1.029625 1_555
H1 N1 1.029625 1_555
H2 N2 1.029625 1_555
H3 N3 1.029625 1_555
H4 N1 1.033014 1_455
H5 N0 1.033014 1_655
H6 N3 1.033014 1_555
H7 N0 1.033014 1_655
H8 N2 1.033014 1_555
H9 N1 1.033014 1_455
H10 N2 1.033014 1_555
H11 N3 1.033014 1_555
H12 N3 1.047377 1_555
H13 N2 1.047377 1_555
H14 N1 1.047377 1_455
H15 N0 1.047377 1_655
F0 Fe4 2.028783 1_555
F0 Fe7 2.106262 1_555
F1 Fe5 2.028783 1_555
F1 Fe6 2.106262 1_555
F2 Fe6 2.028783 1_555
F2 Fe5 2.106262 1_455
F3 Fe7 2.028783 1_555
F3 Fe4 2.106262 1_655
F4 Fe1 1.943593 1_555
F4 Fe4 2.124788 1_555
F5 Fe1 1.943593 1_565
F5 Fe5 2.124788 1_555
F6 Fe0 1.943593 1_566
F6 Fe6 2.124788 1_555
F7 Fe3 1.943593 1_555
F7 Fe5 2.124788 1_555
F8 Fe0 1.943593 1_655
F8 Fe7 2.124788 1_555
F9 Fe3 1.943593 1_555
F9 Fe4 2.124788 1_555
F10 Fe2 1.943593 1_655
F10 Fe7 2.124788 1_555
F11 Fe2 1.943593 1_556
F11 Fe6 2.124788 1_555
F12 Fe1 1.977748 1_555
F12 Fe3 1.977748 1_555
F13 Fe3 1.977748 1_555
F13 Fe1 1.977748 1_565
F14 Fe2 1.977748 1_655
F14 Fe0 1.977748 1_665
F15 Fe0 1.977748 1_556
F15 Fe2 1.977748 1_556
F16 Fe2 1.950479 1_555
F16 Fe4 2.149802 1_555
F17 Fe2 1.950479 1_656
F17 Fe5 2.149802 1_555
F18 Fe3 1.950479 1_555
F18 Fe6 2.149802 1_555
F19 Fe0 1.950479 1_666
F19 Fe5 2.149802 1_555
F20 Fe3 1.950479 1_555
F20 Fe7 2.149802 1_555
F21 Fe0 1.950479 1_555
F21 Fe4 2.149802 1_555
F22 Fe1 1.950479 1_555
F22 Fe7 2.149802 1_555
F23 Fe1 1.950479 1_565
F23 Fe6 2.149802 1_555
