# generated using pymatgen
data_YMg2
_symmetry_space_group_name_H-M   'P 1'
_cell_length_a   6.03564017
_cell_length_b   6.03564017
_cell_length_c   6.03564005
_cell_angle_alpha   60.08373433
_cell_angle_beta   60.08373433
_cell_angle_gamma   60.08373952
_symmetry_Int_Tables_number   1
_chemical_formula_structural   YMg2
_chemical_formula_sum   'Y2 Mg4'
_cell_volume   155.76802280
_cell_formula_units_Z   2
loop_
 _symmetry_equiv_pos_site_id
 _symmetry_equiv_pos_as_xyz
  1  'x, y, z'
loop_
 _atom_site_type_symbol
 _atom_site_label
 _atom_site_symmetry_multiplicity
 _atom_site_fract_x
 _atom_site_fract_y
 _atom_site_fract_z
 _atom_site_occupancy
  Y  Y0  1  0.87841600  0.87841600  0.87841600  1
  Y  Y1  1  0.12158400  0.12158400  0.12158400  1
  Mg  Mg0  1  0.00000000  0.50000000  0.50000000  1
  Mg  Mg1  1  0.50000000  0.50000000  0.00000000  1
  Mg  Mg2  1  0.50000000  0.50000000  0.50000000  1
  Mg  Mg3  1  0.50000000  0.00000000  0.50000000  1
loop_
_geom_bond_atom_site_label_1
_geom_bond_atom_site_label_2
_geom_bond_distance
_geom_bond_site_symmetry_2
Y0 Y1 3.592777 1_666
Y0 Y1 3.734761 1_665
Y0 Y1 3.734761 1_566
Y0 Y1 3.734761 1_656
Mg0 Mg2 3.017820 1_555
Mg0 Mg2 3.017820 1_455
Mg0 Mg1 3.021639 1_555
Mg0 Mg1 3.021639 1_456
Mg0 Mg3 3.021639 1_555
Mg0 Mg3 3.021639 1_465
Mg0 Y1 3.515297 1_565
Mg0 Y0 3.515297 1_445
Mg0 Y1 3.515297 1_556
Mg0 Y0 3.515297 1_454
Mg0 Y0 3.582092 1_455
Mg0 Y1 3.582092 1_555
Mg1 Mg2 3.017820 1_555
Mg1 Mg2 3.017820 1_554
Mg1 Mg3 3.021639 1_555
Mg1 Mg3 3.021639 1_564
Mg1 Y1 3.515297 1_655
Mg1 Y1 3.515297 1_565
Mg1 Y0 3.515297 1_544
Mg1 Y0 3.515297 1_454
Mg1 Y0 3.582092 1_554
Mg1 Y1 3.582092 1_555
Mg2 Mg3 3.017820 1_555
Mg2 Mg3 3.017820 1_565
Mg2 Y0 3.552099 1_554
Mg2 Y1 3.552099 1_556
Mg2 Y0 3.552100 1_455
Mg2 Y0 3.552100 1_545
Mg2 Y1 3.552100 1_565
Mg2 Y1 3.552100 1_655
Mg3 Y1 3.515297 1_655
Mg3 Y0 3.515297 1_445
Mg3 Y1 3.515297 1_556
Mg3 Y0 3.515297 1_544
Mg3 Y0 3.582092 1_545
Mg3 Y1 3.582092 1_555
