# generated using pymatgen
data_LiMg14Ga
_symmetry_space_group_name_H-M   'P 1'
_cell_length_a   6.30253242
_cell_length_b   6.32687444
_cell_length_c   10.29497365
_cell_angle_alpha   90.00000000
_cell_angle_beta   90.00000000
_cell_angle_gamma   120.12785023
_symmetry_Int_Tables_number   1
_chemical_formula_structural   LiMg14Ga
_chemical_formula_sum   'Li1 Mg14 Ga1'
_cell_volume   355.05794022
_cell_formula_units_Z   1
loop_
 _symmetry_equiv_pos_site_id
 _symmetry_equiv_pos_as_xyz
  1  'x, y, z'
loop_
 _atom_site_type_symbol
 _atom_site_label
 _atom_site_symmetry_multiplicity
 _atom_site_fract_x
 _atom_site_fract_y
 _atom_site_fract_z
 _atom_site_occupancy
  Li  Li0  1  0.16558008  0.33278954  0.12500000  1
  Mg  Mg0  1  0.16803902  0.33401901  0.62500000  1
  Mg  Mg1  1  0.16764402  0.83382151  0.62500000  1
  Mg  Mg2  1  0.66946639  0.33180246  0.12500000  1
  Mg  Mg3  1  0.66569668  0.33311380  0.62500000  1
  Mg  Mg4  1  0.66946639  0.83766292  0.12500000  1
  Mg  Mg5  1  0.66569668  0.83258188  0.62500000  1
  Mg  Mg6  1  0.32981286  0.16270258  0.36998582  1
  Mg  Mg7  1  0.32981286  0.16270258  0.88001418  1
  Mg  Mg8  1  0.32981286  0.66711127  0.36998582  1
  Mg  Mg9  1  0.32981286  0.66711127  0.88001418  1
  Mg  Mg10  1  0.83377337  0.16688718  0.37456019  1
  Mg  Mg11  1  0.83377337  0.16688718  0.87543981  1
  Mg  Mg12  1  0.83660979  0.66830539  0.37139396  1
  Mg  Mg13  1  0.83660979  0.66830539  0.87860604  1
  Ga  Ga0  1  0.16839301  0.83419600  0.12500000  1
loop_
_geom_bond_atom_site_label_1
_geom_bond_atom_site_label_2
_geom_bond_distance
_geom_bond_site_symmetry_2
Li0 Mg7 3.115879 1_554
Li0 Mg6 3.115879 1_555
Li0 Mg9 3.115886 1_554
Li0 Mg8 3.115886 1_555
Li0 Mg4 3.123642 1_445
Li0 Mg2 3.123643 1_455
Li0 Mg11 3.142024 1_454
Li0 Mg10 3.142024 1_455
Li0 Mg4 3.178899 1_555
Li0 Mg2 3.178899 1_555
Mg0 Mg5 3.139382 1_555
Mg0 Mg3 3.139382 1_555
Mg0 Mg10 3.157150 1_455
Mg0 Mg11 3.157150 1_455
Mg0 Mg5 3.163158 1_445
Mg0 Mg3 3.163158 1_455
Mg0 Mg1 3.163438 1_545
Mg0 Mg1 3.163438 1_555
Mg0 Mg6 3.196298 1_555
Mg0 Mg7 3.196298 1_555
Mg0 Mg9 3.196304 1_555
Mg0 Mg8 3.196304 1_555
Mg1 Mg3 3.142937 1_565
Mg1 Mg5 3.142937 1_555
Mg1 Mg3 3.159610 1_455
Mg1 Mg5 3.159610 1_455
Mg1 Mg12 3.173777 1_455
Mg1 Mg13 3.173777 1_455
Mg1 Mg9 3.183062 1_555
Mg1 Mg8 3.183062 1_555
Mg1 Mg7 3.183068 1_565
Mg1 Mg6 3.183068 1_565
Mg2 Mg4 3.126359 1_545
Mg2 Mg6 3.128759 1_555
Mg2 Mg7 3.128759 1_554
Mg2 Mg4 3.200516 1_555
Mg3 Mg5 3.160072 1_555
Mg3 Mg5 3.166803 1_545
Mg3 Mg6 3.200800 1_555
Mg3 Mg7 3.200800 1_555
Mg4 Mg8 3.128759 1_555
Mg4 Mg9 3.128759 1_554
Mg5 Mg8 3.200800 1_555
Mg5 Mg9 3.200800 1_555
Mg6 Mg8 3.135544 1_545
Mg6 Mg8 3.191330 1_555
Mg7 Mg9 3.135544 1_545
Mg7 Mg9 3.191330 1_555
Mg10 Mg2 3.137926 1_555
Mg10 Mg4 3.137932 1_545
Mg10 Mg8 3.140030 1_655
Mg10 Mg6 3.140030 1_655
Mg10 Mg3 3.161337 1_555
Mg10 Mg5 3.161343 1_545
Mg10 Mg8 3.163372 1_545
Mg10 Mg6 3.163372 1_555
Mg10 Mg12 3.163643 1_555
Mg10 Mg12 3.163643 1_545
Mg11 Mg2 3.137926 1_556
Mg11 Mg4 3.137932 1_546
Mg11 Mg9 3.140030 1_655
Mg11 Mg7 3.140030 1_655
Mg11 Mg3 3.161337 1_555
Mg11 Mg5 3.161343 1_545
Mg11 Mg9 3.163372 1_545
Mg11 Mg7 3.163372 1_555
Mg11 Mg13 3.163643 1_555
Mg11 Mg13 3.163643 1_545
Mg12 Mg6 3.112261 1_665
Mg12 Mg8 3.112261 1_655
Mg12 Mg4 3.134546 1_555
Mg12 Mg2 3.134552 1_555
Mg12 Mg6 3.190351 1_555
Mg12 Mg8 3.190352 1_555
Mg12 Mg5 3.190787 1_555
Mg12 Mg3 3.190794 1_555
Mg13 Mg7 3.112261 1_665
Mg13 Mg9 3.112261 1_655
Mg13 Mg4 3.134546 1_556
Mg13 Mg2 3.134552 1_556
Mg13 Mg7 3.190351 1_555
Mg13 Mg9 3.190352 1_555
Mg13 Mg5 3.190787 1_555
Mg13 Mg3 3.190794 1_555
Ga0 Mg9 3.097296 1_554
Ga0 Mg8 3.097296 1_555
Ga0 Mg6 3.097303 1_565
Ga0 Mg7 3.097303 1_564
Ga0 Mg12 3.115353 1_455
Ga0 Mg13 3.115353 1_454
Ga0 Mg2 3.147078 1_565
Ga0 Mg4 3.147079 1_555
Ga0 Mg2 3.155568 1_455
Ga0 Mg4 3.155568 1_455
Ga0 Li0 3.163474 1_555
Ga0 Li0 3.163474 1_565
