# generated using pymatgen
data_Ca(GePt)2
_symmetry_space_group_name_H-M   'P 1'
_cell_length_a   4.27468200
_cell_length_b   4.28663300
_cell_length_c   10.50209282
_cell_angle_alpha   89.63609455
_cell_angle_beta   90.00000000
_cell_angle_gamma   90.00000000
_symmetry_Int_Tables_number   1
_chemical_formula_structural   Ca(GePt)2
_chemical_formula_sum   'Ca2 Ge4 Pt4'
_cell_volume   192.43639315
_cell_formula_units_Z   2
loop_
 _symmetry_equiv_pos_site_id
 _symmetry_equiv_pos_as_xyz
  1  'x, y, z'
loop_
 _atom_site_type_symbol
 _atom_site_label
 _atom_site_symmetry_multiplicity
 _atom_site_fract_x
 _atom_site_fract_y
 _atom_site_fract_z
 _atom_site_occupancy
  Ca  Ca0  1  0.25000000  0.25093100  0.25111200  1
  Ca  Ca1  1  0.75000000  0.74906900  0.74888800  1
  Ge  Ge0  1  0.25000000  0.23900800  0.86733600  1
  Ge  Ge1  1  0.75000000  0.76099200  0.13266400  1
  Ge  Ge2  1  0.25000000  0.74854100  0.50035100  1
  Ge  Ge3  1  0.75000000  0.25145900  0.49964900  1
  Pt  Pt0  1  0.25000000  0.24643900  0.63338100  1
  Pt  Pt1  1  0.75000000  0.75356100  0.36661900  1
  Pt  Pt2  1  0.25000000  0.73831800  0.99951400  1
  Pt  Pt3  1  0.75000000  0.26168200  0.00048600  1
loop_
_geom_bond_atom_site_label_1
_geom_bond_atom_site_label_2
_geom_bond_distance
_geom_bond_site_symmetry_2
Ca0 Pt1 3.248462 1_545
Ca0 Pt1 3.248462 1_445
Ca0 Ge1 3.249557 1_545
Ca0 Ge1 3.249557 1_445
Ca0 Pt1 3.273410 1_555
Ca0 Pt1 3.273410 1_455
Ca0 Ge1 3.295699 1_555
Ca0 Ge1 3.295699 1_455
Ca0 Pt2 3.358067 1_554
Ca0 Ge3 3.373609 1_455
Ca0 Ge3 3.373609 1_555
Ca0 Ge2 3.379008 1_545
Ca0 Ge2 3.387091 1_555
Ca0 Pt3 3.390685 1_555
Ca0 Pt3 3.390685 1_455
Ca0 Pt2 3.447322 1_544
Ca1 Pt0 3.248462 1_565
Ca1 Pt0 3.248462 1_665
Ca1 Ge0 3.249557 1_565
Ca1 Ge0 3.249557 1_665
Ca1 Pt0 3.273410 1_555
Ca1 Pt0 3.273410 1_655
Ca1 Ge0 3.295699 1_655
Ca1 Ge0 3.295699 1_555
Ca1 Pt3 3.358067 1_556
Ca1 Ge2 3.373609 1_655
Ca1 Ge2 3.373609 1_555
Ca1 Ge3 3.379008 1_565
Ca1 Ge3 3.387091 1_555
Ca1 Pt2 3.390685 1_655
Ca1 Pt2 3.390685 1_555
Ca1 Pt3 3.447322 1_566
Ge0 Pt0 2.457021 1_555
Ge0 Pt2 2.548646 1_545
Ge0 Pt3 2.556324 1_556
Ge0 Pt3 2.556324 1_456
Ge0 Pt2 2.558481 1_555
Ge1 Pt1 2.457021 1_555
Ge1 Pt3 2.548646 1_565
Ge1 Pt2 2.556324 1_654
Ge1 Pt2 2.556324 1_554
Ge1 Pt3 2.558481 1_555
Ge2 Pt1 2.557505 1_455
Ge2 Pt1 2.557505 1_555
Ge2 Pt0 2.558322 1_565
Ge2 Pt0 2.558551 1_555
Ge3 Pt0 2.557505 1_555
Ge3 Pt0 2.557505 1_655
Ge3 Pt1 2.558322 1_545
Ge3 Pt1 2.558551 1_555
