# generated using pymatgen
data_Li9Mn2Co5O16
_symmetry_space_group_name_H-M   'P 1'
_cell_length_a   5.17697500
_cell_length_b   5.88875343
_cell_length_c   10.27689309
_cell_angle_alpha   104.20076623
_cell_angle_beta   95.29583620
_cell_angle_gamma   109.17977077
_symmetry_Int_Tables_number   1
_chemical_formula_structural   Li9Mn2Co5O16
_chemical_formula_sum   'Li9 Mn2 Co5 O16'
_cell_volume   281.70713566
_cell_formula_units_Z   1
loop_
 _symmetry_equiv_pos_site_id
 _symmetry_equiv_pos_as_xyz
  1  'x, y, z'
loop_
 _atom_site_type_symbol
 _atom_site_label
 _atom_site_symmetry_multiplicity
 _atom_site_fract_x
 _atom_site_fract_y
 _atom_site_fract_z
 _atom_site_occupancy
  Li  Li0  1  0.62341000  0.93412100  0.87613800  1
  Li  Li1  1  0.37659000  0.06587900  0.12386200  1
  Li  Li2  1  0.12458600  0.19398700  0.38110000  1
  Li  Li3  1  0.88074200  0.32006100  0.61946000  1
  Li  Li4  1  0.62472100  0.44247400  0.87362400  1
  Li  Li5  1  0.37527900  0.55752600  0.12637600  1
  Li  Li6  1  0.11925800  0.67993900  0.38054000  1
  Li  Li7  1  0.87541400  0.80601300  0.61890000  1
  Li  Li8  1  0.50000000  0.50000000  0.50000000  1
  Mn  Mn0  1  0.25456700  0.12962200  0.74537000  1
  Mn  Mn1  1  0.74543300  0.87037800  0.25463000  1
  Co  Co0  1  0.00260600  0.24836700  0.99964000  1
  Co  Co1  1  0.74150200  0.37555600  0.25272200  1
  Co  Co2  1  0.25849800  0.62444400  0.74727800  1
  Co  Co3  1  0.99739400  0.75163300  0.00036000  1
  Co  Co4  1  0.50000000  0.00000000  0.50000000  1
  O  O0  1  0.95144600  0.79270900  0.82106600  1
  O  O1  1  0.70304000  0.92574200  0.06717400  1
  O  O2  1  0.47458500  0.02809700  0.31038800  1
  O  O3  1  0.18620200  0.15225200  0.57504400  1
  O  O4  1  0.97748800  0.28062300  0.81255200  1
  O  O5  1  0.70881700  0.42284000  0.06864400  1
  O  O6  1  0.45217500  0.55088100  0.30684800  1
  O  O7  1  0.21032400  0.67912000  0.57222600  1
  O  O8  1  0.29696000  0.07425800  0.93282600  1
  O  O9  1  0.04855400  0.20729100  0.17893400  1
  O  O10  1  0.78967600  0.32088000  0.42777400  1
  O  O11  1  0.54782500  0.44911900  0.69315200  1
  O  O12  1  0.29118300  0.57716000  0.93135600  1
  O  O13  1  0.02251200  0.71937700  0.18744800  1
  O  O14  1  0.81379800  0.84774800  0.42495600  1
  O  O15  1  0.52541500  0.97190300  0.68961200  1
loop_
_geom_bond_atom_site_label_1
_geom_bond_atom_site_label_2
_geom_bond_distance
_geom_bond_site_symmetry_2
Li0 O1 1.984502 1_556
Li0 O15 2.021215 1_555
Li0 O8 2.176887 1_565
Li0 O0 2.184760 1_555
Li0 O12 2.467529 1_555
Li0 O4 2.523551 1_565
Li1 O8 1.984502 1_554
Li1 O2 2.021215 1_555
Li1 O1 2.176887 1_545
Li1 O9 2.184760 1_555
Li1 O5 2.467529 1_555
Li1 O13 2.523551 1_545
Li2 O3 2.075874 1_555
Li2 O9 2.104000 1_555
Li2 O10 2.150239 1_455
Li2 Li8 2.167413 1_555
Li2 Mn1 2.242694 1_445
Li2 O14 2.319102 1_445
Li2 O2 2.413154 1_555
Li2 O6 2.561096 1_555
Li3 O10 1.984352 1_555
Li3 O4 2.088457 1_555
Li3 O3 2.150414 1_655
Li3 O11 2.222790 1_555
Li3 O15 2.568839 1_545
Li4 O11 1.873349 1_555
Li4 O5 2.050713 1_556
Li4 O12 2.195614 1_555
Li4 Mn0 2.196849 1_555
Li4 O4 2.387333 1_555
Li4 O0 2.414427 1_555
Li4 O8 2.524150 1_555
Li5 O6 1.873349 1_555
Li5 O12 2.050713 1_554
Li5 O5 2.195614 1_555
Li5 Mn1 2.196849 1_555
Li5 O13 2.387333 1_555
Li5 O9 2.414427 1_555
Li5 O1 2.524150 1_555
Li6 O7 1.984352 1_555
Li6 O13 2.088457 1_555
Li6 O14 2.150414 1_455
Li6 O6 2.222790 1_555
Li6 O2 2.568839 1_565
Li7 O14 2.075874 1_555
Li7 O0 2.104000 1_555
Li7 O7 2.150239 1_655
Li7 Li8 2.167413 1_555
Li7 Mn0 2.242694 1_665
Li7 O3 2.319102 1_665
Li7 O15 2.413154 1_555
Li7 O11 2.561096 1_555
Li8 O11 2.083541 1_555
Li8 O6 2.083541 1_555
Li8 O7 2.184759 1_555
Li8 O10 2.184759 1_555
Li8 O3 2.499526 1_555
Li8 O14 2.499526 1_555
Mn0 O3 1.799466 1_555
Mn0 O15 1.974827 1_545
Mn0 O4 2.011133 1_455
Mn0 O8 2.035400 1_555
Mn0 O11 2.213963 1_555
Mn1 O14 1.799466 1_555
Mn1 O2 1.974827 1_565
Mn1 O13 2.011133 1_655
Mn1 O1 2.035400 1_555
Mn1 O6 2.213963 1_555
Co0 O9 1.919840 1_556
Co0 O4 1.974580 1_455
Co0 O8 2.172367 1_555
Co0 O5 2.177186 1_456
Co0 Li5 2.190416 1_556
Co0 Li0 2.211286 1_445
Co0 O1 2.325068 1_446
Co0 O12 2.330817 1_555
Co1 O10 1.912163 1_555
Co1 O5 1.978684 1_555
Co1 O6 2.122973 1_555
Co1 Li1 2.176648 1_555
Co1 Li6 2.197758 1_655
Co1 O9 2.229906 1_655
Co1 O2 2.309874 1_555
Co1 O13 2.361537 1_655
Co2 O7 1.912163 1_555
Co2 O12 1.978684 1_555
Co2 O11 2.122973 1_555
Co2 Li0 2.176648 1_555
Co2 Li3 2.197758 1_455
Co2 O0 2.229906 1_455
Co2 O15 2.309874 1_555
Co2 O4 2.361537 1_455
Co3 O0 1.919840 1_554
Co3 O13 1.974580 1_655
Co3 O1 2.172367 1_555
Co3 O12 2.177186 1_654
Co3 Li4 2.190416 1_554
Co3 Li1 2.211286 1_665
Co3 O8 2.325068 1_664
Co3 O5 2.330817 1_555
Co4 O2 1.991728 1_555
Co4 O15 1.991728 1_545
Co4 O3 2.210598 1_555
Co4 O14 2.210598 1_545
Co4 Li3 2.218493 1_555
Co4 Li6 2.218493 1_545
Co4 O7 2.324244 1_545
Co4 O10 2.324244 1_555
O10 O2 1.963949 1_555
O15 O7 1.963949 1_555
