# generated using pymatgen
data_Rb5(TmI4)3
_symmetry_space_group_name_H-M   'P 1'
_cell_length_a   15.09609049
_cell_length_b   15.09609049
_cell_length_c   4.58832500
_cell_angle_alpha   90.00000000
_cell_angle_beta   90.00000000
_cell_angle_gamma   120.00000213
_symmetry_Int_Tables_number   1
_chemical_formula_structural   Rb5(TmI4)3
_chemical_formula_sum   'Rb5 Tm3 I12'
_cell_volume   905.55279487
_cell_formula_units_Z   1
loop_
 _symmetry_equiv_pos_site_id
 _symmetry_equiv_pos_as_xyz
  1  'x, y, z'
loop_
 _atom_site_type_symbol
 _atom_site_label
 _atom_site_symmetry_multiplicity
 _atom_site_fract_x
 _atom_site_fract_y
 _atom_site_fract_z
 _atom_site_occupancy
  Rb  Rb0  1  0.33333300  0.66666700  0.00000000  1
  Rb  Rb1  1  0.66666700  0.33333300  0.00000000  1
  Rb  Rb2  1  0.71766000  0.00000000  0.00000000  1
  Rb  Rb3  1  0.00000000  0.71766000  0.00000000  1
  Rb  Rb4  1  0.28234000  0.28234000  0.00000000  1
  Tm  Tm0  1  0.32215400  0.00000000  0.50000000  1
  Tm  Tm1  1  0.00000000  0.32215400  0.50000000  1
  Tm  Tm2  1  0.67784600  0.67784600  0.50000000  1
  I  I0  1  0.18515400  0.00000000  0.00000000  1
  I  I1  1  0.00000000  0.18515400  0.00000000  1
  I  I2  1  0.81484600  0.81484600  0.00000000  1
  I  I3  1  0.45725500  0.00000000  0.00000000  1
  I  I4  1  0.00000000  0.45725500  0.00000000  1
  I  I5  1  0.54274500  0.54274500  0.00000000  1
  I  I6  1  0.23331100  0.44118700  0.50000000  1
  I  I7  1  0.55881300  0.79212400  0.50000000  1
  I  I8  1  0.44118700  0.23331100  0.50000000  1
  I  I9  1  0.20787600  0.76668900  0.50000000  1
  I  I10  1  0.79212400  0.55881300  0.50000000  1
  I  I11  1  0.76668900  0.20787600  0.50000000  1
loop_
_geom_bond_atom_site_label_1
_geom_bond_atom_site_label_2
_geom_bond_distance
_geom_bond_site_symmetry_2
I0 Tm0 3.088768 1_555
I0 Tm0 3.088768 1_554
I0 Rb3 3.750444 1_545
I0 Rb4 3.750444 1_555
I1 Tm1 3.088768 1_555
I1 Tm1 3.088768 1_554
I1 Rb2 3.750444 1_455
I1 Rb4 3.750444 1_555
I2 Tm2 3.088768 1_555
I2 Tm2 3.088768 1_554
I2 Rb3 3.750444 1_655
I2 Rb2 3.750444 1_565
I3 Tm0 3.069646 1_554
I3 Tm0 3.069646 1_555
I3 Rb2 3.931097 1_555
I4 Tm1 3.069646 1_555
I4 Tm1 3.069646 1_554
I4 Rb3 3.931097 1_555
I5 Tm2 3.069646 1_554
I5 Tm2 3.069646 1_555
I5 Rb4 3.931097 1_555
I6 Tm1 3.050425 1_555
I6 Rb4 3.651862 1_556
I6 Rb4 3.651862 1_555
I6 Rb0 3.740290 1_555
I6 Rb0 3.740290 1_556
I7 Tm2 3.050425 1_555
I7 Rb2 3.651862 1_566
I7 Rb2 3.651862 1_565
I7 Rb0 3.740290 1_555
I7 Rb0 3.740290 1_556
I8 Tm0 3.050425 1_555
I8 Rb4 3.651862 1_556
I8 Rb4 3.651862 1_555
I8 Rb1 3.740290 1_556
I8 Rb1 3.740290 1_555
I9 Tm0 3.050425 1_565
I9 Rb3 3.651862 1_556
I9 Rb3 3.651862 1_555
I9 Rb0 3.740280 1_555
I9 Rb0 3.740280 1_556
I10 Tm2 3.050425 1_555
I10 Rb3 3.651862 1_656
I10 Rb3 3.651862 1_655
I10 Rb1 3.740290 1_555
I10 Rb1 3.740290 1_556
I11 Tm1 3.050425 1_655
I11 Rb2 3.651862 1_556
I11 Rb2 3.651862 1_555
I11 Rb1 3.740280 1_556
I11 Rb1 3.740280 1_555
