# generated using pymatgen
data_LaMgVCrO6
_symmetry_space_group_name_H-M   'P 1'
_cell_length_a   5.47833800
_cell_length_b   5.33278500
_cell_length_c   9.35771013
_cell_angle_alpha   55.81012900
_cell_angle_beta   90.00000000
_cell_angle_gamma   90.00000000
_symmetry_Int_Tables_number   1
_chemical_formula_structural   LaMgVCrO6
_chemical_formula_sum   'La2 Mg2 V2 Cr2 O12'
_cell_volume   226.13744157
_cell_formula_units_Z   2
loop_
 _symmetry_equiv_pos_site_id
 _symmetry_equiv_pos_as_xyz
  1  'x, y, z'
loop_
 _atom_site_type_symbol
 _atom_site_label
 _atom_site_symmetry_multiplicity
 _atom_site_fract_x
 _atom_site_fract_y
 _atom_site_fract_z
 _atom_site_occupancy
  La  La0  1  0.21276100  0.74138200  0.25262900  1
  La  La1  1  0.78723900  0.74138200  0.75262900  1
  Mg  Mg0  1  0.69728500  0.26448200  0.25316300  1
  Mg  Mg1  1  0.30271500  0.26448200  0.75316300  1
  V  V0  1  0.25418500  0.50090100  0.00072200  1
  V  V1  1  0.74581500  0.50090100  0.50072200  1
  Cr  Cr0  1  0.25042100  0.99978500  0.50154500  1
  Cr  Cr1  1  0.74957900  0.99978500  0.00154500  1
  O  O0  1  0.70055500  0.17345600  0.74718900  1
  O  O1  1  0.46466300  0.72748900  0.04438500  1
  O  O2  1  0.47336700  0.33683300  0.44209500  1
  O  O3  1  0.94627700  0.62624800  0.06055400  1
  O  O4  1  0.93931100  0.25554700  0.44581700  1
  O  O5  1  0.22508000  0.87387700  0.75190100  1
  O  O6  1  0.29944500  0.17345600  0.24718900  1
  O  O7  1  0.53533700  0.72748900  0.54438500  1
  O  O8  1  0.52663300  0.33683300  0.94209500  1
  O  O9  1  0.05372300  0.62624800  0.56055400  1
  O  O10  1  0.06068900  0.25554700  0.94581700  1
  O  O11  1  0.77492000  0.87387700  0.25190100  1
loop_
_geom_bond_atom_site_label_1
_geom_bond_atom_site_label_2
_geom_bond_distance
_geom_bond_site_symmetry_2
La0 O6 2.324957 1_565
La0 O2 2.353125 1_555
La0 O1 2.422714 1_555
La0 O11 2.499470 1_455
La0 O4 2.638348 1_455
La0 O3 2.641800 1_455
La0 O9 2.729584 1_555
La0 O10 2.758225 1_564
La1 O0 2.324957 1_565
La1 O8 2.353125 1_555
La1 O7 2.422714 1_555
La1 O5 2.499470 1_655
La1 O10 2.638348 1_655
La1 O9 2.641800 1_655
La1 O3 2.729584 1_556
La1 O4 2.758225 1_565
Mg0 O11 2.132514 1_545
Mg0 O4 2.216716 1_555
Mg0 O3 2.218830 1_555
Mg0 O6 2.240421 1_555
Mg0 O2 2.354998 1_555
Mg0 O1 2.473063 1_555
Mg1 O5 2.132514 1_545
Mg1 O10 2.216716 1_555
Mg1 O9 2.218830 1_555
Mg1 O0 2.240421 1_555
Mg1 O8 2.354998 1_555
Mg1 O7 2.473063 1_555
Cr0 O2 1.976895 1_565
Cr0 O7 2.012799 1_555
Cr0 O6 2.029213 1_565
Cr0 O5 2.047131 1_555
Cr0 O9 2.048880 1_555
Cr0 O4 2.058573 1_465
Cr1 O8 1.976895 1_564
Cr1 O1 2.012799 1_555
Cr1 O0 2.029213 1_564
Cr1 O11 2.047131 1_555
Cr1 O3 2.048880 1_555
Cr1 O10 2.058573 1_664
O0 V1 1.975791 1_555
O1 V0 1.873894 1_555
O2 V1 1.957985 1_555
O3 V0 2.006563 1_655
O4 V1 1.963450 1_555
O5 V0 2.048928 1_556
O6 V0 1.975791 1_555
O7 V1 1.873894 1_555
O8 V0 1.957985 1_556
O9 V1 2.006563 1_455
O10 V0 1.963450 1_556
O11 V1 2.048928 1_555
