# generated using pymatgen
data_Ca3Fe2(RhO6)2
_symmetry_space_group_name_H-M   'P 1'
_cell_length_a   6.39457596
_cell_length_b   6.39457596
_cell_length_c   6.39457609
_cell_angle_alpha   92.53974970
_cell_angle_beta   92.53974970
_cell_angle_gamma   92.53975404
_symmetry_Int_Tables_number   1
_chemical_formula_structural   Ca3Fe2(RhO6)2
_chemical_formula_sum   'Ca3 Fe2 Rh2 O12'
_cell_volume   260.68394946
_cell_formula_units_Z   1
loop_
 _symmetry_equiv_pos_site_id
 _symmetry_equiv_pos_as_xyz
  1  'x, y, z'
loop_
 _atom_site_type_symbol
 _atom_site_label
 _atom_site_symmetry_multiplicity
 _atom_site_fract_x
 _atom_site_fract_y
 _atom_site_fract_z
 _atom_site_occupancy
  Ca  Ca0  1  0.37273300  0.62726700  0.00000000  1
  Ca  Ca1  1  0.00000000  0.37273300  0.62726700  1
  Ca  Ca2  1  0.62726700  0.00000000  0.37273300  1
  Fe  Fe0  1  0.50000000  0.50000000  0.50000000  1
  Fe  Fe1  1  0.00000000  0.00000000  0.00000000  1
  Rh  Rh0  1  0.24532700  0.24532700  0.24532700  1
  Rh  Rh1  1  0.75467300  0.75467300  0.75467300  1
  O  O0  1  0.84671100  0.04511600  0.71211000  1
  O  O1  1  0.71211000  0.84671100  0.04511600  1
  O  O2  1  0.04511600  0.71211000  0.84671100  1
  O  O3  1  0.15328900  0.28789000  0.95488400  1
  O  O4  1  0.95488400  0.15328900  0.28789000  1
  O  O5  1  0.28789000  0.95488400  0.15328900  1
  O  O6  1  0.64896900  0.45815100  0.76915100  1
  O  O7  1  0.76915100  0.64896900  0.45815100  1
  O  O8  1  0.45815100  0.76915100  0.64896900  1
  O  O9  1  0.35103100  0.23084900  0.54184900  1
  O  O10  1  0.23084900  0.54184900  0.35103100  1
  O  O11  1  0.54184900  0.35103100  0.23084900  1
loop_
_geom_bond_atom_site_label_1
_geom_bond_atom_site_label_2
_geom_bond_distance
_geom_bond_site_symmetry_2
Ca0 O5 2.368533 1_555
Ca0 O2 2.368533 1_554
Ca0 O1 2.529968 1_555
Ca0 O3 2.529968 1_554
Ca0 O8 2.530890 1_554
Ca0 O10 2.530890 1_555
Ca0 O11 2.593784 1_555
Ca0 O6 2.593784 1_554
Ca1 O0 2.368532 1_455
Ca1 O3 2.368533 1_555
Ca1 O2 2.529968 1_555
Ca1 O4 2.529968 1_455
Ca1 O6 2.530890 1_455
Ca1 O9 2.530890 1_555
Ca1 O10 2.593784 1_555
Ca1 O7 2.593784 1_455
Ca2 O4 2.368532 1_555
Ca2 O1 2.368533 1_545
Ca2 O5 2.529968 1_545
Ca2 O0 2.529968 1_555
Ca2 O11 2.530890 1_555
Ca2 O7 2.530890 1_545
Ca2 O8 2.593784 1_545
Ca2 O9 2.593784 1_555
Fe0 O7 1.964527 1_555
Fe0 O9 1.964527 1_555
Fe0 O8 1.964527 1_555
Fe0 O10 1.964527 1_555
Fe0 O6 1.964527 1_555
Fe0 O11 1.964527 1_555
Fe1 O3 2.084539 1_554
Fe1 O1 2.084539 1_445
Fe1 O5 2.084539 1_545
Fe1 O2 2.084539 1_544
Fe1 O4 2.084539 1_455
Fe1 O0 2.084539 1_454
O0 Rh1 1.957549 1_545
O1 Rh1 1.957549 1_554
O2 Rh1 1.957549 1_455
O3 Rh0 1.957549 1_556
O4 Rh0 1.957549 1_655
O5 Rh0 1.957549 1_565
O6 Rh1 1.992057 1_555
O7 Rh1 1.992057 1_555
O8 Rh1 1.992057 1_555
O9 Rh0 1.992057 1_555
O10 Rh0 1.992057 1_555
O11 Rh0 1.992057 1_555
