# generated using pymatgen
data_Tm6FeSb2
_symmetry_space_group_name_H-M   'P 1'
_cell_length_a   8.07009252
_cell_length_b   8.06990789
_cell_length_c   4.11968867
_cell_angle_alpha   90.00000000
_cell_angle_beta   90.00000000
_cell_angle_gamma   119.99925135
_symmetry_Int_Tables_number   1
_chemical_formula_structural   Tm6FeSb2
_chemical_formula_sum   'Tm6 Fe1 Sb2'
_cell_volume   232.35145514
_cell_formula_units_Z   1
loop_
 _symmetry_equiv_pos_site_id
 _symmetry_equiv_pos_as_xyz
  1  'x, y, z'
loop_
 _atom_site_type_symbol
 _atom_site_label
 _atom_site_symmetry_multiplicity
 _atom_site_fract_x
 _atom_site_fract_y
 _atom_site_fract_z
 _atom_site_occupancy
  Tm  Tm0  1  0.23681858  0.00000322  -0.00000000  1
  Tm  Tm1  1  0.76318142  0.76318464  -0.00000000  1
  Tm  Tm2  1  -0.00000000  0.23681064  -0.00000000  1
  Tm  Tm3  1  0.00000000  0.60407723  0.50000000  1
  Tm  Tm4  1  0.39593789  0.39593922  0.50000000  1
  Tm  Tm5  1  0.60406211  0.00000133  0.50000000  1
  Fe  Fe0  1  0.00000000  -0.00002462  0.50000000  1
  Sb  Sb0  1  0.33333986  0.66667410  -0.00000000  1
  Sb  Sb1  1  0.66666014  0.33333325  -0.00000000  1
loop_
_geom_bond_atom_site_label_1
_geom_bond_atom_site_label_2
_geom_bond_distance
_geom_bond_site_symmetry_2
Fe0 Tm1 2.809807 1_445
Fe0 Tm1 2.809807 1_446
Fe0 Tm0 2.809807 1_556
Fe0 Tm0 2.809807 1_555
Fe0 Tm2 2.809945 1_556
Fe0 Tm2 2.809945 1_555
Fe0 Tm3 3.194862 1_545
Fe0 Tm4 3.195360 1_555
Fe0 Tm5 3.195360 1_455
Sb0 Tm0 3.152417 1_565
Sb0 Tm1 3.152456 1_555
Sb0 Tm2 3.152562 1_555
Sb0 Tm5 3.221040 1_565
Sb0 Tm5 3.221040 1_564
Sb0 Tm4 3.221057 1_554
Sb0 Tm4 3.221057 1_555
Sb0 Tm3 3.221152 1_554
Sb0 Tm3 3.221152 1_555
Sb1 Tm1 3.152424 1_555
Sb1 Tm0 3.152453 1_555
Sb1 Tm2 3.152557 1_655
Sb1 Tm4 3.221044 1_555
Sb1 Tm4 3.221044 1_554
Sb1 Tm5 3.221051 1_554
Sb1 Tm5 3.221051 1_555
Sb1 Tm3 3.221154 1_654
Sb1 Tm3 3.221154 1_655
