# generated using pymatgen
data_Ca3Co4Sn13
_symmetry_space_group_name_H-M   'P 1'
_cell_length_a   9.63919900
_cell_length_b   9.63919900
_cell_length_c   9.63919900
_cell_angle_alpha   90.00000000
_cell_angle_beta   90.00000000
_cell_angle_gamma   90.00000000
_symmetry_Int_Tables_number   1
_chemical_formula_structural   Ca3Co4Sn13
_chemical_formula_sum   'Ca6 Co8 Sn26'
_cell_volume   895.61805273
_cell_formula_units_Z   2
loop_
 _symmetry_equiv_pos_site_id
 _symmetry_equiv_pos_as_xyz
  1  'x, y, z'
loop_
 _atom_site_type_symbol
 _atom_site_label
 _atom_site_symmetry_multiplicity
 _atom_site_fract_x
 _atom_site_fract_y
 _atom_site_fract_z
 _atom_site_occupancy
  Ca  Ca0  1  0.50000000  0.00000000  0.75000000  1
  Ca  Ca1  1  0.00000000  0.25000000  0.50000000  1
  Ca  Ca2  1  0.75000000  0.50000000  0.00000000  1
  Ca  Ca3  1  0.50000000  0.00000000  0.25000000  1
  Ca  Ca4  1  0.00000000  0.75000000  0.50000000  1
  Ca  Ca5  1  0.25000000  0.50000000  0.00000000  1
  Co  Co0  1  0.75000000  0.25000000  0.75000000  1
  Co  Co1  1  0.25000000  0.75000000  0.25000000  1
  Co  Co2  1  0.75000000  0.75000000  0.25000000  1
  Co  Co3  1  0.25000000  0.25000000  0.75000000  1
  Co  Co4  1  0.25000000  0.75000000  0.75000000  1
  Co  Co5  1  0.75000000  0.25000000  0.25000000  1
  Co  Co6  1  0.25000000  0.25000000  0.25000000  1
  Co  Co7  1  0.75000000  0.75000000  0.75000000  1
  Sn  Sn0  1  0.50000000  0.50000000  0.50000000  1
  Sn  Sn1  1  0.00000000  0.00000000  0.00000000  1
  Sn  Sn2  1  0.65743100  0.19864700  0.50000000  1
  Sn  Sn3  1  0.80135300  0.50000000  0.65743100  1
  Sn  Sn4  1  0.50000000  0.34256900  0.80135300  1
  Sn  Sn5  1  0.34256900  0.80135300  0.50000000  1
  Sn  Sn6  1  0.19864700  0.50000000  0.34256900  1
  Sn  Sn7  1  0.50000000  0.65743100  0.19864700  1
  Sn  Sn8  1  0.65743100  0.80135300  0.50000000  1
  Sn  Sn9  1  0.80135300  0.50000000  0.34256900  1
  Sn  Sn10  1  0.34256900  0.19864700  0.50000000  1
  Sn  Sn11  1  0.19864700  0.50000000  0.65743100  1
  Sn  Sn12  1  0.50000000  0.65743100  0.80135300  1
  Sn  Sn13  1  0.50000000  0.34256900  0.19864700  1
  Sn  Sn14  1  0.15743100  0.00000000  0.69864700  1
  Sn  Sn15  1  0.30135300  0.15743100  0.00000000  1
  Sn  Sn16  1  0.00000000  0.30135300  0.84256900  1
  Sn  Sn17  1  0.84256900  0.00000000  0.30135300  1
  Sn  Sn18  1  0.69864700  0.84256900  0.00000000  1
  Sn  Sn19  1  0.00000000  0.69864700  0.15743100  1
  Sn  Sn20  1  0.15743100  0.00000000  0.30135300  1
  Sn  Sn21  1  0.30135300  0.84256900  0.00000000  1
  Sn  Sn22  1  0.84256900  0.00000000  0.69864700  1
  Sn  Sn23  1  0.69864700  0.15743100  0.00000000  1
  Sn  Sn24  1  0.00000000  0.30135300  0.15743100  1
  Sn  Sn25  1  0.00000000  0.69864700  0.84256900  1
loop_
_geom_bond_atom_site_label_1
_geom_bond_atom_site_label_2
_geom_bond_distance
_geom_bond_site_symmetry_2
Ca0 Sn12 3.338986 1_545
Ca0 Sn22 3.338986 1_555
Ca0 Sn4 3.338986 1_555
Ca0 Sn14 3.338986 1_555
Ca0 Co3 3.407971 1_555
Ca0 Co0 3.407971 1_555
Ca0 Co4 3.407971 1_545
Ca0 Co7 3.407971 1_545
Ca0 Sn21 3.431679 1_546
Ca0 Sn5 3.431679 1_545
Ca0 Sn10 3.431679 1_555
Ca0 Sn15 3.431679 1_556
Ca0 Sn18 3.431679 1_546
Ca0 Sn23 3.431679 1_556
Ca0 Sn2 3.431679 1_555
Ca0 Sn8 3.431679 1_545
Ca1 Sn10 3.338986 1_555
Ca1 Sn16 3.338986 1_555
Ca1 Sn24 3.338986 1_555
Ca1 Sn2 3.338986 1_455
Ca1 Co6 3.407971 1_555
Ca1 Co3 3.407971 1_555
Ca1 Co5 3.407971 1_455
Ca1 Co0 3.407971 1_455
Ca1 Sn20 3.431679 1_555
Ca1 Sn6 3.431679 1_555
Ca1 Sn22 3.431679 1_455
Ca1 Sn3 3.431679 1_455
Ca1 Sn11 3.431679 1_555
Ca1 Sn14 3.431679 1_555
Ca1 Sn9 3.431679 1_455
Ca1 Sn17 3.431679 1_455
Ca2 Sn9 3.338986 1_555
Ca2 Sn18 3.338986 1_555
Ca2 Sn3 3.338986 1_554
Ca2 Sn23 3.338986 1_555
Ca2 Co2 3.407971 1_555
Ca2 Co0 3.407971 1_554
Ca2 Co5 3.407971 1_555
Ca2 Co7 3.407971 1_554
Ca2 Sn4 3.431679 1_554
Ca2 Sn13 3.431679 1_555
Ca2 Sn25 3.431679 1_654
Ca2 Sn7 3.431679 1_555
Ca2 Sn16 3.431679 1_654
Ca2 Sn12 3.431679 1_554
Ca2 Sn19 3.431679 1_655
Ca2 Sn24 3.431679 1_655
Ca3 Sn13 3.338986 1_555
Ca3 Sn20 3.338986 1_555
Ca3 Sn7 3.338986 1_545
Ca3 Sn17 3.338986 1_555
Ca3 Co6 3.407971 1_555
Ca3 Co1 3.407971 1_545
Ca3 Co5 3.407971 1_555
Ca3 Co2 3.407971 1_545
Ca3 Sn15 3.431679 1_555
Ca3 Sn5 3.431679 1_545
Ca3 Sn21 3.431679 1_545
Ca3 Sn8 3.431679 1_545
Ca3 Sn18 3.431679 1_545
Ca3 Sn10 3.431679 1_555
Ca3 Sn23 3.431679 1_555
Ca3 Sn2 3.431679 1_555
Ca4 Sn8 3.338986 1_455
Ca4 Sn25 3.338986 1_555
Ca4 Sn19 3.338986 1_555
Ca4 Sn5 3.338986 1_555
Ca4 Co7 3.407971 1_455
Ca4 Co1 3.407971 1_555
Ca4 Co2 3.407971 1_455
Ca4 Co4 3.407971 1_555
Ca4 Sn17 3.431679 1_465
Ca4 Sn6 3.431679 1_555
Ca4 Sn20 3.431679 1_565
Ca4 Sn3 3.431679 1_455
Ca4 Sn14 3.431679 1_565
Ca4 Sn22 3.431679 1_465
Ca4 Sn11 3.431679 1_555
Ca4 Sn9 3.431679 1_455
Ca5 Sn21 3.338986 1_555
Ca5 Sn15 3.338986 1_555
Ca5 Sn11 3.338986 1_554
Ca5 Sn6 3.338986 1_555
Ca5 Co6 3.407971 1_555
Ca5 Co4 3.407971 1_554
Ca5 Co1 3.407971 1_555
Ca5 Co3 3.407971 1_554
Ca5 Sn4 3.431679 1_554
Ca5 Sn16 3.431679 1_554
Ca5 Sn13 3.431679 1_555
Ca5 Sn7 3.431679 1_555
Ca5 Sn25 3.431679 1_554
Ca5 Sn19 3.431679 1_555
Ca5 Sn12 3.431679 1_554
Ca5 Sn24 3.431679 1_555
Co0 Sn2 2.616934 1_555
Co0 Sn23 2.616934 1_556
Co0 Sn16 2.616934 1_655
Co0 Sn3 2.616934 1_555
Co0 Sn22 2.616934 1_555
Co0 Sn4 2.616934 1_555
Co1 Sn21 2.616934 1_555
Co1 Sn19 2.616934 1_555
Co1 Sn7 2.616934 1_555
Co1 Sn6 2.616934 1_555
Co1 Sn20 2.616934 1_565
Co1 Sn5 2.616934 1_555
Co2 Sn19 2.616934 1_655
Co2 Sn17 2.616934 1_565
Co2 Sn8 2.616934 1_555
Co2 Sn9 2.616934 1_555
Co2 Sn18 2.616934 1_555
Co2 Sn7 2.616934 1_555
Co3 Sn14 2.616934 1_555
Co3 Sn11 2.616934 1_555
Co3 Sn10 2.616934 1_555
Co3 Sn15 2.616934 1_556
Co3 Sn16 2.616934 1_555
Co3 Sn4 2.616934 1_555
Co4 Sn5 2.616934 1_555
Co4 Sn11 2.616934 1_555
Co4 Sn12 2.616934 1_555
Co4 Sn25 2.616934 1_555
Co4 Sn14 2.616934 1_565
Co4 Sn21 2.616934 1_556
Co5 Sn2 2.616934 1_555
Co5 Sn23 2.616934 1_555
Co5 Sn9 2.616934 1_555
Co5 Sn24 2.616934 1_655
Co5 Sn13 2.616934 1_555
Co5 Sn17 2.616934 1_555
Co6 Sn15 2.616934 1_555
Co6 Sn10 2.616934 1_555
Co6 Sn13 2.616934 1_555
Co6 Sn20 2.616934 1_555
Co6 Sn6 2.616934 1_555
Co6 Sn24 2.616934 1_555
Co7 Sn18 2.616934 1_556
Co7 Sn8 2.616934 1_555
Co7 Sn12 2.616934 1_555
Co7 Sn22 2.616934 1_565
Co7 Sn25 2.616934 1_655
Co7 Sn3 2.616934 1_555
Sn0 Sn12 3.277301 1_555
Sn0 Sn3 3.277301 1_555
Sn0 Sn10 3.277301 1_555
Sn0 Sn13 3.277301 1_555
Sn0 Sn7 3.277301 1_555
Sn0 Sn4 3.277301 1_555
Sn0 Sn6 3.277301 1_555
Sn0 Sn5 3.277301 1_555
Sn0 Sn2 3.277301 1_555
Sn0 Sn11 3.277301 1_555
Sn0 Sn8 3.277301 1_555
Sn0 Sn9 3.277301 1_555
Sn1 Sn21 3.277301 1_545
Sn1 Sn17 3.277301 1_455
Sn1 Sn14 3.277301 1_554
Sn1 Sn25 3.277301 1_544
Sn1 Sn19 3.277301 1_545
Sn1 Sn20 3.277301 1_555
Sn1 Sn23 3.277301 1_455
Sn1 Sn24 3.277301 1_555
Sn1 Sn16 3.277301 1_554
Sn1 Sn22 3.277301 1_454
Sn1 Sn18 3.277301 1_445
Sn1 Sn15 3.277301 1_555
Sn2 Sn22 3.243090 1_555
Sn3 Sn9 3.035017 1_555
Sn5 Sn8 3.035017 1_555
Sn10 Sn2 3.035017 1_555
Sn10 Sn20 3.243090 1_555
Sn10 Sn14 3.243090 1_555
Sn11 Sn6 3.035017 1_555
Sn11 Sn25 3.243090 1_555
Sn11 Sn16 3.243090 1_555
Sn12 Sn4 3.035017 1_555
Sn12 Sn21 3.243090 1_556
Sn12 Sn18 3.243090 1_556
Sn13 Sn7 3.035017 1_555
Sn13 Sn23 3.243090 1_555
Sn13 Sn15 3.243090 1_555
Sn14 Sn22 3.035017 1_455
Sn14 Sn5 3.243090 1_545
Sn15 Sn21 3.035017 1_545
Sn15 Sn4 3.243090 1_554
Sn16 Sn24 3.035017 1_556
Sn16 Sn3 3.243090 1_455
Sn17 Sn20 3.035017 1_655
Sn17 Sn2 3.243090 1_555
Sn17 Sn8 3.243090 1_545
Sn18 Sn23 3.035017 1_565
Sn18 Sn7 3.243090 1_555
Sn19 Sn25 3.035017 1_554
Sn19 Sn6 3.243090 1_555
Sn19 Sn9 3.243090 1_455
Sn20 Sn5 3.243090 1_545
Sn21 Sn7 3.243090 1_555
Sn22 Sn8 3.243090 1_545
Sn23 Sn4 3.243090 1_554
Sn24 Sn6 3.243090 1_555
Sn24 Sn9 3.243090 1_455
Sn25 Sn3 3.243090 1_455
