# generated using pymatgen
data_Mn4ZnS8
_symmetry_space_group_name_H-M   'P 1'
_cell_length_a   7.02155913
_cell_length_b   7.02155913
_cell_length_c   7.02155893
_cell_angle_alpha   58.92788205
_cell_angle_beta   58.92788205
_cell_angle_gamma   58.92787535
_symmetry_Int_Tables_number   1
_chemical_formula_structural   Mn4ZnS8
_chemical_formula_sum   'Mn4 Zn1 S8'
_cell_volume   238.79660396
_cell_formula_units_Z   1
loop_
 _symmetry_equiv_pos_site_id
 _symmetry_equiv_pos_as_xyz
  1  'x, y, z'
loop_
 _atom_site_type_symbol
 _atom_site_label
 _atom_site_symmetry_multiplicity
 _atom_site_fract_x
 _atom_site_fract_y
 _atom_site_fract_z
 _atom_site_occupancy
  Mn  Mn0  1  0.50000000  0.50000000  0.50000000  1
  Mn  Mn1  1  0.00000000  0.50000000  0.50000000  1
  Mn  Mn2  1  0.50000000  0.00000000  0.50000000  1
  Mn  Mn3  1  0.50000000  0.50000000  0.00000000  1
  Zn  Zn0  1  0.00000000  0.00000000  0.00000000  1
  S  S0  1  0.25220900  0.72625600  0.25220900  1
  S  S1  1  0.72625600  0.25220900  0.25220900  1
  S  S2  1  0.25220900  0.25220900  0.72625600  1
  S  S3  1  0.26004500  0.26004500  0.26004500  1
  S  S4  1  0.73995500  0.73995500  0.73995500  1
  S  S5  1  0.27374400  0.74779100  0.74779100  1
  S  S6  1  0.74779100  0.74779100  0.27374400  1
  S  S7  1  0.74779100  0.27374400  0.74779100  1
loop_
_geom_bond_atom_site_label_1
_geom_bond_atom_site_label_2
_geom_bond_distance
_geom_bond_site_symmetry_2
Mn0 S5 2.448797 1_555
Mn0 S0 2.448797 1_555
Mn0 S1 2.448797 1_555
Mn0 S7 2.448797 1_555
Mn0 S2 2.448797 1_555
Mn0 S6 2.448797 1_555
Mn1 S2 2.357444 1_555
Mn1 S6 2.357444 1_455
Mn1 S0 2.357444 1_555
Mn1 S7 2.357444 1_455
Mn1 S3 2.364438 1_555
Mn1 S4 2.364438 1_455
Mn2 S2 2.357444 1_555
Mn2 S6 2.357444 1_545
Mn2 S1 2.357444 1_555
Mn2 S5 2.357444 1_545
Mn2 S3 2.364438 1_555
Mn2 S4 2.364438 1_545
Mn3 S7 2.357444 1_554
Mn3 S1 2.357444 1_555
Mn3 S5 2.357444 1_554
Mn3 S0 2.357444 1_555
Mn3 S3 2.364439 1_555
Mn3 S4 2.364439 1_554
S0 Zn0 2.485295 1_565
S1 Zn0 2.485295 1_655
S2 Zn0 2.485295 1_556
S5 Zn0 2.485295 1_566
S6 Zn0 2.485295 1_665
S7 Zn0 2.485295 1_656
