# generated using pymatgen
data_YCr(BO3)2
_symmetry_space_group_name_H-M   'P 1'
_cell_length_a   4.82315214
_cell_length_b   4.82288401
_cell_length_c   21.17975099
_cell_angle_alpha   83.45617963
_cell_angle_beta   96.54022225
_cell_angle_gamma   120.00020863
_symmetry_Int_Tables_number   1
_chemical_formula_structural   YCr(BO3)2
_chemical_formula_sum   'Y4 Cr4 B8 O24'
_cell_volume   422.95797643
_cell_formula_units_Z   4
loop_
 _symmetry_equiv_pos_site_id
 _symmetry_equiv_pos_as_xyz
  1  'x, y, z'
loop_
 _atom_site_type_symbol
 _atom_site_label
 _atom_site_symmetry_multiplicity
 _atom_site_fract_x
 _atom_site_fract_y
 _atom_site_fract_z
 _atom_site_occupancy
  Y  Y0  1  0.24999400  0.75002800  0.75000500  1
  Y  Y1  1  0.50000500  0.49993300  0.50007300  1
  Y  Y2  1  0.99999900  0.00005200  0.99993200  1
  Y  Y3  1  0.75000700  0.24996100  0.24999900  1
  Cr  Cr0  1  0.62511600  0.37521200  0.87493100  1
  Cr  Cr1  1  0.87515300  0.12510900  0.62508900  1
  Cr  Cr2  1  0.37506200  0.62499400  0.12497700  1
  Cr  Cr3  1  0.12500100  0.87500600  0.37506000  1
  B  B0  1  0.94002100  0.06012800  0.81987400  1
  B  B1  1  0.18997300  0.80998900  0.56999900  1
  B  B2  1  0.68996800  0.31001600  0.06985300  1
  B  B3  1  0.43994400  0.55994900  0.31995600  1
  B  B4  1  0.31008600  0.69009000  0.92999600  1
  B  B5  1  0.56001800  0.43995800  0.68012300  1
  B  B6  1  0.06004400  0.93994900  0.18003600  1
  B  B7  1  0.81000700  0.18988800  0.43014100  1
  O  O0  1  0.91090200  0.33299700  0.81750500  1
  O  O1  1  0.16089200  0.08292800  0.56763900  1
  O  O2  1  0.66086900  0.58295300  0.06748900  1
  O  O3  1  0.41097000  0.83295300  0.31759300  1
  O  O4  1  0.33905900  0.41710000  0.93235800  1
  O  O5  1  0.58904000  0.16703400  0.68249100  1
  O  O6  1  0.08898900  0.66696300  0.18240600  1
  O  O7  1  0.83907300  0.91696700  0.43250800  1
  O  O8  1  0.66709700  0.76054900  0.81750500  1
  O  O9  1  0.91698200  0.51039300  0.56764600  1
  O  O10  1  0.41700400  0.01040500  0.06749700  1
  O  O11  1  0.16692600  0.26035800  0.31760500  1
  O  O12  1  0.58304000  0.98966200  0.93234700  1
  O  O13  1  0.83289600  0.73951100  0.68248500  1
  O  O14  1  0.33301900  0.23951800  0.18240000  1
  O  O15  1  0.08293600  0.48945500  0.43250700  1
  O  O16  1  0.23958500  0.08918300  0.81751300  1
  O  O17  1  0.48949300  0.83900400  0.56762400  1
  O  O18  1  0.98955800  0.33908000  0.06749200  1
  O  O19  1  0.73951900  0.58891500  0.31759100  1
  O  O20  1  0.01049800  0.66107700  0.93236400  1
  O  O21  1  0.26037800  0.41089400  0.68248200  1
  O  O22  1  0.76045500  0.91099300  0.18240300  1
  O  O23  1  0.51042200  0.16084500  0.43250700  1
loop_
_geom_bond_atom_site_label_1
_geom_bond_atom_site_label_2
_geom_bond_distance
_geom_bond_site_symmetry_2
Cr0 O8 2.034379 1_555
Cr0 O0 2.034627 1_555
Cr0 O20 2.034687 1_655
Cr0 O4 2.034882 1_555
Cr0 O12 2.034957 1_545
Cr0 O16 2.035098 1_555
Cr1 O21 2.033708 1_655
Cr1 O9 2.034569 1_555
Cr1 O13 2.034675 1_545
Cr1 O1 2.034712 1_655
Cr1 O5 2.034824 1_555
Cr1 O17 2.036088 1_545
Cr2 O14 2.034794 1_555
Cr2 O22 2.034816 1_555
Cr2 O6 2.035170 1_555
Cr2 O2 2.035184 1_555
Cr2 O10 2.035295 1_565
Cr2 O18 2.035683 1_455
Cr3 O11 2.034825 1_565
Cr3 O7 2.034871 1_455
Cr3 O23 2.034916 1_565
Cr3 O15 2.035307 1_555
Cr3 O3 2.035529 1_555
Cr3 O19 2.035682 1_455
B0 O16 1.386399 1_655
B0 O0 1.386475 1_555
B0 O8 1.386508 1_545
B1 O17 1.386312 1_555
B1 O9 1.386676 1_455
B1 O1 1.386722 1_565
B2 O18 1.386506 1_555
B2 O10 1.386665 1_555
B2 O2 1.386755 1_555
B3 O19 1.386646 1_555
B3 O11 1.386716 1_555
B3 O3 1.386734 1_555
B4 O12 1.386532 1_555
B4 O20 1.386622 1_555
B4 O4 1.386666 1_555
B5 O13 1.386335 1_555
B5 O5 1.386474 1_555
B5 O21 1.386740 1_555
B6 O6 1.386556 1_555
B6 O14 1.386580 1_565
B6 O22 1.386740 1_455
B7 O15 1.386482 1_655
B7 O23 1.386540 1_555
B7 O7 1.386582 1_545
O0 Y0 2.313388 1_655
O1 Y1 2.314205 1_555
O2 Y2 2.314320 1_564
O3 Y3 2.314441 1_565
O4 Y2 2.314311 1_455
O5 Y0 2.313436 1_545
O6 Y3 2.314325 1_455
O7 Y1 2.314180 1_555
O8 Y0 2.313623 1_555
O9 Y1 2.314051 1_555
O10 Y2 2.314246 1_454
O11 Y3 2.314300 1_455
O12 Y2 2.314231 1_565
O13 Y0 2.313831 1_655
O14 Y3 2.314409 1_555
O15 Y1 2.314294 1_555
O16 Y0 2.313854 1_545
O17 Y1 2.314394 1_555
O18 Y2 2.314212 1_554
O19 Y3 2.314507 1_555
O20 Y2 2.314254 1_465
O21 Y0 2.313943 1_555
O22 Y3 2.314534 1_565
O23 Y1 2.314477 1_555
