# generated using pymatgen
data_KLiHoF5
_symmetry_space_group_name_H-M   'P 1'
_cell_length_a   6.51509235
_cell_length_b   6.35924830
_cell_length_c   11.90250300
_cell_angle_alpha   90.00000000
_cell_angle_beta   90.00000000
_cell_angle_gamma   113.83431737
_symmetry_Int_Tables_number   1
_chemical_formula_structural   KLiHoF5
_chemical_formula_sum   'K4 Li4 Ho4 F20'
_cell_volume   451.07814777
_cell_formula_units_Z   4
loop_
 _symmetry_equiv_pos_site_id
 _symmetry_equiv_pos_as_xyz
  1  'x, y, z'
loop_
 _atom_site_type_symbol
 _atom_site_label
 _atom_site_symmetry_multiplicity
 _atom_site_fract_x
 _atom_site_fract_y
 _atom_site_fract_z
 _atom_site_occupancy
  K  K0  1  0.94717900  0.96320700  0.34984000  1
  K  K1  1  0.05282100  0.03679300  0.65016000  1
  K  K2  1  0.05282100  0.53679300  0.84984000  1
  K  K3  1  0.94717900  0.46320700  0.15016000  1
  Li  Li0  1  0.55808000  0.96181600  0.74582200  1
  Li  Li1  1  0.44192000  0.03818400  0.25417800  1
  Li  Li2  1  0.44192000  0.53818400  0.24582200  1
  Li  Li3  1  0.55808000  0.46181600  0.75417800  1
  Ho  Ho0  1  0.68244400  0.82100700  0.99760900  1
  Ho  Ho1  1  0.31755600  0.17899300  0.00239100  1
  Ho  Ho2  1  0.31755600  0.67899300  0.49760900  1
  Ho  Ho3  1  0.68244400  0.32100700  0.50239100  1
  F  F0  1  0.72101900  0.77810000  0.80580400  1
  F  F1  1  0.27898100  0.22190000  0.19419600  1
  F  F2  1  0.27898100  0.72190000  0.30580400  1
  F  F3  1  0.72101900  0.27810000  0.69419600  1
  F  F4  1  0.66433000  0.95241700  0.53145400  1
  F  F5  1  0.33567000  0.04758300  0.46854600  1
  F  F6  1  0.33567000  0.54758300  0.03145400  1
  F  F7  1  0.66433000  0.45241700  0.96854600  1
  F  F8  1  0.95566700  0.67280600  0.50682700  1
  F  F9  1  0.04433300  0.32719400  0.49317300  1
  F  F10  1  0.04433300  0.82719400  0.00682700  1
  F  F11  1  0.95566700  0.17280600  0.99317300  1
  F  F12  1  0.46444400  0.96606200  0.89594400  1
  F  F13  1  0.53555600  0.03393800  0.10405600  1
  F  F14  1  0.53555600  0.53393800  0.39594400  1
  F  F15  1  0.46444400  0.46606200  0.60405600  1
  F  F16  1  0.28721800  0.77772800  0.67396900  1
  F  F17  1  0.71278200  0.22227200  0.32603100  1
  F  F18  1  0.71278200  0.72227200  0.17396900  1
  F  F19  1  0.28721800  0.27772800  0.82603100  1
loop_
_geom_bond_atom_site_label_1
_geom_bond_atom_site_label_2
_geom_bond_distance
_geom_bond_site_symmetry_2
F0 Li3 1.955592 1_555
F0 Li0 2.000965 1_555
F0 Ho0 2.324852 1_555
F0 K1 2.817308 1_665
F0 K2 3.159665 1_655
F1 Li2 1.955592 1_555
F1 Li1 2.000965 1_555
F1 Ho1 2.324852 1_555
F1 K0 2.817308 1_445
F1 K3 3.159665 1_455
F2 Li1 1.955592 1_565
F2 Li2 2.000965 1_555
F2 Ho2 2.324852 1_555
F2 K3 2.817308 1_455
F2 K0 3.159665 1_455
F3 Li0 1.955592 1_545
F3 Li3 2.000965 1_555
F3 Ho3 2.324852 1_555
F3 K2 2.817308 1_655
F3 K1 3.159665 1_655
F4 Ho2 2.261647 1_555
F4 Ho3 2.324684 1_565
F4 K1 2.755511 1_665
F4 K0 2.823324 1_555
F5 Ho3 2.261647 1_555
F5 Ho2 2.324684 1_545
F5 K0 2.755511 1_445
F5 K1 2.823324 1_555
F6 Ho0 2.261647 1_554
F6 Ho1 2.324684 1_555
F6 K3 2.755511 1_455
F6 K2 2.823324 1_554
F7 Ho1 2.261647 1_556
F7 Ho0 2.324684 1_555
F7 K2 2.755511 1_655
F7 K3 2.823324 1_556
F8 Ho3 2.226643 1_555
F8 Ho2 2.344686 1_655
F8 K0 2.643378 1_555
F8 K1 2.735841 1_665
F9 Ho2 2.226643 1_555
F9 Ho3 2.344686 1_455
F9 K1 2.643378 1_555
F9 K0 2.735841 1_445
F10 Ho1 2.226643 1_565
F10 Ho0 2.344686 1_454
F10 K2 2.643378 1_554
F10 K3 2.735841 1_455
F11 Ho0 2.226643 1_545
F11 Ho1 2.344686 1_656
F11 K3 2.643378 1_556
F11 K2 2.735841 1_655
F12 Li0 1.891812 1_555
F12 Ho0 2.321900 1_555
F12 Ho1 2.324198 1_566
F12 K2 3.004731 1_555
F13 Li1 1.891812 1_555
F13 Ho1 2.321900 1_555
F13 Ho0 2.324198 1_544
F13 K3 3.004731 1_555
F14 Li2 1.891812 1_555
F14 Ho2 2.321900 1_555
F14 Ho3 2.324198 1_555
F14 K0 3.004731 1_555
F15 Li3 1.891812 1_555
F15 Ho3 2.321900 1_555
F15 Ho2 2.324198 1_555
F15 K1 3.004731 1_555
F16 Li0 1.883190 1_555
F16 Ho2 2.222595 1_555
F16 K1 2.675781 1_565
F16 K2 2.677789 1_555
F17 Li1 1.883190 1_555
F17 Ho3 2.222595 1_555
F17 K0 2.675781 1_545
F17 K3 2.677789 1_555
F18 Li2 1.883190 1_555
F18 Ho0 2.222595 1_554
F18 K3 2.675781 1_555
F18 K0 2.677789 1_555
F19 Li3 1.883190 1_555
F19 Ho1 2.222595 1_556
F19 K2 2.675781 1_555
F19 K1 2.677789 1_555
