# generated using pymatgen
data_Na3LiP2O7
_symmetry_space_group_name_H-M   'P 1'
_cell_length_a   5.39316314
_cell_length_b   5.39316314
_cell_length_c   12.42122000
_cell_angle_alpha   90.00000000
_cell_angle_beta   90.00000000
_cell_angle_gamma   117.93748307
_symmetry_Int_Tables_number   1
_chemical_formula_structural   Na3LiP2O7
_chemical_formula_sum   'Na6 Li2 P4 O14'
_cell_volume   319.18165747
_cell_formula_units_Z   2
loop_
 _symmetry_equiv_pos_site_id
 _symmetry_equiv_pos_as_xyz
  1  'x, y, z'
loop_
 _atom_site_type_symbol
 _atom_site_label
 _atom_site_symmetry_multiplicity
 _atom_site_fract_x
 _atom_site_fract_y
 _atom_site_fract_z
 _atom_site_occupancy
  Na  Na0  1  0.34991000  0.34991000  0.50000000  1
  Na  Na1  1  0.65009000  0.65009000  0.00000000  1
  Na  Na2  1  0.04736100  0.70236400  0.61878700  1
  Na  Na3  1  0.70236400  0.04736100  0.38121300  1
  Na  Na4  1  0.95263900  0.29763600  0.11878700  1
  Na  Na5  1  0.29763600  0.95263900  0.88121300  1
  Li  Li0  1  0.53732000  0.46268000  0.75000000  1
  Li  Li1  1  0.46268000  0.53732000  0.25000000  1
  P  P0  1  0.69036500  0.02837200  0.64851800  1
  P  P1  1  0.02837200  0.69036500  0.35148200  1
  P  P2  1  0.30963500  0.97162800  0.14851800  1
  P  P3  1  0.97162800  0.30963500  0.85148200  1
  O  O0  1  0.58525500  0.71356900  0.62828600  1
  O  O1  1  0.71356900  0.58525500  0.37171400  1
  O  O2  1  0.41474500  0.28643100  0.12828600  1
  O  O3  1  0.28643100  0.41474500  0.87171400  1
  O  O4  1  0.86901500  0.21802800  0.55694300  1
  O  O5  1  0.21802800  0.86901500  0.44305700  1
  O  O6  1  0.13098500  0.78197200  0.05694300  1
  O  O7  1  0.78197200  0.13098500  0.94305700  1
  O  O8  1  0.45591600  0.09417100  0.68602000  1
  O  O9  1  0.09417100  0.45591600  0.31398000  1
  O  O10  1  0.54408400  0.90582900  0.18602000  1
  O  O11  1  0.90582900  0.54408400  0.81398000  1
  O  O12  1  0.90696200  0.09303800  0.75000000  1
  O  O13  1  0.09303800  0.90696200  0.25000000  1
loop_
_geom_bond_atom_site_label_1
_geom_bond_atom_site_label_2
_geom_bond_distance
_geom_bond_site_symmetry_2
Na0 O0 2.379953 1_555
Na0 O1 2.379953 1_555
Na0 O4 2.450335 1_455
Na0 O5 2.450335 1_545
Na0 O9 2.882164 1_555
Na0 O8 2.882164 1_555
Na1 O2 2.379953 1_555
Na1 O3 2.379953 1_554
Na1 O6 2.450335 1_655
Na1 O7 2.450335 1_564
Na1 O11 2.882164 1_554
Na1 O10 2.882164 1_555
Na2 O5 2.375789 1_555
Na2 O8 2.377981 1_565
Na2 O4 2.446248 1_455
Na2 O0 2.523850 1_455
Na2 O11 2.564985 1_455
Na2 O0 2.875556 1_555
Na3 O4 2.375789 1_555
Na3 O9 2.377981 1_655
Na3 O5 2.446248 1_545
Na3 O1 2.523850 1_545
Na3 O10 2.564985 1_545
Na3 O1 2.875556 1_555
Na4 O7 2.375789 1_554
Na4 O10 2.377981 1_545
Na4 O6 2.446248 1_655
Na4 O2 2.523850 1_655
Na4 O9 2.564985 1_655
Na4 O2 2.875556 1_555
Na5 O6 2.375789 1_556
Na5 O11 2.377981 1_455
Na5 O7 2.446248 1_565
Na5 O3 2.523850 1_565
Na5 O8 2.564985 1_565
Na5 O3 2.875556 1_555
Li0 O3 1.963556 1_555
Li0 O0 1.963556 1_555
Li0 O11 1.989122 1_555
Li0 O8 1.989122 1_555
Li1 O1 1.963556 1_555
Li1 O2 1.963556 1_555
Li1 O10 1.989122 1_555
Li1 O9 1.989122 1_555
O0 P0 1.537907 1_565
O1 P1 1.537907 1_655
O2 P2 1.537907 1_545
O3 P3 1.537907 1_455
O4 P0 1.531320 1_555
O5 P1 1.531320 1_555
O6 P2 1.531320 1_555
O7 P3 1.531320 1_555
O8 P0 1.536918 1_555
O9 P1 1.536918 1_555
O10 P2 1.536918 1_555
O11 P3 1.536918 1_555
O12 P3 1.641155 1_555
O12 P0 1.641155 1_555
O13 P1 1.641155 1_555
O13 P2 1.641155 1_555
