# generated using pymatgen
data_Pu3Al
_symmetry_space_group_name_H-M   'P 1'
_cell_length_a   5.32859548
_cell_length_b   5.32859548
_cell_length_c   23.25564308
_cell_angle_alpha   90.00000000
_cell_angle_beta   83.42142375
_cell_angle_gamma   120.00000000
_symmetry_Int_Tables_number   1
_chemical_formula_structural   Pu3Al
_chemical_formula_sum   'Pu24 Al8'
_cell_volume   566.82719753
_cell_formula_units_Z   8
loop_
 _symmetry_equiv_pos_site_id
 _symmetry_equiv_pos_as_xyz
  1  'x, y, z'
loop_
 _atom_site_type_symbol
 _atom_site_label
 _atom_site_symmetry_multiplicity
 _atom_site_fract_x
 _atom_site_fract_y
 _atom_site_fract_z
 _atom_site_occupancy
  Pu  Pu0_0  1  0.25576000  0.12788000  0.11636000  1
  Pu  Pu0_1  1  0.25576000  0.12788000  0.61636000  1
  Pu  Pu0_2  1  0.25576000  0.62788000  0.11636000  1
  Pu  Pu0_3  1  0.25576000  0.62788000  0.61636000  1
  Pu  Pu0_4  1  0.75576000  0.12788000  0.11636000  1
  Pu  Pu0_5  1  0.75576000  0.12788000  0.61636000  1
  Pu  Pu0_6  1  0.75576000  0.62788000  0.11636000  1
  Pu  Pu0_7  1  0.75576000  0.62788000  0.61636000  1
  Pu  Pu1_0  1  1.00000000  0.25000000  0.25000000  1
  Pu  Pu1_1  1  0.00000000  0.25000000  0.75000000  1
  Pu  Pu1_2  1  0.00000000  0.75000000  0.25000000  1
  Pu  Pu1_3  1  0.00000000  0.75000000  0.75000000  1
  Pu  Pu1_4  1  0.50000000  0.25000000  0.25000000  1
  Pu  Pu1_5  1  0.50000000  0.25000000  0.75000000  1
  Pu  Pu1_6  1  0.50000000  0.75000000  0.25000000  1
  Pu  Pu1_7  1  0.50000000  0.75000000  0.75000000  1
  Pu  Pu2_0  1  0.24424000  0.37212000  0.38364000  1
  Pu  Pu2_1  1  0.24424000  0.37212000  0.88364000  1
  Pu  Pu2_2  1  0.24424000  0.87212000  0.38364000  1
  Pu  Pu2_3  1  0.24424000  0.87212000  0.88364000  1
  Pu  Pu2_4  1  0.74424000  0.37212000  0.38364000  1
  Pu  Pu2_5  1  0.74424000  0.37212000  0.88364000  1
  Pu  Pu2_6  1  0.74424000  0.87212000  0.38364000  1
  Pu  Pu2_7  1  0.74424000  0.87212000  0.88364000  1
  Al  Al0_0  1  0.00000000  0.00000000  0.00000000  1
  Al  Al0_1  1  0.00000000  1.00000000  0.50000000  1
  Al  Al0_2  1  0.00000000  0.50000000  0.00000000  1
  Al  Al0_3  1  1.00000000  0.50000000  0.50000000  1
  Al  Al0_4  1  0.50000000  0.00000000  0.00000000  1
  Al  Al0_5  1  0.50000000  0.00000000  0.50000000  1
  Al  Al0_6  1  0.50000000  0.50000000  0.00000000  1
  Al  Al0_7  1  0.50000000  0.50000000  0.50000000  1
loop_
_geom_bond_atom_site_label_1
_geom_bond_atom_site_label_2
_geom_bond_distance
_geom_bond_site_symmetry_2
Pu0_0 Pu0_4 2.664298 1_455
Pu0_0 Pu0_6 2.664298 1_445
Pu0_0 Pu0_2 2.664298 1_555
Pu0_0 Pu0_2 2.664298 1_545
Pu0_0 Pu0_4 2.664298 1_555
Pu0_0 Pu0_6 2.664298 1_555
Pu0_1 Pu0_5 2.664298 1_455
Pu0_1 Pu0_7 2.664298 1_445
Pu0_1 Pu0_3 2.664298 1_555
Pu0_1 Pu0_3 2.664298 1_545
Pu0_1 Pu0_7 2.664298 1_555
Pu0_1 Pu0_5 2.664298 1_555
Pu0_2 Pu0_6 2.664298 1_455
Pu0_2 Pu0_4 2.664298 1_565
Pu0_2 Pu0_4 2.664298 1_455
Pu0_2 Pu0_6 2.664298 1_555
Pu0_3 Pu0_7 2.664298 1_555
Pu0_3 Pu0_7 2.664298 1_455
Pu0_3 Pu0_5 2.664298 1_565
Pu0_3 Pu0_5 2.664298 1_455
Pu0_4 Pu0_6 2.664298 1_545
Pu0_4 Pu0_6 2.664298 1_555
Pu0_5 Pu0_7 2.664298 1_545
Pu0_5 Pu0_7 2.664298 1_555
Pu1_0 Pu1_6 2.664298 1_545
Pu1_0 Pu1_2 2.664298 1_645
Pu1_0 Pu1_4 2.664298 1_555
Pu1_0 Pu1_2 2.664298 1_655
Pu1_0 Pu1_6 2.664298 1_655
Pu1_0 Pu1_4 2.664298 1_655
Pu1_1 Pu1_5 2.664298 1_555
Pu1_1 Pu1_3 2.664298 1_555
Pu1_1 Pu1_7 2.664298 1_555
Pu1_1 Pu1_7 2.664298 1_445
Pu1_1 Pu1_5 2.664298 1_455
Pu1_1 Pu1_3 2.664298 1_545
Pu1_2 Pu1_6 2.664298 1_455
Pu1_2 Pu1_4 2.664298 1_565
Pu1_2 Pu1_4 2.664298 1_455
Pu1_2 Pu1_6 2.664298 1_555
Pu1_3 Pu1_7 2.664298 1_555
Pu1_3 Pu1_5 2.664298 1_565
Pu1_3 Pu1_5 2.664298 1_455
Pu1_3 Pu1_7 2.664298 1_455
Pu1_4 Pu1_6 2.664298 1_545
Pu1_4 Pu1_6 2.664298 1_555
Pu1_5 Pu1_7 2.664298 1_555
Pu1_5 Pu1_7 2.664298 1_545
Pu2_0 Pu2_6 2.664298 1_445
Pu2_0 Pu2_2 2.664298 1_555
Pu2_0 Pu2_4 2.664298 1_455
Pu2_0 Pu2_6 2.664298 1_555
Pu2_0 Pu2_2 2.664298 1_545
Pu2_0 Pu2_4 2.664298 1_555
Pu2_1 Pu2_3 2.664298 1_555
Pu2_1 Pu2_7 2.664298 1_555
Pu2_1 Pu2_5 2.664298 1_555
Pu2_1 Pu2_5 2.664298 1_455
Pu2_1 Pu2_7 2.664298 1_445
Pu2_1 Pu2_3 2.664298 1_545
Pu2_2 Pu2_4 2.664298 1_565
Pu2_2 Pu2_4 2.664298 1_455
Pu2_2 Pu2_6 2.664298 1_555
Pu2_2 Pu2_6 2.664298 1_455
Pu2_3 Pu2_5 2.664298 1_455
Pu2_3 Pu2_7 2.664298 1_555
Pu2_3 Pu2_7 2.664298 1_455
Pu2_3 Pu2_5 2.664298 1_565
Pu2_4 Pu2_6 2.664298 1_545
Pu2_4 Pu2_6 2.664298 1_555
Pu2_5 Pu2_7 2.664298 1_555
Pu2_5 Pu2_7 2.664298 1_545
Al0_0 Al0_4 2.664298 1_455
Al0_0 Al0_6 2.664298 1_445
Al0_0 Al0_2 2.664298 1_555
Al0_0 Al0_2 2.664298 1_545
Al0_0 Al0_6 2.664298 1_555
Al0_0 Al0_4 2.664298 1_555
Al0_0 Pu0_4 3.092021 1_455
Al0_0 Pu0_6 3.092021 1_445
Al0_0 Pu2_1 3.092021 1_554
Al0_0 Pu2_3 3.092021 1_544
Al0_0 Pu0_0 3.092021 1_555
Al0_0 Pu2_7 3.092021 1_444
Al0_1 Al0_5 2.664298 1_565
Al0_1 Al0_7 2.664298 1_565
Al0_1 Al0_3 2.664298 1_455
Al0_1 Al0_3 2.664298 1_465
Al0_1 Al0_7 2.664298 1_455
Al0_1 Al0_5 2.664298 1_465
Al0_1 Pu0_7 3.092021 1_455
Al0_1 Pu2_2 3.092021 1_555
Al0_1 Pu2_0 3.092021 1_565
Al0_1 Pu0_5 3.092021 1_465
Al0_1 Pu0_1 3.092021 1_565
Al0_1 Pu2_6 3.092021 1_455
Al0_2 Al0_4 2.664298 1_455
Al0_2 Al0_6 2.664298 1_455
Al0_2 Al0_4 2.664298 1_565
Al0_2 Al0_6 2.664298 1_555
Al0_2 Pu0_6 3.092021 1_455
Al0_2 Pu0_4 3.092021 1_455
Al0_2 Pu2_3 3.092021 1_554
Al0_2 Pu2_1 3.092021 1_554
Al0_2 Pu0_2 3.092021 1_555
Al0_2 Pu2_5 3.092021 1_454
Al0_3 Al0_5 2.664298 1_555
Al0_3 Al0_7 2.664298 1_555
Al0_3 Al0_7 2.664298 1_655
Al0_3 Al0_5 2.664298 1_665
Al0_3 Pu2_2 3.092021 1_655
Al0_3 Pu0_7 3.092021 1_555
Al0_3 Pu2_0 3.092021 1_655
Al0_3 Pu0_5 3.092021 1_555
Al0_3 Pu2_4 3.092021 1_555
Al0_3 Pu0_3 3.092021 1_655
Al0_4 Al0_6 2.664298 1_555
Al0_4 Al0_6 2.664298 1_545
Al0_4 Pu0_2 3.092021 1_545
Al0_4 Pu0_0 3.092021 1_555
Al0_4 Pu2_5 3.092021 1_554
Al0_4 Pu2_7 3.092021 1_544
Al0_4 Pu0_4 3.092021 1_555
Al0_4 Pu2_3 3.092021 1_544
Al0_5 Al0_7 2.664298 1_555
Al0_5 Al0_7 2.664298 1_545
Al0_5 Pu2_4 3.092021 1_555
Al0_5 Pu0_1 3.092021 1_555
Al0_5 Pu2_6 3.092021 1_545
Al0_5 Pu0_3 3.092021 1_545
Al0_5 Pu2_2 3.092021 1_545
Al0_5 Pu0_5 3.092021 1_555
Al0_6 Pu0_2 3.092021 1_555
Al0_6 Pu0_0 3.092021 1_555
Al0_6 Pu2_7 3.092021 1_554
Al0_6 Pu2_5 3.092021 1_554
Al0_6 Pu0_6 3.092021 1_555
Al0_6 Pu2_1 3.092021 1_554
Al0_7 Pu2_4 3.092021 1_555
Al0_7 Pu0_1 3.092021 1_555
Al0_7 Pu2_6 3.092021 1_555
Al0_7 Pu0_3 3.092021 1_555
Al0_7 Pu2_0 3.092021 1_555
Al0_7 Pu0_7 3.092021 1_555
