# generated using pymatgen
data_Li5V3P8O29
_symmetry_space_group_name_H-M   'P 1'
_cell_length_a   9.80871900
_cell_length_b   9.81262966
_cell_length_c   13.96339051
_cell_angle_alpha   89.74333863
_cell_angle_beta   89.70578492
_cell_angle_gamma   60.18027896
_symmetry_Int_Tables_number   1
_chemical_formula_structural   Li5V3P8O29
_chemical_formula_sum   'Li10 V6 P16 O58'
_cell_volume   1165.99986906
_cell_formula_units_Z   2
loop_
 _symmetry_equiv_pos_site_id
 _symmetry_equiv_pos_as_xyz
  1  'x, y, z'
loop_
 _atom_site_type_symbol
 _atom_site_label
 _atom_site_symmetry_multiplicity
 _atom_site_fract_x
 _atom_site_fract_y
 _atom_site_fract_z
 _atom_site_occupancy
  Li  Li0  1  0.67641300  0.09452700  0.44053500  1
  Li  Li1  1  0.33700500  0.33391800  0.11558400  1
  Li  Li2  1  0.09069100  0.68306800  0.93958700  1
  Li  Li3  1  0.22566600  0.08631300  0.93894300  1
  Li  Li4  1  0.91034700  0.77328500  0.56042500  1
  Li  Li5  1  0.09584700  0.22743300  0.43991000  1
  Li  Li6  1  0.77287600  0.90868100  0.05958700  1
  Li  Li7  1  0.90226900  0.32368800  0.05822400  1
  Li  Li8  1  0.77104100  0.32448900  0.56132300  1
  Li  Li9  1  0.32415000  0.90205900  0.55957500  1
  V  V0  1  0.99943000  0.56832900  0.74828500  1
  V  V1  1  0.99876300  0.43232700  0.25253800  1
  V  V2  1  0.56879600  0.00019400  0.25012300  1
  V  V3  1  0.43435100  0.99780500  0.75188700  1
  V  V4  1  0.56455500  0.43426400  0.75392300  1
  V  V5  1  0.42908500  0.57468600  0.25016000  1
  P  P0  1  0.68221100  0.23202300  0.15760500  1
  P  P1  1  0.67974500  0.09007300  0.65948200  1
  P  P2  1  0.23252800  0.68377200  0.65660700  1
  P  P3  1  0.33050700  0.33483800  0.87302000  1
  P  P4  1  0.33555800  0.33340200  0.37286200  1
  P  P5  1  0.09049800  0.68026900  0.15935300  1
  P  P6  1  0.91325800  0.76866900  0.34349000  1
  P  P7  1  0.22944000  0.09156800  0.15612100  1
  P  P8  1  0.76894900  0.91283300  0.84290300  1
  P  P9  1  0.08998600  0.23029200  0.65876000  1
  P  P10  1  0.91045600  0.32037500  0.84068900  1
  P  P11  1  0.66593900  0.66581700  0.62658000  1
  P  P12  1  0.66894700  0.66432900  0.12630000  1
  P  P13  1  0.76531900  0.31842000  0.34296400  1
  P  P14  1  0.31765200  0.91371300  0.33967700  1
  P  P15  1  0.31418800  0.76871900  0.84357300  1
  O  O0  1  0.75369500  0.24397800  0.43438900  1
  O  O1  1  0.66346400  0.25626800  0.66201800  1
  O  O2  1  0.75864000  0.99395800  0.93409000  1
  O  O3  1  0.66078300  0.08417200  0.15908200  1
  O  O4  1  0.51652000  0.37777700  0.17284300  1
  O  O5  1  0.47964000  0.33517100  0.82756500  1
  O  O6  1  0.38392200  0.52382000  0.67733400  1
  O  O7  1  0.23581200  0.75465100  0.93065600  1
  O  O8  1  0.25709100  0.66169800  0.16424500  1
  O  O9  1  0.48904000  0.18460500  0.33278800  1
  O  O10  1  0.51999600  0.10256800  0.67664100  1
  O  O11  1  0.33671100  0.47947700  0.32422500  1
  O  O12  1  0.33354200  0.33616100  0.98044900  1
  O  O13  1  0.33804900  0.33329800  0.47924400  1
  O  O14  1  0.18449700  0.48733600  0.83485600  1
  O  O15  1  0.37318300  0.11382400  0.17408100  1
  O  O16  1  0.32837600  0.18496700  0.83648000  1
  O  O17  1  0.08660500  0.66101600  0.65915600  1
  O  O18  1  0.00047700  0.78873600  0.25024600  1
  O  O19  1  0.99434500  0.75997000  0.43416200  1
  O  O20  1  0.00202900  0.75923700  0.07004900  1
  O  O21  1  0.11257100  0.51399900  0.17379800  1
  O  O22  1  0.18646600  0.32811500  0.33458400  1
  O  O23  1  0.91601000  0.74588700  0.83816000  1
  O  O24  1  0.10216300  0.37825900  0.67641300  1
  O  O25  1  0.25519000  0.08122800  0.66123500  1
  O  O26  1  0.79010300  0.00081200  0.75068300  1
  O  O27  1  0.76063900  0.00374800  0.56939600  1
  O  O28  1  0.24115900  0.99894400  0.43029900  1
  O  O29  1  0.74687500  0.91620300  0.33881000  1
  O  O30  1  0.90528100  0.61696600  0.32191700  1
  O  O31  1  0.07983900  0.25862100  0.16228900  1
  O  O32  1  0.81312400  0.67287900  0.66633200  1
  O  O33  1  0.90219100  0.47905800  0.82395900  1
  O  O34  1  0.99688900  0.24116300  0.93051700  1
  O  O35  1  0.00230700  0.23938600  0.56875200  1
  O  O36  1  0.00043500  0.20861100  0.74997000  1
  O  O37  1  0.91464200  0.33432300  0.34195400  1
  O  O38  1  0.67066800  0.81284100  0.16628800  1
  O  O39  1  0.61771200  0.90288100  0.82242800  1
  O  O40  1  0.81486100  0.51256100  0.16688000  1
  O  O41  1  0.66386300  0.66293400  0.02005600  1
  O  O42  1  0.66932000  0.65820800  0.51981700  1
  O  O43  1  0.66988900  0.51279400  0.67033000  1
  O  O44  1  0.47750200  0.90528400  0.32239200  1
  O  O45  1  0.51350300  0.81196200  0.66617000  1
  O  O46  1  0.74310800  0.34222000  0.83448000  1
  O  O47  1  0.78456000  0.20771400  0.25389000  1
  O  O48  1  0.76992100  0.23778700  0.07276900  1
  O  O49  1  0.61603700  0.47663500  0.32209900  1
  O  O50  1  0.52126600  0.66157300  0.17514000  1
  O  O51  1  0.47688400  0.61758800  0.82332400  1
  O  O52  1  0.33594200  0.91425300  0.84161900  1
  O  O53  1  0.23471000  0.01001700  0.06604200  1
  O  O54  1  0.20956700  0.00279100  0.24878500  1
  O  O55  1  0.33951200  0.74637200  0.33517800  1
  O  O56  1  0.24143700  0.76571400  0.56985400  1
  O  O57  1  0.20939200  0.78991400  0.75025300  1
loop_
_geom_bond_atom_site_label_1
_geom_bond_atom_site_label_2
_geom_bond_distance
_geom_bond_site_symmetry_2
Li0 O0 1.958683 1_555
Li0 O27 1.995652 1_555
Li0 O29 2.089638 1_545
Li0 O9 2.196249 1_555
Li1 O12 1.887256 1_554
Li1 O15 2.163882 1_555
Li1 O4 2.167058 1_555
Li1 O21 2.180632 1_555
Li2 O7 1.878018 1_555
Li2 O20 1.995740 1_556
Li2 O23 2.070796 1_455
Li2 O14 2.219882 1_555
Li3 O53 1.908326 1_556
Li3 O34 1.992041 1_455
Li3 O52 2.014088 1_545
Li3 O16 2.223021 1_555
Li4 O19 1.919470 1_555
Li4 O27 1.996026 1_565
Li4 O17 2.054229 1_655
Li4 O32 2.230233 1_555
Li5 O28 1.974575 1_545
Li5 O35 1.992522 1_555
Li5 O37 2.070784 1_455
Li5 O22 2.185411 1_555
Li6 O2 1.914070 1_554
Li6 O20 1.986768 1_655
Li6 O3 2.055991 1_565
Li6 O38 2.240336 1_555
Li7 O48 1.876437 1_555
Li7 O34 1.986325 1_554
Li7 O31 2.112932 1_655
Li7 O40 2.214356 1_555
Li8 O0 1.985930 1_555
Li8 O35 1.992867 1_655
Li8 O1 2.053625 1_555
Li8 O43 2.214011 1_555
Li9 O56 1.882929 1_555
Li9 O28 2.013706 1_555
Li9 O25 2.096025 1_565
Li9 O45 2.197763 1_555
O0 P13 1.499762 1_555
O1 P1 1.558122 1_555
O1 V4 1.990170 1_555
O2 P8 1.480832 1_555
O3 P0 1.566014 1_555
O3 V2 1.956399 1_555
O4 P0 1.555500 1_555
O4 V5 1.998892 1_555
O5 P3 1.593065 1_555
O5 V4 1.866635 1_555
O6 P2 1.560361 1_555
O6 V4 1.875550 1_555
O7 P15 1.477530 1_555
O8 P5 1.553358 1_555
O8 V5 1.895613 1_555
O9 P4 1.588693 1_555
O9 V2 1.954585 1_555
O10 P1 1.527434 1_555
O10 V3 1.925249 1_545
O11 P4 1.588476 1_555
O11 V5 1.893926 1_555
O12 P3 1.500764 1_555
O13 P4 1.485767 1_555
O14 P3 1.563202 1_555
O14 V0 1.991784 1_455
O15 P7 1.552050 1_555
O15 V2 1.983617 1_555
O16 P3 1.568731 1_555
O16 V3 1.989187 1_545
O17 P2 1.554692 1_555
O17 V0 1.964591 1_455
O18 P5 1.609106 1_555
O18 P6 1.618542 1_455
O19 P6 1.478078 1_555
O20 P5 1.497380 1_555
O21 P5 1.547800 1_555
O21 V1 1.991613 1_455
O22 P4 1.584525 1_555
O22 V1 1.971458 1_455
O23 P8 1.555187 1_555
O23 V0 1.967557 1_555
O24 P9 1.535954 1_555
O24 V0 1.907448 1_455
O25 P9 1.552210 1_555
O25 V3 1.985818 1_545
O26 P8 1.616162 1_545
O26 P1 1.619220 1_555
O27 P1 1.503426 1_555
O28 P14 1.496421 1_555
O29 P6 1.553712 1_555
O29 V2 1.960918 1_565
O30 P6 1.559778 1_555
O30 V1 1.848308 1_555
O31 P7 1.566981 1_555
O31 V1 1.945939 1_455
O32 P11 1.582795 1_555
O32 V0 1.961606 1_555
O33 P10 1.535281 1_555
O33 V0 1.898923 1_555
O34 P10 1.497667 1_555
O35 P9 1.503647 1_555
O36 P9 1.615800 1_555
O36 P10 1.620079 1_455
O37 P13 1.548187 1_555
O37 V1 1.983017 1_555
O38 P12 1.570865 1_555
O38 V2 1.982146 1_565
O39 P8 1.562228 1_555
O39 V3 1.848352 1_555
O40 P12 1.571077 1_555
O40 V1 1.976257 1_555
O41 P12 1.484973 1_555
O42 P11 1.492349 1_555
O43 P11 1.601106 1_555
O43 V4 1.948106 1_555
O44 P14 1.546220 1_555
O44 V2 1.870636 1_565
O45 P11 1.569671 1_555
O45 V3 1.990679 1_555
O46 P10 1.548949 1_555
O46 V4 1.893750 1_555
O47 P13 1.602645 1_555
O47 P0 1.626392 1_555
O48 P0 1.477821 1_555
O49 P13 1.542296 1_555
O49 V5 1.884936 1_555
O50 P12 1.610217 1_555
O50 V5 1.841394 1_555
O51 P15 1.572046 1_555
O51 V4 1.839339 1_555
O52 P15 1.545416 1_555
O52 V3 1.984762 1_555
O53 P7 1.480652 1_555
O54 P14 1.606555 1_545
O54 P7 1.620881 1_555
O55 P14 1.548188 1_555
O55 V5 1.885347 1_555
O56 P2 1.477036 1_555
O57 P15 1.611381 1_555
O57 P2 1.618713 1_555
