# generated using pymatgen
data_NaSbClOF3
_symmetry_space_group_name_H-M   'P 1'
_cell_length_a   5.97679300
_cell_length_b   11.53127100
_cell_length_c   15.00562900
_cell_angle_alpha   90.00000000
_cell_angle_beta   90.00000000
_cell_angle_gamma   90.00000000
_symmetry_Int_Tables_number   1
_chemical_formula_structural   NaSbClOF3
_chemical_formula_sum   'Na8 Sb8 Cl8 O8 F24'
_cell_volume   1034.18824770
_cell_formula_units_Z   8
loop_
 _symmetry_equiv_pos_site_id
 _symmetry_equiv_pos_as_xyz
  1  'x, y, z'
loop_
 _atom_site_type_symbol
 _atom_site_label
 _atom_site_symmetry_multiplicity
 _atom_site_fract_x
 _atom_site_fract_y
 _atom_site_fract_z
 _atom_site_occupancy
  Na  Na0  1  0.70691500  0.37489100  0.00785300  1
  Na  Na1  1  0.79308500  0.87489100  0.99214700  1
  Na  Na2  1  0.20691500  0.62510900  0.49214700  1
  Na  Na3  1  0.29308500  0.12510900  0.50785300  1
  Na  Na4  1  0.29308500  0.62510900  0.99214700  1
  Na  Na5  1  0.20691500  0.12510900  0.00785300  1
  Na  Na6  1  0.79308500  0.37489100  0.50785300  1
  Na  Na7  1  0.70691500  0.87489100  0.49214700  1
  Sb  Sb0  1  0.64926800  0.09134400  0.16797400  1
  Sb  Sb1  1  0.85073200  0.59134400  0.83202600  1
  Sb  Sb2  1  0.14926800  0.90865600  0.33202600  1
  Sb  Sb3  1  0.35073200  0.40865600  0.66797400  1
  Sb  Sb4  1  0.35073200  0.90865600  0.83202600  1
  Sb  Sb5  1  0.14926800  0.40865600  0.16797400  1
  Sb  Sb6  1  0.85073200  0.09134400  0.66797400  1
  Sb  Sb7  1  0.64926800  0.59134400  0.33202600  1
  Cl  Cl0  1  0.72724600  0.35835200  0.25989400  1
  Cl  Cl1  1  0.77275400  0.85835200  0.74010600  1
  Cl  Cl2  1  0.22724600  0.64164800  0.24010600  1
  Cl  Cl3  1  0.27275400  0.14164800  0.75989400  1
  Cl  Cl4  1  0.27275400  0.64164800  0.74010600  1
  Cl  Cl5  1  0.22724600  0.14164800  0.25989400  1
  Cl  Cl6  1  0.77275400  0.35835200  0.75989400  1
  Cl  Cl7  1  0.72724600  0.85835200  0.24010600  1
  O  O0  1  0.66693000  0.24140100  0.38880800  1
  O  O1  1  0.83307000  0.74140100  0.61119200  1
  O  O2  1  0.16693000  0.75859900  0.11119200  1
  O  O3  1  0.33307000  0.25859900  0.88880800  1
  O  O4  1  0.33307000  0.75859900  0.61119200  1
  O  O5  1  0.16693000  0.25859900  0.38880800  1
  O  O6  1  0.83307000  0.24140100  0.88880800  1
  O  O7  1  0.66693000  0.74140100  0.11119200  1
  F  F0  1  0.54224700  0.71269000  0.41851300  1
  F  F1  1  0.95775300  0.21269000  0.58148700  1
  F  F2  1  0.04224700  0.28731000  0.08148700  1
  F  F3  1  0.45775300  0.78731000  0.91851300  1
  F  F4  1  0.45775300  0.28731000  0.58148700  1
  F  F5  1  0.04224700  0.78731000  0.41851300  1
  F  F6  1  0.95775300  0.71269000  0.91851300  1
  F  F7  1  0.54224700  0.21269000  0.08148700  1
  F  F8  1  0.88240400  0.04545000  0.07811800  1
  F  F9  1  0.61759600  0.54545000  0.92188200  1
  F  F10  1  0.38240400  0.95455000  0.42188200  1
  F  F11  1  0.11759600  0.45455000  0.57811800  1
  F  F12  1  0.11759600  0.95455000  0.92188200  1
  F  F13  1  0.38240400  0.45455000  0.07811800  1
  F  F14  1  0.61759600  0.04545000  0.57811800  1
  F  F15  1  0.88240400  0.54545000  0.42188200  1
  F  F16  1  0.94231900  0.00647800  0.40164600  1
  F  F17  1  0.55768100  0.50647800  0.59835400  1
  F  F18  1  0.44231900  0.99352200  0.09835400  1
  F  F19  1  0.05768100  0.49352200  0.90164600  1
  F  F20  1  0.05768100  0.99352200  0.59835400  1
  F  F21  1  0.44231900  0.49352200  0.40164600  1
  F  F22  1  0.55768100  0.00647800  0.90164600  1
  F  F23  1  0.94231900  0.50647800  0.09835400  1
loop_
_geom_bond_atom_site_label_1
_geom_bond_atom_site_label_2
_geom_bond_distance
_geom_bond_site_symmetry_2
Na0 O6 2.475686 1_554
Na1 O7 2.475686 1_556
Na2 O4 2.475686 1_555
Na3 O5 2.475686 1_555
Na4 O2 2.475686 1_556
Na5 O3 2.475686 1_554
Na6 O0 2.475686 1_555
Na7 O1 2.475686 1_555
Cl0 O0 2.385520 1_555
Cl0 Sb5 2.932778 1_655
Cl0 Sb7 2.933785 1_555
Cl1 O1 2.385520 1_555
Cl1 Sb4 2.932778 1_555
Cl1 Sb6 2.933785 1_565
Cl2 O2 2.385520 1_555
Cl2 Sb7 2.932778 1_555
Cl2 Sb5 2.933785 1_555
Cl3 O3 2.385520 1_555
Cl3 Sb6 2.932778 1_455
Cl3 Sb4 2.933785 1_545
Cl4 O4 2.385520 1_555
Cl4 Sb1 2.932778 1_455
Cl4 Sb3 2.933785 1_555
Cl5 O5 2.385520 1_555
Cl5 Sb0 2.932778 1_555
Cl5 Sb2 2.933785 1_545
Cl6 O6 2.385520 1_555
Cl6 Sb3 2.932778 1_555
Cl6 Sb1 2.933785 1_555
Cl7 O7 2.385520 1_555
Cl7 Sb2 2.932778 1_655
Cl7 Sb0 2.933785 1_565
F0 Sb7 2.012802 1_555
F0 Na7 2.384914 1_555
F0 Na2 2.501530 1_555
F1 Sb6 2.012802 1_555
F1 Na6 2.384914 1_555
F1 Na3 2.501530 1_655
F2 Sb5 2.012802 1_555
F2 Na5 2.384914 1_555
F2 Na0 2.501530 1_455
F3 Sb4 2.012802 1_555
F3 Na4 2.384914 1_555
F3 Na1 2.501530 1_555
F4 Sb3 2.012802 1_555
F4 Na3 2.384914 1_555
F4 Na6 2.501530 1_555
F5 Sb2 2.012802 1_555
F5 Na2 2.384914 1_555
F5 Na7 2.501530 1_455
F6 Sb1 2.012802 1_555
F6 Na1 2.384914 1_555
F6 Na4 2.501530 1_655
F7 Sb0 2.012802 1_555
F7 Na0 2.384914 1_555
F7 Na5 2.501530 1_555
F8 Sb0 2.009897 1_555
F8 Na5 2.391080 1_655
F8 Na1 2.411922 1_544
F9 Sb1 2.009897 1_555
F9 Na4 2.391080 1_555
F9 Na0 2.411922 1_556
F10 Sb2 2.009897 1_555
F10 Na7 2.391080 1_555
F10 Na3 2.411922 1_565
F11 Sb3 2.009897 1_555
F11 Na6 2.391080 1_455
F11 Na2 2.411922 1_555
F12 Sb4 2.009897 1_555
F12 Na1 2.391080 1_455
F12 Na5 2.411922 1_566
F13 Sb5 2.009897 1_555
F13 Na0 2.391080 1_555
F13 Na4 2.411922 1_554
F14 Sb6 2.009897 1_555
F14 Na3 2.391080 1_555
F14 Na7 2.411922 1_545
F15 Sb7 2.009897 1_555
F15 Na2 2.391080 1_655
F15 Na6 2.411922 1_555
F16 Sb2 1.973244 1_645
F16 Na7 2.475110 1_545
F17 Sb3 1.973244 1_555
F17 Na6 2.475110 1_555
F18 Sb0 1.973244 1_565
F18 Na5 2.475110 1_565
F19 Sb1 1.973244 1_455
F19 Na4 2.475110 1_555
F20 Sb6 1.973244 1_465
F20 Na3 2.475110 1_565
F21 Sb7 1.973244 1_555
F21 Na2 2.475110 1_555
F22 Sb4 1.973244 1_545
F22 Na1 2.475110 1_545
F23 Sb5 1.973244 1_655
F23 Na0 2.475110 1_555
