# generated using pymatgen
data_FeH2Cl5O3
_symmetry_space_group_name_H-M   'P 1'
_cell_length_a   6.94878485
_cell_length_b   7.55794235
_cell_length_c   18.07377166
_cell_angle_alpha   90.00000000
_cell_angle_beta   90.00000000
_cell_angle_gamma   90.00000000
_symmetry_Int_Tables_number   1
_chemical_formula_structural   FeH2Cl5O3
_chemical_formula_sum   'Fe4 H8 Cl20 O12'
_cell_volume   949.20765343
_cell_formula_units_Z   4
loop_
 _symmetry_equiv_pos_site_id
 _symmetry_equiv_pos_as_xyz
  1  'x, y, z'
loop_
 _atom_site_type_symbol
 _atom_site_label
 _atom_site_symmetry_multiplicity
 _atom_site_fract_x
 _atom_site_fract_y
 _atom_site_fract_z
 _atom_site_occupancy
  Fe  Fe0  1  0.90613090  0.25000000  0.06739242  1
  Fe  Fe1  1  0.59386910  0.25000000  0.56739242  1
  Fe  Fe2  1  0.09386910  0.75000000  0.93260758  1
  Fe  Fe3  1  0.40613090  0.75000000  0.43260758  1
  H  H0  1  0.55054926  0.04893752  0.33894455  1
  H  H1  1  0.94945074  0.45106248  0.83894455  1
  H  H2  1  0.44945074  0.54893752  0.66105545  1
  H  H3  1  0.05054926  0.95106248  0.16105545  1
  H  H4  1  0.44945074  0.95106248  0.66105545  1
  H  H5  1  0.05054926  0.54893752  0.16105545  1
  H  H6  1  0.55054926  0.45106248  0.33894455  1
  H  H7  1  0.94945074  0.04893752  0.83894455  1
  Cl  Cl0  1  0.21602483  0.25000000  0.07817174  1
  Cl  Cl1  1  0.28397517  0.25000000  0.57817174  1
  Cl  Cl2  1  0.78397517  0.75000000  0.92182826  1
  Cl  Cl3  1  0.71602483  0.75000000  0.42182826  1
  Cl  Cl4  1  0.64788536  0.25000000  0.26503371  1
  Cl  Cl5  1  0.85211464  0.25000000  0.76503371  1
  Cl  Cl6  1  0.35211464  0.75000000  0.73496629  1
  Cl  Cl7  1  0.14788536  0.75000000  0.23496629  1
  Cl  Cl8  1  0.79180325  0.00793307  0.12635007  1
  Cl  Cl9  1  0.70819675  0.49206693  0.62635007  1
  Cl  Cl10  1  0.20819675  0.50793307  0.87364993  1
  Cl  Cl11  1  0.29180325  0.99206693  0.37364993  1
  Cl  Cl12  1  0.20819675  0.99206693  0.87364993  1
  Cl  Cl13  1  0.29180325  0.50793307  0.37364993  1
  Cl  Cl14  1  0.79180325  0.49206693  0.12635007  1
  Cl  Cl15  1  0.70819675  0.00793307  0.62635007  1
  Cl  Cl16  1  0.59922368  0.25000000  0.96121541  1
  Cl  Cl17  1  0.90077632  0.25000000  0.46121541  1
  Cl  Cl18  1  0.40077632  0.75000000  0.03878459  1
  Cl  Cl19  1  0.09922368  0.75000000  0.53878459  1
  O  O0  1  0.83861415  0.25000000  0.96831861  1
  O  O1  1  0.66138585  0.25000000  0.46831861  1
  O  O2  1  0.16138585  0.75000000  0.03168139  1
  O  O3  1  0.33861415  0.75000000  0.53168139  1
  O  O4  1  0.17945169  0.57817263  0.18511657  1
  O  O5  1  0.32054831  0.92182737  0.68511657  1
  O  O6  1  0.82054831  0.07817263  0.81488343  1
  O  O7  1  0.67945169  0.42182737  0.31488343  1
  O  O8  1  0.82054831  0.42182737  0.81488343  1
  O  O9  1  0.67945169  0.07817263  0.31488343  1
  O  O10  1  0.17945169  0.92182737  0.18511657  1
  O  O11  1  0.32054831  0.57817263  0.68511657  1
loop_
_geom_bond_atom_site_label_1
_geom_bond_atom_site_label_2
_geom_bond_distance
_geom_bond_site_symmetry_2
Fe0 O0 1.851079 1_554
Fe1 O1 1.851079 1_555
Fe2 O2 1.851079 1_556
Fe3 O3 1.851079 1_555
H0 O9 1.019924 1_555
H1 O8 1.019924 1_555
H2 O11 1.019924 1_555
H3 O10 1.019924 1_555
H4 O5 1.019924 1_555
H5 O4 1.019924 1_555
H6 O7 1.019924 1_555
H7 O6 1.019924 1_555
Cl0 Fe0 2.162181 1_455
Cl1 Fe1 2.162181 1_555
Cl2 Fe2 2.162181 1_655
Cl3 Fe3 2.162181 1_555
Cl4 O9 1.595740 1_555
Cl4 O7 1.595740 1_555
Cl5 O6 1.595740 1_555
Cl5 O8 1.595740 1_555
Cl6 O11 1.595740 1_555
Cl6 O5 1.595740 1_555
Cl7 O10 1.595740 1_555
Cl7 O4 1.595740 1_555
Cl8 H3 1.952152 1_645
Cl8 Fe0 2.261367 1_555
Cl9 H2 1.952152 1_555
Cl9 Fe1 2.261367 1_555
Cl10 H1 1.952152 1_455
Cl10 Fe2 2.261367 1_555
Cl11 H0 1.952152 1_565
Cl11 Fe3 2.261367 1_555
Cl12 H7 1.952152 1_465
Cl12 Fe2 2.261367 1_555
Cl13 H6 1.952152 1_555
Cl13 Fe3 2.261367 1_555
Cl14 H5 1.952152 1_655
Cl14 Fe0 2.261367 1_555
Cl15 H4 1.952152 1_545
Cl15 Fe1 2.261367 1_555
Cl16 O0 1.668420 1_555
Cl17 O1 1.668420 1_555
Cl18 O2 1.668420 1_555
Cl19 O3 1.668420 1_555
