# generated using pymatgen
data_NaNiO2
_symmetry_space_group_name_H-M   'P 1'
_cell_length_a   2.97082677
_cell_length_b   3.04039765
_cell_length_c   10.69722343
_cell_angle_alpha   87.75971983
_cell_angle_beta   91.14042574
_cell_angle_gamma   120.93584188
_symmetry_Int_Tables_number   1
_chemical_formula_structural   NaNiO2
_chemical_formula_sum   'Na2 Ni2 O4'
_cell_volume   82.81407144
_cell_formula_units_Z   2
loop_
 _symmetry_equiv_pos_site_id
 _symmetry_equiv_pos_as_xyz
  1  'x, y, z'
loop_
 _atom_site_type_symbol
 _atom_site_label
 _atom_site_symmetry_multiplicity
 _atom_site_fract_x
 _atom_site_fract_y
 _atom_site_fract_z
 _atom_site_occupancy
  Na  Na0  1  0.67420400  0.33641100  0.25003000  1
  Na  Na1  1  0.32558000  0.66349300  0.74995400  1
  Ni  Ni0  1  0.00024100  0.00049300  0.49999900  1
  Ni  Ni1  1  0.99991000  0.99955800  0.00001400  1
  O  O0  1  0.35672100  0.65526100  0.40223800  1
  O  O1  1  0.64390800  0.34589500  0.59773700  1
  O  O2  1  0.64445600  0.29928900  0.90229100  1
  O  O3  1  0.35498000  0.69960000  0.09773700  1
loop_
_geom_bond_atom_site_label_1
_geom_bond_atom_site_label_2
_geom_bond_distance
_geom_bond_site_symmetry_2
Na0 O3 2.366290 1_545
Na0 O0 2.367504 1_555
Na0 O0 2.370391 1_545
Na0 O3 2.376404 1_555
Na0 O3 2.378670 1_655
Na0 O0 2.381838 1_655
Na1 O2 2.364689 1_565
Na1 O1 2.366697 1_555
Na1 O1 2.372806 1_565
Na1 O2 2.378054 1_555
Na1 O2 2.379640 1_455
Na1 O1 2.380342 1_455
Ni0 O0 1.947654 1_445
Ni0 O1 1.947853 1_555
Ni0 O1 1.972307 1_445
Ni0 O0 1.972811 1_555
Ni0 O1 2.142312 1_455
Ni0 O0 2.142375 1_545
Ni1 O2 1.949597 1_664
Ni1 O3 1.950415 1_555
Ni1 O3 1.976841 1_655
Ni1 O2 1.977215 1_564
Ni1 O3 2.134783 1_665
Ni1 O2 2.135277 1_554
