# generated using pymatgen
data_Ba14U2Fe4S25O
_symmetry_space_group_name_H-M   'P 1'
_cell_length_a   16.18726700
_cell_length_b   16.18726700
_cell_length_c   9.68837400
_cell_angle_alpha   90.00000000
_cell_angle_beta   90.00000000
_cell_angle_gamma   90.00000000
_symmetry_Int_Tables_number   1
_chemical_formula_structural   Ba14U2Fe4S25O
_chemical_formula_sum   'Ba28 U4 Fe8 S50 O2'
_cell_volume   2538.62151239
_cell_formula_units_Z   2
loop_
 _symmetry_equiv_pos_site_id
 _symmetry_equiv_pos_as_xyz
  1  'x, y, z'
loop_
 _atom_site_type_symbol
 _atom_site_label
 _atom_site_symmetry_multiplicity
 _atom_site_fract_x
 _atom_site_fract_y
 _atom_site_fract_z
 _atom_site_occupancy
  Ba  Ba0  1  0.50000000  0.00000000  0.78234100  1
  Ba  Ba1  1  0.00000000  0.50000000  0.78234100  1
  Ba  Ba2  1  0.50000000  0.00000000  0.21756300  1
  Ba  Ba3  1  0.00000000  0.50000000  0.21756300  1
  Ba  Ba4  1  0.70252000  0.20283300  0.00067900  1
  Ba  Ba5  1  0.29748000  0.79716700  0.00067900  1
  Ba  Ba6  1  0.20283300  0.29748000  0.00067900  1
  Ba  Ba7  1  0.79716700  0.70252000  0.00067900  1
  Ba  Ba8  1  0.23779500  0.73790900  0.49924500  1
  Ba  Ba9  1  0.76220500  0.26209100  0.49924500  1
  Ba  Ba10  1  0.73790900  0.76220500  0.49924500  1
  Ba  Ba11  1  0.26209100  0.23779500  0.49924500  1
  Ba  Ba12  1  0.51092100  0.71224100  0.75404100  1
  Ba  Ba13  1  0.48907900  0.28775900  0.75404100  1
  Ba  Ba14  1  0.01105700  0.78801100  0.75616900  1
  Ba  Ba15  1  0.98894300  0.21198900  0.75616900  1
  Ba  Ba16  1  0.28775900  0.51092100  0.75404100  1
  Ba  Ba17  1  0.71224100  0.48907900  0.75404100  1
  Ba  Ba18  1  0.21198900  0.01105700  0.75616900  1
  Ba  Ba19  1  0.78801100  0.98894300  0.75616900  1
  Ba  Ba20  1  0.48902800  0.28172700  0.24515500  1
  Ba  Ba21  1  0.51097200  0.71827300  0.24515500  1
  Ba  Ba22  1  0.98869900  0.21875500  0.24730900  1
  Ba  Ba23  1  0.01130100  0.78124500  0.24730900  1
  Ba  Ba24  1  0.71827300  0.48902800  0.24515500  1
  Ba  Ba25  1  0.28172700  0.51097200  0.24515500  1
  Ba  Ba26  1  0.78124500  0.98869900  0.24730900  1
  Ba  Ba27  1  0.21875500  0.01130100  0.24730900  1
  U  U0  1  0.50000000  0.50000000  0.02457300  1
  U  U1  1  0.00000000  0.00000000  0.02827500  1
  U  U2  1  0.00000000  0.00000000  0.47457000  1
  U  U3  1  0.50000000  0.50000000  0.47106200  1
  Fe  Fe0  1  0.60323900  0.10314000  0.50029900  1
  Fe  Fe1  1  0.39676100  0.89686000  0.50029900  1
  Fe  Fe2  1  0.10314000  0.39676100  0.50029900  1
  Fe  Fe3  1  0.89686000  0.60323900  0.50029900  1
  Fe  Fe4  1  0.13640900  0.63631900  0.99960100  1
  Fe  Fe5  1  0.86359100  0.36368100  0.99960100  1
  Fe  Fe6  1  0.63631900  0.86359100  0.99960100  1
  Fe  Fe7  1  0.36368100  0.13640900  0.99960100  1
  S  S0  1  0.65304500  0.15270600  0.70365800  1
  S  S1  1  0.34695500  0.84729400  0.70365800  1
  S  S2  1  0.15270600  0.34695500  0.70365800  1
  S  S3  1  0.84729400  0.65304500  0.70365800  1
  S  S4  1  0.34772300  0.84757000  0.29635100  1
  S  S5  1  0.65227700  0.15243000  0.29635100  1
  S  S6  1  0.84757000  0.65227700  0.29635100  1
  S  S7  1  0.15243000  0.34772300  0.29635100  1
  S  S8  1  0.84299100  0.50296500  0.99847000  1
  S  S9  1  0.15700900  0.49703500  0.99847000  1
  S  S10  1  0.34312600  0.99712300  0.99939200  1
  S  S11  1  0.65687400  0.00287700  0.99939200  1
  S  S12  1  0.49703500  0.84299100  0.99847000  1
  S  S13  1  0.50296500  0.15700900  0.99847000  1
  S  S14  1  0.00287700  0.34312600  0.99939200  1
  S  S15  1  0.99712300  0.65687400  0.99939200  1
  S  S16  1  0.61767800  0.61009100  0.48673400  1
  S  S17  1  0.38232200  0.38990900  0.48673400  1
  S  S18  1  0.11751900  0.89017800  0.49238200  1
  S  S19  1  0.88248100  0.10982200  0.49238200  1
  S  S20  1  0.38990900  0.61767800  0.48673400  1
  S  S21  1  0.61009100  0.38232200  0.48673400  1
  S  S22  1  0.10982200  0.11751900  0.49238200  1
  S  S23  1  0.89017800  0.88248100  0.49238200  1
  S  S24  1  0.54189000  0.86590000  0.50042400  1
  S  S25  1  0.45811000  0.13410000  0.50042400  1
  S  S26  1  0.04195700  0.63428500  0.49964400  1
  S  S27  1  0.95804300  0.36571500  0.49964400  1
  S  S28  1  0.13410000  0.54189000  0.50042400  1
  S  S29  1  0.86590000  0.45811000  0.50042400  1
  S  S30  1  0.36571500  0.04195700  0.49964400  1
  S  S31  1  0.63428500  0.95804300  0.49964400  1
  S  S32  1  0.18615000  0.68649600  0.79684600  1
  S  S33  1  0.81385000  0.31350400  0.79684600  1
  S  S34  1  0.68649600  0.81385000  0.79684600  1
  S  S35  1  0.31350400  0.18615000  0.79684600  1
  S  S36  1  0.81408300  0.31435000  0.20277800  1
  S  S37  1  0.18591700  0.68565000  0.20277800  1
  S  S38  1  0.31435000  0.18591700  0.20277800  1
  S  S39  1  0.68565000  0.81408300  0.20277800  1
  S  S40  1  0.62137600  0.60498100  0.00744400  1
  S  S41  1  0.37862400  0.39501900  0.00744400  1
  S  S42  1  0.12126800  0.89518600  0.01351700  1
  S  S43  1  0.87873200  0.10481400  0.01351700  1
  S  S44  1  0.39501900  0.62137600  0.00744400  1
  S  S45  1  0.60498100  0.37862400  0.00744400  1
  S  S46  1  0.10481400  0.12126800  0.01351700  1
  S  S47  1  0.89518600  0.87873200  0.01351700  1
  S  S48  1  0.50000000  0.50000000  0.74747800  1
  S  S49  1  0.00000000  0.00000000  0.75165800  1
  O  O0  1  0.50000000  0.50000000  0.24781000  1
  O  O1  1  0.00000000  0.00000000  0.25422200  1
loop_
_geom_bond_atom_site_label_1
_geom_bond_atom_site_label_2
_geom_bond_distance
_geom_bond_site_symmetry_2
Ba0 S12 3.293378 1_545
Ba0 S13 3.293378 1_555
Ba0 S11 3.297361 1_555
Ba0 S10 3.297361 1_545
Ba0 S24 3.554136 1_545
Ba0 S25 3.554136 1_555
Ba0 S30 3.561981 1_555
Ba0 S31 3.561981 1_545
Ba0 S1 3.581729 1_545
Ba0 S0 3.581729 1_555
Ba1 S8 3.293378 1_455
Ba1 S9 3.293378 1_555
Ba1 S15 3.297361 1_455
Ba1 S14 3.297361 1_555
Ba1 S28 3.554136 1_555
Ba1 S29 3.554136 1_455
Ba1 S27 3.561981 1_455
Ba1 S26 3.561981 1_555
Ba1 S3 3.581729 1_455
Ba1 S2 3.581729 1_555
Ba2 S11 3.304292 1_554
Ba2 S10 3.304292 1_544
Ba2 S12 3.311711 1_544
Ba2 S13 3.311711 1_554
Ba2 S30 3.557394 1_555
Ba2 S31 3.557394 1_545
Ba2 S24 3.561170 1_545
Ba2 S25 3.561170 1_555
Ba2 S4 3.570270 1_545
Ba2 S5 3.570270 1_555
Ba3 S15 3.304292 1_454
Ba3 S14 3.304292 1_554
Ba3 S8 3.311711 1_454
Ba3 S9 3.311711 1_554
Ba3 S27 3.557394 1_455
Ba3 S26 3.557394 1_555
Ba3 S28 3.561170 1_555
Ba3 S29 3.561170 1_455
Ba3 S6 3.570270 1_455
Ba3 S7 3.570270 1_555
Ba4 S5 3.087547 1_555
Ba4 S0 3.095264 1_554
Ba4 S36 3.217711 1_555
Ba4 S33 3.218210 1_554
Ba4 S45 3.254918 1_555
Ba4 S43 3.266358 1_555
Ba4 S13 3.314391 1_554
Ba4 S11 3.320030 1_554
Ba5 S4 3.087547 1_555
Ba5 S1 3.095264 1_554
Ba5 S37 3.217711 1_555
Ba5 S32 3.218210 1_554
Ba5 S44 3.254918 1_555
Ba5 S42 3.266358 1_555
Ba5 S12 3.314391 1_554
Ba5 S10 3.320030 1_554
Ba6 S7 3.087547 1_555
Ba6 S2 3.095264 1_554
Ba6 S38 3.217711 1_555
Ba6 S35 3.218210 1_554
Ba6 S41 3.254918 1_555
Ba6 S46 3.266358 1_555
Ba6 S9 3.314391 1_554
Ba6 S14 3.320030 1_554
Ba7 S6 3.087547 1_555
Ba7 S3 3.095264 1_554
Ba7 S39 3.217711 1_555
Ba7 S34 3.218210 1_554
Ba7 S40 3.254918 1_555
Ba7 S47 3.266358 1_555
Ba7 S8 3.314391 1_554
Ba7 S15 3.320030 1_554
Ba8 S37 3.109793 1_555
Ba8 S32 3.115244 1_555
Ba8 S20 3.140924 1_555
Ba8 S18 3.141708 1_555
Ba8 S1 3.190545 1_555
Ba8 S4 3.190836 1_555
Ba8 S26 3.586512 1_555
Ba8 S28 3.589656 1_555
Ba9 S36 3.109793 1_555
Ba9 S33 3.115244 1_555
Ba9 S21 3.140924 1_555
Ba9 S19 3.141708 1_555
Ba9 S0 3.190545 1_555
Ba9 S5 3.190836 1_555
Ba9 S27 3.586512 1_555
Ba9 S29 3.589656 1_555
Ba10 S39 3.109793 1_555
Ba10 S34 3.115244 1_555
Ba10 S16 3.140924 1_555
Ba10 S23 3.141708 1_555
Ba10 S3 3.190545 1_555
Ba10 S6 3.190836 1_555
Ba10 S31 3.586512 1_555
Ba10 S24 3.589656 1_555
Ba11 S38 3.109793 1_555
Ba11 S35 3.115244 1_555
Ba11 S17 3.140924 1_555
Ba11 S22 3.141708 1_555
Ba11 S2 3.190545 1_555
Ba11 S7 3.190836 1_555
Ba11 S30 3.586512 1_555
Ba11 S25 3.589656 1_555
Ba12 S12 3.184026 1_555
Ba12 S34 3.309785 1_555
Ba12 S44 3.422081 1_556
Ba12 S48 3.440734 1_555
Ba12 S1 3.473046 1_555
Ba12 S40 3.498386 1_556
Ba12 S16 3.525254 1_555
Ba12 S24 3.532079 1_555
Ba12 S20 3.589862 1_555
Ba13 S13 3.184026 1_555
Ba13 S35 3.309785 1_555
Ba13 S45 3.422081 1_556
Ba13 S48 3.440734 1_555
Ba13 S0 3.473046 1_555
Ba13 S41 3.498386 1_556
Ba13 S17 3.525254 1_555
Ba13 S25 3.532079 1_555
Ba13 S21 3.589862 1_555
Ba14 S15 3.179580 1_455
Ba14 S32 3.299804 1_555
Ba14 S49 3.436465 1_565
Ba14 S47 3.448338 1_456
Ba14 S3 3.472609 1_455
Ba14 S18 3.498052 1_555
Ba14 S42 3.522634 1_556
Ba14 S26 3.552338 1_555
Ba14 S23 3.563509 1_455
Ba15 S14 3.179580 1_655
Ba15 S33 3.299804 1_555
Ba15 S49 3.436465 1_655
Ba15 S46 3.448338 1_656
Ba15 S2 3.472609 1_655
Ba15 S19 3.498052 1_555
Ba15 S43 3.522634 1_556
Ba15 S27 3.552338 1_555
Ba15 S22 3.563509 1_655
Ba16 S9 3.184026 1_555
Ba16 S32 3.309785 1_555
Ba16 S41 3.422081 1_556
Ba16 S48 3.440734 1_555
Ba16 S2 3.473046 1_555
Ba16 S44 3.498386 1_556
Ba16 S20 3.525254 1_555
Ba16 S28 3.532079 1_555
Ba16 S17 3.589862 1_555
Ba17 S8 3.184026 1_555
Ba17 S33 3.309785 1_555
Ba17 S40 3.422081 1_556
Ba17 S48 3.440734 1_555
Ba17 S3 3.473046 1_555
Ba17 S45 3.498386 1_556
Ba17 S21 3.525254 1_555
Ba17 S29 3.532079 1_555
Ba17 S16 3.589862 1_555
Ba18 S10 3.179580 1_545
Ba18 S35 3.299804 1_555
Ba18 S49 3.436465 1_555
Ba18 S42 3.448338 1_546
Ba18 S1 3.472609 1_545
Ba18 S22 3.498052 1_555
Ba18 S46 3.522634 1_556
Ba18 S30 3.552338 1_555
Ba18 S18 3.563509 1_545
Ba19 S11 3.179580 1_565
Ba19 S34 3.299804 1_555
Ba19 S49 3.436465 1_665
Ba19 S43 3.448338 1_566
Ba19 S0 3.472609 1_565
Ba19 S23 3.498052 1_555
Ba19 S47 3.522634 1_556
Ba19 S31 3.552338 1_555
Ba19 S19 3.563509 1_565
Ba20 S13 3.136656 1_554
Ba20 S38 3.250993 1_555
Ba20 S45 3.359633 1_555
Ba20 S17 3.395301 1_555
Ba20 S5 3.407290 1_555
Ba20 S41 3.443976 1_555
Ba20 S21 3.459750 1_555
Ba20 S25 3.475265 1_555
Ba20 O0 3.537798 1_555
Ba21 S12 3.136656 1_554
Ba21 S39 3.250993 1_555
Ba21 S44 3.359633 1_555
Ba21 S16 3.395301 1_555
Ba21 S4 3.407290 1_555
Ba21 S40 3.443976 1_555
Ba21 S20 3.459750 1_555
Ba21 S24 3.475265 1_555
Ba21 O0 3.537798 1_555
Ba22 S14 3.142441 1_654
Ba22 S36 3.251164 1_555
Ba22 S46 3.339699 1_655
Ba22 S7 3.407108 1_655
Ba22 S43 3.420663 1_555
Ba22 S19 3.420989 1_555
Ba22 S27 3.447022 1_555
Ba22 S22 3.488148 1_655
Ba22 O1 3.546400 1_655
Ba23 S15 3.142441 1_454
Ba23 S37 3.251164 1_555
Ba23 S47 3.339699 1_455
Ba23 S6 3.407108 1_455
Ba23 S42 3.420663 1_555
Ba23 S18 3.420989 1_555
Ba23 S26 3.447022 1_555
Ba23 S23 3.488148 1_455
Ba23 O1 3.546400 1_565
Ba24 S8 3.136656 1_554
Ba24 S36 3.250993 1_555
Ba24 S40 3.359633 1_555
Ba24 S21 3.395301 1_555
Ba24 S6 3.407290 1_555
Ba24 S45 3.443976 1_555
Ba24 S16 3.459750 1_555
Ba24 S29 3.475265 1_555
Ba24 O0 3.537798 1_555
Ba25 S9 3.136656 1_554
Ba25 S37 3.250993 1_555
Ba25 S41 3.359633 1_555
Ba25 S20 3.395301 1_555
Ba25 S7 3.407290 1_555
Ba25 S44 3.443976 1_555
Ba25 S17 3.459750 1_555
Ba25 S28 3.475265 1_555
Ba25 O0 3.537798 1_555
Ba26 S11 3.142441 1_564
Ba26 S39 3.251164 1_555
Ba26 S43 3.339699 1_565
Ba26 S5 3.407108 1_565
Ba26 S47 3.420663 1_555
Ba26 S23 3.420989 1_555
Ba26 S31 3.447022 1_555
Ba26 S19 3.488148 1_565
Ba26 O1 3.546400 1_665
Ba27 S10 3.142441 1_544
Ba27 S38 3.251164 1_555
Ba27 S42 3.339699 1_545
Ba27 S4 3.407108 1_545
Ba27 S46 3.420663 1_555
Ba27 S22 3.420989 1_555
Ba27 S30 3.447022 1_555
Ba27 S18 3.488148 1_545
Ba27 O1 3.546400 1_555
Fe0 S5 2.273979 1_555
Fe0 S0 2.274973 1_555
Fe0 S31 2.401895 1_545
Fe0 S25 2.402103 1_555
Fe1 S4 2.273979 1_555
Fe1 S1 2.274973 1_555
Fe1 S30 2.401895 1_565
Fe1 S24 2.402103 1_555
Fe2 S7 2.273979 1_555
Fe2 S2 2.274973 1_555
Fe2 S27 2.401895 1_455
Fe2 S28 2.402103 1_555
Fe3 S6 2.273979 1_555
Fe3 S3 2.274973 1_555
Fe3 S26 2.401895 1_655
Fe3 S29 2.402103 1_555
Fe4 S37 2.270399 1_556
Fe4 S32 2.273049 1_555
Fe4 S15 2.279079 1_455
Fe4 S9 2.279179 1_555
Fe5 S36 2.270399 1_556
Fe5 S33 2.273049 1_555
Fe5 S14 2.279079 1_655
Fe5 S8 2.279179 1_555
Fe6 S39 2.270399 1_556
Fe6 S34 2.273049 1_555
Fe6 S11 2.279079 1_565
Fe6 S12 2.279179 1_555
Fe7 S38 2.270399 1_556
Fe7 S35 2.273049 1_555
Fe7 S10 2.279079 1_545
Fe7 S13 2.279179 1_555
S16 U3 2.612934 1_555
S17 U3 2.612934 1_555
S18 U2 2.609377 1_565
S19 U2 2.609377 1_655
S20 U3 2.612934 1_555
S21 U3 2.612934 1_555
S22 U2 2.609377 1_555
S23 U2 2.609377 1_665
S24 S31 2.112261 1_555
S25 S30 2.112261 1_555
S26 S28 2.112261 1_555
S27 S29 2.112261 1_555
S40 U0 2.602993 1_555
S41 U0 2.602993 1_555
S42 U1 2.598544 1_565
S43 U1 2.598544 1_655
S44 U0 2.602993 1_555
S45 U0 2.602993 1_555
S46 U1 2.598544 1_555
S47 U1 2.598544 1_665
S48 U3 2.678022 1_555
S48 U0 2.684600 1_556
S49 U1 2.679969 1_556
S49 U2 2.684532 1_555
O0 U0 2.162804 1_555
O0 U3 2.162949 1_555
O1 U2 2.134814 1_555
O1 U1 2.189059 1_555
