# generated using pymatgen
data_Te6MoW3Se2
_symmetry_space_group_name_H-M   'P 1'
_cell_length_a   3.50283380
_cell_length_b   3.50283380
_cell_length_c   39.65371600
_cell_angle_alpha   90.00000000
_cell_angle_beta   90.00000000
_cell_angle_gamma   119.99999625
_symmetry_Int_Tables_number   1
_chemical_formula_structural   Te6MoW3Se2
_chemical_formula_sum   'Te6 Mo1 W3 Se2'
_cell_volume   421.36028950
_cell_formula_units_Z   1
loop_
 _symmetry_equiv_pos_site_id
 _symmetry_equiv_pos_as_xyz
  1  'x, y, z'
loop_
 _atom_site_type_symbol
 _atom_site_label
 _atom_site_symmetry_multiplicity
 _atom_site_fract_x
 _atom_site_fract_y
 _atom_site_fract_z
 _atom_site_occupancy
  Te  Te0  1  0.33333300  0.66666700  0.70391900  1
  Te  Te1  1  0.66666700  0.33333300  0.04754000  1
  Te  Te2  1  0.66666700  0.33333300  0.42327100  1
  Te  Te3  1  0.66666700  0.33333300  0.14032100  1
  Te  Te4  1  0.66666700  0.33333300  0.51604100  1
  Te  Te5  1  0.33333300  0.66666700  0.61115000  1
  Mo  Mo0  1  0.66666700  0.33333300  0.28179700  1
  W  W0  1  0.33333300  0.66666700  0.09392200  1
  W  W1  1  0.33333300  0.66666700  0.46964200  1
  W  W2  1  0.66666700  0.33333300  0.65755400  1
  Se  Se0  1  0.33333300  0.66666700  0.32260600  1
  Se  Se1  1  0.33333300  0.66666700  0.24098500  1
loop_
_geom_bond_atom_site_label_1
_geom_bond_atom_site_label_2
_geom_bond_distance
_geom_bond_site_symmetry_2
Te0 W2 2.733164 1_455
Te0 W2 2.733164 1_565
Te0 W2 2.733169 1_555
Te1 W0 2.733618 1_655
Te1 W0 2.733618 1_545
Te1 W0 2.733622 1_555
Te2 W1 2.733324 1_545
Te2 W1 2.733324 1_655
Te2 W1 2.733329 1_555
Te3 W0 2.734071 1_545
Te3 W0 2.734071 1_655
Te3 W0 2.734076 1_555
Te4 W1 2.734071 1_655
Te4 W1 2.734071 1_545
Te4 W1 2.734076 1_555
Te5 W2 2.734205 1_455
Te5 W2 2.734205 1_565
Te5 W2 2.734209 1_555
Mo0 Se0 2.590097 1_545
Mo0 Se0 2.590097 1_655
Mo0 Se0 2.590102 1_555
Mo0 Se1 2.590172 1_545
Mo0 Se1 2.590172 1_655
Mo0 Se1 2.590176 1_555
