# generated using pymatgen
data_Ca2Al3Si3O13
_symmetry_space_group_name_H-M   'P 1'
_cell_length_a   5.65596300
_cell_length_b   8.91884400
_cell_length_c   10.23512179
_cell_angle_alpha   65.23702003
_cell_angle_beta   90.00000000
_cell_angle_gamma   90.00000000
_symmetry_Int_Tables_number   1
_chemical_formula_structural   Ca2Al3Si3O13
_chemical_formula_sum   'Ca4 Al6 Si6 O26'
_cell_volume   468.83183592
_cell_formula_units_Z   2
loop_
 _symmetry_equiv_pos_site_id
 _symmetry_equiv_pos_as_xyz
  1  'x, y, z'
loop_
 _atom_site_type_symbol
 _atom_site_label
 _atom_site_symmetry_multiplicity
 _atom_site_fract_x
 _atom_site_fract_y
 _atom_site_fract_z
 _atom_site_occupancy
  Ca  Ca0  1  0.25000000  0.61062600  0.14967400  1
  Ca  Ca1  1  0.75000000  0.38937400  0.85032600  1
  Ca  Ca2  1  0.25000000  0.17467800  0.42434600  1
  Ca  Ca3  1  0.75000000  0.82532200  0.57565400  1
  Al  Al0  1  0.00000000  0.00000000  0.00000000  1
  Al  Al1  1  0.50000000  0.00000000  0.00000000  1
  Al  Al2  1  0.25000000  0.94221400  0.76993900  1
  Al  Al3  1  0.75000000  0.05778600  0.23006100  1
  Al  Al4  1  0.00000000  0.50000000  0.50000000  1
  Al  Al5  1  0.50000000  0.50000000  0.50000000  1
  Si  Si0  1  0.25000000  0.59242100  0.73129400  1
  Si  Si1  1  0.75000000  0.40757900  0.26870600  1
  Si  Si2  1  0.25000000  0.86826100  0.31703000  1
  Si  Si3  1  0.75000000  0.13173900  0.68297000  1
  Si  Si4  1  0.25000000  0.29058900  0.05024000  1
  Si  Si5  1  0.75000000  0.70941100  0.94976000  1
  O  O0  1  0.25000000  0.06748500  0.87249700  1
  O  O1  1  0.75000000  0.93251500  0.12750300  1
  O  O2  1  0.25000000  0.33815600  0.18350000  1
  O  O3  1  0.75000000  0.66184400  0.81650000  1
  O  O4  1  0.00507300  0.19180500  0.04410700  1
  O  O5  1  0.99492700  0.80819500  0.95589300  1
  O  O6  1  0.50507300  0.80819500  0.95589300  1
  O  O7  1  0.49492700  0.19180500  0.04410700  1
  O  O8  1  0.25000000  0.78279700  0.70461800  1
  O  O9  1  0.75000000  0.21720300  0.29538200  1
  O  O10  1  0.25000000  0.89530800  0.14497400  1
  O  O11  1  0.75000000  0.10469200  0.85502600  1
  O  O12  1  0.01587100  0.54275800  0.66283000  1
  O  O13  1  0.98412900  0.45724200  0.33717000  1
  O  O14  1  0.51587100  0.45724200  0.33717000  1
  O  O15  1  0.48412900  0.54275800  0.66283000  1
  O  O16  1  0.01478800  0.95528500  0.35225300  1
  O  O17  1  0.98521200  0.04471500  0.64774700  1
  O  O18  1  0.51478800  0.04471500  0.64774700  1
  O  O19  1  0.48521200  0.95528500  0.35225300  1
  O  O20  1  0.25000000  0.35261600  0.55388600  1
  O  O21  1  0.75000000  0.64738400  0.44611400  1
  O  O22  1  0.25000000  0.46860500  0.90422700  1
  O  O23  1  0.75000000  0.53139500  0.09577300  1
  O  O24  1  0.25000000  0.66519700  0.40737300  1
  O  O25  1  0.75000000  0.33480300  0.59262700  1
loop_
_geom_bond_atom_site_label_1
_geom_bond_atom_site_label_2
_geom_bond_distance
_geom_bond_site_symmetry_2
Ca0 O2 2.306625 1_555
Ca0 O14 2.369851 1_555
Ca0 O13 2.369851 1_455
Ca0 O6 2.488431 1_554
Ca0 O5 2.488431 1_454
Ca0 O10 2.519264 1_555
Ca1 O3 2.306625 1_555
Ca1 O15 2.369851 1_555
Ca1 O12 2.369851 1_655
Ca1 O7 2.488431 1_556
Ca1 O4 2.488431 1_656
Ca1 O11 2.519264 1_555
Ca2 O2 2.278501 1_555
Ca2 O20 2.457473 1_555
Ca2 O17 2.567958 1_455
Ca2 O18 2.567958 1_555
Ca2 O16 2.711576 1_545
Ca2 O19 2.711576 1_545
Ca2 O14 2.743136 1_555
Ca2 O13 2.743136 1_455
Ca3 O3 2.278501 1_555
Ca3 O21 2.457473 1_555
Ca3 O19 2.567958 1_555
Ca3 O16 2.567958 1_655
Ca3 O18 2.711576 1_565
Ca3 O17 2.711576 1_565
Ca3 O15 2.743136 1_555
Ca3 O12 2.743136 1_655
Al0 O1 1.845718 1_445
Al0 O0 1.845718 1_554
Al0 O4 1.943707 1_555
Al0 O5 1.943707 1_444
Al0 O10 1.977952 1_545
Al0 O11 1.977952 1_454
Al1 O1 1.845718 1_545
Al1 O0 1.845718 1_554
Al1 O7 1.943707 1_555
Al1 O6 1.943707 1_544
Al1 O10 1.977952 1_545
Al1 O11 1.977952 1_554
Al2 O8 1.806896 1_555
Al2 O0 1.825552 1_565
Al2 O17 1.919626 1_465
Al2 O18 1.919626 1_565
Al2 O5 2.286191 1_455
Al2 O6 2.286191 1_555
Al3 O9 1.806896 1_555
Al3 O1 1.825552 1_545
Al3 O16 1.919626 1_645
Al3 O19 1.919626 1_545
Al3 O7 2.286191 1_555
Al3 O4 2.286191 1_655
Al4 O21 1.850435 1_455
Al4 O20 1.850435 1_555
Al4 O13 1.861026 1_455
Al4 O12 1.861026 1_555
Al4 O25 1.974541 1_455
Al4 O24 1.974541 1_555
Al5 O21 1.850435 1_555
Al5 O20 1.850435 1_555
Al5 O14 1.861026 1_555
Al5 O15 1.861026 1_555
Al5 O25 1.974541 1_555
Al5 O24 1.974541 1_555
O2 Si4 1.589036 1_555
O3 Si5 1.589036 1_555
O4 Si4 1.656971 1_555
O5 Si5 1.656971 1_555
O6 Si5 1.656971 1_555
O7 Si4 1.656971 1_555
O8 Si0 1.602861 1_555
O9 Si1 1.602861 1_555
O10 Si2 1.674362 1_555
O11 Si3 1.674362 1_555
O12 Si0 1.643415 1_555
O13 Si1 1.643415 1_555
O14 Si1 1.643415 1_555
O15 Si0 1.643415 1_555
O16 Si2 1.654274 1_555
O17 Si3 1.654274 1_555
O18 Si3 1.654274 1_555
O19 Si2 1.654274 1_555
O22 Si0 1.647699 1_555
O22 Si4 1.663270 1_556
O23 Si1 1.647699 1_555
O23 Si5 1.663270 1_554
O24 Si2 1.652926 1_555
O25 Si3 1.652926 1_555
