# generated using pymatgen
data_SrAlHOF4
_symmetry_space_group_name_H-M   'P 1'
_cell_length_a   10.54906000
_cell_length_b   5.58689300
_cell_length_c   8.68233603
_cell_angle_alpha   71.93335747
_cell_angle_beta   90.00000000
_cell_angle_gamma   90.00000000
_symmetry_Int_Tables_number   1
_chemical_formula_structural   SrAlHOF4
_chemical_formula_sum   'Sr4 Al4 H4 O4 F16'
_cell_volume   486.47729611
_cell_formula_units_Z   4
loop_
 _symmetry_equiv_pos_site_id
 _symmetry_equiv_pos_as_xyz
  1  'x, y, z'
loop_
 _atom_site_type_symbol
 _atom_site_label
 _atom_site_symmetry_multiplicity
 _atom_site_fract_x
 _atom_site_fract_y
 _atom_site_fract_z
 _atom_site_occupancy
  Sr  Sr0  1  0.18511500  0.86339300  0.56639500  1
  Sr  Sr1  1  0.81488500  0.13660700  0.43360500  1
  Sr  Sr2  1  0.68511500  0.13660700  0.93360500  1
  Sr  Sr3  1  0.31488500  0.86339300  0.06639500  1
  Al  Al0  1  0.97267400  0.82316700  0.18425700  1
  Al  Al1  1  0.02732600  0.17683300  0.81574300  1
  Al  Al2  1  0.47267400  0.17683300  0.31574300  1
  Al  Al3  1  0.52732600  0.82316700  0.68425700  1
  H  H0  1  0.29894400  0.40556700  0.92923800  1
  H  H1  1  0.70105600  0.59443300  0.07076200  1
  H  H2  1  0.79894400  0.59443300  0.57076200  1
  H  H3  1  0.20105600  0.40556700  0.42923800  1
  O  O0  1  0.94708400  0.87801700  0.95885000  1
  O  O1  1  0.05291600  0.12198300  0.04115000  1
  O  O2  1  0.44708400  0.12198300  0.54115000  1
  O  O3  1  0.55291600  0.87801700  0.45885000  1
  F  F0  1  0.10807500  0.46548100  0.72960000  1
  F  F1  1  0.89192500  0.53451900  0.27040000  1
  F  F2  1  0.60807500  0.53451900  0.77040000  1
  F  F3  1  0.39192500  0.46548100  0.22960000  1
  F  F4  1  0.49274500  0.89442600  0.87138600  1
  F  F5  1  0.50725500  0.10557400  0.12861400  1
  F  F6  1  0.99274500  0.10557400  0.62861400  1
  F  F7  1  0.00725500  0.89442600  0.37138600  1
  F  F8  1  0.37753500  0.66403300  0.69178400  1
  F  F9  1  0.62246500  0.33596700  0.30821600  1
  F  F10  1  0.87753500  0.33596700  0.80821600  1
  F  F11  1  0.12246500  0.66403300  0.19178400  1
  F  F12  1  0.17959500  0.99835400  0.81665500  1
  F  F13  1  0.82040500  0.00164600  0.18334500  1
  F  F14  1  0.67959500  0.00164600  0.68334500  1
  F  F15  1  0.32040500  0.99835400  0.31665500  1
loop_
_geom_bond_atom_site_label_1
_geom_bond_atom_site_label_2
_geom_bond_distance
_geom_bond_site_symmetry_2
Al0 F1 1.771305 1_555
Al0 F11 1.804316 1_655
Al0 F7 1.825505 1_655
Al0 F13 1.889350 1_565
Al0 O0 1.903913 1_554
Al0 O1 1.939287 1_665
Al1 F0 1.771305 1_555
Al1 F10 1.804316 1_455
Al1 F6 1.825505 1_455
Al1 F12 1.889350 1_545
Al1 O1 1.903913 1_556
Al1 O0 1.939287 1_445
Al2 F3 1.771305 1_555
Al2 F9 1.804316 1_555
Al2 F5 1.825505 1_555
Al2 F15 1.889350 1_545
Al2 O2 1.903913 1_555
Al2 O3 1.939287 1_545
Al3 F2 1.771305 1_555
Al3 F8 1.804316 1_555
Al3 F4 1.825505 1_555
Al3 F14 1.889350 1_565
Al3 O3 1.903913 1_555
Al3 O2 1.939287 1_565
F0 Sr0 2.378373 1_555
F1 Sr1 2.378373 1_555
F2 Sr2 2.378373 1_555
F3 Sr3 2.378373 1_555
F4 Sr3 2.497003 1_556
F4 Sr2 2.587284 1_565
F5 Sr2 2.497003 1_554
F5 Sr3 2.587284 1_545
F6 Sr1 2.497003 1_555
F6 Sr0 2.587284 1_645
F7 Sr0 2.497003 1_555
F7 Sr1 2.587284 1_465
F8 Sr0 2.407065 1_555
F9 Sr1 2.407065 1_555
F10 Sr2 2.407065 1_555
F11 Sr3 2.407065 1_555
F12 Sr3 2.508577 1_556
F12 Sr0 2.511841 1_555
F13 Sr2 2.508577 1_554
F13 Sr1 2.511841 1_555
F14 Sr1 2.508577 1_555
F14 Sr2 2.511841 1_555
F15 Sr0 2.508577 1_555
F15 Sr3 2.511841 1_555
