# generated using pymatgen
data_La3Sn13Ir4
_symmetry_space_group_name_H-M   'P 1'
_cell_length_a   9.82254711
_cell_length_b   9.82258554
_cell_length_c   9.82255532
_cell_angle_alpha   89.99996348
_cell_angle_beta   89.99993129
_cell_angle_gamma   90.00008073
_symmetry_Int_Tables_number   1
_chemical_formula_structural   La3Sn13Ir4
_chemical_formula_sum   'La6 Sn26 Ir8'
_cell_volume   947.70773088
_cell_formula_units_Z   2
loop_
 _symmetry_equiv_pos_site_id
 _symmetry_equiv_pos_as_xyz
  1  'x, y, z'
loop_
 _atom_site_type_symbol
 _atom_site_label
 _atom_site_symmetry_multiplicity
 _atom_site_fract_x
 _atom_site_fract_y
 _atom_site_fract_z
 _atom_site_occupancy
  La  La0  1  0.49999978  -0.00000167  0.75000035  1
  La  La1  1  0.00000089  0.24999888  0.50000130  1
  La  La2  1  0.75000284  0.50000196  -0.00000079  1
  La  La3  1  0.49999967  -0.00000161  0.24999939  1
  La  La4  1  -0.00000085  0.75000000  0.50000117  1
  La  La5  1  0.24999694  0.50000096  -0.00000044  1
  Sn  Sn0  1  0.49999954  0.50000164  0.49999996  1
  Sn  Sn1  1  0.00000025  -0.00000152  0.00000034  1
  Sn  Sn2  1  0.65262083  0.19450077  0.50000055  1
  Sn  Sn3  1  0.80549859  0.50000040  0.65262045  1
  Sn  Sn4  1  0.49999898  0.34738015  0.80550459  1
  Sn  Sn5  1  0.34738017  0.80549818  0.50000020  1
  Sn  Sn6  1  0.19450093  0.49999914  0.34737955  1
  Sn  Sn7  1  0.50000108  0.65262084  0.19449569  1
  Sn  Sn8  1  0.65261963  0.80549876  0.50000031  1
  Sn  Sn9  1  0.80549840  0.50000031  0.34737948  1
  Sn  Sn10  1  0.34737923  0.19450016  0.50000163  1
  Sn  Sn11  1  0.19450243  0.49999816  0.65262029  1
  Sn  Sn12  1  0.50000051  0.65262110  0.80550473  1
  Sn  Sn13  1  0.50000043  0.34738080  0.19449479  1
  Sn  Sn14  1  0.15262105  0.00000180  0.69449980  1
  Sn  Sn15  1  0.30550484  0.15261994  -0.00000167  1
  Sn  Sn16  1  0.00000093  0.30550271  0.84737825  1
  Sn  Sn17  1  0.84737910  0.00000039  0.30550041  1
  Sn  Sn18  1  0.69449419  0.84737829  -0.00000041  1
  Sn  Sn19  1  -0.00000133  0.69449950  0.15262065  1
  Sn  Sn20  1  0.15262311  0.00000044  0.30549895  1
  Sn  Sn21  1  0.30550508  0.84737865  -0.00000050  1
  Sn  Sn22  1  0.84737867  0.00000015  0.69449994  1
  Sn  Sn23  1  0.69449434  0.15262011  -0.00000023  1
  Sn  Sn24  1  -0.00000026  0.30550223  0.15262197  1
  Sn  Sn25  1  -0.00000164  0.69449874  0.84737918  1
  Ir  Ir0  1  0.74999778  0.24999924  0.75000114  1
  Ir  Ir1  1  0.25000178  0.75000008  0.24999875  1
  Ir  Ir2  1  0.74999834  0.74999929  0.24999824  1
  Ir  Ir3  1  0.25000146  0.24999952  0.75000124  1
  Ir  Ir4  1  0.25000286  0.75000088  0.75000210  1
  Ir  Ir5  1  0.74999847  0.25000034  0.24999818  1
  Ir  Ir6  1  0.25000064  0.25000054  0.24999939  1
  Ir  Ir7  1  0.74999734  0.74999977  0.75000208  1
loop_
_geom_bond_atom_site_label_1
_geom_bond_atom_site_label_2
_geom_bond_distance
_geom_bond_site_symmetry_2
La0 Sn21 3.453580 1_546
La0 Sn15 3.453585 1_556
La0 Sn18 3.453586 1_546
La0 Sn23 3.453594 1_556
La0 Sn8 3.453619 1_545
La0 Sn5 3.453622 1_545
La0 Sn10 3.453626 1_555
La0 Sn2 3.453634 1_555
La0 Sn14 3.455420 1_555
La0 Sn22 3.455420 1_555
La0 Sn12 3.455424 1_545
La0 Sn4 3.455469 1_555
La1 Sn14 3.453597 1_555
La1 Sn22 3.453613 1_455
La1 Sn11 3.453621 1_555
La1 Sn17 3.453625 1_455
La1 Sn6 3.453629 1_555
La1 Sn20 3.453636 1_555
La1 Sn3 3.453644 1_455
La1 Sn9 3.453656 1_455
La1 Sn16 3.455411 1_555
La1 Sn10 3.455414 1_555
La1 Sn2 3.455428 1_455
La1 Sn24 3.455432 1_555
La2 Sn25 3.453568 1_654
La2 Sn19 3.453584 1_655
La2 Sn12 3.453604 1_554
La2 Sn7 3.453608 1_555
La2 Sn16 3.453608 1_654
La2 Sn24 3.453611 1_655
La2 Sn13 3.453613 1_555
La2 Sn4 3.453625 1_554
La2 Sn3 3.455414 1_554
La2 Sn18 3.455422 1_555
La2 Sn9 3.455430 1_555
La2 Sn23 3.455474 1_555
La3 Sn18 3.453589 1_545
La3 Sn21 3.453589 1_545
La3 Sn23 3.453592 1_555
La3 Sn15 3.453607 1_555
La3 Sn5 3.453622 1_545
La3 Sn8 3.453627 1_545
La3 Sn2 3.453648 1_555
La3 Sn10 3.453649 1_555
La3 Sn20 3.455396 1_555
La3 Sn7 3.455426 1_545
La3 Sn17 3.455427 1_555
La3 Sn13 3.455474 1_555
La4 Sn3 3.453616 1_455
La4 Sn22 3.453621 1_465
La4 Sn9 3.453632 1_455
La4 Sn17 3.453632 1_465
La4 Sn14 3.453637 1_565
La4 Sn6 3.453647 1_555
La4 Sn20 3.453652 1_565
La4 Sn11 3.453652 1_555
La4 Sn25 3.455416 1_555
La4 Sn8 3.455425 1_455
La4 Sn5 3.455437 1_555
La4 Sn19 3.455440 1_555
La5 Sn16 3.453588 1_554
La5 Sn24 3.453600 1_555
La5 Sn25 3.453602 1_554
La5 Sn19 3.453606 1_555
La5 Sn4 3.453610 1_554
La5 Sn12 3.453613 1_554
La5 Sn13 3.453620 1_555
La5 Sn7 3.453627 1_555
La5 Sn11 3.455419 1_554
La5 Sn6 3.455427 1_555
La5 Sn21 3.455433 1_555
La5 Sn15 3.455467 1_555
Sn0 Sn11 3.354387 1_555
Sn0 Sn5 3.354391 1_555
Sn0 Sn8 3.354396 1_555
Sn0 Sn9 3.354403 1_555
Sn0 Sn6 3.354404 1_555
Sn0 Sn3 3.354408 1_555
Sn0 Sn10 3.354435 1_555
Sn0 Sn2 3.354438 1_555
Sn0 Sn7 3.354450 1_555
Sn0 Sn12 3.354458 1_555
Sn0 Sn4 3.354464 1_555
Sn0 Sn13 3.354467 1_555
Sn1 Sn19 3.354415 1_545
Sn1 Sn20 3.354416 1_555
Sn1 Sn17 3.354419 1_455
Sn1 Sn14 3.354421 1_554
Sn1 Sn22 3.354427 1_454
Sn1 Sn25 3.354427 1_544
Sn1 Sn21 3.354458 1_545
Sn1 Sn15 3.354460 1_555
Sn1 Sn24 3.354464 1_555
Sn1 Sn18 3.354467 1_445
Sn1 Sn16 3.354469 1_554
Sn1 Sn23 3.354476 1_455
Ir0 Sn23 2.691140 1_556
Ir0 Sn2 2.691142 1_555
Ir0 Sn4 2.691148 1_555
Ir0 Sn22 2.691154 1_555
Ir0 Sn3 2.691169 1_555
Ir0 Sn16 2.691173 1_655
Ir0 La0 3.472792 1_555
Ir0 La2 3.472810 1_556
Ir0 La1 3.472815 1_655
Ir1 Sn21 2.691144 1_555
Ir1 Sn7 2.691146 1_555
Ir1 Sn5 2.691154 1_555
Ir1 Sn20 2.691156 1_565
Ir1 Sn6 2.691167 1_555
Ir1 Sn19 2.691171 1_555
Ir1 La3 3.472773 1_565
Ir1 La5 3.472792 1_555
Ir1 La4 3.472829 1_555
Ir2 Sn7 2.691123 1_555
Ir2 Sn19 2.691142 1_655
Ir2 Sn18 2.691143 1_555
Ir2 Sn9 2.691152 1_555
Ir2 Sn8 2.691162 1_555
Ir2 Sn17 2.691172 1_565
Ir2 La2 3.472779 1_555
Ir2 La3 3.472789 1_565
Ir2 La4 3.472824 1_655
Ir3 Sn15 2.691130 1_556
Ir3 Sn4 2.691134 1_555
Ir3 Sn10 2.691136 1_555
Ir3 Sn14 2.691139 1_555
Ir3 Sn11 2.691146 1_555
Ir3 Sn16 2.691148 1_555
Ir3 La0 3.472801 1_555
Ir3 La1 3.472802 1_555
Ir3 La5 3.472803 1_556
Ir4 Sn21 2.691124 1_556
Ir4 Sn12 2.691133 1_555
Ir4 Sn5 2.691150 1_555
Ir4 Sn14 2.691176 1_565
Ir4 Sn25 2.691180 1_555
Ir4 Sn11 2.691188 1_555
Ir4 La0 3.472760 1_565
Ir4 La5 3.472784 1_556
Ir4 La4 3.472831 1_555
Ir5 Sn13 2.691141 1_555
Ir5 Sn23 2.691146 1_555
Ir5 Sn24 2.691148 1_655
Ir5 Sn2 2.691160 1_555
Ir5 Sn9 2.691160 1_555
Ir5 Sn17 2.691163 1_555
Ir5 La3 3.472804 1_555
Ir5 La2 3.472806 1_555
Ir5 La1 3.472837 1_655
Ir6 Sn6 2.691144 1_555
Ir6 Sn20 2.691145 1_555
Ir6 Sn24 2.691152 1_555
Ir6 Sn13 2.691155 1_555
Ir6 Sn10 2.691166 1_555
Ir6 Sn15 2.691170 1_555
Ir6 La5 3.472804 1_555
Ir6 La1 3.472806 1_555
Ir6 La3 3.472812 1_555
Ir7 Sn12 2.691119 1_555
Ir7 Sn18 2.691129 1_556
Ir7 Sn25 2.691150 1_655
Ir7 Sn8 2.691156 1_555
Ir7 Sn3 2.691160 1_555
Ir7 Sn22 2.691166 1_565
Ir7 La2 3.472767 1_556
Ir7 La0 3.472777 1_565
Ir7 La4 3.472813 1_655
