# generated using pymatgen
data_LiB
_symmetry_space_group_name_H-M   'P 1'
_cell_length_a   3.07966900
_cell_length_b   5.71539700
_cell_length_c   6.15039500
_cell_angle_alpha   90.00000000
_cell_angle_beta   90.00000000
_cell_angle_gamma   90.00000000
_symmetry_Int_Tables_number   1
_chemical_formula_structural   LiB
_chemical_formula_sum   'Li4 B4'
_cell_volume   108.25636803
_cell_formula_units_Z   4
loop_
 _symmetry_equiv_pos_site_id
 _symmetry_equiv_pos_as_xyz
  1  'x, y, z'
loop_
 _atom_site_type_symbol
 _atom_site_label
 _atom_site_symmetry_multiplicity
 _atom_site_fract_x
 _atom_site_fract_y
 _atom_site_fract_z
 _atom_site_occupancy
  Li  Li0  1  0.25000000  0.24221300  0.25665100  1
  Li  Li1  1  0.75000000  0.75778700  0.74334900  1
  Li  Li2  1  0.75000000  0.74221300  0.24334900  1
  Li  Li3  1  0.25000000  0.25778700  0.75665100  1
  B  B0  1  0.25000000  0.52691400  0.49929500  1
  B  B1  1  0.75000000  0.47308600  0.50070500  1
  B  B2  1  0.75000000  0.02691400  0.00070500  1
  B  B3  1  0.25000000  0.97308600  0.99929500  1
loop_
_geom_bond_atom_site_label_1
_geom_bond_atom_site_label_2
_geom_bond_distance
_geom_bond_site_symmetry_2
B0 B1 1.570291 1_455
B0 B1 1.570291 1_555
B0 Li3 2.207112 1_555
B0 Li0 2.207904 1_555
B0 Li2 2.522553 1_555
B0 Li2 2.522553 1_455
B0 Li1 2.522962 1_455
B0 Li1 2.522962 1_555
B1 Li2 2.207112 1_555
B1 Li1 2.207904 1_555
B1 Li3 2.522553 1_555
B1 Li3 2.522553 1_655
B1 Li0 2.522962 1_555
B1 Li0 2.522962 1_655
B2 B3 1.570291 1_644
B2 B3 1.570291 1_544
B2 Li1 2.207112 1_544
B2 Li2 2.207904 1_545
B2 Li0 2.522553 1_555
B2 Li0 2.522553 1_655
B2 Li3 2.522962 1_654
B2 Li3 2.522962 1_554
B3 Li0 2.207112 1_566
B3 Li3 2.207904 1_565
B3 Li1 2.522553 1_455
B3 Li1 2.522553 1_555
B3 Li2 2.522962 1_556
B3 Li2 2.522962 1_456
