# generated using pymatgen
data_Mg6FeNi
_symmetry_space_group_name_H-M   'P 1'
_cell_length_a   6.13088639
_cell_length_b   6.13088639
_cell_length_c   4.70765600
_cell_angle_alpha   90.00000000
_cell_angle_beta   90.00000000
_cell_angle_gamma   122.36467693
_symmetry_Int_Tables_number   1
_chemical_formula_structural   Mg6FeNi
_chemical_formula_sum   'Mg6 Fe1 Ni1'
_cell_volume   149.46248925
_cell_formula_units_Z   1
loop_
 _symmetry_equiv_pos_site_id
 _symmetry_equiv_pos_as_xyz
  1  'x, y, z'
loop_
 _atom_site_type_symbol
 _atom_site_label
 _atom_site_symmetry_multiplicity
 _atom_site_fract_x
 _atom_site_fract_y
 _atom_site_fract_z
 _atom_site_occupancy
  Mg  Mg0  1  0.14912000  0.32615700  0.50000000  1
  Mg  Mg1  1  0.67384300  0.85088000  0.50000000  1
  Mg  Mg2  1  0.16670300  0.83329700  0.50000000  1
  Mg  Mg3  1  0.35415600  0.17300000  0.00000000  1
  Mg  Mg4  1  0.82700000  0.64584400  0.00000000  1
  Mg  Mg5  1  0.33258100  0.66741900  0.00000000  1
  Fe  Fe0  1  0.68678600  0.31321400  0.50000000  1
  Ni  Ni0  1  0.80981100  0.19018900  0.00000000  1
loop_
_geom_bond_atom_site_label_1
_geom_bond_atom_site_label_2
_geom_bond_distance
_geom_bond_site_symmetry_2
Mg0 Mg1 2.809109 1_445
Mg0 Mg5 2.943402 1_556
Mg0 Mg5 2.943402 1_555
Mg0 Ni0 2.950650 1_455
Mg0 Ni0 2.950650 1_456
Mg0 Mg3 3.044025 1_556
Mg0 Mg3 3.044025 1_555
Mg0 Mg2 3.052870 1_555
Mg0 Mg2 3.080720 1_545
Mg0 Mg1 3.101357 1_555
Mg1 Mg5 2.943402 1_555
Mg1 Mg5 2.943402 1_556
Mg1 Ni0 2.950650 1_565
Mg1 Ni0 2.950650 1_566
Mg1 Mg4 3.044025 1_555
Mg1 Mg4 3.044025 1_556
Mg1 Mg2 3.052870 1_555
Mg1 Mg2 3.080720 1_655
Mg2 Mg4 2.938760 1_456
Mg2 Mg4 2.938760 1_455
Mg2 Mg3 2.938760 1_566
Mg2 Mg3 2.938760 1_565
Mg2 Mg5 2.952334 1_556
Mg2 Mg5 2.952334 1_555
Mg3 Ni0 2.738603 1_555
Mg3 Mg4 2.794728 1_555
Mg3 Mg5 3.030913 1_545
Mg3 Mg5 3.104045 1_555
Mg3 Mg4 3.115738 1_445
Mg4 Ni0 2.738603 1_555
Mg4 Mg5 3.030913 1_655
Mg4 Mg5 3.104045 1_555
Mg5 Ni0 2.965340 1_455
Mg5 Ni0 2.965340 1_565
Fe0 Ni0 2.699512 1_556
Fe0 Ni0 2.699512 1_555
Fe0 Mg1 2.792844 1_545
Fe0 Mg0 2.792844 1_655
Fe0 Mg4 2.925993 1_556
Fe0 Mg4 2.925993 1_555
Fe0 Mg3 2.925993 1_556
Fe0 Mg3 2.925993 1_555
Fe0 Mg2 2.963099 1_545
Fe0 Mg2 2.963099 1_655
Fe0 Mg0 3.339519 1_555
Fe0 Mg1 3.339519 1_555
