# generated using pymatgen
data_Nb4Rh
_symmetry_space_group_name_H-M   'P 1'
_cell_length_a   23.03317988
_cell_length_b   22.82788289
_cell_length_c   5.68656354
_cell_angle_alpha   84.93484300
_cell_angle_beta   80.82885121
_cell_angle_gamma   14.23630579
_symmetry_Int_Tables_number   1
_chemical_formula_structural   Nb4Rh
_chemical_formula_sum   'Nb32 Rh8'
_cell_volume   698.39471651
_cell_formula_units_Z   8
loop_
 _symmetry_equiv_pos_site_id
 _symmetry_equiv_pos_as_xyz
  1  'x, y, z'
loop_
 _atom_site_type_symbol
 _atom_site_label
 _atom_site_symmetry_multiplicity
 _atom_site_fract_x
 _atom_site_fract_y
 _atom_site_fract_z
 _atom_site_occupancy
  Nb  Nb0_0  1  0.20325100  0.20325100  0.29674900  1
  Nb  Nb0_1  1  0.20325100  0.20325100  0.79674900  1
  Nb  Nb0_2  1  0.20325100  0.70325100  0.29674900  1
  Nb  Nb0_3  1  0.20325100  0.70325100  0.79674900  1
  Nb  Nb0_4  1  0.70325100  0.20325100  0.29674900  1
  Nb  Nb0_5  1  0.70325100  0.20325100  0.79674900  1
  Nb  Nb0_6  1  0.70325100  0.70325100  0.29674900  1
  Nb  Nb0_7  1  0.70325100  0.70325100  0.79674900  1
  Nb  Nb1_0  1  0.40126100  0.40126100  0.09873900  1
  Nb  Nb1_1  1  0.40126100  0.40126100  0.59873900  1
  Nb  Nb1_2  1  0.40126100  0.90126100  0.09873900  1
  Nb  Nb1_3  1  0.40126100  0.90126100  0.59873900  1
  Nb  Nb1_4  1  0.90126100  0.40126100  0.09873900  1
  Nb  Nb1_5  1  0.90126100  0.40126100  0.59873900  1
  Nb  Nb1_6  1  0.90126100  0.90126100  0.09873900  1
  Nb  Nb1_7  1  0.90126100  0.90126100  0.59873900  1
  Nb  Nb2_0  1  0.09873900  0.09873900  0.40126100  1
  Nb  Nb2_1  1  0.09873900  0.09873900  0.90126100  1
  Nb  Nb2_2  1  0.09873900  0.59873900  0.40126100  1
  Nb  Nb2_3  1  0.09873900  0.59873900  0.90126100  1
  Nb  Nb2_4  1  0.59873900  0.09873900  0.40126100  1
  Nb  Nb2_5  1  0.59873900  0.09873900  0.90126100  1
  Nb  Nb2_6  1  0.59873900  0.59873900  0.40126100  1
  Nb  Nb2_7  1  0.59873900  0.59873900  0.90126100  1
  Nb  Nb3_0  1  0.29674900  0.29674900  0.20325100  1
  Nb  Nb3_1  1  0.29674900  0.29674900  0.70325100  1
  Nb  Nb3_2  1  0.29674900  0.79674900  0.20325100  1
  Nb  Nb3_3  1  0.29674900  0.79674900  0.70325100  1
  Nb  Nb3_4  1  0.79674900  0.29674900  0.20325100  1
  Nb  Nb3_5  1  0.79674900  0.29674900  0.70325100  1
  Nb  Nb3_6  1  0.79674900  0.79674900  0.20325100  1
  Nb  Nb3_7  1  0.79674900  0.79674900  0.70325100  1
  Rh  Rh0_0  1  0.00000000  0.00000000  0.00000000  1
  Rh  Rh0_1  1  0.00000000  0.00000000  0.50000000  1
  Rh  Rh0_2  1  0.00000000  0.50000000  0.00000000  1
  Rh  Rh0_3  1  0.00000000  0.50000000  0.50000000  1
  Rh  Rh0_4  1  0.50000000  0.00000000  0.00000000  1
  Rh  Rh0_5  1  0.50000000  0.00000000  0.50000000  1
  Rh  Rh0_6  1  0.50000000  0.50000000  1.00000000  1
  Rh  Rh0_7  1  0.50000000  0.50000000  0.50000000  1
loop_
_geom_bond_atom_site_label_1
_geom_bond_atom_site_label_2
_geom_bond_distance
_geom_bond_site_symmetry_2
Nb0_0 Rh0_4 2.705650 1_555
Nb0_0 Rh0_3 2.705650 1_555
Nb0_0 Nb1_5 2.894046 1_455
Nb0_0 Nb1_2 2.894046 1_545
Nb0_1 Rh0_5 2.705650 1_555
Nb0_1 Rh0_2 2.705650 1_556
Nb0_1 Nb1_3 2.894046 1_545
Nb0_1 Nb1_4 2.894046 1_456
Nb0_2 Rh0_1 2.705650 1_565
Nb0_2 Rh0_6 2.705650 1_554
Nb0_2 Nb1_0 2.894046 1_555
Nb0_2 Nb1_7 2.894046 1_455
Nb0_3 Rh0_0 2.705650 1_566
Nb0_3 Rh0_7 2.705650 1_555
Nb0_3 Nb1_1 2.894046 1_555
Nb0_3 Nb1_6 2.894046 1_456
Nb0_4 Rh0_0 2.705650 1_655
Nb0_4 Rh0_7 2.705650 1_555
Nb0_4 Nb1_1 2.894046 1_555
Nb0_4 Nb1_6 2.894046 1_545
Nb0_5 Rh0_6 2.705650 1_555
Nb0_5 Rh0_1 2.705650 1_655
Nb0_5 Nb1_0 2.894046 1_556
Nb0_5 Nb1_7 2.894046 1_545
Nb0_6 Rh0_2 2.705650 1_655
Nb0_6 Rh0_5 2.705650 1_565
Nb0_6 Nb1_3 2.894046 1_555
Nb0_6 Nb1_4 2.894046 1_555
Nb0_7 Rh0_3 2.705650 1_655
Nb0_7 Rh0_4 2.705650 1_566
Nb0_7 Nb1_5 2.894046 1_555
Nb0_7 Nb1_2 2.894046 1_556
Nb1_0 Nb1_1 2.843282 1_555
Nb1_0 Nb1_6 2.843282 1_455
Nb1_0 Nb1_1 2.843282 1_554
Nb1_0 Nb1_6 2.843282 1_545
Nb1_0 Nb2_5 2.913563 1_554
Nb1_0 Nb2_2 2.913563 1_555
Nb1_1 Nb1_7 2.843282 1_545
Nb1_1 Nb1_7 2.843282 1_455
Nb1_1 Nb2_4 2.913563 1_555
Nb1_1 Nb2_3 2.913563 1_555
Nb1_2 Nb1_3 2.843282 1_555
Nb1_2 Nb1_4 2.843282 1_555
Nb1_2 Nb1_4 2.843282 1_465
Nb1_2 Nb1_3 2.843282 1_554
Nb1_2 Nb2_7 2.913563 1_554
Nb1_2 Nb2_0 2.913563 1_565
Nb1_3 Nb1_5 2.843282 1_555
Nb1_3 Nb1_5 2.843282 1_465
Nb1_3 Nb2_1 2.913563 1_565
Nb1_3 Nb2_6 2.913563 1_555
Nb1_4 Nb1_5 2.843282 1_554
Nb1_4 Nb1_5 2.843282 1_555
Nb1_4 Nb2_1 2.913563 1_654
Nb1_4 Nb2_6 2.913563 1_555
Nb1_5 Nb2_0 2.913563 1_655
Nb1_5 Nb2_7 2.913563 1_555
Nb1_6 Nb1_7 2.843282 1_555
Nb1_6 Nb1_7 2.843282 1_554
Nb1_6 Nb2_3 2.913563 1_654
Nb1_6 Nb2_4 2.913563 1_565
Nb1_7 Nb2_5 2.913563 1_565
Nb1_7 Nb2_2 2.913563 1_655
Nb2_0 Nb2_6 2.843282 1_545
Nb2_0 Nb2_1 2.843282 1_554
Nb2_0 Nb2_6 2.843282 1_455
Nb2_0 Nb2_1 2.843282 1_555
Nb2_0 Nb3_5 2.894046 1_455
Nb2_0 Nb3_2 2.894046 1_545
Nb2_1 Nb2_7 2.843282 1_455
Nb2_1 Nb2_7 2.843282 1_545
Nb2_1 Nb3_3 2.894046 1_545
Nb2_1 Nb3_4 2.894046 1_456
Nb2_2 Nb2_3 2.843282 1_555
Nb2_2 Nb2_4 2.843282 1_555
Nb2_2 Nb2_4 2.843282 1_465
Nb2_2 Nb2_3 2.843282 1_554
Nb2_2 Nb3_7 2.894046 1_455
Nb2_2 Nb3_0 2.894046 1_555
Nb2_3 Nb2_5 2.843282 1_555
Nb2_3 Nb2_5 2.843282 1_465
Nb2_3 Nb3_6 2.894046 1_456
Nb2_3 Nb3_1 2.894046 1_555
Nb2_4 Nb2_5 2.843282 1_554
Nb2_4 Nb2_5 2.843282 1_555
Nb2_4 Nb3_6 2.894046 1_545
Nb2_4 Nb3_1 2.894046 1_555
Nb2_5 Nb3_7 2.894046 1_545
Nb2_5 Nb3_0 2.894046 1_556
Nb2_6 Nb2_7 2.843282 1_555
Nb2_6 Nb2_7 2.843282 1_554
Nb2_6 Nb3_3 2.894046 1_555
Nb2_6 Nb3_4 2.894046 1_555
Nb2_7 Nb3_5 2.894046 1_555
Nb2_7 Nb3_2 2.894046 1_556
Nb3_0 Rh0_4 2.705650 1_555
Nb3_0 Rh0_3 2.705650 1_555
Nb3_1 Rh0_5 2.705650 1_555
Nb3_1 Rh0_2 2.705650 1_556
Nb3_2 Rh0_6 2.705650 1_554
Nb3_2 Rh0_1 2.705650 1_565
Nb3_3 Rh0_7 2.705650 1_555
Nb3_3 Rh0_0 2.705650 1_566
Nb3_4 Rh0_7 2.705650 1_555
Nb3_4 Rh0_0 2.705650 1_655
Nb3_5 Rh0_6 2.705650 1_555
Nb3_5 Rh0_1 2.705650 1_655
Nb3_6 Rh0_5 2.705650 1_565
Nb3_6 Rh0_2 2.705650 1_655
Nb3_7 Rh0_4 2.705650 1_566
Nb3_7 Rh0_3 2.705650 1_655
