# generated using pymatgen
data_Tb2Th2O5
_symmetry_space_group_name_H-M   'P 1'
_cell_length_a   8.52245000
_cell_length_b   8.52245000
_cell_length_c   21.32996400
_cell_angle_alpha   90.00000000
_cell_angle_beta   90.00000000
_cell_angle_gamma   90.00000000
_symmetry_Int_Tables_number   1
_chemical_formula_structural   Tb2Th2O5
_chemical_formula_sum   'Tb16 Th16 O40'
_cell_volume   1549.24123012
_cell_formula_units_Z   8
loop_
 _symmetry_equiv_pos_site_id
 _symmetry_equiv_pos_as_xyz
  1  'x, y, z'
loop_
 _atom_site_type_symbol
 _atom_site_label
 _atom_site_symmetry_multiplicity
 _atom_site_fract_x
 _atom_site_fract_y
 _atom_site_fract_z
 _atom_site_occupancy
  Tb  Tb0_0  1  0.00000000  0.00000000  0.00000000  1
  Tb  Tb0_1  1  0.00000000  0.00000000  0.50000000  1
  Tb  Tb0_2  1  0.00000000  0.50000000  0.00000000  1
  Tb  Tb0_3  1  0.00000000  0.50000000  0.50000000  1
  Tb  Tb0_4  1  0.50000000  0.00000000  0.00000000  1
  Tb  Tb0_5  1  0.50000000  0.00000000  0.50000000  1
  Tb  Tb0_6  1  0.50000000  0.50000000  0.00000000  1
  Tb  Tb0_7  1  0.50000000  0.50000000  0.50000000  1
  Tb  Tb1_0  1  0.00000000  0.00000000  0.25000000  1
  Tb  Tb1_1  1  0.00000000  0.00000000  0.75000000  1
  Tb  Tb1_2  1  0.00000000  0.50000000  0.25000000  1
  Tb  Tb1_3  1  0.00000000  0.50000000  0.75000000  1
  Tb  Tb1_4  1  0.50000000  0.00000000  0.25000000  1
  Tb  Tb1_5  1  0.50000000  0.00000000  0.75000000  1
  Tb  Tb1_6  1  0.50000000  0.50000000  0.25000000  1
  Tb  Tb1_7  1  0.50000000  0.50000000  0.75000000  1
  Th  Th0_0  1  0.25000000  0.25000000  0.14520250  1
  Th  Th0_1  1  0.25000000  0.25000000  0.64520250  1
  Th  Th0_2  1  0.25000000  0.75000000  0.14520250  1
  Th  Th0_3  1  0.25000000  0.75000000  0.64520250  1
  Th  Th0_4  1  0.75000000  0.25000000  0.14520250  1
  Th  Th0_5  1  0.75000000  0.25000000  0.64520250  1
  Th  Th0_6  1  0.75000000  0.75000000  0.14520250  1
  Th  Th0_7  1  0.75000000  0.75000000  0.64520250  1
  Th  Th1_0  1  0.25000000  0.25000000  0.35479750  1
  Th  Th1_1  1  0.25000000  0.25000000  0.85479750  1
  Th  Th1_2  1  0.25000000  0.75000000  0.35479750  1
  Th  Th1_3  1  0.25000000  0.75000000  0.85479750  1
  Th  Th1_4  1  0.75000000  0.25000000  0.35479750  1
  Th  Th1_5  1  0.75000000  0.25000000  0.85479750  1
  Th  Th1_6  1  0.75000000  0.75000000  0.35479750  1
  Th  Th1_7  1  0.75000000  0.75000000  0.85479750  1
  O  O0_0  1  0.25000000  0.00000000  0.17639050  1
  O  O0_1  1  0.25000000  0.00000000  0.67639050  1
  O  O0_2  1  0.25000000  0.50000000  0.17639050  1
  O  O0_3  1  0.25000000  0.50000000  0.67639050  1
  O  O0_4  1  0.75000000  0.00000000  0.17639050  1
  O  O0_5  1  0.75000000  0.00000000  0.67639050  1
  O  O0_6  1  0.75000000  0.50000000  0.17639050  1
  O  O0_7  1  0.75000000  0.50000000  0.67639050  1
  O  O1_0  1  0.25000000  0.00000000  0.32360950  1
  O  O1_1  1  0.25000000  0.00000000  0.82360950  1
  O  O1_2  1  0.25000000  0.50000000  0.32360950  1
  O  O1_3  1  0.25000000  0.50000000  0.82360950  1
  O  O1_4  1  0.75000000  0.00000000  0.32360950  1
  O  O1_5  1  0.75000000  0.00000000  0.82360950  1
  O  O1_6  1  0.75000000  0.50000000  0.32360950  1
  O  O1_7  1  0.75000000  0.50000000  0.82360950  1
  O  O2_0  1  0.25000000  0.25000000  0.25000000  1
  O  O2_1  1  0.25000000  0.25000000  0.75000000  1
  O  O2_2  1  0.25000000  0.75000000  0.25000000  1
  O  O2_3  1  0.25000000  0.75000000  0.75000000  1
  O  O2_4  1  0.75000000  0.25000000  0.25000000  1
  O  O2_5  1  0.75000000  0.25000000  0.75000000  1
  O  O2_6  1  0.75000000  0.75000000  0.25000000  1
  O  O2_7  1  0.75000000  0.75000000  0.75000000  1
  O  O3_0  1  0.00000000  0.25000000  0.17639050  1
  O  O3_1  1  0.00000000  0.25000000  0.67639050  1
  O  O3_2  1  0.00000000  0.75000000  0.17639050  1
  O  O3_3  1  0.00000000  0.75000000  0.67639050  1
  O  O3_4  1  0.50000000  0.25000000  0.17639050  1
  O  O3_5  1  0.50000000  0.25000000  0.67639050  1
  O  O3_6  1  0.50000000  0.75000000  0.17639050  1
  O  O3_7  1  0.50000000  0.75000000  0.67639050  1
  O  O4_0  1  0.00000000  0.25000000  0.32360950  1
  O  O4_1  1  0.00000000  0.25000000  0.82360950  1
  O  O4_2  1  0.00000000  0.75000000  0.32360950  1
  O  O4_3  1  0.00000000  0.75000000  0.82360950  1
  O  O4_4  1  0.50000000  0.25000000  0.32360950  1
  O  O4_5  1  0.50000000  0.25000000  0.82360950  1
  O  O4_6  1  0.50000000  0.75000000  0.32360950  1
  O  O4_7  1  0.50000000  0.75000000  0.82360950  1
loop_
_geom_bond_atom_site_label_1
_geom_bond_atom_site_label_2
_geom_bond_distance
_geom_bond_site_symmetry_2
Tb0_0 Tb0_2 4.261225 1_555
Tb0_0 Tb0_4 4.261225 1_455
Tb0_0 Tb0_2 4.261225 1_545
Tb0_0 Tb0_4 4.261225 1_555
Tb0_0 Th0_2 4.321047 1_545
Tb0_0 Th0_4 4.321047 1_455
Tb0_0 Th0_6 4.321047 1_445
Tb0_0 Th0_0 4.321047 1_555
Tb0_0 Th1_3 4.321047 1_544
Tb0_0 Th1_5 4.321047 1_454
Tb0_0 Th1_7 4.321047 1_444
Tb0_0 Th1_1 4.321047 1_554
Tb0_1 Tb0_5 4.261225 1_455
Tb0_1 Tb0_5 4.261225 1_555
Tb0_1 Tb0_3 4.261225 1_545
Tb0_1 Tb0_3 4.261225 1_555
Tb0_1 Th0_1 4.321047 1_555
Tb0_1 Th0_7 4.321047 1_445
Tb0_1 Th0_3 4.321047 1_545
Tb0_1 Th0_5 4.321047 1_455
Tb0_1 Th1_2 4.321047 1_545
Tb0_1 Th1_4 4.321047 1_455
Tb0_1 Th1_6 4.321047 1_445
Tb0_1 Th1_0 4.321047 1_555
Tb0_2 Tb0_6 4.261225 1_455
Tb0_2 Tb0_6 4.261225 1_555
Tb0_2 Th0_2 4.321047 1_555
Tb0_2 Th0_4 4.321047 1_455
Tb0_2 Th0_0 4.321047 1_555
Tb0_2 Th0_6 4.321047 1_455
Tb0_2 Th1_7 4.321047 1_454
Tb0_2 Th1_5 4.321047 1_454
Tb0_2 Th1_3 4.321047 1_554
Tb0_2 Th1_1 4.321047 1_554
Tb0_3 Tb0_7 4.261225 1_455
Tb0_3 Tb0_7 4.261225 1_555
Tb0_3 Th0_1 4.321047 1_555
Tb0_3 Th0_3 4.321047 1_555
Tb0_3 Th0_5 4.321047 1_455
Tb0_3 Th0_7 4.321047 1_455
Tb0_3 Th1_6 4.321047 1_455
Tb0_3 Th1_2 4.321047 1_555
Tb0_3 Th1_4 4.321047 1_455
Tb0_3 Th1_0 4.321047 1_555
Tb0_4 Tb0_6 4.261225 1_545
Tb0_4 Tb0_6 4.261225 1_555
Tb0_4 Th0_2 4.321047 1_545
Tb0_4 Th0_6 4.321047 1_545
Tb0_4 Th0_0 4.321047 1_555
Tb0_4 Th0_4 4.321047 1_555
Tb0_4 Th1_3 4.321047 1_544
Tb0_4 Th1_5 4.321047 1_554
Tb0_4 Th1_7 4.321047 1_544
Tb0_4 Th1_1 4.321047 1_554
Tb0_5 Tb0_7 4.261225 1_555
Tb0_5 Tb0_7 4.261225 1_545
Tb0_5 Th0_1 4.321047 1_555
Tb0_5 Th0_5 4.321047 1_555
Tb0_5 Th0_3 4.321047 1_545
Tb0_5 Th0_7 4.321047 1_545
Tb0_5 Th1_4 4.321047 1_555
Tb0_5 Th1_2 4.321047 1_545
Tb0_5 Th1_6 4.321047 1_545
Tb0_5 Th1_0 4.321047 1_555
Tb0_6 Th0_2 4.321047 1_555
Tb0_6 Th0_6 4.321047 1_555
Tb0_6 Th0_0 4.321047 1_555
Tb0_6 Th0_4 4.321047 1_555
Tb0_6 Th1_5 4.321047 1_554
Tb0_6 Th1_3 4.321047 1_554
Tb0_6 Th1_7 4.321047 1_554
Tb0_6 Th1_1 4.321047 1_554
Tb0_7 Th0_1 4.321047 1_555
Tb0_7 Th0_5 4.321047 1_555
Tb0_7 Th0_3 4.321047 1_555
Tb0_7 Th0_7 4.321047 1_555
Tb0_7 Th1_4 4.321047 1_555
Tb0_7 Th1_2 4.321047 1_555
Tb0_7 Th1_6 4.321047 1_555
Tb0_7 Th1_0 4.321047 1_555
O0_0 Th0_0 2.232051 1_555
O0_0 Th0_2 2.232051 1_545
O0_0 Tb1_0 2.646637 1_555
O0_0 Tb1_4 2.646637 1_555
O0_1 Th0_3 2.232051 1_545
O0_1 Th0_1 2.232051 1_555
O0_1 Tb1_1 2.646637 1_555
O0_1 Tb1_5 2.646637 1_555
O0_2 Th0_0 2.232051 1_555
O0_2 Th0_2 2.232051 1_555
O0_2 Tb1_2 2.646637 1_555
O0_2 Tb1_6 2.646637 1_555
O0_3 Th0_1 2.232051 1_555
O0_3 Th0_3 2.232051 1_555
O0_3 Tb1_3 2.646637 1_555
O0_3 Tb1_7 2.646637 1_555
O0_4 Th0_6 2.232051 1_545
O0_4 Th0_4 2.232051 1_555
O0_4 Tb1_0 2.646637 1_655
O0_4 Tb1_4 2.646637 1_555
O0_5 Th0_7 2.232051 1_545
O0_5 Th0_5 2.232051 1_555
O0_5 Tb1_1 2.646637 1_655
O0_5 Tb1_5 2.646637 1_555
O0_6 Th0_4 2.232051 1_555
O0_6 Th0_6 2.232051 1_555
O0_6 Tb1_6 2.646637 1_555
O0_6 Tb1_2 2.646637 1_655
O0_7 Th0_7 2.232051 1_555
O0_7 Th0_5 2.232051 1_555
O0_7 Tb1_3 2.646637 1_655
O0_7 Tb1_7 2.646637 1_555
O1_0 Th1_0 2.232051 1_555
O1_0 Th1_2 2.232051 1_545
O1_0 Tb1_0 2.646637 1_555
O1_0 Tb1_4 2.646637 1_555
O1_1 Th1_3 2.232051 1_545
O1_1 Th1_1 2.232051 1_555
O1_1 Tb1_5 2.646637 1_555
O1_1 Tb1_1 2.646637 1_555
O1_2 Th1_2 2.232051 1_555
O1_2 Th1_0 2.232051 1_555
O1_2 Tb1_2 2.646637 1_555
O1_2 Tb1_6 2.646637 1_555
O1_3 Th1_1 2.232051 1_555
O1_3 Th1_3 2.232051 1_555
O1_3 Tb1_3 2.646637 1_555
O1_3 Tb1_7 2.646637 1_555
O1_4 Th1_6 2.232051 1_545
O1_4 Th1_4 2.232051 1_555
O1_4 Tb1_0 2.646637 1_655
O1_4 Tb1_4 2.646637 1_555
O1_5 Th1_7 2.232051 1_545
O1_5 Th1_5 2.232051 1_555
O1_5 Tb1_5 2.646637 1_555
O1_5 Tb1_1 2.646637 1_655
O1_6 Th1_4 2.232051 1_555
O1_6 Th1_6 2.232051 1_555
O1_6 Tb1_6 2.646637 1_555
O1_6 Tb1_2 2.646637 1_655
O1_7 Th1_7 2.232051 1_555
O1_7 Th1_5 2.232051 1_555
O1_7 Tb1_3 2.646637 1_655
O1_7 Tb1_7 2.646637 1_555
O2_0 Th1_0 2.235327 1_555
O2_0 Th0_0 2.235327 1_555
O2_1 Th1_1 2.235327 1_555
O2_1 Th0_1 2.235327 1_555
O2_2 Th1_2 2.235327 1_555
O2_2 Th0_2 2.235327 1_555
O2_3 Th1_3 2.235327 1_555
O2_3 Th0_3 2.235327 1_555
O2_4 Th1_4 2.235327 1_555
O2_4 Th0_4 2.235327 1_555
O2_5 Th1_5 2.235327 1_555
O2_5 Th0_5 2.235327 1_555
O2_6 Th1_6 2.235327 1_555
O2_6 Th0_6 2.235327 1_555
O2_7 Th1_7 2.235327 1_555
O2_7 Th0_7 2.235327 1_555
O3_0 Th0_4 2.232051 1_455
O3_0 Th0_0 2.232051 1_555
O3_0 Tb1_0 2.646637 1_555
O3_0 Tb1_2 2.646637 1_555
O3_1 Th0_1 2.232051 1_555
O3_1 Th0_5 2.232051 1_455
O3_1 Tb1_1 2.646637 1_555
O3_1 Tb1_3 2.646637 1_555
O3_2 Th0_6 2.232051 1_455
O3_2 Th0_2 2.232051 1_555
O3_2 Tb1_2 2.646637 1_555
O3_2 Tb1_0 2.646637 1_565
O3_3 Th0_7 2.232051 1_455
O3_3 Th0_3 2.232051 1_555
O3_3 Tb1_3 2.646637 1_555
O3_3 Tb1_1 2.646637 1_565
O3_4 Th0_0 2.232051 1_555
O3_4 Th0_4 2.232051 1_555
O3_4 Tb1_6 2.646637 1_555
O3_4 Tb1_4 2.646637 1_555
O3_5 Th0_1 2.232051 1_555
O3_5 Th0_5 2.232051 1_555
O3_5 Tb1_7 2.646637 1_555
O3_5 Tb1_5 2.646637 1_555
O3_6 Th0_6 2.232051 1_555
O3_6 Th0_2 2.232051 1_555
O3_6 Tb1_4 2.646637 1_565
O3_6 Tb1_6 2.646637 1_555
O3_7 Th0_7 2.232051 1_555
O3_7 Th0_3 2.232051 1_555
O3_7 Tb1_5 2.646637 1_565
O3_7 Tb1_7 2.646637 1_555
O4_0 Th1_4 2.232051 1_455
O4_0 Th1_0 2.232051 1_555
O4_0 Tb1_0 2.646637 1_555
O4_0 Tb1_2 2.646637 1_555
O4_1 Th1_1 2.232051 1_555
O4_1 Th1_5 2.232051 1_455
O4_1 Tb1_3 2.646637 1_555
O4_1 Tb1_1 2.646637 1_555
O4_2 Th1_2 2.232051 1_555
O4_2 Th1_6 2.232051 1_455
O4_2 Tb1_2 2.646637 1_555
O4_2 Tb1_0 2.646637 1_565
O4_3 Th1_3 2.232051 1_555
O4_3 Th1_7 2.232051 1_455
O4_3 Tb1_3 2.646637 1_555
O4_3 Tb1_1 2.646637 1_565
O4_4 Th1_0 2.232051 1_555
O4_4 Th1_4 2.232051 1_555
O4_4 Tb1_6 2.646637 1_555
O4_4 Tb1_4 2.646637 1_555
O4_5 Th1_1 2.232051 1_555
O4_5 Th1_5 2.232051 1_555
O4_5 Tb1_5 2.646637 1_555
O4_5 Tb1_7 2.646637 1_555
O4_6 Th1_2 2.232051 1_555
O4_6 Th1_6 2.232051 1_555
O4_6 Tb1_4 2.646637 1_565
O4_6 Tb1_6 2.646637 1_555
O4_7 Th1_7 2.232051 1_555
O4_7 Th1_3 2.232051 1_555
O4_7 Tb1_7 2.646637 1_555
O4_7 Tb1_5 2.646637 1_565
