# generated using pymatgen
data_MgV4Sb2(PO4)6
_symmetry_space_group_name_H-M   'P 1'
_cell_length_a   9.09142785
_cell_length_b   9.09345760
_cell_length_c   9.09943605
_cell_angle_alpha   57.50181572
_cell_angle_beta   57.51992157
_cell_angle_gamma   57.65757488
_symmetry_Int_Tables_number   1
_chemical_formula_structural   MgV4Sb2(PO4)6
_chemical_formula_sum   'Mg1 V4 Sb2 P6 O24'
_cell_volume   502.08991330
_cell_formula_units_Z   1
loop_
 _symmetry_equiv_pos_site_id
 _symmetry_equiv_pos_as_xyz
  1  'x, y, z'
loop_
 _atom_site_type_symbol
 _atom_site_label
 _atom_site_symmetry_multiplicity
 _atom_site_fract_x
 _atom_site_fract_y
 _atom_site_fract_z
 _atom_site_occupancy
  Mg  Mg0  1  0.25010675  0.24981123  0.25005725  1
  V  V0  1  0.13365051  0.13437305  0.13381650  1
  V  V1  1  0.36562692  0.36643732  0.36606189  1
  V  V2  1  0.65012584  0.64884961  0.64572264  1
  V  V3  1  0.85048757  0.85059812  0.85433117  1
  Sb  Sb0  1  0.00096095  0.99764740  0.99694939  1
  Sb  Sb1  1  0.50154855  0.49928962  0.50361949  1
  P  P0  1  0.03416560  0.75019709  0.46628659  1
  P  P1  1  0.46533460  0.03472012  0.74995535  1
  P  P2  1  0.74980993  0.46602494  0.03350333  1
  P  P3  1  0.25104438  0.54804830  0.95276738  1
  P  P4  1  0.54741150  0.95277669  0.25030419  1
  P  P5  1  0.95177113  0.24866633  0.54714132  1
  O  O0  1  0.11926018  0.28831822  0.50263133  1
  O  O1  1  0.29063531  0.50260413  0.12016590  1
  O  O2  1  0.04766806  0.90263526  0.26516399  1
  O  O3  1  0.50465588  0.12210872  0.28531327  1
  O  O4  1  0.98247681  0.83307427  0.60206108  1
  O  O5  1  0.23408003  0.59693422  0.45332405  1
  O  O6  1  0.26274884  0.04891647  0.90191559  1
  O  O7  1  0.45070943  0.23758414  0.59823809  1
  O  O8  1  0.21045026  0.38104925  0.99773226  1
  O  O9  1  0.59699149  0.45290130  0.23401809  1
  O  O10  1  0.08600432  0.73662329  0.92852878  1
  O  O11  1  0.37811006  0.99559578  0.21503937  1
  O  O12  1  0.59762328  0.98340638  0.83655241  1
  O  O13  1  0.90338202  0.26651982  0.04630250  1
  O  O14  1  0.41792645  0.57073504  0.76460888  1
  O  O15  1  0.83420965  0.60133898  0.98363985  1
  O  O16  1  0.57305968  0.76594465  0.41768870  1
  O  O17  1  0.73439935  0.92665593  0.08329074  1
  O  O18  1  0.76343454  0.41372054  0.57216756  1
  O  O19  1  0.99670847  0.21027957  0.37922440  1
  O  O20  1  0.51730394  0.90215181  0.66364079  1
  O  O21  1  0.92899648  0.08129238  0.73490742  1
  O  O22  1  0.66743066  0.51721675  0.89723939  1
  O  O23  1  0.89969057  0.66495329  0.51608909  1
loop_
_geom_bond_atom_site_label_1
_geom_bond_atom_site_label_2
_geom_bond_distance
_geom_bond_site_symmetry_2
Mg0 O0 2.074259 1_555
Mg0 O8 2.076113 1_554
Mg0 O11 2.077165 1_545
Mg0 O3 2.080550 1_555
Mg0 O1 2.082316 1_555
Mg0 O19 2.083723 1_455
O0 P5 1.543009 1_455
O0 V1 2.197758 1_555
O1 P3 1.540737 1_554
O1 V1 2.182330 1_555
O2 P0 1.581350 1_555
O2 V0 2.129074 1_565
O2 Sb0 2.310412 1_554
O3 P4 1.541847 1_545
O3 V1 2.196784 1_555
O4 P0 1.520929 1_655
O4 V3 1.991171 1_555
O5 P0 1.579801 1_555
O5 V1 2.130831 1_555
O5 Sb1 2.315012 1_555
O6 P1 1.588412 1_555
O6 V0 2.135513 1_556
O6 Sb0 2.274472 1_545
O7 P1 1.588945 1_555
O7 V1 2.135426 1_555
O7 Sb1 2.272926 1_555
O8 P3 1.542587 1_555
O8 V0 2.194313 1_556
O9 P2 1.579375 1_555
O9 V1 2.127515 1_555
O9 Sb1 2.320187 1_555
O10 P3 1.560958 1_555
O10 V3 2.130956 1_455
O10 Sb0 2.393076 1_555
O11 P4 1.542288 1_555
O11 V0 2.199838 1_565
O12 P1 1.519017 1_565
O12 V3 1.997131 1_555
O13 P2 1.578496 1_555
O13 V0 2.128693 1_655
O13 Sb0 2.323322 1_644
O14 P3 1.562466 1_555
O14 V2 2.111224 1_555
O14 Sb1 2.414614 1_555
O15 P2 1.531362 1_556
O15 V3 1.962154 1_555
O16 P4 1.561294 1_555
O16 V2 2.078288 1_555
O16 Sb1 2.453003 1_555
O17 P4 1.561109 1_555
O17 V3 2.082922 1_554
O17 Sb0 2.447652 1_654
O18 P5 1.560503 1_555
O18 V2 2.126352 1_555
O18 Sb1 2.398862 1_555
O19 P5 1.540611 1_555
O19 V0 2.182648 1_655
O20 P1 1.517491 1_565
O20 V2 2.001608 1_555
O21 P5 1.562533 1_555
O21 V3 2.100137 1_545
O21 Sb0 2.426174 1_645
O22 P2 1.522873 1_556
O22 V2 1.984188 1_555
O23 P0 1.530487 1_655
O23 V2 1.963723 1_555
