# generated using pymatgen
data_Mg7(SiO7)2
_symmetry_space_group_name_H-M   'P 1'
_cell_length_a   7.88769007
_cell_length_b   7.88769007
_cell_length_c   9.80091000
_cell_angle_alpha   90.00000000
_cell_angle_beta   90.00000000
_cell_angle_gamma   120.00000060
_symmetry_Int_Tables_number   1
_chemical_formula_structural   Mg7(SiO7)2
_chemical_formula_sum   'Mg14 Si4 O28'
_cell_volume   528.07633497
_cell_formula_units_Z   2
loop_
 _symmetry_equiv_pos_site_id
 _symmetry_equiv_pos_as_xyz
  1  'x, y, z'
loop_
 _atom_site_type_symbol
 _atom_site_label
 _atom_site_symmetry_multiplicity
 _atom_site_fract_x
 _atom_site_fract_y
 _atom_site_fract_z
 _atom_site_occupancy
  Mg  Mg0  1  0.07762600  0.46310400  0.11689000  1
  Mg  Mg1  1  0.53689600  0.61452200  0.11689000  1
  Mg  Mg2  1  0.38547800  0.92237400  0.11689000  1
  Mg  Mg3  1  0.92237400  0.53689600  0.61689000  1
  Mg  Mg4  1  0.46310400  0.38547800  0.61689000  1
  Mg  Mg5  1  0.61452200  0.07762600  0.61689000  1
  Mg  Mg6  1  0.02485700  0.24123300  0.38760200  1
  Mg  Mg7  1  0.75876700  0.78362400  0.38760200  1
  Mg  Mg8  1  0.21637600  0.97514300  0.38760200  1
  Mg  Mg9  1  0.97514300  0.75876700  0.88760200  1
  Mg  Mg10  1  0.24123300  0.21637600  0.88760200  1
  Mg  Mg11  1  0.78362400  0.02485700  0.88760200  1
  Mg  Mg12  1  0.33333300  0.66666700  0.41315700  1
  Mg  Mg13  1  0.66666700  0.33333300  0.91315700  1
  Si  Si0  1  0.66666700  0.33333300  0.32983000  1
  Si  Si1  1  0.33333300  0.66666700  0.82983000  1
  Si  Si2  1  0.00000000  0.00000000  0.10058300  1
  Si  Si3  1  0.00000000  0.00000000  0.60058300  1
  O  O0  1  0.82461300  0.02605200  0.52666800  1
  O  O1  1  0.97394800  0.79856000  0.52666800  1
  O  O2  1  0.20144000  0.17538700  0.52666800  1
  O  O3  1  0.17538700  0.97394800  0.02666800  1
  O  O4  1  0.02605200  0.20144000  0.02666800  1
  O  O5  1  0.79856000  0.82461300  0.02666800  1
  O  O6  1  0.61251000  0.08535900  0.00035600  1
  O  O7  1  0.91464100  0.52715000  0.00035600  1
  O  O8  1  0.47285000  0.38749000  0.00035600  1
  O  O9  1  0.38749000  0.91464100  0.50035600  1
  O  O10  1  0.08535900  0.47285000  0.50035600  1
  O  O11  1  0.52715000  0.61251000  0.50035600  1
  O  O12  1  0.86113900  0.32379800  0.27438000  1
  O  O13  1  0.67620200  0.53734100  0.27438000  1
  O  O14  1  0.46265900  0.13886100  0.27438000  1
  O  O15  1  0.13886100  0.67620200  0.77438000  1
  O  O16  1  0.32379800  0.46265900  0.77438000  1
  O  O17  1  0.53734100  0.86113900  0.77438000  1
  O  O18  1  0.28216900  0.47111500  0.25576800  1
  O  O19  1  0.52888500  0.81105400  0.25576800  1
  O  O20  1  0.18894600  0.71783100  0.25576800  1
  O  O21  1  0.71783100  0.52888500  0.75576800  1
  O  O22  1  0.47111500  0.18894600  0.75576800  1
  O  O23  1  0.81105400  0.28216900  0.75576800  1
  O  O24  1  0.66666700  0.33333300  0.49946600  1
  O  O25  1  0.33333300  0.66666700  0.99946600  1
  O  O26  1  0.00000000  0.00000000  0.26899000  1
  O  O27  1  0.00000000  0.00000000  0.76899000  1
loop_
_geom_bond_atom_site_label_1
_geom_bond_atom_site_label_2
_geom_bond_distance
_geom_bond_site_symmetry_2
Mg0 O7 1.965153 1_455
Mg0 O18 2.087509 1_555
Mg0 O4 2.089875 1_555
Mg0 O12 2.151614 1_455
Mg0 O25 2.175345 1_554
Mg0 O20 2.212776 1_555
Mg1 O8 1.965160 1_555
Mg1 O19 2.087509 1_555
Mg1 O5 2.089878 1_555
Mg1 O13 2.151614 1_555
Mg1 O25 2.175350 1_554
Mg1 O18 2.212776 1_555
Mg2 O6 1.965158 1_565
Mg2 O20 2.087509 1_555
Mg2 O3 2.089882 1_555
Mg2 O14 2.151614 1_565
Mg2 O25 2.175343 1_554
Mg2 O19 2.212776 1_555
Mg3 O10 1.965153 1_655
Mg3 O21 2.087509 1_555
Mg3 O1 2.089875 1_555
Mg3 O15 2.151614 1_655
Mg3 O24 2.175345 1_555
Mg3 O23 2.212776 1_555
Mg4 O11 1.965160 1_555
Mg4 O22 2.087509 1_555
Mg4 O2 2.089878 1_555
Mg4 O16 2.151614 1_555
Mg4 O24 2.175350 1_555
Mg4 O21 2.212776 1_555
Mg5 O9 1.965158 1_545
Mg5 O23 2.087509 1_555
Mg5 O0 2.089882 1_555
Mg5 O17 2.151614 1_545
Mg5 O24 2.175343 1_555
Mg5 O22 2.212776 1_555
Mg6 O10 1.978578 1_555
Mg6 O12 2.040614 1_455
Mg6 O0 2.133628 1_455
Mg6 O26 2.153447 1_555
Mg6 O2 2.188795 1_555
Mg6 O18 2.323028 1_555
Mg7 O11 1.978576 1_555
Mg7 O13 2.040614 1_555
Mg7 O1 2.133631 1_555
Mg7 O26 2.153447 1_665
Mg7 O0 2.188789 1_565
Mg7 O19 2.323028 1_555
Mg8 O9 1.978571 1_555
Mg8 O14 2.040614 1_565
Mg8 O2 2.133625 1_565
Mg8 O26 2.153447 1_565
Mg8 O1 2.188791 1_455
Mg8 O20 2.323028 1_555
Mg9 O7 1.978578 1_556
Mg9 O15 2.040614 1_655
Mg9 O3 2.133628 1_656
Mg9 O27 2.153447 1_665
Mg9 O5 2.188795 1_556
Mg9 O21 2.323028 1_555
Mg10 O8 1.978576 1_556
Mg10 O16 2.040614 1_555
Mg10 O4 2.133631 1_556
Mg10 O27 2.153447 1_555
Mg10 O3 2.188789 1_546
Mg10 O22 2.323028 1_555
Mg11 O6 1.978571 1_556
Mg11 O17 2.040614 1_545
Mg11 O5 2.133625 1_546
Mg11 O27 2.153447 1_655
Mg11 O4 2.188791 1_656
Mg11 O23 2.323028 1_555
Mg12 O10 1.975614 1_555
Mg12 O9 1.975614 1_555
Mg12 O11 1.975614 1_555
Mg12 O20 2.073404 1_555
Mg12 O19 2.073407 1_555
Mg12 O18 2.073409 1_555
Mg13 O7 1.975614 1_556
Mg13 O6 1.975614 1_556
Mg13 O8 1.975614 1_556
Mg13 O23 2.073404 1_555
Mg13 O22 2.073407 1_555
Mg13 O21 2.073409 1_555
O0 Si3 1.662858 1_655
O1 Si3 1.662865 1_665
O2 Si3 1.662862 1_555
O3 Si2 1.662858 1_565
O4 Si2 1.662865 1_555
O5 Si2 1.662862 1_665
O12 Si0 1.664130 1_555
O13 Si0 1.664137 1_555
O14 Si0 1.664134 1_555
O15 Si1 1.664130 1_555
O16 Si1 1.664137 1_555
O17 Si1 1.664134 1_555
O24 Si0 1.662587 1_555
O25 Si1 1.662587 1_555
O26 Si2 1.650542 1_555
O27 Si3 1.650542 1_555
