# generated using pymatgen
data_MgZn2P4(H4O5)4
_symmetry_space_group_name_H-M   'P 1'
_cell_length_a   7.07513999
_cell_length_b   7.44879987
_cell_length_c   9.31131167
_cell_angle_alpha   105.17496611
_cell_angle_beta   103.90520947
_cell_angle_gamma   97.80412534
_symmetry_Int_Tables_number   1
_chemical_formula_structural   MgZn2P4(H4O5)4
_chemical_formula_sum   'Mg1 Zn2 P4 H16 O20'
_cell_volume   449.26960367
_cell_formula_units_Z   1
loop_
 _symmetry_equiv_pos_site_id
 _symmetry_equiv_pos_as_xyz
  1  'x, y, z'
loop_
 _atom_site_type_symbol
 _atom_site_label
 _atom_site_symmetry_multiplicity
 _atom_site_fract_x
 _atom_site_fract_y
 _atom_site_fract_z
 _atom_site_occupancy
  Mg  Mg0  1  0.00000000  0.00000000  0.50000000  1
  Zn  Zn0  1  0.00000000  0.00000000  0.00000000  1
  Zn  Zn1  1  0.00000000  0.50000000  0.50000000  1
  P  P0  1  0.24609897  0.63243656  0.91337171  1
  P  P1  1  0.75390103  0.36756344  0.08662829  1
  P  P2  1  0.35761706  0.42260519  0.14849759  1
  P  P3  1  0.64238294  0.57739481  0.85150241  1
  H  H0  1  0.08686350  0.19823802  0.82585109  1
  H  H1  1  0.91313650  0.80176198  0.17414891  1
  H  H2  1  0.22260607  0.04514537  0.81248166  1
  H  H3  1  0.77739393  0.95485463  0.18751834  1
  H  H4  1  0.32694342  0.81276550  0.59306601  1
  H  H5  1  0.67305658  0.18723450  0.40693399  1
  H  H6  1  0.31112662  0.67719326  0.42210187  1
  H  H7  1  0.68887338  0.32280674  0.57789813  1
  H  H8  1  0.21097942  0.28423165  0.35616201  1
  H  H9  1  0.78902058  0.71576835  0.64383799  1
  H  H10  1  0.31176930  0.34627715  0.54305624  1
  H  H11  1  0.68823070  0.65372285  0.45694376  1
  H  H12  1  0.45264190  0.12916152  0.71499390  1
  H  H13  1  0.54735810  0.87083848  0.28500610  1
  H  H14  1  0.56132561  0.04193994  0.83721130  1
  H  H15  1  0.43867439  0.95806006  0.16278870  1
  O  O0  1  0.21891757  0.47291371  0.00334627  1
  O  O1  1  0.78108243  0.52708629  0.99665373  1
  O  O2  1  0.48266267  0.66661852  0.93132954  1
  O  O3  1  0.51733733  0.33338148  0.06867046  1
  O  O4  1  0.21706602  0.81918380  0.00900129  1
  O  O5  1  0.78293398  0.18081620  0.99099871  1
  O  O6  1  0.12338605  0.54227174  0.74865239  1
  O  O7  1  0.87661395  0.45772826  0.25134761  1
  O  O8  1  0.45515696  0.59902039  0.28477362  1
  O  O9  1  0.54484304  0.40097961  0.71522638  1
  O  O10  1  0.23096408  0.25862709  0.17203141  1
  O  O11  1  0.76903592  0.74137291  0.82796859  1
  O  O12  1  0.08713374  0.06497746  0.82165336  1
  O  O13  1  0.91286626  0.93502254  0.17834664  1
  O  O14  1  0.23630398  0.71252210  0.49896594  1
  O  O15  1  0.76369602  0.28747790  0.50103406  1
  O  O16  1  0.18345645  0.30337642  0.45942399  1
  O  O17  1  0.81654355  0.69662358  0.54057601  1
  O  O18  1  0.43509120  0.01772179  0.75293502  1
  O  O19  1  0.56490880  0.98227821  0.24706398  1
loop_
_geom_bond_atom_site_label_1
_geom_bond_atom_site_label_2
_geom_bond_distance
_geom_bond_site_symmetry_2
Mg0 O17 2.611564 1_445
Mg0 O16 2.611564 1_555
H0 O12 0.983406 1_555
H1 O13 0.983406 1_555
H2 O12 1.009456 1_555
H3 O13 1.009456 1_555
H4 O14 0.996940 1_555
H5 O15 0.996940 1_555
H6 O14 0.991494 1_555
H7 O15 0.991494 1_555
H8 O16 1.004238 1_555
H8 O10 1.717124 1_555
H9 O17 1.004238 1_555
H9 O11 1.717124 1_555
H10 O16 0.991887 1_555
H11 O17 0.991887 1_555
H12 O18 0.987878 1_555
H13 O19 0.987883 1_555
H14 O18 0.995633 1_555
H15 O19 0.995628 1_555
O0 P2 1.630234 1_555
O0 P0 1.639318 1_554
O1 P3 1.630234 1_555
O1 P1 1.639318 1_556
O2 P3 1.618715 1_555
O2 P0 1.619135 1_555
O3 P2 1.618715 1_555
O3 P1 1.619135 1_555
O4 P0 1.512320 1_554
O4 Zn0 2.176842 1_565
O5 P1 1.512320 1_556
O5 Zn0 2.176842 1_656
O6 P0 1.489829 1_555
O6 Zn1 2.189518 1_555
O7 P1 1.489829 1_555
O7 Zn1 2.189518 1_655
O8 P2 1.507667 1_555
O9 P3 1.507667 1_555
O10 P2 1.510023 1_555
O10 Zn0 2.284481 1_555
O11 P3 1.510023 1_555
O11 Zn0 2.284481 1_666
O12 Zn0 2.050330 1_556
O13 Zn0 2.050330 1_665
O14 Zn1 2.144351 1_555
O15 Zn1 2.144351 1_655
O16 Zn1 2.105909 1_555
O17 Zn1 2.105909 1_655
