# generated using pymatgen
data_Ca3Tb
_symmetry_space_group_name_H-M   'P 1'
_cell_length_a   7.57796011
_cell_length_b   7.57796011
_cell_length_c   6.25186600
_cell_angle_alpha   90.00000000
_cell_angle_beta   90.00000000
_cell_angle_gamma   120.00000099
_symmetry_Int_Tables_number   1
_chemical_formula_structural   Ca3Tb
_chemical_formula_sum   'Ca6 Tb2'
_cell_volume   310.91732202
_cell_formula_units_Z   2
loop_
 _symmetry_equiv_pos_site_id
 _symmetry_equiv_pos_as_xyz
  1  'x, y, z'
loop_
 _atom_site_type_symbol
 _atom_site_label
 _atom_site_symmetry_multiplicity
 _atom_site_fract_x
 _atom_site_fract_y
 _atom_site_fract_z
 _atom_site_occupancy
  Ca  Ca0  1  0.17031100  0.34062300  0.25000000  1
  Ca  Ca1  1  0.65937700  0.82968900  0.25000000  1
  Ca  Ca2  1  0.17031100  0.82968900  0.25000000  1
  Ca  Ca3  1  0.82968900  0.65937700  0.75000000  1
  Ca  Ca4  1  0.34062300  0.17031100  0.75000000  1
  Ca  Ca5  1  0.82968900  0.17031100  0.75000000  1
  Tb  Tb0  1  0.33333300  0.66666700  0.75000000  1
  Tb  Tb1  1  0.66666700  0.33333300  0.25000000  1
loop_
_geom_bond_atom_site_label_1
_geom_bond_atom_site_label_2
_geom_bond_distance
_geom_bond_site_symmetry_2
Ca0 Ca1 3.706123 1_555
Ca0 Ca2 3.706123 1_555
Ca0 Tb0 3.788127 1_554
Ca0 Tb0 3.788127 1_555
Ca0 Tb1 3.789275 1_455
Ca0 Tb1 3.789290 1_555
Ca0 Ca5 3.842978 1_455
Ca0 Ca5 3.842978 1_454
Ca0 Ca4 3.842986 1_554
Ca0 Ca4 3.842986 1_555
Ca0 Ca1 3.871837 1_445
Ca0 Ca2 3.871837 1_545
Ca1 Ca2 3.706123 1_555
Ca1 Tb0 3.788127 1_554
Ca1 Tb0 3.788127 1_555
Ca1 Tb1 3.789275 1_565
Ca1 Tb1 3.789290 1_555
Ca1 Ca5 3.842978 1_564
Ca1 Ca5 3.842978 1_565
Ca1 Ca3 3.842986 1_555
Ca1 Ca3 3.842986 1_554
Ca1 Ca2 3.871837 1_655
Ca2 Tb0 3.788127 1_554
Ca2 Tb0 3.788127 1_555
Ca2 Tb1 3.789282 1_455
Ca2 Tb1 3.789282 1_565
Ca2 Ca4 3.842978 1_565
Ca2 Ca4 3.842978 1_564
Ca2 Ca3 3.842978 1_455
Ca2 Ca3 3.842978 1_454
Ca3 Ca4 3.706123 1_555
Ca3 Ca5 3.706123 1_555
Ca3 Tb1 3.788127 1_556
Ca3 Tb1 3.788127 1_555
Ca3 Tb0 3.789275 1_655
Ca3 Tb0 3.789290 1_555
Ca3 Ca4 3.871837 1_665
Ca3 Ca5 3.871837 1_565
Ca4 Ca5 3.706123 1_555
Ca4 Tb1 3.788127 1_556
Ca4 Tb1 3.788127 1_555
Ca4 Tb0 3.789275 1_545
Ca4 Tb0 3.789290 1_555
Ca4 Ca5 3.871837 1_455
Ca5 Tb1 3.788127 1_556
Ca5 Tb1 3.788127 1_555
Ca5 Tb0 3.789282 1_545
Ca5 Tb0 3.789282 1_655
