# generated using pymatgen
data_RbB6(H9N2)2
_symmetry_space_group_name_H-M   'P 1'
_cell_length_a   8.07201500
_cell_length_b   15.06085300
_cell_length_c   9.83306900
_cell_angle_alpha   90.00000000
_cell_angle_beta   90.00000000
_cell_angle_gamma   90.00000000
_symmetry_Int_Tables_number   1
_chemical_formula_structural   RbB6(H9N2)2
_chemical_formula_sum   'Rb4 B24 H72 N16'
_cell_volume   1195.42027268
_cell_formula_units_Z   4
loop_
 _symmetry_equiv_pos_site_id
 _symmetry_equiv_pos_as_xyz
  1  'x, y, z'
loop_
 _atom_site_type_symbol
 _atom_site_label
 _atom_site_symmetry_multiplicity
 _atom_site_fract_x
 _atom_site_fract_y
 _atom_site_fract_z
 _atom_site_occupancy
  Rb  Rb0  1  0.50000000  0.50000000  0.30135000  1
  Rb  Rb1  1  0.00000000  0.00000000  0.19865000  1
  Rb  Rb2  1  0.50000000  0.50000000  0.69865000  1
  Rb  Rb3  1  0.00000000  0.00000000  0.80135000  1
  B  B0  1  0.05444700  0.60902100  0.00000000  1
  B  B1  1  0.94555300  0.39097900  0.00000000  1
  B  B2  1  0.44555300  0.10902100  0.50000000  1
  B  B3  1  0.55444700  0.89097900  0.50000000  1
  B  B4  1  0.20566600  0.52247200  0.00000000  1
  B  B5  1  0.79433400  0.47752800  0.00000000  1
  B  B6  1  0.29433400  0.02247200  0.50000000  1
  B  B7  1  0.70566600  0.97752800  0.50000000  1
  B  B8  1  0.08042000  0.54071000  0.14630600  1
  B  B9  1  0.91958000  0.45929000  0.14630600  1
  B  B10  1  0.41958000  0.04071000  0.35369400  1
  B  B11  1  0.58042000  0.95929000  0.35369400  1
  B  B12  1  0.91958000  0.45929000  0.85369400  1
  B  B13  1  0.08042000  0.54071000  0.85369400  1
  B  B14  1  0.58042000  0.95929000  0.64630600  1
  B  B15  1  0.41958000  0.04071000  0.64630600  1
  B  B16  1  0.87789300  0.56973800  0.09061400  1
  B  B17  1  0.12210700  0.43026200  0.09061400  1
  B  B18  1  0.62210700  0.06973800  0.40938600  1
  B  B19  1  0.37789300  0.93026200  0.40938600  1
  B  B20  1  0.12210700  0.43026200  0.90938600  1
  B  B21  1  0.87789300  0.56973800  0.90938600  1
  B  B22  1  0.37789300  0.93026200  0.59061400  1
  B  B23  1  0.62210700  0.06973800  0.59061400  1
  H  H0  1  0.46371200  0.76396000  0.24590900  1
  H  H1  1  0.53628800  0.23604000  0.24590900  1
  H  H2  1  0.03628800  0.26396000  0.25409100  1
  H  H3  1  0.96371200  0.73604000  0.25409100  1
  H  H4  1  0.53628800  0.23604000  0.75409100  1
  H  H5  1  0.46371200  0.76396000  0.75409100  1
  H  H6  1  0.96371200  0.73604000  0.74590900  1
  H  H7  1  0.03628800  0.26396000  0.74590900  1
  H  H8  1  0.35397500  0.69720200  0.14858100  1
  H  H9  1  0.64602500  0.30279800  0.14858100  1
  H  H10  1  0.14602500  0.19720200  0.35141900  1
  H  H11  1  0.85397500  0.80279800  0.35141900  1
  H  H12  1  0.64602500  0.30279800  0.85141900  1
  H  H13  1  0.35397500  0.69720200  0.85141900  1
  H  H14  1  0.85397500  0.80279800  0.64858100  1
  H  H15  1  0.14602500  0.19720200  0.64858100  1
  H  H16  1  0.55725300  0.69643400  0.14007700  1
  H  H17  1  0.44274700  0.30356600  0.14007700  1
  H  H18  1  0.94274700  0.19643400  0.35992300  1
  H  H19  1  0.05725300  0.80356600  0.35992300  1
  H  H20  1  0.44274700  0.30356600  0.85992300  1
  H  H21  1  0.55725300  0.69643400  0.85992300  1
  H  H22  1  0.05725300  0.80356600  0.64007700  1
  H  H23  1  0.94274700  0.19643400  0.64007700  1
  H  H24  1  0.21095400  0.62886500  0.50000000  1
  H  H25  1  0.78904600  0.37113500  0.50000000  1
  H  H26  1  0.28904600  0.12886500  0.00000000  1
  H  H27  1  0.71095400  0.87113500  0.00000000  1
  H  H28  1  0.36510600  0.67482400  0.41618100  1
  H  H29  1  0.63489400  0.32517600  0.41618100  1
  H  H30  1  0.13489400  0.17482400  0.08381900  1
  H  H31  1  0.86510600  0.82517600  0.08381900  1
  H  H32  1  0.63489400  0.32517600  0.58381900  1
  H  H33  1  0.36510600  0.67482400  0.58381900  1
  H  H34  1  0.86510600  0.82517600  0.91618100  1
  H  H35  1  0.13489400  0.17482400  0.91618100  1
  H  H36  1  0.77891700  0.64793800  0.50000000  1
  H  H37  1  0.22108300  0.35206200  0.50000000  1
  H  H38  1  0.72108300  0.14793800  0.00000000  1
  H  H39  1  0.27891700  0.85206200  0.00000000  1
  H  H40  1  0.85502500  0.56352100  0.41672400  1
  H  H41  1  0.14497500  0.43647900  0.41672400  1
  H  H42  1  0.64497500  0.06352100  0.08327600  1
  H  H43  1  0.35502500  0.93647900  0.08327600  1
  H  H44  1  0.14497500  0.43647900  0.58327600  1
  H  H45  1  0.85502500  0.56352100  0.58327600  1
  H  H46  1  0.35502500  0.93647900  0.91672400  1
  H  H47  1  0.64497500  0.06352100  0.91672400  1
  H  H48  1  0.08960900  0.68695600  0.00000000  1
  H  H49  1  0.91039100  0.31304400  0.00000000  1
  H  H50  1  0.41039100  0.18695600  0.50000000  1
  H  H51  1  0.58960900  0.81304400  0.50000000  1
  H  H52  1  0.35281400  0.53666700  0.00000000  1
  H  H53  1  0.64718600  0.46333300  0.00000000  1
  H  H54  1  0.14718600  0.03666700  0.50000000  1
  H  H55  1  0.85281400  0.96333300  0.50000000  1
  H  H56  1  0.13790900  0.57026600  0.25011100  1
  H  H57  1  0.86209100  0.42973400  0.25011100  1
  H  H58  1  0.36209100  0.07026600  0.24988900  1
  H  H59  1  0.63790900  0.92973400  0.24988900  1
  H  H60  1  0.86209100  0.42973400  0.74988900  1
  H  H61  1  0.13790900  0.57026600  0.74988900  1
  H  H62  1  0.63790900  0.92973400  0.75011100  1
  H  H63  1  0.36209100  0.07026600  0.75011100  1
  H  H64  1  0.79178700  0.61885100  0.15707000  1
  H  H65  1  0.20821300  0.38114900  0.15707000  1
  H  H66  1  0.70821300  0.11885100  0.34293000  1
  H  H67  1  0.29178700  0.88114900  0.34293000  1
  H  H68  1  0.20821300  0.38114900  0.84293000  1
  H  H69  1  0.79178700  0.61885100  0.84293000  1
  H  H70  1  0.29178700  0.88114900  0.65707000  1
  H  H71  1  0.70821300  0.11885100  0.65707000  1
  N  N0  1  0.45947400  0.70136900  0.20563300  1
  N  N1  1  0.54052600  0.29863100  0.20563300  1
  N  N2  1  0.04052600  0.20136900  0.29436700  1
  N  N3  1  0.95947400  0.79863100  0.29436700  1
  N  N4  1  0.54052600  0.29863100  0.79436700  1
  N  N5  1  0.45947400  0.70136900  0.79436700  1
  N  N6  1  0.95947400  0.79863100  0.70563300  1
  N  N7  1  0.04052600  0.20136900  0.70563300  1
  N  N8  1  0.33594000  0.63806200  0.50000000  1
  N  N9  1  0.66406000  0.36193800  0.50000000  1
  N  N10  1  0.16406000  0.13806200  0.00000000  1
  N  N11  1  0.83594000  0.86193800  0.00000000  1
  N  N12  1  0.78566200  0.58027600  0.50000000  1
  N  N13  1  0.21433800  0.41972400  0.50000000  1
  N  N14  1  0.71433800  0.08027600  0.00000000  1
  N  N15  1  0.28566200  0.91972400  0.00000000  1
loop_
_geom_bond_atom_site_label_1
_geom_bond_atom_site_label_2
_geom_bond_distance
_geom_bond_site_symmetry_2
B0 H48 1.207596 1_555
B1 H49 1.207596 1_555
B2 H50 1.207596 1_555
B3 H51 1.207596 1_555
B4 H52 1.206867 1_555
B5 H53 1.206867 1_555
B6 H54 1.206867 1_555
B7 H55 1.206867 1_555
B8 H56 1.206385 1_555
B9 H57 1.206385 1_555
B10 H58 1.206385 1_555
B11 H59 1.206385 1_555
B12 H60 1.206385 1_555
B13 H61 1.206385 1_555
B14 H62 1.206385 1_555
B15 H63 1.206385 1_555
B16 H64 1.207163 1_555
B17 H65 1.207163 1_555
B18 H66 1.207163 1_555
B19 H67 1.207163 1_555
B20 H68 1.207163 1_555
B21 H69 1.207163 1_555
B22 H70 1.207163 1_555
B23 H71 1.207163 1_555
H0 N0 1.023059 1_555
H1 N1 1.023059 1_555
H2 N2 1.023059 1_555
H3 N3 1.023059 1_555
H4 N4 1.023059 1_555
H5 N5 1.023059 1_555
H6 N6 1.023059 1_555
H7 N7 1.023059 1_555
H8 N0 1.021695 1_555
H9 N1 1.021695 1_555
H10 N2 1.021695 1_555
H11 N3 1.021695 1_555
H12 N4 1.021695 1_555
H13 N5 1.021695 1_555
H14 N6 1.021695 1_555
H15 N7 1.021695 1_555
H16 N0 1.021767 1_555
H17 N1 1.021767 1_555
H18 N2 1.021767 1_655
H19 N3 1.021767 1_455
H20 N4 1.021767 1_555
H21 N5 1.021767 1_555
H22 N6 1.021767 1_455
H23 N7 1.021767 1_655
H24 N8 1.018353 1_555
H25 N9 1.018353 1_555
H26 N10 1.018353 1_555
H27 N11 1.018353 1_555
H28 N8 1.020429 1_555
H28 Rb0 3.064844 1_555
H29 N9 1.020429 1_555
H29 Rb0 3.064844 1_555
H30 N10 1.020429 1_555
H30 Rb1 3.064844 1_555
H31 N11 1.020429 1_555
H31 Rb1 3.064844 1_665
H32 N9 1.020429 1_555
H32 Rb2 3.064844 1_555
H33 N8 1.020429 1_555
H33 Rb2 3.064844 1_555
H34 N11 1.020429 1_556
H34 Rb3 3.064844 1_665
H35 N10 1.020429 1_556
H35 Rb3 3.064844 1_555
H36 N12 1.020501 1_555
H37 N13 1.020501 1_555
H38 N14 1.020501 1_555
H39 N15 1.020501 1_555
H40 N12 1.023569 1_555
H40 Rb0 3.227213 1_555
H41 N13 1.023569 1_555
H41 Rb0 3.227213 1_555
H42 N14 1.023569 1_555
H42 Rb1 3.227213 1_655
H43 N15 1.023569 1_555
H43 Rb1 3.227213 1_565
H44 N13 1.023569 1_555
H44 Rb2 3.227213 1_555
H45 N12 1.023569 1_555
H45 Rb2 3.227213 1_555
H46 N15 1.023569 1_556
H46 Rb3 3.227213 1_565
H47 N14 1.023569 1_556
H47 Rb3 3.227213 1_655
H52 Rb2 3.239914 1_554
H52 Rb0 3.239914 1_555
H53 Rb2 3.239914 1_554
H53 Rb0 3.239914 1_555
H54 Rb1 3.239914 1_555
H54 Rb3 3.239914 1_555
H55 Rb1 3.239914 1_665
H55 Rb3 3.239914 1_665
H56 Rb0 3.149057 1_555
H57 Rb0 3.149057 1_555
H58 Rb1 3.149057 1_555
H59 Rb1 3.149057 1_665
H60 Rb2 3.149057 1_555
H61 Rb2 3.149057 1_555
H62 Rb3 3.149057 1_665
H63 Rb3 3.149057 1_555
H64 Rb0 3.280903 1_555
H65 Rb0 3.280903 1_555
H66 Rb1 3.280903 1_655
H67 Rb1 3.280903 1_565
H68 Rb2 3.280903 1_555
H69 Rb2 3.280903 1_555
H70 Rb3 3.280903 1_565
H71 Rb3 3.280903 1_655
N0 Rb0 3.192282 1_555
N1 Rb0 3.192282 1_555
N2 Rb1 3.192282 1_555
N3 Rb1 3.192282 1_665
N4 Rb2 3.192282 1_555
N5 Rb2 3.192282 1_555
N6 Rb3 3.192282 1_665
N7 Rb3 3.192282 1_555
N8 Rb0 3.145300 1_555
N8 Rb2 3.145300 1_555
N9 Rb0 3.145300 1_555
N9 Rb2 3.145300 1_555
N10 Rb3 3.145300 1_554
N10 Rb1 3.145300 1_555
N11 Rb3 3.145300 1_664
N11 Rb1 3.145300 1_665
N12 Rb0 3.254889 1_555
N12 Rb2 3.254889 1_555
N13 Rb0 3.254889 1_555
N13 Rb2 3.254889 1_555
N14 Rb3 3.254889 1_654
N14 Rb1 3.254889 1_655
N15 Rb3 3.254889 1_564
N15 Rb1 3.254889 1_565
