# generated using pymatgen
data_Ba3In3N5
_symmetry_space_group_name_H-M   'P 1'
_cell_length_a   6.62613927
_cell_length_b   7.87270953
_cell_length_c   9.59557026
_cell_angle_alpha   108.06905530
_cell_angle_beta   104.14045562
_cell_angle_gamma   95.04696379
_symmetry_Int_Tables_number   1
_chemical_formula_structural   Ba3In3N5
_chemical_formula_sum   'Ba6 In6 N10'
_cell_volume   454.11675688
_cell_formula_units_Z   2
loop_
 _symmetry_equiv_pos_site_id
 _symmetry_equiv_pos_as_xyz
  1  'x, y, z'
loop_
 _atom_site_type_symbol
 _atom_site_label
 _atom_site_symmetry_multiplicity
 _atom_site_fract_x
 _atom_site_fract_y
 _atom_site_fract_z
 _atom_site_occupancy
  Ba  Ba0  1  0.81150900  0.41346200  0.60761600  1
  Ba  Ba1  1  0.18849100  0.58653800  0.39238400  1
  Ba  Ba2  1  0.66243700  0.86312200  0.87392400  1
  Ba  Ba3  1  0.33756300  0.13687800  0.12607600  1
  Ba  Ba4  1  0.65751000  0.64780700  0.19940500  1
  Ba  Ba5  1  0.34249000  0.35219300  0.80059500  1
  In  In0  1  0.90563900  0.31076300  0.96962700  1
  In  In1  1  0.09436100  0.68923700  0.03037300  1
  In  In2  1  0.71635100  0.95259300  0.56284800  1
  In  In3  1  0.28364900  0.04740700  0.43715200  1
  In  In4  1  0.13184700  0.87237800  0.71813400  1
  In  In5  1  0.86815300  0.12762200  0.28186600  1
  N  N0  1  0.96732500  0.10883400  0.77476200  1
  N  N1  1  0.03267500  0.89116600  0.22523800  1
  N  N2  1  0.85384300  0.70361500  0.51741300  1
  N  N3  1  0.14615700  0.29638500  0.48258700  1
  N  N4  1  0.76227600  0.53041500  0.90172700  1
  N  N5  1  0.23772400  0.46958500  0.09827300  1
  N  N6  1  0.39778000  0.93774700  0.61998100  1
  N  N7  1  0.60222000  0.06225300  0.38001900  1
  N  N8  1  0.28237800  0.78084900  0.90265000  1
  N  N9  1  0.71762200  0.21915100  0.09735000  1
loop_
_geom_bond_atom_site_label_1
_geom_bond_atom_site_label_2
_geom_bond_distance
_geom_bond_site_symmetry_2
Ba0 N2 2.697818 1_555
Ba0 N4 2.794560 1_555
Ba0 N3 2.859952 1_655
Ba0 N7 2.904732 1_555
Ba1 N3 2.697818 1_555
Ba1 N5 2.794560 1_555
Ba1 N2 2.859952 1_455
Ba1 N6 2.904732 1_555
Ba2 N8 2.645825 1_555
Ba2 N4 2.832261 1_555
Ba2 N9 2.880162 1_566
Ba2 N6 2.887827 1_555
Ba2 N0 3.181528 1_565
Ba3 N9 2.645825 1_555
Ba3 N5 2.832261 1_555
Ba3 N8 2.880162 1_544
Ba3 N7 2.887827 1_555
Ba3 N1 3.181528 1_545
Ba4 N5 2.792362 1_555
Ba4 N2 2.885319 1_555
Ba4 N1 2.911721 1_655
Ba4 N4 2.989841 1_554
Ba4 N7 3.285808 1_565
Ba4 N9 3.298967 1_555
Ba5 N4 2.792362 1_555
Ba5 N3 2.885319 1_555
Ba5 N0 2.911721 1_455
Ba5 N5 2.989841 1_556
Ba5 N6 3.285808 1_545
Ba5 N8 3.298967 1_555
In0 N9 2.170380 1_556
In0 N0 2.198731 1_555
In0 N4 2.236682 1_555
In0 N5 2.271659 1_656
In1 N8 2.170380 1_554
In1 N1 2.198731 1_555
In1 N5 2.236682 1_555
In1 N4 2.271659 1_454
In2 N7 2.191149 1_565
In2 N2 2.200077 1_555
In2 N0 2.202200 1_565
In2 N6 2.309082 1_555
In3 N6 2.191149 1_545
In3 N3 2.200077 1_555
In3 N1 2.202200 1_545
In3 N7 2.309082 1_555
In4 N8 2.168855 1_555
In4 N0 2.228912 1_465
In4 N2 2.261994 1_455
In4 N6 2.282308 1_555
In5 N9 2.168855 1_555
In5 N1 2.228912 1_645
In5 N3 2.261994 1_655
In5 N7 2.282308 1_555
