# generated using pymatgen
data_Mg(AgO2)2
_symmetry_space_group_name_H-M   'P 1'
_cell_length_a   6.29718178
_cell_length_b   6.29718178
_cell_length_c   15.49373575
_cell_angle_alpha   89.46203551
_cell_angle_beta   89.46203551
_cell_angle_gamma   61.92124648
_symmetry_Int_Tables_number   1
_chemical_formula_structural   Mg(AgO2)2
_chemical_formula_sum   'Mg6 Ag12 O24'
_cell_volume   542.05027960
_cell_formula_units_Z   6
loop_
 _symmetry_equiv_pos_site_id
 _symmetry_equiv_pos_as_xyz
  1  'x, y, z'
loop_
 _atom_site_type_symbol
 _atom_site_label
 _atom_site_symmetry_multiplicity
 _atom_site_fract_x
 _atom_site_fract_y
 _atom_site_fract_z
 _atom_site_occupancy
  Mg  Mg0  1  0.15407900  0.15407900  0.95808200  1
  Mg  Mg1  1  0.83337200  0.83337200  0.66600600  1
  Mg  Mg2  1  0.66607700  0.66607700  0.83320300  1
  Mg  Mg3  1  0.16665300  0.16665300  0.33421500  1
  Mg  Mg4  1  0.00011500  0.00011500  0.50029600  1
  Mg  Mg5  1  0.33168300  0.33168300  0.16653800  1
  Ag  Ag0  1  0.16289000  0.66644400  0.83210300  1
  Ag  Ag1  1  0.48959600  0.48959600  0.62118600  1
  Ag  Ag2  1  0.49957800  0.49957800  0.99924800  1
  Ag  Ag3  1  0.66644400  0.16289000  0.83210300  1
  Ag  Ag4  1  0.50007700  0.99974400  0.50015500  1
  Ag  Ag5  1  0.82226500  0.82226500  0.29096000  1
  Ag  Ag6  1  0.99974400  0.50007700  0.50015500  1
  Ag  Ag7  1  0.84074800  0.32983600  0.16801600  1
  Ag  Ag8  1  0.17595500  0.17595500  0.70986900  1
  Ag  Ag9  1  0.32983600  0.84074800  0.16801600  1
  Ag  Ag10  1  0.51079900  0.51079900  0.37735700  1
  Ag  Ag11  1  0.83914800  0.83914800  0.04336500  1
  O  O0  1  0.34747500  0.80300400  0.91264000  1
  O  O1  1  0.49734100  0.49734100  0.76507900  1
  O  O2  1  0.80300400  0.34747500  0.91264000  1
  O  O3  1  0.33325400  0.33325400  0.91346100  1
  O  O4  1  0.69113000  0.11765200  0.57734800  1
  O  O5  1  0.98749400  0.98749400  0.75273500  1
  O  O6  1  0.83119100  0.83119100  0.43002400  1
  O  O7  1  0.54663500  0.97621400  0.75574800  1
  O  O8  1  0.11765200  0.69113000  0.57734800  1
  O  O9  1  0.83456100  0.83456100  0.90135700  1
  O  O10  1  0.68210500  0.68210500  0.57811900  1
  O  O11  1  0.97621400  0.54663500  0.75574800  1
  O  O12  1  0.02659700  0.45188500  0.24380900  1
  O  O13  1  0.31839400  0.31839400  0.42226500  1
  O  O14  1  0.88117200  0.30987200  0.42327000  1
  O  O15  1  0.45188500  0.02659700  0.24380900  1
  O  O16  1  0.17103800  0.17103800  0.08886700  1
  O  O17  1  0.16870400  0.16870400  0.56997500  1
  O  O18  1  0.01363200  0.01363200  0.24780100  1
  O  O19  1  0.30987200  0.88117200  0.42327000  1
  O  O20  1  0.65401900  0.65401900  0.09018300  1
  O  O21  1  0.21479300  0.64684400  0.08827200  1
  O  O22  1  0.50217800  0.50217800  0.23739500  1
  O  O23  1  0.64684400  0.21479300  0.08827200  1
loop_
_geom_bond_atom_site_label_1
_geom_bond_atom_site_label_2
_geom_bond_distance
_geom_bond_site_symmetry_2
Mg0 O16 2.036605 1_556
Mg0 O3 2.047728 1_555
Mg0 O2 2.084469 1_455
Mg0 O0 2.084469 1_545
Mg1 O8 2.088385 1_655
Mg1 O4 2.088385 1_565
Mg1 O11 2.109535 1_555
Mg1 O7 2.109535 1_555
Mg1 O10 2.138182 1_555
Mg1 O5 2.150638 1_555
Mg2 O7 2.100043 1_555
Mg2 O11 2.100043 1_555
Mg2 O9 2.113795 1_555
Mg2 O1 2.115917 1_555
Mg2 O0 2.151409 1_555
Mg2 O2 2.151409 1_555
Mg3 O14 2.097511 1_455
Mg3 O19 2.097511 1_545
Mg3 O15 2.109684 1_555
Mg3 O12 2.109684 1_555
Mg3 O18 2.138266 1_555
Mg3 O13 2.143759 1_555
Mg4 O4 2.091935 1_455
Mg4 O8 2.091935 1_545
Mg4 O14 2.094710 1_455
Mg4 O19 2.094710 1_545
Mg4 O17 2.126895 1_555
Mg4 O6 2.134771 1_445
Mg5 O12 2.074149 1_555
Mg5 O15 2.074149 1_555
Mg5 O16 2.122262 1_555
Mg5 O21 2.132466 1_555
Mg5 O23 2.132466 1_555
Mg5 O22 2.154073 1_555
Ag0 O11 2.056307 1_455
Ag0 O9 2.113297 1_455
Ag0 O1 2.125194 1_555
Ag0 O0 2.153137 1_555
Ag0 O5 2.167066 1_455
Ag0 O3 2.235828 1_555
Ag1 O10 2.176570 1_555
Ag1 O8 2.184793 1_555
Ag1 O4 2.184793 1_555
Ag1 O1 2.231924 1_555
Ag2 O23 2.095373 1_556
Ag2 O21 2.095373 1_556
Ag2 O0 2.149908 1_555
Ag2 O2 2.149908 1_555
Ag2 O20 2.195129 1_556
Ag2 O3 2.246242 1_555
Ag3 O7 2.056307 1_545
Ag3 O9 2.113297 1_545
Ag3 O1 2.125194 1_555
Ag3 O2 2.153137 1_555
Ag3 O5 2.167066 1_545
Ag3 O3 2.235828 1_555
Ag4 O19 2.072816 1_555
Ag4 O4 2.076961 1_565
Ag4 O17 2.132098 1_565
Ag4 O6 2.133211 1_555
Ag4 O10 2.143889 1_555
Ag4 O13 2.147343 1_565
Ag5 O6 2.157831 1_555
Ag5 O18 2.165259 1_665
Ag5 O12 2.195090 1_655
Ag5 O15 2.195090 1_565
Ag6 O14 2.072816 1_555
Ag6 O8 2.076961 1_655
Ag6 O17 2.132098 1_655
Ag6 O6 2.133211 1_555
Ag6 O10 2.143889 1_555
Ag6 O13 2.147343 1_655
Ag7 O12 2.056420 1_655
Ag7 O23 2.102423 1_555
Ag7 O18 2.148619 1_655
Ag7 O22 2.163235 1_555
Ag7 O20 2.173722 1_555
Ag7 O16 2.201589 1_655
Ag8 O5 2.134060 1_445
Ag8 O17 2.169752 1_555
Ag8 O11 2.187813 1_455
Ag8 O7 2.187813 1_545
Ag9 O15 2.056420 1_565
Ag9 O21 2.102423 1_555
Ag9 O18 2.148619 1_565
Ag9 O22 2.163235 1_555
Ag9 O20 2.173722 1_555
Ag9 O16 2.201589 1_565
Ag10 O22 2.171550 1_555
Ag10 O13 2.184122 1_555
Ag10 O19 2.186978 1_555
Ag10 O14 2.186978 1_555
Ag11 O20 2.119422 1_555
Ag11 O9 2.201334 1_554
Ag11 O21 2.205595 1_655
Ag11 O23 2.205595 1_565
