# generated using pymatgen
data_Dy3InC
_symmetry_space_group_name_H-M   'P 1'
_cell_length_a   4.90315690
_cell_length_b   4.90315690
_cell_length_c   4.90315690
_cell_angle_alpha   90.00000000
_cell_angle_beta   90.00000000
_cell_angle_gamma   90.00000000
_symmetry_Int_Tables_number   1
_chemical_formula_structural   Dy3InC
_chemical_formula_sum   'Dy3 In1 C1'
_cell_volume   117.87653804
_cell_formula_units_Z   1
loop_
 _symmetry_equiv_pos_site_id
 _symmetry_equiv_pos_as_xyz
  1  'x, y, z'
loop_
 _atom_site_type_symbol
 _atom_site_label
 _atom_site_symmetry_multiplicity
 _atom_site_fract_x
 _atom_site_fract_y
 _atom_site_fract_z
 _atom_site_occupancy
  Dy  Dy0  1  0.50000000  0.00000000  0.50000000  1
  Dy  Dy1  1  0.50000000  0.50000000  0.00000000  1
  Dy  Dy2  1  0.00000000  0.50000000  0.50000000  1
  In  In0  1  0.00000000  -0.00000000  0.00000000  1
  C  C0  1  0.50000000  0.50000000  0.50000000  1
loop_
_geom_bond_atom_site_label_1
_geom_bond_atom_site_label_2
_geom_bond_distance
_geom_bond_site_symmetry_2
Dy0 In0 3.467055 1_655
Dy0 In0 3.467055 1_656
Dy0 In0 3.467055 1_555
Dy0 In0 3.467055 1_556
Dy1 In0 3.467055 1_665
Dy1 In0 3.467055 1_655
Dy1 In0 3.467055 1_555
Dy1 In0 3.467055 1_565
Dy2 In0 3.467055 1_555
Dy2 In0 3.467055 1_556
Dy2 In0 3.467055 1_565
Dy2 In0 3.467055 1_566
C0 Dy2 2.451578 1_555
C0 Dy2 2.451578 1_655
C0 Dy0 2.451578 1_565
C0 Dy0 2.451578 1_555
C0 Dy1 2.451578 1_556
C0 Dy1 2.451578 1_555
