# generated using pymatgen
data_SmFeGe2
_symmetry_space_group_name_H-M   'P 1'
_cell_length_a   8.49432481
_cell_length_b   8.49432481
_cell_length_c   4.31585200
_cell_angle_alpha   90.00000000
_cell_angle_beta   90.00000000
_cell_angle_gamma   151.00277400
_symmetry_Int_Tables_number   1
_chemical_formula_structural   SmFeGe2
_chemical_formula_sum   'Sm2 Fe2 Ge4'
_cell_volume   150.95849741
_cell_formula_units_Z   2
loop_
 _symmetry_equiv_pos_site_id
 _symmetry_equiv_pos_as_xyz
  1  'x, y, z'
loop_
 _atom_site_type_symbol
 _atom_site_label
 _atom_site_symmetry_multiplicity
 _atom_site_fract_x
 _atom_site_fract_y
 _atom_site_fract_z
 _atom_site_occupancy
  Sm  Sm0  1  0.60684900  0.39315100  0.75000000  1
  Sm  Sm1  1  0.39315100  0.60684900  0.25000000  1
  Fe  Fe0  1  0.81543000  0.18457000  0.75000000  1
  Fe  Fe1  1  0.18457000  0.81543000  0.25000000  1
  Ge  Ge0  1  0.95535500  0.04464500  0.75000000  1
  Ge  Ge1  1  0.04464500  0.95535500  0.25000000  1
  Ge  Ge2  1  0.24890600  0.75109400  0.75000000  1
  Ge  Ge3  1  0.75109400  0.24890600  0.25000000  1
loop_
_geom_bond_atom_site_label_1
_geom_bond_atom_site_label_2
_geom_bond_distance
_geom_bond_site_symmetry_2
Fe0 Ge0 2.301434 1_555
Fe0 Ge2 2.391581 1_655
Fe0 Ge2 2.391581 1_545
Fe0 Ge3 2.403410 1_555
Fe0 Ge3 2.403410 1_556
Fe0 Sm1 3.288348 1_656
Fe0 Sm1 3.288348 1_655
Fe0 Sm1 3.288348 1_546
Fe0 Sm1 3.288348 1_545
Fe1 Ge1 2.301434 1_555
Fe1 Ge3 2.391581 1_565
Fe1 Ge3 2.391581 1_455
Fe1 Ge2 2.403410 1_555
Fe1 Ge2 2.403410 1_554
Fe1 Sm0 3.288348 1_454
Fe1 Sm0 3.288348 1_455
Fe1 Sm0 3.288348 1_565
Fe1 Sm0 3.288348 1_564
Ge0 Ge1 2.610260 1_646
Ge0 Ge1 2.610260 1_645
Ge0 Sm1 3.197791 1_656
Ge0 Sm1 3.197791 1_545
Ge0 Sm1 3.197791 1_546
Ge0 Sm1 3.197791 1_655
Ge0 Sm0 3.275839 1_545
Ge0 Sm0 3.275839 1_655
Ge1 Sm0 3.197791 1_455
Ge1 Sm0 3.197791 1_565
Ge1 Sm0 3.197791 1_564
Ge1 Sm0 3.197791 1_454
Ge1 Sm1 3.275839 1_565
Ge1 Sm1 3.275839 1_455
Ge2 Sm0 3.159383 1_455
Ge2 Sm0 3.159383 1_565
Ge2 Sm1 3.207077 1_556
Ge2 Sm1 3.207077 1_555
Ge3 Sm1 3.159383 1_545
Ge3 Sm1 3.159383 1_655
Ge3 Sm0 3.207077 1_554
Ge3 Sm0 3.207077 1_555
