# generated using pymatgen
data_MgTi8O16
_symmetry_space_group_name_H-M   'P 1'
_cell_length_a   5.20360833
_cell_length_b   5.64821620
_cell_length_c   9.37788226
_cell_angle_alpha   91.93465046
_cell_angle_beta   91.09249874
_cell_angle_gamma   88.40741686
_symmetry_Int_Tables_number   1
_chemical_formula_structural   MgTi8O16
_chemical_formula_sum   'Mg1 Ti8 O16'
_cell_volume   275.31746384
_cell_formula_units_Z   1
loop_
 _symmetry_equiv_pos_site_id
 _symmetry_equiv_pos_as_xyz
  1  'x, y, z'
loop_
 _atom_site_type_symbol
 _atom_site_label
 _atom_site_symmetry_multiplicity
 _atom_site_fract_x
 _atom_site_fract_y
 _atom_site_fract_z
 _atom_site_occupancy
  Mg  Mg0  1  0.54023700  0.62728600  0.59985900  1
  Ti  Ti0  1  0.09388400  0.36110800  0.63219100  1
  Ti  Ti1  1  0.65053400  0.60545700  0.89565300  1
  Ti  Ti2  1  0.38860600  0.92873800  0.35375000  1
  Ti  Ti3  1  0.89062300  0.10922000  0.12588900  1
  Ti  Ti4  1  0.91474700  0.61401500  0.37127000  1
  Ti  Ti5  1  0.38378100  0.41481400  0.13547400  1
  Ti  Ti6  1  0.63095700  0.12375300  0.63500700  1
  Ti  Ti7  1  0.14553200  0.89125200  0.87000800  1
  O  O0  1  0.45157500  0.38256800  0.73554300  1
  O  O1  1  0.93791100  0.60367200  0.76456400  1
  O  O2  1  0.05557600  0.88649700  0.26878300  1
  O  O3  1  0.55385300  0.12331800  0.23248400  1
  O  O4  1  0.54998900  0.62270100  0.26577600  1
  O  O5  1  0.05833400  0.38605300  0.23391600  1
  O  O6  1  0.95596900  0.09163400  0.73621800  1
  O  O7  1  0.46019900  0.86792600  0.76169900  1
  O  O8  1  0.82247900  0.84801700  0.99593200  1
  O  O9  1  0.29830900  0.13763400  0.50976100  1
  O  O10  1  0.69375700  0.34531900  0.01582900  1
  O  O11  1  0.20200800  0.63137700  0.49452700  1
  O  O12  1  0.19116700  0.13742900  0.00992700  1
  O  O13  1  0.69518100  0.86504000  0.48572000  1
  O  O14  1  0.31581900  0.64039700  0.98947500  1
  O  O15  1  0.78147300  0.37382400  0.50931700  1
loop_
_geom_bond_atom_site_label_1
_geom_bond_atom_site_label_2
_geom_bond_distance
_geom_bond_site_symmetry_2
Mg0 O13 1.946605 1_555
Mg0 O0 1.979658 1_555
Mg0 O11 2.001722 1_555
Mg0 O7 2.043935 1_555
Mg0 O15 2.050588 1_555
Mg0 O1 2.561714 1_555
O0 Ti6 1.939546 1_555
O0 Ti0 2.086691 1_555
O0 Ti1 2.190153 1_555
O1 Ti1 1.953462 1_555
O1 Ti0 1.984585 1_655
O1 Ti7 2.175265 1_655
O2 Ti2 1.911142 1_555
O2 Ti4 2.004698 1_455
O2 Ti3 2.030998 1_465
O3 Ti2 1.847900 1_545
O3 Ti3 2.032303 1_555
O3 Ti5 2.076301 1_555
O4 Ti5 1.881274 1_555
O4 Ti2 2.055052 1_555
O4 Ti4 2.123738 1_555
O5 Ti4 1.935598 1_455
O5 Ti5 1.957452 1_555
O5 Ti3 2.041562 1_455
O6 Ti6 1.930654 1_555
O6 Ti7 1.953151 1_645
O6 Ti0 1.992744 1_655
O7 Ti7 1.942294 1_555
O7 Ti6 2.125227 1_565
O7 Ti1 2.180237 1_555
O8 Ti1 1.873755 1_555
O8 Ti3 1.918025 1_566
O8 Ti7 2.097152 1_655
O9 Ti2 1.905856 1_545
O9 Ti0 1.979163 1_555
O9 Ti6 2.074391 1_555
O10 Ti1 1.887688 1_554
O10 Ti3 1.967160 1_555
O10 Ti5 2.004702 1_555
O11 Ti4 1.874757 1_455
O11 Ti0 2.126511 1_555
O11 Ti2 2.407462 1_555
O12 Ti7 1.895990 1_544
O12 Ti3 1.934999 1_455
O12 Ti5 2.182465 1_555
O13 Ti6 2.014831 1_565
O13 Ti2 2.031978 1_555
O13 Ti4 2.078848 1_555
O14 Ti5 1.922858 1_556
O14 Ti1 1.968325 1_555
O14 Ti7 2.011830 1_555
O15 Ti0 1.975702 1_655
O15 Ti4 2.050007 1_555
O15 Ti6 2.051079 1_555
