# generated using pymatgen
data_Mg(MoS2)2
_symmetry_space_group_name_H-M   'P 1'
_cell_length_a   7.45837478
_cell_length_b   7.45920183
_cell_length_c   7.45932505
_cell_angle_alpha   59.99341334
_cell_angle_beta   60.00473121
_cell_angle_gamma   60.00354131
_symmetry_Int_Tables_number   1
_chemical_formula_structural   Mg(MoS2)2
_chemical_formula_sum   'Mg2 Mo4 S8'
_cell_volume   293.44493574
_cell_formula_units_Z   2
loop_
 _symmetry_equiv_pos_site_id
 _symmetry_equiv_pos_as_xyz
  1  'x, y, z'
loop_
 _atom_site_type_symbol
 _atom_site_label
 _atom_site_symmetry_multiplicity
 _atom_site_fract_x
 _atom_site_fract_y
 _atom_site_fract_z
 _atom_site_occupancy
  Mg  Mg0  1  0.87498600  0.87499000  0.87500700  1
  Mg  Mg1  1  0.12501900  0.12501400  0.12499300  1
  Mo  Mo0  1  0.50000500  0.49997300  0.50002000  1
  Mo  Mo1  1  0.49996700  0.49999300  0.99999800  1
  Mo  Mo2  1  0.99999800  0.50002500  0.49997800  1
  Mo  Mo3  1  0.50003200  0.00000000  0.50000900  1
  S  S0  1  0.73896300  0.73896400  0.73897300  1
  S  S1  1  0.26104600  0.26102900  0.71688300  1
  S  S2  1  0.26104900  0.71687700  0.26103000  1
  S  S3  1  0.71688000  0.26104700  0.26103600  1
  S  S4  1  0.73894700  0.28312900  0.73895100  1
  S  S5  1  0.28312000  0.73895900  0.73895200  1
  S  S6  1  0.26102400  0.26101800  0.26106000  1
  S  S7  1  0.73896700  0.73897600  0.28311100  1
loop_
_geom_bond_atom_site_label_1
_geom_bond_atom_site_label_2
_geom_bond_distance
_geom_bond_site_symmetry_2
Mg0 S0 2.485305 1_555
Mg0 S7 2.485506 1_556
Mg0 S5 2.485626 1_655
Mg0 S4 2.485648 1_565
Mg1 S6 2.485263 1_555
Mg1 S1 2.485542 1_554
Mg1 S2 2.485636 1_545
Mg1 S3 2.485656 1_455
Mo0 S4 2.525633 1_555
Mo0 S1 2.525809 1_555
Mo0 S2 2.526006 1_555
Mo0 S7 2.526128 1_555
Mo0 S3 2.526390 1_555
Mo0 S5 2.526429 1_555
Mo1 S5 2.525747 1_555
Mo1 S6 2.525905 1_556
Mo1 S3 2.526034 1_556
Mo1 S0 2.526133 1_555
Mo1 S4 2.526406 1_555
Mo1 S2 2.526424 1_556
Mo2 S7 2.525755 1_555
Mo2 S2 2.525819 1_655
Mo2 S1 2.526040 1_655
Mo2 S4 2.526040 1_555
Mo2 S6 2.526462 1_655
Mo2 S0 2.526512 1_555
Mo3 S0 2.525747 1_545
Mo3 S3 2.525776 1_555
Mo3 S6 2.526050 1_555
Mo3 S5 2.526064 1_545
Mo3 S1 2.526348 1_555
Mo3 S7 2.526440 1_545
