# generated using pymatgen
data_KSi5N7
_symmetry_space_group_name_H-M   'P 1'
_cell_length_a   4.94101400
_cell_length_b   11.71353400
_cell_length_c   21.28156800
_cell_angle_alpha   90.00000000
_cell_angle_beta   90.00000000
_cell_angle_gamma   90.00000000
_symmetry_Int_Tables_number   1
_chemical_formula_structural   KSi5N7
_chemical_formula_sum   'K8 Si40 N56'
_cell_volume   1231.70768181
_cell_formula_units_Z   8
loop_
 _symmetry_equiv_pos_site_id
 _symmetry_equiv_pos_as_xyz
  1  'x, y, z'
loop_
 _atom_site_type_symbol
 _atom_site_label
 _atom_site_symmetry_multiplicity
 _atom_site_fract_x
 _atom_site_fract_y
 _atom_site_fract_z
 _atom_site_occupancy
  K  K0  1  0.43924100  0.77939200  0.98809300  1
  K  K1  1  0.93924100  0.22060800  0.01190700  1
  K  K2  1  0.93924100  0.72060800  0.48809300  1
  K  K3  1  0.43924100  0.27939200  0.51190700  1
  K  K4  1  0.44490100  0.14754400  0.80175400  1
  K  K5  1  0.94490100  0.85245600  0.19824600  1
  K  K6  1  0.94490100  0.35245600  0.30175400  1
  K  K7  1  0.44490100  0.64754400  0.69824600  1
  Si  Si0  1  0.73434600  0.65592400  0.84824400  1
  Si  Si1  1  0.23434600  0.34407600  0.15175600  1
  Si  Si2  1  0.23434600  0.84407600  0.34824400  1
  Si  Si3  1  0.73434600  0.15592400  0.65175600  1
  Si  Si4  1  0.22995100  0.15507700  0.65194300  1
  Si  Si5  1  0.72995100  0.84492300  0.34805700  1
  Si  Si6  1  0.72995100  0.34492300  0.15194300  1
  Si  Si7  1  0.22995100  0.65507700  0.84805700  1
  Si  Si8  1  0.96782700  0.85926500  0.77708900  1
  Si  Si9  1  0.46782700  0.14073500  0.22291100  1
  Si  Si10  1  0.46782700  0.64073500  0.27708900  1
  Si  Si11  1  0.96782700  0.35926500  0.72291100  1
  Si  Si12  1  0.46847300  0.42008900  0.80098800  1
  Si  Si13  1  0.96847300  0.57991100  0.19901200  1
  Si  Si14  1  0.96847300  0.07991100  0.30098800  1
  Si  Si15  1  0.46847300  0.92008900  0.69901200  1
  Si  Si16  1  0.45974700  0.05855900  0.96743500  1
  Si  Si17  1  0.95974700  0.94144100  0.03256500  1
  Si  Si18  1  0.95974700  0.44144100  0.46743500  1
  Si  Si19  1  0.45974700  0.55855900  0.53256500  1
  Si  Si20  1  0.46256400  0.50591900  0.04368600  1
  Si  Si21  1  0.96256400  0.49408100  0.95631400  1
  Si  Si22  1  0.96256400  0.99408100  0.54368600  1
  Si  Si23  1  0.46256400  0.00591900  0.45631400  1
  Si  Si24  1  0.45151500  0.69622600  0.13866700  1
  Si  Si25  1  0.95151500  0.30377400  0.86133300  1
  Si  Si26  1  0.95151500  0.80377400  0.63866700  1
  Si  Si27  1  0.45151500  0.19622600  0.36133300  1
  Si  Si28  1  0.94993200  0.66649300  0.06493200  1
  Si  Si29  1  0.44993200  0.33350700  0.93506800  1
  Si  Si30  1  0.44993200  0.83350700  0.56493200  1
  Si  Si31  1  0.94993200  0.16649300  0.43506800  1
  Si  Si32  1  0.45884900  0.96863000  0.10871000  1
  Si  Si33  1  0.95884900  0.03137000  0.89129000  1
  Si  Si34  1  0.95884900  0.53137000  0.60871000  1
  Si  Si35  1  0.45884900  0.46863000  0.39129000  1
  Si  Si36  1  0.46994400  0.89881600  0.84717500  1
  Si  Si37  1  0.96994400  0.10118400  0.15282500  1
  Si  Si38  1  0.96994400  0.60118400  0.34717500  1
  Si  Si39  1  0.46994400  0.39881600  0.65282500  1
  N  N0  1  0.47917800  0.75405500  0.86811000  1
  N  N1  1  0.97917800  0.24594500  0.13189000  1
  N  N2  1  0.97917800  0.74594500  0.36811000  1
  N  N3  1  0.47917800  0.25405500  0.63189000  1
  N  N4  1  0.98248000  0.71497300  0.79985900  1
  N  N5  1  0.48248000  0.28502700  0.20014100  1
  N  N6  1  0.48248000  0.78502700  0.29985900  1
  N  N7  1  0.98248000  0.21497300  0.70014100  1
  N  N8  1  0.29943500  0.99439100  0.03459500  1
  N  N9  1  0.79943500  0.00560900  0.96540500  1
  N  N10  1  0.79943500  0.50560900  0.53459500  1
  N  N11  1  0.29943500  0.49439100  0.46540500  1
  N  N12  1  0.48487800  0.39929400  0.10185600  1
  N  N13  1  0.98487800  0.60070600  0.89814400  1
  N  N14  1  0.98487800  0.10070600  0.60185600  1
  N  N15  1  0.48487800  0.89929400  0.39814400  1
  N  N16  1  0.80358000  0.93710500  0.83538300  1
  N  N17  1  0.30358000  0.06289500  0.16461700  1
  N  N18  1  0.30358000  0.56289500  0.33538300  1
  N  N19  1  0.80358000  0.43710500  0.66461700  1
  N  N20  1  0.79563200  0.36608300  0.79345100  1
  N  N21  1  0.29563200  0.63391700  0.20654900  1
  N  N22  1  0.29563200  0.13391700  0.29345100  1
  N  N23  1  0.79563200  0.86608300  0.70654900  1
  N  N24  1  0.29237300  0.34902600  0.85965200  1
  N  N25  1  0.79237300  0.65097400  0.14034800  1
  N  N26  1  0.79237300  0.15097400  0.35965200  1
  N  N27  1  0.29237300  0.84902600  0.64034800  1
  N  N28  1  0.48368400  0.06348400  0.67873100  1
  N  N29  1  0.98368400  0.93651600  0.32126900  1
  N  N30  1  0.98368400  0.43651600  0.17873100  1
  N  N31  1  0.48368400  0.56348400  0.82126900  1
  N  N32  1  0.78721400  0.55335500  0.02019300  1
  N  N33  1  0.28721400  0.44664500  0.97980700  1
  N  N34  1  0.28721400  0.94664500  0.52019300  1
  N  N35  1  0.78721400  0.05335500  0.47980700  1
  N  N36  1  0.78919600  0.37866900  0.92416600  1
  N  N37  1  0.28919600  0.62133100  0.07583400  1
  N  N38  1  0.28919600  0.12133100  0.42416600  1
  N  N39  1  0.78919600  0.87866900  0.57583400  1
  N  N40  1  0.30253000  0.98670500  0.90034600  1
  N  N41  1  0.80253000  0.01329500  0.09965400  1
  N  N42  1  0.80253000  0.51329500  0.40034600  1
  N  N43  1  0.30253000  0.48670500  0.59965400  1
  N  N44  1  0.42136100  0.83638400  0.13547400  1
  N  N45  1  0.92136100  0.16361600  0.86452600  1
  N  N46  1  0.92136100  0.66361600  0.63547400  1
  N  N47  1  0.42136100  0.33638400  0.36452600  1
  N  N48  1  0.92763900  0.79853500  0.03537200  1
  N  N49  1  0.42763900  0.20146500  0.96462800  1
  N  N50  1  0.42763900  0.70146500  0.53537200  1
  N  N51  1  0.92763900  0.29853500  0.46462800  1
  N  N52  1  0.30325900  0.90501200  0.77240000  1
  N  N53  1  0.80325900  0.09498800  0.22760000  1
  N  N54  1  0.80325900  0.59498800  0.27240000  1
  N  N55  1  0.30325900  0.40501200  0.72760000  1
loop_
_geom_bond_atom_site_label_1
_geom_bond_atom_site_label_2
_geom_bond_distance
_geom_bond_site_symmetry_2
K0 N0 2.578179 1_555
K0 N48 2.624139 1_556
K0 N48 2.729945 1_456
K0 N37 2.732068 1_556
K0 N8 2.792649 1_556
K1 N1 2.578179 1_555
K1 N49 2.624139 1_654
K1 N49 2.729945 1_554
K1 N36 2.732068 1_554
K1 N9 2.792649 1_554
K2 N2 2.578179 1_555
K2 N50 2.624139 1_655
K2 N50 2.729945 1_555
K2 N39 2.732068 1_555
K2 N10 2.792649 1_555
K3 N3 2.578179 1_555
K3 N51 2.624139 1_555
K3 N51 2.729945 1_455
K3 N38 2.732068 1_555
K3 N11 2.792649 1_555
K4 N45 2.713351 1_555
K4 N24 2.766968 1_555
K4 N28 2.803712 1_555
K4 N40 2.906319 1_545
K4 N45 2.917476 1_455
K4 N52 2.991788 1_545
K4 N20 3.096337 1_555
K4 N16 3.119162 1_545
K4 N7 3.243549 1_455
K5 N44 2.713351 1_655
K5 N25 2.766968 1_555
K5 N29 2.803712 1_555
K5 N41 2.906319 1_565
K5 N44 2.917476 1_555
K5 N53 2.991788 1_565
K5 N21 3.096337 1_655
K5 N17 3.119162 1_665
K5 N6 3.243549 1_555
K6 N47 2.713351 1_655
K6 N26 2.766968 1_555
K6 N30 2.803712 1_555
K6 N42 2.906319 1_555
K6 N47 2.917476 1_555
K6 N54 2.991788 1_555
K6 N22 3.096337 1_655
K6 N18 3.119162 1_655
K6 N5 3.243549 1_555
K7 N46 2.713351 1_555
K7 N27 2.766968 1_555
K7 N31 2.803712 1_555
K7 N43 2.906319 1_555
K7 N46 2.917476 1_455
K7 N55 2.991788 1_555
K7 N23 3.096337 1_555
K7 N19 3.119162 1_555
K7 N4 3.243549 1_455
N0 Si7 1.744340 1_555
N0 Si36 1.753810 1_555
N0 Si0 1.757723 1_555
N1 Si6 1.744340 1_555
N1 Si37 1.753810 1_555
N1 Si1 1.757723 1_655
N2 Si5 1.744340 1_555
N2 Si38 1.753810 1_555
N2 Si2 1.757723 1_655
N3 Si4 1.744340 1_555
N3 Si39 1.753810 1_555
N3 Si3 1.757723 1_555
N4 Si7 1.743413 1_655
N4 Si0 1.744095 1_555
N4 Si8 1.759754 1_555
N5 Si6 1.743413 1_555
N5 Si1 1.744095 1_555
N5 Si9 1.759754 1_555
N6 Si5 1.743413 1_555
N6 Si2 1.744095 1_555
N6 Si10 1.759754 1_555
N7 Si4 1.743413 1_655
N7 Si3 1.744095 1_555
N7 Si11 1.759754 1_555
N8 Si32 1.788658 1_555
N8 Si17 1.789858 1_455
N8 Si16 1.798665 1_564
N9 Si33 1.788658 1_555
N9 Si16 1.789858 1_555
N9 Si17 1.798665 1_546
N10 Si34 1.788658 1_555
N10 Si19 1.789858 1_555
N10 Si18 1.798665 1_555
N11 Si35 1.788658 1_555
N11 Si18 1.789858 1_455
N11 Si19 1.798665 1_555
N12 Si6 1.734393 1_555
N12 Si1 1.754548 1_555
N12 Si20 1.761977 1_555
N13 Si7 1.734393 1_655
N13 Si0 1.754548 1_555
N13 Si21 1.761977 1_555
N14 Si4 1.734393 1_655
N14 Si3 1.754548 1_555
N14 Si22 1.761977 1_545
N15 Si5 1.734393 1_555
N15 Si2 1.754548 1_555
N15 Si23 1.761977 1_565
N16 Si36 1.726755 1_555
N16 Si8 1.740406 1_555
N16 Si33 1.795377 1_565
N17 Si37 1.726755 1_455
N17 Si9 1.740406 1_555
N17 Si32 1.795377 1_545
N18 Si38 1.726755 1_455
N18 Si10 1.740406 1_555
N18 Si35 1.795377 1_555
N19 Si39 1.726755 1_555
N19 Si11 1.740406 1_555
N19 Si34 1.795377 1_555
N20 Si11 1.727390 1_555
N20 Si12 1.743266 1_555
N20 Si25 1.792458 1_555
N21 Si10 1.727390 1_555
N21 Si13 1.743266 1_455
N21 Si24 1.792458 1_555
N22 Si9 1.727390 1_555
N22 Si14 1.743266 1_455
N22 Si27 1.792458 1_555
N23 Si8 1.727390 1_555
N23 Si15 1.743266 1_555
N23 Si26 1.792458 1_555
N24 Si12 1.734543 1_555
N24 Si25 1.765990 1_455
N24 Si29 1.793053 1_555
N25 Si13 1.734543 1_555
N25 Si24 1.765990 1_555
N25 Si28 1.793053 1_555
N26 Si14 1.734543 1_555
N26 Si27 1.765990 1_555
N26 Si31 1.793053 1_555
N27 Si15 1.734543 1_555
N27 Si26 1.765990 1_455
N27 Si30 1.793053 1_555
N28 Si15 1.735858 1_545
N28 Si3 1.742399 1_555
N28 Si4 1.745803 1_555
N29 Si14 1.735858 1_565
N29 Si2 1.742399 1_655
N29 Si5 1.745803 1_555
N30 Si13 1.735858 1_555
N30 Si1 1.742399 1_655
N30 Si6 1.745803 1_555
N31 Si12 1.735858 1_555
N31 Si0 1.742399 1_555
N31 Si7 1.745803 1_555
N32 Si21 1.755225 1_554
N32 Si20 1.769702 1_555
N32 Si28 1.819122 1_555
N33 Si20 1.755225 1_556
N33 Si21 1.769702 1_455
N33 Si29 1.819122 1_555
N34 Si23 1.755225 1_565
N34 Si22 1.769702 1_455
N34 Si30 1.819122 1_555
N35 Si22 1.755225 1_545
N35 Si23 1.769702 1_555
N35 Si31 1.819122 1_555
N36 Si21 1.740531 1_555
N36 Si29 1.773044 1_555
N36 Si25 1.789114 1_555
N37 Si20 1.740531 1_555
N37 Si28 1.773044 1_455
N37 Si24 1.789114 1_555
N38 Si23 1.740531 1_555
N38 Si31 1.773044 1_455
N38 Si27 1.789114 1_555
N39 Si22 1.740531 1_555
N39 Si30 1.773044 1_555
N39 Si26 1.789114 1_555
N40 Si36 1.739119 1_555
N40 Si33 1.787322 1_465
N40 Si16 1.830391 1_565
N41 Si37 1.739119 1_555
N41 Si32 1.787322 1_545
N41 Si17 1.830391 1_545
N42 Si38 1.739119 1_555
N42 Si35 1.787322 1_555
N42 Si18 1.830391 1_555
N43 Si39 1.739119 1_555
N43 Si34 1.787322 1_455
N43 Si19 1.830391 1_555
N44 Si24 1.649892 1_555
N44 Si32 1.660826 1_555
N45 Si25 1.649892 1_555
N45 Si33 1.660826 1_555
N46 Si26 1.649892 1_555
N46 Si34 1.660826 1_555
N47 Si27 1.649892 1_555
N47 Si35 1.660826 1_555
N48 Si28 1.673348 1_555
N48 Si17 1.682496 1_555
N49 Si29 1.673348 1_555
N49 Si16 1.682496 1_555
N50 Si30 1.673348 1_555
N50 Si19 1.682496 1_555
N51 Si31 1.673348 1_555
N51 Si18 1.682496 1_555
N52 Si8 1.744704 1_455
N52 Si15 1.771110 1_555
N52 Si36 1.793293 1_555
N53 Si9 1.744704 1_555
N53 Si14 1.771110 1_555
N53 Si37 1.793293 1_555
N54 Si10 1.744704 1_555
N54 Si13 1.771110 1_555
N54 Si38 1.793293 1_555
N55 Si11 1.744704 1_455
N55 Si12 1.771110 1_555
N55 Si39 1.793293 1_555
