# generated using pymatgen
data_FeTe3O8
_symmetry_space_group_name_H-M   'P 1'
_cell_length_a   9.65687780
_cell_length_b   9.65687780
_cell_length_c   9.65687780
_cell_angle_alpha   109.47122063
_cell_angle_beta   109.47122063
_cell_angle_gamma   109.47122063
_symmetry_Int_Tables_number   1
_chemical_formula_structural   FeTe3O8
_chemical_formula_sum   'Fe4 Te12 O32'
_cell_volume   693.24750823
_cell_formula_units_Z   4
loop_
 _symmetry_equiv_pos_site_id
 _symmetry_equiv_pos_as_xyz
  1  'x, y, z'
loop_
 _atom_site_type_symbol
 _atom_site_label
 _atom_site_symmetry_multiplicity
 _atom_site_fract_x
 _atom_site_fract_y
 _atom_site_fract_z
 _atom_site_occupancy
  Fe  Fe0  1  0.50000000  0.50000000  0.50000000  1
  Fe  Fe1  1  0.00000000  0.50000000  0.00000000  1
  Fe  Fe2  1  0.00000000  0.00000000  0.50000000  1
  Fe  Fe3  1  0.50000000  0.00000000  0.00000000  1
  Te  Te0  1  0.29226200  0.04226200  0.25000000  1
  Te  Te1  1  0.70773800  0.95773800  0.75000000  1
  Te  Te2  1  0.20773800  0.45773800  0.75000000  1
  Te  Te3  1  0.04226200  0.25000000  0.29226200  1
  Te  Te4  1  0.79226200  0.54226200  0.25000000  1
  Te  Te5  1  0.95773800  0.75000000  0.70773800  1
  Te  Te6  1  0.45773800  0.75000000  0.20773800  1
  Te  Te7  1  0.54226200  0.25000000  0.79226200  1
  Te  Te8  1  0.25000000  0.29226200  0.04226200  1
  Te  Te9  1  0.75000000  0.70773800  0.95773800  1
  Te  Te10  1  0.75000000  0.20773800  0.45773800  1
  Te  Te11  1  0.25000000  0.79226200  0.54226200  1
  O  O0  1  0.06509500  0.32895500  0.02749500  1
  O  O1  1  0.93490500  0.67104500  0.97250500  1
  O  O2  1  0.43490500  0.46240100  0.26386100  1
  O  O3  1  0.69854000  0.17104500  0.23613900  1
  O  O4  1  0.32895500  0.02749500  0.06509500  1
  O  O5  1  0.56509500  0.53759900  0.73613900  1
  O  O6  1  0.30146000  0.82895500  0.76386100  1
  O  O7  1  0.67104500  0.97250500  0.93490500  1
  O  O8  1  0.80146000  0.03759900  0.47250500  1
  O  O9  1  0.46240100  0.26386100  0.43490500  1
  O  O10  1  0.19854000  0.96240100  0.52749500  1
  O  O11  1  0.53759900  0.73613900  0.56509500  1
  O  O12  1  0.17104500  0.23613900  0.69854000  1
  O  O13  1  0.82895500  0.76386100  0.30146000  1
  O  O14  1  0.03759900  0.47250500  0.80146000  1
  O  O15  1  0.96240100  0.52749500  0.19854000  1
  O  O16  1  0.02749500  0.06509500  0.32895500  1
  O  O17  1  0.97250500  0.93490500  0.67104500  1
  O  O18  1  0.23613900  0.69854000  0.17104500  1
  O  O19  1  0.76386100  0.30146000  0.82895500  1
  O  O20  1  0.47250500  0.80146000  0.03759900  1
  O  O21  1  0.52749500  0.19854000  0.96240100  1
  O  O22  1  0.26386100  0.43490500  0.46240100  1
  O  O23  1  0.73613900  0.56509500  0.53759900  1
  O  O24  1  0.15478900  0.15478900  0.15478900  1
  O  O25  1  0.84521100  0.84521100  0.84521100  1
  O  O26  1  0.34521100  0.50000000  0.00000000  1
  O  O27  1  0.00000000  0.34521100  0.50000000  1
  O  O28  1  0.65478900  0.50000000  0.00000000  1
  O  O29  1  0.00000000  0.65478900  0.50000000  1
  O  O30  1  0.50000000  0.00000000  0.34521100  1
  O  O31  1  0.50000000  0.00000000  0.65478900  1
loop_
_geom_bond_atom_site_label_1
_geom_bond_atom_site_label_2
_geom_bond_distance
_geom_bond_site_symmetry_2
Fe0 O2 2.016746 1_555
Fe0 O23 2.016746 1_555
Fe0 O11 2.016746 1_555
Fe0 O5 2.016746 1_555
Fe0 O22 2.016746 1_555
Fe0 O9 2.016746 1_555
Fe1 O18 2.016747 1_555
Fe1 O19 2.016747 1_454
Fe1 O15 2.016747 1_455
Fe1 O14 2.016747 1_554
Fe1 O0 2.016752 1_555
Fe1 O1 2.016752 1_454
Fe2 O12 2.016747 1_555
Fe2 O13 2.016747 1_445
Fe2 O10 2.016747 1_545
Fe2 O8 2.016747 1_455
Fe2 O16 2.016752 1_555
Fe2 O17 2.016752 1_445
Fe3 O6 2.016747 1_544
Fe3 O3 2.016747 1_555
Fe3 O21 2.016747 1_554
Fe3 O20 2.016747 1_545
Fe3 O4 2.016752 1_555
Fe3 O7 2.016752 1_544
O0 Te8 1.902634 1_555
O1 Te9 1.902634 1_555
O2 Te8 1.902641 1_555
O3 Te10 1.902643 1_555
O4 Te0 1.902634 1_555
O5 Te9 1.902641 1_555
O6 Te11 1.902643 1_555
O7 Te1 1.902634 1_555
O8 Te10 1.902643 1_555
O9 Te0 1.902641 1_555
O10 Te11 1.902643 1_555
O11 Te1 1.902641 1_555
O12 Te2 1.902643 1_555
O13 Te4 1.902643 1_555
O14 Te2 1.902643 1_555
O15 Te4 1.902643 1_555
O16 Te3 1.902634 1_555
O17 Te5 1.902634 1_555
O18 Te6 1.902643 1_555
O19 Te7 1.902643 1_555
O20 Te6 1.902643 1_555
O21 Te7 1.902643 1_555
O22 Te3 1.902641 1_555
O23 Te5 1.902641 1_555
O24 Te8 2.145388 1_555
O24 Te0 2.145388 1_555
O24 Te3 2.145388 1_555
O25 Te9 2.145388 1_555
O25 Te5 2.145388 1_555
O25 Te1 2.145388 1_555
O26 Te6 2.145388 1_555
O26 Te8 2.145388 1_555
O26 Te2 2.145388 1_554
O27 Te10 2.145388 1_455
O27 Te2 2.145388 1_555
O27 Te3 2.145388 1_555
O28 Te9 2.145388 1_554
O28 Te7 2.145388 1_554
O28 Te4 2.145388 1_555
O29 Te11 2.145388 1_555
O29 Te4 2.145388 1_455
O29 Te5 2.145388 1_455
O30 Te10 2.145388 1_555
O30 Te0 2.145388 1_555
O30 Te6 2.145388 1_545
O31 Te11 2.145388 1_545
O31 Te7 2.145388 1_555
O31 Te1 2.145388 1_545
