# generated using pymatgen
data_LiSc4(FeO3)4
_symmetry_space_group_name_H-M   'P 1'
_cell_length_a   5.12678458
_cell_length_b   5.44360320
_cell_length_c   8.04653984
_cell_angle_alpha   90.16735254
_cell_angle_beta   91.99021394
_cell_angle_gamma   88.80830664
_symmetry_Int_Tables_number   1
_chemical_formula_structural   LiSc4(FeO3)4
_chemical_formula_sum   'Li1 Sc4 Fe4 O12'
_cell_volume   224.37974143
_cell_formula_units_Z   1
loop_
 _symmetry_equiv_pos_site_id
 _symmetry_equiv_pos_as_xyz
  1  'x, y, z'
loop_
 _atom_site_type_symbol
 _atom_site_label
 _atom_site_symmetry_multiplicity
 _atom_site_fract_x
 _atom_site_fract_y
 _atom_site_fract_z
 _atom_site_occupancy
  Li  Li0  1  0.37271100  0.19894000  0.14493700  1
  Sc  Sc0  1  0.04033900  0.93751700  0.74526200  1
  Sc  Sc1  1  0.46543600  0.43679100  0.75675200  1
  Sc  Sc2  1  0.53772900  0.60411100  0.24880800  1
  Sc  Sc3  1  0.93627400  0.06792900  0.25658600  1
  Fe  Fe0  1  0.99005400  0.49246300  0.99470800  1
  Fe  Fe1  1  0.00613700  0.50451900  0.49374500  1
  Fe  Fe2  1  0.54458400  0.95663500  0.94469000  1
  Fe  Fe3  1  0.49233200  0.01229300  0.50340100  1
  O  O0  1  0.16102600  0.42667600  0.25374500  1
  O  O1  1  0.19521500  0.21347800  0.58792400  1
  O  O2  1  0.19470900  0.18110600  0.92408800  1
  O  O3  1  0.29813100  0.70929500  0.59392000  1
  O  O4  1  0.30298000  0.67292300  0.93085900  1
  O  O5  1  0.32303100  0.93221900  0.28044000  1
  O  O6  1  0.66999000  0.09162500  0.72638700  1
  O  O7  1  0.69488900  0.30267500  0.07605100  1
  O  O8  1  0.69387600  0.31188800  0.40955300  1
  O  O9  1  0.80728500  0.79265900  0.09510300  1
  O  O10  1  0.79675800  0.80622400  0.42458400  1
  O  O11  1  0.83901500  0.58553300  0.75846000  1
loop_
_geom_bond_atom_site_label_1
_geom_bond_atom_site_label_2
_geom_bond_distance
_geom_bond_site_symmetry_2
Li0 O5 1.845452 1_545
Li0 O7 1.859724 1_555
Li0 O0 1.866791 1_555
Li0 O2 1.972369 1_554
Fe0 O7 1.980773 1_556
Fe0 O4 1.982048 1_655
Fe0 O9 2.045045 1_556
Fe0 O2 2.063562 1_655
Fe0 O11 2.087361 1_555
Fe0 O0 2.259533 1_656
Fe1 O1 1.978914 1_555
Fe1 O10 2.012423 1_455
Fe1 O8 2.027741 1_455
Fe1 O3 2.028217 1_555
Fe1 O0 2.151112 1_555
Fe1 O11 2.360343 1_455
Fe2 O9 1.979544 1_556
Fe2 O4 2.000214 1_555
Fe2 O6 2.035819 1_565
Fe2 O2 2.151148 1_565
Fe2 Li0 2.269440 1_566
Fe2 O7 2.291629 1_566
Fe3 O1 1.995115 1_555
Fe3 O5 2.016197 1_545
Fe3 O10 2.021928 1_545
Fe3 O6 2.033173 1_555
Fe3 O3 2.089977 1_545
Fe3 O8 2.104554 1_555
O0 Sc2 2.178871 1_555
O0 Sc3 2.288586 1_455
O1 Sc0 2.149535 1_545
O1 Sc1 2.274234 1_555
O2 Sc0 2.099656 1_545
O2 Sc1 2.428534 1_555
O3 Sc1 2.129151 1_555
O3 Sc0 2.192674 1_555
O4 Sc1 2.081980 1_555
O4 Sc0 2.431085 1_555
O4 Sc2 2.811954 1_556
O5 Sc2 2.097974 1_555
O5 Sc3 2.104195 1_465
O6 Sc0 2.060666 1_645
O6 Sc1 2.150134 1_555
O7 Sc3 2.257188 1_555
O7 Sc2 2.298605 1_555
O8 Sc2 2.175189 1_555
O8 Sc3 2.202507 1_555
O9 Sc3 2.083566 1_565
O9 Sc2 2.162879 1_555
O10 Sc3 2.118799 1_565
O10 Sc2 2.212635 1_555
O11 Sc1 2.094426 1_555
O11 Sc0 2.199762 1_655
