# generated using pymatgen
data_Li3V2P4(HO8)2
_symmetry_space_group_name_H-M   'P 1'
_cell_length_a   7.88652600
_cell_length_b   8.07557415
_cell_length_c   13.76384873
_cell_angle_alpha   89.66755920
_cell_angle_beta   79.84058306
_cell_angle_gamma   89.91857835
_symmetry_Int_Tables_number   1
_chemical_formula_structural   Li3V2P4(HO8)2
_chemical_formula_sum   'Li9 V6 P12 H6 O48'
_cell_volume   862.83619021
_cell_formula_units_Z   3
loop_
 _symmetry_equiv_pos_site_id
 _symmetry_equiv_pos_as_xyz
  1  'x, y, z'
loop_
 _atom_site_type_symbol
 _atom_site_label
 _atom_site_symmetry_multiplicity
 _atom_site_fract_x
 _atom_site_fract_y
 _atom_site_fract_z
 _atom_site_occupancy
  Li  Li0  1  0.97583700  0.86738200  0.17930100  1
  Li  Li1  1  0.69680300  0.12881400  0.14741700  1
  Li  Li2  1  0.20222600  0.36586000  0.15177300  1
  Li  Li3  1  0.64010600  0.86935200  0.51489800  1
  Li  Li4  1  0.36327600  0.13654800  0.48361900  1
  Li  Li5  1  0.12984400  0.63784300  0.51702100  1
  Li  Li6  1  0.80244000  0.62915500  0.85026000  1
  Li  Li7  1  0.52898200  0.37239400  0.81807000  1
  Li  Li8  1  0.29853700  0.86728700  0.84787300  1
  V  V0  1  0.82265500  0.50154800  0.16542200  1
  V  V1  1  0.33580400  0.99275900  0.16953900  1
  V  V2  1  0.50401700  0.50302000  0.50022400  1
  V  V3  1  0.99837600  0.00874300  0.49920000  1
  V  V4  1  0.67748900  0.00242600  0.83405300  1
  V  V5  1  0.16417100  0.49567900  0.83228300  1
  P  P0  1  0.72608300  0.84699300  0.04445900  1
  P  P1  1  0.21421300  0.64977200  0.04538000  1
  P  P2  1  0.94680600  0.15710000  0.28889900  1
  P  P3  1  0.88244600  0.65519700  0.37678400  1
  P  P4  1  0.44610800  0.35098300  0.28799800  1
  P  P5  1  0.38856300  0.85117200  0.38011600  1
  P  P6  1  0.61076900  0.15848900  0.62432600  1
  P  P7  1  0.55632400  0.65500300  0.71245100  1
  P  P8  1  0.11592800  0.35097300  0.62173300  1
  P  P9  1  0.05329900  0.85012100  0.71207200  1
  P  P10  1  0.77377700  0.34636500  0.95576300  1
  P  P11  1  0.28722300  0.14981400  0.95446300  1
  H  H0  1  0.47372500  0.50680500  0.00867000  1
  H  H1  1  0.68174700  0.01268800  0.32823100  1
  H  H2  1  0.14968000  0.51014300  0.33855800  1
  H  H3  1  0.85530200  0.49475400  0.65958200  1
  H  H4  1  0.34281100  0.00828800  0.66318900  1
  H  H5  1  0.02787000  0.00824200  0.99072800  1
  O  O0  1  0.88360300  0.94562300  0.06366500  1
  O  O1  1  0.78249500  0.32757700  0.06843300  1
  O  O2  1  0.73065400  0.67089700  0.08877100  1
  O  O3  1  0.56716900  0.94640500  0.09361300  1
  O  O4  1  0.37070200  0.54306100  0.06410300  1
  O  O5  1  0.94823800  0.32489400  0.23424600  1
  O  O6  1  0.28966900  0.16945900  0.06549900  1
  O  O7  1  0.87669500  0.67401200  0.26532700  1
  O  O8  1  0.20999600  0.81512200  0.09862000  1
  O  O9  1  0.78039600  0.06144800  0.27053900  1
  O  O10  1  0.05548400  0.54324500  0.09570500  1
  O  O11  1  0.61187400  0.45416800  0.24075400  1
  O  O12  1  0.46102100  0.18393400  0.23419500  1
  O  O13  1  0.95249600  0.17551900  0.39844400  1
  O  O14  1  0.37650200  0.82936900  0.27097900  1
  O  O15  1  0.28100400  0.43894800  0.27381000  1
  O  O16  1  0.87617100  0.82076300  0.43079500  1
  O  O17  1  0.09663100  0.04838000  0.23657200  1
  O  O18  1  0.72013700  0.55319700  0.42543100  1
  O  O19  1  0.55111700  0.94509800  0.39768600  1
  O  O20  1  0.46013400  0.33152800  0.39955500  1
  O  O21  1  0.38143300  0.68020600  0.43442000  1
  O  O22  1  0.95731000  0.45523100  0.60347200  1
  O  O23  1  0.23382800  0.95762100  0.43081800  1
  O  O24  1  0.76201000  0.05238500  0.57330600  1
  O  O25  1  0.04978000  0.56537100  0.39377600  1
  O  O26  1  0.60011000  0.32915100  0.57559100  1
  O  O27  1  0.54900300  0.67627300  0.59968000  1
  O  O28  1  0.44730300  0.05915200  0.60639300  1
  O  O29  1  0.27426100  0.45843000  0.56801100  1
  O  O30  1  0.88715300  0.95402800  0.75922000  1
  O  O31  1  0.12253300  0.18585000  0.56809200  1
  O  O32  1  0.71630900  0.55866800  0.73012200  1
  O  O33  1  0.61912100  0.17715400  0.73539300  1
  O  O34  1  0.04125000  0.83082500  0.60160100  1
  O  O35  1  0.55055200  0.82657900  0.76355100  1
  O  O36  1  0.39829800  0.55147400  0.75999800  1
  O  O37  1  0.93236900  0.44643900  0.90665000  1
  O  O38  1  0.21677400  0.93992000  0.72753500  1
  O  O39  1  0.76937600  0.17078600  0.91191800  1
  O  O40  1  0.12691500  0.33235100  0.73044300  1
  O  O41  1  0.71852500  0.82810900  0.93200700  1
  O  O42  1  0.03871200  0.68377300  0.76748600  1
  O  O43  1  0.61546100  0.44494900  0.93728300  1
  O  O44  1  0.44519400  0.04243800  0.90474300  1
  O  O45  1  0.29209900  0.31567200  0.90067800  1
  O  O46  1  0.21075500  0.67092600  0.93445800  1
  O  O47  1  0.13019700  0.04421700  0.93550200  1
loop_
_geom_bond_atom_site_label_1
_geom_bond_atom_site_label_2
_geom_bond_distance
_geom_bond_site_symmetry_2
Li0 O0 1.963916 1_555
Li0 O17 1.986857 1_665
Li0 O8 2.025181 1_655
Li0 O7 2.026635 1_555
Li0 O9 2.396246 1_565
Li1 O1 1.984601 1_555
Li1 O9 1.996187 1_555
Li1 O3 2.011856 1_545
Li1 O12 2.074314 1_555
Li1 O0 2.258806 1_545
Li2 O15 1.984047 1_555
Li2 O6 2.032501 1_555
Li2 O10 2.069875 1_555
Li2 O5 2.146097 1_455
Li2 O4 2.165412 1_555
Li3 O19 1.963711 1_555
Li3 O27 1.998853 1_555
Li3 O24 2.011424 1_565
Li3 O16 2.050106 1_555
Li3 O28 2.363793 1_565
Li4 O23 1.984022 1_545
Li4 O28 2.016674 1_555
Li4 O20 2.017926 1_555
Li4 O31 2.083167 1_555
Li4 O19 2.319578 1_545
Li5 O34 2.000792 1_555
Li5 O25 2.002292 1_555
Li5 O29 2.038247 1_555
Li5 O21 2.132632 1_555
Li5 O22 2.203689 1_455
Li6 O32 1.981908 1_555
Li6 O41 2.010124 1_555
Li6 O37 2.023010 1_555
Li6 O42 2.052376 1_655
Li6 O43 2.276944 1_555
Li7 O43 1.976829 1_555
Li7 O33 2.004608 1_555
Li7 O36 2.016303 1_555
Li7 O45 2.059067 1_555
Li7 O32 2.294567 1_555
Li8 O38 1.966634 1_555
Li8 O46 2.025881 1_555
Li8 O44 2.070746 1_565
Li8 O35 2.143390 1_555
Li8 O47 2.169908 1_565
H0 O4 1.054146 1_555
H0 O43 1.442597 1_554
H1 O9 1.081746 1_555
H1 O19 1.386096 1_545
H2 O25 1.090394 1_555
H2 O15 1.369694 1_555
H3 O22 1.062288 1_555
H3 O32 1.428077 1_555
H4 O28 1.108560 1_555
H4 O38 1.327611 1_545
H5 O47 1.046493 1_555
H5 O0 1.466573 1_446
O0 P0 1.539046 1_555
O1 P10 1.570827 1_554
O1 V0 2.007076 1_555
O2 P0 1.546974 1_555
O2 V0 1.939145 1_555
O3 P0 1.541834 1_555
O3 V1 1.972699 1_555
O4 P1 1.561654 1_555
O5 P2 1.545095 1_555
O5 V0 2.055402 1_555
O6 P11 1.540912 1_554
O6 V1 2.092318 1_545
O7 P3 1.549309 1_555
O7 V0 2.059822 1_555
O8 P1 1.524379 1_555
O8 V1 2.087354 1_555
O9 P2 1.582738 1_555
O10 P1 1.573898 1_555
O10 V0 1.944805 1_455
O11 P4 1.588454 1_555
O11 V0 1.836838 1_555
O12 P4 1.537039 1_555
O12 V1 2.116820 1_545
O13 P2 1.524458 1_555
O13 V3 2.005486 1_555
O14 P5 1.532975 1_555
O14 V1 1.982148 1_555
O15 P4 1.524361 1_555
O16 P3 1.530077 1_555
O16 V3 2.112020 1_565
O17 P2 1.545933 1_455
O17 V1 1.999846 1_545
O18 P3 1.568310 1_555
O18 V2 1.872747 1_555
O19 P5 1.546468 1_555
O20 P4 1.565761 1_555
O20 V2 2.037247 1_555
O21 P5 1.562506 1_555
O21 V2 2.022940 1_555
O22 P8 1.562809 1_655
O23 P5 1.555222 1_555
O23 V3 1.972345 1_465
O24 P6 1.535776 1_555
O24 V3 1.992742 1_555
O25 P3 1.557772 1_455
O26 P6 1.537942 1_555
O26 V2 1.969587 1_555
O27 P7 1.571795 1_555
O27 V2 2.037706 1_555
O28 P6 1.576048 1_555
O29 P8 1.590263 1_555
O29 V2 1.919632 1_555
O30 P9 1.595423 1_655
O30 V4 1.830242 1_565
O31 P8 1.524334 1_555
O31 V3 2.061731 1_455
O32 P7 1.536100 1_555
O33 P6 1.549915 1_555
O33 V4 2.059936 1_555
O34 P9 1.548875 1_555
O34 V3 2.075677 1_465
O35 P7 1.554478 1_555
O35 V4 2.079215 1_565
O36 P7 1.545756 1_555
O36 V5 1.987800 1_555
O37 P10 1.540353 1_555
O37 V5 1.971052 1_655
O38 P9 1.527937 1_555
O39 P10 1.547026 1_555
O39 V4 1.953445 1_555
O40 P8 1.520536 1_555
O40 V5 1.989634 1_555
O41 P0 1.567711 1_556
O41 V4 2.008656 1_565
O42 P9 1.535305 1_555
O42 V5 2.091162 1_555
O43 P10 1.537621 1_555
O44 P11 1.573338 1_555
O44 V4 1.944338 1_555
O45 P11 1.523841 1_555
O45 V5 2.081398 1_555
O46 P1 1.540269 1_556
O46 V5 2.079038 1_555
O47 P11 1.564771 1_555
