# generated using pymatgen
data_La2MgCo2Sb2(PbO6)2
_symmetry_space_group_name_H-M   'P 1'
_cell_length_a   5.69791114
_cell_length_b   6.15799624
_cell_length_c   8.52043819
_cell_angle_alpha   91.84614113
_cell_angle_beta   87.81815387
_cell_angle_gamma   89.15251641
_symmetry_Int_Tables_number   1
_chemical_formula_structural   La2MgCo2Sb2(PbO6)2
_chemical_formula_sum   'La2 Mg1 Co2 Sb2 Pb2 O12'
_cell_volume   298.55250373
_cell_formula_units_Z   1
loop_
 _symmetry_equiv_pos_site_id
 _symmetry_equiv_pos_as_xyz
  1  'x, y, z'
loop_
 _atom_site_type_symbol
 _atom_site_label
 _atom_site_symmetry_multiplicity
 _atom_site_fract_x
 _atom_site_fract_y
 _atom_site_fract_z
 _atom_site_occupancy
  La  La0  1  0.51641100  0.45749800  0.76783600  1
  La  La1  1  0.04897300  0.10628800  0.21797100  1
  Mg  Mg0  1  0.90820300  0.69348200  0.41800600  1
  Co  Co0  1  0.05740700  0.35661600  0.57453500  1
  Co  Co1  1  0.50461100  0.00436400  0.95647800  1
  Sb  Sb0  1  0.99208300  0.52883800  0.99622600  1
  Sb  Sb1  1  0.49321200  0.00956000  0.50718400  1
  Pb  Pb0  1  0.46141600  0.58166200  0.22321800  1
  Pb  Pb1  1  0.96415200  0.97354900  0.77013200  1
  O  O0  1  0.69821600  0.94006400  0.31156000  1
  O  O1  1  0.09109900  0.54196900  0.76449200  1
  O  O2  1  0.36982800  0.07306800  0.72938400  1
  O  O3  1  0.92344700  0.49192700  0.23046000  1
  O  O4  1  0.21340300  0.84712400  0.41872700  1
  O  O5  1  0.68891000  0.69609800  0.96806600  1
  O  O6  1  0.74587400  0.22342800  0.57771900  1
  O  O7  1  0.28140200  0.33396000  0.02510800  1
  O  O8  1  0.31287300  0.26837500  0.42437500  1
  O  O9  1  0.80540700  0.25081900  0.96129600  1
  O  O10  1  0.64978200  0.73568900  0.58122500  1
  O  O11  1  0.17805000  0.80228700  0.04266800  1
loop_
_geom_bond_atom_site_label_1
_geom_bond_atom_site_label_2
_geom_bond_distance
_geom_bond_site_symmetry_2
La0 O6 2.458383 1_555
La0 O5 2.458533 1_555
La0 O1 2.472475 1_555
La0 O10 2.482407 1_555
La0 O2 2.537415 1_555
La0 O7 2.662906 1_556
La0 O9 2.707088 1_555
La1 O0 2.381121 1_445
La1 O11 2.443751 1_545
La1 O3 2.467806 1_455
La1 O7 2.541173 1_555
La1 O8 2.546140 1_555
La1 O4 2.569900 1_545
La1 O9 2.796614 1_454
Mg0 O3 1.989983 1_555
Mg0 O4 1.992093 1_655
Mg0 O10 1.994793 1_555
Mg0 O0 2.162748 1_555
Co0 O8 1.959859 1_555
Co0 O6 1.966008 1_455
Co0 O1 1.967324 1_555
Co1 O2 2.160802 1_555
Co1 O5 2.162648 1_545
Co1 O9 2.306681 1_555
Co1 O11 2.360806 1_546
Co1 O7 2.422706 1_556
O0 Sb1 2.028996 1_565
O0 Pb0 2.704902 1_555
O1 Sb0 2.037207 1_455
O1 Pb1 2.742440 1_455
O2 Sb1 2.018508 1_555
O2 Pb1 2.415301 1_445
O3 Sb0 2.039647 1_554
O3 Pb0 2.685393 1_555
O4 Sb1 2.049533 1_565
O4 Pb0 2.649760 1_555
O5 Sb0 2.024199 1_555
O5 Pb0 2.610422 1_556
O6 Sb1 2.058937 1_555
O6 Pb1 2.619844 1_545
O7 Sb0 2.051753 1_454
O7 Pb0 2.498052 1_555
O8 Sb1 2.042805 1_555
O8 Pb0 2.743494 1_555
O9 Sb0 2.048458 1_555
O9 Pb1 2.459552 1_545
O10 Sb1 2.026089 1_565
O11 Sb0 2.038792 1_454
O11 Pb0 2.660488 1_555
