# generated using pymatgen
data_SrNb6O16
_symmetry_space_group_name_H-M   'P 1'
_cell_length_a   9.17951588
_cell_length_b   9.17951588
_cell_length_c   3.91688000
_cell_angle_alpha   90.00000000
_cell_angle_beta   90.00000000
_cell_angle_gamma   109.91085571
_symmetry_Int_Tables_number   1
_chemical_formula_structural   SrNb6O16
_chemical_formula_sum   'Sr1 Nb6 O16'
_cell_volume   310.32086583
_cell_formula_units_Z   1
loop_
 _symmetry_equiv_pos_site_id
 _symmetry_equiv_pos_as_xyz
  1  'x, y, z'
loop_
 _atom_site_type_symbol
 _atom_site_label
 _atom_site_symmetry_multiplicity
 _atom_site_fract_x
 _atom_site_fract_y
 _atom_site_fract_z
 _atom_site_occupancy
  Sr  Sr0  1  0.60153800  0.39846200  0.50000000  1
  Nb  Nb0  1  0.99794600  0.62753800  0.00000000  1
  Nb  Nb1  1  0.62015500  0.74187400  0.00000000  1
  Nb  Nb2  1  0.25812600  0.37984500  0.00000000  1
  Nb  Nb3  1  0.79371600  0.20628400  0.00000000  1
  Nb  Nb4  1  0.00671500  0.99328500  0.00000000  1
  Nb  Nb5  1  0.37246200  0.00205400  0.00000000  1
  O  O0  1  0.48839700  0.51160300  0.00000000  1
  O  O1  1  0.14269400  0.85730600  0.00000000  1
  O  O2  1  0.46609600  0.83291600  0.00000000  1
  O  O3  1  0.16708400  0.53390400  0.00000000  1
  O  O4  1  0.23815300  0.14557400  0.00000000  1
  O  O5  1  0.85442600  0.76184700  0.00000000  1
  O  O6  1  0.55677100  0.18685500  0.00000000  1
  O  O7  1  0.99663200  0.00336800  0.50000000  1
  O  O8  1  0.77523500  0.22476500  0.50000000  1
  O  O9  1  0.29208900  0.36689600  0.50000000  1
  O  O10  1  0.63310400  0.70791100  0.50000000  1
  O  O11  1  0.00453400  0.62691900  0.50000000  1
  O  O12  1  0.37308100  0.99546600  0.50000000  1
  O  O13  1  0.01362000  0.23571900  0.00000000  1
  O  O14  1  0.76428100  0.98638000  0.00000000  1
  O  O15  1  0.81314500  0.44322900  0.00000000  1
loop_
_geom_bond_atom_site_label_1
_geom_bond_atom_site_label_2
_geom_bond_distance
_geom_bond_site_symmetry_2
Nb0 O15 1.945583 1_555
Nb0 O11 1.959441 1_655
Nb0 O11 1.959441 1_654
Nb0 O3 2.014519 1_655
Nb0 O1 2.074905 1_655
Nb0 O5 2.088539 1_555
Nb1 O2 1.871722 1_555
Nb1 O10 1.993001 1_554
Nb1 O10 1.993001 1_555
Nb1 O0 2.046843 1_555
Nb1 O5 2.095159 1_555
Nb1 O14 2.182973 1_555
Nb2 O3 1.871722 1_555
Nb2 O9 1.993001 1_555
Nb2 O9 1.993001 1_554
Nb2 O0 2.046843 1_555
Nb2 O4 2.095159 1_555
Nb2 O13 2.182973 1_555
Nb3 O14 1.943272 1_545
Nb3 O13 1.943272 1_655
Nb3 O8 1.978042 1_555
Nb3 O8 1.978042 1_554
Nb3 O6 2.120942 1_555
Nb3 O15 2.120942 1_555
Nb4 O7 1.964295 1_465
Nb4 O7 1.964295 1_464
Nb4 O1 2.043852 1_555
Nb4 O5 2.108278 1_455
Nb4 O4 2.108278 1_565
Nb4 O14 2.204646 1_455
Nb4 O13 2.204646 1_565
Nb5 O6 1.945583 1_555
Nb5 O12 1.959441 1_544
Nb5 O12 1.959441 1_545
Nb5 O2 2.014519 1_545
Nb5 O1 2.074905 1_545
Nb5 O4 2.088539 1_555
O0 Sr0 2.593736 1_555
O0 Sr0 2.593736 1_554
O6 Sr0 2.689569 1_555
O6 Sr0 2.689569 1_554
O8 Sr0 2.610777 1_555
O9 Sr0 2.755414 1_555
O10 Sr0 2.755414 1_555
O15 Sr0 2.689569 1_555
O15 Sr0 2.689569 1_554
