# generated using pymatgen
data_Mg14CuBi
_symmetry_space_group_name_H-M   'P 1'
_cell_length_a   6.31921191
_cell_length_b   6.31180525
_cell_length_c   10.40146298
_cell_angle_alpha   90.00000000
_cell_angle_beta   90.00000000
_cell_angle_gamma   119.96124061
_symmetry_Int_Tables_number   1
_chemical_formula_structural   Mg14CuBi
_chemical_formula_sum   'Mg14 Cu1 Bi1'
_cell_volume   359.42729670
_cell_formula_units_Z   1
loop_
 _symmetry_equiv_pos_site_id
 _symmetry_equiv_pos_as_xyz
  1  'x, y, z'
loop_
 _atom_site_type_symbol
 _atom_site_label
 _atom_site_symmetry_multiplicity
 _atom_site_fract_x
 _atom_site_fract_y
 _atom_site_fract_z
 _atom_site_occupancy
  Mg  Mg0  1  0.16728250  0.33364075  0.62500000  1
  Mg  Mg1  1  0.16785930  0.83392915  0.62500000  1
  Mg  Mg2  1  0.66796897  0.33458417  0.12500000  1
  Mg  Mg3  1  0.66503652  0.33170777  0.62500000  1
  Mg  Mg4  1  0.66796897  0.83338380  0.12500000  1
  Mg  Mg5  1  0.66503652  0.83332775  0.62500000  1
  Mg  Mg6  1  0.33332889  0.17347106  0.37329955  1
  Mg  Mg7  1  0.33332889  0.17347106  0.87670045  1
  Mg  Mg8  1  0.33332889  0.65985883  0.37329955  1
  Mg  Mg9  1  0.33332889  0.65985883  0.87670045  1
  Mg  Mg10  1  0.83851260  0.16925680  0.37062553  1
  Mg  Mg11  1  0.83851260  0.16925680  0.87937447  1
  Mg  Mg12  1  0.82903690  0.66451895  0.38189766  1
  Mg  Mg13  1  0.82903690  0.66451895  0.86810234  1
  Cu  Cu0  1  0.16677269  0.33338584  0.12500000  1
  Bi  Bi0  1  0.16365995  0.83182947  0.12500000  1
loop_
_geom_bond_atom_site_label_1
_geom_bond_atom_site_label_2
_geom_bond_distance
_geom_bond_site_symmetry_2
Mg0 Mg5 3.151524 1_555
Mg0 Mg3 3.151524 1_555
Mg0 Mg1 3.155904 1_555
Mg0 Mg1 3.155904 1_545
Mg0 Mg5 3.167723 1_445
Mg0 Mg3 3.167723 1_455
Mg0 Mg7 3.168087 1_555
Mg0 Mg6 3.168087 1_555
Mg0 Mg9 3.168093 1_555
Mg0 Mg8 3.168093 1_555
Mg0 Mg10 3.200055 1_455
Mg0 Mg11 3.200055 1_455
Mg1 Mg13 3.136049 1_455
Mg1 Mg12 3.136049 1_455
Mg1 Mg3 3.143665 1_565
Mg1 Mg5 3.143666 1_555
Mg1 Mg3 3.175549 1_455
Mg1 Mg5 3.175550 1_455
Mg1 Mg9 3.209702 1_555
Mg1 Mg8 3.209702 1_555
Mg1 Mg7 3.209709 1_565
Mg1 Mg6 3.209709 1_565
Mg2 Mg6 3.166738 1_555
Mg2 Mg7 3.166738 1_554
Mg3 Mg5 3.145678 1_545
Mg3 Mg5 3.166128 1_555
Mg3 Mg7 3.186598 1_555
Mg3 Mg6 3.186598 1_555
Mg4 Mg9 3.166738 1_554
Mg4 Mg8 3.166738 1_555
Mg5 Mg9 3.186598 1_555
Mg5 Mg8 3.186598 1_555
Mg6 Mg8 3.069985 1_555
Mg6 Mg8 3.241820 1_545
Mg7 Mg9 3.069985 1_555
Mg7 Mg9 3.241820 1_545
Mg10 Mg8 3.113774 1_655
Mg10 Mg6 3.113774 1_655
Mg10 Mg2 3.146581 1_555
Mg10 Mg4 3.146588 1_545
Mg10 Mg12 3.158506 1_545
Mg10 Mg12 3.158506 1_555
Mg10 Mg8 3.205850 1_545
Mg10 Mg6 3.205851 1_555
Mg10 Mg3 3.221244 1_555
Mg10 Mg5 3.221250 1_545
Mg11 Mg9 3.113774 1_655
Mg11 Mg7 3.113774 1_655
Mg11 Mg2 3.146581 1_556
Mg11 Mg4 3.146588 1_546
Mg11 Mg13 3.158506 1_545
Mg11 Mg13 3.158506 1_555
Mg11 Mg9 3.205850 1_545
Mg11 Mg7 3.205851 1_555
Mg11 Mg3 3.221244 1_555
Mg11 Mg5 3.221250 1_545
Mg12 Mg5 3.115468 1_555
Mg12 Mg3 3.115474 1_555
Mg12 Mg6 3.119181 1_555
Mg12 Mg8 3.119181 1_555
Mg12 Mg6 3.202768 1_665
Mg12 Mg8 3.202768 1_655
Mg12 Mg4 3.224241 1_555
Mg12 Mg2 3.224247 1_555
Mg13 Mg5 3.115468 1_555
Mg13 Mg3 3.115474 1_555
Mg13 Mg7 3.119181 1_555
Mg13 Mg9 3.119181 1_555
Mg13 Mg7 3.202768 1_665
Mg13 Mg9 3.202768 1_655
Mg13 Mg4 3.224241 1_556
Mg13 Mg2 3.224247 1_556
Cu0 Mg11 3.123625 1_454
Cu0 Mg10 3.123625 1_455
Cu0 Mg6 3.139727 1_555
Cu0 Mg7 3.139727 1_554
Cu0 Mg8 3.139733 1_555
Cu0 Mg9 3.139733 1_554
Cu0 Mg4 3.155830 1_445
Cu0 Mg2 3.155831 1_455
Cu0 Mg4 3.163395 1_555
Cu0 Mg2 3.163395 1_555
Bi0 Mg2 3.137287 1_455
Bi0 Mg4 3.137287 1_455
Bi0 Cu0 3.155949 1_565
Bi0 Cu0 3.155949 1_555
Bi0 Mg2 3.181947 1_565
Bi0 Mg4 3.181947 1_555
Bi0 Mg8 3.187538 1_555
Bi0 Mg9 3.187538 1_554
Bi0 Mg6 3.187544 1_565
Bi0 Mg7 3.187544 1_564
Bi0 Mg13 3.239800 1_454
Bi0 Mg12 3.239800 1_455
