# generated using pymatgen
data_Ca9Si4O17F
_symmetry_space_group_name_H-M   'P 1'
_cell_length_a   5.11797200
_cell_length_b   11.47362100
_cell_length_c   15.51805508
_cell_angle_alpha   79.29062768
_cell_angle_beta   90.00000000
_cell_angle_gamma   90.00000000
_symmetry_Int_Tables_number   1
_chemical_formula_structural   Ca9Si4O17F
_chemical_formula_sum   'Ca18 Si8 O34 F2'
_cell_volume   895.37441623
_cell_formula_units_Z   2
loop_
 _symmetry_equiv_pos_site_id
 _symmetry_equiv_pos_as_xyz
  1  'x, y, z'
loop_
 _atom_site_type_symbol
 _atom_site_label
 _atom_site_symmetry_multiplicity
 _atom_site_fract_x
 _atom_site_fract_y
 _atom_site_fract_z
 _atom_site_occupancy
  Ca  Ca0  1  0.00706300  0.87683700  0.04147700  1
  Ca  Ca1  1  0.98984600  0.62068100  0.95417400  1
  Ca  Ca2  1  0.50706300  0.12316300  0.95852300  1
  Ca  Ca3  1  0.48984600  0.37931900  0.04582600  1
  Ca  Ca4  1  0.00731500  0.80399300  0.27274200  1
  Ca  Ca5  1  0.99724900  0.69656700  0.72561300  1
  Ca  Ca6  1  0.50731500  0.19600700  0.72725800  1
  Ca  Ca7  1  0.49724900  0.30343300  0.27438700  1
  Ca  Ca8  1  0.99458700  0.49636200  0.38923000  1
  Ca  Ca9  1  0.00617600  0.00381600  0.61125500  1
  Ca  Ca10  1  0.49458700  0.50363800  0.61077000  1
  Ca  Ca11  1  0.50617600  0.99618400  0.38874500  1
  Ca  Ca12  1  0.99965600  0.75013700  0.49977700  1
  Ca  Ca13  1  0.49965600  0.24986300  0.50022300  1
  Ca  Ca14  1  0.50187200  0.61492000  0.17322000  1
  Ca  Ca15  1  0.50357400  0.88528700  0.82907500  1
  Ca  Ca16  1  0.00187200  0.38508000  0.82678000  1
  Ca  Ca17  1  0.00357400  0.11471300  0.17092500  1
  Si  Si0  1  0.42823300  0.68213300  0.38949300  1
  Si  Si1  1  0.57193300  0.81821300  0.61066800  1
  Si  Si2  1  0.92823300  0.31786700  0.61050700  1
  Si  Si3  1  0.07193300  0.18178700  0.38933200  1
  Si  Si4  1  0.42892800  0.57024200  0.83262800  1
  Si  Si5  1  0.57739700  0.92954400  0.16503200  1
  Si  Si6  1  0.92892800  0.42975800  0.16737200  1
  Si  Si7  1  0.07739700  0.07045600  0.83496800  1
  O  O0  1  0.29707700  0.63719200  0.30325900  1
  O  O1  1  0.70209500  0.86286300  0.69722900  1
  O  O2  1  0.79707700  0.36280800  0.69674100  1
  O  O3  1  0.20209500  0.13713700  0.30277100  1
  O  O4  1  0.29722200  0.59558100  0.47642700  1
  O  O5  1  0.70293300  0.90472200  0.52375300  1
  O  O6  1  0.79722200  0.40441900  0.52357300  1
  O  O7  1  0.20293300  0.09527800  0.47624700  1
  O  O8  1  0.80238700  0.52207000  0.08198100  1
  O  O9  1  0.21262300  0.98160800  0.92004900  1
  O  O10  1  0.30238700  0.47793000  0.91801900  1
  O  O11  1  0.71262300  0.01839200  0.07995100  1
  O  O12  1  0.79719800  0.46925200  0.25534600  1
  O  O13  1  0.20583500  0.03010700  0.74648300  1
  O  O14  1  0.29719800  0.53074800  0.74465400  1
  O  O15  1  0.70583500  0.96989300  0.25351700  1
  O  O16  1  0.24929100  0.42863100  0.16618400  1
  O  O17  1  0.75650700  0.06947100  0.83771600  1
  O  O18  1  0.74929100  0.57136900  0.83381600  1
  O  O19  1  0.25650700  0.93052900  0.16228400  1
  O  O20  1  0.70597600  0.79699100  0.16155000  1
  O  O21  1  0.29681000  0.70119000  0.83854100  1
  O  O22  1  0.20597600  0.20300900  0.83845000  1
  O  O23  1  0.79681000  0.29881000  0.16145900  1
  O  O24  1  0.20224800  0.31582700  0.38806300  1
  O  O25  1  0.79788500  0.18385800  0.61210800  1
  O  O26  1  0.70224800  0.68417300  0.61193700  1
  O  O27  1  0.29788500  0.81614200  0.38789200  1
  O  O28  1  0.74928100  0.68410700  0.38788900  1
  O  O29  1  0.25089400  0.81628800  0.61181300  1
  O  O30  1  0.24928100  0.31589300  0.61211100  1
  O  O31  1  0.75089400  0.18371200  0.38818700  1
  O  O32  1  0.22247600  0.69475600  0.05941600  1
  O  O33  1  0.72247600  0.30524400  0.94058400  1
  F  F0  1  0.77083400  0.79676400  0.94002300  1
  F  F1  1  0.27083400  0.20323600  0.05997700  1
loop_
_geom_bond_atom_site_label_1
_geom_bond_atom_site_label_2
_geom_bond_distance
_geom_bond_site_symmetry_2
Ca0 O9 2.293620 1_554
Ca0 F0 2.306941 1_454
Ca0 O32 2.332652 1_555
Ca0 O11 2.371826 1_465
Ca0 O19 2.439880 1_555
Ca0 O20 2.459937 1_455
Ca1 F0 2.285038 1_555
Ca1 O8 2.302205 1_556
Ca1 O32 2.307143 1_656
Ca1 O18 2.391021 1_555
Ca1 O10 2.428492 1_655
Ca1 O21 2.434185 1_655
Ca2 O11 2.293620 1_556
Ca2 F1 2.306941 1_556
Ca2 O33 2.332652 1_555
Ca2 O9 2.371826 1_545
Ca2 O17 2.439880 1_555
Ca2 O22 2.459937 1_555
Ca3 F1 2.285038 1_555
Ca3 O10 2.302205 1_554
Ca3 O33 2.307143 1_554
Ca3 O16 2.391021 1_555
Ca3 O8 2.428492 1_555
Ca3 O23 2.434185 1_555
Ca4 O20 2.326754 1_455
Ca4 O27 2.348741 1_555
Ca4 O19 2.397408 1_555
Ca4 O0 2.397785 1_555
Ca4 O15 2.425265 1_455
Ca4 O28 2.432173 1_455
Ca5 O21 2.336424 1_655
Ca5 O26 2.346225 1_555
Ca5 O18 2.365772 1_555
Ca5 O29 2.406055 1_655
Ca5 O1 2.409165 1_555
Ca5 O14 2.419644 1_655
Ca6 O22 2.326754 1_555
Ca6 O25 2.348741 1_555
Ca6 O17 2.397408 1_555
Ca6 O2 2.397785 1_555
Ca6 O13 2.425265 1_555
Ca6 O30 2.432173 1_555
Ca7 O23 2.336424 1_555
Ca7 O24 2.346225 1_555
Ca7 O16 2.365772 1_555
Ca7 O31 2.406055 1_555
Ca7 O3 2.409165 1_555
Ca7 O12 2.419644 1_555
Ca8 O24 2.331197 1_655
Ca8 O6 2.379489 1_555
Ca8 O12 2.382016 1_555
Ca8 O0 2.446690 1_655
Ca8 O4 2.469500 1_655
Ca8 O28 2.490018 1_555
Ca9 O25 2.326802 1_455
Ca9 O7 2.384840 1_555
Ca9 O13 2.402921 1_555
Ca9 O1 2.452657 1_445
Ca9 O5 2.473646 1_445
Ca9 O29 2.488232 1_545
Ca10 O26 2.331197 1_555
Ca10 O4 2.379489 1_555
Ca10 O14 2.382016 1_555
Ca10 O2 2.446690 1_555
Ca10 O6 2.469500 1_555
Ca10 O30 2.490018 1_555
Ca11 O27 2.326802 1_555
Ca11 O5 2.384840 1_555
Ca11 O15 2.402921 1_555
Ca11 O3 2.452657 1_565
Ca11 O7 2.473646 1_565
Ca11 O31 2.488232 1_565
Ca12 O27 2.330031 1_655
Ca12 O26 2.330121 1_555
Ca12 O28 2.391557 1_555
Ca12 O29 2.396354 1_655
Ca12 O4 2.415385 1_655
Ca12 O5 2.415725 1_555
Ca13 O25 2.330031 1_555
Ca13 O24 2.330121 1_555
Ca13 O30 2.391557 1_555
Ca13 O31 2.396354 1_555
Ca13 O6 2.415385 1_555
Ca13 O7 2.415725 1_555
Ca14 O20 2.312436 1_555
Ca14 O32 2.324090 1_555
Ca14 O0 2.329736 1_555
Ca14 O12 2.431147 1_555
Ca14 O8 2.462857 1_555
Ca14 O16 2.517589 1_555
Ca15 F0 2.284052 1_555
Ca15 O1 2.340989 1_555
Ca15 O21 2.342587 1_555
Ca15 O13 2.436013 1_565
Ca15 O9 2.451851 1_555
Ca15 O17 2.502977 1_565
Ca16 O22 2.312436 1_555
Ca16 O33 2.324090 1_455
Ca16 O2 2.329736 1_455
Ca16 O14 2.431147 1_555
Ca16 O10 2.462857 1_555
Ca16 O18 2.517589 1_455
Ca17 F1 2.284052 1_555
Ca17 O3 2.340989 1_555
Ca17 O23 2.342587 1_455
Ca17 O15 2.436013 1_445
Ca17 O11 2.451851 1_455
Ca17 O19 2.502977 1_545
O0 Si0 1.662421 1_555
O1 Si1 1.663226 1_555
O2 Si2 1.662421 1_555
O3 Si3 1.663226 1_555
O4 Si0 1.660659 1_555
O5 Si1 1.660208 1_555
O6 Si2 1.660659 1_555
O7 Si3 1.660208 1_555
O8 Si6 1.665988 1_555
O9 Si7 1.661664 1_565
O10 Si4 1.665988 1_555
O11 Si5 1.661664 1_545
O12 Si6 1.659371 1_555
O13 Si7 1.663767 1_555
O14 Si4 1.659371 1_555
O15 Si5 1.663767 1_555
O16 Si6 1.639791 1_455
O17 Si7 1.642844 1_655
O18 Si4 1.639791 1_555
O19 Si5 1.642844 1_555
O20 Si5 1.667193 1_555
O21 Si4 1.665599 1_555
O22 Si7 1.667193 1_555
O23 Si6 1.665599 1_555
O24 Si3 1.673070 1_555
O25 Si2 1.672000 1_555
O26 Si1 1.673070 1_555
O27 Si0 1.672000 1_555
O28 Si0 1.643396 1_555
O29 Si1 1.643269 1_555
O30 Si2 1.643396 1_455
O31 Si3 1.643269 1_655
