# generated using pymatgen
data_CeTlZn
_symmetry_space_group_name_H-M   'P 1'
_cell_length_a   4.82857868
_cell_length_b   4.82857868
_cell_length_c   7.46827500
_cell_angle_alpha   90.00000000
_cell_angle_beta   90.00000000
_cell_angle_gamma   120.00000935
_symmetry_Int_Tables_number   1
_chemical_formula_structural   CeTlZn
_chemical_formula_sum   'Ce2 Tl2 Zn2'
_cell_volume   150.79589440
_cell_formula_units_Z   2
loop_
 _symmetry_equiv_pos_site_id
 _symmetry_equiv_pos_as_xyz
  1  'x, y, z'
loop_
 _atom_site_type_symbol
 _atom_site_label
 _atom_site_symmetry_multiplicity
 _atom_site_fract_x
 _atom_site_fract_y
 _atom_site_fract_z
 _atom_site_occupancy
  Ce  Ce0  1  0.00000000  0.00000000  0.50000000  1
  Ce  Ce1  1  0.00000000  0.00000000  0.00000000  1
  Tl  Tl0  1  0.33333300  0.66666700  0.25000000  1
  Tl  Tl1  1  0.66666700  0.33333300  0.75000000  1
  Zn  Zn0  1  0.33333300  0.66666700  0.75000000  1
  Zn  Zn1  1  0.66666700  0.33333300  0.25000000  1
loop_
_geom_bond_atom_site_label_1
_geom_bond_atom_site_label_2
_geom_bond_distance
_geom_bond_site_symmetry_2
Ce0 Zn0 3.355243 1_545
Ce0 Tl0 3.355243 1_545
Ce0 Tl1 3.355243 1_455
Ce0 Zn1 3.355243 1_455
Ce0 Tl1 3.355246 1_555
Ce0 Tl1 3.355246 1_445
Ce0 Zn0 3.355246 1_445
Ce0 Zn0 3.355246 1_555
Ce0 Zn1 3.355246 1_445
Ce0 Tl0 3.355246 1_555
Ce0 Tl0 3.355246 1_445
Ce0 Zn1 3.355246 1_555
Ce1 Zn0 3.355243 1_544
Ce1 Tl0 3.355243 1_545
Ce1 Tl1 3.355243 1_454
Ce1 Zn1 3.355243 1_455
Ce1 Tl1 3.355246 1_554
Ce1 Zn0 3.355246 1_444
Ce1 Zn1 3.355246 1_445
Ce1 Tl1 3.355246 1_444
Ce1 Tl0 3.355246 1_555
Ce1 Zn0 3.355246 1_554
Ce1 Tl0 3.355246 1_445
Ce1 Zn1 3.355246 1_555
Tl0 Zn1 2.787778 1_455
Tl0 Zn1 2.787778 1_565
Tl0 Zn1 2.787787 1_555
Tl1 Zn0 2.787778 1_545
Tl1 Zn0 2.787778 1_655
Tl1 Zn0 2.787787 1_555
