# generated using pymatgen
data_Tm2NiAs2
_symmetry_space_group_name_H-M   'P 1'
_cell_length_a   4.04289410
_cell_length_b   4.04289479
_cell_length_c   13.92534429
_cell_angle_alpha   90.00000000
_cell_angle_beta   90.00000000
_cell_angle_gamma   119.99999437
_symmetry_Int_Tables_number   1
_chemical_formula_structural   Tm2NiAs2
_chemical_formula_sum   'Tm4 Ni2 As4'
_cell_volume   197.11578449
_cell_formula_units_Z   2
loop_
 _symmetry_equiv_pos_site_id
 _symmetry_equiv_pos_as_xyz
  1  'x, y, z'
loop_
 _atom_site_type_symbol
 _atom_site_label
 _atom_site_symmetry_multiplicity
 _atom_site_fract_x
 _atom_site_fract_y
 _atom_site_fract_z
 _atom_site_occupancy
  Tm  Tm0  1  0.33333300  0.66666700  0.88243353  1
  Tm  Tm1  1  0.66666700  0.33333300  0.38243353  1
  Tm  Tm2  1  0.66666700  0.33333300  0.11756647  1
  Tm  Tm3  1  0.33333300  0.66666700  0.61756647  1
  Ni  Ni0  1  -0.00000000  -0.00000000  0.75000000  1
  Ni  Ni1  1  -0.00000000  0.00000000  0.25000000  1
  As  As0  1  0.00000000  -0.00000000  -0.00000000  1
  As  As1  1  0.33333300  0.66666700  0.25000000  1
  As  As2  1  0.66666700  0.33333300  0.75000000  1
  As  As3  1  0.00000000  -0.00000000  0.50000000  1
loop_
_geom_bond_atom_site_label_1
_geom_bond_atom_site_label_2
_geom_bond_distance
_geom_bond_site_symmetry_2
Ni0 Tm3 2.974782 1_545
Ni0 Tm0 2.974782 1_545
Ni0 Tm3 2.974785 1_445
Ni0 Tm0 2.974785 1_445
Ni0 Tm0 2.974785 1_555
Ni0 Tm3 2.974785 1_555
Ni1 Tm1 2.974782 1_455
Ni1 Tm2 2.974782 1_455
Ni1 Tm2 2.974785 1_555
Ni1 Tm1 2.974785 1_555
Ni1 Tm2 2.974785 1_445
Ni1 Tm1 2.974785 1_445
As0 Tm0 2.851069 1_544
As0 Tm2 2.851069 1_455
As0 Tm2 2.851072 1_555
As0 Tm0 2.851072 1_444
As0 Tm0 2.851072 1_554
As0 Tm2 2.851072 1_445
As1 Ni1 2.334164 1_565
As1 Ni1 2.334167 1_665
As1 Ni1 2.334168 1_555
As1 Tm2 2.974782 1_455
As1 Tm1 2.974782 1_455
As1 Tm2 2.974783 1_565
As1 Tm1 2.974783 1_565
As1 Tm2 2.974788 1_555
As1 Tm1 2.974788 1_555
As2 Ni0 2.334164 1_655
As2 Ni0 2.334167 1_555
As2 Ni0 2.334168 1_665
As2 Tm3 2.974782 1_655
As2 Tm0 2.974782 1_655
As2 Tm0 2.974783 1_545
As2 Tm3 2.974783 1_545
As2 Tm3 2.974788 1_555
As2 Tm0 2.974788 1_555
As3 Tm1 2.851069 1_455
As3 Tm3 2.851069 1_545
As3 Tm3 2.851072 1_445
As3 Tm1 2.851072 1_555
As3 Tm3 2.851072 1_555
As3 Tm1 2.851072 1_445
