# generated using pymatgen
data_Sr2CaWO6
_symmetry_space_group_name_H-M   'P 1'
_cell_length_a   5.83883236
_cell_length_b   5.94588700
_cell_length_c   8.29088141
_cell_angle_alpha   90.00000000
_cell_angle_beta   90.25407121
_cell_angle_gamma   90.00000000
_symmetry_Int_Tables_number   1
_chemical_formula_structural   Sr2CaWO6
_chemical_formula_sum   'Sr4 Ca2 W2 O12'
_cell_volume   287.83201041
_cell_formula_units_Z   2
loop_
 _symmetry_equiv_pos_site_id
 _symmetry_equiv_pos_as_xyz
  1  'x, y, z'
loop_
 _atom_site_type_symbol
 _atom_site_label
 _atom_site_symmetry_multiplicity
 _atom_site_fract_x
 _atom_site_fract_y
 _atom_site_fract_z
 _atom_site_occupancy
  Sr  Sr0  1  0.49037700  0.04163100  0.24907900  1
  Sr  Sr1  1  0.99037700  0.45836900  0.74907900  1
  Sr  Sr2  1  0.50962300  0.95836900  0.75092100  1
  Sr  Sr3  1  0.00962300  0.54163100  0.25092100  1
  Ca  Ca0  1  0.50000000  0.50000000  0.00000000  1
  Ca  Ca1  1  0.00000000  0.00000000  0.50000000  1
  W  W0  1  0.50000000  0.50000000  0.50000000  1
  W  W1  1  0.00000000  0.00000000  0.00000000  1
  O  O0  1  0.41531100  0.52818900  0.72712700  1
  O  O1  1  0.91531100  0.97181100  0.22712700  1
  O  O2  1  0.58468900  0.47181100  0.27287300  1
  O  O3  1  0.08468900  0.02818900  0.77287300  1
  O  O4  1  0.23069200  0.31182800  0.45848800  1
  O  O5  1  0.73069200  0.18817200  0.95848800  1
  O  O6  1  0.76930800  0.68817200  0.54151200  1
  O  O7  1  0.26930800  0.81182800  0.04151200  1
  O  O8  1  0.31621500  0.76912000  0.45132500  1
  O  O9  1  0.81621500  0.73088000  0.95132500  1
  O  O10  1  0.68378500  0.23088000  0.54867500  1
  O  O11  1  0.18378500  0.26912000  0.04867500  1
loop_
_geom_bond_atom_site_label_1
_geom_bond_atom_site_label_2
_geom_bond_distance
_geom_bond_site_symmetry_2
Ca0 O7 2.318310 1_555
Ca0 O5 2.318310 1_554
Ca0 O2 2.319687 1_555
Ca0 O0 2.319687 1_554
Ca0 O11 2.337291 1_555
Ca0 O9 2.337291 1_554
Ca1 O6 2.318310 1_445
Ca1 O4 2.318310 1_555
Ca1 O1 2.319687 1_445
Ca1 O3 2.319687 1_555
Ca1 O10 2.337291 1_455
Ca1 O8 2.337291 1_545
O0 W0 1.956238 1_555
O0 Sr1 2.522979 1_455
O0 Sr2 2.623651 1_555
O1 W1 1.956238 1_665
O1 Sr0 2.522979 1_565
O1 Sr3 2.623651 1_655
O2 W0 1.956238 1_555
O2 Sr3 2.522979 1_655
O2 Sr0 2.623651 1_555
O3 W1 1.956238 1_556
O3 Sr2 2.522979 1_545
O3 Sr1 2.623651 1_455
O4 W0 1.959097 1_555
O4 Sr3 2.544596 1_555
O4 Sr0 2.813851 1_555
O4 Sr1 2.926182 1_455
O5 W1 1.959097 1_656
O5 Sr2 2.544596 1_545
O5 Sr1 2.813851 1_555
O5 Sr0 2.926182 1_556
O6 W0 1.959097 1_555
O6 Sr1 2.544596 1_555
O6 Sr2 2.813851 1_555
O6 Sr3 2.926182 1_655
O7 W1 1.959097 1_565
O7 Sr0 2.544596 1_565
O7 Sr3 2.813851 1_555
O7 Sr2 2.926182 1_554
O8 W0 1.967497 1_555
O8 Sr0 2.546821 1_565
O8 Sr3 2.787199 1_555
O8 Sr2 2.947273 1_555
O9 W1 1.967497 1_666
O9 Sr1 2.546821 1_555
O9 Sr2 2.787199 1_555
O9 Sr3 2.947273 1_656
O10 W0 1.967497 1_555
O10 Sr2 2.546821 1_545
O10 Sr1 2.787199 1_555
O10 Sr0 2.947273 1_555
O11 W1 1.967497 1_555
O11 Sr3 2.546821 1_555
O11 Sr0 2.787199 1_555
O11 Sr1 2.947273 1_454
