# generated using pymatgen
data_MgV8Ge4(O2F)8
_symmetry_space_group_name_H-M   'P 1'
_cell_length_a   5.10610476
_cell_length_b   9.20058409
_cell_length_c   9.65479518
_cell_angle_alpha   90.28763195
_cell_angle_beta   90.05401945
_cell_angle_gamma   91.13437102
_symmetry_Int_Tables_number   1
_chemical_formula_structural   MgV8Ge4(O2F)8
_chemical_formula_sum   'Mg1 V8 Ge4 O16 F8'
_cell_volume   453.47918046
_cell_formula_units_Z   1
loop_
 _symmetry_equiv_pos_site_id
 _symmetry_equiv_pos_as_xyz
  1  'x, y, z'
loop_
 _atom_site_type_symbol
 _atom_site_label
 _atom_site_symmetry_multiplicity
 _atom_site_fract_x
 _atom_site_fract_y
 _atom_site_fract_z
 _atom_site_occupancy
  Mg  Mg0  1  0.88708449  0.45065471  0.90117675  1
  V  V0  1  0.40437815  0.90767300  0.86665776  1
  V  V1  1  0.61405050  0.08459133  0.13398696  1
  V  V2  1  0.90000393  0.41213516  0.60871936  1
  V  V3  1  0.09613476  0.58745828  0.36487226  1
  V  V4  1  0.39703030  0.59564526  0.86652556  1
  V  V5  1  0.90191156  0.08259325  0.63222066  1
  V  V6  1  0.10087781  0.91839270  0.37103831  1
  V  V7  1  0.57994164  0.41402421  0.14021534  1
  Ge  Ge0  1  0.60592618  0.75072078  0.55268052  1
  Ge  Ge1  1  0.89690622  0.75967367  0.06593993  1
  Ge  Ge2  1  0.12528425  0.22371337  0.93988976  1
  Ge  Ge3  1  0.38963759  0.24747645  0.44060593  1
  O  O0  1  0.71056220  0.91227357  0.01635423  1
  O  O1  1  0.79956171  0.90664136  0.50518537  1
  O  O2  1  0.79281448  0.59344748  0.50297010  1
  O  O3  1  0.19651939  0.75665732  0.97301349  1
  O  O4  1  0.30322186  0.07619875  0.99142995  1
  O  O5  1  0.25728098  0.40259584  0.98151050  1
  O  O6  1  0.95426429  0.75427695  0.24660630  1
  O  O7  1  0.29553959  0.75214479  0.46496209  1
  O  O8  1  0.20200725  0.09453861  0.49873220  1
  O  O9  1  0.54719350  0.75506059  0.73429756  1
  O  O10  1  0.80267513  0.24755215  0.01836294  1
  O  O11  1  0.21365369  0.40776508  0.48857964  1
  O  O12  1  0.71801397  0.59745929  0.01098271  1
  O  O13  1  0.70036705  0.24721917  0.53238038  1
  O  O14  1  0.03394113  0.25293882  0.76054798  1
  O  O15  1  0.45179129  0.23863379  0.26086434  1
  F  F0  1  0.08172365  0.94379853  0.74915513  1
  F  F1  1  0.06426418  0.55474492  0.74661209  1
  F  F2  1  0.91199634  0.43832312  0.25760461  1
  F  F3  1  0.41751091  0.94433329  0.25452205  1
  F  F4  1  0.59221398  0.05808155  0.75129153  1
  F  F5  1  0.61165919  0.43952618  0.75647433  1
  F  F6  1  0.39846415  0.56999276  0.24773004  1
  F  F7  1  0.93109272  0.06390091  0.25419133  1
loop_
_geom_bond_atom_site_label_1
_geom_bond_atom_site_label_2
_geom_bond_distance
_geom_bond_site_symmetry_2
Mg0 O12 1.930563 1_556
Mg0 O5 2.098557 1_655
Mg0 O10 2.224411 1_556
Mg0 O14 2.397087 1_655
Ge0 O9 1.779598 1_555
Ge0 O1 1.788047 1_555
Ge0 O7 1.796558 1_555
Ge0 O2 1.812007 1_555
Ge1 O6 1.769547 1_555
Ge1 O3 1.774878 1_654
Ge1 O0 1.778919 1_555
Ge1 O12 1.811223 1_555
Ge2 O4 1.723344 1_555
Ge2 O5 1.809254 1_555
Ge2 O14 1.815510 1_555
Ge2 O10 1.830474 1_456
Ge3 O15 1.766206 1_555
Ge3 O8 1.779990 1_555
Ge3 O11 1.800911 1_555
Ge3 O13 1.816587 1_555
O0 V1 2.014992 1_565
O0 V0 2.127769 1_554
O1 V6 2.013667 1_655
O1 V5 2.084104 1_565
O2 V2 2.043770 1_555
O2 V3 2.045975 1_655
O3 V0 2.017271 1_555
O3 V4 2.084841 1_555
O4 V0 2.033779 1_545
O4 V1 2.099821 1_556
O5 V4 2.206244 1_555
O5 V7 2.249452 1_556
O6 V6 2.054028 1_655
O6 V3 2.060171 1_655
O7 V3 2.046643 1_555
O7 V6 2.054826 1_555
O8 V5 2.004888 1_455
O8 V6 2.087745 1_545
O9 V0 2.039774 1_555
O9 V4 2.084482 1_555
O10 V1 2.093676 1_555
O10 V7 2.253183 1_555
O11 V2 1.979272 1_455
O11 V3 2.139554 1_555
O12 V4 2.150836 1_554
O12 V7 2.208594 1_555
O13 V2 1.952106 1_555
O13 V5 2.087324 1_555
O14 V5 2.093562 1_455
O14 V2 2.195718 1_455
O15 V1 2.055884 1_555
O15 V7 2.089866 1_555
F0 V5 1.951211 1_465
F0 V0 2.033152 1_555
F1 Mg0 1.986245 1_455
F1 V2 2.033290 1_455
F1 V4 2.082220 1_555
F2 V3 1.942204 1_655
F2 V7 2.046478 1_555
F3 V6 1.981721 1_555
F3 V1 1.998172 1_565
F4 V5 1.965967 1_555
F4 V0 2.010098 1_545
F5 Mg0 1.982239 1_555
F5 V2 2.069131 1_555
F5 V4 2.107699 1_555
F6 V3 1.923363 1_555
F6 V7 2.008710 1_555
F7 V6 1.968711 1_645
F7 V1 2.003663 1_555
