# generated using pymatgen
data_K3P6N11
_symmetry_space_group_name_H-M   'P 1'
_cell_length_a   10.39297942
_cell_length_b   10.39297942
_cell_length_c   10.39297942
_cell_angle_alpha   90.00000000
_cell_angle_beta   90.00000000
_cell_angle_gamma   90.00000000
_symmetry_Int_Tables_number   1
_chemical_formula_structural   K3P6N11
_chemical_formula_sum   'K12 P24 N44'
_cell_volume   1122.58749966
_cell_formula_units_Z   4
loop_
 _symmetry_equiv_pos_site_id
 _symmetry_equiv_pos_as_xyz
  1  'x, y, z'
loop_
 _atom_site_type_symbol
 _atom_site_label
 _atom_site_symmetry_multiplicity
 _atom_site_fract_x
 _atom_site_fract_y
 _atom_site_fract_z
 _atom_site_occupancy
  K  K0  1  -0.00085553  -0.00085553  -0.00085553  1
  K  K1  1  0.24914447  0.25085553  0.74914447  1
  K  K2  1  0.25085553  0.74914447  0.24914447  1
  K  K3  1  0.74914447  0.24914447  0.25085553  1
  K  K4  1  0.49914447  0.50085553  0.00085553  1
  K  K5  1  0.50085553  0.00085553  0.49914447  1
  K  K6  1  0.00085553  0.49914447  0.50085553  1
  K  K7  1  0.75085553  0.75085553  0.75085553  1
  K  K8  1  0.87500000  0.12500000  0.62500000  1
  K  K9  1  0.12500000  0.62500000  0.87500000  1
  K  K10  1  0.62500000  0.87500000  0.12500000  1
  K  K11  1  0.37500000  0.37500000  0.37500000  1
  P  P0  1  0.67788876  0.44860743  0.53363956  1
  P  P1  1  0.17788876  0.05139257  0.46636044  1
  P  P2  1  0.44860743  0.53363956  0.67788876  1
  P  P3  1  0.55139257  0.03363956  0.82211124  1
  P  P4  1  0.53363956  0.67788876  0.44860743  1
  P  P5  1  0.96636044  0.32211124  0.94860743  1
  P  P6  1  0.42788876  0.78363956  0.80139257  1
  P  P7  1  0.92788876  0.71636044  0.19860743  1
  P  P8  1  0.57211124  0.28363956  0.69860743  1
  P  P9  1  0.71636044  0.19860743  0.92788876  1
  P  P10  1  0.69860743  0.57211124  0.28363956  1
  P  P11  1  0.19860743  0.92788876  0.71636044  1
  P  P12  1  0.78363956  0.80139257  0.42788876  1
  P  P13  1  0.80139257  0.42788876  0.78363956  1
  P  P14  1  0.28363956  0.69860743  0.57211124  1
  P  P15  1  0.21636044  0.30139257  0.07211124  1
  P  P16  1  0.30139257  0.07211124  0.21636044  1
  P  P17  1  0.46636044  0.17788876  0.05139257  1
  P  P18  1  0.03363956  0.82211124  0.55139257  1
  P  P19  1  0.94860743  0.96636044  0.32211124  1
  P  P20  1  0.05139257  0.46636044  0.17788876  1
  P  P21  1  0.82211124  0.55139257  0.03363956  1
  P  P22  1  0.32211124  0.94860743  0.96636044  1
  P  P23  1  0.07211124  0.21636044  0.30139257  1
  N  N0  1  0.54640963  0.54640963  0.54640963  1
  N  N1  1  0.79640963  0.70359037  0.29640963  1
  N  N2  1  0.70359037  0.29640963  0.79640963  1
  N  N3  1  0.29640963  0.79640963  0.70359037  1
  N  N4  1  0.04640963  0.95359037  0.45359037  1
  N  N5  1  0.95359037  0.45359037  0.04640963  1
  N  N6  1  0.45359037  0.04640963  0.95359037  1
  N  N7  1  0.20359037  0.20359037  0.20359037  1
  N  N8  1  0.62500000  0.30272342  0.55272342  1
  N  N9  1  0.69727658  0.05272342  0.87500000  1
  N  N10  1  0.55272342  0.62500000  0.30272342  1
  N  N11  1  0.94727658  0.37500000  0.80272342  1
  N  N12  1  0.30272342  0.55272342  0.62500000  1
  N  N13  1  0.44727658  0.12500000  0.19727658  1
  N  N14  1  0.05272342  0.87500000  0.69727658  1
  N  N15  1  0.80272342  0.94727658  0.37500000  1
  N  N16  1  0.19727658  0.44727658  0.12500000  1
  N  N17  1  0.87500000  0.69727658  0.05272342  1
  N  N18  1  0.37500000  0.80272342  0.94727658  1
  N  N19  1  0.27859929  0.01371039  0.35508024  1
  N  N20  1  0.12500000  0.19727658  0.44727658  1
  N  N21  1  0.23628961  0.02859929  0.60508024  1
  N  N22  1  0.47140071  0.39491976  0.73628961  1
  N  N23  1  0.52859929  0.89491976  0.76371039  1
  N  N24  1  0.39491976  0.73628961  0.47140071  1
  N  N25  1  0.10508024  0.26371039  0.97140071  1
  N  N26  1  0.48628961  0.64491976  0.77859929  1
  N  N27  1  0.98628961  0.85508024  0.22140071  1
  N  N28  1  0.51371039  0.14491976  0.72140071  1
  N  N29  1  0.85508024  0.22140071  0.98628961  1
  N  N30  1  0.72140071  0.51371039  0.14491976  1
  N  N31  1  0.22140071  0.98628961  0.85508024  1
  N  N32  1  0.64491976  0.77859929  0.48628961  1
  N  N33  1  0.77859929  0.48628961  0.64491976  1
  N  N34  1  0.14491976  0.72140071  0.51371039  1
  N  N35  1  0.35508024  0.27859929  0.01371039  1
  N  N36  1  0.01371039  0.35508024  0.27859929  1
  N  N37  1  0.26371039  0.97140071  0.10508024  1
  N  N38  1  0.76371039  0.52859929  0.89491976  1
  N  N39  1  0.02859929  0.60508024  0.23628961  1
  N  N40  1  0.97140071  0.10508024  0.26371039  1
  N  N41  1  0.89491976  0.76371039  0.52859929  1
  N  N42  1  0.60508024  0.23628961  0.02859929  1
  N  N43  1  0.73628961  0.47140071  0.39491976  1
loop_
_geom_bond_atom_site_label_1
_geom_bond_atom_site_label_2
_geom_bond_distance
_geom_bond_site_symmetry_2
K0 N29 2.755955 1_454
K0 N27 2.755955 1_445
K0 N31 2.755955 1_544
K0 N37 2.975865 1_545
K0 N40 2.975865 1_455
K0 N25 2.975865 1_554
K1 N21 2.755955 1_555
K1 N25 2.755955 1_555
K1 N22 2.755955 1_555
K1 N28 2.975865 1_555
K1 N35 2.975865 1_556
K1 N31 2.975865 1_545
K2 N39 2.755955 1_555
K2 N37 2.755955 1_555
K2 N24 2.755955 1_555
K2 N34 2.975865 1_555
K2 N27 2.975865 1_455
K2 N19 2.975865 1_565
K3 N42 2.755955 1_555
K3 N43 2.755955 1_555
K3 N40 2.755955 1_555
K3 N30 2.975865 1_555
K3 N36 2.975865 1_655
K3 N29 2.975865 1_554
K4 N26 2.755955 1_554
K4 N30 2.755955 1_555
K4 N35 2.755955 1_555
K4 N22 2.975865 1_554
K4 N38 2.975865 1_554
K4 N42 2.975865 1_555
K5 N32 2.755955 1_545
K5 N28 2.755955 1_555
K5 N19 2.755955 1_555
K5 N23 2.975865 1_545
K5 N24 2.975865 1_545
K5 N21 2.975865 1_555
K6 N33 2.755955 1_455
K6 N34 2.755955 1_555
K6 N36 2.755955 1_555
K6 N41 2.975865 1_455
K6 N43 2.975865 1_455
K6 N39 2.975865 1_555
K7 N38 2.755955 1_555
K7 N23 2.755955 1_555
K7 N41 2.755955 1_555
K7 N26 2.975865 1_555
K7 N32 2.975865 1_555
K7 N33 2.975865 1_555
K8 N2 3.085574 1_555
K8 N4 3.085574 1_645
K8 N15 3.275182 1_545
K8 N11 3.275182 1_555
K8 N9 3.275182 1_555
K8 N8 3.275182 1_555
K8 N20 3.275182 1_655
K8 N14 3.275182 1_645
K9 N3 3.085574 1_555
K9 N5 3.085574 1_456
K9 N17 3.275182 1_456
K9 N14 3.275182 1_555
K9 N18 3.275182 1_555
K9 N16 3.275182 1_556
K9 N12 3.275182 1_555
K9 N11 3.275182 1_455
K10 N1 3.085574 1_555
K10 N6 3.085574 1_564
K10 N15 3.275182 1_555
K10 N9 3.275182 1_564
K10 N18 3.275182 1_554
K10 N17 3.275182 1_555
K10 N13 3.275182 1_565
K10 N10 3.275182 1_555
K11 N0 3.085574 1_555
K11 N7 3.085574 1_555
K11 N8 3.275182 1_555
K11 N13 3.275182 1_555
K11 N10 3.275182 1_555
K11 N12 3.275182 1_555
K11 N16 3.275182 1_555
K11 N20 3.275182 1_555
N0 P0 1.708218 1_555
N0 P2 1.708218 1_555
N0 P4 1.708218 1_555
N1 P10 1.708218 1_555
N1 P12 1.708218 1_555
N1 P7 1.708218 1_555
N2 P13 1.708218 1_555
N2 P8 1.708218 1_555
N2 P9 1.708218 1_555
N3 P11 1.708218 1_555
N3 P6 1.708218 1_555
N3 P14 1.708218 1_555
N4 P19 1.708218 1_455
N4 P18 1.708218 1_555
N4 P1 1.708218 1_565
N5 P21 1.708218 1_555
N5 P20 1.708218 1_655
N5 P5 1.708218 1_554
N6 P22 1.708218 1_545
N6 P17 1.708218 1_556
N6 P3 1.708218 1_555
N7 P16 1.708218 1_555
N7 P23 1.708218 1_555
N7 P15 1.708218 1_555
N8 P0 1.624884 1_555
N8 P8 1.624884 1_555
N9 P9 1.624884 1_555
N9 P3 1.624884 1_555
N10 P4 1.624884 1_555
N10 P10 1.624884 1_555
N11 P5 1.624884 1_555
N11 P13 1.624884 1_555
N12 P2 1.624884 1_555
N12 P14 1.624884 1_555
N13 P16 1.624884 1_555
N13 P17 1.624884 1_555
N14 P11 1.624884 1_555
N14 P18 1.624884 1_555
N15 P19 1.624884 1_555
N15 P12 1.624884 1_555
N16 P15 1.624884 1_555
N16 P20 1.624884 1_555
N17 P7 1.624884 1_555
N17 P21 1.624884 1_555
N18 P6 1.624884 1_555
N18 P22 1.624884 1_555
N19 P16 1.582103 1_555
N19 P1 1.608256 1_555
N20 P23 1.624884 1_555
N20 P1 1.624884 1_555
N21 P1 1.582103 1_555
N21 P11 1.608256 1_545
N22 P2 1.582103 1_555
N22 P8 1.608256 1_555
N23 P3 1.582103 1_565
N23 P6 1.608256 1_555
N24 P4 1.582103 1_555
N24 P14 1.608256 1_555
N25 P5 1.582103 1_455
N25 P15 1.608256 1_556
N26 P6 1.582103 1_555
N26 P2 1.608256 1_555
N27 P7 1.582103 1_555
N27 P19 1.608256 1_555
N28 P8 1.582103 1_555
N28 P3 1.608256 1_555
N29 P9 1.582103 1_555
N29 P5 1.608256 1_555
N30 P10 1.582103 1_555
N30 P21 1.608256 1_555
N31 P11 1.582103 1_555
N31 P22 1.608256 1_555
N32 P12 1.582103 1_555
N32 P4 1.608256 1_555
N33 P13 1.582103 1_555
N33 P0 1.608256 1_555
N34 P14 1.582103 1_555
N34 P18 1.608256 1_555
N35 P15 1.582103 1_555
N35 P17 1.608256 1_555
N36 P23 1.582103 1_555
N36 P20 1.608256 1_555
N37 P22 1.582103 1_554
N37 P16 1.608256 1_565
N38 P21 1.582103 1_556
N38 P13 1.608256 1_555
N39 P20 1.582103 1_555
N39 P7 1.608256 1_455
N40 P19 1.582103 1_545
N40 P23 1.608256 1_655
N41 P18 1.582103 1_655
N41 P12 1.608256 1_555
N42 P17 1.582103 1_555
N42 P9 1.608256 1_554
N43 P0 1.582103 1_555
N43 P10 1.608256 1_555
