# generated using pymatgen
data_AlSbO3
_symmetry_space_group_name_H-M   'P 1'
_cell_length_a   5.25939600
_cell_length_b   5.35129900
_cell_length_c   9.21267100
_cell_angle_alpha   90.00000000
_cell_angle_beta   90.00000000
_cell_angle_gamma   90.00000000
_symmetry_Int_Tables_number   1
_chemical_formula_structural   AlSbO3
_chemical_formula_sum   'Al4 Sb4 O12'
_cell_volume   259.28694534
_cell_formula_units_Z   4
loop_
 _symmetry_equiv_pos_site_id
 _symmetry_equiv_pos_as_xyz
  1  'x, y, z'
loop_
 _atom_site_type_symbol
 _atom_site_label
 _atom_site_symmetry_multiplicity
 _atom_site_fract_x
 _atom_site_fract_y
 _atom_site_fract_z
 _atom_site_occupancy
  Al  Al0  1  0.95934400  0.53511300  0.75000000  1
  Al  Al1  1  0.45934400  0.96488700  0.25000000  1
  Al  Al2  1  0.54065600  0.03511300  0.75000000  1
  Al  Al3  1  0.04065600  0.46488700  0.25000000  1
  Sb  Sb0  1  0.00000000  0.00000000  0.50000000  1
  Sb  Sb1  1  0.50000000  0.50000000  0.50000000  1
  Sb  Sb2  1  0.50000000  0.50000000  0.00000000  1
  Sb  Sb3  1  0.00000000  0.00000000  0.00000000  1
  O  O0  1  0.63241100  0.85561900  0.40176000  1
  O  O1  1  0.13241100  0.64438100  0.59824000  1
  O  O2  1  0.86758900  0.35561900  0.09824000  1
  O  O3  1  0.36758900  0.14438100  0.90176000  1
  O  O4  1  0.36758900  0.14438100  0.59824000  1
  O  O5  1  0.86758900  0.35561900  0.40176000  1
  O  O6  1  0.13241100  0.64438100  0.90176000  1
  O  O7  1  0.63241100  0.85561900  0.09824000  1
  O  O8  1  0.16028800  0.78519500  0.25000000  1
  O  O9  1  0.66028800  0.71480500  0.75000000  1
  O  O10  1  0.33971200  0.28519500  0.25000000  1
  O  O11  1  0.83971200  0.21480500  0.75000000  1
loop_
_geom_bond_atom_site_label_1
_geom_bond_atom_site_label_2
_geom_bond_distance
_geom_bond_site_symmetry_2
Al0 O1 1.767808 1_655
Al0 O6 1.767808 1_655
Al0 O11 1.825896 1_555
Al0 O9 1.843507 1_555
Al1 O7 1.767808 1_555
Al1 O0 1.767808 1_555
Al1 O10 1.825896 1_565
Al1 O8 1.843507 1_555
Al2 O4 1.767808 1_555
Al2 O3 1.767808 1_555
Al2 O9 1.825896 1_545
Al2 O11 1.843507 1_555
Al3 O5 1.767808 1_455
Al3 O2 1.767808 1_455
Al3 O8 1.825896 1_555
Al3 O10 1.843507 1_555
O0 Sb1 2.219368 1_555
O0 Sb0 2.270177 1_665
O1 Sb0 2.219368 1_565
O1 Sb1 2.270177 1_555
O2 Sb3 2.219368 1_655
O2 Sb2 2.270177 1_555
O3 Sb2 2.219368 1_556
O3 Sb3 2.270177 1_556
O4 Sb1 2.219368 1_555
O4 Sb0 2.270177 1_555
O5 Sb0 2.219368 1_655
O5 Sb1 2.270177 1_555
O6 Sb3 2.219368 1_566
O6 Sb2 2.270177 1_556
O7 Sb2 2.219368 1_555
O7 Sb3 2.270177 1_665
O8 Sb3 2.708612 1_565
O8 Sb0 2.708612 1_565
O9 Sb1 2.708612 1_555
O9 Sb2 2.708612 1_556
O10 Sb1 2.708612 1_555
O10 Sb2 2.708612 1_555
O11 Sb3 2.708612 1_656
O11 Sb0 2.708612 1_655
