# generated using pymatgen
data_Y4Mg(BiO3)4
_symmetry_space_group_name_H-M   'P 1'
_cell_length_a   6.52378295
_cell_length_b   6.10986241
_cell_length_c   8.39386200
_cell_angle_alpha   90.00009479
_cell_angle_beta   89.99994621
_cell_angle_gamma   90.43377050
_symmetry_Int_Tables_number   1
_chemical_formula_structural   Y4Mg(BiO3)4
_chemical_formula_sum   'Y4 Mg1 Bi4 O12'
_cell_volume   334.56485085
_cell_formula_units_Z   1
loop_
 _symmetry_equiv_pos_site_id
 _symmetry_equiv_pos_as_xyz
  1  'x, y, z'
loop_
 _atom_site_type_symbol
 _atom_site_label
 _atom_site_symmetry_multiplicity
 _atom_site_fract_x
 _atom_site_fract_y
 _atom_site_fract_z
 _atom_site_occupancy
  Y  Y0  1  0.99187500  0.98781100  0.75000100  1
  Y  Y1  1  0.40275700  0.52920100  0.25000000  1
  Y  Y2  1  0.52734300  0.49855900  0.75000000  1
  Y  Y3  1  0.04608900  0.03535400  0.24999900  1
  Mg  Mg0  1  0.83016500  0.55112500  0.25000000  1
  Bi  Bi0  1  0.03585000  0.46340600  0.56537800  1
  Bi  Bi1  1  0.55262700  0.01153400  0.48515400  1
  Bi  Bi2  1  0.55262700  0.01153400  0.01484600  1
  Bi  Bi3  1  0.03585000  0.46340600  0.93462200  1
  O  O0  1  0.64400800  0.34307500  0.40630500  1
  O  O1  1  0.13919400  0.11567500  0.52847100  1
  O  O2  1  0.81962700  0.83018100  0.09641100  1
  O  O3  1  0.34437300  0.61708200  0.96154500  1
  O  O4  1  0.34437400  0.61708100  0.53845500  1
  O  O5  1  0.81962600  0.83018100  0.40358900  1
  O  O6  1  0.13919300  0.11567400  0.97152900  1
  O  O7  1  0.64400800  0.34307500  0.09369500  1
  O  O8  1  0.09913600  0.40051000  0.25000100  1
  O  O9  1  0.72040000  0.19436700  0.75000000  1
  O  O10  1  0.37684000  0.90949600  0.25000000  1
  O  O11  1  0.78820200  0.70459200  0.75000000  1
loop_
_geom_bond_atom_site_label_1
_geom_bond_atom_site_label_2
_geom_bond_distance
_geom_bond_site_symmetry_2
Mg0 O8 1.987533 1_655
Mg0 O5 2.139053 1_555
Mg0 O2 2.139056 1_555
Mg0 O7 2.188309 1_555
Mg0 O0 2.188310 1_555
Bi0 O4 2.226025 1_555
Bi0 O1 2.255232 1_555
Bi0 O11 2.686873 1_455
Bi0 O8 2.707095 1_555
Bi1 O5 2.181681 1_545
Bi1 O0 2.208731 1_555
Bi1 O10 2.364123 1_545
Bi1 O9 2.714666 1_555
Bi1 O4 2.793696 1_545
Bi1 O1 2.799580 1_555
Bi2 O2 2.181689 1_545
Bi2 O7 2.208730 1_555
Bi2 O10 2.364123 1_545
Bi2 O9 2.714667 1_554
Bi2 O3 2.793693 1_544
Bi2 O6 2.799586 1_554
Bi3 O3 2.226022 1_555
Bi3 O6 2.255237 1_555
Bi3 O11 2.686877 1_455
Bi3 O8 2.707113 1_556
O0 Y1 2.349204 1_555
O1 Y0 2.231667 1_445
O1 Y3 2.463524 1_555
O2 Y3 2.321233 1_665
O3 Y2 2.261712 1_555
O3 Y1 2.509769 1_556
O4 Y2 2.261710 1_555
O4 Y1 2.509764 1_555
O5 Y3 2.321247 1_665
O6 Y0 2.231647 1_445
O6 Y3 2.463506 1_556
O7 Y1 2.349200 1_555
O8 Y1 2.125573 1_555
O8 Y3 2.255143 1_555
O9 Y0 2.182466 1_545
O9 Y2 2.252992 1_555
O10 Y3 2.296154 1_565
O10 Y1 2.330970 1_555
O11 Y2 2.109101 1_555
O11 Y0 2.173721 1_555
