# generated using pymatgen
data_HgTe2(OF5)2
_symmetry_space_group_name_H-M   'P 1'
_cell_length_a   10.74006715
_cell_length_b   10.74006715
_cell_length_c   6.03262703
_cell_angle_alpha   83.19779998
_cell_angle_beta   83.19779998
_cell_angle_gamma   50.12687582
_symmetry_Int_Tables_number   1
_chemical_formula_structural   HgTe2(OF5)2
_chemical_formula_sum   'Hg2 Te4 O4 F20'
_cell_volume   529.46225542
_cell_formula_units_Z   2
loop_
 _symmetry_equiv_pos_site_id
 _symmetry_equiv_pos_as_xyz
  1  'x, y, z'
loop_
 _atom_site_type_symbol
 _atom_site_label
 _atom_site_symmetry_multiplicity
 _atom_site_fract_x
 _atom_site_fract_y
 _atom_site_fract_z
 _atom_site_occupancy
  Hg  Hg0  1  0.37311900  0.62688100  0.25000000  1
  Hg  Hg1  1  0.62688100  0.37311900  0.75000000  1
  Te  Te0  1  0.37530000  0.88070500  0.83392900  1
  Te  Te1  1  0.11929500  0.62470000  0.66607100  1
  Te  Te2  1  0.62470000  0.11929500  0.16607100  1
  Te  Te3  1  0.88070500  0.37530000  0.33392900  1
  O  O0  1  0.45441800  0.67055800  0.94893300  1
  O  O1  1  0.32944200  0.54558200  0.55106700  1
  O  O2  1  0.54558200  0.32944200  0.05106700  1
  O  O3  1  0.67055800  0.45441800  0.44893300  1
  F  F0  1  0.32498900  0.84953300  0.56532000  1
  F  F1  1  0.15046700  0.67501100  0.93468000  1
  F  F2  1  0.67501100  0.15046700  0.43468000  1
  F  F3  1  0.84953300  0.32498900  0.06532000  1
  F  F4  1  0.29728900  0.08545400  0.71101500  1
  F  F5  1  0.91454600  0.70271100  0.78898500  1
  F  F6  1  0.70271100  0.91454600  0.28898500  1
  F  F7  1  0.08545400  0.29728900  0.21101500  1
  F  F8  1  0.58161800  0.79330400  0.70523000  1
  F  F9  1  0.20669600  0.41838200  0.79477000  1
  F  F10  1  0.41838200  0.20669600  0.29477000  1
  F  F11  1  0.79330400  0.58161800  0.20523000  1
  F  F12  1  0.41845800  0.92632800  0.09210400  1
  F  F13  1  0.07367200  0.58154200  0.40789600  1
  F  F14  1  0.58154200  0.07367200  0.90789600  1
  F  F15  1  0.92632800  0.41845800  0.59210400  1
  F  F16  1  0.16112000  0.97976800  0.94971300  1
  F  F17  1  0.02023200  0.83888000  0.55028700  1
  F  F18  1  0.83888000  0.02023200  0.05028700  1
  F  F19  1  0.97976800  0.16112000  0.44971300  1
loop_
_geom_bond_atom_site_label_1
_geom_bond_atom_site_label_2
_geom_bond_distance
_geom_bond_site_symmetry_2
Hg0 O0 2.056408 1_554
Hg0 O1 2.056408 1_555
Hg1 O2 2.056408 1_556
Hg1 O3 2.056408 1_555
O0 Te0 1.899236 1_555
O1 Te1 1.899236 1_555
O2 Te2 1.899236 1_555
O3 Te3 1.899236 1_555
F0 Te0 1.896755 1_555
F1 Te1 1.896755 1_555
F2 Te2 1.896755 1_555
F3 Te3 1.896755 1_555
F4 Te0 1.867099 1_545
F5 Te1 1.867099 1_655
F6 Te2 1.867099 1_565
F7 Te3 1.867099 1_455
F8 Te0 1.868731 1_555
F9 Te1 1.868731 1_555
F10 Te2 1.868731 1_555
F11 Te3 1.868731 1_555
F12 Te0 1.877144 1_554
F13 Te1 1.877144 1_555
F14 Te2 1.877144 1_556
F15 Te3 1.877144 1_555
F16 Te0 1.889100 1_555
F17 Te1 1.889100 1_555
F18 Te2 1.889100 1_555
F19 Te3 1.889100 1_555
