# generated using pymatgen
data_LuZr
_symmetry_space_group_name_H-M   'P 1'
_cell_length_a   6.74346355
_cell_length_b   6.74346355
_cell_length_c   10.52294382
_cell_angle_alpha   90.00000000
_cell_angle_beta   90.00000000
_cell_angle_gamma   119.99998818
_symmetry_Int_Tables_number   1
_chemical_formula_structural   LuZr
_chemical_formula_sum   'Lu8 Zr8'
_cell_volume   414.41356679
_cell_formula_units_Z   8
loop_
 _symmetry_equiv_pos_site_id
 _symmetry_equiv_pos_as_xyz
  1  'x, y, z'
loop_
 _atom_site_type_symbol
 _atom_site_label
 _atom_site_symmetry_multiplicity
 _atom_site_fract_x
 _atom_site_fract_y
 _atom_site_fract_z
 _atom_site_occupancy
  Lu  Lu0_0  1  0.16666650  0.33333350  0.00000000  1
  Lu  Lu0_1  1  0.16666650  0.33333350  0.50000000  1
  Lu  Lu0_2  1  0.16666650  0.83333350  0.00000000  1
  Lu  Lu0_3  1  0.16666650  0.83333350  0.50000000  1
  Lu  Lu0_4  1  0.66666650  0.33333350  0.00000000  1
  Lu  Lu0_5  1  0.66666650  0.33333350  0.50000000  1
  Lu  Lu0_6  1  0.66666650  0.83333350  0.00000000  1
  Lu  Lu0_7  1  0.66666650  0.83333350  0.50000000  1
  Zr  Zr0_0  1  0.33333350  0.16666650  0.25000000  1
  Zr  Zr0_1  1  0.33333350  0.16666650  0.75000000  1
  Zr  Zr0_2  1  0.33333350  0.66666650  0.25000000  1
  Zr  Zr0_3  1  0.33333350  0.66666650  0.75000000  1
  Zr  Zr0_4  1  0.83333350  0.16666650  0.25000000  1
  Zr  Zr0_5  1  0.83333350  0.16666650  0.75000000  1
  Zr  Zr0_6  1  0.83333350  0.66666650  0.25000000  1
  Zr  Zr0_7  1  0.83333350  0.66666650  0.75000000  1
loop_
_geom_bond_atom_site_label_1
_geom_bond_atom_site_label_2
_geom_bond_distance
_geom_bond_site_symmetry_2
Lu0_0 Zr0_2 3.272658 1_555
Lu0_0 Zr0_4 3.272658 1_455
Lu0_0 Zr0_3 3.272658 1_554
Lu0_0 Zr0_5 3.272658 1_454
Lu0_0 Zr0_0 3.272661 1_555
Lu0_0 Zr0_1 3.272661 1_554
Lu0_0 Lu0_2 3.371732 1_545
Lu0_0 Lu0_4 3.371732 1_455
Lu0_0 Lu0_4 3.371732 1_555
Lu0_0 Lu0_2 3.371732 1_555
Lu0_0 Lu0_6 3.371732 1_445
Lu0_0 Lu0_6 3.371732 1_555
Lu0_1 Zr0_2 3.272658 1_555
Lu0_1 Zr0_3 3.272658 1_555
Lu0_1 Zr0_4 3.272658 1_455
Lu0_1 Zr0_5 3.272658 1_455
Lu0_1 Zr0_0 3.272661 1_555
Lu0_1 Zr0_1 3.272661 1_555
Lu0_1 Lu0_5 3.371732 1_455
Lu0_1 Lu0_3 3.371732 1_545
Lu0_1 Lu0_3 3.371732 1_555
Lu0_1 Lu0_5 3.371732 1_555
Lu0_1 Lu0_7 3.371732 1_445
Lu0_1 Lu0_7 3.371732 1_555
Lu0_2 Zr0_6 3.272658 1_455
Lu0_2 Zr0_0 3.272658 1_565
Lu0_2 Zr0_7 3.272658 1_454
Lu0_2 Zr0_1 3.272658 1_564
Lu0_2 Zr0_2 3.272661 1_555
Lu0_2 Zr0_3 3.272661 1_554
Lu0_2 Lu0_6 3.371732 1_555
Lu0_2 Lu0_6 3.371732 1_455
Lu0_2 Lu0_4 3.371732 1_455
Lu0_2 Lu0_4 3.371732 1_565
Lu0_3 Zr0_6 3.272658 1_455
Lu0_3 Zr0_7 3.272658 1_455
Lu0_3 Zr0_0 3.272658 1_565
Lu0_3 Zr0_1 3.272658 1_565
Lu0_3 Zr0_2 3.272661 1_555
Lu0_3 Zr0_3 3.272661 1_555
Lu0_3 Lu0_7 3.371732 1_555
Lu0_3 Lu0_7 3.371732 1_455
Lu0_3 Lu0_5 3.371732 1_455
Lu0_3 Lu0_5 3.371732 1_565
Lu0_4 Zr0_6 3.272658 1_555
Lu0_4 Zr0_0 3.272658 1_555
Lu0_4 Zr0_7 3.272658 1_554
Lu0_4 Zr0_1 3.272658 1_554
Lu0_4 Zr0_4 3.272661 1_555
Lu0_4 Zr0_5 3.272661 1_554
Lu0_4 Lu0_6 3.371732 1_545
Lu0_4 Lu0_6 3.371732 1_555
Lu0_5 Zr0_7 3.272658 1_555
Lu0_5 Zr0_6 3.272658 1_555
Lu0_5 Zr0_0 3.272658 1_555
Lu0_5 Zr0_1 3.272658 1_555
Lu0_5 Zr0_5 3.272661 1_555
Lu0_5 Zr0_4 3.272661 1_555
Lu0_5 Lu0_7 3.371732 1_545
Lu0_5 Lu0_7 3.371732 1_555
Lu0_6 Zr0_2 3.272658 1_555
Lu0_6 Zr0_4 3.272658 1_565
Lu0_6 Zr0_5 3.272658 1_564
Lu0_6 Zr0_3 3.272658 1_554
Lu0_6 Zr0_6 3.272661 1_555
Lu0_6 Zr0_7 3.272661 1_554
Lu0_7 Zr0_2 3.272658 1_555
Lu0_7 Zr0_3 3.272658 1_555
Lu0_7 Zr0_4 3.272658 1_565
Lu0_7 Zr0_5 3.272658 1_565
Lu0_7 Zr0_6 3.272661 1_555
Lu0_7 Zr0_7 3.272661 1_555
Zr0_0 Zr0_2 3.371732 1_545
Zr0_0 Zr0_4 3.371732 1_455
Zr0_0 Zr0_2 3.371732 1_555
Zr0_0 Zr0_4 3.371732 1_555
Zr0_0 Zr0_6 3.371732 1_445
Zr0_0 Zr0_6 3.371732 1_555
Zr0_1 Zr0_3 3.371732 1_545
Zr0_1 Zr0_5 3.371732 1_455
Zr0_1 Zr0_5 3.371732 1_555
Zr0_1 Zr0_3 3.371732 1_555
Zr0_1 Zr0_7 3.371732 1_555
Zr0_1 Zr0_7 3.371732 1_445
Zr0_2 Zr0_6 3.371732 1_455
Zr0_2 Zr0_6 3.371732 1_555
Zr0_2 Zr0_4 3.371732 1_455
Zr0_2 Zr0_4 3.371732 1_565
Zr0_3 Zr0_7 3.371732 1_455
Zr0_3 Zr0_7 3.371732 1_555
Zr0_3 Zr0_5 3.371732 1_455
Zr0_3 Zr0_5 3.371732 1_565
Zr0_4 Zr0_6 3.371732 1_555
Zr0_4 Zr0_6 3.371732 1_545
Zr0_5 Zr0_7 3.371732 1_545
Zr0_5 Zr0_7 3.371732 1_555
