# generated using pymatgen
data_MoWSe3S
_symmetry_space_group_name_H-M   'P 1'
_cell_length_a   3.28653269
_cell_length_b   3.28653269
_cell_length_c   37.35715500
_cell_angle_alpha   90.00000000
_cell_angle_beta   90.00000000
_cell_angle_gamma   120.00001391
_symmetry_Int_Tables_number   1
_chemical_formula_structural   MoWSe3S
_chemical_formula_sum   'Mo2 W2 Se6 S2'
_cell_volume   349.44616465
_cell_formula_units_Z   2
loop_
 _symmetry_equiv_pos_site_id
 _symmetry_equiv_pos_as_xyz
  1  'x, y, z'
loop_
 _atom_site_type_symbol
 _atom_site_label
 _atom_site_symmetry_multiplicity
 _atom_site_fract_x
 _atom_site_fract_y
 _atom_site_fract_z
 _atom_site_occupancy
  Mo  Mo0  1  0.00000000  0.00000000  0.46966600  1
  Mo  Mo1  1  0.33333300  0.66666700  0.28181000  1
  W  W0  1  0.00000000  0.00000000  0.09392200  1
  W  W1  1  0.33333300  0.66666700  0.65754400  1
  Se  Se0  1  0.00000000  0.00000000  0.32693800  1
  Se  Se1  1  0.00000000  0.00000000  0.70296900  1
  Se  Se2  1  0.33333300  0.66666700  0.42451500  1
  Se  Se3  1  0.33333300  0.66666700  0.51478300  1
  Se  Se4  1  0.00000000  0.00000000  0.23664900  1
  Se  Se5  1  0.00000000  0.00000000  0.61210900  1
  S  S0  1  0.33333300  0.66666700  0.05265900  1
  S  S1  1  0.33333300  0.66666700  0.13518400  1
loop_
_geom_bond_atom_site_label_1
_geom_bond_atom_site_label_2
_geom_bond_distance
_geom_bond_site_symmetry_2
Mo0 Se3 2.537941 1_545
Mo0 Se3 2.537943 1_445
Mo0 Se3 2.537943 1_555
Mo0 Se2 2.538784 1_545
Mo0 Se2 2.538786 1_445
Mo0 Se2 2.538786 1_555
Mo1 Se0 2.538214 1_565
Mo1 Se0 2.538215 1_665
Mo1 Se0 2.538215 1_555
Mo1 Se4 2.539033 1_565
Mo1 Se4 2.539034 1_665
Mo1 Se4 2.539034 1_555
Se1 W1 2.545596 1_545
Se1 W1 2.545598 1_445
Se1 W1 2.545598 1_555
Se5 W1 2.545845 1_545
Se5 W1 2.545847 1_445
Se5 W1 2.545847 1_555
S0 W0 2.444698 1_565
S0 W0 2.444700 1_555
S0 W0 2.444700 1_665
S1 W0 2.444675 1_565
S1 W0 2.444677 1_665
S1 W0 2.444677 1_555
