# generated using pymatgen
data_GaAsO6
_symmetry_space_group_name_H-M   'P 1'
_cell_length_a   8.79581100
_cell_length_b   10.04351100
_cell_length_c   10.15125400
_cell_angle_alpha   90.00000000
_cell_angle_beta   90.00000000
_cell_angle_gamma   90.00000000
_symmetry_Int_Tables_number   1
_chemical_formula_structural   GaAsO6
_chemical_formula_sum   'Ga8 As8 O48'
_cell_volume   896.77014840
_cell_formula_units_Z   8
loop_
 _symmetry_equiv_pos_site_id
 _symmetry_equiv_pos_as_xyz
  1  'x, y, z'
loop_
 _atom_site_type_symbol
 _atom_site_label
 _atom_site_symmetry_multiplicity
 _atom_site_fract_x
 _atom_site_fract_y
 _atom_site_fract_z
 _atom_site_occupancy
  Ga  Ga0  1  0.35716800  0.18357800  0.12775200  1
  Ga  Ga1  1  0.64283200  0.81642200  0.87224800  1
  Ga  Ga2  1  0.14283200  0.81642200  0.62775200  1
  Ga  Ga3  1  0.64283200  0.68357800  0.37224800  1
  Ga  Ga4  1  0.85716800  0.18357800  0.37224800  1
  Ga  Ga5  1  0.35716800  0.31642200  0.62775200  1
  Ga  Ga6  1  0.85716800  0.31642200  0.87224800  1
  Ga  Ga7  1  0.14283200  0.68357800  0.12775200  1
  As  As0  1  0.04039000  0.36593700  0.15918000  1
  As  As1  1  0.95961000  0.63406300  0.84082000  1
  As  As2  1  0.45961000  0.63406300  0.65918000  1
  As  As3  1  0.95961000  0.86593700  0.34082000  1
  As  As4  1  0.54039000  0.36593700  0.34082000  1
  As  As5  1  0.04039000  0.13406300  0.65918000  1
  As  As6  1  0.54039000  0.13406300  0.84082000  1
  As  As7  1  0.45961000  0.86593700  0.15918000  1
  O  O0  1  0.49320100  0.03376300  0.16701300  1
  O  O1  1  0.50679900  0.96623700  0.83298700  1
  O  O2  1  0.00679900  0.96623700  0.66701300  1
  O  O3  1  0.50679900  0.53376300  0.33298700  1
  O  O4  1  0.99320100  0.03376300  0.33298700  1
  O  O5  1  0.49320100  0.46623700  0.66701300  1
  O  O6  1  0.99320100  0.46623700  0.83298700  1
  O  O7  1  0.00679900  0.53376300  0.16701300  1
  O  O8  1  0.22372900  0.34299200  0.10265700  1
  O  O9  1  0.77627100  0.65700800  0.89734300  1
  O  O10  1  0.27627100  0.65700800  0.60265700  1
  O  O11  1  0.77627100  0.84299200  0.39734300  1
  O  O12  1  0.72372900  0.34299200  0.39734300  1
  O  O13  1  0.22372900  0.15700800  0.60265700  1
  O  O14  1  0.72372900  0.15700800  0.89734300  1
  O  O15  1  0.27627100  0.84299200  0.10265700  1
  O  O16  1  0.40296300  0.29372700  0.44014200  1
  O  O17  1  0.59703700  0.70627300  0.55985800  1
  O  O18  1  0.09703700  0.70627300  0.94014200  1
  O  O19  1  0.59703700  0.79372700  0.05985800  1
  O  O20  1  0.90296300  0.29372700  0.05985800  1
  O  O21  1  0.40296300  0.20627300  0.94014200  1
  O  O22  1  0.90296300  0.20627300  0.55985800  1
  O  O23  1  0.09703700  0.79372700  0.44014200  1
  O  O24  1  0.19210100  0.05194700  0.05764000  1
  O  O25  1  0.80789900  0.94805300  0.94236000  1
  O  O26  1  0.30789900  0.94805300  0.55764000  1
  O  O27  1  0.80789900  0.55194700  0.44236000  1
  O  O28  1  0.69210100  0.05194700  0.44236000  1
  O  O29  1  0.19210100  0.44805300  0.55764000  1
  O  O30  1  0.69210100  0.44805300  0.94236000  1
  O  O31  1  0.30789900  0.55194700  0.05764000  1
  O  O32  1  0.25943400  0.14733200  0.30577400  1
  O  O33  1  0.74056600  0.85266900  0.69422600  1
  O  O34  1  0.24056600  0.85266900  0.80577400  1
  O  O35  1  0.74056600  0.64733100  0.19422600  1
  O  O36  1  0.75943400  0.14733200  0.19422600  1
  O  O37  1  0.25943400  0.35266800  0.80577400  1
  O  O38  1  0.75943400  0.35266800  0.69422600  1
  O  O39  1  0.24056600  0.64733100  0.30577400  1
  O  O40  1  0.02709500  0.29258600  0.31101300  1
  O  O41  1  0.97290500  0.70741400  0.68898700  1
  O  O42  1  0.47290500  0.70741400  0.81101300  1
  O  O43  1  0.97290500  0.79258600  0.18898700  1
  O  O44  1  0.52709500  0.29258600  0.18898700  1
  O  O45  1  0.02709500  0.20741400  0.81101300  1
  O  O46  1  0.52709500  0.20741400  0.68898700  1
  O  O47  1  0.47290500  0.79258600  0.31101300  1
loop_
_geom_bond_atom_site_label_1
_geom_bond_atom_site_label_2
_geom_bond_distance
_geom_bond_site_symmetry_2
Ga0 O44 1.954227 1_555
Ga0 O21 1.959908 1_554
Ga0 O0 1.963296 1_555
Ga0 O8 2.001480 1_555
Ga0 O32 2.034035 1_555
Ga0 O24 2.088622 1_555
Ga1 O42 1.954227 1_555
Ga1 O19 1.959908 1_556
Ga1 O1 1.963296 1_555
Ga1 O9 2.001480 1_555
Ga1 O33 2.034037 1_555
Ga1 O25 2.088622 1_555
Ga2 O41 1.954227 1_455
Ga2 O23 1.959908 1_555
Ga2 O2 1.963296 1_555
Ga2 O10 2.001480 1_555
Ga2 O34 2.034037 1_555
Ga2 O26 2.088622 1_555
Ga3 O47 1.954227 1_555
Ga3 O17 1.959908 1_555
Ga3 O3 1.963296 1_555
Ga3 O11 2.001480 1_555
Ga3 O35 2.034037 1_555
Ga3 O27 2.088622 1_555
Ga4 O40 1.954227 1_655
Ga4 O22 1.959908 1_555
Ga4 O4 1.963296 1_555
Ga4 O12 2.001480 1_555
Ga4 O36 2.034035 1_555
Ga4 O28 2.088622 1_555
Ga5 O46 1.954227 1_555
Ga5 O16 1.959908 1_555
Ga5 O5 1.963296 1_555
Ga5 O13 2.001480 1_555
Ga5 O37 2.034035 1_555
Ga5 O29 2.088622 1_555
Ga6 O45 1.954227 1_655
Ga6 O20 1.959908 1_556
Ga6 O6 1.963296 1_555
Ga6 O14 2.001480 1_555
Ga6 O38 2.034035 1_555
Ga6 O30 2.088622 1_555
Ga7 O43 1.954227 1_455
Ga7 O18 1.959908 1_554
Ga7 O7 1.963296 1_555
Ga7 O15 2.001480 1_555
Ga7 O39 2.034037 1_555
Ga7 O31 2.088622 1_555
As0 O40 1.712307 1_555
As0 O7 1.713108 1_555
As0 O8 1.727095 1_555
As0 O20 1.733114 1_455
As1 O41 1.712307 1_555
As1 O6 1.713108 1_555
As1 O9 1.727095 1_555
As1 O18 1.733114 1_655
As2 O42 1.712307 1_555
As2 O5 1.713108 1_555
As2 O10 1.727095 1_555
As2 O17 1.733114 1_555
As3 O43 1.712307 1_555
As3 O4 1.713108 1_565
As3 O11 1.727095 1_555
As3 O23 1.733114 1_655
As4 O44 1.712307 1_555
As4 O3 1.713108 1_555
As4 O12 1.727095 1_555
As4 O16 1.733114 1_555
As5 O45 1.712307 1_555
As5 O2 1.713108 1_545
As5 O13 1.727095 1_555
As5 O22 1.733114 1_455
As6 O46 1.712307 1_555
As6 O1 1.713108 1_545
As6 O14 1.727095 1_555
As6 O21 1.733114 1_555
As7 O47 1.712307 1_555
As7 O0 1.713108 1_565
As7 O15 1.727095 1_555
As7 O19 1.733114 1_555
