# generated using pymatgen
data_AuXeF9
_symmetry_space_group_name_H-M   'P 1'
_cell_length_a   11.13985764
_cell_length_b   11.13985764
_cell_length_c   11.13985764
_cell_angle_alpha   149.47389083
_cell_angle_beta   149.47389083
_cell_angle_gamma   43.71422629
_symmetry_Int_Tables_number   1
_chemical_formula_structural   AuXeF9
_chemical_formula_sum   'Au2 Xe2 F18'
_cell_volume   355.66485262
_cell_formula_units_Z   2
loop_
 _symmetry_equiv_pos_site_id
 _symmetry_equiv_pos_as_xyz
  1  'x, y, z'
loop_
 _atom_site_type_symbol
 _atom_site_label
 _atom_site_symmetry_multiplicity
 _atom_site_fract_x
 _atom_site_fract_y
 _atom_site_fract_z
 _atom_site_occupancy
  Au  Au0  1  0.50000000  0.00000000  0.50000000  1
  Au  Au1  1  0.00000000  0.50000000  0.50000000  1
  Xe  Xe0  1  0.15358400  0.15358400  0.00000000  1
  Xe  Xe1  1  0.84641600  0.84641600  0.00000000  1
  F  F0  1  0.47486200  0.31001500  0.43976800  1
  F  F1  1  0.52513800  0.68998500  0.56023200  1
  F  F2  1  0.87024700  0.03509400  0.56023200  1
  F  F3  1  0.31001500  0.87024700  0.83515300  1
  F  F4  1  0.12975300  0.96490600  0.43976800  1
  F  F5  1  0.68998500  0.12975300  0.16484700  1
  F  F6  1  0.03509400  0.47486200  0.16484700  1
  F  F7  1  0.96490600  0.52513800  0.83515300  1
  F  F8  1  0.21393800  0.37099800  0.45416700  1
  F  F9  1  0.78606200  0.62900200  0.54583300  1
  F  F10  1  0.91683100  0.75977100  0.54583300  1
  F  F11  1  0.37099800  0.91683100  0.15706000  1
  F  F12  1  0.08316800  0.24022900  0.45416600  1
  F  F13  1  0.62900200  0.08316800  0.84293900  1
  F  F14  1  0.75977100  0.21393800  0.84293900  1
  F  F15  1  0.24022900  0.78606200  0.15706100  1
  F  F16  1  0.24981600  0.24981600  0.00000000  1
  F  F17  1  0.75018400  0.75018400  0.00000000  1
loop_
_geom_bond_atom_site_label_1
_geom_bond_atom_site_label_2
_geom_bond_distance
_geom_bond_site_symmetry_2
Au0 F13 1.971539 1_555
Au0 F11 1.971542 1_545
Au0 F15 1.971546 1_545
Au0 F14 1.971546 1_555
Au1 F12 1.971539 1_555
Au1 F10 1.971542 1_455
Au1 F8 1.971542 1_555
Au1 F9 1.971542 1_455
F0 Xe0 1.986882 1_555
F1 Xe1 1.986882 1_556
F2 Xe0 1.986882 1_656
F3 Xe0 1.986882 1_566
F4 Xe1 1.986882 1_455
F5 Xe1 1.986882 1_545
F6 Xe0 1.986882 1_555
F7 Xe1 1.986882 1_556
F16 Xe0 1.989899 1_555
F17 Xe1 1.989899 1_555
