# generated using pymatgen
data_Ba4TiP4
_symmetry_space_group_name_H-M   'P 1'
_cell_length_a   13.27348972
_cell_length_b   13.27348972
_cell_length_c   13.27348972
_cell_angle_alpha   90.00000000
_cell_angle_beta   90.00000000
_cell_angle_gamma   90.00000000
_symmetry_Int_Tables_number   1
_chemical_formula_structural   Ba4TiP4
_chemical_formula_sum   'Ba32 Ti8 P32'
_cell_volume   2338.59681260
_cell_formula_units_Z   8
loop_
 _symmetry_equiv_pos_site_id
 _symmetry_equiv_pos_as_xyz
  1  'x, y, z'
loop_
 _atom_site_type_symbol
 _atom_site_label
 _atom_site_symmetry_multiplicity
 _atom_site_fract_x
 _atom_site_fract_y
 _atom_site_fract_z
 _atom_site_occupancy
  Ba  Ba0  1  0.14926399  0.14926399  0.14926399  1
  Ba  Ba1  1  0.35073601  0.64926399  0.35073601  1
  Ba  Ba2  1  0.64926399  0.35073601  0.35073601  1
  Ba  Ba3  1  0.35073601  0.35073601  0.64926399  1
  Ba  Ba4  1  0.14926399  0.85073601  0.85073601  1
  Ba  Ba5  1  0.85073601  0.85073601  0.14926399  1
  Ba  Ba6  1  0.85073601  0.14926399  0.85073601  1
  Ba  Ba7  1  0.64926399  0.64926399  0.64926399  1
  Ba  Ba8  1  0.90882117  0.86342026  0.64912775  1
  Ba  Ba9  1  0.90882117  0.13657974  0.35087225  1
  Ba  Ba10  1  0.86342026  0.64912775  0.90882117  1
  Ba  Ba11  1  0.13657974  0.64912775  0.09117883  1
  Ba  Ba12  1  0.64912775  0.90882117  0.86342026  1
  Ba  Ba13  1  0.35087225  0.09117883  0.86342026  1
  Ba  Ba14  1  0.59117883  0.85087225  0.36342026  1
  Ba  Ba15  1  0.59117883  0.14912775  0.63657974  1
  Ba  Ba16  1  0.40882117  0.85087225  0.63657974  1
  Ba  Ba17  1  0.14912775  0.63657974  0.59117883  1
  Ba  Ba18  1  0.63657974  0.40882117  0.85087225  1
  Ba  Ba19  1  0.63657974  0.59117883  0.14912775  1
  Ba  Ba20  1  0.85087225  0.36342026  0.59117883  1
  Ba  Ba21  1  0.36342026  0.59117883  0.85087225  1
  Ba  Ba22  1  0.85087225  0.63657974  0.40882117  1
  Ba  Ba23  1  0.14912775  0.36342026  0.40882117  1
  Ba  Ba24  1  0.36342026  0.40882117  0.14912775  1
  Ba  Ba25  1  0.35087225  0.90882117  0.13657974  1
  Ba  Ba26  1  0.64912775  0.09117883  0.13657974  1
  Ba  Ba27  1  0.86342026  0.35087225  0.09117883  1
  Ba  Ba28  1  0.13657974  0.35087225  0.90882117  1
  Ba  Ba29  1  0.09117883  0.13657974  0.64912775  1
  Ba  Ba30  1  0.09117883  0.86342026  0.35087225  1
  Ba  Ba31  1  0.40882117  0.14912775  0.36342026  1
  Ti  Ti0  1  0.50000000  0.50000000  0.50000000  1
  Ti  Ti1  1  -0.00000000  0.00000000  -0.00000000  1
  Ti  Ti2  1  0.75000000  0.00000000  0.50000000  1
  Ti  Ti3  1  0.50000000  0.75000000  -0.00000000  1
  Ti  Ti4  1  0.50000000  0.25000000  -0.00000000  1
  Ti  Ti5  1  -0.00000000  0.50000000  0.25000000  1
  Ti  Ti6  1  -0.00000000  0.50000000  0.75000000  1
  Ti  Ti7  1  0.25000000  0.00000000  0.50000000  1
  P  P0  1  0.89576865  0.89576865  0.89576865  1
  P  P1  1  0.60423135  0.39576865  0.60423135  1
  P  P2  1  0.39576865  0.60423135  0.60423135  1
  P  P3  1  0.60423135  0.60423135  0.39576865  1
  P  P4  1  0.89576865  0.10423135  0.10423135  1
  P  P5  1  0.10423135  0.10423135  0.89576865  1
  P  P6  1  0.10423135  0.89576865  0.10423135  1
  P  P7  1  0.39576865  0.39576865  0.39576865  1
  P  P8  1  0.65035209  0.89661792  0.61021011  1
  P  P9  1  0.65035209  0.10338208  0.38978989  1
  P  P10  1  0.89661792  0.61021011  0.65035209  1
  P  P11  1  0.10338208  0.61021011  0.34964791  1
  P  P12  1  0.61021011  0.65035209  0.89661792  1
  P  P13  1  0.38978989  0.34964791  0.89661792  1
  P  P14  1  0.84964791  0.88978989  0.39661792  1
  P  P15  1  0.84964791  0.11021011  0.60338208  1
  P  P16  1  0.15035209  0.88978989  0.60338208  1
  P  P17  1  0.11021011  0.60338208  0.84964791  1
  P  P18  1  0.60338208  0.15035209  0.88978989  1
  P  P19  1  0.60338208  0.84964791  0.11021011  1
  P  P20  1  0.88978989  0.39661792  0.84964791  1
  P  P21  1  0.39661792  0.84964791  0.88978989  1
  P  P22  1  0.88978989  0.60338208  0.15035209  1
  P  P23  1  0.11021011  0.39661792  0.15035209  1
  P  P24  1  0.39661792  0.15035209  0.11021011  1
  P  P25  1  0.38978989  0.65035209  0.10338208  1
  P  P26  1  0.61021011  0.34964791  0.10338208  1
  P  P27  1  0.89661792  0.38978989  0.34964791  1
  P  P28  1  0.10338208  0.38978989  0.65035209  1
  P  P29  1  0.34964791  0.10338208  0.61021011  1
  P  P30  1  0.34964791  0.89661792  0.38978989  1
  P  P31  1  0.15035209  0.11021011  0.39661792  1
loop_
_geom_bond_atom_site_label_1
_geom_bond_atom_site_label_2
_geom_bond_distance
_geom_bond_site_symmetry_2
Ba0 P31 3.323952 1_555
Ba0 P24 3.323952 1_555
Ba0 P23 3.323952 1_555
Ba0 Ti1 3.431633 1_555
Ba0 P5 3.469330 1_554
Ba0 P6 3.469330 1_545
Ba0 P4 3.469330 1_455
Ba1 P30 3.323952 1_555
Ba1 P11 3.323952 1_555
Ba1 P25 3.323952 1_555
Ba1 Ti0 3.431633 1_555
Ba1 P2 3.469330 1_555
Ba1 P3 3.469330 1_555
Ba1 P7 3.469330 1_555
Ba2 P27 3.323952 1_555
Ba2 P26 3.323952 1_555
Ba2 P9 3.323952 1_555
Ba2 Ti0 3.431633 1_555
Ba2 P1 3.469330 1_555
Ba2 P3 3.469330 1_555
Ba2 P7 3.469330 1_555
Ba3 P13 3.323952 1_555
Ba3 P29 3.323952 1_555
Ba3 P28 3.323952 1_555
Ba3 Ti0 3.431633 1_555
Ba3 P2 3.469330 1_555
Ba3 P1 3.469330 1_555
Ba3 P7 3.469330 1_555
Ba4 P17 3.323952 1_555
Ba4 P16 3.323952 1_555
Ba4 P21 3.323952 1_555
Ba4 Ti1 3.431633 1_566
Ba4 P0 3.469330 1_455
Ba4 P5 3.469330 1_565
Ba4 P6 3.469330 1_556
Ba5 P19 3.323952 1_555
Ba5 P22 3.323952 1_555
Ba5 P14 3.323952 1_555
Ba5 Ti1 3.431633 1_665
Ba5 P0 3.469330 1_554
Ba5 P6 3.469330 1_655
Ba5 P4 3.469330 1_565
Ba6 P18 3.323952 1_555
Ba6 P15 3.323952 1_555
Ba6 P20 3.323952 1_555
Ba6 Ti1 3.431633 1_656
Ba6 P0 3.469330 1_545
Ba6 P4 3.469330 1_556
Ba6 P5 3.469330 1_655
Ba7 P10 3.323952 1_555
Ba7 P8 3.323952 1_555
Ba7 P12 3.323952 1_555
Ba7 Ti0 3.431633 1_555
Ba7 P1 3.469330 1_555
Ba7 P3 3.469330 1_555
Ba7 P2 3.469330 1_555
Ba8 P16 3.281673 1_655
Ba8 P0 3.306365 1_555
Ba8 P10 3.364923 1_555
Ba8 Ti2 3.413050 1_565
Ba8 P15 3.422897 1_565
Ba8 P14 3.460235 1_555
Ba8 P8 3.497330 1_555
Ba9 P31 3.281673 1_655
Ba9 P4 3.306365 1_555
Ba9 P27 3.364923 1_555
Ba9 Ti2 3.413050 1_555
Ba9 P14 3.422897 1_545
Ba9 P15 3.460235 1_555
Ba9 P9 3.497330 1_555
Ba10 P22 3.281673 1_556
Ba10 P0 3.306365 1_555
Ba10 P12 3.364923 1_555
Ba10 Ti6 3.413050 1_655
Ba10 P17 3.422897 1_655
Ba10 P20 3.460235 1_555
Ba10 P10 3.497330 1_555
Ba11 P17 3.281673 1_554
Ba11 P6 3.306365 1_555
Ba11 P25 3.364923 1_555
Ba11 Ti5 3.413050 1_555
Ba11 P22 3.422897 1_455
Ba11 P23 3.460235 1_555
Ba11 P11 3.497330 1_555
Ba12 P18 3.281673 1_565
Ba12 P0 3.306365 1_555
Ba12 P8 3.364923 1_555
Ba12 Ti3 3.413050 1_556
Ba12 P19 3.422897 1_556
Ba12 P21 3.460235 1_555
Ba12 P12 3.497330 1_555
Ba13 P21 3.281673 1_545
Ba13 P5 3.306365 1_555
Ba13 P29 3.364923 1_555
Ba13 Ti4 3.413050 1_556
Ba13 P24 3.422897 1_556
Ba13 P18 3.460235 1_555
Ba13 P13 3.497330 1_555
Ba14 P30 3.281673 1_555
Ba14 P3 3.306365 1_555
Ba14 P19 3.364923 1_555
Ba14 Ti2 3.413050 1_565
Ba14 P8 3.422897 1_555
Ba14 P9 3.460235 1_565
Ba14 P14 3.497330 1_555
Ba15 P29 3.281673 1_555
Ba15 P1 3.306365 1_555
Ba15 P18 3.364923 1_555
Ba15 Ti2 3.413050 1_555
Ba15 P9 3.422897 1_555
Ba15 P8 3.460235 1_545
Ba15 P15 3.497330 1_555
Ba16 P8 3.281673 1_555
Ba16 P2 3.306365 1_555
Ba16 P21 3.364923 1_555
Ba16 Ti7 3.413050 1_565
Ba16 P30 3.422897 1_555
Ba16 P29 3.460235 1_565
Ba16 P16 3.497330 1_555
Ba17 P11 3.281673 1_555
Ba17 P2 3.306365 1_555
Ba17 P16 3.364923 1_555
Ba17 Ti6 3.413050 1_555
Ba17 P28 3.422897 1_555
Ba17 P10 3.460235 1_455
Ba17 P17 3.497330 1_555
Ba18 P12 3.281673 1_555
Ba18 P1 3.306365 1_555
Ba18 P20 3.364923 1_555
Ba18 Ti4 3.413050 1_556
Ba18 P13 3.422897 1_555
Ba18 P26 3.460235 1_556
Ba18 P18 3.497330 1_555
Ba19 P26 3.281673 1_555
Ba19 P3 3.306365 1_555
Ba19 P22 3.364923 1_555
Ba19 Ti3 3.413050 1_555
Ba19 P25 3.422897 1_555
Ba19 P12 3.460235 1_554
Ba19 P19 3.497330 1_555
Ba20 P27 3.281673 1_555
Ba20 P1 3.306365 1_555
Ba20 P15 3.364923 1_555
Ba20 Ti6 3.413050 1_655
Ba20 P10 3.422897 1_555
Ba20 P28 3.460235 1_655
Ba20 P20 3.497330 1_555
Ba21 P13 3.281673 1_555
Ba21 P2 3.306365 1_555
Ba21 P17 3.364923 1_555
Ba21 Ti3 3.413050 1_556
Ba21 P12 3.422897 1_555
Ba21 P25 3.460235 1_556
Ba21 P21 3.497330 1_555
Ba22 P10 3.281673 1_555
Ba22 P3 3.306365 1_555
Ba22 P14 3.364923 1_555
Ba22 Ti5 3.413050 1_655
Ba22 P27 3.422897 1_555
Ba22 P11 3.460235 1_655
Ba22 P22 3.497330 1_555
Ba23 P28 3.281673 1_555
Ba23 P7 3.306365 1_555
Ba23 P31 3.364923 1_555
Ba23 Ti5 3.413050 1_555
Ba23 P11 3.422897 1_555
Ba23 P27 3.460235 1_455
Ba23 P23 3.497330 1_555
Ba24 P25 3.281673 1_555
Ba24 P7 3.306365 1_555
Ba24 P23 3.364923 1_555
Ba24 Ti4 3.413050 1_555
Ba24 P26 3.422897 1_555
Ba24 P13 3.460235 1_554
Ba24 P24 3.497330 1_555
Ba25 P24 3.281673 1_565
Ba25 P6 3.306365 1_555
Ba25 P30 3.364923 1_555
Ba25 Ti3 3.413050 1_555
Ba25 P21 3.422897 1_554
Ba25 P19 3.460235 1_555
Ba25 P25 3.497330 1_555
Ba26 P19 3.281673 1_545
Ba26 P4 3.306365 1_555
Ba26 P9 3.364923 1_555
Ba26 Ti4 3.413050 1_555
Ba26 P18 3.422897 1_554
Ba26 P24 3.460235 1_555
Ba26 P26 3.497330 1_555
Ba27 P20 3.281673 1_554
Ba27 P4 3.306365 1_555
Ba27 P26 3.364923 1_555
Ba27 Ti5 3.413050 1_655
Ba27 P23 3.422897 1_655
Ba27 P22 3.460235 1_555
Ba27 P27 3.497330 1_555
Ba28 P23 3.281673 1_556
Ba28 P5 3.306365 1_555
Ba28 P13 3.364923 1_555
Ba28 Ti6 3.413050 1_555
Ba28 P20 3.422897 1_455
Ba28 P17 3.460235 1_555
Ba28 P28 3.497330 1_555
Ba29 P15 3.281673 1_455
Ba29 P5 3.306365 1_555
Ba29 P28 3.364923 1_555
Ba29 Ti7 3.413050 1_555
Ba29 P16 3.422897 1_545
Ba29 P31 3.460235 1_555
Ba29 P29 3.497330 1_555
Ba30 P14 3.281673 1_455
Ba30 P6 3.306365 1_555
Ba30 P11 3.364923 1_555
Ba30 Ti7 3.413050 1_565
Ba30 P31 3.422897 1_565
Ba30 P16 3.460235 1_555
Ba30 P30 3.497330 1_555
Ba31 P9 3.281673 1_555
Ba31 P7 3.306365 1_555
Ba31 P24 3.364923 1_555
Ba31 Ti7 3.413050 1_555
Ba31 P29 3.422897 1_555
Ba31 P30 3.460235 1_545
Ba31 P31 3.497330 1_555
P0 Ti1 2.396316 1_666
P1 Ti0 2.396316 1_555
P2 Ti0 2.396316 1_555
P3 Ti0 2.396316 1_555
P4 Ti1 2.396316 1_655
P5 Ti1 2.396316 1_556
P6 Ti1 2.396316 1_565
P7 Ti0 2.396316 1_555
P8 Ti2 2.402605 1_565
P9 Ti2 2.402605 1_555
P10 Ti6 2.402605 1_655
P11 Ti5 2.402605 1_555
P12 Ti3 2.402605 1_556
P13 Ti4 2.402605 1_556
P14 Ti2 2.402605 1_565
P15 Ti2 2.402605 1_555
P16 Ti7 2.402605 1_565
P17 Ti6 2.402605 1_555
P18 Ti4 2.402605 1_556
P19 Ti3 2.402605 1_555
P20 Ti6 2.402605 1_655
P21 Ti3 2.402605 1_556
P22 Ti5 2.402605 1_655
P23 Ti5 2.402605 1_555
P24 Ti4 2.402605 1_555
P25 Ti3 2.402605 1_555
P26 Ti4 2.402605 1_555
P27 Ti5 2.402605 1_655
P28 Ti6 2.402605 1_555
P29 Ti7 2.402605 1_555
P30 Ti7 2.402605 1_565
P31 Ti7 2.402605 1_555
