# generated using pymatgen
data_Rb2Cd3SnAs4
_symmetry_space_group_name_H-M   'P 1'
_cell_length_a   9.75197829
_cell_length_b   9.75197829
_cell_length_c   7.86006950
_cell_angle_alpha   66.40761460
_cell_angle_beta   66.40761460
_cell_angle_gamma   26.79884613
_symmetry_Int_Tables_number   1
_chemical_formula_structural   Rb2Cd3SnAs4
_chemical_formula_sum   'Rb2 Cd3 Sn1 As4'
_cell_volume   307.17261727
_cell_formula_units_Z   1
loop_
 _symmetry_equiv_pos_site_id
 _symmetry_equiv_pos_as_xyz
  1  'x, y, z'
loop_
 _atom_site_type_symbol
 _atom_site_label
 _atom_site_symmetry_multiplicity
 _atom_site_fract_x
 _atom_site_fract_y
 _atom_site_fract_z
 _atom_site_occupancy
  Rb  Rb0  1  0.49462100  0.49462100  0.50716300  1
  Rb  Rb1  1  0.99639700  0.99639700  0.00182300  1
  Cd  Cd0  1  0.19729800  0.19729800  0.48138400  1
  Cd  Cd1  1  0.31979100  0.31979100  0.02834700  1
  Cd  Cd2  1  0.81526600  0.81526600  0.50453900  1
  Sn  Sn0  1  0.69027300  0.69027300  0.96524700  1
  As  As0  1  0.36284900  0.36284900  0.30752700  1
  As  As1  1  0.84568800  0.84568800  0.81709600  1
  As  As2  1  0.63752000  0.63752000  0.69563800  1
  As  As3  1  0.14120900  0.14120900  0.19123600  1
loop_
_geom_bond_atom_site_label_1
_geom_bond_atom_site_label_2
_geom_bond_distance
_geom_bond_site_symmetry_2
As0 Cd1 2.637760 1_555
As0 Cd2 2.677647 1_455
As0 Cd2 2.677647 1_545
As0 Cd0 2.863807 1_555
As0 Rb0 3.455563 1_555
As0 Rb1 3.505885 1_545
As0 Rb1 3.505885 1_455
As1 Sn0 2.688005 1_555
As1 Cd1 2.726600 1_566
As1 Cd1 2.726600 1_656
As1 Cd2 2.745077 1_555
As1 Rb0 3.655419 1_655
As1 Rb0 3.655419 1_565
As1 Rb1 3.701446 1_556
As2 Sn0 2.690322 1_555
As2 Cd0 2.767289 1_565
As2 Cd0 2.767289 1_655
As2 Cd2 3.075865 1_555
As2 Rb1 3.572939 1_546
As2 Rb1 3.572939 1_456
As2 Rb0 3.584739 1_555
As3 Sn0 2.787170 1_544
As3 Sn0 2.787170 1_454
As3 Cd0 2.886271 1_555
As3 Cd1 3.090279 1_555
As3 Rb1 3.623712 1_445
As3 Rb0 3.650446 1_545
As3 Rb0 3.650446 1_455
