# generated using pymatgen
data_TiNb(BiO3)3
_symmetry_space_group_name_H-M   'P 1'
_cell_length_a   15.23715771
_cell_length_b   15.23715771
_cell_length_c   15.23715771
_cell_angle_alpha   166.28656741
_cell_angle_beta   166.28656741
_cell_angle_gamma   19.44058519
_symmetry_Int_Tables_number   1
_chemical_formula_structural   TiNb(BiO3)3
_chemical_formula_sum   'Ti1 Nb1 Bi3 O9'
_cell_volume   198.79465629
_cell_formula_units_Z   1
loop_
 _symmetry_equiv_pos_site_id
 _symmetry_equiv_pos_as_xyz
  1  'x, y, z'
loop_
 _atom_site_type_symbol
 _atom_site_label
 _atom_site_symmetry_multiplicity
 _atom_site_fract_x
 _atom_site_fract_y
 _atom_site_fract_z
 _atom_site_occupancy
  Ti  Ti0  1  0.94031400  0.94031400  0.00000000  1
  Nb  Nb0  1  0.10331800  0.10331800  0.00000000  1
  Bi  Bi0  1  0.20218900  0.20218900  0.00000000  1
  Bi  Bi1  1  0.79516100  0.79516100  0.00000000  1
  Bi  Bi2  1  0.51579700  0.51579700  0.00000000  1
  O  O0  1  0.07191500  0.57191500  0.50000000  1
  O  O1  1  0.43120600  0.93120600  0.50000000  1
  O  O2  1  0.93120600  0.43120600  0.50000000  1
  O  O3  1  0.57191500  0.07191500  0.50000000  1
  O  O4  1  0.64194800  0.64194800  0.00000000  1
  O  O5  1  0.31063200  0.31063200  0.00000000  1
  O  O6  1  0.00454400  0.00454400  0.00000000  1
  O  O7  1  0.23992800  0.73992800  0.50000000  1
  O  O8  1  0.73992800  0.23992800  0.50000000  1
loop_
_geom_bond_atom_site_label_1
_geom_bond_atom_site_label_2
_geom_bond_distance
_geom_bond_site_symmetry_2
Nb0 O3 2.049121 1_555
Nb0 O0 2.049121 1_555
Nb0 O3 2.049121 1_454
Nb0 O0 2.049121 1_544
Nb0 O4 2.822182 1_455
Nb0 O4 2.822182 1_545
Nb0 O4 2.822182 1_556
Nb0 O4 2.822182 1_444
Bi0 O7 2.143395 1_555
Bi0 O8 2.143395 1_555
Bi0 O8 2.143395 1_454
Bi0 O7 2.143395 1_544
Bi1 O7 2.462020 1_554
Bi1 O8 2.462020 1_554
Bi1 O8 2.462020 1_565
Bi1 O7 2.462020 1_655
Bi1 O5 2.614252 1_554
Bi1 O5 2.614252 1_565
Bi1 O5 2.614252 1_655
Bi1 O5 2.614252 1_666
Bi2 O0 2.480010 1_655
Bi2 O3 2.480010 1_565
Bi2 O3 2.480010 1_554
Bi2 O0 2.480010 1_554
Bi2 O6 2.594728 1_666
Bi2 O6 2.594728 1_554
Bi2 O6 2.594728 1_655
Bi2 O6 2.594728 1_565
O1 Ti0 1.839572 1_455
O1 Ti0 1.839572 1_556
O2 Ti0 1.839572 1_556
O2 Ti0 1.839572 1_545
O6 Ti0 1.929265 1_445
