# generated using pymatgen
data_Hf2Al3Cu
_symmetry_space_group_name_H-M   'P 1'
_cell_length_a   5.11993647
_cell_length_b   5.11993647
_cell_length_c   5.11993687
_cell_angle_alpha   61.47603343
_cell_angle_beta   61.47603343
_cell_angle_gamma   61.47604156
_symmetry_Int_Tables_number   1
_chemical_formula_structural   Hf2Al3Cu
_chemical_formula_sum   'Hf2 Al3 Cu1'
_cell_volume   98.04770175
_cell_formula_units_Z   1
loop_
 _symmetry_equiv_pos_site_id
 _symmetry_equiv_pos_as_xyz
  1  'x, y, z'
loop_
 _atom_site_type_symbol
 _atom_site_label
 _atom_site_symmetry_multiplicity
 _atom_site_fract_x
 _atom_site_fract_y
 _atom_site_fract_z
 _atom_site_occupancy
  Hf  Hf0  1  0.12490606  0.12490606  0.12490606  1
  Hf  Hf1  1  0.87509394  0.87509394  0.87509394  1
  Al  Al0  1  -0.00000000  0.50000000  0.50000000  1
  Al  Al1  1  0.50000000  0.50000000  0.00000000  1
  Al  Al2  1  0.50000000  -0.00000000  0.50000000  1
  Cu  Cu0  1  0.50000000  0.50000000  0.50000000  1
loop_
_geom_bond_atom_site_label_1
_geom_bond_atom_site_label_2
_geom_bond_distance
_geom_bond_site_symmetry_2
Hf0 Hf1 3.097547 1_444
Hf0 Hf1 3.194241 1_445
Hf0 Hf1 3.194241 1_454
Hf0 Hf1 3.194241 1_544
Al0 Cu0 2.559968 1_555
Al0 Cu0 2.559968 1_455
Al0 Al1 2.616868 1_456
Al0 Al1 2.616868 1_555
Al0 Al2 2.616868 1_555
Al0 Al2 2.616868 1_465
Al0 Hf0 2.993621 1_555
Al0 Hf1 2.993621 1_455
Al0 Hf1 3.040838 1_445
Al0 Hf0 3.040838 1_565
Al0 Hf0 3.040838 1_556
Al0 Hf1 3.040838 1_454
Al1 Cu0 2.559968 1_554
Al1 Cu0 2.559968 1_555
Al1 Al2 2.616868 1_555
Al1 Al2 2.616868 1_564
Al1 Hf1 2.993621 1_554
Al1 Hf0 2.993621 1_555
Al1 Hf0 3.040838 1_655
Al1 Hf1 3.040838 1_454
Al1 Hf1 3.040838 1_544
Al1 Hf0 3.040838 1_565
Al2 Cu0 2.559968 1_555
Al2 Cu0 2.559968 1_545
Al2 Hf1 2.993621 1_545
Al2 Hf0 2.993621 1_555
Al2 Hf1 3.040838 1_445
Al2 Hf0 3.040838 1_655
Al2 Hf0 3.040838 1_556
Al2 Hf1 3.040838 1_544
Cu0 Hf1 3.065745 1_554
Cu0 Hf0 3.065745 1_556
Cu0 Hf0 3.065745 1_565
Cu0 Hf1 3.065745 1_545
Cu0 Hf1 3.065745 1_455
Cu0 Hf0 3.065745 1_655
