# generated using pymatgen
data_DyIn5Co
_symmetry_space_group_name_H-M   'P 1'
_cell_length_a   4.54446142
_cell_length_b   4.54446142
_cell_length_c   7.44002884
_cell_angle_alpha   90.00000000
_cell_angle_beta   90.00000000
_cell_angle_gamma   90.00000000
_symmetry_Int_Tables_number   1
_chemical_formula_structural   DyIn5Co
_chemical_formula_sum   'Dy1 In5 Co1'
_cell_volume   153.65243982
_cell_formula_units_Z   1
loop_
 _symmetry_equiv_pos_site_id
 _symmetry_equiv_pos_as_xyz
  1  'x, y, z'
loop_
 _atom_site_type_symbol
 _atom_site_label
 _atom_site_symmetry_multiplicity
 _atom_site_fract_x
 _atom_site_fract_y
 _atom_site_fract_z
 _atom_site_occupancy
  Dy  Dy0  1  -0.00000000  -0.00000000  -0.00000000  1
  In  In0  1  0.50000000  0.50000000  0.00000000  1
  In  In1  1  0.50000000  0.00000000  0.69291676  1
  In  In2  1  -0.00000000  0.50000000  0.69291676  1
  In  In3  1  0.50000000  -0.00000000  0.30708324  1
  In  In4  1  0.00000000  0.50000000  0.30708324  1
  Co  Co0  1  -0.00000000  -0.00000000  0.50000000  1
loop_
_geom_bond_atom_site_label_1
_geom_bond_atom_site_label_2
_geom_bond_distance
_geom_bond_site_symmetry_2
Dy0 In0 3.213419 1_555
Dy0 In0 3.213419 1_445
Dy0 In0 3.213419 1_545
Dy0 In0 3.213419 1_455
Dy0 In3 3.222254 1_555
Dy0 In2 3.222254 1_554
Dy0 In4 3.222254 1_555
Dy0 In1 3.222254 1_454
Dy0 In1 3.222254 1_554
Dy0 In4 3.222254 1_545
Dy0 In2 3.222254 1_544
Dy0 In3 3.222254 1_455
In0 In3 3.222254 1_555
In0 In2 3.222254 1_554
In0 In4 3.222254 1_555
In0 In1 3.222254 1_554
In0 In1 3.222254 1_564
In0 In4 3.222254 1_655
In0 In3 3.222254 1_565
In0 In2 3.222254 1_654
In1 In3 2.870613 1_555
In1 In2 3.213419 1_655
In1 In2 3.213419 1_545
In1 In2 3.213419 1_555
In1 In2 3.213419 1_645
In2 In4 2.870613 1_555
In3 In4 3.213419 1_645
In3 In4 3.213419 1_555
In3 In4 3.213419 1_545
In3 In4 3.213419 1_655
Co0 In3 2.687589 1_555
Co0 In4 2.687589 1_555
Co0 In1 2.687589 1_455
Co0 In1 2.687589 1_555
Co0 In4 2.687589 1_545
Co0 In2 2.687589 1_555
Co0 In2 2.687589 1_545
Co0 In3 2.687589 1_455
