# generated using pymatgen
data_Mn5CoN4
_symmetry_space_group_name_H-M   'P 1'
_cell_length_a   6.62355700
_cell_length_b   6.06298300
_cell_length_c   4.70221200
_cell_angle_alpha   90.00000000
_cell_angle_beta   90.00000000
_cell_angle_gamma   90.00000000
_symmetry_Int_Tables_number   1
_chemical_formula_structural   Mn5CoN4
_chemical_formula_sum   'Mn10 Co2 N8'
_cell_volume   188.83384404
_cell_formula_units_Z   2
loop_
 _symmetry_equiv_pos_site_id
 _symmetry_equiv_pos_as_xyz
  1  'x, y, z'
loop_
 _atom_site_type_symbol
 _atom_site_label
 _atom_site_symmetry_multiplicity
 _atom_site_fract_x
 _atom_site_fract_y
 _atom_site_fract_z
 _atom_site_occupancy
  Mn  Mn0  1  0.55497300  0.52276600  0.24861200  1
  Mn  Mn1  1  0.94502700  0.52276600  0.24861200  1
  Mn  Mn2  1  0.55497300  0.97723400  0.24861200  1
  Mn  Mn3  1  0.94502700  0.97723400  0.24861200  1
  Mn  Mn4  1  0.44502700  0.47723400  0.75138800  1
  Mn  Mn5  1  0.05497300  0.47723400  0.75138800  1
  Mn  Mn6  1  0.44502700  0.02276600  0.75138800  1
  Mn  Mn7  1  0.05497300  0.02276600  0.75138800  1
  Mn  Mn8  1  0.75000000  0.75000000  0.78054400  1
  Mn  Mn9  1  0.25000000  0.25000000  0.21945600  1
  Co  Co0  1  0.75000000  0.25000000  0.64998100  1
  Co  Co1  1  0.25000000  0.75000000  0.35001900  1
  N  N0  1  0.75000000  0.02972000  0.95323400  1
  N  N1  1  0.75000000  0.47028000  0.95323400  1
  N  N2  1  0.25000000  0.97028000  0.04676600  1
  N  N3  1  0.25000000  0.52972000  0.04676600  1
  N  N4  1  0.50576200  0.75000000  0.54147900  1
  N  N5  1  0.99423800  0.75000000  0.54147900  1
  N  N6  1  0.49423800  0.25000000  0.45852100  1
  N  N7  1  0.00576200  0.25000000  0.45852100  1
loop_
_geom_bond_atom_site_label_1
_geom_bond_atom_site_label_2
_geom_bond_distance
_geom_bond_site_symmetry_2
Mn0 N1 1.923296 1_554
Mn0 N6 1.967497 1_555
Mn0 N4 1.975048 1_555
Mn0 N3 2.232271 1_555
Mn1 N1 1.923296 1_554
Mn1 N7 1.967497 1_655
Mn1 N5 1.975048 1_555
Mn1 N3 2.232271 1_655
Mn2 N0 1.923296 1_564
Mn2 N6 1.967497 1_565
Mn2 N4 1.975048 1_555
Mn2 N2 2.232271 1_555
Mn3 N0 1.923296 1_564
Mn3 N7 1.967497 1_665
Mn3 N5 1.975048 1_555
Mn3 N2 2.232271 1_655
Mn4 N3 1.923296 1_556
Mn4 N4 1.967497 1_555
Mn4 N6 1.975048 1_555
Mn4 N1 2.232271 1_555
Mn5 N3 1.923296 1_556
Mn5 N5 1.967497 1_455
Mn5 N7 1.975048 1_555
Mn5 N1 2.232271 1_455
Mn6 N2 1.923296 1_546
Mn6 N4 1.967497 1_545
Mn6 N6 1.975048 1_555
Mn6 N0 2.232271 1_555
Mn7 N2 1.923296 1_546
Mn7 N5 1.967497 1_445
Mn7 N7 1.975048 1_555
Mn7 N0 2.232271 1_455
Mn8 N0 1.880316 1_565
Mn8 N1 1.880316 1_555
Mn8 N4 1.969952 1_555
Mn8 N5 1.969952 1_555
Mn9 N2 1.880316 1_545
Mn9 N3 1.880316 1_555
Mn9 N7 1.969952 1_555
Mn9 N6 1.969952 1_555
Co0 N6 1.918420 1_555
Co0 N7 1.918420 1_655
Co0 N0 1.953731 1_555
Co0 N1 1.953731 1_555
Co1 N4 1.918420 1_555
Co1 N5 1.918420 1_455
Co1 N2 1.953731 1_555
Co1 N3 1.953731 1_555
