# generated using pymatgen
data_SrCa3Mn4O12
_symmetry_space_group_name_H-M   'P 1'
_cell_length_a   5.38348822
_cell_length_b   10.86944402
_cell_length_c   15.27968580
_cell_angle_alpha   89.96290538
_cell_angle_beta   90.00360384
_cell_angle_gamma   90.03286870
_symmetry_Int_Tables_number   1
_chemical_formula_structural   SrCa3Mn4O12
_chemical_formula_sum   'Sr4 Ca12 Mn16 O48'
_cell_volume   894.09848332
_cell_formula_units_Z   4
loop_
 _symmetry_equiv_pos_site_id
 _symmetry_equiv_pos_as_xyz
  1  'x, y, z'
loop_
 _atom_site_type_symbol
 _atom_site_label
 _atom_site_symmetry_multiplicity
 _atom_site_fract_x
 _atom_site_fract_y
 _atom_site_fract_z
 _atom_site_occupancy
  Sr  Sr0  1  0.99559300  0.01365900  0.12400100  1
  Sr  Sr1  1  0.00440700  0.48634000  0.37599900  1
  Sr  Sr2  1  0.49226100  0.23396200  0.37638100  1
  Sr  Sr3  1  0.50773900  0.26603800  0.12361900  1
  Ca  Ca0  1  0.99074000  0.02222000  0.62555300  1
  Ca  Ca1  1  0.99070900  0.52205000  0.12460600  1
  Ca  Ca2  1  0.99144500  0.52255400  0.62550900  1
  Ca  Ca3  1  0.00926000  0.47777900  0.87444700  1
  Ca  Ca4  1  0.00929100  0.97795000  0.37539400  1
  Ca  Ca5  1  0.00855500  0.97744600  0.87449100  1
  Ca  Ca6  1  0.49111100  0.22681300  0.87398000  1
  Ca  Ca7  1  0.49319700  0.73063500  0.37504300  1
  Ca  Ca8  1  0.49087000  0.72838500  0.87492600  1
  Ca  Ca9  1  0.50888900  0.27318600  0.62602000  1
  Ca  Ca10  1  0.50680300  0.76936500  0.12495700  1
  Ca  Ca11  1  0.50913000  0.77161500  0.62507400  1
  Mn  Mn0  1  0.50265800  0.99785700  0.99676800  1
  Mn  Mn1  1  0.49940400  0.99886400  0.50168400  1
  Mn  Mn2  1  0.50059600  0.50113600  0.99831600  1
  Mn  Mn3  1  0.49734200  0.50214300  0.50323200  1
  Mn  Mn4  1  0.99897200  0.25112200  0.99709900  1
  Mn  Mn5  1  0.00102800  0.24887800  0.50290100  1
  Mn  Mn6  1  0.99755200  0.74785500  0.99799300  1
  Mn  Mn7  1  0.00244800  0.75214500  0.50200700  1
  Mn  Mn8  1  0.00000000  0.25000000  0.25000000  1
  Mn  Mn9  1  0.00000000  0.25000000  0.75000000  1
  Mn  Mn10  1  0.00000000  0.75000000  0.25000000  1
  Mn  Mn11  1  0.00000000  0.75000000  0.75000000  1
  Mn  Mn12  1  0.50296300  0.99743500  0.25210300  1
  Mn  Mn13  1  0.49934300  0.99948500  0.74935600  1
  Mn  Mn14  1  0.49703700  0.50256500  0.24789700  1
  Mn  Mn15  1  0.50065700  0.50051500  0.75064400  1
  O  O0  1  0.21318100  0.10333900  0.26780300  1
  O  O1  1  0.20594900  0.10394800  0.77048700  1
  O  O2  1  0.21539300  0.61106900  0.26541700  1
  O  O3  1  0.20621800  0.60411200  0.77049900  1
  O  O4  1  0.78681900  0.39666100  0.23219600  1
  O  O5  1  0.79405100  0.39605100  0.72951200  1
  O  O6  1  0.78460700  0.88893100  0.23458200  1
  O  O7  1  0.79378200  0.89588800  0.72950000  1
  O  O8  1  0.71601300  0.14074000  0.23626100  1
  O  O9  1  0.70566300  0.14585500  0.72968500  1
  O  O10  1  0.71251100  0.64433200  0.23025600  1
  O  O11  1  0.70644400  0.64610800  0.72932600  1
  O  O12  1  0.28398700  0.35926000  0.26373800  1
  O  O13  1  0.29433700  0.35414400  0.77031400  1
  O  O14  1  0.28748900  0.85566800  0.26974300  1
  O  O15  1  0.29355600  0.85389200  0.77067300  1
  O  O16  1  0.28645600  0.35698700  0.48886200  1
  O  O17  1  0.29183000  0.35649900  0.97732000  1
  O  O18  1  0.29257200  0.85446100  0.48016700  1
  O  O19  1  0.28843700  0.85523900  0.97940800  1
  O  O20  1  0.71354400  0.14301300  0.01113700  1
  O  O21  1  0.70817000  0.14350000  0.52267900  1
  O  O22  1  0.70742800  0.64553900  0.01983200  1
  O  O23  1  0.71156300  0.64476000  0.52059100  1
  O  O24  1  0.79500100  0.39922200  0.01653100  1
  O  O25  1  0.78636000  0.39340600  0.52159700  1
  O  O26  1  0.78428700  0.88978000  0.01406100  1
  O  O27  1  0.79388500  0.89491400  0.52158600  1
  O  O28  1  0.20499900  0.10077800  0.48346800  1
  O  O29  1  0.21364000  0.10659300  0.97840200  1
  O  O30  1  0.21571300  0.61021900  0.48593800  1
  O  O31  1  0.20611500  0.60508600  0.97841300  1
  O  O32  1  0.57696500  0.00090400  0.37713700  1
  O  O33  1  0.57797000  0.00877700  0.87275400  1
  O  O34  1  0.55173900  0.50940000  0.37569800  1
  O  O35  1  0.57938400  0.51169500  0.87439800  1
  O  O36  1  0.42303500  0.49909500  0.12286300  1
  O  O37  1  0.42203000  0.49122300  0.62724600  1
  O  O38  1  0.44826100  0.99059900  0.12430200  1
  O  O39  1  0.42061600  0.98830400  0.62560200  1
  O  O40  1  0.05479100  0.24627700  0.12341800  1
  O  O41  1  0.07864300  0.23852200  0.62664600  1
  O  O42  1  0.07376600  0.74385300  0.12376800  1
  O  O43  1  0.07863500  0.74095200  0.62623600  1
  O  O44  1  0.94520900  0.25372200  0.37658200  1
  O  O45  1  0.92135700  0.26147800  0.87335400  1
  O  O46  1  0.92623400  0.75614600  0.37623200  1
  O  O47  1  0.92136500  0.75904800  0.87376400  1
loop_
_geom_bond_atom_site_label_1
_geom_bond_atom_site_label_2
_geom_bond_distance
_geom_bond_site_symmetry_2
Ca0 O39 2.343619 1_645
Ca0 O7 2.351210 1_545
Ca0 O27 2.358475 1_545
Ca0 O41 2.398037 1_655
Ca0 O21 2.553819 1_555
Ca0 O9 2.588108 1_555
Ca0 O28 2.601860 1_655
Ca0 O1 2.652678 1_655
Ca1 O36 2.341055 1_655
Ca1 O24 2.370751 1_555
Ca1 O4 2.400101 1_555
Ca1 O42 2.451762 1_655
Ca1 O10 2.573124 1_555
Ca1 O22 2.586423 1_555
Ca1 O2 2.651321 1_655
Ca1 O31 2.673137 1_654
Ca2 O37 2.343271 1_655
Ca2 O5 2.353930 1_555
Ca2 O25 2.389844 1_555
Ca2 O43 2.419594 1_655
Ca2 O23 2.569804 1_555
Ca2 O11 2.584448 1_555
Ca2 O30 2.628688 1_655
Ca2 O3 2.651750 1_655
Ca3 O35 2.343619 1_455
Ca3 O3 2.351227 1_555
Ca3 O31 2.358471 1_555
Ca3 O45 2.398027 1_455
Ca3 O17 2.553809 1_555
Ca3 O13 2.588117 1_555
Ca3 O24 2.601843 1_456
Ca3 O5 2.652690 1_455
Ca4 O32 2.341054 1_465
Ca4 O28 2.370740 1_565
Ca4 O0 2.400112 1_565
Ca4 O46 2.451773 1_455
Ca4 O14 2.573133 1_555
Ca4 O18 2.586414 1_555
Ca4 O6 2.651333 1_455
Ca4 O27 2.673124 1_455
Ca5 O33 2.343271 1_465
Ca5 O1 2.353934 1_565
Ca5 O29 2.389827 1_565
Ca5 O47 2.419594 1_455
Ca5 O19 2.569800 1_555
Ca5 O15 2.584458 1_555
Ca5 O26 2.628680 1_456
Ca5 O7 2.651763 1_455
Ca6 O45 2.346477 1_555
Ca6 O13 2.354851 1_555
Ca6 O17 2.374037 1_555
Ca6 O33 2.415968 1_555
Ca6 O29 2.545574 1_555
Ca6 O1 2.577002 1_555
Ca6 O20 2.579550 1_556
Ca6 O9 2.640743 1_555
Ca7 O46 2.347595 1_555
Ca7 O18 2.358558 1_555
Ca7 O14 2.379238 1_555
Ca7 O34 2.425459 1_555
Ca7 O2 2.594562 1_555
Ca7 O30 2.609783 1_555
Ca7 O10 2.678155 1_555
Ca7 O23 2.682783 1_555
Ca8 O47 2.341285 1_555
Ca8 O15 2.350639 1_555
Ca8 O19 2.375350 1_555
Ca8 O35 2.403306 1_555
Ca8 O31 2.577145 1_555
Ca8 O3 2.592104 1_555
Ca8 O22 2.659074 1_556
Ca8 O11 2.664604 1_555
Ca9 O41 2.346475 1_555
Ca9 O9 2.354840 1_555
Ca9 O21 2.374047 1_555
Ca9 O37 2.415979 1_555
Ca9 O25 2.545584 1_555
Ca9 O5 2.576993 1_555
Ca9 O16 2.579566 1_555
Ca9 O13 2.640730 1_555
Ca10 O42 2.347597 1_555
Ca10 O22 2.358569 1_555
Ca10 O10 2.379228 1_555
Ca10 O38 2.425449 1_555
Ca10 O6 2.594553 1_555
Ca10 O26 2.609788 1_555
Ca10 O14 2.678143 1_555
Ca10 O19 2.682792 1_554
Ca11 O43 2.341285 1_555
Ca11 O11 2.350628 1_555
Ca11 O23 2.375366 1_555
Ca11 O39 2.403296 1_555
Ca11 O27 2.577155 1_555
Ca11 O7 2.592094 1_555
Ca11 O18 2.659087 1_555
Ca11 O15 2.664592 1_555
Mn0 O26 1.936522 1_556
Mn0 O33 1.941352 1_565
Mn0 O19 1.949835 1_555
Mn0 O20 1.955715 1_566
Mn0 O38 1.972100 1_556
Mn0 O29 1.974378 1_565
Mn1 O39 1.943686 1_555
Mn1 O32 1.948443 1_565
Mn1 O18 1.951954 1_555
Mn1 O28 1.954003 1_565
Mn1 O21 1.958611 1_565
Mn1 O27 1.970771 1_555
Mn2 O35 1.943685 1_555
Mn2 O36 1.948443 1_556
Mn2 O22 1.951951 1_556
Mn2 O24 1.954001 1_556
Mn2 O17 1.958622 1_555
Mn2 O31 1.970773 1_555
Mn3 O30 1.936517 1_555
Mn3 O37 1.941352 1_555
Mn3 O23 1.949824 1_555
Mn3 O16 1.955716 1_555
Mn3 O34 1.972100 1_555
Mn3 O25 1.974382 1_555
Mn4 O45 1.939589 1_555
Mn4 O20 1.945665 1_556
Mn4 O40 1.954029 1_656
Mn4 O17 1.971409 1_655
Mn4 O29 1.971741 1_655
Mn4 O24 1.971791 1_556
Mn5 O41 1.939589 1_555
Mn5 O16 1.945666 1_555
Mn5 O44 1.954029 1_455
Mn5 O21 1.971413 1_455
Mn5 O25 1.971730 1_455
Mn5 O28 1.971793 1_555
Mn6 O26 1.939265 1_556
Mn6 O31 1.939321 1_655
Mn6 O22 1.945563 1_556
Mn6 O47 1.945707 1_555
Mn6 O42 1.965547 1_656
Mn6 O19 1.973022 1_655
Mn7 O30 1.939275 1_555
Mn7 O27 1.939318 1_455
Mn7 O18 1.945566 1_555
Mn7 O43 1.945707 1_555
Mn7 O46 1.965546 1_455
Mn7 O23 1.973027 1_455
Mn8 O12 1.946792 1_555
Mn8 O8 1.946794 1_455
Mn8 O44 1.956962 1_455
Mn8 O40 1.956962 1_555
Mn8 O0 1.983392 1_555
Mn8 O4 1.983394 1_455
Mn9 O41 1.935920 1_555
Mn9 O45 1.935920 1_455
Mn9 O5 1.961820 1_455
Mn9 O1 1.961826 1_555
Mn9 O13 1.971523 1_555
Mn9 O9 1.971532 1_455
Mn10 O2 1.918856 1_555
Mn10 O6 1.918858 1_455
Mn10 O14 1.950354 1_555
Mn10 O10 1.950357 1_455
Mn10 O46 1.970450 1_455
Mn10 O42 1.970450 1_555
Mn11 O47 1.940473 1_455
Mn11 O43 1.940473 1_555
Mn11 O3 1.961233 1_555
Mn11 O7 1.961235 1_455
Mn11 O15 1.967449 1_555
Mn11 O11 1.967451 1_455
Mn12 O6 1.940119 1_555
Mn12 O14 1.946834 1_555
Mn12 O8 1.948807 1_565
Mn12 O32 1.951935 1_565
Mn12 O0 1.954176 1_565
Mn12 O38 1.976260 1_555
Mn13 O33 1.935075 1_565
Mn13 O39 1.941680 1_555
Mn13 O15 1.958353 1_555
Mn13 O9 1.962802 1_565
Mn13 O7 1.968537 1_555
Mn13 O1 1.972529 1_565
Mn14 O2 1.940117 1_555
Mn14 O10 1.946836 1_555
Mn14 O12 1.948805 1_555
Mn14 O36 1.951935 1_555
Mn14 O4 1.954178 1_555
Mn14 O34 1.976259 1_555
Mn15 O37 1.935075 1_555
Mn15 O35 1.941680 1_555
Mn15 O11 1.958356 1_555
Mn15 O13 1.962809 1_555
Mn15 O3 1.968535 1_555
Mn15 O5 1.972537 1_555
O0 Sr2 2.650623 1_555
O0 Sr0 2.674203 1_455
O2 Sr1 2.445118 1_555
O4 Sr3 2.650614 1_555
O4 Sr1 2.674211 1_655
O6 Sr0 2.445102 1_565
O8 Sr3 2.464302 1_555
O8 Sr2 2.658208 1_555
O8 Sr0 2.668592 1_555
O12 Sr2 2.464312 1_555
O12 Sr3 2.658196 1_555
O12 Sr1 2.668597 1_555
O16 Sr2 2.444268 1_555
O16 Sr1 2.693567 1_555
O17 Sr3 2.704257 1_556
O20 Sr3 2.444279 1_555
O20 Sr0 2.693582 1_555
O21 Sr2 2.704249 1_555
O24 Sr3 2.675685 1_555
O25 Sr1 2.709913 1_655
O26 Sr0 2.435144 1_565
O28 Sr2 2.675676 1_555
O29 Sr0 2.709925 1_456
O30 Sr1 2.435133 1_555
O32 Sr2 2.574202 1_555
O34 Sr1 2.449936 1_655
O36 Sr3 2.574191 1_555
O38 Sr0 2.449936 1_465
O40 Sr3 2.447761 1_555
O40 Sr0 2.548262 1_455
O44 Sr2 2.447760 1_555
O44 Sr1 2.548262 1_655
