# generated using pymatgen
data_AlWO3
_symmetry_space_group_name_H-M   'P 1'
_cell_length_a   4.87076100
_cell_length_b   5.93601300
_cell_length_c   8.69031600
_cell_angle_alpha   90.00000000
_cell_angle_beta   90.00000000
_cell_angle_gamma   90.00000000
_symmetry_Int_Tables_number   1
_chemical_formula_structural   AlWO3
_chemical_formula_sum   'Al4 W4 O12'
_cell_volume   251.26224283
_cell_formula_units_Z   4
loop_
 _symmetry_equiv_pos_site_id
 _symmetry_equiv_pos_as_xyz
  1  'x, y, z'
loop_
 _atom_site_type_symbol
 _atom_site_label
 _atom_site_symmetry_multiplicity
 _atom_site_fract_x
 _atom_site_fract_y
 _atom_site_fract_z
 _atom_site_occupancy
  Al  Al0  1  0.45872400  0.15772400  0.75000000  1
  Al  Al1  1  0.95872400  0.34227600  0.25000000  1
  Al  Al2  1  0.04127600  0.65772400  0.75000000  1
  Al  Al3  1  0.54127600  0.84227600  0.25000000  1
  W  W0  1  0.50000000  0.50000000  0.50000000  1
  W  W1  1  0.00000000  0.00000000  0.50000000  1
  W  W2  1  0.00000000  0.00000000  0.00000000  1
  W  W3  1  0.50000000  0.50000000  0.00000000  1
  O  O0  1  0.15160100  0.31809300  0.41672400  1
  O  O1  1  0.65160100  0.18190700  0.58327600  1
  O  O2  1  0.34839900  0.81809300  0.08327600  1
  O  O3  1  0.84839900  0.68190700  0.91672400  1
  O  O4  1  0.84839900  0.68190700  0.58327600  1
  O  O5  1  0.34839900  0.81809300  0.41672400  1
  O  O6  1  0.65160100  0.18190700  0.91672400  1
  O  O7  1  0.15160100  0.31809300  0.08327600  1
  O  O8  1  0.67890600  0.54298200  0.25000000  1
  O  O9  1  0.17890600  0.95701800  0.75000000  1
  O  O10  1  0.82109400  0.04298200  0.25000000  1
  O  O11  1  0.32109400  0.45701800  0.75000000  1
loop_
_geom_bond_atom_site_label_1
_geom_bond_atom_site_label_2
_geom_bond_distance
_geom_bond_site_symmetry_2
Al0 O6 1.732759 1_555
Al0 O1 1.732759 1_555
Al0 O9 1.810245 1_545
Al0 O11 1.898879 1_555
Al1 O0 1.732759 1_655
Al1 O7 1.732759 1_655
Al1 O8 1.810245 1_555
Al1 O10 1.898879 1_555
Al2 O3 1.732759 1_455
Al2 O4 1.732759 1_455
Al2 O11 1.810245 1_555
Al2 O9 1.898879 1_555
Al3 O5 1.732759 1_555
Al3 O2 1.732759 1_555
Al3 O10 1.810245 1_565
Al3 O8 1.898879 1_555
O0 W0 2.137617 1_555
O0 W1 2.152743 1_555
O1 W1 2.137617 1_655
O1 W0 2.152743 1_555
O2 W2 2.137617 1_565
O2 W3 2.152743 1_555
O3 W3 2.137617 1_556
O3 W2 2.152743 1_666
O4 W0 2.137617 1_555
O4 W1 2.152743 1_665
O5 W1 2.137617 1_565
O5 W0 2.152743 1_555
O6 W2 2.137617 1_656
O6 W3 2.152743 1_556
O7 W3 2.137617 1_555
O7 W2 2.152743 1_555
O8 W3 2.354687 1_555
O8 W0 2.354687 1_555
O9 W2 2.354687 1_566
O9 W1 2.354687 1_565
O10 W1 2.354687 1_655
O10 W2 2.354687 1_655
O11 W0 2.354687 1_555
O11 W3 2.354687 1_556
