# generated using pymatgen
data_LuIn2Pd
_symmetry_space_group_name_H-M   'P 1'
_cell_length_a   10.74665436
_cell_length_b   10.74665436
_cell_length_c   10.74665436
_cell_angle_alpha   100.37659378
_cell_angle_beta   100.37659378
_cell_angle_gamma   129.77432434
_symmetry_Int_Tables_number   1
_chemical_formula_structural   LuIn2Pd
_chemical_formula_sum   'Lu10 In20 Pd10'
_cell_volume   863.73256341
_cell_formula_units_Z   10
loop_
 _symmetry_equiv_pos_site_id
 _symmetry_equiv_pos_as_xyz
  1  'x, y, z'
loop_
 _atom_site_type_symbol
 _atom_site_label
 _atom_site_symmetry_multiplicity
 _atom_site_fract_x
 _atom_site_fract_y
 _atom_site_fract_z
 _atom_site_occupancy
  Lu  Lu0  1  0.66987600  0.38924300  0.28063300  1
  Lu  Lu1  1  0.10861000  0.38924300  0.71936700  1
  Lu  Lu2  1  0.38924300  0.66987600  0.28063300  1
  Lu  Lu3  1  0.38924300  0.10861000  0.71936700  1
  Lu  Lu4  1  0.67667700  0.67667700  0.59710900  1
  Lu  Lu5  1  0.07956700  0.07956700  0.40289100  1
  Lu  Lu6  1  0.07956700  0.67667700  0.00000000  1
  Lu  Lu7  1  0.67667700  0.07956700  0.00000000  1
  Lu  Lu8  1  0.45664900  0.45664900  0.00000000  1
  Lu  Lu9  1  0.99505800  0.99505800  0.00000000  1
  In  In0  1  0.26868000  0.47688500  0.49283400  1
  In  In1  1  0.98405100  0.77584600  0.50716600  1
  In  In2  1  0.77584600  0.26868000  0.79179500  1
  In  In3  1  0.26868000  0.77584600  0.79179500  1
  In  In4  1  0.47688500  0.98405100  0.20820500  1
  In  In5  1  0.98405100  0.47688500  0.20820500  1
  In  In6  1  0.77584600  0.98405100  0.50716600  1
  In  In7  1  0.47688500  0.26868000  0.49283400  1
  In  In8  1  0.24826100  0.86551700  0.38274400  1
  In  In9  1  0.48277300  0.86551700  0.61725600  1
  In  In10  1  0.86551700  0.24826100  0.38274400  1
  In  In11  1  0.86551700  0.48277300  0.61725600  1
  In  In12  1  0.35779700  0.35779700  0.26348000  1
  In  In13  1  0.09431800  0.09431800  0.73652000  1
  In  In14  1  0.09431800  0.35779700  0.00000000  1
  In  In15  1  0.35779700  0.09431800  0.00000000  1
  In  In16  1  0.87993400  0.71940000  0.16053400  1
  In  In17  1  0.55886500  0.71940000  0.83946600  1
  In  In18  1  0.71940000  0.87993400  0.16053400  1
  In  In19  1  0.71940000  0.55886500  0.83946600  1
  Pd  Pd0  1  0.11493400  0.61493400  0.50000000  1
  Pd  Pd1  1  0.61493400  0.11493400  0.50000000  1
  Pd  Pd2  1  0.37066100  0.37066100  0.67763700  1
  Pd  Pd3  1  0.69302300  0.69302300  0.32236300  1
  Pd  Pd4  1  0.69302300  0.37066100  0.00000000  1
  Pd  Pd5  1  0.37066100  0.69302300  0.00000000  1
  Pd  Pd6  1  0.23658600  0.02496900  0.21161700  1
  Pd  Pd7  1  0.81335200  0.02496900  0.78838300  1
  Pd  Pd8  1  0.02496900  0.23658600  0.21161700  1
  Pd  Pd9  1  0.02496900  0.81335200  0.78838300  1
loop_
_geom_bond_atom_site_label_1
_geom_bond_atom_site_label_2
_geom_bond_distance
_geom_bond_site_symmetry_2
Lu0 Pd3 3.051894 1_555
Lu0 Pd4 3.051895 1_555
Lu0 Pd6 3.455908 1_555
Lu0 Pd0 3.653969 1_655
Lu1 Pd5 3.051895 1_556
Lu1 Pd2 3.051898 1_555
Lu1 Pd7 3.455908 1_455
Lu1 Pd0 3.653969 1_555
Lu2 Pd3 3.051894 1_555
Lu2 Pd5 3.051895 1_555
Lu2 Pd8 3.455908 1_555
Lu2 Pd1 3.653969 1_565
Lu3 Pd4 3.051895 1_556
Lu3 Pd2 3.051898 1_555
Lu3 Pd9 3.455908 1_545
Lu3 Pd1 3.653969 1_555
Lu4 Pd3 3.018901 1_555
Lu4 Pd7 3.082022 1_565
Lu4 Pd9 3.082022 1_655
Lu4 Pd2 3.254446 1_555
Lu5 Pd2 3.018910 1_555
Lu5 Pd6 3.082026 1_555
Lu5 Pd8 3.082026 1_555
Lu5 Pd3 3.254446 1_445
Lu6 Pd5 3.018923 1_555
Lu6 Pd6 3.082018 1_565
Lu6 Pd9 3.082018 1_554
Lu6 Pd4 3.254446 1_455
Lu7 Pd4 3.018923 1_555
Lu7 Pd7 3.082018 1_554
Lu7 Pd8 3.082018 1_655
Lu7 Pd5 3.254446 1_545
Lu8 Pd5 3.210957 1_555
Lu8 Pd4 3.210957 1_555
Lu8 Pd3 3.210966 1_555
Lu8 Pd2 3.210968 1_554
Lu9 Pd8 2.924910 1_665
Lu9 Pd6 2.924910 1_665
Lu9 Pd7 2.924910 1_564
Lu9 Pd9 2.924910 1_654
In0 Pd0 2.842172 1_555
In0 Pd2 2.842875 1_555
In0 Pd8 2.888745 1_555
In0 In12 3.148424 1_555
In0 Lu5 3.162019 1_555
In0 Lu1 3.167711 1_555
In0 Lu4 3.226157 1_555
In0 Lu2 3.241990 1_555
In1 Pd0 2.842172 1_655
In1 Pd3 2.842878 1_555
In1 Pd9 2.888745 1_655
In1 In13 3.148427 1_665
In1 Lu4 3.162012 1_555
In1 Lu0 3.167711 1_555
In1 Lu5 3.226150 1_665
In1 Lu3 3.241990 1_665
In2 Pd1 2.842172 1_555
In2 Pd4 2.842883 1_556
In2 Pd7 2.888745 1_555
In2 Lu7 3.162018 1_556
In2 Lu3 3.167711 1_555
In2 Lu6 3.226156 1_656
In2 Lu1 3.241990 1_655
In3 Pd0 2.842172 1_555
In3 Pd5 2.842883 1_556
In3 Pd9 2.888745 1_555
In3 Lu6 3.162018 1_556
In3 Lu1 3.167711 1_555
In3 Lu7 3.226156 1_566
In3 Lu3 3.241990 1_565
In4 Pd1 2.842172 1_565
In4 Pd5 2.842883 1_555
In4 Pd6 2.888745 1_565
In4 Lu6 3.162018 1_555
In4 Lu2 3.167711 1_555
In4 Lu7 3.226156 1_565
In4 Lu0 3.241990 1_565
In5 Pd0 2.842172 1_655
In5 Pd4 2.842883 1_555
In5 Pd8 2.888745 1_655
In5 Lu7 3.162018 1_555
In5 Lu0 3.167711 1_555
In5 Lu6 3.226156 1_655
In5 Lu2 3.241990 1_655
In6 Pd1 2.842172 1_565
In6 Pd3 2.842878 1_555
In6 Pd7 2.888745 1_565
In6 Lu4 3.162012 1_555
In6 Lu2 3.167711 1_555
In6 Lu5 3.226150 1_665
In6 Lu1 3.241990 1_665
In7 Pd1 2.842172 1_555
In7 Pd2 2.842875 1_555
In7 Pd6 2.888745 1_555
In7 Lu5 3.162019 1_555
In7 Lu3 3.167711 1_555
In7 Lu4 3.226157 1_555
In7 Lu0 3.241990 1_555
In8 Pd6 2.767916 1_565
In8 Pd1 2.789262 1_565
In8 Pd0 2.797944 1_555
In8 Lu2 3.429837 1_555
In8 Lu3 3.429837 1_565
In9 Pd7 2.767916 1_565
In9 Pd1 2.789262 1_565
In9 Pd0 2.797944 1_555
In9 Lu2 3.429837 1_555
In9 Lu3 3.429837 1_565
In10 Pd8 2.767916 1_655
In10 Pd0 2.789262 1_655
In10 Pd1 2.797944 1_555
In10 Lu0 3.429837 1_555
In10 Lu1 3.429837 1_655
In11 Pd9 2.767916 1_655
In11 Pd0 2.789262 1_655
In11 Pd1 2.797944 1_555
In11 Lu0 3.429837 1_555
In11 Lu1 3.429837 1_655
In12 Pd6 2.803502 1_555
In12 Pd8 2.803502 1_555
In12 Pd3 2.847551 1_555
In12 Lu2 3.114618 1_555
In12 Lu0 3.114618 1_555
In12 In7 3.148424 1_555
In12 Lu8 3.316295 1_555
In12 Lu9 3.318651 1_445
In12 Lu5 3.451569 1_555
In12 Lu4 3.530400 1_555
In13 Pd7 2.803508 1_455
In13 Pd9 2.803508 1_545
In13 Pd2 2.847551 1_555
In13 Lu3 3.114614 1_555
In13 Lu1 3.114614 1_555
In13 In6 3.148427 1_445
In13 Lu8 3.316289 1_556
In13 Lu9 3.318657 1_446
In13 Lu4 3.451569 1_445
In13 Lu5 3.530393 1_555
In14 Pd7 2.803504 1_454
In14 Pd8 2.803504 1_555
In14 Pd5 2.847551 1_555
In14 Lu1 3.114616 1_554
In14 Lu2 3.114616 1_555
In14 In2 3.148433 1_454
In14 In5 3.148433 1_455
In14 Lu8 3.316285 1_555
In14 Lu9 3.318647 1_445
In14 Lu7 3.451569 1_455
In14 Lu6 3.530414 1_555
In15 Pd6 2.803504 1_555
In15 Pd9 2.803504 1_544
In15 Pd4 2.847551 1_555
In15 Lu3 3.114616 1_554
In15 Lu0 3.114616 1_555
In15 In3 3.148433 1_544
In15 In4 3.148433 1_545
In15 Lu8 3.316285 1_555
In15 Lu9 3.318647 1_445
In15 Lu6 3.451569 1_545
In15 Lu7 3.530414 1_555
In16 Pd4 2.801258 1_555
In16 Pd3 2.801266 1_555
In16 Pd6 2.874622 1_665
In16 Lu6 3.177756 1_655
In16 Lu5 3.177761 1_665
In16 Lu8 3.259595 1_555
In16 Lu9 3.347116 1_555
In16 Lu0 3.435324 1_555
In17 Pd5 2.801250 1_556
In17 Pd2 2.801263 1_555
In17 Pd7 2.874625 1_565
In17 Lu7 3.177751 1_566
In17 Lu4 3.177772 1_555
In17 Lu8 3.259596 1_556
In17 Lu9 3.347124 1_556
In17 Lu1 3.435316 1_555
In18 Pd5 2.801258 1_555
In18 Pd3 2.801266 1_555
In18 Pd8 2.874622 1_665
In18 Lu7 3.177756 1_565
In18 Lu5 3.177761 1_665
In18 Lu8 3.259595 1_555
In18 Lu9 3.347116 1_555
In18 Lu2 3.435324 1_555
In19 Pd4 2.801250 1_556
In19 Pd2 2.801263 1_555
In19 Pd9 2.874625 1_655
In19 Lu6 3.177751 1_656
In19 Lu4 3.177772 1_555
In19 Lu8 3.259596 1_556
In19 Lu9 3.347124 1_556
In19 Lu3 3.435316 1_555
