# generated using pymatgen
data_PrF3
_symmetry_space_group_name_H-M   'P 1'
_cell_length_a   7.15700239
_cell_length_b   7.15700239
_cell_length_c   7.14711100
_cell_angle_alpha   90.00000000
_cell_angle_beta   90.00000000
_cell_angle_gamma   120.00000363
_symmetry_Int_Tables_number   1
_chemical_formula_structural   PrF3
_chemical_formula_sum   'Pr6 F18'
_cell_volume   317.04686827
_cell_formula_units_Z   6
loop_
 _symmetry_equiv_pos_site_id
 _symmetry_equiv_pos_as_xyz
  1  'x, y, z'
loop_
 _atom_site_type_symbol
 _atom_site_label
 _atom_site_symmetry_multiplicity
 _atom_site_fract_x
 _atom_site_fract_y
 _atom_site_fract_z
 _atom_site_occupancy
  Pr  Pr0  1  0.33011700  0.00000000  0.50000000  1
  Pr  Pr1  1  0.00000000  0.33011700  0.50000000  1
  Pr  Pr2  1  0.66988300  0.66988300  0.50000000  1
  Pr  Pr3  1  0.66988300  0.00000000  0.00000000  1
  Pr  Pr4  1  0.00000000  0.66988300  0.00000000  1
  Pr  Pr5  1  0.33011700  0.33011700  0.00000000  1
  F  F0  1  0.34924200  0.33925100  0.33460300  1
  F  F1  1  0.66074900  0.00999000  0.33460300  1
  F  F2  1  0.99001000  0.65075800  0.33460300  1
  F  F3  1  0.33925100  0.34924200  0.66539700  1
  F  F4  1  0.00999000  0.66074900  0.66539700  1
  F  F5  1  0.65075800  0.99001000  0.66539700  1
  F  F6  1  0.65075800  0.66074900  0.83460300  1
  F  F7  1  0.33925100  0.99001000  0.83460300  1
  F  F8  1  0.00999000  0.34924200  0.83460300  1
  F  F9  1  0.66074900  0.65075800  0.16539700  1
  F  F10  1  0.99001000  0.33925100  0.16539700  1
  F  F11  1  0.34924200  0.00999000  0.16539700  1
  F  F12  1  0.33333300  0.66666700  0.47712300  1
  F  F13  1  0.66666700  0.33333300  0.52287700  1
  F  F14  1  0.66666700  0.33333300  0.97712300  1
  F  F15  1  0.33333300  0.66666700  0.02287700  1
  F  F16  1  0.00000000  0.00000000  0.25000000  1
  F  F17  1  0.00000000  0.00000000  0.75000000  1
loop_
_geom_bond_atom_site_label_1
_geom_bond_atom_site_label_2
_geom_bond_distance
_geom_bond_site_symmetry_2
F0 Pr5 2.394383 1_555
F0 Pr2 2.613968 1_555
F0 Pr0 2.641791 1_555
F0 Pr1 2.736035 1_555
F1 Pr3 2.394383 1_555
F1 Pr0 2.613971 1_555
F1 Pr1 2.641794 1_655
F1 Pr2 2.736029 1_545
F2 Pr4 2.394383 1_655
F2 Pr1 2.613965 1_655
F2 Pr2 2.641798 1_555
F2 Pr0 2.736032 1_665
F3 Pr5 2.394383 1_556
F3 Pr2 2.613968 1_555
F3 Pr1 2.641791 1_555
F3 Pr0 2.736035 1_555
F4 Pr4 2.394383 1_556
F4 Pr1 2.613971 1_555
F4 Pr0 2.641794 1_565
F4 Pr2 2.736029 1_455
F5 Pr3 2.394383 1_566
F5 Pr0 2.613965 1_565
F5 Pr2 2.641798 1_555
F5 Pr1 2.736032 1_665
F6 Pr2 2.394383 1_555
F6 Pr5 2.613968 1_556
F6 Pr3 2.641791 1_566
F6 Pr4 2.736035 1_656
F7 Pr0 2.394383 1_565
F7 Pr3 2.613971 1_566
F7 Pr4 2.641794 1_556
F7 Pr5 2.736029 1_566
F8 Pr1 2.394383 1_555
F8 Pr4 2.613965 1_556
F8 Pr5 2.641798 1_556
F8 Pr3 2.736032 1_456
F9 Pr2 2.394383 1_555
F9 Pr5 2.613968 1_555
F9 Pr4 2.641791 1_655
F9 Pr3 2.736035 1_565
F10 Pr1 2.394383 1_655
F10 Pr4 2.613971 1_655
F10 Pr3 2.641794 1_555
F10 Pr5 2.736029 1_655
F11 Pr0 2.394383 1_555
F11 Pr3 2.613965 1_555
F11 Pr5 2.641798 1_555
F11 Pr4 2.736032 1_545
F12 Pr0 2.402826 1_565
F12 Pr1 2.402829 1_555
F12 Pr2 2.402833 1_555
F13 Pr1 2.402826 1_655
F13 Pr0 2.402829 1_555
F13 Pr2 2.402833 1_555
F14 Pr3 2.402826 1_556
F14 Pr4 2.402829 1_656
F14 Pr5 2.402833 1_556
F15 Pr4 2.402826 1_555
F15 Pr3 2.402829 1_565
F15 Pr5 2.402833 1_555
F16 Pr5 2.962209 1_555
F16 Pr2 2.962209 1_445
F16 Pr1 2.962209 1_555
F16 Pr3 2.962209 1_455
F16 Pr4 2.962209 1_545
F16 Pr0 2.962209 1_555
F17 Pr5 2.962209 1_556
F17 Pr2 2.962209 1_445
F17 Pr4 2.962209 1_546
F17 Pr1 2.962209 1_555
F17 Pr0 2.962209 1_555
F17 Pr3 2.962209 1_456
