# generated using pymatgen
data_NiSnP2O9
_symmetry_space_group_name_H-M   'P 1'
_cell_length_a   6.43853700
_cell_length_b   7.94293100
_cell_length_c   14.16812300
_cell_angle_alpha   90.00000000
_cell_angle_beta   90.00000000
_cell_angle_gamma   90.00000000
_symmetry_Int_Tables_number   1
_chemical_formula_structural   NiSnP2O9
_chemical_formula_sum   'Ni4 Sn4 P8 O36'
_cell_volume   724.56992583
_cell_formula_units_Z   4
loop_
 _symmetry_equiv_pos_site_id
 _symmetry_equiv_pos_as_xyz
  1  'x, y, z'
loop_
 _atom_site_type_symbol
 _atom_site_label
 _atom_site_symmetry_multiplicity
 _atom_site_fract_x
 _atom_site_fract_y
 _atom_site_fract_z
 _atom_site_occupancy
  Ni  Ni0  1  0.50000000  0.50000000  0.50000000  1
  Ni  Ni1  1  0.50000000  0.00000000  0.00000000  1
  Ni  Ni2  1  0.00000000  0.00000000  0.00000000  1
  Ni  Ni3  1  0.00000000  0.50000000  0.50000000  1
  Sn  Sn0  1  0.75000000  0.84941400  0.37840300  1
  Sn  Sn1  1  0.25000000  0.15058600  0.62159700  1
  Sn  Sn2  1  0.25000000  0.34941400  0.12159700  1
  Sn  Sn3  1  0.75000000  0.65058600  0.87840300  1
  P  P0  1  0.25000000  0.84636000  0.43661200  1
  P  P1  1  0.75000000  0.15364000  0.56338800  1
  P  P2  1  0.75000000  0.34636000  0.06338800  1
  P  P3  1  0.25000000  0.65364000  0.93661200  1
  P  P4  1  0.75000000  0.89325400  0.18278400  1
  P  P5  1  0.25000000  0.10674600  0.81721600  1
  P  P6  1  0.25000000  0.39325400  0.31721600  1
  P  P7  1  0.75000000  0.60674600  0.68278400  1
  O  O0  1  0.04837000  0.09604900  0.87662100  1
  O  O1  1  0.54837000  0.90395100  0.12337900  1
  O  O2  1  0.95163000  0.59604900  0.62337900  1
  O  O3  1  0.45163000  0.40395100  0.37662100  1
  O  O4  1  0.95163000  0.90395100  0.12337900  1
  O  O5  1  0.45163000  0.09604900  0.87662100  1
  O  O6  1  0.04837000  0.40395100  0.37662100  1
  O  O7  1  0.54837000  0.59604900  0.62337900  1
  O  O8  1  0.25000000  0.83425800  0.97806400  1
  O  O9  1  0.75000000  0.16574200  0.02193600  1
  O  O10  1  0.75000000  0.33425800  0.52193600  1
  O  O11  1  0.25000000  0.66574200  0.47806400  1
  O  O12  1  0.75000000  0.63145800  0.45553100  1
  O  O13  1  0.25000000  0.36854200  0.54446900  1
  O  O14  1  0.25000000  0.13145800  0.04446900  1
  O  O15  1  0.75000000  0.86854200  0.95553100  1
  O  O16  1  0.75000000  0.72658800  0.24134000  1
  O  O17  1  0.25000000  0.27341200  0.75866000  1
  O  O18  1  0.25000000  0.22658800  0.25866000  1
  O  O19  1  0.75000000  0.77341200  0.74134000  1
  O  O20  1  0.43898700  0.63216800  0.87048800  1
  O  O21  1  0.93898700  0.36783200  0.12951200  1
  O  O22  1  0.56101300  0.13216800  0.62951200  1
  O  O23  1  0.06101300  0.86783200  0.37048800  1
  O  O24  1  0.56101300  0.36783200  0.12951200  1
  O  O25  1  0.06101300  0.63216800  0.87048800  1
  O  O26  1  0.43898700  0.86783200  0.37048800  1
  O  O27  1  0.93898700  0.13216800  0.62951200  1
  O  O28  1  0.75000000  0.46866800  0.76205000  1
  O  O29  1  0.25000000  0.53133200  0.23795000  1
  O  O30  1  0.25000000  0.96866800  0.73795000  1
  O  O31  1  0.75000000  0.03133200  0.26205000  1
  O  O32  1  0.75000000  0.47783600  0.98493000  1
  O  O33  1  0.25000000  0.52216400  0.01507000  1
  O  O34  1  0.25000000  0.97783600  0.51507000  1
  O  O35  1  0.75000000  0.02216400  0.48493000  1
loop_
_geom_bond_atom_site_label_1
_geom_bond_atom_site_label_2
_geom_bond_distance
_geom_bond_site_symmetry_2
Ni0 O7 1.932536 1_555
Ni0 O3 1.932536 1_555
Ni0 O13 2.019443 1_555
Ni0 O12 2.019443 1_555
Ni0 O11 2.102529 1_555
Ni0 O10 2.102529 1_555
Ni1 O1 1.932536 1_545
Ni1 O5 1.932536 1_554
Ni1 O14 2.019443 1_555
Ni1 O15 2.019443 1_544
Ni1 O9 2.102529 1_555
Ni1 O8 2.102529 1_544
Ni2 O4 1.932536 1_445
Ni2 O0 1.932536 1_554
Ni2 O14 2.019443 1_555
Ni2 O15 2.019443 1_444
Ni2 O9 2.102529 1_455
Ni2 O8 2.102529 1_544
Ni3 O2 1.932536 1_455
Ni3 O6 1.932536 1_555
Ni3 O13 2.019443 1_555
Ni3 O12 2.019443 1_455
Ni3 O11 2.102529 1_555
Ni3 O10 2.102529 1_455
O0 P5 1.549495 1_555
O1 P4 1.549495 1_555
O2 P7 1.549495 1_555
O3 P6 1.549495 1_555
O4 P4 1.549495 1_555
O5 P5 1.549495 1_555
O6 P6 1.549495 1_555
O7 P7 1.549495 1_555
O8 P3 1.550193 1_555
O9 P2 1.550193 1_555
O10 P1 1.550193 1_555
O11 P0 1.550193 1_555
O12 Sn0 2.047244 1_555
O13 Sn1 2.047244 1_555
O14 Sn2 2.047244 1_555
O15 Sn3 2.047244 1_555
O16 P4 1.562298 1_555
O16 Sn0 2.173216 1_555
O17 P5 1.562298 1_555
O17 Sn1 2.173216 1_555
O18 P6 1.562298 1_555
O18 Sn2 2.173216 1_555
O19 P7 1.562298 1_555
O19 Sn3 2.173216 1_555
O20 P3 1.545116 1_555
O20 Sn3 2.010935 1_555
O21 P2 1.545116 1_555
O21 Sn2 2.010935 1_655
O22 P1 1.545116 1_555
O22 Sn1 2.010935 1_555
O23 P0 1.545116 1_555
O23 Sn0 2.010935 1_455
O24 P2 1.545116 1_555
O24 Sn2 2.010935 1_555
O25 P3 1.545116 1_555
O25 Sn3 2.010935 1_455
O26 P0 1.545116 1_555
O26 Sn0 2.010935 1_555
O27 P1 1.545116 1_555
O27 Sn1 2.010935 1_655
O28 P7 1.569742 1_555
O28 Sn3 2.192140 1_555
O29 P6 1.569742 1_555
O29 Sn2 2.192140 1_555
O30 P5 1.569742 1_565
O30 Sn1 2.192140 1_565
O31 P4 1.569742 1_545
O31 Sn0 2.192140 1_545
O32 P2 1.525199 1_556
O32 Sn3 2.039785 1_555
O33 P3 1.525199 1_554
O33 Sn2 2.039785 1_555
O34 P0 1.525199 1_555
O34 Sn1 2.039785 1_565
O35 P1 1.525199 1_555
O35 Sn0 2.039785 1_545
