# generated using pymatgen
data_Tm4CdNi
_symmetry_space_group_name_H-M   'P 1'
_cell_length_a   9.35224990
_cell_length_b   9.35224830
_cell_length_c   9.35224747
_cell_angle_alpha   60.00155851
_cell_angle_beta   60.00146487
_cell_angle_gamma   60.00149020
_symmetry_Int_Tables_number   1
_chemical_formula_structural   Tm4CdNi
_chemical_formula_sum   'Tm16 Cd4 Ni4'
_cell_volume   578.42617547
_cell_formula_units_Z   4
loop_
 _symmetry_equiv_pos_site_id
 _symmetry_equiv_pos_as_xyz
  1  'x, y, z'
loop_
 _atom_site_type_symbol
 _atom_site_label
 _atom_site_symmetry_multiplicity
 _atom_site_fract_x
 _atom_site_fract_y
 _atom_site_fract_z
 _atom_site_occupancy
  Tm  Tm0  1  0.34874414  0.34874126  0.34874053  1
  Tm  Tm1  1  0.34874316  0.34873994  0.95377468  1
  Tm  Tm2  1  0.34874307  0.95377476  0.34873940  1
  Tm  Tm3  1  0.95377323  0.34874179  0.34874133  1
  Tm  Tm4  1  0.81137040  0.18862887  0.18862965  1
  Tm  Tm5  1  0.18862769  0.81137332  0.81137062  1
  Tm  Tm6  1  0.18862794  0.81136929  0.18862948  1
  Tm  Tm7  1  0.81137246  0.18862845  0.81137189  1
  Tm  Tm8  1  0.18862688  0.18862896  0.81137032  1
  Tm  Tm9  1  0.81137155  0.81137136  0.18862907  1
  Tm  Tm10  1  0.93697273  0.56302713  0.56302753  1
  Tm  Tm11  1  0.56302935  0.93697055  0.93697007  1
  Tm  Tm12  1  0.56302726  0.93697189  0.56302995  1
  Tm  Tm13  1  0.93696990  0.56302983  0.93697310  1
  Tm  Tm14  1  0.56302778  0.56302997  0.93697222  1
  Tm  Tm15  1  0.93697161  0.93697276  0.56302886  1
  Cd  Cd0  1  0.58098867  0.58099138  0.58099147  1
  Cd  Cd1  1  0.58099014  0.58099328  0.25702577  1
  Cd  Cd2  1  0.58099053  0.25702663  0.58099343  1
  Cd  Cd3  1  0.25702772  0.58099216  0.58099262  1
  Ni  Ni0  1  0.14251464  0.14251244  0.14251378  1
  Ni  Ni1  1  0.14251520  0.14251371  0.57245819  1
  Ni  Ni2  1  0.14251475  0.57245813  0.14251359  1
  Ni  Ni3  1  0.57245916  0.14251417  0.14251346  1
loop_
_geom_bond_atom_site_label_1
_geom_bond_atom_site_label_2
_geom_bond_distance
_geom_bond_site_symmetry_2
Tm0 Tm14 3.382908 1_554
Tm0 Tm12 3.382915 1_545
Tm0 Tm10 3.382922 1_455
Tm1 Tm14 3.382835 1_555
Tm1 Tm11 3.382890 1_545
Tm1 Tm13 3.382913 1_455
Tm10 Tm3 3.382818 1_555
Tm10 Tm13 3.497231 1_555
Tm10 Tm15 3.497233 1_555
Tm10 Tm14 3.497302 1_555
Tm10 Tm12 3.497307 1_555
Tm10 Tm7 3.505297 1_555
Tm10 Tm9 3.505300 1_555
Tm10 Tm8 3.505314 1_655
Tm10 Tm6 3.505314 1_655
Tm11 Tm2 3.382887 1_556
Tm11 Tm14 3.497182 1_555
Tm11 Tm12 3.497184 1_555
Tm11 Tm13 3.497265 1_555
Tm11 Tm15 3.497274 1_555
Tm11 Tm9 3.505275 1_556
Tm11 Tm7 3.505275 1_565
Tm11 Tm6 3.505323 1_556
Tm11 Tm8 3.505325 1_565
Tm12 Tm2 3.382834 1_555
Tm12 Tm15 3.497220 1_555
Tm12 Tm14 3.497282 1_555
Tm12 Tm5 3.505295 1_555
Tm12 Tm9 3.505311 1_555
Tm12 Tm8 3.505318 1_565
Tm12 Tm4 3.505334 1_565
Tm13 Tm3 3.382879 1_556
Tm13 Tm14 3.497204 1_555
Tm13 Tm15 3.497295 1_555
Tm13 Tm9 3.505245 1_556
Tm13 Tm5 3.505264 1_655
Tm13 Tm4 3.505313 1_556
Tm13 Tm8 3.505323 1_655
Tm14 Tm6 3.505312 1_556
Tm14 Tm5 3.505314 1_555
Tm14 Tm7 3.505316 1_555
Tm14 Tm4 3.505338 1_556
Tm15 Tm3 3.382881 1_565
Tm15 Tm2 3.382899 1_655
Tm15 Tm5 3.505248 1_655
Tm15 Tm7 3.505252 1_565
Tm15 Tm4 3.505307 1_565
Tm15 Tm6 3.505314 1_655
Cd0 Cd3 3.029755 1_555
Cd0 Cd2 3.029781 1_555
Cd0 Cd1 3.029792 1_555
Cd0 Tm12 3.170159 1_555
Cd0 Tm14 3.170164 1_555
Cd0 Tm10 3.170171 1_555
Cd0 Tm1 3.341178 1_555
Cd0 Tm2 3.341183 1_555
Cd0 Tm3 3.341191 1_555
Cd0 Tm5 3.402903 1_555
Cd0 Tm9 3.402920 1_555
Cd0 Tm7 3.402928 1_555
Cd1 Cd3 3.029865 1_555
Cd1 Cd2 3.029893 1_555
Cd1 Tm14 3.170120 1_554
Cd1 Tm13 3.170197 1_554
Cd1 Tm11 3.170201 1_554
Cd1 Tm0 3.341105 1_555
Cd1 Tm2 3.341134 1_555
Cd1 Tm3 3.341157 1_555
Cd1 Tm9 3.402821 1_555
Cd1 Tm6 3.402874 1_555
Cd1 Tm4 3.402889 1_555
Cd2 Cd3 3.029862 1_555
Cd2 Tm12 3.170137 1_545
Cd2 Tm11 3.170200 1_545
Cd2 Tm15 3.170210 1_545
Cd2 Tm0 3.341116 1_555
Cd2 Tm1 3.341130 1_555
Cd2 Tm3 3.341152 1_555
Cd2 Tm7 3.402822 1_555
Cd2 Tm4 3.402889 1_555
Cd2 Tm8 3.402889 1_555
Cd3 Tm10 3.170158 1_455
Cd3 Tm15 3.170218 1_455
Cd3 Tm13 3.170223 1_455
Cd3 Tm0 3.341135 1_555
Cd3 Tm1 3.341150 1_555
Cd3 Tm2 3.341153 1_555
Cd3 Tm5 3.402802 1_555
Cd3 Tm6 3.402896 1_555
Cd3 Tm8 3.402900 1_555
Ni0 Tm2 2.732502 1_545
Ni0 Tm1 2.732514 1_554
Ni0 Tm3 2.732515 1_455
Ni0 Tm4 2.734565 1_455
Ni0 Tm6 2.734565 1_545
Ni0 Tm8 2.734568 1_554
Ni0 Tm15 3.381251 1_445
Ni0 Tm11 3.381253 1_544
Ni0 Tm13 3.381272 1_454
Ni1 Tm0 2.732527 1_555
Ni1 Tm2 2.732528 1_545
Ni1 Tm3 2.732538 1_455
Ni1 Tm8 2.734495 1_555
Ni1 Tm5 2.734585 1_545
Ni1 Tm7 2.734599 1_455
Ni1 Tm15 3.381145 1_445
Ni1 Tm12 3.381211 1_545
Ni1 Tm10 3.381216 1_455
Ni2 Tm1 2.732523 1_554
Ni2 Tm0 2.732527 1_555
Ni2 Tm3 2.732530 1_455
Ni2 Tm6 2.734500 1_555
Ni2 Tm9 2.734601 1_455
Ni2 Tm5 2.734609 1_554
Ni2 Tm13 3.381146 1_454
Ni2 Tm10 3.381218 1_455
Ni2 Tm14 3.381219 1_554
Ni3 Tm0 2.732508 1_555
Ni3 Tm1 2.732511 1_554
Ni3 Tm2 2.732515 1_545
Ni3 Tm4 2.734512 1_555
Ni3 Tm7 2.734591 1_554
Ni3 Tm9 2.734597 1_545
Ni3 Tm11 3.381166 1_544
Ni3 Tm14 3.381236 1_554
Ni3 Tm12 3.381240 1_545
