# generated using pymatgen
data_TaNb(Cu3S4)2
_symmetry_space_group_name_H-M   'P 1'
_cell_length_a   7.83425200
_cell_length_b   7.83425200
_cell_length_c   5.54041700
_cell_angle_alpha   90.00000000
_cell_angle_beta   90.00000000
_cell_angle_gamma   90.00000000
_symmetry_Int_Tables_number   1
_chemical_formula_structural   TaNb(Cu3S4)2
_chemical_formula_sum   'Ta1 Nb1 Cu6 S8'
_cell_volume   340.04588796
_cell_formula_units_Z   1
loop_
 _symmetry_equiv_pos_site_id
 _symmetry_equiv_pos_as_xyz
  1  'x, y, z'
loop_
 _atom_site_type_symbol
 _atom_site_label
 _atom_site_symmetry_multiplicity
 _atom_site_fract_x
 _atom_site_fract_y
 _atom_site_fract_z
 _atom_site_occupancy
  Ta  Ta0  1  0.50000000  0.50000000  0.00000000  1
  Nb  Nb0  1  0.00000000  0.00000000  0.00000000  1
  Cu  Cu0  1  0.24963300  0.75036700  0.00000000  1
  Cu  Cu1  1  0.75036700  0.24963300  0.00000000  1
  Cu  Cu2  1  0.24963300  0.24963300  0.00000000  1
  Cu  Cu3  1  0.75036700  0.75036700  0.00000000  1
  Cu  Cu4  1  0.00000000  0.00000000  0.50000000  1
  Cu  Cu5  1  0.50000000  0.50000000  0.50000000  1
  S  S0  1  0.50000000  0.25876600  0.75876500  1
  S  S1  1  0.00000000  0.75783000  0.75794800  1
  S  S2  1  0.50000000  0.74123400  0.75876500  1
  S  S3  1  0.00000000  0.24217000  0.75794800  1
  S  S4  1  0.75783000  0.00000000  0.24205200  1
  S  S5  1  0.25876600  0.50000000  0.24123500  1
  S  S6  1  0.24217000  0.00000000  0.24205200  1
  S  S7  1  0.74123400  0.50000000  0.24123500  1
loop_
_geom_bond_atom_site_label_1
_geom_bond_atom_site_label_2
_geom_bond_distance
_geom_bond_site_symmetry_2
Nb0 S3 2.323341 1_554
Nb0 S1 2.323341 1_544
Nb0 S6 2.323341 1_555
Nb0 S4 2.323341 1_455
Cu0 S6 2.372045 1_565
Cu0 S1 2.372045 1_554
Cu0 S2 2.374596 1_554
Cu0 S5 2.374596 1_555
Cu1 S4 2.372045 1_555
Cu1 S3 2.372045 1_654
Cu1 S0 2.374596 1_554
Cu1 S7 2.374596 1_555
Cu2 S6 2.372045 1_555
Cu2 S3 2.372045 1_554
Cu2 S5 2.374596 1_555
Cu2 S0 2.374596 1_554
Cu3 S4 2.372045 1_565
Cu3 S1 2.372045 1_654
Cu3 S7 2.374596 1_555
Cu3 S2 2.374596 1_554
Cu4 S4 2.375266 1_455
Cu4 S3 2.375266 1_555
Cu4 S1 2.375266 1_545
Cu4 S6 2.375266 1_555
Cu5 S7 2.372146 1_555
Cu5 S2 2.372146 1_555
Cu5 S0 2.372146 1_555
Cu5 S5 2.372146 1_555
S0 Ta0 2.314740 1_556
S2 Ta0 2.314740 1_556
S5 Ta0 2.314740 1_555
S7 Ta0 2.314740 1_555
