# generated using pymatgen
data_Li2V3TeO8
_symmetry_space_group_name_H-M   'P 1'
_cell_length_a   6.03584806
_cell_length_b   6.23534837
_cell_length_c   8.69519550
_cell_angle_alpha   87.53084849
_cell_angle_beta   89.99987099
_cell_angle_gamma   90.00816646
_symmetry_Int_Tables_number   1
_chemical_formula_structural   Li2V3TeO8
_chemical_formula_sum   'Li4 V6 Te2 O16'
_cell_volume   326.94519954
_cell_formula_units_Z   2
loop_
 _symmetry_equiv_pos_site_id
 _symmetry_equiv_pos_as_xyz
  1  'x, y, z'
loop_
 _atom_site_type_symbol
 _atom_site_label
 _atom_site_symmetry_multiplicity
 _atom_site_fract_x
 _atom_site_fract_y
 _atom_site_fract_z
 _atom_site_occupancy
  Li  Li0  1  0.00000500  0.25646200  0.12899800  1
  Li  Li1  1  0.50000400  0.75637600  0.62894100  1
  Li  Li2  1  0.99999900  0.74179500  0.87080900  1
  Li  Li3  1  0.49999500  0.24161600  0.37073100  1
  V  V0  1  0.50000900  0.00180700  0.00011900  1
  V  V1  1  0.74803500  0.25172200  0.75198700  1
  V  V2  1  0.25196300  0.25172900  0.75199000  1
  V  V3  1  0.99999600  0.50186500  0.50005000  1
  V  V4  1  0.24810500  0.75162900  0.25206900  1
  V  V5  1  0.75189400  0.75160200  0.25204700  1
  Te  Te0  1  0.99998700  0.00434000  0.50288200  1
  Te  Te1  1  0.50000400  0.50417700  0.00305900  1
  O  O0  1  0.99998800  0.53218900  0.26676900  1
  O  O1  1  0.49996300  0.03212100  0.76684700  1
  O  O2  1  0.00001700  0.46854200  0.73461300  1
  O  O3  1  0.50004100  0.96831400  0.23470400  1
  O  O4  1  0.23080300  0.74566600  0.48805400  1
  O  O5  1  0.73061700  0.24569900  0.98822200  1
  O  O6  1  0.76918400  0.74562700  0.48805000  1
  O  O7  1  0.26927600  0.24576100  0.98814100  1
  O  O8  1  0.00003900  0.97409200  0.25598700  1
  O  O9  1  0.50007800  0.47379400  0.75565600  1
  O  O10  1  0.99993100  0.02002400  0.73928100  1
  O  O11  1  0.49994400  0.51948500  0.23912200  1
  O  O12  1  0.22776900  0.25343700  0.51011800  1
  O  O13  1  0.72787500  0.75332100  0.01034400  1
  O  O14  1  0.77224600  0.25338400  0.51009700  1
  O  O15  1  0.27223400  0.75342400  0.01031300  1
loop_
_geom_bond_atom_site_label_1
_geom_bond_atom_site_label_2
_geom_bond_distance
_geom_bond_site_symmetry_2
Li0 O8 2.037575 1_545
Li0 O7 2.037923 1_554
Li0 O5 2.038074 1_454
Li0 O0 2.137374 1_455
Li1 O9 2.037486 1_555
Li1 O6 2.037681 1_555
Li1 O4 2.037736 1_555
Li1 O1 2.138166 1_565
Li2 O10 2.036352 1_565
Li2 O13 2.045132 1_556
Li2 O15 2.045537 1_656
Li2 O2 2.116444 1_655
Li3 O11 2.034864 1_555
Li3 O14 2.044954 1_555
Li3 O12 2.044974 1_555
Li3 O3 2.115825 1_545
O0 V4 2.028714 1_655
O0 V5 2.028794 1_555
O0 V3 2.029091 1_555
O1 V0 2.029010 1_556
O1 V2 2.029232 1_555
O1 V1 2.029236 1_555
O2 V1 2.036078 1_455
O2 V2 2.036177 1_555
O2 V3 2.041203 1_455
O3 V4 2.035311 1_555
O3 V5 2.035328 1_555
O3 V0 2.041456 1_565
O4 V4 2.053327 1_555
O4 V3 2.061151 1_455
O4 Te0 2.139538 1_465
O5 V1 2.055524 1_555
O5 V0 2.060741 1_556
O5 Te1 2.137823 1_556
O6 V5 2.053479 1_555
O6 V3 2.061287 1_555
O6 Te0 2.139375 1_565
O7 V2 2.054772 1_555
O7 V0 2.061842 1_556
O7 Te1 2.137749 1_556
O8 V4 2.042508 1_555
O8 V5 2.042691 1_455
O8 Te0 2.163149 1_465
O9 V1 2.040270 1_555
O9 V2 2.040649 1_555
O9 Te1 2.167658 1_556
O10 Te0 2.062065 1_555
O10 V1 2.103670 1_555
O10 V2 2.103998 1_655
O11 Te1 2.058936 1_555
O11 V4 2.105512 1_555
O11 V5 2.105566 1_555
O12 V3 2.070309 1_455
O12 Te0 2.077127 1_455
O12 V2 2.107758 1_555
O13 V0 2.070966 1_565
O13 Te1 2.077728 1_555
O13 V5 2.106216 1_555
O14 V3 2.070169 1_555
O14 Te0 2.076997 1_555
O14 V1 2.107931 1_555
O15 V0 2.069826 1_565
O15 Te1 2.078082 1_555
O15 V4 2.106703 1_555
