# generated using pymatgen
data_CaCr2O4
_symmetry_space_group_name_H-M   'P 1'
_cell_length_a   6.00958885
_cell_length_b   11.77489025
_cell_length_c   6.02764515
_cell_angle_alpha   104.83032443
_cell_angle_beta   120.09987964
_cell_angle_gamma   75.26290798
_symmetry_Int_Tables_number   1
_chemical_formula_structural   CaCr2O4
_chemical_formula_sum   'Ca4 Cr8 O16'
_cell_volume   352.64783821
_cell_formula_units_Z   4
loop_
 _symmetry_equiv_pos_site_id
 _symmetry_equiv_pos_as_xyz
  1  'x, y, z'
loop_
 _atom_site_type_symbol
 _atom_site_label
 _atom_site_symmetry_multiplicity
 _atom_site_fract_x
 _atom_site_fract_y
 _atom_site_fract_z
 _atom_site_occupancy
  Ca  Ca0  1  0.99202700  0.02549200  0.00874800  1
  Ca  Ca1  1  0.49184900  0.52539600  0.50861400  1
  Ca  Ca2  1  0.31742200  0.04738500  0.68239900  1
  Ca  Ca3  1  0.81730000  0.54735300  0.18231900  1
  Cr  Cr0  1  0.57501400  0.27564300  0.42533100  1
  Cr  Cr1  1  0.07499400  0.77579700  0.92539800  1
  Cr  Cr2  1  0.57013500  0.80017000  0.93999500  1
  Cr  Cr3  1  0.57013100  0.80017100  0.43031800  1
  Cr  Cr4  1  0.55943300  0.30017600  0.92980600  1
  Cr  Cr5  1  0.07058400  0.30010600  0.44039000  1
  Cr  Cr6  1  0.07057900  0.30010700  0.93030600  1
  Cr  Cr7  1  0.05879500  0.79995800  0.42937900  1
  O  O0  1  0.20263700  0.38972000  0.79618000  1
  O  O1  1  0.70203300  0.88971600  0.29587400  1
  O  O2  1  0.92833400  0.21498700  0.07165300  1
  O  O3  1  0.42850100  0.71505200  0.57176900  1
  O  O4  1  0.94474800  0.19759400  0.57118200  1
  O  O5  1  0.44555400  0.69677500  0.07117300  1
  O  O6  1  0.42871600  0.19665700  0.57004600  1
  O  O7  1  0.93018200  0.69674000  0.07136800  1
  O  O8  1  0.42871100  0.19665700  0.05533000  1
  O  O9  1  0.93017500  0.69674000  0.55555900  1
  O  O10  1  0.69995000  0.39365600  0.79357900  1
  O  O11  1  0.19959000  0.89363000  0.29343400  1
  O  O12  1  0.69996100  0.39365200  0.30002000  1
  O  O13  1  0.19960200  0.89362600  0.79977700  1
  O  O14  1  0.20682600  0.39328500  0.30005900  1
  O  O15  1  0.70621800  0.89375800  0.79998900  1
loop_
_geom_bond_atom_site_label_1
_geom_bond_atom_site_label_2
_geom_bond_distance
_geom_bond_site_symmetry_2
Ca0 O2 2.132336 1_555
Ca0 O15 2.264526 1_544
Ca0 O11 2.267803 1_645
Ca0 O13 2.267816 1_644
Ca1 O3 2.134143 1_555
Ca1 O14 2.264709 1_555
Ca1 O10 2.267836 1_555
Ca1 O12 2.267862 1_555
Ca2 O6 2.378466 1_555
Ca2 O8 2.378497 1_556
Ca2 O4 2.383127 1_455
Ca2 O15 2.465525 1_545
Ca2 O11 2.467822 1_545
Ca2 O13 2.467834 1_545
Ca3 O5 2.374399 1_555
Ca3 O7 2.380323 1_555
Ca3 O9 2.380383 1_555
Ca3 O10 2.466608 1_554
Ca3 O12 2.466654 1_555
Ca3 O14 2.471171 1_655
Cr0 O4 1.992468 1_555
Cr0 O8 1.999846 1_555
Cr0 O6 1.999852 1_555
Cr0 O14 2.164514 1_555
Cr0 O10 2.168379 1_555
Cr0 O12 2.168450 1_555
Cr1 O9 1.999362 1_455
Cr1 O7 1.999377 1_456
Cr1 O5 1.999670 1_556
Cr1 O11 2.166522 1_556
Cr1 O13 2.166606 1_555
Cr1 O15 2.168695 1_455
Cr2 O1 1.975717 1_556
Cr2 O3 2.013874 1_555
Cr2 O5 2.053834 1_556
Cr2 O15 2.054791 1_555
Cr2 O13 2.055590 1_555
Cr2 O7 2.055837 1_556
Cr3 O1 1.975781 1_555
Cr3 O3 2.013774 1_555
Cr3 O5 2.053786 1_555
Cr3 O15 2.054744 1_555
Cr3 O11 2.055638 1_555
Cr3 O9 2.055829 1_555
Cr4 O0 1.977448 1_555
Cr4 O2 2.014570 1_556
Cr4 O12 2.056620 1_556
Cr4 O10 2.056696 1_555
Cr4 O6 2.056870 1_555
Cr4 O8 2.056906 1_556
Cr5 O0 1.975596 1_555
Cr5 O2 2.016216 1_455
Cr5 O6 2.047697 1_555
Cr5 O4 2.049376 1_455
Cr5 O14 2.053391 1_555
Cr5 O12 2.056383 1_455
Cr6 O0 1.975638 1_555
Cr6 O2 2.016120 1_456
Cr6 O8 2.047702 1_556
Cr6 O4 2.049298 1_455
Cr6 O14 2.053376 1_556
Cr6 O10 2.056422 1_455
Cr7 O1 1.978209 1_455
Cr7 O3 2.017169 1_555
Cr7 O7 2.047854 1_455
Cr7 O9 2.047898 1_455
Cr7 O13 2.058267 1_555
Cr7 O11 2.058361 1_555
