# generated using pymatgen
data_BaPd2
_symmetry_space_group_name_H-M   'P 1'
_cell_length_a   5.70133212
_cell_length_b   5.70133109
_cell_length_c   5.70133104
_cell_angle_alpha   59.99999411
_cell_angle_beta   60.00000012
_cell_angle_gamma   60.00000110
_symmetry_Int_Tables_number   1
_chemical_formula_structural   BaPd2
_chemical_formula_sum   'Ba2 Pd4'
_cell_volume   131.04300632
_cell_formula_units_Z   2
loop_
 _symmetry_equiv_pos_site_id
 _symmetry_equiv_pos_as_xyz
  1  'x, y, z'
loop_
 _atom_site_type_symbol
 _atom_site_label
 _atom_site_symmetry_multiplicity
 _atom_site_fract_x
 _atom_site_fract_y
 _atom_site_fract_z
 _atom_site_occupancy
  Ba  Ba0  1  0.12500000  0.12500000  0.12500000  1
  Ba  Ba1  1  0.87500000  0.87500000  0.87500000  1
  Pd  Pd0  1  0.50000000  -0.00000000  0.50000000  1
  Pd  Pd1  1  -0.00000000  0.50000000  0.50000000  1
  Pd  Pd2  1  0.50000000  0.50000000  0.50000000  1
  Pd  Pd3  1  0.50000000  0.50000000  0.00000000  1
loop_
_geom_bond_atom_site_label_1
_geom_bond_atom_site_label_2
_geom_bond_distance
_geom_bond_site_symmetry_2
Ba0 Pd1 3.342701 1_554
Ba0 Pd1 3.342701 1_545
Ba0 Pd2 3.342702 1_554
Ba0 Pd2 3.342702 1_545
Ba0 Pd0 3.342702 1_554
Ba0 Pd1 3.342702 1_555
Ba0 Pd3 3.342702 1_545
Ba0 Pd3 3.342702 1_555
Ba0 Pd0 3.342702 1_555
Ba0 Pd2 3.342702 1_455
Ba0 Pd0 3.342702 1_455
Ba0 Pd3 3.342702 1_455
Ba1 Pd1 3.342701 1_656
Ba1 Pd1 3.342701 1_665
Ba1 Pd2 3.342702 1_556
Ba1 Pd2 3.342702 1_565
Ba1 Pd0 3.342702 1_566
Ba1 Pd1 3.342702 1_655
Ba1 Pd3 3.342702 1_566
Ba1 Pd3 3.342702 1_556
Ba1 Pd0 3.342702 1_565
Ba1 Pd2 3.342702 1_655
Ba1 Pd0 3.342702 1_665
Ba1 Pd3 3.342702 1_656
Pd0 Pd3 2.850665 1_546
Pd0 Pd3 2.850665 1_555
Pd0 Pd2 2.850666 1_545
Pd0 Pd2 2.850666 1_555
Pd0 Pd1 2.850666 1_645
Pd0 Pd1 2.850666 1_555
Pd1 Pd3 2.850666 1_456
Pd1 Pd3 2.850666 1_555
Pd1 Pd2 2.850666 1_555
Pd1 Pd2 2.850666 1_455
Pd2 Pd3 2.850666 1_556
Pd2 Pd3 2.850666 1_555
