# generated using pymatgen
data_Sr(SO3)2
_symmetry_space_group_name_H-M   'P 1'
_cell_length_a   5.40495508
_cell_length_b   8.31638295
_cell_length_c   10.53371435
_cell_angle_alpha   51.82607730
_cell_angle_beta   66.83928369
_cell_angle_gamma   67.72894662
_symmetry_Int_Tables_number   1
_chemical_formula_structural   Sr(SO3)2
_chemical_formula_sum   'Sr2 S4 O12'
_cell_volume   336.12278271
_cell_formula_units_Z   2
loop_
 _symmetry_equiv_pos_site_id
 _symmetry_equiv_pos_as_xyz
  1  'x, y, z'
loop_
 _atom_site_type_symbol
 _atom_site_label
 _atom_site_symmetry_multiplicity
 _atom_site_fract_x
 _atom_site_fract_y
 _atom_site_fract_z
 _atom_site_occupancy
  Sr  Sr0  1  0.88342000  0.76823600  0.01465000  1
  Sr  Sr1  1  0.11658000  0.23176400  0.98535000  1
  S  S0  1  0.57744400  0.89159500  0.29118700  1
  S  S1  1  0.42255600  0.10840500  0.70881300  1
  S  S2  1  0.69056900  0.54063300  0.45289900  1
  S  S3  1  0.30943100  0.45936700  0.54710100  1
  O  O0  1  0.21755500  0.58940200  0.85642400  1
  O  O1  1  0.78244500  0.41059800  0.14357600  1
  O  O2  1  0.13670300  0.07270500  0.81252800  1
  O  O3  1  0.86329700  0.92729500  0.18747200  1
  O  O4  1  0.41628000  0.92188700  0.18684500  1
  O  O5  1  0.58372000  0.07811300  0.81315500  1
  O  O6  1  0.50057900  0.56471400  0.82291200  1
  O  O7  1  0.49942100  0.43528600  0.17708800  1
  O  O8  1  0.38252300  0.63696600  0.08457600  1
  O  O9  1  0.61747700  0.36303400  0.91542400  1
  O  O10  1  0.94205800  0.92587700  0.53795100  1
  O  O11  1  0.05794200  0.07412300  0.46204900  1
loop_
_geom_bond_atom_site_label_1
_geom_bond_atom_site_label_2
_geom_bond_distance
_geom_bond_site_symmetry_2
S0 S2 2.261728 1_555
S1 S3 2.261728 1_555
S2 S3 2.074485 1_555
S2 Sr0 3.590206 1_555
S3 Sr1 3.590206 1_555
O0 O6 1.390537 1_555
O0 Sr1 2.577370 1_555
O0 Sr0 2.629033 1_456
O1 O7 1.390537 1_555
O1 Sr0 2.577370 1_555
O1 Sr1 2.629033 1_654
O2 S1 1.512542 1_555
O2 Sr0 2.547428 1_446
O2 Sr1 2.790614 1_555
O3 S0 1.512542 1_555
O3 Sr1 2.547428 1_664
O3 Sr0 2.790614 1_555
O4 S0 1.508252 1_555
O4 Sr1 2.559162 1_564
O4 Sr0 2.848657 1_555
O5 S1 1.508252 1_555
O5 Sr0 2.559162 1_546
O5 Sr1 2.848657 1_555
O6 O9 1.350081 1_555
O7 O8 1.350081 1_555
O8 Sr0 2.710790 1_455
O8 Sr0 2.956616 1_555
O9 Sr1 2.710790 1_655
O9 Sr1 2.956616 1_555
O10 O11 1.234694 1_665
