# generated using pymatgen
data_Ce(Ga4Co)2
_symmetry_space_group_name_H-M   'P 1'
_cell_length_a   4.07560500
_cell_length_b   12.42024600
_cell_length_c   14.28679800
_cell_angle_alpha   90.00000000
_cell_angle_beta   90.00000000
_cell_angle_gamma   90.00000000
_symmetry_Int_Tables_number   1
_chemical_formula_structural   Ce(Ga4Co)2
_chemical_formula_sum   'Ce4 Ga32 Co8'
_cell_volume   723.19795333
_cell_formula_units_Z   4
loop_
 _symmetry_equiv_pos_site_id
 _symmetry_equiv_pos_as_xyz
  1  'x, y, z'
loop_
 _atom_site_type_symbol
 _atom_site_label
 _atom_site_symmetry_multiplicity
 _atom_site_fract_x
 _atom_site_fract_y
 _atom_site_fract_z
 _atom_site_occupancy
  Ce  Ce0  1  0.00000000  0.84316200  0.17959500  1
  Ce  Ce1  1  0.00000000  0.15683800  0.82040500  1
  Ce  Ce2  1  0.00000000  0.34316200  0.32040500  1
  Ce  Ce3  1  0.00000000  0.65683800  0.67959500  1
  Ga  Ga0  1  0.00000000  0.50000000  0.50000000  1
  Ga  Ga1  1  0.00000000  0.00000000  0.00000000  1
  Ga  Ga2  1  0.50000000  0.50000000  0.00000000  1
  Ga  Ga3  1  0.50000000  0.00000000  0.50000000  1
  Ga  Ga4  1  0.50000000  0.73883800  0.32475900  1
  Ga  Ga5  1  0.50000000  0.26116200  0.67524100  1
  Ga  Ga6  1  0.50000000  0.23883800  0.17524100  1
  Ga  Ga7  1  0.50000000  0.76116200  0.82475900  1
  Ga  Ga8  1  0.50000000  0.95150200  0.31878400  1
  Ga  Ga9  1  0.50000000  0.04849800  0.68121600  1
  Ga  Ga10  1  0.50000000  0.45150200  0.18121600  1
  Ga  Ga11  1  0.50000000  0.54849800  0.81878400  1
  Ga  Ga12  1  0.50000000  0.66406900  0.12126200  1
  Ga  Ga13  1  0.50000000  0.33593100  0.87873800  1
  Ga  Ga14  1  0.50000000  0.16406900  0.37873800  1
  Ga  Ga15  1  0.50000000  0.83593100  0.62126200  1
  Ga  Ga16  1  0.00000000  0.83989700  0.45486800  1
  Ga  Ga17  1  0.00000000  0.16010300  0.54513200  1
  Ga  Ga18  1  0.00000000  0.33989700  0.04513200  1
  Ga  Ga19  1  0.00000000  0.66010300  0.95486800  1
  Ga  Ga20  1  0.00000000  0.59899500  0.24549500  1
  Ga  Ga21  1  0.00000000  0.40100500  0.75450500  1
  Ga  Ga22  1  0.00000000  0.09899500  0.25450500  1
  Ga  Ga23  1  0.00000000  0.90100500  0.74549500  1
  Ga  Ga24  1  0.50000000  0.83183000  0.01040600  1
  Ga  Ga25  1  0.50000000  0.16817000  0.98959400  1
  Ga  Ga26  1  0.50000000  0.33183000  0.48959400  1
  Ga  Ga27  1  0.50000000  0.66817000  0.51040600  1
  Ga  Ga28  1  0.50000000  0.52248200  0.36662000  1
  Ga  Ga29  1  0.50000000  0.47751800  0.63338000  1
  Ga  Ga30  1  0.50000000  0.02248200  0.13338000  1
  Ga  Ga31  1  0.50000000  0.97751800  0.86662000  1
  Co  Co0  1  0.00000000  0.65415000  0.40350800  1
  Co  Co1  1  0.00000000  0.34585000  0.59649200  1
  Co  Co2  1  0.00000000  0.15415000  0.09649200  1
  Co  Co3  1  0.00000000  0.84585000  0.90350800  1
  Co  Co4  1  0.00000000  0.53496800  0.09351600  1
  Co  Co5  1  0.00000000  0.46503200  0.90648400  1
  Co  Co6  1  0.00000000  0.03496800  0.40648400  1
  Co  Co7  1  0.00000000  0.96503200  0.59351600  1
loop_
_geom_bond_atom_site_label_1
_geom_bond_atom_site_label_2
_geom_bond_distance
_geom_bond_site_symmetry_2
Ce0 Ga30 3.090146 1_565
Ce0 Ga30 3.090146 1_465
Ce0 Ga12 3.129703 1_555
Ce0 Ga12 3.129703 1_455
Ce0 Ga8 3.149237 1_555
Ce0 Ga8 3.149237 1_455
Ce0 Ga24 3.164673 1_555
Ce0 Ga24 3.164673 1_455
Ce0 Ga20 3.175401 1_555
Ce0 Ga4 3.183196 1_555
Ce0 Ga4 3.183196 1_455
Ce0 Ga1 3.221505 1_565
Ce0 Ga22 3.352900 1_565
Ce1 Ga31 3.090146 1_545
Ce1 Ga31 3.090146 1_445
Ce1 Ga13 3.129703 1_555
Ce1 Ga13 3.129703 1_455
Ce1 Ga9 3.149237 1_555
Ce1 Ga9 3.149237 1_455
Ce1 Ga25 3.164673 1_455
Ce1 Ga25 3.164673 1_555
Ce1 Ga21 3.175401 1_555
Ce1 Ga5 3.183196 1_555
Ce1 Ga5 3.183196 1_455
Ce1 Ga1 3.221505 1_556
Ce1 Ga23 3.352900 1_545
Ce2 Ga28 3.090146 1_555
Ce2 Ga28 3.090146 1_455
Ce2 Ga14 3.129703 1_455
Ce2 Ga14 3.129703 1_555
Ce2 Ga10 3.149237 1_455
Ce2 Ga10 3.149237 1_555
Ce2 Ga26 3.164673 1_455
Ce2 Ga26 3.164673 1_555
Ce2 Ga22 3.175401 1_555
Ce2 Ga6 3.183196 1_455
Ce2 Ga6 3.183196 1_555
Ce2 Ga0 3.221505 1_555
Ce2 Ga20 3.352900 1_555
Ce3 Ga29 3.090146 1_455
Ce3 Ga29 3.090146 1_555
Ce3 Ga15 3.129703 1_455
Ce3 Ga15 3.129703 1_555
Ce3 Ga11 3.149237 1_555
Ce3 Ga11 3.149237 1_455
Ce3 Ga27 3.164673 1_455
Ce3 Ga27 3.164673 1_555
Ce3 Ga23 3.175401 1_555
Ce3 Ga7 3.183196 1_455
Ce3 Ga7 3.183196 1_555
Ce3 Ga0 3.221505 1_555
Ce3 Ga21 3.352900 1_555
Ga0 Ga28 2.803893 1_555
Ga0 Ga28 2.803893 1_455
Ga0 Ga29 2.803893 1_555
Ga0 Ga29 2.803893 1_455
Ga0 Ga26 2.921894 1_455
Ga0 Ga26 2.921894 1_555
Ga0 Ga27 2.921894 1_455
Ga0 Ga27 2.921894 1_555
Ga1 Ga30 2.803893 1_555
Ga1 Ga30 2.803893 1_455
Ga1 Ga31 2.803893 1_444
Ga1 Ga31 2.803893 1_544
Ga1 Ga25 2.921894 1_554
Ga1 Ga25 2.921894 1_454
Ga1 Ga24 2.921894 1_545
Ga1 Ga24 2.921894 1_445
Ga3 Ga8 2.658145 1_545
Ga3 Ga9 2.658145 1_555
Ga4 Ga8 2.642718 1_555
Ga5 Ga9 2.642718 1_555
Ga10 Ga6 2.642718 1_555
Ga10 Ga2 2.658145 1_555
Ga10 Ga12 2.775606 1_555
Ga10 Ga28 2.791684 1_555
Ga10 Ga20 2.889956 1_555
Ga10 Ga20 2.889956 1_655
Ga11 Ga7 2.642718 1_555
Ga11 Ga2 2.658145 1_556
Ga11 Ga13 2.775606 1_555
Ga11 Ga29 2.791684 1_555
Ga11 Ga21 2.889956 1_655
Ga11 Ga21 2.889956 1_555
Ga12 Ga24 2.617227 1_555
Ga12 Ga2 2.674678 1_555
Ga12 Ga20 2.820660 1_555
Ga12 Ga20 2.820660 1_655
Ga12 Ga4 3.052032 1_555
Ga12 Ga19 3.131505 1_654
Ga12 Ga19 3.131505 1_554
Ga13 Ga25 2.617227 1_555
Ga13 Ga2 2.674678 1_556
Ga13 Ga21 2.820660 1_555
Ga13 Ga21 2.820660 1_655
Ga13 Ga5 3.052032 1_555
Ga13 Ga18 3.131505 1_556
Ga13 Ga18 3.131505 1_656
Ga14 Ga26 2.617227 1_555
Ga14 Ga3 2.674678 1_555
Ga14 Ga8 2.775606 1_545
Ga14 Ga22 2.820660 1_555
Ga14 Ga22 2.820660 1_655
Ga14 Ga6 3.052032 1_555
Ga14 Ga17 3.131505 1_555
Ga14 Ga17 3.131505 1_655
Ga15 Ga27 2.617227 1_555
Ga15 Ga3 2.674678 1_565
Ga15 Ga9 2.775606 1_565
Ga15 Ga23 2.820660 1_555
Ga15 Ga23 2.820660 1_655
Ga15 Ga7 3.052032 1_555
Ga15 Ga16 3.131505 1_655
Ga15 Ga16 3.131505 1_555
Ga16 Ga3 2.919350 1_465
Ga16 Ga3 2.919350 1_565
Ga16 Ga4 3.030412 1_555
Ga16 Ga4 3.030412 1_455
Ga16 Ga27 3.054741 1_455
Ga16 Ga27 3.054741 1_555
Ga17 Ga3 2.919350 1_555
Ga17 Ga3 2.919350 1_455
Ga17 Ga5 3.030412 1_555
Ga17 Ga5 3.030412 1_455
Ga17 Ga26 3.054741 1_455
Ga17 Ga26 3.054741 1_555
Ga18 Ga2 2.919350 1_455
Ga18 Ga2 2.919350 1_555
Ga18 Ga6 3.030412 1_555
Ga18 Ga6 3.030412 1_455
Ga18 Ga25 3.054741 1_454
Ga18 Ga25 3.054741 1_554
Ga19 Ga2 2.919350 1_456
Ga19 Ga2 2.919350 1_556
Ga19 Ga7 3.030412 1_455
Ga19 Ga7 3.030412 1_555
Ga19 Ga24 3.054741 1_456
Ga19 Ga24 3.054741 1_556
Ga20 Ga28 2.837308 1_455
Ga20 Ga28 2.837308 1_555
Ga20 Ga4 2.907198 1_555
Ga20 Ga4 2.907198 1_455
Ga21 Ga29 2.837308 1_455
Ga21 Ga29 2.837308 1_555
Ga21 Ga5 2.907198 1_555
Ga21 Ga5 2.907198 1_455
Ga22 Ga30 2.837308 1_455
Ga22 Ga30 2.837308 1_555
Ga22 Ga8 2.889956 1_445
Ga22 Ga8 2.889956 1_545
Ga22 Ga6 2.907198 1_555
Ga22 Ga6 2.907198 1_455
Ga23 Ga31 2.837308 1_455
Ga23 Ga31 2.837308 1_555
Ga23 Ga9 2.889956 1_465
Ga23 Ga9 2.889956 1_565
Ga23 Ga7 2.907198 1_555
Ga23 Ga7 2.907198 1_455
Ga24 Ga31 2.737541 1_554
Ga24 Ga7 2.793758 1_554
Ga24 Ga30 2.948538 1_565
Ga25 Ga30 2.737541 1_556
Ga25 Ga6 2.793758 1_556
Ga25 Ga31 2.948538 1_545
Ga26 Ga29 2.737541 1_555
Ga26 Ga5 2.793758 1_555
Ga26 Ga28 2.948538 1_555
Ga27 Ga28 2.737541 1_555
Ga27 Ga4 2.793758 1_555
Ga27 Ga29 2.948538 1_555
Ga28 Ga4 2.752942 1_555
Ga29 Ga5 2.752942 1_555
Ga30 Ga6 2.752942 1_555
Ga30 Ga8 2.791684 1_545
Ga31 Ga7 2.752942 1_555
Ga31 Ga9 2.791684 1_565
Co0 Ga20 2.359149 1_555
Co0 Ga0 2.359248 1_555
Co0 Ga16 2.420904 1_555
Co0 Ga27 2.552527 1_455
Co0 Ga27 2.552527 1_555
Co0 Ga4 2.554369 1_455
Co0 Ga4 2.554369 1_555
Co0 Ga28 2.665473 1_555
Co0 Ga28 2.665473 1_455
Co1 Ga21 2.359149 1_555
Co1 Ga0 2.359248 1_555
Co1 Ga17 2.420904 1_555
Co1 Ga26 2.552527 1_455
Co1 Ga26 2.552527 1_555
Co1 Ga5 2.554369 1_555
Co1 Ga5 2.554369 1_455
Co1 Ga29 2.665473 1_555
Co1 Ga29 2.665473 1_455
Co2 Ga22 2.359149 1_555
Co2 Ga1 2.359248 1_555
Co2 Ga18 2.420904 1_555
Co2 Ga25 2.552527 1_554
Co2 Ga25 2.552527 1_454
Co2 Ga6 2.554369 1_555
Co2 Ga6 2.554369 1_455
Co2 Ga30 2.665473 1_455
Co2 Ga30 2.665473 1_555
Co3 Ga23 2.359149 1_555
Co3 Ga1 2.359248 1_566
Co3 Ga19 2.420904 1_555
Co3 Ga24 2.552527 1_456
Co3 Ga24 2.552527 1_556
Co3 Ga7 2.554369 1_455
Co3 Ga7 2.554369 1_555
Co3 Ga31 2.665473 1_455
Co3 Ga31 2.665473 1_555
Co4 Ga20 2.312338 1_555
Co4 Ga2 2.475132 1_455
Co4 Ga2 2.475132 1_555
Co4 Ga19 2.517791 1_554
Co4 Ga18 2.519511 1_555
Co4 Ga10 2.607146 1_455
Co4 Ga10 2.607146 1_555
Co4 Ga12 2.623143 1_555
Co4 Ga12 2.623143 1_455
Co5 Ga21 2.312338 1_555
Co5 Ga2 2.475132 1_556
Co5 Ga2 2.475132 1_456
Co5 Ga18 2.517791 1_556
Co5 Ga19 2.519511 1_555
Co5 Ga11 2.607146 1_555
Co5 Ga11 2.607146 1_455
Co5 Ga13 2.623143 1_555
Co5 Ga13 2.623143 1_455
Co6 Ga22 2.312338 1_555
Co6 Ga3 2.475132 1_455
Co6 Ga3 2.475132 1_555
Co6 Ga17 2.517791 1_555
Co6 Ga16 2.519511 1_545
Co6 Ga8 2.607146 1_445
Co6 Ga8 2.607146 1_545
Co6 Ga14 2.623143 1_555
Co6 Ga14 2.623143 1_455
Co7 Ga23 2.312338 1_555
Co7 Ga3 2.475132 1_465
Co7 Ga3 2.475132 1_565
Co7 Ga16 2.517791 1_555
Co7 Ga17 2.519511 1_565
Co7 Ga9 2.607146 1_565
Co7 Ga9 2.607146 1_465
Co7 Ga15 2.623143 1_455
Co7 Ga15 2.623143 1_555
