# generated using pymatgen
data_Mg(Fe2O3)2
_symmetry_space_group_name_H-M   'P 1'
_cell_length_a   5.27662472
_cell_length_b   5.27662472
_cell_length_c   15.34268800
_cell_angle_alpha   90.00000000
_cell_angle_beta   90.00000000
_cell_angle_gamma   147.31149618
_symmetry_Int_Tables_number   1
_chemical_formula_structural   Mg(Fe2O3)2
_chemical_formula_sum   'Mg2 Fe8 O12'
_cell_volume   230.70929874
_cell_formula_units_Z   2
loop_
 _symmetry_equiv_pos_site_id
 _symmetry_equiv_pos_as_xyz
  1  'x, y, z'
loop_
 _atom_site_type_symbol
 _atom_site_label
 _atom_site_symmetry_multiplicity
 _atom_site_fract_x
 _atom_site_fract_y
 _atom_site_fract_z
 _atom_site_occupancy
  Mg  Mg0  1  0.34821000  0.65179000  0.75000000  1
  Mg  Mg1  1  0.65179000  0.34821000  0.25000000  1
  Fe  Fe0  1  0.13455000  0.86545000  0.04634600  1
  Fe  Fe1  1  0.60034300  0.39965700  0.63768600  1
  Fe  Fe2  1  0.86545000  0.13455000  0.95365400  1
  Fe  Fe3  1  0.39965700  0.60034300  0.36231400  1
  Fe  Fe4  1  0.13455000  0.86545000  0.45365400  1
  Fe  Fe5  1  0.86545000  0.13455000  0.54634600  1
  Fe  Fe6  1  0.39965700  0.60034300  0.13768600  1
  Fe  Fe7  1  0.60034300  0.39965700  0.86231400  1
  O  O0  1  0.50000000  0.50000000  0.50000000  1
  O  O1  1  0.50000000  0.50000000  0.00000000  1
  O  O2  1  0.96361200  0.03638800  0.83562600  1
  O  O3  1  0.03638800  0.96361200  0.16437400  1
  O  O4  1  0.03638800  0.96361200  0.33562600  1
  O  O5  1  0.96361200  0.03638800  0.66437400  1
  O  O6  1  0.21335900  0.78664100  0.91597000  1
  O  O7  1  0.78664100  0.21335900  0.08403000  1
  O  O8  1  0.78664100  0.21335900  0.41597000  1
  O  O9  1  0.21335900  0.78664100  0.58403000  1
  O  O10  1  0.70183800  0.29816200  0.75000000  1
  O  O11  1  0.29816200  0.70183800  0.25000000  1
loop_
_geom_bond_atom_site_label_1
_geom_bond_atom_site_label_2
_geom_bond_distance
_geom_bond_site_symmetry_2
Mg0 O10 2.098100 1_565
Mg0 O10 2.098100 1_455
Mg0 O2 2.301416 1_565
Mg0 O5 2.301416 1_565
Mg0 O5 2.301416 1_455
Mg0 O2 2.301416 1_455
Mg1 O11 2.098100 1_655
Mg1 O11 2.098100 1_545
Mg1 O4 2.301416 1_655
Mg1 O3 2.301416 1_655
Mg1 O3 2.301416 1_545
Mg1 O4 2.301416 1_545
Fe0 O3 2.065769 1_555
Fe0 O1 2.137070 1_565
Fe0 O1 2.137070 1_455
Fe0 O6 2.153650 1_554
Fe0 O7 2.216158 1_565
Fe0 O7 2.216158 1_455
Fe1 O10 2.006445 1_555
Fe1 O9 2.047544 1_655
Fe1 O9 2.047544 1_545
Fe1 O5 2.071179 1_565
Fe1 O5 2.071179 1_455
Fe1 O0 2.344164 1_555
Fe2 O2 2.065769 1_555
Fe2 O1 2.137070 1_656
Fe2 O1 2.137070 1_546
Fe2 O7 2.153650 1_556
Fe2 O6 2.216158 1_655
Fe2 O6 2.216158 1_545
Fe3 O11 2.006445 1_555
Fe3 O8 2.047544 1_565
Fe3 O8 2.047544 1_455
Fe3 O4 2.071179 1_655
Fe3 O4 2.071179 1_545
Fe3 O0 2.344164 1_555
Fe4 O4 2.065769 1_555
Fe4 O0 2.137070 1_565
Fe4 O0 2.137070 1_455
Fe4 O9 2.153650 1_555
Fe4 O8 2.216158 1_565
Fe4 O8 2.216158 1_455
Fe5 O5 2.065769 1_555
Fe5 O0 2.137070 1_545
Fe5 O0 2.137070 1_655
Fe5 O8 2.153650 1_555
Fe5 O9 2.216158 1_655
Fe5 O9 2.216158 1_545
Fe6 O11 2.006445 1_555
Fe6 O7 2.047544 1_565
Fe6 O7 2.047544 1_455
Fe6 O3 2.071179 1_655
Fe6 O3 2.071179 1_545
Fe6 O1 2.344164 1_555
Fe7 O10 2.006445 1_555
Fe7 O6 2.047544 1_655
Fe7 O6 2.047544 1_545
Fe7 O2 2.071179 1_565
Fe7 O2 2.071179 1_455
Fe7 O1 2.344164 1_556
