# generated using pymatgen
data_HgB4O7
_symmetry_space_group_name_H-M   'P 1'
_cell_length_a   4.24180200
_cell_length_b   4.44825600
_cell_length_c   10.83168600
_cell_angle_alpha   90.00000000
_cell_angle_beta   90.00000000
_cell_angle_gamma   90.00000000
_symmetry_Int_Tables_number   1
_chemical_formula_structural   HgB4O7
_chemical_formula_sum   'Hg2 B8 O14'
_cell_volume   204.37898006
_cell_formula_units_Z   2
loop_
 _symmetry_equiv_pos_site_id
 _symmetry_equiv_pos_as_xyz
  1  'x, y, z'
loop_
 _atom_site_type_symbol
 _atom_site_label
 _atom_site_symmetry_multiplicity
 _atom_site_fract_x
 _atom_site_fract_y
 _atom_site_fract_z
 _atom_site_occupancy
  Hg  Hg0  1  0.39269500  0.17684500  0.50000000  1
  Hg  Hg1  1  0.89269500  0.82315500  0.00000000  1
  B  B0  1  0.40852300  0.32631100  0.87938300  1
  B  B1  1  0.93112000  0.17298700  0.24877700  1
  B  B2  1  0.43112000  0.82701300  0.25122300  1
  B  B3  1  0.90852300  0.67368900  0.62061700  1
  B  B4  1  0.90852300  0.67368900  0.37938300  1
  B  B5  1  0.40852300  0.32631100  0.12061700  1
  B  B6  1  0.93112000  0.17298700  0.75122300  1
  B  B7  1  0.43112000  0.82701300  0.74877700  1
  O  O0  1  0.07219500  0.26697100  0.13483800  1
  O  O1  1  0.57219500  0.73302900  0.36516200  1
  O  O2  1  0.48014800  0.64439500  0.85829600  1
  O  O3  1  0.98014800  0.35560500  0.64170400  1
  O  O4  1  0.98014800  0.35560500  0.35829600  1
  O  O5  1  0.48014800  0.64439500  0.14170400  1
  O  O6  1  0.57597600  0.13293300  0.77910300  1
  O  O7  1  0.07597600  0.86706700  0.72089700  1
  O  O8  1  0.07597600  0.86706700  0.27910300  1
  O  O9  1  0.57597600  0.13293300  0.22089700  1
  O  O10  1  0.51655200  0.23300300  0.00000000  1
  O  O11  1  0.01655200  0.76699700  0.50000000  1
  O  O12  1  0.07219500  0.26697100  0.86516200  1
  O  O13  1  0.57219500  0.73302900  0.63483800  1
loop_
_geom_bond_atom_site_label_1
_geom_bond_atom_site_label_2
_geom_bond_distance
_geom_bond_site_symmetry_2
Hg0 O11 2.422689 1_545
Hg0 O3 2.459775 1_455
Hg0 O4 2.459775 1_455
Hg0 O1 2.571061 1_545
Hg0 O13 2.571061 1_545
Hg1 O10 2.422689 1_565
Hg1 O5 2.459775 1_555
Hg1 O2 2.459775 1_554
Hg1 O0 2.571061 1_665
Hg1 O12 2.571061 1_664
B0 O10 1.445392 1_556
B0 O12 1.459005 1_555
B0 O2 1.465084 1_555
B0 O6 1.557016 1_555
B1 O0 1.433878 1_655
B1 O4 1.452715 1_555
B1 O8 1.528808 1_645
B1 O9 1.546717 1_555
B2 O1 1.433878 1_555
B2 O5 1.452715 1_555
B2 O9 1.528808 1_565
B2 O8 1.546717 1_555
B3 O11 1.445392 1_655
B3 O13 1.459005 1_555
B3 O3 1.465084 1_555
B3 O7 1.557016 1_655
B4 O11 1.445392 1_655
B4 O1 1.459005 1_555
B4 O4 1.465084 1_555
B4 O8 1.557016 1_655
B5 O10 1.445392 1_555
B5 O0 1.459005 1_555
B5 O5 1.465084 1_555
B5 O9 1.557016 1_555
B6 O12 1.433878 1_655
B6 O3 1.452715 1_555
B6 O7 1.528808 1_645
B6 O6 1.546717 1_555
B7 O13 1.433878 1_555
B7 O2 1.452715 1_555
B7 O6 1.528808 1_565
B7 O7 1.546717 1_555
