# generated using pymatgen
data_Sr2La3Ti2O10
_symmetry_space_group_name_H-M   'P 1'
_cell_length_a   5.60028754
_cell_length_b   6.88365272
_cell_length_c   12.38238147
_cell_angle_alpha   94.31937024
_cell_angle_beta   90.04739288
_cell_angle_gamma   89.98038841
_symmetry_Int_Tables_number   1
_chemical_formula_structural   Sr2La3Ti2O10
_chemical_formula_sum   'Sr4 La6 Ti4 O20'
_cell_volume   475.99021244
_cell_formula_units_Z   2
loop_
 _symmetry_equiv_pos_site_id
 _symmetry_equiv_pos_as_xyz
  1  'x, y, z'
loop_
 _atom_site_type_symbol
 _atom_site_label
 _atom_site_symmetry_multiplicity
 _atom_site_fract_x
 _atom_site_fract_y
 _atom_site_fract_z
 _atom_site_occupancy
  Sr  Sr0  1  0.74997200  0.68523300  0.54609900  1
  Sr  Sr1  1  0.25005800  0.31478900  0.45416100  1
  Sr  Sr2  1  0.74995700  0.18522500  0.65235200  1
  Sr  Sr3  1  0.25003600  0.81487700  0.34783800  1
  La  La0  1  0.74991300  0.41223700  0.94180700  1
  La  La1  1  0.25003400  0.58761100  0.05804000  1
  La  La2  1  0.75011600  0.44253300  0.25558400  1
  La  La3  1  0.24992400  0.55755000  0.74436400  1
  La  La4  1  0.74982300  0.96701200  0.10216500  1
  La  La5  1  0.25001900  0.03268100  0.89708200  1
  Ti  Ti0  1  0.74997300  0.04892100  0.39271500  1
  Ti  Ti1  1  0.25004600  0.95110800  0.60729400  1
  Ti  Ti2  1  0.75006300  0.80979300  0.81678900  1
  Ti  Ti3  1  0.24991600  0.19044300  0.18307300  1
  O  O0  1  0.74990100  0.34434600  0.45060900  1
  O  O1  1  0.25012700  0.65551700  0.54929700  1
  O  O2  1  0.74996900  0.52442700  0.74113300  1
  O  O3  1  0.25001700  0.47511600  0.25888100  1
  O  O4  1  0.74994300  0.76183000  0.34665800  1
  O  O5  1  0.25006600  0.23843500  0.65331100  1
  O  O6  1  0.75026000  0.63767000  0.10921000  1
  O  O7  1  0.24979900  0.36224500  0.89080200  1
  O  O8  1  0.75024000  0.07736600  0.89167400  1
  O  O9  1  0.24983700  0.92298500  0.10863500  1
  O  O10  1  0.00579500  0.88893000  0.71762800  1
  O  O11  1  0.99432200  0.11109000  0.28233500  1
  O  O12  1  0.50549100  0.11107500  0.28229900  1
  O  O13  1  0.49440500  0.88898500  0.71766900  1
  O  O14  1  0.99977200  0.72739800  0.91671400  1
  O  O15  1  0.00023300  0.27253300  0.08350100  1
  O  O16  1  0.49989500  0.27258600  0.08343700  1
  O  O17  1  0.50006700  0.72744100  0.91679700  1
  O  O18  1  0.99997800  0.00001100  0.50002500  1
  O  O19  1  0.50003500  0.00000100  0.50002300  1
loop_
_geom_bond_atom_site_label_1
_geom_bond_atom_site_label_2
_geom_bond_distance
_geom_bond_site_symmetry_2
La0 O8 2.341678 1_555
La0 O15 2.493493 1_656
La0 O16 2.493802 1_556
La0 O6 2.494045 1_556
La0 O17 2.619150 1_555
La0 O14 2.620194 1_555
La0 O2 2.657031 1_555
La0 O7 2.885144 1_655
La0 O7 2.885597 1_555
La1 O9 2.346114 1_555
La1 O14 2.490226 1_454
La1 O17 2.490882 1_554
La1 O7 2.492184 1_554
La1 O16 2.619031 1_555
La1 O15 2.620373 1_555
La1 O3 2.659768 1_555
La1 O6 2.885013 1_455
La1 O6 2.886681 1_555
La2 O6 2.335824 1_555
La2 O4 2.393590 1_555
La2 O0 2.556228 1_555
La2 O11 2.701201 1_555
La2 O12 2.703463 1_555
La2 O16 2.737967 1_555
La2 O15 2.738607 1_655
La2 O3 2.808654 1_655
La2 O3 2.809673 1_555
La3 O7 2.337205 1_555
La3 O5 2.392379 1_555
La3 O1 2.556222 1_555
La3 O10 2.700578 1_555
La3 O13 2.702873 1_555
La3 O17 2.740245 1_555
La3 O14 2.740790 1_455
La3 O2 2.809245 1_455
La3 O2 2.809658 1_555
La4 O6 2.275310 1_555
La4 O16 2.551145 1_565
La4 O15 2.553203 1_665
La4 O11 2.738279 1_565
La4 O12 2.738935 1_565
La4 O8 2.769209 1_564
La4 O9 2.818194 1_655
La4 O9 2.818376 1_555
La4 O17 3.061122 1_554
La4 O14 3.063707 1_554
La5 O7 2.275782 1_555
La5 O17 2.551496 1_545
La5 O14 2.553202 1_445
La5 O10 2.729857 1_545
La5 O13 2.731301 1_545
La5 O9 2.780303 1_546
La5 O8 2.816945 1_455
La5 O8 2.819723 1_555
O0 Ti0 2.104719 1_555
O0 Sr0 2.546843 1_555
O0 Sr2 2.802180 1_555
O0 Sr1 2.807339 1_555
O0 Sr1 2.808881 1_655
O1 Ti1 2.106136 1_555
O1 Sr1 2.544144 1_555
O1 Sr3 2.799696 1_555
O1 Sr0 2.807339 1_555
O1 Sr0 2.808865 1_455
O2 Ti2 2.111661 1_555
O2 Sr2 2.504764 1_555
O2 Sr0 2.731323 1_555
O3 Ti3 2.108090 1_555
O3 Sr3 2.509027 1_555
O3 Sr1 2.732557 1_555
O4 Ti0 2.015186 1_565
O4 Sr0 2.563757 1_555
O4 Sr3 2.823120 1_555
O4 Sr3 2.824377 1_655
O5 Ti1 2.016641 1_545
O5 Sr1 2.559765 1_555
O5 Sr2 2.823187 1_555
O5 Sr2 2.824627 1_455
O8 Ti2 1.998765 1_545
O8 Sr2 3.108740 1_555
O9 Ti3 1.995885 1_565
O9 Sr3 3.107842 1_555
O10 Ti2 1.989895 1_455
O10 Ti1 2.003085 1_555
O10 Sr2 2.666546 1_465
O10 Sr0 2.842100 1_455
O11 Ti3 1.990614 1_655
O11 Ti0 2.003841 1_555
O11 Sr3 2.666743 1_645
O11 Sr1 2.844473 1_655
O12 Ti3 1.988555 1_555
O12 Ti0 2.002889 1_555
O12 Sr3 2.667514 1_545
O12 Sr1 2.845269 1_555
O13 Ti2 1.987664 1_555
O13 Ti1 2.002008 1_555
O13 Sr2 2.667038 1_565
O13 Sr0 2.843191 1_555
O14 Ti2 1.977516 1_555
O15 Ti3 1.973889 1_555
O16 Ti3 1.977415 1_555
O17 Ti2 1.980941 1_555
O18 Ti1 1.975545 1_645
O18 Ti0 1.975653 1_555
O18 Sr3 2.603403 1_645
O18 Sr2 2.604722 1_555
O18 Sr1 2.677283 1_655
O18 Sr0 2.677779 1_545
O19 Ti1 1.976953 1_545
O19 Ti0 1.977106 1_555
O19 Sr3 2.601970 1_545
O19 Sr2 2.603263 1_555
O19 Sr1 2.675764 1_555
O19 Sr0 2.676257 1_545
