# generated using pymatgen
data_Ca14MnP9(O12F)3
_symmetry_space_group_name_H-M   'P 1'
_cell_length_a   9.46051137
_cell_length_b   9.46051137
_cell_length_c   20.71867800
_cell_angle_alpha   90.00000000
_cell_angle_beta   90.00000000
_cell_angle_gamma   119.99999561
_symmetry_Int_Tables_number   1
_chemical_formula_structural   Ca14MnP9(O12F)3
_chemical_formula_sum   'Ca28 Mn2 P18 O72 F6'
_cell_volume   1605.91263840
_cell_formula_units_Z   2
loop_
 _symmetry_equiv_pos_site_id
 _symmetry_equiv_pos_as_xyz
  1  'x, y, z'
loop_
 _atom_site_type_symbol
 _atom_site_label
 _atom_site_symmetry_multiplicity
 _atom_site_fract_x
 _atom_site_fract_y
 _atom_site_fract_z
 _atom_site_occupancy
  Ca  Ca0  1  0.00000000  0.00000000  0.83098700  1
  Ca  Ca1  1  0.00000000  0.00000000  0.49867100  1
  Ca  Ca2  1  0.00000000  0.00000000  0.16616900  1
  Ca  Ca3  1  0.33333300  0.66666700  0.99849600  1
  Ca  Ca4  1  0.33333300  0.66666700  0.66497100  1
  Ca  Ca5  1  0.33333300  0.66666700  0.33163900  1
  Ca  Ca6  1  0.33333300  0.66666700  0.83214700  1
  Ca  Ca7  1  0.33333300  0.66666700  0.49886500  1
  Ca  Ca8  1  0.33333300  0.66666700  0.16571400  1
  Ca  Ca9  1  0.00000000  0.00000000  0.99901200  1
  Ca  Ca10  1  0.91383400  0.57638100  0.91517600  1
  Ca  Ca11  1  0.91373900  0.57671600  0.58205800  1
  Ca  Ca12  1  0.91373300  0.57666900  0.24880000  1
  Ca  Ca13  1  0.66254600  0.08616600  0.91517600  1
  Ca  Ca14  1  0.66297800  0.08626100  0.58205800  1
  Ca  Ca15  1  0.66293500  0.08626700  0.24880000  1
  Ca  Ca16  1  0.42361900  0.33745400  0.91517600  1
  Ca  Ca17  1  0.42328400  0.33702200  0.58205800  1
  Ca  Ca18  1  0.42333100  0.33706500  0.24880000  1
  Ca  Ca19  1  0.41943600  0.09021100  0.74824800  1
  Ca  Ca20  1  0.41923900  0.09011000  0.41500000  1
  Ca  Ca21  1  0.41929600  0.09012700  0.08199500  1
  Ca  Ca22  1  0.67077500  0.58056400  0.74824800  1
  Ca  Ca23  1  0.67087000  0.58076100  0.41500000  1
  Ca  Ca24  1  0.67083100  0.58070400  0.08199500  1
  Ca  Ca25  1  0.90978900  0.32922500  0.74824800  1
  Ca  Ca26  1  0.90989000  0.32913000  0.41500000  1
  Ca  Ca27  1  0.90987300  0.32916900  0.08199500  1
  Mn  Mn0  1  0.00000000  0.00000000  0.66631200  1
  Mn  Mn1  1  0.00000000  0.00000000  0.33316000  1
  P  P0  1  0.69590200  0.73125400  0.91484000  1
  P  P1  1  0.69738500  0.73179900  0.58238200  1
  P  P2  1  0.69731100  0.73174400  0.24910700  1
  P  P3  1  0.03535200  0.30409800  0.91484000  1
  P  P4  1  0.03441500  0.30261500  0.58238200  1
  P  P5  1  0.03443300  0.30268900  0.24910700  1
  P  P6  1  0.26874600  0.96464800  0.91484000  1
  P  P7  1  0.26820100  0.96558500  0.58238200  1
  P  P8  1  0.26825600  0.96556700  0.24910700  1
  P  P9  1  0.63923000  0.93530300  0.74736800  1
  P  P10  1  0.63931600  0.93529700  0.41404100  1
  P  P11  1  0.63758700  0.93535000  0.08158900  1
  P  P12  1  0.29607300  0.36077000  0.74736800  1
  P  P13  1  0.29598200  0.36068400  0.41404100  1
  P  P14  1  0.29776300  0.36241300  0.08158900  1
  P  P15  1  0.06469700  0.70392700  0.74736800  1
  P  P16  1  0.06470300  0.70401800  0.41404100  1
  P  P17  1  0.06465000  0.70223700  0.08158900  1
  O  O0  1  0.75449000  0.67926800  0.85396700  1
  O  O1  1  0.75546900  0.68135400  0.52085500  1
  O  O2  1  0.75544900  0.68129700  0.18761900  1
  O  O3  1  0.92477800  0.24551000  0.85396700  1
  O  O4  1  0.92588500  0.24453100  0.52085500  1
  O  O5  1  0.92584800  0.24455100  0.18761900  1
  O  O6  1  0.32073200  0.07522200  0.85396700  1
  O  O7  1  0.31864600  0.07411500  0.52085500  1
  O  O8  1  0.31870300  0.07415200  0.18761900  1
  O  O9  1  0.57872100  0.98708400  0.68715100  1
  O  O10  1  0.57872000  0.98714600  0.35386800  1
  O  O11  1  0.57882500  0.98740400  0.02080500  1
  O  O12  1  0.40836300  0.42127900  0.68715100  1
  O  O13  1  0.40842600  0.42128000  0.35386800  1
  O  O14  1  0.40858000  0.42117500  0.02080500  1
  O  O15  1  0.01291600  0.59163700  0.68715100  1
  O  O16  1  0.01285400  0.59157400  0.35386800  1
  O  O17  1  0.01259600  0.59142000  0.02080500  1
  O  O18  1  0.58886600  0.99858600  0.80732300  1
  O  O19  1  0.58903900  0.99848100  0.47410300  1
  O  O20  1  0.58519100  0.99765100  0.14125600  1
  O  O21  1  0.40972100  0.41113400  0.80732300  1
  O  O22  1  0.40944200  0.41096100  0.47410300  1
  O  O23  1  0.41246000  0.41480900  0.14125600  1
  O  O24  1  0.00141400  0.59027900  0.80732300  1
  O  O25  1  0.00151900  0.59055800  0.47410300  1
  O  O26  1  0.00234900  0.58754000  0.14125600  1
  O  O27  1  0.74827900  0.66878700  0.97442000  1
  O  O28  1  0.74625200  0.66448900  0.64120200  1
  O  O29  1  0.74624300  0.66447000  0.30792400  1
  O  O30  1  0.92050900  0.25172100  0.97442000  1
  O  O31  1  0.91823800  0.25374800  0.64120200  1
  O  O32  1  0.91822800  0.25375700  0.30792400  1
  O  O33  1  0.33121300  0.07949100  0.97442000  1
  O  O34  1  0.33551100  0.08176200  0.64120200  1
  O  O35  1  0.33553000  0.08177200  0.30792400  1
  O  O36  1  0.50860700  0.65988500  0.91426000  1
  O  O37  1  0.51026400  0.66254100  0.58095400  1
  O  O38  1  0.51029600  0.66271700  0.24770500  1
  O  O39  1  0.15127700  0.49139300  0.91426000  1
  O  O40  1  0.15227700  0.48973600  0.58095400  1
  O  O41  1  0.15242000  0.48970400  0.24770500  1
  O  O42  1  0.34011500  0.84872300  0.91426000  1
  O  O43  1  0.33745900  0.84772300  0.58095400  1
  O  O44  1  0.33728300  0.84758000  0.24770500  1
  O  O45  1  0.82723000  0.00564600  0.74526700  1
  O  O46  1  0.82728700  0.00565300  0.41200100  1
  O  O47  1  0.82473300  0.00650000  0.08107400  1
  O  O48  1  0.17841600  0.17277000  0.74526700  1
  O  O49  1  0.17836600  0.17271300  0.41200100  1
  O  O50  1  0.18176700  0.17526700  0.08107400  1
  O  O51  1  0.99435400  0.82158400  0.74526700  1
  O  O52  1  0.99434700  0.82163400  0.41200100  1
  O  O53  1  0.99350000  0.81823300  0.08107400  1
  O  O54  1  0.78847800  0.92153000  0.91652800  1
  O  O55  1  0.79304900  0.92259900  0.58604200  1
  O  O56  1  0.79298900  0.92257100  0.25277900  1
  O  O57  1  0.13305200  0.21152200  0.91652800  1
  O  O58  1  0.12955100  0.20695100  0.58604200  1
  O  O59  1  0.12958300  0.20701100  0.25277900  1
  O  O60  1  0.07847000  0.86694800  0.91652800  1
  O  O61  1  0.07740100  0.87044900  0.58604200  1
  O  O62  1  0.07742900  0.87041700  0.25277900  1
  O  O63  1  0.54550400  0.74501100  0.74982100  1
  O  O64  1  0.54548100  0.74500100  0.41646400  1
  O  O65  1  0.54484400  0.74502300  0.08325100  1
  O  O66  1  0.19950600  0.45449600  0.74982100  1
  O  O67  1  0.19952000  0.45451900  0.41646400  1
  O  O68  1  0.20017900  0.45515600  0.08325100  1
  O  O69  1  0.25498900  0.80049400  0.74982100  1
  O  O70  1  0.25499900  0.80048000  0.41646400  1
  O  O71  1  0.25497700  0.79982100  0.08325100  1
  F  F0  1  0.66666700  0.33333300  0.91460300  1
  F  F1  1  0.66666700  0.33333300  0.58107700  1
  F  F2  1  0.66666700  0.33333300  0.24771200  1
  F  F3  1  0.66666700  0.33333300  0.74798600  1
  F  F4  1  0.66666700  0.33333300  0.41468100  1
  F  F5  1  0.66666700  0.33333300  0.08127200  1
loop_
_geom_bond_atom_site_label_1
_geom_bond_atom_site_label_2
_geom_bond_distance
_geom_bond_site_symmetry_2
Ca0 O45 2.432266 1_455
Ca0 O51 2.432266 1_445
Ca0 O48 2.432266 1_555
Ca0 O60 2.492191 1_545
Ca0 O54 2.492191 1_445
Ca0 O57 2.492191 1_555
Ca0 O3 2.789392 1_455
Ca0 O6 2.789392 1_555
Ca0 O0 2.789392 1_445
Ca1 O46 2.446332 1_455
Ca1 O52 2.446332 1_445
Ca1 O49 2.446333 1_555
Ca1 O55 2.492516 1_445
Ca1 O58 2.492517 1_555
Ca1 O61 2.492522 1_545
Ca1 O4 2.770690 1_455
Ca1 O7 2.770690 1_555
Ca1 O1 2.770690 1_445
Ca2 O47 2.442019 1_455
Ca2 O53 2.442019 1_445
Ca2 O50 2.442019 1_555
Ca2 O56 2.481426 1_445
Ca2 O59 2.481427 1_555
Ca2 O62 2.481432 1_545
Ca2 O5 2.768625 1_455
Ca2 O8 2.768625 1_555
Ca2 O2 2.768625 1_445
Ca3 O36 2.430227 1_555
Ca3 O42 2.430227 1_555
Ca3 O39 2.430227 1_555
Ca3 O71 2.480674 1_556
Ca3 O68 2.480680 1_556
Ca3 O65 2.480680 1_556
Ca3 O17 2.787030 1_556
Ca3 O11 2.787035 1_556
Ca3 O14 2.787048 1_556
Ca4 O43 2.428732 1_555
Ca4 O40 2.428735 1_555
Ca4 O37 2.428739 1_555
Ca4 O69 2.486192 1_555
Ca4 O63 2.486192 1_555
Ca4 O66 2.486192 1_555
Ca4 O15 2.784271 1_555
Ca4 O9 2.784274 1_555
Ca4 O12 2.784280 1_555
Ca5 O38 2.427117 1_555
Ca5 O44 2.427117 1_555
Ca5 O41 2.427117 1_555
Ca5 O70 2.485686 1_555
Ca5 O67 2.485691 1_555
Ca5 O64 2.485692 1_555
Ca5 O16 2.784830 1_555
Ca5 O10 2.784833 1_555
Ca5 O13 2.784839 1_555
Ca6 O36 2.398834 1_555
Ca6 O42 2.398834 1_555
Ca6 O39 2.398834 1_555
Ca6 O69 2.449494 1_555
Ca6 O63 2.449494 1_555
Ca6 O66 2.449494 1_555
Ca6 O24 2.894457 1_555
Ca6 O18 2.894463 1_555
Ca6 O21 2.894475 1_555
Ca7 O43 2.400264 1_555
Ca7 O40 2.400267 1_555
Ca7 O37 2.400270 1_555
Ca7 O70 2.450435 1_555
Ca7 O67 2.450440 1_555
Ca7 O64 2.450441 1_555
Ca7 O25 2.894049 1_555
Ca7 O19 2.894052 1_555
Ca7 O22 2.894058 1_555
Ca8 O38 2.398438 1_555
Ca8 O44 2.398438 1_555
Ca8 O41 2.398438 1_555
Ca8 O71 2.447289 1_555
Ca8 O68 2.447294 1_555
Ca8 O65 2.447295 1_555
Ca8 O26 2.877159 1_555
Ca8 O20 2.877161 1_555
Ca8 O23 2.877168 1_555
Ca9 O47 2.397045 1_456
Ca9 O53 2.397045 1_446
Ca9 O50 2.397045 1_556
Ca9 O60 2.447554 1_545
Ca9 O54 2.447554 1_445
Ca9 O57 2.447554 1_555
Ca9 O30 2.878739 1_455
Ca9 O27 2.878745 1_445
Ca9 O33 2.878748 1_555
Ca10 F0 2.319118 1_555
Ca10 O17 2.355801 1_656
Ca10 O24 2.363928 1_655
Ca10 O60 2.387822 1_655
Ca10 O27 2.468440 1_555
Ca10 O0 2.509083 1_555
Ca10 O39 2.738421 1_655
Ca11 F1 2.320264 1_555
Ca11 O15 2.347092 1_655
Ca11 O25 2.366600 1_655
Ca11 O61 2.413219 1_655
Ca11 O28 2.453063 1_555
Ca11 O1 2.512387 1_555
Ca11 O40 2.761753 1_655
Ca12 F2 2.320038 1_555
Ca12 O16 2.346437 1_655
Ca12 O26 2.364726 1_655
Ca12 O62 2.413355 1_655
Ca12 O29 2.453055 1_555
Ca12 O2 2.512196 1_555
Ca12 O41 2.763013 1_655
Ca13 F0 2.319109 1_555
Ca13 O11 2.355799 1_546
Ca13 O18 2.363926 1_545
Ca13 O54 2.387830 1_545
Ca13 O30 2.468453 1_555
Ca13 O3 2.509089 1_555
Ca13 O42 2.738421 1_545
Ca14 F1 2.320263 1_555
Ca14 O9 2.347093 1_545
Ca14 O19 2.366601 1_545
Ca14 O55 2.413219 1_545
Ca14 O31 2.453064 1_555
Ca14 O4 2.512380 1_555
Ca14 O43 2.761760 1_545
Ca15 F2 2.320028 1_555
Ca15 O10 2.346435 1_545
Ca15 O20 2.364725 1_545
Ca15 O56 2.413370 1_545
Ca15 O32 2.453067 1_555
Ca15 O5 2.512203 1_555
Ca15 O44 2.763013 1_545
Ca16 F0 2.319128 1_555
Ca16 O14 2.355794 1_556
Ca16 O21 2.363922 1_555
Ca16 O57 2.387821 1_555
Ca16 O33 2.468456 1_555
Ca16 O6 2.509090 1_555
Ca16 O36 2.738421 1_555
Ca17 F1 2.320263 1_555
Ca17 O12 2.347095 1_555
Ca17 O22 2.366603 1_555
Ca17 O58 2.413219 1_555
Ca17 O34 2.453064 1_555
Ca17 O7 2.512379 1_555
Ca17 O37 2.761762 1_555
Ca18 F2 2.320047 1_555
Ca18 O13 2.346433 1_555
Ca18 O23 2.364723 1_555
Ca18 O59 2.413353 1_555
Ca18 O35 2.453070 1_555
Ca18 O8 2.512204 1_555
Ca18 O38 2.763013 1_555
Ca19 F3 2.319746 1_555
Ca19 O34 2.343541 1_555
Ca19 O6 2.357398 1_555
Ca19 O69 2.381110 1_545
Ca19 O18 2.491613 1_545
Ca19 O9 2.509031 1_545
Ca19 O48 2.755716 1_555
Ca20 F4 2.321170 1_555
Ca20 O35 2.343615 1_555
Ca20 O7 2.365284 1_555
Ca20 O70 2.380250 1_545
Ca20 O19 2.494784 1_545
Ca20 O10 2.509809 1_545
Ca20 O49 2.754667 1_555
Ca21 F5 2.320854 1_555
Ca21 O8 2.360873 1_555
Ca21 O33 2.363955 1_554
Ca21 O71 2.385533 1_545
Ca21 O20 2.471671 1_545
Ca21 O11 2.509207 1_545
Ca21 O50 2.740221 1_555
Ca22 F3 2.319750 1_555
Ca22 O28 2.343542 1_555
Ca22 O0 2.357398 1_555
Ca22 O63 2.381118 1_555
Ca22 O21 2.491607 1_555
Ca22 O12 2.509031 1_555
Ca22 O51 2.755716 1_555
Ca23 F4 2.321179 1_555
Ca23 O29 2.343617 1_555
Ca23 O1 2.365286 1_555
Ca23 O64 2.380242 1_555
Ca23 O22 2.494778 1_555
Ca23 O13 2.509802 1_555
Ca23 O52 2.754674 1_555
Ca24 F5 2.320858 1_555
Ca24 O2 2.360873 1_555
Ca24 O27 2.363956 1_554
Ca24 O65 2.385533 1_555
Ca24 O23 2.471671 1_555
Ca24 O14 2.509201 1_555
Ca24 O53 2.740221 1_555
Ca25 F3 2.319741 1_555
Ca25 O31 2.343544 1_555
Ca25 O3 2.357398 1_555
Ca25 O66 2.381109 1_655
Ca25 O24 2.491605 1_655
Ca25 O15 2.509031 1_655
Ca25 O45 2.755716 1_555
Ca26 F4 2.321160 1_555
Ca26 O32 2.343621 1_555
Ca26 O4 2.365288 1_555
Ca26 O67 2.380250 1_655
Ca26 O25 2.494777 1_655
Ca26 O16 2.509801 1_655
Ca26 O46 2.754676 1_555
Ca27 F5 2.320849 1_555
Ca27 O5 2.360873 1_555
Ca27 O30 2.363958 1_554
Ca27 O68 2.385533 1_655
Ca27 O26 2.471671 1_655
Ca27 O17 2.509200 1_655
Ca27 O47 2.740221 1_555
Mn0 O45 2.331889 1_455
Mn0 O51 2.331889 1_445
Mn0 O48 2.331889 1_555
Mn0 O55 2.387809 1_445
Mn0 O58 2.387810 1_555
Mn0 O61 2.387815 1_545
Mn1 O46 2.329873 1_455
Mn1 O52 2.329873 1_445
Mn1 O49 2.329873 1_555
Mn1 O56 2.389762 1_445
Mn1 O59 2.389763 1_555
Mn1 O62 2.389768 1_545
O0 P0 1.553172 1_555
O1 P1 1.554657 1_555
O2 P2 1.554263 1_555
O3 P3 1.553172 1_655
O4 P4 1.554662 1_655
O5 P5 1.554263 1_655
O6 P6 1.553172 1_545
O7 P7 1.554662 1_545
O8 P8 1.554263 1_545
O9 P9 1.550692 1_555
O10 P10 1.550715 1_555
O11 P11 1.552844 1_555
O12 P12 1.550692 1_555
O13 P13 1.550711 1_555
O14 P14 1.552849 1_555
O15 P15 1.550692 1_555
O16 P16 1.550710 1_555
O17 P17 1.552849 1_555
O18 P9 1.553622 1_555
O19 P10 1.554481 1_555
O20 P11 1.553547 1_555
O21 P12 1.553627 1_555
O22 P13 1.554476 1_555
O23 P14 1.553547 1_555
O24 P15 1.553627 1_555
O25 P16 1.554476 1_555
O26 P17 1.553547 1_555
O27 P0 1.552869 1_555
O28 P1 1.548799 1_555
O29 P2 1.548870 1_555
O30 P3 1.552864 1_655
O31 P4 1.548799 1_655
O32 P5 1.548864 1_655
O33 P6 1.552864 1_545
O34 P7 1.548799 1_545
O35 P8 1.548865 1_545
O36 P0 1.548969 1_555
O37 P1 1.550517 1_555
O38 P2 1.549899 1_555
O39 P3 1.548968 1_555
O40 P4 1.550515 1_555
O41 P5 1.549897 1_555
O42 P6 1.548961 1_555
O43 P7 1.550508 1_555
O44 P8 1.549890 1_555
O45 P9 1.557076 1_545
O46 P10 1.556768 1_545
O47 P11 1.547937 1_545
O48 P12 1.557076 1_555
O49 P13 1.556770 1_555
O50 P14 1.547937 1_555
O51 P15 1.557076 1_655
O52 P16 1.556777 1_655
O53 P17 1.547937 1_655
O54 P0 1.559520 1_555
O55 P1 1.565073 1_555
O56 P2 1.565306 1_555
O57 P3 1.559520 1_555
O58 P4 1.565073 1_555
O59 P5 1.565314 1_555
O60 P6 1.559520 1_555
O61 P7 1.565073 1_555
O62 P8 1.565306 1_555
O63 P9 1.559957 1_555
O64 P10 1.559961 1_555
O65 P11 1.559906 1_555
O66 P12 1.559965 1_555
O67 P13 1.559969 1_555
O68 P14 1.559906 1_555
O69 P15 1.559957 1_555
O70 P16 1.559961 1_555
O71 P17 1.559906 1_555
