# generated using pymatgen
data_LiGaPt
_symmetry_space_group_name_H-M   'P 1'
_cell_length_a   4.20287790
_cell_length_b   4.20287790
_cell_length_c   5.42019900
_cell_angle_alpha   90.00000000
_cell_angle_beta   90.00000000
_cell_angle_gamma   119.99999840
_symmetry_Int_Tables_number   1
_chemical_formula_structural   LiGaPt
_chemical_formula_sum   'Li2 Ga2 Pt2'
_cell_volume   82.91620502
_cell_formula_units_Z   2
loop_
 _symmetry_equiv_pos_site_id
 _symmetry_equiv_pos_as_xyz
  1  'x, y, z'
loop_
 _atom_site_type_symbol
 _atom_site_label
 _atom_site_symmetry_multiplicity
 _atom_site_fract_x
 _atom_site_fract_y
 _atom_site_fract_z
 _atom_site_occupancy
  Li  Li0  1  0.66666700  0.33333300  0.25000000  1
  Li  Li1  1  0.33333300  0.66666700  0.75000000  1
  Ga  Ga0  1  0.66666700  0.33333300  0.75000000  1
  Ga  Ga1  1  0.33333300  0.66666700  0.25000000  1
  Pt  Pt0  1  0.00000000  0.00000000  0.00000000  1
  Pt  Pt1  1  0.00000000  0.00000000  0.50000000  1
loop_
_geom_bond_atom_site_label_1
_geom_bond_atom_site_label_2
_geom_bond_distance
_geom_bond_site_symmetry_2
Li0 Pt0 2.779246 1_655
Li0 Pt1 2.779246 1_655
Li0 Pt0 2.779249 1_665
Li0 Pt1 2.779249 1_665
Li0 Pt0 2.779249 1_555
Li0 Pt1 2.779249 1_555
Li1 Pt0 2.779246 1_566
Li1 Pt1 2.779246 1_565
Li1 Pt1 2.779249 1_555
Li1 Pt0 2.779249 1_666
Li1 Pt0 2.779249 1_556
Li1 Pt1 2.779249 1_665
Ga0 Li1 2.426530 1_545
Ga0 Li1 2.426530 1_655
Ga0 Li1 2.426538 1_555
Ga0 Li0 2.710100 1_556
Ga0 Li0 2.710100 1_555
Ga0 Pt0 2.779246 1_656
Ga0 Pt1 2.779246 1_655
Ga0 Pt0 2.779249 1_666
Ga0 Pt1 2.779249 1_665
Ga0 Pt0 2.779249 1_556
Ga0 Pt1 2.779249 1_555
Ga1 Li0 2.426530 1_455
Ga1 Li0 2.426530 1_565
Ga1 Li0 2.426538 1_555
Ga1 Li1 2.710100 1_554
Ga1 Li1 2.710100 1_555
Ga1 Pt0 2.779246 1_565
Ga1 Pt1 2.779246 1_565
Ga1 Pt1 2.779249 1_665
Ga1 Pt0 2.779249 1_555
Ga1 Pt0 2.779249 1_665
Ga1 Pt1 2.779249 1_555
Pt0 Pt1 2.710100 1_554
Pt0 Pt1 2.710100 1_555
