# generated using pymatgen
data_MgTi
_symmetry_space_group_name_H-M   'P 1'
_cell_length_a   4.78567900
_cell_length_b   5.07868800
_cell_length_c   6.46681600
_cell_angle_alpha   90.00000000
_cell_angle_beta   90.00000000
_cell_angle_gamma   90.00000000
_symmetry_Int_Tables_number   1
_chemical_formula_structural   MgTi
_chemical_formula_sum   'Mg4 Ti4'
_cell_volume   157.17577217
_cell_formula_units_Z   4
loop_
 _symmetry_equiv_pos_site_id
 _symmetry_equiv_pos_as_xyz
  1  'x, y, z'
loop_
 _atom_site_type_symbol
 _atom_site_label
 _atom_site_symmetry_multiplicity
 _atom_site_fract_x
 _atom_site_fract_y
 _atom_site_fract_z
 _atom_site_occupancy
  Mg  Mg0  1  0.25000000  0.56633700  0.86586100  1
  Mg  Mg1  1  0.25000000  0.06633700  0.13413900  1
  Mg  Mg2  1  0.75000000  0.93366300  0.86586100  1
  Mg  Mg3  1  0.75000000  0.43366300  0.13413900  1
  Ti  Ti0  1  0.25000000  0.08210700  0.59724400  1
  Ti  Ti1  1  0.25000000  0.58210700  0.40275600  1
  Ti  Ti2  1  0.75000000  0.41789300  0.59724400  1
  Ti  Ti3  1  0.75000000  0.91789300  0.40275600  1
loop_
_geom_bond_atom_site_label_1
_geom_bond_atom_site_label_2
_geom_bond_distance
_geom_bond_site_symmetry_2
Mg0 Ti1 2.995886 1_555
Mg0 Ti0 3.010885 1_555
Mg0 Mg3 3.031434 1_556
Mg0 Mg3 3.031434 1_456
Mg0 Mg2 3.034122 1_455
Mg0 Mg2 3.034122 1_555
Mg0 Ti2 3.051484 1_555
Mg0 Ti2 3.051484 1_455
Mg0 Mg1 3.075412 1_556
Mg0 Mg1 3.075412 1_566
Mg0 Ti0 3.143079 1_565
Mg0 Ti1 3.472925 1_556
Mg1 Ti0 2.995886 1_555
Mg1 Ti1 3.010885 1_545
Mg1 Mg2 3.031434 1_544
Mg1 Mg2 3.031434 1_444
Mg1 Mg3 3.034122 1_455
Mg1 Mg3 3.034122 1_555
Mg1 Ti3 3.051484 1_545
Mg1 Ti3 3.051484 1_445
Mg1 Ti1 3.143079 1_555
Mg1 Ti0 3.472925 1_554
Mg2 Ti3 2.995886 1_555
Mg2 Ti2 3.010885 1_565
Mg2 Ti0 3.051484 1_565
Mg2 Ti0 3.051484 1_665
Mg2 Mg3 3.075412 1_556
Mg2 Mg3 3.075412 1_566
Mg2 Ti2 3.143079 1_555
Mg2 Ti3 3.472925 1_556
Mg3 Ti2 2.995886 1_555
Mg3 Ti3 3.010885 1_555
Mg3 Ti1 3.051484 1_655
Mg3 Ti1 3.051484 1_555
Mg3 Ti3 3.143079 1_545
Mg3 Ti2 3.472925 1_554
Ti0 Ti3 2.828971 1_545
Ti0 Ti3 2.828971 1_445
Ti0 Ti1 2.833747 1_555
Ti0 Ti1 2.833747 1_545
Ti0 Ti2 2.938351 1_555
Ti0 Ti2 2.938351 1_455
Ti1 Ti2 2.828971 1_455
Ti1 Ti2 2.828971 1_555
Ti1 Ti3 2.938351 1_455
Ti1 Ti3 2.938351 1_555
Ti2 Ti3 2.833747 1_545
Ti2 Ti3 2.833747 1_555
