# generated using pymatgen
data_KEuSbWO6
_symmetry_space_group_name_H-M   'P 1'
_cell_length_a   8.41792600
_cell_length_b   8.40426722
_cell_length_c   8.44088553
_cell_angle_alpha   90.00000000
_cell_angle_beta   90.00000000
_cell_angle_gamma   90.00000000
_symmetry_Int_Tables_number   1
_chemical_formula_structural   KEuSbWO6
_chemical_formula_sum   'K4 Eu4 Sb4 W4 O24'
_cell_volume   597.16310428
_cell_formula_units_Z   4
loop_
 _symmetry_equiv_pos_site_id
 _symmetry_equiv_pos_as_xyz
  1  'x, y, z'
loop_
 _atom_site_type_symbol
 _atom_site_label
 _atom_site_symmetry_multiplicity
 _atom_site_fract_x
 _atom_site_fract_y
 _atom_site_fract_z
 _atom_site_occupancy
  K  K0  1  0.00000000  0.50000000  0.50000000  1
  K  K1  1  0.50000000  0.50000000  0.00000000  1
  K  K2  1  0.50000000  -0.00000000  0.00000000  1
  K  K3  1  0.00000000  -0.00000000  0.50000000  1
  Eu  Eu0  1  0.50000000  -0.00000000  0.50000000  1
  Eu  Eu1  1  0.00000000  0.50000000  0.00000000  1
  Eu  Eu2  1  0.00000000  -0.00000000  0.00000000  1
  Eu  Eu3  1  0.50000000  0.50000000  0.50000000  1
  Sb  Sb0  1  0.75000000  0.75000000  0.75000000  1
  Sb  Sb1  1  0.25000000  0.25000000  0.75000000  1
  Sb  Sb2  1  0.25000000  0.75000000  0.25000000  1
  Sb  Sb3  1  0.75000000  0.25000000  0.25000000  1
  W  W0  1  0.25000000  0.25000000  0.25000000  1
  W  W1  1  0.75000000  0.75000000  0.25000000  1
  W  W2  1  0.75000000  0.25000000  0.75000000  1
  W  W3  1  0.25000000  0.75000000  0.75000000  1
  O  O0  1  0.01817016  0.23582410  0.25446183  1
  O  O1  1  0.98182984  0.76417590  0.25446183  1
  O  O2  1  0.98182984  0.23582410  0.74553817  1
  O  O3  1  0.01817016  0.76417590  0.74553817  1
  O  O4  1  0.26207648  0.01834116  0.23695658  1
  O  O5  1  0.26207648  0.98165884  0.76304342  1
  O  O6  1  0.73792352  0.98165884  0.23695658  1
  O  O7  1  0.73792352  0.01834116  0.76304342  1
  O  O8  1  0.22544423  0.26334382  0.01786375  1
  O  O9  1  0.77455577  0.26334382  0.98213625  1
  O  O10  1  0.22544423  0.73665618  0.98213625  1
  O  O11  1  0.77455577  0.73665618  0.01786375  1
  O  O12  1  0.48182984  0.26417590  0.24553817  1
  O  O13  1  0.51817016  0.73582410  0.24553817  1
  O  O14  1  0.51817016  0.26417590  0.75446183  1
  O  O15  1  0.48182984  0.73582410  0.75446183  1
  O  O16  1  0.23792352  0.48165884  0.26304342  1
  O  O17  1  0.23792352  0.51834116  0.73695658  1
  O  O18  1  0.76207648  0.51834116  0.26304342  1
  O  O19  1  0.76207648  0.48165884  0.73695658  1
  O  O20  1  0.27455577  0.23665618  0.48213625  1
  O  O21  1  0.72544423  0.23665618  0.51786375  1
  O  O22  1  0.27455577  0.76334382  0.51786375  1
  O  O23  1  0.72544423  0.76334382  0.48213625  1
loop_
_geom_bond_atom_site_label_1
_geom_bond_atom_site_label_2
_geom_bond_distance
_geom_bond_site_symmetry_2
K0 O18 2.834705 1_455
K0 O19 2.834705 1_455
K0 O16 2.834705 1_555
K0 O17 2.834705 1_555
K0 O1 3.041087 1_455
K0 O3 3.041087 1_555
K0 O0 3.041087 1_555
K0 O2 3.041087 1_455
K0 O21 3.203536 1_455
K0 O23 3.203536 1_455
K0 O22 3.203536 1_555
K0 O20 3.203536 1_555
K1 O13 2.871749 1_555
K1 O15 2.871749 1_554
K1 O12 2.871749 1_555
K1 O14 2.871749 1_554
K1 O11 3.052891 1_555
K1 O8 3.052891 1_555
K1 O9 3.052891 1_554
K1 O10 3.052891 1_554
K1 O17 3.133789 1_554
K1 O16 3.133789 1_555
K1 O18 3.133789 1_555
K1 O19 3.133789 1_554
K2 O7 2.834705 1_554
K2 O5 2.834705 1_544
K2 O4 2.834705 1_555
K2 O6 2.834705 1_545
K2 O14 3.041087 1_554
K2 O12 3.041087 1_555
K2 O13 3.041087 1_545
K2 O15 3.041087 1_544
K2 O10 3.203536 1_544
K2 O8 3.203536 1_555
K2 O9 3.203536 1_554
K2 O11 3.203536 1_545
K3 O0 2.871749 1_555
K3 O2 2.871749 1_455
K3 O3 2.871749 1_545
K3 O1 2.871749 1_445
K3 O23 3.052891 1_445
K3 O21 3.052891 1_455
K3 O20 3.052891 1_555
K3 O22 3.052891 1_545
K3 O7 3.133789 1_455
K3 O6 3.133789 1_445
K3 O4 3.133789 1_555
K3 O5 3.133789 1_545
Eu0 O22 2.753196 1_545
Eu0 O21 2.753196 1_555
Eu0 O20 2.753196 1_555
Eu0 O23 2.753196 1_545
Eu0 O4 2.994140 1_555
Eu0 O5 2.994140 1_545
Eu0 O6 2.994140 1_545
Eu0 O7 2.994140 1_555
Eu0 O14 3.092912 1_555
Eu0 O12 3.092912 1_555
Eu0 O15 3.092912 1_545
Eu0 O13 3.092912 1_545
Eu1 O8 2.753196 1_555
Eu1 O9 2.753196 1_454
Eu1 O10 2.753196 1_554
Eu1 O11 2.753196 1_455
Eu1 O17 2.994140 1_554
Eu1 O18 2.994140 1_455
Eu1 O19 2.994140 1_454
Eu1 O16 2.994140 1_555
Eu1 O1 3.092912 1_455
Eu1 O3 3.092912 1_554
Eu1 O2 3.092912 1_454
Eu1 O0 3.092912 1_555
Eu2 O10 2.919347 1_544
Eu2 O8 2.919347 1_555
Eu2 O9 2.919347 1_454
Eu2 O11 2.919347 1_445
Eu2 O2 2.926575 1_454
Eu2 O0 2.926575 1_555
Eu2 O1 2.926575 1_445
Eu2 O3 2.926575 1_544
Eu2 O6 2.981830 1_445
Eu2 O5 2.981830 1_544
Eu2 O7 2.981830 1_454
Eu2 O4 2.981830 1_555
Eu3 O22 2.919347 1_555
Eu3 O20 2.919347 1_555
Eu3 O23 2.919347 1_555
Eu3 O21 2.919347 1_555
Eu3 O15 2.926575 1_555
Eu3 O13 2.926575 1_555
Eu3 O12 2.926575 1_555
Eu3 O14 2.926575 1_555
Eu3 O16 2.981830 1_555
Eu3 O17 2.981830 1_555
Eu3 O19 2.981830 1_555
Eu3 O18 2.981830 1_555
O0 W0 1.955522 1_555
O0 Sb3 2.260892 1_455
O1 W1 1.955522 1_555
O1 Sb2 2.260892 1_655
O2 W2 1.955522 1_555
O2 Sb1 2.260892 1_655
O3 W3 1.955522 1_555
O3 Sb0 2.260892 1_455
O4 W0 1.952681 1_555
O4 Sb2 2.260184 1_545
O5 W3 1.952681 1_555
O5 Sb1 2.260184 1_565
O6 W1 1.952681 1_555
O6 Sb3 2.260184 1_565
O7 W2 1.952681 1_555
O7 Sb0 2.260184 1_545
O8 W0 1.973498 1_555
O8 Sb1 2.273205 1_554
O9 W2 1.973498 1_555
O9 Sb3 2.273205 1_556
O10 W3 1.973498 1_555
O10 Sb2 2.273205 1_556
O11 W1 1.973498 1_555
O11 Sb0 2.273205 1_554
O12 W0 1.955522 1_555
O12 Sb3 2.260892 1_555
O13 W1 1.955522 1_555
O13 Sb2 2.260892 1_555
O14 W2 1.955522 1_555
O14 Sb1 2.260892 1_555
O15 W3 1.955522 1_555
O15 Sb0 2.260892 1_555
O16 W0 1.952681 1_555
O16 Sb2 2.260184 1_555
O17 W3 1.952681 1_555
O17 Sb1 2.260184 1_555
O18 W1 1.952681 1_555
O18 Sb3 2.260184 1_555
O19 W2 1.952681 1_555
O19 Sb0 2.260184 1_555
O20 W0 1.973498 1_555
O20 Sb1 2.273205 1_555
O21 W2 1.973498 1_555
O21 Sb3 2.273205 1_555
O22 W3 1.973498 1_555
O22 Sb2 2.273205 1_555
O23 W1 1.973498 1_555
O23 Sb0 2.273205 1_555
