# generated using pymatgen
data_KSr2Cl5
_symmetry_space_group_name_H-M   'P 1'
_cell_length_a   7.88626245
_cell_length_b   8.86078195
_cell_length_c   12.72532348
_cell_angle_alpha   89.91294360
_cell_angle_beta   90.00000000
_cell_angle_gamma   90.00000000
_symmetry_Int_Tables_number   1
_chemical_formula_structural   KSr2Cl5
_chemical_formula_sum   'K4 Sr8 Cl20'
_cell_volume   889.22487876
_cell_formula_units_Z   4
loop_
 _symmetry_equiv_pos_site_id
 _symmetry_equiv_pos_as_xyz
  1  'x, y, z'
loop_
 _atom_site_type_symbol
 _atom_site_label
 _atom_site_symmetry_multiplicity
 _atom_site_fract_x
 _atom_site_fract_y
 _atom_site_fract_z
 _atom_site_occupancy
  K  K0  1  0.46370448  0.49265372  0.82935247  1
  K  K1  1  0.53629552  0.50734628  0.17064753  1
  K  K2  1  0.96370448  0.50734628  0.67064753  1
  K  K3  1  0.03629552  0.49265372  0.32935247  1
  Sr  Sr0  1  0.47908127  0.99916647  0.82260941  1
  Sr  Sr1  1  0.52091873  0.00083353  0.17739059  1
  Sr  Sr2  1  0.97908127  0.00083353  0.67739059  1
  Sr  Sr3  1  0.02091873  0.99916647  0.32260941  1
  Sr  Sr4  1  0.43196849  0.74886108  0.50581911  1
  Sr  Sr5  1  0.56803151  0.25113892  0.49418089  1
  Sr  Sr6  1  0.93196849  0.25113892  0.99418089  1
  Sr  Sr7  1  0.06803151  0.74886108  0.00581911  1
  Cl  Cl0  1  0.33384989  0.46403371  0.59291201  1
  Cl  Cl1  1  0.66615011  0.53596629  0.40708799  1
  Cl  Cl2  1  0.83384989  0.53596629  0.90708799  1
  Cl  Cl3  1  0.16615011  0.46403371  0.09291201  1
  Cl  Cl4  1  0.67095151  0.78241824  0.68306573  1
  Cl  Cl5  1  0.32904849  0.21758176  0.31693427  1
  Cl  Cl6  1  0.17095151  0.21758176  0.81693427  1
  Cl  Cl7  1  0.82904849  0.78241824  0.18306573  1
  Cl  Cl8  1  0.19546649  0.76978022  0.78398777  1
  Cl  Cl9  1  0.80453351  0.23021978  0.21601223  1
  Cl  Cl10  1  0.69546649  0.23021978  0.71601223  1
  Cl  Cl11  1  0.30453351  0.76978022  0.28398777  1
  Cl  Cl12  1  0.04686600  0.78031862  0.50228426  1
  Cl  Cl13  1  0.95313400  0.21968138  0.49771574  1
  Cl  Cl14  1  0.54686600  0.21968138  0.99771574  1
  Cl  Cl15  1  0.45313400  0.78031862  0.00228426  1
  Cl  Cl16  1  0.84007700  0.96190345  0.89903170  1
  Cl  Cl17  1  0.15992300  0.03809655  0.10096830  1
  Cl  Cl18  1  0.34007700  0.03809655  0.60096830  1
  Cl  Cl19  1  0.65992300  0.96190345  0.39903170  1
loop_
_geom_bond_atom_site_label_1
_geom_bond_atom_site_label_2
_geom_bond_distance
_geom_bond_site_symmetry_2
Cl0 Sr4 2.861482 1_555
Cl0 Sr5 2.924893 1_555
Cl0 K2 3.106109 1_455
Cl0 K0 3.188747 1_555
Cl1 Sr5 2.861482 1_555
Cl1 Sr4 2.924893 1_555
Cl1 K3 3.106109 1_655
Cl1 K1 3.188747 1_555
Cl2 Sr6 2.861482 1_555
Cl2 Sr7 2.924893 1_656
Cl2 K0 3.106109 1_555
Cl2 K2 3.188747 1_555
Cl3 Sr7 2.861482 1_555
Cl3 Sr6 2.924893 1_454
Cl3 K1 3.106109 1_555
Cl3 K3 3.188747 1_555
Cl4 Sr4 2.954632 1_555
Cl4 Sr0 3.023532 1_555
Cl4 Sr2 3.107275 1_565
Cl4 K2 3.361108 1_555
Cl4 K0 3.565722 1_555
Cl5 Sr5 2.954632 1_555
Cl5 Sr1 3.023532 1_555
Cl5 Sr3 3.107275 1_545
Cl5 K3 3.361108 1_555
Cl5 K1 3.565722 1_555
Cl6 Sr6 2.954632 1_455
Cl6 Sr2 3.023532 1_455
Cl6 Sr0 3.107275 1_545
Cl6 K0 3.361108 1_555
Cl6 K2 3.565722 1_455
Cl7 Sr7 2.954632 1_655
Cl7 Sr3 3.023532 1_655
Cl7 Sr1 3.107275 1_565
Cl7 K1 3.361108 1_555
Cl7 K3 3.565722 1_655
Cl8 Sr2 2.989171 1_465
Cl8 Sr7 3.001898 1_556
Cl8 Sr0 3.062427 1_555
Cl8 K0 3.291444 1_555
Cl8 K2 3.292166 1_455
Cl9 Sr3 2.989171 1_645
Cl9 Sr6 3.001898 1_554
Cl9 Sr1 3.062427 1_555
Cl9 K1 3.291444 1_555
Cl9 K3 3.292166 1_655
Cl10 Sr0 2.989171 1_545
Cl10 Sr5 3.001898 1_555
Cl10 Sr2 3.062427 1_555
Cl10 K2 3.291444 1_555
Cl10 K0 3.292166 1_555
Cl11 Sr1 2.989171 1_565
Cl11 Sr4 3.001898 1_555
Cl11 Sr3 3.062427 1_555
Cl11 K3 3.291444 1_555
Cl11 K1 3.292166 1_555
Cl12 Sr3 3.002744 1_555
Cl12 Sr2 3.013653 1_465
Cl12 Sr4 3.050109 1_555
Cl12 K2 3.294681 1_455
Cl12 K3 3.371019 1_555
Cl13 Sr2 3.002744 1_555
Cl13 Sr3 3.013653 1_645
Cl13 Sr5 3.050109 1_555
Cl13 K3 3.294681 1_655
Cl13 K2 3.371019 1_555
Cl14 Sr1 3.002744 1_556
Cl14 Sr0 3.013653 1_545
Cl14 Sr6 3.050109 1_555
Cl14 K0 3.294681 1_555
Cl14 K1 3.371019 1_556
Cl15 Sr0 3.002744 1_554
Cl15 Sr1 3.013653 1_565
Cl15 Sr7 3.050109 1_555
Cl15 K1 3.294681 1_555
Cl15 K0 3.371019 1_554
Cl16 Sr6 2.927260 1_565
Cl16 Sr7 2.938380 1_656
Cl16 Sr0 3.026330 1_555
Cl16 Sr2 3.045112 1_565
Cl17 Sr7 2.927260 1_545
Cl17 Sr6 2.938380 1_454
Cl17 Sr1 3.026330 1_555
Cl17 Sr3 3.045112 1_545
Cl18 Sr4 2.927260 1_545
Cl18 Sr5 2.938380 1_555
Cl18 Sr2 3.026330 1_455
Cl18 Sr0 3.045112 1_545
Cl19 Sr5 2.927260 1_565
Cl19 Sr4 2.938380 1_555
Cl19 Sr3 3.026330 1_655
Cl19 Sr1 3.045112 1_565
