# generated using pymatgen
data_NaSrEuWO6
_symmetry_space_group_name_H-M   'P 1'
_cell_length_a   5.75325045
_cell_length_b   5.75325045
_cell_length_c   8.34465317
_cell_angle_alpha   90.00000000
_cell_angle_beta   90.00000000
_cell_angle_gamma   90.00000000
_symmetry_Int_Tables_number   1
_chemical_formula_structural   NaSrEuWO6
_chemical_formula_sum   'Na2 Sr2 Eu2 W2 O12'
_cell_volume   276.20710819
_cell_formula_units_Z   2
loop_
 _symmetry_equiv_pos_site_id
 _symmetry_equiv_pos_as_xyz
  1  'x, y, z'
loop_
 _atom_site_type_symbol
 _atom_site_label
 _atom_site_symmetry_multiplicity
 _atom_site_fract_x
 _atom_site_fract_y
 _atom_site_fract_z
 _atom_site_occupancy
  Na  Na0  1  0.00000000  0.00000000  0.00000000  1
  Na  Na1  1  0.50000000  0.50000000  0.50000000  1
  Sr  Sr0  1  0.00000000  0.50000000  0.25000000  1
  Sr  Sr1  1  0.50000000  0.00000000  0.75000000  1
  Eu  Eu0  1  0.50000000  0.00000000  0.25000000  1
  Eu  Eu1  1  0.00000000  0.50000000  0.75000000  1
  W  W0  1  0.00000000  0.00000000  0.50000000  1
  W  W1  1  0.50000000  0.50000000  0.00000000  1
  O  O0  1  0.00000000  0.00000000  0.26747363  1
  O  O1  1  0.50000000  0.50000000  0.23252637  1
  O  O2  1  0.00000000  0.00000000  0.73252637  1
  O  O3  1  0.50000000  0.50000000  0.76747363  1
  O  O4  1  0.35681335  0.19240319  0.01159672  1
  O  O5  1  0.64318665  0.80759681  0.01159672  1
  O  O6  1  0.80759681  0.35681335  0.98840328  1
  O  O7  1  0.19240319  0.64318665  0.98840328  1
  O  O8  1  0.85681335  0.30759681  0.51159672  1
  O  O9  1  0.14318665  0.69240319  0.51159672  1
  O  O10  1  0.30759681  0.14318665  0.48840328  1
  O  O11  1  0.69240319  0.85681335  0.48840328  1
loop_
_geom_bond_atom_site_label_1
_geom_bond_atom_site_label_2
_geom_bond_distance
_geom_bond_site_symmetry_2
Na0 O0 2.231975 1_555
Na0 O2 2.231975 1_554
Na0 O6 2.334272 1_454
Na0 O4 2.334272 1_555
Na0 O5 2.334272 1_445
Na0 O7 2.334272 1_544
Na1 O1 2.231975 1_555
Na1 O3 2.231975 1_555
Na1 O11 2.334272 1_555
Na1 O9 2.334272 1_555
Na1 O8 2.334272 1_555
Na1 O10 2.334272 1_555
Eu0 O5 2.421081 1_545
Eu0 O4 2.421081 1_555
Eu0 O10 2.421081 1_555
Eu0 O11 2.421081 1_545
Eu0 O1 2.880318 1_545
Eu0 O0 2.880318 1_555
Eu0 O0 2.880318 1_655
Eu0 O1 2.880318 1_555
Eu1 O7 2.421081 1_555
Eu1 O8 2.421081 1_455
Eu1 O6 2.421081 1_455
Eu1 O9 2.421081 1_555
Eu1 O2 2.880318 1_565
Eu1 O3 2.880318 1_555
Eu1 O2 2.880318 1_555
Eu1 O3 2.880318 1_455
O0 W0 1.940352 1_555
O0 Sr0 2.880318 1_555
O0 Sr0 2.880318 1_545
O1 W1 1.940352 1_555
O1 Sr0 2.880318 1_555
O1 Sr0 2.880318 1_655
O2 W0 1.940352 1_555
O2 Sr1 2.880318 1_555
O2 Sr1 2.880318 1_455
O3 W1 1.940352 1_556
O3 Sr1 2.880318 1_565
O3 Sr1 2.880318 1_555
O4 W1 1.954422 1_555
O4 Sr1 2.582470 1_554
O5 W1 1.954422 1_555
O5 Sr1 2.582470 1_564
O6 W1 1.954422 1_556
O6 Sr0 2.582470 1_656
O7 W1 1.954422 1_556
O7 Sr0 2.582470 1_556
O8 W0 1.954422 1_655
O8 Sr0 2.582470 1_655
O9 W0 1.954422 1_565
O9 Sr0 2.582470 1_555
O10 W0 1.954422 1_555
O10 Sr1 2.582470 1_555
O11 W0 1.954422 1_665
O11 Sr1 2.582470 1_565
