# generated using pymatgen
data_CsMg14TiO16
_symmetry_space_group_name_H-M   'P 1'
_cell_length_a   8.80833985
_cell_length_b   8.80833888
_cell_length_c   4.45080109
_cell_angle_alpha   89.99955326
_cell_angle_beta   90.00003533
_cell_angle_gamma   90.00002712
_symmetry_Int_Tables_number   1
_chemical_formula_structural   CsMg14TiO16
_chemical_formula_sum   'Cs1 Mg14 Ti1 O16'
_cell_volume   345.32360258
_cell_formula_units_Z   1
loop_
 _symmetry_equiv_pos_site_id
 _symmetry_equiv_pos_as_xyz
  1  'x, y, z'
loop_
 _atom_site_type_symbol
 _atom_site_label
 _atom_site_symmetry_multiplicity
 _atom_site_fract_x
 _atom_site_fract_y
 _atom_site_fract_z
 _atom_site_occupancy
  Cs  Cs0  1  0.49999877  0.49999995  0.00000082  1
  Mg  Mg0  1  -0.00000036  0.49999957  0.00000015  1
  Mg  Mg1  1  0.49999995  0.00000015  -0.00000006  1
  Mg  Mg2  1  0.00000031  0.25117944  0.50000181  1
  Mg  Mg3  1  0.00000001  0.74882052  0.49999878  1
  Mg  Mg4  1  0.49999974  0.23783350  0.50000044  1
  Mg  Mg5  1  0.49999993  0.76216608  0.49999986  1
  Mg  Mg6  1  0.25117916  0.00000018  0.49999981  1
  Mg  Mg7  1  0.23783336  0.49999967  0.50000056  1
  Mg  Mg8  1  0.74882077  0.99999961  0.50000057  1
  Mg  Mg9  1  0.76216651  0.50000026  0.49999993  1
  Mg  Mg10  1  0.24883043  0.24883025  -0.00000124  1
  Mg  Mg11  1  0.24883048  0.75116922  0.00000095  1
  Mg  Mg12  1  0.75116980  0.24883034  -0.00000147  1
  Mg  Mg13  1  0.75116981  0.75116915  0.00000113  1
  Ti  Ti0  1  0.00000033  -0.00000025  0.00000063  1
  O  O0  1  0.23922578  0.00000130  -0.00000093  1
  O  O1  1  0.21307498  0.49999950  -0.00000134  1
  O  O2  1  0.76077485  0.99999929  0.00000337  1
  O  O3  1  0.78692410  0.50000099  0.00000006  1
  O  O4  1  0.24944155  0.24944116  0.49999866  1
  O  O5  1  0.24944023  0.75055900  0.49999899  1
  O  O6  1  0.75055859  0.24944200  0.49999895  1
  O  O7  1  0.75055906  0.75055893  0.50000147  1
  O  O8  1  -0.00000002  0.00000038  0.50000029  1
  O  O9  1  0.00000022  0.49999959  0.49999925  1
  O  O10  1  0.49999995  0.99999986  0.49999969  1
  O  O11  1  0.49999983  0.50000087  0.50000205  1
  O  O12  1  0.00000179  0.23922461  0.00000739  1
  O  O13  1  0.00000040  0.76077470  -0.00000773  1
  O  O14  1  0.50000094  0.21307562  0.99999784  1
  O  O15  1  0.49999877  0.78692455  -0.00000068  1
loop_
_geom_bond_atom_site_label_1
_geom_bond_atom_site_label_2
_geom_bond_distance
_geom_bond_site_symmetry_2
Cs0 O11 2.225395 1_554
Cs0 O11 2.225406 1_555
Cs0 O1 2.527322 1_555
Cs0 O14 2.527327 1_554
Cs0 O15 2.527329 1_555
Cs0 O3 2.527336 1_555
Mg0 O1 1.876840 1_555
Mg0 O3 1.876842 1_455
Mg0 O9 2.225397 1_555
Mg0 O9 2.225405 1_554
Mg0 O12 2.296994 1_555
Mg0 O13 2.296996 1_555
Mg1 O14 1.876841 1_554
Mg1 O15 1.876842 1_545
Mg1 O10 2.225399 1_545
Mg1 O10 2.225402 1_544
Mg1 O0 2.296988 1_555
Mg1 O2 2.296994 1_545
Mg2 O9 2.191692 1_555
Mg2 O4 2.197217 1_555
Mg2 O6 2.197221 1_455
Mg2 O8 2.212470 1_555
Mg2 O12 2.227867 1_555
Mg2 O12 2.227915 1_556
Mg3 O9 2.191699 1_555
Mg3 O5 2.197208 1_555
Mg3 O7 2.197214 1_455
Mg3 O8 2.212477 1_565
Mg3 O13 2.227862 1_556
Mg3 O13 2.227918 1_555
Mg4 O10 2.094919 1_545
Mg4 O4 2.209369 1_555
Mg4 O6 2.209375 1_555
Mg4 O14 2.236047 1_555
Mg4 O14 2.236073 1_554
Mg4 O11 2.309259 1_555
Mg5 O10 2.094921 1_555
Mg5 O7 2.209377 1_555
Mg5 O5 2.209382 1_555
Mg5 O15 2.236060 1_556
Mg5 O15 2.236061 1_555
Mg5 O11 2.309240 1_555
Mg6 O10 2.191698 1_545
Mg6 O4 2.197214 1_555
Mg6 O5 2.197216 1_545
Mg6 O8 2.212472 1_555
Mg6 O0 2.227887 1_556
Mg6 O0 2.227893 1_555
Mg7 O9 2.094915 1_555
Mg7 O4 2.209372 1_555
Mg7 O5 2.209378 1_555
Mg7 O1 2.236052 1_556
Mg7 O1 2.236069 1_555
Mg7 O11 2.309251 1_555
Mg8 O10 2.191698 1_555
Mg8 O7 2.197211 1_555
Mg8 O6 2.197226 1_565
Mg8 O8 2.212472 1_665
Mg8 O2 2.227878 1_555
Mg8 O2 2.227903 1_556
Mg9 O9 2.094920 1_655
Mg9 O6 2.209369 1_555
Mg9 O7 2.209373 1_555
Mg9 O3 2.236059 1_555
Mg9 O3 2.236060 1_556
Mg9 O11 2.309253 1_555
Mg10 O12 2.193400 1_555
Mg10 O0 2.193402 1_555
Mg10 O4 2.225413 1_555
Mg10 O4 2.225414 1_554
Mg10 O1 2.234689 1_555
Mg10 O14 2.234699 1_554
Mg11 O13 2.193412 1_555
Mg11 O0 2.193429 1_565
Mg11 O5 2.225405 1_555
Mg11 O5 2.225422 1_554
Mg11 O15 2.234680 1_555
Mg11 O1 2.234693 1_555
Mg12 O2 2.193421 1_545
Mg12 O12 2.193429 1_655
Mg12 O6 2.225412 1_554
Mg12 O6 2.225415 1_555
Mg12 O14 2.234684 1_554
Mg12 O3 2.234699 1_555
Mg13 O2 2.193412 1_555
Mg13 O13 2.193417 1_655
Mg13 O7 2.225412 1_554
Mg13 O7 2.225415 1_555
Mg13 O3 2.234678 1_555
Mg13 O15 2.234705 1_555
O0 Ti0 2.107179 1_555
O2 Ti0 2.107179 1_665
O8 Ti0 2.225399 1_555
O8 Ti0 2.225402 1_556
O12 Ti0 2.107174 1_555
O13 Ti0 2.107175 1_565
