# generated using pymatgen
data_CsVOF4
_symmetry_space_group_name_H-M   'P 1'
_cell_length_a   5.65371300
_cell_length_b   6.47474000
_cell_length_c   14.91406200
_cell_angle_alpha   90.00000000
_cell_angle_beta   90.00000000
_cell_angle_gamma   90.00000000
_symmetry_Int_Tables_number   1
_chemical_formula_structural   CsVOF4
_chemical_formula_sum   'Cs4 V4 O4 F16'
_cell_volume   545.94895157
_cell_formula_units_Z   4
loop_
 _symmetry_equiv_pos_site_id
 _symmetry_equiv_pos_as_xyz
  1  'x, y, z'
loop_
 _atom_site_type_symbol
 _atom_site_label
 _atom_site_symmetry_multiplicity
 _atom_site_fract_x
 _atom_site_fract_y
 _atom_site_fract_z
 _atom_site_occupancy
  Cs  Cs0  1  0.53257000  0.75000000  0.37209100  1
  Cs  Cs1  1  0.03257000  0.75000000  0.12790900  1
  Cs  Cs2  1  0.46743000  0.25000000  0.62790900  1
  Cs  Cs3  1  0.96743000  0.25000000  0.87209100  1
  V  V0  1  0.01069500  0.25000000  0.35905400  1
  V  V1  1  0.51069500  0.25000000  0.14094600  1
  V  V2  1  0.98930500  0.75000000  0.64094600  1
  V  V3  1  0.48930500  0.75000000  0.85905400  1
  O  O0  1  0.81333900  0.25000000  0.43708300  1
  O  O1  1  0.31333900  0.25000000  0.06291700  1
  O  O2  1  0.18666100  0.75000000  0.56291700  1
  O  O3  1  0.68666100  0.75000000  0.93708300  1
  F  F0  1  0.05326500  0.97164500  0.33755200  1
  F  F1  1  0.55326500  0.52835500  0.16244800  1
  F  F2  1  0.94673500  0.47164500  0.66244800  1
  F  F3  1  0.44673500  0.02835500  0.83755200  1
  F  F4  1  0.94673500  0.02835500  0.66244800  1
  F  F5  1  0.44673500  0.47164500  0.83755200  1
  F  F6  1  0.05326500  0.52835500  0.33755200  1
  F  F7  1  0.55326500  0.97164500  0.16244800  1
  F  F8  1  0.82210000  0.25000000  0.25759100  1
  F  F9  1  0.32210000  0.25000000  0.24240900  1
  F  F10  1  0.17790000  0.75000000  0.74240900  1
  F  F11  1  0.67790000  0.75000000  0.75759100  1
  F  F12  1  0.28659900  0.25000000  0.42366100  1
  F  F13  1  0.78659900  0.25000000  0.07633900  1
  F  F14  1  0.71340100  0.75000000  0.57633900  1
  F  F15  1  0.21340100  0.75000000  0.92366100  1
loop_
_geom_bond_atom_site_label_1
_geom_bond_atom_site_label_2
_geom_bond_distance
_geom_bond_site_symmetry_2
Cs0 F6 3.109364 1_555
Cs0 F0 3.109364 1_555
Cs0 F14 3.213156 1_555
Cs0 F6 3.315291 1_655
Cs0 F0 3.315291 1_655
Cs0 F1 3.442236 1_555
Cs0 F7 3.442236 1_555
Cs0 O2 3.453159 1_555
Cs0 F12 3.606385 1_565
Cs0 F12 3.606385 1_555
Cs0 O0 3.733617 1_565
Cs0 O0 3.733617 1_555
Cs1 F1 3.109364 1_455
Cs1 F7 3.109364 1_455
Cs1 F15 3.213156 1_554
Cs1 F1 3.315291 1_555
Cs1 F7 3.315291 1_555
Cs1 F0 3.442236 1_555
Cs1 F6 3.442236 1_555
Cs1 O3 3.453159 1_454
Cs1 F13 3.606385 1_455
Cs1 F13 3.606385 1_465
Cs1 O1 3.733617 1_555
Cs1 O1 3.733617 1_565
Cs2 F2 3.109364 1_555
Cs2 F4 3.109364 1_555
Cs2 F12 3.213156 1_555
Cs2 F2 3.315291 1_455
Cs2 F4 3.315291 1_455
Cs2 F5 3.442236 1_555
Cs2 F3 3.442236 1_555
Cs2 O0 3.453159 1_555
Cs2 F14 3.606385 1_555
Cs2 F14 3.606385 1_545
Cs2 O2 3.733617 1_555
Cs2 O2 3.733617 1_545
Cs3 F5 3.109364 1_655
Cs3 F3 3.109364 1_655
Cs3 F13 3.213156 1_556
Cs3 F5 3.315291 1_555
Cs3 F3 3.315291 1_555
Cs3 F2 3.442236 1_555
Cs3 F4 3.442236 1_555
Cs3 O1 3.453159 1_656
Cs3 F15 3.606385 1_645
Cs3 F15 3.606385 1_655
Cs3 O3 3.733617 1_555
Cs3 O3 3.733617 1_545
O0 V0 1.612223 1_655
O1 V1 1.612223 1_555
O2 V2 1.612223 1_455
O3 V3 1.612223 1_555
F0 V0 1.846338 1_565
F1 V1 1.846338 1_555
F2 V2 1.846338 1_555
F3 V3 1.846338 1_545
F4 V2 1.846338 1_545
F5 V3 1.846338 1_555
F6 V0 1.846338 1_555
F7 V1 1.846338 1_565
F8 V0 1.851153 1_655
F9 V1 1.851153 1_555
F10 V2 1.851153 1_455
F11 V3 1.851153 1_555
F12 V0 1.833485 1_555
F13 V1 1.833485 1_555
F14 V2 1.833485 1_555
F15 V3 1.833485 1_555
