# generated using pymatgen
data_Er2MgTc
_symmetry_space_group_name_H-M   'P 1'
_cell_length_a   5.00455390
_cell_length_b   5.00455390
_cell_length_c   5.00455390
_cell_angle_alpha   60.00000000
_cell_angle_beta   60.00000000
_cell_angle_gamma   60.00000000
_symmetry_Int_Tables_number   1
_chemical_formula_structural   Er2MgTc
_chemical_formula_sum   'Er2 Mg1 Tc1'
_cell_volume   88.63007473
_cell_formula_units_Z   1
loop_
 _symmetry_equiv_pos_site_id
 _symmetry_equiv_pos_as_xyz
  1  'x, y, z'
loop_
 _atom_site_type_symbol
 _atom_site_label
 _atom_site_symmetry_multiplicity
 _atom_site_fract_x
 _atom_site_fract_y
 _atom_site_fract_z
 _atom_site_occupancy
  Er  Er0  1  0.25000000  0.25000000  0.25000000  1
  Er  Er1  1  0.75000000  0.75000000  0.75000000  1
  Mg  Mg0  1  0.50000000  0.50000000  0.50000000  1
  Tc  Tc0  1  0.00000000  0.00000000  0.00000000  1
loop_
_geom_bond_atom_site_label_1
_geom_bond_atom_site_label_2
_geom_bond_distance
_geom_bond_site_symmetry_2
Er0 Mg0 3.064651 1_455
Er0 Tc0 3.064651 1_655
Er0 Mg0 3.064651 1_545
Er0 Mg0 3.064651 1_554
Er0 Tc0 3.064651 1_556
Er0 Tc0 3.064651 1_555
Er0 Tc0 3.064651 1_565
Er0 Mg0 3.064651 1_555
Er1 Tc0 3.064651 1_566
Er1 Mg0 3.064651 1_655
Er1 Mg0 3.064651 1_565
Er1 Tc0 3.064651 1_656
Er1 Mg0 3.064651 1_556
Er1 Mg0 3.064651 1_555
Er1 Tc0 3.064651 1_665
Er1 Tc0 3.064651 1_666
Mg0 Tc0 3.538754 1_566
Mg0 Tc0 3.538754 1_565
Mg0 Tc0 3.538754 1_655
Mg0 Tc0 3.538754 1_665
Mg0 Tc0 3.538754 1_656
Mg0 Tc0 3.538754 1_556
