# generated using pymatgen
data_ErCoRu
_symmetry_space_group_name_H-M   'P 1'
_cell_length_a   5.25533408
_cell_length_b   5.25152537
_cell_length_c   5.25089137
_cell_angle_alpha   122.89931690
_cell_angle_beta   122.48044789
_cell_angle_gamma   85.37100162
_symmetry_Int_Tables_number   1
_chemical_formula_structural   ErCoRu
_chemical_formula_sum   'Er2 Co2 Ru2'
_cell_volume   97.98325934
_cell_formula_units_Z   2
loop_
 _symmetry_equiv_pos_site_id
 _symmetry_equiv_pos_as_xyz
  1  'x, y, z'
loop_
 _atom_site_type_symbol
 _atom_site_label
 _atom_site_symmetry_multiplicity
 _atom_site_fract_x
 _atom_site_fract_y
 _atom_site_fract_z
 _atom_site_occupancy
  Er  Er0  1  0.37758659  0.12778089  0.24992279  1
  Er  Er1  1  0.62241341  0.87221911  0.75007721  1
  Co  Co0  1  0.00000000  0.00000000  0.50000000  1
  Co  Co1  1  0.00000000  0.50000000  -0.00000000  1
  Ru  Ru0  1  0.00000000  0.50000000  0.50000000  1
  Ru  Ru1  1  0.50000000  0.50000000  -0.00000000  1
loop_
_geom_bond_atom_site_label_1
_geom_bond_atom_site_label_2
_geom_bond_distance
_geom_bond_site_symmetry_2
Er0 Ru1 2.977475 1_556
Er0 Ru0 2.977747 1_555
Er0 Ru1 2.978159 1_545
Er0 Ru0 2.978826 1_544
Er0 Ru1 3.139003 1_555
Er0 Er1 3.140944 1_555
Er0 Er1 3.141182 1_544
Er0 Ru0 3.142460 1_655
Er0 Er1 3.205453 1_545
Er0 Er1 3.207195 1_444
Er1 Ru1 2.977475 1_555
Er1 Ru0 2.977747 1_655
Er1 Ru1 2.978159 1_566
Er1 Ru0 2.978826 1_666
Er1 Ru1 3.139003 1_556
Er1 Ru0 3.142460 1_555
Co0 Co1 2.509714 1_545
Co0 Co1 2.509714 1_556
Co0 Ru0 2.625763 1_545
Co0 Ru0 2.625763 1_555
Co0 Ru1 2.628207 1_556
Co0 Ru1 2.628207 1_445
Co0 Er0 2.974224 1_556
Co0 Er1 2.974224 1_444
Co0 Er1 2.977207 1_545
Co0 Er0 2.977207 1_455
Co0 Er0 3.175370 1_555
Co0 Er1 3.175370 1_445
Co1 Ru0 2.625446 1_554
Co1 Ru0 2.625446 1_555
Co1 Ru1 2.627667 1_455
Co1 Ru1 2.627667 1_555
Co1 Er1 2.973964 1_454
Co1 Er0 2.973964 1_555
Co1 Er0 2.977342 1_454
Co1 Er1 2.977342 1_555
Co1 Er1 3.176138 1_444
Co1 Er0 3.176138 1_565
Ru0 Ru1 2.527475 1_455
Ru0 Ru1 2.527475 1_556
