# generated using pymatgen
data_Sr
_symmetry_space_group_name_H-M   'P 1'
_cell_length_a   8.08350587
_cell_length_b   11.23532382
_cell_length_c   11.23532357
_cell_angle_alpha   82.55279334
_cell_angle_beta   68.91600511
_cell_angle_gamma   68.91600399
_symmetry_Int_Tables_number   1
_chemical_formula_structural   Sr
_chemical_formula_sum   Sr16
_cell_volume   888.35087743
_cell_formula_units_Z   16
loop_
 _symmetry_equiv_pos_site_id
 _symmetry_equiv_pos_as_xyz
  1  'x, y, z'
loop_
 _atom_site_type_symbol
 _atom_site_label
 _atom_site_symmetry_multiplicity
 _atom_site_fract_x
 _atom_site_fract_y
 _atom_site_fract_z
 _atom_site_occupancy
  Sr  Sr0_0  1  0.31239071  0.12500000  0.12500000  1
  Sr  Sr0_1  1  0.31239071  0.12500000  0.62500000  1
  Sr  Sr0_2  1  0.31239071  0.62500000  0.12500000  1
  Sr  Sr0_3  1  0.31239071  0.62500000  0.62500000  1
  Sr  Sr0_4  1  0.81239071  0.12500000  0.12500000  1
  Sr  Sr0_5  1  0.81239071  0.12500000  0.62500000  1
  Sr  Sr0_6  1  0.81239071  0.62500000  0.12500000  1
  Sr  Sr0_7  1  0.81239071  0.62500000  0.62500000  1
  Sr  Sr1_0  1  0.18760929  0.37500000  0.37500000  1
  Sr  Sr1_1  1  0.18760929  0.37500000  0.87500000  1
  Sr  Sr1_2  1  0.18760929  0.87500000  0.37500000  1
  Sr  Sr1_3  1  0.18760929  0.87500000  0.87500000  1
  Sr  Sr1_4  1  0.68760929  0.37500000  0.37500000  1
  Sr  Sr1_5  1  0.68760929  0.37500000  0.87500000  1
  Sr  Sr1_6  1  0.68760929  0.87500000  0.37500000  1
  Sr  Sr1_7  1  0.68760929  0.87500000  0.87500000  1
loop_
_geom_bond_atom_site_label_1
_geom_bond_atom_site_label_2
_geom_bond_distance
_geom_bond_site_symmetry_2
Sr0_0 Sr1_1 3.840744 1_554
Sr0_0 Sr1_2 3.840744 1_545
Sr0_0 Sr1_0 3.842505 1_555
Sr0_0 Sr1_7 3.842505 1_544
Sr0_0 Sr0_4 4.041753 1_555
Sr0_0 Sr0_4 4.041753 1_455
Sr0_1 Sr1_0 3.840744 1_555
Sr0_1 Sr1_3 3.840744 1_545
Sr0_1 Sr1_1 3.842505 1_555
Sr0_1 Sr1_6 3.842505 1_545
Sr0_1 Sr0_5 4.041753 1_455
Sr0_1 Sr0_5 4.041753 1_555
Sr0_2 Sr1_3 3.840744 1_554
Sr0_2 Sr1_0 3.840744 1_555
Sr0_2 Sr1_2 3.842505 1_555
Sr0_2 Sr1_5 3.842505 1_554
Sr0_2 Sr0_6 4.041753 1_455
Sr0_2 Sr0_6 4.041753 1_555
Sr0_3 Sr1_2 3.840744 1_555
Sr0_3 Sr1_1 3.840744 1_555
Sr0_3 Sr1_3 3.842505 1_555
Sr0_3 Sr1_4 3.842505 1_555
Sr0_3 Sr0_7 4.041753 1_455
Sr0_3 Sr0_7 4.041753 1_555
Sr0_4 Sr1_5 3.840744 1_554
Sr0_4 Sr1_6 3.840744 1_545
Sr0_4 Sr1_4 3.842505 1_555
Sr0_4 Sr1_3 3.842505 1_644
Sr0_5 Sr1_4 3.840744 1_555
Sr0_5 Sr1_7 3.840744 1_545
Sr0_5 Sr1_5 3.842505 1_555
Sr0_5 Sr1_2 3.842505 1_645
Sr0_6 Sr1_7 3.840744 1_554
Sr0_6 Sr1_4 3.840744 1_555
Sr0_6 Sr1_6 3.842505 1_555
Sr0_6 Sr1_1 3.842505 1_654
Sr0_7 Sr1_6 3.840744 1_555
Sr0_7 Sr1_5 3.840744 1_555
Sr0_7 Sr1_7 3.842505 1_555
Sr0_7 Sr1_0 3.842505 1_655
Sr1_0 Sr1_4 4.041753 1_555
Sr1_0 Sr1_4 4.041753 1_455
Sr1_1 Sr1_5 4.041753 1_555
Sr1_1 Sr1_5 4.041753 1_455
Sr1_2 Sr1_6 4.041753 1_555
Sr1_2 Sr1_6 4.041753 1_455
Sr1_3 Sr1_7 4.041753 1_555
Sr1_3 Sr1_7 4.041753 1_455
