# generated using pymatgen
data_La4Mo2O11
_symmetry_space_group_name_H-M   'P 1'
_cell_length_a   13.22185300
_cell_length_b   13.22185300
_cell_length_c   5.76375700
_cell_angle_alpha   90.00000000
_cell_angle_beta   90.00000000
_cell_angle_gamma   90.00000000
_symmetry_Int_Tables_number   1
_chemical_formula_structural   La4Mo2O11
_chemical_formula_sum   'La16 Mo8 O44'
_cell_volume   1007.60499426
_cell_formula_units_Z   4
loop_
 _symmetry_equiv_pos_site_id
 _symmetry_equiv_pos_as_xyz
  1  'x, y, z'
loop_
 _atom_site_type_symbol
 _atom_site_label
 _atom_site_symmetry_multiplicity
 _atom_site_fract_x
 _atom_site_fract_y
 _atom_site_fract_z
 _atom_site_occupancy
  La  La0  1  0.36085000  0.94918700  0.66134900  1
  La  La1  1  0.44918700  0.13915000  0.16134900  1
  La  La2  1  0.55081300  0.86085000  0.16134900  1
  La  La3  1  0.63915000  0.05081300  0.66134900  1
  La  La4  1  0.13915000  0.55081300  0.83865100  1
  La  La5  1  0.05081300  0.36085000  0.33865100  1
  La  La6  1  0.94918700  0.63915000  0.33865100  1
  La  La7  1  0.86085000  0.44918700  0.83865100  1
  La  La8  1  0.37065300  0.42901900  0.25275200  1
  La  La9  1  0.92901900  0.12934700  0.75275200  1
  La  La10  1  0.07098100  0.87065300  0.75275200  1
  La  La11  1  0.62934700  0.57098100  0.25275200  1
  La  La12  1  0.12934700  0.07098100  0.24724800  1
  La  La13  1  0.57098100  0.37065300  0.74724800  1
  La  La14  1  0.42901900  0.62934700  0.74724800  1
  La  La15  1  0.87065300  0.92901900  0.24724800  1
  Mo  Mo0  1  0.28018100  0.85238900  0.16476900  1
  Mo  Mo1  1  0.35238900  0.21981900  0.66476900  1
  Mo  Mo2  1  0.64761100  0.78018100  0.66476900  1
  Mo  Mo3  1  0.71981900  0.14761100  0.16476900  1
  Mo  Mo4  1  0.21981900  0.64761100  0.33523100  1
  Mo  Mo5  1  0.14761100  0.28018100  0.83523100  1
  Mo  Mo6  1  0.85238900  0.71981900  0.83523100  1
  Mo  Mo7  1  0.78018100  0.35238900  0.33523100  1
  O  O0  1  0.50000000  0.50000000  0.00000000  1
  O  O1  1  0.00000000  0.00000000  0.50000000  1
  O  O2  1  0.50000000  0.50000000  0.50000000  1
  O  O3  1  0.00000000  0.00000000  0.00000000  1
  O  O4  1  0.32549300  0.74826700  0.41748500  1
  O  O5  1  0.24826700  0.17450700  0.91748500  1
  O  O6  1  0.75173300  0.82549300  0.91748500  1
  O  O7  1  0.67450700  0.25173300  0.41748500  1
  O  O8  1  0.17450700  0.75173300  0.08251500  1
  O  O9  1  0.25173300  0.32549300  0.58251500  1
  O  O10  1  0.74826700  0.67450700  0.58251500  1
  O  O11  1  0.82549300  0.24826700  0.08251500  1
  O  O12  1  0.29267600  0.58166300  0.07660600  1
  O  O13  1  0.08166300  0.20732400  0.57660600  1
  O  O14  1  0.91833700  0.79267600  0.57660600  1
  O  O15  1  0.70732400  0.41833700  0.07660600  1
  O  O16  1  0.12420900  0.69678700  0.55419400  1
  O  O17  1  0.20732400  0.91833700  0.42339400  1
  O  O18  1  0.58166300  0.70732400  0.92339400  1
  O  O19  1  0.79267600  0.08166300  0.42339400  1
  O  O20  1  0.37579100  0.80321300  0.94580600  1
  O  O21  1  0.30321300  0.12420900  0.44580600  1
  O  O22  1  0.69678700  0.87579100  0.44580600  1
  O  O23  1  0.62420900  0.19678700  0.94580600  1
  O  O24  1  0.90319600  0.45089500  0.24553700  1
  O  O25  1  0.95089500  0.59680400  0.74553700  1
  O  O26  1  0.04910500  0.40319600  0.74553700  1
  O  O27  1  0.09680400  0.54910500  0.24553700  1
  O  O28  1  0.59680400  0.04910500  0.25446300  1
  O  O29  1  0.54910500  0.90319600  0.75446300  1
  O  O30  1  0.45089500  0.09680400  0.75446300  1
  O  O31  1  0.40319600  0.95089500  0.25446300  1
  O  O32  1  0.77973900  0.04864300  0.94398100  1
  O  O33  1  0.54864300  0.72026100  0.44398100  1
  O  O34  1  0.45135700  0.27973900  0.44398100  1
  O  O35  1  0.22026100  0.95135700  0.94398100  1
  O  O36  1  0.72026100  0.45135700  0.55601900  1
  O  O37  1  0.95135700  0.77973900  0.05601900  1
  O  O38  1  0.04864300  0.22026100  0.05601900  1
  O  O39  1  0.27973900  0.54864300  0.55601900  1
  O  O40  1  0.87579100  0.30321300  0.55419400  1
  O  O41  1  0.80321300  0.62420900  0.05419400  1
  O  O42  1  0.19678700  0.37579100  0.05419400  1
  O  O43  1  0.41833700  0.29267600  0.92339400  1
loop_
_geom_bond_atom_site_label_1
_geom_bond_atom_site_label_2
_geom_bond_distance
_geom_bond_site_symmetry_2
La0 O30 2.348377 1_565
La0 O31 2.411206 1_555
La0 O35 2.471811 1_555
La0 O17 2.483529 1_555
La0 O20 2.540118 1_555
La0 O29 2.617885 1_555
La0 O21 2.734827 1_565
La0 O4 3.041604 1_555
La1 O28 2.348377 1_555
La1 O30 2.411206 1_554
La1 O34 2.471811 1_555
La1 O43 2.483529 1_554
La1 O21 2.540118 1_555
La1 O31 2.617885 1_545
La1 O23 2.734827 1_554
La1 O5 3.041604 1_554
La2 O31 2.348377 1_555
La2 O29 2.411206 1_554
La2 O33 2.471811 1_555
La2 O18 2.483529 1_554
La2 O22 2.540118 1_555
La2 O28 2.617885 1_565
La2 O20 2.734827 1_554
La2 O6 3.041604 1_554
La3 O29 2.348377 1_545
La3 O28 2.411206 1_555
La3 O32 2.471811 1_555
La3 O19 2.483529 1_555
La3 O23 2.540118 1_555
La3 O30 2.617885 1_555
La3 O22 2.734827 1_545
La3 O7 3.041604 1_555
La4 O26 2.348377 1_555
La4 O27 2.411206 1_556
La4 O39 2.471811 1_555
La4 O12 2.483529 1_556
La4 O16 2.540118 1_555
La4 O25 2.617885 1_455
La4 O42 2.734827 1_556
La4 O8 3.041604 1_556
La5 O24 2.348377 1_455
La5 O26 2.411206 1_555
La5 O38 2.471811 1_555
La5 O13 2.483529 1_555
La5 O42 2.540118 1_555
La5 O27 2.617885 1_555
La5 O40 2.734827 1_455
La5 O9 3.041604 1_555
La6 O27 2.348377 1_655
La6 O25 2.411206 1_555
La6 O37 2.471811 1_555
La6 O14 2.483529 1_555
La6 O41 2.540118 1_555
La6 O24 2.617885 1_555
La6 O16 2.734827 1_655
La6 O10 3.041604 1_555
La7 O25 2.348377 1_555
La7 O24 2.411206 1_556
La7 O36 2.471811 1_555
La7 O15 2.483529 1_556
La7 O40 2.540118 1_555
La7 O26 2.617885 1_655
La7 O41 2.734827 1_556
La7 O11 3.041604 1_556
La8 O2 2.415872 1_555
La8 O0 2.434720 1_555
La8 O12 2.483344 1_555
La8 O34 2.499834 1_555
La8 O39 2.646111 1_555
La8 O42 2.662642 1_555
La8 O43 2.692757 1_554
La8 O9 2.821073 1_555
La9 O3 2.415872 1_656
La9 O1 2.434720 1_655
La9 O13 2.483344 1_655
La9 O32 2.499834 1_555
La9 O38 2.646111 1_656
La9 O40 2.662642 1_555
La9 O19 2.692757 1_555
La9 O11 2.821073 1_556
La10 O3 2.415872 1_566
La10 O1 2.434720 1_565
La10 O14 2.483344 1_455
La10 O35 2.499834 1_555
La10 O37 2.646111 1_456
La10 O16 2.662642 1_555
La10 O17 2.692757 1_555
La10 O8 2.821073 1_556
La11 O2 2.415872 1_555
La11 O0 2.434720 1_555
La11 O15 2.483344 1_555
La11 O33 2.499834 1_555
La11 O36 2.646111 1_555
La11 O41 2.662642 1_555
La11 O18 2.692757 1_554
La11 O10 2.821073 1_555
La12 O3 2.415872 1_555
La12 O1 2.434720 1_555
La12 O17 2.483344 1_545
La12 O38 2.499834 1_555
La12 O35 2.646111 1_544
La12 O21 2.662642 1_555
La12 O13 2.692757 1_555
La12 O5 2.821073 1_554
La13 O2 2.415872 1_555
La13 O0 2.434720 1_556
La13 O43 2.483344 1_555
La13 O36 2.499834 1_555
La13 O34 2.646111 1_555
La13 O23 2.662642 1_555
La13 O15 2.692757 1_556
La13 O7 2.821073 1_555
La14 O2 2.415872 1_555
La14 O0 2.434720 1_556
La14 O18 2.483344 1_555
La14 O39 2.499834 1_555
La14 O33 2.646111 1_555
La14 O20 2.662642 1_555
La14 O12 2.692757 1_556
La14 O4 2.821073 1_555
La15 O3 2.415872 1_665
La15 O1 2.434720 1_665
La15 O19 2.483344 1_565
La15 O37 2.499834 1_555
La15 O32 2.646111 1_564
La15 O22 2.662642 1_555
La15 O14 2.692757 1_555
La15 O6 2.821073 1_554
Mo0 O20 1.900942 1_554
Mo0 O17 1.977449 1_555
Mo0 O8 1.986991 1_555
Mo0 O35 1.989817 1_554
Mo0 O4 2.091856 1_555
Mo0 O31 2.146870 1_555
Mo1 O21 1.900942 1_555
Mo1 O43 1.977449 1_555
Mo1 O9 1.986991 1_555
Mo1 O34 1.989817 1_555
Mo1 O5 2.091856 1_555
Mo1 O30 2.146870 1_555
Mo2 O22 1.900942 1_555
Mo2 O18 1.977449 1_555
Mo2 O10 1.986991 1_555
Mo2 O33 1.989817 1_555
Mo2 O6 2.091856 1_555
Mo2 O29 2.146870 1_555
Mo3 O23 1.900942 1_554
Mo3 O19 1.977449 1_555
Mo3 O11 1.986991 1_555
Mo3 O32 1.989817 1_554
Mo3 O7 2.091856 1_555
Mo3 O28 2.146870 1_555
Mo4 O16 1.900942 1_555
Mo4 O12 1.977449 1_555
Mo4 O4 1.986991 1_555
Mo4 O39 1.989817 1_555
Mo4 O8 2.091856 1_555
Mo4 O27 2.146870 1_555
Mo5 O42 1.900942 1_556
Mo5 O13 1.977449 1_555
Mo5 O5 1.986991 1_555
Mo5 O38 1.989817 1_556
Mo5 O9 2.091856 1_555
Mo5 O26 2.146870 1_555
Mo6 O41 1.900942 1_556
Mo6 O14 1.977449 1_555
Mo6 O6 1.986991 1_555
Mo6 O37 1.989817 1_556
Mo6 O10 2.091856 1_555
Mo6 O25 2.146870 1_555
Mo7 O40 1.900942 1_555
Mo7 O15 1.977449 1_555
Mo7 O7 1.986991 1_555
Mo7 O36 1.989817 1_555
Mo7 O11 2.091856 1_555
Mo7 O24 2.146870 1_555
