# generated using pymatgen
data_TbMn4(CuO4)3
_symmetry_space_group_name_H-M   'P 1'
_cell_length_a   6.42016675
_cell_length_b   6.42016675
_cell_length_c   6.42016675
_cell_angle_alpha   109.47122063
_cell_angle_beta   109.47122063
_cell_angle_gamma   109.47122063
_symmetry_Int_Tables_number   1
_chemical_formula_structural   TbMn4(CuO4)3
_chemical_formula_sum   'Tb1 Mn4 Cu3 O12'
_cell_volume   203.71219720
_cell_formula_units_Z   1
loop_
 _symmetry_equiv_pos_site_id
 _symmetry_equiv_pos_as_xyz
  1  'x, y, z'
loop_
 _atom_site_type_symbol
 _atom_site_label
 _atom_site_symmetry_multiplicity
 _atom_site_fract_x
 _atom_site_fract_y
 _atom_site_fract_z
 _atom_site_occupancy
  Tb  Tb0  1  0.00000000  0.00000000  0.00000000  1
  Mn  Mn0  1  0.50000000  0.50000000  0.50000000  1
  Mn  Mn1  1  0.50000000  0.00000000  0.00000000  1
  Mn  Mn2  1  0.00000000  0.50000000  0.00000000  1
  Mn  Mn3  1  0.00000000  0.00000000  0.50000000  1
  Cu  Cu0  1  0.50000000  0.50000000  0.00000000  1
  Cu  Cu1  1  0.50000000  0.00000000  0.50000000  1
  Cu  Cu2  1  0.00000000  0.50000000  0.50000000  1
  O  O0  1  0.83016600  0.69700100  0.52716700  1
  O  O1  1  0.16983400  0.30299900  0.47283300  1
  O  O2  1  0.16983400  0.69700100  0.86683500  1
  O  O3  1  0.83016600  0.30299900  0.13316500  1
  O  O4  1  0.69700100  0.52716700  0.83016600  1
  O  O5  1  0.30299900  0.47283300  0.16983400  1
  O  O6  1  0.69700100  0.86683500  0.16983400  1
  O  O7  1  0.30299900  0.13316500  0.83016600  1
  O  O8  1  0.52716700  0.83016600  0.69700100  1
  O  O9  1  0.47283300  0.16983400  0.30299900  1
  O  O10  1  0.13316500  0.83016600  0.30299900  1
  O  O11  1  0.86683500  0.16983400  0.69700100  1
loop_
_geom_bond_atom_site_label_1
_geom_bond_atom_site_label_2
_geom_bond_distance
_geom_bond_site_symmetry_2
Mn0 O4 1.985558 1_555
Mn0 O8 1.985558 1_555
Mn0 O0 1.985558 1_555
Mn0 O1 1.985558 1_555
Mn0 O9 1.985558 1_555
Mn0 O5 1.985558 1_555
Mn1 O9 1.985558 1_555
Mn1 O8 1.985558 1_544
Mn1 O3 1.985558 1_555
Mn1 O6 1.985558 1_545
Mn1 O2 1.985558 1_544
Mn1 O7 1.985558 1_554
Mn2 O5 1.985558 1_555
Mn2 O4 1.985558 1_454
Mn2 O10 1.985558 1_555
Mn2 O2 1.985558 1_554
Mn2 O11 1.985558 1_454
Mn2 O3 1.985558 1_455
Mn3 O1 1.985558 1_555
Mn3 O0 1.985558 1_445
Mn3 O7 1.985558 1_555
Mn3 O6 1.985558 1_445
Mn3 O11 1.985558 1_455
Mn3 O10 1.985558 1_545
Cu0 O6 1.928231 1_555
Cu0 O4 1.928231 1_554
Cu0 O5 1.928231 1_555
Cu0 O7 1.928231 1_554
Cu1 O11 1.928231 1_555
Cu1 O8 1.928231 1_545
Cu1 O9 1.928231 1_555
Cu1 O10 1.928231 1_545
Cu2 O2 1.928231 1_555
Cu2 O0 1.928231 1_455
Cu2 O1 1.928231 1_555
Cu2 O3 1.928231 1_455
O0 Tb0 2.575034 1_666
O1 Tb0 2.575034 1_555
O2 Tb0 2.575034 1_566
O3 Tb0 2.575034 1_655
O4 Tb0 2.575034 1_666
O5 Tb0 2.575034 1_555
O6 Tb0 2.575034 1_665
O7 Tb0 2.575034 1_556
O8 Tb0 2.575034 1_666
O9 Tb0 2.575034 1_555
O10 Tb0 2.575034 1_565
O11 Tb0 2.575034 1_656
