# generated using pymatgen
data_Cs12Sn8GeO4
_symmetry_space_group_name_H-M   'P 1'
_cell_length_a   13.94900065
_cell_length_b   13.76564537
_cell_length_c   24.94928206
_cell_angle_alpha   90.00000000
_cell_angle_beta   90.00000000
_cell_angle_gamma   118.92378141
_symmetry_Int_Tables_number   1
_chemical_formula_structural   Cs12Sn8GeO4
_chemical_formula_sum   'Cs48 Sn32 Ge4 O16'
_cell_volume   4193.11448930
_cell_formula_units_Z   4
loop_
 _symmetry_equiv_pos_site_id
 _symmetry_equiv_pos_as_xyz
  1  'x, y, z'
loop_
 _atom_site_type_symbol
 _atom_site_label
 _atom_site_symmetry_multiplicity
 _atom_site_fract_x
 _atom_site_fract_y
 _atom_site_fract_z
 _atom_site_occupancy
  Cs  Cs0  1  0.90928030  0.44387073  0.60562925  1
  Cs  Cs1  1  0.09071970  0.05612927  0.10562925  1
  Cs  Cs2  1  0.09071970  0.55612927  0.39437075  1
  Cs  Cs3  1  0.90928030  0.94387073  0.89437075  1
  Cs  Cs4  1  0.91257235  0.22899939  0.84268444  1
  Cs  Cs5  1  0.08742765  0.27100061  0.34268444  1
  Cs  Cs6  1  0.08742765  0.77100061  0.15731556  1
  Cs  Cs7  1  0.91257235  0.72899939  0.65731556  1
  Cs  Cs8  1  0.87581195  0.37830634  0.11596275  1
  Cs  Cs9  1  0.12418805  0.12169366  0.61596275  1
  Cs  Cs10  1  0.12418805  0.62169366  0.88403725  1
  Cs  Cs11  1  0.87581195  0.87830634  0.38403725  1
  Cs  Cs12  1  0.85863615  0.13731968  0.69168822  1
  Cs  Cs13  1  0.14136385  0.36268032  0.19168822  1
  Cs  Cs14  1  0.14136385  0.86268032  0.30831178  1
  Cs  Cs15  1  0.85863615  0.63731968  0.80831178  1
  Cs  Cs16  1  0.83105056  0.40815308  0.93129991  1
  Cs  Cs17  1  0.16894944  0.09184692  0.43129991  1
  Cs  Cs18  1  0.16894944  0.59184692  0.06870009  1
  Cs  Cs19  1  0.83105056  0.90815308  0.56870009  1
  Cs  Cs20  1  0.82898491  0.20910444  0.27434886  1
  Cs  Cs21  1  0.17101509  0.29089556  0.77434886  1
  Cs  Cs22  1  0.17101509  0.79089556  0.72565114  1
  Cs  Cs23  1  0.82898491  0.70910444  0.22565114  1
  Cs  Cs24  1  0.80224128  0.98573963  0.16189332  1
  Cs  Cs25  1  0.19775872  0.51426037  0.66189332  1
  Cs  Cs26  1  0.19775872  0.01426037  0.83810668  1
  Cs  Cs27  1  0.80224128  0.48573963  0.33810668  1
  Cs  Cs28  1  0.73011836  0.33631952  0.74548649  1
  Cs  Cs29  1  0.26988164  0.16368048  0.24548649  1
  Cs  Cs30  1  0.26988164  0.66368048  0.25451351  1
  Cs  Cs31  1  0.73011836  0.83631952  0.75451351  1
  Cs  Cs32  1  0.49670742  0.21560047  0.52508919  1
  Cs  Cs33  1  0.50329258  0.28439953  0.02508919  1
  Cs  Cs34  1  0.50329258  0.78439953  0.47491081  1
  Cs  Cs35  1  0.49670742  0.71560047  0.97491081  1
  Cs  Cs36  1  0.47836496  0.40029276  0.87606782  1
  Cs  Cs37  1  0.52163504  0.09970724  0.37606782  1
  Cs  Cs38  1  0.52163504  0.59970724  0.12393218  1
  Cs  Cs39  1  0.47836496  0.90029276  0.62393218  1
  Cs  Cs40  1  0.37977051  0.15618710  0.70151013  1
  Cs  Cs41  1  0.62022949  0.34381290  0.20151013  1
  Cs  Cs42  1  0.62022949  0.84381290  0.29848987  1
  Cs  Cs43  1  0.37977051  0.65618710  0.79848987  1
  Cs  Cs44  1  0.27963878  0.45444072  0.50579229  1
  Cs  Cs45  1  0.72036122  0.04555928  0.00579229  1
  Cs  Cs46  1  0.72036122  0.54555928  0.49420771  1
  Cs  Cs47  1  0.27963878  0.95444072  0.99420771  1
  Sn  Sn0  1  0.95972641  0.21794380  0.50378960  1
  Sn  Sn1  1  0.04027359  0.28205620  0.00378960  1
  Sn  Sn2  1  0.04027359  0.78205620  0.49621040  1
  Sn  Sn3  1  0.95972641  0.71794380  0.99621040  1
  Sn  Sn4  1  0.81202902  0.79547680  0.04576159  1
  Sn  Sn5  1  0.18797098  0.70452320  0.54576159  1
  Sn  Sn6  1  0.18797098  0.20452320  0.95423841  1
  Sn  Sn7  1  0.81202902  0.29547680  0.45423841  1
  Sn  Sn8  1  0.72795279  0.12987589  0.54268011  1
  Sn  Sn9  1  0.27204721  0.37012411  0.04268011  1
  Sn  Sn10  1  0.27204721  0.87012411  0.45731989  1
  Sn  Sn11  1  0.72795279  0.62987589  0.95731989  1
  Sn  Sn12  1  0.23015083  0.43487854  0.93503479  1
  Sn  Sn13  1  0.76984917  0.06512146  0.43503479  1
  Sn  Sn14  1  0.76984917  0.56512146  0.06496521  1
  Sn  Sn15  1  0.23015083  0.93487854  0.56496521  1
  Sn  Sn16  1  0.54795847  0.14023308  0.87421109  1
  Sn  Sn17  1  0.45204153  0.35976692  0.37421109  1
  Sn  Sn18  1  0.45204153  0.85976692  0.12578891  1
  Sn  Sn19  1  0.54795847  0.64023308  0.62578891  1
  Sn  Sn20  1  0.52188655  0.00939950  0.77164565  1
  Sn  Sn21  1  0.47811345  0.49060050  0.27164565  1
  Sn  Sn22  1  0.47811345  0.99060050  0.22835435  1
  Sn  Sn23  1  0.52188655  0.50939950  0.72835435  1
  Sn  Sn24  1  0.62606247  0.96998367  0.86505622  1
  Sn  Sn25  1  0.37393753  0.53001633  0.36505622  1
  Sn  Sn26  1  0.37393753  0.03001633  0.13494378  1
  Sn  Sn27  1  0.62606247  0.46998367  0.63494378  1
  Sn  Sn28  1  0.39182531  0.89987926  0.86966991  1
  Sn  Sn29  1  0.60817469  0.60012074  0.36966991  1
  Sn  Sn30  1  0.60817469  0.10012074  0.13033009  1
  Sn  Sn31  1  0.39182531  0.39987926  0.63033009  1
  Ge  Ge0  1  0.99131807  0.00873863  0.25920669  1
  Ge  Ge1  1  0.00868193  0.49126137  0.75920669  1
  Ge  Ge2  1  0.00868193  0.99126137  0.74079331  1
  Ge  Ge3  1  0.99131807  0.50873863  0.24079331  1
  O  O0  1  0.97692256  0.36250184  0.72670309  1
  O  O1  1  0.02307744  0.13749816  0.22670309  1
  O  O2  1  0.02307744  0.63749816  0.27329691  1
  O  O3  1  0.97692256  0.86250184  0.77329691  1
  O  O4  1  0.96439356  0.06976937  0.78225692  1
  O  O5  1  0.03560644  0.43023063  0.28225692  1
  O  O6  1  0.03560644  0.93023063  0.21774308  1
  O  O7  1  0.96439356  0.56976937  0.71774308  1
  O  O8  1  0.93495952  0.46246681  0.82223747  1
  O  O9  1  0.06504048  0.03753319  0.32223747  1
  O  O10  1  0.06504048  0.53753319  0.17776253  1
  O  O11  1  0.93495952  0.96246681  0.67776253  1
  O  O12  1  0.84504209  0.42637584  0.23067106  1
  O  O13  1  0.15495791  0.07362416  0.73067106  1
  O  O14  1  0.15495791  0.57362416  0.76932894  1
  O  O15  1  0.84504209  0.92637584  0.26932894  1
loop_
_geom_bond_atom_site_label_1
_geom_bond_atom_site_label_2
_geom_bond_distance
_geom_bond_site_symmetry_2
Cs0 O7 3.182751 1_555
Cs0 O0 3.505971 1_555
Cs0 Sn5 4.089654 1_655
Cs0 Sn8 4.119672 1_555
Cs0 Sn7 4.195117 1_555
Cs0 Sn27 4.200601 1_555
Cs0 Sn0 4.328984 1_555
Cs1 O6 3.182751 1_545
Cs1 O1 3.505971 1_555
Cs1 Sn4 4.089654 1_445
Cs1 Sn9 4.119672 1_555
Cs1 Sn6 4.195117 1_554
Cs1 Sn26 4.200601 1_555
Cs1 Sn1 4.328984 1_555
Cs2 O5 3.182751 1_555
Cs2 O2 3.505971 1_555
Cs2 Sn7 4.089654 1_455
Cs2 Sn10 4.119672 1_555
Cs2 Sn5 4.195117 1_555
Cs2 Sn25 4.200601 1_555
Cs2 Sn2 4.328984 1_555
Cs3 O4 3.182751 1_565
Cs3 O3 3.505971 1_555
Cs3 Sn6 4.089654 1_665
Cs3 Sn11 4.119672 1_555
Cs3 Sn4 4.195117 1_556
Cs3 Sn24 4.200601 1_555
Cs3 Sn3 4.328984 1_555
Cs4 O4 3.022001 1_555
Cs4 O8 3.116998 1_555
Cs4 O0 3.310682 1_555
Cs4 Sn24 3.900396 1_545
Cs4 Sn1 4.313244 1_656
Cs5 O5 3.022001 1_555
Cs5 O9 3.116998 1_555
Cs5 O1 3.310682 1_555
Cs5 Sn25 3.900396 1_555
Cs5 Sn0 4.313244 1_455
Cs6 O6 3.022001 1_555
Cs6 O10 3.116998 1_555
Cs6 O2 3.310682 1_555
Cs6 Sn26 3.900396 1_565
Cs6 Sn3 4.313244 1_454
Cs7 O7 3.022001 1_555
Cs7 O11 3.116998 1_555
Cs7 O3 3.310682 1_555
Cs7 Sn27 3.900396 1_555
Cs7 Sn2 4.313244 1_655
Cs8 O10 2.924469 1_655
Cs8 O12 3.014500 1_555
Cs8 Sn14 3.754145 1_555
Cs8 Sn30 3.860252 1_555
Cs8 Sn1 4.217908 1_655
Cs9 O11 2.924469 1_445
Cs9 O13 3.014500 1_555
Cs9 Sn15 3.754145 1_545
Cs9 Sn31 3.860252 1_555
Cs9 Sn0 4.217908 1_455
Cs10 O8 2.924469 1_455
Cs10 O14 3.014500 1_555
Cs10 Sn12 3.754145 1_555
Cs10 Sn28 3.860252 1_555
Cs10 Sn3 4.217908 1_455
Cs11 O9 2.924469 1_665
Cs11 O15 3.014500 1_555
Cs11 Sn13 3.754145 1_565
Cs11 Sn29 3.860252 1_555
Cs11 Sn2 4.217908 1_655
Cs12 O0 2.854285 1_555
Cs12 O4 3.077938 1_555
Cs12 O11 3.086478 1_545
Cs12 Sn8 4.119913 1_555
Cs12 Sn20 4.598279 1_555
Cs13 O1 2.854285 1_555
Cs13 O5 3.077938 1_555
Cs13 O10 3.086478 1_555
Cs13 Sn9 4.119913 1_555
Cs13 Sn21 4.598279 1_555
Cs14 O2 2.854285 1_555
Cs14 O6 3.077938 1_555
Cs14 O9 3.086478 1_565
Cs14 Sn10 4.119913 1_555
Cs14 Sn22 4.598279 1_555
Cs15 O3 2.854285 1_555
Cs15 O7 3.077938 1_555
Cs15 O8 3.086478 1_555
Cs15 Sn11 4.119913 1_555
Cs15 Sn23 4.598279 1_555
Cs16 O8 3.002599 1_555
Cs16 Sn11 4.006374 1_555
Cs16 Sn3 4.077513 1_555
Cs16 Sn16 4.139660 1_555
Cs16 Sn14 4.278234 1_556
Cs16 Sn1 4.438632 1_656
Cs17 O9 3.002599 1_555
Cs17 Sn10 4.006374 1_545
Cs17 Sn2 4.077513 1_545
Cs17 Sn17 4.139660 1_555
Cs17 Sn15 4.278234 1_545
Cs17 Sn0 4.438632 1_455
Cs18 O10 3.002599 1_555
Cs18 Sn9 4.006374 1_555
Cs18 Sn1 4.077513 1_555
Cs18 Sn18 4.139660 1_555
Cs18 Sn12 4.278234 1_554
Cs18 Sn3 4.438632 1_454
Cs19 O11 3.002599 1_555
Cs19 Sn8 4.006374 1_565
Cs19 Sn0 4.077513 1_565
Cs19 Sn19 4.139660 1_555
Cs19 Sn13 4.278234 1_565
Cs19 Sn2 4.438632 1_655
Cs20 O5 3.020795 1_655
Cs20 O12 3.087889 1_555
Cs20 O1 3.506579 1_655
Cs20 Sn13 4.370291 1_555
Cs20 Sn22 4.480892 1_545
Cs20 Sn30 4.492075 1_555
Cs21 O4 3.020795 1_455
Cs21 O13 3.087889 1_555
Cs21 O0 3.506579 1_455
Cs21 Sn12 4.370291 1_555
Cs21 Sn23 4.480892 1_555
Cs21 Sn31 4.492075 1_555
Cs22 O7 3.020795 1_455
Cs22 O14 3.087889 1_555
Cs22 O3 3.506579 1_455
Cs22 Sn15 4.370291 1_555
Cs22 Sn20 4.480892 1_565
Cs22 Sn28 4.492075 1_555
Cs23 O6 3.020795 1_655
Cs23 O15 3.087889 1_555
Cs23 O2 3.506579 1_655
Cs23 Sn14 4.370291 1_555
Cs23 Sn21 4.480892 1_555
Cs23 Sn29 4.492075 1_555
Cs24 O15 2.946340 1_555
Cs24 O1 3.200485 1_665
Cs24 Sn30 3.814472 1_565
Cs24 Sn4 3.952102 1_555
Cs24 Sn18 4.414433 1_555
Cs25 O14 2.946340 1_555
Cs25 O0 3.200485 1_455
Cs25 Sn31 3.814472 1_555
Cs25 Sn5 3.952102 1_555
Cs25 Sn19 4.414433 1_555
Cs26 O13 2.946340 1_555
Cs26 O3 3.200485 1_445
Cs26 Sn28 3.814472 1_545
Cs26 Sn6 3.952102 1_555
Cs26 Sn16 4.414433 1_555
Cs27 O12 2.946340 1_555
Cs27 O2 3.200485 1_655
Cs27 Sn29 3.814472 1_555
Cs27 Sn7 3.952102 1_555
Cs27 Sn17 4.414433 1_555
Cs28 O8 3.169712 1_555
Cs28 O0 3.316820 1_555
Cs28 O7 3.365599 1_555
Cs28 Sn27 3.960045 1_555
Cs28 Sn20 4.058467 1_555
Cs28 Sn16 4.174010 1_555
Cs28 Sn23 4.581508 1_555
Cs29 O9 3.169712 1_555
Cs29 O1 3.316820 1_555
Cs29 O6 3.365599 1_545
Cs29 Sn26 3.960045 1_555
Cs29 Sn21 4.058467 1_555
Cs29 Sn17 4.174010 1_555
Cs29 Sn22 4.581508 1_545
Cs30 O10 3.169712 1_555
Cs30 O2 3.316820 1_555
Cs30 O5 3.365599 1_555
Cs30 Sn25 3.960045 1_555
Cs30 Sn22 4.058467 1_555
Cs30 Sn18 4.174010 1_555
Cs30 Sn21 4.581508 1_555
Cs31 O11 3.169712 1_555
Cs31 O3 3.316820 1_555
Cs31 O4 3.365599 1_565
Cs31 Sn24 3.960045 1_555
Cs31 Sn23 4.058467 1_555
Cs31 Sn19 4.174010 1_555
Cs31 Sn20 4.581508 1_565
Cs32 Sn8 3.958767 1_555
Cs32 Sn15 3.981131 1_545
Cs32 Sn27 4.113169 1_555
Cs32 Sn7 4.359094 1_555
Cs32 Sn31 4.365702 1_555
Cs32 Sn17 4.437632 1_555
Cs33 Sn9 3.958767 1_555
Cs33 Sn14 3.981131 1_555
Cs33 Sn26 4.113169 1_555
Cs33 Sn6 4.359094 1_554
Cs33 Sn30 4.365702 1_555
Cs33 Sn16 4.437632 1_554
Cs34 Sn10 3.958767 1_555
Cs34 Sn13 3.981131 1_565
Cs34 Sn25 4.113169 1_555
Cs34 Sn5 4.359094 1_555
Cs34 Sn29 4.365702 1_555
Cs34 Sn19 4.437632 1_555
Cs35 Sn11 3.958767 1_555
Cs35 Sn12 3.981131 1_555
Cs35 Sn24 4.113169 1_555
Cs35 Sn4 4.359094 1_556
Cs35 Sn28 4.365702 1_555
Cs35 Sn18 4.437632 1_556
Cs36 Sn23 3.914604 1_555
Cs36 Sn11 3.946552 1_555
Cs36 Sn12 3.996665 1_555
Cs36 Sn6 4.112806 1_555
Cs36 Sn16 4.137834 1_555
Cs37 Sn22 3.914604 1_545
Cs37 Sn10 3.946552 1_545
Cs37 Sn13 3.996665 1_555
Cs37 Sn7 4.112806 1_555
Cs37 Sn17 4.137834 1_555
Cs38 Sn21 3.914604 1_555
Cs38 Sn9 3.946552 1_555
Cs38 Sn14 3.996665 1_555
Cs38 Sn4 4.112806 1_555
Cs38 Sn18 4.137834 1_555
Cs39 Sn20 3.914604 1_565
Cs39 Sn8 3.946552 1_565
Cs39 Sn15 3.996665 1_555
Cs39 Sn5 4.112806 1_555
Cs39 Sn19 4.137834 1_555
Cs40 O13 2.864869 1_555
Cs40 Sn31 3.726881 1_555
Cs40 Sn20 3.866430 1_555
Cs40 Sn23 4.323875 1_555
Cs40 Sn27 4.343426 1_555
Cs40 Sn15 4.369452 1_545
Cs41 O12 2.864869 1_555
Cs41 Sn30 3.726881 1_555
Cs41 Sn21 3.866430 1_555
Cs41 Sn22 4.323875 1_545
Cs41 Sn26 4.343426 1_555
Cs41 Sn14 4.369452 1_555
Cs42 O15 2.864869 1_555
Cs42 Sn29 3.726881 1_555
Cs42 Sn22 3.866430 1_555
Cs42 Sn21 4.323875 1_555
Cs42 Sn25 4.343426 1_555
Cs42 Sn13 4.369452 1_565
Cs43 O14 2.864869 1_555
Cs43 Sn28 3.726881 1_555
Cs43 Sn23 3.866430 1_555
Cs43 Sn20 4.323875 1_565
Cs43 Sn24 4.343426 1_555
Cs43 Sn12 4.369452 1_555
Cs44 Sn31 3.715393 1_555
Cs44 Sn25 3.717233 1_555
Cs44 Sn0 4.057342 1_455
Cs44 Sn5 4.328795 1_555
Cs44 Sn19 4.500366 1_555
Cs45 Sn30 3.715393 1_555
Cs45 Sn24 3.717233 1_544
Cs45 Sn1 4.057342 1_655
Cs45 Sn4 4.328795 1_545
Cs45 Sn18 4.500366 1_545
Cs46 Sn29 3.715393 1_555
Cs46 Sn27 3.717233 1_555
Cs46 Sn2 4.057342 1_655
Cs46 Sn7 4.328795 1_555
Cs46 Sn17 4.500366 1_555
Cs47 Sn28 3.715393 1_555
Cs47 Sn26 3.717233 1_566
Cs47 Sn3 4.057342 1_455
Cs47 Sn6 4.328795 1_565
Cs47 Sn16 4.500366 1_565
Sn0 Sn13 2.998925 1_555
Sn0 Sn7 3.006487 1_555
Sn0 Sn8 3.012026 1_555
Sn1 Sn12 2.998925 1_554
Sn1 Sn6 3.006487 1_554
Sn1 Sn9 3.012026 1_555
Sn2 Sn5 3.006487 1_555
Sn3 Sn4 3.006487 1_556
Sn6 Sn9 2.975713 1_556
Sn7 Sn8 2.975713 1_555
Sn10 Sn15 2.975374 1_555
Sn10 Sn5 2.975713 1_555
Sn10 Sn2 3.012026 1_555
Sn11 Sn14 2.975374 1_556
Sn11 Sn4 2.975713 1_556
Sn11 Sn3 3.012026 1_555
Sn12 Sn6 2.970896 1_555
Sn12 Sn9 2.975374 1_556
Sn13 Sn7 2.970896 1_555
Sn13 Sn8 2.975374 1_555
Sn14 Sn4 2.970896 1_555
Sn14 Sn3 2.998925 1_554
Sn15 Sn5 2.970896 1_555
Sn15 Sn2 2.998925 1_555
Sn16 Sn28 2.955153 1_545
Sn16 Sn24 3.033367 1_545
Sn16 Sn20 3.048028 1_555
Sn17 Sn29 2.955153 1_555
Sn17 Sn25 3.033367 1_555
Sn17 Sn21 3.048028 1_555
Sn18 Sn30 2.955153 1_565
Sn18 Sn26 3.033367 1_565
Sn18 Sn22 3.048028 1_555
Sn19 Sn31 2.955153 1_555
Sn19 Sn27 3.033367 1_555
Sn19 Sn23 3.048028 1_555
Sn20 Sn24 2.932587 1_545
Sn20 Sn28 2.983246 1_545
Sn21 Sn25 2.932587 1_555
Sn21 Sn29 2.983246 1_555
Sn22 Sn26 2.932587 1_565
Sn22 Sn30 2.983246 1_565
Sn23 Sn27 2.932587 1_555
Sn23 Sn31 2.983246 1_555
Sn24 Sn28 2.927505 1_555
Sn25 Sn29 2.927505 1_555
Sn26 Sn30 2.927505 1_555
Sn27 Sn31 2.927505 1_555
Ge0 O1 1.798877 1_655
Ge0 O6 1.807086 1_645
Ge0 O15 1.809635 1_545
Ge0 O9 1.814753 1_655
Ge1 O0 1.798877 1_455
Ge1 O7 1.807086 1_455
Ge1 O14 1.809635 1_555
Ge1 O8 1.814753 1_455
Ge2 O3 1.798877 1_455
Ge2 O4 1.807086 1_465
Ge2 O13 1.809635 1_565
Ge2 O11 1.814753 1_455
Ge3 O2 1.798877 1_655
Ge3 O5 1.807086 1_655
Ge3 O12 1.809635 1_555
Ge3 O10 1.814753 1_655
