# generated using pymatgen
data_Mg2PH7O8
_symmetry_space_group_name_H-M   'P 1'
_cell_length_a   4.78742000
_cell_length_b   13.02226000
_cell_length_c   10.55142878
_cell_angle_alpha   90.00000000
_cell_angle_beta   104.97645357
_cell_angle_gamma   90.00000000
_symmetry_Int_Tables_number   1
_chemical_formula_structural   Mg2PH7O8
_chemical_formula_sum   'Mg8 P4 H28 O32'
_cell_volume   635.46366861
_cell_formula_units_Z   4
loop_
 _symmetry_equiv_pos_site_id
 _symmetry_equiv_pos_as_xyz
  1  'x, y, z'
loop_
 _atom_site_type_symbol
 _atom_site_label
 _atom_site_symmetry_multiplicity
 _atom_site_fract_x
 _atom_site_fract_y
 _atom_site_fract_z
 _atom_site_occupancy
  Mg  Mg0  1  0.95389100  0.98731600  0.34554100  1
  Mg  Mg1  1  0.04610900  0.48731600  0.15445900  1
  Mg  Mg2  1  0.04610900  0.01268400  0.65445900  1
  Mg  Mg3  1  0.95389100  0.51268400  0.84554100  1
  Mg  Mg4  1  0.06640200  0.71128900  0.00286500  1
  Mg  Mg5  1  0.93359800  0.21128900  0.49713500  1
  Mg  Mg6  1  0.93359800  0.28871100  0.99713500  1
  Mg  Mg7  1  0.06640200  0.78871100  0.50286500  1
  P  P0  1  0.40699100  0.81986400  0.27905700  1
  P  P1  1  0.59300900  0.31986400  0.22094300  1
  P  P2  1  0.59300900  0.18013600  0.72094300  1
  P  P3  1  0.40699100  0.68013600  0.77905700  1
  H  H0  1  0.56711600  0.06363100  0.46752900  1
  H  H1  1  0.43288400  0.56363100  0.03247100  1
  H  H2  1  0.43288400  0.93636900  0.53247100  1
  H  H3  1  0.56711600  0.43636900  0.96752900  1
  H  H4  1  0.31363500  0.18265100  0.33829000  1
  H  H5  1  0.68636500  0.68265100  0.16171000  1
  H  H6  1  0.68636500  0.81734900  0.66171000  1
  H  H7  1  0.31363500  0.31734900  0.83829000  1
  H  H8  1  0.98762600  0.18061900  0.25696000  1
  H  H9  1  0.01237400  0.68061900  0.24304000  1
  H  H10  1  0.01237400  0.81938100  0.74304000  1
  H  H11  1  0.98762600  0.31938100  0.75696000  1
  H  H12  1  0.45053100  0.00453400  0.18300700  1
  H  H13  1  0.54946900  0.50453400  0.31699300  1
  H  H14  1  0.54946900  0.99546600  0.81699300  1
  H  H15  1  0.45053100  0.49546600  0.68300700  1
  H  H16  1  0.62577200  0.10111000  0.14924100  1
  H  H17  1  0.37422800  0.60111000  0.35075900  1
  H  H18  1  0.37422800  0.89889000  0.85075900  1
  H  H19  1  0.62577200  0.39889000  0.64924100  1
  H  H20  1  0.95760100  0.88608100  0.08852700  1
  H  H21  1  0.04239900  0.38608100  0.41147300  1
  H  H22  1  0.04239900  0.11391900  0.91147300  1
  H  H23  1  0.95760100  0.61391900  0.58852700  1
  H  H24  1  0.66210600  0.82890800  0.03650000  1
  H  H25  1  0.33789400  0.32890800  0.46350000  1
  H  H26  1  0.33789400  0.17109200  0.96350000  1
  H  H27  1  0.66210600  0.67109200  0.53650000  1
  O  O0  1  0.42249900  0.76483200  0.14958600  1
  O  O1  1  0.57750100  0.26483200  0.35041400  1
  O  O2  1  0.57750100  0.23516800  0.85041400  1
  O  O3  1  0.42249900  0.73516800  0.64958600  1
  O  O4  1  0.26582200  0.74348600  0.35889800  1
  O  O5  1  0.73417800  0.24348600  0.14110200  1
  O  O6  1  0.73417800  0.25651400  0.64110200  1
  O  O7  1  0.26582200  0.75651400  0.85889800  1
  O  O8  1  0.71275000  0.85145200  0.36077000  1
  O  O9  1  0.28725000  0.35145200  0.13923000  1
  O  O10  1  0.28725000  0.14854800  0.63923000  1
  O  O11  1  0.71275000  0.64854800  0.86077000  1
  O  O12  1  0.21434500  0.91775200  0.24061500  1
  O  O13  1  0.78565500  0.41775200  0.25938500  1
  O  O14  1  0.78565500  0.08224800  0.75938500  1
  O  O15  1  0.21434500  0.58224800  0.74061500  1
  O  O16  1  0.77525100  0.06366900  0.48096800  1
  O  O17  1  0.22474900  0.56366900  0.01903200  1
  O  O18  1  0.22474900  0.93633100  0.51903200  1
  O  O19  1  0.77525100  0.43633100  0.98096800  1
  O  O20  1  0.12308500  0.14733500  0.33543300  1
  O  O21  1  0.87691500  0.64733500  0.16456700  1
  O  O22  1  0.87691500  0.85266500  0.66456700  1
  O  O23  1  0.12308500  0.35266500  0.83543300  1
  O  O24  1  0.64368300  0.02876400  0.17804500  1
  O  O25  1  0.35631700  0.52876400  0.32195500  1
  O  O26  1  0.35631700  0.97123600  0.82195500  1
  O  O27  1  0.64368300  0.47123600  0.67804500  1
  O  O28  1  0.84241200  0.84569600  0.01260100  1
  O  O29  1  0.15758800  0.34569600  0.48739900  1
  O  O30  1  0.15758800  0.15430400  0.98739900  1
  O  O31  1  0.84241200  0.65430400  0.51260100  1
loop_
_geom_bond_atom_site_label_1
_geom_bond_atom_site_label_2
_geom_bond_distance
_geom_bond_site_symmetry_2
Mg0 O18 2.060690 1_655
Mg0 O24 2.064881 1_565
Mg0 O12 2.077158 1_655
Mg0 O16 2.096076 1_565
Mg0 O8 2.141192 1_555
Mg0 O20 2.248197 1_665
Mg1 O19 2.060690 1_454
Mg1 O25 2.064881 1_555
Mg1 O13 2.077158 1_455
Mg1 O17 2.096076 1_555
Mg1 O9 2.141192 1_555
Mg1 O21 2.248197 1_455
Mg2 O16 2.060690 1_455
Mg2 O26 2.064881 1_545
Mg2 O14 2.077158 1_455
Mg2 O18 2.096076 1_545
Mg2 O10 2.141192 1_555
Mg2 O22 2.248197 1_445
Mg3 O17 2.060690 1_656
Mg3 O27 2.064881 1_555
Mg3 O15 2.077158 1_655
Mg3 O19 2.096076 1_555
Mg3 O11 2.141192 1_555
Mg3 O23 2.248197 1_655
Mg4 O17 2.057268 1_555
Mg4 O28 2.069029 1_455
Mg4 O7 2.077354 1_554
Mg4 O0 2.103582 1_555
Mg4 O11 2.114236 1_454
Mg4 O21 2.286386 1_455
Mg5 O16 2.057268 1_555
Mg5 O29 2.069029 1_655
Mg5 O6 2.077354 1_555
Mg5 O1 2.103582 1_555
Mg5 O10 2.114236 1_655
Mg5 O20 2.286386 1_655
Mg6 O19 2.057268 1_555
Mg6 O30 2.069029 1_655
Mg6 O5 2.077354 1_556
Mg6 O2 2.103582 1_555
Mg6 O9 2.114236 1_656
Mg6 O23 2.286386 1_655
Mg7 O18 2.057268 1_555
Mg7 O31 2.069029 1_455
Mg7 O4 2.077354 1_555
Mg7 O3 2.103582 1_555
Mg7 O8 2.114236 1_455
Mg7 O22 2.286386 1_455
H0 O16 0.969512 1_555
H1 O17 0.969512 1_555
H2 O18 0.969512 1_555
H3 O19 0.969512 1_555
H4 O20 1.015079 1_555
H4 O1 1.635207 1_555
H5 O21 1.015079 1_555
H5 O0 1.635207 1_555
H6 O22 1.015079 1_555
H6 O3 1.635207 1_555
H7 O23 1.015079 1_555
H7 O2 1.635207 1_555
H8 O20 1.008206 1_655
H8 O5 1.694185 1_555
H9 O21 1.008206 1_455
H9 O4 1.694185 1_555
H10 O22 1.008206 1_455
H10 O7 1.694185 1_555
H11 O23 1.008206 1_655
H11 O6 1.694185 1_555
H12 O24 0.991157 1_555
H13 O25 0.991157 1_555
H14 O26 0.991157 1_555
H15 O27 0.991157 1_555
H16 O24 0.986824 1_555
H17 O25 0.986824 1_555
H18 O26 0.986824 1_555
H19 O27 0.986824 1_555
H20 O28 0.997071 1_555
H21 O29 0.997071 1_555
H22 O30 0.997071 1_555
H23 O31 0.997071 1_555
H24 O28 0.984378 1_555
H25 O29 0.984378 1_555
H26 O30 0.984378 1_555
H27 O31 0.984378 1_555
O0 P0 1.561329 1_555
O1 P1 1.561329 1_555
O2 P2 1.561329 1_555
O3 P3 1.561329 1_555
O4 P0 1.565239 1_555
O5 P1 1.565239 1_555
O6 P2 1.565239 1_555
O7 P3 1.565239 1_555
O8 P0 1.550156 1_555
O9 P1 1.550156 1_555
O10 P2 1.550156 1_555
O11 P3 1.550156 1_555
O12 P0 1.564191 1_555
O13 P1 1.564191 1_555
O14 P2 1.564191 1_555
O15 P3 1.564191 1_555
