# generated using pymatgen
data_DyInO3
_symmetry_space_group_name_H-M   'P 1'
_cell_length_a   5.52177700
_cell_length_b   5.86660700
_cell_length_c   8.19148600
_cell_angle_alpha   90.00000000
_cell_angle_beta   90.00000000
_cell_angle_gamma   90.00000000
_symmetry_Int_Tables_number   1
_chemical_formula_structural   DyInO3
_chemical_formula_sum   'Dy4 In4 O12'
_cell_volume   265.35578060
_cell_formula_units_Z   4
loop_
 _symmetry_equiv_pos_site_id
 _symmetry_equiv_pos_as_xyz
  1  'x, y, z'
loop_
 _atom_site_type_symbol
 _atom_site_label
 _atom_site_symmetry_multiplicity
 _atom_site_fract_x
 _atom_site_fract_y
 _atom_site_fract_z
 _atom_site_occupancy
  Dy  Dy0  1  0.02114900  0.93501500  0.75000000  1
  Dy  Dy1  1  0.47885100  0.43501500  0.75000000  1
  Dy  Dy2  1  0.52114900  0.56498500  0.25000000  1
  Dy  Dy3  1  0.97885100  0.06498500  0.25000000  1
  In  In0  1  0.00000000  0.50000000  0.00000000  1
  In  In1  1  0.00000000  0.50000000  0.50000000  1
  In  In2  1  0.50000000  0.00000000  0.00000000  1
  In  In3  1  0.50000000  0.00000000  0.50000000  1
  O  O0  1  0.14575200  0.42814500  0.25000000  1
  O  O1  1  0.18344400  0.18702200  0.57395000  1
  O  O2  1  0.18344400  0.18702200  0.92605000  1
  O  O3  1  0.31655600  0.68702200  0.57395000  1
  O  O4  1  0.31655600  0.68702200  0.92605000  1
  O  O5  1  0.35424800  0.92814500  0.25000000  1
  O  O6  1  0.64575200  0.07185500  0.75000000  1
  O  O7  1  0.68344400  0.31297800  0.07395000  1
  O  O8  1  0.68344400  0.31297800  0.42605000  1
  O  O9  1  0.81655600  0.81297800  0.07395000  1
  O  O10  1  0.81655600  0.81297800  0.42605000  1
  O  O11  1  0.85424800  0.57185500  0.75000000  1
loop_
_geom_bond_atom_site_label_1
_geom_bond_atom_site_label_2
_geom_bond_distance
_geom_bond_site_symmetry_2
Dy0 O6 2.222883 1_465
Dy0 O2 2.251338 1_565
Dy0 O1 2.251338 1_565
Dy0 O11 2.321299 1_455
Dy0 O4 2.618601 1_555
Dy0 O3 2.618601 1_555
Dy0 O9 2.971632 1_456
Dy0 O10 2.971632 1_455
Dy1 O11 2.222883 1_555
Dy1 O3 2.251338 1_555
Dy1 O4 2.251338 1_555
Dy1 O6 2.321299 1_555
Dy1 O1 2.618601 1_555
Dy1 O2 2.618601 1_555
Dy1 O7 2.971632 1_556
Dy1 O8 2.971632 1_555
Dy2 O0 2.222883 1_555
Dy2 O7 2.251338 1_555
Dy2 O8 2.251338 1_555
Dy2 O5 2.321299 1_555
Dy2 O10 2.618601 1_555
Dy2 O9 2.618601 1_555
Dy2 O3 2.971632 1_555
Dy2 O4 2.971632 1_554
Dy3 O5 2.222883 1_645
Dy3 O10 2.251338 1_545
Dy3 O9 2.251338 1_545
Dy3 O0 2.321299 1_655
Dy3 O7 2.618601 1_555
Dy3 O8 2.618601 1_555
Dy3 O2 2.971632 1_654
Dy3 O1 2.971632 1_655
In0 O7 2.150836 1_455
In0 O4 2.150836 1_554
In0 O2 2.182732 1_554
In0 O9 2.182732 1_455
In0 O11 2.240356 1_454
In0 O0 2.240356 1_555
In1 O8 2.150836 1_455
In1 O3 2.150836 1_555
In1 O1 2.182732 1_555
In1 O10 2.182732 1_455
In1 O11 2.240356 1_455
In1 O0 2.240356 1_555
In2 O2 2.150836 1_554
In2 O9 2.150836 1_545
In2 O4 2.182732 1_544
In2 O7 2.182732 1_555
In2 O5 2.240356 1_545
In2 O6 2.240356 1_554
In3 O1 2.150836 1_555
In3 O10 2.150836 1_545
In3 O3 2.182732 1_545
In3 O8 2.182732 1_555
In3 O6 2.240356 1_555
In3 O5 2.240356 1_545
