# generated using pymatgen
data_Ho5(In2Pd)2
_symmetry_space_group_name_H-M   'P 1'
_cell_length_a   3.61790000
_cell_length_b   8.11565700
_cell_length_c   18.24215100
_cell_angle_alpha   90.00000000
_cell_angle_beta   90.00000000
_cell_angle_gamma   90.00000000
_symmetry_Int_Tables_number   1
_chemical_formula_structural   Ho5(In2Pd)2
_chemical_formula_sum   'Ho10 In8 Pd4'
_cell_volume   535.61938767
_cell_formula_units_Z   2
loop_
 _symmetry_equiv_pos_site_id
 _symmetry_equiv_pos_as_xyz
  1  'x, y, z'
loop_
 _atom_site_type_symbol
 _atom_site_label
 _atom_site_symmetry_multiplicity
 _atom_site_fract_x
 _atom_site_fract_y
 _atom_site_fract_z
 _atom_site_occupancy
  Ho  Ho0  1  0.00000000  0.50000000  0.50000000  1
  Ho  Ho1  1  0.00000000  0.00000000  0.00000000  1
  Ho  Ho2  1  0.00000000  0.74014500  0.28004000  1
  Ho  Ho3  1  0.00000000  0.25985500  0.71996000  1
  Ho  Ho4  1  0.00000000  0.75985500  0.78004000  1
  Ho  Ho5  1  0.00000000  0.24014500  0.21996000  1
  Ho  Ho6  1  0.00000000  0.61304000  0.08212200  1
  Ho  Ho7  1  0.00000000  0.38696000  0.91787800  1
  Ho  Ho8  1  0.00000000  0.88696000  0.58212200  1
  Ho  Ho9  1  0.00000000  0.11304000  0.41787800  1
  In  In0  1  0.50000000  0.71276600  0.93090400  1
  In  In1  1  0.50000000  0.28723400  0.06909600  1
  In  In2  1  0.50000000  0.78723400  0.43090400  1
  In  In3  1  0.50000000  0.21276600  0.56909600  1
  In  In4  1  0.50000000  0.58110200  0.64895700  1
  In  In5  1  0.50000000  0.41889800  0.35104300  1
  In  In6  1  0.50000000  0.91889800  0.14895700  1
  In  In7  1  0.50000000  0.08110200  0.85104300  1
  Pd  Pd0  1  0.50000000  0.52479600  0.19620000  1
  Pd  Pd1  1  0.50000000  0.47520400  0.80380000  1
  Pd  Pd2  1  0.50000000  0.97520400  0.69620000  1
  Pd  Pd3  1  0.50000000  0.02479600  0.30380000  1
loop_
_geom_bond_atom_site_label_1
_geom_bond_atom_site_label_2
_geom_bond_distance
_geom_bond_site_symmetry_2
Ho0 In3 3.208590 1_455
Ho0 In3 3.208590 1_555
Ho0 In2 3.208590 1_455
Ho0 In2 3.208590 1_555
Ho0 In5 3.330048 1_455
Ho0 In4 3.330048 1_455
Ho0 In4 3.330048 1_555
Ho0 In5 3.330048 1_555
Ho1 In1 3.208590 1_455
Ho1 In1 3.208590 1_555
Ho1 In0 3.208590 1_444
Ho1 In0 3.208590 1_544
Ho1 In7 3.330048 1_554
Ho1 In6 3.330048 1_545
Ho1 In6 3.330048 1_445
Ho1 In7 3.330048 1_454
Ho2 Pd0 2.943787 1_455
Ho2 Pd0 2.943787 1_555
Ho2 Pd3 2.965951 1_465
Ho2 Pd3 2.965951 1_565
Ho2 In2 3.315465 1_455
Ho2 In2 3.315465 1_555
Ho2 In6 3.330891 1_555
Ho2 In6 3.330891 1_455
Ho2 In5 3.427404 1_555
Ho2 In5 3.427404 1_455
Ho3 Pd1 2.943787 1_455
Ho3 Pd1 2.943787 1_555
Ho3 Pd2 2.965951 1_445
Ho3 Pd2 2.965951 1_545
Ho3 In3 3.315465 1_555
Ho3 In3 3.315465 1_455
Ho3 In7 3.330891 1_455
Ho3 In7 3.330891 1_555
Ho3 In4 3.427404 1_455
Ho3 In4 3.427404 1_555
Ho4 Pd2 2.943787 1_455
Ho4 Pd2 2.943787 1_555
Ho4 Pd1 2.965951 1_455
Ho4 Pd1 2.965951 1_555
Ho4 In0 3.315465 1_455
Ho4 In0 3.315465 1_555
Ho4 In4 3.330891 1_455
Ho4 In4 3.330891 1_555
Ho4 In7 3.427404 1_465
Ho4 In7 3.427404 1_565
Ho5 Pd3 2.943787 1_455
Ho5 Pd3 2.943787 1_555
Ho5 Pd0 2.965951 1_455
Ho5 Pd0 2.965951 1_555
Ho5 In1 3.315465 1_555
Ho5 In1 3.315465 1_455
Ho5 In5 3.330891 1_455
Ho5 In5 3.330891 1_555
Ho5 In6 3.427404 1_545
Ho5 In6 3.427404 1_445
Ho6 Pd0 2.848835 1_555
Ho6 Pd0 2.848835 1_455
Ho6 In1 3.212505 1_455
Ho6 In1 3.212505 1_555
Ho6 In6 3.304586 1_455
Ho6 In6 3.304586 1_555
Ho6 In0 3.396599 1_554
Ho6 In0 3.396599 1_454
Ho7 Pd1 2.848835 1_455
Ho7 Pd1 2.848835 1_555
Ho7 In0 3.212505 1_455
Ho7 In0 3.212505 1_555
Ho7 In7 3.304586 1_455
Ho7 In7 3.304586 1_555
Ho7 In1 3.396599 1_556
Ho7 In1 3.396599 1_456
Ho8 Pd2 2.848835 1_455
Ho8 Pd2 2.848835 1_555
Ho8 In3 3.212505 1_465
Ho8 In3 3.212505 1_565
Ho8 In4 3.304586 1_555
Ho8 In4 3.304586 1_455
Ho8 In2 3.396599 1_455
Ho8 In2 3.396599 1_555
Ho9 Pd3 2.848835 1_555
Ho9 Pd3 2.848835 1_455
Ho9 In2 3.212505 1_445
Ho9 In2 3.212505 1_545
Ho9 In5 3.304586 1_555
Ho9 In5 3.304586 1_455
Ho9 In3 3.396599 1_555
Ho9 In3 3.396599 1_455
In0 Pd1 3.015496 1_555
In0 In7 3.325390 1_565
In1 Pd0 3.015496 1_555
In1 In6 3.325390 1_545
In2 Pd3 3.015496 1_565
In2 In5 3.325390 1_555
In3 Pd2 3.015496 1_545
In3 In4 3.325390 1_555
In4 Pd1 2.952521 1_555
In4 Pd2 3.312471 1_555
In5 Pd0 2.952521 1_555
In5 Pd3 3.312471 1_555
In6 Pd3 2.952521 1_565
In6 Pd0 3.312471 1_555
In7 Pd2 2.952521 1_545
In7 Pd1 3.312471 1_555
