# generated using pymatgen
data_K3Zr2NF12
_symmetry_space_group_name_H-M   'P 1'
_cell_length_a   7.65422033
_cell_length_b   7.65422033
_cell_length_c   13.07385243
_cell_angle_alpha   66.33943790
_cell_angle_beta   66.33943790
_cell_angle_gamma   64.79804341
_symmetry_Int_Tables_number   1
_chemical_formula_structural   K3Zr2NF12
_chemical_formula_sum   'K6 Zr4 N2 F24'
_cell_volume   609.75944341
_cell_formula_units_Z   2
loop_
 _symmetry_equiv_pos_site_id
 _symmetry_equiv_pos_as_xyz
  1  'x, y, z'
loop_
 _atom_site_type_symbol
 _atom_site_label
 _atom_site_symmetry_multiplicity
 _atom_site_fract_x
 _atom_site_fract_y
 _atom_site_fract_z
 _atom_site_occupancy
  K  K0  1  0.35166100  0.35166100  0.33825800  1
  K  K1  1  0.64833900  0.64833900  0.66174200  1
  K  K2  1  0.67979600  0.67979600  0.18916200  1
  K  K3  1  0.32020400  0.32020400  0.81083800  1
  K  K4  1  0.15514700  0.15514700  0.64494100  1
  K  K5  1  0.84485300  0.84485300  0.35505900  1
  Zr  Zr0  1  0.75599200  0.24400800  0.50000000  1
  Zr  Zr1  1  0.24400800  0.75599200  0.50000000  1
  Zr  Zr2  1  0.28925200  0.71074800  0.00000000  1
  Zr  Zr3  1  0.71074800  0.28925200  0.00000000  1
  N  N0  1  0.87168500  0.87168500  0.84887800  1
  N  N1  1  0.12831500  0.12831500  0.15112200  1
  F  F0  1  0.63571400  0.01752600  0.55568500  1
  F  F1  1  0.36428600  0.98247400  0.44431500  1
  F  F2  1  0.98247400  0.36428600  0.44431500  1
  F  F3  1  0.01752600  0.63571400  0.55568500  1
  F  F4  1  0.29287400  0.67920300  0.65774900  1
  F  F5  1  0.70712600  0.32079700  0.34225100  1
  F  F6  1  0.32079700  0.70712600  0.34225100  1
  F  F7  1  0.67920300  0.29287400  0.65774900  1
  F  F8  1  0.87016900  0.87016900  0.95356000  1
  F  F9  1  0.12983100  0.12983100  0.04644000  1
  F  F10  1  0.20805100  0.55754300  0.94378000  1
  F  F11  1  0.79194900  0.44245700  0.05622000  1
  F  F12  1  0.44245700  0.79194900  0.05622000  1
  F  F13  1  0.55754300  0.20805100  0.94378000  1
  F  F14  1  0.98267200  0.98267200  0.59643000  1
  F  F15  1  0.01732800  0.01732800  0.40357000  1
  F  F16  1  0.58207700  0.58207700  0.89253100  1
  F  F17  1  0.41792300  0.41792300  0.10746900  1
  F  F18  1  0.39326700  0.39326700  0.54521500  1
  F  F19  1  0.60673300  0.60673300  0.45478500  1
  F  F20  1  0.27285400  0.94586500  0.85869900  1
  F  F21  1  0.72714600  0.05413500  0.14130100  1
  F  F22  1  0.05413500  0.72714600  0.14130100  1
  F  F23  1  0.94586500  0.27285400  0.85869900  1
loop_
_geom_bond_atom_site_label_1
_geom_bond_atom_site_label_2
_geom_bond_distance
_geom_bond_site_symmetry_2
K4 N0 3.353591 1_445
K5 N1 3.353591 1_665
F0 Zr0 2.047188 1_555
F0 K1 2.578249 1_545
F0 K5 2.966453 1_545
F0 K4 3.200517 1_555
F1 Zr1 2.047188 1_555
F1 K0 2.578249 1_565
F1 K4 2.966453 1_565
F1 K5 3.200517 1_555
F2 Zr0 2.047188 1_555
F2 K0 2.578249 1_655
F2 K4 2.966453 1_655
F2 K5 3.200517 1_555
F3 Zr1 2.047188 1_555
F3 K1 2.578249 1_455
F3 K5 2.966453 1_455
F3 K4 3.200517 1_555
F4 Zr1 2.048850 1_555
F4 K1 2.649159 1_555
F4 K3 2.651900 1_555
F4 K4 3.285143 1_565
F5 Zr0 2.048850 1_555
F5 K0 2.649159 1_555
F5 K2 2.651900 1_555
F5 K5 3.285143 1_545
F6 Zr1 2.048850 1_555
F6 K0 2.649159 1_555
F6 K2 2.651900 1_555
F6 K5 3.285143 1_455
F7 Zr0 2.048850 1_555
F7 K1 2.649159 1_555
F7 K3 2.651900 1_555
F7 K4 3.285143 1_655
F8 N0 1.359393 1_555
F8 K2 2.887491 1_556
F9 N1 1.359393 1_555
F9 K3 2.887491 1_554
F10 Zr2 1.995210 1_556
F10 K3 2.658312 1_555
F11 Zr3 1.995210 1_555
F11 K2 2.658312 1_555
F12 Zr2 1.995210 1_555
F12 K2 2.658312 1_555
F13 Zr3 1.995210 1_556
F13 K3 2.658312 1_555
F14 Zr0 2.318835 1_565
F14 Zr1 2.318835 1_655
F14 K4 2.591560 1_665
F15 Zr0 2.318835 1_455
F15 Zr1 2.318835 1_545
F15 K5 2.591560 1_445
F16 Zr3 2.161220 1_556
F16 Zr2 2.161220 1_556
F16 K1 2.716810 1_555
F17 Zr3 2.161220 1_555
F17 Zr2 2.161220 1_555
F17 K0 2.716810 1_555
F18 Zr0 2.426197 1_555
F18 Zr1 2.426197 1_555
F18 K4 2.712598 1_555
F18 K0 2.998894 1_555
F18 K3 3.135926 1_555
F19 Zr0 2.426197 1_555
F19 Zr1 2.426197 1_555
F19 K5 2.712598 1_555
F19 K1 2.998894 1_555
F19 K2 3.135926 1_555
F20 Zr2 1.998119 1_556
F20 K3 2.827719 1_565
F20 K4 2.895937 1_565
F21 Zr3 1.998119 1_555
F21 K2 2.827719 1_545
F21 K5 2.895937 1_545
F22 Zr2 1.998119 1_555
F22 K2 2.827719 1_455
F22 K5 2.895937 1_455
F23 Zr3 1.998119 1_556
F23 K3 2.827719 1_655
F23 K4 2.895937 1_655
