# generated using pymatgen
data_MgSn
_symmetry_space_group_name_H-M   'P 1'
_cell_length_a   17.14288942
_cell_length_b   17.14288942
_cell_length_c   10.55133200
_cell_angle_alpha   90.00000000
_cell_angle_beta   90.00000000
_cell_angle_gamma   157.62383586
_symmetry_Int_Tables_number   1
_chemical_formula_structural   MgSn
_chemical_formula_sum   'Mg24 Sn24'
_cell_volume   1180.43457353
_cell_formula_units_Z   24
loop_
 _symmetry_equiv_pos_site_id
 _symmetry_equiv_pos_as_xyz
  1  'x, y, z'
loop_
 _atom_site_type_symbol
 _atom_site_label
 _atom_site_symmetry_multiplicity
 _atom_site_fract_x
 _atom_site_fract_y
 _atom_site_fract_z
 _atom_site_occupancy
  Mg  Mg0_0  1  0.16628600  0.33371400  0.00000000  1
  Mg  Mg0_1  1  0.16628600  0.33371400  0.50000000  1
  Mg  Mg0_2  1  0.16628600  0.83371400  0.00000000  1
  Mg  Mg0_3  1  0.16628600  0.83371400  0.50000000  1
  Mg  Mg0_4  1  0.66628600  0.33371400  0.00000000  1
  Mg  Mg0_5  1  0.66628600  0.33371400  0.50000000  1
  Mg  Mg0_6  1  0.66628600  0.83371400  0.00000000  1
  Mg  Mg0_7  1  0.66628600  0.83371400  0.50000000  1
  Mg  Mg1_0  1  0.05566000  0.44434000  0.25000000  1
  Mg  Mg1_1  1  0.05566000  0.44434000  0.75000000  1
  Mg  Mg1_2  1  0.05566000  0.94434000  0.25000000  1
  Mg  Mg1_3  1  0.05566000  0.94434000  0.75000000  1
  Mg  Mg1_4  1  0.55566000  0.44434000  0.25000000  1
  Mg  Mg1_5  1  0.55566000  0.44434000  0.75000000  1
  Mg  Mg1_6  1  0.55566000  0.94434000  0.25000000  1
  Mg  Mg1_7  1  0.55566000  0.94434000  0.75000000  1
  Mg  Mg2_0  1  0.22276900  0.27723100  0.25000000  1
  Mg  Mg2_1  1  0.22276900  0.27723100  0.75000000  1
  Mg  Mg2_2  1  0.22276900  0.77723100  0.25000000  1
  Mg  Mg2_3  1  0.22276900  0.77723100  0.75000000  1
  Mg  Mg2_4  1  0.72276900  0.27723100  0.25000000  1
  Mg  Mg2_5  1  0.72276900  0.27723100  0.75000000  1
  Mg  Mg2_6  1  0.72276900  0.77723100  0.25000000  1
  Mg  Mg2_7  1  0.72276900  0.77723100  0.75000000  1
  Sn  Sn0_0  1  0.49693000  0.00307000  0.00000000  1
  Sn  Sn0_1  1  0.49693000  0.00307000  0.50000000  1
  Sn  Sn0_2  1  0.49693000  0.50307000  0.00000000  1
  Sn  Sn0_3  1  0.49693000  0.50307000  0.50000000  1
  Sn  Sn0_4  1  0.99693000  0.00307000  0.00000000  1
  Sn  Sn0_5  1  0.99693000  0.00307000  0.50000000  1
  Sn  Sn0_6  1  0.99693000  0.50307000  0.00000000  1
  Sn  Sn0_7  1  0.99693000  0.50307000  0.50000000  1
  Sn  Sn1_0  1  0.33391700  0.16608300  0.00000000  1
  Sn  Sn1_1  1  0.33391700  0.16608300  0.50000000  1
  Sn  Sn1_2  1  0.33391700  0.66608300  0.00000000  1
  Sn  Sn1_3  1  0.33391700  0.66608300  0.50000000  1
  Sn  Sn1_4  1  0.83391700  0.16608300  0.00000000  1
  Sn  Sn1_5  1  0.83391700  0.16608300  0.50000000  1
  Sn  Sn1_6  1  0.83391700  0.66608300  0.00000000  1
  Sn  Sn1_7  1  0.83391700  0.66608300  0.50000000  1
  Sn  Sn2_0  1  0.39110450  0.10889550  0.25000000  1
  Sn  Sn2_1  1  0.39110450  0.10889550  0.75000000  1
  Sn  Sn2_2  1  0.39110450  0.60889550  0.25000000  1
  Sn  Sn2_3  1  0.39110450  0.60889550  0.75000000  1
  Sn  Sn2_4  1  0.89110450  0.10889550  0.25000000  1
  Sn  Sn2_5  1  0.89110450  0.10889550  0.75000000  1
  Sn  Sn2_6  1  0.89110450  0.60889550  0.25000000  1
  Sn  Sn2_7  1  0.89110450  0.60889550  0.75000000  1
loop_
_geom_bond_atom_site_label_1
_geom_bond_atom_site_label_2
_geom_bond_distance
_geom_bond_site_symmetry_2
Mg0_0 Sn0_4 3.181676 1_455
Mg0_0 Sn0_2 3.181676 1_555
Mg0_0 Sn1_2 3.231280 1_555
Mg0_0 Sn1_4 3.231280 1_455
Mg0_0 Sn2_2 3.231327 1_555
Mg0_0 Sn2_3 3.231327 1_554
Mg0_0 Sn2_5 3.231327 1_454
Mg0_0 Sn2_4 3.231327 1_455
Mg0_0 Mg2_0 3.250731 1_555
Mg0_0 Mg2_1 3.250731 1_554
Mg0_0 Mg0_6 3.326240 1_445
Mg0_0 Mg0_6 3.326240 1_555
Mg0_1 Sn0_5 3.181676 1_455
Mg0_1 Sn0_3 3.181676 1_555
Mg0_1 Sn1_3 3.231280 1_555
Mg0_1 Sn1_5 3.231280 1_455
Mg0_1 Sn2_2 3.231327 1_555
Mg0_1 Sn2_3 3.231327 1_555
Mg0_1 Sn2_4 3.231327 1_455
Mg0_1 Sn2_5 3.231327 1_455
Mg0_1 Mg2_0 3.250731 1_555
Mg0_1 Mg2_1 3.250731 1_555
Mg0_1 Mg0_7 3.326240 1_555
Mg0_1 Mg0_7 3.326240 1_445
Mg0_2 Sn0_6 3.181676 1_455
Mg0_2 Sn0_0 3.181676 1_565
Mg0_2 Sn1_0 3.231280 1_565
Mg0_2 Sn1_6 3.231280 1_455
Mg0_2 Sn2_0 3.231327 1_565
Mg0_2 Sn2_1 3.231327 1_564
Mg0_2 Sn2_7 3.231327 1_454
Mg0_2 Sn2_6 3.231327 1_455
Mg0_2 Mg2_3 3.250731 1_554
Mg0_2 Mg2_2 3.250731 1_555
Mg0_2 Mg0_4 3.326240 1_455
Mg0_2 Mg0_4 3.326240 1_565
Mg0_3 Sn0_7 3.181676 1_455
Mg0_3 Sn0_1 3.181676 1_565
Mg0_3 Sn1_1 3.231280 1_565
Mg0_3 Sn1_7 3.231280 1_455
Mg0_3 Sn2_0 3.231327 1_565
Mg0_3 Sn2_1 3.231327 1_565
Mg0_3 Sn2_7 3.231327 1_455
Mg0_3 Sn2_6 3.231327 1_455
Mg0_3 Mg2_3 3.250731 1_555
Mg0_3 Mg2_2 3.250731 1_555
Mg0_3 Mg0_5 3.326240 1_455
Mg0_3 Mg0_5 3.326240 1_565
Mg0_4 Sn0_6 3.181676 1_555
Mg0_4 Sn0_0 3.181676 1_555
Mg0_4 Sn1_6 3.231280 1_555
Mg0_4 Sn1_0 3.231280 1_555
Mg0_4 Sn2_7 3.231327 1_554
Mg0_4 Sn2_6 3.231327 1_555
Mg0_4 Sn2_0 3.231327 1_555
Mg0_4 Sn2_1 3.231327 1_554
Mg0_4 Mg2_5 3.250731 1_554
Mg0_4 Mg2_4 3.250731 1_555
Mg0_5 Sn0_7 3.181676 1_555
Mg0_5 Sn0_1 3.181676 1_555
Mg0_5 Sn1_7 3.231280 1_555
Mg0_5 Sn1_1 3.231280 1_555
Mg0_5 Sn2_7 3.231327 1_555
Mg0_5 Sn2_6 3.231327 1_555
Mg0_5 Sn2_0 3.231327 1_555
Mg0_5 Sn2_1 3.231327 1_555
Mg0_5 Mg2_5 3.250731 1_555
Mg0_5 Mg2_4 3.250731 1_555
Mg0_6 Sn0_2 3.181676 1_555
Mg0_6 Sn0_4 3.181676 1_565
Mg0_6 Sn1_4 3.231280 1_565
Mg0_6 Sn1_2 3.231280 1_555
Mg0_6 Sn2_5 3.231327 1_564
Mg0_6 Sn2_4 3.231327 1_565
Mg0_6 Sn2_2 3.231327 1_555
Mg0_6 Sn2_3 3.231327 1_554
Mg0_6 Mg2_7 3.250731 1_554
Mg0_6 Mg2_6 3.250731 1_555
Mg0_7 Sn0_3 3.181676 1_555
Mg0_7 Sn0_5 3.181676 1_565
Mg0_7 Sn1_5 3.231280 1_565
Mg0_7 Sn1_3 3.231280 1_555
Mg0_7 Sn2_4 3.231327 1_565
Mg0_7 Sn2_5 3.231327 1_565
Mg0_7 Sn2_2 3.231327 1_555
Mg0_7 Sn2_3 3.231327 1_555
Mg0_7 Mg2_7 3.250731 1_555
Mg0_7 Mg2_6 3.250731 1_555
Mg1_0 Mg2_2 3.246345 1_555
Mg1_0 Mg2_4 3.246345 1_455
Mg1_0 Sn1_3 3.259968 1_555
Mg1_0 Sn1_2 3.259968 1_555
Mg1_0 Sn1_4 3.259968 1_455
Mg1_0 Sn1_5 3.259968 1_455
Mg1_0 Sn0_6 3.295469 1_455
Mg1_0 Sn0_7 3.295469 1_455
Mg1_0 Sn2_2 3.320395 1_555
Mg1_0 Sn2_4 3.320395 1_455
Mg1_0 Mg1_6 3.326240 1_555
Mg1_0 Mg1_6 3.326240 1_445
Mg1_1 Mg2_5 3.246345 1_455
Mg1_1 Mg2_3 3.246345 1_555
Mg1_1 Sn1_2 3.259968 1_556
Mg1_1 Sn1_3 3.259968 1_555
Mg1_1 Sn1_4 3.259968 1_456
Mg1_1 Sn1_5 3.259968 1_455
Mg1_1 Sn0_6 3.295469 1_456
Mg1_1 Sn0_7 3.295469 1_455
Mg1_1 Sn2_3 3.320395 1_555
Mg1_1 Sn2_5 3.320395 1_455
Mg1_1 Mg1_7 3.326240 1_445
Mg1_1 Mg1_7 3.326240 1_555
Mg1_2 Mg2_0 3.246345 1_565
Mg1_2 Mg2_6 3.246345 1_455
Mg1_2 Sn1_0 3.259968 1_565
Mg1_2 Sn1_1 3.259968 1_565
Mg1_2 Sn1_6 3.259968 1_455
Mg1_2 Sn1_7 3.259968 1_455
Mg1_2 Sn0_5 3.295469 1_465
Mg1_2 Sn0_4 3.295469 1_465
Mg1_2 Sn2_0 3.320395 1_565
Mg1_2 Sn2_6 3.320395 1_455
Mg1_2 Mg1_4 3.326240 1_565
Mg1_2 Mg1_4 3.326240 1_455
Mg1_3 Mg2_1 3.246345 1_565
Mg1_3 Mg2_7 3.246345 1_455
Mg1_3 Sn1_0 3.259968 1_566
Mg1_3 Sn1_1 3.259968 1_565
Mg1_3 Sn1_6 3.259968 1_456
Mg1_3 Sn1_7 3.259968 1_455
Mg1_3 Sn0_5 3.295469 1_465
Mg1_3 Sn0_4 3.295469 1_466
Mg1_3 Sn2_1 3.320395 1_565
Mg1_3 Sn2_7 3.320395 1_455
Mg1_3 Mg1_5 3.326240 1_455
Mg1_3 Mg1_5 3.326240 1_565
Mg1_4 Mg2_6 3.246345 1_555
Mg1_4 Mg2_0 3.246345 1_555
Mg1_4 Sn1_6 3.259968 1_555
Mg1_4 Sn1_7 3.259968 1_555
Mg1_4 Sn1_1 3.259968 1_555
Mg1_4 Sn1_0 3.259968 1_555
Mg1_4 Sn0_2 3.295469 1_555
Mg1_4 Sn0_3 3.295469 1_555
Mg1_4 Sn2_6 3.320395 1_555
Mg1_4 Sn2_0 3.320395 1_555
Mg1_5 Mg2_7 3.246345 1_555
Mg1_5 Mg2_1 3.246345 1_555
Mg1_5 Sn1_6 3.259968 1_556
Mg1_5 Sn1_7 3.259968 1_555
Mg1_5 Sn1_1 3.259968 1_555
Mg1_5 Sn1_0 3.259968 1_556
Mg1_5 Sn0_2 3.295469 1_556
Mg1_5 Sn0_3 3.295469 1_555
Mg1_5 Sn2_7 3.320395 1_555
Mg1_5 Sn2_1 3.320395 1_555
Mg1_6 Mg2_4 3.246345 1_565
Mg1_6 Mg2_2 3.246345 1_555
Mg1_6 Sn1_4 3.259968 1_565
Mg1_6 Sn1_5 3.259968 1_565
Mg1_6 Sn1_2 3.259968 1_555
Mg1_6 Sn1_3 3.259968 1_555
Mg1_6 Sn0_0 3.295469 1_565
Mg1_6 Sn0_1 3.295469 1_565
Mg1_6 Sn2_4 3.320395 1_565
Mg1_6 Sn2_2 3.320395 1_555
Mg1_7 Mg2_5 3.246345 1_565
Mg1_7 Mg2_3 3.246345 1_555
Mg1_7 Sn1_4 3.259968 1_566
Mg1_7 Sn1_5 3.259968 1_565
Mg1_7 Sn1_2 3.259968 1_556
Mg1_7 Sn1_3 3.259968 1_555
Mg1_7 Sn0_1 3.295469 1_565
Mg1_7 Sn0_0 3.295469 1_566
Mg1_7 Sn2_5 3.320395 1_565
Mg1_7 Sn2_3 3.320395 1_555
Mg2_0 Sn2_2 3.210987 1_555
Mg2_0 Sn2_4 3.210987 1_455
Mg2_0 Sn0_4 3.222500 1_455
Mg2_0 Sn0_5 3.222500 1_455
Mg2_0 Sn0_2 3.222500 1_555
Mg2_0 Sn0_3 3.222500 1_555
Mg2_0 Mg2_6 3.326240 1_555
Mg2_0 Mg2_6 3.326240 1_445
Mg2_1 Sn2_3 3.210987 1_555
Mg2_1 Sn2_5 3.210987 1_455
Mg2_1 Sn0_4 3.222500 1_456
Mg2_1 Sn0_5 3.222500 1_455
Mg2_1 Sn0_3 3.222500 1_555
Mg2_1 Sn0_2 3.222500 1_556
Mg2_1 Mg2_7 3.326240 1_445
Mg2_1 Mg2_7 3.326240 1_555
Mg2_2 Sn2_0 3.210987 1_565
Mg2_2 Sn2_6 3.210987 1_455
Mg2_2 Sn0_7 3.222500 1_455
Mg2_2 Sn0_0 3.222500 1_565
Mg2_2 Sn0_1 3.222500 1_565
Mg2_2 Sn0_6 3.222500 1_455
Mg2_2 Mg2_4 3.326240 1_565
Mg2_2 Mg2_4 3.326240 1_455
Mg2_3 Sn2_1 3.210987 1_565
Mg2_3 Sn2_7 3.210987 1_455
Mg2_3 Sn0_7 3.222500 1_455
Mg2_3 Sn0_1 3.222500 1_565
Mg2_3 Sn0_6 3.222500 1_456
Mg2_3 Sn0_0 3.222500 1_566
Mg2_3 Mg2_5 3.326240 1_455
Mg2_3 Mg2_5 3.326240 1_565
Mg2_4 Sn2_6 3.210987 1_555
Mg2_4 Sn2_0 3.210987 1_555
Mg2_4 Sn0_7 3.222500 1_555
Mg2_4 Sn0_6 3.222500 1_555
Mg2_4 Sn0_0 3.222500 1_555
Mg2_4 Sn0_1 3.222500 1_555
Mg2_5 Sn2_7 3.210987 1_555
Mg2_5 Sn2_1 3.210987 1_555
Mg2_5 Sn0_7 3.222500 1_555
Mg2_5 Sn0_6 3.222500 1_556
Mg2_5 Sn0_0 3.222500 1_556
Mg2_5 Sn0_1 3.222500 1_555
Mg2_6 Sn2_4 3.210987 1_565
Mg2_6 Sn2_2 3.210987 1_555
Mg2_6 Sn0_2 3.222500 1_555
Mg2_6 Sn0_3 3.222500 1_555
Mg2_6 Sn0_4 3.222500 1_565
Mg2_6 Sn0_5 3.222500 1_565
Mg2_7 Sn2_5 3.210987 1_565
Mg2_7 Sn2_3 3.210987 1_555
Mg2_7 Sn0_3 3.222500 1_555
Mg2_7 Sn0_2 3.222500 1_556
Mg2_7 Sn0_5 3.222500 1_565
Mg2_7 Sn0_4 3.222500 1_566
Sn0_0 Sn0_6 3.326240 1_555
Sn0_0 Sn0_6 3.326240 1_445
Sn0_0 Sn1_4 3.365399 1_555
Sn0_0 Sn1_2 3.365399 1_545
Sn0_1 Sn0_7 3.326240 1_555
Sn0_1 Sn0_7 3.326240 1_445
Sn0_1 Sn1_5 3.365399 1_555
Sn0_1 Sn1_3 3.365399 1_545
Sn0_2 Sn0_4 3.326240 1_565
Sn0_2 Sn0_4 3.326240 1_455
Sn0_2 Sn1_6 3.365399 1_555
Sn0_2 Sn1_0 3.365399 1_555
Sn0_3 Sn0_5 3.326240 1_565
Sn0_3 Sn0_5 3.326240 1_455
Sn0_3 Sn1_7 3.365399 1_555
Sn0_3 Sn1_1 3.365399 1_555
Sn0_4 Sn1_0 3.365399 1_655
Sn0_4 Sn1_6 3.365399 1_545
Sn0_5 Sn1_1 3.365399 1_655
Sn0_5 Sn1_7 3.365399 1_545
Sn0_6 Sn1_2 3.365399 1_655
Sn0_6 Sn1_4 3.365399 1_555
Sn0_7 Sn1_3 3.365399 1_655
Sn0_7 Sn1_5 3.365399 1_555
Sn1_0 Sn2_0 3.264635 1_555
Sn1_0 Sn2_1 3.264635 1_554
Sn1_0 Sn1_6 3.326240 1_555
Sn1_0 Sn1_6 3.326240 1_445
Sn1_1 Sn2_0 3.264635 1_555
Sn1_1 Sn2_1 3.264635 1_555
Sn1_1 Sn1_7 3.326240 1_555
Sn1_1 Sn1_7 3.326240 1_445
Sn1_2 Sn2_3 3.264635 1_554
Sn1_2 Sn2_2 3.264635 1_555
Sn1_2 Sn1_4 3.326240 1_565
Sn1_2 Sn1_4 3.326240 1_455
Sn1_3 Sn2_2 3.264635 1_555
Sn1_3 Sn2_3 3.264635 1_555
Sn1_3 Sn1_5 3.326240 1_565
Sn1_3 Sn1_5 3.326240 1_455
Sn1_4 Sn2_5 3.264635 1_554
Sn1_4 Sn2_4 3.264635 1_555
Sn1_5 Sn2_5 3.264635 1_555
Sn1_5 Sn2_4 3.264635 1_555
Sn1_6 Sn2_7 3.264635 1_554
Sn1_6 Sn2_6 3.264635 1_555
Sn1_7 Sn2_6 3.264635 1_555
Sn1_7 Sn2_7 3.264635 1_555
Sn2_0 Sn2_6 3.326240 1_555
Sn2_0 Sn2_6 3.326240 1_445
Sn2_1 Sn2_7 3.326240 1_555
Sn2_1 Sn2_7 3.326240 1_445
Sn2_2 Sn2_4 3.326240 1_565
Sn2_2 Sn2_4 3.326240 1_455
Sn2_3 Sn2_5 3.326240 1_565
Sn2_3 Sn2_5 3.326240 1_455
