# generated using pymatgen
data_NiP2N2(O6F)2
_symmetry_space_group_name_H-M   'P 1'
_cell_length_a   13.45687900
_cell_length_b   5.99757700
_cell_length_c   7.23261380
_cell_angle_alpha   86.16553097
_cell_angle_beta   90.00000000
_cell_angle_gamma   90.00000000
_symmetry_Int_Tables_number   1
_chemical_formula_structural   NiP2N2(O6F)2
_chemical_formula_sum   'Ni2 P4 N4 O24 F4'
_cell_volume   582.42788793
_cell_formula_units_Z   2
loop_
 _symmetry_equiv_pos_site_id
 _symmetry_equiv_pos_as_xyz
  1  'x, y, z'
loop_
 _atom_site_type_symbol
 _atom_site_label
 _atom_site_symmetry_multiplicity
 _atom_site_fract_x
 _atom_site_fract_y
 _atom_site_fract_z
 _atom_site_occupancy
  Ni  Ni0  1  0.00000000  0.00000000  0.00000000  1
  Ni  Ni1  1  0.50000000  0.00000000  0.50000000  1
  P  P0  1  0.12519200  0.75553800  0.60076500  1
  P  P1  1  0.62519200  0.24446200  0.89923500  1
  P  P2  1  0.87480800  0.24446200  0.39923500  1
  P  P3  1  0.37480800  0.75553800  0.10076500  1
  N  N0  1  0.17443400  0.40908900  0.40986100  1
  N  N1  1  0.67443400  0.59091100  0.09013900  1
  N  N2  1  0.82556600  0.59091100  0.59013900  1
  N  N3  1  0.32556600  0.40908900  0.90986100  1
  O  O0  1  0.04697400  0.65466500  0.75191900  1
  O  O1  1  0.54697400  0.34533500  0.74808100  1
  O  O2  1  0.95302600  0.34533500  0.24808100  1
  O  O3  1  0.45302600  0.65466500  0.25191900  1
  O  O4  1  0.18941600  0.94237300  0.63851700  1
  O  O5  1  0.68941600  0.05762700  0.86148300  1
  O  O6  1  0.81058400  0.05762700  0.36148300  1
  O  O7  1  0.31058400  0.94237300  0.13851700  1
  O  O8  1  0.19375100  0.53427900  0.54575200  1
  O  O9  1  0.69375100  0.46572100  0.95424800  1
  O  O10  1  0.80624900  0.46572100  0.45424800  1
  O  O11  1  0.30624900  0.53427900  0.04575200  1
  O  O12  1  0.07118800  0.72283600  0.93546200  1
  O  O13  1  0.57118800  0.27716400  0.56453800  1
  O  O14  1  0.92881200  0.27716400  0.06453800  1
  O  O15  1  0.42881200  0.72283600  0.43546200  1
  O  O16  1  0.12277400  0.11952500  0.07965200  1
  O  O17  1  0.62277400  0.88047500  0.42034800  1
  O  O18  1  0.87722600  0.88047500  0.92034800  1
  O  O19  1  0.37722600  0.11952500  0.57965200  1
  O  O20  1  0.88988300  0.81326300  0.09277100  1
  O  O21  1  0.38988300  0.18673700  0.40722900  1
  O  O22  1  0.11011700  0.18673700  0.90722900  1
  O  O23  1  0.61011700  0.81326300  0.59277100  1
  F  F0  1  0.05546700  0.78097100  0.42725900  1
  F  F1  1  0.55546700  0.21902900  0.07274100  1
  F  F2  1  0.94453300  0.21902900  0.57274100  1
  F  F3  1  0.44453300  0.78097100  0.92725900  1
loop_
_geom_bond_atom_site_label_1
_geom_bond_atom_site_label_2
_geom_bond_distance
_geom_bond_site_symmetry_2
Ni0 O16 1.905419 1_555
Ni0 O18 1.905419 1_444
Ni0 O22 1.949322 1_554
Ni0 O20 1.949322 1_445
Ni0 O12 2.000662 1_544
Ni0 O14 2.000662 1_455
Ni1 O19 1.905419 1_555
Ni1 O17 1.905419 1_545
Ni1 O21 1.949322 1_555
Ni1 O23 1.949322 1_545
Ni1 O15 2.000662 1_545
Ni1 O13 2.000662 1_555
N0 O8 1.302312 1_555
N1 O9 1.302312 1_554
N2 O10 1.302312 1_555
N3 O11 1.302312 1_556
O0 O12 1.451957 1_555
O0 P0 1.606434 1_555
O1 O13 1.451957 1_555
O1 P1 1.606434 1_555
O2 P2 1.606434 1_555
O3 P3 1.606434 1_555
O4 P0 1.455356 1_555
O5 P1 1.455356 1_555
O6 P2 1.455356 1_555
O7 P3 1.455356 1_555
O8 P0 1.685551 1_555
O9 P1 1.685551 1_555
O10 P2 1.685551 1_555
O11 P3 1.685551 1_555
O14 O2 1.451957 1_555
O15 O3 1.451957 1_555
O16 O22 1.295937 1_554
O17 O23 1.295937 1_555
O18 O20 1.295937 1_556
O19 O21 1.295937 1_555
F0 P0 1.566147 1_555
F1 P1 1.566147 1_554
F2 P2 1.566147 1_555
F3 P3 1.566147 1_556
