# generated using pymatgen
data_Fe2As2H2PbO10
_symmetry_space_group_name_H-M   'P 1'
_cell_length_a   5.59739657
_cell_length_b   5.59739657
_cell_length_c   7.73307347
_cell_angle_alpha   70.18668588
_cell_angle_beta   70.18668588
_cell_angle_gamma   68.75536100
_symmetry_Int_Tables_number   1
_chemical_formula_structural   Fe2As2H2PbO10
_chemical_formula_sum   'Fe2 As2 H2 Pb1 O10'
_cell_volume   205.89570376
_cell_formula_units_Z   1
loop_
 _symmetry_equiv_pos_site_id
 _symmetry_equiv_pos_as_xyz
  1  'x, y, z'
loop_
 _atom_site_type_symbol
 _atom_site_label
 _atom_site_symmetry_multiplicity
 _atom_site_fract_x
 _atom_site_fract_y
 _atom_site_fract_z
 _atom_site_occupancy
  Fe  Fe0  1  0.50000000  0.00000000  0.50000000  1
  Fe  Fe1  1  0.00000000  0.50000000  0.50000000  1
  As  As0  1  0.58142900  0.58142900  0.21437600  1
  As  As1  1  0.41857100  0.41857100  0.78562400  1
  H  H0  1  0.79468800  0.79468800  0.73168700  1
  H  H1  1  0.20531200  0.20531200  0.26831300  1
  Pb  Pb0  1  0.00000000  0.00000000  0.00000000  1
  O  O0  1  0.68895000  0.68895000  0.35961100  1
  O  O1  1  0.31105000  0.31105000  0.64038900  1
  O  O2  1  0.82479800  0.82479800  0.59343400  1
  O  O3  1  0.17520200  0.17520200  0.40656600  1
  O  O4  1  0.68842500  0.23951400  0.26728400  1
  O  O5  1  0.31157500  0.76048600  0.73271600  1
  O  O6  1  0.76048600  0.31157500  0.73271600  1
  O  O7  1  0.23951400  0.68842500  0.26728400  1
  O  O8  1  0.27892700  0.27892700  0.01053700  1
  O  O9  1  0.72107300  0.72107300  0.98946300  1
loop_
_geom_bond_atom_site_label_1
_geom_bond_atom_site_label_2
_geom_bond_distance
_geom_bond_site_symmetry_2
Fe0 O2 1.976630 1_545
Fe0 O3 1.976630 1_555
Fe0 O5 2.061737 1_545
Fe0 O4 2.061737 1_555
Fe0 O1 2.120622 1_555
Fe0 O0 2.120622 1_545
Fe1 O2 1.976630 1_455
Fe1 O3 1.976630 1_555
Fe1 O6 2.061737 1_455
Fe1 O7 2.061737 1_555
Fe1 O1 2.120622 1_555
Fe1 O0 2.120622 1_455
As0 O9 1.687165 1_554
As0 O4 1.730166 1_555
As0 O7 1.730166 1_555
As0 O0 1.778971 1_555
As1 O8 1.687165 1_556
As1 O6 1.730166 1_555
As1 O5 1.730166 1_555
As1 O1 1.778971 1_555
H0 O2 0.987984 1_555
H1 O3 0.987984 1_555
O4 Pb0 2.617536 1_655
O5 Pb0 2.617536 1_566
O6 Pb0 2.617536 1_656
O7 Pb0 2.617536 1_565
O8 Pb0 2.611650 1_555
O9 Pb0 2.611650 1_666
