# generated using pymatgen
data_BC6XeF11
_symmetry_space_group_name_H-M   'P 1'
_cell_length_a   19.43329700
_cell_length_b   7.61261400
_cell_length_c   8.94186779
_cell_angle_alpha   56.41266214
_cell_angle_beta   90.00000000
_cell_angle_gamma   90.00000000
_symmetry_Int_Tables_number   1
_chemical_formula_structural   BC6XeF11
_chemical_formula_sum   'B4 C24 Xe4 F44'
_cell_volume   1101.98639060
_cell_formula_units_Z   4
loop_
 _symmetry_equiv_pos_site_id
 _symmetry_equiv_pos_as_xyz
  1  'x, y, z'
loop_
 _atom_site_type_symbol
 _atom_site_label
 _atom_site_symmetry_multiplicity
 _atom_site_fract_x
 _atom_site_fract_y
 _atom_site_fract_z
 _atom_site_occupancy
  B  B0  1  0.43515300  0.81346100  0.93772400  1
  B  B1  1  0.06484700  0.81346100  0.43772400  1
  B  B2  1  0.56484700  0.18653900  0.06227600  1
  B  B3  1  0.93515300  0.18653900  0.56227600  1
  C  C0  1  0.66259000  0.41013000  0.54992100  1
  C  C1  1  0.83741000  0.41013000  0.04992100  1
  C  C2  1  0.33741000  0.58987000  0.45007900  1
  C  C3  1  0.16259000  0.58987000  0.95007900  1
  C  C4  1  0.62105100  0.31673400  0.48513200  1
  C  C5  1  0.87894900  0.31673400  0.98513200  1
  C  C6  1  0.37894900  0.68326600  0.51486800  1
  C  C7  1  0.12105100  0.68326600  0.01486800  1
  C  C8  1  0.62070600  0.10070300  0.55678600  1
  C  C9  1  0.87929400  0.10070300  0.05678600  1
  C  C10  1  0.37929400  0.89929700  0.44321400  1
  C  C11  1  0.12070600  0.89929700  0.94321400  1
  C  C12  1  0.66557200  0.97245700  0.69872800  1
  C  C13  1  0.83442800  0.97245700  0.19872800  1
  C  C14  1  0.33442800  0.02754300  0.30127200  1
  C  C15  1  0.16557200  0.02754300  0.80127200  1
  C  C16  1  0.70583100  0.27903000  0.69427800  1
  C  C17  1  0.79416900  0.27903000  0.19427800  1
  C  C18  1  0.29416900  0.72097000  0.30572200  1
  C  C19  1  0.20583100  0.72097000  0.80572200  1
  C  C20  1  0.70737600  0.06248000  0.76692500  1
  C  C21  1  0.79262400  0.06248000  0.26692500  1
  C  C22  1  0.29262400  0.93752000  0.23307500  1
  C  C23  1  0.20737600  0.93752000  0.73307500  1
  Xe  Xe0  1  0.55362500  0.51715000  0.26835700  1
  Xe  Xe1  1  0.94637500  0.51715000  0.76835700  1
  Xe  Xe2  1  0.44637500  0.48285000  0.73164300  1
  Xe  Xe3  1  0.05362500  0.48285000  0.23164300  1
  F  F0  1  0.47739600  0.35451700  0.45457300  1
  F  F1  1  0.02260400  0.35451700  0.95457300  1
  F  F2  1  0.52260400  0.64548300  0.54542700  1
  F  F3  1  0.97739600  0.64548300  0.04542700  1
  F  F4  1  0.66105800  0.61690100  0.47878600  1
  F  F5  1  0.83894200  0.61690100  0.97878600  1
  F  F6  1  0.33894200  0.38309900  0.52121400  1
  F  F7  1  0.16105800  0.38309900  0.02121400  1
  F  F8  1  0.57941700  0.01646600  0.49373200  1
  F  F9  1  0.92058300  0.01646600  0.99373200  1
  F  F10  1  0.42058300  0.98353400  0.50626800  1
  F  F11  1  0.07941700  0.98353400  0.00626800  1
  F  F12  1  0.63970300  0.64913300  0.11693800  1
  F  F13  1  0.86029700  0.64913300  0.61693800  1
  F  F14  1  0.36029700  0.35086700  0.88306200  1
  F  F15  1  0.13970300  0.35086700  0.38306200  1
  F  F16  1  0.38281900  0.73873600  0.87858000  1
  F  F17  1  0.11718100  0.73873600  0.37858000  1
  F  F18  1  0.61718100  0.26126400  0.12142000  1
  F  F19  1  0.88281900  0.26126400  0.62142000  1
  F  F20  1  0.50145100  0.75462200  0.90703900  1
  F  F21  1  0.99854900  0.75462200  0.40703900  1
  F  F22  1  0.49854900  0.24537800  0.09296100  1
  F  F23  1  0.00145100  0.24537800  0.59296100  1
  F  F24  1  0.66884300  0.76604100  0.76671400  1
  F  F25  1  0.83115700  0.76604100  0.26671400  1
  F  F26  1  0.33115700  0.23395900  0.23328600  1
  F  F27  1  0.16884300  0.23395900  0.73328600  1
  F  F28  1  0.74456900  0.35983700  0.76598700  1
  F  F29  1  0.75543100  0.35983700  0.26598700  1
  F  F30  1  0.25543100  0.64016300  0.23401300  1
  F  F31  1  0.24456900  0.64016300  0.73401300  1
  F  F32  1  0.43027200  0.71052100  0.13000800  1
  F  F33  1  0.06972800  0.71052100  0.63000800  1
  F  F34  1  0.56972800  0.28947900  0.86999200  1
  F  F35  1  0.93027200  0.28947900  0.36999200  1
  F  F36  1  0.43098000  0.03168400  0.85302600  1
  F  F37  1  0.06902000  0.03168400  0.35302600  1
  F  F38  1  0.56902000  0.96831600  0.14697400  1
  F  F39  1  0.93098000  0.96831600  0.64697400  1
  F  F40  1  0.74930100  0.93997800  0.90495300  1
  F  F41  1  0.75069900  0.93997800  0.40495300  1
  F  F42  1  0.25069900  0.06002200  0.09504700  1
  F  F43  1  0.24930100  0.06002200  0.59504700  1
loop_
_geom_bond_atom_site_label_1
_geom_bond_atom_site_label_2
_geom_bond_distance
_geom_bond_site_symmetry_2
B0 F36 1.395659 1_565
B0 F16 1.403736 1_555
B0 F20 1.439389 1_555
B0 F32 1.445197 1_556
B1 F37 1.395659 1_565
B1 F17 1.403736 1_555
B1 F21 1.439389 1_455
B1 F33 1.445197 1_555
B2 F38 1.395659 1_545
B2 F18 1.403736 1_555
B2 F22 1.439389 1_555
B2 F34 1.445197 1_554
B3 F39 1.395659 1_545
B3 F19 1.403736 1_555
B3 F23 1.439389 1_655
B3 F35 1.445197 1_555
C0 F4 1.332439 1_555
C0 C4 1.395887 1_555
C1 F5 1.332439 1_554
C1 C5 1.395887 1_554
C2 F6 1.332439 1_555
C2 C6 1.395887 1_555
C3 F7 1.332439 1_556
C3 C7 1.395887 1_556
C4 C8 1.396178 1_555
C4 Xe0 2.128349 1_555
C5 C9 1.396178 1_556
C5 Xe1 2.128349 1_555
C6 Xe2 2.128349 1_555
C7 Xe3 2.128349 1_555
C8 F8 1.331526 1_555
C9 F9 1.331526 1_554
C10 F10 1.331526 1_555
C10 C6 1.396178 1_555
C11 F11 1.331526 1_556
C11 C7 1.396178 1_556
C12 F24 1.336367 1_555
C13 F25 1.336367 1_555
C14 F26 1.336367 1_555
C15 F27 1.336367 1_555
C16 F28 1.338918 1_555
C17 F29 1.338918 1_555
C18 F30 1.338918 1_555
C19 F31 1.338918 1_555
C20 F40 1.335408 1_545
C21 F41 1.335408 1_545
C22 F42 1.335408 1_565
C23 F43 1.335408 1_565
F0 Xe0 2.054023 1_555
F1 Xe1 2.054023 1_455
F2 Xe2 2.054023 1_555
F3 Xe3 2.054023 1_655
F12 Xe0 2.033659 1_555
F13 Xe1 2.033659 1_555
F14 Xe2 2.033659 1_555
F15 Xe3 2.033659 1_555
