# generated using pymatgen
data_Mg4Si3
_symmetry_space_group_name_H-M   'P 1'
_cell_length_a   5.28305700
_cell_length_b   7.70150037
_cell_length_c   7.79866704
_cell_angle_alpha   63.41613361
_cell_angle_beta   73.18151717
_cell_angle_gamma   70.68381409
_symmetry_Int_Tables_number   1
_chemical_formula_structural   Mg4Si3
_chemical_formula_sum   'Mg8 Si6'
_cell_volume   264.00779616
_cell_formula_units_Z   2
loop_
 _symmetry_equiv_pos_site_id
 _symmetry_equiv_pos_as_xyz
  1  'x, y, z'
loop_
 _atom_site_type_symbol
 _atom_site_label
 _atom_site_symmetry_multiplicity
 _atom_site_fract_x
 _atom_site_fract_y
 _atom_site_fract_z
 _atom_site_occupancy
  Mg  Mg0  1  0.47798900  0.24627400  0.20525500  1
  Mg  Mg1  1  0.00866900  0.03248800  0.04143300  1
  Mg  Mg2  1  0.84511600  0.46174200  0.71692900  1
  Mg  Mg3  1  0.37215400  0.70068000  0.91802000  1
  Mg  Mg4  1  0.94717700  0.45919800  0.06797500  1
  Mg  Mg5  1  0.80424900  0.91941000  0.78659200  1
  Mg  Mg6  1  0.64007900  0.35336400  0.47650100  1
  Mg  Mg7  1  0.53286700  0.80602100  0.21644700  1
  Si  Si0  1  0.25435800  0.66547900  0.59954000  1
  Si  Si1  1  0.59547300  0.89367800  0.51185400  1
  Si  Si2  1  0.41878200  0.25914300  0.86362800  1
  Si  Si3  1  0.11817300  0.54258900  0.33653500  1
  Si  Si4  1  0.20891000  0.13739700  0.60817500  1
  Si  Si5  1  0.02603300  0.02260700  0.40096500  1
loop_
_geom_bond_atom_site_label_1
_geom_bond_atom_site_label_2
_geom_bond_distance
_geom_bond_site_symmetry_2
Mg0 Si1 2.721934 1_545
Mg0 Si2 2.726026 1_554
Mg0 Si3 2.822155 1_555
Mg0 Si4 2.905699 1_555
Mg0 Mg6 2.994199 1_555
Mg0 Si5 3.042522 1_555
Mg0 Mg3 3.160966 1_554
Mg0 Mg7 3.269151 1_545
Mg1 Si5 2.798062 1_555
Mg1 Si2 2.874253 1_554
Mg1 Mg3 3.004898 1_544
Mg1 Si4 3.040082 1_554
Mg1 Mg7 3.071736 1_545
Mg1 Mg7 3.163537 1_445
Mg2 Si3 2.780969 1_655
Mg2 Si0 2.790669 1_655
Mg2 Si2 2.837721 1_555
Mg2 Si4 2.903396 1_655
Mg2 Mg6 2.925738 1_555
Mg2 Si1 2.986583 1_555
Mg2 Mg3 3.059817 1_555
Mg2 Si0 3.188860 1_555
Mg3 Si0 2.870254 1_555
Mg3 Si1 2.901433 1_555
Mg3 Mg5 2.957034 1_555
Mg3 Si3 2.987542 1_556
Mg3 Mg4 3.027141 1_456
Mg3 Mg5 3.127380 1_455
Mg3 Si4 3.147695 1_565
Mg3 Mg7 3.175634 1_556
Mg3 Mg4 3.229037 1_556
Mg4 Si3 2.880578 1_655
Mg4 Si2 2.912297 1_654
Mg4 Mg6 3.001068 1_555
Mg4 Si5 3.179214 1_655
Mg4 Mg7 3.271063 1_555
Mg5 Si5 2.736157 1_665
Mg5 Si1 2.781854 1_555
Mg5 Si4 2.808418 1_665
Mg5 Si2 2.920237 1_565
Mg5 Si0 3.012738 1_655
Mg5 Mg7 3.079438 1_556
Mg5 Mg6 3.135672 1_565
Mg6 Si2 2.750662 1_555
Mg6 Si5 2.864481 1_655
Mg6 Si0 2.922944 1_555
Mg6 Si3 2.928713 1_555
Mg6 Si4 2.938359 1_555
Mg6 Si3 3.018422 1_655
Mg6 Mg7 3.101228 1_555
Mg6 Si4 3.130869 1_655
Mg7 Si1 2.802354 1_555
Mg7 Si0 2.806755 1_555
Mg7 Si5 2.997759 1_565
Mg7 Si3 3.137782 1_555
Mg7 Si3 3.221778 1_655
Mg7 Si2 3.329641 1_564
Si0 Si5 2.547946 1_565
Si0 Si1 2.666557 1_555
Si0 Si2 2.873643 1_555
Si0 Si3 2.943165 1_555
Si1 Si4 2.469081 1_565
Si1 Si5 2.548587 1_665
Si3 Si4 2.852526 1_555
Si4 Si5 2.659602 1_555
