# generated using pymatgen
data_Ba6Dy2Al4O15
_symmetry_space_group_name_H-M   'P 1'
_cell_length_a   5.91666209
_cell_length_b   7.85773626
_cell_length_c   18.42713525
_cell_angle_alpha   88.28361154
_cell_angle_beta   90.00000000
_cell_angle_gamma   90.00000000
_symmetry_Int_Tables_number   1
_chemical_formula_structural   Ba6Dy2Al4O15
_chemical_formula_sum   'Ba12 Dy4 Al8 O30'
_cell_volume   856.32207773
_cell_formula_units_Z   2
loop_
 _symmetry_equiv_pos_site_id
 _symmetry_equiv_pos_as_xyz
  1  'x, y, z'
loop_
 _atom_site_type_symbol
 _atom_site_label
 _atom_site_symmetry_multiplicity
 _atom_site_fract_x
 _atom_site_fract_y
 _atom_site_fract_z
 _atom_site_occupancy
  Ba  Ba0  1  0.75553739  0.50126120  0.08207211  1
  Ba  Ba1  1  0.24446261  0.49873880  0.91792789  1
  Ba  Ba2  1  0.75553739  0.49873880  0.41792789  1
  Ba  Ba3  1  0.24446261  0.50126120  0.58207211  1
  Ba  Ba4  1  0.74836683  0.97068078  0.08989609  1
  Ba  Ba5  1  0.25163317  0.02931922  0.91010391  1
  Ba  Ba6  1  0.74836683  0.02931922  0.41010391  1
  Ba  Ba7  1  0.25163317  0.97068078  0.58989609  1
  Ba  Ba8  1  0.72644907  -0.00000000  0.75000000  1
  Ba  Ba9  1  0.27355093  -0.00000000  0.25000000  1
  Ba  Ba10  1  0.67913740  0.50000000  0.75000000  1
  Ba  Ba11  1  0.32086260  0.50000000  0.25000000  1
  Dy  Dy0  1  0.74864945  0.75291747  0.91075055  1
  Dy  Dy1  1  0.25135055  0.24708253  0.08924945  1
  Dy  Dy2  1  0.74864945  0.24708253  0.58924945  1
  Dy  Dy3  1  0.25135055  0.75291747  0.41075055  1
  Al  Al0  1  0.74777237  0.75236608  0.55576422  1
  Al  Al1  1  0.25222763  0.24763392  0.44423578  1
  Al  Al2  1  0.74777237  0.24763392  0.94423578  1
  Al  Al3  1  0.25222763  0.75236608  0.05576422  1
  Al  Al4  1  0.76709185  0.77929732  0.26841272  1
  Al  Al5  1  0.23290815  0.22070268  0.73158728  1
  Al  Al6  1  0.76709185  0.22070268  0.23158728  1
  Al  Al7  1  0.23290815  0.77929732  0.76841272  1
  O  O0  1  0.20856744  -0.00000000  0.75000000  1
  O  O1  1  0.79143256  -0.00000000  0.25000000  1
  O  O2  1  0.49983814  0.76436883  0.00120017  1
  O  O3  1  0.50016186  0.23563117  0.99879983  1
  O  O4  1  0.49983814  0.23563117  0.49879983  1
  O  O5  1  0.50016186  0.76436883  0.50120017  1
  O  O6  1  0.76119071  0.94302261  0.60568829  1
  O  O7  1  0.23880929  0.05697739  0.39431171  1
  O  O8  1  0.76119071  0.05697739  0.89431171  1
  O  O9  1  0.23880929  0.94302261  0.10568829  1
  O  O10  1  0.01588062  0.76321855  0.99529632  1
  O  O11  1  0.98411938  0.23678145  0.00470368  1
  O  O12  1  0.01588062  0.23678145  0.50470368  1
  O  O13  1  0.98411938  0.76321855  0.49529632  1
  O  O14  1  0.31923598  0.69081379  0.68819041  1
  O  O15  1  0.68076402  0.30918621  0.31180959  1
  O  O16  1  0.31923598  0.30918621  0.81180959  1
  O  O17  1  0.68076402  0.69081379  0.18819041  1
  O  O18  1  0.45482400  0.75633641  0.83312706  1
  O  O19  1  0.54517600  0.24366359  0.16687294  1
  O  O20  1  0.45482400  0.24366359  0.66687294  1
  O  O21  1  0.54517600  0.75633641  0.33312706  1
  O  O22  1  0.97740288  0.72908595  0.81291004  1
  O  O23  1  0.02259712  0.27091405  0.18708996  1
  O  O24  1  0.97740288  0.27091405  0.68708996  1
  O  O25  1  0.02259712  0.72908595  0.31291004  1
  O  O26  1  0.75209956  0.53948606  0.59161196  1
  O  O27  1  0.24790044  0.46051394  0.40838804  1
  O  O28  1  0.75209956  0.46051394  0.90838804  1
  O  O29  1  0.24790044  0.53948606  0.09161196  1
loop_
_geom_bond_atom_site_label_1
_geom_bond_atom_site_label_2
_geom_bond_distance
_geom_bond_site_symmetry_2
Ba0 O17 2.532288 1_555
Ba0 O19 2.810444 1_555
Ba0 O11 2.891040 1_555
Ba0 O2 2.932463 1_555
Ba0 O29 2.934400 1_655
Ba0 O10 2.994899 1_654
Ba0 O29 3.024135 1_555
Ba0 O3 3.030859 1_554
Ba0 O23 3.050891 1_655
Ba0 O28 3.226068 1_554
Ba1 O16 2.532288 1_555
Ba1 O18 2.810444 1_555
Ba1 O10 2.891040 1_555
Ba1 O3 2.932463 1_555
Ba1 O28 2.934400 1_455
Ba1 O11 2.994899 1_456
Ba1 O28 3.024135 1_555
Ba1 O2 3.030859 1_556
Ba1 O22 3.050891 1_455
Ba1 O29 3.226068 1_556
Ba2 O15 2.532288 1_555
Ba2 O21 2.810444 1_555
Ba2 O13 2.891040 1_555
Ba2 O4 2.932463 1_555
Ba2 O27 2.934400 1_655
Ba2 O12 2.994899 1_655
Ba2 O27 3.024135 1_555
Ba2 O5 3.030859 1_555
Ba2 O25 3.050891 1_655
Ba2 O26 3.226068 1_555
Ba3 O14 2.532288 1_555
Ba3 O20 2.810444 1_555
Ba3 O12 2.891040 1_555
Ba3 O5 2.932463 1_555
Ba3 O26 2.934400 1_455
Ba3 O13 2.994899 1_455
Ba3 O26 3.024135 1_555
Ba3 O4 3.030859 1_555
Ba3 O24 3.050891 1_455
Ba3 O27 3.226068 1_555
Ba4 O2 2.760505 1_555
Ba4 O17 2.835181 1_555
Ba4 O19 2.870672 1_565
Ba4 O10 2.893390 1_654
Ba4 O9 2.923776 1_655
Ba4 O11 2.930107 1_565
Ba4 O1 2.977034 1_565
Ba4 O3 3.016532 1_564
Ba4 O9 3.036055 1_555
Ba5 O3 2.760505 1_555
Ba5 O16 2.835181 1_555
Ba5 O18 2.870672 1_545
Ba5 O11 2.893390 1_456
Ba5 O8 2.923776 1_455
Ba5 O10 2.930107 1_545
Ba5 O0 2.977034 1_555
Ba5 O2 3.016532 1_546
Ba5 O8 3.036055 1_555
Ba6 O4 2.760505 1_555
Ba6 O15 2.835181 1_555
Ba6 O21 2.870672 1_545
Ba6 O12 2.893390 1_655
Ba6 O7 2.923776 1_655
Ba6 O13 2.930107 1_545
Ba6 O1 2.977034 1_555
Ba6 O5 3.016532 1_545
Ba6 O7 3.036055 1_555
Ba7 O5 2.760505 1_555
Ba7 O14 2.835181 1_555
Ba7 O20 2.870672 1_565
Ba7 O13 2.893390 1_455
Ba7 O6 2.923776 1_455
Ba7 O12 2.930107 1_565
Ba7 O0 2.977034 1_565
Ba7 O4 3.016532 1_565
Ba7 O6 3.036055 1_555
Ba8 O8 2.717653 1_555
Ba8 O6 2.717653 1_545
Ba8 O24 2.816444 1_555
Ba8 O22 2.816444 1_545
Ba8 O0 2.852531 1_655
Ba8 O18 2.901617 1_545
Ba8 O20 2.901617 1_555
Ba8 O0 3.064131 1_555
Ba9 O7 2.717653 1_555
Ba9 O9 2.717653 1_545
Ba9 O23 2.816444 1_555
Ba9 O25 2.816444 1_545
Ba9 O1 2.852531 1_455
Ba9 O19 2.901617 1_555
Ba9 O21 2.901617 1_545
Ba9 O1 3.064131 1_555
Ba10 O24 2.797054 1_555
Ba10 O22 2.797054 1_555
Ba10 O16 2.824440 1_555
Ba10 O14 2.824440 1_555
Ba10 O20 2.889592 1_555
Ba10 O18 2.889592 1_555
Ba10 O26 2.957503 1_555
Ba10 O28 2.957503 1_555
Ba11 O23 2.797054 1_555
Ba11 O25 2.797054 1_555
Ba11 O17 2.824440 1_555
Ba11 O15 2.824440 1_555
Ba11 O19 2.889592 1_555
Ba11 O21 2.889592 1_555
Ba11 O27 2.957503 1_555
Ba11 O29 2.957503 1_555
Dy0 O10 2.222881 1_655
Dy0 O2 2.227607 1_556
Dy0 O18 2.250926 1_555
Dy0 O22 2.266640 1_555
Dy0 O28 2.299436 1_555
Dy0 O8 2.400478 1_565
Dy1 O11 2.222881 1_455
Dy1 O3 2.227607 1_554
Dy1 O19 2.250926 1_555
Dy1 O23 2.266640 1_555
Dy1 O29 2.299436 1_555
Dy1 O9 2.400478 1_545
Dy2 O12 2.222881 1_655
Dy2 O4 2.227607 1_555
Dy2 O20 2.250926 1_555
Dy2 O24 2.266640 1_555
Dy2 O26 2.299436 1_555
Dy2 O6 2.400478 1_545
Dy3 O13 2.222881 1_455
Dy3 O5 2.227607 1_555
Dy3 O21 2.250926 1_555
Dy3 O25 2.266640 1_555
Dy3 O27 2.299436 1_555
Dy3 O7 2.400478 1_565
Al0 O5 1.777771 1_555
Al0 O26 1.780148 1_555
Al0 O6 1.783136 1_555
Al0 O13 1.788467 1_555
Al1 O4 1.777771 1_555
Al1 O27 1.780148 1_555
Al1 O7 1.783136 1_555
Al1 O12 1.788467 1_555
Al2 O3 1.777771 1_555
Al2 O28 1.780148 1_555
Al2 O8 1.783136 1_555
Al2 O11 1.788467 1_556
Al3 O2 1.777771 1_555
Al3 O29 1.780148 1_555
Al3 O9 1.783136 1_555
Al3 O10 1.788467 1_554
Al4 O17 1.729494 1_555
Al4 O25 1.758969 1_655
Al4 O1 1.762993 1_565
Al4 O21 1.779239 1_555
Al5 O16 1.729494 1_555
Al5 O24 1.758969 1_455
Al5 O0 1.762993 1_555
Al5 O20 1.779239 1_555
Al6 O15 1.729494 1_555
Al6 O23 1.758969 1_655
Al6 O1 1.762993 1_555
Al6 O19 1.779239 1_555
Al7 O14 1.729494 1_555
Al7 O22 1.758969 1_455
Al7 O0 1.762993 1_565
Al7 O18 1.779239 1_555
