# generated using pymatgen
data_Na3Sc(BO3)2
_symmetry_space_group_name_H-M   'P 1'
_cell_length_a   9.08394500
_cell_length_b   5.12386700
_cell_length_c   7.08312947
_cell_angle_alpha   56.40543825
_cell_angle_beta   90.00000000
_cell_angle_gamma   90.00000000
_symmetry_Int_Tables_number   1
_chemical_formula_structural   Na3Sc(BO3)2
_chemical_formula_sum   'Na6 Sc2 B4 O12'
_cell_volume   274.61790273
_cell_formula_units_Z   2
loop_
 _symmetry_equiv_pos_site_id
 _symmetry_equiv_pos_as_xyz
  1  'x, y, z'
loop_
 _atom_site_type_symbol
 _atom_site_label
 _atom_site_symmetry_multiplicity
 _atom_site_fract_x
 _atom_site_fract_y
 _atom_site_fract_z
 _atom_site_occupancy
  Na  Na0  1  0.50000000  0.00000000  0.00000000  1
  Na  Na1  1  0.00000000  0.00000000  0.50000000  1
  Na  Na2  1  0.83230900  0.26256100  0.73598500  1
  Na  Na3  1  0.33230900  0.73743900  0.76401500  1
  Na  Na4  1  0.16769100  0.73743900  0.26401500  1
  Na  Na5  1  0.66769100  0.26256100  0.23598500  1
  Sc  Sc0  1  0.50000000  0.50000000  0.50000000  1
  Sc  Sc1  1  0.00000000  0.50000000  0.00000000  1
  B  B0  1  0.66848400  0.77329900  0.73862500  1
  B  B1  1  0.16848400  0.22670100  0.76137500  1
  B  B2  1  0.33151600  0.22670100  0.26137500  1
  B  B3  1  0.83151600  0.77329900  0.23862500  1
  O  O0  1  0.58395900  0.52403100  0.77424000  1
  O  O1  1  0.08395900  0.47596900  0.72576000  1
  O  O2  1  0.41604100  0.47596900  0.22576000  1
  O  O3  1  0.91604100  0.52403100  0.27424000  1
  O  O4  1  0.60647900  0.06443400  0.65517100  1
  O  O5  1  0.10647900  0.93556600  0.84482900  1
  O  O6  1  0.39352100  0.93556600  0.34482900  1
  O  O7  1  0.89352100  0.06443400  0.15517100  1
  O  O8  1  0.81755800  0.73317000  0.79052000  1
  O  O9  1  0.31755800  0.26683000  0.70948000  1
  O  O10  1  0.18244200  0.26683000  0.20948000  1
  O  O11  1  0.68244200  0.73317000  0.29052000  1
loop_
_geom_bond_atom_site_label_1
_geom_bond_atom_site_label_2
_geom_bond_distance
_geom_bond_site_symmetry_2
Na0 O0 2.365770 1_554
Na0 O2 2.365770 1_545
Na0 O9 2.395197 1_554
Na0 O11 2.395197 1_545
Na0 O6 2.473431 1_545
Na0 O4 2.473431 1_554
Na1 O1 2.365770 1_545
Na1 O3 2.365770 1_455
Na1 O10 2.395197 1_555
Na1 O8 2.395197 1_445
Na1 O5 2.473431 1_545
Na1 O7 2.473431 1_455
Na2 O4 2.491919 1_555
Na2 O1 2.517732 1_655
Na2 O8 2.522988 1_545
Na2 O7 2.611516 1_556
Na2 O8 2.648109 1_555
Na2 O0 2.712853 1_555
Na2 O5 2.859190 1_645
Na2 O3 2.867282 1_555
Na3 O5 2.491919 1_555
Na3 O0 2.517732 1_555
Na3 O9 2.522988 1_565
Na3 O6 2.611516 1_555
Na3 O9 2.648109 1_555
Na3 O1 2.712853 1_555
Na3 O4 2.859190 1_565
Na3 O2 2.867282 1_556
Na4 O6 2.491919 1_555
Na4 O3 2.517732 1_455
Na4 O10 2.522988 1_565
Na4 O5 2.611516 1_554
Na4 O10 2.648109 1_555
Na4 O2 2.712853 1_555
Na4 O7 2.859190 1_465
Na4 O1 2.867282 1_555
Na5 O7 2.491919 1_555
Na5 O2 2.517732 1_555
Na5 O11 2.522988 1_545
Na5 O4 2.611516 1_555
Na5 O11 2.648109 1_555
Na5 O3 2.712853 1_555
Na5 O6 2.859190 1_545
Na5 O0 2.867282 1_554
B0 O4 1.384246 1_565
B0 O8 1.388365 1_555
B0 O0 1.388494 1_555
B1 O5 1.384246 1_545
B1 O9 1.388365 1_555
B1 O1 1.388494 1_555
B2 O6 1.384246 1_545
B2 O10 1.388365 1_555
B2 O2 1.388494 1_555
B3 O7 1.384246 1_565
B3 O11 1.388365 1_555
B3 O3 1.388494 1_555
O0 Sc0 2.152845 1_555
O1 Sc1 2.152845 1_556
O2 Sc0 2.152845 1_555
O3 Sc1 2.152845 1_655
O4 Sc0 2.099987 1_555
O5 Sc1 2.099987 1_556
O6 Sc0 2.099987 1_555
O7 Sc1 2.099987 1_655
O8 Sc1 2.100919 1_656
O9 Sc0 2.100919 1_555
O10 Sc1 2.100919 1_555
O11 Sc0 2.100919 1_555
