# generated using pymatgen
data_Er5CoBi2
_symmetry_space_group_name_H-M   'P 1'
_cell_length_a   7.96436560
_cell_length_b   8.71604337
_cell_length_c   12.27212589
_cell_angle_alpha   90.00000000
_cell_angle_beta   90.00000000
_cell_angle_gamma   90.00000000
_symmetry_Int_Tables_number   1
_chemical_formula_structural   Er5CoBi2
_chemical_formula_sum   'Er20 Co4 Bi8'
_cell_volume   851.90344044
_cell_formula_units_Z   4
loop_
 _symmetry_equiv_pos_site_id
 _symmetry_equiv_pos_as_xyz
  1  'x, y, z'
loop_
 _atom_site_type_symbol
 _atom_site_label
 _atom_site_symmetry_multiplicity
 _atom_site_fract_x
 _atom_site_fract_y
 _atom_site_fract_z
 _atom_site_occupancy
  Er  Er0  1  0.65390707  0.75000000  0.69841339  1
  Er  Er1  1  0.34609293  0.25000000  0.30158661  1
  Er  Er2  1  0.15390707  0.25000000  0.80158661  1
  Er  Er3  1  0.84609293  0.75000000  0.19841339  1
  Er  Er4  1  0.11574256  0.75000000  0.81348103  1
  Er  Er5  1  0.88425744  0.25000000  0.18651897  1
  Er  Er6  1  0.61574256  0.25000000  0.68651897  1
  Er  Er7  1  0.38425744  0.75000000  0.31348103  1
  Er  Er8  1  0.55480116  0.75000000  0.99760637  1
  Er  Er9  1  0.44519884  0.25000000  0.00239363  1
  Er  Er10  1  0.05480116  0.25000000  0.50239363  1
  Er  Er11  1  0.94519884  0.75000000  0.49760637  1
  Er  Er12  1  0.82696775  0.46266112  0.93665219  1
  Er  Er13  1  0.17303225  0.53733888  0.06334781  1
  Er  Er14  1  0.32696775  0.53733888  0.56334781  1
  Er  Er15  1  0.17303225  0.96266112  0.06334781  1
  Er  Er16  1  0.67303225  0.46266112  0.43665219  1
  Er  Er17  1  0.82696775  0.03733888  0.93665219  1
  Er  Er18  1  0.67303225  0.03733888  0.43665219  1
  Er  Er19  1  0.32696775  0.96266112  0.56334781  1
  Co  Co0  1  0.93546204  0.75000000  0.99230582  1
  Co  Co1  1  0.06453796  0.25000000  0.00769418  1
  Co  Co2  1  0.43546204  0.25000000  0.50769418  1
  Co  Co3  1  0.56453796  0.75000000  0.49230582  1
  Bi  Bi0  1  0.93152668  0.00944330  0.67303000  1
  Bi  Bi1  1  0.06847332  0.99055670  0.32697000  1
  Bi  Bi2  1  0.43152668  0.99055670  0.82697000  1
  Bi  Bi3  1  0.06847332  0.50944330  0.32697000  1
  Bi  Bi4  1  0.56847332  0.00944330  0.17303000  1
  Bi  Bi5  1  0.93152668  0.49055670  0.67303000  1
  Bi  Bi6  1  0.56847332  0.49055670  0.17303000  1
  Bi  Bi7  1  0.43152668  0.50944330  0.82697000  1
loop_
_geom_bond_atom_site_label_1
_geom_bond_atom_site_label_2
_geom_bond_distance
_geom_bond_site_symmetry_2
Co0 Er4 2.622532 1_655
Co0 Er3 2.627616 1_556
Co0 Er12 2.735952 1_555
Co0 Er17 2.735952 1_565
Co0 Er13 2.788516 1_656
Co0 Er15 2.788516 1_656
Co0 Er8 3.032420 1_555
Co1 Er5 2.622532 1_455
Co1 Er2 2.627616 1_554
Co1 Er13 2.735952 1_555
Co1 Er15 2.735952 1_545
Co1 Er12 2.788516 1_454
Co1 Er17 2.788516 1_454
Co1 Er9 3.032420 1_555
Co2 Er6 2.622532 1_555
Co2 Er1 2.627616 1_555
Co2 Er14 2.735952 1_555
Co2 Er19 2.735952 1_545
Co2 Er18 2.788516 1_555
Co2 Er16 2.788516 1_555
Co2 Er10 3.032420 1_555
Co3 Er7 2.622532 1_555
Co3 Er0 2.627616 1_555
Co3 Er16 2.735952 1_555
Co3 Er18 2.735952 1_565
Co3 Er14 2.788516 1_555
Co3 Er19 2.788516 1_555
Co3 Er11 3.032420 1_555
Bi0 Er10 3.121735 1_655
Bi0 Er11 3.124109 1_545
Bi0 Er2 3.165761 1_655
Bi0 Er0 3.177956 1_545
Bi0 Er4 3.199537 1_645
Bi0 Er6 3.278550 1_555
Bi0 Er17 3.349497 1_555
Bi0 Er19 3.449207 1_645
Bi0 Er18 3.565462 1_555
Bi1 Er11 3.121735 1_455
Bi1 Er10 3.124109 1_565
Bi1 Er3 3.165761 1_455
Bi1 Er1 3.177956 1_565
Bi1 Er5 3.199537 1_465
Bi1 Er7 3.278550 1_555
Bi1 Er15 3.349497 1_555
Bi1 Er18 3.449207 1_465
Bi1 Er19 3.565462 1_555
Bi2 Er8 3.121735 1_555
Bi2 Er9 3.124109 1_566
Bi2 Er0 3.165761 1_555
Bi2 Er2 3.177956 1_565
Bi2 Er6 3.199537 1_565
Bi2 Er4 3.278550 1_555
Bi2 Er19 3.349497 1_555
Bi2 Er17 3.449207 1_565
Bi2 Er15 3.565462 1_556
Bi3 Er11 3.121735 1_455
Bi3 Er10 3.124109 1_555
Bi3 Er3 3.165761 1_455
Bi3 Er1 3.177956 1_555
Bi3 Er5 3.199537 1_455
Bi3 Er7 3.278550 1_555
Bi3 Er13 3.349497 1_555
Bi3 Er16 3.449207 1_455
Bi3 Er14 3.565462 1_555
Bi4 Er9 3.121735 1_555
Bi4 Er8 3.124109 1_544
Bi4 Er1 3.165761 1_555
Bi4 Er3 3.177956 1_545
Bi4 Er7 3.199537 1_545
Bi4 Er5 3.278550 1_555
Bi4 Er18 3.349497 1_555
Bi4 Er15 3.449207 1_545
Bi4 Er17 3.565462 1_554
Bi5 Er10 3.121735 1_655
Bi5 Er11 3.124109 1_555
Bi5 Er2 3.165761 1_655
Bi5 Er0 3.177956 1_555
Bi5 Er4 3.199537 1_655
Bi5 Er6 3.278550 1_555
Bi5 Er12 3.349497 1_555
Bi5 Er14 3.449207 1_655
Bi5 Er16 3.565462 1_555
Bi6 Er9 3.121735 1_555
Bi6 Er8 3.124109 1_554
Bi6 Er1 3.165761 1_555
Bi6 Er3 3.177956 1_555
Bi6 Er7 3.199537 1_555
Bi6 Er5 3.278550 1_555
Bi6 Er16 3.349497 1_555
Bi6 Er13 3.449207 1_555
Bi6 Er12 3.565462 1_554
Bi7 Er8 3.121735 1_555
Bi7 Er9 3.124109 1_556
Bi7 Er0 3.165761 1_555
Bi7 Er2 3.177956 1_555
Bi7 Er6 3.199537 1_555
Bi7 Er4 3.278550 1_555
Bi7 Er14 3.349497 1_555
Bi7 Er12 3.449207 1_555
Bi7 Er13 3.565462 1_556
