# generated using pymatgen
data_Re2NiO6
_symmetry_space_group_name_H-M   'P 1'
_cell_length_a   14.46535509
_cell_length_b   11.26398460
_cell_length_c   5.55625800
_cell_angle_alpha   75.43528884
_cell_angle_beta   88.36091194
_cell_angle_gamma   29.53212933
_symmetry_Int_Tables_number   1
_chemical_formula_structural   Re2NiO6
_chemical_formula_sum   'Re8 Ni4 O24'
_cell_volume   396.09493606
_cell_formula_units_Z   4
loop_
 _symmetry_equiv_pos_site_id
 _symmetry_equiv_pos_as_xyz
  1  'x, y, z'
loop_
 _atom_site_type_symbol
 _atom_site_label
 _atom_site_symmetry_multiplicity
 _atom_site_fract_x
 _atom_site_fract_y
 _atom_site_fract_z
 _atom_site_occupancy
  Re  Re0  1  0.18402300  0.22488300  0.77486400  1
  Re  Re1  1  0.14932600  0.77508600  0.22523100  1
  Re  Re2  1  0.51032700  0.23096500  0.77672600  1
  Re  Re3  1  0.66010200  0.26185500  0.26313300  1
  Re  Re4  1  0.47279100  0.78741000  0.21908200  1
  Re  Re5  1  0.86044700  0.21268100  0.78085800  1
  Re  Re6  1  0.67318500  0.73824400  0.73668100  1
  Re  Re7  1  0.82314800  0.76893300  0.22315000  1
  Ni  Ni0  1  0.32533700  0.26788800  0.25850400  1
  Ni  Ni1  1  0.00805300  0.73203500  0.74153100  1
  Ni  Ni2  1  0.33588800  0.74114300  0.73099600  1
  Ni  Ni3  1  0.99713500  0.25905600  0.26914600  1
  O  O0  1  0.03008700  0.09849100  0.62079700  1
  O  O1  1  0.32133700  0.12136200  0.11437700  1
  O  O2  1  0.99969500  0.59092800  0.59039400  1
  O  O3  1  0.37904000  0.07662400  0.63542300  1
  O  O4  1  0.01757800  0.61903000  0.09876700  1
  O  O5  1  0.31594800  0.38073100  0.90120000  1
  O  O6  1  0.33376300  0.40895000  0.40959000  1
  O  O7  1  0.01198200  0.87863300  0.88584000  1
  O  O8  1  0.65994800  0.11675700  0.11814400  1
  O  O9  1  0.33178500  0.59085800  0.59457700  1
  O  O10  1  0.36195500  0.60741900  0.10728900  1
  O  O11  1  0.68966400  0.11347000  0.60494800  1
  O  O12  1  0.30324000  0.90157000  0.37933600  1
  O  O13  1  0.66189000  0.36409700  0.92120700  1
  O  O14  1  0.66619400  0.40451200  0.40678100  1
  O  O15  1  0.33737100  0.88825600  0.88274800  1
  O  O16  1  0.99591000  0.11172200  0.11749400  1
  O  O17  1  0.66715500  0.59552800  0.59310900  1
  O  O18  1  0.67152700  0.63580200  0.07891800  1
  O  O19  1  0.97111600  0.39288000  0.89243900  1
  O  O20  1  0.64351200  0.88682400  0.39474300  1
  O  O21  1  0.00161300  0.40907200  0.40537500  1
  O  O22  1  0.67337900  0.88339800  0.88143300  1
  O  O23  1  0.95455100  0.92290500  0.36517000  1
loop_
_geom_bond_atom_site_label_1
_geom_bond_atom_site_label_2
_geom_bond_distance
_geom_bond_site_symmetry_2
Ni0 O5 2.005302 1_554
Ni0 O4 2.017455 1_555
Ni0 O1 2.049941 1_555
Ni0 O6 2.063482 1_555
Ni0 O20 2.089893 1_545
Ni0 O3 2.131271 1_555
Ni1 O4 2.004687 1_556
Ni1 O5 2.018333 1_555
Ni1 O7 2.050535 1_555
Ni1 O2 2.063392 1_455
Ni1 O11 2.091232 1_465
Ni1 O23 2.128414 1_455
Ni2 O0 2.018801 1_565
Ni2 O12 2.024389 1_555
Ni2 O15 2.054975 1_555
Ni2 O10 2.062818 1_556
Ni2 O9 2.065526 1_555
Ni2 O13 2.137365 1_555
Ni3 O12 2.020871 1_645
Ni3 O0 2.022780 1_655
Ni3 O16 2.054221 1_555
Ni3 O19 2.065389 1_554
Ni3 O21 2.066166 1_655
Ni3 O18 2.134762 1_555
O0 Re5 1.850671 1_455
O1 Re4 1.979772 1_545
O1 Re0 1.985255 1_554
O2 Re7 2.008911 1_555
O2 Re0 2.014990 1_655
O3 Re0 1.917003 1_555
O3 Re6 1.945655 1_545
O4 Re7 1.857596 1_455
O5 Re2 1.857838 1_555
O6 Re2 2.008618 1_555
O6 Re1 2.015059 1_555
O7 Re5 1.979841 1_465
O7 Re1 1.984763 1_556
O8 Re3 1.997207 1_555
O8 Re7 2.024233 1_545
O8 Re2 2.024914 1_554
O9 Re2 1.998777 1_555
O9 Re1 2.030009 1_555
O10 Re3 1.951154 1_555
O10 Re1 1.963495 1_555
O11 Re3 1.946702 1_555
O11 Re2 1.977736 1_555
O12 Re4 1.850537 1_555
O13 Re5 1.944956 1_555
O13 Re3 1.971022 1_556
O14 Re3 2.030361 1_555
O14 Re5 2.096288 1_555
O14 Re4 2.103273 1_555
O15 Re4 1.972183 1_556
O15 Re0 1.988405 1_565
O16 Re5 1.973231 1_554
O16 Re1 1.988086 1_645
O17 Re6 2.030060 1_555
O17 Re4 2.096611 1_555
O17 Re5 2.103543 1_555
O18 Re4 1.945515 1_555
O18 Re6 1.972300 1_554
O19 Re6 1.949719 1_555
O19 Re0 1.964131 1_655
O20 Re6 1.947350 1_555
O20 Re7 1.978637 1_555
O21 Re7 1.999022 1_455
O21 Re0 2.030485 1_555
O22 Re6 1.997406 1_555
O22 Re2 2.023143 1_565
O22 Re7 2.025883 1_556
O23 Re1 1.917680 1_655
O23 Re3 1.947101 1_565
