# generated using pymatgen
data_Gd(CoB)4
_symmetry_space_group_name_H-M   'P 1'
_cell_length_a   5.01623200
_cell_length_b   5.01623200
_cell_length_c   6.99858700
_cell_angle_alpha   90.00000000
_cell_angle_beta   90.00000000
_cell_angle_gamma   90.00000000
_symmetry_Int_Tables_number   1
_chemical_formula_structural   Gd(CoB)4
_chemical_formula_sum   'Gd2 Co8 B8'
_cell_volume   176.10252961
_cell_formula_units_Z   2
loop_
 _symmetry_equiv_pos_site_id
 _symmetry_equiv_pos_as_xyz
  1  'x, y, z'
loop_
 _atom_site_type_symbol
 _atom_site_label
 _atom_site_symmetry_multiplicity
 _atom_site_fract_x
 _atom_site_fract_y
 _atom_site_fract_z
 _atom_site_occupancy
  Gd  Gd0  1  0.00000000  0.00000000  0.00000000  1
  Gd  Gd1  1  0.50000000  0.50000000  0.50000000  1
  Co  Co0  1  0.25431800  0.50000000  0.86292200  1
  Co  Co1  1  0.74568200  0.50000000  0.86292200  1
  Co  Co2  1  0.00000000  0.75431800  0.36292200  1
  Co  Co3  1  0.00000000  0.24568200  0.36292200  1
  Co  Co4  1  0.24568200  0.00000000  0.63707800  1
  Co  Co5  1  0.75431800  0.00000000  0.63707800  1
  Co  Co6  1  0.50000000  0.74568200  0.13707800  1
  Co  Co7  1  0.50000000  0.25431800  0.13707800  1
  B  B0  1  0.82551200  0.50000000  0.15812400  1
  B  B1  1  0.17448800  0.50000000  0.15812400  1
  B  B2  1  0.00000000  0.32551200  0.65812400  1
  B  B3  1  0.00000000  0.67448800  0.65812400  1
  B  B4  1  0.67448800  0.00000000  0.34187600  1
  B  B5  1  0.32551200  0.00000000  0.34187600  1
  B  B6  1  0.50000000  0.17448800  0.84187600  1
  B  B7  1  0.50000000  0.82551200  0.84187600  1
loop_
_geom_bond_atom_site_label_1
_geom_bond_atom_site_label_2
_geom_bond_distance
_geom_bond_site_symmetry_2
Co0 Gd1 2.823138 1_555
Co0 Gd0 2.972955 1_556
Co0 Gd0 2.972955 1_566
Co1 Gd1 2.823138 1_555
Co1 Gd0 2.972955 1_666
Co1 Gd0 2.972955 1_656
Co2 Gd0 2.823138 1_565
Co2 Gd1 2.972955 1_455
Co2 Gd1 2.972955 1_555
Co3 Gd0 2.823138 1_555
Co3 Gd1 2.972955 1_555
Co3 Gd1 2.972955 1_455
Co4 Gd0 2.823138 1_556
Co4 Gd1 2.972955 1_545
Co4 Gd1 2.972955 1_555
Co5 Gd0 2.823138 1_656
Co5 Gd1 2.972955 1_555
Co5 Gd1 2.972955 1_545
Co6 Gd1 2.823138 1_555
Co6 Gd0 2.972955 1_565
Co6 Gd0 2.972955 1_665
Co7 Gd1 2.823138 1_555
Co7 Gd0 2.972955 1_655
Co7 Gd0 2.972955 1_555
B0 B1 1.750545 1_655
B0 Co7 2.051019 1_555
B0 Co6 2.051019 1_555
B0 Co1 2.104448 1_554
B0 Co2 2.109004 1_655
B0 Co3 2.109004 1_655
B0 Gd0 2.877744 1_655
B0 Gd0 2.877744 1_665
B0 Gd1 2.896713 1_555
B1 Co6 2.051019 1_555
B1 Co7 2.051019 1_555
B1 Co0 2.104448 1_554
B1 Co2 2.109004 1_555
B1 Co3 2.109004 1_555
B1 Gd0 2.877744 1_565
B1 Gd0 2.877744 1_555
B1 Gd1 2.896713 1_555
B2 B3 1.750545 1_555
B2 Co4 2.051019 1_555
B2 Co5 2.051019 1_455
B2 Co3 2.104448 1_555
B2 Co1 2.109004 1_455
B2 Co0 2.109004 1_555
B2 Gd1 2.877744 1_455
B2 Gd1 2.877744 1_555
B2 Gd0 2.896713 1_556
B3 Co4 2.051019 1_565
B3 Co5 2.051019 1_465
B3 Co2 2.104448 1_555
B3 Co0 2.109004 1_555
B3 Co1 2.109004 1_455
B3 Gd1 2.877744 1_455
B3 Gd1 2.877744 1_555
B3 Gd0 2.896713 1_566
B4 B5 1.750545 1_555
B4 Co3 2.051019 1_655
B4 Co2 2.051019 1_645
B4 Co5 2.104448 1_555
B4 Co7 2.109004 1_555
B4 Co6 2.109004 1_545
B4 Gd1 2.877744 1_545
B4 Gd1 2.877744 1_555
B4 Gd0 2.896713 1_655
B5 Co3 2.051019 1_555
B5 Co2 2.051019 1_545
B5 Co4 2.104448 1_555
B5 Co6 2.109004 1_545
B5 Co7 2.109004 1_555
B5 Gd1 2.877744 1_555
B5 Gd1 2.877744 1_545
B5 Gd0 2.896713 1_555
B6 B7 1.750545 1_545
B6 Co0 2.051019 1_555
B6 Co1 2.051019 1_555
B6 Co7 2.104448 1_556
B6 Co5 2.109004 1_555
B6 Co4 2.109004 1_555
B6 Gd0 2.877744 1_656
B6 Gd0 2.877744 1_556
B6 Gd1 2.896713 1_555
B7 Co0 2.051019 1_555
B7 Co1 2.051019 1_555
B7 Co6 2.104448 1_556
B7 Co5 2.109004 1_565
B7 Co4 2.109004 1_565
B7 Gd0 2.877744 1_566
B7 Gd0 2.877744 1_666
B7 Gd1 2.896713 1_555
