# generated using pymatgen
data_Ba2V(SiO4)2
_symmetry_space_group_name_H-M   'P 1'
_cell_length_a   8.51620479
_cell_length_b   8.51620479
_cell_length_c   5.25487976
_cell_angle_alpha   90.00000000
_cell_angle_beta   90.00000000
_cell_angle_gamma   90.00000000
_symmetry_Int_Tables_number   1
_chemical_formula_structural   Ba2V(SiO4)2
_chemical_formula_sum   'Ba4 V2 Si4 O16'
_cell_volume   381.11406436
_cell_formula_units_Z   2
loop_
 _symmetry_equiv_pos_site_id
 _symmetry_equiv_pos_as_xyz
  1  'x, y, z'
loop_
 _atom_site_type_symbol
 _atom_site_label
 _atom_site_symmetry_multiplicity
 _atom_site_fract_x
 _atom_site_fract_y
 _atom_site_fract_z
 _atom_site_occupancy
  Ba  Ba0  1  0.17132179  0.67132179  0.99905562  1
  Ba  Ba1  1  0.67132179  0.82867821  0.99905562  1
  Ba  Ba2  1  0.32867821  0.17132179  0.99905562  1
  Ba  Ba3  1  0.82867821  0.32867821  0.99905562  1
  V  V0  1  0.50000000  0.50000000  0.53794822  1
  V  V1  1  -0.00000000  0.00000000  0.53794822  1
  Si  Si0  1  0.37045013  0.87045013  0.52004328  1
  Si  Si1  1  0.87045013  0.62954987  0.52004328  1
  Si  Si2  1  0.12954987  0.37045013  0.52004328  1
  Si  Si3  1  0.62954987  0.12954987  0.52004328  1
  O  O0  1  0.50000000  0.50000000  0.22510632  1
  O  O1  1  -0.00000000  0.00000000  0.22510632  1
  O  O2  1  0.79427798  0.07716512  0.65194267  1
  O  O3  1  0.20572202  0.92283488  0.65194267  1
  O  O4  1  0.92283488  0.79427798  0.65194267  1
  O  O5  1  0.07716512  0.20572202  0.65194267  1
  O  O6  1  0.42283488  0.70572202  0.65194267  1
  O  O7  1  0.70572202  0.57716512  0.65194267  1
  O  O8  1  0.29427798  0.42283488  0.65194267  1
  O  O9  1  0.57716512  0.29427798  0.65194267  1
  O  O10  1  0.50000000  0.00000000  0.63081349  1
  O  O11  1  -0.00000000  0.50000000  0.63081349  1
  O  O12  1  0.62865892  0.12865892  0.21643175  1
  O  O13  1  0.12865892  0.37134108  0.21643175  1
  O  O14  1  0.87134108  0.62865892  0.21643175  1
  O  O15  1  0.37134108  0.87134108  0.21643175  1
loop_
_geom_bond_atom_site_label_1
_geom_bond_atom_site_label_2
_geom_bond_distance
_geom_bond_site_symmetry_2
Ba0 O15 2.666082 1_556
Ba0 O14 2.821932 1_456
Ba0 O13 2.821932 1_556
Ba0 O6 2.828574 1_555
Ba0 O3 2.828574 1_555
Ba0 O11 2.828766 1_555
Ba0 O8 2.983576 1_555
Ba0 O4 2.983576 1_455
Ba0 O0 3.372634 1_556
Ba0 O1 3.372634 1_566
Ba1 O14 2.666082 1_556
Ba1 O12 2.821932 1_566
Ba1 O15 2.821932 1_556
Ba1 O7 2.828574 1_555
Ba1 O4 2.828574 1_555
Ba1 O10 2.828766 1_565
Ba1 O6 2.983576 1_555
Ba1 O2 2.983576 1_565
Ba1 O0 3.372634 1_556
Ba1 O1 3.372634 1_666
Ba2 O13 2.666082 1_556
Ba2 O12 2.821932 1_556
Ba2 O15 2.821932 1_546
Ba2 O5 2.828574 1_555
Ba2 O8 2.828574 1_555
Ba2 O10 2.828766 1_555
Ba2 O9 2.983576 1_555
Ba2 O3 2.983576 1_545
Ba2 O0 3.372634 1_556
Ba2 O1 3.372634 1_556
Ba3 O12 2.666082 1_556
Ba3 O13 2.821932 1_656
Ba3 O14 2.821932 1_556
Ba3 O2 2.828574 1_555
Ba3 O9 2.828574 1_555
Ba3 O11 2.828766 1_655
Ba3 O7 2.983576 1_555
Ba3 O5 2.983576 1_655
Ba3 O0 3.372634 1_556
Ba3 O1 3.372634 1_656
O0 V0 1.643947 1_555
O1 V1 1.643947 1_555
O2 Si3 1.627096 1_555
O2 V1 1.964710 1_655
O3 Si0 1.627096 1_555
O3 V1 1.964710 1_565
O4 Si1 1.627096 1_555
O4 V1 1.964710 1_665
O5 Si2 1.627096 1_555
O5 V1 1.964710 1_555
O6 Si0 1.627096 1_555
O6 V0 1.964710 1_555
O7 Si1 1.627096 1_555
O7 V0 1.964710 1_555
O8 Si2 1.627096 1_555
O8 V0 1.964710 1_555
O9 Si3 1.627096 1_555
O9 V0 1.964710 1_555
O10 Si0 1.665306 1_545
O10 Si3 1.665306 1_555
O11 Si1 1.665306 1_455
O11 Si2 1.665306 1_555
O12 Si3 1.595478 1_555
O13 Si2 1.595478 1_555
O14 Si1 1.595478 1_555
O15 Si0 1.595478 1_555
