# generated using pymatgen
data_ErGa6
_symmetry_space_group_name_H-M   'P 1'
_cell_length_a   5.89158931
_cell_length_b   5.89158931
_cell_length_c   7.46718812
_cell_angle_alpha   89.99979438
_cell_angle_beta   89.99979438
_cell_angle_gamma   89.99984187
_symmetry_Int_Tables_number   1
_chemical_formula_structural   ErGa6
_chemical_formula_sum   'Er2 Ga12'
_cell_volume   259.19225707
_cell_formula_units_Z   2
loop_
 _symmetry_equiv_pos_site_id
 _symmetry_equiv_pos_as_xyz
  1  'x, y, z'
loop_
 _atom_site_type_symbol
 _atom_site_label
 _atom_site_symmetry_multiplicity
 _atom_site_fract_x
 _atom_site_fract_y
 _atom_site_fract_z
 _atom_site_occupancy
  Er  Er0  1  0.50001234  0.00001234  0.00000169  1
  Er  Er1  1  0.99998796  0.49998796  0.99999619  1
  Ga  Ga0  1  0.49999650  0.50000389  0.16142767  1
  Ga  Ga1  1  0.00000389  -0.00000350  0.16142767  1
  Ga  Ga2  1  0.00000353  -0.00000414  0.83857374  1
  Ga  Ga3  1  0.49999586  0.50000353  0.83857374  1
  Ga  Ga4  1  0.82182078  0.67818055  0.35156628  1
  Ga  Ga5  1  0.32181980  0.82181980  0.35156783  1
  Ga  Ga6  1  0.67818184  0.17818184  0.35157054  1
  Ga  Ga7  1  0.17818055  0.32182078  0.35156628  1
  Ga  Ga8  1  0.67817925  0.82181944  0.64843359  1
  Ga  Ga9  1  0.17817959  0.67817959  0.64843176  1
  Ga  Ga10  1  0.82181769  0.32181769  0.64842945  1
  Ga  Ga11  1  0.32181944  0.17817925  0.64843359  1
loop_
_geom_bond_atom_site_label_1
_geom_bond_atom_site_label_2
_geom_bond_distance
_geom_bond_site_symmetry_2
Er0 Ga6 3.015896 1_555
Er0 Ga11 3.015925 1_554
Er0 Ga8 3.015925 1_544
Er0 Ga5 3.015960 1_545
Er0 Ga3 3.182828 1_554
Er0 Ga2 3.182828 1_654
Er0 Ga1 3.182833 1_655
Er0 Ga0 3.182833 1_555
Er0 Ga0 3.182917 1_545
Er0 Ga1 3.182917 1_555
Er0 Ga2 3.182932 1_554
Er0 Ga3 3.182932 1_544
Er1 Ga10 3.015885 1_555
Er1 Ga4 3.015938 1_556
Er1 Ga7 3.015938 1_656
Er1 Ga9 3.015945 1_655
Er1 Ga3 3.182826 1_555
Er1 Ga2 3.182826 1_655
Er1 Ga1 3.182840 1_656
Er1 Ga0 3.182840 1_556
Er1 Ga2 3.182904 1_665
Er1 Ga3 3.182904 1_655
Er1 Ga0 3.182941 1_656
Er1 Ga1 3.182941 1_666
Ga0 Ga3 2.410811 1_554
Ga0 Ga5 2.590882 1_555
Ga0 Ga7 2.590888 1_555
Ga0 Ga4 2.590920 1_555
Ga0 Ga6 2.590937 1_555
Ga1 Ga2 2.410811 1_554
Ga1 Ga5 2.590882 1_545
Ga1 Ga4 2.590888 1_445
Ga1 Ga7 2.590920 1_555
Ga1 Ga6 2.590937 1_455
Ga2 Ga9 2.590890 1_545
Ga2 Ga8 2.590926 1_445
Ga3 Ga9 2.590890 1_555
Ga3 Ga8 2.590895 1_555
Ga4 Ga8 2.519203 1_555
Ga5 Ga9 2.519177 1_555
Ga10 Ga6 2.519137 1_555
Ga10 Ga3 2.590943 1_555
Ga10 Ga2 2.590943 1_655
Ga11 Ga7 2.519203 1_555
Ga11 Ga2 2.590895 1_555
Ga11 Ga3 2.590926 1_555
