# generated using pymatgen
data_Ba2Tl2Sn3O10
_symmetry_space_group_name_H-M   'P 1'
_cell_length_a   3.90439500
_cell_length_b   3.92988807
_cell_length_c   19.64355103
_cell_angle_alpha   87.80283013
_cell_angle_beta   88.82586418
_cell_angle_gamma   89.85799558
_symmetry_Int_Tables_number   1
_chemical_formula_structural   Ba2Tl2Sn3O10
_chemical_formula_sum   'Ba2 Tl2 Sn3 O10'
_cell_volume   301.12215040
_cell_formula_units_Z   1
loop_
 _symmetry_equiv_pos_site_id
 _symmetry_equiv_pos_as_xyz
  1  'x, y, z'
loop_
 _atom_site_type_symbol
 _atom_site_label
 _atom_site_symmetry_multiplicity
 _atom_site_fract_x
 _atom_site_fract_y
 _atom_site_fract_z
 _atom_site_occupancy
  Ba  Ba0  1  0.17586400  0.18625000  0.70633200  1
  Ba  Ba1  1  0.73426600  0.78470600  0.29444000  1
  Tl  Tl0  1  0.71747800  0.66774400  0.55939900  1
  Tl  Tl1  1  0.23352600  0.19526600  0.44066200  1
  Sn  Sn0  1  0.23948200  0.31846900  0.16305700  1
  Sn  Sn1  1  0.65455800  0.67335200  0.83761100  1
  Sn  Sn2  1  0.70463000  0.23742300  0.00296200  1
  O  O0  1  0.73703900  0.31067400  0.19676600  1
  O  O1  1  0.23868700  0.26966100  0.33663400  1
  O  O2  1  0.23902400  0.81191900  0.19769000  1
  O  O3  1  0.73543900  0.82495200  0.45451300  1
  O  O4  1  0.64233900  0.68125100  0.93998300  1
  O  O5  1  0.65825700  0.17806400  0.80440600  1
  O  O6  1  0.69114900  0.68598100  0.66384900  1
  O  O7  1  0.15805100  0.67504200  0.80227200  1
  O  O8  1  0.22295700  0.30366500  0.54601200  1
  O  O9  1  0.23595900  0.34604800  0.06035500  1
loop_
_geom_bond_atom_site_label_1
_geom_bond_atom_site_label_2
_geom_bond_distance
_geom_bond_site_symmetry_2
Ba0 O7 2.701410 1_545
Ba0 O5 2.720950 1_555
Ba0 O7 2.741889 1_555
Ba0 O5 2.762741 1_455
Ba0 O6 2.838227 1_455
Ba0 O6 2.890013 1_445
Ba0 O6 2.902762 1_555
Ba0 O6 2.940512 1_545
Ba0 O8 3.166985 1_555
Ba1 O2 2.709115 1_655
Ba1 O0 2.724862 1_555
Ba1 O2 2.737932 1_555
Ba1 O0 2.765688 1_565
Ba1 O1 2.846088 1_565
Ba1 O1 2.890132 1_555
Ba1 O1 2.899054 1_665
Ba1 O1 2.929352 1_655
Ba1 O3 3.154525 1_555
O0 Sn0 2.057502 1_655
O0 Sn0 2.064992 1_555
O1 Tl1 2.052857 1_555
O2 Sn0 2.078890 1_565
O2 Sn0 2.079527 1_555
O3 Tl0 2.127974 1_555
O3 Tl1 2.436361 1_665
O3 Tl1 2.451439 1_565
O4 Sn1 2.011966 1_555
O4 Sn2 2.115805 1_556
O4 Sn2 2.566944 1_566
O5 Sn1 2.064057 1_545
O5 Sn1 2.076308 1_555
O6 Tl0 2.056223 1_555
O7 Sn1 2.071287 1_455
O7 Sn1 2.072361 1_555
O8 Tl1 2.128333 1_555
O8 Tl0 2.430570 1_555
O8 Tl0 2.450500 1_455
O9 Sn0 2.016515 1_555
O9 Sn2 2.179495 1_555
O9 Sn2 2.427763 1_455
