# generated using pymatgen
data_K3Yb(SO4)3
_symmetry_space_group_name_H-M   'P 1'
_cell_length_a   9.35330944
_cell_length_b   9.35330944
_cell_length_c   9.35022472
_cell_angle_alpha   71.38026683
_cell_angle_beta   71.38026683
_cell_angle_gamma   110.90146591
_symmetry_Int_Tables_number   1
_chemical_formula_structural   K3Yb(SO4)3
_chemical_formula_sum   'K6 Yb2 S6 O24'
_cell_volume   631.55396423
_cell_formula_units_Z   2
loop_
 _symmetry_equiv_pos_site_id
 _symmetry_equiv_pos_as_xyz
  1  'x, y, z'
loop_
 _atom_site_type_symbol
 _atom_site_label
 _atom_site_symmetry_multiplicity
 _atom_site_fract_x
 _atom_site_fract_y
 _atom_site_fract_z
 _atom_site_occupancy
  K  K0  1  0.83901100  0.81616500  0.61328600  1
  K  K1  1  0.81616400  0.83901100  0.11328600  1
  K  K2  1  0.94542300  0.45212300  0.85330300  1
  K  K3  1  0.45212300  0.94542300  0.35330300  1
  K  K4  1  0.16757900  0.30384300  0.51749300  1
  K  K5  1  0.30384300  0.16757900  0.01749300  1
  Yb  Yb0  1  0.65795700  0.33968200  0.50544100  1
  Yb  Yb1  1  0.33968200  0.65795700  0.00544100  1
  S  S0  1  0.64699000  0.02757200  0.86322300  1
  S  S1  1  0.02757200  0.64699000  0.36322300  1
  S  S2  1  0.22571800  0.94040800  0.73932300  1
  S  S3  1  0.94040800  0.22571800  0.23932300  1
  S  S4  1  0.44712800  0.56777800  0.63831900  1
  S  S5  1  0.56777800  0.44712800  0.13831900  1
  O  O0  1  0.61083100  0.16451300  0.77643100  1
  O  O1  1  0.16451300  0.61083100  0.27643100  1
  O  O2  1  0.43575100  0.57660700  0.79864000  1
  O  O3  1  0.57660700  0.43575100  0.29864000  1
  O  O4  1  0.82715400  0.11210100  0.83687400  1
  O  O5  1  0.11210100  0.82715400  0.33687400  1
  O  O6  1  0.48086700  0.42198800  0.64440500  1
  O  O7  1  0.42198800  0.48086700  0.14440500  1
  O  O8  1  0.40676800  0.07904800  0.58929000  1
  O  O9  1  0.07904800  0.40676800  0.08929000  1
  O  O10  1  0.91835800  0.51204900  0.55102300  1
  O  O11  1  0.51204900  0.91835800  0.05102300  1
  O  O12  1  0.62549700  0.90606900  0.78926800  1
  O  O13  1  0.90606900  0.62549700  0.28926800  1
  O  O14  1  0.11522000  0.87187200  0.66692300  1
  O  O15  1  0.87187200  0.11522000  0.16692300  1
  O  O16  1  0.15564200  0.01504800  0.84099700  1
  O  O17  1  0.01504800  0.15564200  0.34099700  1
  O  O18  1  0.79700700  0.24270400  0.34664200  1
  O  O19  1  0.24270400  0.79700700  0.84664200  1
  O  O20  1  0.28158900  0.53172200  0.63398400  1
  O  O21  1  0.53172200  0.28158900  0.13398400  1
  O  O22  1  0.59622000  0.73800100  0.48513500  1
  O  O23  1  0.73800100  0.59622000  0.98513500  1
loop_
_geom_bond_atom_site_label_1
_geom_bond_atom_site_label_2
_geom_bond_distance
_geom_bond_site_symmetry_2
K0 O14 2.689066 1_655
K0 O12 2.717784 1_555
K0 O17 2.775894 1_665
K0 O22 2.870479 1_555
K0 O5 2.939752 1_655
K0 O23 3.026788 1_555
K0 O2 3.092974 1_555
K0 O10 3.356889 1_555
K1 O15 2.689065 1_565
K1 O13 2.717791 1_555
K1 O16 2.775900 1_664
K1 O23 2.870478 1_554
K1 O4 2.939747 1_564
K1 O22 3.026786 1_555
K1 O3 3.092973 1_555
K1 O11 3.356880 1_555
K2 O20 2.807720 1_655
K2 O10 2.813044 1_555
K2 O9 2.855252 1_656
K2 O23 2.915372 1_555
K2 O4 3.045001 1_555
K2 O15 3.204122 1_556
K2 O14 3.222994 1_655
K2 O21 3.292847 1_556
K2 O19 3.391513 1_655
K3 O21 2.807720 1_565
K3 O11 2.813044 1_555
K3 O8 2.855252 1_565
K3 O22 2.915372 1_555
K3 O5 3.045001 1_555
K3 O14 3.204122 1_555
K3 O15 3.222994 1_565
K3 O20 3.292847 1_555
K3 O18 3.391513 1_565
K4 O20 2.732937 1_555
K4 O17 2.869395 1_555
K4 O4 2.950645 1_455
K4 O7 2.961878 1_555
K4 O1 3.048466 1_555
K4 O3 3.219747 1_555
K4 O16 3.287875 1_555
K5 O21 2.732937 1_555
K5 O16 2.869395 1_554
K5 O5 2.950645 1_545
K5 O6 2.961878 1_554
K5 O0 3.048466 1_554
K5 O2 3.219747 1_554
K5 O17 3.287875 1_555
O0 S0 1.494702 1_555
O0 Yb0 2.327966 1_555
O1 S1 1.494702 1_555
O1 Yb1 2.327966 1_555
O2 S4 1.499571 1_555
O2 Yb1 2.333060 1_556
O3 S5 1.499571 1_555
O3 Yb0 2.333060 1_555
O4 S0 1.478283 1_555
O5 S1 1.478283 1_555
O6 S4 1.493733 1_555
O6 Yb0 2.280083 1_555
O7 S5 1.493733 1_555
O7 Yb1 2.280083 1_555
O8 S2 1.507214 1_545
O8 Yb0 2.365166 1_555
O9 S3 1.507214 1_455
O9 Yb1 2.365166 1_555
O10 S1 1.496428 1_655
O10 Yb0 2.648189 1_555
O11 S0 1.496428 1_564
O11 Yb1 2.648189 1_555
O12 S0 1.495891 1_565
O12 Yb1 2.396909 1_556
O13 S1 1.495891 1_655
O13 Yb0 2.396909 1_555
O14 S2 1.479367 1_555
O15 S3 1.479367 1_555
O16 S2 1.474173 1_545
O17 S3 1.474173 1_455
O18 S3 1.491836 1_555
O18 Yb0 2.277621 1_555
O19 S2 1.491836 1_555
O19 Yb1 2.277621 1_556
O20 S4 1.479511 1_555
O21 S5 1.479511 1_555
O22 S4 1.488351 1_555
O23 S5 1.488351 1_556
