# generated using pymatgen
data_HfTe3Se8
_symmetry_space_group_name_H-M   'P 1'
_cell_length_a   7.27136200
_cell_length_b   8.05376601
_cell_length_c   13.24083579
_cell_angle_alpha   96.23143639
_cell_angle_beta   99.13108983
_cell_angle_gamma   102.40308061
_symmetry_Int_Tables_number   1
_chemical_formula_structural   HfTe3Se8
_chemical_formula_sum   'Hf2 Te6 Se16'
_cell_volume   739.48902438
_cell_formula_units_Z   2
loop_
 _symmetry_equiv_pos_site_id
 _symmetry_equiv_pos_as_xyz
  1  'x, y, z'
loop_
 _atom_site_type_symbol
 _atom_site_label
 _atom_site_symmetry_multiplicity
 _atom_site_fract_x
 _atom_site_fract_y
 _atom_site_fract_z
 _atom_site_occupancy
  Hf  Hf0  1  0.89806700  0.24335700  0.00199400  1
  Hf  Hf1  1  0.10193300  0.75664300  0.99800600  1
  Te  Te0  1  0.93833800  0.32682300  0.60662200  1
  Te  Te1  1  0.07052700  0.13658800  0.28157300  1
  Te  Te2  1  0.92947300  0.86341200  0.71842700  1
  Te  Te3  1  0.51116200  0.54066600  0.18334800  1
  Te  Te4  1  0.06166200  0.67317700  0.39337800  1
  Te  Te5  1  0.48883800  0.45933400  0.81665200  1
  Se  Se0  1  0.74837900  0.20829700  0.16224800  1
  Se  Se1  1  0.73445600  0.76895700  0.34594000  1
  Se  Se2  1  0.15642300  0.68867700  0.59273700  1
  Se  Se3  1  0.63861600  0.58767200  0.65683500  1
  Se  Se4  1  0.36138400  0.41232800  0.34316500  1
  Se  Se5  1  0.37455200  0.81290200  0.16751700  1
  Se  Se6  1  0.78354600  0.54873000  0.01861300  1
  Se  Se7  1  0.81007500  0.90927900  0.90377600  1
  Se  Se8  1  0.84357700  0.31132300  0.40726300  1
  Se  Se9  1  0.62544800  0.18709800  0.83248300  1
  Se  Se10  1  0.26917200  0.99580900  0.42939000  1
  Se  Se11  1  0.73082800  0.00419100  0.57061000  1
  Se  Se12  1  0.18992500  0.09072100  0.09622400  1
  Se  Se13  1  0.26554400  0.23104300  0.65406000  1
  Se  Se14  1  0.21645400  0.45127000  0.98138700  1
  Se  Se15  1  0.25162100  0.79170300  0.83775200  1
loop_
_geom_bond_atom_site_label_1
_geom_bond_atom_site_label_2
_geom_bond_distance
_geom_bond_site_symmetry_2
Hf0 Se0 2.549105 1_555
Hf0 Se14 2.621534 1_654
Hf0 Se9 2.674649 1_554
Hf0 Se7 2.752577 1_544
Hf0 Se6 2.758796 1_555
Hf0 Se12 2.860925 1_655
Hf1 Se15 2.549105 1_555
Hf1 Se6 2.621534 1_456
Hf1 Se5 2.674649 1_556
Hf1 Se12 2.752577 1_566
Hf1 Se14 2.758796 1_555
Hf1 Se7 2.860925 1_455
Se0 Te1 2.814515 1_655
Se1 Te4 2.658872 1_655
Se1 Te3 2.720363 1_555
Se2 Te4 2.602404 1_555
Se2 Te2 2.972247 1_455
Se2 Te0 3.043872 1_455
Se3 Te2 2.666745 1_555
Se3 Te5 2.730402 1_555
Se4 Te1 2.666745 1_555
Se4 Te3 2.730402 1_555
Se5 Te3 2.609042 1_555
Se6 Te5 3.059734 1_554
Se6 Te3 3.167242 1_555
Se7 Te2 2.744157 1_555
Se8 Te0 2.602404 1_555
Se8 Te1 2.972247 1_655
Se8 Te4 3.043872 1_655
Se9 Te5 2.609042 1_555
Se10 Te4 2.659742 1_555
Se10 Te1 2.736887 1_565
Se11 Te0 2.659742 1_555
Se11 Te2 2.736887 1_545
Se12 Te1 2.744157 1_555
Se13 Te0 2.658872 1_455
Se13 Te5 2.720363 1_555
Se14 Te3 3.059734 1_556
Se14 Te5 3.167242 1_555
Se15 Te2 2.814515 1_455
