# generated using pymatgen
data_AsRuS
_symmetry_space_group_name_H-M   'P 1'
_cell_length_a   5.91002512
_cell_length_b   5.92387066
_cell_length_c   5.96973355
_cell_angle_alpha   68.88044803
_cell_angle_beta   90.00000000
_cell_angle_gamma   90.00000000
_symmetry_Int_Tables_number   1
_chemical_formula_structural   AsRuS
_chemical_formula_sum   'As4 Ru4 S4'
_cell_volume   194.96319850
_cell_formula_units_Z   4
loop_
 _symmetry_equiv_pos_site_id
 _symmetry_equiv_pos_as_xyz
  1  'x, y, z'
loop_
 _atom_site_type_symbol
 _atom_site_label
 _atom_site_symmetry_multiplicity
 _atom_site_fract_x
 _atom_site_fract_y
 _atom_site_fract_z
 _atom_site_occupancy
  As  As0  1  0.87371608  0.64980970  0.62821744  1
  As  As1  1  0.12628392  0.35019030  0.37178256  1
  As  As2  1  0.37371608  0.35019030  0.87178256  1
  As  As3  1  0.62628392  0.64980970  0.12821744  1
  Ru  Ru0  1  0.49477345  0.78401182  0.70356387  1
  Ru  Ru1  1  0.50522655  0.21598818  0.29643613  1
  Ru  Ru2  1  0.99477345  0.21598818  0.79643613  1
  Ru  Ru3  1  0.00522655  0.78401182  0.20356387  1
  S  S0  1  0.12613574  0.84276878  0.81508558  1
  S  S1  1  0.87386426  0.15723122  0.18491442  1
  S  S2  1  0.62613574  0.15723122  0.68491442  1
  S  S3  1  0.37386426  0.84276878  0.31508558  1
loop_
_geom_bond_atom_site_label_1
_geom_bond_atom_site_label_2
_geom_bond_distance
_geom_bond_site_symmetry_2
As0 S0 2.386515 1_655
As0 Ru0 2.471367 1_555
As0 Ru3 2.492056 1_655
As0 Ru2 2.502991 1_555
As1 S1 2.386515 1_455
As1 Ru1 2.471367 1_555
As1 Ru2 2.492056 1_455
As1 Ru3 2.502991 1_555
As2 S2 2.386515 1_555
As2 Ru2 2.471367 1_455
As2 Ru1 2.492056 1_556
As2 Ru0 2.502991 1_555
As3 S3 2.386515 1_555
As3 Ru3 2.471367 1_655
As3 Ru0 2.492056 1_554
As3 Ru1 2.502991 1_555
Ru0 S2 2.307777 1_565
Ru0 S3 2.329882 1_555
Ru0 S0 2.340496 1_555
Ru1 S3 2.307777 1_545
Ru1 S2 2.329882 1_555
Ru1 S1 2.340496 1_555
Ru2 S0 2.307777 1_645
Ru2 S1 2.329882 1_556
Ru2 S2 2.340496 1_555
Ru3 S1 2.307777 1_465
Ru3 S0 2.329882 1_554
Ru3 S3 2.340496 1_555
