# generated using pymatgen
data_TeMo6
_symmetry_space_group_name_H-M   'P 1'
_cell_length_a   9.29719297
_cell_length_b   9.29719297
_cell_length_c   5.33723200
_cell_angle_alpha   90.00000000
_cell_angle_beta   90.00000000
_cell_angle_gamma   146.50112390
_symmetry_Int_Tables_number   1
_chemical_formula_structural   TeMo6
_chemical_formula_sum   'Te2 Mo12'
_cell_volume   254.62227680
_cell_formula_units_Z   2
loop_
 _symmetry_equiv_pos_site_id
 _symmetry_equiv_pos_as_xyz
  1  'x, y, z'
loop_
 _atom_site_type_symbol
 _atom_site_label
 _atom_site_symmetry_multiplicity
 _atom_site_fract_x
 _atom_site_fract_y
 _atom_site_fract_z
 _atom_site_occupancy
  Te  Te0  1  0.00000000  0.00000000  0.00000000  1
  Te  Te1  1  0.50000000  0.50000000  0.50000000  1
  Mo  Mo0  1  0.25085100  0.74914900  0.00000000  1
  Mo  Mo1  1  0.24914900  0.75085100  0.50000000  1
  Mo  Mo2  1  0.74914900  0.25085100  0.00000000  1
  Mo  Mo3  1  0.75085100  0.24914900  0.50000000  1
  Mo  Mo4  1  0.30187600  0.05003100  0.26161200  1
  Mo  Mo5  1  0.55003100  0.80187600  0.23838800  1
  Mo  Mo6  1  0.19812400  0.44996900  0.76161200  1
  Mo  Mo7  1  0.94996900  0.69812400  0.73838800  1
  Mo  Mo8  1  0.69812400  0.94996900  0.73838800  1
  Mo  Mo9  1  0.44996900  0.19812400  0.76161200  1
  Mo  Mo10  1  0.80187600  0.55003100  0.23838800  1
  Mo  Mo11  1  0.05003100  0.30187600  0.26161200  1
loop_
_geom_bond_atom_site_label_1
_geom_bond_atom_site_label_2
_geom_bond_distance
_geom_bond_site_symmetry_2
Mo0 Mo1 2.668788 1_554
Mo0 Mo1 2.668788 1_555
Mo0 Mo2 2.679500 1_565
Mo0 Mo2 2.679500 1_455
Mo0 Mo5 2.705912 1_555
Mo0 Mo6 2.705912 1_554
Mo0 Mo4 2.790456 1_565
Mo0 Mo7 2.790456 1_454
Mo0 Mo10 3.095501 1_455
Mo0 Mo9 3.095501 1_564
Mo0 Mo11 3.127139 1_555
Mo0 Mo8 3.127139 1_554
Mo1 Mo3 2.679500 1_565
Mo1 Mo3 2.679500 1_455
Mo1 Mo7 2.705912 1_455
Mo1 Mo4 2.705912 1_565
Mo1 Mo5 2.790456 1_555
Mo1 Mo6 2.790456 1_555
Mo1 Mo11 3.095501 1_555
Mo1 Mo8 3.095501 1_555
Mo1 Mo10 3.127139 1_455
Mo1 Mo9 3.127139 1_565
Mo2 Mo3 2.668788 1_555
Mo2 Mo3 2.668788 1_554
Mo2 Mo9 2.705912 1_554
Mo2 Mo8 2.790456 1_544
Mo2 Mo5 3.095501 1_545
Mo2 Mo6 3.095501 1_654
Mo2 Mo4 3.127139 1_555
Mo2 Mo7 3.127139 1_554
Mo3 Mo8 2.705912 1_545
Mo3 Mo9 2.790456 1_555
Mo3 Mo4 3.095501 1_555
Mo3 Mo7 3.095501 1_555
Mo3 Mo5 3.127139 1_545
Mo3 Mo6 3.127139 1_655
Mo4 Mo9 2.784112 1_555
Mo4 Mo9 2.784112 1_554
Mo4 Te0 2.804585 1_555
Mo4 Te1 3.108243 1_555
Mo5 Mo8 2.784112 1_555
Mo5 Mo8 2.784112 1_554
Mo5 Te1 2.804585 1_555
Mo5 Te0 3.108243 1_665
Mo6 Mo8 2.682195 1_445
Mo6 Mo8 2.682195 1_555
Mo6 Te1 2.804585 1_555
Mo6 Te0 3.108243 1_556
Mo7 Mo9 2.682195 1_665
Mo7 Mo9 2.682195 1_555
Mo7 Te0 2.804585 1_666
Mo7 Te1 3.108243 1_555
Mo8 Te0 2.804585 1_666
Mo8 Te1 3.108243 1_555
Mo9 Te1 2.804585 1_555
Mo9 Te0 3.108243 1_556
Mo10 Mo4 2.682195 1_555
Mo10 Mo4 2.682195 1_665
Mo10 Mo2 2.705912 1_555
Mo10 Mo7 2.784112 1_555
Mo10 Mo7 2.784112 1_554
Mo10 Mo3 2.790456 1_555
Mo10 Te1 2.804585 1_555
Mo10 Te0 3.108243 1_665
Mo11 Mo5 2.682195 1_555
Mo11 Mo5 2.682195 1_445
Mo11 Mo3 2.705912 1_455
Mo11 Mo6 2.784112 1_555
Mo11 Mo6 2.784112 1_554
Mo11 Mo2 2.790456 1_455
Mo11 Te0 2.804585 1_555
Mo11 Te1 3.108243 1_555
