# generated using pymatgen
data_Zr2P2WO12
_symmetry_space_group_name_H-M   'P 1'
_cell_length_a   12.57991500
_cell_length_b   9.35235800
_cell_length_c   9.52099600
_cell_angle_alpha   90.00000000
_cell_angle_beta   90.00000000
_cell_angle_gamma   90.00000000
_symmetry_Int_Tables_number   1
_chemical_formula_structural   Zr2P2WO12
_chemical_formula_sum   'Zr8 P8 W4 O48'
_cell_volume   1120.16297119
_cell_formula_units_Z   4
loop_
 _symmetry_equiv_pos_site_id
 _symmetry_equiv_pos_as_xyz
  1  'x, y, z'
loop_
 _atom_site_type_symbol
 _atom_site_label
 _atom_site_symmetry_multiplicity
 _atom_site_fract_x
 _atom_site_fract_y
 _atom_site_fract_z
 _atom_site_occupancy
  Zr  Zr0  1  0.13020600  0.72490700  0.45299300  1
  Zr  Zr1  1  0.63020600  0.77509300  0.54700700  1
  Zr  Zr2  1  0.13020600  0.27509300  0.95299300  1
  Zr  Zr3  1  0.36979400  0.77509300  0.95299300  1
  Zr  Zr4  1  0.63020600  0.22490700  0.04700700  1
  Zr  Zr5  1  0.36979400  0.22490700  0.45299300  1
  Zr  Zr6  1  0.86979400  0.27509300  0.54700700  1
  Zr  Zr7  1  0.86979400  0.72490700  0.04700700  1
  P  P0  1  0.14285500  0.38139900  0.60373600  1
  P  P1  1  0.85714500  0.38139900  0.89626400  1
  P  P2  1  0.35714500  0.11860100  0.10373600  1
  P  P3  1  0.64285500  0.11860100  0.39626400  1
  P  P4  1  0.85714500  0.61860100  0.39626400  1
  P  P5  1  0.14285500  0.61860100  0.10373600  1
  P  P6  1  0.64285500  0.88139900  0.89626400  1
  P  P7  1  0.35714500  0.88139900  0.60373600  1
  W  W0  1  0.50000000  0.53846000  0.25000000  1
  W  W1  1  0.50000000  0.46154000  0.75000000  1
  W  W2  1  0.00000000  0.03846000  0.25000000  1
  W  W3  1  0.00000000  0.96154000  0.75000000  1
  O  O0  1  0.67271800  0.14192400  0.23994400  1
  O  O1  1  0.32728200  0.14192400  0.26005600  1
  O  O2  1  0.82728200  0.35807600  0.73994400  1
  O  O3  1  0.17271800  0.35807600  0.76005600  1
  O  O4  1  0.32728200  0.85807600  0.76005600  1
  O  O5  1  0.67271800  0.85807600  0.73994400  1
  O  O6  1  0.17271800  0.64192400  0.26005600  1
  O  O7  1  0.82728200  0.64192400  0.23994400  1
  O  O8  1  0.59348700  0.42556600  0.15760400  1
  O  O9  1  0.40651300  0.42556600  0.34239600  1
  O  O10  1  0.90651300  0.07443400  0.65760400  1
  O  O11  1  0.09348700  0.07443400  0.84239600  1
  O  O12  1  0.40651300  0.57443400  0.84239600  1
  O  O13  1  0.59348700  0.57443400  0.65760400  1
  O  O14  1  0.09348700  0.92556600  0.34239600  1
  O  O15  1  0.90651300  0.92556600  0.15760400  1
  O  O16  1  0.22029500  0.70207000  0.00817400  1
  O  O17  1  0.22029500  0.29793000  0.50817400  1
  O  O18  1  0.72029500  0.20207000  0.49182600  1
  O  O19  1  0.27970500  0.20207000  0.00817400  1
  O  O20  1  0.92797900  0.84874300  0.87166100  1
  O  O21  1  0.07202100  0.84874300  0.62833900  1
  O  O22  1  0.57202100  0.65125700  0.37166100  1
  O  O23  1  0.42797900  0.65125700  0.12833900  1
  O  O24  1  0.07202100  0.15125700  0.12833900  1
  O  O25  1  0.92797900  0.15125700  0.37166100  1
  O  O26  1  0.42797900  0.34874300  0.62833900  1
  O  O27  1  0.57202100  0.34874300  0.87166100  1
  O  O28  1  0.84837200  0.54237000  0.93073500  1
  O  O29  1  0.15162800  0.54237000  0.56926500  1
  O  O30  1  0.65162800  0.95763000  0.43073500  1
  O  O31  1  0.34837200  0.95763000  0.06926500  1
  O  O32  1  0.15162800  0.45763000  0.06926500  1
  O  O33  1  0.84837200  0.45763000  0.43073500  1
  O  O34  1  0.34837200  0.04237000  0.56926500  1
  O  O35  1  0.65162800  0.04237000  0.93073500  1
  O  O36  1  0.02891600  0.67145800  0.07808200  1
  O  O37  1  0.97108400  0.67145800  0.42191800  1
  O  O38  1  0.47108400  0.82854200  0.57808200  1
  O  O39  1  0.52891600  0.82854200  0.92191800  1
  O  O40  1  0.97108400  0.32854200  0.92191800  1
  O  O41  1  0.02891600  0.32854200  0.57808200  1
  O  O42  1  0.52891600  0.17145800  0.42191800  1
  O  O43  1  0.47108400  0.17145800  0.07808200  1
  O  O44  1  0.72029500  0.79793000  0.99182600  1
  O  O45  1  0.27970500  0.79793000  0.50817400  1
  O  O46  1  0.77970500  0.70207000  0.49182600  1
  O  O47  1  0.77970500  0.29793000  0.99182600  1
loop_
_geom_bond_atom_site_label_1
_geom_bond_atom_site_label_2
_geom_bond_distance
_geom_bond_site_symmetry_2
O0 P3 1.550423 1_555
O0 Zr4 2.064634 1_555
O1 P2 1.550423 1_555
O1 Zr5 2.064634 1_555
O2 P1 1.550423 1_555
O2 Zr6 2.064634 1_555
O3 P0 1.550423 1_555
O3 Zr2 2.064634 1_555
O4 P7 1.550423 1_555
O4 Zr3 2.064634 1_555
O5 P6 1.550423 1_555
O5 Zr1 2.064634 1_555
O6 P5 1.550423 1_555
O6 Zr0 2.064634 1_555
O7 P4 1.550423 1_555
O7 Zr7 2.064634 1_555
O8 W0 1.808800 1_555
O8 Zr4 2.200892 1_555
O9 W0 1.808800 1_555
O9 Zr5 2.200892 1_555
O10 W3 1.808800 1_645
O10 Zr6 2.200892 1_555
O11 W3 1.808800 1_545
O11 Zr2 2.200892 1_555
O12 W1 1.808800 1_555
O12 Zr3 2.200892 1_555
O13 W1 1.808800 1_555
O13 Zr1 2.200892 1_555
O14 W2 1.808800 1_565
O14 Zr0 2.200892 1_555
O15 W2 1.808800 1_665
O15 Zr7 2.200892 1_555
O16 P5 1.544749 1_555
O16 Zr3 2.068671 1_554
O17 P0 1.544749 1_555
O17 Zr5 2.068671 1_555
O18 P3 1.544749 1_555
O18 Zr6 2.068671 1_555
O19 P2 1.544749 1_555
O19 Zr2 2.068671 1_554
O20 W3 1.809823 1_655
O20 Zr7 2.159682 1_556
O21 W3 1.809823 1_555
O21 Zr0 2.159682 1_555
O22 W0 1.809823 1_555
O22 Zr1 2.159682 1_555
O23 W0 1.809823 1_555
O23 Zr3 2.159682 1_554
O24 W2 1.809823 1_555
O24 Zr2 2.159682 1_554
O25 W2 1.809823 1_655
O25 Zr6 2.159682 1_555
O26 W1 1.809823 1_555
O26 Zr5 2.159682 1_555
O27 W1 1.809823 1_555
O27 Zr4 2.159682 1_556
O28 P1 1.544765 1_555
O28 Zr7 2.052436 1_556
O29 P0 1.544765 1_555
O29 Zr0 2.052436 1_555
O30 P3 1.544765 1_565
O30 Zr1 2.052436 1_555
O31 P2 1.544765 1_565
O31 Zr3 2.052436 1_554
O32 P5 1.544765 1_555
O32 Zr2 2.052436 1_554
O33 P4 1.544765 1_555
O33 Zr6 2.052436 1_555
O34 P7 1.544765 1_545
O34 Zr5 2.052436 1_555
O35 P6 1.544765 1_545
O35 Zr4 2.052436 1_556
O36 P5 1.535741 1_555
O36 Zr7 2.084317 1_455
O37 P4 1.535741 1_555
O37 Zr0 2.084317 1_655
O38 P7 1.535741 1_555
O38 Zr1 2.084317 1_555
O39 P6 1.535741 1_555
O39 Zr3 2.084317 1_555
O40 P1 1.535741 1_555
O40 Zr2 2.084317 1_655
O41 P0 1.535741 1_555
O41 Zr6 2.084317 1_455
O42 P3 1.535741 1_555
O42 Zr5 2.084317 1_555
O43 P2 1.535741 1_555
O43 Zr4 2.084317 1_555
O44 P6 1.544749 1_555
O44 Zr7 2.068671 1_556
O45 P7 1.544749 1_555
O45 Zr0 2.068671 1_555
O46 P4 1.544749 1_555
O46 Zr1 2.068671 1_555
O47 P1 1.544749 1_555
O47 Zr4 2.068671 1_556
