# generated using pymatgen
data_Zr4Br4O
_symmetry_space_group_name_H-M   'P 1'
_cell_length_a   19.71743879
_cell_length_b   19.71743879
_cell_length_c   19.71743841
_cell_angle_alpha   10.51248496
_cell_angle_beta   10.51248496
_cell_angle_gamma   10.51248617
_symmetry_Int_Tables_number   1
_chemical_formula_structural   Zr4Br4O
_chemical_formula_sum   'Zr4 Br4 O1'
_cell_volume   221.60800216
_cell_formula_units_Z   1
loop_
 _symmetry_equiv_pos_site_id
 _symmetry_equiv_pos_as_xyz
  1  'x, y, z'
loop_
 _atom_site_type_symbol
 _atom_site_label
 _atom_site_symmetry_multiplicity
 _atom_site_fract_x
 _atom_site_fract_y
 _atom_site_fract_z
 _atom_site_occupancy
  Zr  Zr0  1  0.89689300  0.89689300  0.89689300  1
  Zr  Zr1  1  0.39531100  0.39531100  0.39531100  1
  Zr  Zr2  1  0.60326100  0.60326100  0.60326100  1
  Zr  Zr3  1  0.10416200  0.10416200  0.10416200  1
  Br  Br0  1  0.30172400  0.30172400  0.30172400  1
  Br  Br1  1  0.80441100  0.80441100  0.80441100  1
  Br  Br2  1  0.19841900  0.19841900  0.19841900  1
  Br  Br3  1  0.69639900  0.69639900  0.69639900  1
  O  O0  1  0.43192100  0.43192100  0.43192100  1
loop_
_geom_bond_atom_site_label_1
_geom_bond_atom_site_label_2
_geom_bond_distance
_geom_bond_site_symmetry_2
Br0 Zr2 2.801481 1_554
Br0 Zr2 2.801482 1_545
Br0 Zr2 2.801482 1_455
Br1 Zr3 2.872680 1_665
Br1 Zr3 2.872680 1_566
Br1 Zr3 2.872680 1_656
Br2 Zr0 2.801913 1_445
Br2 Zr0 2.801914 1_454
Br2 Zr0 2.801914 1_544
Br3 Zr1 2.819181 1_556
Br3 Zr1 2.819182 1_565
Br3 Zr1 2.819182 1_655
O0 Zr3 2.111370 1_556
O0 Zr3 2.111370 1_655
O0 Zr3 2.111370 1_565
O0 Zr1 2.153416 1_555
