# generated using pymatgen
data_SrLiNdCoO4
_symmetry_space_group_name_H-M   'P 1'
_cell_length_a   3.87005945
_cell_length_b   3.35990573
_cell_length_c   8.28468873
_cell_angle_alpha   90.24118237
_cell_angle_beta   90.42046131
_cell_angle_gamma   90.26701674
_symmetry_Int_Tables_number   1
_chemical_formula_structural   SrLiNdCoO4
_chemical_formula_sum   'Sr1 Li1 Nd1 Co1 O4'
_cell_volume   107.72105634
_cell_formula_units_Z   1
loop_
 _symmetry_equiv_pos_site_id
 _symmetry_equiv_pos_as_xyz
  1  'x, y, z'
loop_
 _atom_site_type_symbol
 _atom_site_label
 _atom_site_symmetry_multiplicity
 _atom_site_fract_x
 _atom_site_fract_y
 _atom_site_fract_z
 _atom_site_occupancy
  Sr  Sr0  1  0.14728100  0.14952400  0.34746600  1
  Li  Li0  1  0.64810800  0.64421300  0.07472000  1
  Nd  Nd0  1  0.64888100  0.64318500  0.68829900  1
  Co  Co0  1  0.14827900  0.14111200  0.95249800  1
  O  O0  1  0.14685900  0.16048100  0.66990500  1
  O  O1  1  0.64724500  0.65278500  0.41614600  1
  O  O2  1  0.64663900  0.14069100  0.91123400  1
  O  O3  1  0.14528100  0.64658100  0.10639600  1
loop_
_geom_bond_atom_site_label_1
_geom_bond_atom_site_label_2
_geom_bond_distance
_geom_bond_site_symmetry_2
Li0 O3 1.939969 1_655
Li0 O3 1.965541 1_555
Li0 O2 2.153168 1_564
Li0 O2 2.162675 1_554
Nd0 O1 2.255032 1_555
Nd0 O2 2.485925 1_565
Nd0 O2 2.507610 1_555
Nd0 O0 2.528335 1_555
Nd0 O0 2.529638 1_655
Nd0 O0 2.594905 1_665
Nd0 O0 2.616895 1_565
Co0 O2 1.961220 1_555
Co0 O2 1.968767 1_455
Co0 O3 2.098682 1_546
Co0 O3 2.119491 1_556
Co0 O0 2.342340 1_555
O0 Sr0 2.671418 1_555
O1 Sr0 2.616913 1_665
O1 Sr0 2.621445 1_555
O1 Sr0 2.622029 1_565
O1 Sr0 2.639387 1_655
O3 Sr0 2.608815 1_555
O3 Sr0 2.610676 1_565
