# generated using pymatgen
data_NaLaMg30O32
_symmetry_space_group_name_H-M   'P 1'
_cell_length_a   8.63751000
_cell_length_b   8.63751000
_cell_length_c   8.63360700
_cell_angle_alpha   90.00000000
_cell_angle_beta   90.00000000
_cell_angle_gamma   90.00000000
_symmetry_Int_Tables_number   1
_chemical_formula_structural   NaLaMg30O32
_chemical_formula_sum   'Na1 La1 Mg30 O32'
_cell_volume   644.12388270
_cell_formula_units_Z   1
loop_
 _symmetry_equiv_pos_site_id
 _symmetry_equiv_pos_as_xyz
  1  'x, y, z'
loop_
 _atom_site_type_symbol
 _atom_site_label
 _atom_site_symmetry_multiplicity
 _atom_site_fract_x
 _atom_site_fract_y
 _atom_site_fract_z
 _atom_site_occupancy
  Na  Na0  1  0.50000000  0.50000000  0.00000000  1
  La  La0  1  0.00000000  0.00000000  0.00000000  1
  Mg  Mg0  1  0.50000000  0.00000000  0.00000000  1
  Mg  Mg1  1  0.00000000  0.50000000  0.00000000  1
  Mg  Mg2  1  0.00000000  0.00000000  0.50000000  1
  Mg  Mg3  1  0.50000000  0.00000000  0.50000000  1
  Mg  Mg4  1  0.00000000  0.50000000  0.50000000  1
  Mg  Mg5  1  0.50000000  0.50000000  0.50000000  1
  Mg  Mg6  1  0.26024100  0.26024100  0.00000000  1
  Mg  Mg7  1  0.73975900  0.26024100  0.00000000  1
  Mg  Mg8  1  0.26024100  0.73975900  0.00000000  1
  Mg  Mg9  1  0.73975900  0.73975900  0.00000000  1
  Mg  Mg10  1  0.25154900  0.25154900  0.50000000  1
  Mg  Mg11  1  0.74845100  0.25154900  0.50000000  1
  Mg  Mg12  1  0.25154900  0.74845100  0.50000000  1
  Mg  Mg13  1  0.74845100  0.74845100  0.50000000  1
  Mg  Mg14  1  0.25915600  0.00000000  0.25771300  1
  Mg  Mg15  1  0.74084400  0.00000000  0.25771300  1
  Mg  Mg16  1  0.25254500  0.50000000  0.24898000  1
  Mg  Mg17  1  0.74745500  0.50000000  0.24898000  1
  Mg  Mg18  1  0.25915600  0.00000000  0.74228700  1
  Mg  Mg19  1  0.74084400  0.00000000  0.74228700  1
  Mg  Mg20  1  0.25254500  0.50000000  0.75102000  1
  Mg  Mg21  1  0.74745500  0.50000000  0.75102000  1
  Mg  Mg22  1  0.00000000  0.25915600  0.25771300  1
  Mg  Mg23  1  0.50000000  0.25254500  0.24898000  1
  Mg  Mg24  1  0.00000000  0.74084400  0.25771300  1
  Mg  Mg25  1  0.50000000  0.74745500  0.24898000  1
  Mg  Mg26  1  0.00000000  0.25915600  0.74228700  1
  Mg  Mg27  1  0.50000000  0.25254500  0.75102000  1
  Mg  Mg28  1  0.00000000  0.74084400  0.74228700  1
  Mg  Mg29  1  0.50000000  0.74745500  0.75102000  1
  O  O0  1  0.00000000  0.00000000  0.26839100  1
  O  O1  1  0.50000000  0.00000000  0.25470100  1
  O  O2  1  0.00000000  0.50000000  0.25470100  1
  O  O3  1  0.50000000  0.50000000  0.26321400  1
  O  O4  1  0.00000000  0.00000000  0.73160900  1
  O  O5  1  0.50000000  0.00000000  0.74529900  1
  O  O6  1  0.00000000  0.50000000  0.74529900  1
  O  O7  1  0.50000000  0.50000000  0.73678600  1
  O  O8  1  0.24850100  0.24850100  0.24912700  1
  O  O9  1  0.75149900  0.24850100  0.24912700  1
  O  O10  1  0.24850100  0.75149900  0.24912700  1
  O  O11  1  0.75149900  0.75149900  0.24912700  1
  O  O12  1  0.24850100  0.24850100  0.75087300  1
  O  O13  1  0.75149900  0.24850100  0.75087300  1
  O  O14  1  0.24850100  0.75149900  0.75087300  1
  O  O15  1  0.75149900  0.75149900  0.75087300  1
  O  O16  1  0.26647500  0.00000000  0.00000000  1
  O  O17  1  0.73352500  0.00000000  0.00000000  1
  O  O18  1  0.23937600  0.50000000  0.00000000  1
  O  O19  1  0.76062400  0.50000000  0.00000000  1
  O  O20  1  0.25182900  0.00000000  0.50000000  1
  O  O21  1  0.74817100  0.00000000  0.50000000  1
  O  O22  1  0.24778600  0.50000000  0.50000000  1
  O  O23  1  0.75221400  0.50000000  0.50000000  1
  O  O24  1  0.00000000  0.26647500  0.00000000  1
  O  O25  1  0.50000000  0.23937600  0.00000000  1
  O  O26  1  0.00000000  0.73352500  0.00000000  1
  O  O27  1  0.50000000  0.76062400  0.00000000  1
  O  O28  1  0.00000000  0.25182900  0.50000000  1
  O  O29  1  0.50000000  0.24778600  0.50000000  1
  O  O30  1  0.00000000  0.74817100  0.50000000  1
  O  O31  1  0.50000000  0.75221400  0.50000000  1
loop_
_geom_bond_atom_site_label_1
_geom_bond_atom_site_label_2
_geom_bond_distance
_geom_bond_site_symmetry_2
Na0 O18 2.251142 1_555
Na0 O19 2.251142 1_555
Na0 O27 2.251142 1_555
Na0 O25 2.251142 1_555
Na0 O7 2.272486 1_554
Na0 O3 2.272486 1_555
La0 O16 2.301680 1_555
La0 O17 2.301680 1_455
La0 O26 2.301680 1_545
La0 O24 2.301680 1_555
La0 O0 2.317182 1_555
La0 O4 2.317182 1_554
Mg0 O17 2.017075 1_555
Mg0 O16 2.017075 1_555
Mg0 O25 2.067613 1_555
Mg0 O27 2.067613 1_545
Mg0 O5 2.198988 1_554
Mg0 O1 2.198988 1_555
Mg1 O24 2.017075 1_555
Mg1 O26 2.017075 1_555
Mg1 O19 2.067613 1_455
Mg1 O18 2.067613 1_555
Mg1 O6 2.198988 1_554
Mg1 O2 2.198988 1_555
Mg2 O4 1.999621 1_555
Mg2 O0 1.999621 1_555
Mg2 O21 2.175176 1_455
Mg2 O30 2.175176 1_545
Mg2 O28 2.175176 1_555
Mg2 O20 2.175176 1_555
Mg3 O1 2.117815 1_555
Mg3 O5 2.117815 1_555
Mg3 O31 2.140254 1_545
Mg3 O29 2.140254 1_555
Mg3 O20 2.143579 1_555
Mg3 O21 2.143579 1_555
Mg4 O2 2.117815 1_555
Mg4 O6 2.117815 1_555
Mg4 O23 2.140254 1_455
Mg4 O22 2.140254 1_555
Mg4 O28 2.143579 1_555
Mg4 O30 2.143579 1_555
Mg5 O3 2.044317 1_555
Mg5 O7 2.044317 1_555
Mg5 O22 2.178501 1_555
Mg5 O29 2.178501 1_555
Mg5 O31 2.178501 1_555
Mg5 O23 2.178501 1_555
Mg6 O25 2.078748 1_555
Mg6 O18 2.078748 1_555
Mg6 O8 2.155640 1_555
Mg6 O12 2.155640 1_554
Mg6 O24 2.248479 1_555
Mg6 O16 2.248479 1_555
Mg7 O19 2.078748 1_555
Mg7 O25 2.078748 1_555
Mg7 O13 2.155640 1_554
Mg7 O9 2.155640 1_555
Mg7 O24 2.248479 1_655
Mg7 O17 2.248479 1_555
Mg8 O27 2.078748 1_555
Mg8 O18 2.078748 1_555
Mg8 O10 2.155640 1_555
Mg8 O14 2.155640 1_554
Mg8 O16 2.248479 1_565
Mg8 O26 2.248479 1_555
Mg9 O19 2.078748 1_555
Mg9 O27 2.078748 1_555
Mg9 O15 2.155640 1_554
Mg9 O11 2.155640 1_555
Mg9 O17 2.248479 1_565
Mg9 O26 2.248479 1_655
Mg10 O22 2.146244 1_555
Mg10 O29 2.146244 1_555
Mg10 O12 2.166259 1_555
Mg10 O8 2.166259 1_555
Mg10 O20 2.172758 1_555
Mg10 O28 2.172758 1_555
Mg11 O23 2.146244 1_555
Mg11 O29 2.146244 1_555
Mg11 O13 2.166259 1_555
Mg11 O9 2.166259 1_555
Mg11 O21 2.172758 1_555
Mg11 O28 2.172758 1_655
Mg12 O31 2.146244 1_555
Mg12 O22 2.146244 1_555
Mg12 O10 2.166259 1_555
Mg12 O14 2.166259 1_555
Mg12 O20 2.172758 1_565
Mg12 O30 2.172758 1_555
Mg13 O31 2.146244 1_555
Mg13 O23 2.146244 1_555
Mg13 O15 2.166259 1_555
Mg13 O11 2.166259 1_555
Mg13 O21 2.172758 1_565
Mg13 O30 2.172758 1_655
Mg14 O1 2.080455 1_555
Mg14 O20 2.092768 1_555
Mg14 O10 2.149680 1_545
Mg14 O8 2.149680 1_555
Mg14 O16 2.225891 1_555
Mg14 O0 2.240360 1_555
Mg15 O1 2.080455 1_555
Mg15 O21 2.092768 1_555
Mg15 O11 2.149680 1_545
Mg15 O9 2.149680 1_555
Mg15 O17 2.225891 1_555
Mg15 O0 2.240360 1_655
Mg16 O3 2.140925 1_555
Mg16 O18 2.152603 1_555
Mg16 O22 2.167598 1_555
Mg16 O10 2.172606 1_555
Mg16 O8 2.172606 1_555
Mg16 O2 2.181919 1_555
Mg17 O3 2.140925 1_555
Mg17 O19 2.152603 1_555
Mg17 O23 2.167598 1_555
Mg17 O11 2.172606 1_555
Mg17 O9 2.172606 1_555
Mg17 O2 2.181919 1_655
Mg18 O5 2.080455 1_555
Mg18 O20 2.092768 1_555
Mg18 O14 2.149680 1_545
Mg18 O12 2.149680 1_555
Mg18 O16 2.225891 1_556
Mg18 O4 2.240360 1_555
Mg19 O5 2.080455 1_555
Mg19 O21 2.092768 1_555
Mg19 O15 2.149680 1_545
Mg19 O13 2.149680 1_555
Mg19 O17 2.225891 1_556
Mg19 O4 2.240360 1_655
Mg20 O7 2.140925 1_555
Mg20 O18 2.152603 1_556
Mg20 O22 2.167598 1_555
Mg20 O12 2.172606 1_555
Mg20 O14 2.172606 1_555
Mg20 O6 2.181919 1_555
Mg21 O7 2.140925 1_555
Mg21 O19 2.152603 1_556
Mg21 O23 2.167598 1_555
Mg21 O13 2.172606 1_555
Mg21 O15 2.172606 1_555
Mg21 O6 2.181919 1_655
Mg22 O2 2.080455 1_555
Mg22 O28 2.092768 1_555
Mg22 O9 2.149680 1_455
Mg22 O8 2.149680 1_555
Mg22 O24 2.225891 1_555
Mg22 O0 2.240360 1_555
Mg23 O3 2.140925 1_555
Mg23 O25 2.152603 1_555
Mg23 O29 2.167598 1_555
Mg23 O8 2.172606 1_555
Mg23 O9 2.172606 1_555
Mg23 O1 2.181919 1_555
Mg24 O2 2.080455 1_555
Mg24 O30 2.092768 1_555
Mg24 O11 2.149680 1_455
Mg24 O10 2.149680 1_555
Mg24 O26 2.225891 1_555
Mg24 O0 2.240360 1_565
Mg25 O3 2.140925 1_555
Mg25 O27 2.152603 1_555
Mg25 O31 2.167598 1_555
Mg25 O10 2.172606 1_555
Mg25 O11 2.172606 1_555
Mg25 O1 2.181919 1_565
Mg26 O6 2.080455 1_555
Mg26 O28 2.092768 1_555
Mg26 O13 2.149680 1_455
Mg26 O12 2.149680 1_555
Mg26 O24 2.225891 1_556
Mg26 O4 2.240360 1_555
Mg27 O7 2.140925 1_555
Mg27 O25 2.152603 1_556
Mg27 O29 2.167598 1_555
Mg27 O13 2.172606 1_555
Mg27 O12 2.172606 1_555
Mg27 O5 2.181919 1_555
Mg28 O6 2.080455 1_555
Mg28 O30 2.092768 1_555
Mg28 O15 2.149680 1_455
Mg28 O14 2.149680 1_555
Mg28 O26 2.225891 1_556
Mg28 O4 2.240360 1_565
Mg29 O7 2.140925 1_555
Mg29 O27 2.152603 1_556
Mg29 O31 2.167598 1_555
Mg29 O15 2.172606 1_555
Mg29 O14 2.172606 1_555
Mg29 O5 2.181919 1_565
