# generated using pymatgen
data_Li9Mn2Co5O16
_symmetry_space_group_name_H-M   'P 1'
_cell_length_a   2.98013700
_cell_length_b   7.79534060
_cell_length_c   12.56736407
_cell_angle_alpha   89.16834144
_cell_angle_beta   89.79764424
_cell_angle_gamma   81.46241418
_symmetry_Int_Tables_number   1
_chemical_formula_structural   Li9Mn2Co5O16
_chemical_formula_sum   'Li9 Mn2 Co5 O16'
_cell_volume   288.68879792
_cell_formula_units_Z   1
loop_
 _symmetry_equiv_pos_site_id
 _symmetry_equiv_pos_as_xyz
  1  'x, y, z'
loop_
 _atom_site_type_symbol
 _atom_site_label
 _atom_site_symmetry_multiplicity
 _atom_site_fract_x
 _atom_site_fract_y
 _atom_site_fract_z
 _atom_site_occupancy
  Li  Li0  1  0.19667300  0.62217600  0.05886600  1
  Li  Li1  1  0.93817900  0.12383100  0.31427900  1
  Li  Li2  1  0.68189400  0.62524800  0.56551600  1
  Li  Li3  1  0.79876700  0.38045200  0.93125500  1
  Li  Li4  1  0.56205000  0.87796700  0.18830700  1
  Li  Li5  1  0.31184600  0.37551600  0.43519100  1
  Li  Li6  1  0.44787800  0.11275000  0.81339700  1
  Li  Li7  1  0.06761700  0.87174200  0.69549600  1
  Li  Li8  1  0.60840600  0.75851400  0.87059400  1
  Mn  Mn0  1  0.00282600  0.99299200  0.99556000  1
  Mn  Mn1  1  0.88154200  0.25201600  0.62650500  1
  Co  Co0  1  0.74728900  0.50288200  0.24968200  1
  Co  Co1  1  0.50480700  0.99793500  0.49930800  1
  Co  Co2  1  0.23292300  0.51101400  0.75623500  1
  Co  Co3  1  0.38251700  0.25047600  0.12817400  1
  Co  Co4  1  0.11937500  0.74804000  0.37491500  1
  O  O0  1  0.56829400  0.83519400  0.02776200  1
  O  O1  1  0.38407600  0.32348400  0.27450200  1
  O  O2  1  0.08430100  0.81499000  0.52128000  1
  O  O3  1  0.22570700  0.54949200  0.89308700  1
  O  O4  1  0.97088500  0.07267200  0.14842100  1
  O  O5  1  0.69976600  0.56781000  0.39654800  1
  O  O6  1  0.86838500  0.32170100  0.77438900  1
  O  O7  1  0.51494000  0.06138500  0.64848200  1
  O  O8  1  0.79519000  0.43034600  0.10165300  1
  O  O9  1  0.53643200  0.93408800  0.35081100  1
  O  O10  1  0.24956200  0.43823700  0.60620300  1
  O  O11  1  0.42879000  0.16635400  0.97744700  1
  O  O12  1  0.11799700  0.68207400  0.22493900  1
  O  O13  1  0.92711100  0.18308800  0.47651000  1
  O  O14  1  0.02342200  0.94393800  0.85341900  1
  O  O15  1  0.62055200  0.67159500  0.72126500  1
loop_
_geom_bond_atom_site_label_1
_geom_bond_atom_site_label_2
_geom_bond_distance
_geom_bond_site_symmetry_2
Li0 O8 2.111920 1_455
Li0 O12 2.149722 1_555
Li0 O0 2.158905 1_555
Li0 O3 2.165071 1_554
Li0 O8 2.213196 1_555
Li0 O0 2.340958 1_455
Li1 O9 2.081873 1_545
Li1 O13 2.096086 1_555
Li1 O4 2.127067 1_555
Li1 O1 2.149214 1_555
Li1 O9 2.186385 1_645
Li1 O1 2.241595 1_655
Li2 O15 1.998394 1_555
Li2 O2 2.105478 1_655
Li2 O10 2.121517 1_655
Li2 O10 2.139643 1_555
Li2 O5 2.175365 1_555
Li2 O2 2.206682 1_555
Li3 O3 2.015063 1_655
Li3 O6 2.033295 1_555
Li3 O3 2.049953 1_555
Li3 O8 2.181742 1_556
Li3 O11 2.202694 1_555
Li3 O11 2.386801 1_655
Li4 O0 2.049333 1_555
Li4 O9 2.093540 1_555
Li4 O12 2.126637 1_655
Li4 O4 2.135905 1_565
Li4 O4 2.202029 1_465
Li4 O12 2.206888 1_555
Li5 O1 2.069725 1_555
Li5 O5 2.075750 1_555
Li5 O13 2.078033 1_455
Li5 O10 2.212053 1_555
Li5 O5 2.232349 1_455
Li5 O13 2.247048 1_555
Li6 O14 2.013777 1_545
Li6 O14 2.059930 1_645
Li6 O11 2.108429 1_555
Li6 O7 2.119699 1_555
Li6 O6 2.241308 1_455
Li6 O6 2.245538 1_555
Li7 O14 2.069200 1_555
Li7 O15 2.116650 1_555
Li7 O7 2.122711 1_465
Li7 O7 2.205878 1_565
Li7 O15 2.216685 1_455
Li7 O2 2.238892 1_555
Li8 O15 2.002861 1_555
Li8 O14 2.045836 1_655
Li8 O0 2.069866 1_556
Li8 O14 2.102500 1_555
Li8 O3 2.138151 1_555
Li8 O3 2.284605 1_655
Mn0 O14 1.831142 1_555
Mn0 O0 1.951574 1_456
Mn0 O0 1.972710 1_556
Mn0 O11 1.996996 1_565
Mn0 O4 2.025125 1_466
Mn0 O11 2.027817 1_465
Mn1 O6 1.942462 1_555
Mn1 O10 1.958381 1_655
Mn1 O13 1.966332 1_555
Mn1 O7 1.986503 1_555
Mn1 O10 2.213688 1_555
Mn1 O7 2.237535 1_655
Co0 O1 1.912866 1_555
Co0 O5 1.920129 1_555
Co0 O12 1.926546 1_655
Co0 O8 1.950805 1_555
Co0 O12 2.186012 1_555
Co0 O1 2.204055 1_655
Co1 O9 1.936789 1_555
Co1 O7 1.947280 1_565
Co1 O2 2.048719 1_555
Co1 O13 2.067356 1_565
Co1 O2 2.086424 1_655
Co1 O13 2.093545 1_465
Co2 O3 1.749623 1_555
Co2 O15 1.871994 1_555
Co2 O6 1.968406 1_455
Co2 O10 1.975218 1_555
Co2 O15 2.098083 1_455
Co2 O6 2.231531 1_555
Co3 O1 1.933110 1_555
Co3 O4 1.995771 1_455
Co3 O11 2.011107 1_554
Co3 O8 2.021165 1_555
Co3 O4 2.081261 1_555
Co3 O8 2.098231 1_455
Co4 O2 1.917574 1_555
Co4 O12 1.961057 1_555
Co4 O5 2.029704 1_455
Co4 O9 2.063909 1_555
Co4 O5 2.076099 1_555
Co4 O9 2.110939 1_455
