# generated using pymatgen
data_MnInFe
_symmetry_space_group_name_H-M   'P 1'
_cell_length_a   5.59090400
_cell_length_b   8.64031099
_cell_length_c   8.64031099
_cell_angle_alpha   60.00209047
_cell_angle_beta   90.00000000
_cell_angle_gamma   90.00000000
_symmetry_Int_Tables_number   1
_chemical_formula_structural   MnInFe
_chemical_formula_sum   'Mn8 In8 Fe8'
_cell_volume   361.47691184
_cell_formula_units_Z   8
loop_
 _symmetry_equiv_pos_site_id
 _symmetry_equiv_pos_as_xyz
  1  'x, y, z'
loop_
 _atom_site_type_symbol
 _atom_site_label
 _atom_site_symmetry_multiplicity
 _atom_site_fract_x
 _atom_site_fract_y
 _atom_site_fract_z
 _atom_site_occupancy
  Mn  Mn0_0  1  0.25000000  0.16667700  0.16667700  1
  Mn  Mn0_1  1  0.25000000  0.16667700  0.66667700  1
  Mn  Mn0_2  1  0.25000000  0.66667700  0.16667700  1
  Mn  Mn0_3  1  0.25000000  0.66667700  0.66667700  1
  Mn  Mn0_4  1  0.75000000  0.16667700  0.16667700  1
  Mn  Mn0_5  1  0.75000000  0.16667700  0.66667700  1
  Mn  Mn0_6  1  0.75000000  0.66667700  0.16667700  1
  Mn  Mn0_7  1  0.75000000  0.66667700  0.66667700  1
  In  In0_0  1  0.00000000  0.49999150  0.49999150  1
  In  In0_1  1  0.00000000  0.49999150  0.99999150  1
  In  In0_2  1  0.00000000  0.99999150  0.49999150  1
  In  In0_3  1  0.00000000  0.99999150  0.99999150  1
  In  In0_4  1  0.50000000  0.49999150  0.49999150  1
  In  In0_5  1  0.50000000  0.49999150  0.99999150  1
  In  In0_6  1  0.50000000  0.99999150  0.49999150  1
  In  In0_7  1  0.50000000  0.99999150  0.99999150  1
  Fe  Fe0_0  1  0.25000000  0.33333150  0.33333150  1
  Fe  Fe0_1  1  0.25000000  0.33333150  0.83333150  1
  Fe  Fe0_2  1  0.25000000  0.83333150  0.33333150  1
  Fe  Fe0_3  1  0.25000000  0.83333150  0.83333150  1
  Fe  Fe0_4  1  0.75000000  0.33333150  0.33333150  1
  Fe  Fe0_5  1  0.75000000  0.33333150  0.83333150  1
  Fe  Fe0_6  1  0.75000000  0.83333150  0.33333150  1
  Fe  Fe0_7  1  0.75000000  0.83333150  0.83333150  1
loop_
_geom_bond_atom_site_label_1
_geom_bond_atom_site_label_2
_geom_bond_distance
_geom_bond_site_symmetry_2
Mn0_0 Mn0_4 2.795452 1_555
Mn0_0 Mn0_4 2.795452 1_455
Mn0_1 Mn0_5 2.795452 1_555
Mn0_1 Mn0_5 2.795452 1_455
Mn0_2 Mn0_6 2.795452 1_555
Mn0_2 Mn0_6 2.795452 1_455
Mn0_3 Mn0_7 2.795452 1_555
Mn0_3 Mn0_7 2.795452 1_455
In0_0 In0_4 2.795452 1_455
In0_0 In0_4 2.795452 1_555
In0_0 Mn0_1 2.859099 1_555
In0_0 Mn0_5 2.859099 1_455
In0_0 Mn0_2 2.859099 1_555
In0_0 Mn0_6 2.859099 1_455
In0_0 Mn0_3 2.859399 1_555
In0_0 Mn0_7 2.859399 1_455
In0_1 In0_5 2.795452 1_555
In0_1 In0_5 2.795452 1_455
In0_1 Mn0_3 2.859099 1_555
In0_1 Mn0_7 2.859099 1_455
In0_1 Mn0_0 2.859099 1_556
In0_1 Mn0_4 2.859099 1_456
In0_1 Mn0_2 2.859399 1_556
In0_1 Mn0_6 2.859399 1_456
In0_2 In0_6 2.795452 1_455
In0_2 In0_6 2.795452 1_555
In0_2 Mn0_7 2.859099 1_455
In0_2 Mn0_0 2.859099 1_565
In0_2 Mn0_4 2.859099 1_465
In0_2 Mn0_3 2.859099 1_555
In0_2 Mn0_1 2.859399 1_565
In0_2 Mn0_5 2.859399 1_465
In0_3 In0_7 2.795452 1_555
In0_3 In0_7 2.795452 1_455
In0_3 Mn0_2 2.859099 1_556
In0_3 Mn0_6 2.859099 1_456
In0_3 Mn0_1 2.859099 1_565
In0_3 Mn0_5 2.859099 1_465
In0_3 Mn0_0 2.859399 1_566
In0_3 Mn0_4 2.859399 1_466
In0_4 Mn0_1 2.859099 1_555
In0_4 Mn0_5 2.859099 1_555
In0_4 Mn0_6 2.859099 1_555
In0_4 Mn0_2 2.859099 1_555
In0_4 Mn0_7 2.859399 1_555
In0_4 Mn0_3 2.859399 1_555
In0_5 Mn0_7 2.859099 1_555
In0_5 Mn0_3 2.859099 1_555
In0_5 Mn0_4 2.859099 1_556
In0_5 Mn0_0 2.859099 1_556
In0_5 Mn0_6 2.859399 1_556
In0_5 Mn0_2 2.859399 1_556
In0_6 Mn0_4 2.859099 1_565
In0_6 Mn0_7 2.859099 1_555
In0_6 Mn0_0 2.859099 1_565
In0_6 Mn0_3 2.859099 1_555
In0_6 Mn0_5 2.859399 1_565
In0_6 Mn0_1 2.859399 1_565
In0_7 Mn0_2 2.859099 1_556
In0_7 Mn0_6 2.859099 1_556
In0_7 Mn0_5 2.859099 1_565
In0_7 Mn0_1 2.859099 1_565
In0_7 Mn0_4 2.859399 1_566
In0_7 Mn0_0 2.859399 1_566
Fe0_0 Mn0_0 2.494035 1_555
Fe0_0 Mn0_1 2.494387 1_555
Fe0_0 Mn0_2 2.494387 1_555
Fe0_0 In0_4 2.859066 1_555
Fe0_0 In0_0 2.859066 1_555
Fe0_0 In0_2 2.859265 1_545
Fe0_0 In0_6 2.859265 1_545
Fe0_0 In0_5 2.859265 1_554
Fe0_0 In0_1 2.859265 1_554
Fe0_1 Mn0_1 2.494035 1_555
Fe0_1 Mn0_0 2.494387 1_556
Fe0_1 Mn0_3 2.494387 1_555
Fe0_1 In0_1 2.859066 1_555
Fe0_1 In0_5 2.859066 1_555
Fe0_1 In0_7 2.859265 1_545
Fe0_1 In0_3 2.859265 1_545
Fe0_1 In0_4 2.859265 1_555
Fe0_1 In0_0 2.859265 1_555
Fe0_2 Mn0_2 2.494035 1_555
Fe0_2 Mn0_0 2.494387 1_565
Fe0_2 Mn0_3 2.494387 1_555
Fe0_2 In0_2 2.859066 1_555
Fe0_2 In0_6 2.859066 1_555
Fe0_2 In0_3 2.859265 1_554
Fe0_2 In0_7 2.859265 1_554
Fe0_2 In0_0 2.859265 1_555
Fe0_2 In0_4 2.859265 1_555
Fe0_3 Mn0_3 2.494035 1_555
Fe0_3 Mn0_1 2.494387 1_565
Fe0_3 Mn0_2 2.494387 1_556
Fe0_3 In0_7 2.859066 1_555
Fe0_3 In0_3 2.859066 1_555
Fe0_3 In0_1 2.859265 1_555
Fe0_3 In0_5 2.859265 1_555
Fe0_3 In0_6 2.859265 1_555
Fe0_3 In0_2 2.859265 1_555
Fe0_4 Mn0_4 2.494035 1_555
Fe0_4 Mn0_5 2.494387 1_555
Fe0_4 Mn0_6 2.494387 1_555
Fe0_4 In0_4 2.859066 1_555
Fe0_4 In0_0 2.859066 1_655
Fe0_4 In0_6 2.859265 1_545
Fe0_4 In0_2 2.859265 1_645
Fe0_4 In0_5 2.859265 1_554
Fe0_4 In0_1 2.859265 1_654
Fe0_5 Mn0_5 2.494035 1_555
Fe0_5 Mn0_4 2.494387 1_556
Fe0_5 Mn0_7 2.494387 1_555
Fe0_5 In0_5 2.859066 1_555
Fe0_5 In0_1 2.859066 1_655
Fe0_5 In0_7 2.859265 1_545
Fe0_5 In0_3 2.859265 1_645
Fe0_5 In0_4 2.859265 1_555
Fe0_5 In0_0 2.859265 1_655
Fe0_6 Mn0_6 2.494035 1_555
Fe0_6 Mn0_4 2.494387 1_565
Fe0_6 Mn0_7 2.494387 1_555
Fe0_6 In0_6 2.859066 1_555
Fe0_6 In0_2 2.859066 1_655
Fe0_6 In0_7 2.859265 1_554
Fe0_6 In0_3 2.859265 1_654
Fe0_6 In0_4 2.859265 1_555
Fe0_6 In0_0 2.859265 1_655
Fe0_7 Mn0_7 2.494035 1_555
Fe0_7 Mn0_5 2.494387 1_565
Fe0_7 Mn0_6 2.494387 1_556
Fe0_7 In0_7 2.859066 1_555
Fe0_7 In0_3 2.859066 1_655
Fe0_7 In0_6 2.859265 1_555
Fe0_7 In0_5 2.859265 1_555
Fe0_7 In0_1 2.859265 1_655
Fe0_7 In0_2 2.859265 1_655
