# generated using pymatgen
data_SrLa3Mn4O12
_symmetry_space_group_name_H-M   'P 1'
_cell_length_a   5.53551256
_cell_length_b   7.87663019
_cell_length_c   5.59399342
_cell_angle_alpha   89.99277852
_cell_angle_beta   90.29463361
_cell_angle_gamma   90.82847540
_symmetry_Int_Tables_number   1
_chemical_formula_structural   SrLa3Mn4O12
_chemical_formula_sum   'Sr1 La3 Mn4 O12'
_cell_volume   243.87602166
_cell_formula_units_Z   1
loop_
 _symmetry_equiv_pos_site_id
 _symmetry_equiv_pos_as_xyz
  1  'x, y, z'
loop_
 _atom_site_type_symbol
 _atom_site_label
 _atom_site_symmetry_multiplicity
 _atom_site_fract_x
 _atom_site_fract_y
 _atom_site_fract_z
 _atom_site_occupancy
  Sr  Sr0  1  0.49995700  0.25002600  0.00292900  1
  La  La0  1  0.99992900  0.75016000  0.49673600  1
  La  La1  1  0.50011400  0.74998000  0.99982500  1
  La  La2  1  0.99998600  0.24994100  0.50073900  1
  Mn  Mn0  1  0.00001200  0.49938000  0.00022800  1
  Mn  Mn1  1  0.50024000  0.00072900  0.49974200  1
  Mn  Mn2  1  0.99988800  0.00062100  0.00026800  1
  Mn  Mn3  1  0.49971500  0.49932100  0.49984900  1
  O  O0  1  0.22063900  0.53273100  0.72011500  1
  O  O1  1  0.72562100  0.02201300  0.22592500  1
  O  O2  1  0.27439200  0.47795800  0.22555000  1
  O  O3  1  0.77958200  0.96732600  0.72033500  1
  O  O4  1  0.99989600  0.75000600  0.05971200  1
  O  O5  1  0.49991200  0.24995800  0.55090800  1
  O  O6  1  0.72340100  0.53779500  0.77647700  1
  O  O7  1  0.21454600  0.02552200  0.28589700  1
  O  O8  1  0.00009800  0.24999700  0.93486600  1
  O  O9  1  0.50011800  0.75005700  0.43746100  1
  O  O10  1  0.78521400  0.47443200  0.28611000  1
  O  O11  1  0.27674100  0.96204700  0.77632900  1
loop_
_geom_bond_atom_site_label_1
_geom_bond_atom_site_label_2
_geom_bond_distance
_geom_bond_site_symmetry_2
La0 O4 2.444709 1_555
La0 O0 2.455891 1_655
La0 O3 2.460646 1_555
La0 O10 2.725667 1_555
La0 O7 2.728722 1_665
La0 O11 2.735256 1_655
La0 O6 2.745880 1_555
La0 O9 2.784804 1_555
La0 O9 2.790291 1_655
La1 O11 2.434221 1_555
La1 O6 2.440929 1_555
La1 O9 2.448133 1_556
La1 O1 2.766992 1_566
La1 O0 2.769295 1_555
La1 O2 2.772106 1_556
La1 O3 2.777774 1_555
La1 O4 2.785045 1_556
La1 O4 2.790868 1_456
La2 O8 2.428501 1_655
La2 O10 2.455028 1_555
La2 O7 2.460809 1_655
La2 O5 2.780103 1_655
La2 O5 2.783793 1_555
La2 O1 2.791213 1_555
La2 O2 2.801278 1_655
La2 O0 2.804626 1_655
La2 O3 2.808742 1_545
Mn0 O2 1.977809 1_555
Mn0 O8 1.998090 1_554
Mn0 O6 1.999082 1_454
Mn0 O4 2.001988 1_455
Mn0 O10 2.005644 1_455
Mn0 O0 2.006533 1_554
Mn1 O5 1.983905 1_555
Mn1 O1 1.986038 1_555
Mn1 O7 1.989870 1_555
Mn1 O3 1.993759 1_545
Mn1 O9 2.004986 1_545
Mn1 O11 2.006496 1_545
Mn2 O1 1.988459 1_555
Mn2 O7 1.994289 1_655
Mn2 O3 1.994835 1_544
Mn2 O8 1.997964 1_654
Mn2 O4 2.001773 1_545
Mn2 O11 2.010855 1_644
Mn3 O2 1.978079 1_555
Mn3 O5 1.984779 1_555
Mn3 O6 1.997297 1_555
Mn3 O10 1.998521 1_555
Mn3 O0 2.001349 1_555
Mn3 O9 2.005482 1_555
O0 Sr0 3.150482 1_556
O1 Sr0 2.527910 1_555
O2 Sr0 2.532693 1_555
O3 Sr0 3.158945 1_566
O5 Sr0 2.528601 1_556
O5 Sr0 3.065392 1_555
O6 Sr0 2.864715 1_556
O7 Sr0 2.841293 1_555
O8 Sr0 2.791105 1_556
O8 Sr0 2.796537 1_456
O10 Sr0 2.832197 1_555
O11 Sr0 2.860476 1_566
