# generated using pymatgen
data_UH4(NO5)2
_symmetry_space_group_name_H-M   'P 1'
_cell_length_a   8.76389800
_cell_length_b   7.21387900
_cell_length_c   13.90655862
_cell_angle_alpha   78.29887412
_cell_angle_beta   90.00000000
_cell_angle_gamma   90.00000000
_symmetry_Int_Tables_number   1
_chemical_formula_structural   UH4(NO5)2
_chemical_formula_sum   'U4 H16 N8 O40'
_cell_volume   860.92554240
_cell_formula_units_Z   4
loop_
 _symmetry_equiv_pos_site_id
 _symmetry_equiv_pos_as_xyz
  1  'x, y, z'
loop_
 _atom_site_type_symbol
 _atom_site_label
 _atom_site_symmetry_multiplicity
 _atom_site_fract_x
 _atom_site_fract_y
 _atom_site_fract_z
 _atom_site_occupancy
  U  U0  1  0.50000000  0.50000000  0.00000000  1
  U  U1  1  0.00000000  0.00000000  0.00000000  1
  U  U2  1  0.00000000  0.50000000  0.50000000  1
  U  U3  1  0.50000000  0.00000000  0.50000000  1
  H  H0  1  0.46939000  0.83818700  0.82506800  1
  H  H1  1  0.96939000  0.66181300  0.17493200  1
  H  H2  1  0.53061000  0.16181300  0.17493200  1
  H  H3  1  0.03061000  0.33818700  0.82506800  1
  H  H4  1  0.44340400  0.93044600  0.91734900  1
  H  H5  1  0.94340400  0.56955400  0.08265100  1
  H  H6  1  0.55659600  0.06955400  0.08265100  1
  H  H7  1  0.05659600  0.43044600  0.91734900  1
  H  H8  1  0.27788200  0.39489400  0.65460600  1
  H  H9  1  0.77788200  0.10510600  0.34539400  1
  H  H10  1  0.72211800  0.60510600  0.34539400  1
  H  H11  1  0.22211800  0.89489400  0.65460600  1
  H  H12  1  0.33839600  0.51959400  0.55537200  1
  H  H13  1  0.83839600  0.98040600  0.44462800  1
  H  H14  1  0.66160400  0.48040600  0.44462800  1
  H  H15  1  0.16160400  0.01959400  0.55537200  1
  N  N0  1  0.42080100  0.31914600  0.83307700  1
  N  N1  1  0.92080100  0.18085400  0.16692300  1
  N  N2  1  0.57919900  0.68085400  0.16692300  1
  N  N3  1  0.07919900  0.81914600  0.83307700  1
  N  N4  1  0.17094100  0.60645500  0.31480700  1
  N  N5  1  0.67094100  0.89354500  0.68519300  1
  N  N6  1  0.82905900  0.39354500  0.68519300  1
  N  N7  1  0.32905900  0.10645500  0.31480700  1
  O  O0  1  0.30398000  0.47905500  0.03747000  1
  O  O1  1  0.80398000  0.02094500  0.96253000  1
  O  O2  1  0.69602000  0.52094500  0.96253000  1
  O  O3  1  0.19602000  0.97905500  0.03747000  1
  O  O4  1  0.46589000  0.22016900  0.91594900  1
  O  O5  1  0.96589000  0.27983100  0.08405100  1
  O  O6  1  0.53411000  0.77983100  0.08405100  1
  O  O7  1  0.03411000  0.72016900  0.91594900  1
  O  O8  1  0.38043500  0.24503000  0.76483600  1
  O  O9  1  0.88043500  0.25497000  0.23516400  1
  O  O10  1  0.61956500  0.75497000  0.23516400  1
  O  O11  1  0.11956500  0.74503000  0.76483600  1
  O  O12  1  0.41996200  0.49844300  0.82742900  1
  O  O13  1  0.91996200  0.00155700  0.17257100  1
  O  O14  1  0.58003800  0.50155700  0.17257100  1
  O  O15  1  0.08003800  0.99844300  0.82742900  1
  O  O16  1  0.43764100  0.81075900  0.89443900  1
  O  O17  1  0.93764100  0.68924100  0.10556100  1
  O  O18  1  0.56235900  0.18924100  0.10556100  1
  O  O19  1  0.06235900  0.31075900  0.89443900  1
  O  O20  1  0.00702400  0.25131600  0.49625300  1
  O  O21  1  0.50702400  0.24868400  0.50374700  1
  O  O22  1  0.99297600  0.74868400  0.50374700  1
  O  O23  1  0.49297600  0.75131600  0.49625300  1
  O  O24  1  0.02280700  0.60103800  0.31588300  1
  O  O25  1  0.52280700  0.89896200  0.68411700  1
  O  O26  1  0.97719300  0.39896200  0.68411700  1
  O  O27  1  0.47719300  0.10103800  0.31588300  1
  O  O28  1  0.24446700  0.66008900  0.23987100  1
  O  O29  1  0.74446700  0.83991100  0.76012900  1
  O  O30  1  0.75553300  0.33991100  0.76012900  1
  O  O31  1  0.25553300  0.16008900  0.23987100  1
  O  O32  1  0.23294600  0.55008600  0.39971900  1
  O  O33  1  0.73294600  0.94991400  0.60028100  1
  O  O34  1  0.76705400  0.44991400  0.60028100  1
  O  O35  1  0.26705400  0.05008600  0.39971900  1
  O  O36  1  0.24536400  0.47509800  0.59176800  1
  O  O37  1  0.74536400  0.02490200  0.40823200  1
  O  O38  1  0.75463600  0.52490200  0.40823200  1
  O  O39  1  0.25463600  0.97509800  0.59176800  1
loop_
_geom_bond_atom_site_label_1
_geom_bond_atom_site_label_2
_geom_bond_distance
_geom_bond_site_symmetry_2
H0 O16 0.984792 1_555
H1 O17 0.984792 1_555
H2 O18 0.984792 1_555
H3 O19 0.984792 1_555
H4 O16 0.980360 1_555
H5 O17 0.980360 1_555
H6 O18 0.980360 1_555
H7 O19 0.980360 1_555
H8 O36 0.987181 1_555
H9 O37 0.987181 1_555
H10 O38 0.987181 1_555
H11 O39 0.987181 1_555
H12 O36 0.978809 1_555
H13 O37 0.978809 1_565
H14 O38 0.978809 1_555
H15 O39 0.978809 1_545
N0 O8 1.231834 1_555
N0 O12 1.279832 1_555
N0 O4 1.288551 1_555
N1 O9 1.231834 1_555
N1 O13 1.279832 1_555
N1 O5 1.288551 1_555
N2 O10 1.231834 1_555
N2 O14 1.279832 1_555
N2 O6 1.288551 1_555
N3 O11 1.231834 1_555
N3 O15 1.279832 1_555
N3 O7 1.288551 1_555
N4 O28 1.219570 1_555
N4 O32 1.288506 1_555
N4 O24 1.298814 1_555
N5 O29 1.219570 1_555
N5 O33 1.288506 1_555
N5 O25 1.298814 1_555
N6 O30 1.219570 1_555
N6 O34 1.288506 1_555
N6 O26 1.298814 1_555
N7 O31 1.219570 1_555
N7 O35 1.288506 1_555
N7 O27 1.298814 1_555
O0 U0 1.792650 1_555
O1 U1 1.792650 1_656
O2 U0 1.792650 1_556
O3 U1 1.792650 1_565
O4 U0 2.547091 1_556
O5 U1 2.547091 1_655
O6 U0 2.547091 1_555
O7 U1 2.547091 1_566
O12 U0 2.502490 1_556
O13 U1 2.502490 1_655
O14 U0 2.502490 1_555
O15 U1 2.502490 1_566
O20 U2 1.806315 1_555
O21 U3 1.806315 1_555
O22 U2 1.806315 1_655
O23 U3 1.806315 1_565
O24 U2 2.523898 1_555
O25 U3 2.523898 1_565
O26 U2 2.523898 1_655
O27 U3 2.523898 1_555
O32 U2 2.457389 1_555
O33 U3 2.457389 1_565
O34 U2 2.457389 1_655
O35 U3 2.457389 1_555
