# generated using pymatgen
data_W2O5
_symmetry_space_group_name_H-M   'P 1'
_cell_length_a   3.86830400
_cell_length_b   4.03413000
_cell_length_c   12.91263900
_cell_angle_alpha   90.00000000
_cell_angle_beta   90.00000000
_cell_angle_gamma   90.00000000
_symmetry_Int_Tables_number   1
_chemical_formula_structural   W2O5
_chemical_formula_sum   'W4 O10'
_cell_volume   201.50484632
_cell_formula_units_Z   2
loop_
 _symmetry_equiv_pos_site_id
 _symmetry_equiv_pos_as_xyz
  1  'x, y, z'
loop_
 _atom_site_type_symbol
 _atom_site_label
 _atom_site_symmetry_multiplicity
 _atom_site_fract_x
 _atom_site_fract_y
 _atom_site_fract_z
 _atom_site_occupancy
  W  W0  1  0.51736100  0.50000000  0.34888200  1
  W  W1  1  0.48263900  0.00000000  0.15111800  1
  W  W2  1  0.48263900  0.00000000  0.84888200  1
  W  W3  1  0.51736100  0.50000000  0.65111800  1
  O  O0  1  0.49373000  0.00000000  0.31694300  1
  O  O1  1  0.50627000  0.50000000  0.18305700  1
  O  O2  1  0.50627000  0.50000000  0.81694300  1
  O  O3  1  0.49373000  0.00000000  0.68305700  1
  O  O4  1  0.00905500  0.50000000  0.65398100  1
  O  O5  1  0.99094500  0.00000000  0.84601900  1
  O  O6  1  0.99094500  0.00000000  0.15398100  1
  O  O7  1  0.48481800  0.00000000  0.00000000  1
  O  O8  1  0.51518200  0.50000000  0.50000000  1
  O  O9  1  0.00905500  0.50000000  0.34601900  1
loop_
_geom_bond_atom_site_label_1
_geom_bond_atom_site_label_2
_geom_bond_distance
_geom_bond_site_symmetry_2
O0 W0 2.060824 1_545
O0 W0 2.060824 1_555
O0 W1 2.141668 1_555
O1 W1 2.060824 1_565
O1 W1 2.060824 1_555
O1 W0 2.141668 1_555
O2 W2 2.060824 1_565
O2 W2 2.060824 1_555
O2 W3 2.141668 1_555
O3 W3 2.060824 1_545
O3 W3 2.060824 1_555
O3 W2 2.141668 1_555
O4 W3 1.902381 1_455
O4 W3 1.966630 1_555
O5 W2 1.902381 1_655
O5 W2 1.966630 1_555
O6 W1 1.902381 1_655
O6 W1 1.966630 1_555
O7 W2 1.951350 1_554
O7 W1 1.951350 1_555
O8 W3 1.951350 1_555
O8 W0 1.951350 1_555
O9 W0 1.902381 1_455
O9 W0 1.966630 1_555
