# generated using pymatgen
data_Na3Y(SiO3)3
_symmetry_space_group_name_H-M   'P 1'
_cell_length_a   15.40760548
_cell_length_b   15.31161611
_cell_length_c   15.22162872
_cell_angle_alpha   90.00000000
_cell_angle_beta   90.00000000
_cell_angle_gamma   90.00000000
_symmetry_Int_Tables_number   1
_chemical_formula_structural   Na3Y(SiO3)3
_chemical_formula_sum   'Na48 Y16 Si48 O144'
_cell_volume   3591.01571916
_cell_formula_units_Z   16
loop_
 _symmetry_equiv_pos_site_id
 _symmetry_equiv_pos_as_xyz
  1  'x, y, z'
loop_
 _atom_site_type_symbol
 _atom_site_label
 _atom_site_symmetry_multiplicity
 _atom_site_fract_x
 _atom_site_fract_y
 _atom_site_fract_z
 _atom_site_occupancy
  Na  Na0  1  0.84769318  0.87012276  0.11074704  1
  Na  Na1  1  0.65230682  0.12987724  0.61074704  1
  Na  Na2  1  0.34769318  0.62987724  0.88925296  1
  Na  Na3  1  0.15230682  0.37012276  0.38925296  1
  Na  Na4  1  0.88106668  0.66826235  0.87108884  1
  Na  Na5  1  0.61893332  0.33173765  0.37108884  1
  Na  Na6  1  0.38106668  0.83173765  0.12891116  1
  Na  Na7  1  0.11893332  0.16826235  0.62891116  1
  Na  Na8  1  0.60649520  0.59290799  0.86292150  1
  Na  Na9  1  0.89350480  0.40709201  0.36292150  1
  Na  Na10  1  0.10649520  0.90709201  0.13707850  1
  Na  Na11  1  0.39350480  0.09290799  0.63707850  1
  Na  Na12  1  0.55460519  0.94559001  0.50285281  1
  Na  Na13  1  0.94539481  0.05440999  0.00285281  1
  Na  Na14  1  0.05460519  0.55440999  0.49714719  1
  Na  Na15  1  0.44539481  0.44559001  0.99714719  1
  Na  Na16  1  0.83898835  0.62295311  0.60208501  1
  Na  Na17  1  0.66101165  0.37704689  0.10208501  1
  Na  Na18  1  0.33898835  0.87704689  0.39791499  1
  Na  Na19  1  0.16101165  0.12295311  0.89791499  1
  Na  Na20  1  0.88005964  0.90141661  0.65168648  1
  Na  Na21  1  0.61994036  0.09858339  0.15168648  1
  Na  Na22  1  0.38005964  0.59858339  0.34831352  1
  Na  Na23  1  0.11994036  0.40141661  0.84831352  1
  Na  Na24  1  0.84845471  0.62154482  0.14641352  1
  Na  Na25  1  0.65154529  0.37845518  0.64641352  1
  Na  Na26  1  0.34845471  0.87845518  0.85358648  1
  Na  Na27  1  0.15154529  0.12154482  0.35358648  1
  Na  Na28  1  0.99586293  0.50896965  0.00513534  1
  Na  Na29  1  0.50413707  0.49103035  0.50513534  1
  Na  Na30  1  0.49586293  0.99103035  0.99486466  1
  Na  Na31  1  0.00413707  0.00896965  0.49486466  1
  Na  Na32  1  0.90120998  0.84265966  0.37178003  1
  Na  Na33  1  0.59879002  0.15734034  0.87178003  1
  Na  Na34  1  0.40120998  0.65734034  0.62821997  1
  Na  Na35  1  0.09879002  0.34265966  0.12821997  1
  Na  Na36  1  0.70507937  0.74690850  0.29844733  1
  Na  Na37  1  0.79492063  0.25309150  0.79844733  1
  Na  Na38  1  0.20507937  0.75309150  0.70155267  1
  Na  Na39  1  0.29492063  0.24690850  0.20155267  1
  Na  Na40  1  0.58738535  0.62690866  0.11861603  1
  Na  Na41  1  0.91261465  0.37309134  0.61861603  1
  Na  Na42  1  0.08738535  0.87309134  0.88138397  1
  Na  Na43  1  0.41261465  0.12690866  0.38138397  1
  Na  Na44  1  0.71014074  0.79232598  0.75106573  1
  Na  Na45  1  0.78985926  0.20767402  0.25106573  1
  Na  Na46  1  0.21014074  0.70767402  0.24893427  1
  Na  Na47  1  0.28985926  0.29232598  0.74893427  1
  Y  Y0  1  0.62195053  0.87484800  0.13365455  1
  Y  Y1  1  0.87804947  0.12515200  0.63365455  1
  Y  Y2  1  0.12195053  0.62515200  0.86634545  1
  Y  Y3  1  0.37804947  0.37484800  0.36634545  1
  Y  Y4  1  0.87154326  0.62910052  0.38556703  1
  Y  Y5  1  0.62845674  0.37089948  0.88556703  1
  Y  Y6  1  0.37154326  0.87089948  0.61443297  1
  Y  Y7  1  0.12845674  0.12910052  0.11443297  1
  Y  Y8  1  0.62102289  0.61275304  0.64074859  1
  Y  Y9  1  0.87897711  0.38724696  0.14074859  1
  Y  Y10  1  0.12102289  0.88724696  0.35925141  1
  Y  Y11  1  0.37897711  0.11275304  0.85925141  1
  Y  Y12  1  0.86620479  0.88488379  0.87949370  1
  Y  Y13  1  0.63379521  0.11511621  0.37949370  1
  Y  Y14  1  0.36620479  0.61511621  0.12050630  1
  Y  Y15  1  0.13379521  0.38488379  0.62050630  1
  Si  Si0  1  0.53276594  0.96709887  0.74478360  1
  Si  Si1  1  0.96723406  0.03290113  0.24478360  1
  Si  Si2  1  0.03276594  0.53290113  0.25521640  1
  Si  Si3  1  0.46723406  0.46709887  0.75521640  1
  Si  Si4  1  0.52267942  0.74715126  0.47672161  1
  Si  Si5  1  0.97732058  0.25284874  0.97672161  1
  Si  Si6  1  0.02267942  0.75284874  0.52327839  1
  Si  Si7  1  0.47732058  0.24715126  0.02327839  1
  Si  Si8  1  0.77178246  0.97166776  0.48814189  1
  Si  Si9  1  0.72821754  0.02833224  0.98814189  1
  Si  Si10  1  0.27178246  0.52833224  0.51185811  1
  Si  Si11  1  0.22821754  0.47166776  0.01185811  1
  Si  Si12  1  0.97684288  0.53154733  0.72236523  1
  Si  Si13  1  0.52315712  0.46845267  0.22236523  1
  Si  Si14  1  0.47684288  0.96845267  0.27763477  1
  Si  Si15  1  0.02315712  0.03154733  0.77763477  1
  Si  Si16  1  0.50668394  0.77387836  0.77560588  1
  Si  Si17  1  0.99331606  0.22612164  0.27560588  1
  Si  Si18  1  0.00668394  0.72612164  0.22439412  1
  Si  Si19  1  0.49331606  0.27387836  0.72439412  1
  Si  Si20  1  0.77659058  0.97437604  0.27918057  1
  Si  Si21  1  0.72340942  0.02562396  0.77918057  1
  Si  Si22  1  0.27659058  0.52562396  0.72081943  1
  Si  Si23  1  0.22340942  0.47437604  0.22081943  1
  Si  Si24  1  0.71593333  0.50320690  0.27747593  1
  Si  Si25  1  0.78406667  0.49679310  0.77747593  1
  Si  Si26  1  0.21593333  0.99679310  0.72252407  1
  Si  Si27  1  0.28406667  0.00320690  0.22252407  1
  Si  Si28  1  0.72124969  0.77576885  0.50837195  1
  Si  Si29  1  0.77875031  0.22423115  0.00837195  1
  Si  Si30  1  0.22124969  0.72423115  0.49162805  1
  Si  Si31  1  0.27875031  0.27576885  0.99162805  1
  Si  Si32  1  0.51115427  0.75077492  0.97790504  1
  Si  Si33  1  0.98884573  0.24922508  0.47790504  1
  Si  Si34  1  0.01115427  0.74922508  0.02209496  1
  Si  Si35  1  0.48884573  0.25077492  0.52209496  1
  Si  Si36  1  0.77034189  0.52844904  0.97717401  1
  Si  Si37  1  0.72965811  0.47155096  0.47717401  1
  Si  Si38  1  0.27034189  0.97155096  0.02282599  1
  Si  Si39  1  0.22965811  0.02844904  0.52282599  1
  Si  Si40  1  0.98739014  0.74067699  0.72228734  1
  Si  Si41  1  0.51260986  0.25932301  0.22228734  1
  Si  Si42  1  0.48739014  0.75932301  0.27771266  1
  Si  Si43  1  0.01260986  0.24067699  0.77771266  1
  Si  Si44  1  0.71742568  0.73306705  0.98418014  1
  Si  Si45  1  0.78257432  0.26693295  0.48418014  1
  Si  Si46  1  0.21742568  0.76693295  0.01581986  1
  Si  Si47  1  0.28257432  0.23306705  0.51581986  1
  O  O0  1  0.64664127  0.98656595  0.04022842  1
  O  O1  1  0.85335873  0.01343405  0.54022842  1
  O  O2  1  0.14664127  0.51343405  0.95977158  1
  O  O3  1  0.35335873  0.48656595  0.45977158  1
  O  O4  1  0.90902743  0.79156499  0.77131981  1
  O  O5  1  0.59097257  0.20843501  0.27131981  1
  O  O6  1  0.40902743  0.70843501  0.22868019  1
  O  O7  1  0.09097257  0.29156499  0.72868019  1
  O  O8  1  0.57662673  0.75981164  0.22108772  1
  O  O9  1  0.92337327  0.24018836  0.72108772  1
  O  O10  1  0.07662673  0.74018836  0.77891228  1
  O  O11  1  0.42337327  0.25981164  0.27891228  1
  O  O12  1  0.52217377  0.66237764  0.54063661  1
  O  O13  1  0.97782623  0.33762236  0.04063661  1
  O  O14  1  0.02217377  0.83762236  0.45936339  1
  O  O15  1  0.47782623  0.16237764  0.95936339  1
  O  O16  1  0.61238367  0.71249183  0.96169414  1
  O  O17  1  0.88761633  0.28750817  0.46169414  1
  O  O18  1  0.11238367  0.78750817  0.03830586  1
  O  O19  1  0.38761633  0.21249183  0.53830586  1
  O  O20  1  0.72697852  0.57516019  0.73575612  1
  O  O21  1  0.77302148  0.42483981  0.23575612  1
  O  O22  1  0.22697852  0.92483981  0.26424388  1
  O  O23  1  0.27302148  0.07516019  0.76424388  1
  O  O24  1  0.75757325  0.87446481  0.53578588  1
  O  O25  1  0.74242675  0.12553519  0.03578588  1
  O  O26  1  0.25757325  0.62553519  0.46421412  1
  O  O27  1  0.24242675  0.37446481  0.96421412  1
  O  O28  1  0.71839796  0.71737047  0.59757171  1
  O  O29  1  0.78160204  0.28262953  0.09757171  1
  O  O30  1  0.21839796  0.78262953  0.40242829  1
  O  O31  1  0.28160204  0.21737047  0.90242829  1
  O  O32  1  0.95731654  0.82956927  0.98019634  1
  O  O33  1  0.54268346  0.17043073  0.48019634  1
  O  O34  1  0.45731654  0.67043073  0.01980366  1
  O  O35  1  0.04268346  0.32956927  0.51980366  1
  O  O36  1  0.62303684  0.51398143  0.22151059  1
  O  O37  1  0.87696316  0.48601857  0.72151059  1
  O  O38  1  0.12303684  0.98601857  0.77848941  1
  O  O39  1  0.37696316  0.01398143  0.27848941  1
  O  O40  1  0.91838979  0.72115131  0.28175011  1
  O  O41  1  0.58161021  0.27884869  0.78175011  1
  O  O42  1  0.41838979  0.77884869  0.71824989  1
  O  O43  1  0.08161021  0.22115131  0.21824989  1
  O  O44  1  0.81589569  0.52959158  0.87767706  1
  O  O45  1  0.68410431  0.47040842  0.37767706  1
  O  O46  1  0.31589569  0.97040842  0.12232294  1
  O  O47  1  0.18410431  0.02959158  0.62232294  1
  O  O48  1  0.96892662  0.73071396  0.12108742  1
  O  O49  1  0.53107338  0.26928604  0.62108742  1
  O  O50  1  0.46892662  0.76928604  0.87891258  1
  O  O51  1  0.03107338  0.23071396  0.37891258  1
  O  O52  1  0.79942651  0.95052058  0.38411090  1
  O  O53  1  0.70057349  0.04947942  0.88411090  1
  O  O54  1  0.29942651  0.54947942  0.61588910  1
  O  O55  1  0.20057349  0.45052058  0.11588910  1
  O  O56  1  0.52310619  0.50544147  0.67368110  1
  O  O57  1  0.97689381  0.49455853  0.17368110  1
  O  O58  1  0.02310619  0.99455853  0.32631890  1
  O  O59  1  0.47689381  0.00544147  0.82631890  1
  O  O60  1  0.62114722  0.79270083  0.46896637  1
  O  O61  1  0.87885278  0.20729917  0.96896637  1
  O  O62  1  0.12114722  0.70729917  0.53103363  1
  O  O63  1  0.37885278  0.29270083  0.03103363  1
  O  O64  1  0.52672587  0.97556033  0.18518813  1
  O  O65  1  0.97327413  0.02443967  0.68518813  1
  O  O66  1  0.02672587  0.52443967  0.81481187  1
  O  O67  1  0.47327413  0.47556033  0.31481187  1
  O  O68  1  0.77606658  0.93449452  0.77270181  1
  O  O69  1  0.72393342  0.06550548  0.27270181  1
  O  O70  1  0.27606658  0.56550548  0.22729819  1
  O  O71  1  0.22393342  0.43449452  0.72729819  1
  O  O72  1  0.75756830  0.63336452  0.00450258  1
  O  O73  1  0.74243170  0.36663548  0.50450258  1
  O  O74  1  0.25756830  0.86663548  0.99549742  1
  O  O75  1  0.24243170  0.13336452  0.49549742  1
  O  O76  1  0.99759860  0.78712954  0.62428088  1
  O  O77  1  0.50240140  0.21287046  0.12428088  1
  O  O78  1  0.49759860  0.71287046  0.37571912  1
  O  O79  1  0.00240140  0.28712954  0.87571912  1
  O  O80  1  0.56547840  0.86473472  0.76641960  1
  O  O81  1  0.93452160  0.13526528  0.26641960  1
  O  O82  1  0.06547840  0.63526528  0.23358040  1
  O  O83  1  0.43452160  0.36473472  0.73358040  1
  O  O84  1  0.51040956  0.83840022  0.03720841  1
  O  O85  1  0.98959044  0.16159978  0.53720841  1
  O  O86  1  0.01040956  0.66159978  0.96279159  1
  O  O87  1  0.48959044  0.33840022  0.46279159  1
  O  O88  1  0.81700513  0.97139978  0.99003024  1
  O  O89  1  0.68299487  0.02860022  0.49003024  1
  O  O90  1  0.31700513  0.52860022  0.00996976  1
  O  O91  1  0.18299487  0.47139978  0.50996976  1
  O  O92  1  0.97986891  0.53102081  0.34818417  1
  O  O93  1  0.52013109  0.46897919  0.84818417  1
  O  O94  1  0.47986891  0.96897919  0.65181583  1
  O  O95  1  0.02013109  0.03102081  0.15181583  1
  O  O96  1  0.82344488  0.51912462  0.47317041  1
  O  O97  1  0.67655512  0.48087538  0.97317041  1
  O  O98  1  0.32344488  0.98087538  0.52682959  1
  O  O99  1  0.17655512  0.01912462  0.02682959  1
  O  O100  1  0.95384704  0.63749770  0.70370617  1
  O  O101  1  0.54615296  0.36250230  0.20370617  1
  O  O102  1  0.45384704  0.86250230  0.29629383  1
  O  O103  1  0.04615296  0.13749770  0.79629383  1
  O  O104  1  0.76637302  0.59624417  0.28018236  1
  O  O105  1  0.73362698  0.40375583  0.78018236  1
  O  O106  1  0.26637302  0.90375583  0.71981764  1
  O  O107  1  0.23362698  0.09624417  0.21981764  1
  O  O108  1  0.87494510  0.97726631  0.23169475  1
  O  O109  1  0.62505490  0.02273369  0.73169475  1
  O  O110  1  0.37494510  0.52273369  0.76830525  1
  O  O111  1  0.12505490  0.47726631  0.26830525  1
  O  O112  1  0.97557932  0.98469940  0.86007607  1
  O  O113  1  0.52442068  0.01530060  0.36007607  1
  O  O114  1  0.47557932  0.51530060  0.13992393  1
  O  O115  1  0.02442068  0.48469940  0.63992393  1
  O  O116  1  0.57080862  0.69346710  0.75451034  1
  O  O117  1  0.92919138  0.30653290  0.25451034  1
  O  O118  1  0.07080862  0.80653290  0.24548966  1
  O  O119  1  0.42919138  0.19346710  0.74548966  1
  O  O120  1  0.95704416  0.67447309  0.49542318  1
  O  O121  1  0.54295584  0.32552691  0.99542318  1
  O  O122  1  0.45704416  0.82552691  0.50457682  1
  O  O123  1  0.04295584  0.17447309  0.00457682  1
  O  O124  1  0.78099492  0.73625623  0.42998223  1
  O  O125  1  0.71900508  0.26374377  0.92998223  1
  O  O126  1  0.28099492  0.76374377  0.57001777  1
  O  O127  1  0.21900508  0.23625623  0.07001777  1
  O  O128  1  0.72956193  0.89184153  0.23274596  1
  O  O129  1  0.77043807  0.10815847  0.73274596  1
  O  O130  1  0.22956193  0.60815847  0.76725404  1
  O  O131  1  0.27043807  0.39184153  0.26725404  1
  O  O132  1  0.72338717  0.78543591  0.07572636  1
  O  O133  1  0.77661283  0.21456409  0.57572636  1
  O  O134  1  0.22338717  0.71456409  0.92427364  1
  O  O135  1  0.27661283  0.28543591  0.42427364  1
  O  O136  1  0.66072453  0.50751308  0.54733464  1
  O  O137  1  0.83927547  0.49248692  0.04733464  1
  O  O138  1  0.16072453  0.99248692  0.45266536  1
  O  O139  1  0.33927547  0.00751308  0.95266536  1
  O  O140  1  0.76808346  0.77325399  0.90089506  1
  O  O141  1  0.73191654  0.22674601  0.40089506  1
  O  O142  1  0.26808346  0.72674601  0.09910494  1
  O  O143  1  0.23191654  0.27325399  0.59910494  1
loop_
_geom_bond_atom_site_label_1
_geom_bond_atom_site_label_2
_geom_bond_distance
_geom_bond_site_symmetry_2
Na0 O132 2.373561 1_555
Na0 O88 2.450452 1_554
Na0 O108 2.501407 1_555
Na0 O128 2.621442 1_555
Na0 O32 2.680922 1_554
Na0 O48 2.840826 1_555
Na1 O133 2.373561 1_555
Na1 O89 2.450452 1_555
Na1 O109 2.501407 1_555
Na1 O129 2.621442 1_555
Na1 O33 2.680922 1_555
Na1 O49 2.840826 1_555
Na2 O134 2.373561 1_555
Na2 O90 2.450452 1_556
Na2 O110 2.501407 1_555
Na2 O130 2.621442 1_555
Na2 O34 2.680922 1_556
Na2 O50 2.840826 1_555
Na3 O135 2.373561 1_555
Na3 O91 2.450452 1_555
Na3 O111 2.501407 1_555
Na3 O131 2.621442 1_555
Na3 O35 2.680922 1_555
Na3 O51 2.840826 1_555
Na4 O44 2.350877 1_555
Na4 O140 2.412588 1_555
Na4 O86 2.435232 1_655
Na4 O4 2.460953 1_555
Na4 O100 2.823268 1_555
Na4 O72 2.833773 1_556
Na5 O45 2.350877 1_555
Na5 O141 2.412588 1_555
Na5 O87 2.435232 1_555
Na5 O5 2.460953 1_555
Na5 O101 2.823268 1_555
Na5 O73 2.833773 1_555
Na6 O46 2.350877 1_555
Na6 O142 2.412588 1_555
Na6 O84 2.435232 1_555
Na6 O6 2.460953 1_555
Na6 O102 2.823268 1_555
Na6 O74 2.833773 1_554
Na7 O47 2.350877 1_555
Na7 O143 2.412588 1_555
Na7 O85 2.435232 1_455
Na7 O7 2.460953 1_555
Na7 O103 2.823268 1_555
Na7 O75 2.833773 1_555
Na8 O116 2.322976 1_555
Na8 O93 2.328451 1_555
Na8 O16 2.370934 1_555
Na8 O97 2.631363 1_555
Na8 O20 2.695684 1_555
Na9 O117 2.322976 1_555
Na9 O92 2.328451 1_555
Na9 O17 2.370934 1_555
Na9 O96 2.631363 1_555
Na9 O21 2.695684 1_555
Na10 O118 2.322976 1_555
Na10 O95 2.328451 1_565
Na10 O18 2.370934 1_555
Na10 O99 2.631363 1_565
Na10 O22 2.695684 1_555
Na11 O119 2.322976 1_555
Na11 O94 2.328451 1_545
Na11 O19 2.370934 1_555
Na11 O98 2.631363 1_545
Na11 O23 2.695684 1_555
Na12 O89 2.359401 1_565
Na12 O122 2.374829 1_555
Na12 O113 2.465523 1_565
Na12 O94 2.568189 1_555
Na12 O60 2.607181 1_555
Na13 O88 2.359401 1_544
Na13 O123 2.374829 1_655
Na13 O112 2.465523 1_544
Na13 O95 2.568189 1_655
Na13 O61 2.607181 1_554
Na14 O91 2.359401 1_555
Na14 O120 2.374829 1_455
Na14 O115 2.465523 1_555
Na14 O92 2.568189 1_455
Na14 O62 2.607181 1_555
Na15 O90 2.359401 1_556
Na15 O121 2.374829 1_555
Na15 O114 2.465523 1_556
Na15 O93 2.568189 1_555
Na15 O63 2.607181 1_556
Na16 O28 2.355189 1_555
Na16 O100 2.360961 1_555
Na16 O96 2.536798 1_555
Na16 O120 2.562590 1_555
Na16 O20 2.766565 1_555
Na16 O37 2.836024 1_555
Na17 O29 2.355189 1_555
Na17 O101 2.360961 1_555
Na17 O97 2.536798 1_554
Na17 O121 2.562590 1_554
Na17 O21 2.766565 1_555
Na17 O36 2.836024 1_555
Na18 O30 2.355189 1_555
Na18 O102 2.360961 1_555
Na18 O98 2.536798 1_555
Na18 O122 2.562590 1_555
Na18 O22 2.766565 1_555
Na18 O39 2.836024 1_565
Na19 O31 2.355189 1_555
Na19 O103 2.360961 1_555
Na19 O99 2.536798 1_556
Na19 O123 2.562590 1_556
Na19 O23 2.766565 1_555
Na19 O38 2.836024 1_545
Na20 O65 2.423017 1_565
Na20 O1 2.447327 1_565
Na20 O68 2.493388 1_555
Na20 O4 2.518817 1_555
Na20 O76 2.552634 1_555
Na20 O24 2.616160 1_555
Na21 O64 2.423017 1_545
Na21 O0 2.447327 1_545
Na21 O69 2.493388 1_555
Na21 O5 2.518817 1_555
Na21 O77 2.552634 1_555
Na21 O25 2.616160 1_555
Na22 O67 2.423017 1_555
Na22 O3 2.447327 1_555
Na22 O70 2.493388 1_555
Na22 O6 2.518817 1_555
Na22 O78 2.552634 1_555
Na22 O26 2.616160 1_555
Na23 O66 2.423017 1_555
Na23 O2 2.447327 1_555
Na23 O71 2.493388 1_555
Na23 O7 2.518817 1_555
Na23 O79 2.552634 1_555
Na23 O27 2.616160 1_555
Na24 O104 2.428070 1_555
Na24 O137 2.489861 1_555
Na24 O48 2.527475 1_555
Na24 O72 2.580661 1_555
Na24 O40 2.780449 1_555
Na24 O57 2.805179 1_555
Na25 O105 2.428070 1_555
Na25 O136 2.489861 1_555
Na25 O49 2.527475 1_555
Na25 O73 2.580661 1_555
Na25 O41 2.780449 1_555
Na25 O56 2.805179 1_555
Na26 O106 2.428070 1_555
Na26 O139 2.489861 1_565
Na26 O50 2.527475 1_555
Na26 O74 2.580661 1_555
Na26 O42 2.780449 1_555
Na26 O59 2.805179 1_565
Na27 O107 2.428070 1_555
Na27 O138 2.489861 1_545
Na27 O51 2.527475 1_555
Na27 O75 2.580661 1_555
Na27 O43 2.780449 1_555
Na27 O58 2.805179 1_545
Na28 O2 2.424546 1_654
Na28 O86 2.434605 1_654
Na28 O137 2.509406 1_555
Na28 O57 2.591546 1_555
Na28 O13 2.693055 1_555
Na28 O66 2.945341 1_654
Na29 O3 2.424546 1_555
Na29 O87 2.434605 1_555
Na29 O136 2.509406 1_555
Na29 O56 2.591546 1_555
Na29 O12 2.693055 1_555
Na29 O67 2.945341 1_555
Na30 O0 2.424546 1_556
Na30 O84 2.434605 1_556
Na30 O139 2.509406 1_565
Na30 O59 2.591546 1_565
Na30 O15 2.693055 1_565
Na30 O64 2.945341 1_556
Na31 O1 2.424546 1_455
Na31 O85 2.434605 1_455
Na31 O138 2.509406 1_545
Na31 O58 2.591546 1_545
Na31 O14 2.693055 1_545
Na31 O65 2.945341 1_455
Na32 O52 2.285200 1_555
Na32 O14 2.292788 1_655
Na32 O40 2.325831 1_555
Na32 O124 2.621057 1_555
Na33 O53 2.285200 1_555
Na33 O15 2.292788 1_555
Na33 O41 2.325831 1_555
Na33 O125 2.621057 1_555
Na34 O54 2.285200 1_555
Na34 O12 2.292788 1_555
Na34 O42 2.325831 1_555
Na34 O126 2.621057 1_555
Na35 O55 2.285200 1_555
Na35 O13 2.292788 1_455
Na35 O43 2.325831 1_555
Na35 O127 2.621057 1_555
Na36 O8 2.311419 1_555
Na36 O124 2.324533 1_555
Na36 O128 2.463153 1_555
Na36 O104 2.508191 1_555
Na37 O9 2.311419 1_555
Na37 O125 2.324533 1_555
Na37 O129 2.463153 1_555
Na37 O105 2.508191 1_555
Na38 O10 2.311419 1_555
Na38 O126 2.324533 1_555
Na38 O130 2.463153 1_555
Na38 O106 2.508191 1_555
Na39 O11 2.311419 1_555
Na39 O127 2.324533 1_555
Na39 O131 2.463153 1_555
Na39 O107 2.508191 1_555
Na40 O36 2.396783 1_555
Na40 O114 2.448082 1_555
Na40 O8 2.569333 1_555
Na40 O34 2.592791 1_555
Na40 O16 2.751542 1_554
Na41 O37 2.396783 1_555
Na41 O115 2.448082 1_655
Na41 O9 2.569333 1_555
Na41 O35 2.592791 1_655
Na41 O17 2.751542 1_555
Na42 O38 2.396783 1_555
Na42 O112 2.448082 1_455
Na42 O10 2.569333 1_555
Na42 O32 2.592791 1_455
Na42 O18 2.751542 1_556
Na43 O39 2.396783 1_555
Na43 O113 2.448082 1_555
Na43 O11 2.569333 1_555
Na43 O33 2.592791 1_555
Na43 O19 2.751542 1_555
Na44 O68 2.424628 1_555
Na44 O140 2.466504 1_555
Na44 O80 2.500364 1_555
Na44 O28 2.606200 1_555
Na44 O116 2.627288 1_555
Na45 O69 2.424628 1_555
Na45 O141 2.466504 1_555
Na45 O81 2.500364 1_555
Na45 O29 2.606200 1_555
Na45 O117 2.627288 1_555
Na46 O70 2.424628 1_555
Na46 O142 2.466504 1_555
Na46 O82 2.500364 1_555
Na46 O30 2.606200 1_555
Na46 O118 2.627288 1_555
Na47 O71 2.424628 1_555
Na47 O143 2.466504 1_555
Na47 O83 2.500364 1_555
Na47 O31 2.606200 1_555
Na47 O119 2.627288 1_555
O0 Si9 1.617824 1_564
O0 Y0 2.256807 1_555
O1 Si8 1.617824 1_545
O1 Y1 2.256807 1_555
O2 Si11 1.617824 1_556
O2 Y2 2.256807 1_555
O3 Si10 1.617824 1_555
O3 Y3 2.256807 1_555
O4 Si40 1.619238 1_555
O4 Y12 2.277764 1_555
O5 Si41 1.619238 1_555
O5 Y13 2.277764 1_555
O6 Si42 1.619238 1_555
O6 Y14 2.277764 1_555
O7 Si43 1.619238 1_555
O7 Y15 2.277764 1_555
O8 Si42 1.622769 1_555
O8 Y0 2.315470 1_555
O9 Si43 1.622769 1_655
O9 Y1 2.315470 1_555
O10 Si40 1.622769 1_455
O10 Y2 2.315470 1_555
O11 Si41 1.622769 1_555
O11 Y3 2.315470 1_555
O12 Si4 1.622170 1_555
O12 Y8 2.284542 1_555
O13 Si5 1.622170 1_554
O13 Y9 2.284542 1_555
O14 Si6 1.622170 1_555
O14 Y10 2.284542 1_555
O15 Si7 1.622170 1_556
O15 Y11 2.284542 1_555
O16 Si44 1.683974 1_555
O16 Si32 1.684388 1_555
O17 Si45 1.683974 1_555
O17 Si33 1.684388 1_555
O18 Si46 1.683974 1_555
O18 Si34 1.684388 1_555
O19 Si47 1.683974 1_555
O19 Si35 1.684388 1_555
O20 Si25 1.617648 1_555
O20 Y8 2.255628 1_555
O21 Si24 1.617648 1_555
O21 Y9 2.255628 1_555
O22 Si27 1.617648 1_565
O22 Y10 2.255628 1_555
O23 Si26 1.617648 1_545
O23 Y11 2.255628 1_555
O24 Si28 1.664648 1_555
O24 Si8 1.670034 1_555
O25 Si29 1.664648 1_555
O25 Si9 1.670034 1_554
O26 Si30 1.664648 1_555
O26 Si10 1.670034 1_555
O27 Si31 1.664648 1_555
O27 Si11 1.670034 1_556
O28 Si28 1.626347 1_555
O28 Y8 2.291038 1_555
O29 Si29 1.626347 1_555
O29 Y9 2.291038 1_555
O30 Si30 1.626347 1_555
O30 Y10 2.291038 1_555
O31 Si31 1.626347 1_555
O31 Y11 2.291038 1_555
O32 Si34 1.614999 1_656
O32 Y12 2.244478 1_555
O33 Si35 1.614999 1_555
O33 Y13 2.244478 1_555
O34 Si32 1.614999 1_554
O34 Y14 2.244478 1_555
O35 Si33 1.614999 1_455
O35 Y15 2.244478 1_555
O36 Si24 1.673792 1_555
O36 Si13 1.689491 1_555
O37 Si25 1.673792 1_555
O37 Si12 1.689491 1_555
O38 Si26 1.673792 1_555
O38 Si15 1.689491 1_565
O39 Si27 1.673792 1_555
O39 Si14 1.689491 1_545
O40 Si18 1.618241 1_655
O40 Y4 2.237131 1_555
O41 Si19 1.618241 1_555
O41 Y5 2.237131 1_555
O42 Si16 1.618241 1_555
O42 Y6 2.237131 1_555
O43 Si17 1.618241 1_455
O43 Y7 2.237131 1_555
O44 Si36 1.669330 1_555
O44 Si25 1.678992 1_555
O45 Si37 1.669330 1_555
O45 Si24 1.678992 1_555
O46 Si38 1.669330 1_555
O46 Si27 1.678992 1_565
O47 Si39 1.669330 1_555
O47 Si26 1.678992 1_545
O48 Si34 1.665586 1_655
O48 Si18 1.678130 1_655
O49 Si35 1.665586 1_555
O49 Si19 1.678130 1_555
O50 Si32 1.665586 1_555
O50 Si16 1.678130 1_555
O51 Si33 1.665586 1_455
O51 Si17 1.678130 1_455
O52 Si8 1.671466 1_555
O52 Si20 1.675797 1_555
O53 Si9 1.671466 1_555
O53 Si21 1.675797 1_555
O54 Si10 1.671466 1_555
O54 Si22 1.675797 1_555
O55 Si11 1.671466 1_555
O55 Si23 1.675797 1_555
O56 Si3 1.620516 1_555
O56 Y8 2.286301 1_555
O57 Si2 1.620516 1_655
O57 Y9 2.286301 1_555
O58 Si1 1.620516 1_465
O58 Y10 2.286301 1_555
O59 Si0 1.620516 1_545
O59 Y11 2.286301 1_555
O60 Si4 1.673950 1_555
O60 Si28 1.675054 1_555
O61 Si5 1.673950 1_555
O61 Si29 1.675054 1_556
O62 Si6 1.673950 1_555
O62 Si30 1.675054 1_555
O63 Si7 1.673950 1_555
O63 Si31 1.675054 1_554
O64 Si14 1.607089 1_555
O64 Y0 2.268464 1_555
O65 Si15 1.607089 1_655
O65 Y1 2.268464 1_555
O66 Si12 1.607089 1_455
O66 Y2 2.268464 1_555
O67 Si13 1.607089 1_555
O67 Y3 2.268464 1_555
O68 Si21 1.617077 1_565
O68 Y12 2.268971 1_555
O69 Si20 1.617077 1_545
O69 Y13 2.268971 1_555
O70 Si23 1.617077 1_555
O70 Y14 2.268971 1_555
O71 Si22 1.617077 1_555
O71 Y15 2.268971 1_555
O72 Si36 1.671042 1_554
O72 Si44 1.675937 1_554
O73 Si37 1.671042 1_555
O73 Si45 1.675937 1_555
O74 Si38 1.671042 1_556
O74 Si46 1.675937 1_556
O75 Si39 1.671042 1_555
O75 Si47 1.675937 1_555
O76 Si40 1.660168 1_555
O76 Si6 1.669884 1_655
O77 Si41 1.660168 1_555
O77 Si7 1.669884 1_555
O78 Si42 1.660168 1_555
O78 Si4 1.669884 1_555
O79 Si43 1.660168 1_555
O79 Si5 1.669884 1_455
O80 Si16 1.665981 1_555
O80 Si0 1.679023 1_555
O81 Si17 1.665981 1_555
O81 Si1 1.679023 1_555
O82 Si18 1.665981 1_555
O82 Si2 1.679023 1_555
O83 Si19 1.665981 1_555
O83 Si3 1.679023 1_555
O84 Si32 1.617129 1_554
O84 Y0 2.328129 1_555
O85 Si33 1.617129 1_555
O85 Y1 2.328129 1_555
O86 Si34 1.617129 1_556
O86 Y2 2.328129 1_555
O87 Si35 1.617129 1_555
O87 Y3 2.328129 1_555
O88 Si9 1.622397 1_565
O88 Y12 2.271658 1_555
O89 Si8 1.622397 1_545
O89 Y13 2.271658 1_555
O90 Si11 1.622397 1_555
O90 Y14 2.271658 1_555
O91 Si10 1.622397 1_555
O91 Y15 2.271658 1_555
O92 Si2 1.633294 1_655
O92 Y4 2.316196 1_555
O93 Si3 1.633294 1_555
O93 Y5 2.316196 1_555
O94 Si0 1.633294 1_555
O94 Y6 2.316196 1_555
O95 Si1 1.633294 1_455
O95 Y7 2.316196 1_555
O96 Si37 1.619393 1_555
O96 Y4 2.272197 1_555
O97 Si36 1.619393 1_555
O97 Y5 2.272197 1_555
O98 Si39 1.619393 1_565
O98 Y6 2.272197 1_555
O99 Si38 1.619393 1_545
O99 Y7 2.272197 1_555
O100 Si12 1.684627 1_555
O100 Si40 1.686119 1_555
O101 Si13 1.684627 1_555
O101 Si41 1.686119 1_555
O102 Si14 1.684627 1_555
O102 Si42 1.686119 1_555
O103 Si15 1.684627 1_555
O103 Si43 1.686119 1_555
O104 Si24 1.623272 1_555
O104 Y4 2.334969 1_555
O105 Si25 1.623272 1_555
O105 Y5 2.334969 1_555
O106 Si26 1.623272 1_555
O106 Y6 2.334969 1_555
O107 Si27 1.623272 1_555
O107 Y7 2.334969 1_555
O108 Si1 1.669522 1_565
O108 Si20 1.679546 1_555
O109 Si0 1.669522 1_545
O109 Si21 1.679546 1_555
O110 Si3 1.669522 1_555
O110 Si22 1.679546 1_555
O111 Si2 1.669522 1_555
O111 Si23 1.679546 1_555
O112 Si15 1.620701 1_665
O112 Y12 2.294140 1_555
O113 Si14 1.620701 1_545
O113 Y13 2.294140 1_555
O114 Si13 1.620701 1_555
O114 Y14 2.294140 1_555
O115 Si12 1.620701 1_455
O115 Y15 2.294140 1_555
O116 Si16 1.610959 1_555
O116 Y8 2.263739 1_555
O117 Si17 1.610959 1_555
O117 Y9 2.263739 1_555
O118 Si18 1.610959 1_555
O118 Y10 2.263739 1_555
O119 Si19 1.610959 1_555
O119 Y11 2.263739 1_555
O120 Si6 1.625610 1_655
O120 Y4 2.239266 1_555
O121 Si7 1.625610 1_556
O121 Y5 2.239266 1_555
O122 Si4 1.625610 1_555
O122 Y6 2.239266 1_555
O123 Si5 1.625610 1_454
O123 Y7 2.239266 1_555
O124 Si28 1.623939 1_555
O124 Y4 2.257311 1_555
O125 Si29 1.623939 1_556
O125 Y5 2.257311 1_555
O126 Si30 1.623939 1_555
O126 Y6 2.257311 1_555
O127 Si31 1.623939 1_554
O127 Y7 2.257311 1_555
O128 Si20 1.619153 1_555
O128 Y0 2.256512 1_555
O129 Si21 1.619153 1_555
O129 Y1 2.256512 1_555
O130 Si22 1.619153 1_555
O130 Y2 2.256512 1_555
O131 Si23 1.619153 1_555
O131 Y3 2.256512 1_555
O132 Si44 1.610341 1_554
O132 Y0 2.257084 1_555
O133 Si45 1.610341 1_555
O133 Y1 2.257084 1_555
O134 Si46 1.610341 1_556
O134 Y2 2.257084 1_555
O135 Si47 1.610341 1_555
O135 Y3 2.257084 1_555
O136 Si37 1.603683 1_555
O136 Y8 2.234415 1_555
O137 Si36 1.603683 1_554
O137 Y9 2.234415 1_555
O138 Si39 1.603683 1_565
O138 Y10 2.234415 1_555
O139 Si38 1.603683 1_546
O139 Y11 2.234415 1_555
O140 Si44 1.610895 1_555
O140 Y12 2.305034 1_555
O141 Si45 1.610895 1_555
O141 Y13 2.305034 1_555
O142 Si46 1.610895 1_555
O142 Y14 2.305034 1_555
O143 Si47 1.610895 1_555
O143 Y15 2.305034 1_555
