# generated using pymatgen
data_Li3Ti3VO8
_symmetry_space_group_name_H-M   'P 1'
_cell_length_a   10.48093303
_cell_length_b   10.48071629
_cell_length_c   14.86253396
_cell_angle_alpha   19.06782509
_cell_angle_beta   19.06751768
_cell_angle_gamma   32.86547572
_symmetry_Int_Tables_number   1
_chemical_formula_structural   Li3Ti3VO8
_chemical_formula_sum   'Li3 Ti3 V1 O8'
_cell_volume   150.92348587
_cell_formula_units_Z   1
loop_
 _symmetry_equiv_pos_site_id
 _symmetry_equiv_pos_as_xyz
  1  'x, y, z'
loop_
 _atom_site_type_symbol
 _atom_site_label
 _atom_site_symmetry_multiplicity
 _atom_site_fract_x
 _atom_site_fract_y
 _atom_site_fract_z
 _atom_site_occupancy
  Li  Li0  1  0.99998900  0.50000100  0.50000700  1
  Li  Li1  1  0.49999400  0.00000700  0.49999800  1
  Li  Li2  1  0.49998800  0.50000700  0.50000300  1
  Ti  Ti0  1  0.99999600  0.50000800  0.99999600  1
  Ti  Ti1  1  0.49998800  0.00000000  0.00000800  1
  Ti  Ti2  1  0.49998800  0.49999800  0.00000900  1
  V  V0  1  0.00010200  0.99998900  0.99994800  1
  O  O0  1  0.00048400  0.00048200  0.25433400  1
  O  O1  1  0.99943400  0.49732900  0.26229500  1
  O  O2  1  0.49732500  0.99940800  0.26231800  1
  O  O3  1  0.99949600  0.99952100  0.74567500  1
  O  O4  1  0.50354000  0.50351300  0.25541700  1
  O  O5  1  0.00055600  0.50265900  0.73771500  1
  O  O6  1  0.50267300  0.00059000  0.73768800  1
  O  O7  1  0.49644900  0.49648800  0.74458800  1
loop_
_geom_bond_atom_site_label_1
_geom_bond_atom_site_label_2
_geom_bond_distance
_geom_bond_site_symmetry_2
Li0 O0 2.157018 1_665
Li0 O3 2.157046 1_545
Li0 O7 2.208541 1_555
Li0 O4 2.208550 1_655
Li0 O6 2.211083 1_664
Li0 O2 2.211087 1_546
Li1 O0 2.157160 1_655
Li1 O3 2.157164 1_445
Li1 O4 2.208324 1_555
Li1 O7 2.208350 1_545
Li1 O5 2.211036 1_654
Li1 O1 2.211049 1_446
Li2 O0 2.157860 1_556
Li2 O3 2.157866 1_554
Li2 O2 2.205848 1_555
Li2 O6 2.205883 1_555
Li2 O5 2.206002 1_555
Li2 O1 2.206037 1_555
O0 Ti0 2.069089 1_454
O0 Ti1 2.069100 1_555
O0 Ti2 2.073762 1_446
O1 Ti2 2.025472 1_655
O1 Ti1 2.025532 1_556
O1 V0 2.034444 1_654
O2 Ti0 2.025430 1_455
O2 Ti2 2.025494 1_565
O2 V0 2.034952 1_654
O3 Ti0 2.069072 1_555
O3 Ti1 2.069087 1_566
O3 Ti2 2.073733 1_665
O4 Ti0 2.022708 1_554
O4 Ti1 2.022809 1_565
O4 V0 2.040471 1_545
O5 Ti1 2.025491 1_565
O5 Ti2 2.025492 1_456
O5 V0 2.034608 1_545
O6 Ti0 2.025496 1_554
O6 Ti2 2.025500 1_546
O6 V0 2.034216 1_545
O7 Ti0 2.022729 1_455
O7 Ti1 2.022780 1_556
O7 V0 2.040598 1_654
