# generated using pymatgen
data_Ba2YCu3O8
_symmetry_space_group_name_H-M   'P 1'
_cell_length_a   3.93240600
_cell_length_b   3.93240600
_cell_length_c   11.57396200
_cell_angle_alpha   90.00000000
_cell_angle_beta   90.00000000
_cell_angle_gamma   90.00000000
_symmetry_Int_Tables_number   1
_chemical_formula_structural   Ba2YCu3O8
_chemical_formula_sum   'Ba2 Y1 Cu3 O8'
_cell_volume   178.97762974
_cell_formula_units_Z   1
loop_
 _symmetry_equiv_pos_site_id
 _symmetry_equiv_pos_as_xyz
  1  'x, y, z'
loop_
 _atom_site_type_symbol
 _atom_site_label
 _atom_site_symmetry_multiplicity
 _atom_site_fract_x
 _atom_site_fract_y
 _atom_site_fract_z
 _atom_site_occupancy
  Ba  Ba0  1  0.50000000  0.50000000  0.16871500  1
  Ba  Ba1  1  0.50000000  0.50000000  0.83128500  1
  Y  Y0  1  0.50000000  0.50000000  0.50000000  1
  Cu  Cu0  1  0.00000000  0.00000000  0.00000000  1
  Cu  Cu1  1  0.00000000  0.00000000  0.34612000  1
  Cu  Cu2  1  0.00000000  0.00000000  0.65388000  1
  O  O0  1  0.50000000  0.00000000  0.37939500  1
  O  O1  1  0.50000000  0.00000000  0.62060500  1
  O  O2  1  0.00000000  0.50000000  0.37939500  1
  O  O3  1  0.00000000  0.50000000  0.62060500  1
  O  O4  1  0.00000000  0.00000000  0.17244000  1
  O  O5  1  0.00000000  0.00000000  0.82756000  1
  O  O6  1  0.50000000  0.00000000  0.00000000  1
  O  O7  1  0.00000000  0.50000000  0.00000000  1
loop_
_geom_bond_atom_site_label_1
_geom_bond_atom_site_label_2
_geom_bond_distance
_geom_bond_site_symmetry_2
Ba0 O7 2.771100 1_555
Ba0 O7 2.771100 1_655
Ba0 O6 2.771100 1_555
Ba0 O6 2.771100 1_565
Ba0 O4 2.780965 1_555
Ba0 O4 2.780965 1_565
Ba0 O4 2.780965 1_655
Ba0 O4 2.780965 1_665
Ba0 O0 3.132373 1_555
Ba0 O0 3.132373 1_565
Ba0 O2 3.132373 1_555
Ba0 O2 3.132373 1_655
Ba1 O7 2.771100 1_656
Ba1 O6 2.771100 1_566
Ba1 O6 2.771100 1_556
Ba1 O7 2.771100 1_556
Ba1 O5 2.780965 1_555
Ba1 O5 2.780965 1_565
Ba1 O5 2.780965 1_655
Ba1 O5 2.780965 1_665
Ba1 O3 3.132373 1_655
Ba1 O1 3.132373 1_555
Ba1 O1 3.132373 1_565
Ba1 O3 3.132373 1_555
Cu0 O6 1.966203 1_555
Cu0 O7 1.966203 1_555
Cu0 O7 1.966203 1_545
Cu0 O6 1.966203 1_455
Cu0 O5 1.995814 1_554
Cu0 O4 1.995814 1_555
Cu1 O2 2.003565 1_545
Cu1 O0 2.003565 1_555
Cu1 O2 2.003565 1_555
Cu1 O0 2.003565 1_455
Cu1 O4 2.010166 1_555
Cu2 O3 2.003565 1_555
Cu2 O1 2.003565 1_455
Cu2 O1 2.003565 1_555
Cu2 O3 2.003565 1_545
Cu2 O5 2.010166 1_555
O0 Y0 2.411313 1_545
O0 Y0 2.411313 1_555
O1 Y0 2.411313 1_545
O1 Y0 2.411313 1_555
O2 Y0 2.411313 1_455
O2 Y0 2.411313 1_555
O3 Y0 2.411313 1_555
O3 Y0 2.411313 1_455
