# generated using pymatgen
data_Au3F8
_symmetry_space_group_name_H-M   'P 1'
_cell_length_a   5.20498966
_cell_length_b   5.73583740
_cell_length_c   10.71568051
_cell_angle_alpha   89.99692980
_cell_angle_beta   89.99922282
_cell_angle_gamma   90.06753241
_symmetry_Int_Tables_number   1
_chemical_formula_structural   Au3F8
_chemical_formula_sum   'Au6 F16'
_cell_volume   319.91614425
_cell_formula_units_Z   2
loop_
 _symmetry_equiv_pos_site_id
 _symmetry_equiv_pos_as_xyz
  1  'x, y, z'
loop_
 _atom_site_type_symbol
 _atom_site_label
 _atom_site_symmetry_multiplicity
 _atom_site_fract_x
 _atom_site_fract_y
 _atom_site_fract_z
 _atom_site_occupancy
  Au  Au0  1  0.31790455  0.95779003  0.67951420  1
  Au  Au1  1  0.18211495  0.54220925  0.17953797  1
  Au  Au2  1  0.68209545  0.04220997  0.32048580  1
  Au  Au3  1  0.81788505  0.45779075  0.82046203  1
  Au  Au4  1  0.50000000  -0.00000000  0.00000000  1
  Au  Au5  1  -0.00000000  0.50000000  0.50000000  1
  F  F0  1  0.26674292  0.11103852  0.52191613  1
  F  F1  1  0.23327823  0.38896030  0.02191423  1
  F  F2  1  0.73325708  0.88896048  0.47808387  1
  F  F3  1  0.76672177  0.61104070  0.97808577  1
  F  F4  1  0.18522786  0.85140992  0.09684029  1
  F  F5  1  0.31476554  0.64860270  0.59682769  1
  F  F6  1  0.85524543  0.30271884  0.65668331  1
  F  F7  1  0.64476054  0.19728871  0.15669218  1
  F  F8  1  0.14475457  0.69728116  0.34331669  1
  F  F9  1  0.35523946  0.80271129  0.84330782  1
  F  F10  1  0.83545116  0.74957978  0.73209175  1
  F  F11  1  0.66451553  0.75042087  0.23210723  1
  F  F12  1  0.16454884  0.25042022  0.26790825  1
  F  F13  1  0.33548447  0.24957913  0.76789277  1
  F  F14  1  0.68523446  0.35139730  0.40317231  1
  F  F15  1  0.81477214  0.14859008  0.90315971  1
loop_
_geom_bond_atom_site_label_1
_geom_bond_atom_site_label_2
_geom_bond_distance
_geom_bond_site_symmetry_2
Au0 F0 1.922478 1_565
Au0 F13 1.925145 1_565
Au0 F9 1.977327 1_555
Au0 F5 1.982563 1_555
Au1 F1 1.922798 1_555
Au1 F12 1.925008 1_555
Au1 F8 1.977261 1_555
Au1 F4 1.982599 1_555
Au2 F2 1.922480 1_545
Au2 F11 1.925145 1_545
Au2 F7 1.977327 1_555
Au2 F14 1.982563 1_555
Au3 F3 1.922801 1_555
Au3 F10 1.925008 1_555
Au3 F6 1.977261 1_555
Au3 F15 1.982599 1_555
Au4 F15 2.117572 1_554
Au4 F4 2.117572 1_545
Au4 F9 2.160038 1_544
Au4 F7 2.160038 1_555
Au5 F5 2.117575 1_555
Au5 F14 2.117575 1_455
Au5 F8 2.159820 1_555
Au5 F6 2.159820 1_455
