# generated using pymatgen
data_LaPd2
_symmetry_space_group_name_H-M   'P 1'
_cell_length_a   4.00774800
_cell_length_b   4.00774800
_cell_length_c   5.29409106
_cell_angle_alpha   112.24150791
_cell_angle_beta   112.24150791
_cell_angle_gamma   90.00000000
_symmetry_Int_Tables_number   1
_chemical_formula_structural   LaPd2
_chemical_formula_sum   'La1 Pd2'
_cell_volume   71.82514022
_cell_formula_units_Z   1
loop_
 _symmetry_equiv_pos_site_id
 _symmetry_equiv_pos_as_xyz
  1  'x, y, z'
loop_
 _atom_site_type_symbol
 _atom_site_label
 _atom_site_symmetry_multiplicity
 _atom_site_fract_x
 _atom_site_fract_y
 _atom_site_fract_z
 _atom_site_occupancy
  La  La0  1  0.00000000  0.00000000  0.00000000  1
  Pd  Pd0  1  0.25000000  0.75000000  0.50000000  1
  Pd  Pd1  1  0.75000000  0.25000000  0.50000000  1
loop_
_geom_bond_atom_site_label_1
_geom_bond_atom_site_label_2
_geom_bond_distance
_geom_bond_site_symmetry_2
La0 Pd0 3.002433 1_544
La0 Pd0 3.002433 1_545
La0 Pd1 3.002433 1_455
La0 Pd1 3.002433 1_454
La0 Pd0 3.002433 1_444
La0 Pd0 3.002433 1_555
La0 Pd1 3.002433 1_555
La0 Pd1 3.002433 1_444
Pd0 Pd1 2.833906 1_555
Pd0 Pd1 2.833906 1_565
Pd0 Pd1 2.833906 1_455
Pd0 Pd1 2.833906 1_465
