# generated using pymatgen
data_Al4CrS8
_symmetry_space_group_name_H-M   'P 1'
_cell_length_a   6.99591509
_cell_length_b   6.99591509
_cell_length_c   6.99591509
_cell_angle_alpha   60.00000000
_cell_angle_beta   60.00000000
_cell_angle_gamma   60.00000000
_symmetry_Int_Tables_number   1
_chemical_formula_structural   Al4CrS8
_chemical_formula_sum   'Al4 Cr1 S8'
_cell_volume   242.11326884
_cell_formula_units_Z   1
loop_
 _symmetry_equiv_pos_site_id
 _symmetry_equiv_pos_as_xyz
  1  'x, y, z'
loop_
 _atom_site_type_symbol
 _atom_site_label
 _atom_site_symmetry_multiplicity
 _atom_site_fract_x
 _atom_site_fract_y
 _atom_site_fract_z
 _atom_site_occupancy
  Al  Al0  1  0.58160700  0.13946400  0.13946400  1
  Al  Al1  1  0.13946400  0.58160700  0.13946400  1
  Al  Al2  1  0.13946400  0.13946400  0.58160700  1
  Al  Al3  1  0.13946400  0.13946400  0.13946400  1
  Cr  Cr0  1  0.75000000  0.75000000  0.75000000  1
  S  S0  1  0.36351700  0.87882800  0.87882800  1
  S  S1  1  0.87882800  0.36351700  0.87882800  1
  S  S2  1  0.87882800  0.87882800  0.36351700  1
  S  S3  1  0.87882800  0.87882800  0.87882800  1
  S  S4  1  0.87911800  0.37362700  0.37362700  1
  S  S5  1  0.37362700  0.87911800  0.37362700  1
  S  S6  1  0.37362700  0.37362700  0.87911800  1
  S  S7  1  0.37362700  0.37362700  0.37362700  1
loop_
_geom_bond_atom_site_label_1
_geom_bond_atom_site_label_2
_geom_bond_distance
_geom_bond_site_symmetry_2
Al0 S7 2.323973 1_555
Al0 S5 2.323973 1_545
Al0 S6 2.323973 1_554
Al0 S3 2.591330 1_544
Al0 S2 2.591339 1_545
Al0 S1 2.591339 1_554
Al1 S7 2.323973 1_555
Al1 S4 2.323973 1_455
Al1 S6 2.323973 1_554
Al1 S3 2.591330 1_454
Al1 S2 2.591339 1_455
Al1 S0 2.591339 1_554
Al2 S7 2.323973 1_555
Al2 S4 2.323973 1_455
Al2 S5 2.323973 1_545
Al2 S3 2.591330 1_445
Al2 S0 2.591339 1_545
Al2 S1 2.591339 1_455
Al3 S4 2.323973 1_455
Al3 S6 2.323973 1_554
Al3 S5 2.323973 1_545
Al3 S2 2.591329 1_445
Al3 S1 2.591329 1_454
Al3 S0 2.591329 1_544
Cr0 S2 2.207645 1_555
Cr0 S0 2.207645 1_555
Cr0 S1 2.207645 1_555
Cr0 S3 2.207651 1_555
