# generated using pymatgen
data_YbO3
_symmetry_space_group_name_H-M   'P 1'
_cell_length_a   4.88355775
_cell_length_b   4.88355775
_cell_length_c   4.41867700
_cell_angle_alpha   90.00000000
_cell_angle_beta   90.00000000
_cell_angle_gamma   119.99999661
_symmetry_Int_Tables_number   1
_chemical_formula_structural   YbO3
_chemical_formula_sum   'Yb2 O6'
_cell_volume   91.26317181
_cell_formula_units_Z   2
loop_
 _symmetry_equiv_pos_site_id
 _symmetry_equiv_pos_as_xyz
  1  'x, y, z'
loop_
 _atom_site_type_symbol
 _atom_site_label
 _atom_site_symmetry_multiplicity
 _atom_site_fract_x
 _atom_site_fract_y
 _atom_site_fract_z
 _atom_site_occupancy
  Yb  Yb0  1  0.33333300  0.66666700  0.75000000  1
  Yb  Yb1  1  0.66666700  0.33333300  0.25000000  1
  O  O0  1  0.41059800  0.20529900  0.75000000  1
  O  O1  1  0.58940200  0.79470100  0.25000000  1
  O  O2  1  0.79470100  0.20529900  0.75000000  1
  O  O3  1  0.20529900  0.79470100  0.25000000  1
  O  O4  1  0.79470100  0.58940200  0.75000000  1
  O  O5  1  0.20529900  0.41059800  0.25000000  1
loop_
_geom_bond_atom_site_label_1
_geom_bond_atom_site_label_2
_geom_bond_distance
_geom_bond_site_symmetry_2
O0 O2 1.875789 1_555
O0 O4 1.875789 1_555
O0 Yb1 2.460496 1_556
O0 Yb1 2.460496 1_555
O0 Yb0 2.463545 1_545
O0 Yb0 2.463550 1_555
O1 O3 1.875789 1_555
O1 O5 1.875789 1_555
O1 Yb0 2.460496 1_554
O1 Yb0 2.460496 1_555
O1 Yb1 2.463545 1_565
O1 Yb1 2.463550 1_555
O2 O4 1.875789 1_555
O2 Yb1 2.460494 1_556
O2 Yb1 2.460494 1_555
O2 Yb0 2.463547 1_655
O2 Yb0 2.463547 1_545
O3 O5 1.875789 1_555
O3 Yb0 2.460494 1_555
O3 Yb0 2.460494 1_554
O3 Yb1 2.463547 1_455
O3 Yb1 2.463547 1_565
O4 Yb1 2.460496 1_556
O4 Yb1 2.460496 1_555
O4 Yb0 2.463545 1_655
O4 Yb0 2.463550 1_555
O5 Yb0 2.460496 1_554
O5 Yb0 2.460496 1_555
O5 Yb1 2.463545 1_455
O5 Yb1 2.463550 1_555
