# generated using pymatgen
data_ErV2Fe10N
_symmetry_space_group_name_H-M   'P 1'
_cell_length_a   4.71014700
_cell_length_b   6.49901424
_cell_length_c   6.49901424
_cell_angle_alpha   97.68366052
_cell_angle_beta   111.24605583
_cell_angle_gamma   68.75394417
_symmetry_Int_Tables_number   1
_chemical_formula_structural   ErV2Fe10N
_chemical_formula_sum   'Er1 V2 Fe10 N1'
_cell_volume   172.81848919
_cell_formula_units_Z   1
loop_
 _symmetry_equiv_pos_site_id
 _symmetry_equiv_pos_as_xyz
  1  'x, y, z'
loop_
 _atom_site_type_symbol
 _atom_site_label
 _atom_site_symmetry_multiplicity
 _atom_site_fract_x
 _atom_site_fract_y
 _atom_site_fract_z
 _atom_site_occupancy
  Er  Er0  1  0.00000000  0.00000000  0.00000000  1
  V  V0  1  0.00000000  0.35718200  0.35718200  1
  V  V1  1  0.00000000  0.64281800  0.64281800  1
  Fe  Fe0  1  0.72492200  0.77507800  0.22492200  1
  Fe  Fe1  1  0.27507800  0.22492200  0.77507800  1
  Fe  Fe2  1  0.50000000  0.77704500  0.77704500  1
  Fe  Fe3  1  0.50000000  0.22295500  0.22295500  1
  Fe  Fe4  1  0.50000000  0.00000000  0.50000000  1
  Fe  Fe5  1  0.00000000  0.00000000  0.50000000  1
  Fe  Fe6  1  0.50000000  0.50000000  0.00000000  1
  Fe  Fe7  1  0.00000000  0.50000000  0.00000000  1
  Fe  Fe8  1  0.64048000  0.35952000  0.64048000  1
  Fe  Fe9  1  0.35952000  0.64048000  0.35952000  1
  N  N0  1  0.50000000  0.00000000  0.00000000  1
loop_
_geom_bond_atom_site_label_1
_geom_bond_atom_site_label_2
_geom_bond_distance
_geom_bond_site_symmetry_2
Er0 N0 2.355074 1_455
Er0 N0 2.355074 1_555
Er0 V0 3.055521 1_555
Er0 V1 3.055521 1_544
Er0 Fe9 3.083991 1_545
Er0 Fe8 3.083991 1_454
Er0 Fe5 3.249507 1_555
Er0 Fe5 3.249507 1_554
Er0 Fe7 3.249507 1_545
Er0 Fe7 3.249507 1_555
Er0 Fe6 3.249507 1_545
Er0 Fe6 3.249507 1_455
Er0 Fe4 3.249507 1_555
Er0 Fe4 3.249507 1_454
V0 V1 2.443479 1_555
Fe0 N0 1.929398 1_565
Fe0 Fe6 2.450839 1_555
Fe0 Fe4 2.450839 1_565
Fe0 Fe7 2.450839 1_655
Fe0 Fe5 2.450839 1_665
Fe0 Fe9 2.622871 1_555
Fe0 Fe9 2.622871 1_655
Fe0 V0 2.657170 1_655
Fe0 V1 2.657170 1_655
Fe1 N0 1.929398 1_556
Fe1 Fe4 2.450839 1_555
Fe1 Fe6 2.450839 1_556
Fe1 Fe5 2.450839 1_555
Fe1 Fe7 2.450839 1_556
Fe1 Fe8 2.622871 1_555
Fe1 Fe8 2.622871 1_455
Fe1 V0 2.657170 1_555
Fe1 V1 2.657170 1_555
Fe2 N0 1.907273 1_566
Fe2 Fe6 2.457454 1_556
Fe2 Fe4 2.457454 1_565
Fe2 Fe7 2.457455 1_656
Fe2 Fe5 2.457455 1_565
Fe2 V1 2.620085 1_655
Fe2 V1 2.620085 1_555
Fe2 Fe8 2.658756 1_555
Fe2 Fe9 2.658756 1_555
Fe3 N0 1.907273 1_555
Fe3 Fe4 2.457454 1_555
Fe3 Fe6 2.457454 1_555
Fe3 Fe5 2.457455 1_655
Fe3 Fe7 2.457455 1_555
Fe3 V0 2.620085 1_655
Fe3 V0 2.620085 1_555
Fe3 Fe9 2.658756 1_555
Fe3 Fe8 2.658756 1_555
Fe4 Fe5 2.355074 1_555
Fe4 Fe5 2.355074 1_655
Fe4 V1 2.612709 1_645
Fe4 V0 2.612709 1_555
Fe4 Fe9 2.615901 1_545
Fe4 Fe8 2.615901 1_555
Fe5 V0 2.612708 1_555
Fe5 V1 2.612708 1_545
Fe5 Fe9 2.615901 1_545
Fe5 Fe8 2.615901 1_455
Fe6 Fe7 2.355074 1_655
Fe6 Fe7 2.355074 1_555
Fe6 V1 2.612709 1_554
Fe6 V0 2.612709 1_655
Fe6 Fe8 2.615901 1_554
Fe6 Fe9 2.615901 1_555
Fe7 V1 2.612708 1_554
Fe7 V0 2.612708 1_555
Fe7 Fe8 2.615901 1_454
Fe7 Fe9 2.615901 1_555
Fe8 Fe9 2.410097 1_555
Fe8 V0 2.913960 1_655
Fe8 V1 2.913960 1_655
Fe8 V0 2.913960 1_555
Fe8 V1 2.913960 1_555
Fe9 V1 2.913960 1_555
Fe9 V0 2.913960 1_555
Fe9 V0 2.913960 1_655
Fe9 V1 2.913960 1_655
