# generated using pymatgen
data_Nd(BC)2
_symmetry_space_group_name_H-M   'P 1'
_cell_length_a   3.82598400
_cell_length_b   3.82598400
_cell_length_c   7.68979800
_cell_angle_alpha   90.00000000
_cell_angle_beta   90.00000000
_cell_angle_gamma   90.00000000
_symmetry_Int_Tables_number   1
_chemical_formula_structural   Nd(BC)2
_chemical_formula_sum   'Nd2 B4 C4'
_cell_volume   112.56444403
_cell_formula_units_Z   2
loop_
 _symmetry_equiv_pos_site_id
 _symmetry_equiv_pos_as_xyz
  1  'x, y, z'
loop_
 _atom_site_type_symbol
 _atom_site_label
 _atom_site_symmetry_multiplicity
 _atom_site_fract_x
 _atom_site_fract_y
 _atom_site_fract_z
 _atom_site_occupancy
  Nd  Nd0  1  0.00000000  0.00000000  0.75000000  1
  Nd  Nd1  1  0.00000000  0.00000000  0.25000000  1
  B  B0  1  0.21628800  0.50000000  0.00000000  1
  B  B1  1  0.78371200  0.50000000  0.00000000  1
  B  B2  1  0.50000000  0.21628800  0.50000000  1
  B  B3  1  0.50000000  0.78371200  0.50000000  1
  C  C0  1  0.50000000  0.18701500  0.00000000  1
  C  C1  1  0.50000000  0.81298500  0.00000000  1
  C  C2  1  0.81298500  0.50000000  0.50000000  1
  C  C3  1  0.18701500  0.50000000  0.50000000  1
loop_
_geom_bond_atom_site_label_1
_geom_bond_atom_site_label_2
_geom_bond_distance
_geom_bond_site_symmetry_2
B0 C1 1.616233 1_555
B0 C0 1.616233 1_555
B0 Nd1 2.835512 1_565
B0 Nd0 2.835512 1_554
B0 Nd1 2.835512 1_555
B0 Nd0 2.835512 1_564
B1 C1 1.616233 1_555
B1 C0 1.616233 1_555
B1 Nd1 2.835512 1_655
B1 Nd1 2.835512 1_665
B1 Nd0 2.835512 1_654
B1 Nd0 2.835512 1_664
B2 C2 1.616233 1_555
B2 C3 1.616233 1_555
B2 Nd0 2.835512 1_555
B2 Nd1 2.835512 1_655
B2 Nd1 2.835512 1_555
B2 Nd0 2.835512 1_655
B3 C2 1.616233 1_555
B3 C3 1.616233 1_555
B3 Nd1 2.835512 1_565
B3 Nd0 2.835512 1_565
B3 Nd1 2.835512 1_665
B3 Nd0 2.835512 1_665
C0 C1 1.431033 1_545
C0 Nd0 2.804873 1_554
C0 Nd0 2.804873 1_654
C0 Nd1 2.804873 1_655
C0 Nd1 2.804873 1_555
C1 Nd0 2.804873 1_564
C1 Nd0 2.804873 1_664
C1 Nd1 2.804873 1_565
C1 Nd1 2.804873 1_665
C2 C3 1.431033 1_655
C2 Nd0 2.804873 1_655
C2 Nd0 2.804873 1_665
C2 Nd1 2.804873 1_665
C2 Nd1 2.804873 1_655
C3 Nd0 2.804873 1_565
C3 Nd1 2.804873 1_565
C3 Nd0 2.804873 1_555
C3 Nd1 2.804873 1_555
