# generated using pymatgen
data_CaY
_symmetry_space_group_name_H-M   'P 1'
_cell_length_a   7.90662974
_cell_length_b   7.07419530
_cell_length_c   12.35241433
_cell_angle_alpha   89.84337583
_cell_angle_beta   90.28026936
_cell_angle_gamma   123.97533624
_symmetry_Int_Tables_number   1
_chemical_formula_structural   CaY
_chemical_formula_sum   'Ca8 Y8'
_cell_volume   572.94819343
_cell_formula_units_Z   8
loop_
 _symmetry_equiv_pos_site_id
 _symmetry_equiv_pos_as_xyz
  1  'x, y, z'
loop_
 _atom_site_type_symbol
 _atom_site_label
 _atom_site_symmetry_multiplicity
 _atom_site_fract_x
 _atom_site_fract_y
 _atom_site_fract_z
 _atom_site_occupancy
  Ca  Ca0_0  1  0.00000000  0.00000000  0.00000000  1
  Ca  Ca0_1  1  0.00000000  0.00000000  0.50000000  1
  Ca  Ca0_2  1  0.00000000  0.50000000  0.00000000  1
  Ca  Ca0_3  1  0.00000000  0.50000000  0.50000000  1
  Ca  Ca0_4  1  0.50000000  0.00000000  0.00000000  1
  Ca  Ca0_5  1  0.50000000  0.00000000  0.50000000  1
  Ca  Ca0_6  1  0.50000000  0.50000000  0.00000000  1
  Ca  Ca0_7  1  0.50000000  0.50000000  0.50000000  1
  Y  Y0_0  1  0.25000000  0.00000000  0.25000000  1
  Y  Y0_1  1  0.25000000  0.00000000  0.75000000  1
  Y  Y0_2  1  0.25000000  0.50000000  0.25000000  1
  Y  Y0_3  1  0.25000000  0.50000000  0.75000000  1
  Y  Y0_4  1  0.75000000  0.00000000  0.25000000  1
  Y  Y0_5  1  0.75000000  0.00000000  0.75000000  1
  Y  Y0_6  1  0.75000000  0.50000000  0.25000000  1
  Y  Y0_7  1  0.75000000  0.50000000  0.75000000  1
loop_
_geom_bond_atom_site_label_1
_geom_bond_atom_site_label_2
_geom_bond_distance
_geom_bond_site_symmetry_2
Ca0_0 Ca0_2 3.537098 1_545
Ca0_0 Ca0_6 3.537098 1_555
Ca0_0 Ca0_6 3.537098 1_445
Ca0_0 Ca0_2 3.537098 1_555
Ca0_0 Y0_5 3.658393 1_454
Ca0_0 Y0_0 3.658393 1_555
Ca0_0 Y0_1 3.674680 1_554
Ca0_0 Y0_4 3.674680 1_455
Ca0_1 Ca0_3 3.537098 1_555
Ca0_1 Ca0_3 3.537098 1_545
Ca0_1 Ca0_7 3.537098 1_445
Ca0_1 Ca0_7 3.537098 1_555
Ca0_1 Y0_1 3.658393 1_555
Ca0_1 Y0_4 3.658393 1_455
Ca0_1 Y0_0 3.674680 1_555
Ca0_1 Y0_5 3.674680 1_455
Ca0_2 Ca0_4 3.537098 1_455
Ca0_2 Ca0_4 3.537098 1_565
Ca0_2 Y0_2 3.658393 1_555
Ca0_2 Y0_7 3.658393 1_454
Ca0_2 Y0_6 3.674680 1_455
Ca0_2 Y0_3 3.674680 1_554
Ca0_3 Ca0_5 3.537098 1_455
Ca0_3 Ca0_5 3.537098 1_565
Ca0_3 Y0_6 3.658393 1_455
Ca0_3 Y0_3 3.658393 1_555
Ca0_3 Y0_2 3.674680 1_555
Ca0_3 Y0_7 3.674680 1_455
Ca0_4 Ca0_6 3.537098 1_555
Ca0_4 Ca0_6 3.537098 1_545
Ca0_4 Y0_1 3.658393 1_554
Ca0_4 Y0_4 3.658393 1_555
Ca0_4 Y0_0 3.674680 1_555
Ca0_4 Y0_5 3.674680 1_554
Ca0_5 Ca0_7 3.537098 1_555
Ca0_5 Ca0_7 3.537098 1_545
Ca0_5 Y0_5 3.658393 1_555
Ca0_5 Y0_0 3.658393 1_555
Ca0_5 Y0_4 3.674680 1_555
Ca0_5 Y0_1 3.674680 1_555
Ca0_6 Y0_6 3.658393 1_555
Ca0_6 Y0_3 3.658393 1_554
Ca0_6 Y0_2 3.674680 1_555
Ca0_6 Y0_7 3.674680 1_554
Ca0_7 Y0_7 3.658393 1_555
Ca0_7 Y0_2 3.658393 1_555
Ca0_7 Y0_6 3.674680 1_555
Ca0_7 Y0_3 3.674680 1_555
Y0_0 Y0_6 3.537098 1_555
Y0_0 Y0_2 3.537098 1_555
Y0_0 Y0_2 3.537098 1_545
Y0_0 Y0_6 3.537098 1_445
Y0_1 Y0_3 3.537098 1_555
Y0_1 Y0_7 3.537098 1_445
Y0_1 Y0_3 3.537098 1_545
Y0_1 Y0_7 3.537098 1_555
Y0_2 Y0_4 3.537098 1_565
Y0_2 Y0_4 3.537098 1_455
Y0_3 Y0_5 3.537098 1_455
Y0_3 Y0_5 3.537098 1_565
Y0_4 Y0_6 3.537098 1_555
Y0_4 Y0_6 3.537098 1_545
Y0_5 Y0_7 3.537098 1_545
Y0_5 Y0_7 3.537098 1_555
