# generated using pymatgen
data_LaZnCrWO6
_symmetry_space_group_name_H-M   'P 1'
_cell_length_a   5.44903963
_cell_length_b   5.69727900
_cell_length_c   7.88062482
_cell_angle_alpha   90.00000000
_cell_angle_beta   89.14472274
_cell_angle_gamma   90.00000000
_symmetry_Int_Tables_number   1
_chemical_formula_structural   LaZnCrWO6
_chemical_formula_sum   'La2 Zn2 Cr2 W2 O12'
_cell_volume   244.62436867
_cell_formula_units_Z   2
loop_
 _symmetry_equiv_pos_site_id
 _symmetry_equiv_pos_as_xyz
  1  'x, y, z'
loop_
 _atom_site_type_symbol
 _atom_site_label
 _atom_site_symmetry_multiplicity
 _atom_site_fract_x
 _atom_site_fract_y
 _atom_site_fract_z
 _atom_site_occupancy
  La  La0  1  0.01303400  0.96063100  0.75343500  1
  La  La1  1  0.51303400  0.53936900  0.25343500  1
  Zn  Zn0  1  0.49634400  0.52157700  0.75599800  1
  Zn  Zn1  1  0.99634400  0.97842300  0.25599800  1
  Cr  Cr0  1  0.50076300  0.00326400  0.50031500  1
  Cr  Cr1  1  0.00076300  0.49673600  0.00031500  1
  W  W0  1  0.49946700  0.01499600  0.00003100  1
  W  W1  1  0.99946700  0.48500400  0.50003100  1
  O  O0  1  0.09235400  0.47376000  0.24608500  1
  O  O1  1  0.20464400  0.22475600  0.93575300  1
  O  O2  1  0.20277600  0.19721800  0.54743000  1
  O  O3  1  0.31013400  0.69868700  0.94532700  1
  O  O4  1  0.31275000  0.69265100  0.56532300  1
  O  O5  1  0.36773200  0.97280800  0.25030300  1
  O  O6  1  0.59235400  0.02624000  0.74608500  1
  O  O7  1  0.70464400  0.27524400  0.43575300  1
  O  O8  1  0.70277600  0.30278200  0.04743000  1
  O  O9  1  0.81013400  0.80131300  0.44532700  1
  O  O10  1  0.81275000  0.80734900  0.06532300  1
  O  O11  1  0.86773200  0.52719200  0.75030300  1
loop_
_geom_bond_atom_site_label_1
_geom_bond_atom_site_label_2
_geom_bond_distance
_geom_bond_site_symmetry_2
La0 O6 2.324153 1_465
La0 O1 2.337445 1_565
La0 O2 2.339078 1_565
La0 O11 2.593476 1_455
La0 O4 2.669000 1_555
La0 O3 2.684763 1_555
La0 O10 2.813316 1_456
La0 O9 2.832311 1_455
La1 O0 2.324153 1_555
La1 O7 2.337445 1_555
La1 O8 2.339078 1_555
La1 O5 2.593476 1_555
La1 O10 2.669000 1_555
La1 O9 2.684763 1_555
La1 O4 2.813316 1_555
La1 O3 2.832311 1_554
Cr0 O7 1.969088 1_555
Cr0 O2 1.994355 1_555
Cr0 O6 2.011555 1_555
Cr0 O9 2.081256 1_545
Cr0 O4 2.104287 1_545
Cr0 O5 2.116625 1_545
Cr1 O1 1.969088 1_554
Cr1 O8 1.994355 1_455
Cr1 O0 2.011555 1_555
Cr1 O3 2.081256 1_554
Cr1 O10 2.104287 1_455
Cr1 O11 2.116625 1_454
O0 W1 2.057926 1_455
O1 W0 2.071209 1_556
O2 W1 2.016796 1_455
O3 Zn0 2.056375 1_555
O3 W0 2.123926 1_566
O4 Zn0 2.062420 1_555
O4 W1 2.145852 1_455
O5 Zn1 2.023789 1_455
O5 W0 2.102558 1_565
O6 W0 2.057926 1_556
O7 W1 2.071209 1_555
O8 W0 2.016796 1_555
O9 Zn1 2.056375 1_555
O9 W1 2.123926 1_555
O10 Zn1 2.062420 1_555
O10 W0 2.145852 1_565
O11 Zn0 2.023789 1_555
O11 W1 2.102558 1_555
