# generated using pymatgen
data_GaN
_symmetry_space_group_name_H-M   'P 1'
_cell_length_a   11.57282338
_cell_length_b   11.24382238
_cell_length_c   11.45986326
_cell_angle_alpha   93.73047987
_cell_angle_beta   92.87050886
_cell_angle_gamma   90.31859258
_symmetry_Int_Tables_number   1
_chemical_formula_structural   GaN
_chemical_formula_sum   'Ga50 N50'
_cell_volume   1486.10428462
_cell_formula_units_Z   50
loop_
 _symmetry_equiv_pos_site_id
 _symmetry_equiv_pos_as_xyz
  1  'x, y, z'
loop_
 _atom_site_type_symbol
 _atom_site_label
 _atom_site_symmetry_multiplicity
 _atom_site_fract_x
 _atom_site_fract_y
 _atom_site_fract_z
 _atom_site_occupancy
  Ga  Ga0  1  0.03922768  0.99326088  0.44250377  1
  Ga  Ga1  1  0.10575020  0.74589709  0.32547180  1
  Ga  Ga2  1  0.77833160  0.82027051  0.01566540  1
  Ga  Ga3  1  0.05229475  0.84255970  0.93335311  1
  Ga  Ga4  1  0.20725863  0.21998967  0.14394947  1
  Ga  Ga5  1  0.26444401  0.96488355  0.78419939  1
  Ga  Ga6  1  0.56181035  0.75960553  0.75356784  1
  Ga  Ga7  1  0.94291961  0.20872121  0.28307196  1
  Ga  Ga8  1  0.25620451  0.08284916  0.54975778  1
  Ga  Ga9  1  0.46510615  0.07955798  0.19963018  1
  Ga  Ga10  1  0.26978639  0.84139752  0.48065920  1
  Ga  Ga11  1  0.33459806  0.99197080  0.99337387  1
  Ga  Ga12  1  0.48840481  0.30288925  0.18032036  1
  Ga  Ga13  1  0.74628379  0.44491403  0.18789611  1
  Ga  Ga14  1  0.10975377  0.36350735  0.45479812  1
  Ga  Ga15  1  0.62107581  0.97182744  0.97479942  1
  Ga  Ga16  1  0.06750905  0.07205272  0.73929042  1
  Ga  Ga17  1  0.42299767  0.51580103  0.77513214  1
  Ga  Ga18  1  0.00656651  0.77247152  0.58663980  1
  Ga  Ga19  1  0.05564095  0.44591783  0.23926497  1
  Ga  Ga20  1  0.68059078  0.02702346  0.42427025  1
  Ga  Ga21  1  0.49987854  0.30246405  0.71498248  1
  Ga  Ga22  1  0.91376480  0.54661132  0.37652985  1
  Ga  Ga23  1  0.79342867  0.18646074  0.90780273  1
  Ga  Ga24  1  0.30630803  0.26630304  0.40086728  1
  Ga  Ga25  1  0.33796053  0.71760963  0.91287687  1
  Ga  Ga26  1  0.92745055  0.64639826  0.07947250  1
  Ga  Ga27  1  0.26474912  0.49256533  0.26810724  1
  Ga  Ga28  1  0.45753531  0.78180324  0.11582597  1
  Ga  Ga29  1  0.71923701  0.13914313  0.18874581  1
  Ga  Ga30  1  0.90112387  0.43747405  0.62504127  1
  Ga  Ga31  1  0.95720818  0.17430797  0.57281506  1
  Ga  Ga32  1  0.51502990  0.01124142  0.67793872  1
  Ga  Ga33  1  0.69461707  0.63871368  0.53957031  1
  Ga  Ga34  1  0.23183580  0.93181332  0.22096407  1
  Ga  Ga35  1  0.13873522  0.59468392  0.65830132  1
  Ga  Ga36  1  0.66665860  0.47219539  0.70099276  1
  Ga  Ga37  1  0.72978061  0.91648380  0.70953385  1
  Ga  Ga38  1  0.86797380  0.68345254  0.76759430  1
  Ga  Ga39  1  0.85150465  0.81383658  0.32433303  1
  Ga  Ga40  1  0.75704872  0.33828673  0.43113890  1
  Ga  Ga41  1  0.94488995  0.30841785  0.03043372  1
  Ga  Ga42  1  0.97099699  0.94318645  0.15049692  1
  Ga  Ga43  1  0.71884497  0.19763006  0.69095397  1
  Ga  Ga44  1  0.61279233  0.63945902  0.99727499  1
  Ga  Ga45  1  0.30101125  0.76604995  0.68521913  1
  Ga  Ga46  1  0.35498471  0.69770147  0.29286501  1
  Ga  Ga47  1  0.49799032  0.71596593  0.47127577  1
  Ga  Ga48  1  0.60661768  0.35754147  0.94728909  1
  Ga  Ga49  1  0.78674080  0.47943607  0.92161271  1
  N  N0  1  0.58938014  0.23594745  0.43074035  1
  N  N1  1  0.44204589  0.23091114  0.88348957  1
  N  N2  1  0.44294463  0.01172172  0.36274272  1
  N  N3  1  0.66856538  0.03705908  0.60406826  1
  N  N4  1  0.96046734  0.71369884  0.41021242  1
  N  N5  1  0.72504622  0.74229102  0.68689559  1
  N  N6  1  0.81978408  0.27550010  0.58184217  1
  N  N7  1  0.45455604  0.77309885  0.62113002  1
  N  N8  1  0.86376283  0.04658704  0.25299417  1
  N  N9  1  0.35941336  0.45270732  0.00217247  1
  N  N10  1  0.59029437  0.40555213  0.10661154  1
  N  N11  1  0.50408699  0.65134778  0.86070391  1
  N  N12  1  0.30554018  0.52297110  0.51674636  1
  N  N13  1  0.80165678  0.50519023  0.49276110  1
  N  N14  1  0.24736116  0.29011283  0.70034454  1
  N  N15  1  0.88304046  0.95183679  0.78739257  1
  N  N16  1  0.04549359  0.27541778  0.17024982  1
  N  N17  1  0.68631589  0.72640769  0.31285790  1
  N  N18  1  0.36207021  0.05316668  0.67596101  1
  N  N19  1  0.90428019  0.73175645  0.93157435  1
  N  N20  1  0.14576558  0.76702186  0.08726653  1
  N  N21  1  0.09305373  0.69650617  0.14218507  1
  N  N22  1  0.39099183  0.19404487  0.95721284  1
  N  N23  1  0.08585513  0.92010021  0.29097156  1
  N  N24  1  0.58468615  0.43753172  0.34700042  1
  N  N25  1  0.27970355  0.61016326  0.76646257  1
  N  N26  1  0.05757251  0.45766284  0.58808101  1
  N  N27  1  0.48712680  0.95021648  0.07420988  1
  N  N28  1  0.52115526  0.49804718  0.39586404  1
  N  N29  1  0.08759808  0.54542079  0.89740301  1
  N  N30  1  0.65880368  0.64413687  0.25080554  1
  N  N31  1  0.02472248  0.20923703  0.43054511  1
  N  N32  1  0.85384864  0.99061774  0.36298998  1
  N  N33  1  0.37764919  0.46273298  0.54979822  1
  N  N34  1  0.28511872  0.06731637  0.14440860  1
  N  N35  1  0.86936299  0.79025191  0.16102865  1
  N  N36  1  0.32033930  0.53441865  0.04690947  1
  N  N37  1  0.09789089  0.47572145  0.96263992  1
  N  N38  1  0.16515893  0.20139996  0.95561793  1
  N  N39  1  0.87998769  0.47714879  0.07254922  1
  N  N40  1  0.78854937  0.29045562  0.26940051  1
  N  N41  1  0.50783624  0.23616370  0.48603708  1
  N  N42  1  0.35393448  0.95176091  0.36173302  1
  N  N43  1  0.19453811  0.35481192  0.75332628  1
  N  N44  1  0.91222300  0.05132753  0.83044713  1
  N  N45  1  0.69129516  0.12566909  0.01951782  1
  N  N46  1  0.59140206  0.93038619  0.80718836  1
  N  N47  1  0.08107405  0.22813780  0.90301793  1
  N  N48  1  0.32682080  0.32788909  0.23638937  1
  N  N49  1  0.83248684  0.50834735  0.76432511  1
loop_
_geom_bond_atom_site_label_1
_geom_bond_atom_site_label_2
_geom_bond_distance
_geom_bond_site_symmetry_2
Ga0 N23 1.973913 1_555
Ga0 N32 2.287736 1_455
Ga0 N31 2.447368 1_565
Ga1 N4 2.025717 1_455
Ga1 N23 2.035322 1_555
Ga1 N21 2.135004 1_555
Ga2 N35 1.974878 1_555
Ga2 N19 2.018840 1_554
Ga3 N19 2.110974 1_455
Ga3 N20 2.239784 1_556
Ga4 N34 1.943364 1_555
Ga4 N16 2.007230 1_555
Ga4 N48 2.043504 1_555
Ga4 N38 2.184942 1_554
Ga5 N18 2.022004 1_565
Ga6 N11 1.924288 1_555
Ga6 N7 1.926274 1_555
Ga6 N46 2.000052 1_555
Ga6 N5 2.078384 1_555
Ga7 N31 1.894954 1_655
Ga7 N16 1.978174 1_655
Ga7 N40 2.017340 1_555
Ga7 N8 2.037003 1_555
Ga8 N18 1.895785 1_555
Ga9 N27 2.003635 1_545
Ga9 N2 2.091172 1_555
Ga9 N34 2.147465 1_555
Ga10 N42 2.164531 1_555
Ga11 N34 1.988779 1_566
Ga11 N27 2.023979 1_556
Ga11 N22 2.427581 1_565
Ga12 N10 1.909938 1_555
Ga12 N48 2.022721 1_555
Ga12 N24 2.563943 1_555
Ga13 N10 2.022749 1_555
Ga13 N40 2.074263 1_555
Ga13 N39 2.129290 1_555
Ga13 N30 2.539799 1_555
Ga14 N26 1.925485 1_555
Ga14 N31 1.986276 1_555
Ga15 N45 1.934529 1_566
Ga15 N46 1.959645 1_555
Ga15 N27 1.992140 1_556
Ga16 N44 2.142474 1_455
Ga16 N47 2.482755 1_555
Ga17 N11 1.965330 1_555
Ga17 N25 1.975443 1_555
Ga17 N33 2.638180 1_555
Ga18 N4 2.126808 1_455
Ga19 N16 2.026174 1_555
Ga20 N3 2.067907 1_555
Ga20 N32 2.189484 1_545
Ga20 N0 2.578906 1_555
Ga21 N1 2.269330 1_555
Ga21 N41 2.686703 1_555
Ga22 N4 1.960634 1_555
Ga22 N13 1.980270 1_555
Ga23 N45 1.939003 1_556
Ga23 N44 2.225878 1_555
Ga24 N48 2.074010 1_555
Ga24 N41 2.516090 1_555
Ga25 N25 2.084044 1_555
Ga25 N11 2.163760 1_555
Ga26 N35 1.954461 1_555
Ga26 N39 1.973276 1_555
Ga26 N19 2.008657 1_554
Ga26 N21 2.074664 1_655
Ga27 N48 2.007459 1_555
Ga27 Ga46 2.519804 1_555
Ga28 N27 2.014234 1_555
Ga28 Ga46 2.626260 1_555
Ga29 N45 1.946004 1_555
Ga29 N40 2.024403 1_555
Ga29 N8 2.101986 1_555
Ga30 N26 1.895727 1_655
Ga30 N49 1.944804 1_555
Ga30 N13 2.046444 1_555
Ga30 N6 2.065167 1_555
Ga31 N31 1.905362 1_655
Ga31 N6 1.963637 1_555
Ga32 N18 1.833822 1_555
Ga32 N46 1.963319 1_545
Ga32 N3 2.033460 1_555
Ga33 N5 2.002698 1_555
Ga33 N13 2.014608 1_555
Ga34 N23 1.913666 1_555
Ga34 N34 1.920641 1_565
Ga34 N42 2.090556 1_555
Ga34 N20 2.496008 1_555
Ga35 N26 1.910567 1_555
Ga35 N25 1.998598 1_555
Ga36 N49 2.046550 1_555
Ga37 N5 1.958993 1_555
Ga37 N15 1.971663 1_555
Ga37 N3 1.984636 1_565
Ga37 N46 2.000234 1_555
Ga38 N19 1.946392 1_555
Ga38 N5 1.991849 1_555
Ga38 N49 2.006567 1_555
Ga39 N35 1.894760 1_555
Ga39 N4 1.965228 1_555
Ga39 N32 2.007869 1_555
Ga39 N17 2.139007 1_555
Ga40 N40 1.948778 1_555
Ga40 N6 2.011697 1_555
Ga40 N13 2.016733 1_555
Ga40 N0 2.250076 1_555
Ga40 N24 2.475070 1_555
Ga41 N16 1.988920 1_655
Ga41 N39 2.080720 1_555
Ga41 N47 2.346393 1_654
Ga42 N8 2.062960 1_565
Ga42 N23 2.066314 1_655
Ga42 N35 2.091326 1_555
Ga43 N6 1.993007 1_555
Ga43 N3 2.070252 1_555
Ga44 N11 1.970251 1_555
Ga45 N7 1.959583 1_555
Ga45 N25 2.056783 1_555
Ga46 Ga47 2.562039 1_555
Ga47 N7 1.887056 1_555
Ga47 N28 2.564637 1_555
Ga48 N10 1.888945 1_556
Ga48 N1 2.425706 1_555
Ga49 N49 1.950601 1_555
Ga49 N39 1.994049 1_556
N0 N41 1.162691 1_555
N1 N22 1.152192 1_555
N2 N42 1.227125 1_545
N12 N33 1.143075 1_555
N14 N43 1.120803 1_555
N15 N44 1.231332 1_565
N17 N30 1.162411 1_555
N20 N21 1.222647 1_555
N24 N28 1.146442 1_555
N29 N37 1.120548 1_555
N32 N8 1.454323 1_565
N36 N9 1.130472 1_555
N38 N47 1.169933 1_555
