# generated using pymatgen
data_MgAsNO10
_symmetry_space_group_name_H-M   'P 1'
_cell_length_a   5.68177800
_cell_length_b   6.60661957
_cell_length_c   12.30368346
_cell_angle_alpha   91.97575128
_cell_angle_beta   91.07191793
_cell_angle_gamma   93.75162877
_symmetry_Int_Tables_number   1
_chemical_formula_structural   MgAsNO10
_chemical_formula_sum   'Mg2 As2 N2 O20'
_cell_volume   460.48216192
_cell_formula_units_Z   2
loop_
 _symmetry_equiv_pos_site_id
 _symmetry_equiv_pos_as_xyz
  1  'x, y, z'
loop_
 _atom_site_type_symbol
 _atom_site_label
 _atom_site_symmetry_multiplicity
 _atom_site_fract_x
 _atom_site_fract_y
 _atom_site_fract_z
 _atom_site_occupancy
  Mg  Mg0  1  0.18661800  0.49112200  0.32081100  1
  Mg  Mg1  1  0.75308500  0.96493300  0.82729600  1
  As  As0  1  0.59407400  0.61930800  0.68815900  1
  As  As1  1  0.41943300  0.12668200  0.18235400  1
  N  N0  1  0.14902900  0.47014000  0.05885400  1
  N  N1  1  0.85746200  0.97910000  0.55442700  1
  O  O0  1  0.49788900  0.72105000  0.80769800  1
  O  O1  1  0.34490800  0.18277600  0.72181500  1
  O  O2  1  0.64631100  0.67988300  0.23064000  1
  O  O3  1  0.57516600  0.20427600  0.29492100  1
  O  O4  1  0.83241600  0.42974500  0.76911500  1
  O  O5  1  0.17487200  0.93220100  0.26981300  1
  O  O6  1  0.29952700  0.46891000  0.99899000  1
  O  O7  1  0.70318700  0.96106000  0.49372400  1
  O  O8  1  0.16072300  0.74742500  0.22456200  1
  O  O9  1  0.20904100  0.33220800  0.18072100  1
  O  O10  1  0.81526400  0.83066000  0.67483400  1
  O  O11  1  0.82050700  0.24303600  0.72759500  1
  O  O12  1  0.09456200  0.65014400  0.46273400  1
  O  O13  1  0.11408400  0.31300100  0.45336700  1
  O  O14  1  0.90895400  0.81049200  0.95546500  1
  O  O15  1  0.86915400  0.14604200  0.96393500  1
  O  O16  1  0.57250800  0.61791300  0.31931100  1
  O  O17  1  0.39590100  0.12237800  0.81355200  1
  O  O18  1  0.06583200  0.47470800  0.51929400  1
  O  O19  1  0.93949600  0.98080800  0.02001000  1
loop_
_geom_bond_atom_site_label_1
_geom_bond_atom_site_label_2
_geom_bond_distance
_geom_bond_site_symmetry_2
Mg0 O9 1.997575 1_555
Mg0 O13 2.075715 1_555
Mg0 O12 2.099058 1_555
Mg0 O8 2.110834 1_555
Mg0 O16 2.295972 1_555
Mg1 O10 2.093227 1_555
Mg1 O15 2.099865 1_565
Mg1 O0 2.100250 1_555
Mg1 O14 2.118752 1_555
Mg1 O11 2.260121 1_565
Mg1 O17 2.346217 1_565
As0 O0 1.709859 1_555
As0 O10 1.830266 1_555
As0 O4 2.156832 1_555
As1 O3 1.676235 1_555
As1 O9 1.867214 1_555
As1 O5 2.158068 1_545
N0 O6 1.139219 1_554
N0 O9 1.819520 1_555
N1 O7 1.138450 1_555
N1 O10 1.815660 1_555
O1 O17 1.245426 1_555
O5 O8 1.321088 1_555
O11 O4 1.315842 1_555
O12 O18 1.374553 1_555
O13 O18 1.364316 1_555
O14 O19 1.354457 1_556
O15 O19 1.387847 1_546
O16 O2 1.248657 1_555
