# generated using pymatgen
data_TaVRu2
_symmetry_space_group_name_H-M   'P 1'
_cell_length_a   10.21347243
_cell_length_b   10.21347243
_cell_length_c   10.21347243
_cell_angle_alpha   127.10752919
_cell_angle_beta   117.77717213
_cell_angle_gamma   86.02352039
_symmetry_Int_Tables_number   1
_chemical_formula_structural   TaVRu2
_chemical_formula_sum   'Ta1 V1 Ru2'
_cell_volume   717.09288313
_cell_formula_units_Z   1
loop_
 _symmetry_equiv_pos_site_id
 _symmetry_equiv_pos_as_xyz
  1  'x, y, z'
loop_
 _atom_site_type_symbol
 _atom_site_label
 _atom_site_symmetry_multiplicity
 _atom_site_fract_x
 _atom_site_fract_y
 _atom_site_fract_z
 _atom_site_occupancy
  Ta  Ta0  1  0.00000000  0.50000000  0.50000000  1
  V  V0  1  0.00000000  0.00000000  0.00000000  1
  Ru  Ru0  1  0.00000000  0.25383600  0.25383600  1
  Ru  Ru1  1  0.00000000  0.74616400  0.74616400  1
loop_
_geom_bond_atom_site_label_1
_geom_bond_atom_site_label_2
_geom_bond_distance
_geom_bond_site_symmetry_2
Ru0 Ta0 2.239428 1_555
Ru0 V0 2.309222 1_555
Ru1 Ta0 2.239428 1_555
Ru1 V0 2.309222 1_566
