# generated using pymatgen
data_Mg(Mn5N4)2
_symmetry_space_group_name_H-M   'P 1'
_cell_length_a   7.57248752
_cell_length_b   4.07354353
_cell_length_c   6.63412455
_cell_angle_alpha   90.00000661
_cell_angle_beta   73.20157463
_cell_angle_gamma   74.39701971
_symmetry_Int_Tables_number   1
_chemical_formula_structural   Mg(Mn5N4)2
_chemical_formula_sum   'Mg1 Mn10 N8'
_cell_volume   188.01801861
_cell_formula_units_Z   1
loop_
 _symmetry_equiv_pos_site_id
 _symmetry_equiv_pos_as_xyz
  1  'x, y, z'
loop_
 _atom_site_type_symbol
 _atom_site_label
 _atom_site_symmetry_multiplicity
 _atom_site_fract_x
 _atom_site_fract_y
 _atom_site_fract_z
 _atom_site_occupancy
  Mg  Mg0  1  0.00000000  0.50000000  0.50000000  1
  Mn  Mn0  1  0.43466900  0.78266600  0.82318000  1
  Mn  Mn1  1  0.56533100  0.21733400  0.17682000  1
  Mn  Mn2  1  0.08351600  0.95824300  0.78209700  1
  Mn  Mn3  1  0.91648400  0.04175700  0.21790300  1
  Mn  Mn4  1  0.64090600  0.67954700  0.42095300  1
  Mn  Mn5  1  0.35909400  0.32045300  0.57904700  1
  Mn  Mn6  1  0.80414100  0.59793000  0.96469300  1
  Mn  Mn7  1  0.19585900  0.40207000  0.03530700  1
  Mn  Mn8  1  0.29964700  0.85017700  0.28709700  1
  Mn  Mn9  1  0.70035300  0.14982300  0.71290300  1
  N  N0  1  0.19772500  0.90113800  0.04599600  1
  N  N1  1  0.80227500  0.09886200  0.95400400  1
  N  N2  1  0.35174600  0.82412600  0.57181800  1
  N  N3  1  0.64825400  0.17587400  0.42818200  1
  N  N4  1  0.70800500  0.64599700  0.70813900  1
  N  N5  1  0.29199500  0.35400300  0.29186100  1
  N  N6  1  0.90421700  0.54789100  0.22277000  1
  N  N7  1  0.09578300  0.45210900  0.77723000  1
loop_
_geom_bond_atom_site_label_1
_geom_bond_atom_site_label_2
_geom_bond_distance
_geom_bond_site_symmetry_2
Mg0 N6 2.154451 1_455
Mg0 N7 2.154451 1_555
Mg0 N4 2.162704 1_455
Mg0 N5 2.162704 1_555
Mn0 N0 1.907476 1_556
Mn0 N4 1.908838 1_555
Mn0 N2 1.936957 1_555
Mn1 N1 1.907476 1_554
Mn1 N5 1.908838 1_555
Mn1 N3 1.936957 1_555
Mn2 N1 2.025887 1_465
Mn2 N2 2.033580 1_555
Mn2 N7 2.038564 1_565
Mn2 N7 2.038568 1_555
Mn2 N0 2.152699 1_556
Mn3 N0 2.025887 1_645
Mn3 N3 2.033580 1_555
Mn3 N6 2.038564 1_545
Mn3 N6 2.038568 1_555
Mn3 N1 2.152699 1_554
Mn4 N6 1.975204 1_555
Mn4 N3 2.038415 1_555
Mn4 N3 2.038423 1_565
Mn4 N2 2.045172 1_555
Mn4 N4 2.104504 1_555
Mn5 N7 1.975204 1_555
Mn5 N2 2.038415 1_555
Mn5 N2 2.038423 1_545
Mn5 N3 2.045172 1_555
Mn5 N5 2.104504 1_555
Mn6 N4 2.025994 1_555
Mn6 N1 2.038189 1_565
Mn6 N1 2.038197 1_555
Mn6 N6 2.052814 1_556
Mn6 N7 2.117443 1_655
Mn7 N5 2.025994 1_555
Mn7 N0 2.038189 1_545
Mn7 N0 2.038197 1_555
Mn7 N7 2.052814 1_554
Mn7 N6 2.117443 1_455
Mn8 N0 1.955638 1_555
Mn8 N2 2.035427 1_555
Mn8 N5 2.037522 1_565
Mn8 N5 2.037522 1_555
Mn9 N1 1.955638 1_555
Mn9 N3 2.035427 1_555
Mn9 N4 2.037522 1_545
Mn9 N4 2.037522 1_555
