# generated using pymatgen
data_CsNdCdTe3
_symmetry_space_group_name_H-M   'P 1'
_cell_length_a   4.62976200
_cell_length_b   8.98071379
_cell_length_c   12.13927400
_cell_angle_alpha   90.00000000
_cell_angle_beta   90.00000000
_cell_angle_gamma   104.93727053
_symmetry_Int_Tables_number   1
_chemical_formula_structural   CsNdCdTe3
_chemical_formula_sum   'Cs2 Nd2 Cd2 Te6'
_cell_volume   487.67797265
_cell_formula_units_Z   2
loop_
 _symmetry_equiv_pos_site_id
 _symmetry_equiv_pos_as_xyz
  1  'x, y, z'
loop_
 _atom_site_type_symbol
 _atom_site_label
 _atom_site_symmetry_multiplicity
 _atom_site_fract_x
 _atom_site_fract_y
 _atom_site_fract_z
 _atom_site_occupancy
  Cs  Cs0  1  0.74744000  0.49488000  0.75000000  1
  Cs  Cs1  1  0.25256000  0.50512000  0.25000000  1
  Nd  Nd0  1  0.00000000  0.00000000  0.00000000  1
  Nd  Nd1  1  0.00000000  0.00000000  0.50000000  1
  Cd  Cd0  1  0.46139100  0.92278200  0.75000000  1
  Cd  Cd1  1  0.53860900  0.07721800  0.25000000  1
  Te  Te0  1  0.37688800  0.75377600  0.94852200  1
  Te  Te1  1  0.62311200  0.24622400  0.05147800  1
  Te  Te2  1  0.37688800  0.75377600  0.55147800  1
  Te  Te3  1  0.62311200  0.24622400  0.44852200  1
  Te  Te4  1  0.06433700  0.12867400  0.75000000  1
  Te  Te5  1  0.93566300  0.87132600  0.25000000  1
loop_
_geom_bond_atom_site_label_1
_geom_bond_atom_site_label_2
_geom_bond_distance
_geom_bond_site_symmetry_2
Cs0 Te4 3.931436 1_655
Cs0 Te4 3.931436 1_555
Cs0 Te0 4.026553 1_655
Cs0 Te2 4.026553 1_555
Cs0 Te0 4.026553 1_555
Cs0 Te2 4.026553 1_655
Cs0 Te1 4.248415 1_556
Cs0 Te3 4.248415 1_555
Cs1 Te5 3.931436 1_555
Cs1 Te5 3.931436 1_455
Cs1 Te3 4.026553 1_555
Cs1 Te3 4.026553 1_455
Cs1 Te1 4.026553 1_555
Cs1 Te1 4.026553 1_455
Cs1 Te0 4.248415 1_554
Cs1 Te2 4.248415 1_555
Nd0 Te1 3.211543 1_455
Nd0 Te1 3.211543 1_555
Nd0 Te0 3.211543 1_444
Nd0 Te0 3.211543 1_544
Nd0 Te4 3.233694 1_554
Nd0 Te5 3.233694 1_445
Nd1 Te2 3.211543 1_445
Nd1 Te2 3.211543 1_545
Nd1 Te3 3.211543 1_455
Nd1 Te3 3.211543 1_555
Nd1 Te4 3.233694 1_555
Nd1 Te5 3.233694 1_445
Cd0 Te2 2.821050 1_555
Cd0 Te0 2.821050 1_555
Cd0 Te4 2.924128 1_665
Cd0 Te4 2.924128 1_565
Cd1 Te3 2.821050 1_555
Cd1 Te1 2.821050 1_555
Cd1 Te5 2.924128 1_545
Cd1 Te5 2.924128 1_445
