# generated using pymatgen
data_Sm2Ni2O5
_symmetry_space_group_name_H-M   'P 1'
_cell_length_a   8.60460733
_cell_length_b   8.60460733
_cell_length_c   8.60460733
_cell_angle_alpha   143.69457662
_cell_angle_beta   141.50402789
_cell_angle_gamma   53.94765217
_symmetry_Int_Tables_number   1
_chemical_formula_structural   Sm2Ni2O5
_chemical_formula_sum   'Sm4 Ni4 O10'
_cell_volume   233.25276748
_cell_formula_units_Z   2
loop_
 _symmetry_equiv_pos_site_id
 _symmetry_equiv_pos_as_xyz
  1  'x, y, z'
loop_
 _atom_site_type_symbol
 _atom_site_label
 _atom_site_symmetry_multiplicity
 _atom_site_fract_x
 _atom_site_fract_y
 _atom_site_fract_z
 _atom_site_occupancy
  Sm  Sm0  1  0.87259100  0.39249600  0.48270500  1
  Sm  Sm1  1  0.12740900  0.61011400  0.51990600  1
  Sm  Sm2  1  0.40979100  0.89249600  0.51990600  1
  Sm  Sm3  1  0.59020900  0.11011400  0.48270500  1
  Ni  Ni0  1  0.00000000  0.98709800  0.98709800  1
  Ni  Ni1  1  0.50000000  0.48709800  0.98709800  1
  Ni  Ni2  1  0.80646100  0.78431900  0.09077900  1
  Ni  Ni3  1  0.19353900  0.28431900  0.97785800  1
  O  O0  1  0.76361900  0.76774400  0.48695200  1
  O  O1  1  0.23638100  0.72333300  0.00412500  1
  O  O2  1  0.78079200  0.26774400  0.00412500  1
  O  O3  1  0.21920800  0.22333300  0.48695200  1
  O  O4  1  0.77917000  0.81519400  0.86999200  1
  O  O5  1  0.22083000  0.09082200  0.03602400  1
  O  O6  1  0.44520200  0.31519400  0.03602400  1
  O  O7  1  0.55479800  0.59082200  0.86999200  1
  O  O8  1  0.85394500  0.16487900  0.51882400  1
  O  O9  1  0.14605500  0.66487900  0.31093400  1
loop_
_geom_bond_atom_site_label_1
_geom_bond_atom_site_label_2
_geom_bond_distance
_geom_bond_site_symmetry_2
Ni0 O3 1.977806 1_566
Ni0 O2 1.977806 1_466
Ni0 O1 1.986313 1_556
Ni0 O0 1.986313 1_455
Ni0 O5 2.173199 1_566
Ni0 O4 2.173199 1_455
Ni1 O0 1.977806 1_556
Ni1 O1 1.977806 1_556
Ni1 O2 1.986313 1_556
Ni1 O3 1.986313 1_555
Ni1 O7 2.173199 1_555
Ni1 O6 2.173199 1_556
Ni2 O4 1.943353 1_554
Ni2 O7 1.943367 1_554
Ni2 O9 2.030211 1_655
Ni2 O8 2.058098 1_565
Ni3 O6 1.943362 1_556
Ni3 O5 1.943362 1_556
Ni3 O8 2.030209 1_455
Ni3 O9 2.058095 1_556
O0 Sm3 2.412595 1_565
O0 Sm1 2.439620 1_655
O0 Sm2 2.741523 1_555
O0 Sm0 2.757888 1_555
O1 Sm2 2.412602 1_555
O1 Sm0 2.439623 1_454
O1 Sm3 2.741517 1_565
O1 Sm1 2.757879 1_554
O2 Sm1 2.412594 1_655
O2 Sm3 2.439623 1_554
O2 Sm0 2.741517 1_555
O2 Sm2 2.757891 1_544
O3 Sm0 2.412595 1_455
O3 Sm2 2.439628 1_545
O3 Sm1 2.741512 1_555
O3 Sm3 2.757888 1_555
O4 Sm2 2.317960 1_555
O4 Sm0 2.489313 1_555
O4 Sm0 2.995561 1_566
O5 Sm3 2.317964 1_555
O5 Sm1 2.489311 1_544
O5 Sm1 2.995564 1_555
O6 Sm0 2.317964 1_555
O6 Sm2 2.489309 1_544
O6 Sm2 2.995562 1_555
O7 Sm1 2.317963 1_555
O7 Sm3 2.489313 1_555
O7 Sm3 2.995561 1_566
O8 Sm0 2.321046 1_555
O8 Sm3 2.321046 1_555
O9 Sm2 2.321041 1_555
O9 Sm1 2.321055 1_555
