# generated using pymatgen
data_Pr2NiO4
_symmetry_space_group_name_H-M   'P 1'
_cell_length_a   6.73203750
_cell_length_b   6.73203750
_cell_length_c   5.69797700
_cell_angle_alpha   90.00000000
_cell_angle_beta   90.00000000
_cell_angle_gamma   132.27997832
_symmetry_Int_Tables_number   1
_chemical_formula_structural   Pr2NiO4
_chemical_formula_sum   'Pr4 Ni2 O8'
_cell_volume   191.05875791
_cell_formula_units_Z   2
loop_
 _symmetry_equiv_pos_site_id
 _symmetry_equiv_pos_as_xyz
  1  'x, y, z'
loop_
 _atom_site_type_symbol
 _atom_site_label
 _atom_site_symmetry_multiplicity
 _atom_site_fract_x
 _atom_site_fract_y
 _atom_site_fract_z
 _atom_site_occupancy
  Pr  Pr0  1  0.13692700  0.86307300  0.51638300  1
  Pr  Pr1  1  0.86307300  0.13692700  0.48361700  1
  Pr  Pr2  1  0.36307300  0.63692700  0.01638300  1
  Pr  Pr3  1  0.63692700  0.36307300  0.98361700  1
  Ni  Ni0  1  0.50000000  0.50000000  0.50000000  1
  Ni  Ni1  1  0.00000000  0.00000000  0.00000000  1
  O  O0  1  0.32108100  0.67891900  0.43154200  1
  O  O1  1  0.67891900  0.32108100  0.56845800  1
  O  O2  1  0.17891900  0.82108100  0.93154200  1
  O  O3  1  0.82108100  0.17891900  0.06845800  1
  O  O4  1  0.26971700  0.23028300  0.25000000  1
  O  O5  1  0.23028300  0.26971700  0.75000000  1
  O  O6  1  0.76971700  0.73028300  0.25000000  1
  O  O7  1  0.73028300  0.76971700  0.75000000  1
loop_
_geom_bond_atom_site_label_1
_geom_bond_atom_site_label_2
_geom_bond_distance
_geom_bond_site_symmetry_2
Ni0 O5 1.985444 1_555
Ni0 O6 1.985444 1_555
Ni0 O7 1.985444 1_555
Ni0 O4 1.985444 1_555
Ni0 O0 2.237365 1_555
Ni0 O1 2.237365 1_555
Ni1 O5 1.985444 1_554
Ni1 O6 1.985444 1_445
Ni1 O7 1.985444 1_444
Ni1 O4 1.985444 1_555
Ni1 O3 2.237365 1_455
Ni1 O2 2.237365 1_544
O0 Pr0 2.318518 1_555
O0 Pr2 2.421417 1_555
O0 Pr1 2.787624 1_455
O0 Pr1 2.787624 1_565
O1 Pr1 2.318518 1_555
O1 Pr3 2.421417 1_555
O1 Pr0 2.787624 1_545
O1 Pr0 2.787624 1_655
O2 Pr2 2.318518 1_556
O2 Pr0 2.421417 1_555
O2 Pr3 2.787624 1_455
O2 Pr3 2.787624 1_565
O3 Pr3 2.318518 1_554
O3 Pr1 2.421417 1_555
O3 Pr2 2.787624 1_655
O3 Pr2 2.787624 1_545
O4 Pr0 2.498137 1_545
O4 Pr3 2.498137 1_554
O4 Pr1 2.710378 1_455
O4 Pr2 2.710378 1_555
O5 Pr2 2.498137 1_556
O5 Pr1 2.498137 1_455
O5 Pr3 2.710378 1_555
O5 Pr0 2.710378 1_545
O6 Pr0 2.498137 1_655
O6 Pr3 2.498137 1_554
O6 Pr1 2.710378 1_565
O6 Pr2 2.710378 1_555
O7 Pr2 2.498137 1_556
O7 Pr1 2.498137 1_565
O7 Pr3 2.710378 1_555
O7 Pr0 2.710378 1_655
