# generated using pymatgen
data_YFe3(BO3)4
_symmetry_space_group_name_H-M   'P 1'
_cell_length_a   6.12433214
_cell_length_b   6.12433214
_cell_length_c   6.12433292
_cell_angle_alpha   103.91920562
_cell_angle_beta   103.91920562
_cell_angle_gamma   103.91920774
_symmetry_Int_Tables_number   1
_chemical_formula_structural   YFe3(BO3)4
_chemical_formula_sum   'Y1 Fe3 B4 O12'
_cell_volume   205.27246716
_cell_formula_units_Z   1
loop_
 _symmetry_equiv_pos_site_id
 _symmetry_equiv_pos_as_xyz
  1  'x, y, z'
loop_
 _atom_site_type_symbol
 _atom_site_label
 _atom_site_symmetry_multiplicity
 _atom_site_fract_x
 _atom_site_fract_y
 _atom_site_fract_z
 _atom_site_occupancy
  Y  Y0  1  0.50000000  0.50000000  0.50000000  1
  Fe  Fe0  1  0.04668700  0.95331300  0.50000000  1
  Fe  Fe1  1  0.95331300  0.50000000  0.04668700  1
  Fe  Fe2  1  0.50000000  0.04668700  0.95331300  1
  B  B0  1  0.45236700  0.54763300  0.00000000  1
  B  B1  1  0.54763300  0.00000000  0.45236700  1
  B  B2  1  0.00000000  0.45236700  0.54763300  1
  B  B3  1  0.00000000  0.00000000  0.00000000  1
  O  O0  1  0.29782300  0.52528300  0.13076100  1
  O  O1  1  0.52528300  0.13076100  0.29782300  1
  O  O2  1  0.70217700  0.86923900  0.47471700  1
  O  O3  1  0.13076100  0.29782300  0.52528300  1
  O  O4  1  0.47471700  0.70217700  0.86923900  1
  O  O5  1  0.86923900  0.47471700  0.70217700  1
  O  O6  1  0.85664300  0.14335700  0.00000000  1
  O  O7  1  0.14335700  0.00000000  0.85664300  1
  O  O8  1  0.00000000  0.85664300  0.14335700  1
  O  O9  1  0.59495700  0.40504300  0.00000000  1
  O  O10  1  0.40504300  0.00000000  0.59495700  1
  O  O11  1  0.00000000  0.59495700  0.40504300  1
loop_
_geom_bond_atom_site_label_1
_geom_bond_atom_site_label_2
_geom_bond_distance
_geom_bond_site_symmetry_2
Fe0 O3 2.005629 1_565
Fe0 O2 2.005629 1_455
Fe0 O7 2.049136 1_565
Fe0 O8 2.049136 1_555
Fe0 O11 2.059289 1_555
Fe0 O10 2.059289 1_565
Fe1 O0 2.005629 1_655
Fe1 O5 2.005629 1_554
Fe1 O6 2.049136 1_555
Fe1 O8 2.049136 1_655
Fe1 O9 2.059289 1_555
Fe1 O11 2.059290 1_655
Fe2 O4 2.005629 1_545
Fe2 O1 2.005629 1_556
Fe2 O6 2.049136 1_556
Fe2 O7 2.049136 1_555
Fe2 O9 2.059289 1_556
Fe2 O10 2.059290 1_555
B0 O9 1.375532 1_555
B0 O0 1.382370 1_555
B0 O4 1.382370 1_554
B1 O10 1.375532 1_555
B1 O2 1.382370 1_545
B1 O1 1.382370 1_555
B2 O11 1.375532 1_555
B2 O3 1.382370 1_555
B2 O5 1.382370 1_455
B3 O6 1.382931 1_455
B3 O7 1.382931 1_554
B3 O8 1.382931 1_545
O0 Y0 2.363131 1_555
O1 Y0 2.363131 1_555
O2 Y0 2.363130 1_555
O3 Y0 2.363130 1_555
O4 Y0 2.363131 1_555
O5 Y0 2.363131 1_555
