# generated using pymatgen
data_Ca2CoN2
_symmetry_space_group_name_H-M   'P 1'
_cell_length_a   8.40169304
_cell_length_b   8.40169304
_cell_length_c   8.40169304
_cell_angle_alpha   120.41678037
_cell_angle_beta   120.41678037
_cell_angle_gamma   89.27961848
_symmetry_Int_Tables_number   1
_chemical_formula_structural   Ca2CoN2
_chemical_formula_sum   'Ca8 Co4 N8'
_cell_volume   416.68097381
_cell_formula_units_Z   4
loop_
 _symmetry_equiv_pos_site_id
 _symmetry_equiv_pos_as_xyz
  1  'x, y, z'
loop_
 _atom_site_type_symbol
 _atom_site_label
 _atom_site_symmetry_multiplicity
 _atom_site_fract_x
 _atom_site_fract_y
 _atom_site_fract_z
 _atom_site_occupancy
  Ca  Ca0  1  0.20245900  0.99698900  0.50000000  1
  Ca  Ca1  1  0.79754100  0.00301100  0.50000000  1
  Ca  Ca2  1  0.70245900  0.20245900  0.20547000  1
  Ca  Ca3  1  0.00301100  0.50301100  0.20547000  1
  Ca  Ca4  1  0.50301100  0.29754100  0.50000000  1
  Ca  Ca5  1  0.49698900  0.70245900  0.50000000  1
  Ca  Ca6  1  0.29754100  0.79754100  0.79453000  1
  Ca  Ca7  1  0.99698900  0.49698900  0.79453000  1
  Co  Co0  1  0.85323300  0.64676700  0.50000000  1
  Co  Co1  1  0.14676700  0.35323300  0.50000000  1
  Co  Co2  1  0.64676700  0.14676700  0.79353400  1
  Co  Co3  1  0.35323300  0.85323300  0.20646600  1
  N  N0  1  0.20889400  0.70889400  0.20745400  1
  N  N1  1  0.99856000  0.79110600  0.50000000  1
  N  N2  1  0.79110600  0.29110600  0.79254600  1
  N  N3  1  0.49856000  0.99856000  0.20745400  1
  N  N4  1  0.50144000  0.00144000  0.79254600  1
  N  N5  1  0.29110600  0.49856000  0.50000000  1
  N  N6  1  0.00144000  0.20889400  0.50000000  1
  N  N7  1  0.70889400  0.50144000  0.50000000  1
loop_
_geom_bond_atom_site_label_1
_geom_bond_atom_site_label_2
_geom_bond_distance
_geom_bond_site_symmetry_2
Ca0 N6 2.438536 1_565
Ca0 N1 2.449756 1_455
Ca0 N4 2.451542 1_565
Ca0 N0 2.451542 1_555
Ca1 N1 2.438536 1_545
Ca1 N6 2.449756 1_655
Ca1 N2 2.451542 1_555
Ca1 N3 2.451542 1_545
Ca2 N4 2.438536 1_554
Ca2 N3 2.449756 1_545
Ca2 N6 2.451542 1_655
Ca2 N7 2.451542 1_555
Ca3 N2 2.438536 1_454
Ca3 N0 2.449756 1_555
Ca3 N1 2.451542 1_455
Ca3 N5 2.451542 1_555
Ca4 N5 2.438536 1_555
Ca4 N7 2.449756 1_555
Ca4 N3 2.451542 1_545
Ca4 N2 2.451542 1_555
Ca5 N7 2.438536 1_555
Ca5 N5 2.449756 1_555
Ca5 N0 2.451542 1_555
Ca5 N4 2.451542 1_565
Ca6 N3 2.438536 1_556
Ca6 N4 2.449756 1_565
Ca6 N5 2.451542 1_555
Ca6 N1 2.451542 1_455
Ca7 N0 2.438536 1_656
Ca7 N2 2.449756 1_555
Ca7 N6 2.451542 1_655
Ca7 N7 2.451542 1_555
Co0 N7 1.731669 1_555
Co0 N1 1.731669 1_555
Co1 N6 1.731669 1_555
Co1 N5 1.731669 1_555
Co2 N4 1.731669 1_555
Co2 N2 1.731669 1_555
Co3 N0 1.731669 1_555
Co3 N3 1.731669 1_555
