# generated using pymatgen
data_Rb2Mo(SO)2
_symmetry_space_group_name_H-M   'P 1'
_cell_length_a   8.72864600
_cell_length_b   6.90546100
_cell_length_c   14.16162340
_cell_angle_alpha   64.73502646
_cell_angle_beta   90.00000000
_cell_angle_gamma   90.00000000
_symmetry_Int_Tables_number   1
_chemical_formula_structural   Rb2Mo(SO)2
_chemical_formula_sum   'Rb8 Mo4 S8 O8'
_cell_volume   771.94451417
_cell_formula_units_Z   4
loop_
 _symmetry_equiv_pos_site_id
 _symmetry_equiv_pos_as_xyz
  1  'x, y, z'
loop_
 _atom_site_type_symbol
 _atom_site_label
 _atom_site_symmetry_multiplicity
 _atom_site_fract_x
 _atom_site_fract_y
 _atom_site_fract_z
 _atom_site_occupancy
  Rb  Rb0  1  0.68785500  0.66555000  0.05220500  1
  Rb  Rb1  1  0.18785500  0.33445000  0.44779500  1
  Rb  Rb2  1  0.31214500  0.33445000  0.94779500  1
  Rb  Rb3  1  0.81214500  0.66555000  0.55220500  1
  Rb  Rb4  1  0.48069500  0.84992100  0.29960700  1
  Rb  Rb5  1  0.98069500  0.15007900  0.20039300  1
  Rb  Rb6  1  0.51930500  0.15007900  0.70039300  1
  Rb  Rb7  1  0.01930500  0.84992100  0.79960700  1
  Mo  Mo0  1  0.21224800  0.72362400  0.08484200  1
  Mo  Mo1  1  0.71224800  0.27637600  0.41515800  1
  Mo  Mo2  1  0.78775200  0.27637600  0.91515800  1
  Mo  Mo3  1  0.28775200  0.72362400  0.58484200  1
  S  S0  1  0.15975200  0.85430100  0.43221700  1
  S  S1  1  0.65975200  0.14569900  0.06778300  1
  S  S2  1  0.84024800  0.14569900  0.56778300  1
  S  S3  1  0.34024800  0.85430100  0.93221700  1
  S  S4  1  0.33446800  0.42975900  0.19663800  1
  S  S5  1  0.83446800  0.57024100  0.30336200  1
  S  S6  1  0.66553200  0.57024100  0.80336200  1
  S  S7  1  0.16553200  0.42975900  0.69663800  1
  O  O0  1  0.02505800  0.65550400  0.06126600  1
  O  O1  1  0.52505800  0.34449600  0.43873400  1
  O  O2  1  0.97494200  0.34449600  0.93873400  1
  O  O3  1  0.47494200  0.65550400  0.56126600  1
  O  O4  1  0.21018500  0.92130200  0.13431600  1
  O  O5  1  0.71018500  0.07869800  0.36568400  1
  O  O6  1  0.78981500  0.07869800  0.86568400  1
  O  O7  1  0.28981500  0.92130200  0.63431600  1
loop_
_geom_bond_atom_site_label_1
_geom_bond_atom_site_label_2
_geom_bond_distance
_geom_bond_site_symmetry_2
Rb0 S1 3.424436 1_565
Rb0 S3 3.449881 1_554
Rb0 S1 3.509924 1_555
Rb0 S5 3.566990 1_555
Rb0 S4 3.675144 1_555
Rb0 S6 3.856121 1_554
Rb1 S0 3.424436 1_545
Rb1 S2 3.449881 1_455
Rb1 S0 3.509924 1_555
Rb1 S4 3.566990 1_555
Rb1 S5 3.675144 1_455
Rb1 S7 3.856121 1_555
Rb2 S3 3.424436 1_545
Rb2 S1 3.449881 1_556
Rb2 S3 3.509924 1_555
Rb2 S7 3.566990 1_555
Rb2 S6 3.675144 1_555
Rb2 S4 3.856121 1_556
Rb3 S2 3.424436 1_565
Rb3 S0 3.449881 1_655
Rb3 S2 3.509924 1_555
Rb3 S6 3.566990 1_555
Rb3 S7 3.675144 1_655
Rb3 S5 3.856121 1_555
Rb4 S0 3.379943 1_555
Rb4 S1 3.415951 1_565
Rb4 S5 3.630516 1_555
Rb4 S4 3.847581 1_565
Rb5 S1 3.379943 1_555
Rb5 S0 3.415951 1_645
Rb5 S4 3.630516 1_655
Rb5 S5 3.847581 1_545
Rb6 S2 3.379943 1_555
Rb6 S3 3.415951 1_545
Rb6 S7 3.630516 1_555
Rb6 S6 3.847581 1_545
Rb7 S3 3.379943 1_555
Rb7 S2 3.415951 1_465
Rb7 S6 3.630516 1_455
Rb7 S7 3.847581 1_565
Mo0 O0 1.771014 1_555
Mo0 O4 1.780727 1_555
Mo0 S4 2.240570 1_555
Mo0 S3 2.251533 1_554
Mo1 O1 1.771014 1_555
Mo1 O5 1.780727 1_555
Mo1 S5 2.240570 1_555
Mo1 S2 2.251533 1_555
Mo2 O2 1.771014 1_555
Mo2 O6 1.780727 1_555
Mo2 S6 2.240570 1_555
Mo2 S1 2.251533 1_556
Mo3 O3 1.771014 1_555
Mo3 O7 1.780727 1_555
Mo3 S7 2.240570 1_555
Mo3 S0 2.251533 1_555
O0 Rb0 2.945649 1_455
O0 Rb5 3.216115 1_455
O0 Rb7 3.359947 1_554
O1 Rb1 2.945649 1_555
O1 Rb4 3.216115 1_555
O1 Rb6 3.359947 1_555
O2 Rb2 2.945649 1_655
O2 Rb7 3.216115 1_655
O2 Rb5 3.359947 1_556
O3 Rb3 2.945649 1_555
O3 Rb6 3.216115 1_555
O3 Rb4 3.359947 1_555
O4 Rb5 2.940393 1_465
O4 Rb2 3.078304 1_564
O4 Rb4 3.211316 1_555
O5 Rb4 2.940393 1_545
O5 Rb3 3.078304 1_545
O5 Rb5 3.211316 1_555
O6 Rb7 2.940393 1_645
O6 Rb0 3.078304 1_546
O6 Rb6 3.211316 1_555
O7 Rb6 2.940393 1_565
O7 Rb1 3.078304 1_565
O7 Rb7 3.211316 1_555
