# generated using pymatgen
data_Ca4CrFe3O10
_symmetry_space_group_name_H-M   'P 1'
_cell_length_a   5.49306100
_cell_length_b   5.69031300
_cell_length_c   15.83005008
_cell_angle_alpha   68.97968963
_cell_angle_beta   90.00000000
_cell_angle_gamma   90.00000000
_symmetry_Int_Tables_number   1
_chemical_formula_structural   Ca4CrFe3O10
_chemical_formula_sum   'Ca8 Cr2 Fe6 O20'
_cell_volume   461.87608600
_cell_formula_units_Z   2
loop_
 _symmetry_equiv_pos_site_id
 _symmetry_equiv_pos_as_xyz
  1  'x, y, z'
loop_
 _atom_site_type_symbol
 _atom_site_label
 _atom_site_symmetry_multiplicity
 _atom_site_fract_x
 _atom_site_fract_y
 _atom_site_fract_z
 _atom_site_occupancy
  Ca  Ca0  1  0.97841600  0.36777500  0.10713000  1
  Ca  Ca1  1  0.47841600  0.63222500  0.39287000  1
  Ca  Ca2  1  0.02170900  0.91894400  0.60723100  1
  Ca  Ca3  1  0.52170900  0.08105600  0.89276900  1
  Ca  Ca4  1  0.02158400  0.63222500  0.89287000  1
  Ca  Ca5  1  0.52158400  0.36777500  0.60713000  1
  Ca  Ca6  1  0.97829100  0.08105600  0.39276900  1
  Ca  Ca7  1  0.47829100  0.91894400  0.10723100  1
  Cr  Cr0  1  0.50000000  0.50000000  0.00000000  1
  Cr  Cr1  1  0.00000000  0.50000000  0.50000000  1
  Fe  Fe0  1  0.44614900  0.31956100  0.24905100  1
  Fe  Fe1  1  0.94614900  0.68043900  0.25094900  1
  Fe  Fe2  1  0.55385100  0.68043900  0.75094900  1
  Fe  Fe3  1  0.05385100  0.31956100  0.74905100  1
  Fe  Fe4  1  0.50000000  0.00000000  0.50000000  1
  Fe  Fe5  1  0.00000000  0.00000000  0.00000000  1
  O  O0  1  0.76466800  0.27968700  0.98271200  1
  O  O1  1  0.26466800  0.72031300  0.51728800  1
  O  O2  1  0.23636700  0.25197400  0.48243700  1
  O  O3  1  0.73636700  0.74802600  0.01756300  1
  O  O4  1  0.23533200  0.72031300  0.01728800  1
  O  O5  1  0.73533200  0.27968700  0.48271200  1
  O  O6  1  0.76363300  0.74802600  0.51756300  1
  O  O7  1  0.26363300  0.25197400  0.98243700  1
  O  O8  1  0.52738600  0.28833000  0.13840800  1
  O  O9  1  0.02738600  0.71167000  0.36159200  1
  O  O10  1  0.46916800  0.93695300  0.64256800  1
  O  O11  1  0.96916800  0.06304700  0.85743200  1
  O  O12  1  0.47261400  0.71167000  0.86159200  1
  O  O13  1  0.97261400  0.28833000  0.63840800  1
  O  O14  1  0.53083200  0.06304700  0.35743200  1
  O  O15  1  0.03083200  0.93695300  0.14256800  1
  O  O16  1  0.09172900  0.37009600  0.24996200  1
  O  O17  1  0.59172900  0.62990400  0.25003800  1
  O  O18  1  0.90827100  0.62990400  0.75003800  1
  O  O19  1  0.40827100  0.37009600  0.74996200  1
loop_
_geom_bond_atom_site_label_1
_geom_bond_atom_site_label_2
_geom_bond_distance
_geom_bond_site_symmetry_2
Ca0 O15 2.328284 1_645
Ca0 O16 2.349748 1_655
Ca0 O4 2.447816 1_655
Ca0 O0 2.493425 1_554
Ca0 O3 2.501805 1_555
Ca0 O8 2.535177 1_555
Ca0 O7 2.778161 1_654
Ca1 O14 2.328284 1_565
Ca1 O17 2.349748 1_555
Ca1 O5 2.447816 1_555
Ca1 O1 2.493425 1_555
Ca1 O2 2.501805 1_555
Ca1 O9 2.535177 1_555
Ca1 O6 2.778161 1_555
Ca2 O13 2.340638 1_465
Ca2 O18 2.352983 1_455
Ca2 O6 2.441473 1_455
Ca2 O2 2.489666 1_565
Ca2 O1 2.498070 1_555
Ca2 O10 2.530989 1_555
Ca2 O5 2.769653 1_465
Ca3 O12 2.340638 1_545
Ca3 O19 2.352983 1_555
Ca3 O7 2.441473 1_555
Ca3 O3 2.489666 1_546
Ca3 O0 2.498070 1_555
Ca3 O11 2.530989 1_555
Ca3 O4 2.769653 1_546
Ca4 O11 2.328284 1_465
Ca4 O18 2.349748 1_455
Ca4 O0 2.447816 1_455
Ca4 O4 2.493425 1_556
Ca4 O7 2.501805 1_555
Ca4 O12 2.535177 1_555
Ca4 O3 2.778161 1_456
Ca5 O10 2.328284 1_545
Ca5 O19 2.349748 1_555
Ca5 O1 2.447816 1_555
Ca5 O5 2.493425 1_555
Ca5 O6 2.501805 1_555
Ca5 O13 2.535177 1_555
Ca5 O2 2.778161 1_555
Ca6 O9 2.340638 1_645
Ca6 O16 2.352983 1_655
Ca6 O2 2.441473 1_655
Ca6 O6 2.489666 1_545
Ca6 O5 2.498070 1_555
Ca6 O14 2.530989 1_555
Ca6 O1 2.769653 1_645
Ca7 O8 2.340638 1_565
Ca7 O17 2.352983 1_555
Ca7 O3 2.441473 1_555
Ca7 O7 2.489666 1_564
Ca7 O4 2.498070 1_555
Ca7 O15 2.530989 1_555
Ca7 O0 2.769653 1_564
Cr0 O0 2.001576 1_554
Cr0 O4 2.001576 1_555
Cr0 O3 2.009099 1_555
Cr0 O7 2.009099 1_554
Cr0 O12 2.093005 1_554
Cr0 O8 2.093005 1_555
Cr1 O1 2.001576 1_555
Cr1 O5 2.001576 1_455
Cr1 O6 2.009099 1_455
Cr1 O2 2.009099 1_555
Cr1 O13 2.093005 1_455
Cr1 O9 2.093005 1_555
Fe0 O14 1.869205 1_555
Fe0 O8 1.876622 1_555
Fe0 O17 1.943734 1_555
Fe0 O16 1.968782 1_555
Fe1 O15 1.869205 1_655
Fe1 O9 1.876622 1_655
Fe1 O16 1.943734 1_655
Fe1 O17 1.968782 1_555
Fe2 O10 1.869205 1_555
Fe2 O12 1.876622 1_555
Fe2 O19 1.943734 1_555
Fe2 O18 1.968782 1_555
Fe3 O11 1.869205 1_455
Fe3 O13 1.876622 1_455
Fe3 O18 1.943734 1_455
Fe3 O19 1.968782 1_555
Fe4 O2 1.986020 1_555
Fe4 O6 1.986020 1_545
Fe4 O5 1.991578 1_555
Fe4 O1 1.991578 1_545
Fe4 O14 2.161007 1_555
Fe4 O10 2.161007 1_545
Fe5 O7 1.986020 1_554
Fe5 O3 1.986020 1_445
Fe5 O4 1.991578 1_545
Fe5 O0 1.991578 1_454
Fe5 O11 2.161007 1_454
Fe5 O15 2.161007 1_545
