# generated using pymatgen
data_CoCu2Sn3S8
_symmetry_space_group_name_H-M   'P 1'
_cell_length_a   7.31423295
_cell_length_b   7.31423295
_cell_length_c   7.31423309
_cell_angle_alpha   60.15786839
_cell_angle_beta   60.15786839
_cell_angle_gamma   60.15787672
_symmetry_Int_Tables_number   1
_chemical_formula_structural   CoCu2Sn3S8
_chemical_formula_sum   'Co1 Cu2 Sn3 S8'
_cell_volume   277.67804031
_cell_formula_units_Z   1
loop_
 _symmetry_equiv_pos_site_id
 _symmetry_equiv_pos_as_xyz
  1  'x, y, z'
loop_
 _atom_site_type_symbol
 _atom_site_label
 _atom_site_symmetry_multiplicity
 _atom_site_fract_x
 _atom_site_fract_y
 _atom_site_fract_z
 _atom_site_occupancy
  Co  Co0  1  0.00000000  0.00000000  0.00000000  1
  Cu  Cu0  1  0.38009700  0.38009700  0.38009700  1
  Cu  Cu1  1  0.61990300  0.61990300  0.61990300  1
  Sn  Sn0  1  0.50000000  0.00000000  0.00000000  1
  Sn  Sn1  1  0.00000000  0.00000000  0.50000000  1
  Sn  Sn2  1  0.00000000  0.50000000  0.00000000  1
  S  S0  1  0.25084300  0.25084300  0.25084300  1
  S  S1  1  0.77064400  0.23051000  0.23051000  1
  S  S2  1  0.23051000  0.23051000  0.77064400  1
  S  S3  1  0.23051000  0.77064400  0.23051000  1
  S  S4  1  0.74915700  0.74915700  0.74915700  1
  S  S5  1  0.22935600  0.76949000  0.76949000  1
  S  S6  1  0.76949000  0.76949000  0.22935600  1
  S  S7  1  0.76949000  0.22935600  0.76949000  1
loop_
_geom_bond_atom_site_label_1
_geom_bond_atom_site_label_2
_geom_bond_distance
_geom_bond_site_symmetry_2
Co0 S6 2.387201 1_445
Co0 S2 2.387201 1_554
Co0 S3 2.387201 1_545
Co0 S1 2.387201 1_455
Co0 S5 2.387201 1_544
Co0 S7 2.387201 1_454
Cu0 S0 2.312966 1_555
Cu0 S2 2.350424 1_555
Cu0 S1 2.350425 1_555
Cu0 S3 2.350425 1_555
Cu1 S4 2.312966 1_555
Cu1 S6 2.350424 1_555
Cu1 S5 2.350425 1_555
Cu1 S7 2.350425 1_555
S0 Sn1 2.597776 1_555
S0 Sn2 2.597776 1_555
S0 Sn0 2.597776 1_555
S1 Sn2 2.590499 1_655
S1 Sn1 2.590499 1_655
S2 Sn0 2.590499 1_556
S2 Sn2 2.590499 1_556
S3 Sn0 2.590499 1_565
S3 Sn1 2.590499 1_565
S4 Sn1 2.597776 1_665
S4 Sn0 2.597776 1_566
S4 Sn2 2.597776 1_656
S5 Sn2 2.590499 1_556
S5 Sn1 2.590499 1_565
S6 Sn0 2.590499 1_565
S6 Sn2 2.590499 1_655
S7 Sn0 2.590499 1_556
S7 Sn1 2.590499 1_655
