# generated using pymatgen
data_Ce3Sn13Ru4
_symmetry_space_group_name_H-M   'P 1'
_cell_length_a   9.79040700
_cell_length_b   9.79040700
_cell_length_c   9.79040700
_cell_angle_alpha   90.00000000
_cell_angle_beta   90.00000000
_cell_angle_gamma   90.00000000
_symmetry_Int_Tables_number   1
_chemical_formula_structural   Ce3Sn13Ru4
_chemical_formula_sum   'Ce6 Sn26 Ru8'
_cell_volume   938.43076951
_cell_formula_units_Z   2
loop_
 _symmetry_equiv_pos_site_id
 _symmetry_equiv_pos_as_xyz
  1  'x, y, z'
loop_
 _atom_site_type_symbol
 _atom_site_label
 _atom_site_symmetry_multiplicity
 _atom_site_fract_x
 _atom_site_fract_y
 _atom_site_fract_z
 _atom_site_occupancy
  Ce  Ce0  1  0.50000000  0.00000000  0.75000000  1
  Ce  Ce1  1  0.00000000  0.25000000  0.50000000  1
  Ce  Ce2  1  0.75000000  0.50000000  0.00000000  1
  Ce  Ce3  1  0.50000000  0.00000000  0.25000000  1
  Ce  Ce4  1  0.00000000  0.75000000  0.50000000  1
  Ce  Ce5  1  0.25000000  0.50000000  0.00000000  1
  Sn  Sn0  1  0.50000000  0.50000000  0.50000000  1
  Sn  Sn1  1  0.00000000  0.00000000  0.00000000  1
  Sn  Sn2  1  0.65393900  0.19703100  0.50000000  1
  Sn  Sn3  1  0.80296900  0.50000000  0.65393900  1
  Sn  Sn4  1  0.50000000  0.34606100  0.80296900  1
  Sn  Sn5  1  0.34606100  0.80296900  0.50000000  1
  Sn  Sn6  1  0.19703100  0.50000000  0.34606100  1
  Sn  Sn7  1  0.50000000  0.65393900  0.19703100  1
  Sn  Sn8  1  0.65393900  0.80296900  0.50000000  1
  Sn  Sn9  1  0.80296900  0.50000000  0.34606100  1
  Sn  Sn10  1  0.34606100  0.19703100  0.50000000  1
  Sn  Sn11  1  0.19703100  0.50000000  0.65393900  1
  Sn  Sn12  1  0.50000000  0.65393900  0.80296900  1
  Sn  Sn13  1  0.50000000  0.34606100  0.19703100  1
  Sn  Sn14  1  0.15393900  0.00000000  0.69703100  1
  Sn  Sn15  1  0.30296900  0.15393900  0.00000000  1
  Sn  Sn16  1  0.00000000  0.30296900  0.84606100  1
  Sn  Sn17  1  0.84606100  0.00000000  0.30296900  1
  Sn  Sn18  1  0.69703100  0.84606100  0.00000000  1
  Sn  Sn19  1  0.00000000  0.69703100  0.15393900  1
  Sn  Sn20  1  0.15393900  0.00000000  0.30296900  1
  Sn  Sn21  1  0.30296900  0.84606100  0.00000000  1
  Sn  Sn22  1  0.84606100  0.00000000  0.69703100  1
  Sn  Sn23  1  0.69703100  0.15393900  0.00000000  1
  Sn  Sn24  1  0.00000000  0.30296900  0.15393900  1
  Sn  Sn25  1  0.00000000  0.69703100  0.84606100  1
  Ru  Ru0  1  0.75000000  0.25000000  0.75000000  1
  Ru  Ru1  1  0.25000000  0.75000000  0.25000000  1
  Ru  Ru2  1  0.75000000  0.75000000  0.25000000  1
  Ru  Ru3  1  0.25000000  0.25000000  0.75000000  1
  Ru  Ru4  1  0.25000000  0.75000000  0.75000000  1
  Ru  Ru5  1  0.75000000  0.25000000  0.25000000  1
  Ru  Ru6  1  0.25000000  0.25000000  0.25000000  1
  Ru  Ru7  1  0.75000000  0.75000000  0.75000000  1
loop_
_geom_bond_atom_site_label_1
_geom_bond_atom_site_label_2
_geom_bond_distance
_geom_bond_site_symmetry_2
Ce0 Sn4 3.427536 1_555
Ce0 Sn22 3.427536 1_555
Ce0 Sn14 3.427536 1_555
Ce0 Sn12 3.427536 1_545
Ce0 Ru7 3.461432 1_545
Ce0 Ru0 3.461432 1_555
Ce0 Ru4 3.461432 1_545
Ce0 Ru3 3.461432 1_555
Ce0 Sn2 3.461687 1_555
Ce0 Sn10 3.461687 1_555
Ce0 Sn23 3.461687 1_556
Ce0 Sn21 3.461687 1_546
Ce0 Sn15 3.461687 1_556
Ce0 Sn18 3.461687 1_546
Ce0 Sn8 3.461687 1_545
Ce0 Sn5 3.461687 1_545
Ce1 Sn16 3.427536 1_555
Ce1 Sn24 3.427536 1_555
Ce1 Sn10 3.427536 1_555
Ce1 Sn2 3.427536 1_455
Ce1 Ru6 3.461432 1_555
Ce1 Ru0 3.461432 1_455
Ce1 Ru3 3.461432 1_555
Ce1 Ru5 3.461432 1_455
Ce1 Sn11 3.461687 1_555
Ce1 Sn6 3.461687 1_555
Ce1 Sn20 3.461687 1_555
Ce1 Sn14 3.461687 1_555
Ce1 Sn22 3.461687 1_455
Ce1 Sn17 3.461687 1_455
Ce1 Sn3 3.461687 1_455
Ce1 Sn9 3.461687 1_455
Ce2 Sn9 3.427536 1_555
Ce2 Sn18 3.427536 1_555
Ce2 Sn23 3.427536 1_555
Ce2 Sn3 3.427536 1_554
Ce2 Ru0 3.461432 1_554
Ce2 Ru5 3.461432 1_555
Ce2 Ru7 3.461432 1_554
Ce2 Ru2 3.461432 1_555
Ce2 Sn7 3.461687 1_555
Ce2 Sn13 3.461687 1_555
Ce2 Sn16 3.461687 1_654
Ce2 Sn19 3.461687 1_655
Ce2 Sn24 3.461687 1_655
Ce2 Sn25 3.461687 1_654
Ce2 Sn12 3.461687 1_554
Ce2 Sn4 3.461687 1_554
Ce3 Sn17 3.427536 1_555
Ce3 Sn20 3.427536 1_555
Ce3 Sn13 3.427536 1_555
Ce3 Sn7 3.427536 1_545
Ce3 Ru1 3.461432 1_545
Ce3 Ru6 3.461432 1_555
Ce3 Ru5 3.461432 1_555
Ce3 Ru2 3.461432 1_545
Ce3 Sn2 3.461687 1_555
Ce3 Sn10 3.461687 1_555
Ce3 Sn23 3.461687 1_555
Ce3 Sn15 3.461687 1_555
Ce3 Sn21 3.461687 1_545
Ce3 Sn18 3.461687 1_545
Ce3 Sn8 3.461687 1_545
Ce3 Sn5 3.461687 1_545
Ce4 Sn5 3.427536 1_555
Ce4 Sn25 3.427536 1_555
Ce4 Sn19 3.427536 1_555
Ce4 Sn8 3.427536 1_455
Ce4 Ru2 3.461432 1_455
Ce4 Ru7 3.461432 1_455
Ce4 Ru1 3.461432 1_555
Ce4 Ru4 3.461432 1_555
Ce4 Sn11 3.461687 1_555
Ce4 Sn6 3.461687 1_555
Ce4 Sn20 3.461687 1_565
Ce4 Sn14 3.461687 1_565
Ce4 Sn22 3.461687 1_465
Ce4 Sn17 3.461687 1_465
Ce4 Sn3 3.461687 1_455
Ce4 Sn9 3.461687 1_455
Ce5 Sn21 3.427536 1_555
Ce5 Sn15 3.427536 1_555
Ce5 Sn6 3.427536 1_555
Ce5 Sn11 3.427536 1_554
Ce5 Ru6 3.461432 1_555
Ce5 Ru3 3.461432 1_554
Ce5 Ru1 3.461432 1_555
Ce5 Ru4 3.461432 1_554
Ce5 Sn7 3.461687 1_555
Ce5 Sn13 3.461687 1_555
Ce5 Sn16 3.461687 1_554
Ce5 Sn24 3.461687 1_555
Ce5 Sn19 3.461687 1_555
Ce5 Sn25 3.461687 1_554
Ce5 Sn12 3.461687 1_554
Ce5 Sn4 3.461687 1_554
Sn0 Sn12 3.327117 1_555
Sn0 Sn8 3.327117 1_555
Sn0 Sn3 3.327117 1_555
Sn0 Sn4 3.327117 1_555
Sn0 Sn5 3.327117 1_555
Sn0 Sn9 3.327117 1_555
Sn0 Sn2 3.327117 1_555
Sn0 Sn7 3.327117 1_555
Sn0 Sn11 3.327117 1_555
Sn0 Sn6 3.327117 1_555
Sn0 Sn13 3.327117 1_555
Sn0 Sn10 3.327117 1_555
Sn1 Sn20 3.327117 1_555
Sn1 Sn16 3.327117 1_554
Sn1 Sn24 3.327117 1_555
Sn1 Sn15 3.327117 1_555
Sn1 Sn21 3.327117 1_545
Sn1 Sn17 3.327117 1_455
Sn1 Sn14 3.327117 1_554
Sn1 Sn22 3.327117 1_454
Sn1 Sn25 3.327117 1_544
Sn1 Sn19 3.327117 1_545
Sn1 Sn23 3.327117 1_455
Sn1 Sn18 3.327117 1_445
Ru0 Sn4 2.672861 1_555
Ru0 Sn16 2.672861 1_655
Ru0 Sn23 2.672861 1_556
Ru0 Sn22 2.672861 1_555
Ru0 Sn3 2.672861 1_555
Ru0 Sn2 2.672861 1_555
Ru1 Sn5 2.672861 1_555
Ru1 Sn19 2.672861 1_555
Ru1 Sn20 2.672861 1_565
Ru1 Sn21 2.672861 1_555
Ru1 Sn6 2.672861 1_555
Ru1 Sn7 2.672861 1_555
Ru2 Sn9 2.672861 1_555
Ru2 Sn18 2.672861 1_555
Ru2 Sn17 2.672861 1_565
Ru2 Sn19 2.672861 1_655
Ru2 Sn8 2.672861 1_555
Ru2 Sn7 2.672861 1_555
Ru3 Sn4 2.672861 1_555
Ru3 Sn14 2.672861 1_555
Ru3 Sn16 2.672861 1_555
Ru3 Sn15 2.672861 1_556
Ru3 Sn10 2.672861 1_555
Ru3 Sn11 2.672861 1_555
Ru4 Sn5 2.672861 1_555
Ru4 Sn14 2.672861 1_565
Ru4 Sn25 2.672861 1_555
Ru4 Sn21 2.672861 1_556
Ru4 Sn12 2.672861 1_555
Ru4 Sn11 2.672861 1_555
Ru5 Sn9 2.672861 1_555
Ru5 Sn23 2.672861 1_555
Ru5 Sn17 2.672861 1_555
Ru5 Sn24 2.672861 1_655
Ru5 Sn13 2.672861 1_555
Ru5 Sn2 2.672861 1_555
Ru6 Sn15 2.672861 1_555
Ru6 Sn24 2.672861 1_555
Ru6 Sn20 2.672861 1_555
Ru6 Sn13 2.672861 1_555
Ru6 Sn10 2.672861 1_555
Ru6 Sn6 2.672861 1_555
Ru7 Sn25 2.672861 1_655
Ru7 Sn22 2.672861 1_565
Ru7 Sn18 2.672861 1_556
Ru7 Sn8 2.672861 1_555
Ru7 Sn12 2.672861 1_555
Ru7 Sn3 2.672861 1_555
