# generated using pymatgen
data_Sr7PbN6
_symmetry_space_group_name_H-M   'P 1'
_cell_length_a   6.84967286
_cell_length_b   9.89768965
_cell_length_c   9.89768965
_cell_angle_alpha   79.37823261
_cell_angle_beta   69.75569671
_cell_angle_gamma   69.75569671
_symmetry_Int_Tables_number   1
_chemical_formula_structural   Sr7PbN6
_chemical_formula_sum   'Sr14 Pb2 N12'
_cell_volume   589.08753324
_cell_formula_units_Z   2
loop_
 _symmetry_equiv_pos_site_id
 _symmetry_equiv_pos_as_xyz
  1  'x, y, z'
loop_
 _atom_site_type_symbol
 _atom_site_label
 _atom_site_symmetry_multiplicity
 _atom_site_fract_x
 _atom_site_fract_y
 _atom_site_fract_z
 _atom_site_occupancy
  Sr  Sr0  1  0.28189547  0.95041066  0.04958934  1
  Sr  Sr1  1  0.71810453  0.04958934  0.95041066  1
  Sr  Sr2  1  0.21810453  0.45041066  0.54958934  1
  Sr  Sr3  1  0.78189547  0.54958934  0.45041066  1
  Sr  Sr4  1  0.76155751  0.15271697  0.58953865  1
  Sr  Sr5  1  0.49618687  0.58953865  0.15271697  1
  Sr  Sr6  1  0.73844249  0.91046135  0.34728303  1
  Sr  Sr7  1  0.00381313  0.34728303  0.91046135  1
  Sr  Sr8  1  0.23844249  0.84728303  0.41046135  1
  Sr  Sr9  1  0.50381313  0.41046135  0.84728303  1
  Sr  Sr10  1  0.26155751  0.08953865  0.65271697  1
  Sr  Sr11  1  0.99618687  0.65271697  0.08953865  1
  Sr  Sr12  1  0.25000000  0.25000000  0.25000000  1
  Sr  Sr13  1  0.75000000  0.75000000  0.75000000  1
  Pb  Pb0  1  0.75000000  0.25000000  0.25000000  1
  Pb  Pb1  1  0.25000000  0.75000000  0.75000000  1
  N  N0  1  0.02373938  0.06265921  0.29444242  1
  N  N1  1  0.61915899  0.29444242  0.06265921  1
  N  N2  1  0.47626062  0.20555758  0.43734079  1
  N  N3  1  0.88084101  0.43734079  0.20555758  1
  N  N4  1  0.97626062  0.93734079  0.70555758  1
  N  N5  1  0.38084101  0.70555758  0.93734079  1
  N  N6  1  0.52373938  0.79444242  0.56265921  1
  N  N7  1  0.11915899  0.56265921  0.79444242  1
  N  N8  1  0.88334259  0.35038733  0.64961267  1
  N  N9  1  0.11665741  0.64961267  0.35038733  1
  N  N10  1  0.61665741  0.85038733  0.14961267  1
  N  N11  1  0.38334259  0.14961267  0.85038733  1
loop_
_geom_bond_atom_site_label_1
_geom_bond_atom_site_label_2
_geom_bond_distance
_geom_bond_site_symmetry_2
N0 Pb0 2.238627 1_455
N0 Sr8 2.474350 1_545
N0 Sr0 2.627112 1_545
N0 Sr12 2.692563 1_555
N0 Sr6 2.720508 1_445
N0 Sr4 2.961843 1_455
N1 Pb0 2.238626 1_555
N1 Sr9 2.474350 1_554
N1 Sr1 2.627112 1_554
N1 Sr12 2.692564 1_555
N1 Sr7 2.720508 1_654
N1 Sr5 2.961843 1_555
N2 Pb0 2.238627 1_555
N2 Sr10 2.474350 1_555
N2 Sr2 2.627112 1_555
N2 Sr12 2.692563 1_555
N2 Sr4 2.720508 1_555
N2 Sr6 2.961843 1_545
N3 Pb0 2.238626 1_555
N3 Sr11 2.474350 1_555
N3 Sr3 2.627112 1_555
N3 Sr12 2.692564 1_655
N3 Sr5 2.720508 1_555
N3 Sr7 2.961843 1_654
N4 Pb1 2.238627 1_655
N4 Sr4 2.474350 1_565
N4 Sr1 2.627112 1_565
N4 Sr13 2.692563 1_555
N4 Sr10 2.720508 1_665
N4 Sr8 2.961843 1_655
N5 Pb1 2.238626 1_555
N5 Sr5 2.474350 1_556
N5 Sr0 2.627112 1_556
N5 Sr13 2.692564 1_555
N5 Sr11 2.720508 1_456
N5 Sr9 2.961843 1_555
N6 Pb1 2.238627 1_555
N6 Sr6 2.474350 1_555
N6 Sr3 2.627112 1_555
N6 Sr13 2.692563 1_555
N6 Sr8 2.720508 1_555
N6 Sr10 2.961843 1_565
N7 Pb1 2.238626 1_555
N7 Sr7 2.474350 1_555
N7 Sr2 2.627112 1_555
N7 Sr13 2.692564 1_455
N7 Sr9 2.720508 1_555
N7 Sr11 2.961843 1_456
N8 Sr4 2.603614 1_555
N8 Sr9 2.603615 1_555
N8 Sr3 2.612376 1_555
N8 Sr2 2.618545 1_655
N8 Sr7 2.962288 1_655
N8 Sr10 2.962288 1_655
N9 Sr8 2.603614 1_555
N9 Sr5 2.603615 1_555
N9 Sr2 2.612376 1_555
N9 Sr3 2.618545 1_455
N9 Sr11 2.962288 1_455
N9 Sr6 2.962288 1_455
N10 Sr6 2.603614 1_555
N10 Sr11 2.603615 1_555
N10 Sr1 2.612376 1_564
N10 Sr0 2.618545 1_555
N10 Sr5 2.962288 1_555
N10 Sr8 2.962288 1_555
N11 Sr10 2.603614 1_555
N11 Sr7 2.603615 1_555
N11 Sr0 2.612376 1_546
N11 Sr1 2.618545 1_555
N11 Sr9 2.962288 1_555
N11 Sr4 2.962288 1_555
