# generated using pymatgen
data_CeSe2
_symmetry_space_group_name_H-M   'P 1'
_cell_length_a   9.07308251
_cell_length_b   8.61213541
_cell_length_c   19.61175074
_cell_angle_alpha   90.00000000
_cell_angle_beta   90.00000000
_cell_angle_gamma   84.83842046
_symmetry_Int_Tables_number   1
_chemical_formula_structural   CeSe2
_chemical_formula_sum   'Ce16 Se32'
_cell_volume   1526.22094319
_cell_formula_units_Z   16
loop_
 _symmetry_equiv_pos_site_id
 _symmetry_equiv_pos_as_xyz
  1  'x, y, z'
loop_
 _atom_site_type_symbol
 _atom_site_label
 _atom_site_symmetry_multiplicity
 _atom_site_fract_x
 _atom_site_fract_y
 _atom_site_fract_z
 _atom_site_occupancy
  Ce  Ce0  1  0.64019431  0.31312877  0.68121786  1
  Ce  Ce1  1  0.35980569  0.18687123  0.18121786  1
  Ce  Ce2  1  0.35980569  0.68687123  0.31878214  1
  Ce  Ce3  1  0.64019431  0.81312877  0.81878214  1
  Ce  Ce4  1  0.80991274  0.73071667  0.61596727  1
  Ce  Ce5  1  0.19008726  0.76928333  0.11596727  1
  Ce  Ce6  1  0.19008726  0.26928333  0.38403273  1
  Ce  Ce7  1  0.80991274  0.23071667  0.88403273  1
  Ce  Ce8  1  0.19469844  0.84369498  0.51741798  1
  Ce  Ce9  1  0.80530156  0.65630502  0.01741798  1
  Ce  Ce10  1  0.80530156  0.15630502  0.48258202  1
  Ce  Ce11  1  0.19469844  0.34369498  0.98258202  1
  Ce  Ce12  1  0.23030698  0.14177732  0.77223262  1
  Ce  Ce13  1  0.76969302  0.35822268  0.27223262  1
  Ce  Ce14  1  0.76969302  0.85822268  0.22776738  1
  Ce  Ce15  1  0.23030698  0.64177732  0.72776738  1
  Se  Se0  1  0.32994998  0.33349043  0.66617481  1
  Se  Se1  1  0.67005002  0.16650957  0.16617481  1
  Se  Se2  1  0.67005002  0.66650957  0.33382519  1
  Se  Se3  1  0.32994998  0.83349043  0.83382519  1
  Se  Se4  1  0.72433752  0.44619403  0.55657527  1
  Se  Se5  1  0.27566248  0.05380597  0.05657527  1
  Se  Se6  1  0.27566248  0.55380597  0.44342473  1
  Se  Se7  1  0.72433752  0.94619403  0.94342473  1
  Se  Se8  1  0.66065228  0.03746357  0.60175975  1
  Se  Se9  1  0.33934772  0.46253643  0.10175975  1
  Se  Se10  1  0.33934772  0.96253643  0.39824025  1
  Se  Se11  1  0.66065228  0.53746357  0.89824025  1
  Se  Se12  1  0.92220937  0.29406052  0.74978071  1
  Se  Se13  1  0.07779063  0.20593948  0.24978071  1
  Se  Se14  1  0.07779063  0.70593948  0.25021929  1
  Se  Se15  1  0.92220937  0.79406052  0.75021929  1
  Se  Se16  1  0.56096899  0.14580996  0.80096128  1
  Se  Se17  1  0.43903101  0.35419004  0.30096128  1
  Se  Se18  1  0.43903101  0.85419004  0.19903872  1
  Se  Se19  1  0.56096899  0.64580996  0.69903872  1
  Se  Se20  1  0.09760589  0.09250778  0.90205866  1
  Se  Se21  1  0.90239411  0.40749222  0.40205866  1
  Se  Se22  1  0.90239411  0.90749222  0.09794134  1
  Se  Se23  1  0.09760589  0.59250778  0.59794134  1
  Se  Se24  1  0.25835359  0.43125203  0.84596041  1
  Se  Se25  1  0.74164641  0.06874797  0.34596041  1
  Se  Se26  1  0.74164641  0.56874797  0.15403959  1
  Se  Se27  1  0.25835359  0.93125203  0.65403959  1
  Se  Se28  1  0.89765686  0.32903479  0.01873041  1
  Se  Se29  1  0.10234314  0.17096521  0.51873041  1
  Se  Se30  1  0.10234314  0.67096521  0.98126959  1
  Se  Se31  1  0.89765686  0.82903479  0.48126959  1
loop_
_geom_bond_atom_site_label_1
_geom_bond_atom_site_label_2
_geom_bond_distance
_geom_bond_site_symmetry_2
Ce0 Se0 2.820014 1_555
Ce0 Se8 2.831906 1_555
Ce0 Se4 2.833531 1_555
Ce0 Se16 2.879991 1_555
Ce0 Se12 2.882116 1_555
Ce0 Se19 2.911539 1_555
Ce1 Se1 2.820014 1_555
Ce1 Se9 2.831906 1_555
Ce1 Se5 2.833531 1_555
Ce1 Se17 2.879991 1_555
Ce1 Se13 2.882116 1_555
Ce1 Se18 2.911539 1_545
Ce2 Se2 2.820014 1_555
Ce2 Se10 2.831906 1_555
Ce2 Se6 2.833531 1_555
Ce2 Se18 2.879991 1_555
Ce2 Se14 2.882116 1_555
Ce2 Se17 2.911539 1_555
Ce3 Se3 2.820014 1_555
Ce3 Se11 2.831906 1_555
Ce3 Se7 2.833531 1_555
Ce3 Se19 2.879991 1_555
Ce3 Se15 2.882116 1_555
Ce3 Se16 2.911539 1_565
Ce4 Se23 2.792163 1_655
Ce4 Se8 2.871714 1_565
Ce4 Se4 2.882028 1_555
Ce4 Se15 2.892744 1_555
Ce4 Se31 2.906954 1_555
Ce4 Se19 2.930487 1_555
Ce5 Se22 2.792163 1_455
Ce5 Se9 2.871714 1_555
Ce5 Se5 2.882028 1_565
Ce5 Se14 2.892744 1_555
Ce5 Se30 2.906954 1_554
Ce5 Se18 2.930487 1_555
Ce6 Se21 2.792163 1_455
Ce6 Se10 2.871714 1_545
Ce6 Se6 2.882028 1_555
Ce6 Se13 2.892744 1_555
Ce6 Se29 2.906954 1_555
Ce6 Se17 2.930487 1_555
Ce7 Se20 2.792163 1_655
Ce7 Se11 2.871714 1_555
Ce7 Se7 2.882028 1_545
Ce7 Se12 2.892744 1_555
Ce7 Se28 2.906954 1_556
Ce7 Se16 2.930487 1_555
Ce8 Se31 2.800575 1_455
Ce8 Se27 2.856509 1_555
Ce8 Se29 2.867366 1_565
Ce8 Se23 2.879669 1_555
Ce8 Se10 2.911104 1_555
Ce8 Se6 2.923743 1_555
Ce9 Se30 2.800575 1_654
Ce9 Se26 2.856509 1_555
Ce9 Se28 2.867366 1_555
Ce9 Se22 2.879669 1_555
Ce9 Se11 2.911104 1_554
Ce9 Se7 2.923743 1_554
Ce10 Se29 2.800575 1_655
Ce10 Se25 2.856509 1_555
Ce10 Se31 2.867366 1_545
Ce10 Se21 2.879669 1_555
Ce10 Se8 2.911104 1_555
Ce10 Se4 2.923743 1_555
Ce11 Se28 2.800575 1_456
Ce11 Se24 2.856509 1_555
Ce11 Se30 2.867366 1_555
Ce11 Se20 2.879669 1_555
Ce11 Se9 2.911104 1_556
Ce11 Se5 2.923743 1_556
Ce12 Se0 2.852758 1_555
Ce12 Se20 2.864316 1_555
Ce12 Se24 2.912841 1_555
Ce12 Se27 2.939722 1_545
Ce12 Se3 2.982220 1_545
Ce12 Se12 3.011389 1_455
Ce12 Se16 3.055837 1_555
Ce13 Se1 2.852758 1_555
Ce13 Se21 2.864316 1_555
Ce13 Se25 2.912841 1_555
Ce13 Se26 2.939722 1_555
Ce13 Se2 2.982220 1_555
Ce13 Se13 3.011389 1_655
Ce13 Se17 3.055837 1_555
Ce14 Se2 2.852758 1_555
Ce14 Se22 2.864316 1_555
Ce14 Se26 2.912841 1_555
Ce14 Se25 2.939722 1_565
Ce14 Se1 2.982220 1_565
Ce14 Se14 3.011389 1_655
Ce14 Se18 3.055837 1_555
Ce15 Se3 2.852758 1_555
Ce15 Se23 2.864316 1_555
Ce15 Se27 2.912841 1_555
Ce15 Se24 2.939722 1_555
Ce15 Se0 2.982220 1_555
Ce15 Se15 3.011389 1_455
Ce15 Se19 3.055837 1_555
