# generated using pymatgen
data_Li4Mn3Fe(BO3)4
_symmetry_space_group_name_H-M   'P 1'
_cell_length_a   5.17328700
_cell_length_b   5.23251942
_cell_length_c   11.07729665
_cell_angle_alpha   76.41229139
_cell_angle_beta   78.96931520
_cell_angle_gamma   60.89905160
_symmetry_Int_Tables_number   1
_chemical_formula_structural   Li4Mn3Fe(BO3)4
_chemical_formula_sum   'Li4 Mn3 Fe1 B4 O12'
_cell_volume   253.61858497
_cell_formula_units_Z   1
loop_
 _symmetry_equiv_pos_site_id
 _symmetry_equiv_pos_as_xyz
  1  'x, y, z'
loop_
 _atom_site_type_symbol
 _atom_site_label
 _atom_site_symmetry_multiplicity
 _atom_site_fract_x
 _atom_site_fract_y
 _atom_site_fract_z
 _atom_site_occupancy
  Li  Li0  1  0.39872900  0.53212900  0.83630700  1
  Li  Li1  1  0.10081800  0.96758000  0.66463300  1
  Li  Li2  1  0.90107100  0.03262000  0.33461200  1
  Li  Li3  1  0.60258200  0.46465600  0.16396400  1
  Mn  Mn0  1  0.72075500  0.86565600  0.88313500  1
  Mn  Mn1  1  0.77728800  0.63593200  0.61801300  1
  Mn  Mn2  1  0.22290300  0.36221500  0.38248200  1
  Fe  Fe0  1  0.27878200  0.14119600  0.11795800  1
  B  B0  1  0.06107600  0.20403700  0.86999800  1
  B  B1  1  0.43835200  0.29635900  0.63148800  1
  B  B2  1  0.56150500  0.70413000  0.36774600  1
  B  B3  1  0.93751100  0.79666900  0.13065800  1
  O  O0  1  0.80353800  0.46437300  0.83729700  1
  O  O1  1  0.28742300  0.22032200  0.91546500  1
  O  O2  1  0.10113200  0.93400800  0.85220700  1
  O  O3  1  0.69643700  0.03646000  0.66344700  1
  O  O4  1  0.39807200  0.56663600  0.64856800  1
  O  O5  1  0.21174300  0.27939800  0.58642100  1
  O  O6  1  0.78898800  0.71978400  0.41280600  1
  O  O7  1  0.60045200  0.43371700  0.35089900  1
  O  O8  1  0.30352000  0.96393400  0.33623900  1
  O  O9  1  0.90912200  0.06127900  0.14745200  1
  O  O10  1  0.70249000  0.78645700  0.08904800  1
  O  O11  1  0.19571100  0.53045500  0.15915800  1
loop_
_geom_bond_atom_site_label_1
_geom_bond_atom_site_label_2
_geom_bond_distance
_geom_bond_site_symmetry_2
Li0 O2 1.935043 1_555
Li0 O0 1.948391 1_555
Li0 O1 1.952116 1_555
Li0 O4 2.045285 1_555
Li1 O4 1.931428 1_555
Li1 O3 1.944567 1_465
Li1 O5 1.948920 1_565
Li1 O2 2.043937 1_555
Li2 O8 1.935879 1_645
Li2 O7 1.936906 1_555
Li2 O6 1.957248 1_545
Li2 O9 2.037018 1_555
Li3 O10 1.953696 1_555
Li3 O9 1.953936 1_555
Li3 O11 1.970069 1_555
Li3 O7 2.037096 1_555
Mn0 O0 2.095977 1_555
Mn0 O2 2.118146 1_655
Mn0 O1 2.134499 1_565
Mn0 O10 2.212444 1_556
Mn0 O3 2.392196 1_565
Mn1 O3 2.093535 1_565
Mn1 O4 2.115377 1_555
Mn1 O5 2.140470 1_655
Mn1 O6 2.206329 1_555
Mn1 O0 2.389093 1_555
Mn2 O8 2.086593 1_545
Mn2 O7 2.113068 1_555
Mn2 O6 2.138665 1_455
Mn2 O5 2.192958 1_555
Mn2 O11 2.429819 1_555
Fe0 O11 2.012920 1_555
Fe0 O10 2.098986 1_545
Fe0 O9 2.100782 1_455
Fe0 O1 2.179007 1_554
Fe0 O8 2.381680 1_545
B0 O2 1.381510 1_545
B0 O0 1.396205 1_455
B0 O1 1.405336 1_555
B1 O4 1.379583 1_555
B1 O3 1.394947 1_555
B1 O5 1.406197 1_555
B2 O7 1.381976 1_555
B2 O8 1.393416 1_555
B2 O6 1.406609 1_555
B3 O9 1.373320 1_565
B3 O11 1.403257 1_655
B3 O10 1.408109 1_555
