# generated using pymatgen
data_Mg14CrBO16
_symmetry_space_group_name_H-M   'P 1'
_cell_length_a   8.52232342
_cell_length_b   8.55497308
_cell_length_c   4.24792759
_cell_angle_alpha   90.00000000
_cell_angle_beta   90.00000000
_cell_angle_gamma   90.00000000
_symmetry_Int_Tables_number   1
_chemical_formula_structural   Mg14CrBO16
_chemical_formula_sum   'Mg14 Cr1 B1 O16'
_cell_volume   309.70895583
_cell_formula_units_Z   1
loop_
 _symmetry_equiv_pos_site_id
 _symmetry_equiv_pos_as_xyz
  1  'x, y, z'
loop_
 _atom_site_type_symbol
 _atom_site_label
 _atom_site_symmetry_multiplicity
 _atom_site_fract_x
 _atom_site_fract_y
 _atom_site_fract_z
 _atom_site_occupancy
  Mg  Mg0  1  0.50000000  0.00000000  -0.00000000  1
  Mg  Mg1  1  0.50000000  0.50000000  -0.00000000  1
  Mg  Mg2  1  -0.00000000  0.25603387  0.50000000  1
  Mg  Mg3  1  -0.00000000  0.74396613  0.50000000  1
  Mg  Mg4  1  0.50000000  0.25124028  0.50000000  1
  Mg  Mg5  1  0.50000000  0.74875972  0.50000000  1
  Mg  Mg6  1  0.25031103  0.00000000  0.50000000  1
  Mg  Mg7  1  0.24742144  0.50000000  0.50000000  1
  Mg  Mg8  1  0.74968897  0.00000000  0.50000000  1
  Mg  Mg9  1  0.75257856  0.50000000  0.50000000  1
  Mg  Mg10  1  0.24815817  0.25508162  -0.00000000  1
  Mg  Mg11  1  0.24815817  0.74491838  -0.00000000  1
  Mg  Mg12  1  0.75184183  0.25508162  0.00000000  1
  Mg  Mg13  1  0.75184183  0.74491838  -0.00000000  1
  Cr  Cr0  1  -0.00000000  0.00000000  -0.00000000  1
  B  B0  1  -0.00000000  0.50000000  -0.00000000  1
  O  O0  1  0.24623804  0.00000000  -0.00000000  1
  O  O1  1  0.25782932  0.50000000  -0.00000000  1
  O  O2  1  0.75376196  0.00000000  0.00000000  1
  O  O3  1  0.74217068  0.50000000  -0.00000000  1
  O  O4  1  0.24873910  0.24993638  0.50000000  1
  O  O5  1  0.24873910  0.75006362  0.50000000  1
  O  O6  1  0.75126090  0.24993638  0.50000000  1
  O  O7  1  0.75126090  0.75006362  0.50000000  1
  O  O8  1  -0.00000000  0.00000000  0.50000000  1
  O  O9  1  -0.00000000  0.50000000  0.50000000  1
  O  O10  1  0.50000000  0.00000000  0.50000000  1
  O  O11  1  0.50000000  0.50000000  0.50000000  1
  O  O12  1  -0.00000000  0.24501046  -0.00000000  1
  O  O13  1  -0.00000000  0.75498954  -0.00000000  1
  O  O14  1  0.50000000  0.24705962  -0.00000000  1
  O  O15  1  0.50000000  0.75294038  0.00000000  1
loop_
_geom_bond_atom_site_label_1
_geom_bond_atom_site_label_2
_geom_bond_distance
_geom_bond_site_symmetry_2
Mg0 O14 2.113588 1_555
Mg0 O15 2.113588 1_545
Mg0 O10 2.123964 1_555
Mg0 O10 2.123964 1_554
Mg0 O0 2.162641 1_555
Mg0 O2 2.162641 1_555
Mg1 O1 2.063857 1_555
Mg1 O3 2.063857 1_555
Mg1 O11 2.123964 1_554
Mg1 O11 2.123964 1_555
Mg1 O15 2.163898 1_555
Mg1 O14 2.163898 1_555
Mg2 O9 2.087124 1_555
Mg2 O4 2.120477 1_555
Mg2 O6 2.120477 1_455
Mg2 O12 2.126056 1_555
Mg2 O12 2.126056 1_556
Mg2 O8 2.190363 1_555
Mg3 O9 2.087124 1_555
Mg3 O7 2.120477 1_455
Mg3 O5 2.120477 1_555
Mg3 O13 2.126056 1_555
Mg3 O13 2.126056 1_556
Mg3 O8 2.190363 1_565
Mg4 O14 2.124265 1_555
Mg4 O14 2.124265 1_556
Mg4 O11 2.128133 1_555
Mg4 O4 2.141356 1_555
Mg4 O6 2.141356 1_555
Mg4 O10 2.149354 1_555
Mg5 O15 2.124265 1_556
Mg5 O15 2.124265 1_555
Mg5 O11 2.128133 1_555
Mg5 O5 2.141356 1_555
Mg5 O7 2.141356 1_555
Mg5 O10 2.149354 1_565
Mg6 O0 2.124247 1_555
Mg6 O0 2.124247 1_556
Mg6 O10 2.127930 1_555
Mg6 O8 2.133232 1_555
Mg6 O5 2.138241 1_545
Mg6 O4 2.138241 1_555
Mg7 O9 2.108606 1_555
Mg7 O1 2.125815 1_556
Mg7 O1 2.125815 1_555
Mg7 O4 2.139317 1_555
Mg7 O5 2.139317 1_555
Mg7 O11 2.152556 1_555
Mg8 O2 2.124247 1_555
Mg8 O2 2.124247 1_556
Mg8 O10 2.127930 1_555
Mg8 O8 2.133232 1_655
Mg8 O7 2.138241 1_545
Mg8 O6 2.138241 1_555
Mg9 O9 2.108606 1_655
Mg9 O3 2.125815 1_556
Mg9 O3 2.125815 1_555
Mg9 O6 2.139317 1_555
Mg9 O7 2.139317 1_555
Mg9 O11 2.152556 1_555
Mg10 O1 2.096891 1_555
Mg10 O12 2.116638 1_555
Mg10 O4 2.124426 1_554
Mg10 O4 2.124426 1_555
Mg10 O14 2.147374 1_555
Mg10 O0 2.182278 1_555
Mg11 O1 2.096891 1_555
Mg11 O13 2.116638 1_555
Mg11 O5 2.124426 1_554
Mg11 O5 2.124426 1_555
Mg11 O15 2.147374 1_555
Mg11 O0 2.182278 1_565
Mg12 O3 2.096891 1_555
Mg12 O12 2.116638 1_655
Mg12 O6 2.124426 1_554
Mg12 O6 2.124426 1_555
Mg12 O14 2.147374 1_555
Mg12 O2 2.182278 1_555
Mg13 O3 2.096891 1_555
Mg13 O13 2.116638 1_655
Mg13 O7 2.124426 1_555
Mg13 O7 2.124426 1_554
Mg13 O15 2.147374 1_555
Mg13 O2 2.182278 1_565
Cr0 O13 2.096058 1_545
Cr0 O12 2.096058 1_555
Cr0 O2 2.098520 1_455
Cr0 O0 2.098520 1_555
Cr0 O8 2.123964 1_555
Cr0 O8 2.123964 1_554
B0 O9 2.123964 1_555
B0 O9 2.123964 1_554
B0 O12 2.181429 1_555
B0 O13 2.181429 1_555
B0 O1 2.197305 1_555
B0 O3 2.197305 1_455
