# generated using pymatgen
data_Er4CrS7
_symmetry_space_group_name_H-M   'P 1'
_cell_length_a   6.45906249
_cell_length_b   6.45906249
_cell_length_c   11.26805908
_cell_angle_alpha   75.19847981
_cell_angle_beta   75.19847981
_cell_angle_gamma   33.91617158
_symmetry_Int_Tables_number   1
_chemical_formula_structural   Er4CrS7
_chemical_formula_sum   'Er4 Cr1 S7'
_cell_volume   252.77605861
_cell_formula_units_Z   1
loop_
 _symmetry_equiv_pos_site_id
 _symmetry_equiv_pos_as_xyz
  1  'x, y, z'
loop_
 _atom_site_type_symbol
 _atom_site_label
 _atom_site_symmetry_multiplicity
 _atom_site_fract_x
 _atom_site_fract_y
 _atom_site_fract_z
 _atom_site_occupancy
  Er  Er0  1  0.69379000  0.69379000  0.20588900  1
  Er  Er1  1  0.30658700  0.30658700  0.80262300  1
  Er  Er2  1  0.99875300  0.99875300  0.00667300  1
  Er  Er3  1  0.11333200  0.11333200  0.56396500  1
  Cr  Cr0  1  0.88518500  0.88518500  0.42467700  1
  S  S0  1  0.74777000  0.74777000  0.63413000  1
  S  S1  1  0.27093500  0.27093500  0.35266000  1
  S  S2  1  0.33672700  0.33672700  0.05176200  1
  S  S3  1  0.65952200  0.65952200  0.94776700  1
  S  S4  1  0.03078500  0.03078500  0.23001700  1
  S  S5  1  0.96383000  0.96383000  0.78476600  1
  S  S6  1  0.49278400  0.49278400  0.49506900  1
loop_
_geom_bond_atom_site_label_1
_geom_bond_atom_site_label_2
_geom_bond_distance
_geom_bond_site_symmetry_2
Er0 S4 2.717982 1_565
Er0 S4 2.717982 1_655
Er0 S1 2.834623 1_565
Er0 S1 2.834623 1_655
Er0 S2 2.836598 1_565
Er0 S2 2.836598 1_655
Er0 S3 3.049053 1_554
Er1 S5 2.675058 1_455
Er1 S5 2.675058 1_545
Er1 S3 2.817564 1_455
Er1 S3 2.817564 1_545
Er1 S0 2.901565 1_455
Er1 S0 2.901565 1_545
Er1 S2 2.928853 1_556
Er2 S5 2.648564 1_554
Er2 S4 2.649960 1_665
Er2 S3 2.689185 1_564
Er2 S3 2.689185 1_654
Er2 S2 2.696706 1_565
Er2 S2 2.696706 1_655
Er3 S1 2.642864 1_555
Er3 S6 2.643539 1_545
Er3 S6 2.643539 1_455
Er3 S5 2.673498 1_445
Er3 S0 2.763209 1_455
Er3 S0 2.763209 1_545
Cr0 S4 2.437208 1_665
Cr0 S0 2.512497 1_555
Cr0 S6 2.551335 1_565
Cr0 S6 2.551335 1_655
Cr0 S1 2.610097 1_565
Cr0 S1 2.610097 1_655
