# generated using pymatgen
data_Ba2MnTe3
_symmetry_space_group_name_H-M   'P 1'
_cell_length_a   4.79100980
_cell_length_b   9.84252997
_cell_length_c   19.16222817
_cell_angle_alpha   90.00000000
_cell_angle_beta   90.00000000
_cell_angle_gamma   90.00000000
_symmetry_Int_Tables_number   1
_chemical_formula_structural   Ba2MnTe3
_chemical_formula_sum   'Ba8 Mn4 Te12'
_cell_volume   903.60746935
_cell_formula_units_Z   4
loop_
 _symmetry_equiv_pos_site_id
 _symmetry_equiv_pos_as_xyz
  1  'x, y, z'
loop_
 _atom_site_type_symbol
 _atom_site_label
 _atom_site_symmetry_multiplicity
 _atom_site_fract_x
 _atom_site_fract_y
 _atom_site_fract_z
 _atom_site_occupancy
  Ba  Ba0  1  0.75000000  0.41767148  0.78733872  1
  Ba  Ba1  1  0.25000000  0.58232852  0.21266128  1
  Ba  Ba2  1  0.75000000  0.91767148  0.71266128  1
  Ba  Ba3  1  0.25000000  0.08232852  0.28733872  1
  Ba  Ba4  1  0.25000000  0.24965236  0.54140846  1
  Ba  Ba5  1  0.75000000  0.75034764  0.45859154  1
  Ba  Ba6  1  0.25000000  0.74965236  0.95859154  1
  Ba  Ba7  1  0.75000000  0.25034764  0.04140846  1
  Mn  Mn0  1  0.25000000  0.13241106  0.86429518  1
  Mn  Mn1  1  0.75000000  0.86758894  0.13570482  1
  Mn  Mn2  1  0.75000000  0.36758894  0.36429518  1
  Mn  Mn3  1  0.25000000  0.63241106  0.63570482  1
  Te  Te0  1  0.25000000  0.99921037  0.10129211  1
  Te  Te1  1  0.25000000  0.68317642  0.77559451  1
  Te  Te2  1  0.75000000  0.81682358  0.27559451  1
  Te  Te3  1  0.75000000  0.31682358  0.22440549  1
  Te  Te4  1  0.75000000  0.12126576  0.42837464  1
  Te  Te5  1  0.25000000  0.87873424  0.57162536  1
  Te  Te6  1  0.75000000  0.62126576  0.07162536  1
  Te  Te7  1  0.25000000  0.37873424  0.92837464  1
  Te  Te8  1  0.75000000  0.50078963  0.60129211  1
  Te  Te9  1  0.25000000  0.49921037  0.39870789  1
  Te  Te10  1  0.25000000  0.18317642  0.72440549  1
  Te  Te11  1  0.75000000  0.00078963  0.89870789  1
loop_
_geom_bond_atom_site_label_1
_geom_bond_atom_site_label_2
_geom_bond_distance
_geom_bond_site_symmetry_2
Ba0 Te10 3.538321 1_555
Ba0 Te10 3.538321 1_655
Ba0 Te1 3.552198 1_555
Ba0 Te1 3.552198 1_655
Ba0 Te7 3.631688 1_555
Ba0 Te7 3.631688 1_655
Ba0 Te8 3.657729 1_555
Ba1 Te2 3.538321 1_555
Ba1 Te2 3.538321 1_455
Ba1 Te3 3.552198 1_455
Ba1 Te3 3.552198 1_555
Ba1 Te6 3.631688 1_455
Ba1 Te6 3.631688 1_555
Ba1 Te9 3.657729 1_555
Ba2 Te1 3.538321 1_555
Ba2 Te1 3.538321 1_655
Ba2 Te10 3.552198 1_565
Ba2 Te10 3.552198 1_665
Ba2 Te5 3.631688 1_655
Ba2 Te5 3.631688 1_555
Ba2 Te11 3.657729 1_565
Ba3 Te3 3.538321 1_455
Ba3 Te3 3.538321 1_555
Ba3 Te2 3.552198 1_545
Ba3 Te2 3.552198 1_445
Ba3 Te4 3.631688 1_555
Ba3 Te4 3.631688 1_455
Ba3 Te0 3.657729 1_545
Ba4 Te4 3.467956 1_455
Ba4 Te4 3.467956 1_555
Ba4 Te10 3.567150 1_555
Ba4 Te8 3.628379 1_555
Ba4 Te8 3.628379 1_455
Ba4 Te9 3.675677 1_555
Ba4 Te5 3.696405 1_545
Ba5 Te5 3.467956 1_655
Ba5 Te5 3.467956 1_555
Ba5 Te2 3.567150 1_555
Ba5 Te9 3.628379 1_555
Ba5 Te9 3.628379 1_655
Ba5 Te8 3.675677 1_555
Ba5 Te4 3.696405 1_565
Ba6 Te6 3.467956 1_456
Ba6 Te6 3.467956 1_556
Ba6 Te1 3.567150 1_555
Ba6 Te11 3.628379 1_565
Ba6 Te11 3.628379 1_465
Ba6 Te0 3.675677 1_556
Ba6 Te7 3.696405 1_555
Ba7 Te7 3.467956 1_654
Ba7 Te7 3.467956 1_554
Ba7 Te3 3.567150 1_555
Ba7 Te0 3.628379 1_645
Ba7 Te0 3.628379 1_545
Ba7 Te11 3.675677 1_554
Ba7 Te6 3.696405 1_555
Mn0 Te7 2.717660 1_555
Mn0 Te10 2.726768 1_555
Mn0 Te11 2.802066 1_555
Mn0 Te11 2.802066 1_455
Mn1 Te6 2.717660 1_555
Mn1 Te2 2.726768 1_555
Mn1 Te0 2.802066 1_655
Mn1 Te0 2.802066 1_555
Mn2 Te4 2.717660 1_555
Mn2 Te3 2.726768 1_555
Mn2 Te9 2.802066 1_555
Mn2 Te9 2.802066 1_655
Mn3 Te5 2.717660 1_555
Mn3 Te1 2.726768 1_555
Mn3 Te8 2.802066 1_455
Mn3 Te8 2.802066 1_555
