# generated using pymatgen
data_Ga3Ni12Sn
_symmetry_space_group_name_H-M   'P 1'
_cell_length_a   3.62415100
_cell_length_b   3.62415100
_cell_length_c   14.37564400
_cell_angle_alpha   90.00000000
_cell_angle_beta   90.00000000
_cell_angle_gamma   90.00000000
_symmetry_Int_Tables_number   1
_chemical_formula_structural   Ga3Ni12Sn
_chemical_formula_sum   'Ga3 Ni12 Sn1'
_cell_volume   188.81647162
_cell_formula_units_Z   1
loop_
 _symmetry_equiv_pos_site_id
 _symmetry_equiv_pos_as_xyz
  1  'x, y, z'
loop_
 _atom_site_type_symbol
 _atom_site_label
 _atom_site_symmetry_multiplicity
 _atom_site_fract_x
 _atom_site_fract_y
 _atom_site_fract_z
 _atom_site_occupancy
  Ga  Ga0  1  0.00000000  0.00000000  0.25434400  1
  Ga  Ga1  1  0.00000000  0.00000000  0.50000000  1
  Ga  Ga2  1  0.00000000  0.00000000  0.74565600  1
  Ni  Ni0  1  0.50000000  0.50000000  0.00000000  1
  Ni  Ni1  1  0.50000000  0.50000000  0.25383900  1
  Ni  Ni2  1  0.50000000  0.50000000  0.50000000  1
  Ni  Ni3  1  0.50000000  0.50000000  0.74616100  1
  Ni  Ni4  1  0.50000000  0.00000000  0.13272900  1
  Ni  Ni5  1  0.50000000  0.00000000  0.37649200  1
  Ni  Ni6  1  0.50000000  0.00000000  0.62350800  1
  Ni  Ni7  1  0.50000000  0.00000000  0.86727100  1
  Ni  Ni8  1  0.00000000  0.50000000  0.13272900  1
  Ni  Ni9  1  0.00000000  0.50000000  0.37649200  1
  Ni  Ni10  1  0.00000000  0.50000000  0.62350800  1
  Ni  Ni11  1  0.00000000  0.50000000  0.86727100  1
  Sn  Sn0  1  0.00000000  0.00000000  0.00000000  1
loop_
_geom_bond_atom_site_label_1
_geom_bond_atom_site_label_2
_geom_bond_distance
_geom_bond_site_symmetry_2
Ga0 Ni4 2.517965 1_455
Ga0 Ni4 2.517965 1_555
Ga0 Ni8 2.517965 1_555
Ga0 Ni8 2.517965 1_545
Ga0 Ni9 2.523291 1_555
Ga0 Ni9 2.523291 1_545
Ga0 Ni5 2.523291 1_455
Ga0 Ni5 2.523291 1_555
Ga0 Ni1 2.562672 1_545
Ga0 Ni1 2.562672 1_445
Ga0 Ni1 2.562672 1_455
Ga0 Ni1 2.562672 1_555
Ga1 Ni6 2.536936 1_555
Ga1 Ni10 2.536936 1_555
Ga1 Ni10 2.536936 1_545
Ga1 Ni6 2.536936 1_455
Ga1 Ni5 2.536936 1_455
Ga1 Ni5 2.536936 1_555
Ga1 Ni9 2.536936 1_555
Ga1 Ni9 2.536936 1_545
Ga1 Ni2 2.562662 1_455
Ga1 Ni2 2.562662 1_445
Ga1 Ni2 2.562662 1_555
Ga1 Ni2 2.562662 1_545
Ga2 Ni7 2.517965 1_555
Ga2 Ni11 2.517965 1_545
Ga2 Ni11 2.517965 1_555
Ga2 Ni7 2.517965 1_455
Ga2 Ni10 2.523291 1_545
Ga2 Ni6 2.523291 1_455
Ga2 Ni6 2.523291 1_555
Ga2 Ni10 2.523291 1_555
Ga2 Ni3 2.562672 1_445
Ga2 Ni3 2.562672 1_455
Ga2 Ni3 2.562672 1_555
Ga2 Ni3 2.562672 1_545
Ni0 Sn0 2.562662 1_655
Ni0 Sn0 2.562662 1_555
Ni0 Sn0 2.562662 1_565
Ni0 Sn0 2.562662 1_665
Ni0 Ni7 2.631412 1_554
Ni0 Ni11 2.631412 1_654
Ni0 Ni11 2.631412 1_554
Ni0 Ni7 2.631412 1_564
Ni0 Ni8 2.631412 1_555
Ni0 Ni8 2.631412 1_655
Ni0 Ni4 2.631412 1_555
Ni0 Ni4 2.631412 1_565
Ni1 Ni4 2.512930 1_555
Ni1 Ni4 2.512930 1_565
Ni1 Ni8 2.512930 1_555
Ni1 Ni8 2.512930 1_655
Ni1 Ni5 2.528349 1_565
Ni1 Ni5 2.528349 1_555
Ni1 Ni9 2.528349 1_555
Ni1 Ni9 2.528349 1_655
Ni2 Ni6 2.536936 1_555
Ni2 Ni6 2.536936 1_565
Ni2 Ni9 2.536936 1_655
Ni2 Ni9 2.536936 1_555
Ni2 Ni5 2.536936 1_565
Ni2 Ni5 2.536936 1_555
Ni3 Ni7 2.512930 1_565
Ni3 Ni7 2.512930 1_555
Ni3 Ni6 2.528349 1_565
Ni3 Ni6 2.528349 1_555
Ni4 Ni8 2.562662 1_555
Ni4 Ni8 2.562662 1_645
Ni4 Ni8 2.562662 1_545
Ni4 Ni8 2.562662 1_655
Ni4 Sn0 2.631412 1_555
Ni4 Sn0 2.631412 1_655
Ni5 Ni9 2.562662 1_645
Ni5 Ni9 2.562662 1_655
Ni5 Ni9 2.562662 1_545
Ni5 Ni9 2.562662 1_555
Ni7 Sn0 2.631412 1_656
Ni7 Sn0 2.631412 1_556
Ni8 Sn0 2.631412 1_555
Ni8 Sn0 2.631412 1_565
Ni10 Ni3 2.528349 1_555
Ni10 Ni3 2.528349 1_455
Ni10 Ni2 2.536936 1_455
Ni10 Ni2 2.536936 1_555
Ni10 Ni6 2.562662 1_465
Ni10 Ni6 2.562662 1_565
Ni10 Ni6 2.562662 1_455
Ni10 Ni6 2.562662 1_555
Ni11 Ni3 2.512930 1_455
Ni11 Ni3 2.512930 1_555
Ni11 Ni7 2.562662 1_565
Ni11 Ni7 2.562662 1_555
Ni11 Ni7 2.562662 1_465
Ni11 Ni7 2.562662 1_455
Ni11 Sn0 2.631412 1_566
Ni11 Sn0 2.631412 1_556
