# generated using pymatgen
data_Tm2Mn12P7
_symmetry_space_group_name_H-M   'P 1'
_cell_length_a   9.25594791
_cell_length_b   9.25594791
_cell_length_c   3.58140800
_cell_angle_alpha   90.00000000
_cell_angle_beta   90.00000000
_cell_angle_gamma   119.99999936
_symmetry_Int_Tables_number   1
_chemical_formula_structural   Tm2Mn12P7
_chemical_formula_sum   'Tm2 Mn12 P7'
_cell_volume   265.72121991
_cell_formula_units_Z   1
loop_
 _symmetry_equiv_pos_site_id
 _symmetry_equiv_pos_as_xyz
  1  'x, y, z'
loop_
 _atom_site_type_symbol
 _atom_site_label
 _atom_site_symmetry_multiplicity
 _atom_site_fract_x
 _atom_site_fract_y
 _atom_site_fract_z
 _atom_site_occupancy
  Tm  Tm0  1  0.00000000  0.00000000  0.00000000  1
  Tm  Tm1  1  0.66666700  0.33333300  0.50000000  1
  Mn  Mn0  1  0.71024100  0.61775100  0.00000000  1
  Mn  Mn1  1  0.38224900  0.09249000  0.00000000  1
  Mn  Mn2  1  0.90751000  0.28975900  0.00000000  1
  Mn  Mn3  1  0.21371900  0.39005100  0.00000000  1
  Mn  Mn4  1  0.60994900  0.82366800  0.00000000  1
  Mn  Mn5  1  0.17633200  0.78628100  0.00000000  1
  Mn  Mn6  1  0.28889400  0.23000500  0.50000000  1
  Mn  Mn7  1  0.76999500  0.05888800  0.50000000  1
  Mn  Mn8  1  0.94111200  0.71110600  0.50000000  1
  Mn  Mn9  1  0.45848500  0.56376800  0.50000000  1
  Mn  Mn10  1  0.43623200  0.89471800  0.50000000  1
  Mn  Mn11  1  0.10528200  0.54151500  0.50000000  1
  P  P0  1  0.45496100  0.37621800  0.00000000  1
  P  P1  1  0.62378200  0.07874300  0.00000000  1
  P  P2  1  0.92125700  0.54503900  0.00000000  1
  P  P3  1  0.05214600  0.25733600  0.50000000  1
  P  P4  1  0.74266400  0.79481100  0.50000000  1
  P  P5  1  0.20518900  0.94785400  0.50000000  1
  P  P6  1  0.33333300  0.66666700  0.00000000  1
loop_
_geom_bond_atom_site_label_1
_geom_bond_atom_site_label_2
_geom_bond_distance
_geom_bond_site_symmetry_2
Mn0 P0 2.301877 1_555
Mn0 P4 2.343226 1_554
Mn0 P4 2.343226 1_555
Mn0 P2 2.362683 1_555
Mn1 P1 2.301877 1_555
Mn1 P5 2.343224 1_544
Mn1 P5 2.343224 1_545
Mn1 P0 2.362683 1_555
Mn2 P2 2.301877 1_555
Mn2 P3 2.343220 1_654
Mn2 P3 2.343220 1_655
Mn2 P1 2.362683 1_555
Mn3 P6 2.224063 1_555
Mn3 P3 2.261649 1_555
Mn3 P3 2.261649 1_554
Mn3 P0 2.299617 1_555
Mn4 P6 2.224063 1_555
Mn4 P4 2.261646 1_554
Mn4 P4 2.261646 1_555
Mn4 P1 2.299617 1_565
Mn5 P6 2.224055 1_555
Mn5 P5 2.261651 1_554
Mn5 P5 2.261651 1_555
Mn5 P2 2.299617 1_455
Mn6 P0 2.306647 1_556
Mn6 P0 2.306647 1_555
Mn6 P5 2.323192 1_545
Mn6 P3 2.328145 1_555
Mn7 P1 2.306650 1_555
Mn7 P1 2.306650 1_556
Mn7 P3 2.323197 1_655
Mn7 P4 2.328127 1_545
Mn8 P2 2.306645 1_556
Mn8 P2 2.306645 1_555
Mn8 P4 2.323210 1_555
Mn8 P5 2.328135 1_655
Mn9 P4 2.422177 1_555
Mn9 P0 2.482860 1_556
Mn9 P0 2.482860 1_555
Mn9 P6 2.561040 1_555
Mn9 P6 2.561040 1_556
Mn10 P5 2.422177 1_555
Mn10 P1 2.482857 1_566
Mn10 P1 2.482857 1_565
Mn10 P6 2.561040 1_555
Mn10 P6 2.561040 1_556
Mn11 P3 2.422177 1_555
Mn11 P2 2.482854 1_456
Mn11 P2 2.482854 1_455
Mn11 P6 2.561040 1_555
Mn11 P6 2.561040 1_556
P0 Tm1 2.825208 1_555
P0 Tm1 2.825208 1_554
P1 Tm1 2.825201 1_555
P1 Tm1 2.825201 1_554
P2 Tm1 2.825204 1_555
P2 Tm1 2.825204 1_554
P3 Tm0 2.821938 1_555
P3 Tm0 2.821938 1_556
P4 Tm0 2.821935 1_666
P4 Tm0 2.821935 1_665
P5 Tm0 2.821931 1_565
P5 Tm0 2.821931 1_566
