# generated using pymatgen
data_K2RbHoV2O8
_symmetry_space_group_name_H-M   'P 1'
_cell_length_a   6.01606378
_cell_length_b   6.01606378
_cell_length_c   7.81323200
_cell_angle_alpha   90.00000000
_cell_angle_beta   90.00000000
_cell_angle_gamma   119.99999757
_symmetry_Int_Tables_number   1
_chemical_formula_structural   K2RbHoV2O8
_chemical_formula_sum   'K2 Rb1 Ho1 V2 O8'
_cell_volume   244.89855690
_cell_formula_units_Z   1
loop_
 _symmetry_equiv_pos_site_id
 _symmetry_equiv_pos_as_xyz
  1  'x, y, z'
loop_
 _atom_site_type_symbol
 _atom_site_label
 _atom_site_symmetry_multiplicity
 _atom_site_fract_x
 _atom_site_fract_y
 _atom_site_fract_z
 _atom_site_occupancy
  K  K0  1  0.33333300  0.66666700  0.70258900  1
  K  K1  1  0.66666700  0.33333300  0.29741100  1
  Rb  Rb0  1  0.00000000  0.00000000  0.00000000  1
  Ho  Ho0  1  0.00000000  0.00000000  0.50000000  1
  V  V0  1  0.33333300  0.66666700  0.25191700  1
  V  V1  1  0.66666700  0.33333300  0.74808300  1
  O  O0  1  0.33333300  0.66666700  0.03597000  1
  O  O1  1  0.66666700  0.33333300  0.96403000  1
  O  O2  1  0.17391100  0.82608900  0.33005400  1
  O  O3  1  0.82608900  0.17391100  0.66994600  1
  O  O4  1  0.17391100  0.34782300  0.33005400  1
  O  O5  1  0.82608900  0.65217700  0.66994600  1
  O  O6  1  0.65217700  0.82608900  0.33005400  1
  O  O7  1  0.34782300  0.17391100  0.66994600  1
loop_
_geom_bond_atom_site_label_1
_geom_bond_atom_site_label_2
_geom_bond_distance
_geom_bond_site_symmetry_2
K0 O0 2.604783 1_556
K0 O7 3.019763 1_565
K0 O5 3.019763 1_455
K0 O3 3.019769 1_565
K0 O3 3.019769 1_455
K0 O5 3.019775 1_555
K0 O7 3.019775 1_555
K1 O1 2.604783 1_554
K1 O4 3.019763 1_655
K1 O6 3.019763 1_545
K1 O2 3.019769 1_655
K1 O2 3.019769 1_545
K1 O6 3.019775 1_555
K1 O4 3.019775 1_555
Ho0 O3 2.246576 1_455
Ho0 O2 2.246576 1_545
Ho0 O7 2.246580 1_555
Ho0 O5 2.246580 1_445
Ho0 O4 2.246580 1_555
Ho0 O6 2.246580 1_445
O0 V0 1.687244 1_555
O0 Rb0 3.484724 1_565
O0 Rb0 3.484729 1_555
O0 Rb0 3.484729 1_665
O1 V1 1.687244 1_555
O1 Rb0 3.484724 1_656
O1 Rb0 3.484729 1_666
O1 Rb0 3.484729 1_556
O2 V0 1.769828 1_555
O2 Rb0 3.151845 1_565
O3 V1 1.769828 1_555
O3 Rb0 3.151845 1_656
O4 V0 1.769828 1_555
O4 Rb0 3.151848 1_555
O5 V1 1.769828 1_555
O5 Rb0 3.151848 1_666
O6 V0 1.769828 1_555
O6 Rb0 3.151848 1_665
O7 V1 1.769828 1_555
O7 Rb0 3.151848 1_556
