# generated using pymatgen
data_Tl2S2O15
_symmetry_space_group_name_H-M   'P 1'
_cell_length_a   7.38099800
_cell_length_b   11.54691100
_cell_length_c   14.26227800
_cell_angle_alpha   90.00000000
_cell_angle_beta   90.00000000
_cell_angle_gamma   90.00000000
_symmetry_Int_Tables_number   1
_chemical_formula_structural   Tl2S2O15
_chemical_formula_sum   'Tl8 S8 O60'
_cell_volume   1215.54153574
_cell_formula_units_Z   4
loop_
 _symmetry_equiv_pos_site_id
 _symmetry_equiv_pos_as_xyz
  1  'x, y, z'
loop_
 _atom_site_type_symbol
 _atom_site_label
 _atom_site_symmetry_multiplicity
 _atom_site_fract_x
 _atom_site_fract_y
 _atom_site_fract_z
 _atom_site_occupancy
  Tl  Tl0  1  0.99335100  0.29278100  0.57725700  1
  Tl  Tl1  1  0.50664900  0.20721900  0.07725700  1
  Tl  Tl2  1  0.49335100  0.70721900  0.42274300  1
  Tl  Tl3  1  0.00664900  0.79278100  0.92274300  1
  Tl  Tl4  1  0.00664900  0.70721900  0.42274300  1
  Tl  Tl5  1  0.49335100  0.79278100  0.92274300  1
  Tl  Tl6  1  0.50664900  0.29278100  0.57725700  1
  Tl  Tl7  1  0.99335100  0.20721900  0.07725700  1
  S  S0  1  0.25000000  0.12993300  0.73720800  1
  S  S1  1  0.25000000  0.37006700  0.23720800  1
  S  S2  1  0.75000000  0.87006700  0.26279200  1
  S  S3  1  0.75000000  0.62993300  0.76279200  1
  S  S4  1  0.75000000  0.11182100  0.87291300  1
  S  S5  1  0.75000000  0.38817900  0.37291300  1
  S  S6  1  0.25000000  0.88817900  0.12708700  1
  S  S7  1  0.25000000  0.61182100  0.62708700  1
  O  O0  1  0.08499000  0.12789100  0.67722500  1
  O  O1  1  0.41501000  0.37210900  0.17722500  1
  O  O2  1  0.58499000  0.87210900  0.32277500  1
  O  O3  1  0.91501000  0.62789100  0.82277500  1
  O  O4  1  0.91501000  0.87210900  0.32277500  1
  O  O5  1  0.58499000  0.62789100  0.82277500  1
  O  O6  1  0.41501000  0.12789100  0.67722500  1
  O  O7  1  0.08499000  0.37210900  0.17722500  1
  O  O8  1  0.25000000  0.02247000  0.79987000  1
  O  O9  1  0.25000000  0.47753000  0.29987000  1
  O  O10  1  0.75000000  0.97753000  0.20013000  1
  O  O11  1  0.75000000  0.52247000  0.70013000  1
  O  O12  1  0.25000000  0.23273800  0.79873700  1
  O  O13  1  0.25000000  0.26726200  0.29873700  1
  O  O14  1  0.75000000  0.76726200  0.20126300  1
  O  O15  1  0.75000000  0.73273800  0.70126300  1
  O  O16  1  0.58314500  0.10522300  0.93043600  1
  O  O17  1  0.91685500  0.39477700  0.43043600  1
  O  O18  1  0.08314500  0.89477700  0.06956400  1
  O  O19  1  0.41685500  0.60522300  0.56956400  1
  O  O20  1  0.41685500  0.89477700  0.06956400  1
  O  O21  1  0.08314500  0.60522300  0.56956400  1
  O  O22  1  0.91685500  0.10522300  0.93043600  1
  O  O23  1  0.58314500  0.39477700  0.43043600  1
  O  O24  1  0.75000000  0.21257500  0.80982900  1
  O  O25  1  0.75000000  0.28742500  0.30982900  1
  O  O26  1  0.25000000  0.78742500  0.19017100  1
  O  O27  1  0.25000000  0.71257500  0.69017100  1
  O  O28  1  0.75000000  0.00607100  0.80740700  1
  O  O29  1  0.75000000  0.49392900  0.30740700  1
  O  O30  1  0.25000000  0.99392900  0.19259300  1
  O  O31  1  0.25000000  0.50607100  0.69259300  1
  O  O32  1  0.25000000  0.36597800  0.56060600  1
  O  O33  1  0.25000000  0.13402200  0.06060600  1
  O  O34  1  0.75000000  0.63402200  0.43939400  1
  O  O35  1  0.75000000  0.86597800  0.93939400  1
  O  O36  1  0.75000000  0.20647100  0.56802700  1
  O  O37  1  0.75000000  0.29352900  0.06802700  1
  O  O38  1  0.25000000  0.79352900  0.43197300  1
  O  O39  1  0.25000000  0.70647100  0.93197300  1
  O  O40  1  0.96872900  0.39855000  0.72038100  1
  O  O41  1  0.53127100  0.10145000  0.22038100  1
  O  O42  1  0.46872900  0.60145000  0.27961900  1
  O  O43  1  0.03127100  0.89855000  0.77961900  1
  O  O44  1  0.03127100  0.60145000  0.27961900  1
  O  O45  1  0.46872900  0.89855000  0.77961900  1
  O  O46  1  0.53127100  0.39855000  0.72038100  1
  O  O47  1  0.96872900  0.10145000  0.22038100  1
  O  O48  1  0.10047700  0.40242200  0.94872900  1
  O  O49  1  0.39952300  0.09757800  0.44872900  1
  O  O50  1  0.60047700  0.59757800  0.05127100  1
  O  O51  1  0.89952300  0.90242200  0.55127100  1
  O  O52  1  0.89952300  0.59757800  0.05127100  1
  O  O53  1  0.60047700  0.90242200  0.55127100  1
  O  O54  1  0.39952300  0.40242200  0.94872900  1
  O  O55  1  0.10047700  0.09757800  0.44872900  1
  O  O56  1  0.25000000  0.44584900  0.91920600  1
  O  O57  1  0.25000000  0.05415100  0.41920600  1
  O  O58  1  0.75000000  0.55415100  0.08079400  1
  O  O59  1  0.75000000  0.94584900  0.58079400  1
loop_
_geom_bond_atom_site_label_1
_geom_bond_atom_site_label_2
_geom_bond_distance
_geom_bond_site_symmetry_2
O0 S0 1.488557 1_555
O0 Tl0 2.472939 1_455
O1 S1 1.488557 1_555
O1 Tl1 2.472939 1_555
O2 S2 1.488557 1_555
O2 Tl2 2.472939 1_555
O3 S3 1.488557 1_555
O3 Tl3 2.472939 1_655
O4 S2 1.488557 1_555
O4 Tl4 2.472939 1_655
O5 S3 1.488557 1_555
O5 Tl5 2.472939 1_555
O6 S0 1.488557 1_555
O6 Tl6 2.472939 1_555
O7 S1 1.488557 1_555
O7 Tl7 2.472939 1_455
O8 S0 1.529200 1_555
O9 S1 1.529200 1_555
O10 S2 1.529200 1_555
O11 S3 1.529200 1_555
O12 S0 1.476226 1_555
O13 S1 1.476226 1_555
O14 S2 1.476226 1_555
O15 S3 1.476226 1_555
O16 S4 1.481758 1_555
O16 Tl1 2.467935 1_556
O17 S5 1.481758 1_555
O17 Tl0 2.467935 1_555
O18 S6 1.481758 1_555
O18 Tl3 2.467935 1_554
O19 S7 1.481758 1_555
O19 Tl2 2.467935 1_555
O20 S6 1.481758 1_555
O20 Tl5 2.467935 1_554
O21 S7 1.481758 1_555
O21 Tl4 2.467935 1_555
O22 S4 1.481758 1_555
O22 Tl7 2.467935 1_556
O23 S5 1.481758 1_555
O23 Tl6 2.467935 1_555
O24 S4 1.470712 1_555
O25 S5 1.470712 1_555
O26 S6 1.470712 1_555
O27 S7 1.470712 1_555
O28 S4 1.537498 1_555
O29 S5 1.537498 1_555
O30 S6 1.537498 1_555
O31 S7 1.537498 1_555
O32 Tl0 2.087877 1_455
O32 Tl6 2.087877 1_555
O33 Tl1 2.087877 1_555
O33 Tl7 2.087877 1_455
O34 Tl4 2.087877 1_655
O34 Tl2 2.087877 1_555
O35 Tl3 2.087877 1_655
O35 Tl5 2.087877 1_555
O36 Tl6 2.058351 1_555
O36 Tl0 2.058351 1_555
O37 Tl7 2.058351 1_555
O37 Tl1 2.058351 1_555
O38 Tl2 2.058351 1_555
O38 Tl4 2.058351 1_555
O39 Tl3 2.058351 1_555
O39 Tl5 2.058351 1_555
O40 Tl0 2.385669 1_555
O41 Tl1 2.385669 1_555
O42 Tl2 2.385669 1_555
O43 Tl3 2.385669 1_555
O44 Tl4 2.385669 1_555
O45 Tl5 2.385669 1_555
O46 Tl6 2.385669 1_555
O47 Tl7 2.385669 1_555
O48 O56 1.283255 1_555
O49 O57 1.283255 1_555
O50 O58 1.283255 1_555
O51 O59 1.283255 1_555
O52 O58 1.283255 1_555
O53 O59 1.283255 1_555
O54 O56 1.283255 1_555
O55 O57 1.283255 1_555
