# generated using pymatgen
data_ErCu4Ag
_symmetry_space_group_name_H-M   'P 1'
_cell_length_a   4.97673335
_cell_length_b   4.97673335
_cell_length_c   4.97673335
_cell_angle_alpha   60.00000000
_cell_angle_beta   60.00000000
_cell_angle_gamma   60.00000000
_symmetry_Int_Tables_number   1
_chemical_formula_structural   ErCu4Ag
_chemical_formula_sum   'Er1 Cu4 Ag1'
_cell_volume   87.16018004
_cell_formula_units_Z   1
loop_
 _symmetry_equiv_pos_site_id
 _symmetry_equiv_pos_as_xyz
  1  'x, y, z'
loop_
 _atom_site_type_symbol
 _atom_site_label
 _atom_site_symmetry_multiplicity
 _atom_site_fract_x
 _atom_site_fract_y
 _atom_site_fract_z
 _atom_site_occupancy
  Er  Er0  1  0.00000000  0.00000000  -0.00000000  1
  Cu  Cu0  1  0.62425204  0.62425204  0.12724389  1
  Cu  Cu1  1  0.62425104  0.12724389  0.62425204  1
  Cu  Cu2  1  0.12724389  0.62425104  0.62425204  1
  Cu  Cu3  1  0.62425204  0.62425204  0.62425104  1
  Ag  Ag0  1  0.25000000  0.25000000  0.25000000  1
loop_
_geom_bond_atom_site_label_1
_geom_bond_atom_site_label_2
_geom_bond_distance
_geom_bond_site_symmetry_2
Cu0 Cu3 2.473472 1_555
Cu0 Cu2 2.473477 1_555
Cu0 Cu1 2.473477 1_555
Cu0 Cu2 2.503256 1_654
Cu0 Cu1 2.503256 1_564
Cu0 Cu3 2.503261 1_554
Cu0 Er0 2.919470 1_665
Cu0 Er0 2.919470 1_565
Cu0 Er0 2.919470 1_655
Cu1 Cu2 2.473472 1_555
Cu1 Cu3 2.473477 1_555
Cu1 Cu3 2.503256 1_545
Cu1 Cu2 2.503261 1_645
Cu1 Er0 2.919465 1_556
Cu1 Er0 2.919470 1_655
Cu1 Er0 2.919474 1_656
Cu2 Cu3 2.473477 1_555
Cu2 Cu3 2.503256 1_455
Cu2 Er0 2.919465 1_556
Cu2 Er0 2.919470 1_565
Cu2 Er0 2.919474 1_566
Cu3 Er0 2.919468 1_665
Cu3 Er0 2.919472 1_566
Cu3 Er0 2.919472 1_656
Ag0 Cu2 2.916291 1_555
Ag0 Cu1 2.916291 1_555
Ag0 Cu3 2.916293 1_455
Ag0 Cu3 2.916293 1_545
Ag0 Cu0 2.916295 1_455
Ag0 Cu0 2.916295 1_545
Ag0 Cu1 2.916295 1_554
Ag0 Cu2 2.916295 1_554
Ag0 Cu0 2.916295 1_555
Ag0 Cu3 2.916297 1_554
Ag0 Cu2 2.916299 1_545
Ag0 Cu1 2.916299 1_455
Ag0 Er0 3.047614 1_556
Ag0 Er0 3.047614 1_555
Ag0 Er0 3.047614 1_565
Ag0 Er0 3.047614 1_655
