# generated using pymatgen
data_LuNiP
_symmetry_space_group_name_H-M   'P 1'
_cell_length_a   3.83211429
_cell_length_b   3.83211429
_cell_length_c   14.91017335
_cell_angle_alpha   90.00000000
_cell_angle_beta   90.00000000
_cell_angle_gamma   119.99998533
_symmetry_Int_Tables_number   1
_chemical_formula_structural   LuNiP
_chemical_formula_sum   'Lu4 Ni4 P4'
_cell_volume   189.62268635
_cell_formula_units_Z   4
loop_
 _symmetry_equiv_pos_site_id
 _symmetry_equiv_pos_as_xyz
  1  'x, y, z'
loop_
 _atom_site_type_symbol
 _atom_site_label
 _atom_site_symmetry_multiplicity
 _atom_site_fract_x
 _atom_site_fract_y
 _atom_site_fract_z
 _atom_site_occupancy
  Lu  Lu0  1  0.00000000  -0.00000000  0.50003233  1
  Lu  Lu1  1  0.00000000  -0.00000000  -0.00003001  1
  Lu  Lu2  1  0.00000000  -0.00000000  0.24999357  1
  Lu  Lu3  1  0.00000000  -0.00000000  0.75001054  1
  Ni  Ni0  1  0.33333300  0.66666700  0.36891488  1
  Ni  Ni1  1  0.66666700  0.33333300  0.63114450  1
  Ni  Ni2  1  0.66666700  0.33333300  0.86890698  1
  Ni  Ni3  1  0.33333300  0.66666700  0.13101480  1
  P  P0  1  0.33333300  0.66666700  0.87840397  1
  P  P1  1  0.66666700  0.33333300  0.12158587  1
  P  P2  1  0.66666700  0.33333300  0.37845648  1
  P  P3  1  0.33333300  0.66666700  0.62156509  1
loop_
_geom_bond_atom_site_label_1
_geom_bond_atom_site_label_2
_geom_bond_distance
_geom_bond_site_symmetry_2
Lu0 P3 2.859832 1_545
Lu0 P3 2.859835 1_445
Lu0 P3 2.859835 1_555
Lu0 P2 2.860239 1_455
Lu0 P2 2.860242 1_555
Lu0 P2 2.860242 1_445
Lu0 Ni1 2.952402 1_455
Lu0 Ni1 2.952405 1_445
Lu0 Ni1 2.952405 1_555
Lu0 Ni0 2.952454 1_545
Lu0 Ni0 2.952457 1_555
Lu0 Ni0 2.952457 1_445
Lu1 P0 2.860146 1_544
Lu1 P0 2.860149 1_554
Lu1 P0 2.860149 1_444
Lu1 P1 2.860617 1_455
Lu1 P1 2.860620 1_445
Lu1 P1 2.860620 1_555
Lu1 Ni3 2.951737 1_545
Lu1 Ni3 2.951740 1_555
Lu1 Ni3 2.951740 1_445
Lu1 Ni2 2.951917 1_454
Lu1 Ni2 2.951919 1_554
Lu1 Ni2 2.951919 1_444
Lu2 Ni0 2.835320 1_545
Lu2 Ni0 2.835323 1_555
Lu2 Ni0 2.835323 1_445
Lu2 Ni3 2.835856 1_545
Lu2 Ni3 2.835859 1_555
Lu2 Ni3 2.835859 1_445
Lu2 P1 2.925858 1_455
Lu2 P1 2.925861 1_555
Lu2 P1 2.925861 1_445
Lu2 P2 2.926396 1_455
Lu2 P2 2.926399 1_555
Lu2 P2 2.926399 1_445
Lu3 Ni1 2.834805 1_455
Lu3 Ni1 2.834808 1_445
Lu3 Ni1 2.834808 1_555
Lu3 Ni2 2.835088 1_455
Lu3 Ni2 2.835091 1_445
Lu3 Ni2 2.835091 1_555
Lu3 P0 2.925719 1_545
Lu3 P0 2.925721 1_445
Lu3 P0 2.925721 1_555
Lu3 P3 2.926226 1_545
Lu3 P3 2.926229 1_445
Lu3 P3 2.926229 1_555
Ni0 P2 2.217040 1_455
Ni0 P2 2.217040 1_565
Ni0 P2 2.217046 1_555
Ni1 P3 2.217076 1_545
Ni1 P3 2.217076 1_655
Ni1 P3 2.217082 1_555
Ni2 P0 2.216997 1_545
Ni2 P0 2.216997 1_655
Ni2 P0 2.217003 1_555
Ni3 P1 2.216932 1_455
Ni3 P1 2.216932 1_565
Ni3 P1 2.216939 1_555
