# generated using pymatgen
data_C
_symmetry_space_group_name_H-M   'P 1'
_cell_length_a   9.18666900
_cell_length_b   10.20196700
_cell_length_c   14.64883900
_cell_angle_alpha   90.00000000
_cell_angle_beta   90.00000000
_cell_angle_gamma   90.00000000
_symmetry_Int_Tables_number   1
_chemical_formula_structural   C
_chemical_formula_sum   C120
_cell_volume   1372.91986543
_cell_formula_units_Z   120
loop_
 _symmetry_equiv_pos_site_id
 _symmetry_equiv_pos_as_xyz
  1  'x, y, z'
loop_
 _atom_site_type_symbol
 _atom_site_label
 _atom_site_symmetry_multiplicity
 _atom_site_fract_x
 _atom_site_fract_y
 _atom_site_fract_z
 _atom_site_occupancy
  C  C0  1  0.42112900  0.16218500  0.46748700  1
  C  C1  1  0.42112900  0.83781500  0.53251300  1
  C  C2  1  0.58774000  0.93990100  0.96451200  1
  C  C3  1  0.58774000  0.06009900  0.03548800  1
  C  C4  1  0.91226000  0.43990100  0.53548800  1
  C  C5  1  0.91226000  0.56009900  0.46451200  1
  C  C6  1  0.41226000  0.06009900  0.03548800  1
  C  C7  1  0.41226000  0.93990100  0.96451200  1
  C  C8  1  0.08774000  0.56009900  0.46451200  1
  C  C9  1  0.08774000  0.43990100  0.53548800  1
  C  C10  1  0.66771000  0.96622900  0.87478800  1
  C  C11  1  0.66771000  0.03377100  0.12521200  1
  C  C12  1  0.83229000  0.46622900  0.62521200  1
  C  C13  1  0.83229000  0.53377100  0.37478800  1
  C  C14  1  0.33229000  0.03377100  0.12521200  1
  C  C15  1  0.33229000  0.96622900  0.87478800  1
  C  C16  1  0.16771000  0.53377100  0.37478800  1
  C  C17  1  0.16771000  0.46622900  0.62521200  1
  C  C18  1  0.66746900  0.81675100  0.99705900  1
  C  C19  1  0.66746900  0.18324900  0.00294100  1
  C  C20  1  0.83253100  0.31675100  0.50294100  1
  C  C21  1  0.83253100  0.68324900  0.49705900  1
  C  C22  1  0.33253100  0.18324900  0.00294100  1
  C  C23  1  0.33253100  0.81675100  0.99705900  1
  C  C24  1  0.16746900  0.68324900  0.49705900  1
  C  C25  1  0.16746900  0.31675100  0.50294100  1
  C  C26  1  0.92376300  0.21831800  0.82109400  1
  C  C27  1  0.92376300  0.78168200  0.17890600  1
  C  C28  1  0.57623700  0.71831800  0.67890600  1
  C  C29  1  0.57623700  0.28168200  0.32109400  1
  C  C30  1  0.07623700  0.78168200  0.17890600  1
  C  C31  1  0.07623700  0.21831800  0.82109400  1
  C  C32  1  0.42376300  0.28168200  0.32109400  1
  C  C33  1  0.42376300  0.71831800  0.67890600  1
  C  C34  1  0.00000000  0.78338300  0.80936700  1
  C  C35  1  0.00000000  0.21661700  0.19063300  1
  C  C36  1  0.50000000  0.28338300  0.69063300  1
  C  C37  1  0.50000000  0.71661700  0.30936700  1
  C  C38  1  0.00000000  0.69422900  0.88188600  1
  C  C39  1  0.00000000  0.30577100  0.11811400  1
  C  C40  1  0.50000000  0.19422900  0.61811400  1
  C  C41  1  0.50000000  0.80577100  0.38188600  1
  C  C42  1  0.87285400  0.86349500  0.79160200  1
  C  C43  1  0.87285400  0.13650500  0.20839800  1
  C  C44  1  0.62714600  0.36349500  0.70839800  1
  C  C45  1  0.62714600  0.63650500  0.29160200  1
  C  C46  1  0.12714600  0.13650500  0.20839800  1
  C  C47  1  0.12714600  0.86349500  0.79160200  1
  C  C48  1  0.37285400  0.63650500  0.29160200  1
  C  C49  1  0.37285400  0.36349500  0.70839800  1
  C  C50  1  0.87261000  0.68190700  0.93971500  1
  C  C51  1  0.87261000  0.31809300  0.06028500  1
  C  C52  1  0.62739000  0.18190700  0.56028500  1
  C  C53  1  0.62739000  0.81809300  0.43971500  1
  C  C54  1  0.12739000  0.31809300  0.06028500  1
  C  C55  1  0.12739000  0.68190700  0.93971500  1
  C  C56  1  0.37261000  0.81809300  0.43971500  1
  C  C57  1  0.37261000  0.18190700  0.56028500  1
  C  C58  1  0.84484000  0.10244300  0.79203800  1
  C  C59  1  0.84484000  0.89755700  0.20796200  1
  C  C60  1  0.65516000  0.60244300  0.70796200  1
  C  C61  1  0.65516000  0.39755700  0.29203800  1
  C  C62  1  0.15516000  0.89755700  0.20796200  1
  C  C63  1  0.15516000  0.10244300  0.79203800  1
  C  C64  1  0.34484000  0.39755700  0.29203800  1
  C  C65  1  0.34484000  0.60244300  0.70796200  1
  C  C66  1  0.84481300  0.72173600  0.10406300  1
  C  C67  1  0.84481300  0.27826400  0.89593700  1
  C  C68  1  0.65518700  0.22173600  0.39593700  1
  C  C69  1  0.65518700  0.77826400  0.60406300  1
  C  C70  1  0.15518700  0.27826400  0.89593700  1
  C  C71  1  0.15518700  0.72173600  0.10406300  1
  C  C72  1  0.34481300  0.77826400  0.60406300  1
  C  C73  1  0.34481300  0.22173600  0.39593700  1
  C  C74  1  0.71682900  0.08930900  0.84886800  1
  C  C75  1  0.71682900  0.91069100  0.15113200  1
  C  C76  1  0.78317100  0.58930900  0.65113200  1
  C  C77  1  0.78317100  0.41069100  0.34886800  1
  C  C78  1  0.28317100  0.91069100  0.15113200  1
  C  C79  1  0.28317100  0.08930900  0.84886800  1
  C  C80  1  0.21682900  0.41069100  0.34886800  1
  C  C81  1  0.21682900  0.58930900  0.65113200  1
  C  C82  1  0.71670300  0.80004800  0.08585000  1
  C  C83  1  0.71670300  0.19995200  0.91415000  1
  C  C84  1  0.78329700  0.30004800  0.41415000  1
  C  C85  1  0.78329700  0.69995200  0.58585000  1
  C  C86  1  0.28329700  0.19995200  0.91415000  1
  C  C87  1  0.28329700  0.80004800  0.08585000  1
  C  C88  1  0.21670300  0.69995200  0.58585000  1
  C  C89  1  0.21670300  0.30004800  0.41415000  1
  C  C90  1  0.75016700  0.85300100  0.84811900  1
  C  C91  1  0.75016700  0.14699900  0.15188100  1
  C  C92  1  0.74983300  0.35300100  0.65188100  1
  C  C93  1  0.74983300  0.64699900  0.34811900  1
  C  C94  1  0.24983300  0.14699900  0.15188100  1
  C  C95  1  0.24983300  0.85300100  0.84811900  1
  C  C96  1  0.25016700  0.64699900  0.34811900  1
  C  C97  1  0.25016700  0.35300100  0.65188100  1
  C  C98  1  0.74988800  0.76042200  0.92347400  1
  C  C99  1  0.74988800  0.23957800  0.07652600  1
  C  C100  1  0.75011200  0.26042200  0.57652600  1
  C  C101  1  0.75011200  0.73957800  0.42347400  1
  C  C102  1  0.25011200  0.23957800  0.07652600  1
  C  C103  1  0.25011200  0.76042200  0.92347400  1
  C  C104  1  0.24988800  0.73957800  0.42347400  1
  C  C105  1  0.24988800  0.26042200  0.57652600  1
  C  C106  1  0.92108000  0.99148300  0.76253400  1
  C  C107  1  0.92108000  0.00851700  0.23746600  1
  C  C108  1  0.57892000  0.49148300  0.73746600  1
  C  C109  1  0.57892000  0.50851700  0.26253400  1
  C  C110  1  0.07892000  0.00851700  0.23746600  1
  C  C111  1  0.07892000  0.99148300  0.76253400  1
  C  C112  1  0.42108000  0.50851700  0.26253400  1
  C  C113  1  0.42108000  0.49148300  0.73746600  1
  C  C114  1  0.92112900  0.66218500  0.03251300  1
  C  C115  1  0.92112900  0.33781500  0.96748700  1
  C  C116  1  0.57887100  0.16218500  0.46748700  1
  C  C117  1  0.57887100  0.83781500  0.53251300  1
  C  C118  1  0.07887100  0.33781500  0.96748700  1
  C  C119  1  0.07887100  0.66218500  0.03251300  1
loop_
_geom_bond_atom_site_label_1
_geom_bond_atom_site_label_2
_geom_bond_distance
_geom_bond_site_symmetry_2
C0 C73 1.399712 1_555
C0 C57 1.444672 1_555
C0 C116 1.449124 1_555
C1 C72 1.399712 1_555
C1 C56 1.444672 1_555
C1 C117 1.449124 1_555
C2 C3 1.607704 1_566
C2 C7 1.612077 1_555
C3 C6 1.612077 1_555
C4 C5 1.607704 1_555
C4 C9 1.612077 1_655
C5 C8 1.612077 1_655
C6 C7 1.607704 1_544
C8 C9 1.607704 1_555
C10 C74 1.387251 1_565
C10 C90 1.435550 1_555
C10 C2 1.529506 1_555
C11 C75 1.387251 1_545
C11 C91 1.435550 1_555
C11 C3 1.529506 1_555
C12 C76 1.387251 1_555
C12 C92 1.435550 1_555
C12 C4 1.529506 1_555
C13 C77 1.387251 1_555
C13 C93 1.435550 1_555
C13 C5 1.529506 1_555
C14 C78 1.387251 1_545
C14 C94 1.435550 1_555
C14 C6 1.529506 1_555
C15 C79 1.387251 1_565
C15 C95 1.435550 1_555
C15 C7 1.529506 1_555
C16 C80 1.387251 1_555
C16 C96 1.435550 1_555
C16 C8 1.529506 1_555
C17 C81 1.387251 1_555
C17 C97 1.435550 1_555
C17 C9 1.529506 1_555
C18 C82 1.387585 1_556
C18 C98 1.437174 1_555
C18 C2 1.530445 1_555
C19 C83 1.387585 1_554
C19 C99 1.437174 1_555
C19 C3 1.530445 1_555
C20 C84 1.387585 1_555
C20 C4 1.530445 1_555
C21 C85 1.387585 1_555
C21 C5 1.530445 1_555
C22 C86 1.387585 1_554
C22 C6 1.530445 1_555
C23 C87 1.387585 1_556
C23 C7 1.530445 1_555
C24 C88 1.387585 1_555
C24 C8 1.530445 1_555
C25 C89 1.387585 1_555
C25 C9 1.530445 1_555
C26 C31 1.400728 1_655
C26 C67 1.449851 1_555
C26 C58 1.450632 1_555
C27 C30 1.400728 1_655
C27 C66 1.449851 1_555
C27 C59 1.450632 1_555
C28 C33 1.400728 1_555
C28 C69 1.449851 1_555
C28 C60 1.450632 1_555
C29 C32 1.400728 1_555
C29 C68 1.449851 1_555
C29 C61 1.450632 1_555
C30 C71 1.449851 1_555
C30 C62 1.450632 1_555
C31 C70 1.449851 1_555
C31 C63 1.450632 1_555
C32 C73 1.449851 1_555
C32 C64 1.450632 1_555
C33 C72 1.449851 1_555
C33 C65 1.450632 1_555
C34 C38 1.398498 1_555
C34 C47 1.449151 1_555
C34 C42 1.449151 1_455
C35 C39 1.398498 1_555
C35 C46 1.449151 1_555
C35 C43 1.449151 1_455
C36 C40 1.398498 1_555
C36 C44 1.449151 1_555
C36 C49 1.449151 1_555
C37 C41 1.398498 1_555
C37 C45 1.449151 1_555
C37 C48 1.449151 1_555
C38 C50 1.450175 1_455
C38 C55 1.450175 1_555
C39 C51 1.450175 1_455
C39 C54 1.450175 1_555
C40 C57 1.450175 1_555
C40 C52 1.450175 1_555
C41 C56 1.450175 1_555
C41 C53 1.450175 1_555
C42 C90 1.402574 1_555
C43 C91 1.402574 1_555
C44 C92 1.402574 1_555
C45 C93 1.402574 1_555
C46 C94 1.402574 1_555
C47 C95 1.402574 1_555
C48 C96 1.402574 1_555
C49 C97 1.402574 1_555
C50 C98 1.403303 1_555
C51 C99 1.403303 1_555
C58 C74 1.447053 1_555
C59 C75 1.447053 1_555
C60 C76 1.447053 1_555
C61 C77 1.447053 1_555
C62 C78 1.447053 1_555
C63 C79 1.447053 1_555
C64 C80 1.447053 1_555
C65 C81 1.447053 1_555
C66 C82 1.447268 1_555
C67 C83 1.447268 1_555
C68 C84 1.447268 1_555
C69 C85 1.447268 1_555
C70 C86 1.447268 1_555
C71 C87 1.447268 1_555
C72 C88 1.447268 1_555
C73 C89 1.447268 1_555
C74 C83 1.479411 1_555
C75 C82 1.479411 1_555
C76 C85 1.479411 1_555
C77 C84 1.479411 1_555
C78 C87 1.479411 1_555
C79 C86 1.479411 1_555
C80 C89 1.479411 1_555
C81 C88 1.479411 1_555
C90 C98 1.452783 1_555
C91 C99 1.452783 1_555
C100 C52 1.403303 1_555
C100 C20 1.437174 1_555
C100 C92 1.452783 1_555
C101 C53 1.403303 1_555
C101 C21 1.437174 1_555
C101 C93 1.452783 1_555
C102 C54 1.403303 1_555
C102 C22 1.437174 1_555
C102 C94 1.452783 1_555
C103 C55 1.403303 1_555
C103 C23 1.437174 1_555
C103 C95 1.452783 1_555
C104 C56 1.403303 1_555
C104 C24 1.437174 1_555
C104 C96 1.452783 1_555
C105 C57 1.403303 1_555
C105 C25 1.437174 1_555
C105 C97 1.452783 1_555
C106 C58 1.399568 1_565
C106 C42 1.443096 1_555
C106 C111 1.450024 1_655
C107 C59 1.399568 1_545
C107 C43 1.443096 1_555
C107 C110 1.450024 1_655
C108 C60 1.399568 1_555
C108 C44 1.443096 1_555
C108 C113 1.450024 1_555
C109 C61 1.399568 1_555
C109 C45 1.443096 1_555
C109 C112 1.450024 1_555
C110 C62 1.399568 1_545
C110 C46 1.443096 1_555
C111 C63 1.399568 1_565
C111 C47 1.443096 1_555
C112 C64 1.399568 1_555
C112 C48 1.443096 1_555
C113 C65 1.399568 1_555
C113 C49 1.443096 1_555
C114 C66 1.399712 1_555
C114 C50 1.444672 1_554
C114 C119 1.449124 1_655
C115 C67 1.399712 1_555
C115 C51 1.444672 1_556
C115 C118 1.449124 1_655
C116 C68 1.399712 1_555
C116 C52 1.444672 1_555
C117 C69 1.399712 1_555
C117 C53 1.444672 1_555
C118 C70 1.399712 1_555
C118 C54 1.444672 1_556
C119 C71 1.399712 1_555
C119 C55 1.444672 1_554
