# generated using pymatgen
data_Mg14MnFeO16
_symmetry_space_group_name_H-M   'P 1'
_cell_length_a   4.30314100
_cell_length_b   8.53866200
_cell_length_c   8.58370400
_cell_angle_alpha   90.00000000
_cell_angle_beta   90.00000000
_cell_angle_gamma   90.00000000
_symmetry_Int_Tables_number   1
_chemical_formula_structural   Mg14MnFeO16
_chemical_formula_sum   'Mg14 Mn1 Fe1 O16'
_cell_volume   315.39160721
_cell_formula_units_Z   1
loop_
 _symmetry_equiv_pos_site_id
 _symmetry_equiv_pos_as_xyz
  1  'x, y, z'
loop_
 _atom_site_type_symbol
 _atom_site_label
 _atom_site_symmetry_multiplicity
 _atom_site_fract_x
 _atom_site_fract_y
 _atom_site_fract_z
 _atom_site_occupancy
  Mg  Mg0  1  0.00000000  0.00000000  0.50000000  1
  Mg  Mg1  1  0.00000000  0.50000000  0.50000000  1
  Mg  Mg2  1  0.50000000  0.74797800  0.00000000  1
  Mg  Mg3  1  0.50000000  0.25202200  0.00000000  1
  Mg  Mg4  1  0.50000000  0.74931500  0.50000000  1
  Mg  Mg5  1  0.50000000  0.25068500  0.50000000  1
  Mg  Mg6  1  0.50000000  0.00000000  0.74769700  1
  Mg  Mg7  1  0.50000000  0.50000000  0.75036300  1
  Mg  Mg8  1  0.50000000  0.00000000  0.25230300  1
  Mg  Mg9  1  0.50000000  0.50000000  0.24963700  1
  Mg  Mg10  1  0.00000000  0.74874600  0.74766100  1
  Mg  Mg11  1  0.00000000  0.25125400  0.74766100  1
  Mg  Mg12  1  0.00000000  0.74874600  0.25233900  1
  Mg  Mg13  1  0.00000000  0.25125400  0.25233900  1
  Mn  Mn0  1  0.00000000  0.00000000  0.00000000  1
  Fe  Fe0  1  0.00000000  0.50000000  0.00000000  1
  O  O0  1  0.00000000  0.00000000  0.74303200  1
  O  O1  1  0.00000000  0.50000000  0.74205900  1
  O  O2  1  0.00000000  0.00000000  0.25696800  1
  O  O3  1  0.00000000  0.50000000  0.25794100  1
  O  O4  1  0.50000000  0.75062000  0.75107200  1
  O  O5  1  0.50000000  0.24938000  0.75107200  1
  O  O6  1  0.50000000  0.75062000  0.24892800  1
  O  O7  1  0.50000000  0.24938000  0.24892800  1
  O  O8  1  0.50000000  0.00000000  0.00000000  1
  O  O9  1  0.50000000  0.50000000  0.00000000  1
  O  O10  1  0.50000000  0.00000000  0.50000000  1
  O  O11  1  0.50000000  0.50000000  0.50000000  1
  O  O12  1  0.00000000  0.74411000  0.00000000  1
  O  O13  1  0.00000000  0.25589000  0.00000000  1
  O  O14  1  0.00000000  0.75015700  0.50000000  1
  O  O15  1  0.00000000  0.24984300  0.50000000  1
loop_
_geom_bond_atom_site_label_1
_geom_bond_atom_site_label_2
_geom_bond_distance
_geom_bond_site_symmetry_2
Mg0 O0 2.086115 1_555
Mg0 O2 2.086115 1_555
Mg0 O14 2.133325 1_545
Mg0 O15 2.133325 1_555
Mg0 O10 2.151571 1_455
Mg0 O10 2.151571 1_555
Mg1 O1 2.077763 1_555
Mg1 O3 2.077763 1_555
Mg1 O15 2.136006 1_555
Mg1 O14 2.136006 1_555
Mg1 O11 2.151571 1_455
Mg1 O11 2.151571 1_555
Mg2 O9 2.117400 1_555
Mg2 O6 2.136843 1_555
Mg2 O4 2.136843 1_554
Mg2 O12 2.151824 1_655
Mg2 O12 2.151824 1_555
Mg2 O8 2.151931 1_565
Mg3 O9 2.117400 1_555
Mg3 O7 2.136843 1_555
Mg3 O5 2.136843 1_554
Mg3 O13 2.151824 1_655
Mg3 O13 2.151824 1_555
Mg3 O8 2.151931 1_555
Mg4 O11 2.128817 1_555
Mg4 O10 2.140514 1_565
Mg4 O14 2.151583 1_555
Mg4 O14 2.151583 1_655
Mg4 O4 2.155157 1_555
Mg4 O6 2.155157 1_555
Mg5 O11 2.128817 1_555
Mg5 O10 2.140514 1_555
Mg5 O15 2.151583 1_555
Mg5 O15 2.151583 1_655
Mg5 O5 2.155157 1_555
Mg5 O7 2.155157 1_555
Mg6 O10 2.126158 1_555
Mg6 O5 2.129569 1_555
Mg6 O4 2.129569 1_545
Mg6 O0 2.151943 1_655
Mg6 O0 2.151943 1_555
Mg6 O8 2.165694 1_556
Mg7 O4 2.139968 1_555
Mg7 O5 2.139968 1_555
Mg7 O9 2.142810 1_556
Mg7 O11 2.149042 1_555
Mg7 O1 2.152751 1_555
Mg7 O1 2.152751 1_655
Mg8 O10 2.126158 1_555
Mg8 O7 2.129569 1_555
Mg8 O6 2.129569 1_545
Mg8 O2 2.151943 1_555
Mg8 O2 2.151943 1_655
Mg8 O8 2.165694 1_555
Mg9 O6 2.139968 1_555
Mg9 O7 2.139968 1_555
Mg9 O9 2.142810 1_555
Mg9 O11 2.149042 1_555
Mg9 O3 2.152751 1_655
Mg9 O3 2.152751 1_555
Mg10 O1 2.124502 1_555
Mg10 O14 2.125883 1_555
Mg10 O0 2.145741 1_565
Mg10 O4 2.151829 1_555
Mg10 O4 2.151829 1_455
Mg10 O12 2.166365 1_556
Mg11 O1 2.124502 1_555
Mg11 O15 2.125883 1_555
Mg11 O0 2.145741 1_555
Mg11 O5 2.151829 1_455
Mg11 O5 2.151829 1_555
Mg11 O13 2.166365 1_556
Mg12 O3 2.124502 1_555
Mg12 O14 2.125883 1_555
Mg12 O2 2.145741 1_565
Mg12 O6 2.151829 1_455
Mg12 O6 2.151829 1_555
Mg12 O12 2.166365 1_555
Mg13 O3 2.124502 1_555
Mg13 O15 2.125883 1_555
Mg13 O2 2.145741 1_555
Mg13 O7 2.151829 1_555
Mg13 O7 2.151829 1_455
Mg13 O13 2.166365 1_555
Mn0 O8 2.151571 1_455
Mn0 O8 2.151571 1_555
Mn0 O12 2.184958 1_545
Mn0 O13 2.184958 1_555
Mn0 O2 2.205737 1_555
Mn0 O0 2.205737 1_554
Fe0 O13 2.084373 1_555
Fe0 O12 2.084373 1_555
Fe0 O9 2.151571 1_555
Fe0 O9 2.151571 1_455
Fe0 O1 2.214089 1_554
Fe0 O3 2.214089 1_555
