# generated using pymatgen
data_MgCuCO5
_symmetry_space_group_name_H-M   'P 1'
_cell_length_a   8.70155400
_cell_length_b   3.41074700
_cell_length_c   12.54179063
_cell_angle_alpha   83.31158657
_cell_angle_beta   90.00000000
_cell_angle_gamma   90.00000000
_symmetry_Int_Tables_number   1
_chemical_formula_structural   MgCuCO5
_chemical_formula_sum   'Mg4 Cu4 C4 O20'
_cell_volume   369.69200344
_cell_formula_units_Z   4
loop_
 _symmetry_equiv_pos_site_id
 _symmetry_equiv_pos_as_xyz
  1  'x, y, z'
loop_
 _atom_site_type_symbol
 _atom_site_label
 _atom_site_symmetry_multiplicity
 _atom_site_fract_x
 _atom_site_fract_y
 _atom_site_fract_z
 _atom_site_occupancy
  Mg  Mg0  1  0.72110700  0.60247200  0.10693500  1
  Mg  Mg1  1  0.22110700  0.39752800  0.39306500  1
  Mg  Mg2  1  0.27889300  0.39752800  0.89306500  1
  Mg  Mg3  1  0.77889300  0.60247200  0.60693500  1
  Cu  Cu0  1  0.49423800  0.98743200  0.28344200  1
  Cu  Cu1  1  0.99423800  0.01256800  0.21655800  1
  Cu  Cu2  1  0.50576200  0.01256800  0.71655800  1
  Cu  Cu3  1  0.00576200  0.98743200  0.78344200  1
  C  C0  1  0.77516900  0.62975300  0.36317800  1
  C  C1  1  0.27516900  0.37024700  0.13682200  1
  C  C2  1  0.22483100  0.37024700  0.63682200  1
  C  C3  1  0.72483100  0.62975300  0.86317800  1
  O  O0  1  0.62405600  0.60699900  0.36256300  1
  O  O1  1  0.12405600  0.39300100  0.13743700  1
  O  O2  1  0.37594400  0.39300100  0.63743700  1
  O  O3  1  0.87594400  0.60699900  0.86256300  1
  O  O4  1  0.84472800  0.62333900  0.26925700  1
  O  O5  1  0.34472800  0.37666100  0.23074300  1
  O  O6  1  0.15527200  0.37666100  0.73074300  1
  O  O7  1  0.65527200  0.62333900  0.76925700  1
  O  O8  1  0.84743200  0.63051500  0.44932800  1
  O  O9  1  0.34743200  0.36948500  0.05067200  1
  O  O10  1  0.15256800  0.36948500  0.55067200  1
  O  O11  1  0.65256800  0.63051500  0.94932800  1
  O  O12  1  0.60938800  0.07756100  0.16180000  1
  O  O13  1  0.10938800  0.92243900  0.33820000  1
  O  O14  1  0.39061200  0.92243900  0.83820000  1
  O  O15  1  0.89061200  0.07756100  0.66180000  1
  O  O16  1  0.85758200  0.10710400  0.10355200  1
  O  O17  1  0.35758200  0.89289600  0.39644800  1
  O  O18  1  0.14241800  0.89289600  0.89644800  1
  O  O19  1  0.64241800  0.10710400  0.60355200  1
loop_
_geom_bond_atom_site_label_1
_geom_bond_atom_site_label_2
_geom_bond_distance
_geom_bond_site_symmetry_2
Mg0 O11 2.056219 1_554
Mg0 O16 2.069644 1_555
Mg0 O12 2.074603 1_565
Mg0 O12 2.082515 1_555
Mg0 O16 2.087459 1_565
Mg0 O4 2.310942 1_555
Mg1 O10 2.056219 1_555
Mg1 O17 2.069644 1_555
Mg1 O13 2.074603 1_545
Mg1 O13 2.082515 1_555
Mg1 O17 2.087459 1_545
Mg1 O5 2.310942 1_555
Mg2 O9 2.056219 1_556
Mg2 O18 2.069644 1_555
Mg2 O14 2.074603 1_545
Mg2 O14 2.082515 1_555
Mg2 O18 2.087459 1_545
Mg2 O6 2.310942 1_555
Mg3 O8 2.056219 1_555
Mg3 O19 2.069644 1_555
Mg3 O15 2.074603 1_565
Mg3 O15 2.082515 1_555
Mg3 O19 2.087459 1_565
Mg3 O7 2.310942 1_555
Cu0 O12 1.821183 1_565
Cu0 O17 1.849393 1_555
Cu0 O0 1.909049 1_555
Cu0 O5 1.920258 1_565
Cu0 O5 2.605715 1_555
Cu1 O13 1.821183 1_645
Cu1 O16 1.849393 1_555
Cu1 O1 1.909049 1_655
Cu1 O4 1.920258 1_545
Cu1 O4 2.605715 1_555
Cu2 O14 1.821183 1_545
Cu2 O19 1.849393 1_555
Cu2 O2 1.909049 1_555
Cu2 O7 1.920258 1_545
Cu2 O7 2.605715 1_555
Cu3 O15 1.821183 1_465
Cu3 O18 1.849393 1_555
Cu3 O3 1.909049 1_455
Cu3 O6 1.920258 1_565
Cu3 O6 2.605715 1_555
C0 O8 1.250391 1_555
C0 O0 1.317282 1_555
C0 O4 1.326790 1_555
C1 O9 1.250391 1_555
C1 O1 1.317282 1_555
C1 O5 1.326790 1_555
C2 O10 1.250391 1_555
C2 O2 1.317282 1_555
C2 O6 1.326790 1_555
C3 O11 1.250391 1_555
C3 O3 1.317282 1_555
C3 O7 1.326790 1_555
