# generated using pymatgen
data_CsSr2I5
_symmetry_space_group_name_H-M   'P 1'
_cell_length_a   9.23436025
_cell_length_b   10.33353531
_cell_length_c   14.52608532
_cell_angle_alpha   89.62529384
_cell_angle_beta   90.00000000
_cell_angle_gamma   90.00000000
_symmetry_Int_Tables_number   1
_chemical_formula_structural   CsSr2I5
_chemical_formula_sum   'Cs4 Sr8 I20'
_cell_volume   1386.10153424
_cell_formula_units_Z   4
loop_
 _symmetry_equiv_pos_site_id
 _symmetry_equiv_pos_as_xyz
  1  'x, y, z'
loop_
 _atom_site_type_symbol
 _atom_site_label
 _atom_site_symmetry_multiplicity
 _atom_site_fract_x
 _atom_site_fract_y
 _atom_site_fract_z
 _atom_site_occupancy
  Cs  Cs0  1  0.44425000  0.49300684  0.83264456  1
  Cs  Cs1  1  0.55575000  0.50699316  0.16735544  1
  Cs  Cs2  1  0.94425000  0.50699316  0.66735544  1
  Cs  Cs3  1  0.05575000  0.49300684  0.33264456  1
  Sr  Sr0  1  0.47505666  0.99643159  0.81991620  1
  Sr  Sr1  1  0.52494334  0.00356841  0.18008380  1
  Sr  Sr2  1  0.97505666  0.00356841  0.68008380  1
  Sr  Sr3  1  0.02494334  0.99643159  0.31991620  1
  Sr  Sr4  1  0.42864735  0.75432041  0.50661388  1
  Sr  Sr5  1  0.57135265  0.24567959  0.49338612  1
  Sr  Sr6  1  0.92864735  0.24567959  0.99338612  1
  Sr  Sr7  1  0.07135265  0.75432041  0.00661388  1
  I  I0  1  0.32501546  0.46327608  0.57632842  1
  I  I1  1  0.67498454  0.53672392  0.42367158  1
  I  I2  1  0.82501546  0.53672392  0.92367158  1
  I  I3  1  0.17498454  0.46327608  0.07632842  1
  I  I4  1  0.66211817  0.78588655  0.68310461  1
  I  I5  1  0.33788183  0.21411345  0.31689539  1
  I  I6  1  0.16211817  0.21411345  0.81689539  1
  I  I7  1  0.83788183  0.78588655  0.18310461  1
  I  I8  1  0.18770119  0.77854392  0.78482295  1
  I  I9  1  0.81229881  0.22145608  0.21517705  1
  I  I10  1  0.68770119  0.22145608  0.71517705  1
  I  I11  1  0.31229881  0.77854392  0.28482295  1
  I  I12  1  0.04581182  0.79242142  0.50375913  1
  I  I13  1  0.95418818  0.20757858  0.49624087  1
  I  I14  1  0.54581182  0.20757858  0.99624087  1
  I  I15  1  0.45418818  0.79242142  0.00375913  1
  I  I16  1  0.84001473  0.95824563  0.90078647  1
  I  I17  1  0.15998527  0.04175437  0.09921353  1
  I  I18  1  0.34001473  0.04175437  0.59921353  1
  I  I19  1  0.65998527  0.95824563  0.40078647  1
loop_
_geom_bond_atom_site_label_1
_geom_bond_atom_site_label_2
_geom_bond_distance
_geom_bond_site_symmetry_2
Cs0 I2 3.784629 1_555
Cs0 I8 3.843734 1_555
Cs0 I14 3.890333 1_555
Cs0 I6 3.892846 1_555
Cs0 I0 3.896718 1_555
Cs0 I15 3.982493 1_556
Cs0 I10 3.987774 1_555
Cs0 I4 4.223722 1_555
Cs0 I3 4.335067 1_556
Cs1 I3 3.784629 1_555
Cs1 I9 3.843734 1_555
Cs1 I15 3.890333 1_555
Cs1 I7 3.892846 1_555
Cs1 I1 3.896718 1_555
Cs1 I14 3.982493 1_554
Cs1 I11 3.987774 1_555
Cs1 I5 4.223722 1_555
Cs1 I2 4.335067 1_554
Cs2 I0 3.784629 1_655
Cs2 I10 3.843734 1_555
Cs2 I12 3.890333 1_655
Cs2 I4 3.892846 1_555
Cs2 I2 3.896718 1_555
Cs2 I13 3.982493 1_555
Cs2 I8 3.987774 1_655
Cs2 I6 4.223722 1_655
Cs2 I1 4.335067 1_555
Cs3 I1 3.784629 1_455
Cs3 I11 3.843734 1_555
Cs3 I13 3.890333 1_455
Cs3 I5 3.892846 1_555
Cs3 I3 3.896718 1_555
Cs3 I12 3.982493 1_555
Cs3 I9 3.987774 1_455
Cs3 I7 4.223722 1_455
Cs3 I0 4.335067 1_555
I0 Sr4 3.308571 1_555
I0 Sr5 3.423089 1_555
I1 Sr5 3.308571 1_555
I1 Sr4 3.423089 1_555
I2 Sr6 3.308571 1_555
I2 Sr7 3.423089 1_656
I3 Sr7 3.308571 1_555
I3 Sr6 3.423089 1_454
I4 Sr4 3.367214 1_555
I4 Sr0 3.423961 1_555
I4 Sr2 3.662159 1_565
I5 Sr5 3.367214 1_555
I5 Sr1 3.423961 1_555
I5 Sr3 3.662159 1_545
I6 Sr6 3.367214 1_455
I6 Sr2 3.423961 1_455
I6 Sr0 3.662159 1_545
I7 Sr7 3.367214 1_655
I7 Sr3 3.423961 1_655
I7 Sr1 3.662159 1_565
I8 Sr2 3.395794 1_465
I8 Sr7 3.403844 1_556
I8 Sr0 3.519325 1_555
I9 Sr3 3.395794 1_645
I9 Sr6 3.403844 1_554
I9 Sr1 3.519325 1_555
I10 Sr0 3.395794 1_545
I10 Sr5 3.403844 1_555
I10 Sr2 3.519325 1_555
I11 Sr1 3.395794 1_565
I11 Sr4 3.403844 1_555
I11 Sr3 3.519325 1_555
I12 Sr3 3.396976 1_555
I12 Sr2 3.438162 1_465
I12 Sr4 3.557309 1_555
I13 Sr2 3.396976 1_555
I13 Sr3 3.438162 1_645
I13 Sr5 3.557309 1_555
I14 Sr1 3.396976 1_556
I14 Sr0 3.438162 1_545
I14 Sr6 3.557309 1_555
I15 Sr0 3.396976 1_554
I15 Sr1 3.438162 1_565
I15 Sr7 3.557309 1_555
I16 Sr7 3.365259 1_656
I16 Sr6 3.369511 1_565
I16 Sr2 3.468843 1_565
I16 Sr0 3.589926 1_555
I17 Sr6 3.365259 1_454
I17 Sr7 3.369511 1_545
I17 Sr3 3.468843 1_545
I17 Sr1 3.589926 1_555
I18 Sr5 3.365259 1_555
I18 Sr4 3.369511 1_545
I18 Sr0 3.468843 1_545
I18 Sr2 3.589926 1_455
I19 Sr4 3.365259 1_555
I19 Sr5 3.369511 1_565
I19 Sr1 3.468843 1_565
I19 Sr3 3.589926 1_655
