# generated using pymatgen
data_Co2Pb3N4
_symmetry_space_group_name_H-M   'P 1'
_cell_length_a   7.34759400
_cell_length_b   9.48460600
_cell_length_c   8.71548500
_cell_angle_alpha   90.00000000
_cell_angle_beta   90.00000000
_cell_angle_gamma   90.00000000
_symmetry_Int_Tables_number   1
_chemical_formula_structural   Co2Pb3N4
_chemical_formula_sum   'Co8 Pb12 N16'
_cell_volume   607.37373169
_cell_formula_units_Z   4
loop_
 _symmetry_equiv_pos_site_id
 _symmetry_equiv_pos_as_xyz
  1  'x, y, z'
loop_
 _atom_site_type_symbol
 _atom_site_label
 _atom_site_symmetry_multiplicity
 _atom_site_fract_x
 _atom_site_fract_y
 _atom_site_fract_z
 _atom_site_occupancy
  Co  Co0  1  0.75000000  0.50000000  0.70325600  1
  Co  Co1  1  0.75000000  0.00000000  0.79674400  1
  Co  Co2  1  0.25000000  0.50000000  0.29674400  1
  Co  Co3  1  0.25000000  0.00000000  0.20325600  1
  Co  Co4  1  0.65663600  0.25000000  0.75000000  1
  Co  Co5  1  0.84336400  0.75000000  0.75000000  1
  Co  Co6  1  0.34336500  0.75000000  0.25000000  1
  Co  Co7  1  0.15663600  0.25000000  0.25000000  1
  Pb  Pb0  1  0.49962200  0.19053000  0.44341700  1
  Pb  Pb1  1  0.00037800  0.80947000  0.44341700  1
  Pb  Pb2  1  0.49962200  0.30947000  0.05658300  1
  Pb  Pb3  1  0.00037800  0.69053000  0.05658300  1
  Pb  Pb4  1  0.50037800  0.80947000  0.55658300  1
  Pb  Pb5  1  0.99962200  0.19053000  0.55658300  1
  Pb  Pb6  1  0.50037800  0.69053000  0.94341700  1
  Pb  Pb7  1  0.99962200  0.30947000  0.94341700  1
  Pb  Pb8  1  0.75000000  0.50000000  0.34093200  1
  Pb  Pb9  1  0.75000000  0.00000000  0.15906800  1
  Pb  Pb10  1  0.25000000  0.50000000  0.65906800  1
  Pb  Pb11  1  0.25000000  0.00000000  0.84093200  1
  N  N0  1  0.73621900  0.34254200  0.56225300  1
  N  N1  1  0.76378100  0.65745800  0.56225300  1
  N  N2  1  0.73621900  0.15745800  0.93774700  1
  N  N3  1  0.76378100  0.84254200  0.93774700  1
  N  N4  1  0.26378100  0.65745800  0.43774700  1
  N  N5  1  0.23621900  0.34254200  0.43774700  1
  N  N6  1  0.26378100  0.84254200  0.06225300  1
  N  N7  1  0.23621900  0.15745800  0.06225300  1
  N  N8  1  0.56096800  0.41767500  0.80523400  1
  N  N9  1  0.93903200  0.58232500  0.80523400  1
  N  N10  1  0.56096800  0.08232500  0.69476600  1
  N  N11  1  0.93903200  0.91767500  0.69476600  1
  N  N12  1  0.43903200  0.58232500  0.19476600  1
  N  N13  1  0.06096800  0.41767500  0.19476600  1
  N  N14  1  0.43903200  0.91767500  0.30523400  1
  N  N15  1  0.06096800  0.08232500  0.30523400  1
loop_
_geom_bond_atom_site_label_1
_geom_bond_atom_site_label_2
_geom_bond_distance
_geom_bond_site_symmetry_2
Co0 N8 1.824487 1_555
Co0 N9 1.824487 1_555
Co0 N0 1.936697 1_555
Co0 N1 1.936697 1_555
Co1 N11 1.824487 1_545
Co1 N10 1.824487 1_555
Co1 N2 1.936697 1_555
Co1 N3 1.936697 1_545
Co2 N12 1.824487 1_555
Co2 N13 1.824487 1_555
Co2 N4 1.936697 1_555
Co2 N5 1.936697 1_555
Co3 N14 1.824487 1_545
Co3 N15 1.824487 1_555
Co3 N6 1.936697 1_545
Co3 N7 1.936697 1_555
Co4 N10 1.804162 1_555
Co4 N8 1.804162 1_555
Co4 N0 1.946747 1_555
Co4 N2 1.946747 1_555
Co5 N11 1.804162 1_555
Co5 N9 1.804162 1_555
Co5 N1 1.946747 1_555
Co5 N3 1.946747 1_555
Co6 N14 1.804159 1_555
Co6 N12 1.804159 1_555
Co6 N4 1.946749 1_555
Co6 N6 1.946749 1_555
Co7 N15 1.804162 1_555
Co7 N13 1.804162 1_555
Co7 N7 1.946747 1_555
Co7 N5 1.946747 1_555
N0 Pb5 2.413886 1_555
N0 Pb8 2.441579 1_555
N0 Pb0 2.484656 1_555
N1 Pb4 2.413886 1_555
N1 Pb8 2.441579 1_555
N1 Pb1 2.484656 1_655
N2 Pb7 2.413886 1_555
N2 Pb9 2.441579 1_556
N2 Pb2 2.484656 1_556
N3 Pb6 2.413886 1_555
N3 Pb9 2.441579 1_566
N3 Pb3 2.484656 1_656
N4 Pb1 2.413886 1_555
N4 Pb10 2.441579 1_555
N4 Pb4 2.484656 1_555
N5 Pb0 2.413886 1_555
N5 Pb10 2.441579 1_555
N5 Pb5 2.484656 1_455
N6 Pb3 2.413886 1_555
N6 Pb11 2.441579 1_564
N6 Pb6 2.484656 1_554
N7 Pb2 2.413886 1_555
N7 Pb11 2.441579 1_554
N7 Pb7 2.484656 1_454
N8 Pb2 2.460748 1_556
N8 Pb10 2.730043 1_555
N9 Pb3 2.460748 1_656
N9 Pb10 2.730043 1_655
N10 Pb0 2.460748 1_555
N10 Pb11 2.730043 1_555
N11 Pb1 2.460748 1_655
N11 Pb11 2.730043 1_665
N12 Pb6 2.460748 1_554
N12 Pb8 2.730043 1_555
N13 Pb7 2.460748 1_454
N13 Pb8 2.730043 1_455
N14 Pb4 2.460748 1_555
N14 Pb9 2.730043 1_565
N15 Pb5 2.460748 1_455
N15 Pb9 2.730043 1_455
