# generated using pymatgen
data_MnSiO3
_symmetry_space_group_name_H-M   'P 1'
_cell_length_a   5.97153001
_cell_length_b   8.86198514
_cell_length_c   13.08767707
_cell_angle_alpha   112.81467957
_cell_angle_beta   90.94879758
_cell_angle_gamma   90.32204255
_symmetry_Int_Tables_number   1
_chemical_formula_structural   MnSiO3
_chemical_formula_sum   'Mn10 Si10 O30'
_cell_volume   638.26679833
_cell_formula_units_Z   10
loop_
 _symmetry_equiv_pos_site_id
 _symmetry_equiv_pos_as_xyz
  1  'x, y, z'
loop_
 _atom_site_type_symbol
 _atom_site_label
 _atom_site_symmetry_multiplicity
 _atom_site_fract_x
 _atom_site_fract_y
 _atom_site_fract_z
 _atom_site_occupancy
  Mn  Mn0  1  0.13177600  0.20084300  0.31487500  1
  Mn  Mn1  1  0.82034500  0.37633400  0.14316100  1
  Mn  Mn2  1  0.17965500  0.62366600  0.85683900  1
  Mn  Mn3  1  0.21328400  0.44768400  0.58214000  1
  Mn  Mn4  1  0.34917600  0.24198500  0.72618800  1
  Mn  Mn5  1  0.78671600  0.55231600  0.41786000  1
  Mn  Mn6  1  0.65082400  0.75801500  0.27381200  1
  Mn  Mn7  1  0.00000000  0.00000000  0.00000000  1
  Mn  Mn8  1  0.86822400  0.79915700  0.68512500  1
  Mn  Mn9  1  0.50000000  0.00000000  0.00000000  1
  Si  Si0  1  0.78186700  0.68904500  0.03441600  1
  Si  Si1  1  0.57611800  0.03520100  0.18965700  1
  Si  Si2  1  0.63869100  0.21099700  0.43488400  1
  Si  Si3  1  0.36130900  0.78900300  0.56511600  1
  Si  Si4  1  0.86488000  0.16921100  0.63738000  1
  Si  Si5  1  0.21813300  0.31095500  0.96558400  1
  Si  Si6  1  0.68080700  0.51126300  0.77944400  1
  Si  Si7  1  0.13512000  0.83078900  0.36262000  1
  Si  Si8  1  0.31919300  0.48873700  0.22055600  1
  Si  Si9  1  0.42388200  0.96479900  0.81034300  1
  O  O0  1  0.76183500  0.12399300  0.13839500  1
  O  O1  1  0.66871800  0.91533500  0.84454200  1
  O  O2  1  0.40292500  0.16091900  0.90007300  1
  O  O3  1  0.09189000  0.98338400  0.33084500  1
  O  O4  1  0.09650200  0.25743500  0.62424700  1
  O  O5  1  0.29097300  0.69243800  0.26070600  1
  O  O6  1  0.19180200  0.39852700  0.87877400  1
  O  O7  1  0.10684400  0.40665600  0.25668800  1
  O  O8  1  0.33128200  0.08466500  0.15545800  1
  O  O9  1  0.00364100  0.77087700  0.00509900  1
  O  O10  1  0.39863700  0.29954600  0.44450600  1
  O  O11  1  0.65201200  0.58124900  0.91605300  1
  O  O12  1  0.99635900  0.22912300  0.99490100  1
  O  O13  1  0.61349300  0.03827300  0.31410900  1
  O  O14  1  0.70902700  0.30756200  0.73929400  1
  O  O15  1  0.34798800  0.41875100  0.08394700  1
  O  O16  1  0.84788800  0.32198100  0.42160800  1
  O  O17  1  0.60136300  0.70045400  0.55549400  1
  O  O18  1  0.89315600  0.59334500  0.74331200  1
  O  O19  1  0.59707500  0.83908100  0.09992700  1
  O  O20  1  0.90811000  0.01661600  0.66915500  1
  O  O21  1  0.23816500  0.87600700  0.86160500  1
  O  O22  1  0.15211200  0.67801900  0.57839200  1
  O  O23  1  0.80819800  0.60147300  0.12122600  1
  O  O24  1  0.38650700  0.96172700  0.68589100  1
  O  O25  1  0.30799100  0.86300600  0.47072000  1
  O  O26  1  0.90349800  0.74256500  0.37575300  1
  O  O27  1  0.69200900  0.13699400  0.52928000  1
  O  O28  1  0.57069200  0.47786700  0.26966500  1
  O  O29  1  0.42930800  0.52213300  0.73033500  1
loop_
_geom_bond_atom_site_label_1
_geom_bond_atom_site_label_2
_geom_bond_distance
_geom_bond_site_symmetry_2
Mn0 O3 2.030530 1_545
Mn0 O16 2.216653 1_455
Mn0 O10 2.219654 1_555
Mn0 O7 2.237230 1_555
Mn0 O8 2.294047 1_555
Mn1 O23 2.124509 1_555
Mn1 O12 2.166015 1_554
Mn1 O28 2.171364 1_555
Mn1 O7 2.192672 1_655
Mn1 O0 2.238095 1_555
Mn2 O6 2.124509 1_555
Mn2 O9 2.166015 1_556
Mn2 O29 2.171364 1_555
Mn2 O18 2.192673 1_455
Mn2 O21 2.238095 1_555
Mn3 O4 2.086288 1_555
Mn3 O22 2.094727 1_555
Mn3 O10 2.107543 1_555
Mn3 O29 2.185488 1_555
Mn4 O4 2.037819 1_555
Mn4 O6 2.173487 1_555
Mn4 O14 2.209345 1_555
Mn4 O24 2.343211 1_545
Mn4 O29 2.505363 1_555
Mn4 O2 2.654138 1_555
Mn5 O26 2.086288 1_555
Mn5 O16 2.094727 1_555
Mn5 O17 2.107543 1_555
Mn5 O28 2.185488 1_555
Mn6 O26 2.037819 1_555
Mn6 O23 2.173487 1_555
Mn6 O5 2.209345 1_555
Mn6 O13 2.343211 1_565
Mn6 O28 2.505363 1_555
Mn6 O19 2.654138 1_555
Mn7 O9 2.057505 1_545
Mn7 O12 2.057505 1_454
Mn7 O0 2.251713 1_455
Mn7 O21 2.251713 1_544
Mn7 O1 2.698550 1_444
Mn7 O8 2.698550 1_555
Mn8 O20 2.030530 1_565
Mn8 O22 2.216653 1_655
Mn8 O17 2.219654 1_555
Mn8 O18 2.237222 1_555
Mn8 O1 2.294047 1_555
Mn9 O8 2.147112 1_555
Mn9 O1 2.147112 1_544
Mn9 O0 2.297010 1_555
Mn9 O21 2.297010 1_544
Mn9 O2 2.347462 1_554
Mn9 O19 2.347462 1_545
O0 Si1 1.650279 1_555
O1 Si9 1.633323 1_555
O2 Si9 1.685211 1_545
O2 Si5 1.698364 1_555
O3 Si7 1.582646 1_555
O4 Si4 1.629054 1_455
O5 Si8 1.683441 1_555
O5 Si7 1.712948 1_555
O6 Si5 1.611534 1_555
O7 Si8 1.623860 1_555
O8 Si1 1.633323 1_555
O9 Si0 1.627511 1_455
O10 Si2 1.621273 1_555
O11 Si0 1.648589 1_556
O11 Si6 1.661999 1_555
O12 Si5 1.627511 1_655
O13 Si1 1.630033 1_555
O13 Si2 1.725493 1_555
O14 Si6 1.683441 1_555
O14 Si4 1.712948 1_555
O15 Si5 1.648589 1_554
O15 Si8 1.661999 1_555
O16 Si2 1.638294 1_555
O17 Si3 1.621273 1_555
O18 Si6 1.623865 1_555
O19 Si1 1.685211 1_565
O19 Si0 1.698364 1_555
O20 Si4 1.582646 1_555
O21 Si9 1.650279 1_555
O22 Si3 1.638294 1_555
O23 Si0 1.611534 1_555
O24 Si9 1.630033 1_555
O24 Si3 1.725493 1_555
O25 Si3 1.635658 1_555
O25 Si7 1.668483 1_555
O26 Si7 1.629054 1_655
O27 Si2 1.635658 1_555
O27 Si4 1.668483 1_555
O28 Si8 1.641813 1_555
O29 Si6 1.641813 1_555
