# generated using pymatgen
data_Ti2O
_symmetry_space_group_name_H-M   'P 1'
_cell_length_a   11.54548123
_cell_length_b   11.07535570
_cell_length_c   10.93150337
_cell_angle_alpha   85.65811074
_cell_angle_beta   90.71966020
_cell_angle_gamma   90.84290042
_symmetry_Int_Tables_number   1
_chemical_formula_structural   Ti2O
_chemical_formula_sum   'Ti68 O34'
_cell_volume   1393.56040932
_cell_formula_units_Z   34
loop_
 _symmetry_equiv_pos_site_id
 _symmetry_equiv_pos_as_xyz
  1  'x, y, z'
loop_
 _atom_site_type_symbol
 _atom_site_label
 _atom_site_symmetry_multiplicity
 _atom_site_fract_x
 _atom_site_fract_y
 _atom_site_fract_z
 _atom_site_occupancy
  Ti  Ti0  1  0.00031499  0.90895303  0.49062817  1
  Ti  Ti1  1  0.62985013  0.77900317  0.61620078  1
  Ti  Ti2  1  0.93056316  0.60258386  0.29371020  1
  Ti  Ti3  1  0.99824074  0.42760775  0.95843523  1
  Ti  Ti4  1  0.05032736  0.17779021  0.92279500  1
  Ti  Ti5  1  0.45548299  0.29069345  0.16333771  1
  Ti  Ti6  1  0.18801928  0.22293077  0.18209905  1
  Ti  Ti7  1  0.16323395  0.97208904  0.03237325  1
  Ti  Ti8  1  0.35257223  0.86635749  0.30080099  1
  Ti  Ti9  1  0.59567302  0.67170135  0.00415589  1
  Ti  Ti10  1  0.81321160  0.85313318  0.34404544  1
  Ti  Ti11  1  0.44849331  0.59964679  0.21011804  1
  Ti  Ti12  1  0.42946825  0.10056979  0.35636223  1
  Ti  Ti13  1  0.23020545  0.74147234  0.13494995  1
  Ti  Ti14  1  0.17206630  0.31483979  0.65601244  1
  Ti  Ti15  1  0.37505865  0.99593210  0.78900453  1
  Ti  Ti16  1  0.40638471  0.84027112  -0.00013563  1
  Ti  Ti17  1  0.22822113  0.79059307  0.84877824  1
  Ti  Ti18  1  0.93558407  0.33010541  0.73183258  1
  Ti  Ti19  1  0.81912969  0.09838836  0.83873101  1
  Ti  Ti20  1  0.05524349  0.66854625  0.98988589  1
  Ti  Ti21  1  0.34249480  0.11861833  0.01338252  1
  Ti  Ti22  1  0.12808751  0.02956700  0.32429022  1
  Ti  Ti23  1  0.35917670  0.60140795  0.96437006  1
  Ti  Ti24  1  0.06579656  0.29400990  0.40713549  1
  Ti  Ti25  1  0.61233069  0.93472866  0.90676500  1
  Ti  Ti26  1  0.77281108  0.83847888  0.08402953  1
  Ti  Ti27  1  0.97898809  0.13879719  0.58188071  1
  Ti  Ti28  1  0.94656204  0.37512440  0.19791222  1
  Ti  Ti29  1  0.69385081  0.53246175  0.55655300  1
  Ti  Ti30  1  0.90875767  0.15436512  0.11126373  1
  Ti  Ti31  1  0.38530793  0.90067720  0.55578147  1
  Ti  Ti32  1  0.40747355  0.37307806  0.91012485  1
  Ti  Ti33  1  0.46538550  0.67980298  0.46307121  1
  Ti  Ti34  1  0.05292011  0.53023111  0.54323747  1
  Ti  Ti35  1  0.63285166  0.19602243  0.44047455  1
  Ti  Ti36  1  0.68538692  0.38382762  0.14315546  1
  Ti  Ti37  1  0.21874416  0.43234167  0.07383325  1
  Ti  Ti38  1  0.55976706  0.03734729  0.64763640  1
  Ti  Ti39  1  0.65648582  0.09008542  0.20285140  1
  Ti  Ti40  1  0.21362526  0.52309231  0.32604690  1
  Ti  Ti41  1  0.53928807  0.42685239  0.40828413  1
  Ti  Ti42  1  0.69328020  0.63423134  0.25233193  1
  Ti  Ti43  1  0.17731339  0.51680513  0.81214128  1
  Ti  Ti44  1  0.82128522  0.58915436  0.03432846  1
  Ti  Ti45  1  0.04068798  0.72068629  0.73663725  1
  Ti  Ti46  1  0.99745108  0.85124407  0.18119966  1
  Ti  Ti47  1  0.32140252  0.33062310  0.43522054  1
  Ti  Ti48  1  0.56165497  0.19403228  0.91713270  1
  Ti  Ti49  1  0.87398742  0.11960602  0.35200593  1
  Ti  Ti50  1  0.40496826  0.23668237  0.67535578  1
  Ti  Ti51  1  0.46287758  0.76140131  0.77874734  1
  Ti  Ti52  1  0.97684473  0.89599749  0.90198708  1
  Ti  Ti53  1  0.63160129  0.51975464  0.80969703  1
  Ti  Ti54  1  0.78838384  0.98269761  0.57197853  1
  Ti  Ti55  1  0.24898830  0.69130422  0.61768406  1
  Ti  Ti56  1  0.83601780  0.37465414  0.41762252  1
  Ti  Ti57  1  0.13857843  0.01923564  0.76202505  1
  Ti  Ti58  1  0.24037376  0.11044983  0.53831731  1
  Ti  Ti59  1  0.76168433  0.76813373  0.81584965  1
  Ti  Ti60  1  0.13118941  0.73843732  0.38062178  1
  Ti  Ti61  1  0.56152662  0.83590548  0.17972648  1
  Ti  Ti62  1  0.86884801  0.70615823  0.55221671  1
  Ti  Ti63  1  0.79541578  0.33187065  0.92611626  1
  Ti  Ti64  1  0.43187869  0.51399956  0.67894155  1
  Ti  Ti65  1  0.87623401  0.55948474  0.78699685  1
  Ti  Ti66  1  0.59876021  0.93689097  0.42048636  1
  Ti  Ti67  1  0.67907790  0.26455429  0.69480841  1
  O  O0  1  0.17749597  0.41722993  0.49036986  1
  O  O1  1  0.97116214  0.54177695  0.11339861  1
  O  O2  1  0.74101564  0.64404619  0.68589168  1
  O  O3  1  0.05295226  0.28192067  0.06708911  1
  O  O4  1  0.06621439  0.19447625  0.73917218  1
  O  O5  1  0.55560198  0.34443669  0.01337227  1
  O  O6  1  0.64947289  0.09378372  0.79414688  1
  O  O7  1  0.98713348  0.01510212  0.04128750  1
  O  O8  1  0.17143429  0.87752338  0.23410786  1
  O  O9  1  0.30861442  0.37691887  0.75606360  1
  O  O10  1  0.20925164  0.20058587  0.36746615  1
  O  O11  1  0.28610490  0.57529109  0.14839352  1
  O  O12  1  0.09929992  0.00856484  0.59062848  1
  O  O13  1  0.30224006  0.76446691  0.45601884  1
  O  O14  1  0.67840675  0.35652681  0.51283557  1
  O  O15  1  0.83576828  0.17760105  0.67384417  1
  O  O16  1  0.49719073  0.97369168  0.26221415  1
  O  O17  1  0.29371083  0.28996954  0.02412154  1
  O  O18  1  0.12375562  0.39688619  0.23981552  1
  O  O19  1  0.34968515  0.14225583  0.19127733  1
  O  O20  1  0.46439849  0.01983556  0.95214951  1
  O  O21  1  0.79604474  0.92017547  0.90225242  1
  O  O22  1  0.06539107  0.72836129  0.55274658  1
  O  O23  1  0.32405901  0.63664139  0.77935574  1
  O  O24  1  0.47119419  0.27208863  0.35526831  1
  O  O25  1  0.28941473  0.99319933  0.41578995  1
  O  O26  1  0.43592490  0.37957504  0.56119183  1
  O  O27  1  0.59785748  0.59104875  0.39422010  1
  O  O28  1  0.77550546  0.41575019  0.73729325  1
  O  O29  1  0.95919898  0.96724794  0.31223216  1
  O  O30  1  0.92181602  0.76386742  0.04473457  1
  O  O31  1  0.87366226  0.54040571  0.47399497  1
  O  O32  1  0.65446182  0.97170960  0.08247076  1
  O  O33  1  0.38450729  0.51856230  0.37126898  1
loop_
_geom_bond_atom_site_label_1
_geom_bond_atom_site_label_2
_geom_bond_distance
_geom_bond_site_symmetry_2
Ti11 Ti9 2.894415 1_555
Ti16 Ti9 2.892761 1_555
Ti23 Ti9 2.865237 1_556
Ti25 Ti9 3.029151 1_556
Ti26 Ti9 2.906035 1_555
Ti42 Ti9 2.927232 1_555
Ti44 Ti9 2.780725 1_555
Ti51 Ti9 2.998074 1_556
Ti53 Ti9 2.847308 1_556
Ti59 Ti9 2.959330 1_556
Ti61 Ti9 2.777575 1_555
O0 Ti34 2.037731 1_555
O0 Ti47 2.050270 1_555
O0 Ti14 2.063605 1_555
O0 Ti24 2.111915 1_555
O0 Ti40 2.112082 1_555
O1 Ti44 1.984238 1_555
O1 Ti28 2.018391 1_555
O1 Ti20 2.107702 1_654
O1 Ti2 2.189039 1_555
O1 Ti3 2.217082 1_554
O2 Ti29 2.012030 1_555
O2 Ti59 2.059453 1_555
O2 Ti1 2.078756 1_555
O2 Ti65 2.092565 1_555
O2 Ti62 2.158441 1_555
O2 Ti53 2.243225 1_555
O3 Ti4 2.022926 1_554
O3 Ti3 2.033277 1_454
O3 Ti6 2.072584 1_555
O3 Ti30 2.201868 1_455
O3 Ti28 2.219117 1_455
O3 Ti37 2.523107 1_555
O4 Ti14 1.973197 1_555
O4 Ti4 2.012219 1_555
O4 Ti27 2.109429 1_455
O4 Ti57 2.120469 1_555
O4 Ti18 2.140764 1_455
O5 Ti48 2.038905 1_554
O5 Ti32 2.052454 1_554
O5 Ti5 2.063376 1_555
O5 Ti36 2.114116 1_555
O6 Ti19 2.013393 1_555
O6 Ti38 2.029601 1_555
O6 Ti48 2.088439 1_555
O6 Ti25 2.113133 1_545
O6 Ti67 2.133672 1_555
O7 Ti30 2.004998 1_555
O7 Ti52 2.089978 1_544
O7 Ti7 2.100167 1_645
O7 Ti4 2.255745 1_654
O7 Ti46 2.286562 1_545
O8 Ti13 2.049807 1_555
O8 Ti22 2.084829 1_565
O8 Ti46 2.105535 1_455
O8 Ti60 2.185877 1_555
O8 Ti8 2.208192 1_555
O8 Ti7 2.370029 1_555
O9 Ti32 2.020670 1_555
O9 Ti14 2.047676 1_555
O9 Ti50 2.170538 1_555
O9 Ti64 2.194047 1_555
O9 Ti43 2.304428 1_555
O10 Ti24 2.034270 1_555
O10 Ti6 2.034889 1_555
O10 Ti58 2.079719 1_555
O10 Ti47 2.093306 1_555
O10 Ti22 2.181858 1_555
O11 Ti13 1.953774 1_555
O11 Ti37 1.979637 1_555
O11 Ti11 2.005994 1_555
O11 Ti40 2.159284 1_555
O11 Ti23 2.188494 1_554
O12 Ti57 1.934086 1_555
O12 Ti0 1.957627 1_545
O12 Ti27 2.013401 1_455
O12 Ti58 2.030963 1_555
O13 Ti55 1.988354 1_555
O13 Ti8 2.050781 1_555
O13 Ti33 2.114352 1_555
O13 Ti31 2.136627 1_555
O13 Ti60 2.154261 1_555
O14 Ti29 2.045882 1_555
O14 Ti35 2.058471 1_555
O14 Ti41 2.085340 1_555
O14 Ti56 2.107154 1_555
O14 Ti67 2.165123 1_555
O15 Ti19 1.954416 1_555
O15 Ti27 2.014351 1_555
O15 Ti67 2.085131 1_555
O15 Ti18 2.160847 1_555
O15 Ti54 2.552028 1_545
O16 Ti12 1.979072 1_565
O16 Ti61 1.987995 1_555
O16 Ti8 2.064539 1_555
O16 Ti66 2.095477 1_555
O16 Ti39 2.301929 1_565
O17 Ti37 1.926792 1_555
O17 Ti32 1.989258 1_554
O17 Ti21 1.999852 1_555
O17 Ti6 2.203346 1_555
O17 Ti5 2.394685 1_555
O18 Ti40 2.012760 1_555
O18 Ti28 2.105189 1_455
O18 Ti37 2.139751 1_555
O18 Ti24 2.187284 1_555
O18 Ti6 2.213209 1_555
O19 Ti21 1.982300 1_555
O19 Ti5 2.040174 1_555
O19 Ti12 2.040323 1_555
O19 Ti6 2.079198 1_555
O20 Ti21 1.950831 1_556
O20 Ti25 2.047232 1_545
O20 Ti15 2.081310 1_545
O20 Ti16 2.118560 1_546
O20 Ti48 2.228176 1_555
O21 Ti59 2.024058 1_555
O21 Ti19 2.056849 1_565
O21 Ti52 2.108498 1_555
O21 Ti25 2.131016 1_555
O21 Ti26 2.138508 1_556
O22 Ti45 2.029112 1_555
O22 Ti60 2.032617 1_555
O22 Ti0 2.202687 1_555
O22 Ti34 2.207177 1_555
O22 Ti55 2.260363 1_555
O22 Ti62 2.278852 1_455
O23 Ti55 2.013974 1_555
O23 Ti23 2.066800 1_555
O23 Ti51 2.100419 1_555
O23 Ti43 2.153493 1_555
O23 Ti64 2.215697 1_555
O23 Ti17 2.231600 1_555
O24 Ti12 1.952077 1_555
O24 Ti41 1.997818 1_555
O24 Ti47 2.081294 1_555
O24 Ti5 2.098433 1_555
O24 Ti35 2.223641 1_555
O25 Ti58 2.026076 1_565
O25 Ti12 2.074518 1_565
O25 Ti31 2.090702 1_555
O25 Ti8 2.099005 1_555
O25 Ti22 2.132193 1_565
O26 Ti50 1.971116 1_555
O26 Ti47 1.996169 1_555
O26 Ti64 2.041878 1_555
O26 Ti41 2.095584 1_555
O27 Ti41 1.926671 1_555
O27 Ti42 1.939933 1_555
O27 Ti33 2.014233 1_555
O27 Ti29 2.143770 1_555
O28 Ti65 2.059731 1_555
O28 Ti67 2.075852 1_555
O28 Ti18 2.093326 1_555
O28 Ti63 2.209181 1_555
O28 Ti53 2.222850 1_555
O28 Ti29 2.462851 1_555
O29 Ti49 2.043277 1_565
O29 Ti46 2.051504 1_555
O29 Ti0 2.059209 1_655
O29 Ti22 2.064846 1_665
O29 Ti10 2.108240 1_555
O30 Ti26 1.985208 1_555
O30 Ti20 2.003501 1_654
O30 Ti46 2.021243 1_555
O30 Ti52 2.152191 1_554
O30 Ti44 2.251289 1_555
O31 Ti56 2.019836 1_555
O31 Ti62 2.084748 1_555
O31 Ti2 2.145581 1_555
O31 Ti34 2.196258 1_655
O31 Ti29 2.271938 1_555
O32 Ti39 1.926310 1_565
O32 Ti26 2.024746 1_555
O32 Ti25 2.045322 1_554
O32 Ti61 2.069513 1_555
O33 Ti40 2.028287 1_555
O33 Ti11 2.056495 1_555
O33 Ti41 2.088506 1_555
O33 Ti47 2.258319 1_555
O33 Ti33 2.294962 1_555
