# generated using pymatgen
data_TbYb3
_symmetry_space_group_name_H-M   'P 1'
_cell_length_a   7.13597707
_cell_length_b   7.13597707
_cell_length_c   5.51201223
_cell_angle_alpha   90.00000000
_cell_angle_beta   90.00000000
_cell_angle_gamma   119.99999534
_symmetry_Int_Tables_number   1
_chemical_formula_structural   TbYb3
_chemical_formula_sum   'Tb2 Yb6'
_cell_volume   243.07915374
_cell_formula_units_Z   2
loop_
 _symmetry_equiv_pos_site_id
 _symmetry_equiv_pos_as_xyz
  1  'x, y, z'
loop_
 _atom_site_type_symbol
 _atom_site_label
 _atom_site_symmetry_multiplicity
 _atom_site_fract_x
 _atom_site_fract_y
 _atom_site_fract_z
 _atom_site_occupancy
  Tb  Tb0  1  0.33333300  0.66666700  0.75000000  1
  Tb  Tb1  1  0.66666700  0.33333300  0.25000000  1
  Yb  Yb0  1  0.16638545  0.33277190  0.25000000  1
  Yb  Yb1  1  0.66722810  0.83361455  0.25000000  1
  Yb  Yb2  1  0.16638545  0.83361455  0.25000000  1
  Yb  Yb3  1  0.83361455  0.66722810  0.75000000  1
  Yb  Yb4  1  0.33277190  0.16638545  0.75000000  1
  Yb  Yb5  1  0.83361455  0.16638545  0.75000000  1
loop_
_geom_bond_atom_site_label_1
_geom_bond_atom_site_label_2
_geom_bond_distance
_geom_bond_site_symmetry_2
Tb0 Yb2 3.442877 1_555
Tb0 Yb2 3.442877 1_556
Tb0 Yb0 3.442877 1_556
Tb0 Yb0 3.442877 1_555
Tb0 Yb1 3.442877 1_555
Tb0 Yb1 3.442877 1_556
Tb0 Yb3 3.567983 1_455
Tb0 Yb4 3.567983 1_565
Tb0 Yb5 3.567990 1_455
Tb0 Yb5 3.567990 1_565
Tb0 Yb4 3.567997 1_555
Tb0 Yb3 3.567997 1_555
Tb1 Yb5 3.442877 1_555
Tb1 Yb5 3.442877 1_554
Tb1 Yb3 3.442877 1_555
Tb1 Yb4 3.442877 1_555
Tb1 Yb4 3.442877 1_554
Tb1 Yb3 3.442877 1_554
Tb1 Yb1 3.567983 1_545
Tb1 Yb0 3.567983 1_655
Tb1 Yb2 3.567990 1_655
Tb1 Yb2 3.567990 1_545
Tb1 Yb0 3.567997 1_555
Tb1 Yb1 3.567997 1_555
Yb0 Yb5 3.438717 1_455
Yb0 Yb5 3.438717 1_454
Yb0 Yb4 3.438725 1_555
Yb0 Yb4 3.438725 1_554
Yb0 Yb2 3.561975 1_545
Yb0 Yb1 3.561976 1_445
Yb0 Yb2 3.574002 1_555
Yb0 Yb1 3.574002 1_555
Yb1 Yb5 3.438717 1_564
Yb1 Yb5 3.438717 1_565
Yb1 Yb3 3.438725 1_554
Yb1 Yb3 3.438725 1_555
Yb1 Yb2 3.561975 1_655
Yb1 Yb2 3.574002 1_555
Yb2 Yb3 3.438717 1_454
Yb2 Yb3 3.438717 1_455
Yb2 Yb4 3.438717 1_564
Yb2 Yb4 3.438717 1_565
Yb3 Yb5 3.561975 1_565
Yb3 Yb4 3.561976 1_665
Yb3 Yb5 3.574002 1_555
Yb3 Yb4 3.574002 1_555
Yb4 Yb5 3.561975 1_455
Yb4 Yb5 3.574002 1_555
