# generated using pymatgen
data_Sr2TiMnO5
_symmetry_space_group_name_H-M   'P 1'
_cell_length_a   5.62529000
_cell_length_b   8.92492134
_cell_length_c   11.40360200
_cell_angle_alpha   108.62765675
_cell_angle_beta   90.00036421
_cell_angle_gamma   108.36900562
_symmetry_Int_Tables_number   1
_chemical_formula_structural   Sr2TiMnO5
_chemical_formula_sum   'Sr8 Ti4 Mn4 O20'
_cell_volume   511.64960613
_cell_formula_units_Z   4
loop_
 _symmetry_equiv_pos_site_id
 _symmetry_equiv_pos_as_xyz
  1  'x, y, z'
loop_
 _atom_site_type_symbol
 _atom_site_label
 _atom_site_symmetry_multiplicity
 _atom_site_fract_x
 _atom_site_fract_y
 _atom_site_fract_z
 _atom_site_occupancy
  Sr  Sr0  1  0.61213900  0.22497300  0.54992800  1
  Sr  Sr1  1  0.61214100  0.22497400  0.04991800  1
  Sr  Sr2  1  0.38718400  0.77503200  0.45007500  1
  Sr  Sr3  1  0.38717600  0.77503200  0.95008700  1
  Sr  Sr4  1  0.11213700  0.22497100  0.31256100  1
  Sr  Sr5  1  0.11213600  0.22497500  0.81257300  1
  Sr  Sr6  1  0.88717400  0.77502900  0.68744100  1
  Sr  Sr7  1  0.88716500  0.77502300  0.18742600  1
  Ti  Ti0  1  0.99625000  0.00000000  0.50000200  1
  Ti  Ti1  1  0.99625100  0.00000400  0.00000200  1
  Ti  Ti2  1  0.49624100  0.00000300  0.25000600  1
  Ti  Ti3  1  0.49624400  0.00000700  0.75000600  1
  Mn  Mn0  1  0.22343800  0.50001600  0.65500300  1
  Mn  Mn1  1  0.72340600  0.50000200  0.34499600  1
  Mn  Mn2  1  0.22341600  0.50002200  0.15500500  1
  Mn  Mn3  1  0.72338600  0.50002200  0.84499900  1
  O  O0  1  0.86211600  0.49999700  0.67806300  1
  O  O1  1  0.86211200  0.49999600  0.17805700  1
  O  O2  1  0.36210800  0.49999500  0.32194000  1
  O  O3  1  0.36210300  0.49999300  0.82194600  1
  O  O4  1  0.25535300  0.98185700  0.86738300  1
  O  O5  1  0.25535600  0.98185200  0.36738100  1
  O  O6  1  0.27351000  0.01812800  0.13260800  1
  O  O7  1  0.27351100  0.01813300  0.63261100  1
  O  O8  1  0.75535800  0.98186200  0.87355300  1
  O  O9  1  0.75536300  0.98186400  0.37355000  1
  O  O10  1  0.77351900  0.01813100  0.12644700  1
  O  O11  1  0.77352100  0.01812900  0.62644700  1
  O  O12  1  0.15084200  0.24762400  0.54125700  1
  O  O13  1  0.15083800  0.24762400  0.04125700  1
  O  O14  1  0.90319600  0.75236700  0.45873800  1
  O  O15  1  0.90319000  0.75236900  0.95874100  1
  O  O16  1  0.65084200  0.24760900  0.33255200  1
  O  O17  1  0.65084500  0.24761800  0.83255700  1
  O  O18  1  0.40321900  0.75238400  0.66744400  1
  O  O19  1  0.40321300  0.75238300  0.16744100  1
loop_
_geom_bond_atom_site_label_1
_geom_bond_atom_site_label_2
_geom_bond_distance
_geom_bond_site_symmetry_2
Mn0 O0 2.049437 1_455
Mn0 O3 2.057438 1_555
Mn0 O18 2.115711 1_555
Mn0 O12 2.115897 1_555
Mn1 O2 2.049318 1_555
Mn1 O1 2.057397 1_555
Mn1 O14 2.115710 1_555
Mn1 O16 2.115933 1_555
Mn2 O1 2.049308 1_455
Mn2 O2 2.057426 1_555
Mn2 O19 2.115683 1_555
Mn2 O13 2.115961 1_555
Mn3 O3 2.049161 1_555
Mn3 O0 2.057387 1_555
Mn3 O15 2.115606 1_555
Mn3 O17 2.116054 1_555
O0 Sr0 2.381317 1_555
O0 Sr6 2.381341 1_555
O1 Sr1 2.381309 1_555
O1 Sr7 2.381333 1_555
O2 Sr4 2.381286 1_555
O2 Sr2 2.381361 1_555
O3 Sr5 2.381255 1_555
O3 Sr3 2.381399 1_555
O4 Ti3 1.911626 1_565
O4 Ti1 2.104780 1_466
O4 Sr3 2.611813 1_555
O4 Sr6 2.660481 1_455
O4 Sr1 2.727448 1_566
O4 Sr5 2.777756 1_565
O5 Ti2 1.911587 1_565
O5 Ti0 2.104812 1_465
O5 Sr2 2.611720 1_555
O5 Sr7 2.660602 1_455
O5 Sr0 2.727515 1_565
O5 Sr4 2.777825 1_565
O6 Ti2 1.911633 1_555
O6 Ti1 2.104785 1_455
O6 Sr1 2.611805 1_555
O6 Sr4 2.660689 1_555
O6 Sr3 2.727229 1_544
O6 Sr7 2.777785 1_445
O7 Ti3 1.911620 1_555
O7 Ti0 2.104786 1_455
O7 Sr0 2.611718 1_555
O7 Sr5 2.660747 1_555
O7 Sr2 2.727363 1_545
O7 Sr6 2.777821 1_445
O8 Ti1 1.911626 1_566
O8 Ti3 2.104815 1_565
O8 Sr6 2.611839 1_555
O8 Sr3 2.660523 1_555
O8 Sr5 2.727398 1_665
O8 Sr1 2.777735 1_566
O9 Ti0 1.911649 1_565
O9 Ti2 2.104796 1_565
O9 Sr7 2.611917 1_555
O9 Sr2 2.660467 1_555
O9 Sr4 2.727405 1_665
O9 Sr0 2.777810 1_565
O10 Ti1 1.911524 1_555
O10 Ti2 2.104993 1_555
O10 Sr4 2.611781 1_655
O10 Sr1 2.660653 1_555
O10 Sr7 2.727274 1_545
O10 Sr3 2.777723 1_544
O11 Ti0 1.911513 1_555
O11 Ti3 2.104986 1_555
O11 Sr5 2.611864 1_655
O11 Sr0 2.660611 1_555
O11 Sr6 2.727312 1_545
O11 Sr2 2.777765 1_545
O12 Ti0 1.996562 1_455
O12 Sr4 2.554435 1_555
O12 Sr0 2.669776 1_555
O12 Sr0 2.976641 1_455
O12 Sr5 3.167457 1_555
O13 Ti1 1.996527 1_455
O13 Sr5 2.554308 1_554
O13 Sr1 2.669799 1_555
O13 Sr1 2.976603 1_455
O13 Sr4 3.167332 1_555
O14 Ti0 1.996612 1_565
O14 Sr6 2.554487 1_555
O14 Sr2 2.669970 1_655
O14 Sr2 2.976455 1_555
O14 Sr7 3.167427 1_555
O15 Ti1 1.996630 1_566
O15 Sr7 2.554301 1_556
O15 Sr3 2.669957 1_655
O15 Sr3 2.976454 1_555
O15 Sr6 3.167300 1_555
O16 Ti2 1.996426 1_555
O16 Sr0 2.554450 1_555
O16 Sr4 2.669722 1_655
O16 Sr4 2.976679 1_555
O16 Sr1 3.167421 1_555
O17 Ti3 1.996469 1_555
O17 Sr1 2.554306 1_556
O17 Sr5 2.669711 1_655
O17 Sr5 2.976685 1_555
O17 Sr0 3.167340 1_555
O18 Ti3 1.996568 1_565
O18 Sr2 2.554401 1_555
O18 Sr6 2.669833 1_555
O18 Sr6 2.976581 1_455
O18 Sr3 3.167489 1_555
O19 Ti2 1.996547 1_565
O19 Sr3 2.554234 1_554
O19 Sr7 2.669820 1_555
O19 Sr7 2.976574 1_455
O19 Sr2 3.167381 1_555
