# generated using pymatgen
data_Na6GaP3
_symmetry_space_group_name_H-M   'P 1'
_cell_length_a   8.05192863
_cell_length_b   8.11834918
_cell_length_c   16.04186487
_cell_angle_alpha   95.82625868
_cell_angle_beta   94.00096444
_cell_angle_gamma   119.65321234
_symmetry_Int_Tables_number   1
_chemical_formula_structural   Na6GaP3
_chemical_formula_sum   'Na24 Ga4 P12'
_cell_volume   897.81498812
_cell_formula_units_Z   4
loop_
 _symmetry_equiv_pos_site_id
 _symmetry_equiv_pos_as_xyz
  1  'x, y, z'
loop_
 _atom_site_type_symbol
 _atom_site_label
 _atom_site_symmetry_multiplicity
 _atom_site_fract_x
 _atom_site_fract_y
 _atom_site_fract_z
 _atom_site_occupancy
  Na  Na0  1  0.02982200  0.85787200  0.58146300  1
  Na  Na1  1  0.15779800  0.97656500  0.92766400  1
  Na  Na2  1  0.04629200  0.55802500  0.70051200  1
  Na  Na3  1  0.12993600  0.62200600  0.46982100  1
  Na  Na4  1  0.16111700  0.35569100  0.99792000  1
  Na  Na5  1  0.42723600  0.91604600  0.81106300  1
  Na  Na6  1  0.15669800  0.29140000  0.80212700  1
  Na  Na7  1  0.49015300  0.69289900  0.93711600  1
  Na  Na8  1  0.26323600  0.37350300  0.20462900  1
  Na  Na9  1  0.55130400  0.79359600  0.31318500  1
  Na  Na10  1  0.24128200  0.02238300  0.30463500  1
  Na  Na11  1  0.64366100  0.80325100  0.50100200  1
  Na  Na12  1  0.34430900  0.18260900  0.49380400  1
  Na  Na13  1  0.76572200  0.96378800  0.70044200  1
  Na  Na14  1  0.42822400  0.20681200  0.69341000  1
  Na  Na15  1  0.73984500  0.62394200  0.79672500  1
  Na  Na16  1  0.50864900  0.30956100  0.06294200  1
  Na  Na17  1  0.84065000  0.71297800  0.19932900  1
  Na  Na18  1  0.57158200  0.08164900  0.18645700  1
  Na  Na19  1  0.83812600  0.64424200  0.00161100  1
  Na  Na20  1  0.72387700  0.21396200  0.55870000  1
  Na  Na21  1  0.95297000  0.44680400  0.29079300  1
  Na  Na22  1  0.84337700  0.02326100  0.07260300  1
  Na  Na23  1  0.96986100  0.14940500  0.41860900  1
  Ga  Ga0  1  0.20132100  0.70556000  0.09174900  1
  Ga  Ga1  1  0.36628100  0.52866700  0.59797500  1
  Ga  Ga2  1  0.64563100  0.47317300  0.40566000  1
  Ga  Ga3  1  0.79794000  0.29428900  0.90698600  1
  P  P0  1  0.18052700  0.99036700  0.12049700  1
  P  P1  1  0.09602200  0.59753400  0.89243200  1
  P  P2  1  0.38322000  0.83823600  0.62606800  1
  P  P3  1  0.08656700  0.23641400  0.61760100  1
  P  P4  1  0.33334600  0.45916400  0.39609300  1
  P  P5  1  0.49430300  0.69430000  0.11933700  1
  P  P6  1  0.50373400  0.30475900  0.88072700  1
  P  P7  1  0.67280700  0.53555200  0.60417900  1
  P  P8  1  0.91639300  0.76980400  0.38491500  1
  P  P9  1  0.63339100  0.17336400  0.37460500  1
  P  P10  1  0.90217300  0.40178100  0.10436700  1
  P  P11  1  0.81941700  0.00878800  0.88071800  1
loop_
_geom_bond_atom_site_label_1
_geom_bond_atom_site_label_2
_geom_bond_distance
_geom_bond_site_symmetry_2
Na0 P7 2.853111 1_455
Na0 P3 2.863730 1_565
Na0 P2 2.970247 1_555
Na0 P8 3.127468 1_455
Na1 P1 2.851069 1_555
Na1 P11 2.918574 1_465
Na1 P6 2.963284 1_565
Na1 P0 3.073356 1_556
Na1 Na5 3.143450 1_555
Na2 P2 2.976243 1_555
Na2 P3 2.980641 1_555
Na2 P1 3.040122 1_555
Na2 P7 3.196321 1_455
Na2 Na5 3.220917 1_555
Na3 P4 2.815044 1_555
Na3 P8 2.880584 1_455
Na3 P2 2.893819 1_555
Na4 P10 2.922709 1_456
Na4 P1 2.926122 1_555
Na4 P5 3.071511 1_556
Na4 P11 3.093896 1_455
Na5 P2 2.929637 1_555
Na5 P11 2.961663 1_565
Na5 P6 2.975126 1_565
Na5 Na7 3.022643 1_555
Na5 P1 3.138464 1_555
Na6 P3 2.920551 1_555
Na6 P6 2.930951 1_555
Na6 P1 3.013852 1_555
Na6 P11 3.021334 1_455
Na7 P1 2.884986 1_555
Na7 P11 2.915862 1_565
Na7 P5 2.919825 1_556
Na7 P6 3.245836 1_555
Na8 P5 2.898341 1_555
Na8 P0 2.985366 1_545
Na8 P4 3.028526 1_555
Na8 P10 3.342843 1_455
Na9 P9 2.861660 1_565
Na9 P4 2.926485 1_555
Na9 P5 3.075128 1_555
Na9 P8 3.184018 1_555
Na10 P9 2.850844 1_555
Na10 P8 2.899140 1_445
Na10 P0 2.923893 1_545
Na10 Na18 3.243663 1_555
Na11 P4 2.903611 1_555
Na11 P7 2.949320 1_555
Na11 P8 3.069570 1_555
Na11 P2 3.092617 1_555
Na12 P4 2.897727 1_555
Na12 P7 3.026304 1_555
Na12 P3 3.120529 1_555
Na12 P9 3.137661 1_555
Na13 P2 2.842905 1_555
Na13 P11 2.852818 1_565
Na13 P3 2.959248 1_665
Na13 Na5 3.239872 1_555
Na13 P7 3.347548 1_555
Na14 P2 2.909978 1_545
Na14 P6 2.968673 1_555
Na14 P7 3.003051 1_555
Na14 P3 3.057996 1_555
Na14 Na5 3.165821 1_545
Na15 P6 2.887318 1_555
Na15 P11 3.005237 1_565
Na15 P7 3.046477 1_555
Na15 P1 3.269382 1_655
Na16 P10 2.880992 1_555
Na16 P6 2.916609 1_554
Na16 P0 2.932474 1_545
Na16 Na18 3.022948 1_555
Na16 P5 3.222670 1_555
Na17 P5 2.913678 1_555
Na17 P8 2.938971 1_555
Na17 P0 3.020406 1_655
Na17 P10 3.084007 1_555
Na18 P0 2.941150 1_545
Na18 P5 2.952653 1_545
Na18 P9 2.979821 1_555
Na18 Na22 3.123850 1_555
Na18 P10 3.148477 1_555
Na18 Na9 3.203422 1_545
Na18 Na21 3.207385 1_555
Na19 P10 2.898665 1_555
Na19 P1 2.945377 1_654
Na19 P6 3.073994 1_554
Na19 P0 3.105911 1_655
Na20 P7 2.869669 1_555
Na20 P3 2.916805 1_655
Na20 P9 2.936926 1_555
Na20 P2 3.286321 1_545
Na21 P10 2.950280 1_555
Na21 P9 2.965388 1_555
Na21 P8 3.043844 1_555
Na22 P10 2.852323 1_555
Na22 P0 2.915336 1_645
Na22 P5 2.977820 1_545
Na22 P11 3.057379 1_554
Na23 P4 2.840679 1_655
Na23 P9 2.856310 1_555
Na23 P8 2.879429 1_545
Na23 P3 3.168432 1_655
Ga0 P0 2.400867 1_555
Ga0 P5 2.417713 1_555
Ga0 P10 2.493268 1_455
Ga0 Na4 2.931250 1_554
Ga0 Na19 2.951979 1_455
Ga0 Na18 3.152424 1_565
Ga1 P3 2.400838 1_555
Ga1 P7 2.435725 1_555
Ga1 P2 2.441335 1_555
Ga1 Na11 2.939368 1_555
Ga1 Na12 3.038169 1_555
Ga2 P9 2.385716 1_555
Ga2 P8 2.394153 1_555
Ga2 P4 2.453327 1_555
Ga2 Na11 2.955265 1_555
Ga2 Na12 2.990510 1_555
Ga3 P11 2.405856 1_555
Ga3 P6 2.421516 1_555
Ga3 P1 2.494801 1_655
Ga3 Na19 2.937121 1_556
Ga3 Na4 2.956776 1_655
Ga3 Na5 3.168108 1_545
