# generated using pymatgen
data_In10SnS14
_symmetry_space_group_name_H-M   'P 1'
_cell_length_a   3.92842600
_cell_length_b   9.21050070
_cell_length_c   17.27266656
_cell_angle_alpha   102.41204891
_cell_angle_beta   90.00000000
_cell_angle_gamma   90.00000000
_symmetry_Int_Tables_number   1
_chemical_formula_structural   In10SnS14
_chemical_formula_sum   'In10 Sn1 S14'
_cell_volume   610.36549839
_cell_formula_units_Z   1
loop_
 _symmetry_equiv_pos_site_id
 _symmetry_equiv_pos_as_xyz
  1  'x, y, z'
loop_
 _atom_site_type_symbol
 _atom_site_label
 _atom_site_symmetry_multiplicity
 _atom_site_fract_x
 _atom_site_fract_y
 _atom_site_fract_z
 _atom_site_occupancy
  In  In0  1  0.25000000  0.52384200  0.60717500  1
  In  In1  1  0.75000000  0.47540900  0.39840000  1
  In  In2  1  0.25000000  0.56521800  0.12210500  1
  In  In3  1  0.75000000  0.42322900  0.87181700  1
  In  In4  1  0.25000000  0.81962700  0.47022900  1
  In  In5  1  0.75000000  0.16763500  0.53609500  1
  In  In6  1  0.25000000  0.14652000  0.94962000  1
  In  In7  1  0.75000000  0.85846500  0.04560400  1
  In  In8  1  0.25000000  0.31280500  0.18788400  1
  In  In9  1  0.75000000  0.68373500  0.80831100  1
  Sn  Sn0  1  0.25000000  0.96171300  0.27969400  1
  S  S0  1  0.25000000  0.05645200  0.09315400  1
  S  S1  1  0.75000000  0.94424500  0.91176200  1
  S  S2  1  0.25000000  0.33573000  0.46762100  1
  S  S3  1  0.75000000  0.67345200  0.53025700  1
  S  S4  1  0.25000000  0.61734800  0.34520200  1
  S  S5  1  0.75000000  0.38570200  0.65368200  1
  S  S6  1  0.25000000  0.03246200  0.58580100  1
  S  S7  1  0.75000000  0.96840300  0.39963100  1
  S  S8  1  0.25000000  0.66917800  0.99951000  1
  S  S9  1  0.75000000  0.33838800  0.00746500  1
  S  S10  1  0.25000000  0.25001700  0.82315500  1
  S  S11  1  0.75000000  0.76099600  0.18193600  1
  S  S12  1  0.25000000  0.74504900  0.72641500  1
  S  S13  1  0.75000000  0.25357800  0.27277100  1
loop_
_geom_bond_atom_site_label_1
_geom_bond_atom_site_label_2
_geom_bond_distance
_geom_bond_site_symmetry_2
In0 S5 2.561569 1_555
In0 S5 2.561569 1_455
In0 S12 2.566931 1_555
In0 S2 2.648949 1_555
In0 S3 2.882551 1_555
In0 S3 2.882551 1_455
In1 S3 2.593929 1_555
In1 S4 2.632104 1_655
In1 S4 2.632104 1_555
In1 S13 2.641462 1_555
In1 S2 2.757540 1_555
In1 S2 2.757540 1_655
In2 S8 2.504489 1_554
In2 S11 2.715994 1_455
In2 S11 2.715994 1_555
In3 S10 2.556045 1_655
In3 S10 2.556045 1_555
In3 S9 2.624377 1_556
In4 S6 2.479025 1_565
In4 S4 2.530842 1_555
In4 S3 2.710335 1_455
In4 S3 2.710335 1_555
In4 S7 2.818005 1_455
In4 S7 2.818005 1_555
In5 S5 2.530926 1_555
In5 S6 2.569982 1_555
In5 S6 2.569982 1_655
In5 S7 2.657790 1_545
In5 S2 2.905374 1_555
In5 S2 2.905374 1_655
In6 S10 2.564252 1_555
In6 S9 2.687075 1_556
In6 S9 2.687075 1_456
In6 S1 2.689422 1_445
In6 S1 2.689422 1_545
In6 S0 2.778278 1_556
In7 S1 2.598819 1_554
In7 S8 2.633411 1_554
In7 S8 2.633411 1_654
In7 S0 2.685930 1_565
In7 S0 2.685930 1_665
In7 S11 2.694415 1_555
In8 S0 2.567384 1_555
In8 S13 2.578637 1_555
In8 S13 2.578637 1_455
In9 S12 2.553714 1_655
In9 S12 2.553714 1_555
In9 S1 2.665908 1_555
S7 Sn0 2.845824 1_555
S7 Sn0 2.845824 1_655
S11 Sn0 2.963965 1_555
S11 Sn0 2.963965 1_655
