# generated using pymatgen
data_Li2VO2F
_symmetry_space_group_name_H-M   'P 1'
_cell_length_a   13.07543551
_cell_length_b   13.07543551
_cell_length_c   7.30915262
_cell_angle_alpha   89.68827719
_cell_angle_beta   89.68827719
_cell_angle_gamma   13.19508333
_symmetry_Int_Tables_number   1
_chemical_formula_structural   Li2VO2F
_chemical_formula_sum   'Li10 V5 O10 F5'
_cell_volume   285.24404807
_cell_formula_units_Z   5
loop_
 _symmetry_equiv_pos_site_id
 _symmetry_equiv_pos_as_xyz
  1  'x, y, z'
loop_
 _atom_site_type_symbol
 _atom_site_label
 _atom_site_symmetry_multiplicity
 _atom_site_fract_x
 _atom_site_fract_y
 _atom_site_fract_z
 _atom_site_occupancy
  Li  Li0  1  0.53512900  0.53512900  0.12019800  1
  Li  Li1  1  0.93190500  0.93190500  0.15888500  1
  Li  Li2  1  0.73316100  0.73316100  0.15590500  1
  Li  Li3  1  0.66240900  0.66240900  0.86412600  1
  Li  Li4  1  0.86565600  0.86565600  0.84147800  1
  Li  Li5  1  0.33254000  0.33254000  0.15815800  1
  Li  Li6  1  0.13040200  0.13040200  0.12740900  1
  Li  Li7  1  0.07417500  0.07417500  0.87014700  1
  Li  Li8  1  0.46470400  0.46470400  0.84441100  1
  Li  Li9  1  0.26622800  0.26622800  0.84086300  1
  V  V0  1  0.99719600  0.99719600  0.50161400  1
  V  V1  1  0.79998900  0.79998900  0.49882400  1
  V  V2  1  0.60386500  0.60386500  0.51874900  1
  V  V3  1  0.39861400  0.39861400  0.50076000  1
  V  V4  1  0.20118300  0.20118300  0.50168600  1
  O  O0  1  0.53292900  0.53292900  0.63350200  1
  O  O1  1  0.73439700  0.73439700  0.65324000  1
  O  O2  1  0.93205100  0.93205100  0.65571700  1
  O  O3  1  0.86658400  0.86658400  0.34489300  1
  O  O4  1  0.66615800  0.66615800  0.35742500  1
  O  O5  1  0.59951500  0.59951500  0.00318000  1
  O  O6  1  0.33302500  0.33302500  0.65458900  1
  O  O7  1  0.13417500  0.13417500  0.65671300  1
  O  O8  1  0.26708500  0.26708500  0.34436100  1
  O  O9  1  0.46571400  0.46571400  0.34612700  1
  F  F0  1  0.99565800  0.99565800  0.99910200  1
  F  F1  1  0.80107800  0.80107800  0.99970700  1
  F  F2  1  0.06754900  0.06754900  0.34576000  1
  F  F3  1  0.20378600  0.20378600  0.00188100  1
  F  F4  1  0.39894800  0.39894800  0.00058900  1
loop_
_geom_bond_atom_site_label_1
_geom_bond_atom_site_label_2
_geom_bond_distance
_geom_bond_site_symmetry_2
Li0 O5 1.874423 1_555
Li0 O9 2.438446 1_555
Li1 O3 2.168540 1_555
Li1 O9 2.216855 1_565
Li1 O9 2.216855 1_655
Li2 O8 2.223556 1_565
Li2 O8 2.223556 1_655
Li2 O4 2.274005 1_555
Li3 O5 1.919440 1_556
Li3 O7 2.259496 1_565
Li3 O7 2.259496 1_655
Li3 O1 2.416928 1_555
Li4 O2 2.189234 1_555
Li4 O6 2.203200 1_565
Li4 O6 2.203200 1_655
Li5 O8 2.172140 1_555
Li5 O3 2.217010 1_455
Li5 O3 2.217010 1_545
Li6 O5 1.932138 1_455
Li6 O5 1.932138 1_545
Li6 O4 2.441984 1_455
Li6 O4 2.441984 1_545
Li7 O5 1.908589 1_546
Li7 O5 1.908589 1_456
Li7 O7 2.199195 1_555
Li7 O0 2.533185 1_545
Li7 O0 2.533185 1_455
Li8 O2 2.211653 1_455
Li8 O2 2.211653 1_545
Li8 O0 2.342572 1_555
Li9 O1 2.198571 1_545
Li9 O1 2.198571 1_455
Li9 O6 2.199738 1_555
O0 V0 2.014358 1_455
O0 V0 2.014358 1_545
O0 V2 2.020472 1_555
O1 V1 2.038666 1_555
O1 V4 2.058858 1_655
O1 V4 2.058858 1_565
O2 V0 2.027745 1_555
O2 V3 2.074839 1_565
O2 V3 2.074839 1_655
O3 V1 2.058492 1_555
O3 V3 2.063374 1_655
O3 V3 2.063374 1_565
O4 V2 1.997032 1_555
O4 V4 2.051116 1_655
O4 V4 2.051116 1_565
O6 V3 2.036248 1_555
O6 V1 2.073718 1_545
O6 V1 2.073718 1_455
O7 V2 1.975458 1_455
O7 V2 1.975458 1_545
O7 V4 2.071818 1_555
O8 V4 2.057089 1_555
O8 V1 2.067056 1_455
O8 V1 2.067056 1_545
O9 V0 2.056089 1_455
O9 V0 2.056089 1_545
O9 V3 2.072260 1_555
F0 Li1 2.021288 1_556
F0 Li0 2.025247 1_656
F0 Li0 2.025247 1_566
F0 Li8 2.047399 1_565
F0 Li8 2.047399 1_655
F0 Li7 2.242249 1_665
F1 Li4 2.032384 1_555
F1 Li5 2.067982 1_566
F1 Li5 2.067982 1_656
F1 Li2 2.096236 1_556
F1 Li9 2.106175 1_565
F1 Li9 2.106175 1_655
F2 V0 2.148263 1_445
F2 V2 2.181442 1_545
F2 V2 2.181442 1_455
F2 Li6 2.276951 1_555
F2 Li0 2.387363 1_545
F2 Li0 2.387363 1_455
F3 Li9 1.998850 1_554
F3 Li2 2.028795 1_455
F3 Li2 2.028795 1_545
F3 Li3 2.106633 1_544
F3 Li3 2.106633 1_454
F3 Li6 2.111116 1_555
F4 Li8 2.049302 1_554
F4 Li5 2.068986 1_555
F4 Li1 2.083123 1_455
F4 Li1 2.083123 1_545
F4 Li4 2.090064 1_544
F4 Li4 2.090064 1_454
