# generated using pymatgen
data_Zr2Cd
_symmetry_space_group_name_H-M   'P 1'
_cell_length_a   6.18105397
_cell_length_b   6.18105609
_cell_length_c   14.66103641
_cell_angle_alpha   102.10431485
_cell_angle_beta   102.10433355
_cell_angle_gamma   90.15779070
_symmetry_Int_Tables_number   1
_chemical_formula_structural   Zr2Cd
_chemical_formula_sum   'Zr16 Cd8'
_cell_volume   534.86194717
_cell_formula_units_Z   8
loop_
 _symmetry_equiv_pos_site_id
 _symmetry_equiv_pos_as_xyz
  1  'x, y, z'
loop_
 _atom_site_type_symbol
 _atom_site_label
 _atom_site_symmetry_multiplicity
 _atom_site_fract_x
 _atom_site_fract_y
 _atom_site_fract_z
 _atom_site_occupancy
  Zr  Zr0_0  1  0.33454796  0.33454796  0.16887067  1
  Zr  Zr0_1  1  0.33454796  0.33454796  0.66887066  1
  Zr  Zr0_2  1  0.33454796  0.83454796  0.16887067  1
  Zr  Zr0_3  1  0.33454796  0.83454796  0.66887066  1
  Zr  Zr0_4  1  0.83454796  0.33454796  0.16887067  1
  Zr  Zr0_5  1  0.83454796  0.33454796  0.66887066  1
  Zr  Zr0_6  1  0.83454796  0.83454796  0.16887067  1
  Zr  Zr0_7  1  0.83454796  0.83454796  0.66887066  1
  Zr  Zr1_0  1  0.16543766  0.16543766  0.33109796  1
  Zr  Zr1_1  1  0.16543766  0.16543766  0.83109796  1
  Zr  Zr1_2  1  0.16543766  0.66543767  0.33109796  1
  Zr  Zr1_3  1  0.16543766  0.66543766  0.83109796  1
  Zr  Zr1_4  1  0.66543767  0.16543766  0.33109796  1
  Zr  Zr1_5  1  0.66543766  0.16543766  0.83109796  1
  Zr  Zr1_6  1  0.66543766  0.66543767  0.33109796  1
  Zr  Zr1_7  1  0.66543766  0.66543766  0.83109796  1
  Cd  Cd0_0  1  0.00001437  0.00001437  0.00003138  1
  Cd  Cd0_1  1  0.00001437  0.00001437  0.50003137  1
  Cd  Cd0_2  1  0.00001437  0.50001438  0.00003138  1
  Cd  Cd0_3  1  0.00001437  0.50001438  0.50003137  1
  Cd  Cd0_4  1  0.50001438  0.00001438  0.00003138  1
  Cd  Cd0_5  1  0.50001438  0.00001437  0.50003137  1
  Cd  Cd0_6  1  0.50001438  0.50001438  0.00003138  1
  Cd  Cd0_7  1  0.50001437  0.50001438  0.50003137  1
loop_
_geom_bond_atom_site_label_1
_geom_bond_atom_site_label_2
_geom_bond_distance
_geom_bond_site_symmetry_2
Zr0_0 Zr0_4 3.090527 1_555
Zr0_0 Zr0_4 3.090527 1_455
Zr0_0 Zr0_2 3.090528 1_545
Zr0_0 Zr0_2 3.090528 1_555
Zr0_0 Zr1_6 3.149565 1_555
Zr0_0 Zr1_0 3.149820 1_555
Zr0_0 Zr1_4 3.153865 1_555
Zr0_0 Zr1_2 3.153866 1_555
Zr0_1 Zr0_5 3.090527 1_455
Zr0_1 Zr0_5 3.090527 1_555
Zr0_1 Zr0_3 3.090528 1_545
Zr0_1 Zr0_3 3.090528 1_555
Zr0_1 Zr1_7 3.149565 1_555
Zr0_1 Zr1_1 3.149820 1_555
Zr0_1 Zr1_5 3.153865 1_555
Zr0_1 Zr1_3 3.153866 1_555
Zr0_2 Zr0_6 3.090527 1_555
Zr0_2 Zr0_6 3.090527 1_455
Zr0_2 Zr1_4 3.149565 1_565
Zr0_2 Zr1_2 3.149820 1_555
Zr0_2 Zr1_6 3.153865 1_555
Zr0_2 Zr1_0 3.153866 1_565
Zr0_3 Zr0_7 3.090527 1_455
Zr0_3 Zr0_7 3.090527 1_555
Zr0_3 Zr1_5 3.149565 1_565
Zr0_3 Zr1_3 3.149820 1_555
Zr0_3 Zr1_7 3.153865 1_555
Zr0_3 Zr1_1 3.153866 1_565
Zr0_4 Zr0_6 3.090528 1_545
Zr0_4 Zr0_6 3.090528 1_555
Zr0_4 Zr1_2 3.149565 1_655
Zr0_4 Zr1_4 3.149820 1_555
Zr0_4 Zr1_0 3.153865 1_655
Zr0_4 Zr1_6 3.153866 1_555
Zr0_5 Zr0_7 3.090528 1_545
Zr0_5 Zr0_7 3.090528 1_555
Zr0_5 Zr1_3 3.149565 1_655
Zr0_5 Zr1_5 3.149820 1_555
Zr0_5 Zr1_1 3.153865 1_655
Zr0_5 Zr1_7 3.153866 1_555
Zr0_6 Zr1_0 3.149565 1_665
Zr0_6 Zr1_6 3.149820 1_555
Zr0_6 Zr1_2 3.153865 1_655
Zr0_6 Zr1_4 3.153866 1_565
Zr0_7 Zr1_1 3.149565 1_665
Zr0_7 Zr1_7 3.149820 1_555
Zr0_7 Zr1_3 3.153865 1_655
Zr0_7 Zr1_5 3.153866 1_565
Zr1_0 Zr1_4 3.090527 1_455
Zr1_0 Zr1_4 3.090527 1_555
Zr1_0 Zr1_2 3.090528 1_555
Zr1_0 Zr1_2 3.090528 1_545
Zr1_1 Zr1_5 3.090527 1_455
Zr1_1 Zr1_5 3.090527 1_555
Zr1_1 Zr1_3 3.090528 1_555
Zr1_1 Zr1_3 3.090528 1_545
Zr1_2 Zr1_6 3.090527 1_555
Zr1_2 Zr1_6 3.090527 1_455
Zr1_3 Zr1_7 3.090527 1_555
Zr1_3 Zr1_7 3.090527 1_455
Zr1_4 Zr1_6 3.090528 1_555
Zr1_4 Zr1_6 3.090528 1_545
Zr1_5 Zr1_7 3.090528 1_545
Zr1_5 Zr1_7 3.090528 1_555
Cd0_0 Cd0_4 3.090527 1_455
Cd0_0 Cd0_4 3.090527 1_555
Cd0_0 Cd0_2 3.090528 1_555
Cd0_0 Cd0_2 3.090528 1_545
Cd0_0 Zr0_6 3.215153 1_445
Cd0_0 Zr1_1 3.216145 1_554
Cd0_0 Zr0_0 3.219003 1_555
Cd0_0 Zr1_7 3.219948 1_444
Cd0_0 Zr0_2 3.221164 1_545
Cd0_0 Zr0_4 3.221165 1_455
Cd0_0 Zr1_5 3.222131 1_454
Cd0_0 Zr1_3 3.222132 1_544
Cd0_1 Cd0_5 3.090527 1_455
Cd0_1 Cd0_5 3.090527 1_555
Cd0_1 Cd0_3 3.090528 1_545
Cd0_1 Cd0_3 3.090528 1_555
Cd0_1 Zr0_7 3.215153 1_445
Cd0_1 Zr1_0 3.216145 1_555
Cd0_1 Zr0_1 3.219003 1_555
Cd0_1 Zr1_6 3.219948 1_445
Cd0_1 Zr0_3 3.221164 1_545
Cd0_1 Zr0_5 3.221165 1_455
Cd0_1 Zr1_4 3.222131 1_455
Cd0_1 Zr1_2 3.222132 1_545
Cd0_2 Cd0_6 3.090527 1_455
Cd0_2 Cd0_6 3.090527 1_555
Cd0_2 Zr0_4 3.215153 1_455
Cd0_2 Zr1_3 3.216145 1_554
Cd0_2 Zr0_2 3.219003 1_555
Cd0_2 Zr1_5 3.219948 1_454
Cd0_2 Zr0_0 3.221164 1_555
Cd0_2 Zr0_6 3.221165 1_455
Cd0_2 Zr1_7 3.222131 1_454
Cd0_2 Zr1_1 3.222132 1_554
Cd0_3 Cd0_7 3.090527 1_555
Cd0_3 Cd0_7 3.090527 1_455
Cd0_3 Zr0_5 3.215153 1_455
Cd0_3 Zr1_2 3.216145 1_555
Cd0_3 Zr0_3 3.219003 1_555
Cd0_3 Zr1_4 3.219948 1_455
Cd0_3 Zr0_1 3.221164 1_555
Cd0_3 Zr0_7 3.221165 1_455
Cd0_3 Zr1_6 3.222131 1_455
Cd0_3 Zr1_0 3.222132 1_555
Cd0_4 Cd0_6 3.090528 1_545
Cd0_4 Cd0_6 3.090528 1_555
Cd0_4 Zr0_2 3.215153 1_545
Cd0_4 Zr1_5 3.216145 1_554
Cd0_4 Zr0_4 3.219003 1_555
Cd0_4 Zr1_3 3.219948 1_544
Cd0_4 Zr0_6 3.221164 1_545
Cd0_4 Zr0_0 3.221165 1_555
Cd0_4 Zr1_1 3.222131 1_554
Cd0_4 Zr1_7 3.222132 1_544
Cd0_5 Cd0_7 3.090528 1_545
Cd0_5 Cd0_7 3.090528 1_555
Cd0_5 Zr0_3 3.215153 1_545
Cd0_5 Zr1_4 3.216145 1_555
Cd0_5 Zr0_5 3.219003 1_555
Cd0_5 Zr1_2 3.219948 1_545
Cd0_5 Zr0_7 3.221164 1_545
Cd0_5 Zr0_1 3.221165 1_555
Cd0_5 Zr1_0 3.222131 1_555
Cd0_5 Zr1_6 3.222132 1_545
Cd0_6 Zr0_0 3.215153 1_555
Cd0_6 Zr1_7 3.216145 1_554
Cd0_6 Zr0_6 3.219003 1_555
Cd0_6 Zr1_1 3.219948 1_554
Cd0_6 Zr0_4 3.221164 1_555
Cd0_6 Zr0_2 3.221165 1_555
Cd0_6 Zr1_3 3.222131 1_554
Cd0_6 Zr1_5 3.222132 1_554
Cd0_7 Zr0_1 3.215153 1_555
Cd0_7 Zr1_6 3.216145 1_555
Cd0_7 Zr0_7 3.219003 1_555
Cd0_7 Zr1_0 3.219948 1_555
Cd0_7 Zr0_5 3.221164 1_555
Cd0_7 Zr0_3 3.221165 1_555
Cd0_7 Zr1_2 3.222131 1_555
Cd0_7 Zr1_4 3.222132 1_555
