# generated using pymatgen
data_Ge3Ir
_symmetry_space_group_name_H-M   'P 1'
_cell_length_a   4.53520046
_cell_length_b   4.53520046
_cell_length_c   4.53520046
_cell_angle_alpha   60.00000000
_cell_angle_beta   60.00000000
_cell_angle_gamma   60.00000000
_symmetry_Int_Tables_number   1
_chemical_formula_structural   Ge3Ir
_chemical_formula_sum   'Ge3 Ir1'
_cell_volume   65.95906133
_cell_formula_units_Z   1
loop_
 _symmetry_equiv_pos_site_id
 _symmetry_equiv_pos_as_xyz
  1  'x, y, z'
loop_
 _atom_site_type_symbol
 _atom_site_label
 _atom_site_symmetry_multiplicity
 _atom_site_fract_x
 _atom_site_fract_y
 _atom_site_fract_z
 _atom_site_occupancy
  Ge  Ge0  1  0.75000000  0.75000000  0.75000000  1
  Ge  Ge1  1  0.25000000  0.25000000  0.25000000  1
  Ge  Ge2  1  0.50000000  0.50000000  0.50000000  1
  Ir  Ir0  1  0.00000000  0.00000000  0.00000000  1
loop_
_geom_bond_atom_site_label_1
_geom_bond_atom_site_label_2
_geom_bond_distance
_geom_bond_site_symmetry_2
Ge0 Ir0 2.777232 1_665
Ge0 Ge2 2.777232 1_556
Ge0 Ir0 2.777232 1_566
Ge0 Ge2 2.777232 1_565
Ge0 Ge2 2.777232 1_655
Ge0 Ge2 2.777232 1_555
Ge0 Ir0 2.777232 1_666
Ge0 Ir0 2.777232 1_656
Ge1 Ir0 2.777232 1_555
Ge1 Ir0 2.777232 1_655
Ge1 Ir0 2.777232 1_556
Ge1 Ge2 2.777232 1_545
Ge1 Ir0 2.777232 1_565
Ge1 Ge2 2.777232 1_555
Ge1 Ge2 2.777232 1_455
Ge1 Ge2 2.777232 1_554
Ge2 Ir0 3.206871 1_656
Ge2 Ir0 3.206871 1_655
Ge2 Ir0 3.206871 1_566
Ge2 Ir0 3.206871 1_556
Ge2 Ir0 3.206871 1_565
Ge2 Ir0 3.206871 1_665
