# generated using pymatgen
data_MgInSe3
_symmetry_space_group_name_H-M   'P 1'
_cell_length_a   6.58990800
_cell_length_b   6.58990823
_cell_length_c   30.14602900
_cell_angle_alpha   90.00000000
_cell_angle_beta   90.00000000
_cell_angle_gamma   119.99999885
_symmetry_Int_Tables_number   1
_chemical_formula_structural   MgInSe3
_chemical_formula_sum   'Mg6 In6 Se18'
_cell_volume   1133.75565812
_cell_formula_units_Z   6
loop_
 _symmetry_equiv_pos_site_id
 _symmetry_equiv_pos_as_xyz
  1  'x, y, z'
loop_
 _atom_site_type_symbol
 _atom_site_label
 _atom_site_symmetry_multiplicity
 _atom_site_fract_x
 _atom_site_fract_y
 _atom_site_fract_z
 _atom_site_occupancy
  Mg  Mg0  1  0.00000000  0.00000000  0.16675600  1
  Mg  Mg1  1  0.00000000  0.00000000  0.83324400  1
  Mg  Mg2  1  0.66666700  0.33333300  0.50008900  1
  Mg  Mg3  1  0.66666700  0.33333300  0.16657700  1
  Mg  Mg4  1  0.33333300  0.66666700  0.83342300  1
  Mg  Mg5  1  0.33333300  0.66666700  0.49991100  1
  In  In0  1  0.00000000  0.00000000  0.43959400  1
  In  In1  1  0.00000000  0.00000000  0.56040600  1
  In  In2  1  0.66666700  0.33333300  0.77292700  1
  In  In3  1  0.66666700  0.33333300  0.89373900  1
  In  In4  1  0.33333300  0.66666700  0.10626100  1
  In  In5  1  0.33333300  0.66666700  0.22707300  1
  Se  Se0  1  0.00034900  0.38680200  0.56106500  1
  Se  Se1  1  0.99965100  0.61319800  0.43893500  1
  Se  Se2  1  0.61319800  0.61354600  0.56106500  1
  Se  Se3  1  0.38680200  0.38645400  0.43893500  1
  Se  Se4  1  0.38645400  0.99965100  0.56106500  1
  Se  Se5  1  0.61354600  0.00034900  0.43893500  1
  Se  Se6  1  0.66701600  0.72013500  0.89439800  1
  Se  Se7  1  0.66631800  0.94653100  0.77226800  1
  Se  Se8  1  0.27986500  0.94687900  0.89439800  1
  Se  Se9  1  0.05346900  0.71978700  0.77226800  1
  Se  Se10  1  0.05312100  0.33298400  0.89439800  1
  Se  Se11  1  0.28021300  0.33368200  0.77226800  1
  Se  Se12  1  0.33368200  0.05346900  0.22773200  1
  Se  Se13  1  0.33298400  0.27986500  0.10560200  1
  Se  Se14  1  0.94653100  0.28021300  0.22773200  1
  Se  Se15  1  0.72013500  0.05312100  0.10560200  1
  Se  Se16  1  0.71978700  0.66631800  0.22773200  1
  Se  Se17  1  0.94687900  0.66701600  0.10560200  1
loop_
_geom_bond_atom_site_label_1
_geom_bond_atom_site_label_2
_geom_bond_distance
_geom_bond_site_symmetry_2
Mg0 Se12 2.750196 1_555
Mg0 Se14 2.750196 1_455
Mg0 Se16 2.750196 1_445
Mg0 Se17 2.751031 1_445
Mg0 Se13 2.751034 1_555
Mg0 Se15 2.751040 1_455
Mg1 Se7 2.750196 1_445
Mg1 Se9 2.750196 1_545
Mg1 Se11 2.750196 1_555
Mg1 Se10 2.751031 1_555
Mg1 Se6 2.751034 1_445
Mg1 Se8 2.751040 1_545
Mg2 Se0 2.750196 1_655
Mg2 Se2 2.750196 1_555
Mg2 Se4 2.750196 1_545
Mg2 Se5 2.751031 1_555
Mg2 Se1 2.751034 1_555
Mg2 Se3 2.751040 1_555
Mg3 Se15 2.750168 1_555
Mg3 Se17 2.750177 1_555
Mg3 Se13 2.750183 1_555
Mg3 Se14 2.751052 1_555
Mg3 Se12 2.751056 1_555
Mg3 Se16 2.751057 1_555
Mg4 Se8 2.750168 1_555
Mg4 Se10 2.750177 1_555
Mg4 Se6 2.750183 1_555
Mg4 Se9 2.751052 1_555
Mg4 Se7 2.751056 1_555
Mg4 Se11 2.751057 1_555
Mg5 Se1 2.750196 1_455
Mg5 Se3 2.750196 1_555
Mg5 Se5 2.750196 1_565
Mg5 Se4 2.751031 1_555
Mg5 Se0 2.751034 1_555
Mg5 Se2 2.751040 1_555
In0 Se1 2.547918 1_445
In0 Se3 2.547921 1_555
In0 Se5 2.547924 1_455
In1 Se0 2.547918 1_555
In1 Se2 2.547921 1_445
In1 Se4 2.547924 1_545
In2 Se7 2.547918 1_545
In2 Se9 2.547921 1_655
In2 Se11 2.547924 1_555
In3 Se6 2.547918 1_555
In3 Se8 2.547921 1_545
In3 Se10 2.547924 1_655
In4 Se13 2.547918 1_555
In4 Se15 2.547921 1_565
In4 Se17 2.547924 1_455
In5 Se12 2.547918 1_565
In5 Se14 2.547921 1_455
In5 Se16 2.547924 1_555
