# generated using pymatgen
data_Sr5Ti7O19
_symmetry_space_group_name_H-M   'P 1'
_cell_length_a   3.83557400
_cell_length_b   5.61462200
_cell_length_c   32.32718700
_cell_angle_alpha   90.00000000
_cell_angle_beta   90.00000000
_cell_angle_gamma   90.00000000
_symmetry_Int_Tables_number   1
_chemical_formula_structural   Sr5Ti7O19
_chemical_formula_sum   'Sr5 Ti7 O19'
_cell_volume   696.17561082
_cell_formula_units_Z   1
loop_
 _symmetry_equiv_pos_site_id
 _symmetry_equiv_pos_as_xyz
  1  'x, y, z'
loop_
 _atom_site_type_symbol
 _atom_site_label
 _atom_site_symmetry_multiplicity
 _atom_site_fract_x
 _atom_site_fract_y
 _atom_site_fract_z
 _atom_site_occupancy
  Sr  Sr0  1  0.00000000  0.00000000  0.17206000  1
  Sr  Sr1  1  0.00000000  0.00000000  0.82794000  1
  Sr  Sr2  1  0.00000000  0.50000000  0.08746600  1
  Sr  Sr3  1  0.00000000  0.50000000  0.91253400  1
  Sr  Sr4  1  0.00000000  0.00000000  0.00000000  1
  Ti  Ti0  1  0.50000000  0.00000000  0.25362700  1
  Ti  Ti1  1  0.50000000  0.00000000  0.74637300  1
  Ti  Ti2  1  0.50000000  0.50000000  0.17445400  1
  Ti  Ti3  1  0.50000000  0.50000000  0.82554600  1
  Ti  Ti4  1  0.50000000  0.00000000  0.08677300  1
  Ti  Ti5  1  0.50000000  0.00000000  0.91322700  1
  Ti  Ti6  1  0.50000000  0.50000000  0.00000000  1
  O  O0  1  0.00000000  0.00000000  0.26834800  1
  O  O1  1  0.00000000  0.00000000  0.73165200  1
  O  O2  1  0.50000000  0.23715500  0.21618900  1
  O  O3  1  0.50000000  0.76284500  0.21618900  1
  O  O4  1  0.50000000  0.76284500  0.78381100  1
  O  O5  1  0.50000000  0.23715500  0.78381100  1
  O  O6  1  0.00000000  0.50000000  0.17117400  1
  O  O7  1  0.00000000  0.50000000  0.82882600  1
  O  O8  1  0.50000000  0.75038900  0.13053500  1
  O  O9  1  0.50000000  0.24961100  0.13053500  1
  O  O10  1  0.50000000  0.24961100  0.86946500  1
  O  O11  1  0.50000000  0.75038900  0.86946500  1
  O  O12  1  0.00000000  0.00000000  0.08708200  1
  O  O13  1  0.00000000  0.00000000  0.91291800  1
  O  O14  1  0.50000000  0.75034200  0.04347700  1
  O  O15  1  0.50000000  0.24965800  0.04347700  1
  O  O16  1  0.50000000  0.24965800  0.95652300  1
  O  O17  1  0.50000000  0.75034200  0.95652300  1
  O  O18  1  0.00000000  0.50000000  0.00000000  1
loop_
_geom_bond_atom_site_label_1
_geom_bond_atom_site_label_2
_geom_bond_distance
_geom_bond_site_symmetry_2
O0 Ti0 1.975950 1_555
O0 Ti0 1.975950 1_455
O0 Sr0 3.112720 1_555
O1 Ti1 1.975950 1_555
O1 Ti1 1.975950 1_455
O1 Sr1 3.112720 1_555
O2 Ti0 1.799369 1_555
O2 Ti2 1.999547 1_555
O2 Sr0 2.736053 1_655
O2 Sr0 2.736053 1_555
O3 Ti0 1.799369 1_565
O3 Ti2 1.999547 1_555
O3 Sr0 2.736053 1_565
O3 Sr0 2.736053 1_665
O4 Ti1 1.799369 1_565
O4 Ti3 1.999547 1_555
O4 Sr1 2.736053 1_665
O4 Sr1 2.736053 1_565
O5 Ti1 1.799369 1_555
O5 Ti3 1.999547 1_555
O5 Sr1 2.736053 1_655
O5 Sr1 2.736053 1_555
O6 Ti2 1.920716 1_555
O6 Ti2 1.920716 1_455
O6 Sr2 2.706044 1_555
O6 Sr0 2.807457 1_565
O6 Sr0 2.807457 1_555
O7 Ti3 1.920716 1_455
O7 Ti3 1.920716 1_555
O7 Sr3 2.706044 1_555
O7 Sr1 2.807457 1_565
O7 Sr1 2.807457 1_555
O8 Ti4 1.991358 1_565
O8 Ti2 1.998037 1_555
O8 Sr0 2.728375 1_665
O8 Sr0 2.728375 1_565
O8 Sr2 2.755502 1_555
O8 Sr2 2.755502 1_655
O9 Ti4 1.991358 1_555
O9 Ti2 1.998037 1_555
O9 Sr0 2.728375 1_655
O9 Sr0 2.728375 1_555
O9 Sr2 2.755502 1_555
O9 Sr2 2.755502 1_655
O10 Ti5 1.991358 1_555
O10 Ti3 1.998037 1_555
O10 Sr1 2.728375 1_555
O10 Sr1 2.728375 1_655
O10 Sr3 2.755502 1_655
O10 Sr3 2.755502 1_555
O11 Ti5 1.991358 1_565
O11 Ti3 1.998037 1_555
O11 Sr1 2.728375 1_565
O11 Sr1 2.728375 1_665
O11 Sr3 2.755502 1_655
O11 Sr3 2.755502 1_555
O12 Ti4 1.917813 1_455
O12 Ti4 1.917813 1_555
O12 Sr0 2.747100 1_555
O12 Sr2 2.807338 1_545
O12 Sr2 2.807338 1_555
O12 Sr4 2.815116 1_555
O13 Ti5 1.917813 1_555
O13 Ti5 1.917813 1_455
O13 Sr1 2.747100 1_555
O13 Sr3 2.807338 1_555
O13 Sr3 2.807338 1_545
O13 Sr4 2.815116 1_556
O14 Ti4 1.980871 1_565
O14 Ti6 1.987723 1_555
O14 Sr4 2.760103 1_565
O14 Sr4 2.760103 1_665
O14 Sr2 2.770514 1_555
O14 Sr2 2.770514 1_655
O15 Ti4 1.980871 1_555
O15 Ti6 1.987723 1_555
O15 Sr4 2.760103 1_655
O15 Sr4 2.760103 1_555
O15 Sr2 2.770514 1_555
O15 Sr2 2.770514 1_655
O16 Ti5 1.980871 1_555
O16 Ti6 1.987723 1_556
O16 Sr4 2.760103 1_556
O16 Sr4 2.760103 1_656
O16 Sr3 2.770514 1_555
O16 Sr3 2.770514 1_655
O17 Ti5 1.980871 1_565
O17 Ti6 1.987723 1_556
O17 Sr4 2.760103 1_666
O17 Sr4 2.760103 1_566
O17 Sr3 2.770514 1_555
O17 Sr3 2.770514 1_655
O18 Ti6 1.917787 1_455
O18 Ti6 1.917787 1_555
O18 Sr4 2.807311 1_555
O18 Sr4 2.807311 1_565
O18 Sr2 2.827530 1_555
O18 Sr3 2.827530 1_554
