# generated using pymatgen
data_ZnS
_symmetry_space_group_name_H-M   'P 1'
_cell_length_a   13.63140563
_cell_length_b   14.01707228
_cell_length_c   12.74405418
_cell_angle_alpha   90.14536832
_cell_angle_beta   90.00963385
_cell_angle_gamma   89.63804257
_symmetry_Int_Tables_number   1
_chemical_formula_structural   ZnS
_chemical_formula_sum   'Zn50 S50'
_cell_volume   2434.98053678
_cell_formula_units_Z   50
loop_
 _symmetry_equiv_pos_site_id
 _symmetry_equiv_pos_as_xyz
  1  'x, y, z'
loop_
 _atom_site_type_symbol
 _atom_site_label
 _atom_site_symmetry_multiplicity
 _atom_site_fract_x
 _atom_site_fract_y
 _atom_site_fract_z
 _atom_site_occupancy
  Zn  Zn0  1  0.45004776  0.85907746  0.94481758  1
  Zn  Zn1  1  0.35984709  0.27782339  0.17478474  1
  Zn  Zn2  1  0.71490871  0.19221479  0.00455964  1
  Zn  Zn3  1  0.55303921  0.39369440  0.75606659  1
  Zn  Zn4  1  0.11561633  0.13691349  0.17863600  1
  Zn  Zn5  1  0.85057524  0.37581566  0.71275343  1
  Zn  Zn6  1  0.52497880  0.94368368  0.60939509  1
  Zn  Zn7  1  0.54648846  0.08676188  0.22005716  1
  Zn  Zn8  1  0.32242642  0.12046650  0.75196350  1
  Zn  Zn9  1  0.66919812  0.84675366  0.82270679  1
  Zn  Zn10  1  0.76162117  0.42074801  0.49832282  1
  Zn  Zn11  1  0.65120964  0.91203524  0.00721663  1
  Zn  Zn12  1  0.73938990  0.68006521  0.02738063  1
  Zn  Zn13  1  0.96728708  0.91948518  0.01872809  1
  Zn  Zn14  1  0.20350952  0.56854001  0.09632040  1
  Zn  Zn15  1  0.69571373  0.44024561  0.01981668  1
  Zn  Zn16  1  0.13222240  0.09818313  0.51120692  1
  Zn  Zn17  1  0.13309125  0.72405826  0.27496439  1
  Zn  Zn18  1  0.93241304  0.95062909  0.30581167  1
  Zn  Zn19  1  0.06419060  0.03654439  0.76102774  1
  Zn  Zn20  1  0.98823236  0.22453934  0.94272563  1
  Zn  Zn21  1  0.68083346  0.19883469  0.63201768  1
  Zn  Zn22  1  0.89902096  0.33303269  0.19599667  1
  Zn  Zn23  1  0.43813267  0.21742096  0.45891468  1
  Zn  Zn24  1  0.34074666  0.07138194  0.96991902  1
  Zn  Zn25  1  0.20916546  0.72106590  0.72077192  1
  Zn  Zn26  1  0.93621410  0.81430515  0.87504948  1
  Zn  Zn27  1  0.52400890  0.79657490  0.10424924  1
  Zn  Zn28  1  0.60013843  0.03710059  0.86574418  1
  Zn  Zn29  1  0.72490780  0.94905757  0.48852863  1
  Zn  Zn30  1  0.29192778  0.93230317  0.13985775  1
  Zn  Zn31  1  0.04250184  0.39072545  0.45089642  1
  Zn  Zn32  1  0.40167998  0.75756919  0.32800902  1
  Zn  Zn33  1  0.25863871  0.26855643  0.42536370  1
  Zn  Zn34  1  0.33716723  0.00705650  0.36034683  1
  Zn  Zn35  1  0.66897056  0.80380803  0.28581620  1
  Zn  Zn36  1  0.60684655  0.36242903  0.24620943  1
  Zn  Zn37  1  0.44887845  0.73641080  0.64804425  1
  Zn  Zn38  1  0.09346019  0.27478214  0.72217331  1
  Zn  Zn39  1  0.49645343  0.46211993  0.47327220  1
  Zn  Zn40  1  0.25140145  0.50926846  0.34265830  1
  Zn  Zn41  1  0.34667956  0.52947059  0.55779540  1
  Zn  Zn42  1  0.36448531  0.33544563  0.57515882  1
  Zn  Zn43  1  0.99999298  0.56251845  0.31982416  1
  Zn  Zn44  1  0.82221719  0.02500877  0.80249265  1
  Zn  Zn45  1  0.06274426  0.67860589  0.87292468  1
  Zn  Zn46  1  0.94214757  0.61924442  0.99379233  1
  Zn  Zn47  1  0.73547048  0.56526236  0.76717175  1
  Zn  Zn48  1  0.31495616  0.45928592  0.02198516  1
  Zn  Zn49  1  0.96765233  0.87949445  0.60143343  1
  S  S0  1  0.66413510  0.03185955  0.62506813  1
  S  S1  1  0.02586943  0.99066312  0.16845888  1
  S  S2  1  0.41695040  0.05291322  0.51765317  1
  S  S3  1  0.02896182  0.26936027  0.11150879  1
  S  S4  1  0.11611663  0.27229061  0.54419941  1
  S  S5  1  0.26897136  0.15782560  0.09642218  1
  S  S6  1  0.24462782  0.36116720  0.27549290  1
  S  S7  1  0.74888895  0.81961135  0.12101721  1
  S  S8  1  0.74123937  0.30443509  0.13239207  1
  S  S9  1  0.69984869  0.40990078  0.83881296  1
  S  S10  1  0.54004635  0.29879903  0.60798686  1
  S  S11  1  0.42518328  0.49706456  0.77453871  1
  S  S12  1  0.49907856  0.23265145  0.28726845  1
  S  S13  1  0.22064436  0.64104538  0.87241236  1
  S  S14  1  0.30795027  0.68877079  0.57873474  1
  S  S15  1  0.80241515  0.04695949  0.36496909  1
  S  S16  1  0.49491821  0.85083672  0.76172673  1
  S  S17  1  0.28470455  0.64477721  0.25230752  1
  S  S18  1  0.07713614  0.83091144  0.73474103  1
  S  S19  1  0.82737123  0.87035535  0.73990663  1
  S  S20  1  0.81473366  0.54484610  0.08275983  1
  S  S21  1  0.81434787  0.27615215  0.57033588  1
  S  S22  1  0.95779295  0.06381938  0.90367108  1
  S  S23  1  0.20558621  0.11708295  0.35099125  1
  S  S24  1  0.53960824  0.70155089  0.24610521  1
  S  S25  1  0.17190943  0.15649915  0.81891509  1
  S  S26  1  0.63943472  0.46767399  0.38226187  1
  S  S27  1  0.02466846  0.70502380  0.42336797  1
  S  S28  1  0.44821369  0.35202592  0.03161099  1
  S  S29  1  0.82929237  0.52730099  0.62769758  1
  S  S30  1  0.98329837  0.35099125  0.82489065  1
  S  S31  1  0.66537178  0.68140694  0.86695491  1
  S  S32  1  0.53754804  0.80148505  0.49925738  1
  S  S33  1  0.90717127  0.42448607  0.34897344  1
  S  S34  1  0.18259406  0.88402441  0.27387008  1
  S  S35  1  0.12925220  0.53036025  0.46363534  1
  S  S36  1  0.61999592  0.07051342  0.06055881  1
  S  S37  1  0.72012715  0.15678271  0.82661733  1
  S  S38  1  0.30247788  0.43144132  0.70664359  1
  S  S39  1  0.69165287  0.78603523  0.47290453  1
  S  S40  1  0.53624449  0.45659182  0.10530368  1
  S  S41  1  0.45395012  0.13033163  0.85472762  1
  S  S42  1  0.27870810  0.85296287  0.40220957  1
  S  S43  1  0.43955503  0.95705047  0.22814322  1
  S  S44  1  0.66630042  -0.01115774  0.31148264  1
  S  S45  1  0.29041353  0.91404267  0.96364973  1
  S  S46  1  0.99678979  0.04380962  0.59518864  1
  S  S47  1  0.92545063  0.82614078  0.42777111  1
  S  S48  1  0.28685880  0.04035031  0.60373962  1
  S  S49  1  0.04946800  0.62083803  0.15220113  1
loop_
_geom_bond_atom_site_label_1
_geom_bond_atom_site_label_2
_geom_bond_distance
_geom_bond_site_symmetry_2
Zn13 Zn26 2.387401 1_554
S0 Zn29 2.244835 1_545
S0 Zn6 2.279028 1_545
S0 Zn21 2.354417 1_555
S1 Zn18 2.239778 1_455
S1 Zn13 2.296552 1_455
S1 Zn4 2.397137 1_565
S2 S48 2.094016 1_555
S2 Zn34 2.369896 1_555
S2 Zn6 2.420672 1_545
S2 Zn23 2.445040 1_555
S3 Zn22 2.251464 1_455
S3 Zn20 2.307992 1_454
S3 Zn4 2.356647 1_555
S4 Zn31 2.272741 1_555
S4 Zn38 2.289239 1_555
S4 Zn33 2.463732 1_555
S4 Zn16 2.483741 1_555
S5 Zn24 2.236103 1_554
S5 Zn1 2.319142 1_555
S5 Zn4 2.358744 1_555
S6 Zn40 2.245912 1_555
S6 Zn33 2.319246 1_555
S6 Zn1 2.334233 1_555
S7 Zn12 2.293056 1_555
S7 Zn11 2.354074 1_555
S7 Zn35 2.377585 1_555
S8 Zn2 2.291521 1_555
S8 Zn22 2.335007 1_555
S8 Zn15 2.462918 1_555
S8 Zn36 2.469197 1_555
S9 Zn3 2.274274 1_555
S9 Zn15 2.345170 1_556
S9 Zn47 2.415655 1_555
S9 Zn5 2.648659 1_555
S10 Zn3 2.313459 1_555
S10 Zn21 2.389188 1_555
S10 Zn42 2.480172 1_555
S10 Zn23 2.616949 1_555
S10 Zn39 2.922973 1_555
S11 S38 2.099393 1_555
S11 Zn3 2.271324 1_555
S12 Zn7 2.303850 1_555
S12 Zn23 2.350747 1_555
S12 Zn36 2.404128 1_555
S12 Zn1 2.458952 1_555
S13 Zn45 2.212630 1_555
S13 Zn25 2.241848 1_555
S14 Zn37 2.220177 1_555
S14 Zn25 2.298634 1_555
S14 Zn41 2.306078 1_555
S15 S44 2.141669 1_555
S15 Zn18 2.344532 1_545
S15 Zn29 2.347090 1_545
S16 Zn37 2.250774 1_555
S16 Zn6 2.377020 1_555
S16 Zn0 2.414551 1_555
S16 Zn9 2.499791 1_555
S17 Zn40 2.271985 1_555
S17 Zn17 2.357784 1_555
S17 Zn32 2.448772 1_555
S17 Zn14 2.514392 1_555
S18 Zn49 2.359964 1_455
S18 Zn25 2.367530 1_555
S18 Zn26 2.636381 1_455
S18 Zn45 2.778825 1_555
S18 Zn19 2.905190 1_565
S19 Zn44 2.308620 1_565
S19 Zn26 2.403343 1_555
S19 Zn9 2.425556 1_555
S19 Zn49 2.606263 1_555
S20 Zn12 2.264355 1_555
S20 Zn46 2.327912 1_554
S20 Zn15 2.334315 1_555
S21 Zn21 2.265954 1_555
S21 Zn10 2.336151 1_555
S21 Zn5 2.342038 1_555
S22 Zn44 2.319985 1_555
S22 Zn20 2.345453 1_555
S22 Zn19 2.354703 1_655
S22 Zn13 2.504307 1_546
S23 Zn16 2.290415 1_555
S23 Zn34 2.361309 1_555
S23 Zn33 2.436868 1_555
S23 Zn4 2.530589 1_555
S24 Zn27 2.257444 1_555
S24 Zn32 2.284488 1_555
S24 Zn35 2.334115 1_555
S25 Zn8 2.275550 1_555
S25 Zn38 2.323787 1_555
S25 Zn19 2.356268 1_555
S26 Zn39 2.270059 1_555
S26 Zn36 2.318391 1_555
S26 Zn10 2.320507 1_555
S27 S47 2.164505 1_455
S27 Zn43 2.416485 1_455
S27 Zn17 2.416795 1_555
S28 S40 2.117808 1_555
S28 Zn48 2.354030 1_555
S28 Zn1 2.426560 1_555
S29 Zn47 2.250675 1_555
S29 Zn5 2.402429 1_555
S29 Zn10 2.409243 1_555
S30 Zn38 2.254544 1_655
S30 Zn20 2.326646 1_555
S30 Zn5 2.330294 1_555
S31 Zn47 2.269536 1_555
S31 Zn12 2.279805 1_556
S31 Zn9 2.387572 1_555
S32 S39 2.136962 1_555
S32 Zn37 2.431421 1_555
S32 Zn6 2.440062 1_555
S32 Zn32 2.928855 1_555
S33 Zn31 2.303364 1_655
S33 Zn22 2.333538 1_555
S33 Zn43 2.348868 1_555
S33 Zn10 2.750439 1_555
S34 S42 2.139362 1_555
S34 Zn17 2.345748 1_555
S34 Zn30 2.369688 1_555
S35 Zn40 2.286731 1_555
S35 Zn31 2.298523 1_555
S35 Zn43 2.580654 1_455
S36 Zn2 2.264436 1_555
S36 Zn7 2.276629 1_555
S36 Zn11 2.357599 1_545
S36 Zn28 2.540086 1_554
S37 Zn2 2.321230 1_556
S37 Zn44 2.325439 1_555
S37 Zn28 2.403618 1_555
S37 Zn21 2.605315 1_555
S38 Zn42 2.303799 1_555
S38 Zn41 2.423543 1_555
S39 Zn29 2.340417 1_555
S39 Zn35 2.417472 1_555
S40 Zn36 2.426581 1_555
S40 Zn15 2.440902 1_555
S41 Zn8 2.224860 1_555
S41 Zn24 2.289556 1_555
S41 Zn28 2.380441 1_555
S42 Zn32 2.336203 1_555
S42 Zn34 2.369119 1_565
S43 Zn34 2.293531 1_565
S43 Zn30 2.332790 1_555
S43 Zn7 2.340003 1_565
S44 Zn7 2.426505 1_555
S44 Zn29 2.457682 1_545
S44 Zn35 2.613385 1_545
S45 Zn30 2.259605 1_556
S45 Zn24 2.315013 1_565
S45 Zn0 2.316116 1_555
S46 Zn16 2.270938 1_655
S46 Zn19 2.306618 1_655
S46 Zn49 2.341239 1_545
S47 Zn18 2.342119 1_555
S47 Zn49 2.405187 1_555
S48 Zn8 2.249491 1_555
S48 Zn16 2.544303 1_555
S49 Zn14 2.330690 1_555
S49 Zn43 2.388041 1_455
S49 Zn17 2.418503 1_555
S49 Zn46 2.493047 1_454
