# generated using pymatgen
data_K2AlAuI6
_symmetry_space_group_name_H-M   'P 1'
_cell_length_a   8.20113900
_cell_length_b   8.20113900
_cell_length_c   8.20113900
_cell_angle_alpha   60.00000000
_cell_angle_beta   60.00000000
_cell_angle_gamma   60.00000000
_symmetry_Int_Tables_number   1
_chemical_formula_structural   K2AlAuI6
_chemical_formula_sum   'K2 Al1 Au1 I6'
_cell_volume   390.03853843
_cell_formula_units_Z   1
loop_
 _symmetry_equiv_pos_site_id
 _symmetry_equiv_pos_as_xyz
  1  'x, y, z'
loop_
 _atom_site_type_symbol
 _atom_site_label
 _atom_site_symmetry_multiplicity
 _atom_site_fract_x
 _atom_site_fract_y
 _atom_site_fract_z
 _atom_site_occupancy
  K  K0  1  0.75000000  0.75000000  0.75000000  1
  K  K1  1  0.25000000  0.25000000  0.25000000  1
  Al  Al0  1  0.00000000  0.00000000  0.00000000  1
  Au  Au0  1  0.50000000  0.50000000  0.50000000  1
  I  I0  1  0.75705000  0.24295000  0.24295000  1
  I  I1  1  0.24295000  0.24295000  0.75705000  1
  I  I2  1  0.24295000  0.75705000  0.75705000  1
  I  I3  1  0.24295000  0.75705000  0.24295000  1
  I  I4  1  0.75705000  0.24295000  0.75705000  1
  I  I5  1  0.75705000  0.75705000  0.24295000  1
loop_
_geom_bond_atom_site_label_1
_geom_bond_atom_site_label_2
_geom_bond_distance
_geom_bond_site_symmetry_2
Al0 I5 2.817773 1_445
Al0 I2 2.817773 1_544
Al0 I4 2.817773 1_454
Al0 I1 2.817773 1_554
Al0 I0 2.817773 1_455
Al0 I3 2.817773 1_545
Au0 I0 2.981308 1_555
Au0 I1 2.981308 1_555
Au0 I3 2.981308 1_555
Au0 I2 2.981308 1_555
Au0 I5 2.981308 1_555
Au0 I4 2.981308 1_555
I0 K1 4.101385 1_655
I0 K0 4.101385 1_554
I0 K1 4.101385 1_555
I0 K0 4.101385 1_545
I1 K1 4.101385 1_556
I1 K0 4.101385 1_455
I1 K0 4.101385 1_545
I1 K1 4.101385 1_555
I2 K1 4.101385 1_556
I2 K0 4.101385 1_555
I2 K1 4.101385 1_565
I2 K0 4.101385 1_455
I3 K1 4.101385 1_565
I3 K0 4.101385 1_554
I3 K0 4.101385 1_455
I3 K1 4.101385 1_555
I4 K1 4.101385 1_556
I4 K0 4.101385 1_555
I4 K1 4.101385 1_655
I4 K0 4.101385 1_545
I5 K0 4.101385 1_555
I5 K1 4.101385 1_655
I5 K0 4.101385 1_554
I5 K1 4.101385 1_565
