# generated using pymatgen
data_K2ZnCr2(H2O5)2
_symmetry_space_group_name_H-M   'P 1'
_cell_length_a   8.08322226
_cell_length_b   8.08322226
_cell_length_c   12.53243518
_cell_angle_alpha   66.71373818
_cell_angle_beta   66.71373818
_cell_angle_gamma   41.65504573
_symmetry_Int_Tables_number   1
_chemical_formula_structural   K2ZnCr2(H2O5)2
_chemical_formula_sum   'K4 Zn2 Cr4 H8 O20'
_cell_volume   493.16501702
_cell_formula_units_Z   2
loop_
 _symmetry_equiv_pos_site_id
 _symmetry_equiv_pos_as_xyz
  1  'x, y, z'
loop_
 _atom_site_type_symbol
 _atom_site_label
 _atom_site_symmetry_multiplicity
 _atom_site_fract_x
 _atom_site_fract_y
 _atom_site_fract_z
 _atom_site_occupancy
  K  K0  1  0.68784900  0.05047000  0.54395900  1
  K  K1  1  0.31215100  0.94953000  0.45604100  1
  K  K2  1  0.94953000  0.31215100  0.95604100  1
  K  K3  1  0.05047000  0.68784900  0.04395900  1
  Zn  Zn0  1  0.84541500  0.15458500  0.75000000  1
  Zn  Zn1  1  0.15458500  0.84541500  0.25000000  1
  Cr  Cr0  1  0.45603600  0.77073300  0.79015100  1
  Cr  Cr1  1  0.54396400  0.22926700  0.20984900  1
  Cr  Cr2  1  0.22926700  0.54396400  0.70984900  1
  Cr  Cr3  1  0.77073300  0.45603600  0.29015100  1
  H  H0  1  0.66657700  0.94345100  0.86644600  1
  H  H1  1  0.33342300  0.05654900  0.13355400  1
  H  H2  1  0.05654900  0.33342300  0.63355400  1
  H  H3  1  0.94345100  0.66657700  0.36644600  1
  H  H4  1  0.51155700  0.18817300  0.91040300  1
  H  H5  1  0.48844300  0.81182700  0.08959700  1
  H  H6  1  0.81182700  0.48844300  0.58959700  1
  H  H7  1  0.18817300  0.51155700  0.41040300  1
  O  O0  1  0.52042200  0.81384600  0.64491500  1
  O  O1  1  0.47957800  0.18615400  0.35508500  1
  O  O2  1  0.18615400  0.47957800  0.85508500  1
  O  O3  1  0.81384600  0.52042200  0.14491500  1
  O  O4  1  0.55424800  0.83800700  0.84406400  1
  O  O5  1  0.44575200  0.16199300  0.15593600  1
  O  O6  1  0.16199300  0.44575200  0.65593600  1
  O  O7  1  0.83800700  0.55424800  0.34406400  1
  O  O8  1  0.53385100  0.38907800  0.65962400  1
  O  O9  1  0.46614900  0.61092200  0.34037600  1
  O  O10  1  0.61092200  0.46614900  0.84037600  1
  O  O11  1  0.38907800  0.53385100  0.15962400  1
  O  O12  1  0.85896600  0.04283700  0.16430500  1
  O  O13  1  0.14103400  0.95716300  0.83569500  1
  O  O14  1  0.95716300  0.14103400  0.33569500  1
  O  O15  1  0.04283700  0.85896600  0.66430500  1
  O  O16  1  0.68701000  0.02766300  0.89287900  1
  O  O17  1  0.31299000  0.97233700  0.10712100  1
  O  O18  1  0.97233700  0.31299000  0.60712100  1
  O  O19  1  0.02766300  0.68701000  0.39287900  1
loop_
_geom_bond_atom_site_label_1
_geom_bond_atom_site_label_2
_geom_bond_distance
_geom_bond_site_symmetry_2
K0 O0 2.773378 1_545
K0 O8 2.785888 1_555
K0 O15 2.800541 1_645
K0 O1 2.824706 1_555
K0 O19 2.826377 1_645
K0 O14 2.909567 1_555
K0 O6 2.963123 1_555
K1 O1 2.773378 1_565
K1 O9 2.785888 1_555
K1 O14 2.800541 1_465
K1 O0 2.824706 1_555
K1 O18 2.826377 1_465
K1 O15 2.909567 1_555
K1 O7 2.963123 1_555
K2 O2 2.773378 1_655
K2 O10 2.785888 1_555
K2 O13 2.800541 1_645
K2 O3 2.824706 1_556
K2 O17 2.826377 1_646
K2 O12 2.909567 1_556
K2 O4 2.963123 1_555
K3 O3 2.773378 1_455
K3 O11 2.785888 1_555
K3 O12 2.800541 1_465
K3 O2 2.824706 1_554
K3 O16 2.826377 1_464
K3 O13 2.909567 1_554
K3 O5 2.963123 1_555
Cr0 O0 1.651007 1_555
Cr0 O4 1.655942 1_555
Cr0 O10 1.678364 1_555
Cr0 O13 1.696230 1_555
Cr1 O1 1.651007 1_555
Cr1 O5 1.655942 1_555
Cr1 O11 1.678364 1_555
Cr1 O12 1.696230 1_555
Cr2 O2 1.651007 1_555
Cr2 O6 1.655942 1_555
Cr2 O8 1.678364 1_555
Cr2 O15 1.696230 1_555
Cr3 O3 1.651007 1_555
Cr3 O7 1.655942 1_555
Cr3 O9 1.678364 1_555
Cr3 O14 1.696230 1_555
H0 O16 0.994952 1_565
H1 O17 0.994952 1_545
H2 O18 0.994952 1_455
H3 O19 0.994952 1_655
H4 O16 0.986068 1_555
H5 O17 0.986068 1_555
H6 O18 0.986068 1_555
H7 O19 0.986068 1_555
O8 Zn0 2.154708 1_555
O9 Zn1 2.154708 1_555
O10 Zn0 2.154708 1_555
O11 Zn1 2.154708 1_555
O12 Zn1 2.094214 1_645
O13 Zn0 2.094214 1_465
O14 Zn1 2.094214 1_645
O15 Zn0 2.094214 1_465
O16 Zn0 2.143853 1_555
O17 Zn1 2.143853 1_555
O18 Zn0 2.143853 1_555
O19 Zn1 2.143853 1_555
