# generated using pymatgen
data_Zn(CoO2)2
_symmetry_space_group_name_H-M   'P 1'
_cell_length_a   2.92739982
_cell_length_b   9.74213473
_cell_length_c   9.69061310
_cell_angle_alpha   89.99040038
_cell_angle_beta   90.09021003
_cell_angle_gamma   90.13285042
_symmetry_Int_Tables_number   1
_chemical_formula_structural   Zn(CoO2)2
_chemical_formula_sum   'Zn4 Co8 O16'
_cell_volume   276.36670168
_cell_formula_units_Z   4
loop_
 _symmetry_equiv_pos_site_id
 _symmetry_equiv_pos_as_xyz
  1  'x, y, z'
loop_
 _atom_site_type_symbol
 _atom_site_label
 _atom_site_symmetry_multiplicity
 _atom_site_fract_x
 _atom_site_fract_y
 _atom_site_fract_z
 _atom_site_occupancy
  Zn  Zn0  1  0.26245800  0.74776300  0.13736800  1
  Zn  Zn1  1  0.26466500  0.25122700  0.36180500  1
  Zn  Zn2  1  0.73292800  0.75637600  0.63999800  1
  Zn  Zn3  1  0.73458200  0.24981300  0.86140400  1
  Co  Co0  1  0.75481600  0.57157600  0.38317000  1
  Co  Co1  1  0.75145700  0.07196800  0.11831600  1
  Co  Co2  1  0.24623500  0.07144000  0.61729000  1
  Co  Co3  1  0.75851800  0.42962900  0.11831200  1
  Co  Co4  1  0.24614100  0.42951400  0.61781600  1
  Co  Co5  1  0.75333600  0.92841900  0.38097600  1
  Co  Co6  1  0.24264600  0.92990700  0.88290000  1
  Co  Co7  1  0.25084500  0.57107100  0.88126800  1
  O  O0  1  0.25070300  0.88674100  0.52481600  1
  O  O1  1  0.74864700  0.11182800  0.47380800  1
  O  O2  1  0.25356500  0.99884300  0.24912800  1
  O  O3  1  0.74162300  0.88865300  0.02493600  1
  O  O4  1  0.75449300  0.61357400  0.02605800  1
  O  O5  1  0.76443900  0.24984400  0.20800000  1
  O  O6  1  0.24912100  0.11398200  0.97378700  1
  O  O7  1  0.23540100  0.24893700  0.70771300  1
  O  O8  1  0.25584100  0.49892500  0.25072200  1
  O  O9  1  0.74321800  0.99682000  0.74885100  1
  O  O10  1  0.25454900  0.61222200  0.52577000  1
  O  O11  1  0.23436300  0.74928500  0.79321400  1
  O  O12  1  0.76130800  0.74908000  0.29138900  1
  O  O13  1  0.74756200  0.49740600  0.75093700  1
  O  O14  1  0.25999400  0.38829100  0.97541500  1
  O  O15  1  0.74654300  0.38686600  0.47483400  1
loop_
_geom_bond_atom_site_label_1
_geom_bond_atom_site_label_2
_geom_bond_distance
_geom_bond_site_symmetry_2
Co0 O12 1.944523 1_555
Co0 O15 2.006751 1_555
Co0 O10 2.048818 1_655
Co0 O10 2.054348 1_555
Co0 O8 2.066779 1_555
Co0 O8 2.076194 1_655
Co1 O5 1.939014 1_555
Co1 O3 2.002318 1_545
Co1 O2 2.059011 1_545
Co1 O6 2.062778 1_654
Co1 O2 2.067279 1_645
Co1 O6 2.070685 1_554
Co2 O7 1.939023 1_555
Co2 O0 2.010376 1_545
Co2 O1 2.050854 1_455
Co2 O1 2.062721 1_555
Co2 O9 2.066216 1_545
Co2 O9 2.079145 1_445
Co3 O5 1.955247 1_555
Co3 O4 2.002554 1_555
Co3 O14 2.049543 1_554
Co3 O8 2.052211 1_655
Co3 O14 2.060135 1_654
Co3 O8 2.068440 1_555
Co4 O7 1.963167 1_555
Co4 O10 1.990942 1_555
Co4 O15 2.054856 1_455
Co4 O13 2.059752 1_455
Co4 O13 2.060598 1_555
Co4 O15 2.061004 1_555
Co5 O12 1.951284 1_555
Co5 O1 2.000699 1_565
Co5 O0 2.055210 1_655
Co5 O2 2.059641 1_555
Co5 O2 2.061192 1_655
Co5 O0 2.067934 1_555
Co6 O11 1.962789 1_555
Co6 O6 1.998066 1_565
Co6 O3 2.045950 1_556
Co6 O3 2.051993 1_456
Co6 O9 2.061082 1_455
Co6 O9 2.064216 1_555
Co7 O11 1.935082 1_555
Co7 O14 2.000865 1_555
Co7 O13 2.058025 1_555
Co7 O4 2.064177 1_456
Co7 O13 2.066482 1_455
Co7 O4 2.074801 1_556
O0 Zn2 2.203299 1_555
O0 Zn2 2.269852 1_455
O1 Zn1 2.243493 1_555
O1 Zn1 2.302036 1_655
O3 Zn0 2.243659 1_555
O3 Zn0 2.323724 1_655
O4 Zn0 2.227400 1_555
O4 Zn0 2.251697 1_655
O5 Zn1 2.087837 1_655
O5 Zn1 2.090242 1_555
O6 Zn3 2.225407 1_555
O6 Zn3 2.282444 1_455
O7 Zn3 2.084889 1_555
O7 Zn3 2.091565 1_455
O10 Zn2 2.268308 1_555
O10 Zn2 2.354795 1_455
O11 Zn2 2.084643 1_555
O11 Zn2 2.087482 1_455
O12 Zn0 2.086510 1_555
O12 Zn0 2.094556 1_655
O14 Zn3 2.232680 1_555
O14 Zn3 2.322048 1_455
O15 Zn1 2.218731 1_555
O15 Zn1 2.293775 1_655
