# generated using pymatgen
data_MgTi
_symmetry_space_group_name_H-M   'P 1'
_cell_length_a   5.26489647
_cell_length_b   5.26489647
_cell_length_c   5.91145551
_cell_angle_alpha   60.37675035
_cell_angle_beta   60.37675035
_cell_angle_gamma   59.53533794
_symmetry_Int_Tables_number   1
_chemical_formula_structural   MgTi
_chemical_formula_sum   'Mg3 Ti3'
_cell_volume   116.10304096
_cell_formula_units_Z   3
loop_
 _symmetry_equiv_pos_site_id
 _symmetry_equiv_pos_as_xyz
  1  'x, y, z'
loop_
 _atom_site_type_symbol
 _atom_site_label
 _atom_site_symmetry_multiplicity
 _atom_site_fract_x
 _atom_site_fract_y
 _atom_site_fract_z
 _atom_site_occupancy
  Mg  Mg0  1  0.33529900  0.66470100  0.00000000  1
  Mg  Mg1  1  0.16247500  0.16428500  0.50362600  1
  Mg  Mg2  1  0.83571500  0.83752500  0.49637400  1
  Ti  Ti0  1  0.65859500  0.99449400  0.00706600  1
  Ti  Ti1  1  0.00550600  0.34140500  0.99293400  1
  Ti  Ti2  1  0.50240900  0.49759100  0.50000000  1
loop_
_geom_bond_atom_site_label_1
_geom_bond_atom_site_label_2
_geom_bond_distance
_geom_bond_site_symmetry_2
Mg0 Mg1 2.937913 1_555
Mg0 Mg2 2.937913 1_554
Mg0 Mg2 2.989817 1_455
Mg0 Mg1 2.989817 1_564
Mg0 Ti1 3.008758 1_554
Mg0 Ti0 3.008758 1_555
Mg0 Ti0 3.030533 1_545
Mg0 Ti1 3.030533 1_654
Mg0 Ti1 3.059689 1_564
Mg0 Ti0 3.059689 1_455
Mg0 Ti2 3.082135 1_554
Mg0 Ti2 3.082135 1_555
Mg1 Ti0 2.943376 1_446
Mg1 Ti0 2.980753 1_545
Mg1 Ti2 3.001567 1_455
Mg1 Mg2 3.011316 1_445
Mg1 Ti2 3.031592 1_545
Mg1 Mg2 3.043778 1_545
Mg1 Mg2 3.043778 1_455
Mg1 Ti2 3.064716 1_555
Mg1 Ti1 3.072649 1_555
Mg1 Ti1 3.093289 1_554
Mg2 Ti1 2.943376 1_664
Mg2 Ti1 2.980753 1_655
Mg2 Ti2 3.001567 1_565
Mg2 Ti2 3.031592 1_655
Mg2 Ti2 3.064716 1_555
Mg2 Ti0 3.072649 1_555
Mg2 Ti0 3.093289 1_556
Ti0 Ti2 2.878852 1_555
Ti0 Ti1 2.988441 1_654
Ti0 Ti1 2.988441 1_564
Ti0 Ti2 3.009346 1_564
Ti0 Ti1 3.124069 1_664
Ti1 Ti2 2.878852 1_555
Ti1 Ti2 3.009346 1_456
