# generated using pymatgen
data_NdFe6Bi(BO3)8
_symmetry_space_group_name_H-M   'P 1'
_cell_length_a   7.51279340
_cell_length_b   7.51279340
_cell_length_c   7.51279317
_cell_angle_alpha   79.55827528
_cell_angle_beta   79.55827528
_cell_angle_gamma   79.55827642
_symmetry_Int_Tables_number   1
_chemical_formula_structural   NdFe6Bi(BO3)8
_chemical_formula_sum   'Nd1 Fe6 Bi1 B8 O24'
_cell_volume   405.25370371
_cell_formula_units_Z   1
loop_
 _symmetry_equiv_pos_site_id
 _symmetry_equiv_pos_as_xyz
  1  'x, y, z'
loop_
 _atom_site_type_symbol
 _atom_site_label
 _atom_site_symmetry_multiplicity
 _atom_site_fract_x
 _atom_site_fract_y
 _atom_site_fract_z
 _atom_site_occupancy
  Nd  Nd0  1  0.00000000  0.00000000  0.00000000  1
  Fe  Fe0  1  0.44549100  0.00000000  0.55450900  1
  Fe  Fe1  1  0.94789100  0.50000000  0.05210900  1
  Fe  Fe2  1  0.00000000  0.55450900  0.44549100  1
  Fe  Fe3  1  0.50000000  0.05210900  0.94789100  1
  Fe  Fe4  1  0.05210900  0.94789100  0.50000000  1
  Fe  Fe5  1  0.55450900  0.44549100  0.00000000  1
  Bi  Bi0  1  0.50000000  0.50000000  0.50000000  1
  B  B0  1  0.25403200  0.25403200  0.25403200  1
  B  B1  1  0.74596800  0.74596800  0.74596800  1
  B  B2  1  0.80544800  0.25375300  0.69523300  1
  B  B3  1  0.30476700  0.74624700  0.19455200  1
  B  B4  1  0.25375300  0.69523300  0.80544800  1
  B  B5  1  0.74624700  0.19455200  0.30476700  1
  B  B6  1  0.69523300  0.80544800  0.25375300  1
  B  B7  1  0.19455200  0.30476700  0.74624700  1
  O  O0  1  0.66199700  0.25399300  0.84152700  1
  O  O1  1  0.15847300  0.74600700  0.33800300  1
  O  O2  1  0.25399300  0.84152700  0.66199700  1
  O  O3  1  0.74600700  0.33800300  0.15847300  1
  O  O4  1  0.84152700  0.66199700  0.25399300  1
  O  O5  1  0.33800300  0.15847300  0.74600700  1
  O  O6  1  0.93205000  0.09647100  0.69295800  1
  O  O7  1  0.43623300  0.59270900  0.19001500  1
  O  O8  1  0.09647100  0.69295800  0.93205000  1
  O  O9  1  0.59270900  0.19001500  0.43623300  1
  O  O10  1  0.69295800  0.93205000  0.09647100  1
  O  O11  1  0.19001500  0.43623300  0.59270900  1
  O  O12  1  0.80998500  0.40729100  0.56376700  1
  O  O13  1  0.30704200  0.90352900  0.06795000  1
  O  O14  1  0.56376700  0.80998500  0.40729100  1
  O  O15  1  0.06795000  0.30704200  0.90352900  1
  O  O16  1  0.40729100  0.56376700  0.80998500  1
  O  O17  1  0.90352900  0.06795000  0.30704200  1
  O  O18  1  0.39612800  0.25468100  0.10638000  1
  O  O19  1  0.89362000  0.74531900  0.60387200  1
  O  O20  1  0.25468100  0.10638000  0.39612800  1
  O  O21  1  0.74531900  0.60387200  0.89362000  1
  O  O22  1  0.10638000  0.39612800  0.25468100  1
  O  O23  1  0.60387200  0.89362000  0.74531900  1
loop_
_geom_bond_atom_site_label_1
_geom_bond_atom_site_label_2
_geom_bond_distance
_geom_bond_site_symmetry_2
Nd0 O6 2.407008 1_454
Nd0 O17 2.407008 1_455
Nd0 O10 2.407008 1_445
Nd0 O15 2.407008 1_554
Nd0 O8 2.407008 1_544
Nd0 O13 2.407008 1_545
Fe0 O9 1.951157 1_555
Fe0 O14 1.951157 1_545
Fe0 O23 1.991941 1_545
Fe0 O20 1.991941 1_555
Fe0 O5 1.997662 1_555
Fe0 O2 1.997662 1_545
Fe1 O8 1.977048 1_654
Fe1 O15 1.977048 1_654
Fe1 O22 2.057281 1_655
Fe1 O21 2.057281 1_554
Fe1 O4 2.073026 1_555
Fe1 O3 2.073026 1_555
Fe2 O12 1.951157 1_455
Fe2 O11 1.951157 1_555
Fe2 O22 1.991941 1_555
Fe2 O19 1.991941 1_455
Fe2 O4 1.997662 1_455
Fe2 O1 1.997662 1_555
Fe3 O13 1.977048 1_546
Fe3 O10 1.977048 1_546
Fe3 O23 2.057281 1_545
Fe3 O18 2.057281 1_556
Fe3 O5 2.073026 1_555
Fe3 O0 2.073026 1_555
Fe4 O17 1.977048 1_465
Fe4 O6 1.977048 1_465
Fe4 O19 2.057281 1_455
Fe4 O20 2.057281 1_565
Fe4 O1 2.073026 1_555
Fe4 O2 2.073026 1_555
Fe5 O7 1.951157 1_555
Fe5 O16 1.951157 1_554
Fe5 O18 1.991941 1_555
Fe5 O21 1.991941 1_554
Fe5 O3 1.997662 1_555
Fe5 O0 1.997662 1_554
Bi0 O7 2.415303 1_555
Bi0 O16 2.415303 1_555
Bi0 O11 2.415303 1_555
Bi0 O14 2.415303 1_555
Bi0 O9 2.415303 1_555
Bi0 O12 2.415303 1_555
B0 O18 1.393144 1_555
B0 O20 1.393144 1_555
B0 O22 1.393144 1_555
B1 O21 1.393144 1_555
B1 O19 1.393144 1_555
B1 O23 1.393144 1_555
B2 O6 1.376679 1_555
B2 O12 1.377069 1_555
B2 O0 1.392881 1_555
B3 O13 1.376679 1_555
B3 O7 1.377069 1_555
B3 O1 1.392881 1_555
B4 O8 1.376679 1_555
B4 O16 1.377069 1_555
B4 O2 1.392881 1_555
B5 O17 1.376679 1_555
B5 O9 1.377069 1_555
B5 O3 1.392881 1_555
B6 O10 1.376679 1_555
B6 O14 1.377069 1_555
B6 O4 1.392881 1_555
B7 O15 1.376679 1_555
B7 O11 1.377069 1_555
B7 O5 1.392881 1_555
