# generated using pymatgen
data_PrCoGe2
_symmetry_space_group_name_H-M   'P 1'
_cell_length_a   8.57663373
_cell_length_b   8.57663373
_cell_length_c   4.21288713
_cell_angle_alpha   90.00000000
_cell_angle_beta   90.00000000
_cell_angle_gamma   151.16586413
_symmetry_Int_Tables_number   1
_chemical_formula_structural   PrCoGe2
_chemical_formula_sum   'Pr2 Co2 Ge4'
_cell_volume   149.45447069
_cell_formula_units_Z   2
loop_
 _symmetry_equiv_pos_site_id
 _symmetry_equiv_pos_as_xyz
  1  'x, y, z'
loop_
 _atom_site_type_symbol
 _atom_site_label
 _atom_site_symmetry_multiplicity
 _atom_site_fract_x
 _atom_site_fract_y
 _atom_site_fract_z
 _atom_site_occupancy
  Pr  Pr0  1  0.89106075  0.10893925  0.75000000  1
  Pr  Pr1  1  0.10893925  0.89106075  0.25000000  1
  Co  Co0  1  0.68330392  0.31669608  0.75000000  1
  Co  Co1  1  0.31669608  0.68330392  0.25000000  1
  Ge  Ge0  1  0.54598278  0.45401722  0.75000000  1
  Ge  Ge1  1  0.45401722  0.54598278  0.25000000  1
  Ge  Ge2  1  0.25021797  0.74978203  0.75000000  1
  Ge  Ge3  1  0.74978203  0.25021797  0.25000000  1
loop_
_geom_bond_atom_site_label_1
_geom_bond_atom_site_label_2
_geom_bond_distance
_geom_bond_site_symmetry_2
Co0 Ge0 2.281329 1_555
Co0 Ge3 2.378407 1_555
Co0 Ge3 2.378407 1_556
Co0 Ge2 2.407423 1_655
Co0 Ge2 2.407423 1_545
Co0 Pr1 3.243964 1_545
Co0 Pr1 3.243964 1_546
Co0 Pr1 3.243964 1_655
Co0 Pr1 3.243964 1_656
Co1 Ge1 2.281329 1_555
Co1 Ge2 2.378407 1_555
Co1 Ge2 2.378407 1_554
Co1 Ge3 2.407423 1_565
Co1 Ge3 2.407423 1_455
Co1 Pr0 3.243964 1_455
Co1 Pr0 3.243964 1_454
Co1 Pr0 3.243964 1_565
Co1 Pr0 3.243964 1_564
Ge0 Ge1 2.602187 1_555
Ge0 Ge1 2.602187 1_556
Ge0 Pr1 3.176623 1_655
Ge0 Pr1 3.176623 1_656
Ge0 Pr1 3.176623 1_545
Ge0 Pr1 3.176623 1_546
Ge0 Pr0 3.344253 1_565
Ge0 Pr0 3.344253 1_455
Ge1 Pr0 3.176623 1_565
Ge1 Pr0 3.176623 1_454
Ge1 Pr0 3.176623 1_564
Ge1 Pr0 3.176623 1_455
Ge1 Pr1 3.344253 1_655
Ge1 Pr1 3.344253 1_545
Ge2 Pr1 3.153708 1_555
Ge2 Pr1 3.153708 1_556
Ge2 Pr0 3.167766 1_455
Ge2 Pr0 3.167766 1_565
Ge3 Pr0 3.153708 1_555
Ge3 Pr0 3.153708 1_554
Ge3 Pr1 3.167766 1_545
Ge3 Pr1 3.167766 1_655
