# generated using pymatgen
data_KMg6Bi
_symmetry_space_group_name_H-M   'P 1'
_cell_length_a   5.24163100
_cell_length_b   6.97926500
_cell_length_c   11.96740300
_cell_angle_alpha   90.00000000
_cell_angle_beta   90.00000000
_cell_angle_gamma   90.00000000
_symmetry_Int_Tables_number   1
_chemical_formula_structural   KMg6Bi
_chemical_formula_sum   'K2 Mg12 Bi2'
_cell_volume   437.80029407
_cell_formula_units_Z   2
loop_
 _symmetry_equiv_pos_site_id
 _symmetry_equiv_pos_as_xyz
  1  'x, y, z'
loop_
 _atom_site_type_symbol
 _atom_site_label
 _atom_site_symmetry_multiplicity
 _atom_site_fract_x
 _atom_site_fract_y
 _atom_site_fract_z
 _atom_site_occupancy
  K  K0  1  0.00000000  0.50000000  0.32989700  1
  K  K1  1  0.00000000  0.00000000  0.82989700  1
  Mg  Mg0  1  0.00000000  0.24704100  0.07737600  1
  Mg  Mg1  1  0.00000000  0.75295900  0.07737600  1
  Mg  Mg2  1  0.00000000  0.50000000  0.84235500  1
  Mg  Mg3  1  0.50000000  0.27528400  0.92526400  1
  Mg  Mg4  1  0.50000000  0.72471600  0.92526400  1
  Mg  Mg5  1  0.50000000  0.50000000  0.66816300  1
  Mg  Mg6  1  0.00000000  0.74704100  0.57737600  1
  Mg  Mg7  1  0.00000000  0.25295900  0.57737600  1
  Mg  Mg8  1  0.00000000  0.00000000  0.34235500  1
  Mg  Mg9  1  0.50000000  0.77528400  0.42526400  1
  Mg  Mg10  1  0.50000000  0.22471600  0.42526400  1
  Mg  Mg11  1  0.50000000  0.00000000  0.16816300  1
  Bi  Bi0  1  0.50000000  0.50000000  0.15430400  1
  Bi  Bi1  1  0.50000000  0.00000000  0.65430400  1
loop_
_geom_bond_atom_site_label_1
_geom_bond_atom_site_label_2
_geom_bond_distance
_geom_bond_site_symmetry_2
K0 Mg6 3.426995 1_555
K0 Mg7 3.426995 1_555
K0 Mg9 3.444205 1_455
K0 Mg10 3.444205 1_455
K0 Mg9 3.444205 1_555
K0 Mg10 3.444205 1_555
K0 Mg8 3.492816 1_565
K0 Mg8 3.492816 1_555
K0 Mg1 3.499926 1_555
K0 Mg0 3.499926 1_555
K1 Mg0 3.426995 1_556
K1 Mg1 3.426995 1_546
K1 Mg3 3.444205 1_555
K1 Mg3 3.444205 1_455
K1 Mg4 3.444205 1_545
K1 Mg4 3.444205 1_445
K1 Mg2 3.492816 1_545
K1 Mg2 3.492816 1_555
K1 Mg7 3.499926 1_555
K1 Mg6 3.499926 1_545
Mg0 Mg3 3.197082 1_554
Mg0 Mg3 3.197082 1_454
Mg0 Mg11 3.319920 1_555
Mg0 Mg11 3.319920 1_455
Mg0 Mg2 3.320775 1_554
Mg0 Mg1 3.448329 1_545
Mg0 Mg1 3.530936 1_555
Mg0 Mg8 3.609527 1_555
Mg1 Mg4 3.197082 1_554
Mg1 Mg4 3.197082 1_454
Mg1 Mg11 3.319920 1_465
Mg1 Mg11 3.319920 1_565
Mg1 Mg2 3.320775 1_554
Mg1 Mg8 3.609527 1_565
Mg2 Mg4 3.211367 1_555
Mg2 Mg4 3.211367 1_455
Mg2 Mg3 3.211367 1_455
Mg2 Mg3 3.211367 1_555
Mg2 Mg5 3.348782 1_555
Mg2 Mg5 3.348782 1_455
Mg2 Mg6 3.609527 1_555
Mg2 Mg7 3.609527 1_555
Mg3 Mg4 3.136705 1_555
Mg3 Mg5 3.453494 1_555
Mg4 Mg5 3.453494 1_555
Mg5 Mg7 3.319920 1_555
Mg5 Mg6 3.319920 1_655
Mg5 Mg7 3.319920 1_655
Mg5 Mg6 3.319920 1_555
Mg5 Mg9 3.484424 1_555
Mg6 Mg9 3.197082 1_555
Mg6 Mg9 3.197082 1_455
Mg6 Mg8 3.320775 1_565
Mg6 Mg7 3.448329 1_555
Mg6 Mg7 3.530936 1_565
Mg7 Mg8 3.320775 1_555
Mg8 Mg9 3.211367 1_445
Mg8 Mg9 3.211367 1_545
Mg10 Mg9 3.136705 1_545
Mg10 Mg7 3.197082 1_555
Mg10 Mg7 3.197082 1_655
Mg10 Mg8 3.211367 1_555
Mg10 Mg8 3.211367 1_655
Mg10 Mg11 3.453494 1_555
Mg10 Mg5 3.484424 1_555
Mg11 Mg8 3.348782 1_655
Mg11 Mg8 3.348782 1_555
Mg11 Mg9 3.453494 1_545
Mg11 Mg3 3.484424 1_554
Mg11 Mg4 3.484424 1_544
Bi0 Mg4 3.157988 1_554
Bi0 Mg3 3.157988 1_554
Bi0 Mg1 3.291369 1_555
Bi0 Mg1 3.291369 1_655
Bi0 Mg0 3.291369 1_555
Bi0 Mg0 3.291369 1_655
Bi0 K0 3.359244 1_555
Bi0 K0 3.359244 1_655
Bi0 Mg11 3.493572 1_565
Bi0 Mg11 3.493572 1_555
Bi1 Mg10 3.157988 1_555
Bi1 Mg9 3.157988 1_545
Bi1 Mg7 3.291369 1_555
Bi1 Mg7 3.291369 1_655
Bi1 Mg6 3.291369 1_645
Bi1 Mg6 3.291369 1_545
Bi1 K1 3.359244 1_555
Bi1 K1 3.359244 1_655
Bi1 Mg5 3.493572 1_545
Bi1 Mg5 3.493572 1_555
