# generated using pymatgen
data_CsW3Cl7
_symmetry_space_group_name_H-M   'P 1'
_cell_length_a   10.23457616
_cell_length_b   10.23457616
_cell_length_c   15.20764200
_cell_angle_alpha   90.00000000
_cell_angle_beta   90.00000000
_cell_angle_gamma   120.00000105
_symmetry_Int_Tables_number   1
_chemical_formula_structural   CsW3Cl7
_chemical_formula_sum   'Cs4 W12 Cl28'
_cell_volume   1379.53343871
_cell_formula_units_Z   4
loop_
 _symmetry_equiv_pos_site_id
 _symmetry_equiv_pos_as_xyz
  1  'x, y, z'
loop_
 _atom_site_type_symbol
 _atom_site_label
 _atom_site_symmetry_multiplicity
 _atom_site_fract_x
 _atom_site_fract_y
 _atom_site_fract_z
 _atom_site_occupancy
  Cs  Cs0  1  0.00000000  0.00000000  0.99548800  1
  Cs  Cs1  1  0.00000000  0.00000000  0.49548800  1
  Cs  Cs2  1  0.66666700  0.33333300  0.71037100  1
  Cs  Cs3  1  0.33333300  0.66666700  0.21037100  1
  W  W0  1  0.48689900  0.67554200  0.78322700  1
  W  W1  1  0.18864300  0.51310100  0.78322700  1
  W  W2  1  0.81135700  0.32445800  0.28322700  1
  W  W3  1  0.32445800  0.81135700  0.78322700  1
  W  W4  1  0.67554200  0.48689900  0.28322700  1
  W  W5  1  0.51310100  0.18864300  0.28322700  1
  W  W6  1  0.47657500  0.82055700  0.64186000  1
  W  W7  1  0.34398200  0.52342500  0.64186000  1
  W  W8  1  0.65601800  0.17944300  0.14186000  1
  W  W9  1  0.17944300  0.65601800  0.64186000  1
  W  W10  1  0.82055700  0.47657500  0.14186000  1
  W  W11  1  0.52342500  0.34398200  0.14186000  1
  Cl  Cl0  1  0.62840300  0.68902300  0.64288400  1
  Cl  Cl1  1  0.06062100  0.37159700  0.64288400  1
  Cl  Cl2  1  0.93937900  0.31097700  0.14288400  1
  Cl  Cl3  1  0.31097700  0.93937900  0.64288400  1
  Cl  Cl4  1  0.68902300  0.62840300  0.14288400  1
  Cl  Cl5  1  0.37159700  0.06062100  0.14288400  1
  Cl  Cl6  1  0.98762300  0.31063400  0.86887400  1
  Cl  Cl7  1  0.32301200  0.01237700  0.86887400  1
  Cl  Cl8  1  0.67698800  0.68936600  0.36887400  1
  Cl  Cl9  1  0.68936600  0.67698800  0.86887400  1
  Cl  Cl10  1  0.31063400  0.98762300  0.36887400  1
  Cl  Cl11  1  0.01237700  0.32301200  0.36887400  1
  Cl  Cl12  1  0.66666700  0.33333300  0.01004200  1
  Cl  Cl13  1  0.33333300  0.66666700  0.51004200  1
  Cl  Cl14  1  0.66666700  0.33333300  0.41420200  1
  Cl  Cl15  1  0.33333300  0.66666700  0.91420200  1
  Cl  Cl16  1  0.60939300  0.95816000  0.78184200  1
  Cl  Cl17  1  0.34876700  0.39060700  0.78184200  1
  Cl  Cl18  1  0.65123300  0.04184000  0.28184200  1
  Cl  Cl19  1  0.04184000  0.65123300  0.78184200  1
  Cl  Cl20  1  0.95816000  0.60939300  0.28184200  1
  Cl  Cl21  1  0.39060700  0.34876700  0.28184200  1
  Cl  Cl22  1  0.66743100  0.03235300  0.55567800  1
  Cl  Cl23  1  0.36492200  0.33256900  0.55567800  1
  Cl  Cl24  1  0.63507800  0.96764700  0.05567800  1
  Cl  Cl25  1  0.96764700  0.63507800  0.55567800  1
  Cl  Cl26  1  0.03235300  0.66743100  0.05567800  1
  Cl  Cl27  1  0.33256900  0.36492200  0.05567800  1
loop_
_geom_bond_atom_site_label_1
_geom_bond_atom_site_label_2
_geom_bond_distance
_geom_bond_site_symmetry_2
Cl0 W6 2.513746 1_555
Cl0 W7 2.532324 1_555
Cl0 W0 2.543969 1_555
Cl0 Cs2 3.985518 1_555
Cl1 W7 2.513737 1_555
Cl1 W9 2.532325 1_555
Cl1 W1 2.543966 1_555
Cl1 Cs2 3.985518 1_455
Cl2 W8 2.513737 1_555
Cl2 W10 2.532316 1_555
Cl2 W2 2.543963 1_555
Cl2 Cs3 3.985518 1_655
Cl3 W9 2.513737 1_555
Cl3 W6 2.532316 1_555
Cl3 W3 2.543963 1_555
Cl3 Cs2 3.985518 1_565
Cl4 W10 2.513746 1_555
Cl4 W11 2.532324 1_555
Cl4 W4 2.543969 1_555
Cl4 Cs3 3.985518 1_555
Cl5 W11 2.513737 1_555
Cl5 W8 2.532325 1_555
Cl5 W5 2.543966 1_555
Cl5 Cs3 3.985518 1_545
Cl6 W1 2.441285 1_655
Cl6 Cs0 3.772755 1_655
Cl6 Cs2 4.173442 1_555
Cl7 W3 2.441281 1_545
Cl7 Cs0 3.772763 1_555
Cl7 Cs2 4.173442 1_555
Cl8 W4 2.441289 1_555
Cl8 Cs1 3.772759 1_665
Cl8 Cs3 4.173442 1_555
Cl9 W0 2.441289 1_555
Cl9 Cs0 3.772759 1_665
Cl9 Cs2 4.173442 1_555
Cl10 W5 2.441285 1_565
Cl10 Cs1 3.772755 1_565
Cl10 Cs3 4.173442 1_555
Cl11 W2 2.441281 1_455
Cl11 Cs1 3.772763 1_555
Cl11 Cs3 4.173442 1_555
Cl12 W8 2.517822 1_555
Cl12 W10 2.517825 1_555
Cl12 W11 2.517829 1_555
Cl13 W9 2.517822 1_555
Cl13 W6 2.517825 1_555
Cl13 W7 2.517829 1_555
Cl14 W2 2.510577 1_555
Cl14 W5 2.510581 1_555
Cl14 W4 2.510583 1_555
Cl15 W3 2.510577 1_555
Cl15 W1 2.510581 1_555
Cl15 W0 2.510583 1_555
Cl16 W0 2.512436 1_555
Cl16 W3 2.525971 1_555
Cl16 W6 2.539397 1_555
Cl16 Cs2 3.744033 1_565
Cl17 W1 2.512436 1_555
Cl17 W0 2.525971 1_555
Cl17 W7 2.539397 1_555
Cl17 Cs2 3.744043 1_555
Cl18 W2 2.512436 1_555
Cl18 W5 2.525971 1_555
Cl18 W8 2.539397 1_555
Cl18 Cs3 3.744037 1_545
Cl19 W3 2.512436 1_555
Cl19 W1 2.525971 1_555
Cl19 W9 2.539397 1_555
Cl19 Cs2 3.744037 1_455
Cl20 W4 2.512436 1_555
Cl20 W2 2.525971 1_555
Cl20 W10 2.539397 1_555
Cl20 Cs3 3.744033 1_655
Cl21 W5 2.512436 1_555
Cl21 W4 2.525971 1_555
Cl21 W11 2.539397 1_555
Cl21 Cs3 3.744043 1_555
Cl22 W6 2.449038 1_545
Cl22 Cs1 3.695907 1_655
Cl22 Cs2 3.879093 1_555
Cl23 W7 2.449038 1_555
Cl23 Cs1 3.695907 1_555
Cl23 Cs2 3.879101 1_555
Cl24 W8 2.449038 1_565
Cl24 Cs0 3.695907 1_664
Cl24 Cs3 3.879097 1_555
Cl25 W9 2.449038 1_655
Cl25 Cs1 3.695907 1_665
Cl25 Cs2 3.879097 1_555
Cl26 W10 2.449038 1_455
Cl26 Cs0 3.695907 1_564
Cl26 Cs3 3.879093 1_555
Cl27 W11 2.449038 1_555
Cl27 Cs0 3.695907 1_554
Cl27 Cs3 3.879101 1_555
