# generated using pymatgen
data_GdSbPt
_symmetry_space_group_name_H-M   'P 1'
_cell_length_a   4.68707478
_cell_length_b   4.68707447
_cell_length_c   4.68707472
_cell_angle_alpha   59.99999824
_cell_angle_beta   60.00000045
_cell_angle_gamma   59.99999809
_symmetry_Int_Tables_number   1
_chemical_formula_structural   GdSbPt
_chemical_formula_sum   'Gd1 Sb1 Pt1'
_cell_volume   72.80992863
_cell_formula_units_Z   1
loop_
 _symmetry_equiv_pos_site_id
 _symmetry_equiv_pos_as_xyz
  1  'x, y, z'
loop_
 _atom_site_type_symbol
 _atom_site_label
 _atom_site_symmetry_multiplicity
 _atom_site_fract_x
 _atom_site_fract_y
 _atom_site_fract_z
 _atom_site_occupancy
  Gd  Gd0  1  0.50000000  0.50000000  0.50000000  1
  Sb  Sb0  1  -0.00000000  0.00000000  -0.00000000  1
  Pt  Pt0  1  0.25000000  0.25000000  0.25000000  1
loop_
_geom_bond_atom_site_label_1
_geom_bond_atom_site_label_2
_geom_bond_distance
_geom_bond_site_symmetry_2
Gd0 Pt0 2.870235 1_565
Gd0 Pt0 2.870235 1_555
Gd0 Pt0 2.870235 1_556
Gd0 Pt0 2.870235 1_655
Gd0 Sb0 3.314262 1_566
Gd0 Sb0 3.314262 1_656
Gd0 Sb0 3.314262 1_655
Gd0 Sb0 3.314262 1_565
Gd0 Sb0 3.314262 1_665
Gd0 Sb0 3.314262 1_556
Pt0 Sb0 2.870235 1_565
Pt0 Sb0 2.870235 1_556
Pt0 Sb0 2.870235 1_555
Pt0 Sb0 2.870235 1_655
