# generated using pymatgen
data_Sr4CePrO8
_symmetry_space_group_name_H-M   'P 1'
_cell_length_a   3.66951300
_cell_length_b   6.20545480
_cell_length_c   10.43869131
_cell_angle_alpha   90.31692783
_cell_angle_beta   90.00000000
_cell_angle_gamma   90.00000000
_symmetry_Int_Tables_number   1
_chemical_formula_structural   Sr4CePrO8
_chemical_formula_sum   'Sr4 Ce1 Pr1 O8'
_cell_volume   237.69577280
_cell_formula_units_Z   1
loop_
 _symmetry_equiv_pos_site_id
 _symmetry_equiv_pos_as_xyz
  1  'x, y, z'
loop_
 _atom_site_type_symbol
 _atom_site_label
 _atom_site_symmetry_multiplicity
 _atom_site_fract_x
 _atom_site_fract_y
 _atom_site_fract_z
 _atom_site_occupancy
  Sr  Sr0  1  0.50000000  0.56469900  0.82188300  1
  Sr  Sr1  1  0.50000000  0.43530100  0.17811700  1
  Sr  Sr2  1  0.50000000  0.06583800  0.67709200  1
  Sr  Sr3  1  0.50000000  0.93416200  0.32290800  1
  Ce  Ce0  1  0.00000000  0.50000000  0.50000000  1
  Pr  Pr0  1  0.00000000  0.00000000  0.00000000  1
  O  O0  1  0.00000000  0.35870300  0.69109200  1
  O  O1  1  0.00000000  0.64129700  0.30890800  1
  O  O2  1  0.00000000  0.85205000  0.79359700  1
  O  O3  1  0.00000000  0.14795000  0.20640300  1
  O  O4  1  0.50000000  0.72610900  0.54042000  1
  O  O5  1  0.50000000  0.27389100  0.45958000  1
  O  O6  1  0.50000000  0.24107700  0.95611500  1
  O  O7  1  0.50000000  0.75892300  0.04388500  1
loop_
_geom_bond_atom_site_label_1
_geom_bond_atom_site_label_2
_geom_bond_distance
_geom_bond_site_symmetry_2
Ce0 O0 2.183387 1_555
Ce0 O1 2.183387 1_555
Ce0 O5 2.346598 1_455
Ce0 O5 2.346598 1_555
Ce0 O4 2.346598 1_455
Ce0 O4 2.346598 1_555
O0 Sr2 2.586030 1_455
O0 Sr2 2.586030 1_555
O0 Sr0 2.616310 1_455
O0 Sr0 2.616310 1_555
O1 Sr3 2.586030 1_455
O1 Sr3 2.586030 1_555
O1 Sr1 2.616310 1_555
O1 Sr1 2.616310 1_455
O2 Pr0 2.337354 1_566
O2 Sr2 2.573564 1_565
O2 Sr2 2.573564 1_465
O2 Sr0 2.576614 1_555
O2 Sr0 2.576614 1_455
O3 Pr0 2.337354 1_555
O3 Sr3 2.573564 1_545
O3 Sr3 2.573564 1_445
O3 Sr1 2.576614 1_455
O3 Sr1 2.576614 1_555
O4 Sr2 2.539001 1_565
O4 Sr3 2.618135 1_555
O4 Sr0 3.109384 1_555
O5 Sr3 2.539001 1_545
O5 Sr2 2.618135 1_555
O5 Sr1 3.109384 1_555
O6 Pr0 2.412833 1_556
O6 Pr0 2.412833 1_656
O6 Sr0 2.455089 1_555
O6 Sr1 2.606169 1_556
O6 Sr2 3.103373 1_555
O7 Pr0 2.412833 1_565
O7 Pr0 2.412833 1_665
O7 Sr1 2.455089 1_555
O7 Sr0 2.606169 1_554
O7 Sr3 3.103373 1_555
