# generated using pymatgen
data_La5Sm3Cr7FeO24
_symmetry_space_group_name_H-M   'P 1'
_cell_length_a   7.84495942
_cell_length_b   7.84495942
_cell_length_c   7.84436803
_cell_angle_alpha   89.99621929
_cell_angle_beta   89.99621929
_cell_angle_gamma   89.99663283
_symmetry_Int_Tables_number   1
_chemical_formula_structural   La5Sm3Cr7FeO24
_chemical_formula_sum   'La5 Sm3 Cr7 Fe1 O24'
_cell_volume   482.76898469
_cell_formula_units_Z   1
loop_
 _symmetry_equiv_pos_site_id
 _symmetry_equiv_pos_as_xyz
  1  'x, y, z'
loop_
 _atom_site_type_symbol
 _atom_site_label
 _atom_site_symmetry_multiplicity
 _atom_site_fract_x
 _atom_site_fract_y
 _atom_site_fract_z
 _atom_site_occupancy
  La  La0  1  0.25020200  0.74979200  0.74980000  1
  La  La1  1  0.74979800  0.74979800  0.74979000  1
  La  La2  1  0.25020800  0.25020800  0.74979300  1
  La  La3  1  0.74979200  0.25020200  0.74980000  1
  La  La4  1  0.25021400  0.25021400  0.25021700  1
  Sm  Sm0  1  0.25020500  0.74979600  0.25020000  1
  Sm  Sm1  1  0.74979200  0.74979200  0.25019700  1
  Sm  Sm2  1  0.74979600  0.25020500  0.25020000  1
  Cr  Cr0  1  0.50018800  0.99979700  0.00058500  1
  Cr  Cr1  1  0.99979700  0.50018800  0.00058500  1
  Cr  Cr2  1  0.50020700  0.50020700  0.00060100  1
  Cr  Cr3  1  0.99979900  0.99979900  0.49943100  1
  Cr  Cr4  1  0.50020400  0.99979300  0.49939400  1
  Cr  Cr5  1  0.99979300  0.50020400  0.49939400  1
  Cr  Cr6  1  0.50020400  0.50020400  0.49939300  1
  Fe  Fe0  1  0.99973500  0.99973500  0.00079000  1
  O  O0  1  0.99998100  0.99998100  0.74963600  1
  O  O1  1  0.50000600  0.99998200  0.74982600  1
  O  O2  1  0.99998200  0.50000600  0.74982600  1
  O  O3  1  0.50001200  0.50001200  0.74993100  1
  O  O4  1  0.99902100  0.99902100  0.25052500  1
  O  O5  1  0.50102500  0.99898000  0.25015500  1
  O  O6  1  0.99898000  0.50102500  0.25015500  1
  O  O7  1  0.50102200  0.50102200  0.25006500  1
  O  O8  1  0.99998600  0.74952000  0.00198800  1
  O  O9  1  0.50000600  0.74984000  0.00207300  1
  O  O10  1  0.99900900  0.25041700  0.00102400  1
  O  O11  1  0.50103900  0.25016000  0.00106500  1
  O  O12  1  0.99999000  0.74983800  0.49791600  1
  O  O13  1  0.50000700  0.74993200  0.49791800  1
  O  O14  1  0.99896600  0.25016000  0.49893600  1
  O  O15  1  0.50103900  0.25005800  0.49892900  1
  O  O16  1  0.25041700  0.99900900  0.00102400  1
  O  O17  1  0.74952000  0.99998600  0.00198800  1
  O  O18  1  0.25016000  0.50103900  0.00106500  1
  O  O19  1  0.74984000  0.50000600  0.00207300  1
  O  O20  1  0.25016000  0.99896600  0.49893600  1
  O  O21  1  0.74983800  0.99999000  0.49791600  1
  O  O22  1  0.25005800  0.50103900  0.49892900  1
  O  O23  1  0.74993200  0.50000700  0.49791800  1
loop_
_geom_bond_atom_site_label_1
_geom_bond_atom_site_label_2
_geom_bond_distance
_geom_bond_site_symmetry_2
La0 O3 2.771256 1_555
La0 O22 2.771538 1_555
La0 O18 2.773550 1_556
La0 O20 2.773642 1_555
La0 O1 2.773661 1_555
La0 O2 2.773728 1_455
La0 O0 2.775805 1_455
La0 O16 2.776067 1_556
La0 O13 2.782797 1_555
La0 O9 2.785153 1_556
La0 O12 2.785241 1_455
La0 O8 2.786772 1_456
La1 O3 2.771319 1_555
La1 O1 2.773398 1_555
La1 O2 2.773398 1_555
La1 O0 2.775724 1_555
La1 O13 2.782847 1_555
La1 O23 2.782847 1_555
La1 O12 2.784891 1_555
La1 O21 2.784891 1_555
La1 O19 2.784959 1_556
La1 O9 2.784959 1_556
La1 O17 2.786857 1_556
La1 O8 2.786857 1_556
La2 O3 2.771519 1_555
La2 O1 2.773665 1_545
La2 O2 2.773665 1_455
La2 O0 2.776212 1_445
La2 O15 2.782818 1_555
La2 O22 2.782818 1_555
La2 O14 2.785244 1_455
La2 O20 2.785244 1_545
La2 O11 2.785266 1_556
La2 O18 2.785266 1_556
La2 O16 2.786895 1_546
La2 O10 2.786895 1_456
La3 O3 2.771256 1_555
La3 O15 2.771538 1_555
La3 O11 2.773550 1_556
La3 O14 2.773642 1_555
La3 O2 2.773661 1_555
La3 O1 2.773728 1_545
La3 O0 2.775805 1_545
La3 O10 2.776067 1_556
La3 O23 2.782797 1_555
La3 O19 2.785153 1_556
La3 O21 2.785241 1_545
La3 O17 2.786772 1_546
La4 O15 2.771056 1_555
La4 O22 2.771056 1_555
La4 O14 2.773269 1_455
La4 O20 2.773269 1_545
La4 O11 2.773305 1_555
La4 O18 2.773305 1_555
La4 O16 2.775830 1_545
La4 O10 2.775830 1_455
La4 O7 2.782658 1_555
La4 O5 2.784875 1_545
La4 O6 2.784875 1_455
La4 O4 2.786930 1_445
Cr0 O17 1.956032 1_555
Cr0 O5 1.957740 1_555
Cr0 O16 1.959456 1_555
Cr0 O9 1.960937 1_555
Cr0 O11 1.964103 1_565
Cr0 O1 1.967047 1_554
Cr1 O8 1.956032 1_555
Cr1 O6 1.957740 1_555
Cr1 O10 1.959456 1_555
Cr1 O19 1.960937 1_555
Cr1 O18 1.964103 1_655
Cr1 O2 1.967047 1_554
Cr2 O7 1.956909 1_555
Cr2 O19 1.958396 1_555
Cr2 O9 1.958396 1_555
Cr2 O18 1.961622 1_555
Cr2 O11 1.961622 1_555
Cr2 O3 1.966349 1_554
Cr3 O4 1.952530 1_555
Cr3 O21 1.960971 1_555
Cr3 O12 1.960971 1_555
Cr3 O0 1.962701 1_555
Cr3 O20 1.964086 1_655
Cr3 O14 1.964086 1_565
Cr4 O5 1.955143 1_555
Cr4 O21 1.958403 1_555
Cr4 O13 1.960185 1_555
Cr4 O20 1.961600 1_555
Cr4 O15 1.963333 1_565
Cr4 O1 1.964482 1_555
Cr5 O6 1.955143 1_555
Cr5 O12 1.958403 1_555
Cr5 O23 1.960185 1_555
Cr5 O14 1.961600 1_555
Cr5 O22 1.963333 1_655
Cr5 O2 1.964482 1_555
Cr6 O7 1.955841 1_555
Cr6 O13 1.959140 1_555
Cr6 O23 1.959140 1_555
Cr6 O15 1.962399 1_555
Cr6 O22 1.962399 1_555
Cr6 O3 1.965313 1_555
Fe0 O4 1.959029 1_555
Fe0 O8 1.962949 1_555
Fe0 O17 1.962949 1_555
Fe0 O16 1.966599 1_655
Fe0 O10 1.966599 1_565
Fe0 O0 1.970146 1_554
O4 Sm1 2.765141 1_555
O4 Sm0 2.775822 1_655
O4 Sm2 2.775822 1_565
O5 Sm1 2.762188 1_555
O5 Sm2 2.773705 1_565
O5 Sm0 2.773731 1_555
O6 Sm1 2.762188 1_555
O6 Sm0 2.773705 1_655
O6 Sm2 2.773731 1_555
O7 Sm1 2.760047 1_555
O7 Sm2 2.771285 1_555
O7 Sm0 2.771285 1_555
O8 Sm1 2.764581 1_555
O8 Sm0 2.764920 1_655
O9 Sm0 2.761939 1_555
O9 Sm1 2.762021 1_555
O10 Sm2 2.764481 1_555
O11 Sm2 2.761906 1_555
O12 Sm0 2.761975 1_655
O12 Sm1 2.762079 1_555
O13 Sm1 2.759607 1_555
O13 Sm0 2.759867 1_555
O14 Sm2 2.761984 1_555
O15 Sm2 2.759471 1_555
O16 Sm0 2.764481 1_555
O17 Sm1 2.764581 1_555
O17 Sm2 2.764920 1_565
O18 Sm0 2.761906 1_555
O19 Sm2 2.761939 1_555
O19 Sm1 2.762021 1_555
O20 Sm0 2.761984 1_555
O21 Sm2 2.761975 1_565
O21 Sm1 2.762079 1_555
O22 Sm0 2.759471 1_555
O23 Sm1 2.759607 1_555
O23 Sm2 2.759867 1_555
