# generated using pymatgen
data_ErCoGe
_symmetry_space_group_name_H-M   'P 1'
_cell_length_a   4.19349255
_cell_length_b   6.81272513
_cell_length_c   7.04692600
_cell_angle_alpha   90.00630211
_cell_angle_beta   90.00000000
_cell_angle_gamma   90.00000000
_symmetry_Int_Tables_number   1
_chemical_formula_structural   ErCoGe
_chemical_formula_sum   'Er4 Co4 Ge4'
_cell_volume   201.32441751
_cell_formula_units_Z   4
loop_
 _symmetry_equiv_pos_site_id
 _symmetry_equiv_pos_as_xyz
  1  'x, y, z'
loop_
 _atom_site_type_symbol
 _atom_site_label
 _atom_site_symmetry_multiplicity
 _atom_site_fract_x
 _atom_site_fract_y
 _atom_site_fract_z
 _atom_site_occupancy
  Er  Er0  1  0.25000000  0.01308196  0.80220180  1
  Er  Er1  1  0.25000000  0.51309830  0.69774044  1
  Er  Er2  1  0.75000000  0.98686140  0.19780349  1
  Er  Er3  1  0.75000000  0.48696038  0.30225615  1
  Co  Co0  1  0.25000000  0.84672515  0.43563857  1
  Co  Co1  1  0.25000000  0.34674116  0.06445626  1
  Co  Co2  1  0.75000000  0.15325189  0.56435382  1
  Co  Co3  1  0.75000000  0.65328091  0.93555191  1
  Ge  Ge0  1  0.25000000  0.20322397  0.39742054  1
  Ge  Ge1  1  0.25000000  0.70313351  0.10258707  1
  Ge  Ge2  1  0.75000000  0.79675520  0.60256388  1
  Ge  Ge3  1  0.75000000  0.29688517  0.89742606  1
loop_
_geom_bond_atom_site_label_1
_geom_bond_atom_site_label_2
_geom_bond_distance
_geom_bond_site_symmetry_2
Er0 Ge2 2.923539 1_445
Er0 Ge2 2.923539 1_545
Er0 Ge3 2.929961 1_455
Er0 Ge3 2.929961 1_555
Er0 Ge1 2.990087 1_546
Er0 Ge0 3.132951 1_555
Er1 Ge3 2.923467 1_555
Er1 Ge3 2.923467 1_455
Er1 Ge2 2.929324 1_455
Er1 Ge2 2.929324 1_555
Er1 Ge0 2.989076 1_555
Er1 Ge1 3.132811 1_556
Er2 Ge0 2.923591 1_665
Er2 Ge0 2.923591 1_565
Er2 Ge1 2.929610 1_555
Er2 Ge1 2.929610 1_655
Er2 Ge3 2.990411 1_564
Er2 Ge2 3.132717 1_555
Er3 Ge1 2.923273 1_555
Er3 Ge1 2.923273 1_655
Er3 Ge0 2.929661 1_655
Er3 Ge0 2.929661 1_555
Er3 Ge2 2.988633 1_555
Er3 Ge3 3.132817 1_554
Co0 Ge2 2.428175 1_455
Co0 Ge2 2.428175 1_555
Co0 Ge0 2.443645 1_565
Co0 Ge1 2.542602 1_555
Co0 Er0 2.820719 1_565
Co0 Er2 2.849064 1_555
Co0 Er2 2.849064 1_455
Co0 Er1 2.928906 1_555
Co1 Ge3 2.428388 1_454
Co1 Ge3 2.428388 1_554
Co1 Ge1 2.442797 1_555
Co1 Ge0 2.542039 1_555
Co1 Er1 2.821933 1_554
Co1 Er3 2.848984 1_555
Co1 Er3 2.848984 1_455
Co1 Er0 2.929440 1_554
Co2 Ge0 2.428204 1_655
Co2 Ge0 2.428204 1_555
Co2 Ge2 2.443624 1_545
Co2 Ge3 2.542847 1_555
Co2 Er2 2.820728 1_545
Co2 Er0 2.849194 1_655
Co2 Er0 2.849194 1_555
Co2 Er3 2.929319 1_555
Co3 Ge1 2.428402 1_556
Co3 Ge1 2.428402 1_656
Co3 Ge3 2.442816 1_555
Co3 Ge2 2.542081 1_555
Co3 Er3 2.821758 1_556
Co3 Er1 2.848948 1_655
Co3 Er1 2.848948 1_555
Co3 Er2 2.929011 1_556
