# generated using pymatgen
data_CuSnO6
_symmetry_space_group_name_H-M   'P 1'
_cell_length_a   6.40089200
_cell_length_b   8.11037700
_cell_length_c   8.23815200
_cell_angle_alpha   90.00000000
_cell_angle_beta   90.00000000
_cell_angle_gamma   90.00000000
_symmetry_Int_Tables_number   1
_chemical_formula_structural   CuSnO6
_chemical_formula_sum   'Cu4 Sn4 O24'
_cell_volume   427.67251697
_cell_formula_units_Z   4
loop_
 _symmetry_equiv_pos_site_id
 _symmetry_equiv_pos_as_xyz
  1  'x, y, z'
loop_
 _atom_site_type_symbol
 _atom_site_label
 _atom_site_symmetry_multiplicity
 _atom_site_fract_x
 _atom_site_fract_y
 _atom_site_fract_z
 _atom_site_occupancy
  Cu  Cu0  1  0.99953300  0.74925200  0.74782100  1
  Cu  Cu1  1  0.49953300  0.75074800  0.24782100  1
  Cu  Cu2  1  0.49953300  0.24925200  0.75217900  1
  Cu  Cu3  1  0.99953300  0.25074800  0.25217900  1
  Sn  Sn0  1  0.50069100  0.24968300  0.25138400  1
  Sn  Sn1  1  0.00069100  0.25031700  0.75138400  1
  Sn  Sn2  1  0.00069100  0.74968300  0.24861600  1
  Sn  Sn3  1  0.50069100  0.75031700  0.74861600  1
  O  O0  1  0.85728500  0.76755900  0.99471600  1
  O  O1  1  0.35728500  0.73244100  0.49471600  1
  O  O2  1  0.35728500  0.26755900  0.50528400  1
  O  O3  1  0.85728500  0.23244100  0.00528400  1
  O  O4  1  0.14146400  0.73379900  0.50259900  1
  O  O5  1  0.64146400  0.76620100  0.00259900  1
  O  O6  1  0.64146400  0.23379900  0.99740100  1
  O  O7  1  0.14146400  0.26620100  0.49740100  1
  O  O8  1  0.85898800  0.49738200  0.26992700  1
  O  O9  1  0.35898800  0.99738200  0.23007300  1
  O  O10  1  0.35898800  0.00261800  0.76992700  1
  O  O11  1  0.85898800  0.50261800  0.73007300  1
  O  O12  1  0.14058700  0.00658300  0.22764200  1
  O  O13  1  0.64058700  0.50658300  0.27235800  1
  O  O14  1  0.64058700  0.49341700  0.72764200  1
  O  O15  1  0.14058700  0.99341700  0.77235800  1
  O  O16  1  0.23543400  0.66323300  0.83237300  1
  O  O17  1  0.73543400  0.83676700  0.33237300  1
  O  O18  1  0.73543400  0.16323300  0.66762700  1
  O  O19  1  0.23543400  0.33676700  0.16762700  1
  O  O20  1  0.76198200  0.83349700  0.66421300  1
  O  O21  1  0.26198200  0.66650300  0.16421300  1
  O  O22  1  0.26198200  0.33349700  0.83578700  1
  O  O23  1  0.76198200  0.16650300  0.33578700  1
loop_
_geom_bond_atom_site_label_1
_geom_bond_atom_site_label_2
_geom_bond_distance
_geom_bond_site_symmetry_2
Cu0 O16 1.803310 1_655
Cu0 O20 1.803688 1_555
Cu0 O15 2.185751 1_655
Cu0 O11 2.198149 1_555
Cu0 O4 2.218595 1_655
Cu0 O0 2.233398 1_555
Cu1 O17 1.803310 1_555
Cu1 O21 1.803688 1_555
Cu1 O13 2.185751 1_555
Cu1 O9 2.198149 1_555
Cu1 O5 2.218595 1_555
Cu1 O1 2.233398 1_555
Cu2 O18 1.803310 1_555
Cu2 O22 1.803688 1_555
Cu2 O14 2.185751 1_555
Cu2 O10 2.198149 1_555
Cu2 O6 2.218595 1_555
Cu2 O2 2.233398 1_555
Cu3 O19 1.803310 1_655
Cu3 O23 1.803688 1_555
Cu3 O12 2.185751 1_655
Cu3 O8 2.198149 1_555
Cu3 O7 2.218595 1_655
Cu3 O3 2.233398 1_555
O0 O5 1.383016 1_556
O0 Sn2 2.288816 1_656
O1 O4 1.383016 1_555
O1 Sn3 2.288816 1_555
O2 O7 1.383016 1_555
O2 Sn0 2.288816 1_555
O3 O6 1.383016 1_554
O3 Sn1 2.288816 1_654
O4 Sn2 2.281767 1_555
O5 Sn3 2.281767 1_554
O6 Sn0 2.281767 1_556
O7 Sn1 2.281767 1_555
O8 Sn2 2.245146 1_655
O9 Sn0 2.245146 1_565
O10 O15 1.400095 1_545
O10 Sn3 2.245146 1_545
O11 O14 1.400095 1_555
O11 Sn1 2.245146 1_655
O12 O9 1.400095 1_545
O12 Sn2 2.274403 1_545
O13 O8 1.400095 1_555
O13 Sn0 2.274403 1_555
O14 Sn3 2.274403 1_555
O15 Sn1 2.274403 1_565
O16 Sn3 1.964114 1_555
O17 Sn2 1.964114 1_655
O18 Sn1 1.964114 1_655
O19 Sn0 1.964114 1_555
O20 Sn3 1.932830 1_555
O21 Sn2 1.932830 1_555
O22 Sn1 1.932830 1_555
O23 Sn0 1.932830 1_555
