# generated using pymatgen
data_Te2W2SeS
_symmetry_space_group_name_H-M   'P 1'
_cell_length_a   3.39715300
_cell_length_b   3.39717494
_cell_length_c   38.82248000
_cell_angle_alpha   90.00013761
_cell_angle_beta   89.99999262
_cell_angle_gamma   119.99974027
_symmetry_Int_Tables_number   1
_chemical_formula_structural   Te2W2SeS
_chemical_formula_sum   'Te4 W4 Se2 S2'
_cell_volume   388.01459532
_cell_formula_units_Z   2
loop_
 _symmetry_equiv_pos_site_id
 _symmetry_equiv_pos_as_xyz
  1  'x, y, z'
loop_
 _atom_site_type_symbol
 _atom_site_label
 _atom_site_symmetry_multiplicity
 _atom_site_fract_x
 _atom_site_fract_y
 _atom_site_fract_z
 _atom_site_occupancy
  Te  Te0  1  0.33336000  0.66672000  0.70603100  1
  Te  Te1  1  0.66664300  0.33328400  0.04544100  1
  Te  Te2  1  0.66664500  0.33329000  0.14242300  1
  Te  Te3  1  0.33336700  0.66673400  0.60905000  1
  W  W0  1  0.33330900  0.66661700  0.09390200  1
  W  W1  1  0.33330600  0.66661100  0.46964800  1
  W  W2  1  0.66668800  0.33337600  0.28178800  1
  W  W3  1  0.66669100  0.33338300  0.65757500  1
  Se  Se0  1  0.66663600  0.33327000  0.42704000  1
  Se  Se1  1  0.66664500  0.33329000  0.51224700  1
  S  S0  1  0.33335500  0.66671000  0.32061900  1
  S  S1  1  0.33335600  0.66671400  0.24298500  1
loop_
_geom_bond_atom_site_label_1
_geom_bond_atom_site_label_2
_geom_bond_distance
_geom_bond_site_symmetry_2
Te0 W3 2.717673 1_555
Te0 W3 2.717677 1_455
Te0 W3 2.717678 1_565
Te1 W0 2.717805 1_655
Te1 W0 2.717806 1_555
Te1 W0 2.717821 1_545
Te2 W0 2.719414 1_555
Te2 W0 2.719417 1_655
Te2 W0 2.719440 1_545
Te3 W3 2.719496 1_565
Te3 W3 2.719547 1_555
Te3 W3 2.719550 1_455
Se0 W1 2.565753 1_545
Se0 W1 2.565763 1_655
Se0 W1 2.565764 1_555
Se1 W1 2.565518 1_555
Se1 W1 2.565521 1_655
Se1 W1 2.565566 1_545
S0 W2 2.473762 1_555
S0 W2 2.473763 1_455
S0 W2 2.473775 1_565
S1 W2 2.473097 1_565
S1 W2 2.473106 1_455
S1 W2 2.473110 1_555
