# generated using pymatgen
data_PaInO4
_symmetry_space_group_name_H-M   'P 1'
_cell_length_a   6.51277791
_cell_length_b   6.51277791
_cell_length_c   6.51277791
_cell_angle_alpha   132.09089330
_cell_angle_beta   132.09089330
_cell_angle_gamma   70.08550863
_symmetry_Int_Tables_number   1
_chemical_formula_structural   PaInO4
_chemical_formula_sum   'Pa2 In2 O8'
_cell_volume   149.13299379
_cell_formula_units_Z   2
loop_
 _symmetry_equiv_pos_site_id
 _symmetry_equiv_pos_as_xyz
  1  'x, y, z'
loop_
 _atom_site_type_symbol
 _atom_site_label
 _atom_site_symmetry_multiplicity
 _atom_site_fract_x
 _atom_site_fract_y
 _atom_site_fract_z
 _atom_site_occupancy
  Pa  Pa0  1  0.75000000  0.25000000  0.50000000  1
  Pa  Pa1  1  -0.00000000  -0.00000000  -0.00000000  1
  In  In0  1  0.25000000  0.75000000  0.50000000  1
  In  In1  1  0.50000000  0.50000000  -0.00000000  1
  O  O0  1  0.62823684  0.62500000  0.50323684  1
  O  O1  1  0.12176316  0.12500000  0.49676316  1
  O  O2  1  0.37500000  0.37176316  0.49676316  1
  O  O3  1  0.37500000  0.87823684  0.00323684  1
  O  O4  1  0.62823684  0.12500000  0.00323684  1
  O  O5  1  0.87500000  0.87823684  0.50323684  1
  O  O6  1  0.87500000  0.37176316  0.99676316  1
  O  O7  1  0.12176316  0.62500000  0.99676316  1
loop_
_geom_bond_atom_site_label_1
_geom_bond_atom_site_label_2
_geom_bond_distance
_geom_bond_site_symmetry_2
In0 O6 2.306215 1_454
In0 O0 2.306215 1_555
In0 O4 2.306215 1_566
In0 O1 2.306215 1_565
In0 O2 2.306215 1_555
In0 O3 2.306215 1_556
In0 O7 2.306215 1_554
In0 O5 2.306215 1_455
In1 O3 2.306215 1_555
In1 O0 2.306215 1_555
In1 O4 2.306215 1_555
In1 O7 2.306215 1_554
In1 O1 2.306215 1_554
In1 O5 2.306215 1_555
In1 O2 2.306215 1_554
In1 O6 2.306215 1_554
O0 Pa0 2.286503 1_555
O0 Pa1 2.286503 1_666
O1 Pa0 2.286503 1_455
O1 Pa1 2.286503 1_555
O2 Pa0 2.286503 1_555
O2 Pa1 2.286503 1_555
O3 Pa0 2.286503 1_565
O3 Pa1 2.286503 1_565
O4 Pa0 2.286503 1_555
O4 Pa1 2.286503 1_655
O5 Pa0 2.286503 1_565
O5 Pa1 2.286503 1_666
O6 Pa0 2.286503 1_555
O6 Pa1 2.286503 1_656
O7 Pa0 2.286503 1_455
O7 Pa1 2.286503 1_566
