# generated using pymatgen
data_NaSrMg14
_symmetry_space_group_name_H-M   'P 1'
_cell_length_a   6.66689818
_cell_length_b   6.66689759
_cell_length_c   10.51662033
_cell_angle_alpha   90.00000000
_cell_angle_beta   90.00000000
_cell_angle_gamma   120.00000291
_symmetry_Int_Tables_number   1
_chemical_formula_structural   NaSrMg14
_chemical_formula_sum   'Na1 Sr1 Mg14'
_cell_volume   404.81297209
_cell_formula_units_Z   1
loop_
 _symmetry_equiv_pos_site_id
 _symmetry_equiv_pos_as_xyz
  1  'x, y, z'
loop_
 _atom_site_type_symbol
 _atom_site_label
 _atom_site_symmetry_multiplicity
 _atom_site_fract_x
 _atom_site_fract_y
 _atom_site_fract_z
 _atom_site_occupancy
  Na  Na0  1  0.16666700  0.33333300  0.12500000  1
  Sr  Sr0  1  0.16666700  0.33333300  0.62500000  1
  Mg  Mg0  1  0.16899226  0.83449563  0.12500000  1
  Mg  Mg1  1  0.17352098  0.83675999  0.62500000  1
  Mg  Mg2  1  0.66550437  0.33100774  0.12500000  1
  Mg  Mg3  1  0.66324001  0.32647902  0.62500000  1
  Mg  Mg4  1  0.66550437  0.83449563  0.12500000  1
  Mg  Mg5  1  0.66324001  0.83675999  0.62500000  1
  Mg  Mg6  1  0.33841405  0.16158595  0.36963233  1
  Mg  Mg7  1  0.33841405  0.16158595  0.88036767  1
  Mg  Mg8  1  0.33841405  0.67682910  0.36963233  1
  Mg  Mg9  1  0.33841405  0.67682910  0.88036767  1
  Mg  Mg10  1  0.82317090  0.16158595  0.36963233  1
  Mg  Mg11  1  0.82317090  0.16158595  0.88036767  1
  Mg  Mg12  1  0.83333300  0.66666700  0.37764910  1
  Mg  Mg13  1  0.83333300  0.66666700  0.87235090  1
loop_
_geom_bond_atom_site_label_1
_geom_bond_atom_site_label_2
_geom_bond_distance
_geom_bond_site_symmetry_2
Mg0 Mg9 3.191680 1_554
Mg0 Mg8 3.191680 1_555
Mg0 Mg7 3.191687 1_564
Mg0 Mg6 3.191687 1_565
Mg0 Mg12 3.288702 1_455
Mg0 Mg13 3.288702 1_454
Mg0 Mg2 3.310195 1_565
Mg0 Mg4 3.310196 1_555
Mg0 Na0 3.333476 1_555
Mg0 Na0 3.333476 1_565
Mg0 Mg2 3.356702 1_455
Mg0 Mg4 3.356702 1_455
Mg1 Mg13 3.259540 1_455
Mg1 Mg12 3.259540 1_455
Mg1 Mg3 3.264907 1_565
Mg1 Mg5 3.264907 1_555
Mg1 Mg8 3.275670 1_555
Mg1 Mg9 3.275670 1_555
Mg1 Mg6 3.275676 1_565
Mg1 Mg7 3.275676 1_565
Mg1 Sr0 3.333684 1_555
Mg1 Sr0 3.333684 1_565
Mg1 Mg3 3.401991 1_455
Mg1 Mg5 3.401991 1_455
Mg2 Mg7 3.191687 1_554
Mg2 Mg6 3.191687 1_555
Mg2 Mg4 3.310195 1_545
Mg2 Na0 3.333476 1_655
Mg2 Na0 3.333476 1_555
Mg2 Mg4 3.356702 1_555
Mg3 Mg5 3.264907 1_545
Mg3 Mg6 3.275676 1_555
Mg3 Mg7 3.275676 1_555
Mg3 Sr0 3.333684 1_655
Mg3 Sr0 3.333684 1_555
Mg3 Mg5 3.401991 1_555
Mg4 Mg9 3.191687 1_554
Mg4 Mg8 3.191687 1_555
Mg4 Na0 3.333476 1_555
Mg4 Na0 3.333476 1_665
Mg5 Mg8 3.275676 1_555
Mg5 Mg9 3.275676 1_555
Mg5 Sr0 3.333684 1_555
Mg5 Sr0 3.333684 1_665
Mg6 Mg8 3.231824 1_545
Mg6 Na0 3.248388 1_555
Mg6 Sr0 3.338516 1_555
Mg6 Mg8 3.435073 1_555
Mg7 Mg9 3.231824 1_545
Mg7 Na0 3.248388 1_556
Mg7 Sr0 3.338516 1_555
Mg7 Mg9 3.435073 1_555
Mg8 Na0 3.248395 1_555
Mg8 Sr0 3.338522 1_555
Mg9 Na0 3.248395 1_556
Mg9 Sr0 3.338522 1_555
Mg10 Mg2 3.191680 1_555
Mg10 Mg4 3.191687 1_545
Mg10 Mg8 3.231824 1_545
Mg10 Mg6 3.231825 1_555
Mg10 Na0 3.248395 1_655
Mg10 Mg3 3.275670 1_555
Mg10 Mg5 3.275676 1_545
Mg10 Mg12 3.335031 1_555
Mg10 Mg12 3.335031 1_545
Mg10 Sr0 3.338522 1_655
Mg10 Mg8 3.435073 1_655
Mg10 Mg6 3.435074 1_655
Mg11 Mg2 3.191680 1_556
Mg11 Mg4 3.191687 1_546
Mg11 Mg9 3.231824 1_545
Mg11 Mg7 3.231825 1_555
Mg11 Na0 3.248395 1_656
Mg11 Mg3 3.275670 1_555
Mg11 Mg5 3.275676 1_545
Mg11 Mg13 3.335031 1_555
Mg11 Mg13 3.335031 1_545
Mg11 Sr0 3.338522 1_655
Mg11 Mg9 3.435073 1_655
Mg11 Mg7 3.435074 1_655
Mg12 Mg5 3.259533 1_555
Mg12 Mg3 3.259540 1_555
Mg12 Mg4 3.288695 1_555
Mg12 Mg2 3.288702 1_555
Mg12 Mg6 3.335031 1_555
Mg12 Mg6 3.335031 1_665
Mg12 Mg8 3.335031 1_555
Mg12 Mg8 3.335031 1_655
Mg13 Mg5 3.259533 1_555
Mg13 Mg3 3.259540 1_555
Mg13 Mg4 3.288695 1_556
Mg13 Mg2 3.288702 1_556
Mg13 Mg7 3.335031 1_555
Mg13 Mg7 3.335031 1_665
Mg13 Mg9 3.335031 1_655
Mg13 Mg9 3.335031 1_555
