# generated using pymatgen
data_Sr4Ca2Cu4Bi4IO16
_symmetry_space_group_name_H-M   'P 1'
_cell_length_a   5.52541500
_cell_length_b   5.23150100
_cell_length_c   35.06229317
_cell_angle_alpha   90.00000000
_cell_angle_beta   94.51926241
_cell_angle_gamma   90.00000000
_symmetry_Int_Tables_number   1
_chemical_formula_structural   Sr4Ca2Cu4Bi4IO16
_chemical_formula_sum   'Sr8 Ca4 Cu8 Bi8 I2 O32'
_cell_volume   1010.36702401
_cell_formula_units_Z   2
loop_
 _symmetry_equiv_pos_site_id
 _symmetry_equiv_pos_as_xyz
  1  'x, y, z'
loop_
 _atom_site_type_symbol
 _atom_site_label
 _atom_site_symmetry_multiplicity
 _atom_site_fract_x
 _atom_site_fract_y
 _atom_site_fract_z
 _atom_site_occupancy
  Sr  Sr0  1  0.18702500  0.00000000  0.87198400  1
  Sr  Sr1  1  0.81297500  0.00000000  0.12801600  1
  Sr  Sr2  1  0.68495900  0.50000000  0.87198400  1
  Sr  Sr3  1  0.31504100  0.50000000  0.12801600  1
  Sr  Sr4  1  0.08408400  0.00000000  0.67672900  1
  Sr  Sr5  1  0.91591600  0.00000000  0.32327100  1
  Sr  Sr6  1  0.59264500  0.50000000  0.67672900  1
  Sr  Sr7  1  0.40735500  0.50000000  0.32327100  1
  Ca  Ca0  1  0.13791500  0.00000000  0.77485900  1
  Ca  Ca1  1  0.86208500  0.00000000  0.22514100  1
  Ca  Ca2  1  0.63694500  0.50000000  0.77485900  1
  Ca  Ca3  1  0.36305500  0.50000000  0.22514100  1
  Cu  Cu0  1  0.61535100  0.00000000  0.73064900  1
  Cu  Cu1  1  0.38464900  0.00000000  0.26935100  1
  Cu  Cu2  1  0.11529800  0.50000000  0.73064900  1
  Cu  Cu3  1  0.88470200  0.50000000  0.26935100  1
  Cu  Cu4  1  0.66000000  0.00000000  0.81943200  1
  Cu  Cu5  1  0.34000000  0.00000000  0.18056800  1
  Cu  Cu6  1  0.15943300  0.50000000  0.81943200  1
  Cu  Cu7  1  0.84056700  0.50000000  0.18056800  1
  Bi  Bi0  1  0.75020400  0.00000000  0.95482900  1
  Bi  Bi1  1  0.24979600  0.00000000  0.04517100  1
  Bi  Bi2  1  0.20462500  0.50000000  0.95482900  1
  Bi  Bi3  1  0.79537500  0.50000000  0.04517100  1
  Bi  Bi4  1  0.51578900  0.00000000  0.59577100  1
  Bi  Bi5  1  0.48421100  0.00000000  0.40422900  1
  Bi  Bi6  1  0.07998200  0.50000000  0.59577100  1
  Bi  Bi7  1  0.92001800  0.50000000  0.40422900  1
  I  I0  1  0.00000000  0.00000000  0.50000000  1
  I  I1  1  0.50000000  0.50000000  0.50000000  1
  O  O0  1  0.91105900  0.25000000  0.82211700  1
  O  O1  1  0.08894100  0.75000000  0.17788300  1
  O  O2  1  0.08894100  0.25000000  0.17788300  1
  O  O3  1  0.91105900  0.75000000  0.82211700  1
  O  O4  1  0.60314400  0.00000000  0.65480000  1
  O  O5  1  0.39685600  0.00000000  0.34520000  1
  O  O6  1  0.05165700  0.50000000  0.65480000  1
  O  O7  1  0.94834300  0.50000000  0.34520000  1
  O  O8  1  0.13656800  0.00000000  0.95351900  1
  O  O9  1  0.86343200  0.00000000  0.04648100  1
  O  O10  1  0.81695100  0.50000000  0.95351900  1
  O  O11  1  0.18304900  0.50000000  0.04648100  1
  O  O12  1  0.58914600  0.25000000  0.17829300  1
  O  O13  1  0.41085400  0.75000000  0.82170700  1
  O  O14  1  0.41085400  0.25000000  0.82170700  1
  O  O15  1  0.58914600  0.75000000  0.17829300  1
  O  O16  1  0.86552000  0.25000000  0.73103900  1
  O  O17  1  0.13448000  0.75000000  0.26896100  1
  O  O18  1  0.13448000  0.25000000  0.26896100  1
  O  O19  1  0.86552000  0.75000000  0.73103900  1
  O  O20  1  0.14003700  0.00000000  0.60333100  1
  O  O21  1  0.85996300  0.00000000  0.39666900  1
  O  O22  1  0.46329300  0.50000000  0.60333100  1
  O  O23  1  0.53670700  0.50000000  0.39666900  1
  O  O24  1  0.63486100  0.25000000  0.26972100  1
  O  O25  1  0.36513900  0.75000000  0.73027900  1
  O  O26  1  0.36513900  0.25000000  0.73027900  1
  O  O27  1  0.63486100  0.75000000  0.26972100  1
  O  O28  1  0.68804600  0.00000000  0.89626300  1
  O  O29  1  0.31195400  0.00000000  0.10373700  1
  O  O30  1  0.20821700  0.50000000  0.89626300  1
  O  O31  1  0.79178300  0.50000000  0.10373700  1
loop_
_geom_bond_atom_site_label_1
_geom_bond_atom_site_label_2
_geom_bond_distance
_geom_bond_site_symmetry_2
Ca0 O19 2.443777 1_445
Ca0 O16 2.443777 1_455
Ca0 O26 2.457500 1_555
Ca0 O25 2.457500 1_545
Ca0 O14 2.508517 1_555
Ca0 O13 2.508517 1_545
Ca0 O3 2.520834 1_445
Ca0 O0 2.520834 1_455
Ca1 O18 2.443777 1_655
Ca1 O17 2.443777 1_645
Ca1 O24 2.457500 1_555
Ca1 O27 2.457500 1_545
Ca1 O12 2.508517 1_555
Ca1 O15 2.508517 1_545
Ca1 O2 2.520834 1_655
Ca1 O1 2.520834 1_645
Ca2 O16 2.443777 1_555
Ca2 O19 2.443777 1_555
Ca2 O25 2.457506 1_555
Ca2 O26 2.457506 1_555
Ca2 O13 2.508517 1_555
Ca2 O14 2.508517 1_555
Ca2 O0 2.520834 1_555
Ca2 O3 2.520834 1_555
Ca3 O17 2.443777 1_555
Ca3 O18 2.443777 1_555
Ca3 O27 2.457506 1_555
Ca3 O24 2.457506 1_555
Ca3 O15 2.508517 1_555
Ca3 O12 2.508517 1_555
Ca3 O1 2.520834 1_555
Ca3 O2 2.520834 1_555
Cu0 O16 1.902226 1_555
Cu0 O19 1.902226 1_545
Cu0 O26 1.902434 1_555
Cu0 O25 1.902434 1_545
Cu0 O4 2.654977 1_555
Cu1 O18 1.902226 1_555
Cu1 O17 1.902226 1_545
Cu1 O24 1.902434 1_555
Cu1 O27 1.902434 1_545
Cu1 O5 2.654977 1_555
Cu2 O19 1.902222 1_455
Cu2 O16 1.902222 1_455
Cu2 O26 1.902430 1_555
Cu2 O25 1.902430 1_555
Cu2 O6 2.654977 1_555
Cu3 O17 1.902222 1_655
Cu3 O18 1.902222 1_655
Cu3 O27 1.902430 1_555
Cu3 O24 1.902430 1_555
Cu3 O7 2.654977 1_555
Cu4 O0 1.903460 1_555
Cu4 O3 1.903460 1_545
Cu4 O13 1.905080 1_545
Cu4 O14 1.905080 1_555
Cu4 O28 2.686107 1_555
Cu5 O1 1.903460 1_545
Cu5 O2 1.903460 1_555
Cu5 O15 1.905080 1_545
Cu5 O12 1.905080 1_555
Cu5 O29 2.686107 1_555
Cu6 O0 1.903460 1_455
Cu6 O3 1.903460 1_455
Cu6 O14 1.905080 1_555
Cu6 O13 1.905080 1_555
Cu6 O30 2.686107 1_555
Cu7 O2 1.903460 1_655
Cu7 O1 1.903460 1_655
Cu7 O15 1.905080 1_555
Cu7 O12 1.905080 1_555
Cu7 O31 2.686107 1_555
Bi0 O28 2.055117 1_555
Bi0 O8 2.138931 1_655
Bi0 O10 2.642527 1_545
Bi0 O10 2.642527 1_555
Bi1 O29 2.055117 1_555
Bi1 O9 2.138931 1_455
Bi1 O11 2.642527 1_555
Bi1 O11 2.642527 1_545
Bi2 O30 2.055117 1_555
Bi2 O10 2.138931 1_455
Bi2 O8 2.642527 1_555
Bi2 O8 2.642527 1_565
Bi3 O31 2.055117 1_555
Bi3 O11 2.138931 1_655
Bi3 O9 2.642527 1_565
Bi3 O9 2.642527 1_555
Bi4 O4 2.087863 1_555
Bi4 O20 2.113655 1_555
Bi4 O22 2.647388 1_545
Bi4 O22 2.647388 1_555
Bi5 O5 2.087863 1_555
Bi5 O21 2.113655 1_555
Bi5 O23 2.647388 1_555
Bi5 O23 2.647388 1_545
Bi6 O6 2.087862 1_555
Bi6 O22 2.113649 1_555
Bi6 O20 2.647388 1_555
Bi6 O20 2.647388 1_565
Bi7 O7 2.087862 1_555
Bi7 O23 2.113649 1_555
Bi7 O21 2.647388 1_565
Bi7 O21 2.647388 1_555
O0 Sr0 2.583132 1_655
O0 Sr2 2.583135 1_555
O1 Sr1 2.583132 1_465
O1 Sr3 2.583135 1_555
O2 Sr1 2.583132 1_455
O2 Sr3 2.583135 1_555
O3 Sr0 2.583132 1_665
O3 Sr2 2.583135 1_555
O4 Sr4 2.707569 1_655
O4 Sr6 2.728319 1_555
O4 Sr6 2.728319 1_545
O4 Sr4 3.027249 1_555
O5 Sr5 2.707569 1_455
O5 Sr7 2.728319 1_545
O5 Sr7 2.728319 1_555
O5 Sr5 3.027249 1_555
O6 Sr6 2.707574 1_455
O6 Sr4 2.728318 1_555
O6 Sr4 2.728318 1_565
O6 Sr6 3.027244 1_555
O7 Sr7 2.707574 1_655
O7 Sr5 2.728318 1_565
O7 Sr5 2.728318 1_555
O7 Sr7 3.027244 1_555
O8 Sr0 2.894147 1_555
O9 Sr1 2.894147 1_555
O10 Sr2 2.894147 1_555
O11 Sr3 2.894147 1_555
O12 Sr3 2.586735 1_555
O12 Sr1 2.586738 1_555
O13 Sr2 2.586735 1_555
O13 Sr0 2.586738 1_565
O14 Sr2 2.586735 1_555
O14 Sr0 2.586738 1_555
O15 Sr3 2.586735 1_555
O15 Sr1 2.586738 1_565
O16 Sr4 2.675346 1_655
O16 Sr6 2.675349 1_555
O17 Sr5 2.675346 1_465
O17 Sr7 2.675349 1_555
O18 Sr5 2.675346 1_455
O18 Sr7 2.675349 1_555
O19 Sr4 2.675346 1_665
O19 Sr6 2.675349 1_555
O20 Sr4 2.616081 1_555
O21 Sr5 2.616081 1_555
O22 Sr6 2.616082 1_555
O23 Sr7 2.616082 1_555
O24 Sr5 2.681047 1_555
O24 Sr7 2.681050 1_555
O25 Sr4 2.681047 1_565
O25 Sr6 2.681050 1_555
O26 Sr4 2.681047 1_555
O26 Sr6 2.681050 1_555
O27 Sr5 2.681047 1_565
O27 Sr7 2.681050 1_555
O28 Sr2 2.750423 1_545
O28 Sr2 2.750423 1_555
O28 Sr0 2.831440 1_555
O28 Sr0 2.948890 1_655
O29 Sr3 2.750423 1_545
O29 Sr3 2.750423 1_555
O29 Sr1 2.831440 1_555
O29 Sr1 2.948890 1_455
O30 Sr0 2.750423 1_555
O30 Sr0 2.750423 1_565
O30 Sr2 2.831440 1_555
O30 Sr2 2.948890 1_455
O31 Sr1 2.750423 1_565
O31 Sr1 2.750423 1_555
O31 Sr3 2.831440 1_555
O31 Sr3 2.948890 1_655
