# generated using pymatgen
data_Be5Co
_symmetry_space_group_name_H-M   'P 1'
_cell_length_a   4.07848660
_cell_length_b   4.07848660
_cell_length_c   4.07848660
_cell_angle_alpha   60.00000000
_cell_angle_beta   60.00000000
_cell_angle_gamma   60.00000000
_symmetry_Int_Tables_number   1
_chemical_formula_structural   Be5Co
_chemical_formula_sum   'Be5 Co1'
_cell_volume   47.97136990
_cell_formula_units_Z   1
loop_
 _symmetry_equiv_pos_site_id
 _symmetry_equiv_pos_as_xyz
  1  'x, y, z'
loop_
 _atom_site_type_symbol
 _atom_site_label
 _atom_site_symmetry_multiplicity
 _atom_site_fract_x
 _atom_site_fract_y
 _atom_site_fract_z
 _atom_site_occupancy
  Be  Be0  1  0.75000000  0.75000000  0.75000000  1
  Be  Be1  1  0.87671842  0.37442786  0.37442786  1
  Be  Be2  1  0.37442786  0.87671842  0.37442786  1
  Be  Be3  1  0.37442786  0.37442786  0.87671842  1
  Be  Be4  1  0.37442786  0.37442786  0.37442786  1
  Co  Co0  1  -0.00000000  -0.00000000  -0.00000000  1
loop_
_geom_bond_atom_site_label_1
_geom_bond_atom_site_label_2
_geom_bond_distance
_geom_bond_site_symmetry_2
Be0 Be1 2.392223 1_555
Be0 Be2 2.392223 1_555
Be0 Be3 2.392223 1_555
Be0 Be4 2.392226 1_655
Be0 Be4 2.392226 1_565
Be0 Be4 2.392226 1_556
Be0 Be1 2.392230 1_565
Be0 Be2 2.392230 1_655
Be0 Be3 2.392230 1_655
Be0 Be3 2.392230 1_565
Be0 Be2 2.392230 1_556
Be0 Be1 2.392230 1_556
Be0 Co0 2.497553 1_666
Be0 Co0 2.497553 1_566
Be0 Co0 2.497553 1_656
Be0 Co0 2.497553 1_665
Be1 Be2 2.029901 1_645
Be1 Be3 2.029901 1_654
Be1 Be4 2.029901 1_655
Be1 Be4 2.048585 1_555
Be1 Be3 2.048585 1_555
Be1 Be2 2.048585 1_555
Be1 Co0 2.390233 1_665
Be1 Co0 2.390233 1_656
Be1 Co0 2.390240 1_655
Be2 Be3 2.029901 1_564
Be2 Be4 2.029901 1_565
Be2 Be4 2.048585 1_555
Be2 Be3 2.048585 1_555
Be2 Co0 2.390233 1_665
Be2 Co0 2.390233 1_566
Be2 Co0 2.390240 1_565
Be3 Be4 2.029901 1_556
Be3 Be4 2.048585 1_555
Be3 Co0 2.390233 1_566
Be3 Co0 2.390233 1_656
Be3 Co0 2.390240 1_556
Be4 Co0 2.390236 1_565
Be4 Co0 2.390236 1_655
Be4 Co0 2.390236 1_556
