# generated using pymatgen
data_MnCO3
_symmetry_space_group_name_H-M   'P 1'
_cell_length_a   5.85871708
_cell_length_b   4.77777356
_cell_length_c   4.77781767
_cell_angle_alpha   59.98365385
_cell_angle_beta   65.94219262
_cell_angle_gamma   65.94294854
_symmetry_Int_Tables_number   1
_chemical_formula_structural   MnCO3
_chemical_formula_sum   'Mn2 C2 O6'
_cell_volume   102.17288915
_cell_formula_units_Z   2
loop_
 _symmetry_equiv_pos_site_id
 _symmetry_equiv_pos_as_xyz
  1  'x, y, z'
loop_
 _atom_site_type_symbol
 _atom_site_label
 _atom_site_symmetry_multiplicity
 _atom_site_fract_x
 _atom_site_fract_y
 _atom_site_fract_z
 _atom_site_occupancy
  Mn  Mn0  1  0.89936284  0.01012372  0.01031394  1
  Mn  Mn1  1  0.39936534  0.51031536  0.51012066  1
  C  C0  1  0.15069764  0.26037367  0.25951506  1
  C  C1  1  0.65069735  0.75951706  0.76037814  1
  O  O0  1  0.65042222  0.03050031  0.75914627  1
  O  O1  1  0.65144320  0.48970304  0.03122347  1
  O  O2  1  0.65056997  0.75824512  0.49086160  1
  O  O3  1  0.15042515  0.25914130  0.53046223  1
  O  O4  1  0.15144284  0.53119066  0.98973580  1
  O  O5  1  0.15056945  0.99089174  0.25824282  1
loop_
_geom_bond_atom_site_label_1
_geom_bond_atom_site_label_2
_geom_bond_distance
_geom_bond_site_symmetry_2
Mn0 O1 2.183388 1_555
Mn0 O0 2.184269 1_554
Mn0 O4 2.185933 1_644
Mn0 O5 2.186301 1_645
Mn0 O2 2.186662 1_545
Mn0 O3 2.187137 1_654
Mn1 O4 2.183479 1_555
Mn1 O3 2.184355 1_555
Mn1 O1 2.185841 1_555
Mn1 O2 2.186210 1_555
Mn1 O5 2.186759 1_555
Mn1 O0 2.187066 1_555
C0 O5 1.290882 1_545
C0 O3 1.290952 1_555
C0 O4 1.291131 1_554
C1 O2 1.291057 1_555
C1 O0 1.291108 1_565
C1 O1 1.291282 1_556
