# generated using pymatgen
data_Li7Mn5O12
_symmetry_space_group_name_H-M   'P 1'
_cell_length_a   6.91345842
_cell_length_b   8.76523351
_cell_length_c   8.63132326
_cell_angle_alpha   119.34283021
_cell_angle_beta   77.71094503
_cell_angle_gamma   92.12907185
_symmetry_Int_Tables_number   1
_chemical_formula_structural   Li7Mn5O12
_chemical_formula_sum   'Li14 Mn10 O24'
_cell_volume   444.10313819
_cell_formula_units_Z   2
loop_
 _symmetry_equiv_pos_site_id
 _symmetry_equiv_pos_as_xyz
  1  'x, y, z'
loop_
 _atom_site_type_symbol
 _atom_site_label
 _atom_site_symmetry_multiplicity
 _atom_site_fract_x
 _atom_site_fract_y
 _atom_site_fract_z
 _atom_site_occupancy
  Li  Li0  1  0.24669100  0.25187000  0.24890700  1
  Li  Li1  1  0.75329800  0.74812500  0.75108300  1
  Li  Li2  1  0.35816600  0.86599200  0.71206000  1
  Li  Li3  1  0.87948600  0.38235400  0.21228600  1
  Li  Li4  1  0.12048600  0.61769500  0.78768600  1
  Li  Li5  1  0.64185200  0.13401100  0.28794900  1
  Li  Li6  1  0.62974500  0.11897900  0.95738600  1
  Li  Li7  1  0.13090600  0.60735200  0.44897900  1
  Li  Li8  1  0.86910300  0.39261200  0.55093300  1
  Li  Li9  1  0.37021600  0.88105800  0.04260900  1
  Li  Li10  1  0.64334400  0.13155500  0.62694500  1
  Li  Li11  1  0.12682600  0.61430200  0.11812600  1
  Li  Li12  1  0.87310100  0.38569600  0.88179000  1
  Li  Li13  1  0.35668100  0.86848900  0.37306300  1
  Mn  Mn0  1  0.50021300  0.50012700  0.50014800  1
  Mn  Mn1  1  0.99998100  0.99977300  0.99983800  1
  Mn  Mn2  1  0.75095100  0.74837100  0.41896800  1
  Mn  Mn3  1  0.24324000  0.25071400  0.92244500  1
  Mn  Mn4  1  0.75675400  0.74911800  0.07728000  1
  Mn  Mn5  1  0.24907600  0.25159400  0.58151100  1
  Mn  Mn6  1  0.99193100  0.99661500  0.66731600  1
  Mn  Mn7  1  0.49079200  0.49577400  0.16733100  1
  Mn  Mn8  1  0.50914200  0.50443700  0.83270100  1
  Mn  Mn9  1  0.00822300  0.00354100  0.33254400  1
  O  O0  1  0.55665800  0.33060000  0.24050800  1
  O  O1  1  0.05602000  0.83332400  0.73875100  1
  O  O2  1  0.94403400  0.16653200  0.26122600  1
  O  O3  1  0.44325600  0.66952300  0.75955100  1
  O  O4  1  0.27762500  0.06251500  0.97529500  1
  O  O5  1  0.77825100  0.56291500  0.47745300  1
  O  O6  1  0.22166600  0.43706800  0.52263900  1
  O  O7  1  0.72237400  0.93747000  0.02459300  1
  O  O8  1  0.80988800  0.58178600  0.15674700  1
  O  O9  1  0.27420500  0.07065900  0.65544100  1
  O  O10  1  0.72580600  0.92925000  0.34460400  1
  O  O11  1  0.19006200  0.41827300  0.84322600  1
  O  O12  1  0.55839300  0.32573400  0.90078200  1
  O  O13  1  0.06237400  0.83247200  0.40806800  1
  O  O14  1  0.93764600  0.16746200  0.59210200  1
  O  O15  1  0.44156200  0.67433900  0.09909100  1
  O  O16  1  0.56450300  0.32829700  0.56593200  1
  O  O17  1  0.07102400  0.83639800  0.07346400  1
  O  O18  1  0.92894200  0.16364100  0.92657800  1
  O  O19  1  0.43550000  0.67160800  0.43406800  1
  O  O20  1  0.81622200  0.57235100  0.82590300  1
  O  O21  1  0.27932400  0.06537400  0.32780400  1
  O  O22  1  0.72066400  0.93463300  0.67235000  1
  O  O23  1  0.18379600  0.42762400  0.17394200  1
loop_
_geom_bond_atom_site_label_1
_geom_bond_atom_site_label_2
_geom_bond_distance
_geom_bond_site_symmetry_2
Li0 O23 2.031605 1_555
Li0 O6 2.082121 1_555
Li0 O4 2.085088 1_554
Li0 O21 2.090605 1_555
Li0 O2 2.194524 1_455
Li0 O0 2.224119 1_555
Li1 O20 2.030909 1_555
Li1 O5 2.081563 1_555
Li1 O7 2.084439 1_556
Li1 O22 2.089670 1_555
Li1 O1 2.194543 1_655
Li1 O3 2.224271 1_555
Li2 O4 2.033842 1_565
Li2 O1 2.076973 1_555
Li2 O3 2.085535 1_555
Li2 O19 2.112113 1_555
Li2 O9 2.202585 1_565
Li2 O22 2.546468 1_555
Li3 O5 2.020718 1_555
Li3 O23 2.112673 1_655
Li3 O8 2.121090 1_555
Li3 O2 2.209606 1_555
Li3 O18 2.220325 1_554
Li3 O0 2.246765 1_555
Li4 O6 2.020107 1_555
Li4 O20 2.112477 1_455
Li4 O11 2.120966 1_555
Li4 O1 2.207803 1_555
Li4 O17 2.220690 1_556
Li4 O3 2.246524 1_555
Li5 O7 2.034554 1_545
Li5 O2 2.077007 1_555
Li5 O0 2.086485 1_555
Li5 O16 2.111841 1_555
Li5 O10 2.203548 1_545
Li5 O21 2.546706 1_555
Li6 O18 2.076128 1_555
Li6 O7 2.101455 1_546
Li6 O22 2.140060 1_545
Li6 O0 2.183859 1_556
Li6 O12 2.191593 1_555
Li6 O4 2.453621 1_555
Li7 O6 2.048213 1_555
Li7 O23 2.063746 1_555
Li7 O19 2.153071 1_555
Li7 O13 2.250862 1_555
Li7 O1 2.261977 1_555
Li7 O5 2.434023 1_455
Li8 O5 2.047477 1_555
Li8 O20 2.063341 1_555
Li8 O16 2.153227 1_555
Li8 O14 2.252542 1_555
Li8 O2 2.261958 1_555
Li8 O6 2.433484 1_655
Li9 O17 2.076095 1_555
Li9 O4 2.101598 1_564
Li9 O21 2.140977 1_565
Li9 O3 2.183256 1_554
Li9 O15 2.190571 1_555
Li9 O7 2.453742 1_555
Li10 O14 2.028297 1_555
Li10 O22 2.058967 1_545
Li10 O12 2.090211 1_555
Li10 O16 2.151831 1_555
Li10 O10 2.157949 1_545
Li10 O9 2.572645 1_555
Li11 O23 1.991450 1_555
Li11 O11 2.095702 1_554
Li11 O8 2.174677 1_455
Li11 O15 2.210430 1_555
Li11 O17 2.223008 1_555
Li11 O13 2.239798 1_555
Li12 O20 1.991504 1_555
Li12 O8 2.096186 1_556
Li12 O11 2.174921 1_655
Li12 O12 2.210094 1_555
Li12 O18 2.223421 1_555
Li12 O14 2.238531 1_555
Li13 O13 2.028530 1_555
Li13 O21 2.057920 1_565
Li13 O15 2.090891 1_555
Li13 O19 2.152866 1_555
Li13 O9 2.157840 1_565
Li13 O10 2.572299 1_555
Mn0 O3 1.944918 1_555
Mn0 O19 1.945117 1_555
Mn0 O16 1.945170 1_555
Mn0 O0 1.946711 1_555
Mn0 O5 1.975575 1_555
Mn0 O6 1.979530 1_555
Mn1 O17 1.942365 1_656
Mn1 O18 1.943933 1_565
Mn1 O1 1.950670 1_655
Mn1 O2 1.953137 1_566
Mn1 O7 1.972111 1_556
Mn1 O4 1.973417 1_665
Mn2 O5 1.949487 1_555
Mn2 O22 1.955357 1_555
Mn2 O8 1.957902 1_555
Mn2 O10 2.005286 1_555
Mn2 O13 2.247562 1_655
Mn2 O19 2.254278 1_555
Mn3 O23 1.911593 1_556
Mn3 O4 1.948999 1_555
Mn3 O11 1.972590 1_555
Mn3 O9 2.024401 1_555
Mn3 O12 2.248364 1_555
Mn3 O18 2.275010 1_455
Mn4 O20 1.910547 1_554
Mn4 O7 1.949338 1_555
Mn4 O8 1.972278 1_555
Mn4 O10 2.026594 1_555
Mn4 O15 2.248017 1_555
Mn4 O17 2.275451 1_655
Mn5 O6 1.952078 1_555
Mn5 O11 1.954796 1_555
Mn5 O21 1.957204 1_555
Mn5 O9 2.003015 1_555
Mn5 O14 2.247697 1_455
Mn5 O16 2.253964 1_555
Mn6 O1 1.911382 1_655
Mn6 O22 1.930516 1_555
Mn6 O13 1.935764 1_655
Mn6 O18 1.939670 1_565
Mn6 O14 1.975634 1_565
Mn6 O9 2.031250 1_665
Mn7 O0 1.941654 1_555
Mn7 O15 1.985176 1_555
Mn7 O12 1.991556 1_554
Mn7 O19 2.003388 1_555
Mn7 O23 2.179985 1_555
Mn7 O8 2.302511 1_555
Mn8 O3 1.940822 1_555
Mn8 O12 1.985365 1_555
Mn8 O15 1.990309 1_556
Mn8 O16 2.004151 1_555
Mn8 O20 2.179948 1_555
Mn8 O11 2.302824 1_555
Mn9 O2 1.908456 1_455
Mn9 O21 1.929204 1_555
Mn9 O14 1.937411 1_455
Mn9 O17 1.938709 1_545
Mn9 O13 1.979151 1_545
Mn9 O10 2.032852 1_445
