# generated using pymatgen
data_YMg14VO16
_symmetry_space_group_name_H-M   'P 1'
_cell_length_a   4.38321900
_cell_length_b   8.69619200
_cell_length_c   8.72808400
_cell_angle_alpha   90.00000000
_cell_angle_beta   90.00000000
_cell_angle_gamma   90.00000000
_symmetry_Int_Tables_number   1
_chemical_formula_structural   YMg14VO16
_chemical_formula_sum   'Y1 Mg14 V1 O16'
_cell_volume   332.69111846
_cell_formula_units_Z   1
loop_
 _symmetry_equiv_pos_site_id
 _symmetry_equiv_pos_as_xyz
  1  'x, y, z'
loop_
 _atom_site_type_symbol
 _atom_site_label
 _atom_site_symmetry_multiplicity
 _atom_site_fract_x
 _atom_site_fract_y
 _atom_site_fract_z
 _atom_site_occupancy
  Y  Y0  1  0.00000000  0.00000000  0.00000000  1
  Mg  Mg0  1  0.00000000  0.50000000  0.00000000  1
  Mg  Mg1  1  0.00000000  0.50000000  0.50000000  1
  Mg  Mg2  1  0.50000000  0.00000000  0.26193800  1
  Mg  Mg3  1  0.50000000  0.00000000  0.73806200  1
  Mg  Mg4  1  0.50000000  0.50000000  0.25294600  1
  Mg  Mg5  1  0.50000000  0.50000000  0.74705400  1
  Mg  Mg6  1  0.50000000  0.26247300  0.00000000  1
  Mg  Mg7  1  0.50000000  0.25249300  0.50000000  1
  Mg  Mg8  1  0.50000000  0.73752700  0.00000000  1
  Mg  Mg9  1  0.50000000  0.74750700  0.50000000  1
  Mg  Mg10  1  0.00000000  0.25735400  0.25734400  1
  Mg  Mg11  1  0.00000000  0.25735400  0.74265600  1
  Mg  Mg12  1  0.00000000  0.74264600  0.25734400  1
  Mg  Mg13  1  0.00000000  0.74264600  0.74265600  1
  V  V0  1  0.00000000  0.00000000  0.50000000  1
  O  O0  1  0.00000000  0.26056200  0.00000000  1
  O  O1  1  0.00000000  0.25572400  0.50000000  1
  O  O2  1  0.00000000  0.73943800  0.00000000  1
  O  O3  1  0.00000000  0.74427600  0.50000000  1
  O  O4  1  0.50000000  0.24967800  0.25027700  1
  O  O5  1  0.50000000  0.24967800  0.74972300  1
  O  O6  1  0.50000000  0.75032200  0.25027700  1
  O  O7  1  0.50000000  0.75032200  0.74972300  1
  O  O8  1  0.50000000  0.00000000  0.00000000  1
  O  O9  1  0.50000000  0.00000000  0.50000000  1
  O  O10  1  0.50000000  0.50000000  0.00000000  1
  O  O11  1  0.50000000  0.50000000  0.50000000  1
  O  O12  1  0.00000000  0.00000000  0.25648000  1
  O  O13  1  0.00000000  0.00000000  0.74352000  1
  O  O14  1  0.00000000  0.50000000  0.25152200  1
  O  O15  1  0.00000000  0.50000000  0.74847800  1
loop_
_geom_bond_atom_site_label_1
_geom_bond_atom_site_label_2
_geom_bond_distance
_geom_bond_site_symmetry_2
Mg0 O0 2.082199 1_555
Mg0 O2 2.082199 1_555
Mg0 O10 2.191610 1_555
Mg0 O10 2.191610 1_455
Mg0 O14 2.195305 1_555
Mg0 O15 2.195305 1_554
Mg1 O1 2.124271 1_555
Mg1 O3 2.124271 1_555
Mg1 O14 2.168737 1_555
Mg1 O15 2.168737 1_555
Mg1 O11 2.191610 1_555
Mg1 O11 2.191610 1_455
Mg2 O9 2.077825 1_555
Mg2 O6 2.173632 1_545
Mg2 O4 2.173632 1_555
Mg2 O12 2.192127 1_655
Mg2 O12 2.192127 1_555
Mg2 O8 2.286217 1_555
Mg3 O9 2.077825 1_555
Mg3 O7 2.173632 1_545
Mg3 O5 2.173632 1_555
Mg3 O13 2.192127 1_555
Mg3 O13 2.192127 1_655
Mg3 O8 2.286217 1_556
Mg4 O11 2.156308 1_555
Mg4 O4 2.176973 1_555
Mg4 O6 2.176973 1_555
Mg4 O14 2.191645 1_655
Mg4 O14 2.191645 1_555
Mg4 O10 2.207734 1_555
Mg5 O11 2.156308 1_555
Mg5 O5 2.176973 1_555
Mg5 O7 2.176973 1_555
Mg5 O15 2.191645 1_655
Mg5 O15 2.191645 1_555
Mg5 O10 2.207734 1_556
Mg6 O10 2.065580 1_555
Mg6 O5 2.187271 1_554
Mg6 O4 2.187271 1_555
Mg6 O0 2.191673 1_555
Mg6 O0 2.191673 1_655
Mg6 O8 2.282516 1_555
Mg7 O11 2.152368 1_555
Mg7 O4 2.179741 1_555
Mg7 O5 2.179741 1_555
Mg7 O1 2.191790 1_555
Mg7 O1 2.191790 1_655
Mg7 O9 2.195728 1_555
Mg8 O10 2.065580 1_555
Mg8 O7 2.187271 1_554
Mg8 O6 2.187271 1_555
Mg8 O2 2.191673 1_655
Mg8 O2 2.191673 1_555
Mg8 O8 2.282516 1_565
Mg9 O11 2.152368 1_555
Mg9 O6 2.179741 1_555
Mg9 O7 2.179741 1_555
Mg9 O3 2.191790 1_655
Mg9 O3 2.191790 1_555
Mg9 O9 2.195728 1_565
Mg10 O14 2.110708 1_555
Mg10 O1 2.117969 1_555
Mg10 O4 2.193493 1_455
Mg10 O4 2.193493 1_555
Mg10 O12 2.238013 1_555
Mg10 O0 2.246293 1_555
Mg11 O15 2.110708 1_555
Mg11 O1 2.117969 1_555
Mg11 O5 2.193493 1_455
Mg11 O5 2.193493 1_555
Mg11 O13 2.238013 1_555
Mg11 O0 2.246293 1_556
Mg12 O14 2.110708 1_555
Mg12 O3 2.117969 1_555
Mg12 O6 2.193493 1_555
Mg12 O6 2.193493 1_455
Mg12 O12 2.238013 1_565
Mg12 O2 2.246293 1_555
Mg13 O15 2.110708 1_555
Mg13 O3 2.117969 1_555
Mg13 O7 2.193493 1_555
Mg13 O7 2.193493 1_455
Mg13 O13 2.238013 1_565
Mg13 O2 2.246293 1_556
O0 Y0 2.265897 1_555
O1 V0 2.223825 1_555
O2 Y0 2.265897 1_565
O3 V0 2.223825 1_565
O8 Y0 2.191610 1_555
O8 Y0 2.191610 1_655
O9 V0 2.191610 1_555
O9 V0 2.191610 1_655
O12 V0 2.125463 1_555
O12 Y0 2.238579 1_555
O13 V0 2.125463 1_555
O13 Y0 2.238579 1_556
