# generated using pymatgen
data_Gd2Re3Si5
_symmetry_space_group_name_H-M   'P 1'
_cell_length_a   10.98685300
_cell_length_b   10.98685300
_cell_length_c   5.58165500
_cell_angle_alpha   90.00000000
_cell_angle_beta   90.00000000
_cell_angle_gamma   90.00000000
_symmetry_Int_Tables_number   1
_chemical_formula_structural   Gd2Re3Si5
_chemical_formula_sum   'Gd8 Re12 Si20'
_cell_volume   673.76681535
_cell_formula_units_Z   4
loop_
 _symmetry_equiv_pos_site_id
 _symmetry_equiv_pos_as_xyz
  1  'x, y, z'
loop_
 _atom_site_type_symbol
 _atom_site_label
 _atom_site_symmetry_multiplicity
 _atom_site_fract_x
 _atom_site_fract_y
 _atom_site_fract_z
 _atom_site_occupancy
  Gd  Gd0  1  0.76247300  0.92255800  0.50000000  1
  Gd  Gd1  1  0.23752700  0.07744200  0.50000000  1
  Gd  Gd2  1  0.26247300  0.57744200  0.00000000  1
  Gd  Gd3  1  0.73752700  0.42255800  0.00000000  1
  Gd  Gd4  1  0.07744200  0.76247300  0.50000000  1
  Gd  Gd5  1  0.92255800  0.23752700  0.50000000  1
  Gd  Gd6  1  0.42255800  0.26247300  0.00000000  1
  Gd  Gd7  1  0.57744200  0.73752700  0.00000000  1
  Re  Re0  1  0.64686800  0.62332500  0.50000000  1
  Re  Re1  1  0.35313200  0.37667500  0.50000000  1
  Re  Re2  1  0.14686800  0.87667500  0.00000000  1
  Re  Re3  1  0.85313200  0.12332500  0.00000000  1
  Re  Re4  1  0.37667500  0.64686800  0.50000000  1
  Re  Re5  1  0.62332500  0.35313200  0.50000000  1
  Re  Re6  1  0.12332500  0.14686800  0.00000000  1
  Re  Re7  1  0.87667500  0.85313200  0.00000000  1
  Re  Re8  1  0.50000000  0.00000000  0.25000000  1
  Re  Re9  1  0.00000000  0.50000000  0.75000000  1
  Re  Re10  1  0.00000000  0.50000000  0.25000000  1
  Re  Re11  1  0.50000000  0.00000000  0.75000000  1
  Si  Si0  1  0.52697600  0.81490400  0.50000000  1
  Si  Si1  1  0.47302400  0.18509600  0.50000000  1
  Si  Si2  1  0.02697600  0.68509600  0.00000000  1
  Si  Si3  1  0.97302400  0.31490400  0.00000000  1
  Si  Si4  1  0.18509600  0.52697600  0.50000000  1
  Si  Si5  1  0.81490400  0.47302400  0.50000000  1
  Si  Si6  1  0.31490400  0.02697600  0.00000000  1
  Si  Si7  1  0.68509600  0.97302400  0.00000000  1
  Si  Si8  1  0.67195700  0.17195700  0.25000000  1
  Si  Si9  1  0.32804300  0.82804300  0.25000000  1
  Si  Si10  1  0.17195700  0.32804300  0.75000000  1
  Si  Si11  1  0.82804300  0.67195700  0.75000000  1
  Si  Si12  1  0.82804300  0.67195700  0.25000000  1
  Si  Si13  1  0.17195700  0.32804300  0.25000000  1
  Si  Si14  1  0.67195700  0.17195700  0.75000000  1
  Si  Si15  1  0.32804300  0.82804300  0.75000000  1
  Si  Si16  1  0.50000000  0.50000000  0.24399800  1
  Si  Si17  1  0.00000000  0.00000000  0.74399800  1
  Si  Si18  1  0.50000000  0.50000000  0.75600200  1
  Si  Si19  1  0.00000000  0.00000000  0.25600200  1
loop_
_geom_bond_atom_site_label_1
_geom_bond_atom_site_label_2
_geom_bond_distance
_geom_bond_site_symmetry_2
Gd0 Si0 2.844900 1_555
Gd0 Si7 2.969658 1_556
Gd0 Si7 2.969658 1_555
Gd0 Si17 3.064171 1_665
Gd0 Si19 3.064171 1_665
Gd0 Re7 3.153548 1_555
Gd0 Re7 3.153548 1_556
Gd0 Si11 3.169687 1_555
Gd0 Si12 3.169687 1_555
Gd0 Si14 3.231777 1_565
Gd0 Si8 3.231777 1_565
Gd0 Re8 3.314686 1_565
Gd0 Re11 3.314686 1_565
Gd1 Si1 2.844900 1_555
Gd1 Si6 2.969658 1_556
Gd1 Si6 2.969658 1_555
Gd1 Si17 3.064171 1_555
Gd1 Si19 3.064171 1_555
Gd1 Re6 3.153548 1_556
Gd1 Re6 3.153548 1_555
Gd1 Si10 3.169687 1_555
Gd1 Si13 3.169687 1_555
Gd1 Si9 3.231777 1_545
Gd1 Si15 3.231777 1_545
Gd1 Re11 3.314686 1_555
Gd1 Re8 3.314686 1_555
Gd2 Si2 2.844900 1_555
Gd2 Si4 2.969658 1_554
Gd2 Si4 2.969658 1_555
Gd2 Si16 3.064171 1_555
Gd2 Si18 3.064171 1_554
Gd2 Re4 3.153548 1_554
Gd2 Re4 3.153548 1_555
Gd2 Si15 3.169687 1_554
Gd2 Si9 3.169687 1_555
Gd2 Si13 3.231777 1_555
Gd2 Si10 3.231777 1_554
Gd2 Re10 3.314686 1_555
Gd2 Re9 3.314686 1_554
Gd3 Si3 2.844900 1_555
Gd3 Si5 2.969658 1_554
Gd3 Si5 2.969658 1_555
Gd3 Si18 3.064171 1_554
Gd3 Si16 3.064171 1_555
Gd3 Re5 3.153548 1_555
Gd3 Re5 3.153548 1_554
Gd3 Si8 3.169687 1_555
Gd3 Si14 3.169687 1_554
Gd3 Si11 3.231777 1_554
Gd3 Si12 3.231777 1_555
Gd3 Re10 3.314686 1_655
Gd3 Re9 3.314686 1_654
Gd4 Si4 2.844900 1_555
Gd4 Si2 2.969658 1_556
Gd4 Si2 2.969658 1_555
Gd4 Si17 3.064171 1_565
Gd4 Si19 3.064171 1_565
Gd4 Re2 3.153548 1_556
Gd4 Re2 3.153548 1_555
Gd4 Si15 3.169687 1_555
Gd4 Si9 3.169687 1_555
Gd4 Si11 3.231777 1_455
Gd4 Si12 3.231777 1_455
Gd4 Re10 3.314686 1_555
Gd4 Re9 3.314686 1_555
Gd5 Si5 2.844900 1_555
Gd5 Si3 2.969658 1_556
Gd5 Si3 2.969658 1_555
Gd5 Si17 3.064171 1_655
Gd5 Si19 3.064171 1_655
Gd5 Re3 3.153548 1_555
Gd5 Re3 3.153548 1_556
Gd5 Si8 3.169687 1_555
Gd5 Si14 3.169687 1_555
Gd5 Si10 3.231777 1_655
Gd5 Si13 3.231777 1_655
Gd5 Re9 3.314686 1_655
Gd5 Re10 3.314686 1_655
Gd6 Si6 2.844900 1_555
Gd6 Si1 2.969658 1_554
Gd6 Si1 2.969658 1_555
Gd6 Si18 3.064171 1_554
Gd6 Si16 3.064171 1_555
Gd6 Re1 3.153548 1_555
Gd6 Re1 3.153548 1_554
Gd6 Si10 3.169687 1_554
Gd6 Si13 3.169687 1_555
Gd6 Si8 3.231777 1_555
Gd6 Si14 3.231777 1_554
Gd6 Re11 3.314686 1_554
Gd6 Re8 3.314686 1_555
Gd7 Si7 2.844900 1_555
Gd7 Si0 2.969658 1_555
Gd7 Si0 2.969658 1_554
Gd7 Si18 3.064171 1_554
Gd7 Si16 3.064171 1_555
Gd7 Re0 3.153548 1_555
Gd7 Re0 3.153548 1_554
Gd7 Si12 3.169687 1_555
Gd7 Si11 3.169687 1_554
Gd7 Si15 3.231777 1_554
Gd7 Si9 3.231777 1_555
Gd7 Re8 3.314686 1_565
Gd7 Re11 3.314686 1_564
Re0 Si5 2.476956 1_555
Re0 Si0 2.483043 1_555
Re0 Si11 2.488962 1_555
Re0 Si12 2.488962 1_555
Re0 Si18 2.545871 1_555
Re0 Si16 2.545871 1_555
Re1 Si4 2.476956 1_555
Re1 Si1 2.483043 1_555
Re1 Si13 2.488962 1_555
Re1 Si10 2.488962 1_555
Re1 Si18 2.545871 1_555
Re1 Si16 2.545871 1_555
Re2 Si6 2.476956 1_565
Re2 Si2 2.483043 1_555
Re2 Si15 2.488962 1_554
Re2 Si9 2.488962 1_555
Re2 Si19 2.545871 1_565
Re2 Si17 2.545871 1_564
Re3 Si7 2.476956 1_545
Re3 Si3 2.483043 1_555
Re3 Si8 2.488962 1_555
Re3 Si14 2.488962 1_554
Re3 Si19 2.545871 1_655
Re3 Si17 2.545871 1_654
Re4 Si0 2.476956 1_555
Re4 Si4 2.483043 1_555
Re4 Si15 2.488962 1_555
Re4 Si9 2.488962 1_555
Re4 Si18 2.545871 1_555
Re4 Si16 2.545871 1_555
Re5 Si1 2.476956 1_555
Re5 Si5 2.483043 1_555
Re5 Si8 2.488962 1_555
Re5 Si14 2.488962 1_555
Re5 Si18 2.545871 1_555
Re5 Si16 2.545871 1_555
Re6 Si3 2.476956 1_455
Re6 Si6 2.483043 1_555
Re6 Si10 2.488962 1_554
Re6 Si13 2.488962 1_555
Re6 Si19 2.545871 1_555
Re6 Si17 2.545871 1_554
Re7 Si2 2.476956 1_655
Re7 Si7 2.483043 1_555
Re7 Si12 2.488962 1_555
Re7 Si11 2.488962 1_554
Re7 Si19 2.545871 1_665
Re7 Si17 2.545871 1_664
Re8 Si1 2.484078 1_555
Re8 Si7 2.484078 1_545
Re8 Si0 2.484078 1_545
Re8 Si6 2.484078 1_555
Re8 Si8 2.671826 1_555
Re8 Si9 2.671826 1_545
Re9 Si4 2.484078 1_555
Re9 Si2 2.484078 1_556
Re9 Si5 2.484078 1_455
Re9 Si3 2.484078 1_456
Re9 Si11 2.671826 1_455
Re9 Si10 2.671826 1_555
Re10 Si2 2.484078 1_555
Re10 Si4 2.484078 1_555
Re10 Si5 2.484078 1_455
Re10 Si3 2.484078 1_455
Re10 Si12 2.671826 1_455
Re10 Si13 2.671826 1_555
Re10 Re9 2.790827 1_555
Re10 Re9 2.790827 1_554
Re11 Si1 2.484078 1_555
Re11 Si7 2.484078 1_546
Re11 Si0 2.484078 1_545
Re11 Si6 2.484078 1_556
Re11 Si14 2.671826 1_555
Re11 Si15 2.671826 1_545
Re11 Re8 2.790827 1_556
Re11 Re8 2.790827 1_555
Si0 Si15 2.597128 1_555
Si0 Si9 2.597128 1_555
Si1 Si8 2.597128 1_555
Si1 Si14 2.597128 1_555
Si6 Si9 2.597128 1_545
Si7 Si8 2.597128 1_565
Si10 Si4 2.597128 1_555
Si10 Si3 2.597128 1_456
Si10 Si13 2.790827 1_555
Si10 Si13 2.790827 1_556
Si11 Si5 2.597128 1_555
Si11 Si2 2.597128 1_656
Si11 Si12 2.790827 1_555
Si11 Si12 2.790827 1_556
Si12 Si5 2.597128 1_555
Si12 Si2 2.597128 1_655
Si13 Si4 2.597128 1_555
Si13 Si3 2.597128 1_455
Si14 Si7 2.597128 1_546
Si14 Si8 2.790827 1_556
Si14 Si8 2.790827 1_555
Si15 Si6 2.597128 1_566
Si15 Si9 2.790827 1_555
Si15 Si9 2.790827 1_556
Si16 Si18 2.723825 1_554
Si17 Si19 2.723825 1_555
