# generated using pymatgen
data_SmGaPd2
_symmetry_space_group_name_H-M   'P 1'
_cell_length_a   5.66440776
_cell_length_b   7.07362513
_cell_length_c   7.50075211
_cell_angle_alpha   90.00000000
_cell_angle_beta   90.00000000
_cell_angle_gamma   90.00000000
_symmetry_Int_Tables_number   1
_chemical_formula_structural   SmGaPd2
_chemical_formula_sum   'Sm4 Ga4 Pd8'
_cell_volume   300.53936355
_cell_formula_units_Z   4
loop_
 _symmetry_equiv_pos_site_id
 _symmetry_equiv_pos_as_xyz
  1  'x, y, z'
loop_
 _atom_site_type_symbol
 _atom_site_label
 _atom_site_symmetry_multiplicity
 _atom_site_fract_x
 _atom_site_fract_y
 _atom_site_fract_z
 _atom_site_occupancy
  Sm  Sm0  1  0.35214803  0.75000000  0.03316022  1
  Sm  Sm1  1  0.14785197  0.75000000  0.53316022  1
  Sm  Sm2  1  0.64785197  0.25000000  0.96683978  1
  Sm  Sm3  1  0.85214803  0.25000000  0.46683978  1
  Ga  Ga0  1  0.64934869  0.75000000  0.38154851  1
  Ga  Ga1  1  0.85065131  0.75000000  0.88154851  1
  Ga  Ga2  1  0.35065131  0.25000000  0.61845149  1
  Ga  Ga3  1  0.14934869  0.25000000  0.11845149  1
  Pd  Pd0  1  0.91186051  0.55222938  0.17902207  1
  Pd  Pd1  1  0.58813949  0.94777062  0.67902207  1
  Pd  Pd2  1  0.08813949  0.05222938  0.82097793  1
  Pd  Pd3  1  0.41186051  0.44777062  0.32097793  1
  Pd  Pd4  1  0.08813949  0.44777062  0.82097793  1
  Pd  Pd5  1  0.41186051  0.05222938  0.32097793  1
  Pd  Pd6  1  0.91186051  0.94777062  0.17902207  1
  Pd  Pd7  1  0.58813949  0.55222938  0.67902207  1
loop_
_geom_bond_atom_site_label_1
_geom_bond_atom_site_label_2
_geom_bond_distance
_geom_bond_site_symmetry_2
Ga0 Pd0 2.544766 1_555
Ga0 Pd6 2.544766 1_555
Ga0 Pd5 2.566416 1_565
Ga0 Pd3 2.566416 1_555
Ga0 Pd1 2.656290 1_555
Ga0 Pd7 2.656290 1_555
Ga0 Sm1 3.044118 1_655
Ga0 Sm1 3.059853 1_555
Ga0 Sm0 3.108494 1_555
Ga1 Pd7 2.544766 1_555
Ga1 Pd1 2.544766 1_555
Ga1 Pd4 2.566416 1_655
Ga1 Pd2 2.566416 1_665
Ga1 Pd0 2.656290 1_556
Ga1 Pd6 2.656290 1_556
Ga1 Sm0 3.044118 1_556
Ga1 Sm0 3.059853 1_656
Ga1 Sm1 3.108494 1_655
Ga2 Pd2 2.544766 1_555
Ga2 Pd4 2.544766 1_555
Ga2 Pd1 2.566416 1_545
Ga2 Pd7 2.566416 1_555
Ga2 Pd5 2.656290 1_555
Ga2 Pd3 2.656290 1_555
Ga2 Sm3 3.044118 1_455
Ga2 Sm3 3.059853 1_555
Ga2 Sm2 3.108494 1_555
Ga3 Pd5 2.544766 1_555
Ga3 Pd3 2.544766 1_555
Ga3 Pd6 2.566416 1_445
Ga3 Pd0 2.566416 1_455
Ga3 Pd4 2.656290 1_554
Ga3 Pd2 2.656290 1_554
Ga3 Sm2 3.044118 1_554
Ga3 Sm2 3.059853 1_454
Ga3 Sm3 3.108494 1_455
Pd0 Pd6 2.797910 1_555
Pd0 Pd4 2.958963 1_654
Pd0 Sm2 3.056103 1_554
Pd0 Sm3 3.057036 1_555
Pd0 Sm0 3.061691 1_655
Pd0 Pd3 3.114659 1_655
Pd0 Pd3 3.114659 1_555
Pd0 Sm1 3.286324 1_655
Pd0 Sm0 3.633973 1_555
Pd1 Pd7 2.797910 1_555
Pd1 Pd5 2.958963 1_565
Pd1 Sm3 3.056103 1_565
Pd1 Sm2 3.057036 1_565
Pd1 Sm1 3.061691 1_555
Pd1 Pd2 3.114659 1_565
Pd1 Pd2 3.114659 1_665
Pd1 Sm0 3.286324 1_556
Pd1 Sm1 3.633973 1_655
Pd2 Pd4 2.797910 1_555
Pd2 Pd6 2.958963 1_446
Pd2 Sm0 3.056103 1_546
Pd2 Sm1 3.057036 1_545
Pd2 Sm2 3.061691 1_455
Pd2 Sm3 3.286324 1_455
Pd2 Sm2 3.633973 1_555
Pd3 Pd5 2.797910 1_555
Pd3 Pd7 2.958963 1_555
Pd3 Sm1 3.056103 1_555
Pd3 Sm0 3.057036 1_555
Pd3 Sm3 3.061691 1_555
Pd3 Sm2 3.286324 1_554
Pd3 Sm3 3.633973 1_455
Pd4 Sm0 3.056103 1_556
Pd4 Sm1 3.057036 1_555
Pd4 Sm2 3.061691 1_455
Pd4 Pd7 3.114659 1_455
Pd4 Pd7 3.114659 1_555
Pd4 Sm3 3.286324 1_455
Pd4 Sm2 3.633973 1_555
Pd5 Sm1 3.056103 1_545
Pd5 Sm0 3.057036 1_545
Pd5 Sm3 3.061691 1_555
Pd5 Pd6 3.114659 1_545
Pd5 Pd6 3.114659 1_445
Pd5 Sm2 3.286324 1_554
Pd5 Sm3 3.633973 1_455
Pd6 Sm2 3.056103 1_564
Pd6 Sm3 3.057036 1_565
Pd6 Sm0 3.061691 1_655
Pd6 Sm1 3.286324 1_655
Pd6 Sm0 3.633973 1_555
Pd7 Sm3 3.056103 1_555
Pd7 Sm2 3.057036 1_555
Pd7 Sm1 3.061691 1_555
Pd7 Sm0 3.286324 1_556
Pd7 Sm1 3.633973 1_655
