# generated using pymatgen
data_Ca10Al2Cu19
_symmetry_space_group_name_H-M   'P 1'
_cell_length_a   14.76084410
_cell_length_b   14.76084410
_cell_length_c   9.05952400
_cell_angle_alpha   90.00000000
_cell_angle_beta   90.00000000
_cell_angle_gamma   120.00000045
_symmetry_Int_Tables_number   1
_chemical_formula_structural   Ca10Al2Cu19
_chemical_formula_sum   'Ca30 Al6 Cu57'
_cell_volume   1709.45784755
_cell_formula_units_Z   3
loop_
 _symmetry_equiv_pos_site_id
 _symmetry_equiv_pos_as_xyz
  1  'x, y, z'
loop_
 _atom_site_type_symbol
 _atom_site_label
 _atom_site_symmetry_multiplicity
 _atom_site_fract_x
 _atom_site_fract_y
 _atom_site_fract_z
 _atom_site_occupancy
  Ca  Ca0  1  0.00000000  0.00000000  0.21833500  1
  Ca  Ca1  1  0.00000000  0.00000000  0.78166500  1
  Ca  Ca2  1  0.37925900  0.00000000  0.00000000  1
  Ca  Ca3  1  0.62074100  0.00000000  0.00000000  1
  Ca  Ca4  1  0.00000000  0.37925900  0.00000000  1
  Ca  Ca5  1  0.00000000  0.62074100  0.00000000  1
  Ca  Ca6  1  0.62074100  0.62074100  0.00000000  1
  Ca  Ca7  1  0.37925900  0.37925900  0.00000000  1
  Ca  Ca8  1  0.20788500  0.41577000  0.20820200  1
  Ca  Ca9  1  0.79211500  0.58423000  0.79179800  1
  Ca  Ca10  1  0.58423000  0.79211500  0.20820200  1
  Ca  Ca11  1  0.79211500  0.58423000  0.20820200  1
  Ca  Ca12  1  0.41577000  0.20788500  0.79179800  1
  Ca  Ca13  1  0.20788500  0.41577000  0.79179800  1
  Ca  Ca14  1  0.20788500  0.79211500  0.20820200  1
  Ca  Ca15  1  0.41577000  0.20788500  0.20820200  1
  Ca  Ca16  1  0.79211500  0.20788500  0.79179800  1
  Ca  Ca17  1  0.58423000  0.79211500  0.79179800  1
  Ca  Ca18  1  0.79211500  0.20788500  0.20820200  1
  Ca  Ca19  1  0.20788500  0.79211500  0.79179800  1
  Ca  Ca20  1  0.33333300  0.66666700  0.31489700  1
  Ca  Ca21  1  0.66666700  0.33333300  0.68510300  1
  Ca  Ca22  1  0.66666700  0.33333300  0.31489700  1
  Ca  Ca23  1  0.33333300  0.66666700  0.68510300  1
  Ca  Ca24  1  0.13242200  0.26484300  0.50000000  1
  Ca  Ca25  1  0.86757800  0.73515700  0.50000000  1
  Ca  Ca26  1  0.73515700  0.86757800  0.50000000  1
  Ca  Ca27  1  0.26484300  0.13242200  0.50000000  1
  Ca  Ca28  1  0.13242200  0.86757800  0.50000000  1
  Ca  Ca29  1  0.86757800  0.13242200  0.50000000  1
  Al  Al0  1  0.60363500  0.20727100  0.00000000  1
  Al  Al1  1  0.39636500  0.79272900  0.00000000  1
  Al  Al2  1  0.79272900  0.39636500  0.00000000  1
  Al  Al3  1  0.20727100  0.60363500  0.00000000  1
  Al  Al4  1  0.60363500  0.39636500  0.00000000  1
  Al  Al5  1  0.39636500  0.60363500  0.00000000  1
  Cu  Cu0  1  0.16214600  0.49073300  0.50000000  1
  Cu  Cu1  1  0.83785400  0.50926700  0.50000000  1
  Cu  Cu2  1  0.50926700  0.67141200  0.50000000  1
  Cu  Cu3  1  0.49073300  0.16214600  0.50000000  1
  Cu  Cu4  1  0.49073300  0.32858800  0.50000000  1
  Cu  Cu5  1  0.50926700  0.83785400  0.50000000  1
  Cu  Cu6  1  0.32858800  0.83785400  0.50000000  1
  Cu  Cu7  1  0.67141200  0.50926700  0.50000000  1
  Cu  Cu8  1  0.67141200  0.16214600  0.50000000  1
  Cu  Cu9  1  0.32858800  0.49073300  0.50000000  1
  Cu  Cu10  1  0.83785400  0.32858800  0.50000000  1
  Cu  Cu11  1  0.16214600  0.67141200  0.50000000  1
  Cu  Cu12  1  0.10646300  0.21292600  0.00000000  1
  Cu  Cu13  1  0.89353700  0.78707400  0.00000000  1
  Cu  Cu14  1  0.78707400  0.89353700  0.00000000  1
  Cu  Cu15  1  0.21292600  0.10646300  0.00000000  1
  Cu  Cu16  1  0.10646300  0.89353700  0.00000000  1
  Cu  Cu17  1  0.89353700  0.10646300  0.00000000  1
  Cu  Cu18  1  0.55077000  0.10153900  0.25174300  1
  Cu  Cu19  1  0.44923000  0.89846100  0.74825700  1
  Cu  Cu20  1  0.89846100  0.44923000  0.25174300  1
  Cu  Cu21  1  0.44923000  0.89846100  0.25174300  1
  Cu  Cu22  1  0.10153900  0.55077000  0.74825700  1
  Cu  Cu23  1  0.55077000  0.10153900  0.74825700  1
  Cu  Cu24  1  0.55077000  0.44923000  0.25174300  1
  Cu  Cu25  1  0.10153900  0.55077000  0.25174300  1
  Cu  Cu26  1  0.44923000  0.55077000  0.74825700  1
  Cu  Cu27  1  0.89846100  0.44923000  0.74825700  1
  Cu  Cu28  1  0.44923000  0.55077000  0.25174300  1
  Cu  Cu29  1  0.55077000  0.44923000  0.74825700  1
  Cu  Cu30  1  0.50000000  0.00000000  0.50000000  1
  Cu  Cu31  1  0.00000000  0.50000000  0.50000000  1
  Cu  Cu32  1  0.50000000  0.50000000  0.50000000  1
  Cu  Cu33  1  0.20947600  0.00000000  0.21605900  1
  Cu  Cu34  1  0.79052400  0.00000000  0.78394100  1
  Cu  Cu35  1  0.00000000  0.20947600  0.21605900  1
  Cu  Cu36  1  0.79052400  0.00000000  0.21605900  1
  Cu  Cu37  1  0.00000000  0.20947600  0.78394100  1
  Cu  Cu38  1  0.00000000  0.79052400  0.78394100  1
  Cu  Cu39  1  0.20947600  0.00000000  0.78394100  1
  Cu  Cu40  1  0.00000000  0.79052400  0.21605900  1
  Cu  Cu41  1  0.79052400  0.79052400  0.21605900  1
  Cu  Cu42  1  0.20947600  0.20947600  0.78394100  1
  Cu  Cu43  1  0.20947600  0.20947600  0.21605900  1
  Cu  Cu44  1  0.79052400  0.79052400  0.78394100  1
  Cu  Cu45  1  0.35565900  0.00000000  0.35206500  1
  Cu  Cu46  1  0.64434100  0.00000000  0.64793500  1
  Cu  Cu47  1  0.00000000  0.35565900  0.35206500  1
  Cu  Cu48  1  0.64434100  0.00000000  0.35206500  1
  Cu  Cu49  1  0.00000000  0.35565900  0.64793500  1
  Cu  Cu50  1  0.00000000  0.64434100  0.64793500  1
  Cu  Cu51  1  0.35565900  0.00000000  0.64793500  1
  Cu  Cu52  1  0.00000000  0.64434100  0.35206500  1
  Cu  Cu53  1  0.64434100  0.64434100  0.35206500  1
  Cu  Cu54  1  0.35565900  0.35565900  0.64793500  1
  Cu  Cu55  1  0.35565900  0.35565900  0.35206500  1
  Cu  Cu56  1  0.64434100  0.64434100  0.64793500  1
loop_
_geom_bond_atom_site_label_1
_geom_bond_atom_site_label_2
_geom_bond_distance
_geom_bond_site_symmetry_2
Ca0 Cu41 3.092111 1_445
Ca0 Cu43 3.092111 1_555
Ca0 Cu35 3.092111 1_555
Ca0 Cu36 3.092111 1_455
Ca0 Cu40 3.092111 1_545
Ca0 Cu33 3.092111 1_555
Ca0 Cu15 3.364701 1_555
Ca0 Cu12 3.364701 1_555
Ca0 Cu14 3.364701 1_445
Ca0 Cu13 3.364701 1_445
Ca0 Cu17 3.364701 1_455
Ca0 Cu16 3.364701 1_545
Ca1 Cu44 3.092111 1_445
Ca1 Cu42 3.092111 1_555
Ca1 Cu38 3.092111 1_545
Ca1 Cu39 3.092111 1_555
Ca1 Cu34 3.092111 1_455
Ca1 Cu37 3.092111 1_555
Ca1 Cu15 3.364701 1_556
Ca1 Cu12 3.364701 1_556
Ca1 Cu14 3.364701 1_446
Ca1 Cu13 3.364701 1_446
Ca1 Cu17 3.364701 1_456
Ca1 Cu16 3.364701 1_546
Ca2 Cu21 3.172163 1_545
Ca2 Cu19 3.172163 1_544
Ca2 Cu18 3.172171 1_555
Ca2 Cu23 3.172171 1_554
Ca2 Cu39 3.179956 1_554
Ca2 Cu33 3.179956 1_555
Ca2 Cu45 3.208508 1_555
Ca2 Cu51 3.208508 1_554
Ca2 Cu16 3.515107 1_545
Ca2 Cu15 3.515107 1_555
Ca3 Cu18 3.172163 1_555
Ca3 Cu23 3.172163 1_554
Ca3 Cu21 3.172171 1_545
Ca3 Cu19 3.172171 1_544
Ca3 Cu34 3.179956 1_554
Ca3 Cu36 3.179956 1_555
Ca3 Cu48 3.208508 1_555
Ca3 Cu46 3.208508 1_554
Ca3 Cu17 3.515107 1_555
Ca3 Cu14 3.515107 1_545
Ca4 Cu20 3.172163 1_455
Ca4 Cu27 3.172163 1_454
Ca4 Cu22 3.172171 1_554
Ca4 Cu25 3.172171 1_555
Ca4 Cu37 3.179956 1_554
Ca4 Cu35 3.179956 1_555
Ca4 Cu47 3.208508 1_555
Ca4 Cu49 3.208508 1_554
Ca4 Cu17 3.515107 1_455
Ca4 Cu12 3.515107 1_555
Ca5 Cu25 3.172163 1_555
Ca5 Cu22 3.172163 1_554
Ca5 Cu20 3.172171 1_455
Ca5 Cu27 3.172171 1_454
Ca5 Cu38 3.179956 1_554
Ca5 Cu40 3.179956 1_555
Ca5 Cu52 3.208508 1_555
Ca5 Cu50 3.208508 1_554
Ca5 Cu16 3.515107 1_555
Ca5 Cu13 3.515107 1_455
Ca6 Cu28 3.172172 1_555
Ca6 Cu24 3.172172 1_555
Ca6 Cu29 3.172172 1_554
Ca6 Cu26 3.172172 1_554
Ca6 Cu41 3.179956 1_555
Ca6 Cu44 3.179956 1_554
Ca6 Cu53 3.208508 1_555
Ca6 Cu56 3.208508 1_554
Ca6 Cu13 3.515107 1_555
Ca6 Cu14 3.515107 1_555
Ca7 Cu24 3.172172 1_555
Ca7 Cu28 3.172172 1_555
Ca7 Cu29 3.172172 1_554
Ca7 Cu26 3.172172 1_554
Ca7 Cu43 3.179956 1_555
Ca7 Cu42 3.179956 1_554
Ca7 Cu55 3.208508 1_555
Ca7 Cu54 3.208508 1_554
Ca7 Cu12 3.515107 1_555
Ca7 Cu15 3.515107 1_555
Ca8 Cu47 3.029736 1_555
Ca8 Cu55 3.029736 1_555
Ca8 Cu35 3.057712 1_555
Ca8 Cu43 3.057712 1_555
Ca8 Cu0 3.068489 1_555
Ca8 Cu9 3.068495 1_555
Ca8 Cu28 3.117474 1_555
Ca8 Cu25 3.117486 1_555
Ca8 Cu12 3.206476 1_555
Ca9 Cu50 3.029736 1_655
Ca9 Cu56 3.029736 1_555
Ca9 Cu38 3.057712 1_655
Ca9 Cu44 3.057712 1_555
Ca9 Cu1 3.068489 1_555
Ca9 Cu7 3.068495 1_555
Ca9 Cu29 3.117474 1_555
Ca9 Cu27 3.117486 1_555
Ca9 Cu13 3.206476 1_556
Ca10 Cu48 3.029736 1_565
Ca10 Cu53 3.029736 1_555
Ca10 Cu36 3.057712 1_565
Ca10 Cu41 3.057712 1_555
Ca10 Cu5 3.068489 1_555
Ca10 Cu2 3.068495 1_555
Ca10 Cu28 3.117474 1_555
Ca10 Cu21 3.117486 1_555
Ca10 Cu14 3.206476 1_555
Ca11 Cu52 3.029736 1_655
Ca11 Cu53 3.029736 1_555
Ca11 Cu40 3.057712 1_655
Ca11 Cu41 3.057712 1_555
Ca11 Cu1 3.068489 1_555
Ca11 Cu7 3.068495 1_555
Ca11 Cu24 3.117474 1_555
Ca11 Cu20 3.117486 1_555
Ca11 Cu13 3.206476 1_555
Ca12 Cu51 3.029736 1_555
Ca12 Cu54 3.029736 1_555
Ca12 Cu39 3.057712 1_555
Ca12 Cu42 3.057712 1_555
Ca12 Cu3 3.068489 1_555
Ca12 Cu4 3.068495 1_555
Ca12 Cu29 3.117474 1_555
Ca12 Cu23 3.117486 1_555
Ca12 Cu15 3.206476 1_556
Ca13 Cu49 3.029736 1_555
Ca13 Cu54 3.029736 1_555
Ca13 Cu37 3.057712 1_555
Ca13 Cu42 3.057712 1_555
Ca13 Cu0 3.068489 1_555
Ca13 Cu9 3.068495 1_555
Ca13 Cu26 3.117474 1_555
Ca13 Cu22 3.117486 1_555
Ca13 Cu12 3.206476 1_556
Ca14 Cu45 3.029736 1_565
Ca14 Cu52 3.029736 1_555
Ca14 Cu33 3.057712 1_565
Ca14 Cu40 3.057712 1_555
Ca14 Cu11 3.068496 1_555
Ca14 Cu6 3.068496 1_555
Ca14 Cu25 3.117473 1_555
Ca14 Cu21 3.117473 1_555
Ca14 Cu16 3.206476 1_555
Ca15 Cu45 3.029736 1_555
Ca15 Cu55 3.029736 1_555
Ca15 Cu33 3.057712 1_555
Ca15 Cu43 3.057712 1_555
Ca15 Cu3 3.068489 1_555
Ca15 Cu4 3.068495 1_555
Ca15 Cu24 3.117474 1_555
Ca15 Cu18 3.117486 1_555
Ca15 Cu15 3.206476 1_555
Ca16 Cu49 3.029736 1_655
Ca16 Cu46 3.029736 1_555
Ca16 Cu34 3.057712 1_555
Ca16 Cu37 3.057712 1_655
Ca16 Cu8 3.068496 1_555
Ca16 Cu10 3.068496 1_555
Ca16 Cu23 3.117473 1_555
Ca16 Cu27 3.117473 1_555
Ca16 Cu17 3.206476 1_556
Ca17 Cu46 3.029736 1_565
Ca17 Cu56 3.029736 1_555
Ca17 Cu34 3.057712 1_565
Ca17 Cu44 3.057712 1_555
Ca17 Cu5 3.068489 1_555
Ca17 Cu2 3.068495 1_555
Ca17 Cu26 3.117474 1_555
Ca17 Cu19 3.117486 1_555
Ca17 Cu14 3.206476 1_556
Ca18 Cu47 3.029736 1_655
Ca18 Cu48 3.029736 1_555
Ca18 Cu35 3.057712 1_655
Ca18 Cu36 3.057712 1_555
Ca18 Cu8 3.068496 1_555
Ca18 Cu10 3.068496 1_555
Ca18 Cu18 3.117473 1_555
Ca18 Cu20 3.117473 1_555
Ca18 Cu17 3.206476 1_555
Ca19 Cu51 3.029736 1_565
Ca19 Cu50 3.029736 1_555
Ca19 Cu39 3.057712 1_565
Ca19 Cu38 3.057712 1_555
Ca19 Cu11 3.068496 1_555
Ca19 Cu6 3.068496 1_555
Ca19 Cu22 3.117473 1_555
Ca19 Cu19 3.117473 1_555
Ca19 Cu16 3.206476 1_556
Ca20 Cu21 3.017817 1_555
Ca20 Cu25 3.017817 1_555
Ca20 Cu28 3.017817 1_555
Ca20 Cu6 3.062528 1_555
Ca20 Cu11 3.062528 1_555
Ca20 Cu5 3.062541 1_555
Ca20 Cu0 3.062541 1_555
Ca20 Cu9 3.062553 1_555
Ca20 Cu2 3.062553 1_555
Ca21 Cu27 3.017817 1_555
Ca21 Cu23 3.017817 1_555
Ca21 Cu29 3.017817 1_555
Ca21 Cu10 3.062528 1_555
Ca21 Cu8 3.062528 1_555
Ca21 Cu1 3.062541 1_555
Ca21 Cu3 3.062541 1_555
Ca21 Cu7 3.062553 1_555
Ca21 Cu4 3.062553 1_555
Ca22 Cu20 3.017817 1_555
Ca22 Cu18 3.017817 1_555
Ca22 Cu24 3.017817 1_555
Ca22 Cu10 3.062528 1_555
Ca22 Cu8 3.062528 1_555
Ca22 Cu1 3.062541 1_555
Ca22 Cu3 3.062541 1_555
Ca22 Cu7 3.062553 1_555
Ca22 Cu4 3.062553 1_555
Ca23 Cu19 3.017817 1_555
Ca23 Cu22 3.017817 1_555
Ca23 Cu26 3.017817 1_555
Ca23 Cu6 3.062528 1_555
Ca23 Cu11 3.062528 1_555
Ca23 Cu5 3.062541 1_555
Ca23 Cu0 3.062541 1_555
Ca23 Cu9 3.062553 1_555
Ca23 Cu2 3.062553 1_555
Ca24 Cu43 3.083535 1_555
Ca24 Cu42 3.083535 1_555
Ca24 Cu35 3.083542 1_555
Ca24 Cu37 3.083542 1_555
Ca24 Cu9 3.138041 1_555
Ca24 Cu0 3.138041 1_555
Ca24 Cu54 3.167660 1_555
Ca24 Cu55 3.167660 1_555
Ca24 Cu49 3.167672 1_555
Ca24 Cu47 3.167672 1_555
Ca25 Cu41 3.083535 1_555
Ca25 Cu44 3.083535 1_555
Ca25 Cu40 3.083542 1_655
Ca25 Cu38 3.083542 1_655
Ca25 Cu7 3.138041 1_555
Ca25 Cu1 3.138041 1_555
Ca25 Cu56 3.167660 1_555
Ca25 Cu53 3.167660 1_555
Ca25 Cu50 3.167672 1_655
Ca25 Cu52 3.167672 1_655
Ca26 Cu41 3.083535 1_555
Ca26 Cu44 3.083535 1_555
Ca26 Cu34 3.083542 1_565
Ca26 Cu36 3.083542 1_565
Ca26 Cu2 3.138041 1_555
Ca26 Cu5 3.138041 1_555
Ca26 Cu56 3.167660 1_555
Ca26 Cu53 3.167660 1_555
Ca26 Cu46 3.167672 1_565
Ca26 Cu48 3.167672 1_565
Ca27 Cu43 3.083535 1_555
Ca27 Cu42 3.083535 1_555
Ca27 Cu33 3.083542 1_555
Ca27 Cu39 3.083542 1_555
Ca27 Cu4 3.138041 1_555
Ca27 Cu3 3.138041 1_555
Ca27 Cu54 3.167660 1_555
Ca27 Cu55 3.167660 1_555
Ca27 Cu51 3.167672 1_555
Ca27 Cu45 3.167672 1_555
Ca28 Cu38 3.083542 1_555
Ca28 Cu40 3.083542 1_555
Ca28 Cu39 3.083542 1_565
Ca28 Cu33 3.083542 1_565
Ca28 Cu11 3.138041 1_555
Ca28 Cu6 3.138041 1_555
Ca28 Cu50 3.167662 1_555
Ca28 Cu51 3.167662 1_565
Ca28 Cu52 3.167662 1_555
Ca28 Cu45 3.167662 1_565
Ca29 Cu36 3.083542 1_555
Ca29 Cu34 3.083542 1_555
Ca29 Cu37 3.083542 1_655
Ca29 Cu35 3.083542 1_655
Ca29 Cu8 3.138041 1_555
Ca29 Cu10 3.138041 1_555
Ca29 Cu46 3.167662 1_555
Ca29 Cu49 3.167662 1_655
Ca29 Cu48 3.167662 1_555
Ca29 Cu47 3.167662 1_655
Al0 Cu18 2.651092 1_555
Al0 Cu23 2.651092 1_554
Al0 Al2 2.791187 1_555
Al0 Al4 2.791187 1_555
Al0 Ca2 3.193232 1_555
Al0 Ca3 3.193240 1_555
Al0 Ca22 3.276499 1_555
Al0 Ca21 3.276499 1_554
Al0 Ca15 3.357498 1_555
Al0 Ca12 3.357498 1_554
Al0 Ca16 3.357510 1_554
Al0 Ca18 3.357510 1_555
Al1 Cu21 2.651092 1_555
Al1 Cu19 2.651092 1_554
Al1 Al3 2.791187 1_555
Al1 Al5 2.791187 1_555
Al1 Ca3 3.193232 1_565
Al1 Ca2 3.193240 1_565
Al1 Ca20 3.276499 1_555
Al1 Ca23 3.276499 1_554
Al1 Ca10 3.357498 1_555
Al1 Ca17 3.357498 1_554
Al1 Ca19 3.357510 1_554
Al1 Ca14 3.357510 1_555
Al2 Cu20 2.651092 1_555
Al2 Cu27 2.651092 1_554
Al2 Al4 2.791187 1_555
Al2 Ca5 3.193232 1_655
Al2 Ca4 3.193240 1_655
Al2 Ca22 3.276499 1_555
Al2 Ca21 3.276499 1_554
Al2 Ca11 3.357498 1_555
Al2 Ca9 3.357498 1_554
Al2 Ca18 3.357510 1_555
Al2 Ca16 3.357510 1_554
Al3 Cu25 2.651092 1_555
Al3 Cu22 2.651092 1_554
Al3 Al5 2.791187 1_555
Al3 Ca4 3.193232 1_555
Al3 Ca5 3.193240 1_555
Al3 Ca20 3.276499 1_555
Al3 Ca23 3.276499 1_554
Al3 Ca8 3.357498 1_555
Al3 Ca13 3.357498 1_554
Al3 Ca19 3.357510 1_554
Al3 Ca14 3.357510 1_555
Al4 Cu24 2.651079 1_555
Al4 Cu29 2.651079 1_554
Al4 Ca7 3.193226 1_555
Al4 Ca6 3.193226 1_555
Al4 Ca22 3.276512 1_555
Al4 Ca21 3.276512 1_554
Al4 Ca15 3.357504 1_555
Al4 Ca12 3.357504 1_554
Al4 Ca11 3.357504 1_555
Al4 Ca9 3.357504 1_554
Al5 Cu28 2.651079 1_555
Al5 Cu26 2.651079 1_554
Al5 Ca7 3.193226 1_555
Al5 Ca6 3.193226 1_555
Al5 Ca23 3.276512 1_554
Al5 Ca20 3.276512 1_555
Al5 Ca8 3.357504 1_555
Al5 Ca13 3.357504 1_554
Al5 Ca17 3.357504 1_554
Al5 Ca10 3.357504 1_555
Cu0 Cu9 2.456824 1_555
Cu0 Cu31 2.464655 1_555
Cu0 Cu49 2.593815 1_555
Cu0 Cu47 2.593815 1_555
Cu0 Cu11 2.666975 1_555
Cu0 Cu22 2.727064 1_555
Cu0 Cu25 2.727064 1_555
Cu1 Cu7 2.456824 1_555
Cu1 Cu31 2.464655 1_655
Cu1 Cu50 2.593815 1_655
Cu1 Cu52 2.593815 1_655
Cu1 Cu10 2.666975 1_555
Cu1 Cu27 2.727064 1_555
Cu1 Cu20 2.727064 1_555
Cu2 Cu5 2.456824 1_555
Cu2 Cu32 2.464640 1_555
Cu2 Cu56 2.593807 1_555
Cu2 Cu53 2.593807 1_555
Cu2 Cu9 2.666975 1_555
Cu2 Cu26 2.727050 1_555
Cu2 Cu28 2.727050 1_555
Cu3 Cu4 2.456824 1_555
Cu3 Cu30 2.464655 1_555
Cu3 Cu51 2.593815 1_555
Cu3 Cu45 2.593815 1_555
Cu3 Cu8 2.666975 1_555
Cu4 Cu54 2.593807 1_555
Cu4 Cu55 2.593807 1_555
Cu4 Cu7 2.666975 1_555
Cu5 Cu6 2.666975 1_555
Cu10 Cu8 2.456824 1_555
Cu10 Cu31 2.464647 1_655
Cu10 Cu49 2.593819 1_655
Cu10 Cu47 2.593819 1_655
Cu10 Cu27 2.727050 1_555
Cu10 Cu20 2.727050 1_555
Cu11 Cu6 2.456824 1_555
Cu11 Cu31 2.464647 1_555
Cu11 Cu50 2.593819 1_555
Cu11 Cu52 2.593819 1_555
Cu11 Cu22 2.727050 1_555
Cu11 Cu25 2.727050 1_555
Cu12 Cu37 2.494696 1_554
Cu12 Cu35 2.494696 1_555
Cu12 Cu43 2.494696 1_555
Cu12 Cu42 2.494696 1_554
Cu12 Cu17 2.721890 1_455
Cu12 Cu15 2.721890 1_555
Cu13 Cu38 2.494696 1_654
Cu13 Cu40 2.494696 1_655
Cu13 Cu44 2.494696 1_554
Cu13 Cu41 2.494696 1_555
Cu13 Cu16 2.721890 1_655
Cu13 Cu14 2.721890 1_555
Cu14 Cu36 2.494696 1_565
Cu14 Cu34 2.494696 1_564
Cu14 Cu44 2.494696 1_554
Cu14 Cu41 2.494696 1_555
Cu14 Cu17 2.721890 1_565
Cu15 Cu39 2.494696 1_554
Cu15 Cu33 2.494696 1_555
Cu15 Cu43 2.494696 1_555
Cu15 Cu42 2.494696 1_554
Cu15 Cu16 2.721890 1_545
Cu16 Cu38 2.494696 1_554
Cu16 Cu40 2.494696 1_555
Cu16 Cu33 2.494696 1_565
Cu16 Cu39 2.494696 1_564
Cu17 Cu34 2.494696 1_554
Cu17 Cu36 2.494696 1_555
Cu17 Cu37 2.494696 1_654
Cu17 Cu35 2.494696 1_655
Cu18 Cu21 2.596000 1_545
Cu18 Cu30 2.596769 1_555
Cu18 Cu48 2.655231 1_555
Cu18 Cu45 2.655243 1_555
Cu18 Cu8 2.727050 1_555
Cu18 Cu3 2.727064 1_555
Cu19 Cu23 2.596000 1_565
Cu19 Cu30 2.596769 1_565
Cu19 Cu51 2.655231 1_565
Cu19 Cu46 2.655243 1_565
Cu19 Cu6 2.727050 1_555
Cu19 Cu5 2.727064 1_555
Cu20 Cu25 2.596000 1_655
Cu20 Cu31 2.596769 1_655
Cu20 Cu47 2.655231 1_655
Cu20 Cu52 2.655243 1_655
Cu21 Cu30 2.596769 1_565
Cu21 Cu45 2.655231 1_565
Cu21 Cu48 2.655243 1_565
Cu21 Cu6 2.727050 1_555
Cu21 Cu5 2.727064 1_555
Cu22 Cu27 2.596000 1_455
Cu22 Cu31 2.596769 1_555
Cu22 Cu50 2.655231 1_555
Cu22 Cu49 2.655243 1_555
Cu23 Cu30 2.596769 1_555
Cu23 Cu46 2.655231 1_555
Cu23 Cu51 2.655243 1_555
Cu23 Cu8 2.727050 1_555
Cu23 Cu3 2.727064 1_555
Cu24 Cu28 2.596026 1_555
Cu24 Cu32 2.596776 1_555
Cu24 Cu53 2.655243 1_555
Cu24 Cu55 2.655243 1_555
Cu24 Cu7 2.727050 1_555
Cu24 Cu4 2.727050 1_555
Cu25 Cu31 2.596769 1_555
Cu25 Cu52 2.655231 1_555
Cu25 Cu47 2.655243 1_555
Cu26 Cu29 2.596026 1_555
Cu26 Cu32 2.596776 1_555
Cu26 Cu56 2.655243 1_555
Cu26 Cu54 2.655243 1_555
Cu26 Cu9 2.727050 1_555
Cu27 Cu31 2.596769 1_655
Cu27 Cu49 2.655231 1_655
Cu27 Cu50 2.655243 1_655
Cu28 Cu32 2.596776 1_555
Cu28 Cu53 2.655243 1_555
Cu28 Cu55 2.655243 1_555
Cu28 Cu9 2.727050 1_555
Cu29 Cu32 2.596776 1_555
Cu29 Cu56 2.655243 1_555
Cu29 Cu54 2.655243 1_555
Cu29 Cu7 2.727050 1_555
Cu29 Cu4 2.727050 1_555
Cu30 Cu8 2.464647 1_555
Cu30 Cu6 2.464647 1_545
Cu30 Cu5 2.464655 1_545
Cu30 Cu46 2.517067 1_555
Cu30 Cu48 2.517067 1_555
Cu30 Cu51 2.517067 1_555
Cu30 Cu45 2.517067 1_555
Cu31 Cu50 2.517067 1_555
Cu31 Cu52 2.517067 1_555
Cu31 Cu49 2.517067 1_555
Cu31 Cu47 2.517067 1_555
Cu32 Cu7 2.464640 1_555
Cu32 Cu9 2.464640 1_555
Cu32 Cu4 2.464640 1_555
Cu32 Cu56 2.517067 1_555
Cu32 Cu53 2.517067 1_555
Cu32 Cu54 2.517067 1_555
Cu32 Cu55 2.517067 1_555
Cu33 Cu45 2.484799 1_555
Cu34 Cu46 2.484799 1_555
Cu35 Cu47 2.484799 1_555
Cu36 Cu48 2.484799 1_555
Cu37 Cu49 2.484799 1_555
Cu38 Cu50 2.484799 1_555
Cu39 Cu51 2.484799 1_555
Cu40 Cu52 2.484799 1_555
Cu41 Cu53 2.484799 1_555
Cu42 Cu54 2.484799 1_555
Cu43 Cu55 2.484799 1_555
Cu44 Cu56 2.484799 1_555
Cu45 Cu6 2.593819 1_545
Cu45 Cu51 2.680441 1_555
Cu46 Cu5 2.593815 1_545
Cu46 Cu8 2.593819 1_555
Cu46 Cu48 2.680441 1_555
Cu47 Cu49 2.680441 1_555
Cu48 Cu5 2.593815 1_545
Cu48 Cu8 2.593819 1_555
Cu50 Cu52 2.680441 1_555
Cu51 Cu6 2.593819 1_545
Cu53 Cu7 2.593807 1_555
Cu53 Cu56 2.680441 1_555
Cu54 Cu9 2.593807 1_555
Cu54 Cu55 2.680441 1_555
Cu55 Cu9 2.593807 1_555
Cu56 Cu7 2.593807 1_555
