# generated using pymatgen
data_Mg16Si8HO32
_symmetry_space_group_name_H-M   'P 1'
_cell_length_a   6.06212001
_cell_length_b   9.61477817
_cell_length_c   10.33273610
_cell_angle_alpha   89.98211976
_cell_angle_beta   90.00582299
_cell_angle_gamma   90.00259038
_symmetry_Int_Tables_number   1
_chemical_formula_structural   Mg16Si8HO32
_chemical_formula_sum   'Mg16 Si8 H1 O32'
_cell_volume   602.25319398
_cell_formula_units_Z   1
loop_
 _symmetry_equiv_pos_site_id
 _symmetry_equiv_pos_as_xyz
  1  'x, y, z'
loop_
 _atom_site_type_symbol
 _atom_site_label
 _atom_site_symmetry_multiplicity
 _atom_site_fract_x
 _atom_site_fract_y
 _atom_site_fract_z
 _atom_site_occupancy
  Mg  Mg0  1  0.00001600  0.00385400  0.00261400  1
  Mg  Mg1  1  0.99978500  0.25387000  0.50437800  1
  Mg  Mg2  1  0.49992700  0.00381200  0.00256800  1
  Mg  Mg3  1  0.50048000  0.25382800  0.50449400  1
  Mg  Mg4  1  0.24986000  0.49994500  0.28030800  1
  Mg  Mg5  1  0.75013800  0.24668300  0.22585400  1
  Mg  Mg6  1  0.75015100  0.00663300  0.72604400  1
  Mg  Mg7  1  0.24995300  0.25758500  0.78008700  1
  Mg  Mg8  1  0.99974900  0.50282400  0.00244800  1
  Mg  Mg9  1  0.00027400  0.75352500  0.50371400  1
  Mg  Mg10  1  0.50013200  0.50284800  0.00237800  1
  Mg  Mg11  1  0.49980900  0.75352600  0.50371200  1
  Mg  Mg12  1  0.25007900  0.99962600  0.28113400  1
  Mg  Mg13  1  0.74995300  0.75034100  0.22659900  1
  Mg  Mg14  1  0.75012400  0.50820800  0.72394700  1
  Mg  Mg15  1  0.24997000  0.75736000  0.78042900  1
  Si  Si0  1  0.25011900  0.21659200  0.09694700  1
  Si  Si1  1  0.74995000  0.46669000  0.40684800  1
  Si  Si2  1  0.74997000  0.28928100  0.90640500  1
  Si  Si3  1  0.25013200  0.04058800  0.59695300  1
  Si  Si4  1  0.24980300  0.71807300  0.09508700  1
  Si  Si5  1  0.75007300  0.96656300  0.41042000  1
  Si  Si6  1  0.74992900  0.79006500  0.91040300  1
  Si  Si7  1  0.25008200  0.54057800  0.59696600  1
  H  H0  1  0.74810400  0.51221100  0.20750100  1
  O  O0  1  0.25007500  0.38675200  0.09502200  1
  O  O1  1  0.75012400  0.13636500  0.41224100  1
  O  O2  1  0.75002000  0.11944200  0.90901600  1
  O  O3  1  0.25007800  0.37079300  0.59563700  1
  O  O4  1  0.25010400  0.11488400  0.45049000  1
  O  O5  1  0.75003400  0.36045400  0.05395100  1
  O  O6  1  0.75012000  0.39316300  0.55497500  1
  O  O7  1  0.25000500  0.14324800  0.94998300  1
  O  O8  1  0.03371000  0.14192700  0.16601000  1
  O  O9  1  0.96987800  0.38971900  0.34199800  1
  O  O10  1  0.53322900  0.36476100  0.83866800  1
  O  O11  1  0.46676000  0.11469200  0.66640900  1
  O  O12  1  0.96667800  0.36478700  0.83865000  1
  O  O13  1  0.03357100  0.11469700  0.66643500  1
  O  O14  1  0.46659100  0.14190800  0.16592500  1
  O  O15  1  0.52985000  0.38969700  0.34216200  1
  O  O16  1  0.24990000  0.88788700  0.09326200  1
  O  O17  1  0.74999700  0.63688700  0.41416000  1
  O  O18  1  0.74992700  0.62000300  0.91239800  1
  O  O19  1  0.25006200  0.87068900  0.59506600  1
  O  O20  1  0.24998400  0.61453900  0.45009900  1
  O  O21  1  0.74994500  0.86523800  0.05668500  1
  O  O22  1  0.75006900  0.89233200  0.55702400  1
  O  O23  1  0.24992200  0.64167900  0.94946300  1
  O  O24  1  0.03507600  0.64466700  0.16586700  1
  O  O25  1  0.96659100  0.89228000  0.34107600  1
  O  O26  1  0.53319700  0.86395700  0.84089700  1
  O  O27  1  0.46642900  0.61523800  0.66622300  1
  O  O28  1  0.96664800  0.86396300  0.84088600  1
  O  O29  1  0.03380600  0.61524000  0.66626600  1
  O  O30  1  0.46452000  0.64478000  0.16598500  1
  O  O31  1  0.53346800  0.89232400  0.34109500  1
loop_
_geom_bond_atom_site_label_1
_geom_bond_atom_site_label_2
_geom_bond_distance
_geom_bond_site_symmetry_2
Mg0 O21 2.094293 1_445
Mg0 O7 2.094791 1_554
Mg0 O16 2.101054 1_545
Mg0 O2 2.113380 1_454
Mg0 O28 2.154962 1_444
Mg0 O8 2.157740 1_555
Mg1 O6 2.087686 1_555
Mg1 O4 2.097452 1_655
Mg1 O3 2.110782 1_655
Mg1 O1 2.115088 1_555
Mg1 O9 2.133688 1_555
Mg1 O13 2.152902 1_655
Mg2 O21 2.093935 1_545
Mg2 O7 2.094640 1_554
Mg2 O16 2.101742 1_545
Mg2 O2 2.113865 1_554
Mg2 O26 2.154276 1_544
Mg2 O14 2.157400 1_555
Mg3 O6 2.087371 1_555
Mg3 O4 2.097594 1_555
Mg3 O3 2.111147 1_555
Mg3 O1 2.115551 1_555
Mg3 O15 2.133160 1_555
Mg3 O11 2.151523 1_555
Mg4 O20 2.071980 1_555
Mg4 O9 2.099975 1_455
Mg4 O15 2.100608 1_555
Mg4 O0 2.202523 1_555
Mg4 O30 2.242120 1_555
Mg4 O24 2.242458 1_555
Mg5 O5 2.085750 1_555
Mg5 O8 2.086315 1_655
Mg5 O14 2.086360 1_555
Mg5 O1 2.198367 1_555
Mg5 O9 2.259767 1_555
Mg5 O15 2.262715 1_555
Mg6 O22 2.063735 1_545
Mg6 O11 2.100009 1_555
Mg6 O13 2.100123 1_655
Mg6 O2 2.179928 1_555
Mg6 O28 2.238542 1_545
Mg6 O26 2.240332 1_545
Mg7 O7 2.071004 1_555
Mg7 O10 2.092186 1_555
Mg7 O12 2.092428 1_455
Mg7 O3 2.194499 1_555
Mg7 O13 2.233309 1_555
Mg7 O11 2.235207 1_555
Mg8 O23 2.093242 1_654
Mg8 O18 2.104252 1_554
Mg8 O5 2.109049 1_555
Mg8 O0 2.112454 1_655
Mg8 O12 2.160426 1_554
Mg8 O24 2.181370 1_655
Mg9 O20 2.094033 1_555
Mg9 O22 2.094275 1_455
Mg9 O17 2.101435 1_455
Mg9 O19 2.110249 1_555
Mg9 O29 2.151451 1_555
Mg9 O25 2.155025 1_455
Mg10 O23 2.093075 1_554
Mg10 O18 2.103754 1_554
Mg10 O5 2.110206 1_555
Mg10 O0 2.111800 1_555
Mg10 O10 2.160067 1_554
Mg10 O30 2.183625 1_555
Mg11 O22 2.094347 1_555
Mg11 O20 2.094369 1_555
Mg11 O17 2.101251 1_555
Mg11 O19 2.110285 1_555
Mg11 O27 2.151073 1_555
Mg11 O31 2.155119 1_555
Mg12 O4 2.071584 1_565
Mg12 O31 2.097400 1_555
Mg12 O25 2.098068 1_455
Mg12 O16 2.218987 1_555
Mg12 O8 2.237462 1_565
Mg12 O14 2.238395 1_565
Mg13 O21 2.074023 1_555
Mg13 O24 2.101054 1_655
Mg13 O30 2.101531 1_555
Mg13 O17 2.223627 1_555
Mg13 O25 2.233125 1_555
Mg13 O31 2.233156 1_555
Mg14 O6 2.067136 1_555
Mg14 O29 2.090772 1_655
Mg14 O27 2.090930 1_555
Mg14 O18 2.224484 1_555
Mg14 O12 2.242417 1_555
Mg14 O10 2.243947 1_555
Mg15 O23 2.070371 1_555
Mg15 O26 2.094939 1_555
Mg15 O28 2.095585 1_455
Mg15 O19 2.203270 1_555
Mg15 O29 2.230784 1_555
Mg15 O27 2.232295 1_555
H0 Si1 2.105681 1_555
H0 Mg13 2.298143 1_555
O0 Si0 1.636165 1_555
O1 Si5 1.632723 1_545
O2 Si2 1.633179 1_555
O3 Si7 1.632507 1_555
O4 Si3 1.673283 1_555
O5 Si2 1.671287 1_554
O6 Si1 1.685735 1_555
O7 Si0 1.674491 1_556
O8 Si0 1.656943 1_555
O9 Si1 1.665765 1_555
O10 Si2 1.656046 1_555
O11 Si3 1.657498 1_555
O12 Si2 1.656136 1_555
O13 Si3 1.657480 1_555
O14 Si0 1.656884 1_555
O15 Si1 1.665851 1_555
O16 Si4 1.632827 1_555
O17 Si1 1.638173 1_555
O18 Si6 1.635232 1_555
O19 Si3 1.633664 1_565
O20 Si7 1.675690 1_555
O21 Si6 1.675617 1_554
O22 Si5 1.674334 1_555
O23 Si4 1.674605 1_556
O24 Si4 1.651429 1_555
O25 Si5 1.657377 1_555
O26 Si6 1.657205 1_555
O27 Si7 1.657568 1_555
O28 Si6 1.657282 1_555
O29 Si7 1.657594 1_555
O30 Si4 1.651390 1_555
O31 Si5 1.657361 1_555
