# generated using pymatgen
data_Mg3Co3(AsO4)4
_symmetry_space_group_name_H-M   'P 1'
_cell_length_a   5.15983400
_cell_length_b   8.67642800
_cell_length_c   16.05039820
_cell_angle_alpha   67.71579679
_cell_angle_beta   90.00000000
_cell_angle_gamma   90.00000000
_symmetry_Int_Tables_number   1
_chemical_formula_structural   Mg3Co3(AsO4)4
_chemical_formula_sum   'Mg6 Co6 As8 O32'
_cell_volume   664.89303439
_cell_formula_units_Z   2
loop_
 _symmetry_equiv_pos_site_id
 _symmetry_equiv_pos_as_xyz
  1  'x, y, z'
loop_
 _atom_site_type_symbol
 _atom_site_label
 _atom_site_symmetry_multiplicity
 _atom_site_fract_x
 _atom_site_fract_y
 _atom_site_fract_z
 _atom_site_occupancy
  Mg  Mg0  1  0.54550500  0.31195600  0.21220700  1
  Mg  Mg1  1  0.04550500  0.68804400  0.28779300  1
  Mg  Mg2  1  0.45449500  0.68804400  0.78779300  1
  Mg  Mg3  1  0.95449500  0.31195600  0.71220700  1
  Mg  Mg4  1  0.50000000  0.00000000  0.50000000  1
  Mg  Mg5  1  0.00000000  0.00000000  0.00000000  1
  Co  Co0  1  0.49036800  0.20347600  0.62504200  1
  Co  Co1  1  0.50963200  0.79652400  0.37495800  1
  Co  Co2  1  0.99036800  0.79652400  0.87495800  1
  Co  Co3  1  0.00963200  0.20347600  0.12504200  1
  Co  Co4  1  0.00000000  0.50000000  0.50000000  1
  Co  Co5  1  0.50000000  0.50000000  0.00000000  1
  As  As0  1  0.99153600  0.03740200  0.35153700  1
  As  As1  1  0.49687900  0.41750000  0.39655400  1
  As  As2  1  0.99687900  0.58250000  0.10344600  1
  As  As3  1  0.00312100  0.41750000  0.89655400  1
  As  As4  1  0.00846400  0.96259800  0.64846300  1
  As  As5  1  0.50312100  0.58250000  0.60344600  1
  As  As6  1  0.50846400  0.03740200  0.85153700  1
  As  As7  1  0.49153600  0.96259800  0.14846300  1
  O  O0  1  0.40449300  0.81020700  0.25258900  1
  O  O1  1  0.94378800  0.75590000  0.00824100  1
  O  O2  1  0.40899800  0.39951100  0.30008600  1
  O  O3  1  0.39389900  0.15361300  0.15245800  1
  O  O4  1  0.59100200  0.60048900  0.69991400  1
  O  O5  1  0.09550700  0.81020700  0.75258900  1
  O  O6  1  0.90899800  0.60048900  0.19991400  1
  O  O7  1  0.70411500  0.51114000  0.89250500  1
  O  O8  1  0.67582300  0.08818300  0.92695300  1
  O  O9  1  0.59550700  0.18979300  0.74741100  1
  O  O10  1  0.10610100  0.15361300  0.65245800  1
  O  O11  1  0.29588500  0.48886000  0.10749500  1
  O  O12  1  0.28593300  0.57107700  0.40783900  1
  O  O13  1  0.32417700  0.91181700  0.07304700  1
  O  O14  1  0.67581200  0.97785900  0.63195600  1
  O  O15  1  0.17581200  0.02214100  0.86804400  1
  O  O16  1  0.78593300  0.42892300  0.09216100  1
  O  O17  1  0.09100200  0.39951100  0.80008600  1
  O  O18  1  0.17582300  0.91181700  0.57304700  1
  O  O19  1  0.20411500  0.48886000  0.60749500  1
  O  O20  1  0.82418800  0.97785900  0.13195600  1
  O  O21  1  0.32418800  0.02214100  0.36804400  1
  O  O22  1  0.05621200  0.24410000  0.99175900  1
  O  O23  1  0.44378800  0.24410000  0.49175900  1
  O  O24  1  0.71406700  0.42892300  0.59216100  1
  O  O25  1  0.90449300  0.18979300  0.24741100  1
  O  O26  1  0.60610100  0.84638700  0.84754200  1
  O  O27  1  0.82417700  0.08818300  0.42695300  1
  O  O28  1  0.55621200  0.75590000  0.50824100  1
  O  O29  1  0.79588500  0.51114000  0.39250500  1
  O  O30  1  0.21406700  0.57107700  0.90783900  1
  O  O31  1  0.89389900  0.84638700  0.34754200  1
loop_
_geom_bond_atom_site_label_1
_geom_bond_atom_site_label_2
_geom_bond_distance
_geom_bond_site_symmetry_2
Mg0 O2 1.968584 1_555
Mg0 O3 2.101971 1_555
Mg0 O25 2.102287 1_555
Mg0 O16 2.190539 1_555
Mg0 O11 2.209769 1_555
Mg1 O6 1.968584 1_455
Mg1 O31 2.101971 1_455
Mg1 O0 2.102287 1_555
Mg1 O12 2.190539 1_555
Mg1 O29 2.209769 1_455
Mg2 O4 1.968584 1_555
Mg2 O26 2.101971 1_555
Mg2 O5 2.102287 1_555
Mg2 O30 2.190539 1_555
Mg2 O7 2.209769 1_555
Mg3 O17 1.968584 1_655
Mg3 O10 2.101971 1_655
Mg3 O9 2.102287 1_555
Mg3 O24 2.190539 1_555
Mg3 O19 2.209769 1_655
Mg4 O27 2.019307 1_555
Mg4 O18 2.019307 1_545
Mg4 O23 2.091586 1_555
Mg4 O28 2.091586 1_545
Mg4 O14 2.244320 1_545
Mg4 O21 2.244320 1_555
Mg5 O13 2.019307 1_545
Mg5 O8 2.019307 1_454
Mg5 O1 2.091586 1_445
Mg5 O22 2.091586 1_554
Mg5 O20 2.244320 1_445
Mg5 O15 2.244320 1_554
Co0 O9 1.997282 1_555
Co0 O10 2.041504 1_555
Co0 O23 2.046099 1_555
Co0 O14 2.143629 1_545
Co0 O24 2.157343 1_555
Co1 O0 1.997282 1_555
Co1 O31 2.041504 1_555
Co1 O28 2.046099 1_555
Co1 O21 2.143629 1_565
Co1 O12 2.157343 1_555
Co2 O5 1.997282 1_655
Co2 O26 2.041504 1_555
Co2 O1 2.046099 1_556
Co2 O15 2.143629 1_665
Co2 O30 2.157343 1_655
Co3 O25 1.997282 1_455
Co3 O3 2.041504 1_555
Co3 O22 2.046099 1_554
Co3 O20 2.143629 1_445
Co3 O16 2.157343 1_455
Co4 O19 1.992207 1_555
Co4 O29 1.992207 1_455
Co4 O24 2.013276 1_455
Co4 O12 2.013276 1_555
Co5 O7 1.992207 1_554
Co5 O11 1.992207 1_555
Co5 O16 2.013276 1_555
Co5 O30 2.013276 1_554
As0 O27 1.676161 1_555
As0 O21 1.734143 1_655
As0 O25 1.751339 1_555
As0 O31 1.756487 1_545
As1 O2 1.676498 1_555
As1 O23 1.711728 1_555
As1 O29 1.733369 1_555
As1 O12 1.782168 1_555
As2 O6 1.676498 1_555
As2 O1 1.711728 1_555
As2 O11 1.733369 1_655
As2 O16 1.782168 1_555
As3 O17 1.676498 1_555
As3 O22 1.711728 1_555
As3 O7 1.733369 1_455
As3 O30 1.782168 1_555
As4 O18 1.676161 1_555
As4 O14 1.734143 1_455
As4 O5 1.751339 1_555
As4 O10 1.756487 1_565
As5 O4 1.676498 1_555
As5 O28 1.711728 1_555
As5 O19 1.733369 1_555
As5 O24 1.782168 1_555
As6 O8 1.676161 1_555
As6 O15 1.734143 1_555
As6 O9 1.751339 1_555
As6 O26 1.756487 1_545
As7 O13 1.676161 1_555
As7 O20 1.734143 1_555
As7 O0 1.751339 1_555
As7 O3 1.756487 1_565
