# generated using pymatgen
data_HgAsO4
_symmetry_space_group_name_H-M   'P 1'
_cell_length_a   5.62884435
_cell_length_b   6.36285916
_cell_length_c   12.05761200
_cell_angle_alpha   90.00000000
_cell_angle_beta   90.00000000
_cell_angle_gamma   108.61542589
_symmetry_Int_Tables_number   1
_chemical_formula_structural   HgAsO4
_chemical_formula_sum   'Hg4 As4 O16'
_cell_volume   409.25662265
_cell_formula_units_Z   4
loop_
 _symmetry_equiv_pos_site_id
 _symmetry_equiv_pos_as_xyz
  1  'x, y, z'
loop_
 _atom_site_type_symbol
 _atom_site_label
 _atom_site_symmetry_multiplicity
 _atom_site_fract_x
 _atom_site_fract_y
 _atom_site_fract_z
 _atom_site_occupancy
  Hg  Hg0  1  0.38912600  0.24050900  0.51236300  1
  Hg  Hg1  1  0.88912700  0.74050900  0.98763700  1
  Hg  Hg2  1  0.61087300  0.75949100  0.48763700  1
  Hg  Hg3  1  0.11087300  0.25949100  0.01236300  1
  As  As0  1  0.92330900  0.51700200  0.65262400  1
  As  As1  1  0.42330900  0.01700200  0.84737600  1
  As  As2  1  0.07669100  0.48299800  0.34737600  1
  As  As3  1  0.57669100  0.98299800  0.15262400  1
  O  O0  1  0.20666700  0.51081600  0.60876200  1
  O  O1  1  0.70666700  0.01081600  0.89123800  1
  O  O2  1  0.79333300  0.48918400  0.39123800  1
  O  O3  1  0.29333300  0.98918400  0.10876200  1
  O  O4  1  0.70302000  0.25740700  0.60998400  1
  O  O5  1  0.20302000  0.75740700  0.89001600  1
  O  O6  1  0.29698000  0.74259300  0.39001600  1
  O  O7  1  0.79698000  0.24259300  0.10998400  1
  O  O8  1  0.86858300  0.75945800  0.60979200  1
  O  O9  1  0.36858300  0.25945800  0.89020800  1
  O  O10  1  0.13141700  0.24054200  0.39020800  1
  O  O11  1  0.63141700  0.74054200  0.10979200  1
  O  O12  1  0.87127700  0.49386500  0.79452200  1
  O  O13  1  0.37127700  0.99386500  0.70547800  1
  O  O14  1  0.12872300  0.50613500  0.20547800  1
  O  O15  1  0.62872300  0.00613500  0.29452200  1
loop_
_geom_bond_atom_site_label_1
_geom_bond_atom_site_label_2
_geom_bond_distance
_geom_bond_site_symmetry_2
Hg0 O10 2.067335 1_555
Hg0 O4 2.097041 1_555
Hg0 O0 2.547884 1_555
Hg1 O11 2.067339 1_556
Hg1 O5 2.097036 1_655
Hg1 O1 2.547888 1_565
Hg2 O8 2.067339 1_555
Hg2 O6 2.097036 1_555
Hg2 O2 2.547888 1_555
Hg3 O9 2.067339 1_554
Hg3 O7 2.097036 1_455
Hg3 O3 2.547888 1_545
As0 O0 1.692716 1_655
As0 O12 1.734150 1_555
As0 O8 1.744986 1_555
As0 O4 1.795162 1_555
As1 O1 1.692716 1_555
As1 O13 1.734150 1_545
As1 O9 1.744986 1_555
As1 O5 1.795162 1_545
As2 O2 1.692716 1_455
As2 O14 1.734150 1_555
As2 O10 1.744986 1_555
As2 O6 1.795162 1_555
As3 O3 1.692716 1_555
As3 O15 1.734150 1_565
As3 O11 1.744986 1_555
As3 O7 1.795162 1_565
