# generated using pymatgen
data_NbC
_symmetry_space_group_name_H-M   'P 1'
_cell_length_a   3.13617369
_cell_length_b   3.13617369
_cell_length_c   5.36618400
_cell_angle_alpha   90.00000000
_cell_angle_beta   90.00000000
_cell_angle_gamma   119.99999352
_symmetry_Int_Tables_number   1
_chemical_formula_structural   NbC
_chemical_formula_sum   'Nb2 C2'
_cell_volume   45.70844376
_cell_formula_units_Z   2
loop_
 _symmetry_equiv_pos_site_id
 _symmetry_equiv_pos_as_xyz
  1  'x, y, z'
loop_
 _atom_site_type_symbol
 _atom_site_label
 _atom_site_symmetry_multiplicity
 _atom_site_fract_x
 _atom_site_fract_y
 _atom_site_fract_z
 _atom_site_occupancy
  Nb  Nb0  1  0.33333300  0.66666700  0.25000000  1
  Nb  Nb1  1  0.66666700  0.33333300  0.75000000  1
  C  C0  1  0.00000000  0.00000000  0.50000000  1
  C  C1  1  0.00000000  0.00000000  0.00000000  1
loop_
_geom_bond_atom_site_label_1
_geom_bond_atom_site_label_2
_geom_bond_distance
_geom_bond_site_symmetry_2
C0 Nb0 2.253501 1_545
C0 Nb1 2.253501 1_455
C0 Nb0 2.253503 1_445
C0 Nb0 2.253503 1_555
C0 Nb1 2.253503 1_445
C0 Nb1 2.253503 1_555
C1 Nb1 2.253501 1_454
C1 Nb0 2.253501 1_545
C1 Nb0 2.253503 1_445
C1 Nb0 2.253503 1_555
C1 Nb1 2.253503 1_554
C1 Nb1 2.253503 1_444
