# generated using pymatgen
data_TeMoWSeS2
_symmetry_space_group_name_H-M   'P 1'
_cell_length_a   3.30624734
_cell_length_b   3.30624734
_cell_length_c   38.64139800
_cell_angle_alpha   90.00000000
_cell_angle_beta   90.00000000
_cell_angle_gamma   119.99998684
_symmetry_Int_Tables_number   1
_chemical_formula_structural   TeMoWSeS2
_chemical_formula_sum   'Te2 Mo2 W2 Se2 S4'
_cell_volume   365.80884328
_cell_formula_units_Z   2
loop_
 _symmetry_equiv_pos_site_id
 _symmetry_equiv_pos_as_xyz
  1  'x, y, z'
loop_
 _atom_site_type_symbol
 _atom_site_label
 _atom_site_symmetry_multiplicity
 _atom_site_fract_x
 _atom_site_fract_y
 _atom_site_fract_z
 _atom_site_occupancy
  Te  Te0  1  0.33333300  0.66666700  0.33209000  1
  Te  Te1  1  0.33333300  0.66666700  0.23248100  1
  Mo  Mo0  1  0.33333300  0.66666700  0.09305900  1
  Mo  Mo1  1  0.33333300  0.66666700  0.47000100  1
  W  W0  1  0.66666700  0.33333300  0.28230400  1
  W  W1  1  0.66666700  0.33333300  0.65759600  1
  Se  Se0  1  0.66666700  0.33333300  0.04954500  1
  Se  Se1  1  0.66666700  0.33333300  0.13656500  1
  S  S0  1  0.33333300  0.66666700  0.69728900  1
  S  S1  1  0.66666700  0.33333300  0.43046300  1
  S  S2  1  0.66666700  0.33333300  0.50947400  1
  S  S3  1  0.33333300  0.66666700  0.61788100  1
loop_
_geom_bond_atom_site_label_1
_geom_bond_atom_site_label_2
_geom_bond_distance
_geom_bond_site_symmetry_2
Te0 W0 2.710122 1_455
Te0 W0 2.710122 1_565
Te0 W0 2.710125 1_555
Te1 W0 2.711137 1_565
Te1 W0 2.711137 1_455
Te1 W0 2.711141 1_555
Mo0 Se1 2.543611 1_455
Mo0 Se1 2.543611 1_565
Mo0 Se1 2.543615 1_555
Mo0 Se0 2.543816 1_565
Mo0 Se0 2.543816 1_455
Mo0 Se0 2.543820 1_555
Mo1 S2 2.443413 1_455
Mo1 S2 2.443413 1_565
Mo1 S2 2.443417 1_555
Mo1 S1 2.444982 1_455
Mo1 S1 2.444982 1_565
Mo1 S1 2.444986 1_555
S0 W1 2.448729 1_455
S0 W1 2.448729 1_565
S0 W1 2.448733 1_555
S3 W1 2.449261 1_455
S3 W1 2.449261 1_565
S3 W1 2.449265 1_555
