# generated using pymatgen
data_Li9Mn2Co5O16
_symmetry_space_group_name_H-M   'P 1'
_cell_length_a   5.88841600
_cell_length_b   6.44157510
_cell_length_c   7.81295680
_cell_angle_alpha   87.70348551
_cell_angle_beta   103.74757949
_cell_angle_gamma   103.13665614
_symmetry_Int_Tables_number   1
_chemical_formula_structural   Li9Mn2Co5O16
_chemical_formula_sum   'Li9 Mn2 Co5 O16'
_cell_volume   280.29735436
_cell_formula_units_Z   1
loop_
 _symmetry_equiv_pos_site_id
 _symmetry_equiv_pos_as_xyz
  1  'x, y, z'
loop_
 _atom_site_type_symbol
 _atom_site_label
 _atom_site_symmetry_multiplicity
 _atom_site_fract_x
 _atom_site_fract_y
 _atom_site_fract_z
 _atom_site_occupancy
  Li  Li0  1  0.62162800  0.12400000  0.86749600  1
  Li  Li1  1  0.62878600  0.63365900  0.37550300  1
  Li  Li2  1  0.86870100  0.36482900  0.62176500  1
  Li  Li3  1  0.86909800  0.87551600  0.13330100  1
  Li  Li4  1  0.13129900  0.63517100  0.37823500  1
  Li  Li5  1  0.13090200  0.12448400  0.86669900  1
  Li  Li6  1  0.37837200  0.87600000  0.13250400  1
  Li  Li7  1  0.37121400  0.36634100  0.62449700  1
  Li  Li8  1  0.50000000  0.00000000  0.50000000  1
  Mn  Mn0  1  0.74338000  0.24888000  0.25500400  1
  Mn  Mn1  1  0.25662000  0.75112000  0.74499600  1
  Co  Co0  1  0.75447900  0.75084700  0.74516400  1
  Co  Co1  1  0.00000000  0.50000000  0.00000000  1
  Co  Co2  1  0.00000000  0.00000000  0.50000000  1
  Co  Co3  1  0.24552100  0.24915300  0.25483600  1
  Co  Co4  1  0.50000000  0.50000000  0.00000000  1
  O  O0  1  0.45565600  0.20312100  0.06479300  1
  O  O1  1  0.44075600  0.69189800  0.58751400  1
  O  O2  1  0.71135600  0.45584000  0.81755000  1
  O  O3  1  0.70206500  0.95641100  0.31567800  1
  O  O4  1  0.96442600  0.70189100  0.56290400  1
  O  O5  1  0.93479100  0.20855500  0.08268200  1
  O  O6  1  0.17794000  0.96508500  0.32233200  1
  O  O7  1  0.20740000  0.45092500  0.82102900  1
  O  O8  1  0.82206000  0.03491500  0.67766800  1
  O  O9  1  0.79260000  0.54907500  0.17897100  1
  O  O10  1  0.03557400  0.29810900  0.43709600  1
  O  O11  1  0.06520900  0.79144500  0.91731800  1
  O  O12  1  0.28864400  0.54416000  0.18245000  1
  O  O13  1  0.29793500  0.04358900  0.68432200  1
  O  O14  1  0.54434400  0.79687900  0.93520700  1
  O  O15  1  0.55924400  0.30810200  0.41248600  1
loop_
_geom_bond_atom_site_label_1
_geom_bond_atom_site_label_2
_geom_bond_distance
_geom_bond_site_symmetry_2
Li0 O13 2.064841 1_555
Li0 O14 2.125171 1_545
Li0 O2 2.125660 1_555
Li0 O0 2.143929 1_556
Li0 O5 2.160327 1_556
Li0 O8 2.264926 1_555
Li1 O15 2.065511 1_555
Li1 O3 2.082604 1_555
Li1 O4 2.127064 1_555
Li1 O9 2.143594 1_555
Li1 O12 2.174386 1_555
Li1 O1 2.284882 1_555
Li2 O10 2.036527 1_655
Li2 O15 2.111065 1_555
Li2 O8 2.121284 1_555
Li2 O2 2.129401 1_555
Li2 O4 2.174914 1_555
Li2 O7 2.190806 1_655
Li3 O6 2.033754 1_655
Li3 O3 2.056175 1_555
Li3 O9 2.082709 1_555
Li3 O14 2.127120 1_554
Li3 O5 2.129752 1_565
Li3 O11 2.399587 1_654
Li4 O4 2.036527 1_455
Li4 O1 2.111065 1_555
Li4 O6 2.121284 1_555
Li4 O12 2.129401 1_555
Li4 O10 2.174914 1_555
Li4 O9 2.190806 1_455
Li5 O8 2.033754 1_455
Li5 O13 2.056175 1_555
Li5 O7 2.082709 1_555
Li5 O0 2.127120 1_556
Li5 O11 2.129752 1_545
Li5 O5 2.399587 1_456
Li6 O3 2.064841 1_555
Li6 O0 2.125171 1_565
Li6 O12 2.125660 1_555
Li6 O14 2.143929 1_554
Li6 O11 2.160327 1_554
Li6 O6 2.264926 1_555
Li7 O1 2.065511 1_555
Li7 O13 2.082604 1_555
Li7 O10 2.127064 1_555
Li7 O7 2.143594 1_555
Li7 O2 2.174386 1_555
Li7 O15 2.284882 1_555
Li8 O8 2.038095 1_555
Li8 O6 2.038095 1_545
Li8 O1 2.053776 1_545
Li8 O15 2.053776 1_555
Li8 O13 2.137082 1_555
Li8 O3 2.137082 1_545
Mn0 O3 1.899505 1_545
Mn0 O15 1.922176 1_555
Mn0 O10 1.926040 1_655
Mn0 O0 1.943518 1_555
Mn0 O9 1.977678 1_555
Mn0 O5 2.008192 1_555
Mn1 O13 1.899505 1_565
Mn1 O1 1.922176 1_555
Mn1 O4 1.926040 1_455
Mn1 O14 1.943518 1_555
Mn1 O7 1.977678 1_555
Mn1 O11 2.008192 1_555
Co0 O8 1.864457 1_565
Co0 O1 1.926422 1_555
Co0 O2 1.938631 1_555
Co0 O11 1.966297 1_655
Co0 O4 2.169199 1_555
Co0 O14 2.213343 1_555
Co1 O2 1.913874 1_454
Co1 O12 1.913874 1_555
Co1 O5 1.944807 1_455
Co1 O11 1.944807 1_554
Co1 O9 2.137563 1_455
Co1 O7 2.137563 1_554
Co2 O10 1.939946 1_555
Co2 O4 1.939946 1_445
Co2 O13 1.959138 1_555
Co2 O3 1.959138 1_445
Co2 O8 1.974515 1_455
Co2 O6 1.974515 1_545
Co3 O6 1.864457 1_545
Co3 O15 1.926422 1_555
Co3 O12 1.938631 1_555
Co3 O5 1.966297 1_455
Co3 O10 2.169199 1_555
Co3 O0 2.213343 1_555
Co4 O7 1.914811 1_554
Co4 O9 1.914811 1_555
Co4 O0 1.933872 1_555
Co4 O14 1.933872 1_554
Co4 O2 2.167584 1_554
Co4 O12 2.167584 1_555
