# generated using pymatgen
data_CeSe2
_symmetry_space_group_name_H-M   'P 1'
_cell_length_a   8.82866562
_cell_length_b   13.65013640
_cell_length_c   13.65013640
_cell_angle_alpha   90.00000000
_cell_angle_beta   90.00000000
_cell_angle_gamma   90.00000000
_symmetry_Int_Tables_number   1
_chemical_formula_structural   CeSe2
_chemical_formula_sum   'Ce8 Se16'
_cell_volume   1645.01192563
_cell_formula_units_Z   8
loop_
 _symmetry_equiv_pos_site_id
 _symmetry_equiv_pos_as_xyz
  1  'x, y, z'
loop_
 _atom_site_type_symbol
 _atom_site_label
 _atom_site_symmetry_multiplicity
 _atom_site_fract_x
 _atom_site_fract_y
 _atom_site_fract_z
 _atom_site_occupancy
  Ce  Ce0  1  -0.00000000  0.07186340  0.31383203  1
  Ce  Ce1  1  0.00000000  0.92813660  0.68616797  1
  Ce  Ce2  1  0.50000000  0.07186340  0.68616797  1
  Ce  Ce3  1  0.50000000  0.92813660  0.31383203  1
  Ce  Ce4  1  -0.00000000  0.31383203  0.07186340  1
  Ce  Ce5  1  0.00000000  0.68616797  0.92813660  1
  Ce  Ce6  1  0.50000000  0.68616797  0.07186340  1
  Ce  Ce7  1  0.50000000  0.31383203  0.92813660  1
  Se  Se0  1  -0.00000000  0.26518559  0.26518559  1
  Se  Se1  1  -0.00000000  0.73481441  0.73481441  1
  Se  Se2  1  0.50000000  0.26518559  0.73481441  1
  Se  Se3  1  0.50000000  0.73481441  0.26518559  1
  Se  Se4  1  0.25000000  -0.00000000  0.22489259  1
  Se  Se5  1  0.25000000  -0.00000000  0.77510741  1
  Se  Se6  1  0.75000000  -0.00000000  0.77510741  1
  Se  Se7  1  0.75000000  -0.00000000  0.22489259  1
  Se  Se8  1  0.25000000  0.22489259  0.00000000  1
  Se  Se9  1  0.25000000  0.77510741  0.00000000  1
  Se  Se10  1  0.75000000  0.77510741  0.00000000  1
  Se  Se11  1  0.75000000  0.22489259  0.00000000  1
  Se  Se12  1  0.00000000  -0.00000000  0.50000000  1
  Se  Se13  1  0.50000000  -0.00000000  0.50000000  1
  Se  Se14  1  0.00000000  0.50000000  0.00000000  1
  Se  Se15  1  0.50000000  0.50000000  0.00000000  1
loop_
_geom_bond_atom_site_label_1
_geom_bond_atom_site_label_2
_geom_bond_distance
_geom_bond_site_symmetry_2
Ce0 Se4 2.703279 1_555
Ce0 Se7 2.703279 1_455
Ce0 Se0 2.721138 1_555
Ce0 Se12 2.723976 1_555
Ce1 Se6 2.703279 1_465
Ce1 Se5 2.703279 1_565
Ce1 Se1 2.721138 1_555
Ce1 Se12 2.723976 1_565
Ce2 Se6 2.703279 1_555
Ce2 Se5 2.703279 1_555
Ce2 Se2 2.721138 1_555
Ce2 Se13 2.723976 1_555
Ce3 Se7 2.703279 1_565
Ce3 Se4 2.703279 1_565
Ce3 Se3 2.721138 1_555
Ce3 Se13 2.723976 1_565
Ce4 Se11 2.703279 1_455
Ce4 Se8 2.703279 1_555
Ce4 Se0 2.721138 1_555
Ce4 Se14 2.723976 1_555
Ce5 Se9 2.703279 1_556
Ce5 Se10 2.703279 1_456
Ce5 Se1 2.721138 1_555
Ce5 Se14 2.723976 1_556
Ce6 Se9 2.703279 1_555
Ce6 Se10 2.703279 1_555
Ce6 Se3 2.721138 1_555
Ce6 Se15 2.723976 1_555
Ce7 Se8 2.703279 1_556
Ce7 Se11 2.703279 1_556
Ce7 Se2 2.721138 1_555
Ce7 Se15 2.723976 1_556
