# generated using pymatgen
data_Ta2N3F
_symmetry_space_group_name_H-M   'P 1'
_cell_length_a   5.41941110
_cell_length_b   5.41941110
_cell_length_c   2.80203000
_cell_angle_alpha   90.00000000
_cell_angle_beta   90.00000000
_cell_angle_gamma   120.00001339
_symmetry_Int_Tables_number   1
_chemical_formula_structural   Ta2N3F
_chemical_formula_sum   'Ta2 N3 F1'
_cell_volume   71.27012925
_cell_formula_units_Z   1
loop_
 _symmetry_equiv_pos_site_id
 _symmetry_equiv_pos_as_xyz
  1  'x, y, z'
loop_
 _atom_site_type_symbol
 _atom_site_label
 _atom_site_symmetry_multiplicity
 _atom_site_fract_x
 _atom_site_fract_y
 _atom_site_fract_z
 _atom_site_occupancy
  Ta  Ta0  1  0.66666700  0.33333300  0.50000000  1
  Ta  Ta1  1  0.33333300  0.66666700  0.50000000  1
  N  N0  1  0.50000000  0.50000000  0.00000000  1
  N  N1  1  0.50000000  0.00000000  0.00000000  1
  N  N2  1  0.00000000  0.50000000  0.00000000  1
  F  F0  1  0.00000000  0.00000000  0.00000000  1
loop_
_geom_bond_atom_site_label_1
_geom_bond_atom_site_label_2
_geom_bond_distance
_geom_bond_site_symmetry_2
N0 Ta1 2.100084 1_554
N0 Ta1 2.100084 1_555
N0 Ta0 2.100084 1_555
N0 Ta0 2.100084 1_554
N1 Ta0 2.100081 1_555
N1 Ta0 2.100081 1_554
N1 Ta1 2.100081 1_544
N1 Ta1 2.100081 1_545
N2 Ta1 2.100081 1_555
N2 Ta1 2.100081 1_554
N2 Ta0 2.100081 1_455
N2 Ta0 2.100081 1_454
