# generated using pymatgen
data_Sm(CrFe5)2
_symmetry_space_group_name_H-M   'P 1'
_cell_length_a   4.68154400
_cell_length_b   6.41946031
_cell_length_c   6.41946031
_cell_angle_alpha   97.19910217
_cell_angle_beta   111.38523760
_cell_angle_gamma   68.61476240
_symmetry_Int_Tables_number   1
_chemical_formula_structural   Sm(CrFe5)2
_chemical_formula_sum   'Sm1 Cr2 Fe10'
_cell_volume   167.26627279
_cell_formula_units_Z   1
loop_
 _symmetry_equiv_pos_site_id
 _symmetry_equiv_pos_as_xyz
  1  'x, y, z'
loop_
 _atom_site_type_symbol
 _atom_site_label
 _atom_site_symmetry_multiplicity
 _atom_site_fract_x
 _atom_site_fract_y
 _atom_site_fract_z
 _atom_site_occupancy
  Sm  Sm0  1  0.00000000  0.00000000  0.00000000  1
  Cr  Cr0  1  0.00000000  0.36832900  0.36832900  1
  Cr  Cr1  1  0.00000000  0.63167100  0.63167100  1
  Fe  Fe0  1  0.50000000  0.00000000  0.50000000  1
  Fe  Fe1  1  0.00000000  0.00000000  0.50000000  1
  Fe  Fe2  1  0.50000000  0.50000000  0.00000000  1
  Fe  Fe3  1  0.00000000  0.50000000  0.00000000  1
  Fe  Fe4  1  0.72824900  0.77175100  0.22824900  1
  Fe  Fe5  1  0.27175100  0.22824900  0.77175100  1
  Fe  Fe6  1  0.50000000  0.76843600  0.76843600  1
  Fe  Fe7  1  0.50000000  0.23156400  0.23156400  1
  Fe  Fe8  1  0.64002400  0.35997600  0.64002400  1
  Fe  Fe9  1  0.35997600  0.64002400  0.35997600  1
loop_
_geom_bond_atom_site_label_1
_geom_bond_atom_site_label_2
_geom_bond_distance
_geom_bond_site_symmetry_2
Cr0 Cr1 2.235933 1_555
Cr0 Fe5 2.545701 1_555
Cr0 Fe4 2.545701 1_455
Cr0 Fe2 2.608852 1_455
Cr0 Fe1 2.608852 1_555
Cr0 Fe0 2.608852 1_555
Cr0 Fe3 2.608852 1_555
Cr0 Fe7 2.612975 1_455
Cr0 Fe7 2.612975 1_555
Cr0 Fe9 2.849179 1_555
Cr0 Fe8 2.849179 1_555
Cr0 Fe8 2.849179 1_455
Cr0 Fe9 2.849179 1_455
Cr0 Sm0 3.127336 1_555
Cr1 Fe4 2.545701 1_455
Cr1 Fe5 2.545701 1_555
Cr1 Fe2 2.608852 1_556
Cr1 Fe3 2.608852 1_556
Cr1 Fe1 2.608852 1_565
Cr1 Fe0 2.608852 1_465
Cr1 Fe6 2.612975 1_555
Cr1 Fe6 2.612975 1_455
Cr1 Fe8 2.849179 1_555
Cr1 Fe9 2.849179 1_555
Cr1 Fe8 2.849179 1_455
Cr1 Fe9 2.849179 1_455
Cr1 Sm0 3.127336 1_566
Fe0 Fe1 2.340772 1_655
Fe0 Fe1 2.340772 1_555
Fe0 Fe7 2.412721 1_555
Fe0 Fe6 2.412721 1_545
Fe0 Fe5 2.430836 1_555
Fe0 Fe4 2.430836 1_545
Fe0 Fe8 2.594635 1_555
Fe0 Fe9 2.594635 1_545
Fe0 Sm0 3.209730 1_555
Fe0 Sm0 3.209730 1_656
Fe1 Fe7 2.412721 1_455
Fe1 Fe6 2.412721 1_545
Fe1 Fe5 2.430836 1_555
Fe1 Fe4 2.430836 1_445
Fe1 Fe8 2.594635 1_455
Fe1 Fe9 2.594635 1_545
Fe1 Sm0 3.209730 1_556
Fe1 Sm0 3.209730 1_555
Fe2 Fe3 2.340772 1_655
Fe2 Fe3 2.340772 1_555
Fe2 Fe6 2.412721 1_554
Fe2 Fe7 2.412721 1_555
Fe2 Fe4 2.430836 1_555
Fe2 Fe5 2.430836 1_554
Fe2 Fe9 2.594635 1_555
Fe2 Fe8 2.594635 1_554
Fe2 Sm0 3.209730 1_655
Fe2 Sm0 3.209730 1_565
Fe3 Fe6 2.412721 1_454
Fe3 Fe7 2.412721 1_555
Fe3 Fe4 2.430836 1_455
Fe3 Fe5 2.430836 1_554
Fe3 Fe9 2.594635 1_555
Fe3 Fe8 2.594635 1_454
Fe3 Sm0 3.209730 1_555
Fe3 Sm0 3.209730 1_565
Fe4 Fe9 2.590032 1_655
Fe4 Fe9 2.590032 1_555
Fe4 Fe6 2.748769 1_554
Fe4 Fe7 2.748769 1_565
Fe4 Sm0 3.028089 1_565
Fe4 Sm0 3.028089 1_665
Fe5 Fe8 2.590032 1_455
Fe5 Fe8 2.590032 1_555
Fe5 Fe6 2.748769 1_545
Fe5 Fe7 2.748769 1_556
Fe5 Sm0 3.028089 1_556
Fe5 Sm0 3.028089 1_656
Fe6 Fe8 2.565821 1_555
Fe6 Fe9 2.565821 1_555
Fe6 Sm0 3.056932 1_666
Fe6 Sm0 3.056932 1_566
Fe7 Fe8 2.565821 1_555
Fe7 Fe9 2.565821 1_555
Fe7 Sm0 3.056932 1_555
Fe7 Sm0 3.056932 1_655
Fe8 Fe9 2.356910 1_555
Fe8 Sm0 3.029592 1_656
Fe9 Sm0 3.029592 1_565
