# generated using pymatgen
data_Ce2Co7
_symmetry_space_group_name_H-M   'P 1'
_cell_length_a   4.86708083
_cell_length_b   4.86708083
_cell_length_c   24.53615400
_cell_angle_alpha   90.00000000
_cell_angle_beta   90.00000000
_cell_angle_gamma   120.00321920
_symmetry_Int_Tables_number   1
_chemical_formula_structural   Ce2Co7
_chemical_formula_sum   'Ce8 Co28'
_cell_volume   503.33849754
_cell_formula_units_Z   4
loop_
 _symmetry_equiv_pos_site_id
 _symmetry_equiv_pos_as_xyz
  1  'x, y, z'
loop_
 _atom_site_type_symbol
 _atom_site_label
 _atom_site_symmetry_multiplicity
 _atom_site_fract_x
 _atom_site_fract_y
 _atom_site_fract_z
 _atom_site_occupancy
  Ce  Ce0  1  0.66668700  0.33331300  0.52926600  1
  Ce  Ce1  1  0.33331300  0.66668700  0.47073400  1
  Ce  Ce2  1  0.33331300  0.66668700  0.02926600  1
  Ce  Ce3  1  0.66668700  0.33331300  0.97073400  1
  Ce  Ce4  1  0.66669500  0.33330500  0.67400200  1
  Ce  Ce5  1  0.33330500  0.66669500  0.32599800  1
  Ce  Ce6  1  0.33330500  0.66669500  0.17400200  1
  Ce  Ce7  1  0.66669500  0.33330500  0.82599800  1
  Co  Co0  1  0.00000000  0.00000000  0.50000000  1
  Co  Co1  1  0.00000000  0.00000000  0.00000000  1
  Co  Co2  1  0.16665300  0.33322500  0.75000000  1
  Co  Co3  1  0.16659600  0.83340400  0.75000000  1
  Co  Co4  1  0.66677500  0.83334700  0.75000000  1
  Co  Co5  1  0.83334700  0.66677500  0.25000000  1
  Co  Co6  1  0.83340400  0.16659600  0.25000000  1
  Co  Co7  1  0.33322500  0.16665300  0.25000000  1
  Co  Co8  1  0.16619200  0.33230800  0.58635400  1
  Co  Co9  1  0.16615400  0.83384600  0.58634900  1
  Co  Co10  1  0.66769200  0.83380800  0.58635400  1
  Co  Co11  1  0.83380800  0.66769200  0.41364600  1
  Co  Co12  1  0.83384600  0.16615400  0.41365100  1
  Co  Co13  1  0.33230800  0.16619200  0.41364600  1
  Co  Co14  1  0.83380800  0.66769200  0.08635400  1
  Co  Co15  1  0.83384600  0.16615400  0.08634900  1
  Co  Co16  1  0.33230800  0.16619200  0.08635400  1
  Co  Co17  1  0.16619200  0.33230800  0.91364600  1
  Co  Co18  1  0.16615400  0.83384600  0.91365100  1
  Co  Co19  1  0.66769200  0.83380800  0.91364600  1
  Co  Co20  1  0.00002900  0.99997100  0.66701900  1
  Co  Co21  1  0.99997100  0.00002900  0.33298100  1
  Co  Co22  1  0.99997100  0.00002900  0.16701900  1
  Co  Co23  1  0.00002900  0.99997100  0.83298100  1
  Co  Co24  1  0.66671800  0.33328200  0.33349400  1
  Co  Co25  1  0.33328200  0.66671800  0.66650600  1
  Co  Co26  1  0.33328200  0.66671800  0.83349400  1
  Co  Co27  1  0.66671800  0.33328200  0.16650600  1
loop_
_geom_bond_atom_site_label_1
_geom_bond_atom_site_label_2
_geom_bond_distance
_geom_bond_site_symmetry_2
Ce0 Co9 2.807710 1_655
Ce0 Co9 2.807710 1_545
Ce0 Co10 2.807842 1_555
Ce0 Co8 2.807842 1_555
Ce0 Co10 2.807905 1_545
Ce0 Co8 2.807905 1_655
Ce0 Co0 2.900187 1_655
Ce0 Co0 2.900303 1_665
Ce0 Co0 2.900303 1_555
Ce0 Co12 3.167478 1_555
Ce0 Co13 3.167672 1_555
Ce0 Co11 3.167672 1_555
Ce1 Co12 2.807710 1_565
Ce1 Co12 2.807710 1_455
Ce1 Co13 2.807842 1_555
Ce1 Co11 2.807842 1_555
Ce1 Co11 2.807905 1_455
Ce1 Co13 2.807905 1_565
Ce1 Co0 2.900187 1_565
Ce1 Co0 2.900303 1_555
Ce1 Co0 2.900303 1_665
Ce1 Co9 3.167478 1_555
Ce1 Co8 3.167672 1_555
Ce1 Co10 3.167672 1_555
Ce2 Co15 2.807710 1_565
Ce2 Co15 2.807710 1_455
Ce2 Co16 2.807842 1_555
Ce2 Co14 2.807842 1_555
Ce2 Co14 2.807905 1_455
Ce2 Co16 2.807905 1_565
Ce2 Co1 2.900187 1_565
Ce2 Co1 2.900303 1_665
Ce2 Co1 2.900303 1_555
Ce2 Co18 3.167478 1_554
Ce2 Co19 3.167672 1_554
Ce2 Co17 3.167672 1_554
Ce3 Co18 2.807710 1_655
Ce3 Co18 2.807710 1_545
Ce3 Co19 2.807842 1_555
Ce3 Co17 2.807842 1_555
Ce3 Co17 2.807905 1_655
Ce3 Co19 2.807905 1_545
Ce3 Co1 2.900187 1_656
Ce3 Co1 2.900303 1_666
Ce3 Co1 2.900303 1_556
Ce3 Co15 3.167478 1_556
Ce3 Co16 3.167672 1_556
Ce3 Co14 3.167672 1_556
Ce4 Co20 2.815135 1_655
Ce4 Co20 2.815135 1_545
Ce4 Co20 2.815280 1_645
Ce4 Co25 2.815597 1_545
Ce4 Co25 2.815597 1_655
Ce4 Co25 2.816739 1_555
Ce4 Co3 3.065721 1_545
Ce4 Co3 3.065721 1_655
Ce4 Co2 3.065807 1_655
Ce4 Co4 3.065807 1_545
Ce4 Co4 3.065822 1_555
Ce4 Co2 3.065822 1_555
Ce4 Co10 3.247595 1_545
Ce4 Co8 3.247595 1_655
Ce4 Co9 3.247604 1_655
Ce4 Co9 3.247604 1_545
Ce4 Co10 3.247628 1_555
Ce4 Co8 3.247628 1_555
Ce5 Co21 2.815135 1_565
Ce5 Co21 2.815135 1_455
Ce5 Co21 2.815280 1_465
Ce5 Co24 2.815597 1_565
Ce5 Co24 2.815597 1_455
Ce5 Co24 2.816739 1_555
Ce5 Co6 3.065721 1_455
Ce5 Co6 3.065721 1_565
Ce5 Co7 3.065807 1_565
Ce5 Co5 3.065807 1_455
Ce5 Co5 3.065822 1_555
Ce5 Co7 3.065822 1_555
Ce5 Co11 3.247595 1_455
Ce5 Co13 3.247595 1_565
Ce5 Co12 3.247604 1_565
Ce5 Co12 3.247604 1_455
Ce5 Co13 3.247628 1_555
Ce5 Co11 3.247628 1_555
Ce6 Co22 2.815135 1_565
Ce6 Co22 2.815135 1_455
Ce6 Co22 2.815280 1_465
Ce6 Co27 2.815597 1_565
Ce6 Co27 2.815597 1_455
Ce6 Co27 2.816739 1_555
Ce6 Co6 3.065721 1_455
Ce6 Co6 3.065721 1_565
Ce6 Co7 3.065807 1_565
Ce6 Co5 3.065807 1_455
Ce6 Co5 3.065822 1_555
Ce6 Co7 3.065822 1_555
Ce6 Co14 3.247595 1_455
Ce6 Co16 3.247595 1_565
Ce6 Co15 3.247604 1_565
Ce6 Co15 3.247604 1_455
Ce6 Co16 3.247628 1_555
Ce6 Co14 3.247628 1_555
Ce7 Co23 2.815135 1_655
Ce7 Co23 2.815135 1_545
Ce7 Co23 2.815280 1_645
Ce7 Co26 2.815597 1_655
Ce7 Co26 2.815597 1_545
Ce7 Co26 2.816739 1_555
Ce7 Co3 3.065721 1_545
Ce7 Co3 3.065721 1_655
Ce7 Co2 3.065807 1_655
Ce7 Co4 3.065807 1_545
Ce7 Co4 3.065822 1_555
Ce7 Co2 3.065822 1_555
Ce7 Co19 3.247595 1_545
Ce7 Co17 3.247595 1_655
Ce7 Co18 3.247604 1_655
Ce7 Co18 3.247604 1_545
Ce7 Co19 3.247628 1_555
Ce7 Co17 3.247628 1_555
Co0 Co9 2.539833 1_545
Co0 Co12 2.539833 1_455
Co0 Co13 2.539897 1_555
Co0 Co11 2.539897 1_445
Co0 Co8 2.539897 1_555
Co0 Co10 2.539897 1_445
Co1 Co15 2.539833 1_455
Co1 Co18 2.539833 1_544
Co1 Co16 2.539897 1_555
Co1 Co14 2.539897 1_445
Co1 Co17 2.539897 1_554
Co1 Co19 2.539897 1_444
Co2 Co3 2.432530 1_545
Co2 Co4 2.432828 1_445
Co2 Co4 2.434016 1_555
Co2 Co3 2.434550 1_555
Co2 Co23 2.473542 1_545
Co2 Co20 2.473542 1_545
Co2 Co25 2.484483 1_555
Co2 Co26 2.484483 1_555
Co3 Co4 2.432530 1_455
Co3 Co4 2.434550 1_555
Co5 Co6 2.432530 1_565
Co5 Co7 2.432828 1_665
Co5 Co7 2.434016 1_555
Co5 Co6 2.434550 1_555
Co6 Co7 2.432530 1_655
Co6 Co7 2.434550 1_555
Co8 Co9 2.425962 1_545
Co8 Co9 2.441118 1_555
Co10 Co25 2.419563 1_555
Co10 Co20 2.424747 1_655
Co10 Co9 2.425962 1_655
Co10 Co8 2.426122 1_665
Co10 Co8 2.440722 1_555
Co10 Co9 2.441118 1_555
Co11 Co24 2.419563 1_555
Co11 Co21 2.424747 1_565
Co11 Co12 2.425962 1_565
Co11 Co13 2.426122 1_665
Co11 Co13 2.440722 1_555
Co11 Co12 2.441118 1_555
Co12 Co24 2.419325 1_555
Co12 Co21 2.424674 1_555
Co12 Co13 2.425962 1_655
Co12 Co13 2.441118 1_555
Co13 Co24 2.419563 1_555
Co13 Co21 2.424747 1_455
Co14 Co27 2.419563 1_555
Co14 Co22 2.424747 1_565
Co14 Co15 2.425962 1_565
Co14 Co16 2.426122 1_665
Co14 Co16 2.440722 1_555
Co14 Co15 2.441118 1_555
Co15 Co27 2.419325 1_555
Co15 Co22 2.424674 1_555
Co15 Co16 2.425962 1_655
Co15 Co16 2.441118 1_555
Co16 Co27 2.419563 1_555
Co16 Co22 2.424747 1_455
Co17 Co26 2.419563 1_555
Co17 Co23 2.424747 1_545
Co17 Co18 2.425962 1_545
Co17 Co19 2.426122 1_445
Co17 Co19 2.440722 1_555
Co17 Co18 2.441118 1_555
Co18 Co26 2.419325 1_555
Co18 Co23 2.424674 1_555
Co18 Co19 2.425962 1_455
Co18 Co19 2.441118 1_555
Co19 Co26 2.419563 1_555
Co19 Co23 2.424747 1_655
Co20 Co9 2.424674 1_555
Co20 Co8 2.424747 1_565
Co20 Co3 2.473293 1_555
Co20 Co4 2.473542 1_455
Co20 Co25 2.809407 1_555
Co20 Co25 2.810286 1_455
Co20 Co25 2.810286 1_565
Co21 Co6 2.473293 1_555
Co21 Co7 2.473542 1_655
Co21 Co5 2.473542 1_545
Co21 Co24 2.809407 1_555
Co21 Co24 2.810286 1_545
Co21 Co24 2.810286 1_655
Co22 Co6 2.473293 1_555
Co22 Co7 2.473542 1_655
Co22 Co5 2.473542 1_545
Co22 Co27 2.809407 1_555
Co22 Co27 2.810286 1_545
Co22 Co27 2.810286 1_655
Co23 Co3 2.473293 1_555
Co23 Co4 2.473542 1_455
Co23 Co26 2.809407 1_555
Co23 Co26 2.810286 1_565
Co23 Co26 2.810286 1_455
Co24 Co6 2.484233 1_555
Co24 Co5 2.484483 1_555
Co24 Co7 2.484483 1_555
Co25 Co9 2.419325 1_555
Co25 Co8 2.419563 1_555
Co25 Co3 2.484233 1_555
Co25 Co4 2.484483 1_555
Co26 Co3 2.484233 1_555
Co26 Co4 2.484483 1_555
Co27 Co6 2.484233 1_555
Co27 Co5 2.484483 1_555
Co27 Co7 2.484483 1_555
