# generated using pymatgen
data_YbGa6
_symmetry_space_group_name_H-M   'P 1'
_cell_length_a   6.02311600
_cell_length_b   6.02311600
_cell_length_c   7.67874000
_cell_angle_alpha   90.00000000
_cell_angle_beta   90.00000000
_cell_angle_gamma   90.00000000
_symmetry_Int_Tables_number   1
_chemical_formula_structural   YbGa6
_chemical_formula_sum   'Yb2 Ga12'
_cell_volume   278.56876418
_cell_formula_units_Z   2
loop_
 _symmetry_equiv_pos_site_id
 _symmetry_equiv_pos_as_xyz
  1  'x, y, z'
loop_
 _atom_site_type_symbol
 _atom_site_label
 _atom_site_symmetry_multiplicity
 _atom_site_fract_x
 _atom_site_fract_y
 _atom_site_fract_z
 _atom_site_occupancy
  Yb  Yb0  1  0.50000000  0.00000000  0.00000000  1
  Yb  Yb1  1  0.00000000  0.50000000  0.00000000  1
  Ga  Ga0  1  0.50000000  0.50000000  0.16150200  1
  Ga  Ga1  1  0.00000000  0.00000000  0.16150200  1
  Ga  Ga2  1  0.00000000  0.00000000  0.83849800  1
  Ga  Ga3  1  0.50000000  0.50000000  0.83849800  1
  Ga  Ga4  1  0.80788000  0.69212000  0.35027100  1
  Ga  Ga5  1  0.30788000  0.80788000  0.35027100  1
  Ga  Ga6  1  0.69212000  0.19212000  0.35027100  1
  Ga  Ga7  1  0.19212000  0.30788000  0.35027100  1
  Ga  Ga8  1  0.69212000  0.80788000  0.64972900  1
  Ga  Ga9  1  0.19212000  0.69212000  0.64972900  1
  Ga  Ga10  1  0.80788000  0.30788000  0.64972900  1
  Ga  Ga11  1  0.30788000  0.19212000  0.64972900  1
loop_
_geom_bond_atom_site_label_1
_geom_bond_atom_site_label_2
_geom_bond_distance
_geom_bond_site_symmetry_2
Ga0 Ga3 2.480264 1_554
Ga0 Ga6 2.622763 1_555
Ga0 Ga7 2.622763 1_555
Ga0 Ga4 2.622763 1_555
Ga0 Ga5 2.622763 1_555
Ga0 Yb0 3.256902 1_555
Ga0 Yb1 3.256902 1_555
Ga0 Yb0 3.256902 1_565
Ga0 Yb1 3.256902 1_655
Ga1 Ga2 2.480264 1_554
Ga1 Ga5 2.622763 1_545
Ga1 Ga7 2.622763 1_555
Ga1 Ga4 2.622763 1_445
Ga1 Ga6 2.622763 1_455
Ga1 Yb0 3.256902 1_555
Ga1 Yb1 3.256902 1_545
Ga1 Yb1 3.256902 1_555
Ga1 Yb0 3.256902 1_455
Ga2 Ga8 2.622763 1_445
Ga2 Ga9 2.622763 1_545
Ga2 Yb0 3.256902 1_456
Ga2 Yb0 3.256902 1_556
Ga2 Yb1 3.256902 1_556
Ga2 Yb1 3.256902 1_546
Ga3 Ga9 2.622763 1_555
Ga3 Ga8 2.622763 1_555
Ga3 Yb0 3.256902 1_556
Ga3 Yb1 3.256902 1_556
Ga3 Yb0 3.256902 1_566
Ga3 Yb1 3.256902 1_656
Ga4 Ga8 2.501958 1_555
Ga4 Yb1 3.148366 1_655
Ga5 Ga9 2.501958 1_555
Ga5 Yb0 3.148366 1_565
Ga6 Yb0 3.148366 1_555
Ga7 Yb1 3.148366 1_555
Ga8 Yb0 3.148366 1_566
Ga9 Yb1 3.148366 1_556
Ga10 Ga6 2.501958 1_555
Ga10 Ga2 2.622763 1_655
Ga10 Ga3 2.622763 1_555
Ga10 Yb1 3.148366 1_656
Ga11 Ga7 2.501958 1_555
Ga11 Ga3 2.622763 1_555
Ga11 Ga2 2.622763 1_555
Ga11 Yb0 3.148366 1_556
