# generated using pymatgen
data_U6Al8Fe5Si9
_symmetry_space_group_name_H-M   'P 1'
_cell_length_a   11.10371860
_cell_length_b   11.10371860
_cell_length_c   11.10371860
_cell_angle_alpha   158.69410601
_cell_angle_beta   113.38314334
_cell_angle_gamma   70.82031883
_symmetry_Int_Tables_number   1
_chemical_formula_structural   U6Al8Fe5Si9
_chemical_formula_sum   'U6 Al8 Fe5 Si9'
_cell_volume   453.07066892
_cell_formula_units_Z   1
loop_
 _symmetry_equiv_pos_site_id
 _symmetry_equiv_pos_as_xyz
  1  'x, y, z'
loop_
 _atom_site_type_symbol
 _atom_site_label
 _atom_site_symmetry_multiplicity
 _atom_site_fract_x
 _atom_site_fract_y
 _atom_site_fract_z
 _atom_site_occupancy
  U  U0  1  0.87157000  0.87157000  0.00000000  1
  U  U1  1  0.12843000  0.12843000  0.00000000  1
  U  U2  1  0.18924800  0.87493400  0.31431400  1
  U  U3  1  0.43938000  0.12506600  0.31431400  1
  U  U4  1  0.56062000  0.87493400  0.68568600  1
  U  U5  1  0.81075200  0.12506600  0.68568600  1
  Al  Al0  1  0.38457000  0.38457000  0.00000000  1
  Al  Al1  1  0.61543000  0.61543000  0.00000000  1
  Al  Al2  1  0.33554200  0.50000000  0.83554200  1
  Al  Al3  1  0.66445800  0.50000000  0.16445800  1
  Al  Al4  1  0.73453400  0.23453400  0.50000000  1
  Al  Al5  1  0.26546600  0.76546600  0.50000000  1
  Al  Al6  1  0.14856100  0.00000000  0.14856100  1
  Al  Al7  1  0.85143900  0.00000000  0.85143900  1
  Fe  Fe0  1  0.97015900  0.28552200  0.68463700  1
  Fe  Fe1  1  0.39911500  0.71447800  0.68463700  1
  Fe  Fe2  1  0.60088500  0.28552200  0.31536300  1
  Fe  Fe3  1  0.02984100  0.71447800  0.31536300  1
  Fe  Fe4  1  0.00000000  0.50000000  0.50000000  1
  Si  Si0  1  0.86826100  0.73799000  0.13027100  1
  Si  Si1  1  0.39228100  0.26201000  0.13027100  1
  Si  Si2  1  0.60771900  0.73799000  0.86972900  1
  Si  Si3  1  0.13173900  0.26201000  0.86972900  1
  Si  Si4  1  0.06606500  0.41136100  0.65470400  1
  Si  Si5  1  0.24334200  0.58863900  0.65470400  1
  Si  Si6  1  0.75665800  0.41136100  0.34529600  1
  Si  Si7  1  0.93393500  0.58863900  0.34529600  1
  Si  Si8  1  0.50000000  0.00000000  0.50000000  1
loop_
_geom_bond_atom_site_label_1
_geom_bond_atom_site_label_2
_geom_bond_distance
_geom_bond_site_symmetry_2
Al0 Si3 2.728494 1_554
Al0 Si1 2.728494 1_555
Al0 Al2 2.896082 1_554
Al0 Al3 2.896082 1_555
Al0 Si8 2.928857 1_565
Al0 Si8 2.928857 1_554
Al0 Al5 2.976657 1_555
Al0 Al5 2.976657 1_544
Al0 U2 3.061290 1_555
Al0 U4 3.061290 1_544
Al0 U2 3.061290 1_544
Al0 U4 3.061290 1_555
Al1 Si0 2.728494 1_555
Al1 Si2 2.728494 1_554
Al1 Al3 2.896082 1_555
Al1 Al2 2.896082 1_554
Al1 Si8 2.928857 1_565
Al1 Si8 2.928857 1_554
Al1 Al4 2.976657 1_565
Al1 Al4 2.976657 1_554
Al1 U3 3.061290 1_565
Al1 U3 3.061290 1_554
Al1 U5 3.061290 1_554
Al1 U5 3.061290 1_565
Al2 Si5 2.727161 1_555
Al2 Si4 2.727162 1_555
Al2 Si8 2.869783 1_566
Al2 Si8 2.869783 1_555
Al2 U3 3.066660 1_566
Al2 U3 3.066660 1_555
Al2 U2 3.066660 1_545
Al2 U2 3.066660 1_556
Al2 Al6 3.068037 1_555
Al2 Al6 3.068037 1_566
Al3 Si6 2.727161 1_555
Al3 Si7 2.727162 1_555
Al3 Si8 2.869783 1_554
Al3 Si8 2.869783 1_565
Al3 U5 3.066660 1_565
Al3 U5 3.066660 1_554
Al3 U4 3.066660 1_544
Al3 U4 3.066660 1_555
Al3 Al7 3.068037 1_554
Al3 Al7 3.068037 1_565
Al4 Fe0 2.433454 1_555
Al4 Fe2 2.433454 1_555
Al4 Si0 2.596358 1_545
Al4 Si0 2.596358 1_556
Al4 Si2 2.596358 1_544
Al4 Si2 2.596358 1_555
Al4 U3 3.008896 1_555
Al4 U5 3.008896 1_555
Al4 U0 3.219498 1_556
Al4 U0 3.219498 1_545
Al5 Fe1 2.433454 1_555
Al5 Fe3 2.433454 1_555
Al5 Si1 2.596358 1_555
Al5 Si1 2.596358 1_566
Al5 Si3 2.596358 1_554
Al5 Si3 2.596358 1_565
Al5 U2 3.008896 1_555
Al5 U4 3.008896 1_555
Al5 U1 3.219498 1_555
Al5 U1 3.219498 1_566
Al6 Si5 2.606289 1_544
Al6 Si5 2.606292 1_555
Al6 Si4 2.606296 1_544
Al6 Si4 2.606296 1_555
Al6 Fe4 2.737812 1_555
Al6 Fe4 2.737812 1_544
Al6 U0 2.947166 1_445
Al6 U1 2.947166 1_555
Al6 U3 3.034809 1_555
Al6 U2 3.034809 1_545
Al7 Si6 2.606289 1_556
Al7 Si6 2.606292 1_545
Al7 Si7 2.606296 1_556
Al7 Si7 2.606296 1_545
Al7 Fe4 2.737812 1_645
Al7 Fe4 2.737812 1_656
Al7 U0 2.947166 1_546
Al7 U1 2.947166 1_656
Al7 U5 3.034809 1_555
Al7 U4 3.034809 1_545
Fe0 Si3 2.296985 1_655
Fe0 Si4 2.306705 1_655
Fe0 Si0 2.322281 1_545
Fe0 Si0 2.322281 1_556
Fe0 U5 2.904220 1_555
Fe0 U2 3.055023 1_645
Fe0 U2 3.055023 1_656
Fe1 Si2 2.296985 1_555
Fe1 Si5 2.306714 1_555
Fe1 Si1 2.322281 1_555
Fe1 Si1 2.322281 1_566
Fe1 U4 2.904220 1_555
Fe1 U3 3.055023 1_566
Fe1 U3 3.055023 1_555
Fe2 Si1 2.296985 1_555
Fe2 Si6 2.306714 1_555
Fe2 Si2 2.322281 1_544
Fe2 Si2 2.322281 1_555
Fe2 U3 2.904220 1_555
Fe2 U4 3.055023 1_555
Fe2 U4 3.055023 1_544
Fe3 Si0 2.296985 1_455
Fe3 Si7 2.306705 1_455
Fe3 Si3 2.322281 1_554
Fe3 Si3 2.322281 1_565
Fe3 U2 2.904220 1_555
Fe3 U5 3.055023 1_465
Fe3 U5 3.055023 1_454
Fe4 Si5 2.476533 1_555
Fe4 Si6 2.476533 1_455
Fe4 Si4 2.476544 1_555
Fe4 Si7 2.476544 1_455
Fe4 U0 3.101088 1_445
Fe4 U0 3.101088 1_456
Fe4 U1 3.101088 1_566
Fe4 U1 3.101088 1_555
Si0 U0 2.892987 1_555
Si0 U5 2.974463 1_565
Si0 U5 2.974463 1_554
Si1 U1 2.892987 1_555
Si1 U4 2.974463 1_544
Si1 U4 2.974463 1_555
Si2 U0 2.892987 1_556
Si2 U3 2.974463 1_566
Si2 U3 2.974463 1_555
Si3 U1 2.892987 1_556
Si3 U2 2.974463 1_545
Si3 U2 2.974463 1_556
Si4 U0 2.879473 1_445
Si4 U0 2.879473 1_456
Si4 U2 2.904600 1_556
Si4 U2 2.904600 1_545
Si5 U1 2.879470 1_566
Si5 U1 2.879473 1_555
Si5 U3 2.904605 1_566
Si5 U3 2.904607 1_555
Si6 U0 2.879470 1_545
Si6 U0 2.879473 1_556
Si6 U4 2.904605 1_544
Si6 U4 2.904607 1_555
Si7 U1 2.879473 1_666
Si7 U1 2.879473 1_655
Si7 U5 2.904600 1_565
Si7 U5 2.904600 1_554
Si8 U5 3.201857 1_555
Si8 U3 3.201857 1_555
Si8 U2 3.201857 1_545
Si8 U4 3.201857 1_545
