# generated using pymatgen
data_KEuTiO4
_symmetry_space_group_name_H-M   'P 1'
_cell_length_a   5.54203100
_cell_length_b   13.33030900
_cell_length_c   5.46096400
_cell_angle_alpha   90.00000000
_cell_angle_beta   90.00000000
_cell_angle_gamma   90.00000000
_symmetry_Int_Tables_number   1
_chemical_formula_structural   KEuTiO4
_chemical_formula_sum   'K4 Eu4 Ti4 O16'
_cell_volume   403.43955943
_cell_formula_units_Z   4
loop_
 _symmetry_equiv_pos_site_id
 _symmetry_equiv_pos_as_xyz
  1  'x, y, z'
loop_
 _atom_site_type_symbol
 _atom_site_label
 _atom_site_symmetry_multiplicity
 _atom_site_fract_x
 _atom_site_fract_y
 _atom_site_fract_z
 _atom_site_occupancy
  K  K0  1  0.01796400  0.40420300  0.75000000  1
  K  K1  1  0.98203600  0.59579700  0.25000000  1
  K  K2  1  0.51796400  0.59579700  0.75000000  1
  K  K3  1  0.48203600  0.40420300  0.25000000  1
  Eu  Eu0  1  0.52353900  0.89789400  0.75000000  1
  Eu  Eu1  1  0.47646100  0.10210600  0.25000000  1
  Eu  Eu2  1  0.02353900  0.10210600  0.75000000  1
  Eu  Eu3  1  0.97646100  0.89789400  0.25000000  1
  Ti  Ti0  1  0.00719000  0.75273700  0.75000000  1
  Ti  Ti1  1  0.99281000  0.24726300  0.25000000  1
  Ti  Ti2  1  0.50719000  0.24726300  0.75000000  1
  Ti  Ti3  1  0.49281000  0.75273700  0.25000000  1
  O  O0  1  0.93677300  0.93577400  0.75000000  1
  O  O1  1  0.06322700  0.06422600  0.25000000  1
  O  O2  1  0.43677300  0.06422600  0.75000000  1
  O  O3  1  0.56322700  0.93577400  0.25000000  1
  O  O4  1  0.52629500  0.37963900  0.75000000  1
  O  O5  1  0.47370500  0.62036100  0.25000000  1
  O  O6  1  0.02629500  0.62036100  0.75000000  1
  O  O7  1  0.97370500  0.37963900  0.25000000  1
  O  O8  1  0.75000000  0.77084700  0.00000000  1
  O  O9  1  0.25000000  0.22915300  0.00000000  1
  O  O10  1  0.25000000  0.22915300  0.50000000  1
  O  O11  1  0.75000000  0.77084700  0.50000000  1
  O  O12  1  0.75000000  0.20617600  0.00000000  1
  O  O13  1  0.25000000  0.79382400  0.00000000  1
  O  O14  1  0.25000000  0.79382400  0.50000000  1
  O  O15  1  0.75000000  0.20617600  0.50000000  1
loop_
_geom_bond_atom_site_label_1
_geom_bond_atom_site_label_2
_geom_bond_distance
_geom_bond_site_symmetry_2
K0 O4 2.744449 1_455
K0 O7 2.760963 1_456
K0 O7 2.760963 1_455
K0 O4 2.836152 1_555
K0 O6 2.881823 1_555
K0 O9 2.993766 1_556
K0 O10 2.993766 1_555
K1 O5 2.744449 1_655
K1 O6 2.760963 1_655
K1 O6 2.760963 1_654
K1 O5 2.836152 1_555
K1 O7 2.881823 1_555
K1 O8 2.993766 1_555
K1 O11 2.993766 1_555
K2 O6 2.744449 1_555
K2 O5 2.760963 1_555
K2 O5 2.760963 1_556
K2 O6 2.836152 1_655
K2 O4 2.881823 1_555
K2 O8 2.993766 1_556
K2 O11 2.993766 1_555
K3 O7 2.744449 1_555
K3 O4 2.760963 1_555
K3 O4 2.760963 1_554
K3 O7 2.836152 1_455
K3 O5 2.881823 1_555
K3 O9 2.993766 1_555
K3 O10 2.993766 1_555
Eu0 O2 2.268800 1_565
Eu0 O0 2.345163 1_555
Eu0 O13 2.467100 1_556
Eu0 O14 2.467100 1_555
Eu0 O11 2.511422 1_555
Eu0 O8 2.511422 1_556
Eu0 O3 2.785478 1_555
Eu0 O3 2.785478 1_556
Eu1 O3 2.268800 1_545
Eu1 O1 2.345163 1_555
Eu1 O12 2.467100 1_555
Eu1 O15 2.467100 1_555
Eu1 O10 2.511422 1_555
Eu1 O9 2.511422 1_555
Eu1 O2 2.785478 1_555
Eu1 O2 2.785478 1_554
Eu2 O0 2.268800 1_445
Eu2 O2 2.345163 1_555
Eu2 O15 2.467100 1_455
Eu2 O12 2.467100 1_456
Eu2 O10 2.511422 1_555
Eu2 O9 2.511422 1_556
Eu2 O1 2.785478 1_555
Eu2 O1 2.785478 1_556
Eu3 O1 2.268800 1_665
Eu3 O3 2.345163 1_555
Eu3 O13 2.467100 1_655
Eu3 O14 2.467100 1_655
Eu3 O8 2.511422 1_555
Eu3 O11 2.511422 1_555
Eu3 O0 2.785478 1_555
Eu3 O0 2.785478 1_554
O0 Ti0 2.470952 1_655
O1 Ti1 2.470952 1_455
O2 Ti2 2.470952 1_555
O3 Ti3 2.470952 1_555
O4 Ti2 1.767787 1_555
O5 Ti3 1.767787 1_555
O6 Ti0 1.767787 1_555
O7 Ti1 1.767787 1_555
O8 Ti3 1.988416 1_555
O8 Ti0 1.988416 1_654
O9 Ti2 1.988416 1_554
O9 Ti1 1.988416 1_455
O10 Ti2 1.988416 1_555
O10 Ti1 1.988416 1_455
O11 Ti3 1.988416 1_555
O11 Ti0 1.988416 1_655
O12 Ti1 1.993656 1_555
O12 Ti2 1.993656 1_554
O13 Ti0 1.993656 1_554
O13 Ti3 1.993656 1_555
O14 Ti0 1.993656 1_555
O14 Ti3 1.993656 1_555
O15 Ti1 1.993656 1_555
O15 Ti2 1.993656 1_555
