# generated using pymatgen
data_CsAlNiF6
_symmetry_space_group_name_H-M   'P 1'
_cell_length_a   7.10625233
_cell_length_b   7.10625233
_cell_length_c   7.10625233
_cell_angle_alpha   120.77084268
_cell_angle_beta   119.15290251
_cell_angle_gamma   90.07175563
_symmetry_Int_Tables_number   1
_chemical_formula_structural   CsAlNiF6
_chemical_formula_sum   'Cs2 Al2 Ni2 F12'
_cell_volume   253.83332784
_cell_formula_units_Z   2
loop_
 _symmetry_equiv_pos_site_id
 _symmetry_equiv_pos_as_xyz
  1  'x, y, z'
loop_
 _atom_site_type_symbol
 _atom_site_label
 _atom_site_symmetry_multiplicity
 _atom_site_fract_x
 _atom_site_fract_y
 _atom_site_fract_z
 _atom_site_occupancy
  Cs  Cs0  1  0.62867491  0.87867491  0.75000000  1
  Cs  Cs1  1  0.37132509  0.12132509  0.25000000  1
  Al  Al0  1  -0.00000000  0.50000000  0.00000000  1
  Al  Al1  1  -0.00000000  -0.00000000  0.50000000  1
  Ni  Ni0  1  0.50000000  0.50000000  0.00000000  1
  Ni  Ni1  1  -0.00000000  0.50000000  0.50000000  1
  F  F0  1  0.04852723  0.79852723  0.25000000  1
  F  F1  1  0.66920047  0.41920047  0.25000000  1
  F  F2  1  0.05531825  0.83568280  0.63484929  1
  F  F3  1  0.70083351  0.42046895  0.86515071  1
  F  F4  1  0.70083351  0.83568280  0.28036455  1
  F  F5  1  0.05531825  0.42046895  0.21963545  1
  F  F6  1  0.95147277  0.20147277  0.75000000  1
  F  F7  1  0.33079953  0.58079953  0.75000000  1
  F  F8  1  0.94468175  0.16431720  0.36515071  1
  F  F9  1  0.29916649  0.57953105  0.13484929  1
  F  F10  1  0.29916649  0.16431720  0.71963545  1
  F  F11  1  0.94468175  0.57953105  0.78036455  1
loop_
_geom_bond_atom_site_label_1
_geom_bond_atom_site_label_2
_geom_bond_distance
_geom_bond_site_symmetry_2
Cs0 F7 2.991700 1_555
Cs0 F11 3.101223 1_555
Cs0 F10 3.101224 1_565
Cs0 F8 3.101224 1_566
Cs0 F9 3.101224 1_555
Cs0 F6 3.242009 1_565
Cs1 F1 2.991700 1_555
Cs1 F5 3.101223 1_555
Cs1 F2 3.101224 1_544
Cs1 F4 3.101224 1_545
Cs1 F3 3.101224 1_555
Cs1 F0 3.242009 1_545
Al0 F3 1.793142 1_454
Al0 F9 1.793142 1_555
Al0 F11 1.793142 1_454
Al0 F5 1.793142 1_555
Al0 F0 1.822212 1_555
Al0 F6 1.822212 1_454
Al1 F4 1.793142 1_445
Al1 F10 1.793142 1_555
Al1 F8 1.793142 1_455
Al1 F2 1.793142 1_545
Al1 F0 1.822212 1_545
Al1 F6 1.822212 1_455
F1 Ni1 1.973800 1_655
F1 Ni0 1.973800 1_555
F2 Ni1 2.013664 1_555
F3 Ni0 2.013664 1_556
F4 Ni0 2.013664 1_555
F5 Ni1 2.013664 1_555
F7 Ni1 1.973800 1_555
F7 Ni0 1.973800 1_556
F8 Ni1 2.013664 1_655
F9 Ni0 2.013664 1_555
F10 Ni0 2.013664 1_556
F11 Ni1 2.013664 1_655
