# generated using pymatgen
data_Nb2CrO8
_symmetry_space_group_name_H-M   'P 1'
_cell_length_a   10.41103117
_cell_length_b   10.41103117
_cell_length_c   4.97021687
_cell_angle_alpha   89.24590914
_cell_angle_beta   89.24590914
_cell_angle_gamma   34.45782522
_symmetry_Int_Tables_number   1
_chemical_formula_structural   Nb2CrO8
_chemical_formula_sum   'Nb4 Cr2 O16'
_cell_volume   304.77835621
_cell_formula_units_Z   2
loop_
 _symmetry_equiv_pos_site_id
 _symmetry_equiv_pos_as_xyz
  1  'x, y, z'
loop_
 _atom_site_type_symbol
 _atom_site_label
 _atom_site_symmetry_multiplicity
 _atom_site_fract_x
 _atom_site_fract_y
 _atom_site_fract_z
 _atom_site_occupancy
  Nb  Nb0  1  0.06661900  0.67494500  0.75452000  1
  Nb  Nb1  1  0.32505500  0.93338100  0.74548000  1
  Nb  Nb2  1  0.93338100  0.32505500  0.24548000  1
  Nb  Nb3  1  0.67494500  0.06661900  0.25452000  1
  Cr  Cr0  1  0.66596200  0.33403800  0.75000000  1
  Cr  Cr1  1  0.33403800  0.66596200  0.25000000  1
  O  O0  1  0.11759800  0.77372400  0.09656400  1
  O  O1  1  0.22627600  0.88240200  0.40343600  1
  O  O2  1  0.88240200  0.22627600  0.90343600  1
  O  O3  1  0.77372400  0.11759800  0.59656400  1
  O  O4  1  0.34324200  0.55374000  0.55551400  1
  O  O5  1  0.44626000  0.65675800  0.94448600  1
  O  O6  1  0.65675800  0.44626000  0.44448600  1
  O  O7  1  0.55374000  0.34324200  0.05551400  1
  O  O8  1  0.92634100  0.75950900  0.42087600  1
  O  O9  1  0.24049100  0.07365900  0.07912400  1
  O  O10  1  0.42931400  0.19306100  0.36299200  1
  O  O11  1  0.80693900  0.57068600  0.13700800  1
  O  O12  1  0.57068600  0.80693900  0.63700800  1
  O  O13  1  0.19306100  0.42931400  0.86299200  1
  O  O14  1  0.75950900  0.92634100  0.92087600  1
  O  O15  1  0.07365900  0.24049100  0.57912400  1
loop_
_geom_bond_atom_site_label_1
_geom_bond_atom_site_label_2
_geom_bond_distance
_geom_bond_site_symmetry_2
Nb0 O13 1.730359 1_555
Nb0 O8 1.887554 1_455
Nb0 O14 1.985960 1_455
Nb0 O4 2.197630 1_555
Nb0 O0 2.280186 1_556
Nb1 O12 1.730359 1_555
Nb1 O9 1.887554 1_566
Nb1 O15 1.985960 1_565
Nb1 O5 2.197630 1_555
Nb1 O1 2.280186 1_555
Nb2 O11 1.730359 1_555
Nb2 O15 1.887554 1_655
Nb2 O9 1.985960 1_655
Nb2 O6 2.197630 1_555
Nb2 O2 2.280186 1_554
Nb3 O10 1.730359 1_555
Nb3 O14 1.887554 1_544
Nb3 O8 1.985960 1_545
Nb3 O7 2.197630 1_555
Nb3 O3 2.280186 1_555
Cr0 O2 1.664814 1_555
Cr0 O3 1.664814 1_555
Cr0 O6 1.858085 1_555
Cr0 O7 1.858085 1_556
Cr0 O5 2.192893 1_555
Cr0 O4 2.192893 1_555
Cr1 O1 1.664814 1_555
Cr1 O0 1.664814 1_555
Cr1 O5 1.858085 1_554
Cr1 O4 1.858085 1_555
Cr1 O6 2.192893 1_555
Cr1 O7 2.192893 1_555
