# generated using pymatgen
data_Tb4CuPt3
_symmetry_space_group_name_H-M   'P 1'
_cell_length_a   4.46076614
_cell_length_b   5.54567764
_cell_length_c   7.12392853
_cell_angle_alpha   89.59003164
_cell_angle_beta   90.00000000
_cell_angle_gamma   90.00000000
_symmetry_Int_Tables_number   1
_chemical_formula_structural   Tb4CuPt3
_chemical_formula_sum   'Tb4 Cu1 Pt3'
_cell_volume   176.22702635
_cell_formula_units_Z   1
loop_
 _symmetry_equiv_pos_site_id
 _symmetry_equiv_pos_as_xyz
  1  'x, y, z'
loop_
 _atom_site_type_symbol
 _atom_site_label
 _atom_site_symmetry_multiplicity
 _atom_site_fract_x
 _atom_site_fract_y
 _atom_site_fract_z
 _atom_site_occupancy
  Tb  Tb0  1  0.00000000  0.64183385  0.31539916  1
  Tb  Tb1  1  -0.00000000  0.85494441  0.81785375  1
  Tb  Tb2  1  0.50000000  0.36429476  0.68868217  1
  Tb  Tb3  1  0.50000000  0.14008203  0.17776286  1
  Cu  Cu0  1  -0.00000000  0.13455662  0.46362526  1
  Pt  Pt0  1  0.00000000  0.33892932  0.95413063  1
  Pt  Pt1  1  0.50000000  0.87006300  0.53473127  1
  Pt  Pt2  1  0.50000000  0.65529700  0.04781389  1
loop_
_geom_bond_atom_site_label_1
_geom_bond_atom_site_label_2
_geom_bond_distance
_geom_bond_site_symmetry_2
Cu0 Pt1 2.715155 1_545
Cu0 Pt1 2.715155 1_445
Cu0 Tb0 2.936457 1_545
Cu0 Tb1 2.952377 1_545
Cu0 Tb0 2.997765 1_555
Cu0 Tb3 3.020238 1_555
Cu0 Tb3 3.020238 1_455
Cu0 Tb2 3.032753 1_555
Cu0 Tb2 3.032753 1_455
Pt0 Tb1 2.860731 1_545
Pt0 Tb2 2.926877 1_455
Pt0 Tb2 2.926877 1_555
Pt0 Tb3 2.950187 1_556
Pt0 Tb3 2.950187 1_456
Pt0 Tb1 3.015262 1_555
Pt0 Tb0 3.083393 1_556
Pt1 Tb3 2.941898 1_565
Pt1 Tb2 2.959409 1_565
Pt1 Tb2 3.004308 1_555
Pt1 Tb0 3.007706 1_655
Pt1 Tb0 3.007706 1_555
Pt1 Tb1 3.007870 1_555
Pt1 Tb1 3.007870 1_655
Pt2 Tb3 2.849640 1_565
Pt2 Tb0 2.934615 1_655
Pt2 Tb0 2.934615 1_555
Pt2 Tb1 2.976284 1_554
Pt2 Tb1 2.976284 1_654
Pt2 Tb3 2.997139 1_555
Pt2 Tb2 3.034635 1_554
