# generated using pymatgen
data_Ho2Ga3(Fe7C)2
_symmetry_space_group_name_H-M   'P 1'
_cell_length_a   6.47312221
_cell_length_b   6.47312221
_cell_length_c   6.52662469
_cell_angle_alpha   83.38354944
_cell_angle_beta   83.38354944
_cell_angle_gamma   82.74555377
_symmetry_Int_Tables_number   1
_chemical_formula_structural   Ho2Ga3(Fe7C)2
_chemical_formula_sum   'Ho2 Ga3 Fe14 C2'
_cell_volume   268.06811641
_cell_formula_units_Z   1
loop_
 _symmetry_equiv_pos_site_id
 _symmetry_equiv_pos_as_xyz
  1  'x, y, z'
loop_
 _atom_site_type_symbol
 _atom_site_label
 _atom_site_symmetry_multiplicity
 _atom_site_fract_x
 _atom_site_fract_y
 _atom_site_fract_z
 _atom_site_occupancy
  Ho  Ho0  1  0.34796100  0.34796100  0.33932000  1
  Ho  Ho1  1  0.65203900  0.65203900  0.66068000  1
  Ga  Ga0  1  0.00000000  0.00000000  0.50000000  1
  Ga  Ga1  1  0.00000000  0.50000000  0.00000000  1
  Ga  Ga2  1  0.50000000  0.00000000  0.00000000  1
  Fe  Fe0  1  0.09122000  0.09122000  0.09599600  1
  Fe  Fe1  1  0.90878000  0.90878000  0.90400400  1
  Fe  Fe2  1  0.65343700  0.65343700  0.15261800  1
  Fe  Fe3  1  0.65230100  0.15103000  0.65472800  1
  Fe  Fe4  1  0.15103000  0.65230100  0.65472800  1
  Fe  Fe5  1  0.34656300  0.34656300  0.84738200  1
  Fe  Fe6  1  0.34769900  0.84897000  0.34527200  1
  Fe  Fe7  1  0.84897000  0.34769900  0.34527200  1
  Fe  Fe8  1  0.70543100  0.29457000  0.00000000  1
  Fe  Fe9  1  0.28681600  0.99894700  0.71342800  1
  Fe  Fe10  1  0.00105300  0.71318400  0.28657200  1
  Fe  Fe11  1  0.71318400  0.00105300  0.28657200  1
  Fe  Fe12  1  0.99894700  0.28681600  0.71342800  1
  Fe  Fe13  1  0.29456900  0.70543100  0.00000000  1
  C  C0  1  0.50000000  0.00000000  0.50000000  1
  C  C1  1  0.00000000  0.50000000  0.50000000  1
loop_
_geom_bond_atom_site_label_1
_geom_bond_atom_site_label_2
_geom_bond_distance
_geom_bond_site_symmetry_2
Ga0 Ho0 3.382149 1_555
Ga0 Ho1 3.382149 1_445
Ga1 Ho0 3.321713 1_555
Ga1 Ho1 3.321713 1_454
Ga2 Ho0 3.321713 1_555
Ga2 Ho1 3.321713 1_544
Fe0 Fe1 2.322440 1_444
Fe0 Ga0 2.649607 1_555
Fe0 Ga1 2.655479 1_555
Fe0 Ga2 2.655479 1_555
Fe0 Fe7 2.690586 1_455
Fe0 Fe6 2.690586 1_545
Fe0 Fe10 2.714391 1_545
Fe0 Fe11 2.714391 1_455
Fe0 Fe5 2.747849 1_554
Fe0 Fe12 2.760142 1_454
Fe0 Fe9 2.760142 1_544
Fe0 Fe13 2.775217 1_545
Fe0 Fe8 2.775219 1_455
Fe0 Ho0 3.155929 1_555
Fe1 Ga0 2.649607 1_665
Fe1 Ga1 2.655479 1_656
Fe1 Ga2 2.655479 1_566
Fe1 Fe4 2.690586 1_655
Fe1 Fe3 2.690586 1_565
Fe1 Fe9 2.714391 1_655
Fe1 Fe12 2.714391 1_565
Fe1 Fe2 2.747849 1_556
Fe1 Fe11 2.760142 1_566
Fe1 Fe10 2.760142 1_656
Fe1 Fe13 2.775217 1_656
Fe1 Fe8 2.775222 1_566
Fe1 Ho1 3.155929 1_555
Fe2 Ga2 2.482252 1_565
Fe2 Ga1 2.482252 1_655
Fe2 Fe7 2.502089 1_555
Fe2 Fe6 2.502089 1_555
Fe2 Fe8 2.600048 1_555
Fe2 Ho0 3.030163 1_555
Fe2 Ho1 3.212808 1_554
Fe2 Ho1 3.313872 1_555
Fe3 Ga0 2.487820 1_655
Fe3 Ga2 2.495908 1_556
Fe3 Fe5 2.502089 1_555
Fe3 Fe8 2.607967 1_556
Fe4 Ga0 2.487820 1_565
Fe4 Ga1 2.495908 1_556
Fe4 Fe5 2.502089 1_555
Fe5 Ga2 2.482252 1_556
Fe5 Ga1 2.482252 1_556
Fe5 Fe9 2.593875 1_545
Fe5 Fe8 2.600054 1_556
Fe5 Ho1 3.030163 1_555
Fe5 Ho0 3.212808 1_556
Fe5 Ho0 3.313872 1_555
Fe6 Ga0 2.487820 1_565
Fe6 Ga2 2.495908 1_565
Fe7 Ga0 2.487820 1_655
Fe7 Ga1 2.495908 1_655
Fe7 Fe8 2.607962 1_555
Fe8 Ga1 2.458552 1_655
Fe8 Ga2 2.458562 1_555
Fe8 Ho1 3.028495 1_554
Fe8 Ho0 3.028499 1_555
Fe9 Ga0 2.444980 1_565
Fe9 Ga2 2.450030 1_566
Fe10 Ga0 2.444980 1_565
Fe10 Ga1 2.450030 1_555
Fe10 Fe13 2.507833 1_555
Fe10 Fe2 2.593875 1_455
Fe11 Ga0 2.444980 1_655
Fe11 Ga2 2.450030 1_555
Fe11 Fe8 2.507838 1_555
Fe11 Fe2 2.593875 1_545
Fe12 Ga0 2.444980 1_655
Fe12 Ga1 2.450030 1_656
Fe12 Fe8 2.507834 1_556
Fe12 Fe5 2.593875 1_655
Fe13 Ga1 2.458556 1_555
Fe13 Ga2 2.458556 1_565
Fe13 Fe9 2.507833 1_554
Fe13 Fe5 2.600053 1_554
Fe13 Fe2 2.600053 1_555
Fe13 Fe4 2.607964 1_554
Fe13 Fe6 2.607964 1_555
Fe13 Ho1 3.028500 1_554
Fe13 Ho0 3.028500 1_555
C0 Fe11 1.844429 1_555
C0 Fe9 1.844429 1_545
C0 Fe3 1.909934 1_555
C0 Fe6 1.909934 1_545
C0 Ho0 2.505055 1_555
C0 Ho1 2.505055 1_545
C1 Fe10 1.844429 1_555
C1 Fe12 1.844429 1_455
C1 Fe4 1.909934 1_555
C1 Fe7 1.909934 1_455
C1 Ho0 2.505055 1_555
C1 Ho1 2.505055 1_455
