# generated using pymatgen
data_BaCr2(RuO3)4
_symmetry_space_group_name_H-M   'P 1'
_cell_length_a   9.29196700
_cell_length_b   10.08042000
_cell_length_c   10.08042000
_cell_angle_alpha   90.00000000
_cell_angle_beta   90.00000000
_cell_angle_gamma   90.00000000
_symmetry_Int_Tables_number   1
_chemical_formula_structural   BaCr2(RuO3)4
_chemical_formula_sum   'Ba4 Cr8 Ru16 O48'
_cell_volume   944.20199437
_cell_formula_units_Z   4
loop_
 _symmetry_equiv_pos_site_id
 _symmetry_equiv_pos_as_xyz
  1  'x, y, z'
loop_
 _atom_site_type_symbol
 _atom_site_label
 _atom_site_symmetry_multiplicity
 _atom_site_fract_x
 _atom_site_fract_y
 _atom_site_fract_z
 _atom_site_occupancy
  Ba  Ba0  1  0.11593500  0.50000000  0.50000000  1
  Ba  Ba1  1  0.37200700  0.00000000  0.00000000  1
  Ba  Ba2  1  0.54215800  0.50000000  0.50000000  1
  Ba  Ba3  1  0.95718700  0.00000000  0.00000000  1
  Cr  Cr0  1  0.16453000  0.16745100  0.34790300  1
  Cr  Cr1  1  0.16453000  0.83255000  0.65209700  1
  Cr  Cr2  1  0.16453000  0.65209700  0.16745100  1
  Cr  Cr3  1  0.16453000  0.34790300  0.83255000  1
  Cr  Cr4  1  0.00355500  0.33168200  0.15059500  1
  Cr  Cr5  1  0.00355500  0.66831800  0.84940500  1
  Cr  Cr6  1  0.00355500  0.84940500  0.33168200  1
  Cr  Cr7  1  0.00355500  0.15059500  0.66831800  1
  Ru  Ru0  1  0.32918500  0.33460700  0.15063900  1
  Ru  Ru1  1  0.32918500  0.66539300  0.84936100  1
  Ru  Ru2  1  0.32918500  0.84936100  0.33460700  1
  Ru  Ru3  1  0.32918500  0.15063900  0.66539300  1
  Ru  Ru4  1  0.49602000  0.16606600  0.35110800  1
  Ru  Ru5  1  0.49602000  0.83393400  0.64889200  1
  Ru  Ru6  1  0.49602000  0.64889200  0.16606600  1
  Ru  Ru7  1  0.49602000  0.35110800  0.83393400  1
  Ru  Ru8  1  0.83723900  0.16677600  0.35262100  1
  Ru  Ru9  1  0.83723900  0.83322400  0.64737900  1
  Ru  Ru10  1  0.83723900  0.64737900  0.16677600  1
  Ru  Ru11  1  0.83723900  0.35262100  0.83322400  1
  Ru  Ru12  1  0.67094500  0.33285000  0.14691700  1
  Ru  Ru13  1  0.67094500  0.66715000  0.85308300  1
  Ru  Ru14  1  0.67094500  0.85308300  0.33285000  1
  Ru  Ru15  1  0.67094500  0.14691700  0.66715000  1
  O  O0  1  0.16698500  0.45739400  0.16422100  1
  O  O1  1  0.16698500  0.54260600  0.83577900  1
  O  O2  1  0.16698500  0.83577900  0.45739400  1
  O  O3  1  0.16698500  0.16422100  0.54260600  1
  O  O4  1  0.49928600  0.45447300  0.15743800  1
  O  O5  1  0.49928600  0.54552700  0.84256200  1
  O  O6  1  0.49928600  0.84256200  0.45447300  1
  O  O7  1  0.49928600  0.15743800  0.54552700  1
  O  O8  1  0.00403800  0.30094300  0.34848700  1
  O  O9  1  0.00403800  0.69905700  0.65151300  1
  O  O10  1  0.00403800  0.65151300  0.30094300  1
  O  O11  1  0.00403800  0.34848700  0.69905700  1
  O  O12  1  0.66459000  0.29988000  0.34842100  1
  O  O13  1  0.66459000  0.70012000  0.65157900  1
  O  O14  1  0.66459000  0.65157900  0.29988000  1
  O  O15  1  0.66459000  0.34842100  0.70012000  1
  O  O16  1  0.33306300  0.04095500  0.33608500  1
  O  O17  1  0.33306300  0.95904500  0.66391500  1
  O  O18  1  0.33306300  0.66391500  0.04095500  1
  O  O19  1  0.33306300  0.33608500  0.95904500  1
  O  O20  1  0.32935400  0.30567100  0.35093200  1
  O  O21  1  0.32935400  0.69432900  0.64906800  1
  O  O22  1  0.32935400  0.64906800  0.30567100  1
  O  O23  1  0.32935400  0.35093200  0.69432900  1
  O  O24  1  0.83349300  0.45705400  0.16122900  1
  O  O25  1  0.83349300  0.54294600  0.83877100  1
  O  O26  1  0.83349300  0.83877100  0.45705400  1
  O  O27  1  0.83349300  0.16122900  0.54294600  1
  O  O28  1  0.83827400  0.19816800  0.15336300  1
  O  O29  1  0.83827400  0.80183200  0.84663700  1
  O  O30  1  0.83827400  0.84663700  0.19816800  1
  O  O31  1  0.83827400  0.15336300  0.80183200  1
  O  O32  1  0.99887200  0.04372400  0.33545600  1
  O  O33  1  0.99887200  0.95627600  0.66454400  1
  O  O34  1  0.99887200  0.66454400  0.04372400  1
  O  O35  1  0.99887200  0.33545600  0.95627600  1
  O  O36  1  0.16508200  0.19507000  0.14807100  1
  O  O37  1  0.16508200  0.80493000  0.85192900  1
  O  O38  1  0.16508200  0.85192900  0.19507000  1
  O  O39  1  0.16508200  0.14807100  0.80493000  1
  O  O40  1  0.66814500  0.04650900  0.34312500  1
  O  O41  1  0.66814500  0.95349100  0.65687500  1
  O  O42  1  0.66814500  0.65687500  0.04650900  1
  O  O43  1  0.66814500  0.34312500  0.95349100  1
  O  O44  1  0.49997300  0.20082500  0.15102500  1
  O  O45  1  0.49997300  0.79917500  0.84897500  1
  O  O46  1  0.49997300  0.84897500  0.20082500  1
  O  O47  1  0.49997300  0.15102500  0.79917500  1
loop_
_geom_bond_atom_site_label_1
_geom_bond_atom_site_label_2
_geom_bond_distance
_geom_bond_site_symmetry_2
Ba0 O11 2.727657 1_555
Ba0 O9 2.727657 1_555
Ba0 O10 2.727657 1_555
Ba0 O8 2.727657 1_555
Ba0 O21 3.166700 1_555
Ba0 O23 3.166700 1_555
Ba0 O22 3.166700 1_555
Ba0 O20 3.166700 1_555
Ba1 O47 2.798167 1_554
Ba1 O44 2.798167 1_555
Ba1 O45 2.798167 1_544
Ba1 O46 2.798167 1_545
Ba1 O36 3.129140 1_555
Ba1 O39 3.129140 1_554
Ba1 O37 3.129140 1_544
Ba1 O38 3.129140 1_545
Ba2 O12 2.774600 1_555
Ba2 O14 2.774600 1_555
Ba2 O15 2.774600 1_555
Ba2 O13 2.774600 1_555
Ba2 O21 3.163124 1_555
Ba2 O23 3.163124 1_555
Ba2 O22 3.163124 1_555
Ba2 O20 3.163124 1_555
Ba3 O28 2.757056 1_555
Ba3 O30 2.757056 1_545
Ba3 O29 2.757056 1_544
Ba3 O31 2.757056 1_554
Ba3 O39 3.134687 1_654
Ba3 O36 3.134687 1_655
Ba3 O37 3.134687 1_644
Ba3 O38 3.134687 1_645
Cr0 O3 1.963091 1_555
Cr0 O32 1.985122 1_455
Cr0 O8 2.008671 1_555
Cr0 O16 2.022998 1_555
Cr0 O36 2.033546 1_555
Cr0 O20 2.070718 1_555
Cr1 O2 1.963090 1_555
Cr1 O33 1.985116 1_455
Cr1 O9 2.008678 1_555
Cr1 O17 2.022992 1_555
Cr1 O37 2.033547 1_555
Cr1 O21 2.070725 1_555
Cr2 O0 1.963091 1_555
Cr2 O34 1.985122 1_455
Cr2 O10 2.008671 1_555
Cr2 O18 2.022998 1_555
Cr2 O38 2.033546 1_555
Cr2 O22 2.070718 1_555
Cr3 O1 1.963090 1_555
Cr3 O35 1.985116 1_455
Cr3 O11 2.008678 1_555
Cr3 O19 2.022992 1_555
Cr3 O39 2.033547 1_555
Cr3 O23 2.070725 1_555
Cr4 O35 1.959670 1_454
Cr4 O0 1.982635 1_555
Cr4 O8 2.018762 1_555
Cr4 O24 2.026266 1_455
Cr4 O36 2.037101 1_555
Cr4 O28 2.042254 1_455
Cr5 O34 1.959670 1_456
Cr5 O1 1.982635 1_555
Cr5 O9 2.018762 1_555
Cr5 O25 2.026266 1_455
Cr5 O37 2.037101 1_555
Cr5 O29 2.042254 1_455
Cr6 O32 1.959670 1_465
Cr6 O2 1.982635 1_555
Cr6 O10 2.018762 1_555
Cr6 O26 2.026266 1_455
Cr6 O38 2.037101 1_555
Cr6 O30 2.042254 1_455
Cr7 O33 1.959670 1_445
Cr7 O3 1.982635 1_555
Cr7 O11 2.018762 1_555
Cr7 O27 2.026266 1_455
Cr7 O39 2.037101 1_555
Cr7 O31 2.042254 1_455
O0 Ru0 1.955065 1_555
O1 Ru1 1.955065 1_555
O2 Ru2 1.955065 1_555
O3 Ru3 1.955065 1_555
O4 Ru6 1.961989 1_555
O4 Ru0 1.990702 1_555
O4 Ru12 2.014580 1_555
O5 Ru7 1.961989 1_555
O5 Ru1 1.990702 1_555
O5 Ru13 2.014580 1_555
O6 Ru5 1.961989 1_555
O6 Ru2 1.990702 1_555
O6 Ru14 2.014580 1_555
O7 Ru4 1.961989 1_555
O7 Ru3 1.990702 1_555
O7 Ru15 2.014580 1_555
O8 Ru8 2.057437 1_455
O9 Ru9 2.057437 1_455
O10 Ru10 2.057437 1_455
O11 Ru11 2.057437 1_455
O12 Ru12 2.059102 1_555
O12 Ru4 2.067296 1_555
O12 Ru8 2.091814 1_555
O13 Ru13 2.059102 1_555
O13 Ru5 2.067296 1_555
O13 Ru9 2.091814 1_555
O14 Ru14 2.059102 1_555
O14 Ru6 2.067296 1_555
O14 Ru10 2.091814 1_555
O15 Ru15 2.059102 1_555
O15 Ru7 2.067296 1_555
O15 Ru11 2.091814 1_555
O16 Ru2 1.931742 1_545
O16 Ru4 1.976426 1_555
O17 Ru3 1.931742 1_565
O17 Ru5 1.976426 1_555
O18 Ru1 1.931742 1_554
O18 Ru6 1.976426 1_555
O19 Ru0 1.931742 1_556
O19 Ru7 1.976426 1_555
O20 Ru0 2.039999 1_555
O20 Ru4 2.092550 1_555
O21 Ru1 2.039999 1_555
O21 Ru5 2.092550 1_555
O22 Ru2 2.039999 1_555
O22 Ru6 2.092550 1_555
O23 Ru3 2.039999 1_555
O23 Ru7 2.092550 1_555
O24 Ru10 1.919686 1_555
O24 Ru12 1.967148 1_555
O25 Ru11 1.919686 1_555
O25 Ru13 1.967148 1_555
O26 Ru9 1.919686 1_555
O26 Ru14 1.967148 1_555
O27 Ru8 1.919686 1_555
O27 Ru15 1.967148 1_555
O28 Ru8 2.033401 1_555
O28 Ru12 2.065161 1_555
O29 Ru9 2.033401 1_555
O29 Ru13 2.065161 1_555
O30 Ru10 2.033401 1_555
O30 Ru14 2.065161 1_555
O31 Ru11 2.033401 1_555
O31 Ru15 2.065161 1_555
O32 Ru8 1.955566 1_555
O33 Ru9 1.955566 1_555
O34 Ru10 1.955566 1_555
O35 Ru11 1.955566 1_555
O36 Ru0 2.074682 1_555
O37 Ru1 2.074682 1_555
O38 Ru2 2.074682 1_555
O39 Ru3 2.074682 1_555
O40 Ru14 1.952738 1_545
O40 Ru8 1.986871 1_555
O40 Ru4 2.004236 1_555
O41 Ru15 1.952738 1_565
O41 Ru9 1.986871 1_555
O41 Ru5 2.004236 1_555
O42 Ru13 1.952738 1_554
O42 Ru10 1.986871 1_555
O42 Ru6 2.004236 1_555
O43 Ru12 1.952738 1_556
O43 Ru11 1.986871 1_555
O43 Ru7 2.004236 1_555
O44 Ru4 2.047459 1_555
O44 Ru12 2.072868 1_555
O44 Ru0 2.082573 1_555
O45 Ru5 2.047459 1_555
O45 Ru13 2.072868 1_555
O45 Ru1 2.082573 1_555
O46 Ru6 2.047459 1_555
O46 Ru14 2.072868 1_555
O46 Ru2 2.082573 1_555
O47 Ru7 2.047459 1_555
O47 Ru15 2.072868 1_555
O47 Ru3 2.082573 1_555
