# generated using pymatgen
data_Ca3(InN2)2
_symmetry_space_group_name_H-M   'P 1'
_cell_length_a   7.03817437
_cell_length_b   8.76247732
_cell_length_c   6.00696744
_cell_angle_alpha   89.99999249
_cell_angle_beta   89.72912654
_cell_angle_gamma   128.49867919
_symmetry_Int_Tables_number   1
_chemical_formula_structural   Ca3(InN2)2
_chemical_formula_sum   'Ca6 In4 N8'
_cell_volume   289.92563438
_cell_formula_units_Z   2
loop_
 _symmetry_equiv_pos_site_id
 _symmetry_equiv_pos_as_xyz
  1  'x, y, z'
loop_
 _atom_site_type_symbol
 _atom_site_label
 _atom_site_symmetry_multiplicity
 _atom_site_fract_x
 _atom_site_fract_y
 _atom_site_fract_z
 _atom_site_occupancy
  Ca  Ca0  1  0.22159600  0.97810100  0.05280300  1
  Ca  Ca1  1  0.77840400  0.75650400  0.44719700  1
  Ca  Ca2  1  0.77840400  0.02189900  0.94719700  1
  Ca  Ca3  1  0.22159600  0.24349600  0.55280300  1
  Ca  Ca4  1  0.00000000  0.61130600  0.75000000  1
  Ca  Ca5  1  0.00000000  0.38869400  0.25000000  1
  In  In0  1  0.59762000  0.17890100  0.61608100  1
  In  In1  1  0.40238000  0.58128100  0.88391900  1
  In  In2  1  0.40238000  0.82109900  0.38391900  1
  In  In3  1  0.59762000  0.41871900  0.11608100  1
  N  N0  1  0.21511500  0.94416700  0.50648600  1
  N  N1  1  0.78488500  0.72905300  0.99351400  1
  N  N2  1  0.78488500  0.05583300  0.49351400  1
  N  N3  1  0.21511500  0.27094700  0.00648600  1
  N  N4  1  0.70159400  0.25538900  0.96187600  1
  N  N5  1  0.29840600  0.55379500  0.53812400  1
  N  N6  1  0.29840600  0.74461100  0.03812400  1
  N  N7  1  0.70159400  0.44620500  0.46187600  1
loop_
_geom_bond_atom_site_label_1
_geom_bond_atom_site_label_2
_geom_bond_distance
_geom_bond_site_symmetry_2
Ca0 N6 2.421262 1_555
Ca0 N1 2.448669 1_454
Ca0 N3 2.609594 1_565
Ca0 N4 2.716260 1_564
Ca0 N0 2.738516 1_555
Ca1 N7 2.421253 1_555
Ca1 N0 2.448669 1_655
Ca1 N2 2.609611 1_565
Ca1 N5 2.716261 1_555
Ca1 N1 2.738514 1_554
Ca2 N4 2.421262 1_555
Ca2 N3 2.448669 1_656
Ca2 N1 2.609594 1_545
Ca2 N6 2.716260 1_546
Ca2 N2 2.738516 1_555
Ca3 N5 2.421253 1_555
Ca3 N2 2.448669 1_455
Ca3 N0 2.609611 1_545
Ca3 N7 2.716261 1_555
Ca3 N3 2.738514 1_556
Ca4 N7 2.398123 1_455
Ca4 N6 2.398123 1_556
Ca4 N0 2.724025 1_555
Ca4 N1 2.724032 1_455
Ca4 N4 2.752670 1_455
Ca4 N5 2.752671 1_555
Ca5 N5 2.398123 1_555
Ca5 N4 2.398123 1_454
Ca5 N2 2.724025 1_455
Ca5 N3 2.724032 1_555
Ca5 N6 2.752670 1_555
Ca5 N7 2.752671 1_455
In0 N4 2.168672 1_555
In0 N7 2.176995 1_555
In0 N0 2.243762 1_545
In0 N2 2.280890 1_555
In1 N5 2.168672 1_555
In1 N6 2.176995 1_556
In1 N1 2.243760 1_555
In1 N3 2.280896 1_556
In2 N6 2.168672 1_555
In2 N5 2.176995 1_555
In2 N2 2.243762 1_565
In2 N0 2.280890 1_555
In3 N7 2.168672 1_555
In3 N4 2.176995 1_554
In3 N3 2.243760 1_555
In3 N1 2.280896 1_554
