# generated using pymatgen
data_U2B9O22
_symmetry_space_group_name_H-M   'P 1'
_cell_length_a   6.52586654
_cell_length_b   6.58245058
_cell_length_c   11.19439494
_cell_angle_alpha   97.24870805
_cell_angle_beta   92.90679158
_cell_angle_gamma   119.67323157
_symmetry_Int_Tables_number   1
_chemical_formula_structural   U2B9O22
_chemical_formula_sum   'U2 B9 O22'
_cell_volume   410.88112666
_cell_formula_units_Z   1
loop_
 _symmetry_equiv_pos_site_id
 _symmetry_equiv_pos_as_xyz
  1  'x, y, z'
loop_
 _atom_site_type_symbol
 _atom_site_label
 _atom_site_symmetry_multiplicity
 _atom_site_fract_x
 _atom_site_fract_y
 _atom_site_fract_z
 _atom_site_occupancy
  U  U0  1  0.87316800  0.75321500  0.72578900  1
  U  U1  1  0.12760000  0.24755100  0.27416500  1
  B  B0  1  0.39354100  0.85472200  0.77872100  1
  B  B1  1  0.61465200  0.14017800  0.22840100  1
  B  B2  1  0.19735100  0.41557300  0.72443000  1
  B  B3  1  0.79857700  0.58149600  0.26799700  1
  B  B4  1  0.47333200  0.26707300  0.78825000  1
  B  B5  1  0.52837500  0.73621600  0.20734100  1
  B  B6  1  0.74855800  0.14289800  0.68260300  1
  B  B7  1  0.24648700  0.85085300  0.31676400  1
  B  B8  1  0.49258600  0.89047600  0.02438600  1
  O  O0  1  0.18331600  0.61727100  0.72622600  1
  O  O1  1  0.81521000  0.38140100  0.27166400  1
  O  O2  1  0.45392500  0.86820700  0.90335900  1
  O  O3  1  0.54562200  0.10098100  0.09839000  1
  O  O4  1  0.70420500  0.15283800  0.55493500  1
  O  O5  1  0.30211200  0.85396200  0.44470600  1
  O  O6  1  0.41784900  0.43516500  0.74198400  1
  O  O7  1  0.57945700  0.55852100  0.24391800  1
  O  O8  1  0.70707500  0.32755800  0.74618600  1
  O  O9  1  0.29322900  0.66963600  0.25736000  1
  O  O10  1  0.60375200  0.90993300  0.71496300  1
  O  O11  1  0.39634100  0.08729100  0.28603900  1
  O  O12  1  0.51597300  0.33061500  0.92050600  1
  O  O13  1  0.47935400  0.70648700  0.07708100  1
  O  O14  1  0.90221800  0.81138000  0.88767100  1
  O  O15  1  0.08557200  0.18027700  0.11263800  1
  O  O16  1  0.83790800  0.69097500  0.56383400  1
  O  O17  1  0.17246000  0.31619100  0.43664100  1
  O  O18  1  0.99537800  0.19396200  0.70804100  1
  O  O19  1  0.00283600  0.80279600  0.28760500  1
  O  O20  1  0.30223700  0.01618700  0.75317400  1
  O  O21  1  0.70274400  0.98411600  0.26123200  1
loop_
_geom_bond_atom_site_label_1
_geom_bond_atom_site_label_2
_geom_bond_distance
_geom_bond_site_symmetry_2
B0 O2 1.410045 1_555
B0 O10 1.481383 1_555
B0 O0 1.494594 1_555
B0 O20 1.500953 1_565
B1 O3 1.453045 1_555
B1 O1 1.467244 1_555
B1 O21 1.476278 1_545
B1 O11 1.491992 1_555
B2 O0 1.373078 1_555
B2 O18 1.379533 1_455
B2 O6 1.380937 1_555
B3 O7 1.369958 1_555
B3 O1 1.379494 1_555
B3 O19 1.383498 1_655
B4 O20 1.447186 1_555
B4 O12 1.459809 1_555
B4 O6 1.464867 1_555
B4 O8 1.491935 1_555
B5 O13 1.444169 1_555
B5 O7 1.462866 1_555
B5 O21 1.471399 1_555
B5 O9 1.530877 1_555
B6 O10 1.454617 1_545
B6 O4 1.459783 1_555
B6 O18 1.477075 1_555
B6 O8 1.477971 1_555
B7 O5 1.454647 1_555
B7 O9 1.462467 1_555
B7 O19 1.469055 1_555
B7 O11 1.469391 1_565
B8 O2 1.341375 1_554
B8 O13 1.379888 1_555
B8 O3 1.390140 1_565
O14 U0 1.784571 1_555
O15 U1 1.779967 1_555
O16 U0 1.784554 1_555
O17 U1 1.790421 1_555
