# generated using pymatgen
data_BaSrTbSeO6
_symmetry_space_group_name_H-M   'P 1'
_cell_length_a   5.91729750
_cell_length_b   5.91729750
_cell_length_c   5.91729750
_cell_angle_alpha   60.00000000
_cell_angle_beta   60.00000000
_cell_angle_gamma   60.00000000
_symmetry_Int_Tables_number   1
_chemical_formula_structural   BaSrTbSeO6
_chemical_formula_sum   'Ba1 Sr1 Tb1 Se1 O6'
_cell_volume   146.50593427
_cell_formula_units_Z   1
loop_
 _symmetry_equiv_pos_site_id
 _symmetry_equiv_pos_as_xyz
  1  'x, y, z'
loop_
 _atom_site_type_symbol
 _atom_site_label
 _atom_site_symmetry_multiplicity
 _atom_site_fract_x
 _atom_site_fract_y
 _atom_site_fract_z
 _atom_site_occupancy
  Ba  Ba0  1  0.75000000  0.75000000  0.75000000  1
  Sr  Sr0  1  0.25000000  0.25000000  0.25000000  1
  Tb  Tb0  1  0.50000000  0.50000000  0.50000000  1
  Se  Se0  1  0.00000000  0.00000000  0.00000000  1
  O  O0  1  0.76612693  0.23387307  0.23387307  1
  O  O1  1  0.23387307  0.76612693  0.76612693  1
  O  O2  1  0.76612693  0.23387307  0.76612693  1
  O  O3  1  0.23387307  0.76612693  0.23387307  1
  O  O4  1  0.76612693  0.76612693  0.23387307  1
  O  O5  1  0.23387307  0.23387307  0.76612693  1
loop_
_geom_bond_atom_site_label_1
_geom_bond_atom_site_label_2
_geom_bond_distance
_geom_bond_site_symmetry_2
Ba0 O0 2.961725 1_556
Ba0 O2 2.961725 1_555
Ba0 O2 2.961725 1_565
Ba0 O4 2.961725 1_555
Ba0 O1 2.961725 1_555
Ba0 O4 2.961725 1_556
Ba0 O0 2.961725 1_565
Ba0 O3 2.961725 1_655
Ba0 O5 2.961725 1_565
Ba0 O1 2.961725 1_655
Ba0 O5 2.961725 1_655
Ba0 O3 2.961725 1_556
O0 Se0 1.957125 1_655
O0 Tb0 2.227036 1_555
O0 Sr0 2.961725 1_555
O0 Sr0 2.961725 1_655
O1 Se0 1.957125 1_566
O1 Tb0 2.227036 1_555
O1 Sr0 2.961725 1_565
O1 Sr0 2.961725 1_556
O2 Se0 1.957125 1_656
O2 Tb0 2.227036 1_555
O2 Sr0 2.961725 1_556
O2 Sr0 2.961725 1_655
O3 Se0 1.957125 1_565
O3 Tb0 2.227036 1_555
O3 Sr0 2.961725 1_555
O3 Sr0 2.961725 1_565
O4 Se0 1.957125 1_665
O4 Tb0 2.227036 1_555
O4 Sr0 2.961725 1_655
O4 Sr0 2.961725 1_565
O5 Se0 1.957125 1_556
O5 Tb0 2.227036 1_555
O5 Sr0 2.961725 1_555
O5 Sr0 2.961725 1_556
