# generated using pymatgen
data_HgPPt5
_symmetry_space_group_name_H-M   'P 1'
_cell_length_a   3.93903610
_cell_length_b   3.93903610
_cell_length_c   7.20984092
_cell_angle_alpha   90.00000000
_cell_angle_beta   90.00000000
_cell_angle_gamma   90.00000000
_symmetry_Int_Tables_number   1
_chemical_formula_structural   HgPPt5
_chemical_formula_sum   'Hg1 P1 Pt5'
_cell_volume   111.86793063
_cell_formula_units_Z   1
loop_
 _symmetry_equiv_pos_site_id
 _symmetry_equiv_pos_as_xyz
  1  'x, y, z'
loop_
 _atom_site_type_symbol
 _atom_site_label
 _atom_site_symmetry_multiplicity
 _atom_site_fract_x
 _atom_site_fract_y
 _atom_site_fract_z
 _atom_site_occupancy
  Hg  Hg0  1  0.50000000  0.50000000  -0.00000000  1
  P  P0  1  -0.00000000  0.00000000  0.50000000  1
  Pt  Pt0  1  -0.00000000  0.50000000  0.30306858  1
  Pt  Pt1  1  -0.00000000  0.50000000  0.69693142  1
  Pt  Pt2  1  0.50000000  0.00000000  0.30306858  1
  Pt  Pt3  1  0.50000000  -0.00000000  0.69693142  1
  Pt  Pt4  1  -0.00000000  0.00000000  -0.00000000  1
loop_
_geom_bond_atom_site_label_1
_geom_bond_atom_site_label_2
_geom_bond_distance
_geom_bond_site_symmetry_2
Hg0 Pt4 2.785319 1_665
Hg0 Pt4 2.785319 1_555
Hg0 Pt4 2.785319 1_655
Hg0 Pt4 2.785319 1_565
Hg0 Pt2 2.941693 1_565
Hg0 Pt3 2.941693 1_554
Hg0 Pt0 2.941693 1_555
Hg0 Pt1 2.941693 1_554
Hg0 Pt0 2.941693 1_655
Hg0 Pt3 2.941693 1_564
Hg0 Pt2 2.941693 1_555
Hg0 Pt1 2.941693 1_654
P0 Pt3 2.427954 1_455
P0 Pt1 2.427954 1_545
P0 Pt0 2.427954 1_555
P0 Pt3 2.427954 1_555
P0 Pt2 2.427954 1_455
P0 Pt2 2.427954 1_555
P0 Pt1 2.427954 1_555
P0 Pt0 2.427954 1_545
Pt0 Pt2 2.785319 1_565
Pt0 Pt2 2.785319 1_455
Pt0 Pt2 2.785319 1_465
Pt0 Pt2 2.785319 1_555
Pt0 Pt1 2.839688 1_555
Pt0 Pt4 2.941693 1_555
Pt0 Pt4 2.941693 1_565
Pt1 Pt3 2.785319 1_555
Pt1 Pt3 2.785319 1_455
Pt1 Pt3 2.785319 1_565
Pt1 Pt3 2.785319 1_465
Pt1 Pt4 2.941693 1_556
Pt1 Pt4 2.941693 1_566
Pt2 Pt3 2.839688 1_555
Pt2 Pt4 2.941693 1_555
Pt2 Pt4 2.941693 1_655
Pt3 Pt4 2.941693 1_556
Pt3 Pt4 2.941693 1_656
