# generated using pymatgen
data_CuSnPd2
_symmetry_space_group_name_H-M   'P 1'
_cell_length_a   7.98070300
_cell_length_b   7.98070300
_cell_length_c   3.97443700
_cell_angle_alpha   90.00000000
_cell_angle_beta   90.00000000
_cell_angle_gamma   90.00000000
_symmetry_Int_Tables_number   1
_chemical_formula_structural   CuSnPd2
_chemical_formula_sum   'Cu4 Sn4 Pd8'
_cell_volume   253.13833261
_cell_formula_units_Z   4
loop_
 _symmetry_equiv_pos_site_id
 _symmetry_equiv_pos_as_xyz
  1  'x, y, z'
loop_
 _atom_site_type_symbol
 _atom_site_label
 _atom_site_symmetry_multiplicity
 _atom_site_fract_x
 _atom_site_fract_y
 _atom_site_fract_z
 _atom_site_occupancy
  Cu  Cu0  1  0.00000000  0.24454500  0.50000000  1
  Cu  Cu1  1  0.00000000  0.75545500  0.50000000  1
  Cu  Cu2  1  0.24454500  0.00000000  0.50000000  1
  Cu  Cu3  1  0.75545500  0.00000000  0.50000000  1
  Sn  Sn0  1  0.50000000  0.00000000  0.00000000  1
  Sn  Sn1  1  0.00000000  0.50000000  0.00000000  1
  Sn  Sn2  1  0.00000000  0.00000000  0.00000000  1
  Sn  Sn3  1  0.50000000  0.50000000  0.00000000  1
  Pd  Pd0  1  0.23966000  0.23966000  0.00000000  1
  Pd  Pd1  1  0.76034000  0.76034000  0.00000000  1
  Pd  Pd2  1  0.23966000  0.76034000  0.00000000  1
  Pd  Pd3  1  0.76034000  0.23966000  0.00000000  1
  Pd  Pd4  1  0.50000000  0.24113500  0.50000000  1
  Pd  Pd5  1  0.50000000  0.75886500  0.50000000  1
  Pd  Pd6  1  0.24113500  0.50000000  0.50000000  1
  Pd  Pd7  1  0.75886500  0.50000000  0.50000000  1
loop_
_geom_bond_atom_site_label_1
_geom_bond_atom_site_label_2
_geom_bond_distance
_geom_bond_site_symmetry_2
Cu0 Pd3 2.758407 1_456
Cu0 Pd3 2.758407 1_455
Cu0 Pd0 2.758407 1_556
Cu0 Pd0 2.758407 1_555
Cu0 Cu2 2.760037 1_555
Cu0 Cu3 2.760037 1_455
Cu0 Sn2 2.785308 1_555
Cu0 Sn2 2.785308 1_556
Cu0 Pd6 2.803526 1_555
Cu0 Pd7 2.803526 1_455
Cu0 Sn1 2.846995 1_556
Cu0 Sn1 2.846995 1_555
Cu1 Pd2 2.758407 1_556
Cu1 Pd1 2.758407 1_455
Cu1 Pd1 2.758407 1_456
Cu1 Pd2 2.758407 1_555
Cu1 Cu2 2.760037 1_565
Cu1 Cu3 2.760037 1_465
Cu1 Sn2 2.785308 1_566
Cu1 Sn2 2.785308 1_565
Cu1 Pd7 2.803526 1_455
Cu1 Pd6 2.803526 1_555
Cu1 Sn1 2.846995 1_555
Cu1 Sn1 2.846995 1_556
Cu2 Pd2 2.758407 1_546
Cu2 Pd2 2.758407 1_545
Cu2 Pd0 2.758407 1_556
Cu2 Pd0 2.758407 1_555
Cu2 Sn2 2.785308 1_555
Cu2 Sn2 2.785308 1_556
Cu2 Pd5 2.803526 1_545
Cu2 Pd4 2.803526 1_555
Cu2 Sn0 2.846995 1_555
Cu2 Sn0 2.846995 1_556
Cu3 Pd1 2.758407 1_546
Cu3 Pd3 2.758407 1_556
Cu3 Pd1 2.758407 1_545
Cu3 Pd3 2.758407 1_555
Cu3 Sn2 2.785308 1_656
Cu3 Sn2 2.785308 1_655
Cu3 Pd5 2.803526 1_545
Cu3 Pd4 2.803526 1_555
Cu3 Sn0 2.846995 1_555
Cu3 Sn0 2.846995 1_556
Pd0 Sn2 2.704903 1_555
Pd0 Sn1 2.824017 1_555
Pd0 Sn0 2.824017 1_555
Pd0 Pd6 2.875065 1_554
Pd0 Pd6 2.875065 1_555
Pd0 Pd4 2.875065 1_554
Pd0 Pd4 2.875065 1_555
Pd0 Sn3 2.938306 1_555
Pd1 Sn2 2.704903 1_665
Pd1 Sn0 2.824017 1_565
Pd1 Sn1 2.824017 1_655
Pd1 Pd5 2.875065 1_555
Pd1 Pd7 2.875065 1_554
Pd1 Pd7 2.875065 1_555
Pd1 Pd5 2.875065 1_554
Pd1 Sn3 2.938306 1_555
Pd2 Sn2 2.704903 1_565
Pd2 Sn1 2.824017 1_555
Pd2 Sn0 2.824017 1_565
Pd2 Pd6 2.875065 1_554
Pd2 Pd5 2.875065 1_555
Pd2 Pd6 2.875065 1_555
Pd2 Pd5 2.875065 1_554
Pd2 Sn3 2.938306 1_555
Pd3 Sn2 2.704903 1_655
Pd3 Sn1 2.824017 1_655
Pd3 Sn0 2.824017 1_555
Pd3 Pd7 2.875065 1_554
Pd3 Pd4 2.875065 1_554
Pd3 Pd4 2.875065 1_555
Pd3 Pd7 2.875065 1_555
Pd3 Sn3 2.938306 1_555
Pd4 Sn0 2.766307 1_555
Pd4 Sn0 2.766307 1_556
Pd4 Sn3 2.866545 1_555
Pd4 Sn3 2.866545 1_556
Pd4 Pd7 2.921659 1_555
Pd4 Pd6 2.921659 1_555
Pd5 Sn0 2.766307 1_566
Pd5 Sn0 2.766307 1_565
Pd5 Sn3 2.866545 1_555
Pd5 Sn3 2.866545 1_556
Pd5 Pd7 2.921659 1_555
Pd5 Pd6 2.921659 1_555
Pd6 Sn1 2.766307 1_556
Pd6 Sn1 2.766307 1_555
Pd6 Sn3 2.866545 1_555
Pd6 Sn3 2.866545 1_556
Pd7 Sn1 2.766307 1_656
Pd7 Sn1 2.766307 1_655
Pd7 Sn3 2.866545 1_555
Pd7 Sn3 2.866545 1_556
