# generated using pymatgen
data_Li7Mn2(CoO4)3
_symmetry_space_group_name_H-M   'P 1'
_cell_length_a   5.89960300
_cell_length_b   6.49637542
_cell_length_c   6.49732194
_cell_angle_alpha   97.15274837
_cell_angle_beta   103.37366954
_cell_angle_gamma   115.00272593
_symmetry_Int_Tables_number   1
_chemical_formula_structural   Li7Mn2(CoO4)3
_chemical_formula_sum   'Li7 Mn2 Co3 O12'
_cell_volume   212.46933446
_cell_formula_units_Z   1
loop_
 _symmetry_equiv_pos_site_id
 _symmetry_equiv_pos_as_xyz
  1  'x, y, z'
loop_
 _atom_site_type_symbol
 _atom_site_label
 _atom_site_symmetry_multiplicity
 _atom_site_fract_x
 _atom_site_fract_y
 _atom_site_fract_z
 _atom_site_occupancy
  Li  Li0  1  0.24984400  0.50080400  0.00558400  1
  Li  Li1  1  0.73392500  0.16315400  0.66729700  1
  Li  Li2  1  0.74050900  0.83677400  0.32487600  1
  Li  Li3  1  0.26163500  0.16547400  0.67183400  1
  Li  Li4  1  0.75566200  0.49818600  0.00407400  1
  Li  Li5  1  0.25508300  0.83326300  0.32855800  1
  Li  Li6  1  0.49846200  0.00249500  0.00263900  1
  Mn  Mn0  1  0.99712100  0.00343500  0.00196800  1
  Mn  Mn1  1  0.50409400  0.67081800  0.66735300  1
  Co  Co0  1  0.98477700  0.32380000  0.32988100  1
  Co  Co1  1  0.01473200  0.67105600  0.66897900  1
  Co  Co2  1  0.50029800  0.32990800  0.33267300  1
  O  O0  1  0.88930800  0.24582300  0.01411100  1
  O  O1  1  0.37449900  0.89523300  0.66280400  1
  O  O2  1  0.39049800  0.57271600  0.34974500  1
  O  O3  1  0.86038300  0.90722200  0.68124400  1
  O  O4  1  0.34629600  0.23223500  0.01673600  1
  O  O5  1  0.88861500  0.57245300  0.34688900  1
  O  O6  1  0.64140100  0.75991900  0.98019400  1
  O  O7  1  0.15803100  0.43649800  0.65712200  1
  O  O8  1  0.09710000  0.08352300  0.31469700  1
  O  O9  1  0.62473500  0.43045000  0.65179300  1
  O  O10  1  0.10711900  0.75753000  0.98153200  1
  O  O11  1  0.62587600  0.10723200  0.33742000  1
loop_
_geom_bond_atom_site_label_1
_geom_bond_atom_site_label_2
_geom_bond_distance
_geom_bond_site_symmetry_2
Li0 O4 2.055420 1_555
Li0 O0 2.090491 1_455
Li0 O2 2.112073 1_555
Li0 O7 2.144713 1_554
Li0 O10 2.169348 1_554
Li0 O6 2.270549 1_554
Li1 O11 2.027420 1_555
Li1 O1 2.089380 1_545
Li1 O3 2.093785 1_545
Li1 O9 2.097498 1_555
Li1 O0 2.129153 1_556
Li1 O7 2.401646 1_655
Li2 O8 2.059070 1_665
Li2 O2 2.112286 1_555
Li2 O6 2.115558 1_554
Li2 O11 2.131978 1_565
Li2 O3 2.185372 1_555
Li2 O5 2.236984 1_555
Li3 O7 2.099355 1_555
Li3 O1 2.123549 1_545
Li3 O4 2.125194 1_556
Li3 O9 2.153293 1_555
Li3 O8 2.196275 1_555
Li3 O3 2.271009 1_445
Li4 O6 2.087044 1_554
Li4 O10 2.099556 1_654
Li4 O0 2.099817 1_555
Li4 O5 2.100835 1_555
Li4 O9 2.161768 1_554
Li4 O4 2.329073 1_555
Li5 O1 2.051695 1_555
Li5 O10 2.130284 1_554
Li5 O11 2.140412 1_565
Li5 O5 2.152220 1_455
Li5 O2 2.161556 1_555
Li5 O8 2.190551 1_565
Li6 O4 2.044103 1_555
Li6 O11 2.049904 1_555
Li6 O1 2.082018 1_544
Li6 O6 2.082967 1_544
Li6 O10 2.138942 1_544
Li6 O0 2.152022 1_555
Mn0 O8 1.915756 1_655
Mn0 O0 1.931116 1_555
Mn0 O4 1.935670 1_655
Mn0 O10 1.963188 1_644
Mn0 O3 1.963573 1_544
Mn0 O6 1.981742 1_544
Mn1 O1 1.911376 1_555
Mn1 O6 1.916185 1_555
Mn1 O7 1.942876 1_555
Mn1 O2 1.945617 1_555
Mn1 O9 1.971950 1_555
Mn1 O3 1.983404 1_555
Co0 O5 1.924216 1_555
Co0 O0 1.936126 1_555
Co0 O8 1.936910 1_655
Co0 O11 2.003004 1_555
Co0 O7 2.018878 1_655
Co0 O2 2.212248 1_655
Co1 O10 1.918769 1_555
Co1 O5 1.971392 1_455
Co1 O1 2.017045 1_555
Co1 O7 2.032829 1_555
Co1 O3 2.091284 1_455
Co1 O9 2.132385 1_455
Co2 O11 1.883860 1_555
Co2 O4 1.940977 1_555
Co2 O2 1.942531 1_555
Co2 O9 1.953947 1_555
Co2 O5 2.134020 1_555
Co2 O8 2.200068 1_555
