# generated using pymatgen
data_LaNi3B
_symmetry_space_group_name_H-M   'P 1'
_cell_length_a   9.60383972
_cell_length_b   9.60383972
_cell_length_c   7.16055900
_cell_angle_alpha   90.00000000
_cell_angle_beta   90.00000000
_cell_angle_gamma   118.01762372
_symmetry_Int_Tables_number   1
_chemical_formula_structural   LaNi3B
_chemical_formula_sum   'La8 Ni24 B8'
_cell_volume   583.04302786
_cell_formula_units_Z   8
loop_
 _symmetry_equiv_pos_site_id
 _symmetry_equiv_pos_as_xyz
  1  'x, y, z'
loop_
 _atom_site_type_symbol
 _atom_site_label
 _atom_site_symmetry_multiplicity
 _atom_site_fract_x
 _atom_site_fract_y
 _atom_site_fract_z
 _atom_site_occupancy
  La  La0  1  0.45478500  0.02501100  0.75000000  1
  La  La1  1  0.02501100  0.45478500  0.25000000  1
  La  La2  1  0.54521500  0.97498900  0.25000000  1
  La  La3  1  0.97498900  0.54521500  0.75000000  1
  La  La4  1  0.53667100  0.46332900  0.75000000  1
  La  La5  1  0.46332900  0.53667100  0.25000000  1
  La  La6  1  0.03581800  0.96418200  0.75000000  1
  La  La7  1  0.96418200  0.03581800  0.25000000  1
  Ni  Ni0  1  0.74784800  0.00523200  0.92612600  1
  Ni  Ni1  1  0.00523200  0.74784800  0.07387400  1
  Ni  Ni2  1  0.74784800  0.00523200  0.57387400  1
  Ni  Ni3  1  0.00523200  0.74784800  0.42612600  1
  Ni  Ni4  1  0.25215200  0.99476800  0.07387400  1
  Ni  Ni5  1  0.99476800  0.25215200  0.92612600  1
  Ni  Ni6  1  0.25215200  0.99476800  0.42612600  1
  Ni  Ni7  1  0.99476800  0.25215200  0.57387400  1
  Ni  Ni8  1  0.50525200  0.74783900  0.92599900  1
  Ni  Ni9  1  0.74783900  0.50525200  0.07400100  1
  Ni  Ni10  1  0.50525200  0.74783900  0.57400100  1
  Ni  Ni11  1  0.74783900  0.50525200  0.42599900  1
  Ni  Ni12  1  0.49474800  0.25216100  0.07400100  1
  Ni  Ni13  1  0.25216100  0.49474800  0.92599900  1
  Ni  Ni14  1  0.49474800  0.25216100  0.42599900  1
  Ni  Ni15  1  0.25216100  0.49474800  0.57400100  1
  Ni  Ni16  1  0.74100100  0.25899900  0.98705700  1
  Ni  Ni17  1  0.25899900  0.74100100  0.01294300  1
  Ni  Ni18  1  0.74100100  0.25899900  0.51294300  1
  Ni  Ni19  1  0.25899900  0.74100100  0.48705700  1
  Ni  Ni20  1  0.75847900  0.75847900  0.00000000  1
  Ni  Ni21  1  0.75847900  0.75847900  0.50000000  1
  Ni  Ni22  1  0.24152100  0.24152100  0.00000000  1
  Ni  Ni23  1  0.24152100  0.24152100  0.50000000  1
  B  B0  1  0.69074200  0.82273000  0.75000000  1
  B  B1  1  0.82273000  0.69074200  0.25000000  1
  B  B2  1  0.30925800  0.17727000  0.25000000  1
  B  B3  1  0.17727000  0.30925800  0.75000000  1
  B  B4  1  0.80975800  0.19024300  0.75000000  1
  B  B5  1  0.19024200  0.80975800  0.25000000  1
  B  B6  1  0.32218400  0.67781600  0.75000000  1
  B  B7  1  0.67781600  0.32218400  0.25000000  1
loop_
_geom_bond_atom_site_label_1
_geom_bond_atom_site_label_2
_geom_bond_distance
_geom_bond_site_symmetry_2
La0 Ni4 2.952758 1_546
La0 Ni6 2.952758 1_545
La0 Ni12 3.082569 1_556
La0 Ni14 3.082569 1_555
La0 Ni16 3.111873 1_555
La0 Ni18 3.111873 1_555
La0 Ni17 3.114793 1_546
La0 Ni19 3.114793 1_545
La0 Ni2 3.170247 1_555
La0 Ni0 3.170247 1_555
La0 Ni8 3.181357 1_545
La0 Ni10 3.181357 1_545
La1 Ni7 2.952758 1_455
La1 Ni5 2.952758 1_454
La1 Ni15 3.082569 1_555
La1 Ni13 3.082569 1_554
La1 Ni19 3.111873 1_555
La1 Ni17 3.111873 1_555
La1 Ni18 3.114793 1_455
La1 Ni16 3.114793 1_454
La1 Ni3 3.170247 1_555
La1 Ni1 3.170247 1_555
La1 Ni11 3.181357 1_455
La1 Ni9 3.181357 1_455
La2 Ni0 2.952758 1_564
La2 Ni2 2.952758 1_565
La2 Ni10 3.082569 1_555
La2 Ni8 3.082569 1_554
La2 Ni19 3.111873 1_555
La2 Ni17 3.111873 1_555
La2 Ni18 3.114793 1_565
La2 Ni16 3.114793 1_564
La2 Ni4 3.170247 1_555
La2 Ni6 3.170247 1_555
La2 Ni14 3.181357 1_565
La2 Ni12 3.181357 1_565
La3 Ni1 2.952758 1_656
La3 Ni3 2.952758 1_655
La3 Ni9 3.082569 1_556
La3 Ni11 3.082569 1_555
La3 Ni16 3.111873 1_555
La3 Ni18 3.111873 1_555
La3 Ni17 3.114793 1_656
La3 Ni19 3.114793 1_655
La3 Ni7 3.170247 1_555
La3 Ni5 3.170247 1_555
La3 Ni13 3.181357 1_655
La3 Ni15 3.181357 1_655
La4 Ni9 2.981677 1_556
La4 Ni11 2.981677 1_555
La4 Ni12 2.981677 1_556
La4 Ni14 2.981677 1_555
La4 Ni8 3.149574 1_555
La4 Ni10 3.149574 1_555
La4 Ni13 3.149574 1_555
La4 Ni15 3.149574 1_555
La4 Ni21 3.178735 1_555
La4 Ni20 3.178735 1_556
La4 Ni23 3.178735 1_555
La4 Ni22 3.178735 1_556
La5 Ni10 2.981677 1_555
La5 Ni8 2.981677 1_554
La5 Ni15 2.981677 1_555
La5 Ni13 2.981677 1_554
La5 Ni11 3.149574 1_555
La5 Ni9 3.149574 1_555
La5 Ni14 3.149574 1_555
La5 Ni12 3.149574 1_555
La5 Ni20 3.178735 1_555
La5 Ni21 3.178735 1_555
La5 Ni23 3.178735 1_555
La5 Ni22 3.178735 1_555
La6 Ni3 3.034438 1_555
La6 Ni1 3.034438 1_556
La6 Ni4 3.034438 1_556
La6 Ni6 3.034438 1_555
La6 Ni20 3.042732 1_456
La6 Ni21 3.042732 1_455
La6 Ni23 3.042732 1_565
La6 Ni22 3.042732 1_566
La6 Ni0 3.227836 1_465
La6 Ni2 3.227836 1_465
La6 Ni7 3.227836 1_465
La6 Ni5 3.227836 1_465
La7 Ni2 3.034438 1_555
La7 Ni0 3.034438 1_554
La7 Ni7 3.034438 1_555
La7 Ni5 3.034438 1_554
La7 Ni21 3.042732 1_545
La7 Ni20 3.042732 1_545
La7 Ni22 3.042732 1_655
La7 Ni23 3.042732 1_655
La7 Ni3 3.227836 1_645
La7 Ni1 3.227836 1_645
La7 Ni6 3.227836 1_645
La7 Ni4 3.227836 1_645
B0 Ni0 2.015006 1_565
B0 Ni2 2.015006 1_565
B0 Ni8 2.018725 1_555
B0 Ni10 2.018725 1_555
B0 Ni21 2.094202 1_555
B0 Ni20 2.094202 1_556
B0 La6 2.932369 1_655
B0 La4 3.050403 1_555
B1 Ni3 2.015006 1_655
B1 Ni1 2.015006 1_655
B1 Ni11 2.018725 1_555
B1 Ni9 2.018725 1_555
B1 Ni20 2.094202 1_555
B1 Ni21 2.094202 1_555
B1 La7 2.932369 1_565
B1 La5 3.050403 1_555
B2 Ni6 2.015006 1_545
B2 Ni4 2.015006 1_545
B2 Ni14 2.018725 1_555
B2 Ni12 2.018725 1_555
B2 Ni22 2.094202 1_555
B2 Ni23 2.094202 1_555
B2 La7 2.932369 1_455
B2 La5 3.050403 1_555
B3 Ni7 2.015006 1_455
B3 Ni5 2.015006 1_455
B3 Ni13 2.018725 1_555
B3 Ni15 2.018725 1_555
B3 Ni23 2.094202 1_555
B3 Ni22 2.094202 1_556
B3 La6 2.932369 1_545
B3 La4 3.050403 1_555
B4 Ni7 2.026962 1_555
B4 Ni5 2.026962 1_555
B4 Ni0 2.026968 1_555
B4 Ni2 2.026968 1_555
B4 Ni16 2.040363 1_555
B4 Ni18 2.040363 1_555
B4 La3 3.009594 1_555
B4 La0 3.009603 1_555
B5 Ni1 2.026961 1_555
B5 Ni3 2.026961 1_555
B5 Ni6 2.026961 1_555
B5 Ni4 2.026961 1_555
B5 Ni19 2.040367 1_555
B5 Ni17 2.040367 1_555
B5 La1 3.009603 1_555
B5 La2 3.009603 1_555
B6 Ni8 2.005192 1_555
B6 Ni10 2.005192 1_555
B6 Ni13 2.005192 1_555
B6 Ni15 2.005192 1_555
B6 Ni17 2.151142 1_556
B6 Ni19 2.151142 1_555
B6 La3 2.958153 1_455
B6 La0 2.958153 1_565
B7 Ni11 2.005192 1_555
B7 Ni9 2.005192 1_555
B7 Ni14 2.005192 1_555
B7 Ni12 2.005192 1_555
B7 Ni18 2.151142 1_555
B7 Ni16 2.151142 1_554
B7 La2 2.958153 1_545
B7 La1 2.958153 1_655
