# generated using pymatgen
data_MgCd2
_symmetry_space_group_name_H-M   'P 1'
_cell_length_a   6.23263231
_cell_length_b   6.23263231
_cell_length_c   32.25234400
_cell_angle_alpha   90.00000000
_cell_angle_beta   90.00000000
_cell_angle_gamma   120.00000327
_symmetry_Int_Tables_number   1
_chemical_formula_structural   MgCd2
_chemical_formula_sum   'Mg16 Cd32'
_cell_volume   1085.01293049
_cell_formula_units_Z   16
loop_
 _symmetry_equiv_pos_site_id
 _symmetry_equiv_pos_as_xyz
  1  'x, y, z'
loop_
 _atom_site_type_symbol
 _atom_site_label
 _atom_site_symmetry_multiplicity
 _atom_site_fract_x
 _atom_site_fract_y
 _atom_site_fract_z
 _atom_site_occupancy
  Mg  Mg0_0  1  0.33333350  0.16666650  0.29223500  1
  Mg  Mg0_1  1  0.33333350  0.16666650  0.79223500  1
  Mg  Mg0_2  1  0.33333350  0.66666650  0.29223500  1
  Mg  Mg0_3  1  0.33333350  0.66666650  0.79223500  1
  Mg  Mg0_4  1  0.83333350  0.16666650  0.29223500  1
  Mg  Mg0_5  1  0.83333350  0.16666650  0.79223500  1
  Mg  Mg0_6  1  0.83333350  0.66666650  0.29223500  1
  Mg  Mg0_7  1  0.83333350  0.66666650  0.79223500  1
  Mg  Mg1_0  1  0.16666650  0.33333350  0.20776500  1
  Mg  Mg1_1  1  0.16666650  0.33333350  0.70776500  1
  Mg  Mg1_2  1  0.16666650  0.83333350  0.20776500  1
  Mg  Mg1_3  1  0.16666650  0.83333350  0.70776500  1
  Mg  Mg1_4  1  0.66666650  0.33333350  0.20776500  1
  Mg  Mg1_5  1  0.66666650  0.33333350  0.70776500  1
  Mg  Mg1_6  1  0.66666650  0.83333350  0.20776500  1
  Mg  Mg1_7  1  0.66666650  0.83333350  0.70776500  1
  Cd  Cd0_0  1  0.33333350  0.16666650  0.45823800  1
  Cd  Cd0_1  1  0.33333350  0.16666650  0.95823800  1
  Cd  Cd0_2  1  0.33333350  0.66666650  0.45823800  1
  Cd  Cd0_3  1  0.33333350  0.66666650  0.95823800  1
  Cd  Cd0_4  1  0.83333350  0.16666650  0.45823800  1
  Cd  Cd0_5  1  0.83333350  0.16666650  0.95823800  1
  Cd  Cd0_6  1  0.83333350  0.66666650  0.45823800  1
  Cd  Cd0_7  1  0.83333350  0.66666650  0.95823800  1
  Cd  Cd1_0  1  0.16666650  0.33333350  0.37427600  1
  Cd  Cd1_1  1  0.16666650  0.33333350  0.87427600  1
  Cd  Cd1_2  1  0.16666650  0.83333350  0.37427600  1
  Cd  Cd1_3  1  0.16666650  0.83333350  0.87427600  1
  Cd  Cd1_4  1  0.66666650  0.33333350  0.37427600  1
  Cd  Cd1_5  1  0.66666650  0.33333350  0.87427600  1
  Cd  Cd1_6  1  0.66666650  0.83333350  0.37427600  1
  Cd  Cd1_7  1  0.66666650  0.83333350  0.87427600  1
  Cd  Cd2_0  1  0.33333350  0.16666650  0.12572400  1
  Cd  Cd2_1  1  0.33333350  0.16666650  0.62572400  1
  Cd  Cd2_2  1  0.33333350  0.66666650  0.12572400  1
  Cd  Cd2_3  1  0.33333350  0.66666650  0.62572400  1
  Cd  Cd2_4  1  0.83333350  0.16666650  0.12572400  1
  Cd  Cd2_5  1  0.83333350  0.16666650  0.62572400  1
  Cd  Cd2_6  1  0.83333350  0.66666650  0.12572400  1
  Cd  Cd2_7  1  0.83333350  0.66666650  0.62572400  1
  Cd  Cd3_0  1  0.16666650  0.33333350  0.04176200  1
  Cd  Cd3_1  1  0.16666650  0.33333350  0.54176200  1
  Cd  Cd3_2  1  0.16666650  0.83333350  0.04176200  1
  Cd  Cd3_3  1  0.16666650  0.83333350  0.54176200  1
  Cd  Cd3_4  1  0.66666650  0.33333350  0.04176200  1
  Cd  Cd3_5  1  0.66666650  0.33333350  0.54176200  1
  Cd  Cd3_6  1  0.66666650  0.83333350  0.04176200  1
  Cd  Cd3_7  1  0.66666650  0.83333350  0.54176200  1
loop_
_geom_bond_atom_site_label_1
_geom_bond_atom_site_label_2
_geom_bond_distance
_geom_bond_site_symmetry_2
Mg0_0 Mg0_6 3.116316 1_445
Mg0_0 Mg0_6 3.116316 1_555
Mg0_0 Mg0_4 3.116316 1_555
Mg0_0 Mg0_2 3.116316 1_555
Mg0_0 Mg0_2 3.116316 1_545
Mg0_0 Mg0_4 3.116316 1_455
Mg0_0 Mg1_2 3.264850 1_545
Mg0_0 Mg1_4 3.264850 1_555
Mg0_0 Mg1_0 3.264853 1_555
Mg0_1 Mg0_7 3.116316 1_445
Mg0_1 Mg0_7 3.116316 1_555
Mg0_1 Mg0_5 3.116316 1_555
Mg0_1 Mg0_3 3.116316 1_545
Mg0_1 Mg0_3 3.116316 1_555
Mg0_1 Mg0_5 3.116316 1_455
Mg0_1 Mg1_5 3.264850 1_555
Mg0_1 Mg1_3 3.264850 1_545
Mg0_1 Mg1_1 3.264853 1_555
Mg0_2 Mg0_4 3.116316 1_565
Mg0_2 Mg0_4 3.116316 1_455
Mg0_2 Mg0_6 3.116316 1_455
Mg0_2 Mg0_6 3.116316 1_555
Mg0_2 Mg1_0 3.264850 1_555
Mg0_2 Mg1_6 3.264850 1_555
Mg0_2 Mg1_2 3.264853 1_555
Mg0_3 Mg0_5 3.116316 1_565
Mg0_3 Mg0_5 3.116316 1_455
Mg0_3 Mg0_7 3.116316 1_455
Mg0_3 Mg0_7 3.116316 1_555
Mg0_3 Mg1_1 3.264850 1_555
Mg0_3 Mg1_7 3.264850 1_555
Mg0_3 Mg1_3 3.264853 1_555
Mg0_4 Mg0_6 3.116316 1_555
Mg0_4 Mg0_6 3.116316 1_545
Mg0_4 Mg1_6 3.264850 1_545
Mg0_4 Mg1_0 3.264850 1_655
Mg0_4 Mg1_4 3.264853 1_555
Mg0_5 Mg0_7 3.116316 1_545
Mg0_5 Mg0_7 3.116316 1_555
Mg0_5 Mg1_7 3.264850 1_545
Mg0_5 Mg1_1 3.264850 1_655
Mg0_5 Mg1_5 3.264853 1_555
Mg0_6 Mg1_2 3.264850 1_655
Mg0_6 Mg1_4 3.264850 1_555
Mg0_6 Mg1_6 3.264853 1_555
Mg0_7 Mg1_3 3.264850 1_655
Mg0_7 Mg1_5 3.264850 1_555
Mg0_7 Mg1_7 3.264853 1_555
Mg1_0 Mg1_6 3.116316 1_445
Mg1_0 Mg1_6 3.116316 1_555
Mg1_0 Mg1_4 3.116316 1_555
Mg1_0 Mg1_4 3.116316 1_455
Mg1_0 Mg1_2 3.116316 1_545
Mg1_0 Mg1_2 3.116316 1_555
Mg1_1 Mg1_7 3.116316 1_445
Mg1_1 Mg1_7 3.116316 1_555
Mg1_1 Mg1_5 3.116316 1_555
Mg1_1 Mg1_3 3.116316 1_555
Mg1_1 Mg1_3 3.116316 1_545
Mg1_1 Mg1_5 3.116316 1_455
Mg1_2 Mg1_4 3.116316 1_565
Mg1_2 Mg1_4 3.116316 1_455
Mg1_2 Mg1_6 3.116316 1_455
Mg1_2 Mg1_6 3.116316 1_555
Mg1_3 Mg1_5 3.116316 1_565
Mg1_3 Mg1_5 3.116316 1_455
Mg1_3 Mg1_7 3.116316 1_455
Mg1_3 Mg1_7 3.116316 1_555
Mg1_4 Mg1_6 3.116316 1_555
Mg1_4 Mg1_6 3.116316 1_545
Mg1_5 Mg1_7 3.116316 1_555
Mg1_5 Mg1_7 3.116316 1_545
Cd0_0 Cd0_6 3.116316 1_445
Cd0_0 Cd0_6 3.116316 1_555
Cd0_0 Cd0_4 3.116316 1_555
Cd0_0 Cd0_2 3.116316 1_555
Cd0_0 Cd0_4 3.116316 1_455
Cd0_0 Cd0_2 3.116316 1_545
Cd0_0 Cd3_3 3.239434 1_545
Cd0_0 Cd3_5 3.239434 1_555
Cd0_0 Cd3_1 3.239437 1_555
Cd0_0 Cd1_4 3.251191 1_555
Cd0_0 Cd1_2 3.251191 1_545
Cd0_0 Cd1_0 3.251194 1_555
Cd0_1 Cd0_7 3.116316 1_445
Cd0_1 Cd0_7 3.116316 1_555
Cd0_1 Cd0_5 3.116316 1_555
Cd0_1 Cd0_3 3.116316 1_545
Cd0_1 Cd0_5 3.116316 1_455
Cd0_1 Cd0_3 3.116316 1_555
Cd0_1 Cd3_4 3.239434 1_556
Cd0_1 Cd3_2 3.239434 1_546
Cd0_1 Cd3_0 3.239437 1_556
Cd0_1 Cd1_3 3.251191 1_545
Cd0_1 Cd1_5 3.251191 1_555
Cd0_1 Cd1_1 3.251194 1_555
Cd0_2 Cd0_4 3.116316 1_565
Cd0_2 Cd0_4 3.116316 1_455
Cd0_2 Cd0_6 3.116316 1_455
Cd0_2 Cd0_6 3.116316 1_555
Cd0_2 Cd3_1 3.239434 1_555
Cd0_2 Cd3_7 3.239434 1_555
Cd0_2 Cd3_3 3.239437 1_555
Cd0_2 Cd1_0 3.251191 1_555
Cd0_2 Cd1_6 3.251191 1_555
Cd0_2 Cd1_2 3.251194 1_555
Cd0_3 Cd0_5 3.116316 1_565
Cd0_3 Cd0_5 3.116316 1_455
Cd0_3 Cd0_7 3.116316 1_455
Cd0_3 Cd0_7 3.116316 1_555
Cd0_3 Cd3_0 3.239434 1_556
Cd0_3 Cd3_6 3.239434 1_556
Cd0_3 Cd3_2 3.239437 1_556
Cd0_3 Cd1_1 3.251191 1_555
Cd0_3 Cd1_7 3.251191 1_555
Cd0_3 Cd1_3 3.251194 1_555
Cd0_4 Cd0_6 3.116316 1_545
Cd0_4 Cd0_6 3.116316 1_555
Cd0_4 Cd3_7 3.239434 1_545
Cd0_4 Cd3_1 3.239434 1_655
Cd0_4 Cd3_5 3.239437 1_555
Cd0_4 Cd1_0 3.251191 1_655
Cd0_4 Cd1_6 3.251191 1_545
Cd0_4 Cd1_4 3.251194 1_555
Cd0_5 Cd0_7 3.116316 1_555
Cd0_5 Cd0_7 3.116316 1_545
Cd0_5 Cd3_6 3.239434 1_546
Cd0_5 Cd3_0 3.239434 1_656
Cd0_5 Cd3_4 3.239437 1_556
Cd0_5 Cd1_7 3.251191 1_545
Cd0_5 Cd1_1 3.251191 1_655
Cd0_5 Cd1_5 3.251194 1_555
Cd0_6 Cd3_3 3.239434 1_655
Cd0_6 Cd3_5 3.239434 1_555
Cd0_6 Cd3_7 3.239437 1_555
Cd0_6 Cd1_2 3.251191 1_655
Cd0_6 Cd1_4 3.251191 1_555
Cd0_6 Cd1_6 3.251194 1_555
Cd0_7 Cd3_2 3.239434 1_656
Cd0_7 Cd3_4 3.239434 1_556
Cd0_7 Cd3_6 3.239437 1_556
Cd0_7 Cd1_3 3.251191 1_655
Cd0_7 Cd1_5 3.251191 1_555
Cd0_7 Cd1_7 3.251194 1_555
Cd1_0 Cd1_6 3.116316 1_445
Cd1_0 Cd1_6 3.116316 1_555
Cd1_0 Cd1_4 3.116316 1_555
Cd1_0 Cd1_4 3.116316 1_455
Cd1_0 Cd1_2 3.116316 1_555
Cd1_0 Cd1_2 3.116316 1_545
Cd1_0 Mg0_2 3.199770 1_555
Cd1_0 Mg0_4 3.199770 1_455
Cd1_0 Mg0_0 3.199773 1_555
Cd1_1 Cd1_7 3.116316 1_445
Cd1_1 Cd1_7 3.116316 1_555
Cd1_1 Cd1_5 3.116316 1_555
Cd1_1 Cd1_3 3.116316 1_555
Cd1_1 Cd1_5 3.116316 1_455
Cd1_1 Cd1_3 3.116316 1_545
Cd1_1 Mg0_3 3.199770 1_555
Cd1_1 Mg0_5 3.199770 1_455
Cd1_1 Mg0_1 3.199773 1_555
Cd1_2 Cd1_4 3.116316 1_565
Cd1_2 Cd1_4 3.116316 1_455
Cd1_2 Cd1_6 3.116316 1_455
Cd1_2 Cd1_6 3.116316 1_555
Cd1_2 Mg0_6 3.199770 1_455
Cd1_2 Mg0_0 3.199770 1_565
Cd1_2 Mg0_2 3.199773 1_555
Cd1_3 Cd1_5 3.116316 1_565
Cd1_3 Cd1_5 3.116316 1_455
Cd1_3 Cd1_7 3.116316 1_455
Cd1_3 Cd1_7 3.116316 1_555
Cd1_3 Mg0_7 3.199770 1_455
Cd1_3 Mg0_1 3.199770 1_565
Cd1_3 Mg0_3 3.199773 1_555
Cd1_4 Cd1_6 3.116316 1_555
Cd1_4 Cd1_6 3.116316 1_545
Cd1_4 Mg0_0 3.199770 1_555
Cd1_4 Mg0_6 3.199770 1_555
Cd1_4 Mg0_4 3.199773 1_555
Cd1_5 Cd1_7 3.116316 1_555
Cd1_5 Cd1_7 3.116316 1_545
Cd1_5 Mg0_1 3.199770 1_555
Cd1_5 Mg0_7 3.199770 1_555
Cd1_5 Mg0_5 3.199773 1_555
Cd1_6 Mg0_4 3.199770 1_565
Cd1_6 Mg0_2 3.199770 1_555
Cd1_6 Mg0_6 3.199773 1_555
Cd1_7 Mg0_5 3.199770 1_565
Cd1_7 Mg0_3 3.199770 1_555
Cd1_7 Mg0_7 3.199773 1_555
Cd2_0 Cd2_6 3.116316 1_445
Cd2_0 Cd2_6 3.116316 1_555
Cd2_0 Cd2_4 3.116316 1_555
Cd2_0 Cd2_2 3.116316 1_555
Cd2_0 Cd2_2 3.116316 1_545
Cd2_0 Cd2_4 3.116316 1_455
Cd2_0 Mg1_4 3.199770 1_555
Cd2_0 Mg1_2 3.199770 1_545
Cd2_0 Mg1_0 3.199773 1_555
Cd2_0 Cd3_4 3.251191 1_555
Cd2_0 Cd3_2 3.251191 1_545
Cd2_0 Cd3_0 3.251194 1_555
Cd2_1 Cd2_7 3.116316 1_445
Cd2_1 Cd2_7 3.116316 1_555
Cd2_1 Cd2_5 3.116316 1_555
Cd2_1 Cd2_5 3.116316 1_455
Cd2_1 Cd2_3 3.116316 1_545
Cd2_1 Cd2_3 3.116316 1_555
Cd2_1 Mg1_3 3.199770 1_545
Cd2_1 Mg1_5 3.199770 1_555
Cd2_1 Mg1_1 3.199773 1_555
Cd2_1 Cd3_3 3.251191 1_545
Cd2_1 Cd3_5 3.251191 1_555
Cd2_1 Cd3_1 3.251194 1_555
Cd2_2 Cd2_4 3.116316 1_565
Cd2_2 Cd2_4 3.116316 1_455
Cd2_2 Cd2_6 3.116316 1_455
Cd2_2 Cd2_6 3.116316 1_555
Cd2_2 Mg1_0 3.199770 1_555
Cd2_2 Mg1_6 3.199770 1_555
Cd2_2 Mg1_2 3.199773 1_555
Cd2_2 Cd3_0 3.251191 1_555
Cd2_2 Cd3_6 3.251191 1_555
Cd2_2 Cd3_2 3.251194 1_555
Cd2_3 Cd2_5 3.116316 1_565
Cd2_3 Cd2_5 3.116316 1_455
Cd2_3 Cd2_7 3.116316 1_455
Cd2_3 Cd2_7 3.116316 1_555
Cd2_3 Mg1_1 3.199770 1_555
Cd2_3 Mg1_7 3.199770 1_555
Cd2_3 Mg1_3 3.199773 1_555
Cd2_3 Cd3_1 3.251191 1_555
Cd2_3 Cd3_7 3.251191 1_555
Cd2_3 Cd3_3 3.251194 1_555
Cd2_4 Cd2_6 3.116316 1_545
Cd2_4 Cd2_6 3.116316 1_555
Cd2_4 Mg1_6 3.199770 1_545
Cd2_4 Mg1_0 3.199770 1_655
Cd2_4 Mg1_4 3.199773 1_555
Cd2_4 Cd3_0 3.251191 1_655
Cd2_4 Cd3_6 3.251191 1_545
Cd2_4 Cd3_4 3.251194 1_555
Cd2_5 Cd2_7 3.116316 1_545
Cd2_5 Cd2_7 3.116316 1_555
Cd2_5 Mg1_1 3.199770 1_655
Cd2_5 Mg1_7 3.199770 1_545
Cd2_5 Mg1_5 3.199773 1_555
Cd2_5 Cd3_1 3.251191 1_655
Cd2_5 Cd3_7 3.251191 1_545
Cd2_5 Cd3_5 3.251194 1_555
Cd2_6 Mg1_2 3.199770 1_655
Cd2_6 Mg1_4 3.199770 1_555
Cd2_6 Mg1_6 3.199773 1_555
Cd2_6 Cd3_4 3.251191 1_555
Cd2_6 Cd3_2 3.251191 1_655
Cd2_6 Cd3_6 3.251194 1_555
Cd2_7 Mg1_3 3.199770 1_655
Cd2_7 Mg1_5 3.199770 1_555
Cd2_7 Mg1_7 3.199773 1_555
Cd2_7 Cd3_5 3.251191 1_555
Cd2_7 Cd3_3 3.251191 1_655
Cd2_7 Cd3_7 3.251194 1_555
Cd3_0 Cd3_6 3.116316 1_445
Cd3_0 Cd3_6 3.116316 1_555
Cd3_0 Cd3_4 3.116316 1_555
Cd3_0 Cd3_4 3.116316 1_455
Cd3_0 Cd3_2 3.116316 1_545
Cd3_0 Cd3_2 3.116316 1_555
Cd3_1 Cd3_7 3.116316 1_445
Cd3_1 Cd3_7 3.116316 1_555
Cd3_1 Cd3_5 3.116316 1_555
Cd3_1 Cd3_3 3.116316 1_555
Cd3_1 Cd3_5 3.116316 1_455
Cd3_1 Cd3_3 3.116316 1_545
Cd3_2 Cd3_4 3.116316 1_565
Cd3_2 Cd3_4 3.116316 1_455
Cd3_2 Cd3_6 3.116316 1_455
Cd3_2 Cd3_6 3.116316 1_555
Cd3_3 Cd3_5 3.116316 1_565
Cd3_3 Cd3_5 3.116316 1_455
Cd3_3 Cd3_7 3.116316 1_455
Cd3_3 Cd3_7 3.116316 1_555
Cd3_4 Cd3_6 3.116316 1_555
Cd3_4 Cd3_6 3.116316 1_545
Cd3_5 Cd3_7 3.116316 1_555
Cd3_5 Cd3_7 3.116316 1_545
