# generated using pymatgen
data_MgMn9CdO10
_symmetry_space_group_name_H-M   'P 1'
_cell_length_a   5.56392702
_cell_length_b   10.66959599
_cell_length_c   5.55318756
_cell_angle_alpha   65.31588117
_cell_angle_beta   108.67913746
_cell_angle_gamma   102.79229097
_symmetry_Int_Tables_number   1
_chemical_formula_structural   MgMn9CdO10
_chemical_formula_sum   'Mg1 Mn9 Cd1 O10'
_cell_volume   282.28741622
_cell_formula_units_Z   1
loop_
 _symmetry_equiv_pos_site_id
 _symmetry_equiv_pos_as_xyz
  1  'x, y, z'
loop_
 _atom_site_type_symbol
 _atom_site_label
 _atom_site_symmetry_multiplicity
 _atom_site_fract_x
 _atom_site_fract_y
 _atom_site_fract_z
 _atom_site_occupancy
  Mg  Mg0  1  0.59419100  0.66315600  0.06293800  1
  Mn  Mn0  1  0.52423000  0.36491600  0.29115600  1
  Mn  Mn1  1  0.97540000  0.05227000  0.02427100  1
  Mn  Mn2  1  0.45577200  0.04588400  0.50939700  1
  Mn  Mn3  1  0.05534800  0.53815900  0.15086600  1
  Mn  Mn4  1  0.99286600  0.20913900  0.40250000  1
  Mn  Mn5  1  0.49694800  0.20263300  0.90529400  1
  Mn  Mn6  1  0.57513900  0.53784800  0.66990600  1
  Mn  Mn7  1  0.03968000  0.38998000  0.77417900  1
  Mn  Mn8  1  0.95691100  0.87827500  0.61797100  1
  Cd  Cd0  1  0.40194000  0.83861700  0.18811300  1
  O  O0  1  0.72148000  0.04002900  0.28558300  1
  O  O1  1  0.78096400  0.36882200  0.03188100  1
  O  O2  1  0.73230500  0.19071200  0.66234000  1
  O  O3  1  0.78835100  0.52355200  0.41071700  1
  O  O4  1  0.24827900  0.21183600  0.14577000  1
  O  O5  1  0.18435600  0.90419400  0.37463300  1
  O  O6  1  0.81347400  0.68905500  0.83168000  1
  O  O7  1  0.19781200  0.04341100  0.76152800  1
  O  O8  1  0.27363300  0.37951000  0.53238500  1
  O  O9  1  0.32187300  0.52956400  0.93832100  1
loop_
_geom_bond_atom_site_label_1
_geom_bond_atom_site_label_2
_geom_bond_distance
_geom_bond_site_symmetry_2
Mg0 O6 1.942185 1_554
Mg0 O9 2.000539 1_554
Mg0 O3 2.022139 1_555
Mn0 O3 2.162730 1_555
Mn0 O9 2.186492 1_554
Mn0 O4 2.207654 1_555
Mn0 O8 2.286828 1_555
Mn0 O2 2.295255 1_555
Mn0 O1 2.314333 1_555
Mn1 O5 2.104836 1_645
Mn1 O2 2.171335 1_554
Mn1 O4 2.194883 1_655
Mn1 O7 2.234430 1_654
Mn1 O0 2.278584 1_555
Mn2 O5 2.082332 1_545
Mn2 O2 2.163968 1_555
Mn2 O4 2.229617 1_555
Mn2 O0 2.239858 1_555
Mn2 O7 2.293608 1_555
Mn3 O6 2.143128 1_454
Mn3 O9 2.207340 1_554
Mn3 O8 2.257404 1_555
Mn3 O1 2.271813 1_455
Mn3 O3 2.322957 1_455
Mn4 O7 2.212270 1_655
Mn4 O1 2.221526 1_555
Mn4 O0 2.258580 1_555
Mn4 O2 2.280185 1_555
Mn4 O4 2.301793 1_655
Mn4 O8 2.319659 1_655
Mn5 O2 2.213595 1_555
Mn5 O4 2.249534 1_556
Mn5 O1 2.285643 1_556
Mn5 O0 2.289143 1_556
Mn5 O7 2.307189 1_555
Mn5 O8 2.349434 1_555
Mn6 O6 2.160649 1_555
Mn6 O3 2.204408 1_555
Mn6 O1 2.239799 1_556
Mn6 O8 2.292039 1_555
Mn6 O9 2.322821 1_555
Mn7 O9 2.166961 1_555
Mn7 O3 2.175425 1_455
Mn7 O8 2.195230 1_555
Mn7 O1 2.253170 1_456
Mn7 O4 2.320524 1_556
Mn7 O2 2.577446 1_455
Mn8 O6 2.003316 1_555
Mn8 O5 2.032783 1_655
Mn8 O0 2.212050 1_565
Mn8 O7 2.231463 1_665
Cd0 O5 2.193535 1_555
Cd0 O7 2.593928 1_564
Cd0 O0 2.595230 1_565
Cd0 Mg0 2.753563 1_555
