# generated using pymatgen
data_Li2VF4
_symmetry_space_group_name_H-M   'P 1'
_cell_length_a   6.36256300
_cell_length_b   10.45740700
_cell_length_c   11.44625320
_cell_angle_alpha   57.95137424
_cell_angle_beta   90.00000000
_cell_angle_gamma   90.00000000
_symmetry_Int_Tables_number   1
_chemical_formula_structural   Li2VF4
_chemical_formula_sum   'Li16 V8 F32'
_cell_volume   645.51956371
_cell_formula_units_Z   8
loop_
 _symmetry_equiv_pos_site_id
 _symmetry_equiv_pos_as_xyz
  1  'x, y, z'
loop_
 _atom_site_type_symbol
 _atom_site_label
 _atom_site_symmetry_multiplicity
 _atom_site_fract_x
 _atom_site_fract_y
 _atom_site_fract_z
 _atom_site_occupancy
  Li  Li0  1  0.46333400  0.65623100  0.92504300  1
  Li  Li1  1  0.03204000  0.84362700  0.07464600  1
  Li  Li2  1  0.96185600  0.65626300  0.92353500  1
  Li  Li3  1  0.53522000  0.84339100  0.07116500  1
  Li  Li4  1  0.03666600  0.65623100  0.42504300  1
  Li  Li5  1  0.46796000  0.84362700  0.57464600  1
  Li  Li6  1  0.53814400  0.65626300  0.42353500  1
  Li  Li7  1  0.96478000  0.84339100  0.57116500  1
  Li  Li8  1  0.03522000  0.15660900  0.42883500  1
  Li  Li9  1  0.46185600  0.34373700  0.57646500  1
  Li  Li10  1  0.53204000  0.15637300  0.42535400  1
  Li  Li11  1  0.96333400  0.34376900  0.57495700  1
  Li  Li12  1  0.46478000  0.15660900  0.92883500  1
  Li  Li13  1  0.03814400  0.34373700  0.07646500  1
  Li  Li14  1  0.96796000  0.15637300  0.92535400  1
  Li  Li15  1  0.53666600  0.34376900  0.07495700  1
  V  V0  1  0.21739600  0.99955400  0.74887900  1
  V  V1  1  0.28260400  0.99955400  0.24887900  1
  V  V2  1  0.27692500  0.50065700  0.24841900  1
  V  V3  1  0.77692500  0.49934300  0.25158100  1
  V  V4  1  0.22307500  0.50065700  0.74841900  1
  V  V5  1  0.72307500  0.49934300  0.75158100  1
  V  V6  1  0.71739600  0.00044600  0.75112100  1
  V  V7  1  0.78260400  0.00044600  0.25112100  1
  F  F0  1  0.46998800  0.99869700  0.62291000  1
  F  F1  1  0.46656300  0.00434600  0.87550900  1
  F  F2  1  0.21201500  0.76417000  0.86882600  1
  F  F3  1  0.71135100  0.76563600  0.88384900  1
  F  F4  1  0.03001200  0.99869700  0.12291000  1
  F  F5  1  0.03343700  0.00434600  0.37550900  1
  F  F6  1  0.28402900  0.73609900  0.12875400  1
  F  F7  1  0.28798500  0.76417000  0.36882600  1
  F  F8  1  0.52740000  0.49881200  0.12290200  1
  F  F9  1  0.78864900  0.76563600  0.38384900  1
  F  F10  1  0.78401000  0.73479700  0.14464200  1
  F  F11  1  0.02429900  0.50101900  0.12190600  1
  F  F12  1  0.52429900  0.49898100  0.37809400  1
  F  F13  1  0.21597100  0.73609900  0.62875400  1
  F  F14  1  0.28401000  0.26520300  0.35535800  1
  F  F15  1  0.02740000  0.50118800  0.37709800  1
  F  F16  1  0.97260000  0.49881200  0.62290200  1
  F  F17  1  0.71599000  0.73479700  0.64464200  1
  F  F18  1  0.78402900  0.26390100  0.37124600  1
  F  F19  1  0.47570100  0.50101900  0.62190600  1
  F  F20  1  0.97570100  0.49898100  0.87809400  1
  F  F21  1  0.21599000  0.26520300  0.85535800  1
  F  F22  1  0.21135100  0.23436400  0.61615100  1
  F  F23  1  0.47260000  0.50118800  0.87709800  1
  F  F24  1  0.71201500  0.23583000  0.63117400  1
  F  F25  1  0.71597100  0.26390100  0.87124600  1
  F  F26  1  0.96656300  0.99565400  0.62449100  1
  F  F27  1  0.96998800  0.00130300  0.87709000  1
  F  F28  1  0.28864900  0.23436400  0.11615100  1
  F  F29  1  0.78798500  0.23583000  0.13117400  1
  F  F30  1  0.53343700  0.99565400  0.12449100  1
  F  F31  1  0.53001200  0.00130300  0.37709000  1
loop_
_geom_bond_atom_site_label_1
_geom_bond_atom_site_label_2
_geom_bond_distance
_geom_bond_site_symmetry_2
F0 Li5 1.971242 1_555
F0 Li10 2.007735 1_565
F0 V6 2.158802 1_565
F0 V0 2.162329 1_555
F1 Li12 1.984816 1_555
F1 Li3 2.009697 1_546
F1 V6 2.153475 1_555
F1 V0 2.166512 1_545
F2 Li2 1.857125 1_455
F2 Li0 1.863929 1_555
F2 V0 2.087717 1_555
F3 Li0 1.857127 1_555
F3 Li2 1.871765 1_555
F3 V6 2.092838 1_565
F4 Li1 1.971242 1_555
F4 Li14 2.007735 1_464
F4 V7 2.158802 1_465
F4 V1 2.162329 1_555
F5 Li8 1.984816 1_555
F5 Li7 2.009697 1_445
F5 V7 2.153475 1_455
F5 V1 2.166512 1_545
F6 Li3 1.860854 1_555
F6 Li1 1.865331 1_555
F6 V2 2.088329 1_555
F7 Li6 1.857125 1_555
F7 Li4 1.863929 1_555
F7 V1 2.087717 1_555
F8 Li15 1.969193 1_555
F8 Li0 2.012092 1_554
F8 V2 2.152593 1_555
F8 V3 2.167638 1_555
F9 Li4 1.857127 1_655
F9 Li6 1.871765 1_555
F9 V7 2.092838 1_565
F10 Li1 1.860070 1_655
F10 Li3 1.867899 1_555
F10 V3 2.089105 1_555
F11 Li13 1.972675 1_555
F11 Li2 2.009225 1_454
F11 V3 2.157102 1_455
F11 V2 2.162119 1_555
F12 Li6 1.972675 1_555
F12 Li9 2.009225 1_555
F12 V2 2.157102 1_555
F12 V3 2.162119 1_555
F13 Li7 1.860854 1_455
F13 Li5 1.865331 1_555
F13 V4 2.088329 1_555
F14 Li10 1.860070 1_555
F14 Li8 1.867899 1_555
F14 V2 2.089105 1_555
F15 Li4 1.969193 1_555
F15 Li11 2.012092 1_455
F15 V3 2.152593 1_455
F15 V2 2.167638 1_555
F16 Li11 1.969193 1_555
F16 Li4 2.012092 1_655
F16 V4 2.152593 1_655
F16 V5 2.167638 1_555
F17 Li5 1.860070 1_555
F17 Li7 1.867899 1_555
F17 V5 2.089105 1_555
F18 Li8 1.860854 1_655
F18 Li10 1.865331 1_555
F18 V3 2.088329 1_555
F19 Li9 1.972675 1_555
F19 Li6 2.009225 1_555
F19 V5 2.157102 1_555
F19 V4 2.162119 1_555
F20 Li2 1.972675 1_555
F20 Li13 2.009225 1_656
F20 V4 2.157102 1_655
F20 V5 2.162119 1_555
F21 Li14 1.860070 1_455
F21 Li12 1.867899 1_555
F21 V4 2.089105 1_555
F22 Li11 1.857127 1_455
F22 Li9 1.871765 1_555
F22 V0 2.092838 1_545
F23 Li0 1.969193 1_555
F23 Li15 2.012092 1_556
F23 V5 2.152593 1_555
F23 V4 2.167638 1_555
F24 Li9 1.857125 1_555
F24 Li11 1.863929 1_555
F24 V6 2.087717 1_555
F25 Li12 1.860854 1_555
F25 Li14 1.865331 1_555
F25 V5 2.088329 1_555
F26 Li7 1.984816 1_555
F26 Li8 2.009697 1_665
F26 V0 2.153475 1_655
F26 V6 2.166512 1_565
F27 Li14 1.971242 1_555
F27 Li1 2.007735 1_646
F27 V0 2.158802 1_645
F27 V6 2.162329 1_555
F28 Li15 1.857127 1_555
F28 Li13 1.871765 1_555
F28 V1 2.092838 1_545
F29 Li13 1.857125 1_655
F29 Li15 1.863929 1_555
F29 V7 2.087717 1_555
F30 Li3 1.984816 1_555
F30 Li12 2.009697 1_564
F30 V1 2.153475 1_555
F30 V7 2.166512 1_565
F31 Li10 1.971242 1_555
F31 Li5 2.007735 1_545
F31 V1 2.158802 1_545
F31 V7 2.162329 1_555
