# generated using pymatgen
data_LiEuYO2
_symmetry_space_group_name_H-M   'P 1'
_cell_length_a   9.18647241
_cell_length_b   8.72264311
_cell_length_c   9.18647197
_cell_angle_alpha   22.27613825
_cell_angle_beta   21.20650603
_cell_angle_gamma   22.27614379
_symmetry_Int_Tables_number   1
_chemical_formula_structural   LiEuYO2
_chemical_formula_sum   'Li1 Eu1 Y1 O2'
_cell_volume   89.78067205
_cell_formula_units_Z   1
loop_
 _symmetry_equiv_pos_site_id
 _symmetry_equiv_pos_as_xyz
  1  'x, y, z'
loop_
 _atom_site_type_symbol
 _atom_site_label
 _atom_site_symmetry_multiplicity
 _atom_site_fract_x
 _atom_site_fract_y
 _atom_site_fract_z
 _atom_site_occupancy
  Li  Li0  1  0.27984400  0.66798300  0.27984400  1
  Eu  Eu0  1  0.91776100  0.03297000  0.91776100  1
  Y  Y0  1  0.56530800  0.39032300  0.56530800  1
  O  O0  1  0.24473800  0.17264300  0.24473800  1
  O  O1  1  0.87776600  0.63191400  0.87776600  1
loop_
_geom_bond_atom_site_label_1
_geom_bond_atom_site_label_2
_geom_bond_distance
_geom_bond_site_symmetry_2
Li0 O1 2.244104 1_455
Li0 O1 2.244104 1_554
Eu0 O0 2.633885 1_655
Eu0 O0 2.633886 1_556
Eu0 O0 2.783459 1_646
O0 Y0 2.319026 1_554
O0 Y0 2.319026 1_455
O0 Y0 2.386866 1_545
O1 Y0 2.305999 1_565
O1 Y0 2.308785 1_556
O1 Y0 2.308786 1_655
