# generated using pymatgen
data_CaCrP2O7
_symmetry_space_group_name_H-M   'P 1'
_cell_length_a   6.51342461
_cell_length_b   12.24900066
_cell_length_c   7.12481400
_cell_angle_alpha   99.78556744
_cell_angle_beta   84.57055439
_cell_angle_gamma   84.98906501
_symmetry_Int_Tables_number   1
_chemical_formula_structural   CaCrP2O7
_chemical_formula_sum   'Ca4 Cr4 P8 O28'
_cell_volume   554.54722967
_cell_formula_units_Z   4
loop_
 _symmetry_equiv_pos_site_id
 _symmetry_equiv_pos_as_xyz
  1  'x, y, z'
loop_
 _atom_site_type_symbol
 _atom_site_label
 _atom_site_symmetry_multiplicity
 _atom_site_fract_x
 _atom_site_fract_y
 _atom_site_fract_z
 _atom_site_occupancy
  Ca  Ca0  1  0.84736200  0.13844600  0.28501300  1
  Ca  Ca1  1  0.84750000  0.63841300  0.78497800  1
  Ca  Ca2  1  0.15270400  0.36155400  0.21504900  1
  Ca  Ca3  1  0.15245900  0.86161900  0.71505200  1
  Cr  Cr0  1  0.66528700  0.55080100  0.31245400  1
  Cr  Cr1  1  0.33478700  0.94918600  0.18771500  1
  Cr  Cr2  1  0.66472600  0.05069000  0.81254900  1
  Cr  Cr3  1  0.33465100  0.44909100  0.68778000  1
  P  P0  1  0.15958500  0.11641300  0.85700500  1
  P  P1  1  0.15993800  0.61640500  0.35701900  1
  P  P2  1  0.84046300  0.38360000  0.64299100  1
  P  P3  1  0.84027400  0.88361400  0.14295700  1
  P  P4  1  0.63573500  0.31803200  0.99421300  1
  P  P5  1  0.63567900  0.81801600  0.49420900  1
  P  P6  1  0.36427500  0.18195700  0.50581300  1
  P  P7  1  0.36425200  0.68197600  0.00561000  1
  O  O0  1  0.77748200  0.30244300  0.78772100  1
  O  O1  1  0.77748300  0.80245800  0.28773500  1
  O  O2  1  0.22245400  0.19758700  0.71225500  1
  O  O3  1  0.22263100  0.69761000  0.21223000  1
  O  O4  1  0.98749600  0.04800000  0.77969000  1
  O  O5  1  0.98801500  0.54796400  0.27969400  1
  O  O6  1  0.01245600  0.45200900  0.72042000  1
  O  O7  1  0.01224600  0.95205100  0.22030800  1
  O  O8  1  0.58221400  0.13387700  0.53022800  1
  O  O9  1  0.58224500  0.63395500  0.03010800  1
  O  O10  1  0.41774500  0.36615700  0.96977100  1
  O  O11  1  0.41759400  0.86610200  0.46979800  1
  O  O12  1  0.35608600  0.30319000  0.46916800  1
  O  O13  1  0.35607100  0.80325400  0.96917200  1
  O  O14  1  0.64385300  0.19677300  0.03082300  1
  O  O15  1  0.64409300  0.69677000  0.53075100  1
  O  O16  1  0.91159500  0.30812100  0.45197500  1
  O  O17  1  0.91150000  0.80812100  0.95197000  1
  O  O18  1  0.08841400  0.19189900  0.04795700  1
  O  O19  1  0.08857300  0.69190200  0.54800100  1
  O  O20  1  0.65246700  0.46937300  0.64063300  1
  O  O21  1  0.65225800  0.96937200  0.14055500  1
  O  O22  1  0.34751800  0.03063400  0.85940300  1
  O  O23  1  0.34795800  0.53066800  0.35939300  1
  O  O24  1  0.25515300  0.10685900  0.36125000  1
  O  O25  1  0.25523700  0.60676800  0.86120500  1
  O  O26  1  0.74484400  0.39315000  0.13867400  1
  O  O27  1  0.74464200  0.89311900  0.63870300  1
loop_
_geom_bond_atom_site_label_1
_geom_bond_atom_site_label_2
_geom_bond_distance
_geom_bond_site_symmetry_2
Ca0 O16 2.305501 1_555
Ca0 O8 2.348885 1_555
Ca0 O7 2.387232 1_645
Ca0 O18 2.408347 1_655
Ca0 O14 2.505215 1_555
Ca0 O21 2.635517 1_545
Ca0 O24 2.768506 1_655
Ca1 O17 2.305449 1_555
Ca1 O9 2.348648 1_556
Ca1 O6 2.387506 1_655
Ca1 O19 2.408242 1_655
Ca1 O15 2.505184 1_555
Ca1 O20 2.634685 1_555
Ca1 O25 2.768207 1_655
Ca2 O18 2.305765 1_555
Ca2 O10 2.348814 1_554
Ca2 O5 2.386958 1_455
Ca2 O16 2.407828 1_455
Ca2 O12 2.504490 1_555
Ca2 O23 2.636219 1_555
Ca2 O26 2.769255 1_455
Ca3 O19 2.305471 1_555
Ca3 O11 2.348792 1_555
Ca3 O4 2.387265 1_465
Ca3 O17 2.407550 1_455
Ca3 O13 2.505358 1_555
Ca3 O22 2.634564 1_565
Ca3 O27 2.768822 1_455
Cr0 O5 2.089497 1_555
Cr0 O26 2.102759 1_555
Cr0 O23 2.104994 1_555
Cr0 O15 2.146139 1_555
Cr0 O9 2.486556 1_555
Cr0 O20 2.690614 1_555
Cr1 O7 2.088239 1_555
Cr1 O24 2.102315 1_565
Cr1 O21 2.106183 1_555
Cr1 O13 2.146787 1_554
Cr1 O11 2.484023 1_555
Cr1 O22 2.691633 1_564
Cr2 O4 2.089942 1_555
Cr2 O27 2.102431 1_545
Cr2 O22 2.103955 1_555
Cr2 O14 2.147190 1_556
Cr2 O8 2.485720 1_555
Cr2 O21 2.688811 1_546
Cr3 O6 2.085945 1_555
Cr3 O25 2.101876 1_555
Cr3 O20 2.108641 1_555
Cr3 O12 2.146729 1_555
Cr3 O10 2.482947 1_555
Cr3 O23 2.692885 1_555
O0 P2 1.599831 1_555
O0 P4 1.634016 1_555
O1 P3 1.599761 1_555
O1 P5 1.634117 1_555
O2 P0 1.599909 1_555
O2 P6 1.633905 1_555
O3 P1 1.600112 1_555
O3 P7 1.634338 1_555
O4 P0 1.544695 1_655
O5 P1 1.544033 1_655
O6 P2 1.544434 1_455
O7 P3 1.544326 1_455
O8 P6 1.525671 1_555
O9 P7 1.525915 1_555
O10 P4 1.526203 1_555
O11 P5 1.526551 1_555
O12 P6 1.548153 1_555
O13 P7 1.548204 1_556
O14 P4 1.548399 1_554
O15 P5 1.548016 1_555
O16 P2 1.516498 1_555
O17 P3 1.516517 1_556
O18 P0 1.516229 1_554
O19 P1 1.516663 1_555
O20 P2 1.545529 1_555
O21 P3 1.545575 1_555
O22 P0 1.545330 1_555
O23 P1 1.545397 1_555
O24 P6 1.530655 1_555
O25 P7 1.530270 1_556
O26 P4 1.530289 1_554
O27 P5 1.529784 1_555
