# generated using pymatgen
data_KLiMg30O31
_symmetry_space_group_name_H-M   'P 1'
_cell_length_a   8.63580800
_cell_length_b   8.63580800
_cell_length_c   8.46674000
_cell_angle_alpha   90.00000000
_cell_angle_beta   90.00000000
_cell_angle_gamma   90.00000000
_symmetry_Int_Tables_number   1
_chemical_formula_structural   KLiMg30O31
_chemical_formula_sum   'K1 Li1 Mg30 O31'
_cell_volume   631.42559141
_cell_formula_units_Z   1
loop_
 _symmetry_equiv_pos_site_id
 _symmetry_equiv_pos_as_xyz
  1  'x, y, z'
loop_
 _atom_site_type_symbol
 _atom_site_label
 _atom_site_symmetry_multiplicity
 _atom_site_fract_x
 _atom_site_fract_y
 _atom_site_fract_z
 _atom_site_occupancy
  K  K0  1  0.00000000  0.00000000  0.05575200  1
  Li  Li0  1  0.50000000  0.50000000  0.99633500  1
  Mg  Mg0  1  0.50000000  0.00000000  0.99231800  1
  Mg  Mg1  1  0.00000000  0.50000000  0.99231800  1
  Mg  Mg2  1  0.00000000  0.00000000  0.52032100  1
  Mg  Mg3  1  0.50000000  0.00000000  0.50365400  1
  Mg  Mg4  1  0.00000000  0.50000000  0.50365400  1
  Mg  Mg5  1  0.50000000  0.50000000  0.50029800  1
  Mg  Mg6  1  0.25511800  0.25511800  0.99733400  1
  Mg  Mg7  1  0.74488200  0.25511800  0.99733400  1
  Mg  Mg8  1  0.25511800  0.74488200  0.99733400  1
  Mg  Mg9  1  0.74488200  0.74488200  0.99733400  1
  Mg  Mg10  1  0.24933400  0.24933400  0.49939100  1
  Mg  Mg11  1  0.75066600  0.24933400  0.49939100  1
  Mg  Mg12  1  0.24933400  0.75066600  0.49939100  1
  Mg  Mg13  1  0.75066600  0.75066600  0.49939100  1
  Mg  Mg14  1  0.27785300  0.00000000  0.24733800  1
  Mg  Mg15  1  0.72214700  0.00000000  0.24733800  1
  Mg  Mg16  1  0.25668000  0.50000000  0.24492700  1
  Mg  Mg17  1  0.74332000  0.50000000  0.24492700  1
  Mg  Mg18  1  0.24868100  0.00000000  0.75700600  1
  Mg  Mg19  1  0.75131900  0.00000000  0.75700600  1
  Mg  Mg20  1  0.25415400  0.50000000  0.75207500  1
  Mg  Mg21  1  0.74584600  0.50000000  0.75207500  1
  Mg  Mg22  1  0.00000000  0.27785300  0.24733800  1
  Mg  Mg23  1  0.50000000  0.25668000  0.24492700  1
  Mg  Mg24  1  0.00000000  0.72214700  0.24733800  1
  Mg  Mg25  1  0.50000000  0.74332000  0.24492700  1
  Mg  Mg26  1  0.00000000  0.24868100  0.75700600  1
  Mg  Mg27  1  0.50000000  0.25415400  0.75207500  1
  Mg  Mg28  1  0.00000000  0.75131900  0.75700600  1
  Mg  Mg29  1  0.50000000  0.74584600  0.75207500  1
  O  O0  1  0.50000000  0.00000000  0.25708800  1
  O  O1  1  0.00000000  0.50000000  0.25708800  1
  O  O2  1  0.50000000  0.50000000  0.25664800  1
  O  O3  1  0.00000000  0.00000000  0.75030800  1
  O  O4  1  0.50000000  0.00000000  0.74307200  1
  O  O5  1  0.00000000  0.50000000  0.74307200  1
  O  O6  1  0.50000000  0.50000000  0.74124800  1
  O  O7  1  0.24256500  0.24256500  0.24808400  1
  O  O8  1  0.75743500  0.24256500  0.24808400  1
  O  O9  1  0.24256500  0.75743500  0.24808400  1
  O  O10  1  0.75743500  0.75743500  0.24808400  1
  O  O11  1  0.24904400  0.24904400  0.74772100  1
  O  O12  1  0.75095600  0.24904400  0.74772100  1
  O  O13  1  0.24904400  0.75095600  0.74772100  1
  O  O14  1  0.75095600  0.75095600  0.74772100  1
  O  O15  1  0.27026400  0.00000000  0.00198600  1
  O  O16  1  0.72973600  0.00000000  0.00198600  1
  O  O17  1  0.24669100  0.50000000  0.00056800  1
  O  O18  1  0.75330900  0.50000000  0.00056800  1
  O  O19  1  0.24234500  0.00000000  0.49159800  1
  O  O20  1  0.75765500  0.00000000  0.49159800  1
  O  O21  1  0.24799600  0.50000000  0.49617800  1
  O  O22  1  0.75200400  0.50000000  0.49617800  1
  O  O23  1  0.00000000  0.27026400  0.00198600  1
  O  O24  1  0.50000000  0.24669100  0.00056800  1
  O  O25  1  0.00000000  0.72973600  0.00198600  1
  O  O26  1  0.50000000  0.75330900  0.00056800  1
  O  O27  1  0.00000000  0.24234500  0.49159800  1
  O  O28  1  0.50000000  0.24799600  0.49617800  1
  O  O29  1  0.00000000  0.75765500  0.49159800  1
  O  O30  1  0.50000000  0.75200400  0.49617800  1
loop_
_geom_bond_atom_site_label_1
_geom_bond_atom_site_label_2
_geom_bond_distance
_geom_bond_site_symmetry_2
K0 O25 2.377928 1_545
K0 O16 2.377928 1_455
K0 O15 2.377928 1_555
K0 O23 2.377928 1_555
K0 O3 2.586115 1_554
Li0 O6 2.159755 1_555
Li0 O17 2.187821 1_556
Li0 O18 2.187821 1_556
Li0 O24 2.187821 1_556
Li0 O26 2.187821 1_556
Li0 O2 2.204002 1_556
Mg0 O15 1.985644 1_556
Mg0 O16 1.985644 1_556
Mg0 O4 2.110301 1_555
Mg0 O24 2.131521 1_556
Mg0 O26 2.131521 1_546
Mg0 O0 2.241739 1_556
Mg1 O23 1.985644 1_556
Mg1 O25 1.985644 1_556
Mg1 O5 2.110301 1_555
Mg1 O17 2.131521 1_556
Mg1 O18 2.131521 1_456
Mg1 O1 2.241739 1_556
Mg2 O3 1.947240 1_555
Mg2 O29 2.106927 1_545
Mg2 O20 2.106927 1_455
Mg2 O27 2.106927 1_555
Mg2 O19 2.106927 1_555
Mg3 O4 2.027090 1_555
Mg3 O0 2.087610 1_555
Mg3 O28 2.142581 1_555
Mg3 O30 2.142581 1_545
Mg3 O20 2.227399 1_555
Mg3 O19 2.227399 1_555
Mg4 O5 2.027090 1_555
Mg4 O1 2.087610 1_555
Mg4 O21 2.142581 1_555
Mg4 O22 2.142581 1_455
Mg4 O27 2.227399 1_555
Mg4 O29 2.227399 1_555
Mg5 O6 2.040061 1_555
Mg5 O2 2.062921 1_555
Mg5 O22 2.176538 1_555
Mg5 O21 2.176538 1_555
Mg5 O30 2.176538 1_555
Mg5 O28 2.176538 1_555
Mg6 O11 2.114710 1_555
Mg6 O17 2.116183 1_556
Mg6 O24 2.116183 1_556
Mg6 O7 2.128563 1_556
Mg6 O15 2.207381 1_556
Mg6 O23 2.207381 1_556
Mg7 O12 2.114710 1_555
Mg7 O18 2.116183 1_556
Mg7 O24 2.116183 1_556
Mg7 O8 2.128563 1_556
Mg7 O23 2.207381 1_656
Mg7 O16 2.207381 1_556
Mg8 O13 2.114710 1_555
Mg8 O26 2.116183 1_556
Mg8 O17 2.116183 1_556
Mg8 O9 2.128563 1_556
Mg8 O15 2.207381 1_566
Mg8 O25 2.207381 1_556
Mg9 O14 2.114710 1_555
Mg9 O26 2.116183 1_556
Mg9 O18 2.116183 1_556
Mg9 O10 2.128563 1_556
Mg9 O16 2.207381 1_566
Mg9 O25 2.207381 1_656
Mg10 O11 2.102549 1_555
Mg10 O7 2.129356 1_555
Mg10 O27 2.155057 1_555
Mg10 O19 2.155057 1_555
Mg10 O21 2.164905 1_555
Mg10 O28 2.164905 1_555
Mg11 O12 2.102549 1_555
Mg11 O8 2.129356 1_555
Mg11 O27 2.155057 1_655
Mg11 O20 2.155057 1_555
Mg11 O22 2.164905 1_555
Mg11 O28 2.164905 1_555
Mg12 O13 2.102549 1_555
Mg12 O9 2.129356 1_555
Mg12 O19 2.155057 1_565
Mg12 O29 2.155057 1_555
Mg12 O30 2.164905 1_555
Mg12 O21 2.164905 1_555
Mg13 O14 2.102549 1_555
Mg13 O10 2.129356 1_555
Mg13 O20 2.155057 1_565
Mg13 O29 2.155057 1_655
Mg13 O22 2.164905 1_555
Mg13 O30 2.164905 1_555
Mg14 O0 1.920194 1_555
Mg14 O15 2.078365 1_555
Mg14 O19 2.090695 1_555
Mg14 O7 2.116805 1_555
Mg14 O9 2.116805 1_545
Mg15 O0 1.920194 1_555
Mg15 O16 2.078365 1_555
Mg15 O20 2.090695 1_555
Mg15 O8 2.116805 1_555
Mg15 O10 2.116805 1_545
Mg16 O17 2.070722 1_555
Mg16 O2 2.103607 1_555
Mg16 O21 2.128598 1_555
Mg16 O1 2.219029 1_555
Mg16 O9 2.226659 1_555
Mg16 O7 2.226659 1_555
Mg17 O18 2.070722 1_555
Mg17 O2 2.103607 1_555
Mg17 O22 2.128598 1_555
Mg17 O1 2.219029 1_655
Mg17 O8 2.226659 1_555
Mg17 O10 2.226659 1_555
Mg18 O15 2.082540 1_556
Mg18 O3 2.148310 1_555
Mg18 O11 2.152135 1_555
Mg18 O13 2.152135 1_545
Mg18 O4 2.173547 1_555
Mg18 O19 2.247807 1_555
Mg19 O16 2.082540 1_556
Mg19 O3 2.148310 1_655
Mg19 O12 2.152135 1_555
Mg19 O14 2.152135 1_545
Mg19 O4 2.173547 1_555
Mg19 O20 2.247807 1_555
Mg20 O17 2.104913 1_556
Mg20 O6 2.125057 1_555
Mg20 O21 2.167266 1_555
Mg20 O13 2.167971 1_555
Mg20 O11 2.167971 1_555
Mg20 O5 2.196148 1_555
Mg21 O18 2.104913 1_556
Mg21 O6 2.125057 1_555
Mg21 O22 2.167266 1_555
Mg21 O14 2.167971 1_555
Mg21 O12 2.167971 1_555
Mg21 O5 2.196148 1_655
Mg22 O1 1.920194 1_555
Mg22 O23 2.078365 1_555
Mg22 O27 2.090695 1_555
Mg22 O7 2.116805 1_555
Mg22 O8 2.116805 1_455
Mg23 O24 2.070722 1_555
Mg23 O2 2.103607 1_555
Mg23 O28 2.128598 1_555
Mg23 O0 2.219029 1_555
Mg23 O8 2.226659 1_555
Mg23 O7 2.226659 1_555
Mg24 O1 1.920194 1_555
Mg24 O25 2.078365 1_555
Mg24 O29 2.090695 1_555
Mg24 O10 2.116805 1_455
Mg24 O9 2.116805 1_555
Mg25 O26 2.070722 1_555
Mg25 O2 2.103607 1_555
Mg25 O30 2.128598 1_555
Mg25 O0 2.219029 1_565
Mg25 O9 2.226659 1_555
Mg25 O10 2.226659 1_555
Mg26 O23 2.082540 1_556
Mg26 O3 2.148310 1_555
Mg26 O11 2.152135 1_555
Mg26 O12 2.152135 1_455
Mg26 O5 2.173547 1_555
Mg26 O27 2.247807 1_555
Mg27 O24 2.104913 1_556
Mg27 O6 2.125057 1_555
Mg27 O28 2.167266 1_555
Mg27 O12 2.167971 1_555
Mg27 O11 2.167971 1_555
Mg27 O4 2.196148 1_555
Mg28 O25 2.082540 1_556
Mg28 O3 2.148310 1_565
Mg28 O13 2.152135 1_555
Mg28 O14 2.152135 1_455
Mg28 O5 2.173547 1_555
Mg28 O29 2.247807 1_555
Mg29 O26 2.104913 1_556
Mg29 O6 2.125057 1_555
Mg29 O30 2.167266 1_555
Mg29 O14 2.167971 1_555
Mg29 O13 2.167971 1_555
Mg29 O4 2.196148 1_565
