# generated using pymatgen
data_ZnSbF5
_symmetry_space_group_name_H-M   'P 1'
_cell_length_a   10.39248100
_cell_length_b   5.74208500
_cell_length_c   8.48467073
_cell_angle_alpha   61.20282267
_cell_angle_beta   90.00000000
_cell_angle_gamma   90.00000000
_symmetry_Int_Tables_number   1
_chemical_formula_structural   ZnSbF5
_chemical_formula_sum   'Zn4 Sb4 F20'
_cell_volume   443.70235431
_cell_formula_units_Z   4
loop_
 _symmetry_equiv_pos_site_id
 _symmetry_equiv_pos_as_xyz
  1  'x, y, z'
loop_
 _atom_site_type_symbol
 _atom_site_label
 _atom_site_symmetry_multiplicity
 _atom_site_fract_x
 _atom_site_fract_y
 _atom_site_fract_z
 _atom_site_occupancy
  Zn  Zn0  1  0.99083200  0.47344400  0.78785500  1
  Zn  Zn1  1  0.49083200  0.52655600  0.71214500  1
  Zn  Zn2  1  0.00916800  0.52655600  0.21214500  1
  Zn  Zn3  1  0.50916800  0.47344400  0.28785500  1
  Sb  Sb0  1  0.76119600  0.06395300  0.65694500  1
  Sb  Sb1  1  0.26119600  0.93604700  0.84305500  1
  Sb  Sb2  1  0.23880400  0.93604700  0.34305500  1
  Sb  Sb3  1  0.73880400  0.06395300  0.15694500  1
  F  F0  1  0.88987000  0.37604800  0.62624500  1
  F  F1  1  0.38987000  0.62395200  0.87375500  1
  F  F2  1  0.11013000  0.62395200  0.37375500  1
  F  F3  1  0.61013000  0.37604800  0.12624500  1
  F  F4  1  0.61117700  0.35185000  0.52249200  1
  F  F5  1  0.11117700  0.64815000  0.97750800  1
  F  F6  1  0.38882300  0.64815000  0.47750800  1
  F  F7  1  0.88882300  0.35185000  0.02249200  1
  F  F8  1  0.43362100  0.16387200  0.81005700  1
  F  F9  1  0.93362100  0.83612800  0.68994300  1
  F  F10  1  0.56637900  0.83612800  0.18994300  1
  F  F11  1  0.06637900  0.16387200  0.31005700  1
  F  F12  1  0.13024000  0.21966000  0.87775000  1
  F  F13  1  0.63024000  0.78034000  0.62225000  1
  F  F14  1  0.86976000  0.78034000  0.12225000  1
  F  F15  1  0.36976000  0.21966000  0.37775000  1
  F  F16  1  0.69129500  0.20127900  0.89806200  1
  F  F17  1  0.19129500  0.79872100  0.60193800  1
  F  F18  1  0.30870500  0.79872100  0.10193800  1
  F  F19  1  0.80870500  0.20127900  0.39806200  1
loop_
_geom_bond_atom_site_label_1
_geom_bond_atom_site_label_2
_geom_bond_distance
_geom_bond_site_symmetry_2
F0 Zn0 2.008158 1_555
F0 Sb0 2.148925 1_555
F1 Zn1 2.008158 1_555
F1 Sb1 2.148925 1_555
F2 Zn2 2.008158 1_555
F2 Sb2 2.148925 1_555
F3 Zn3 2.008158 1_555
F3 Sb3 2.148925 1_555
F4 Zn3 2.058048 1_555
F4 Sb0 2.155933 1_555
F5 Zn2 2.058048 1_556
F5 Sb1 2.155933 1_555
F6 Zn1 2.058048 1_555
F6 Sb2 2.155933 1_555
F7 Zn0 2.058048 1_554
F7 Sb3 2.155933 1_555
F8 Zn1 1.927152 1_555
F8 Sb1 2.155893 1_545
F9 Zn0 1.927152 1_555
F9 Sb0 2.155893 1_565
F10 Zn3 1.927152 1_555
F10 Sb3 2.155893 1_565
F11 Zn2 1.927152 1_555
F11 Sb2 2.155893 1_545
F12 Zn0 1.932229 1_455
F12 Sb1 2.247852 1_545
F13 Zn1 1.932229 1_555
F13 Sb0 2.247852 1_565
F14 Zn2 1.932229 1_655
F14 Sb3 2.247852 1_565
F15 Zn3 1.932229 1_555
F15 Sb2 2.247852 1_545
F16 Sb3 2.005404 1_556
F16 Sb0 2.624688 1_555
F17 Sb2 2.005404 1_555
F17 Sb1 2.624688 1_555
F18 Sb1 2.005404 1_554
F18 Sb2 2.624688 1_555
F19 Sb0 2.005404 1_555
F19 Sb3 2.624688 1_555
