# generated using pymatgen
data_Zn2Sn9O13
_symmetry_space_group_name_H-M   'P 1'
_cell_length_a   3.18860000
_cell_length_b   7.89687269
_cell_length_c   16.03339274
_cell_angle_alpha   101.04130087
_cell_angle_beta   95.38287656
_cell_angle_gamma   101.48913687
_symmetry_Int_Tables_number   1
_chemical_formula_structural   Zn2Sn9O13
_chemical_formula_sum   'Zn2 Sn9 O13'
_cell_volume   384.63557914
_cell_formula_units_Z   1
loop_
 _symmetry_equiv_pos_site_id
 _symmetry_equiv_pos_as_xyz
  1  'x, y, z'
loop_
 _atom_site_type_symbol
 _atom_site_label
 _atom_site_symmetry_multiplicity
 _atom_site_fract_x
 _atom_site_fract_y
 _atom_site_fract_z
 _atom_site_occupancy
  Zn  Zn0  1  0.08270300  0.43774800  0.74483200  1
  Zn  Zn1  1  0.91729700  0.56225200  0.25516800  1
  Sn  Sn0  1  0.00000000  0.50000000  0.50000000  1
  Sn  Sn1  1  0.56646800  0.22309400  0.90485600  1
  Sn  Sn2  1  0.43353200  0.77690600  0.09514400  1
  Sn  Sn3  1  0.37126300  0.14809300  0.60094700  1
  Sn  Sn4  1  0.62873700  0.85190700  0.39905300  1
  Sn  Sn5  1  0.85057200  0.79924500  0.89600600  1
  Sn  Sn6  1  0.14942800  0.20075500  0.10399400  1
  Sn  Sn7  1  0.75146100  0.82497400  0.68964500  1
  Sn  Sn8  1  0.24853900  0.17502600  0.31035500  1
  O  O0  1  0.00000000  0.00000000  0.00000000  1
  O  O1  1  0.70553100  0.62931200  0.77221000  1
  O  O2  1  0.29446900  0.37068800  0.22779000  1
  O  O3  1  0.31312200  0.67693900  0.94488900  1
  O  O4  1  0.68687800  0.32306100  0.05511100  1
  O  O5  1  0.39912100  0.93958800  0.84844700  1
  O  O6  1  0.60087900  0.06041200  0.15155300  1
  O  O7  1  0.49010300  0.27208200  0.73052800  1
  O  O8  1  0.50989700  0.72791800  0.26947200  1
  O  O9  1  0.95522400  0.33101100  0.58705600  1
  O  O10  1  0.04477600  0.66898900  0.41294400  1
  O  O11  1  0.59980000  0.63658600  0.56889400  1
  O  O12  1  0.40020000  0.36341400  0.43110600  1
loop_
_geom_bond_atom_site_label_1
_geom_bond_atom_site_label_2
_geom_bond_distance
_geom_bond_site_symmetry_2
O0 Sn6 2.014448 1_555
O0 Sn5 2.014448 1_444
O1 Zn0 2.120599 1_655
O1 Sn5 2.124782 1_555
O1 Zn0 2.193266 1_555
O1 Sn7 2.211554 1_555
O2 Zn1 2.120599 1_455
O2 Sn6 2.124782 1_555
O2 Zn1 2.193266 1_555
O2 Sn8 2.211554 1_555
O3 Sn5 2.088766 1_455
O3 Sn5 2.089623 1_555
O3 Sn2 2.356187 1_556
O4 Sn6 2.088766 1_655
O4 Sn6 2.089623 1_555
O4 Sn1 2.356187 1_554
O5 Sn5 2.152941 1_555
O5 Sn5 2.161203 1_455
O5 Sn1 2.184712 1_565
O6 Sn6 2.152941 1_555
O6 Sn6 2.161203 1_655
O6 Sn2 2.184712 1_545
O7 Zn0 2.017317 1_555
O7 Zn0 2.038029 1_655
O7 Sn3 2.084249 1_555
O8 Zn1 2.017317 1_555
O8 Zn1 2.038029 1_455
O8 Sn4 2.084249 1_555
O9 Sn0 2.103439 1_655
O9 Sn3 2.174188 1_655
O9 Sn3 2.175503 1_555
O9 Zn0 2.475654 1_655
O10 Sn0 2.103439 1_555
O10 Sn4 2.174188 1_455
O10 Sn4 2.175503 1_555
O10 Zn1 2.475654 1_455
O11 Sn0 2.089686 1_555
O11 Sn0 2.090052 1_655
O11 Sn7 2.151709 1_555
O12 Sn0 2.089686 1_655
O12 Sn0 2.090052 1_555
O12 Sn8 2.151709 1_555
