# generated using pymatgen
data_YAlFe
_symmetry_space_group_name_H-M   'P 1'
_cell_length_a   5.40634457
_cell_length_b   5.39503609
_cell_length_c   8.59008200
_cell_angle_alpha   90.00000000
_cell_angle_beta   90.00000000
_cell_angle_gamma   119.92705210
_symmetry_Int_Tables_number   1
_chemical_formula_structural   YAlFe
_chemical_formula_sum   'Y4 Al4 Fe4'
_cell_volume   217.14247593
_cell_formula_units_Z   4
loop_
 _symmetry_equiv_pos_site_id
 _symmetry_equiv_pos_as_xyz
  1  'x, y, z'
loop_
 _atom_site_type_symbol
 _atom_site_label
 _atom_site_symmetry_multiplicity
 _atom_site_fract_x
 _atom_site_fract_y
 _atom_site_fract_z
 _atom_site_occupancy
  Y  Y0  1  0.66484500  0.33239500  0.56474500  1
  Y  Y1  1  0.32615900  0.66306400  0.44847300  1
  Y  Y2  1  0.32615900  0.66306400  0.05152700  1
  Y  Y3  1  0.66484500  0.33239500  0.93525500  1
  Al  Al0  1  0.67302700  0.83651500  0.75000000  1
  Al  Al1  1  0.83687300  0.67458400  0.25000000  1
  Al  Al2  1  0.83682700  0.16222100  0.25000000  1
  Al  Al3  1  0.32793200  0.16393400  0.25000000  1
  Fe  Fe0  1  0.01505000  0.00762900  0.51258300  1
  Fe  Fe1  1  0.01505000  0.00762900  0.98741700  1
  Fe  Fe2  1  0.15664000  0.32273400  0.75000000  1
  Fe  Fe3  1  0.15659100  0.83383800  0.75000000  1
loop_
_geom_bond_atom_site_label_1
_geom_bond_atom_site_label_2
_geom_bond_distance
_geom_bond_site_symmetry_2
Y0 Y3 3.182711 1_555
Y0 Y1 3.255563 1_655
Y0 Y1 3.285152 1_555
Y0 Y1 3.285217 1_545
Y2 Y3 3.255563 1_454
Y2 Y3 3.285152 1_554
Y2 Y3 3.285217 1_564
Al0 Fe1 2.593725 1_665
Al0 Fe0 2.593725 1_665
Al0 Fe3 2.621549 1_655
Al0 Fe2 2.621771 1_665
Al0 Fe3 2.784854 1_555
Al0 Fe2 2.784937 1_555
Al0 Y2 3.057816 1_556
Al0 Y1 3.057816 1_555
Al0 Y3 3.132033 1_565
Al0 Y0 3.132033 1_565
Al0 Y3 3.132306 1_555
Al0 Y0 3.132306 1_555
Al1 Al2 2.630943 1_565
Al1 Al3 2.650397 1_665
Al1 Fe0 2.741741 1_665
Al1 Fe1 2.741741 1_664
Al1 Al3 2.756280 1_555
Al1 Al2 2.764093 1_555
Al1 Y0 3.141636 1_555
Al1 Y3 3.141636 1_554
Al1 Y1 3.173630 1_655
Al1 Y2 3.173630 1_655
Al1 Y1 3.219157 1_555
Al1 Y2 3.219157 1_555
Al2 Al3 2.650484 1_655
Al2 Fe1 2.741099 1_654
Al2 Fe0 2.741099 1_655
Al2 Al3 2.755884 1_555
Al2 Y0 3.141510 1_555
Al2 Y3 3.141510 1_554
Al2 Y1 3.173950 1_655
Al2 Y2 3.173950 1_655
Al2 Y1 3.219094 1_545
Al2 Y2 3.219094 1_545
Al3 Fe0 2.690154 1_555
Al3 Fe1 2.690154 1_554
Al3 Y0 3.130795 1_555
Al3 Y3 3.130795 1_554
Al3 Y1 3.191062 1_545
Al3 Y2 3.191062 1_545
Al3 Y1 3.191212 1_555
Al3 Y2 3.191212 1_555
Fe0 Fe2 2.517301 1_555
Fe0 Fe3 2.517905 1_545
Fe0 Y0 3.077390 1_555
Fe0 Y1 3.114770 1_555
Fe0 Y1 3.115720 1_545
Fe0 Y0 3.188328 1_455
Fe0 Y0 3.189711 1_445
Fe0 Y1 3.274421 1_445
Fe1 Fe2 2.517301 1_555
Fe1 Fe3 2.517905 1_545
Fe1 Y3 3.077390 1_555
Fe1 Y2 3.114770 1_556
Fe1 Y2 3.115720 1_546
Fe1 Y3 3.188328 1_455
Fe1 Y3 3.189711 1_445
Fe1 Y2 3.274421 1_446
Fe2 Fe3 2.637479 1_545
Fe2 Fe3 2.757557 1_555
Fe2 Y2 3.039897 1_556
Fe2 Y1 3.039897 1_555
Fe2 Y3 3.121329 1_455
Fe2 Y0 3.121329 1_455
Fe2 Y3 3.152962 1_555
Fe2 Y0 3.152962 1_555
Fe3 Y2 3.039879 1_556
Fe3 Y1 3.039879 1_555
Fe3 Y3 3.121321 1_455
Fe3 Y0 3.121321 1_455
Fe3 Y3 3.153241 1_565
Fe3 Y0 3.153241 1_565
