# generated using pymatgen
data_RbTmS2O9
_symmetry_space_group_name_H-M   'P 1'
_cell_length_a   8.51484200
_cell_length_b   10.63305381
_cell_length_c   10.09954098
_cell_angle_alpha   120.29121460
_cell_angle_beta   90.00000000
_cell_angle_gamma   90.00000000
_symmetry_Int_Tables_number   1
_chemical_formula_structural   RbTmS2O9
_chemical_formula_sum   'Rb4 Tm4 S8 O36'
_cell_volume   789.55966487
_cell_formula_units_Z   4
loop_
 _symmetry_equiv_pos_site_id
 _symmetry_equiv_pos_as_xyz
  1  'x, y, z'
loop_
 _atom_site_type_symbol
 _atom_site_label
 _atom_site_symmetry_multiplicity
 _atom_site_fract_x
 _atom_site_fract_y
 _atom_site_fract_z
 _atom_site_occupancy
  Rb  Rb0  1  0.33922400  0.67727100  0.95767100  1
  Rb  Rb1  1  0.66077600  0.32272900  0.04232900  1
  Rb  Rb2  1  0.83922400  0.82272900  0.54232900  1
  Rb  Rb3  1  0.16077600  0.17727100  0.45767100  1
  Tm  Tm0  1  0.37307800  0.97007400  0.71818000  1
  Tm  Tm1  1  0.62692200  0.02992600  0.28182000  1
  Tm  Tm2  1  0.87307800  0.52992600  0.78182000  1
  Tm  Tm3  1  0.12692200  0.47007400  0.21818000  1
  S  S0  1  0.13154200  0.31473100  0.87719900  1
  S  S1  1  0.86845800  0.68526900  0.12280100  1
  S  S2  1  0.63154200  0.18526900  0.62280100  1
  S  S3  1  0.36845800  0.81473100  0.37719900  1
  S  S4  1  0.19653400  0.61212200  0.59853700  1
  S  S5  1  0.80346600  0.38787800  0.40146300  1
  S  S6  1  0.69653400  0.88787800  0.90146300  1
  S  S7  1  0.30346600  0.11212200  0.09853700  1
  O  O0  1  0.79687300  0.01926600  0.97138300  1
  O  O1  1  0.20312700  0.98073400  0.02861700  1
  O  O2  1  0.29687300  0.48073400  0.52861700  1
  O  O3  1  0.70312700  0.51926600  0.47138300  1
  O  O4  1  0.20385700  0.17480800  0.76343800  1
  O  O5  1  0.79614300  0.82519200  0.23656200  1
  O  O6  1  0.70385700  0.32519200  0.73656200  1
  O  O7  1  0.29614300  0.67480800  0.26343800  1
  O  O8  1  0.29685000  0.74639000  0.68271100  1
  O  O9  1  0.70315000  0.25361000  0.31728900  1
  O  O10  1  0.79685000  0.75361000  0.81728900  1
  O  O11  1  0.20315000  0.24639000  0.18271100  1
  O  O12  1  0.39544300  0.12155500  0.97844700  1
  O  O13  1  0.60455700  0.87844500  0.02155300  1
  O  O14  1  0.89544300  0.37844500  0.52155300  1
  O  O15  1  0.10455700  0.62155500  0.47844700  1
  O  O16  1  0.12387800  0.93859300  0.77821400  1
  O  O17  1  0.87612200  0.06140700  0.22178600  1
  O  O18  1  0.62387800  0.56140700  0.72178600  1
  O  O19  1  0.37612200  0.43859300  0.27821400  1
  O  O20  1  0.25219700  0.41757500  0.98782900  1
  O  O21  1  0.74780300  0.58242500  0.01217100  1
  O  O22  1  0.75219700  0.08242500  0.51217100  1
  O  O23  1  0.24780300  0.91757500  0.48782900  1
  O  O24  1  0.01120000  0.30038900  0.97573200  1
  O  O25  1  0.98880000  0.69961100  0.02426800  1
  O  O26  1  0.51120000  0.19961100  0.52426800  1
  O  O27  1  0.48880000  0.80038900  0.47573200  1
  O  O28  1  0.06001300  0.38038100  0.79072600  1
  O  O29  1  0.93998700  0.61961900  0.20927400  1
  O  O30  1  0.56001300  0.11961900  0.70927400  1
  O  O31  1  0.43998700  0.88038100  0.29072600  1
  O  O32  1  0.59150700  0.88979100  0.78569900  1
  O  O33  1  0.40849300  0.11020900  0.21430100  1
  O  O34  1  0.09150700  0.61020900  0.71430100  1
  O  O35  1  0.90849300  0.38979100  0.28569900  1
loop_
_geom_bond_atom_site_label_1
_geom_bond_atom_site_label_2
_geom_bond_distance
_geom_bond_site_symmetry_2
O0 S6 1.478228 1_545
O0 Rb1 3.152112 1_556
O1 S7 1.478228 1_565
O1 Rb0 3.152112 1_554
O2 S4 1.478228 1_555
O2 Rb3 3.152112 1_555
O3 S5 1.478228 1_555
O3 Rb2 3.152112 1_555
O4 S0 1.479308 1_555
O4 Tm0 2.453649 1_545
O4 Rb3 3.123017 1_555
O5 S1 1.479308 1_555
O5 Tm1 2.453649 1_565
O5 Rb2 3.123017 1_555
O6 S2 1.479308 1_555
O6 Tm2 2.453649 1_555
O6 Rb1 3.123017 1_556
O7 S3 1.479308 1_555
O7 Tm3 2.453649 1_555
O7 Rb0 3.123017 1_554
O8 S4 1.505396 1_555
O8 Tm0 2.312382 1_555
O8 Rb0 3.231215 1_555
O9 S5 1.505396 1_555
O9 Tm1 2.312382 1_555
O9 Rb1 3.231215 1_555
O10 S6 1.505396 1_555
O10 Tm2 2.312382 1_555
O10 Rb2 3.231215 1_555
O11 S7 1.505396 1_555
O11 Tm3 2.312382 1_555
O11 Rb3 3.231215 1_555
O12 S7 1.489010 1_556
O12 Tm0 2.295425 1_545
O12 Rb1 2.950262 1_556
O13 S6 1.489010 1_554
O13 Tm1 2.295425 1_565
O13 Rb0 2.950262 1_554
O14 S5 1.489010 1_555
O14 Tm2 2.295425 1_555
O14 Rb3 2.950262 1_655
O15 S4 1.489010 1_555
O15 Tm3 2.295425 1_555
O15 Rb2 2.950262 1_455
O16 Tm0 2.277469 1_555
O16 Rb2 3.179185 1_455
O17 Tm1 2.277469 1_555
O17 Rb3 3.179185 1_655
O18 Tm2 2.277469 1_555
O18 Rb0 3.179185 1_555
O19 Tm3 2.277469 1_555
O19 Rb1 3.179185 1_555
O20 S0 1.505696 1_555
O20 Tm3 2.356201 1_556
O20 Rb0 3.019181 1_555
O21 S1 1.505696 1_555
O21 Tm2 2.356201 1_554
O21 Rb1 3.019181 1_555
O22 S2 1.505696 1_555
O22 Tm1 2.356201 1_555
O22 Rb2 3.019181 1_545
O23 S3 1.505696 1_555
O23 Tm0 2.356201 1_555
O23 Rb3 3.019181 1_565
O24 S0 1.488840 1_555
O24 Tm3 2.401088 1_556
O24 Rb1 3.041502 1_456
O25 S1 1.488840 1_555
O25 Tm2 2.401088 1_554
O25 Rb0 3.041502 1_654
O26 S2 1.488840 1_555
O26 Tm1 2.401088 1_555
O26 Rb3 3.041502 1_555
O27 S3 1.488840 1_555
O27 Tm0 2.401088 1_555
O27 Rb2 3.041502 1_555
O28 S0 1.495312 1_555
O28 Tm2 2.283514 1_455
O28 Rb3 3.063734 1_555
O29 S1 1.495312 1_555
O29 Tm3 2.283514 1_655
O29 Rb2 3.063734 1_555
O30 S2 1.495312 1_555
O30 Tm0 2.283514 1_545
O30 Rb1 3.063734 1_556
O31 S3 1.495312 1_555
O31 Tm1 2.283514 1_565
O31 Rb0 3.063734 1_554
O32 S6 1.480236 1_555
O32 Tm0 2.289136 1_555
O32 Rb2 3.038224 1_555
O33 S7 1.480236 1_555
O33 Tm1 2.289136 1_555
O33 Rb3 3.038224 1_555
O34 S4 1.480236 1_555
O34 Tm2 2.289136 1_455
O34 Rb0 3.038224 1_555
O35 S5 1.480236 1_555
O35 Tm3 2.289136 1_655
O35 Rb1 3.038224 1_555
