# generated using pymatgen
data_Zn2Sb3O8
_symmetry_space_group_name_H-M   'P 1'
_cell_length_a   6.53862891
_cell_length_b   6.53862891
_cell_length_c   9.58772500
_cell_angle_alpha   90.00000000
_cell_angle_beta   90.00000000
_cell_angle_gamma   120.00000917
_symmetry_Int_Tables_number   1
_chemical_formula_structural   Zn2Sb3O8
_chemical_formula_sum   'Zn4 Sb6 O16'
_cell_volume   354.99279662
_cell_formula_units_Z   2
loop_
 _symmetry_equiv_pos_site_id
 _symmetry_equiv_pos_as_xyz
  1  'x, y, z'
loop_
 _atom_site_type_symbol
 _atom_site_label
 _atom_site_symmetry_multiplicity
 _atom_site_fract_x
 _atom_site_fract_y
 _atom_site_fract_z
 _atom_site_occupancy
  Zn  Zn0  1  0.66666700  0.33333300  0.03800300  1
  Zn  Zn1  1  0.33333300  0.66666700  0.53800300  1
  Zn  Zn2  1  0.66666700  0.33333300  0.40533500  1
  Zn  Zn3  1  0.33333300  0.66666700  0.90533500  1
  Sb  Sb0  1  0.66930000  0.83465000  0.24256300  1
  Sb  Sb1  1  0.83465000  0.16535000  0.74256300  1
  Sb  Sb2  1  0.16535000  0.33070000  0.24256300  1
  Sb  Sb3  1  0.83465000  0.66930000  0.74256300  1
  Sb  Sb4  1  0.33070000  0.16535000  0.74256300  1
  Sb  Sb5  1  0.16535000  0.83465000  0.24256300  1
  O  O0  1  0.83321000  0.16679000  0.14303400  1
  O  O1  1  0.66641900  0.83321000  0.64303400  1
  O  O2  1  0.16679000  0.33358100  0.64303400  1
  O  O3  1  0.83321000  0.66641900  0.14303400  1
  O  O4  1  0.33358100  0.16679000  0.14303400  1
  O  O5  1  0.16679000  0.83321000  0.64303400  1
  O  O6  1  0.51583600  0.48416400  0.87528800  1
  O  O7  1  0.03167200  0.51583600  0.37528800  1
  O  O8  1  0.48416400  0.96832800  0.37528800  1
  O  O9  1  0.51583600  0.03167200  0.87528800  1
  O  O10  1  0.00000000  0.00000000  0.34881400  1
  O  O11  1  0.00000000  0.00000000  0.84881400  1
  O  O12  1  0.33333300  0.66666700  0.11869900  1
  O  O13  1  0.96832800  0.48416400  0.87528800  1
  O  O14  1  0.48416400  0.51583600  0.37528800  1
  O  O15  1  0.66666700  0.33333300  0.61869900  1
loop_
_geom_bond_atom_site_label_1
_geom_bond_atom_site_label_2
_geom_bond_distance
_geom_bond_site_symmetry_2
O0 Sb0 2.109063 1_545
O0 Sb2 2.109063 1_655
O0 Zn0 2.138127 1_555
O1 Sb1 2.109063 1_565
O1 Sb3 2.109068 1_555
O1 Zn1 2.138127 1_555
O2 Sb1 2.109063 1_455
O2 Sb4 2.109068 1_555
O2 Zn1 2.138127 1_555
O3 Sb5 2.109063 1_655
O3 Sb0 2.109068 1_555
O3 Zn0 2.138127 1_555
O4 Sb5 2.109063 1_545
O4 Sb2 2.109068 1_555
O4 Zn0 2.138127 1_555
O5 Sb3 2.109063 1_455
O5 Sb4 2.109063 1_565
O5 Zn1 2.138127 1_555
O6 Zn3 2.086870 1_555
O6 Sb4 2.215135 1_555
O6 Sb3 2.215135 1_555
O6 Zn0 2.313384 1_556
O7 Zn2 2.086864 1_455
O7 Sb5 2.215135 1_555
O7 Sb2 2.215135 1_555
O7 Zn1 2.313380 1_555
O8 Zn2 2.086864 1_565
O8 Sb5 2.215135 1_555
O8 Sb0 2.215135 1_555
O8 Zn1 2.313380 1_555
O9 Zn3 2.086864 1_545
O9 Sb1 2.215135 1_555
O9 Sb4 2.215135 1_555
O9 Zn0 2.313380 1_556
O10 Sb2 2.131782 1_555
O10 Sb0 2.131782 1_445
O10 Sb5 2.131783 1_545
O11 Sb3 2.131782 1_445
O11 Sb4 2.131782 1_555
O11 Sb1 2.131783 1_455
O12 Zn3 2.045675 1_554
O12 Sb5 2.242685 1_555
O12 Sb0 2.242690 1_555
O12 Sb2 2.242690 1_555
O13 Zn3 2.086864 1_655
O13 Sb1 2.215135 1_555
O13 Sb3 2.215135 1_555
O13 Zn0 2.313380 1_556
O14 Zn2 2.086870 1_555
O14 Sb0 2.215135 1_555
O14 Sb2 2.215135 1_555
O14 Zn1 2.313384 1_555
O15 Zn2 2.045675 1_555
O15 Sb1 2.242685 1_555
O15 Sb3 2.242690 1_555
O15 Sb4 2.242690 1_555
