# generated using pymatgen
data_SrLaCl5
_symmetry_space_group_name_H-M   'P 1'
_cell_length_a   10.10841294
_cell_length_b   10.10841294
_cell_length_c   7.04512078
_cell_angle_alpha   88.74843014
_cell_angle_beta   88.74843014
_cell_angle_gamma   148.25552471
_symmetry_Int_Tables_number   1
_chemical_formula_structural   SrLaCl5
_chemical_formula_sum   'Sr2 La2 Cl10'
_cell_volume   377.53706007
_cell_formula_units_Z   2
loop_
 _symmetry_equiv_pos_site_id
 _symmetry_equiv_pos_as_xyz
  1  'x, y, z'
loop_
 _atom_site_type_symbol
 _atom_site_label
 _atom_site_symmetry_multiplicity
 _atom_site_fract_x
 _atom_site_fract_y
 _atom_site_fract_z
 _atom_site_occupancy
  Sr  Sr0  1  0.67777300  0.32222700  0.75000000  1
  Sr  Sr1  1  0.32222700  0.67777300  0.25000000  1
  La  La0  1  0.92123700  0.07876300  0.75000000  1
  La  La1  1  0.07876300  0.92123700  0.25000000  1
  Cl  Cl0  1  0.79165600  0.71287000  0.60849700  1
  Cl  Cl1  1  0.80402900  0.19505600  0.49238300  1
  Cl  Cl2  1  0.62986100  0.37013900  0.25000000  1
  Cl  Cl3  1  0.80494400  0.19597100  0.00761700  1
  Cl  Cl4  1  0.71287000  0.79165600  0.10849700  1
  Cl  Cl5  1  0.28713000  0.20834400  0.89150300  1
  Cl  Cl6  1  0.19505600  0.80402900  0.99238300  1
  Cl  Cl7  1  0.37013900  0.62986100  0.75000000  1
  Cl  Cl8  1  0.19597100  0.80494400  0.50761700  1
  Cl  Cl9  1  0.20834400  0.28713000  0.39150300  1
loop_
_geom_bond_atom_site_label_1
_geom_bond_atom_site_label_2
_geom_bond_distance
_geom_bond_site_symmetry_2
Cl0 La1 2.879021 1_655
Cl0 La0 2.892663 1_565
Cl0 Sr0 3.155689 1_555
Cl1 La0 2.906747 1_555
Cl1 Sr0 3.060462 1_555
Cl1 Sr1 3.152322 1_655
Cl1 Sr1 3.378945 1_545
Cl2 La1 2.937731 1_655
Cl2 La1 2.937731 1_545
Cl2 Sr0 3.643692 1_555
Cl2 Sr0 3.643692 1_554
Cl3 La0 2.906747 1_554
Cl3 Sr0 3.060462 1_554
Cl3 Sr1 3.152322 1_545
Cl3 Sr1 3.378945 1_655
Cl4 La0 2.879021 1_564
Cl4 La1 2.892663 1_655
Cl4 Sr1 3.155689 1_555
Cl5 La1 2.879021 1_546
Cl5 La0 2.892663 1_455
Cl5 Sr0 3.155689 1_555
Cl6 La1 2.906747 1_556
Cl6 Sr1 3.060462 1_556
Cl6 Sr0 3.152322 1_565
Cl6 Sr0 3.378945 1_455
Cl7 La0 2.937731 1_455
Cl7 La0 2.937731 1_565
Cl7 Sr1 3.643692 1_555
Cl7 Sr1 3.643692 1_556
Cl8 La1 2.906747 1_555
Cl8 Sr1 3.060462 1_555
Cl8 Sr0 3.152322 1_455
Cl8 Sr0 3.378945 1_565
Cl9 La0 2.879021 1_455
Cl9 La1 2.892663 1_545
Cl9 Sr1 3.155689 1_555
