# generated using pymatgen
data_BaReH9
_symmetry_space_group_name_H-M   'P 1'
_cell_length_a   5.08667813
_cell_length_b   5.08667813
_cell_length_c   9.78175000
_cell_angle_alpha   90.00000000
_cell_angle_beta   90.00000000
_cell_angle_gamma   112.81586736
_symmetry_Int_Tables_number   1
_chemical_formula_structural   BaReH9
_chemical_formula_sum   'Ba2 Re2 H18'
_cell_volume   233.29259449
_cell_formula_units_Z   2
loop_
 _symmetry_equiv_pos_site_id
 _symmetry_equiv_pos_as_xyz
  1  'x, y, z'
loop_
 _atom_site_type_symbol
 _atom_site_label
 _atom_site_symmetry_multiplicity
 _atom_site_fract_x
 _atom_site_fract_y
 _atom_site_fract_z
 _atom_site_occupancy
  Ba  Ba0  1  0.00000000  0.00000000  0.00000000  1
  Ba  Ba1  1  0.00000000  0.00000000  0.50000000  1
  Re  Re0  1  0.38672400  0.61327600  0.25000000  1
  Re  Re1  1  0.61327600  0.38672400  0.75000000  1
  H  H0  1  0.53450100  0.46549900  0.13010400  1
  H  H1  1  0.46549900  0.53450100  0.86989600  1
  H  H2  1  0.53450100  0.46549900  0.36989600  1
  H  H3  1  0.46549900  0.53450100  0.63010400  1
  H  H4  1  0.49776500  0.86859100  0.37554100  1
  H  H5  1  0.86859100  0.49776500  0.62445900  1
  H  H6  1  0.49776500  0.86859100  0.12445900  1
  H  H7  1  0.86859100  0.49776500  0.87554100  1
  H  H8  1  0.50223500  0.13140900  0.62445900  1
  H  H9  1  0.13140900  0.50223500  0.37554100  1
  H  H10  1  0.50223500  0.13140900  0.87554100  1
  H  H11  1  0.13140900  0.50223500  0.12445900  1
  H  H12  1  0.74516100  0.76044900  0.25000000  1
  H  H13  1  0.76044900  0.74516100  0.75000000  1
  H  H14  1  0.25483900  0.23955100  0.75000000  1
  H  H15  1  0.23955100  0.25483900  0.25000000  1
  H  H16  1  0.18843600  0.81156400  0.25000000  1
  H  H17  1  0.81156400  0.18843600  0.75000000  1
loop_
_geom_bond_atom_site_label_1
_geom_bond_atom_site_label_2
_geom_bond_distance
_geom_bond_site_symmetry_2
Ba0 H11 2.670413 1_555
Ba0 H10 2.670413 1_554
Ba0 H7 2.670413 1_444
Ba0 H6 2.670413 1_445
Ba0 H14 2.814303 1_554
Ba0 H15 2.814303 1_555
Ba0 H12 2.814303 1_445
Ba0 H13 2.814303 1_444
Ba0 H16 2.920648 1_545
Ba0 H17 2.920648 1_454
Ba0 H0 3.102516 1_555
Ba0 H1 3.102516 1_444
Ba0 H1 3.102516 1_554
Ba0 H0 3.102516 1_445
Ba0 H7 3.106828 1_454
Ba0 H6 3.106828 1_545
Ba0 H11 3.106828 1_545
Ba0 H10 3.106828 1_454
Ba1 H8 2.670413 1_555
Ba1 H5 2.670413 1_445
Ba1 H9 2.670413 1_555
Ba1 H4 2.670413 1_445
Ba1 H14 2.814303 1_555
Ba1 H15 2.814303 1_555
Ba1 H12 2.814303 1_445
Ba1 H13 2.814303 1_445
Ba1 H16 2.920648 1_545
Ba1 H17 2.920648 1_455
Ba1 H3 3.102516 1_555
Ba1 H2 3.102516 1_445
Ba1 H2 3.102516 1_555
Ba1 H3 3.102516 1_445
Ba1 H5 3.106828 1_455
Ba1 H4 3.106828 1_545
Ba1 H8 3.106828 1_455
Ba1 H9 3.106828 1_545
H0 Re0 1.715735 1_555
H1 Re1 1.715735 1_555
H2 Re0 1.715735 1_555
H3 Re1 1.715735 1_555
H4 Re0 1.716037 1_555
H5 Re1 1.716037 1_555
H6 Re0 1.716037 1_555
H7 Re1 1.716037 1_555
H8 Re1 1.716037 1_555
H9 Re0 1.716037 1_555
H10 Re1 1.716037 1_555
H11 Re0 1.716037 1_555
H12 Re0 1.681110 1_555
H13 Re1 1.681110 1_555
H14 Re1 1.681110 1_555
H15 Re0 1.681110 1_555
H16 Re0 1.680369 1_555
H17 Re1 1.680369 1_555
