# generated using pymatgen
data_YbCeS3
_symmetry_space_group_name_H-M   'P 1'
_cell_length_a   6.61200704
_cell_length_b   6.61200704
_cell_length_c   9.47857832
_cell_angle_alpha   90.00000000
_cell_angle_beta   90.00000000
_cell_angle_gamma   145.98928952
_symmetry_Int_Tables_number   1
_chemical_formula_structural   YbCeS3
_chemical_formula_sum   'Yb2 Ce2 S6'
_cell_volume   231.78845694
_cell_formula_units_Z   2
loop_
 _symmetry_equiv_pos_site_id
 _symmetry_equiv_pos_as_xyz
  1  'x, y, z'
loop_
 _atom_site_type_symbol
 _atom_site_label
 _atom_site_symmetry_multiplicity
 _atom_site_fract_x
 _atom_site_fract_y
 _atom_site_fract_z
 _atom_site_occupancy
  Yb  Yb0  1  0.00000000  0.00000000  0.50000000  1
  Yb  Yb1  1  0.00000000  0.00000000  0.00000000  1
  Ce  Ce0  1  0.74719869  0.25280131  0.25000000  1
  Ce  Ce1  1  0.25280131  0.74719869  0.75000000  1
  S  S0  1  0.64070631  0.35929369  0.56337586  1
  S  S1  1  0.64070631  0.35929369  0.93662414  1
  S  S2  1  0.35929369  0.64070631  0.06337586  1
  S  S3  1  0.35929369  0.64070631  0.43662414  1
  S  S4  1  0.08617562  0.91382438  0.25000000  1
  S  S5  1  0.91382438  0.08617562  0.75000000  1
loop_
_geom_bond_atom_site_label_1
_geom_bond_atom_site_label_2
_geom_bond_distance
_geom_bond_site_symmetry_2
Ce0 S4 2.808167 1_655
Ce0 S4 2.808167 1_545
Ce0 S3 2.979585 1_655
Ce0 S3 2.979585 1_545
Ce0 S2 2.979585 1_655
Ce0 S2 2.979585 1_545
Ce0 S0 3.261377 1_555
Ce0 S1 3.261377 1_554
Ce1 S5 2.808167 1_565
Ce1 S5 2.808167 1_455
Ce1 S1 2.979585 1_455
Ce1 S1 2.979585 1_565
Ce1 S0 2.979585 1_565
Ce1 S0 2.979585 1_455
Ce1 S2 3.261377 1_556
Ce1 S3 3.261377 1_555
S0 Yb0 2.695615 1_555
S0 Yb0 2.695615 1_665
S1 Yb1 2.695615 1_556
S1 Yb1 2.695615 1_666
S2 Yb1 2.695615 1_555
S2 Yb1 2.695615 1_665
S3 Yb0 2.695615 1_555
S3 Yb0 2.695615 1_665
S4 Yb1 2.608217 1_565
S4 Yb0 2.608217 1_565
S5 Yb0 2.608217 1_655
S5 Yb1 2.608217 1_656
