# generated using pymatgen
data_K5Mn3O6
_symmetry_space_group_name_H-M   'P 1'
_cell_length_a   6.22671200
_cell_length_b   9.87152700
_cell_length_c   17.01672500
_cell_angle_alpha   90.00000000
_cell_angle_beta   90.00000000
_cell_angle_gamma   90.00000000
_symmetry_Int_Tables_number   1
_chemical_formula_structural   K5Mn3O6
_chemical_formula_sum   'K20 Mn12 O24'
_cell_volume   1045.96968387
_cell_formula_units_Z   4
loop_
 _symmetry_equiv_pos_site_id
 _symmetry_equiv_pos_as_xyz
  1  'x, y, z'
loop_
 _atom_site_type_symbol
 _atom_site_label
 _atom_site_symmetry_multiplicity
 _atom_site_fract_x
 _atom_site_fract_y
 _atom_site_fract_z
 _atom_site_occupancy
  K  K0  1  0.63633500  0.41919000  0.41237600  1
  K  K1  1  0.13633500  0.58081000  0.58762400  1
  K  K2  1  0.13633500  0.91919000  0.08762400  1
  K  K3  1  0.63633500  0.08081000  0.91237600  1
  K  K4  1  0.65053700  0.38913900  0.61257700  1
  K  K5  1  0.15053700  0.61086100  0.38742300  1
  K  K6  1  0.15053700  0.88913900  0.88742300  1
  K  K7  1  0.65053700  0.11086100  0.11257700  1
  K  K8  1  0.24192000  0.91112300  0.49679600  1
  K  K9  1  0.74192000  0.08887700  0.50320400  1
  K  K10  1  0.74192000  0.41112300  0.00320400  1
  K  K11  1  0.24192000  0.58887700  0.99679600  1
  K  K12  1  0.54547100  0.05642900  0.71352900  1
  K  K13  1  0.04547100  0.94357100  0.28647100  1
  K  K14  1  0.04547100  0.55642900  0.78647100  1
  K  K15  1  0.54547100  0.44357100  0.21352900  1
  K  K16  1  0.01181000  0.88534100  0.68464800  1
  K  K17  1  0.51181000  0.11465900  0.31535200  1
  K  K18  1  0.51181000  0.38534100  0.81535200  1
  K  K19  1  0.01181000  0.61465900  0.18464800  1
  Mn  Mn0  1  0.63023300  0.72513500  0.58102100  1
  Mn  Mn1  1  0.13023300  0.27486500  0.41897900  1
  Mn  Mn2  1  0.13023300  0.22513500  0.91897900  1
  Mn  Mn3  1  0.63023300  0.77486500  0.08102100  1
  Mn  Mn4  1  0.65274100  0.75031100  0.41323800  1
  Mn  Mn5  1  0.15274100  0.24968900  0.58676200  1
  Mn  Mn6  1  0.15274100  0.25031100  0.08676200  1
  Mn  Mn7  1  0.65274100  0.74968900  0.91323800  1
  Mn  Mn8  1  0.56411000  0.72767700  0.74973100  1
  Mn  Mn9  1  0.06411000  0.27232300  0.25026900  1
  Mn  Mn10  1  0.06411000  0.22767700  0.75026900  1
  Mn  Mn11  1  0.56411000  0.77232300  0.24973100  1
  O  O0  1  0.78306100  0.64363400  0.66860800  1
  O  O1  1  0.28306100  0.35636600  0.33139200  1
  O  O2  1  0.28306100  0.14363400  0.83139200  1
  O  O3  1  0.78306100  0.85636600  0.16860800  1
  O  O4  1  0.46318500  0.64943100  0.49726200  1
  O  O5  1  0.96318500  0.35056900  0.50273800  1
  O  O6  1  0.96318500  0.14943100  0.00273800  1
  O  O7  1  0.46318500  0.85056900  0.99726200  1
  O  O8  1  0.76143100  0.64243100  0.31696500  1
  O  O9  1  0.26143100  0.35756900  0.68303500  1
  O  O10  1  0.26143100  0.14243100  0.18303500  1
  O  O11  1  0.76143100  0.85756900  0.81696500  1
  O  O12  1  0.42292100  0.64222000  0.84827000  1
  O  O13  1  0.92292100  0.35778000  0.15173000  1
  O  O14  1  0.92292100  0.14222000  0.65173000  1
  O  O15  1  0.42292100  0.85778000  0.34827000  1
  O  O16  1  0.41329200  0.80813700  0.64804300  1
  O  O17  1  0.91329200  0.19186300  0.35195700  1
  O  O18  1  0.91329200  0.30813700  0.85195700  1
  O  O19  1  0.41329200  0.69186300  0.14804300  1
  O  O20  1  0.84873200  0.80042000  0.51013300  1
  O  O21  1  0.34873200  0.19958000  0.48986700  1
  O  O22  1  0.34873200  0.30042000  0.98986700  1
  O  O23  1  0.84873200  0.69958000  0.01013300  1
loop_
_geom_bond_atom_site_label_1
_geom_bond_atom_site_label_2
_geom_bond_distance
_geom_bond_site_symmetry_2
K0 O5 2.639189 1_555
K0 O1 2.668812 1_555
K0 O8 2.845907 1_555
K0 O4 2.900811 1_555
K0 O17 3.011128 1_555
K0 O21 3.105735 1_555
K1 O4 2.639189 1_555
K1 O0 2.668812 1_455
K1 O9 2.845907 1_555
K1 O5 2.900811 1_455
K1 O16 3.011128 1_555
K1 O20 3.105735 1_455
K2 O7 2.639189 1_554
K2 O3 2.668812 1_455
K2 O10 2.845907 1_565
K2 O6 2.900811 1_465
K2 O19 3.011128 1_555
K2 O23 3.105735 1_455
K3 O6 2.639189 1_556
K3 O2 2.668812 1_555
K3 O11 2.845907 1_545
K3 O7 2.900811 1_545
K3 O18 3.011128 1_555
K3 O22 3.105735 1_555
K4 O9 2.721184 1_555
K4 O5 2.725511 1_555
K4 O0 2.810952 1_555
K4 O14 3.043313 1_555
K4 O21 3.375407 1_555
K5 O8 2.721184 1_455
K5 O4 2.725511 1_555
K5 O1 2.810952 1_555
K5 O15 3.043313 1_555
K5 O20 3.375407 1_455
K6 O11 2.721184 1_455
K6 O7 2.725511 1_555
K6 O2 2.810952 1_565
K6 O12 3.043313 1_555
K6 O23 3.375407 1_456
K7 O10 2.721184 1_555
K7 O6 2.725511 1_555
K7 O3 2.810952 1_545
K7 O13 3.043313 1_555
K7 O22 3.375407 1_554
K8 O20 2.690679 1_455
K8 O15 2.816982 1_555
K8 O21 2.926528 1_565
K8 O4 2.927747 1_555
K8 O16 2.965853 1_555
K9 O21 2.690679 1_555
K9 O14 2.816982 1_555
K9 O20 2.926528 1_545
K9 O5 2.927747 1_555
K9 O17 2.965853 1_555
K10 O22 2.690679 1_554
K10 O13 2.816982 1_555
K10 O23 2.926528 1_555
K10 O6 2.927747 1_555
K10 O18 2.965853 1_554
K11 O23 2.690679 1_456
K11 O12 2.816982 1_555
K11 O22 2.926528 1_555
K11 O7 2.927747 1_555
K11 O19 2.965853 1_556
K12 O14 2.710516 1_555
K12 O2 2.726436 1_555
K12 O16 2.815438 1_545
K12 O11 2.959721 1_545
K13 O15 2.710516 1_555
K13 O3 2.726436 1_455
K13 O17 2.815438 1_465
K13 O10 2.959721 1_565
K14 O12 2.710516 1_555
K14 O0 2.726436 1_455
K14 O18 2.815438 1_455
K14 O9 2.959721 1_555
K15 O13 2.710516 1_555
K15 O1 2.726436 1_555
K15 O19 2.815438 1_555
K15 O8 2.959721 1_555
K16 O14 2.655248 1_465
K16 O16 2.686707 1_555
K16 O11 2.752357 1_455
K16 O0 2.792197 1_455
K16 O20 3.248511 1_455
K17 O15 2.655248 1_545
K17 O17 2.686707 1_555
K17 O10 2.752357 1_555
K17 O1 2.792197 1_555
K17 O21 3.248511 1_555
K18 O12 2.655248 1_555
K18 O18 2.686707 1_555
K18 O9 2.752357 1_555
K18 O2 2.792197 1_555
K18 O22 3.248511 1_555
K19 O13 2.655248 1_455
K19 O19 2.686707 1_555
K19 O8 2.752357 1_455
K19 O3 2.792197 1_455
K19 O23 3.248511 1_455
Mn0 O4 1.916221 1_555
Mn0 O0 1.942750 1_555
Mn0 O16 1.948541 1_555
Mn0 O20 1.964299 1_555
Mn1 O5 1.916221 1_455
Mn1 O1 1.942750 1_555
Mn1 O17 1.948541 1_455
Mn1 O21 1.964299 1_555
Mn2 O6 1.916221 1_456
Mn2 O2 1.942750 1_555
Mn2 O18 1.948541 1_455
Mn2 O22 1.964299 1_555
Mn3 O7 1.916221 1_554
Mn3 O3 1.942750 1_555
Mn3 O19 1.948541 1_555
Mn3 O23 1.964299 1_555
Mn4 O8 2.067849 1_555
Mn4 O15 2.096551 1_555
Mn4 O4 2.104565 1_555
Mn4 O20 2.110134 1_555
Mn5 O9 2.067849 1_555
Mn5 O14 2.096551 1_455
Mn5 O5 2.104565 1_455
Mn5 O21 2.110134 1_555
Mn6 O10 2.067849 1_555
Mn6 O13 2.096551 1_455
Mn6 O6 2.104565 1_455
Mn6 O22 2.110134 1_554
Mn7 O11 2.067849 1_555
Mn7 O12 2.096551 1_555
Mn7 O7 2.104565 1_555
Mn7 O23 2.110134 1_556
Mn8 O12 2.072736 1_555
Mn8 O0 2.110127 1_555
Mn8 O11 2.112510 1_555
Mn8 O16 2.122978 1_555
Mn9 O13 2.072736 1_455
Mn9 O1 2.110127 1_555
Mn9 O10 2.112510 1_555
Mn9 O17 2.122978 1_455
Mn10 O14 2.072736 1_455
Mn10 O2 2.110127 1_555
Mn10 O9 2.112510 1_555
Mn10 O18 2.122978 1_455
Mn11 O15 2.072736 1_555
Mn11 O3 2.110127 1_555
Mn11 O8 2.112510 1_555
Mn11 O19 2.122978 1_555
