# generated using pymatgen
data_Tb2ReB6
_symmetry_space_group_name_H-M   'P 1'
_cell_length_a   3.69914068
_cell_length_b   9.19377027
_cell_length_c   11.57788582
_cell_angle_alpha   90.00000000
_cell_angle_beta   90.00000000
_cell_angle_gamma   90.00000000
_symmetry_Int_Tables_number   1
_chemical_formula_structural   Tb2ReB6
_chemical_formula_sum   'Tb8 Re4 B24'
_cell_volume   393.75289321
_cell_formula_units_Z   4
loop_
 _symmetry_equiv_pos_site_id
 _symmetry_equiv_pos_as_xyz
  1  'x, y, z'
loop_
 _atom_site_type_symbol
 _atom_site_label
 _atom_site_symmetry_multiplicity
 _atom_site_fract_x
 _atom_site_fract_y
 _atom_site_fract_z
 _atom_site_occupancy
  Tb  Tb0  1  -0.00000000  0.32382109  0.41388275  1
  Tb  Tb1  1  0.00000000  0.67617891  0.58611725  1
  Tb  Tb2  1  -0.00000000  0.82382109  0.08611725  1
  Tb  Tb3  1  0.00000000  0.17617891  0.91388275  1
  Tb  Tb4  1  -0.00000000  0.94256806  0.36940038  1
  Tb  Tb5  1  -0.00000000  0.05743194  0.63059962  1
  Tb  Tb6  1  0.00000000  0.44256806  0.13059962  1
  Tb  Tb7  1  0.00000000  0.55743194  0.86940038  1
  Re  Re0  1  -0.00000000  0.63837849  0.32082640  1
  Re  Re1  1  0.00000000  0.36162151  0.67917360  1
  Re  Re2  1  -0.00000000  0.13837849  0.17917360  1
  Re  Re3  1  0.00000000  0.86162151  0.82082640  1
  B  B0  1  0.50000000  0.55344910  0.43258267  1
  B  B1  1  0.50000000  0.44655090  0.56741733  1
  B  B2  1  0.50000000  0.05344910  0.06741733  1
  B  B3  1  0.50000000  0.94655090  0.93258267  1
  B  B4  1  0.50000000  0.74827215  0.41807504  1
  B  B5  1  0.50000000  0.25172785  0.58192496  1
  B  B6  1  0.50000000  0.24827215  0.08192496  1
  B  B7  1  0.50000000  0.75172785  0.91807504  1
  B  B8  1  0.50000000  0.79113376  0.26546663  1
  B  B9  1  0.50000000  0.20886624  0.73453337  1
  B  B10  1  0.50000000  0.29113376  0.23453337  1
  B  B11  1  0.50000000  0.70886624  0.76546663  1
  B  B12  1  0.50000000  0.63094873  0.18622969  1
  B  B13  1  0.50000000  0.36905127  0.81377031  1
  B  B14  1  0.50000000  0.13094873  0.31377031  1
  B  B15  1  0.50000000  0.86905127  0.68622969  1
  B  B16  1  0.50000000  0.98324000  0.21167824  1
  B  B17  1  0.50000000  0.01676000  0.78832176  1
  B  B18  1  0.50000000  0.48324000  0.28832176  1
  B  B19  1  0.50000000  0.51676000  0.71167824  1
  B  B20  1  0.50000000  0.60024173  0.02805753  1
  B  B21  1  0.50000000  0.39975827  0.97194247  1
  B  B22  1  0.50000000  0.10024173  0.47194247  1
  B  B23  1  0.50000000  0.89975827  0.52805753  1
loop_
_geom_bond_atom_site_label_1
_geom_bond_atom_site_label_2
_geom_bond_distance
_geom_bond_site_symmetry_2
Re0 Tb6 2.844560 1_555
Re0 Tb4 2.852634 1_555
Re0 Tb0 3.086141 1_555
Re0 Tb1 3.091105 1_555
Re0 Tb2 3.207990 1_555
Re1 Tb7 2.844560 1_555
Re1 Tb5 2.852634 1_555
Re1 Tb1 3.086141 1_555
Re1 Tb0 3.091105 1_555
Re1 Tb3 3.207990 1_555
Re2 Tb4 2.844560 1_545
Re2 Tb6 2.852634 1_555
Re2 Tb2 3.086141 1_545
Re2 Tb3 3.091105 1_554
Re2 Tb0 3.207990 1_555
Re3 Tb5 2.844560 1_565
Re3 Tb7 2.852634 1_555
Re3 Tb3 3.086141 1_565
Re3 Tb2 3.091105 1_556
Re3 Tb1 3.207990 1_555
B0 B18 1.790626 1_555
B0 B4 1.799017 1_555
B0 B1 1.844702 1_555
B0 Re0 2.388467 1_555
B0 Re0 2.388467 1_655
B0 Tb1 2.802493 1_555
B0 Tb1 2.802493 1_655
B0 Tb0 2.815089 1_555
B0 Tb0 2.815089 1_655
B1 B19 1.790626 1_555
B1 B5 1.799017 1_555
B1 Re1 2.388467 1_655
B1 Re1 2.388467 1_555
B1 Tb0 2.802493 1_555
B1 Tb0 2.802493 1_655
B1 Tb1 2.815089 1_555
B1 Tb1 2.815089 1_655
B2 B6 1.799017 1_555
B2 B3 1.844702 1_544
B2 Re2 2.388467 1_655
B2 Re2 2.388467 1_555
B2 Tb3 2.802493 1_654
B2 Tb3 2.802493 1_554
B2 Tb2 2.815089 1_545
B2 Tb2 2.815089 1_645
B3 B7 1.799017 1_555
B3 Re3 2.388467 1_555
B3 Re3 2.388467 1_655
B3 Tb2 2.802493 1_556
B3 Tb2 2.802493 1_656
B3 Tb3 2.815089 1_565
B3 Tb3 2.815089 1_665
B4 B8 1.810292 1_555
B4 Re0 2.389439 1_655
B4 Re0 2.389439 1_555
B4 Tb4 2.632377 1_555
B4 Tb4 2.632377 1_655
B4 Tb1 2.765046 1_555
B4 Tb1 2.765046 1_655
B5 B9 1.810292 1_555
B5 Re1 2.389439 1_555
B5 Re1 2.389439 1_655
B5 Tb5 2.632377 1_555
B5 Tb5 2.632377 1_655
B5 Tb0 2.765046 1_655
B5 Tb0 2.765046 1_555
B6 Re2 2.389439 1_655
B6 Re2 2.389439 1_555
B6 Tb6 2.632377 1_655
B6 Tb6 2.632377 1_555
B6 Tb3 2.765046 1_654
B6 Tb3 2.765046 1_554
B7 Re3 2.389439 1_555
B7 Re3 2.389439 1_655
B7 Tb7 2.632377 1_655
B7 Tb7 2.632377 1_555
B7 Tb2 2.765046 1_556
B7 Tb2 2.765046 1_656
B8 Re0 2.409161 1_655
B8 Re0 2.409161 1_555
B8 Tb4 2.609078 1_655
B8 Tb4 2.609078 1_555
B8 Tb2 2.796966 1_655
B8 Tb2 2.796966 1_555
B9 Re1 2.409161 1_655
B9 Re1 2.409161 1_555
B9 Tb5 2.609078 1_655
B9 Tb5 2.609078 1_555
B9 Tb3 2.796966 1_555
B9 Tb3 2.796966 1_655
B10 B14 1.735072 1_555
B10 B6 1.810292 1_555
B10 B18 1.872757 1_555
B10 Re2 2.409161 1_555
B10 Re2 2.409161 1_655
B10 Tb6 2.609078 1_655
B10 Tb6 2.609078 1_555
B10 Tb0 2.796966 1_655
B10 Tb0 2.796966 1_555
B11 B15 1.735072 1_555
B11 B7 1.810292 1_555
B11 B19 1.872757 1_555
B11 Re3 2.409161 1_555
B11 Re3 2.409161 1_655
B11 Tb7 2.609078 1_655
B11 Tb7 2.609078 1_555
B11 Tb1 2.796966 1_555
B11 Tb1 2.796966 1_655
B12 B8 1.735072 1_555
B12 B18 1.800365 1_555
B12 B20 1.852932 1_555
B12 Re0 2.419508 1_555
B12 Re0 2.419508 1_655
B12 Tb6 2.614445 1_555
B12 Tb6 2.614445 1_655
B12 Tb2 2.812246 1_555
B12 Tb2 2.812246 1_655
B13 B9 1.735072 1_555
B13 B19 1.800365 1_555
B13 B21 1.852932 1_555
B13 Re1 2.419508 1_555
B13 Re1 2.419508 1_655
B13 Tb7 2.614445 1_555
B13 Tb7 2.614445 1_655
B13 Tb3 2.812246 1_555
B13 Tb3 2.812246 1_655
B14 B16 1.800365 1_545
B14 B22 1.852932 1_555
B14 Re2 2.419508 1_555
B14 Re2 2.419508 1_655
B14 Tb4 2.614445 1_545
B14 Tb4 2.614445 1_645
B14 Tb0 2.812246 1_555
B14 Tb0 2.812246 1_655
B15 B17 1.800365 1_565
B15 B23 1.852932 1_555
B15 Re3 2.419508 1_555
B15 Re3 2.419508 1_655
B15 Tb5 2.614445 1_565
B15 Tb5 2.614445 1_665
B15 Tb1 2.812246 1_555
B15 Tb1 2.812246 1_655
B16 B2 1.790626 1_565
B16 B8 1.872757 1_555
B16 Re2 2.365775 1_565
B16 Re2 2.365775 1_665
B16 Tb4 2.625897 1_555
B16 Tb4 2.625897 1_655
B16 Tb2 2.771715 1_555
B16 Tb2 2.771715 1_655
B17 B3 1.790626 1_545
B17 B9 1.872757 1_555
B17 Re3 2.365775 1_645
B17 Re3 2.365775 1_545
B17 Tb5 2.625897 1_655
B17 Tb5 2.625897 1_555
B17 Tb3 2.771715 1_655
B17 Tb3 2.771715 1_555
B18 Re0 2.365775 1_555
B18 Re0 2.365775 1_655
B18 Tb6 2.625897 1_655
B18 Tb6 2.625897 1_555
B18 Tb0 2.771715 1_655
B18 Tb0 2.771715 1_555
B19 Re1 2.365775 1_555
B19 Re1 2.365775 1_655
B19 Tb7 2.625897 1_655
B19 Tb7 2.625897 1_555
B19 Tb1 2.771715 1_655
B19 Tb1 2.771715 1_555
B20 B7 1.887101 1_554
B20 B21 1.954350 1_554
B20 Tb6 2.632829 1_555
B20 Tb6 2.632829 1_655
B20 Tb7 2.636299 1_654
B20 Tb7 2.636299 1_554
B20 Tb2 2.845700 1_555
B20 Tb2 2.845700 1_655
B21 B6 1.887101 1_556
B21 Tb7 2.632829 1_555
B21 Tb7 2.632829 1_655
B21 Tb6 2.636299 1_656
B21 Tb6 2.636299 1_556
B21 Tb3 2.845700 1_555
B21 Tb3 2.845700 1_655
B22 B5 1.887101 1_555
B22 B23 1.954350 1_545
B22 Tb4 2.632829 1_645
B22 Tb4 2.632829 1_545
B22 Tb5 2.636299 1_655
B22 Tb5 2.636299 1_555
B22 Tb0 2.845700 1_655
B22 Tb0 2.845700 1_555
B23 B4 1.887101 1_555
B23 Tb5 2.632829 1_665
B23 Tb5 2.632829 1_565
B23 Tb4 2.636299 1_555
B23 Tb4 2.636299 1_655
B23 Tb1 2.845700 1_555
B23 Tb1 2.845700 1_655
