# generated using pymatgen
data_Te2MoW3(SeS2)2
_symmetry_space_group_name_H-M   'P 1'
_cell_length_a   3.30867200
_cell_length_b   3.30867200
_cell_length_c   40.36190100
_cell_angle_alpha   90.00000000
_cell_angle_beta   90.00000000
_cell_angle_gamma   119.99999992
_symmetry_Int_Tables_number   1
_chemical_formula_structural   Te2MoW3(SeS2)2
_chemical_formula_sum   'Te2 Mo1 W3 Se2 S4'
_cell_volume   382.65701219
_cell_formula_units_Z   1
loop_
 _symmetry_equiv_pos_site_id
 _symmetry_equiv_pos_as_xyz
  1  'x, y, z'
loop_
 _atom_site_type_symbol
 _atom_site_label
 _atom_site_symmetry_multiplicity
 _atom_site_fract_x
 _atom_site_fract_y
 _atom_site_fract_z
 _atom_site_occupancy
  Te  Te0  1  0.66666700  0.33333300  0.42307100  1
  Te  Te1  1  0.66666700  0.33333300  0.51838700  1
  Mo  Mo0  1  0.33333300  0.66666700  0.09372600  1
  W  W0  1  0.33333300  0.66666700  0.47071400  1
  W  W1  1  0.66666700  0.33333300  0.28001300  1
  W  W2  1  0.66666700  0.33333300  0.65846200  1
  Se  Se0  1  0.33333300  0.66666700  0.32178800  1
  Se  Se1  1  0.33333300  0.66666700  0.23821800  1
  S  S0  1  0.33333300  0.66666700  0.69642100  1
  S  S1  1  0.66666700  0.33333300  0.05589100  1
  S  S2  1  0.66666700  0.33333300  0.13158100  1
  S  S3  1  0.33333300  0.66666700  0.62047500  1
loop_
_geom_bond_atom_site_label_1
_geom_bond_atom_site_label_2
_geom_bond_distance
_geom_bond_site_symmetry_2
Te0 W0 2.710513 1_545
Te0 W0 2.710513 1_655
Te0 W0 2.710517 1_555
Te1 W0 2.711372 1_545
Te1 W0 2.711372 1_655
Te1 W0 2.711376 1_555
Mo0 S1 2.445630 1_455
Mo0 S1 2.445630 1_565
Mo0 S1 2.445635 1_555
Mo0 S2 2.446134 1_455
Mo0 S2 2.446134 1_565
Mo0 S2 2.446139 1_555
Se0 W1 2.547958 1_455
Se0 W1 2.547958 1_565
Se0 W1 2.547963 1_555
Se1 W1 2.548493 1_455
Se1 W1 2.548493 1_565
Se1 W1 2.548497 1_555
S0 W2 2.448759 1_455
S0 W2 2.448759 1_565
S0 W2 2.448763 1_555
S3 W2 2.449466 1_455
S3 W2 2.449466 1_565
S3 W2 2.449470 1_555
