# generated using pymatgen
data_LiMg6W
_symmetry_space_group_name_H-M   'P 1'
_cell_length_a   6.10608868
_cell_length_b   6.10608868
_cell_length_c   4.84927700
_cell_angle_alpha   90.00000000
_cell_angle_beta   90.00000000
_cell_angle_gamma   117.47107683
_symmetry_Int_Tables_number   1
_chemical_formula_structural   LiMg6W
_chemical_formula_sum   'Li1 Mg6 W1'
_cell_volume   160.41544732
_cell_formula_units_Z   1
loop_
 _symmetry_equiv_pos_site_id
 _symmetry_equiv_pos_as_xyz
  1  'x, y, z'
loop_
 _atom_site_type_symbol
 _atom_site_label
 _atom_site_symmetry_multiplicity
 _atom_site_fract_x
 _atom_site_fract_y
 _atom_site_fract_z
 _atom_site_occupancy
  Li  Li0  1  0.66439100  0.33560900  0.00000000  1
  Mg  Mg0  1  0.66272600  0.82964100  0.00000000  1
  Mg  Mg1  1  0.17035900  0.33727400  0.00000000  1
  Mg  Mg2  1  0.85258100  0.66999500  0.50000000  1
  Mg  Mg3  1  0.33000500  0.14741900  0.50000000  1
  Mg  Mg4  1  0.83152900  0.16847100  0.50000000  1
  Mg  Mg5  1  0.32459000  0.67541000  0.50000000  1
  W  W0  1  0.16382400  0.83617600  0.00000000  1
loop_
_geom_bond_atom_site_label_1
_geom_bond_atom_site_label_2
_geom_bond_distance
_geom_bond_site_symmetry_2
Li0 Mg4 2.987120 1_555
Li0 Mg4 2.987120 1_554
Li0 Mg1 3.021307 1_555
Li0 Mg0 3.021307 1_555
Li0 Mg2 3.033741 1_555
Li0 Mg2 3.033741 1_554
Li0 Mg3 3.033741 1_554
Li0 Mg3 3.033741 1_555
Li0 Mg1 3.084809 1_655
Li0 Mg0 3.084809 1_545
Li0 W0 3.168999 1_655
Li0 W0 3.168999 1_545
Mg0 Mg2 3.035729 1_554
Mg0 Mg2 3.035729 1_555
Mg0 Mg5 3.038878 1_554
Mg0 Mg5 3.038878 1_555
Mg0 W0 3.041547 1_655
Mg0 Mg4 3.042085 1_565
Mg0 Mg4 3.042085 1_564
Mg0 W0 3.064952 1_555
Mg0 Mg1 3.120615 1_555
Mg0 Mg1 3.217371 1_665
Mg1 Mg3 3.035729 1_555
Mg1 Mg3 3.035729 1_554
Mg1 Mg5 3.038878 1_555
Mg1 Mg5 3.038878 1_554
Mg1 W0 3.041547 1_545
Mg1 Mg4 3.042085 1_455
Mg1 Mg4 3.042085 1_454
Mg1 W0 3.064952 1_555
Mg2 Mg5 2.867026 1_655
Mg2 W0 2.956543 1_656
Mg2 W0 2.956543 1_655
Mg2 Mg4 3.005217 1_555
Mg2 Mg3 3.025907 1_665
Mg2 Mg4 3.105132 1_565
Mg2 Mg5 3.239345 1_555
Mg2 Mg3 3.312079 1_555
Mg3 Mg5 2.867026 1_545
Mg3 W0 2.956543 1_546
Mg3 W0 2.956543 1_545
Mg3 Mg4 3.005217 1_555
Mg3 Mg4 3.105132 1_455
Mg3 Mg5 3.239345 1_555
Mg4 Mg5 3.169821 1_545
Mg4 Mg5 3.169821 1_655
Mg5 W0 2.948764 1_555
Mg5 W0 2.948764 1_556
