# generated using pymatgen
data_Na3YbC2(O3F)2
_symmetry_space_group_name_H-M   'P 1'
_cell_length_a   15.59170068
_cell_length_b   15.59170068
_cell_length_c   7.06913201
_cell_angle_alpha   85.03796670
_cell_angle_beta   85.03796670
_cell_angle_gamma   153.09155501
_symmetry_Int_Tables_number   1
_chemical_formula_structural   Na3YbC2(O3F)2
_chemical_formula_sum   'Na12 Yb4 C8 O24 F8'
_cell_volume   722.00127328
_cell_formula_units_Z   4
loop_
 _symmetry_equiv_pos_site_id
 _symmetry_equiv_pos_as_xyz
  1  'x, y, z'
loop_
 _atom_site_type_symbol
 _atom_site_label
 _atom_site_symmetry_multiplicity
 _atom_site_fract_x
 _atom_site_fract_y
 _atom_site_fract_z
 _atom_site_occupancy
  Na  Na0  1  0.87135300  0.63058100  0.74627700  1
  Na  Na1  1  0.63058100  0.87135300  0.24627700  1
  Na  Na2  1  0.35657600  0.11648500  0.75480200  1
  Na  Na3  1  0.11648500  0.35657600  0.25480200  1
  Na  Na4  1  0.12371500  0.86881500  0.24513100  1
  Na  Na5  1  0.86881500  0.12371500  0.74513100  1
  Na  Na6  1  0.84046600  0.40592800  0.49495900  1
  Na  Na7  1  0.40592800  0.84046600  0.99495900  1
  Na  Na8  1  0.61990500  0.35990000  0.25513900  1
  Na  Na9  1  0.35990000  0.61990500  0.75513900  1
  Na  Na10  1  0.89465600  0.83883000  0.00698500  1
  Na  Na11  1  0.83883000  0.89465600  0.50698500  1
  Yb  Yb0  1  0.34739700  0.89873300  0.50697500  1
  Yb  Yb1  1  0.89873300  0.34739700  0.00697500  1
  Yb  Yb2  1  0.40181300  0.34674100  0.00816900  1
  Yb  Yb3  1  0.34674100  0.40181300  0.50816900  1
  C  C0  1  0.05635000  0.16801400  0.99239500  1
  C  C1  1  0.16801400  0.05635000  0.49239500  1
  C  C2  1  0.04831400  0.65957400  0.98849000  1
  C  C3  1  0.65957400  0.04831400  0.48849000  1
  C  C4  1  0.56592500  0.18029600  0.99010400  1
  C  C5  1  0.18029600  0.56592500  0.49010400  1
  C  C6  1  0.54502800  0.65646400  0.99563500  1
  C  C7  1  0.65646400  0.54502800  0.49563500  1
  O  O0  1  0.44777400  0.02975100  0.15127900  1
  O  O1  1  0.02975100  0.44777400  0.65127900  1
  O  O2  1  0.54329000  0.24168500  0.96775000  1
  O  O3  1  0.24168500  0.54329000  0.46775000  1
  O  O4  1  0.57038300  0.76121800  0.95686800  1
  O  O5  1  0.76121800  0.57038300  0.45686800  1
  O  O6  1  0.40118900  0.49524000  0.16091400  1
  O  O7  1  0.49524000  0.40118900  0.66091400  1
  O  O8  1  0.91395700  0.00286900  0.14634200  1
  O  O9  1  0.00286900  0.91395700  0.64634200  1
  O  O10  1  0.16859300  0.71679600  0.86452600  1
  O  O11  1  0.71679600  0.16859300  0.36452600  1
  O  O12  1  0.89761700  0.49057500  0.14261800  1
  O  O13  1  0.49057500  0.89761700  0.64261800  1
  O  O14  1  0.19239800  0.24442900  0.86838100  1
  O  O15  1  0.24442900  0.19239800  0.36838100  1
  O  O16  1  0.06294400  0.25673700  0.96250600  1
  O  O17  1  0.25673700  0.06294400  0.46250600  1
  O  O18  1  0.65438700  0.70086100  0.87493700  1
  O  O19  1  0.70086100  0.65438700  0.37493700  1
  O  O20  1  0.70546900  0.26662100  0.85568000  1
  O  O21  1  0.26662100  0.70546900  0.35568000  1
  O  O22  1  0.07450400  0.76565100  0.95831300  1
  O  O23  1  0.76565100  0.07450400  0.45831300  1
  F  F0  1  0.52034000  0.16400500  0.52764400  1
  F  F1  1  0.16400500  0.52034000  0.02764400  1
  F  F2  1  0.06614500  0.70919400  0.50836000  1
  F  F3  1  0.70919400  0.06614500  0.00836000  1
  F  F4  1  0.19005200  0.05157800  0.03015700  1
  F  F5  1  0.05157800  0.19005200  0.53015700  1
  F  F6  1  0.67117800  0.52507300  0.02113500  1
  F  F7  1  0.52507300  0.67117800  0.52113500  1
loop_
_geom_bond_atom_site_label_1
_geom_bond_atom_site_label_2
_geom_bond_distance
_geom_bond_site_symmetry_2
Na0 O5 2.465915 1_555
Na0 O22 2.487036 1_655
Na0 O2 2.653155 1_555
Na0 O9 2.697521 1_655
Na1 O4 2.465915 1_554
Na1 O23 2.487036 1_565
Na1 O3 2.653155 1_555
Na1 O8 2.697521 1_565
Na2 O2 2.383907 1_555
Na2 O17 2.434504 1_555
Na2 O22 2.443887 1_545
Na2 O7 2.635441 1_555
Na3 O3 2.383907 1_555
Na3 O16 2.434504 1_554
Na3 O23 2.443887 1_455
Na3 O6 2.635441 1_555
Na4 O22 2.432936 1_554
Na4 O17 2.446296 1_565
Na4 O5 2.502913 1_455
Na5 O23 2.432936 1_555
Na5 O16 2.446296 1_655
Na5 O4 2.502913 1_545
Na6 O20 2.368600 1_555
Na6 O12 2.385298 1_555
Na6 O11 2.536504 1_555
Na6 O1 2.758909 1_655
Na7 O21 2.368600 1_556
Na7 O13 2.385298 1_555
Na7 O10 2.536504 1_555
Na7 O0 2.758909 1_566
Na8 O2 2.468286 1_554
Na8 O5 2.472977 1_555
Na8 O17 2.506317 1_555
Na8 O12 2.631099 1_555
Na9 O3 2.468286 1_555
Na9 O4 2.472977 1_555
Na9 O16 2.506317 1_555
Na9 O13 2.631099 1_555
Na10 O9 2.435767 1_654
Na10 O19 2.452541 1_555
Na10 O18 2.472411 1_554
Na10 O8 2.591729 1_565
Na10 O14 2.878608 1_664
Na11 O8 2.435767 1_565
Na11 O18 2.452541 1_555
Na11 O19 2.472411 1_555
Na11 O9 2.591729 1_655
Na11 O15 2.878608 1_665
C0 O8 1.282704 1_456
C0 O16 1.288751 1_555
C0 O14 1.295344 1_555
C1 O9 1.282704 1_545
C1 O17 1.288751 1_555
C1 O15 1.295344 1_555
C2 O22 1.291163 1_555
C2 O12 1.292159 1_456
C2 O10 1.295109 1_555
C3 O23 1.291163 1_555
C3 O13 1.292159 1_545
C3 O11 1.295109 1_555
C4 O20 1.283246 1_555
C4 O2 1.285149 1_555
C4 O0 1.289901 1_556
C5 O21 1.283246 1_555
C5 O3 1.285149 1_555
C5 O1 1.289901 1_555
C6 O4 1.285031 1_555
C6 O18 1.286716 1_555
C6 O6 1.303061 1_556
C7 O5 1.285031 1_555
C7 O19 1.286716 1_555
C7 O7 1.303061 1_555
O0 Yb0 2.381955 1_545
O1 Yb1 2.381955 1_456
O6 Yb3 2.384122 1_555
O6 Yb2 2.645318 1_555
O7 Yb2 2.384122 1_556
O7 Yb3 2.645318 1_555
O10 Yb0 2.375742 1_555
O10 Yb1 2.633238 1_456
O11 Yb1 2.375742 1_555
O11 Yb0 2.633238 1_545
O12 Yb1 2.517936 1_555
O13 Yb0 2.517936 1_555
O14 Yb3 2.371505 1_555
O14 Yb2 2.392456 1_556
O15 Yb2 2.371505 1_555
O15 Yb3 2.392456 1_555
O18 Yb2 2.561419 1_556
O19 Yb3 2.561419 1_555
O20 Yb1 2.415014 1_556
O21 Yb0 2.415014 1_555
F0 Yb0 2.163653 1_545
F0 Na6 2.294919 1_555
F0 Na2 2.314758 1_555
F0 Na8 2.336303 1_555
F1 Yb1 2.163653 1_455
F1 Na7 2.294919 1_554
F1 Na3 2.314758 1_555
F1 Na9 2.336303 1_554
F2 Yb0 2.199690 1_555
F2 Na6 2.282610 1_455
F2 Na4 2.321204 1_555
F2 Na0 2.382389 1_455
F3 Yb1 2.199690 1_555
F3 Na7 2.282610 1_544
F3 Na5 2.321204 1_554
F3 Na1 2.382389 1_545
F4 Yb2 2.189264 1_555
F4 Na10 2.284752 1_445
F4 Na4 2.285134 1_545
F4 Na2 2.377629 1_554
F5 Yb3 2.189264 1_555
F5 Na11 2.284752 1_445
F5 Na5 2.285134 1_455
F5 Na3 2.377629 1_555
F6 Yb2 2.159244 1_555
F6 Na8 2.317385 1_555
F6 Na0 2.337452 1_554
F6 Na10 2.353180 1_555
F7 Yb3 2.159244 1_555
F7 Na9 2.317385 1_555
F7 Na1 2.337452 1_555
F7 Na11 2.353180 1_555
