# generated using pymatgen
data_Ba2LiLaCu3O7
_symmetry_space_group_name_H-M   'P 1'
_cell_length_a   3.95803511
_cell_length_b   3.95803668
_cell_length_c   12.89172137
_cell_angle_alpha   97.59446553
_cell_angle_beta   97.58959995
_cell_angle_gamma   89.83939061
_symmetry_Int_Tables_number   1
_chemical_formula_structural   Ba2LiLaCu3O7
_chemical_formula_sum   'Ba2 Li1 La1 Cu3 O7'
_cell_volume   198.41494629
_cell_formula_units_Z   1
loop_
 _symmetry_equiv_pos_site_id
 _symmetry_equiv_pos_as_xyz
  1  'x, y, z'
loop_
 _atom_site_type_symbol
 _atom_site_label
 _atom_site_symmetry_multiplicity
 _atom_site_fract_x
 _atom_site_fract_y
 _atom_site_fract_z
 _atom_site_occupancy
  Ba  Ba0  1  0.65127400  0.65139200  0.78109400  1
  Ba  Ba1  1  0.41414800  0.41413400  0.19096400  1
  Li  Li0  1  0.25975400  0.25983100  0.95555700  1
  La  La0  1  0.53179600  0.53187200  0.48841900  1
  Cu  Cu0  1  0.09163500  0.09145800  0.63549500  1
  Cu  Cu1  1  0.97740400  0.97770900  0.35258600  1
  Cu  Cu2  1  0.84366000  0.84337400  0.03828400  1
  O  O0  1  0.57948100  0.07976700  0.60570800  1
  O  O1  1  0.07984000  0.57922100  0.60570100  1
  O  O2  1  0.47867200  0.97889800  0.35530400  1
  O  O3  1  0.97866000  0.47902300  0.35531300  1
  O  O4  1  0.84826200  0.34514300  0.04090900  1
  O  O5  1  0.34551300  0.84811000  0.04085700  1
  O  O6  1  0.16990100  0.17006900  0.80403200  1
loop_
_geom_bond_atom_site_label_1
_geom_bond_atom_site_label_2
_geom_bond_distance
_geom_bond_site_symmetry_2
Ba0 O6 2.768582 1_555
Ba0 O6 2.810200 1_655
Ba0 O6 2.810443 1_565
Ba0 O6 2.866809 1_665
Ba0 O1 2.965094 1_555
Ba0 O0 2.965414 1_555
Ba0 O0 2.984742 1_565
Ba0 O1 2.985185 1_655
Ba0 Cu2 3.289524 1_556
Ba1 O4 2.739494 1_555
Ba1 O5 2.739734 1_555
Ba1 O4 2.748217 1_455
Ba1 O5 2.748875 1_545
Ba1 O3 2.855917 1_555
Ba1 O2 2.856413 1_555
Ba1 O2 2.888032 1_545
Ba1 O3 2.888679 1_455
Li0 O6 1.924137 1_555
Li0 O4 2.085550 1_456
Li0 O5 2.086160 1_546
Li0 O5 2.444402 1_556
Li0 O4 2.445347 1_556
La0 O0 2.466761 1_565
La0 O1 2.467292 1_655
La0 O1 2.481704 1_555
La0 O0 2.482332 1_555
La0 O2 2.587276 1_545
La0 O3 2.587814 1_455
La0 O3 2.611775 1_555
La0 O2 2.612451 1_555
Cu0 O0 2.012222 1_455
Cu0 O1 2.012519 1_545
Cu0 O1 2.016835 1_555
Cu0 O0 2.017099 1_555
Cu0 O6 2.134853 1_555
Cu1 O3 1.978751 1_555
Cu1 O2 1.978913 1_555
Cu1 O2 1.979721 1_655
Cu1 O3 1.979888 1_565
Cu2 O5 1.976333 1_555
Cu2 O4 1.976765 1_555
Cu2 O4 1.981925 1_565
Cu2 O5 1.982343 1_655
