# generated using pymatgen
data_Mn7BiO12
_symmetry_space_group_name_H-M   'P 1'
_cell_length_a   6.57196195
_cell_length_b   6.57196195
_cell_length_c   6.57196195
_cell_angle_alpha   109.47122063
_cell_angle_beta   109.47122063
_cell_angle_gamma   109.47122063
_symmetry_Int_Tables_number   1
_chemical_formula_structural   Mn7BiO12
_chemical_formula_sum   'Mn7 Bi1 O12'
_cell_volume   218.50593108
_cell_formula_units_Z   1
loop_
 _symmetry_equiv_pos_site_id
 _symmetry_equiv_pos_as_xyz
  1  'x, y, z'
loop_
 _atom_site_type_symbol
 _atom_site_label
 _atom_site_symmetry_multiplicity
 _atom_site_fract_x
 _atom_site_fract_y
 _atom_site_fract_z
 _atom_site_occupancy
  Mn  Mn0  1  0.50000000  0.50000000  0.00000000  1
  Mn  Mn1  1  0.50000000  0.00000000  0.50000000  1
  Mn  Mn2  1  0.00000000  0.50000000  0.50000000  1
  Mn  Mn3  1  0.50000000  0.50000000  0.50000000  1
  Mn  Mn4  1  0.00000000  0.00000000  0.50000000  1
  Mn  Mn5  1  0.00000000  0.50000000  0.00000000  1
  Mn  Mn6  1  0.50000000  0.00000000  0.00000000  1
  Bi  Bi0  1  0.00000000  0.00000000  0.00000000  1
  O  O0  1  0.30793100  0.48265300  0.17472200  1
  O  O1  1  0.30793100  0.13321000  0.82527800  1
  O  O2  1  0.69206900  0.51734700  0.82527800  1
  O  O3  1  0.69206900  0.86679000  0.17472200  1
  O  O4  1  0.86679000  0.17472200  0.69206900  1
  O  O5  1  0.48265300  0.17472200  0.30793100  1
  O  O6  1  0.13321000  0.82527800  0.30793100  1
  O  O7  1  0.51734700  0.82527800  0.69206900  1
  O  O8  1  0.17472200  0.30793100  0.48265300  1
  O  O9  1  0.82527800  0.69206900  0.51734700  1
  O  O10  1  0.82527800  0.30793100  0.13321000  1
  O  O11  1  0.17472200  0.69206900  0.86679000  1
loop_
_geom_bond_atom_site_label_1
_geom_bond_atom_site_label_2
_geom_bond_distance
_geom_bond_site_symmetry_2
Mn0 O1 1.970389 1_554
Mn0 O3 1.970389 1_555
Mn0 O2 1.970395 1_554
Mn0 O0 1.970395 1_555
Mn1 O6 1.970389 1_545
Mn1 O4 1.970389 1_555
Mn1 O7 1.970395 1_545
Mn1 O5 1.970395 1_555
Mn2 O10 1.970389 1_455
Mn2 O11 1.970389 1_555
Mn2 O9 1.970395 1_455
Mn2 O8 1.970395 1_555
Mn3 O2 2.029489 1_555
Mn3 O9 2.029489 1_555
Mn3 O7 2.029489 1_555
Mn3 O5 2.029489 1_555
Mn3 O8 2.029489 1_555
Mn3 O0 2.029489 1_555
Mn4 O1 2.029487 1_555
Mn4 O3 2.029487 1_445
Mn4 O8 2.029489 1_555
Mn4 O9 2.029489 1_445
Mn4 O4 2.029494 1_455
Mn4 O6 2.029494 1_545
Mn5 O6 2.029487 1_555
Mn5 O4 2.029487 1_454
Mn5 O0 2.029489 1_555
Mn5 O2 2.029489 1_454
Mn5 O11 2.029494 1_554
Mn5 O10 2.029494 1_455
Mn6 O10 2.029487 1_555
Mn6 O11 2.029487 1_544
Mn6 O5 2.029489 1_555
Mn6 O7 2.029489 1_544
Mn6 O3 2.029494 1_545
Mn6 O1 2.029494 1_554
Bi0 O0 2.686738 1_555
Bi0 O8 2.686738 1_555
Bi0 O5 2.686738 1_555
Bi0 O2 2.686738 1_444
Bi0 O9 2.686738 1_444
Bi0 O7 2.686738 1_444
Bi0 O10 2.686739 1_455
Bi0 O6 2.686739 1_545
Bi0 O1 2.686739 1_554
Bi0 O4 2.686739 1_454
Bi0 O3 2.686739 1_445
Bi0 O11 2.686739 1_544
