# generated using pymatgen
data_HfTc2Ge
_symmetry_space_group_name_H-M   'P 1'
_cell_length_a   10.77701712
_cell_length_b   10.77701712
_cell_length_c   10.77701712
_cell_angle_alpha   128.17769837
_cell_angle_beta   117.42211635
_cell_angle_gamma   85.48932039
_symmetry_Int_Tables_number   1
_chemical_formula_structural   HfTc2Ge
_chemical_formula_sum   'Hf1 Tc2 Ge1'
_cell_volume   834.45329147
_cell_formula_units_Z   1
loop_
 _symmetry_equiv_pos_site_id
 _symmetry_equiv_pos_as_xyz
  1  'x, y, z'
loop_
 _atom_site_type_symbol
 _atom_site_label
 _atom_site_symmetry_multiplicity
 _atom_site_fract_x
 _atom_site_fract_y
 _atom_site_fract_z
 _atom_site_occupancy
  Hf  Hf0  1  0.00000000  0.50000000  0.50000000  1
  Tc  Tc0  1  0.00000000  0.25321800  0.25321800  1
  Tc  Tc1  1  0.00000000  0.74678200  0.74678200  1
  Ge  Ge0  1  0.00000000  0.00000000  0.00000000  1
loop_
_geom_bond_atom_site_label_1
_geom_bond_atom_site_label_2
_geom_bond_distance
_geom_bond_site_symmetry_2
Hf0 Tc1 2.324344 1_555
Hf0 Tc0 2.324344 1_555
Ge0 Tc0 2.384963 1_555
Ge0 Tc1 2.384963 1_544
