# generated using pymatgen
data_Nd2CdSb4
_symmetry_space_group_name_H-M   'P 1'
_cell_length_a   4.32638901
_cell_length_b   4.32638901
_cell_length_c   11.07314848
_cell_angle_alpha   90.00000000
_cell_angle_beta   90.00000000
_cell_angle_gamma   90.00000000
_symmetry_Int_Tables_number   1
_chemical_formula_structural   Nd2CdSb4
_chemical_formula_sum   'Nd2 Cd1 Sb4'
_cell_volume   207.26322758
_cell_formula_units_Z   1
loop_
 _symmetry_equiv_pos_site_id
 _symmetry_equiv_pos_as_xyz
  1  'x, y, z'
loop_
 _atom_site_type_symbol
 _atom_site_label
 _atom_site_symmetry_multiplicity
 _atom_site_fract_x
 _atom_site_fract_y
 _atom_site_fract_z
 _atom_site_occupancy
  Nd  Nd0  1  0.50000000  -0.00000000  0.76673559  1
  Nd  Nd1  1  -0.00000000  0.50000000  0.23326441  1
  Cd  Cd0  1  0.50000000  0.50000000  0.50000000  1
  Sb  Sb0  1  0.50000000  0.00000000  0.33178016  1
  Sb  Sb1  1  -0.00000000  0.50000000  0.66821984  1
  Sb  Sb2  1  0.50000000  0.50000000  0.00000000  1
  Sb  Sb3  1  -0.00000000  -0.00000000  0.00000000  1
loop_
_geom_bond_atom_site_label_1
_geom_bond_atom_site_label_2
_geom_bond_distance
_geom_bond_site_symmetry_2
Nd0 Sb1 3.247898 1_555
Nd0 Sb1 3.247898 1_545
Nd0 Sb1 3.247898 1_655
Nd0 Sb1 3.247898 1_645
Nd0 Sb3 3.369147 1_556
Nd0 Sb2 3.369147 1_546
Nd0 Sb3 3.369147 1_656
Nd0 Sb2 3.369147 1_556
Nd1 Sb0 3.247898 1_565
Nd1 Sb0 3.247898 1_465
Nd1 Sb0 3.247898 1_455
Nd1 Sb0 3.247898 1_555
Nd1 Sb2 3.369147 1_555
Nd1 Sb3 3.369147 1_555
Nd1 Sb3 3.369147 1_565
Nd1 Sb2 3.369147 1_455
Cd0 Sb1 2.854671 1_555
Cd0 Sb1 2.854671 1_655
Cd0 Sb0 2.854671 1_555
Cd0 Sb0 2.854671 1_565
Cd0 Nd1 3.661035 1_555
Cd0 Nd0 3.661035 1_565
Cd0 Nd0 3.661035 1_555
Cd0 Nd1 3.661035 1_655
Sb2 Sb3 3.059219 1_555
Sb2 Sb3 3.059219 1_565
Sb2 Sb3 3.059219 1_655
Sb2 Sb3 3.059219 1_665
