# generated using pymatgen
data_MgSn2
_symmetry_space_group_name_H-M   'P 1'
_cell_length_a   6.14622715
_cell_length_b   6.14622715
_cell_length_c   6.14622699
_cell_angle_alpha   57.39256501
_cell_angle_beta   57.39256501
_cell_angle_gamma   57.39256716
_symmetry_Int_Tables_number   1
_chemical_formula_structural   MgSn2
_chemical_formula_sum   'Mg2 Sn4'
_cell_volume   154.32539294
_cell_formula_units_Z   2
loop_
 _symmetry_equiv_pos_site_id
 _symmetry_equiv_pos_as_xyz
  1  'x, y, z'
loop_
 _atom_site_type_symbol
 _atom_site_label
 _atom_site_symmetry_multiplicity
 _atom_site_fract_x
 _atom_site_fract_y
 _atom_site_fract_z
 _atom_site_occupancy
  Mg  Mg0  1  0.16757700  0.16757700  0.16757700  1
  Mg  Mg1  1  0.83242300  0.83242300  0.83242300  1
  Sn  Sn0  1  0.00000000  0.66978400  0.33021600  1
  Sn  Sn1  1  0.33021600  0.00000000  0.66978400  1
  Sn  Sn2  1  0.50000000  0.50000000  0.50000000  1
  Sn  Sn3  1  0.66978400  0.33021600  0.00000000  1
loop_
_geom_bond_atom_site_label_1
_geom_bond_atom_site_label_2
_geom_bond_distance
_geom_bond_site_symmetry_2
Mg0 Sn1 3.221343 1_555
Mg0 Sn3 3.221343 1_555
Mg0 Sn0 3.221343 1_555
Mg0 Sn1 3.226662 1_554
Mg0 Sn0 3.226662 1_545
Mg0 Sn3 3.226662 1_455
Mg0 Sn2 3.407796 1_554
Mg0 Sn2 3.407796 1_455
Mg0 Sn2 3.407796 1_545
Mg0 Mg1 3.407882 1_445
Mg0 Mg1 3.407882 1_544
Mg0 Mg1 3.407882 1_454
Mg1 Sn0 3.221343 1_655
Mg1 Sn3 3.221343 1_556
Mg1 Sn1 3.221343 1_565
Mg1 Sn0 3.226662 1_656
Mg1 Sn1 3.226662 1_665
Mg1 Sn3 3.226662 1_566
Mg1 Sn2 3.407796 1_556
Mg1 Sn2 3.407796 1_565
Mg1 Sn2 3.407796 1_655
Sn0 Sn2 3.232384 1_455
Sn0 Sn2 3.232384 1_555
Sn0 Sn1 3.375898 1_564
Sn0 Sn3 3.375898 1_465
Sn0 Sn3 3.423813 1_456
Sn0 Sn1 3.423813 1_555
Sn0 Sn1 3.423813 1_465
Sn0 Sn3 3.423813 1_555
Sn1 Sn2 3.232384 1_555
Sn1 Sn2 3.232384 1_545
Sn1 Sn3 3.375898 1_456
Sn1 Sn3 3.423813 1_555
Sn1 Sn3 3.423813 1_546
Sn2 Sn3 3.232384 1_556
Sn2 Sn3 3.232384 1_555
