# generated using pymatgen
data_Li2MoO4
_symmetry_space_group_name_H-M   'P 1'
_cell_length_a   8.83065781
_cell_length_b   8.83065781
_cell_length_c   8.83065737
_cell_angle_alpha   107.83728261
_cell_angle_beta   107.83728263
_cell_angle_gamma   107.83728524
_symmetry_Int_Tables_number   1
_chemical_formula_structural   Li2MoO4
_chemical_formula_sum   'Li12 Mo6 O24'
_cell_volume   559.87387457
_cell_formula_units_Z   6
loop_
 _symmetry_equiv_pos_site_id
 _symmetry_equiv_pos_as_xyz
  1  'x, y, z'
loop_
 _atom_site_type_symbol
 _atom_site_label
 _atom_site_symmetry_multiplicity
 _atom_site_fract_x
 _atom_site_fract_y
 _atom_site_fract_z
 _atom_site_occupancy
  Li  Li0  1  0.62764321  0.22418470  0.39268080  1
  Li  Li1  1  0.93210763  0.70325641  0.10657566  1
  Li  Li2  1  0.06789237  0.29674359  0.89342434  1
  Li  Li3  1  0.39268080  0.62764321  0.22418470  1
  Li  Li4  1  0.10657566  0.93210763  0.70325641  1
  Li  Li5  1  0.70325641  0.10657566  0.93210763  1
  Li  Li6  1  0.60731920  0.37235679  0.77581530  1
  Li  Li7  1  0.22418470  0.39268080  0.62764321  1
  Li  Li8  1  0.29674359  0.89342434  0.06789237  1
  Li  Li9  1  0.77581530  0.60731920  0.37235679  1
  Li  Li10  1  0.89342434  0.06789237  0.29674359  1
  Li  Li11  1  0.37235679  0.77581530  0.60731920  1
  Mo  Mo0  1  0.96543389  0.55449186  0.73185684  1
  Mo  Mo1  1  0.03456611  0.44550814  0.26814316  1
  Mo  Mo2  1  0.55449186  0.73185684  0.96543389  1
  Mo  Mo3  1  0.26814316  0.03456611  0.44550814  1
  Mo  Mo4  1  0.73185684  0.96543389  0.55449186  1
  Mo  Mo5  1  0.44550814  0.26814316  0.03456611  1
  O  O0  1  0.81127080  0.47133575  0.50822518  1
  O  O1  1  0.81805270  0.11819007  0.77844036  1
  O  O2  1  0.50822518  0.81127080  0.47133575  1
  O  O3  1  0.45920535  0.13863969  0.15140952  1
  O  O4  1  0.84859048  0.54079465  0.86136031  1
  O  O5  1  0.86136031  0.84859048  0.54079465  1
  O  O6  1  0.22155964  0.18194730  0.88180993  1
  O  O7  1  0.49177482  0.18872920  0.52866425  1
  O  O8  1  0.77844036  0.81805270  0.11819007  1
  O  O9  1  0.25022983  0.91994575  0.57598775  1
  O  O10  1  0.88180993  0.22155964  0.18194730  1
  O  O11  1  0.11819007  0.77844036  0.81805270  1
  O  O12  1  0.47133575  0.50822518  0.81127080  1
  O  O13  1  0.18872920  0.52866425  0.49177482  1
  O  O14  1  0.13863969  0.15140952  0.45920535  1
  O  O15  1  0.18194730  0.88180993  0.22155964  1
  O  O16  1  0.91994575  0.57598775  0.25022983  1
  O  O17  1  0.52866425  0.49177482  0.18872920  1
  O  O18  1  0.54079465  0.86136031  0.84859048  1
  O  O19  1  0.74977017  0.08005425  0.42401225  1
  O  O20  1  0.15140952  0.45920535  0.13863969  1
  O  O21  1  0.42401225  0.74977017  0.08005425  1
  O  O22  1  0.57598775  0.25022983  0.91994575  1
  O  O23  1  0.08005425  0.42401225  0.74977017  1
loop_
_geom_bond_atom_site_label_1
_geom_bond_atom_site_label_2
_geom_bond_distance
_geom_bond_site_symmetry_2
Li0 O3 1.925256 1_555
Li0 O19 1.932204 1_555
Li0 O7 1.965296 1_555
Li0 O0 1.971764 1_555
Li1 O8 1.934909 1_555
Li1 O4 1.939424 1_554
Li1 O16 1.940824 1_555
Li1 O15 1.974914 1_655
Li2 O6 1.934909 1_555
Li2 O20 1.939424 1_556
Li2 O23 1.940824 1_555
Li2 O1 1.974914 1_455
Li3 O20 1.925256 1_555
Li3 O21 1.932204 1_555
Li3 O17 1.965296 1_555
Li3 O2 1.971764 1_555
Li4 O11 1.934909 1_555
Li4 O5 1.939424 1_455
Li4 O9 1.940824 1_555
Li4 O6 1.974914 1_565
Li5 O1 1.934909 1_555
Li5 O18 1.939424 1_545
Li5 O22 1.940824 1_555
Li5 O10 1.974914 1_556
Li6 O4 1.925256 1_555
Li6 O22 1.932204 1_555
Li6 O12 1.965296 1_555
Li6 O7 1.971764 1_555
Li7 O14 1.925256 1_555
Li7 O23 1.932204 1_555
Li7 O13 1.965296 1_555
Li7 O12 1.971764 1_555
Li8 O15 1.934909 1_555
Li8 O3 1.939424 1_565
Li8 O21 1.940824 1_555
Li8 O11 1.974914 1_554
Li9 O5 1.925256 1_555
Li9 O16 1.932204 1_555
Li9 O0 1.965296 1_555
Li9 O17 1.971764 1_555
Li10 O10 1.934909 1_555
Li10 O14 1.939424 1_655
Li10 O19 1.940824 1_555
Li10 O8 1.974914 1_545
Li11 O18 1.925256 1_555
Li11 O9 1.932204 1_555
Li11 O2 1.965296 1_555
Li11 O13 1.971764 1_555
Mo0 O23 1.762152 1_655
Mo0 O4 1.765855 1_555
Mo0 O11 1.767611 1_655
Mo0 O0 1.773294 1_555
Mo1 O16 1.762152 1_455
Mo1 O20 1.765855 1_555
Mo1 O10 1.767611 1_455
Mo1 O13 1.773294 1_555
Mo2 O21 1.762152 1_556
Mo2 O18 1.765855 1_555
Mo2 O8 1.767611 1_556
Mo2 O12 1.773294 1_555
Mo3 O9 1.762152 1_545
Mo3 O14 1.765855 1_555
Mo3 O15 1.767611 1_545
Mo3 O7 1.773294 1_555
Mo4 O19 1.762152 1_565
Mo4 O5 1.765855 1_555
Mo4 O1 1.767611 1_565
Mo4 O2 1.773294 1_555
Mo5 O22 1.762152 1_554
Mo5 O3 1.765855 1_555
Mo5 O6 1.767611 1_554
Mo5 O17 1.773294 1_555
