# generated using pymatgen
data_Hf2As
_symmetry_space_group_name_H-M   'P 1'
_cell_length_a   3.66451500
_cell_length_b   12.55987800
_cell_length_c   15.51604600
_cell_angle_alpha   90.00000000
_cell_angle_beta   90.00000000
_cell_angle_gamma   90.00000000
_symmetry_Int_Tables_number   1
_chemical_formula_structural   Hf2As
_chemical_formula_sum   'Hf24 As12'
_cell_volume   714.13938157
_cell_formula_units_Z   12
loop_
 _symmetry_equiv_pos_site_id
 _symmetry_equiv_pos_as_xyz
  1  'x, y, z'
loop_
 _atom_site_type_symbol
 _atom_site_label
 _atom_site_symmetry_multiplicity
 _atom_site_fract_x
 _atom_site_fract_y
 _atom_site_fract_z
 _atom_site_occupancy
  Hf  Hf0  1  0.50000000  0.65143500  0.47817700  1
  Hf  Hf1  1  0.50000000  0.34856500  0.52182300  1
  Hf  Hf2  1  0.00000000  0.84856500  0.97817700  1
  Hf  Hf3  1  0.00000000  0.15143500  0.02182300  1
  Hf  Hf4  1  0.50000000  0.59268100  0.24469800  1
  Hf  Hf5  1  0.50000000  0.40731900  0.75530200  1
  Hf  Hf6  1  0.00000000  0.90731900  0.74469800  1
  Hf  Hf7  1  0.00000000  0.09268100  0.25530200  1
  Hf  Hf8  1  0.50000000  0.08335200  0.42437400  1
  Hf  Hf9  1  0.50000000  0.91664800  0.57562600  1
  Hf  Hf10  1  0.00000000  0.41664800  0.92437400  1
  Hf  Hf11  1  0.00000000  0.58335200  0.07562600  1
  Hf  Hf12  1  0.50000000  0.97128300  0.10693900  1
  Hf  Hf13  1  0.50000000  0.02871700  0.89306100  1
  Hf  Hf14  1  0.00000000  0.52871700  0.60693900  1
  Hf  Hf15  1  0.00000000  0.47128300  0.39306100  1
  Hf  Hf16  1  0.50000000  0.30767600  0.29263100  1
  Hf  Hf17  1  0.50000000  0.69232400  0.70736900  1
  Hf  Hf18  1  0.00000000  0.19232400  0.79263100  1
  Hf  Hf19  1  0.00000000  0.80767600  0.20736900  1
  Hf  Hf20  1  0.50000000  0.38246000  0.07989200  1
  Hf  Hf21  1  0.50000000  0.61754000  0.92010800  1
  Hf  Hf22  1  0.00000000  0.11754000  0.57989200  1
  Hf  Hf23  1  0.00000000  0.88246000  0.42010800  1
  As  As0  1  0.50000000  0.93453200  0.29002400  1
  As  As1  1  0.50000000  0.06546800  0.70997600  1
  As  As2  1  0.00000000  0.56546800  0.79002400  1
  As  As3  1  0.00000000  0.43453200  0.20997600  1
  As  As4  1  0.50000000  0.74352500  0.08703300  1
  As  As5  1  0.50000000  0.25647500  0.91296700  1
  As  As6  1  0.00000000  0.75647500  0.58703300  1
  As  As7  1  0.00000000  0.24352500  0.41296700  1
  As  As8  1  0.50000000  0.18596700  0.14955900  1
  As  As9  1  0.50000000  0.81403300  0.85044100  1
  As  As10  1  0.00000000  0.31403300  0.64955900  1
  As  As11  1  0.00000000  0.68596700  0.35044100  1
loop_
_geom_bond_atom_site_label_1
_geom_bond_atom_site_label_2
_geom_bond_distance
_geom_bond_site_symmetry_2
As0 Hf19 2.745999 1_555
As0 Hf19 2.745999 1_655
As0 Hf7 2.755528 1_565
As0 Hf7 2.755528 1_665
As0 Hf8 2.799864 1_565
As0 Hf23 2.803356 1_655
As0 Hf23 2.803356 1_555
As0 Hf12 2.878012 1_555
As1 Hf18 2.745999 1_555
As1 Hf18 2.745999 1_655
As1 Hf6 2.755528 1_545
As1 Hf6 2.755528 1_645
As1 Hf9 2.799864 1_545
As1 Hf22 2.803356 1_655
As1 Hf22 2.803356 1_555
As1 Hf13 2.878012 1_555
As2 Hf17 2.745999 1_455
As2 Hf17 2.745999 1_555
As2 Hf5 2.755528 1_555
As2 Hf5 2.755528 1_455
As2 Hf10 2.799864 1_555
As2 Hf21 2.803356 1_455
As2 Hf21 2.803356 1_555
As2 Hf14 2.878012 1_555
As3 Hf16 2.745999 1_455
As3 Hf16 2.745999 1_555
As3 Hf4 2.755528 1_555
As3 Hf4 2.755528 1_455
As3 Hf11 2.799864 1_555
As3 Hf20 2.803356 1_455
As3 Hf20 2.803356 1_555
As3 Hf15 2.878012 1_555
As4 Hf11 2.726838 1_555
As4 Hf11 2.726838 1_655
As4 Hf19 2.737257 1_655
As4 Hf19 2.737257 1_555
As4 Hf2 2.819657 1_554
As4 Hf2 2.819657 1_654
As4 Hf12 2.877238 1_555
As4 Hf21 3.035133 1_554
As4 Hf4 3.094189 1_555
As5 Hf10 2.726838 1_655
As5 Hf10 2.726838 1_555
As5 Hf18 2.737257 1_555
As5 Hf18 2.737257 1_655
As5 Hf3 2.819657 1_556
As5 Hf3 2.819657 1_656
As5 Hf13 2.877238 1_555
As5 Hf20 3.035133 1_556
As5 Hf5 3.094189 1_555
As6 Hf9 2.726838 1_455
As6 Hf9 2.726838 1_555
As6 Hf17 2.737257 1_555
As6 Hf17 2.737257 1_455
As6 Hf0 2.819657 1_455
As6 Hf0 2.819657 1_555
As6 Hf14 2.877238 1_555
As6 Hf23 3.035133 1_555
As6 Hf6 3.094189 1_555
As7 Hf8 2.726838 1_555
As7 Hf8 2.726838 1_455
As7 Hf16 2.737257 1_455
As7 Hf16 2.737257 1_555
As7 Hf1 2.819657 1_555
As7 Hf1 2.819657 1_455
As7 Hf15 2.877238 1_555
As7 Hf22 3.035133 1_555
As7 Hf7 3.094189 1_555
As8 Hf20 2.694278 1_555
As8 Hf16 2.695325 1_555
As8 Hf7 2.724316 1_555
As8 Hf7 2.724316 1_655
As8 Hf3 2.733758 1_555
As8 Hf3 2.733758 1_655
As8 Hf12 2.776312 1_545
As9 Hf21 2.694278 1_555
As9 Hf17 2.695325 1_555
As9 Hf6 2.724316 1_655
As9 Hf6 2.724316 1_555
As9 Hf2 2.733758 1_655
As9 Hf2 2.733758 1_555
As9 Hf13 2.776312 1_565
As10 Hf22 2.694278 1_555
As10 Hf18 2.695325 1_555
As10 Hf5 2.724316 1_555
As10 Hf5 2.724316 1_455
As10 Hf1 2.733758 1_455
As10 Hf1 2.733758 1_555
As10 Hf14 2.776312 1_555
As11 Hf23 2.694278 1_555
As11 Hf19 2.695325 1_555
As11 Hf4 2.724316 1_455
As11 Hf4 2.724316 1_555
As11 Hf0 2.733758 1_555
As11 Hf0 2.733758 1_455
As11 Hf15 2.776312 1_555
