# generated using pymatgen
data_Sm(GeIr)2
_symmetry_space_group_name_H-M   'P 1'
_cell_length_a   4.24441947
_cell_length_b   4.24441947
_cell_length_c   10.03156961
_cell_angle_alpha   90.00000000
_cell_angle_beta   90.00000000
_cell_angle_gamma   90.00000000
_symmetry_Int_Tables_number   1
_chemical_formula_structural   Sm(GeIr)2
_chemical_formula_sum   'Sm2 Ge4 Ir4'
_cell_volume   180.71969595
_cell_formula_units_Z   2
loop_
 _symmetry_equiv_pos_site_id
 _symmetry_equiv_pos_as_xyz
  1  'x, y, z'
loop_
 _atom_site_type_symbol
 _atom_site_label
 _atom_site_symmetry_multiplicity
 _atom_site_fract_x
 _atom_site_fract_y
 _atom_site_fract_z
 _atom_site_occupancy
  Sm  Sm0  1  -0.00000000  0.50000000  0.25538798  1
  Sm  Sm1  1  0.50000000  -0.00000000  0.74461202  1
  Ge  Ge0  1  -0.00000000  0.00000000  0.50000000  1
  Ge  Ge1  1  0.50000000  0.50000000  0.50000000  1
  Ge  Ge2  1  -0.00000000  0.50000000  0.86850329  1
  Ge  Ge3  1  0.50000000  -0.00000000  0.13149671  1
  Ir  Ir0  1  0.00000000  0.00000000  -0.00000000  1
  Ir  Ir1  1  0.50000000  0.50000000  -0.00000000  1
  Ir  Ir2  1  0.00000000  0.50000000  0.62755802  1
  Ir  Ir3  1  0.50000000  -0.00000000  0.37244198  1
loop_
_geom_bond_atom_site_label_1
_geom_bond_atom_site_label_2
_geom_bond_distance
_geom_bond_site_symmetry_2
Ge0 Ir2 2.478138 1_555
Ge0 Ir2 2.478138 1_545
Ge0 Ir3 2.478138 1_555
Ge0 Ir3 2.478138 1_455
Ge0 Sm1 3.244244 1_555
Ge0 Sm1 3.244244 1_455
Ge0 Sm0 3.244244 1_555
Ge0 Sm0 3.244244 1_545
Ge1 Ir2 2.478138 1_555
Ge1 Ir3 2.478138 1_565
Ge1 Ir2 2.478138 1_655
Ge1 Ir3 2.478138 1_555
Ge1 Sm1 3.244244 1_555
Ge1 Sm0 3.244244 1_555
Ge1 Sm1 3.244244 1_565
Ge1 Sm0 3.244244 1_655
Ge2 Ir2 2.417059 1_555
Ge2 Ir1 2.498769 1_556
Ge2 Ir0 2.498769 1_556
Ge2 Ir0 2.498769 1_566
Ge2 Ir1 2.498769 1_456
Ge2 Sm1 3.248409 1_565
Ge2 Sm1 3.248409 1_465
Ge2 Sm1 3.248409 1_555
Ge2 Sm1 3.248409 1_455
Ge3 Ir3 2.417059 1_555
Ge3 Ir0 2.498769 1_555
Ge3 Ir1 2.498769 1_545
Ge3 Ir1 2.498769 1_555
Ge3 Ir0 2.498769 1_655
Ge3 Sm0 3.248409 1_655
Ge3 Sm0 3.248409 1_545
Ge3 Sm0 3.248409 1_645
Ge3 Sm0 3.248409 1_555
Ir0 Sm1 3.326759 1_454
Ir0 Sm1 3.326759 1_554
Ir0 Sm0 3.326759 1_545
Ir0 Sm0 3.326759 1_555
Ir1 Sm1 3.326759 1_554
Ir1 Sm1 3.326759 1_564
Ir1 Sm0 3.326759 1_655
Ir1 Sm0 3.326759 1_555
Ir2 Sm1 3.222790 1_565
Ir2 Sm1 3.222790 1_555
Ir2 Sm1 3.222790 1_455
Ir2 Sm1 3.222790 1_465
Ir3 Sm0 3.222790 1_655
Ir3 Sm0 3.222790 1_545
Ir3 Sm0 3.222790 1_645
Ir3 Sm0 3.222790 1_555
