# generated using pymatgen
data_KSm2I5
_symmetry_space_group_name_H-M   'P 1'
_cell_length_a   8.68851000
_cell_length_b   9.69311500
_cell_length_c   14.20313336
_cell_angle_alpha   89.55657163
_cell_angle_beta   90.00000000
_cell_angle_gamma   90.00000000
_symmetry_Int_Tables_number   1
_chemical_formula_structural   KSm2I5
_chemical_formula_sum   'K4 Sm8 I20'
_cell_volume   1196.13398215
_cell_formula_units_Z   4
loop_
 _symmetry_equiv_pos_site_id
 _symmetry_equiv_pos_as_xyz
  1  'x, y, z'
loop_
 _atom_site_type_symbol
 _atom_site_label
 _atom_site_symmetry_multiplicity
 _atom_site_fract_x
 _atom_site_fract_y
 _atom_site_fract_z
 _atom_site_occupancy
  K  K0  1  0.45750600  0.50403500  0.82532100  1
  K  K1  1  0.54249400  0.49596500  0.17467900  1
  K  K2  1  0.95750600  0.49596500  0.67467900  1
  K  K3  1  0.04249400  0.50403500  0.32532100  1
  Sm  Sm0  1  0.44463800  0.99151800  0.82722200  1
  Sm  Sm1  1  0.55536200  0.00848200  0.17277800  1
  Sm  Sm2  1  0.94463800  0.00848200  0.67277800  1
  Sm  Sm3  1  0.05536200  0.99151800  0.32722200  1
  Sm  Sm4  1  0.41275500  0.76722000  0.49739600  1
  Sm  Sm5  1  0.58724500  0.23278000  0.50260400  1
  Sm  Sm6  1  0.91275500  0.23278000  0.00260400  1
  Sm  Sm7  1  0.08724500  0.76722000  0.99739600  1
  I  I0  1  0.33651100  0.46632300  0.58495800  1
  I  I1  1  0.66348900  0.53367700  0.41504200  1
  I  I2  1  0.83651100  0.53367700  0.91504200  1
  I  I3  1  0.16348900  0.46632300  0.08495800  1
  I  I4  1  0.65287300  0.78760600  0.67831300  1
  I  I5  1  0.34712700  0.21239400  0.32168700  1
  I  I6  1  0.15287300  0.21239400  0.82168700  1
  I  I7  1  0.84712700  0.78760600  0.17831300  1
  I  I8  1  0.18208300  0.76871200  0.78153200  1
  I  I9  1  0.81791700  0.23128800  0.21846800  1
  I  I10  1  0.68208300  0.23128800  0.71846800  1
  I  I11  1  0.31791700  0.76871200  0.28153200  1
  I  I12  1  0.03790100  0.78322100  0.50636200  1
  I  I13  1  0.96209900  0.21677900  0.49363800  1
  I  I14  1  0.53790100  0.21677900  0.99363800  1
  I  I15  1  0.46209900  0.78322100  0.00636200  1
  I  I16  1  0.83446200  0.95510900  0.89431500  1
  I  I17  1  0.16553800  0.04489100  0.10568500  1
  I  I18  1  0.33446200  0.04489100  0.60568500  1
  I  I19  1  0.66553800  0.95510900  0.39431500  1
loop_
_geom_bond_atom_site_label_1
_geom_bond_atom_site_label_2
_geom_bond_distance
_geom_bond_site_symmetry_2
I0 Sm4 3.230494 1_555
I0 Sm5 3.358517 1_555
I0 K2 3.543429 1_455
I0 K0 3.593448 1_555
I1 Sm5 3.230494 1_555
I1 Sm4 3.358517 1_555
I1 K3 3.543429 1_655
I1 K1 3.593448 1_555
I2 Sm6 3.230494 1_556
I2 Sm7 3.358517 1_655
I2 K0 3.543429 1_555
I2 K2 3.593448 1_555
I3 Sm7 3.230494 1_554
I3 Sm6 3.358517 1_455
I3 K1 3.543429 1_555
I3 K3 3.593448 1_555
I4 Sm4 3.316957 1_555
I4 Sm2 3.318674 1_565
I4 Sm0 3.423147 1_555
I4 K0 3.835024 1_555
I4 K2 3.873232 1_555
I5 Sm5 3.316957 1_555
I5 Sm3 3.318674 1_545
I5 Sm1 3.423147 1_555
I5 K1 3.835024 1_555
I5 K3 3.873232 1_555
I6 Sm6 3.316957 1_456
I6 Sm0 3.318674 1_545
I6 Sm2 3.423147 1_455
I6 K2 3.835024 1_455
I6 K0 3.873232 1_555
I7 Sm7 3.316957 1_654
I7 Sm1 3.318674 1_565
I7 Sm3 3.423147 1_655
I7 K3 3.835024 1_655
I7 K1 3.873232 1_555
I8 Sm7 3.174669 1_555
I8 Sm0 3.211072 1_555
I8 Sm2 3.462375 1_465
I8 K0 3.559586 1_555
I8 K2 3.627975 1_455
I9 Sm6 3.174669 1_555
I9 Sm1 3.211072 1_555
I9 Sm3 3.462375 1_645
I9 K1 3.559586 1_555
I9 K3 3.627975 1_655
I10 Sm5 3.174669 1_555
I10 Sm2 3.211072 1_555
I10 Sm0 3.462375 1_545
I10 K2 3.559586 1_555
I10 K0 3.627975 1_555
I11 Sm4 3.174669 1_555
I11 Sm3 3.211072 1_555
I11 Sm1 3.462375 1_565
I11 K3 3.559586 1_555
I11 K1 3.627975 1_555
I12 Sm3 3.239408 1_555
I12 Sm4 3.263146 1_555
I12 Sm2 3.330289 1_465
I12 K2 3.721949 1_455
I12 K3 3.747607 1_555
I13 Sm2 3.239408 1_555
I13 Sm5 3.263146 1_555
I13 Sm3 3.330289 1_645
I13 K3 3.721949 1_655
I13 K2 3.747607 1_555
I14 Sm1 3.239408 1_556
I14 Sm6 3.263146 1_556
I14 Sm0 3.330289 1_545
I14 K0 3.721949 1_555
I14 K1 3.747607 1_556
I15 Sm0 3.239408 1_554
I15 Sm7 3.263146 1_554
I15 Sm1 3.330289 1_565
I15 K1 3.721949 1_555
I15 K0 3.747607 1_554
I16 Sm6 3.183794 1_566
I16 Sm7 3.200450 1_655
I16 Sm2 3.325567 1_565
I16 Sm0 3.535410 1_555
I17 Sm7 3.183794 1_544
I17 Sm6 3.200450 1_455
I17 Sm3 3.325567 1_545
I17 Sm1 3.535410 1_555
I18 Sm4 3.183794 1_545
I18 Sm5 3.200450 1_555
I18 Sm0 3.325567 1_545
I18 Sm2 3.535410 1_455
I19 Sm5 3.183794 1_565
I19 Sm4 3.200450 1_555
I19 Sm1 3.325567 1_565
I19 Sm3 3.535410 1_655
