# generated using pymatgen
data_K2SnH2Cl4O
_symmetry_space_group_name_H-M   'P 1'
_cell_length_a   8.37411100
_cell_length_b   9.27835900
_cell_length_c   12.17434800
_cell_angle_alpha   90.00000000
_cell_angle_beta   90.00000000
_cell_angle_gamma   90.00000000
_symmetry_Int_Tables_number   1
_chemical_formula_structural   K2SnH2Cl4O
_chemical_formula_sum   'K8 Sn4 H8 Cl16 O4'
_cell_volume   945.92259029
_cell_formula_units_Z   4
loop_
 _symmetry_equiv_pos_site_id
 _symmetry_equiv_pos_as_xyz
  1  'x, y, z'
loop_
 _atom_site_type_symbol
 _atom_site_label
 _atom_site_symmetry_multiplicity
 _atom_site_fract_x
 _atom_site_fract_y
 _atom_site_fract_z
 _atom_site_occupancy
  K  K0  1  0.63012900  0.98242300  0.81571000  1
  K  K1  1  0.86987100  0.51757700  0.31571000  1
  K  K2  1  0.36987100  0.48242300  0.18429000  1
  K  K3  1  0.13012900  0.01757700  0.68429000  1
  K  K4  1  0.36987100  0.01757700  0.18429000  1
  K  K5  1  0.13012900  0.48242300  0.68429000  1
  K  K6  1  0.63012900  0.51757700  0.81571000  1
  K  K7  1  0.86987100  0.98242300  0.31571000  1
  Sn  Sn0  1  0.00825700  0.25000000  0.01000400  1
  Sn  Sn1  1  0.49174300  0.25000000  0.51000400  1
  Sn  Sn2  1  0.99174300  0.75000000  0.98999600  1
  Sn  Sn3  1  0.50825700  0.75000000  0.48999600  1
  H  H0  1  0.57740200  0.75000000  0.04006700  1
  H  H1  1  0.92259800  0.75000000  0.54006700  1
  H  H2  1  0.42259800  0.25000000  0.95993300  1
  H  H3  1  0.07740200  0.25000000  0.45993300  1
  H  H4  1  0.43747400  0.75000000  0.95544400  1
  H  H5  1  0.06252600  0.75000000  0.45544400  1
  H  H6  1  0.56252600  0.25000000  0.04455600  1
  H  H7  1  0.93747400  0.25000000  0.54455600  1
  Cl  Cl0  1  0.89401500  0.25000000  0.80718200  1
  Cl  Cl1  1  0.60598500  0.25000000  0.30718200  1
  Cl  Cl2  1  0.10598500  0.75000000  0.19281800  1
  Cl  Cl3  1  0.39401500  0.75000000  0.69281800  1
  Cl  Cl4  1  0.79432900  0.05326100  0.05718200  1
  Cl  Cl5  1  0.70567100  0.44673900  0.55718200  1
  Cl  Cl6  1  0.20567100  0.55326100  0.94281800  1
  Cl  Cl7  1  0.29432900  0.94673900  0.44281800  1
  Cl  Cl8  1  0.20567100  0.94673900  0.94281800  1
  Cl  Cl9  1  0.29432900  0.55326100  0.44281800  1
  Cl  Cl10  1  0.79432900  0.44673900  0.05718200  1
  Cl  Cl11  1  0.70567100  0.05326100  0.55718200  1
  Cl  Cl12  1  0.89899100  0.75000000  0.73499200  1
  Cl  Cl13  1  0.60100900  0.75000000  0.23499200  1
  Cl  Cl14  1  0.10100900  0.25000000  0.26500800  1
  Cl  Cl15  1  0.39899100  0.25000000  0.76500800  1
  O  O0  1  0.55395000  0.75000000  0.96057900  1
  O  O1  1  0.94605000  0.75000000  0.46057900  1
  O  O2  1  0.44605000  0.25000000  0.03942100  1
  O  O3  1  0.05395000  0.25000000  0.53942100  1
loop_
_geom_bond_atom_site_label_1
_geom_bond_atom_site_label_2
_geom_bond_distance
_geom_bond_site_symmetry_2
K0 O0 2.857981 1_555
K1 O1 2.857981 1_555
K2 O2 2.857981 1_555
K3 O3 2.857981 1_555
K4 O2 2.857981 1_555
K5 O3 2.857981 1_555
K6 O0 2.857981 1_555
K7 O1 2.857981 1_555
H0 O0 0.987441 1_554
H1 O1 0.987441 1_555
H2 O2 0.987441 1_556
H3 O3 0.987441 1_555
H4 O0 0.977384 1_555
H5 O1 0.977384 1_455
H6 O2 0.977384 1_555
H7 O3 0.977384 1_655
Cl0 Sn0 2.648075 1_656
Cl0 K5 3.286094 1_655
Cl0 K3 3.286094 1_655
Cl0 K6 3.325315 1_555
Cl0 K0 3.325315 1_545
Cl1 Sn1 2.648075 1_555
Cl1 K4 3.286094 1_555
Cl1 K2 3.286094 1_555
Cl1 K1 3.325315 1_555
Cl1 K7 3.325315 1_545
Cl2 Sn2 2.648075 1_454
Cl2 K7 3.286094 1_455
Cl2 K1 3.286094 1_455
Cl2 K4 3.325315 1_565
Cl2 K2 3.325315 1_555
Cl3 Sn3 2.648075 1_555
Cl3 K0 3.286094 1_555
Cl3 K6 3.286094 1_555
Cl3 K3 3.325315 1_565
Cl3 K5 3.325315 1_555
Cl4 Sn0 2.621326 1_655
Cl4 K7 3.276944 1_545
Cl4 K0 3.311330 1_544
Cl5 Sn1 2.621326 1_555
Cl5 K6 3.276944 1_555
Cl5 K1 3.311330 1_555
Cl6 Sn2 2.621326 1_455
Cl6 K5 3.276944 1_555
Cl6 K2 3.311330 1_556
Cl7 Sn3 2.621326 1_555
Cl7 K4 3.276944 1_565
Cl7 K3 3.311330 1_565
Cl8 Sn2 2.621326 1_455
Cl8 K3 3.276944 1_565
Cl8 K4 3.311330 1_566
Cl9 Sn3 2.621326 1_555
Cl9 K2 3.276944 1_555
Cl9 K5 3.311330 1_555
Cl10 Sn0 2.621326 1_655
Cl10 K1 3.276944 1_555
Cl10 K6 3.311330 1_554
Cl11 Sn1 2.621326 1_555
Cl11 K0 3.276944 1_545
Cl11 K7 3.311330 1_545
Cl12 K3 3.207981 1_665
Cl12 K5 3.207981 1_655
Cl12 K0 3.268845 1_555
Cl12 K6 3.268845 1_555
Cl13 K4 3.207981 1_565
Cl13 K2 3.207981 1_555
Cl13 K7 3.268845 1_555
Cl13 K1 3.268845 1_555
Cl14 K1 3.207981 1_455
Cl14 K7 3.207981 1_445
Cl14 K4 3.268845 1_555
Cl14 K2 3.268845 1_555
Cl15 K6 3.207981 1_555
Cl15 K0 3.207981 1_545
Cl15 K3 3.268845 1_555
Cl15 K5 3.268845 1_555
