# generated using pymatgen
data_SrCa7Ti2Mn6O20
_symmetry_space_group_name_H-M   'P 1'
_cell_length_a   11.11495582
_cell_length_b   15.75259527
_cell_length_c   11.21753110
_cell_angle_alpha   90.00784889
_cell_angle_beta   91.99183890
_cell_angle_gamma   90.39495010
_symmetry_Int_Tables_number   1
_chemical_formula_structural   SrCa7Ti2Mn6O20
_chemical_formula_sum   'Sr4 Ca28 Ti8 Mn24 O80'
_cell_volume   1962.83730557
_cell_formula_units_Z   4
loop_
 _symmetry_equiv_pos_site_id
 _symmetry_equiv_pos_as_xyz
  1  'x, y, z'
loop_
 _atom_site_type_symbol
 _atom_site_label
 _atom_site_symmetry_multiplicity
 _atom_site_fract_x
 _atom_site_fract_y
 _atom_site_fract_z
 _atom_site_occupancy
  Sr  Sr0  1  0.99104768  0.11987575  0.51898848  1
  Sr  Sr1  1  0.51067253  0.37674911  0.99980240  1
  Sr  Sr2  1  0.24210348  0.39087373  0.24019734  1
  Sr  Sr3  1  0.23093722  0.12007420  0.23440580  1
  Ca  Ca0  1  0.98045711  0.11756699  0.02114270  1
  Ca  Ca1  1  0.98567041  0.61987872  0.51449576  1
  Ca  Ca2  1  0.98525014  0.62001945  0.01803872  1
  Ca  Ca3  1  0.54724239  0.12716971  0.48143006  1
  Ca  Ca4  1  0.54887377  0.12582012  0.98221930  1
  Ca  Ca5  1  0.55206926  0.62867848  0.48319205  1
  Ca  Ca6  1  0.55213569  0.62848976  0.98390424  1
  Ca  Ca7  1  0.51488858  0.37386196  0.50265224  1
  Ca  Ca8  1  0.52448358  0.87097784  0.98222409  1
  Ca  Ca9  1  0.52453318  0.87057752  0.48139721  1
  Ca  Ca10  1  0.96105335  0.39148049  0.00569112  1
  Ca  Ca11  1  0.95813762  0.39033146  0.50539163  1
  Ca  Ca12  1  0.95071119  0.87711773  0.00340728  1
  Ca  Ca13  1  0.94923532  0.87813404  0.50317714  1
  Ca  Ca14  1  0.24271497  0.39560265  0.73168504  1
  Ca  Ca15  1  0.24276751  0.88449053  0.27130674  1
  Ca  Ca16  1  0.24661493  0.88358685  0.76873220  1
  Ca  Ca17  1  0.75626264  0.38503280  0.26260393  1
  Ca  Ca18  1  0.75203521  0.38087462  0.75984236  1
  Ca  Ca19  1  0.73138246  0.86337830  0.24637535  1
  Ca  Ca20  1  0.73051772  0.86556418  0.74567398  1
  Ca  Ca21  1  0.22869699  0.11529934  0.74232581  1
  Ca  Ca22  1  0.22514988  0.62212846  0.24072444  1
  Ca  Ca23  1  0.22421440  0.62188888  0.74239781  1
  Ca  Ca24  1  0.76128061  0.12751605  0.24988437  1
  Ca  Ca25  1  0.76813319  0.12545337  0.75292034  1
  Ca  Ca26  1  0.78136348  0.62104893  0.25645091  1
  Ca  Ca27  1  0.78394362  0.62107880  0.75879445  1
  Ti  Ti0  1  0.97938590  0.99243726  0.25817953  1
  Ti  Ti1  1  0.98361633  0.99220688  0.76191106  1
  Ti  Ti2  1  0.23684553  0.97461188  0.01965935  1
  Ti  Ti3  1  0.23811067  0.97399009  0.52509294  1
  Ti  Ti4  1  0.26218332  0.23681207  0.94409510  1
  Ti  Ti5  1  0.26856622  0.23981012  0.45875350  1
  Ti  Ti6  1  0.98593865  0.25538850  0.27306986  1
  Ti  Ti7  1  0.99517647  0.25580280  0.77568353  1
  Mn  Mn0  1  0.00031062  0.50031616  0.25629964  1
  Mn  Mn1  1  0.00069454  0.49833643  0.75604044  1
  Mn  Mn2  1  0.50279404  0.99163850  0.22461182  1
  Mn  Mn3  1  0.50280912  0.99325516  0.72744450  1
  Mn  Mn4  1  0.50563906  0.49925685  0.24054386  1
  Mn  Mn5  1  0.50116003  0.49707593  0.73749494  1
  Mn  Mn6  1  0.23350856  0.52055207  0.01256343  1
  Mn  Mn7  1  0.23211149  0.51972025  0.51546452  1
  Mn  Mn8  1  0.74313045  0.00097154  0.99013383  1
  Mn  Mn9  1  0.74030729  0.00205816  0.49099789  1
  Mn  Mn10  1  0.74896651  0.50373647  0.00172737  1
  Mn  Mn11  1  0.74620405  0.50314434  0.50313657  1
  Mn  Mn12  1  0.27317505  0.73790173  0.95439336  1
  Mn  Mn13  1  0.27484245  0.73709139  0.45487487  1
  Mn  Mn14  1  0.75177151  0.24968165  0.00367654  1
  Mn  Mn15  1  0.74785500  0.24932565  0.50681034  1
  Mn  Mn16  1  0.75778445  0.74931353  0.00226265  1
  Mn  Mn17  1  0.75734358  0.74911487  0.50370598  1
  Mn  Mn18  1  0.99936573  0.75640082  0.26361286  1
  Mn  Mn19  1  0.99931083  0.75615716  0.76265053  1
  Mn  Mn20  1  0.50793239  0.25671079  0.25890125  1
  Mn  Mn21  1  0.50407352  0.25298071  0.75594408  1
  Mn  Mn22  1  0.50727774  0.74402400  0.24952393  1
  Mn  Mn23  1  0.50790440  0.74375685  0.74993043  1
  O  O0  1  0.57495984  0.24572548  0.10034863  1
  O  O1  1  0.57403297  0.25127830  0.59761784  1
  O  O2  1  0.59495915  0.75939588  0.09529701  1
  O  O3  1  0.59369183  0.75846838  0.59492459  1
  O  O4  1  0.39167670  0.19231659  0.37123615  1
  O  O5  1  0.39018653  0.18373825  0.86846218  1
  O  O6  1  0.40098430  0.67230586  0.35352734  1
  O  O7  1  0.40086596  0.67379840  0.85482921  1
  O  O8  1  0.90512965  0.23413665  0.40146459  1
  O  O9  1  0.92081162  0.23079379  0.90891280  1
  O  O10  1  0.90762592  0.74098539  0.41918644  1
  O  O11  1  0.90737718  0.73968419  0.91793718  1
  O  O12  1  0.15988552  0.25041251  0.32853866  1
  O  O13  1  0.17361123  0.25508422  0.80053005  1
  O  O14  1  0.17157776  0.75420004  0.30144205  1
  O  O15  1  0.17124455  0.75417517  0.79928253  1
  O  O16  1  0.65539747  0.22846066  0.35710834  1
  O  O17  1  0.65835346  0.23020008  0.85391590  1
  O  O18  1  0.65989141  0.72806750  0.35513095  1
  O  O19  1  0.65976200  0.72687017  0.85512737  1
  O  O20  1  0.86705256  0.26795371  0.14962330  1
  O  O21  1  0.87745078  0.26422609  0.64982176  1
  O  O22  1  0.86103209  0.78142501  0.14800107  1
  O  O23  1  0.85956005  0.78200397  0.64857418  1
  O  O24  1  0.35805469  0.51532275  0.14347891  1
  O  O25  1  0.34921711  0.51591062  0.64938709  1
  O  O26  1  0.35349782  0.02113644  0.12142317  1
  O  O27  1  0.34610508  0.01830551  0.63863398  1
  O  O28  1  0.85540838  0.48353885  0.14697284  1
  O  O29  1  0.85228897  0.48102513  0.64859588  1
  O  O30  1  0.85484899  0.97531191  0.15618227  1
  O  O31  1  0.85691152  0.97829992  0.65947444  1
  O  O32  1  0.19224609  0.00796441  0.37482417  1
  O  O33  1  0.19161596  0.00507104  0.86792127  1
  O  O34  1  0.15840383  0.51057016  0.35774657  1
  O  O35  1  0.16138357  0.50619662  0.85335751  1
  O  O36  1  0.62648957  0.03566491  0.33795265  1
  O  O37  1  0.63137678  0.03372457  0.83754889  1
  O  O38  1  0.63825163  0.52690416  0.35476070  1
  O  O39  1  0.63383798  0.52258831  0.85568982  1
  O  O40  1  0.89404321  0.01083219  0.39761259  1
  O  O41  1  0.89905346  0.01190138  0.90276597  1
  O  O42  1  0.89029647  0.51310238  0.39673487  1
  O  O43  1  0.89271415  0.51573043  0.89545509  1
  O  O44  1  0.09798047  0.47862550  0.11407095  1
  O  O45  1  0.09739022  0.47248874  0.61409393  1
  O  O46  1  0.10543971  0.96977972  0.11398433  1
  O  O47  1  0.10366535  0.96498312  0.61269966  1
  O  O48  1  0.60579721  0.50071688  0.10072210  1
  O  O49  1  0.59687737  0.49621348  0.59306269  1
  O  O50  1  0.59832340  0.98985872  0.07783456  1
  O  O51  1  0.59338338  0.99027946  0.57789058  1
  O  O52  1  0.99903364  0.37031418  0.29536410  1
  O  O53  1  0.00030502  0.36961006  0.80131238  1
  O  O54  1  0.01629629  0.88021719  0.30182888  1
  O  O55  1  0.01509506  0.87883065  0.80411593  1
  O  O56  1  0.46774420  0.38173036  0.29748899  1
  O  O57  1  0.45617338  0.37772373  0.78458444  1
  O  O58  1  0.46145915  0.87013643  0.28098854  1
  O  O59  1  0.46595883  0.87029492  0.78198739  1
  O  O60  1  0.00208037  0.11918457  0.23152606  1
  O  O61  1  0.01268743  0.11578971  0.73901407  1
  O  O62  1  0.99590888  0.63653524  0.22815196  1
  O  O63  1  0.99668558  0.63633603  0.72423412  1
  O  O64  1  0.18311470  0.15917164  0.02836133  1
  O  O65  1  0.20630633  0.16046082  0.55252024  1
  O  O66  1  0.19577308  0.64507229  0.04051142  1
  O  O67  1  0.19780420  0.64346910  0.54084681  1
  O  O68  1  0.75998476  0.12410825  0.03826070  1
  O  O69  1  0.75474662  0.12426109  0.54221272  1
  O  O70  1  0.76159338  0.63050410  0.04133259  1
  O  O71  1  0.76074787  0.62889759  0.54315449  1
  O  O72  1  0.30132390  0.34066818  0.52941349  1
  O  O73  1  0.29298134  0.33143715  0.02888627  1
  O  O74  1  0.29690357  0.86642171  0.49943941  1
  O  O75  1  0.29427035  0.86644072  0.99749113  1
  O  O76  1  0.74306150  0.37270260  0.47171153  1
  O  O77  1  0.74864026  0.37255346  0.96794423  1
  O  O78  1  0.74001346  0.87797236  0.45703031  1
  O  O79  1  0.74155837  0.87666486  0.95538413  1
loop_
_geom_bond_atom_site_label_1
_geom_bond_atom_site_label_2
_geom_bond_distance
_geom_bond_site_symmetry_2
Ca0 O9 2.272583 1_554
Ca0 O41 2.290777 1_554
Ca0 O64 2.340284 1_655
Ca0 O60 2.363979 1_655
Ca0 O68 2.467554 1_555
Ca0 O46 2.894625 1_645
Ca1 O10 2.343914 1_555
Ca1 O42 2.361223 1_555
Ca1 O63 2.365795 1_555
Ca1 O67 2.392573 1_655
Ca1 O71 2.536594 1_555
Ca1 O45 2.850414 1_655
Ca2 O11 2.349238 1_554
Ca2 O43 2.350612 1_554
Ca2 O62 2.370009 1_555
Ca2 O66 2.375061 1_655
Ca2 O70 2.515200 1_555
Ca2 O44 2.763460 1_655
Ca2 O28 2.983283 1_555
Ca3 O4 2.333912 1_555
Ca3 O36 2.357835 1_555
Ca3 O1 2.360893 1_555
Ca3 O69 2.382987 1_555
Ca3 O16 2.454919 1_555
Ca3 O51 2.461934 1_545
Ca4 O0 2.317911 1_556
Ca4 O5 2.331911 1_555
Ca4 O37 2.387540 1_555
Ca4 O68 2.408375 1_556
Ca4 O50 2.452640 1_546
Ca4 O17 2.520034 1_555
Ca5 O6 2.292242 1_555
Ca5 O38 2.383258 1_555
Ca5 O71 2.392435 1_555
Ca5 O3 2.431253 1_555
Ca5 O18 2.458762 1_555
Ca5 O49 2.468519 1_555
Ca6 O7 2.297910 1_555
Ca6 O70 2.393916 1_556
Ca6 O39 2.405665 1_555
Ca6 O2 2.446356 1_556
Ca6 O19 2.452486 1_555
Ca6 O48 2.467192 1_556
Ca7 O1 2.294595 1_555
Ca7 O49 2.341951 1_555
Ca7 O56 2.345985 1_555
Ca7 O72 2.455757 1_555
Ca7 O76 2.571884 1_555
Ca8 O50 2.290827 1_556
Ca8 O2 2.294014 1_556
Ca8 O59 2.316643 1_555
Ca8 O79 2.442886 1_555
Ca8 O75 2.570971 1_555
Ca9 O51 2.287963 1_555
Ca9 O3 2.298425 1_555
Ca9 O58 2.331485 1_555
Ca9 O78 2.422031 1_555
Ca9 O74 2.545571 1_555
Ca10 O44 2.349669 1_655
Ca10 O53 2.374141 1_654
Ca10 O77 2.400644 1_554
Ca10 O43 2.427513 1_554
Ca10 O28 2.479052 1_555
Ca10 O20 2.752263 1_555
Ca10 O9 2.781302 1_554
Ca11 O45 2.323401 1_655
Ca11 O42 2.398182 1_555
Ca11 O76 2.421296 1_555
Ca11 O52 2.435767 1_555
Ca11 O29 2.481868 1_555
Ca11 O21 2.729953 1_555
Ca11 O8 2.773382 1_555
Ca12 O79 2.367976 1_554
Ca12 O55 2.370975 1_654
Ca12 O11 2.406474 1_554
Ca12 O22 2.447249 1_555
Ca12 O41 2.466687 1_564
Ca12 O46 2.538413 1_655
Ca12 O30 2.571736 1_555
Ca13 O78 2.364766 1_555
Ca13 O10 2.392589 1_555
Ca13 O54 2.403080 1_655
Ca13 O23 2.457561 1_555
Ca13 O40 2.473051 1_565
Ca13 O47 2.479510 1_655
Ca13 O31 2.600635 1_555
Ca14 O45 2.386481 1_555
Ca14 O35 2.412872 1_555
Ca14 O25 2.427081 1_555
Ca14 O57 2.443762 1_555
Ca14 O13 2.470695 1_555
Ca14 O72 2.536041 1_555
Ca14 O53 2.858061 1_555
Ca15 O14 2.224675 1_555
Ca15 O32 2.346628 1_565
Ca15 O58 2.441453 1_555
Ca15 O54 2.552592 1_555
Ca15 O74 2.624408 1_555
Ca15 O46 2.662896 1_555
Ca16 O15 2.229713 1_555
Ca16 O33 2.310140 1_565
Ca16 O59 2.447781 1_555
Ca16 O75 2.616509 1_555
Ca16 O55 2.617929 1_555
Ca16 O47 2.658479 1_555
Ca16 O27 2.817255 1_565
Ca17 O28 2.319710 1_555
Ca17 O76 2.363279 1_555
Ca17 O20 2.581321 1_555
Ca17 O52 2.722099 1_555
Ca17 O38 2.813853 1_555
Ca17 O42 2.890545 1_555
Ca17 O16 2.917044 1_555
Ca17 O48 3.040921 1_555
Ca18 O29 2.315355 1_555
Ca18 O77 2.339683 1_555
Ca18 O21 2.645205 1_555
Ca18 O53 2.789321 1_655
Ca18 O17 2.806138 1_555
Ca18 O39 2.829018 1_555
Ca19 O22 2.257608 1_555
Ca19 O78 2.372709 1_555
Ca19 O30 2.465680 1_555
Ca19 O18 2.589937 1_555
Ca19 O2 2.764193 1_555
Ca20 O23 2.260635 1_555
Ca20 O79 2.357772 1_555
Ca20 O31 2.474445 1_555
Ca20 O19 2.635045 1_555
Ca20 O3 2.793500 1_555
Ca20 O59 2.984068 1_555
Ca20 O37 3.067880 1_565
Ca20 O51 3.093244 1_555
Ca21 O65 2.251076 1_555
Ca21 O33 2.280566 1_555
Ca21 O27 2.350097 1_555
Ca21 O13 2.386597 1_555
Ca21 O61 2.399998 1_555
Ca21 O5 2.486469 1_555
Ca22 O14 2.278530 1_555
Ca22 O66 2.287392 1_555
Ca22 O34 2.326400 1_555
Ca22 O6 2.419111 1_555
Ca22 O24 2.519653 1_555
Ca22 O62 2.558655 1_455
Ca22 O44 2.990312 1_555
Ca23 O15 2.266919 1_555
Ca23 O67 2.295403 1_555
Ca23 O35 2.324179 1_555
Ca23 O7 2.433096 1_555
Ca23 O25 2.436860 1_555
Ca23 O63 2.541877 1_455
Ca24 O36 2.321088 1_555
Ca24 O16 2.341790 1_555
Ca24 O68 2.374036 1_555
Ca24 O60 2.695612 1_655
Ca24 O20 2.756426 1_555
Ca24 O8 2.835792 1_555
Ca24 O30 2.836310 1_545
Ca24 O40 2.858397 1_555
Ca25 O37 2.317342 1_555
Ca25 O69 2.363195 1_555
Ca25 O17 2.370303 1_555
Ca25 O61 2.733376 1_655
Ca25 O31 2.747476 1_545
Ca25 O21 2.766655 1_555
Ca25 O41 2.830055 1_555
Ca25 O9 2.906776 1_555
Ca26 O70 2.420164 1_555
Ca26 O62 2.427246 1_555
Ca26 O18 2.454588 1_555
Ca26 O38 2.456756 1_555
Ca26 O42 2.594321 1_555
Ca26 O28 2.640412 1_555
Ca26 O10 2.942084 1_555
Ca26 O22 2.948114 1_555
Ca27 O63 2.419792 1_555
Ca27 O71 2.426956 1_555
Ca27 O19 2.446421 1_555
Ca27 O39 2.542235 1_555
Ca27 O43 2.542676 1_555
Ca27 O29 2.657094 1_555
Ca27 O11 2.890219 1_555
Ca27 O23 2.950419 1_555
Mn0 O44 1.991509 1_555
Mn0 O28 2.006131 1_455
Mn0 O42 2.038312 1_455
Mn0 O34 2.065400 1_555
Mn0 O52 2.094342 1_455
Mn0 O62 2.169591 1_455
Mn1 O45 1.995273 1_555
Mn1 O43 2.023904 1_455
Mn1 O29 2.025697 1_455
Mn1 O35 2.063590 1_555
Mn1 O53 2.090479 1_555
Mn1 O63 2.203488 1_455
Mn2 O36 1.962861 1_565
Mn2 O50 1.990234 1_555
Mn2 O26 2.046144 1_565
Mn2 O58 2.069473 1_555
Mn3 O37 1.959213 1_565
Mn3 O51 1.986998 1_555
Mn3 O27 2.017643 1_565
Mn3 O59 2.073804 1_555
Mn4 O48 1.954725 1_555
Mn4 O24 1.955026 1_555
Mn4 O38 1.965597 1_555
Mn4 O56 2.005297 1_555
Mn5 O25 1.951410 1_555
Mn5 O49 1.969018 1_555
Mn5 O39 1.987445 1_555
Mn5 O57 2.017306 1_555
Mn6 O35 1.944506 1_554
Mn6 O24 1.984959 1_555
Mn6 O44 2.026743 1_555
Mn6 O66 2.035207 1_555
Mn7 O34 1.928625 1_555
Mn7 O25 1.954443 1_555
Mn7 O67 2.011006 1_555
Mn7 O45 2.029763 1_555
Mn8 O50 1.922311 1_546
Mn8 O79 1.996362 1_545
Mn8 O68 2.019095 1_556
Mn8 O41 2.026747 1_555
Mn8 O37 2.144773 1_555
Mn8 O30 2.240790 1_546
Mn9 O51 1.938529 1_545
Mn9 O78 1.991373 1_545
Mn9 O69 2.012590 1_555
Mn9 O40 2.039013 1_555
Mn9 O36 2.164845 1_555
Mn9 O31 2.286507 1_545
Mn10 O48 1.972190 1_555
Mn10 O28 2.006710 1_555
Mn10 O43 2.034191 1_554
Mn10 O70 2.048492 1_555
Mn10 O39 2.066150 1_554
Mn10 O77 2.100839 1_554
Mn11 O49 1.974390 1_555
Mn11 O29 2.011530 1_555
Mn11 O71 2.035207 1_555
Mn11 O42 2.035616 1_555
Mn11 O38 2.053682 1_555
Mn11 O76 2.084617 1_555
Mn12 O66 1.962783 1_556
Mn12 O15 2.060061 1_555
Mn12 O75 2.091391 1_555
Mn12 O7 2.100252 1_555
Mn13 O67 1.969433 1_555
Mn13 O14 2.054122 1_555
Mn13 O6 2.104747 1_555
Mn13 O74 2.108290 1_555
Mn14 O17 1.966913 1_554
Mn14 O77 1.976967 1_554
Mn14 O68 2.017916 1_555
Mn14 O20 2.062511 1_555
Mn14 O9 2.212499 1_554
Mn14 O0 2.277840 1_555
Mn15 O16 1.964523 1_555
Mn15 O76 1.983748 1_555
Mn15 O69 2.011223 1_555
Mn15 O21 2.130297 1_555
Mn15 O8 2.158438 1_555
Mn15 O1 2.215604 1_555
Mn16 O70 1.922661 1_555
Mn16 O11 1.948121 1_554
Mn16 O19 1.976283 1_554
Mn16 O22 2.026537 1_555
Mn16 O79 2.081402 1_554
Mn16 O2 2.127189 1_555
Mn17 O71 1.945131 1_555
Mn17 O10 1.954091 1_555
Mn17 O18 1.982501 1_555
Mn17 O23 2.015776 1_555
Mn17 O78 2.104796 1_555
Mn17 O3 2.123789 1_555
Mn18 O62 1.929434 1_555
Mn18 O14 1.946695 1_655
Mn18 O54 2.003114 1_655
Mn18 O22 2.017745 1_555
Mn18 O10 2.065110 1_555
Mn19 O63 1.935803 1_555
Mn19 O15 1.941166 1_655
Mn19 O55 1.992689 1_655
Mn19 O23 2.021582 1_555
Mn19 O11 2.065435 1_555
Mn20 O0 1.960125 1_555
Mn20 O16 1.995711 1_555
Mn20 O56 2.071401 1_555
Mn20 O4 2.093335 1_555
Mn21 O1 1.963653 1_555
Mn21 O17 2.038322 1_555
Mn21 O57 2.067400 1_555
Mn21 O5 2.116034 1_555
Mn22 O6 2.027565 1_555
Mn22 O2 2.028683 1_555
Mn22 O18 2.051892 1_555
Mn22 O58 2.087285 1_555
Mn23 O7 2.023400 1_555
Mn23 O3 2.024499 1_555
Mn23 O19 2.044522 1_555
Mn23 O59 2.084275 1_555
O0 Sr1 2.451037 1_554
O4 Ti5 1.871694 1_555
O4 Sr3 2.573678 1_555
O5 Ti4 1.882317 1_555
O8 Ti6 1.754739 1_555
O8 Sr0 2.413805 1_555
O9 Ti7 1.775807 1_555
O12 Ti5 1.871074 1_555
O12 Ti6 2.012427 1_455
O12 Sr3 2.456402 1_555
O12 Sr2 2.597797 1_555
O13 Ti4 1.881328 1_555
O13 Ti7 1.993277 1_455
O20 Ti6 1.891922 1_555
O21 Ti7 1.896625 1_555
O21 Sr0 3.014335 1_555
O24 Sr2 2.596957 1_555
O26 Ti2 1.845303 1_545
O26 Sr3 2.457592 1_555
O27 Ti3 1.852642 1_545
O30 Ti0 1.783989 1_555
O31 Ti1 1.798593 1_555
O32 Ti3 1.825369 1_545
O32 Sr3 2.412932 1_555
O32 Ti0 2.673252 1_445
O33 Ti2 1.823253 1_546
O33 Ti1 2.569528 1_445
O34 Sr2 2.503643 1_555
O39 Sr1 3.142730 1_555
O40 Ti0 1.880682 1_545
O40 Sr0 2.416328 1_555
O41 Ti1 1.892973 1_545
O44 Sr2 2.520358 1_555
O46 Ti2 1.834268 1_555
O46 Ti0 2.207045 1_455
O46 Sr3 3.032868 1_565
O47 Ti3 1.821589 1_555
O47 Ti1 2.220105 1_455
O48 Sr1 2.469957 1_554
O52 Ti6 1.831641 1_555
O52 Sr2 2.809146 1_655
O53 Ti7 1.815819 1_455
O54 Ti0 1.878642 1_455
O55 Ti1 1.879782 1_455
O56 Sr2 2.572300 1_555
O57 Sr1 2.468620 1_555
O60 Ti0 2.034181 1_445
O60 Ti6 2.205371 1_455
O60 Sr3 2.542758 1_555
O61 Ti1 1.989334 1_445
O61 Ti7 2.254519 1_455
O61 Sr0 2.472391 1_455
O64 Ti4 1.790238 1_554
O64 Sr3 2.433827 1_555
O65 Ti5 1.785122 1_555
O65 Sr0 2.488170 1_455
O69 Sr0 2.649732 1_555
O72 Ti5 1.804622 1_555
O73 Ti4 1.792671 1_554
O73 Sr1 2.549833 1_554
O73 Sr2 2.629645 1_555
O74 Ti3 1.846434 1_555
O75 Ti2 1.843551 1_556
O77 Sr1 2.682578 1_555
