# generated using pymatgen
data_VZnNiP2O9
_symmetry_space_group_name_H-M   'P 1'
_cell_length_a   6.25504800
_cell_length_b   7.36822185
_cell_length_c   14.16939655
_cell_angle_alpha   89.94567653
_cell_angle_beta   89.99954995
_cell_angle_gamma   90.00222297
_symmetry_Int_Tables_number   1
_chemical_formula_structural   VZnNiP2O9
_chemical_formula_sum   'V4 Zn4 Ni4 P8 O36'
_cell_volume   653.04709176
_cell_formula_units_Z   4
loop_
 _symmetry_equiv_pos_site_id
 _symmetry_equiv_pos_as_xyz
  1  'x, y, z'
loop_
 _atom_site_type_symbol
 _atom_site_label
 _atom_site_symmetry_multiplicity
 _atom_site_fract_x
 _atom_site_fract_y
 _atom_site_fract_z
 _atom_site_occupancy
  V  V0  1  0.75000500  0.34598100  0.88275500  1
  V  V1  1  0.24998900  0.65411400  0.11723000  1
  V  V2  1  0.25001200  0.84569500  0.61738700  1
  V  V3  1  0.74998100  0.15421700  0.38262500  1
  Zn  Zn0  1  0.74999200  0.88572400  0.77882500  1
  Zn  Zn1  1  0.74999600  0.61497000  0.27894400  1
  Zn  Zn2  1  0.25000100  0.11439300  0.22116400  1
  Zn  Zn3  1  0.24999900  0.38496100  0.72104900  1
  Ni  Ni0  1  0.50025200  0.99998400  0.00017100  1
  Ni  Ni1  1  0.50033800  0.49958800  0.49992700  1
  Ni  Ni2  1  0.99965700  0.49962100  0.49992900  1
  Ni  Ni3  1  0.99991700  0.99975300  0.00022200  1
  P  P0  1  0.25000600  0.35476900  0.93302000  1
  P  P1  1  0.74999200  0.64529100  0.06696200  1
  P  P2  1  0.75001400  0.85453300  0.56691500  1
  P  P3  1  0.24998400  0.14541600  0.43305600  1
  P  P4  1  0.75000200  0.38408500  0.69645000  1
  P  P5  1  0.24999300  0.61590200  0.30355200  1
  P  P6  1  0.24999400  0.88445100  0.80356200  1
  P  P7  1  0.75000000  0.11580600  0.19641700  1
  O  O0  1  0.03815000  0.61006000  0.36158500  1
  O  O1  1  0.53815500  0.38992600  0.63841500  1
  O  O2  1  0.96185500  0.10996400  0.13826200  1
  O  O3  1  0.46184600  0.88997800  0.86172800  1
  O  O4  1  0.96184200  0.38993500  0.63841100  1
  O  O5  1  0.46184300  0.61007200  0.36158100  1
  O  O6  1  0.03813100  0.88998200  0.86172200  1
  O  O7  1  0.53814800  0.10995400  0.13826200  1
  O  O8  1  0.24999400  0.33317300  0.47920400  1
  O  O9  1  0.75000500  0.66674900  0.52086100  1
  O  O10  1  0.74999800  0.83332900  0.02070700  1
  O  O11  1  0.25001100  0.16669200  0.97924200  1
  O  O12  1  0.74999000  0.14572800  0.94442700  1
  O  O13  1  0.24995300  0.85427400  0.05552200  1
  O  O14  1  0.25002000  0.64572200  0.55564400  1
  O  O15  1  0.74997000  0.35443200  0.44433800  1
  O  O16  1  0.75000100  0.20715000  0.75767500  1
  O  O17  1  0.24999400  0.79286700  0.24232400  1
  O  O18  1  0.24999400  0.70750900  0.74253100  1
  O  O19  1  0.75000000  0.29264400  0.25735900  1
  O  O20  1  0.43835700  0.12726800  0.36248100  1
  O  O21  1  0.93851200  0.87266100  0.63747900  1
  O  O22  1  0.56164500  0.62722000  0.13747400  1
  O  O23  1  0.06165400  0.37286900  0.86249300  1
  O  O24  1  0.56153200  0.87267500  0.63748800  1
  O  O25  1  0.06159600  0.12728500  0.36249100  1
  O  O26  1  0.43836000  0.37288000  0.86249200  1
  O  O27  1  0.93833100  0.62721800  0.13747900  1
  O  O28  1  0.74999100  0.96093500  0.27153300  1
  O  O29  1  0.25000900  0.03932300  0.72852100  1
  O  O30  1  0.24998500  0.46114100  0.22845200  1
  O  O31  1  0.75001000  0.53892000  0.77151500  1
  O  O32  1  0.75000000  0.99597400  0.48993100  1
  O  O33  1  0.24999500  0.00416400  0.51020800  1
  O  O34  1  0.24999900  0.49584400  0.01009500  1
  O  O35  1  0.74999800  0.50422900  0.98990500  1
loop_
_geom_bond_atom_site_label_1
_geom_bond_atom_site_label_2
_geom_bond_distance
_geom_bond_site_symmetry_2
Ni0 O10 2.008083 1_555
Ni0 O11 2.011542 1_564
Ni0 O12 2.053181 1_564
Ni0 O13 2.053591 1_555
Ni0 O7 2.131734 1_565
Ni0 O3 2.136772 1_554
Ni1 O8 2.010565 1_555
Ni1 O9 2.011072 1_555
Ni1 O15 2.050414 1_555
Ni1 O14 2.058144 1_555
Ni1 O1 2.134583 1_555
Ni1 O5 2.135505 1_555
Ni2 O8 2.010754 1_655
Ni2 O9 2.010917 1_555
Ni2 O15 2.050760 1_555
Ni2 O14 2.058166 1_655
Ni2 O4 2.134560 1_555
Ni2 O0 2.135341 1_655
Ni3 O10 2.007704 1_555
Ni3 O11 2.011895 1_664
Ni3 O13 2.051245 1_655
Ni3 O12 2.055321 1_564
Ni3 O2 2.131867 1_565
Ni3 O6 2.136725 1_654
O0 P5 1.560060 1_555
O0 Zn1 2.149687 1_455
O1 P4 1.560110 1_555
O1 Zn3 2.149632 1_555
O2 P7 1.561082 1_555
O2 Zn2 2.151638 1_655
O3 P6 1.561093 1_555
O3 Zn0 2.151613 1_555
O4 P4 1.560091 1_555
O4 Zn3 2.149687 1_655
O5 P5 1.560079 1_555
O5 Zn1 2.149631 1_555
O6 P6 1.561099 1_555
O6 Zn0 2.151543 1_455
O7 P7 1.561076 1_555
O7 Zn2 2.151631 1_555
O8 P3 1.530745 1_555
O9 P2 1.530355 1_555
O10 P1 1.532142 1_555
O11 P0 1.532203 1_555
O12 V0 1.714148 1_555
O13 V1 1.713818 1_555
O14 V2 1.714313 1_555
O15 V3 1.715629 1_555
O16 P4 1.565271 1_555
O16 V0 2.047172 1_555
O16 Zn0 2.386941 1_545
O17 P5 1.565478 1_555
O17 V1 2.047057 1_555
O17 Zn2 2.387690 1_565
O18 P6 1.565161 1_555
O18 V2 2.043910 1_555
O18 Zn3 2.396305 1_555
O19 P7 1.563824 1_555
O19 V3 2.046292 1_555
O19 Zn1 2.394869 1_555
O20 P3 1.551286 1_555
O20 V3 1.980014 1_555
O20 Zn2 2.325295 1_555
O21 P2 1.551770 1_555
O21 V2 1.979167 1_655
O21 Zn0 2.326215 1_555
O22 P1 1.550367 1_555
O22 V1 1.980336 1_555
O22 Zn1 2.326816 1_555
O23 P0 1.550566 1_555
O23 V0 1.980306 1_455
O23 Zn3 2.326416 1_555
O24 P2 1.551781 1_555
O24 V2 1.979309 1_555
O24 Zn0 2.325923 1_555
O25 P3 1.551259 1_555
O25 V3 1.979936 1_455
O25 Zn2 2.325566 1_555
O26 P0 1.550571 1_555
O26 V0 1.980311 1_555
O26 Zn3 2.326471 1_555
O27 P1 1.550396 1_555
O27 V1 1.980340 1_655
O27 Zn1 2.326684 1_555
O28 P7 1.559711 1_565
O28 V3 2.123735 1_565
O28 Zn1 2.551209 1_555
O29 P6 1.558992 1_545
O29 V2 2.125888 1_545
O29 Zn3 2.548837 1_555
O30 P5 1.560439 1_555
O30 V1 2.121573 1_555
O30 Zn2 2.557100 1_555
O31 P4 1.560500 1_555
O31 V0 2.121595 1_555
O31 Zn0 2.557525 1_555
O32 P2 1.507926 1_555
O32 V3 1.915183 1_565
O33 P3 1.508687 1_555
O33 V2 1.914769 1_545
O34 P0 1.508427 1_554
O34 V1 1.915136 1_555
O35 P1 1.508176 1_556
O35 V0 1.915206 1_555
