# generated using pymatgen
data_KCdGeAs2
_symmetry_space_group_name_H-M   'P 1'
_cell_length_a   8.24437096
_cell_length_b   8.61204634
_cell_length_c   8.86914991
_cell_angle_alpha   70.76196841
_cell_angle_beta   75.33114546
_cell_angle_gamma   73.34946101
_symmetry_Int_Tables_number   1
_chemical_formula_structural   KCdGeAs2
_chemical_formula_sum   'K4 Cd4 Ge4 As8'
_cell_volume   560.77475668
_cell_formula_units_Z   4
loop_
 _symmetry_equiv_pos_site_id
 _symmetry_equiv_pos_as_xyz
  1  'x, y, z'
loop_
 _atom_site_type_symbol
 _atom_site_label
 _atom_site_symmetry_multiplicity
 _atom_site_fract_x
 _atom_site_fract_y
 _atom_site_fract_z
 _atom_site_occupancy
  K  K0  1  0.45791200  0.76484300  0.32258900  1
  K  K1  1  0.54208800  0.23515700  0.67741100  1
  K  K2  1  0.44164600  0.80241500  0.81018000  1
  K  K3  1  0.55835400  0.19758500  0.18982000  1
  Cd  Cd0  1  0.99386900  0.89752700  0.68641900  1
  Cd  Cd1  1  0.00613100  0.10247300  0.31358100  1
  Cd  Cd2  1  0.97225600  0.82345000  0.16730700  1
  Cd  Cd3  1  0.02774400  0.17655000  0.83269300  1
  Ge  Ge0  1  0.95643400  0.58587600  0.59859300  1
  Ge  Ge1  1  0.04356600  0.41412400  0.40140700  1
  Ge  Ge2  1  0.15686200  0.44885200  0.97440200  1
  Ge  Ge3  1  0.84313800  0.55114800  0.02559800  1
  As  As0  1  0.79933700  0.87198100  0.46330800  1
  As  As1  1  0.20066300  0.12801900  0.53669200  1
  As  As2  1  0.77538700  0.40701000  0.31936600  1
  As  As3  1  0.22461300  0.59299000  0.68063400  1
  As  As4  1  0.76085900  0.86667100  0.96416400  1
  As  As5  1  0.23914100  0.13332900  0.03583600  1
  As  As6  1  0.75584800  0.44719400  0.83265400  1
  As  As7  1  0.24415200  0.55280600  0.16734600  1
loop_
_geom_bond_atom_site_label_1
_geom_bond_atom_site_label_2
_geom_bond_distance
_geom_bond_site_symmetry_2
Cd0 Ge0 3.143209 1_555
Cd1 Ge1 3.143209 1_555
Ge0 Ge1 2.494379 1_655
Ge2 Ge3 2.456637 1_456
As0 Ge0 2.489621 1_555
As0 Cd2 2.754130 1_555
As0 Cd1 2.768755 1_665
As0 Cd0 2.938133 1_555
As0 K3 3.529828 1_565
As0 K2 3.704434 1_555
As0 K0 3.789293 1_555
As1 Ge1 2.489621 1_555
As1 Cd3 2.754130 1_555
As1 Cd0 2.768755 1_445
As1 Cd1 2.938133 1_555
As1 K2 3.529828 1_545
As1 K3 3.704434 1_555
As1 K1 3.789293 1_555
As2 Ge3 2.484013 1_555
As2 Ge1 2.518605 1_655
As2 Cd1 2.771297 1_655
As2 K1 3.378582 1_555
As2 K0 3.427253 1_555
As2 K3 3.468539 1_555
As3 Ge2 2.484013 1_555
As3 Ge0 2.518605 1_455
As3 Cd0 2.771297 1_455
As3 K0 3.378582 1_555
As3 K1 3.427253 1_555
As3 K2 3.468539 1_555
As4 Ge3 2.509173 1_556
As4 Cd2 2.683059 1_556
As4 Cd0 2.700663 1_555
As4 K2 3.500027 1_555
As4 K0 3.536884 1_556
As4 K1 3.676466 1_565
As4 K3 3.775473 1_566
As5 Ge2 2.509173 1_554
As5 Cd3 2.683059 1_554
As5 Cd1 2.700663 1_555
As5 K3 3.500027 1_555
As5 K1 3.536884 1_554
As5 K0 3.676466 1_545
As5 K2 3.775473 1_544
As6 Ge0 2.495988 1_555
As6 Ge3 2.500050 1_556
As6 Cd3 2.731881 1_655
As6 K2 3.380367 1_555
As6 K3 3.494694 1_556
As6 K1 3.614703 1_555
As7 Ge1 2.495988 1_555
As7 Ge2 2.500050 1_554
As7 Cd2 2.731881 1_455
As7 K3 3.380367 1_555
As7 K2 3.494694 1_554
As7 K0 3.614703 1_555
