# generated using pymatgen
data_Al2Si3(SnO4)3
_symmetry_space_group_name_H-M   'P 1'
_cell_length_a   10.66789491
_cell_length_b   10.66789491
_cell_length_c   10.66789491
_cell_angle_alpha   109.47122063
_cell_angle_beta   109.47122063
_cell_angle_gamma   109.47122063
_symmetry_Int_Tables_number   1
_chemical_formula_structural   Al2Si3(SnO4)3
_chemical_formula_sum   'Al8 Si12 Sn12 O48'
_cell_volume   934.57529397
_cell_formula_units_Z   4
loop_
 _symmetry_equiv_pos_site_id
 _symmetry_equiv_pos_as_xyz
  1  'x, y, z'
loop_
 _atom_site_type_symbol
 _atom_site_label
 _atom_site_symmetry_multiplicity
 _atom_site_fract_x
 _atom_site_fract_y
 _atom_site_fract_z
 _atom_site_occupancy
  Al  Al0  1  0.00000000  0.00000000  0.00000000  1
  Al  Al1  1  0.50000000  0.00000000  0.00000000  1
  Al  Al2  1  0.50000000  0.50000000  0.00000000  1
  Al  Al3  1  0.00000000  0.50000000  0.50000000  1
  Al  Al4  1  0.00000000  0.00000000  0.50000000  1
  Al  Al5  1  0.50000000  0.50000000  0.50000000  1
  Al  Al6  1  0.00000000  0.50000000  0.00000000  1
  Al  Al7  1  0.50000000  0.00000000  0.50000000  1
  Si  Si0  1  0.12500000  0.75000000  0.87500000  1
  Si  Si1  1  0.75000000  0.87500000  0.12500000  1
  Si  Si2  1  0.25000000  0.62500000  0.37500000  1
  Si  Si3  1  0.62500000  0.75000000  0.37500000  1
  Si  Si4  1  0.87500000  0.12500000  0.75000000  1
  Si  Si5  1  0.37500000  0.25000000  0.62500000  1
  Si  Si6  1  0.37500000  0.62500000  0.75000000  1
  Si  Si7  1  0.25000000  0.12500000  0.87500000  1
  Si  Si8  1  0.62500000  0.37500000  0.25000000  1
  Si  Si9  1  0.12500000  0.87500000  0.25000000  1
  Si  Si10  1  0.75000000  0.37500000  0.62500000  1
  Si  Si11  1  0.87500000  0.25000000  0.12500000  1
  Sn  Sn0  1  0.87500000  0.75000000  0.62500000  1
  Sn  Sn1  1  0.87500000  0.62500000  0.25000000  1
  Sn  Sn2  1  0.62500000  0.87500000  0.75000000  1
  Sn  Sn3  1  0.25000000  0.87500000  0.62500000  1
  Sn  Sn4  1  0.75000000  0.62500000  0.87500000  1
  Sn  Sn5  1  0.62500000  0.25000000  0.87500000  1
  Sn  Sn6  1  0.12500000  0.25000000  0.37500000  1
  Sn  Sn7  1  0.12500000  0.37500000  0.75000000  1
  Sn  Sn8  1  0.37500000  0.12500000  0.25000000  1
  Sn  Sn9  1  0.75000000  0.12500000  0.37500000  1
  Sn  Sn10  1  0.25000000  0.37500000  0.12500000  1
  Sn  Sn11  1  0.37500000  0.75000000  0.12500000  1
  O  O0  1  0.58044000  0.88861100  0.39286800  1
  O  O1  1  0.39286800  0.58044000  0.88861100  1
  O  O2  1  0.31242800  0.30817100  0.91956000  1
  O  O3  1  0.50425700  0.61138900  0.19182900  1
  O  O4  1  0.30817100  0.88861100  0.99574300  1
  O  O5  1  0.10713200  0.99574300  0.18757200  1
  O  O6  1  0.39286800  0.31242800  0.50425700  1
  O  O7  1  0.88861100  0.39286800  0.58044000  1
  O  O8  1  0.19182900  0.18757200  0.58044000  1
  O  O9  1  0.50425700  0.39286800  0.31242800  1
  O  O10  1  0.88861100  0.99574300  0.30817100  1
  O  O11  1  0.61138900  0.91956000  0.10713200  1
  O  O12  1  0.91956000  0.10713200  0.61138900  1
  O  O13  1  0.31242800  0.50425700  0.39286800  1
  O  O14  1  0.58044000  0.19182900  0.18757200  1
  O  O15  1  0.18757200  0.58044000  0.19182900  1
  O  O16  1  0.99574300  0.30817100  0.88861100  1
  O  O17  1  0.91956000  0.31242800  0.30817100  1
  O  O18  1  0.99574300  0.18757200  0.10713200  1
  O  O19  1  0.80817100  0.81242800  0.41956000  1
  O  O20  1  0.30817100  0.91956000  0.31242800  1
  O  O21  1  0.61138900  0.19182900  0.50425700  1
  O  O22  1  0.18757200  0.10713200  0.99574300  1
  O  O23  1  0.10713200  0.61138900  0.91956000  1
  O  O24  1  0.41956000  0.11138900  0.60713200  1
  O  O25  1  0.60713200  0.41956000  0.11138900  1
  O  O26  1  0.68757200  0.69182900  0.08044000  1
  O  O27  1  0.49574300  0.38861100  0.80817100  1
  O  O28  1  0.69182900  0.11138900  0.00425700  1
  O  O29  1  0.89286800  0.00425700  0.81242800  1
  O  O30  1  0.60713200  0.68757200  0.49574300  1
  O  O31  1  0.11138900  0.60713200  0.41956000  1
  O  O32  1  0.89286800  0.38861100  0.08044000  1
  O  O33  1  0.81242800  0.89286800  0.00425700  1
  O  O34  1  0.38861100  0.80817100  0.49574300  1
  O  O35  1  0.69182900  0.08044000  0.68757200  1
  O  O36  1  0.80817100  0.49574300  0.38861100  1
  O  O37  1  0.00425700  0.81242800  0.89286800  1
  O  O38  1  0.08044000  0.68757200  0.69182900  1
  O  O39  1  0.00425700  0.69182900  0.11138900  1
  O  O40  1  0.81242800  0.41956000  0.80817100  1
  O  O41  1  0.41956000  0.80817100  0.81242800  1
  O  O42  1  0.68757200  0.49574300  0.60713200  1
  O  O43  1  0.08044000  0.89286800  0.38861100  1
  O  O44  1  0.38861100  0.08044000  0.89286800  1
  O  O45  1  0.11138900  0.00425700  0.69182900  1
  O  O46  1  0.49574300  0.60713200  0.68757200  1
  O  O47  1  0.19182900  0.50425700  0.61138900  1
loop_
_geom_bond_atom_site_label_1
_geom_bond_atom_site_label_2
_geom_bond_distance
_geom_bond_site_symmetry_2
Al0 O22 1.970484 1_554
Al0 O29 1.970484 1_454
Al0 O33 1.970484 1_445
Al0 O37 1.970484 1_544
Al0 O5 1.970484 1_545
Al0 O18 1.970484 1_455
Al1 O11 1.970484 1_545
Al1 O28 1.970484 1_555
Al1 O4 1.970484 1_544
Al1 O14 1.970484 1_555
Al1 O44 1.970484 1_554
Al1 O41 1.970484 1_544
Al2 O25 1.970484 1_555
Al2 O26 1.970484 1_555
Al2 O27 1.970484 1_554
Al2 O3 1.970484 1_555
Al2 O2 1.970484 1_554
Al2 O1 1.970484 1_554
Al3 O31 1.970484 1_555
Al3 O38 1.970484 1_555
Al3 O47 1.970484 1_555
Al3 O36 1.970484 1_455
Al3 O17 1.970484 1_455
Al3 O7 1.970484 1_455
Al4 O12 1.970484 1_455
Al4 O45 1.970484 1_555
Al4 O10 1.970484 1_445
Al4 O8 1.970484 1_555
Al4 O43 1.970484 1_545
Al4 O19 1.970484 1_445
Al5 O30 1.970484 1_555
Al5 O46 1.970484 1_555
Al5 O42 1.970484 1_555
Al5 O6 1.970484 1_555
Al5 O9 1.970484 1_555
Al5 O13 1.970484 1_555
Al6 O23 1.970484 1_554
Al6 O39 1.970484 1_555
Al6 O16 1.970484 1_454
Al6 O15 1.970484 1_555
Al6 O32 1.970484 1_455
Al6 O40 1.970484 1_454
Al7 O24 1.970484 1_555
Al7 O35 1.970484 1_555
Al7 O34 1.970484 1_545
Al7 O21 1.970484 1_555
Al7 O20 1.970484 1_545
Al7 O0 1.970484 1_545
O0 Si3 1.670308 1_555
O0 Sn11 2.450077 1_555
O0 Sn9 2.678977 1_565
O1 Si6 1.670308 1_555
O1 Sn7 2.450077 1_555
O1 Sn11 2.678977 1_556
O2 Si7 1.670308 1_555
O2 Sn10 2.450077 1_556
O2 Sn7 2.678977 1_555
O3 Si3 1.670308 1_555
O3 Sn11 2.450077 1_555
O3 Sn10 2.678977 1_555
O4 Si0 1.670308 1_555
O4 Sn11 2.450077 1_556
O4 Sn8 2.678977 1_566
O5 Si9 1.670308 1_555
O5 Sn8 2.450077 1_565
O5 Sn6 2.678977 1_565
O6 Si5 1.670308 1_555
O6 Sn6 2.450077 1_555
O6 Sn8 2.678977 1_555
O7 Si10 1.670308 1_555
O7 Sn9 2.450077 1_555
O7 Sn7 2.678977 1_655
O8 Si5 1.670308 1_555
O8 Sn6 2.450077 1_555
O8 Sn7 2.678977 1_555
O9 Si8 1.670308 1_555
O9 Sn8 2.450077 1_555
O9 Sn10 2.678977 1_555
O10 Si1 1.670308 1_555
O10 Sn9 2.450077 1_565
O10 Sn6 2.678977 1_665
O11 Si1 1.670308 1_555
O11 Sn9 2.450077 1_565
O11 Sn11 2.678977 1_555
O12 Si4 1.670308 1_555
O12 Sn7 2.450077 1_655
O12 Sn9 2.678977 1_555
O13 Si2 1.670308 1_555
O13 Sn10 2.450077 1_555
O13 Sn6 2.678977 1_555
O14 Si8 1.670308 1_555
O14 Sn8 2.450077 1_555
O14 Sn9 2.678977 1_555
O15 Si2 1.670308 1_555
O15 Sn10 2.450077 1_555
O15 Sn11 2.678977 1_555
O16 Si4 1.670308 1_555
O16 Sn7 2.450077 1_655
O16 Sn10 2.678977 1_656
O17 Si11 1.670308 1_555
O17 Sn6 2.450077 1_655
O17 Sn9 2.678977 1_555
O18 Si11 1.670308 1_555
O18 Sn6 2.450077 1_655
O18 Sn10 2.678977 1_655
O19 Si3 1.670308 1_555
O19 Sn0 2.450077 1_555
O19 Sn1 2.678977 1_555
O20 Si9 1.670308 1_555
O20 Sn8 2.450077 1_565
O20 Sn11 2.678977 1_555
O21 Si10 1.670308 1_555
O21 Sn9 2.450077 1_555
O21 Sn8 2.678977 1_555
O22 Si7 1.670308 1_555
O22 Sn10 2.450077 1_556
O22 Sn8 2.678977 1_556
O23 Si0 1.670308 1_555
O23 Sn11 2.450077 1_556
O23 Sn7 2.678977 1_555
O24 Si5 1.670308 1_555
O24 Sn5 2.450077 1_555
O24 Sn3 2.678977 1_545
O25 Si8 1.670308 1_555
O25 Sn1 2.450077 1_555
O25 Sn5 2.678977 1_554
O26 Si1 1.670308 1_555
O26 Sn4 2.450077 1_554
O26 Sn1 2.678977 1_555
O27 Si5 1.670308 1_555
O27 Sn5 2.450077 1_555
O27 Sn4 2.678977 1_555
O28 Si11 1.670308 1_555
O28 Sn5 2.450077 1_554
O28 Sn2 2.678977 1_544
O29 Si4 1.670308 1_555
O29 Sn2 2.450077 1_545
O29 Sn0 2.678977 1_545
O30 Si3 1.670308 1_555
O30 Sn0 2.450077 1_555
O30 Sn2 2.678977 1_555
O31 Si2 1.670308 1_555
O31 Sn3 2.450077 1_555
O31 Sn1 2.678977 1_455
O32 Si11 1.670308 1_555
O32 Sn5 2.450077 1_554
O32 Sn1 2.678977 1_555
O33 Si1 1.670308 1_555
O33 Sn4 2.450077 1_554
O33 Sn2 2.678977 1_554
O34 Si2 1.670308 1_555
O34 Sn3 2.450077 1_555
O34 Sn2 2.678977 1_555
O35 Si4 1.670308 1_555
O35 Sn2 2.450077 1_545
O35 Sn5 2.678977 1_555
O36 Si8 1.670308 1_555
O36 Sn1 2.450077 1_555
O36 Sn0 2.678977 1_555
O37 Si0 1.670308 1_555
O37 Sn0 2.450077 1_455
O37 Sn4 2.678977 1_455
O38 Si0 1.670308 1_555
O38 Sn0 2.450077 1_455
O38 Sn3 2.678977 1_555
O39 Si9 1.670308 1_555
O39 Sn1 2.450077 1_455
O39 Sn4 2.678977 1_454
O40 Si10 1.670308 1_555
O40 Sn4 2.450077 1_555
O40 Sn5 2.678977 1_555
O41 Si6 1.670308 1_555
O41 Sn2 2.450077 1_555
O41 Sn3 2.678977 1_555
O42 Si10 1.670308 1_555
O42 Sn4 2.450077 1_555
O42 Sn0 2.678977 1_555
O43 Si9 1.670308 1_555
O43 Sn1 2.450077 1_455
O43 Sn3 2.678977 1_555
O44 Si7 1.670308 1_555
O44 Sn3 2.450077 1_545
O44 Sn5 2.678977 1_555
O45 Si7 1.670308 1_555
O45 Sn3 2.450077 1_545
O45 Sn0 2.678977 1_445
O46 Si6 1.670308 1_555
O46 Sn2 2.450077 1_555
O46 Sn4 2.678977 1_555
O47 Si6 1.670308 1_555
O47 Sn7 2.450077 1_555
O47 Sn6 2.678977 1_555
