# generated using pymatgen
data_Zn2Cu10Sn5Hg3S20
_symmetry_space_group_name_H-M   'P 1'
_cell_length_a   6.77486015
_cell_length_b   6.77486015
_cell_length_c   24.87875168
_cell_angle_alpha   89.57294748
_cell_angle_beta   89.57294748
_cell_angle_gamma   48.40739488
_symmetry_Int_Tables_number   1
_chemical_formula_structural   Zn2Cu10Sn5Hg3S20
_chemical_formula_sum   'Zn2 Cu10 Sn5 Hg3 S20'
_cell_volume   853.98229168
_cell_formula_units_Z   1
loop_
 _symmetry_equiv_pos_site_id
 _symmetry_equiv_pos_as_xyz
  1  'x, y, z'
loop_
 _atom_site_type_symbol
 _atom_site_label
 _atom_site_symmetry_multiplicity
 _atom_site_fract_x
 _atom_site_fract_y
 _atom_site_fract_z
 _atom_site_occupancy
  Zn  Zn0  1  0.60042600  0.20031000  0.40056400  1
  Zn  Zn1  1  0.79969000  0.39957400  0.59943600  1
  Cu  Cu0  1  0.30018400  0.90012100  0.84989200  1
  Cu  Cu1  1  0.69747300  0.30109000  0.25125800  1
  Cu  Cu2  1  0.49984400  0.10027100  0.04996100  1
  Cu  Cu3  1  0.10229500  0.69898300  0.64875900  1
  Cu  Cu4  1  0.89984200  0.50000900  0.45009500  1
  Cu  Cu5  1  0.69891000  0.30252700  0.74874200  1
  Cu  Cu6  1  0.09987900  0.69981600  0.15010800  1
  Cu  Cu7  1  0.89972900  0.50015600  0.95003900  1
  Cu  Cu8  1  0.49999100  0.10015800  0.54990500  1
  Cu  Cu9  1  0.30101700  0.89770500  0.35124100  1
  Sn  Sn0  1  0.39820500  0.99840000  0.69731800  1
  Sn  Sn1  1  0.79978300  0.40004000  0.10039600  1
  Sn  Sn2  1  0.59996000  0.20021700  0.89960400  1
  Sn  Sn3  1  0.19995500  0.80004500  0.50000000  1
  Sn  Sn4  1  0.00160000  0.60179500  0.30268200  1
  Hg  Hg0  1  0.99928900  0.59989700  0.79942000  1
  Hg  Hg1  1  0.19993700  0.80006300  0.00000000  1
  Hg  Hg2  1  0.40010300  0.00071100  0.20058000  1
  S  S0  1  0.49979600  0.58326200  0.67416800  1
  S  S1  1  0.67952500  0.79681700  0.88023700  1
  S  S2  1  0.87899100  0.99733900  0.08044100  1
  S  S3  1  0.07816700  0.19980800  0.28146600  1
  S  S4  1  0.29840000  0.38600900  0.47532100  1
  S  S5  1  0.09729100  0.17033800  0.77541800  1
  S  S6  1  0.29424400  0.37479300  0.97637700  1
  S  S7  1  0.49405000  0.57437300  0.17734100  1
  S  S8  1  0.68470900  0.80602500  0.37899000  1
  S  S9  1  0.88769800  0.00221800  0.57738800  1
  S  S10  1  0.42562700  0.50595000  0.82265900  1
  S  S11  1  0.62520700  0.70575600  0.02362300  1
  S  S12  1  0.82966200  0.90270900  0.22458200  1
  S  S13  1  0.99778200  0.11230200  0.42261200  1
  S  S14  1  0.19397500  0.31529100  0.62101000  1
  S  S15  1  0.00266100  0.12100900  0.91955900  1
  S  S16  1  0.20318300  0.32047500  0.11976300  1
  S  S17  1  0.41673800  0.50020400  0.32583200  1
  S  S18  1  0.61399100  0.70160000  0.52467900  1
  S  S19  1  0.80019200  0.92183300  0.71853400  1
loop_
_geom_bond_atom_site_label_1
_geom_bond_atom_site_label_2
_geom_bond_distance
_geom_bond_site_symmetry_2
Cu0 S15 2.299629 1_565
Cu0 S1 2.301655 1_555
Cu0 S10 2.306051 1_555
Cu0 S5 2.306569 1_565
Cu1 S7 2.303988 1_555
Cu1 S12 2.309915 1_545
Cu1 S3 2.315004 1_655
Cu1 S17 2.336161 1_555
Cu2 S16 2.299253 1_555
Cu2 S6 2.301834 1_554
Cu2 S11 2.301835 1_545
Cu2 S2 2.302683 1_545
Cu3 S19 2.316329 1_455
Cu3 S0 2.341254 1_555
Cu3 S14 2.344426 1_555
Cu3 S9 2.346419 1_465
Cu4 S13 2.348020 1_555
Cu4 S8 2.350290 1_555
Cu4 S4 2.351723 1_655
Cu4 S18 2.351904 1_555
Cu5 S10 2.303988 1_555
Cu5 S5 2.309915 1_655
Cu5 S19 2.315004 1_545
Cu5 S0 2.336161 1_555
Cu6 S2 2.299629 1_455
Cu6 S16 2.301655 1_555
Cu6 S7 2.306051 1_555
Cu6 S12 2.306569 1_455
Cu7 S1 2.299253 1_555
Cu7 S11 2.301834 1_556
Cu7 S6 2.301835 1_655
Cu7 S15 2.302683 1_655
Cu8 S9 2.348020 1_555
Cu8 S14 2.350290 1_555
Cu8 S18 2.351723 1_545
Cu8 S4 2.351904 1_555
Cu9 S3 2.316329 1_565
Cu9 S17 2.341254 1_555
Cu9 S8 2.344426 1_555
Cu9 S13 2.346419 1_465
Hg0 S1 2.579434 1_555
Hg0 S10 2.580845 1_655
Hg0 S19 2.587496 1_555
Hg0 S5 2.592554 1_655
Hg1 S11 2.574934 1_555
Hg1 S6 2.574934 1_554
Hg1 S2 2.576034 1_455
Hg1 S15 2.576034 1_564
Hg2 S16 2.579434 1_555
Hg2 S7 2.580845 1_545
Hg2 S3 2.587496 1_555
Hg2 S12 2.592554 1_545
S0 Zn1 2.398899 1_555
S0 Sn0 2.482703 1_555
S1 Sn2 2.460032 1_565
S2 Sn1 2.459719 1_565
S3 Sn4 2.471106 1_555
S4 Zn0 2.406059 1_555
S4 Sn3 2.495151 1_555
S5 Sn0 2.471883 1_545
S6 Sn2 2.461547 1_555
S7 Sn1 2.465037 1_555
S8 Zn0 2.396106 1_565
S8 Sn4 2.482391 1_655
S9 Zn1 2.406144 1_555
S9 Sn3 2.487936 1_645
S10 Sn2 2.465037 1_555
S11 Sn1 2.461547 1_555
S12 Sn4 2.471883 1_655
S13 Zn0 2.406144 1_555
S13 Sn3 2.487936 1_645
S14 Zn1 2.396106 1_455
S14 Sn0 2.482391 1_545
S15 Sn2 2.459719 1_455
S16 Sn1 2.460032 1_455
S17 Zn0 2.398899 1_555
S17 Sn4 2.482703 1_555
S18 Zn1 2.406059 1_555
S18 Sn3 2.495151 1_555
S19 Sn0 2.471106 1_555
