# generated using pymatgen
data_Li2CoPHO5
_symmetry_space_group_name_H-M   'P 1'
_cell_length_a   5.51139087
_cell_length_b   7.52037063
_cell_length_c   10.75145003
_cell_angle_alpha   109.88693968
_cell_angle_beta   94.00647809
_cell_angle_gamma   109.13493255
_symmetry_Int_Tables_number   1
_chemical_formula_structural   Li2CoPHO5
_chemical_formula_sum   'Li8 Co4 P4 H4 O20'
_cell_volume   387.55760081
_cell_formula_units_Z   4
loop_
 _symmetry_equiv_pos_site_id
 _symmetry_equiv_pos_as_xyz
  1  'x, y, z'
loop_
 _atom_site_type_symbol
 _atom_site_label
 _atom_site_symmetry_multiplicity
 _atom_site_fract_x
 _atom_site_fract_y
 _atom_site_fract_z
 _atom_site_occupancy
  Li  Li0  1  0.86687900  0.15888400  0.24144100  1
  Li  Li1  1  0.86736800  0.15881900  0.74152600  1
  Li  Li2  1  0.13263600  0.84118300  0.25847500  1
  Li  Li3  1  0.13311500  0.84111300  0.75855600  1
  Li  Li4  1  0.60685900  0.29842300  0.11380100  1
  Li  Li5  1  0.60691600  0.29806200  0.61371000  1
  Li  Li6  1  0.39308800  0.70194000  0.38629100  1
  Li  Li7  1  0.39313700  0.70157100  0.88619900  1
  Co  Co0  1  0.00000000  0.50000100  0.50000000  1
  Co  Co1  1  0.00000100  0.99999900  0.00000000  1
  Co  Co2  1  0.00000000  0.50000000  0.00000100  1
  Co  Co3  1  0.00000100  0.00000100  0.50000000  1
  P  P0  1  0.62291600  0.75675000  0.16452200  1
  P  P1  1  0.62321000  0.75660400  0.66450200  1
  P  P2  1  0.37679200  0.24339800  0.33549900  1
  P  P3  1  0.37708200  0.24324900  0.83547800  1
  H  H0  1  0.89766500  0.63149000  0.34800500  1
  H  H1  1  0.89780100  0.63137500  0.84785700  1
  H  H2  1  0.10219400  0.36862400  0.15214200  1
  H  H3  1  0.10233800  0.36851200  0.65199400  1
  O  O0  1  0.94462100  0.27431000  0.08261900  1
  O  O1  1  0.94464000  0.27417600  0.58256000  1
  O  O2  1  0.05536300  0.72582600  0.41743900  1
  O  O3  1  0.05537600  0.72568900  0.91737900  1
  O  O4  1  0.75081500  0.59327500  0.13223000  1
  O  O5  1  0.75096100  0.59304600  0.63214000  1
  O  O6  1  0.24904100  0.40695500  0.36786100  1
  O  O7  1  0.24918300  0.40672400  0.86777200  1
  O  O8  1  0.66968500  0.33575400  0.32541400  1
  O  O9  1  0.66997500  0.33567300  0.82546100  1
  O  O10  1  0.33002200  0.66432500  0.17454000  1
  O  O11  1  0.33031700  0.66424700  0.67458700  1
  O  O12  1  0.77375400  0.92505900  0.30551100  1
  O  O13  1  0.77424100  0.92493100  0.80545800  1
  O  O14  1  0.22576200  0.07507000  0.19454300  1
  O  O15  1  0.22624300  0.07494300  0.69448900  1
  O  O16  1  0.64780800  0.85712100  0.05933200  1
  O  O17  1  0.64802200  0.85696900  0.55930400  1
  O  O18  1  0.35198200  0.14303300  0.44069800  1
  O  O19  1  0.35218800  0.14287600  0.94066600  1
loop_
_geom_bond_atom_site_label_1
_geom_bond_atom_site_label_2
_geom_bond_distance
_geom_bond_site_symmetry_2
Li0 O8 2.008318 1_555
Li0 O12 2.027779 1_545
Li0 O0 2.172486 1_555
Li0 O6 2.250085 1_655
Li0 O16 2.300387 1_545
Li0 O14 2.303102 1_655
Li1 O9 2.008995 1_555
Li1 O13 2.027238 1_545
Li1 O1 2.173310 1_555
Li1 O7 2.248020 1_655
Li1 O17 2.301528 1_545
Li1 O15 2.303561 1_655
Li2 O10 2.008985 1_555
Li2 O14 2.027231 1_565
Li2 O2 2.173290 1_555
Li2 O4 2.248045 1_455
Li2 O18 2.301533 1_565
Li2 O12 2.303597 1_455
Li3 O11 2.008321 1_555
Li3 O15 2.027792 1_565
Li3 O3 2.172485 1_555
Li3 O5 2.250037 1_455
Li3 O19 2.300394 1_565
Li3 O13 2.303076 1_455
Li4 O0 1.969202 1_555
Li4 O19 1.969909 1_554
Li4 O4 2.027647 1_555
Li4 O8 2.183264 1_555
Li5 O1 1.968338 1_555
Li5 O18 1.969501 1_555
Li5 O5 2.028582 1_555
Li5 O9 2.184200 1_555
Li6 O2 1.968339 1_555
Li6 O17 1.969509 1_555
Li6 O6 2.028589 1_555
Li6 O10 2.184194 1_555
Li7 O3 1.969205 1_555
Li7 O16 1.969895 1_556
Li7 O7 2.027618 1_555
Li7 O11 2.183266 1_555
Co0 O1 2.118701 1_455
Co0 O2 2.118708 1_555
Co0 O5 2.148885 1_455
Co0 O6 2.148890 1_555
Co0 O8 2.198673 1_455
Co0 O11 2.198686 1_555
Co1 O3 2.083690 1_554
Co1 O0 2.083709 1_465
Co1 O19 2.145032 1_564
Co1 O16 2.145048 1_455
Co1 O13 2.148067 1_454
Co1 O14 2.148072 1_565
Co2 O0 2.118219 1_455
Co2 O3 2.118244 1_554
Co2 O7 2.150622 1_554
Co2 O4 2.150628 1_455
Co2 O10 2.197425 1_555
Co2 O9 2.197441 1_454
Co3 O1 2.082680 1_455
Co3 O2 2.082683 1_545
Co3 O18 2.144341 1_555
Co3 O17 2.144344 1_445
Co3 O15 2.148962 1_555
Co3 O12 2.148974 1_445
H0 O2 0.980193 1_655
H1 O3 0.980190 1_655
H2 O0 0.980188 1_455
H3 O1 0.980193 1_455
O4 P0 1.562299 1_555
O5 P1 1.562234 1_555
O6 P2 1.562227 1_555
O7 P3 1.562299 1_555
O8 P2 1.562247 1_555
O9 P3 1.562100 1_555
O10 P0 1.562109 1_555
O11 P1 1.562248 1_555
O12 P0 1.555544 1_555
O13 P1 1.555564 1_555
O14 P2 1.555565 1_555
O15 P3 1.555538 1_555
O16 P0 1.549900 1_555
O17 P1 1.549955 1_555
O18 P2 1.549964 1_555
O19 P3 1.549891 1_555
