# generated using pymatgen
data_RbCeMg14O16
_symmetry_space_group_name_H-M   'P 1'
_cell_length_a   8.81839400
_cell_length_b   8.81839400
_cell_length_c   4.55637700
_cell_angle_alpha   90.00000000
_cell_angle_beta   90.00000000
_cell_angle_gamma   90.00000000
_symmetry_Int_Tables_number   1
_chemical_formula_structural   RbCeMg14O16
_chemical_formula_sum   'Rb1 Ce1 Mg14 O16'
_cell_volume   354.32243246
_cell_formula_units_Z   1
loop_
 _symmetry_equiv_pos_site_id
 _symmetry_equiv_pos_as_xyz
  1  'x, y, z'
loop_
 _atom_site_type_symbol
 _atom_site_label
 _atom_site_symmetry_multiplicity
 _atom_site_fract_x
 _atom_site_fract_y
 _atom_site_fract_z
 _atom_site_occupancy
  Rb  Rb0  1  0.50000000  0.50000000  0.00000000  1
  Ce  Ce0  1  0.00000000  0.00000000  0.00000000  1
  Mg  Mg0  1  0.50000000  0.00000000  0.00000000  1
  Mg  Mg1  1  0.00000000  0.50000000  0.00000000  1
  Mg  Mg2  1  0.26700300  0.00000000  0.50000000  1
  Mg  Mg3  1  0.73299700  0.00000000  0.50000000  1
  Mg  Mg4  1  0.24856100  0.50000000  0.50000000  1
  Mg  Mg5  1  0.75143900  0.50000000  0.50000000  1
  Mg  Mg6  1  0.00000000  0.26700300  0.50000000  1
  Mg  Mg7  1  0.50000000  0.24856100  0.50000000  1
  Mg  Mg8  1  0.00000000  0.73299700  0.50000000  1
  Mg  Mg9  1  0.50000000  0.75143900  0.50000000  1
  Mg  Mg10  1  0.25775000  0.25775000  0.00000000  1
  Mg  Mg11  1  0.74225000  0.25775000  0.00000000  1
  Mg  Mg12  1  0.25775000  0.74225000  0.00000000  1
  Mg  Mg13  1  0.74225000  0.74225000  0.00000000  1
  O  O0  1  0.00000000  0.26042900  0.00000000  1
  O  O1  1  0.50000000  0.22067300  0.00000000  1
  O  O2  1  0.00000000  0.73957100  0.00000000  1
  O  O3  1  0.50000000  0.77932700  0.00000000  1
  O  O4  1  0.24741100  0.24741100  0.50000000  1
  O  O5  1  0.75258900  0.24741100  0.50000000  1
  O  O6  1  0.24741100  0.75258900  0.50000000  1
  O  O7  1  0.75258900  0.75258900  0.50000000  1
  O  O8  1  0.00000000  0.00000000  0.50000000  1
  O  O9  1  0.50000000  0.00000000  0.50000000  1
  O  O10  1  0.00000000  0.50000000  0.50000000  1
  O  O11  1  0.50000000  0.50000000  0.50000000  1
  O  O12  1  0.26042900  0.00000000  0.00000000  1
  O  O13  1  0.73957100  0.00000000  0.00000000  1
  O  O14  1  0.22067300  0.50000000  0.00000000  1
  O  O15  1  0.77932700  0.50000000  0.00000000  1
loop_
_geom_bond_atom_site_label_1
_geom_bond_atom_site_label_2
_geom_bond_distance
_geom_bond_site_symmetry_2
Ce0 O8 2.278189 1_555
Ce0 O8 2.278189 1_554
Ce0 O12 2.296566 1_555
Ce0 O0 2.296566 1_555
Ce0 O13 2.296566 1_455
Ce0 O2 2.296566 1_545
Mg0 O1 1.945981 1_555
Mg0 O3 1.945981 1_545
Mg0 O13 2.112631 1_555
Mg0 O12 2.112631 1_555
Mg0 O9 2.278189 1_554
Mg0 O9 2.278189 1_555
Mg1 O14 1.945981 1_555
Mg1 O15 1.945981 1_455
Mg1 O2 2.112631 1_555
Mg1 O0 2.112631 1_555
Mg1 O10 2.278189 1_554
Mg1 O10 2.278189 1_555
Mg2 O9 2.054659 1_555
Mg2 O4 2.188598 1_555
Mg2 O6 2.188598 1_545
Mg2 O12 2.278926 1_556
Mg2 O12 2.278926 1_555
Mg2 O8 2.354538 1_555
Mg3 O9 2.054659 1_555
Mg3 O5 2.188598 1_555
Mg3 O7 2.188598 1_545
Mg3 O13 2.278926 1_555
Mg3 O13 2.278926 1_556
Mg3 O8 2.354538 1_655
Mg4 O10 2.191909 1_555
Mg4 O11 2.217288 1_555
Mg4 O6 2.227452 1_555
Mg4 O4 2.227452 1_555
Mg4 O14 2.291424 1_556
Mg4 O14 2.291424 1_555
Mg5 O10 2.191909 1_655
Mg5 O11 2.217288 1_555
Mg5 O7 2.227452 1_555
Mg5 O5 2.227452 1_555
Mg5 O15 2.291424 1_556
Mg5 O15 2.291424 1_555
Mg6 O10 2.054659 1_555
Mg6 O4 2.188598 1_555
Mg6 O5 2.188598 1_455
Mg6 O0 2.278926 1_555
Mg6 O0 2.278926 1_556
Mg6 O8 2.354538 1_555
Mg7 O9 2.191909 1_555
Mg7 O11 2.217288 1_555
Mg7 O5 2.227452 1_555
Mg7 O4 2.227452 1_555
Mg7 O1 2.291424 1_555
Mg7 O1 2.291424 1_556
Mg8 O10 2.054659 1_555
Mg8 O6 2.188598 1_555
Mg8 O7 2.188598 1_455
Mg8 O2 2.278926 1_556
Mg8 O2 2.278926 1_555
Mg8 O8 2.354538 1_565
Mg9 O9 2.191909 1_565
Mg9 O11 2.217288 1_555
Mg9 O7 2.227452 1_555
Mg9 O6 2.227452 1_555
Mg9 O3 2.291424 1_555
Mg9 O3 2.291424 1_556
Mg10 O1 2.161132 1_555
Mg10 O14 2.161132 1_555
Mg10 O12 2.273064 1_555
Mg10 O0 2.273064 1_555
Mg10 O4 2.281834 1_554
Mg10 O4 2.281834 1_555
Mg11 O15 2.161132 1_555
Mg11 O1 2.161132 1_555
Mg11 O0 2.273064 1_655
Mg11 O13 2.273064 1_555
Mg11 O5 2.281834 1_554
Mg11 O5 2.281834 1_555
Mg12 O3 2.161132 1_555
Mg12 O14 2.161132 1_555
Mg12 O12 2.273064 1_565
Mg12 O2 2.273064 1_555
Mg12 O6 2.281834 1_555
Mg12 O6 2.281834 1_554
Mg13 O3 2.161132 1_555
Mg13 O15 2.161132 1_555
Mg13 O13 2.273064 1_565
Mg13 O2 2.273064 1_655
Mg13 O7 2.281834 1_555
Mg13 O7 2.281834 1_554
O1 Rb0 2.463216 1_555
O3 Rb0 2.463216 1_555
O11 Rb0 2.278189 1_555
O11 Rb0 2.278189 1_556
O14 Rb0 2.463216 1_555
O15 Rb0 2.463216 1_555
