# generated using pymatgen
data_CsMg6SiO8
_symmetry_space_group_name_H-M   'P 1'
_cell_length_a   9.49910333
_cell_length_b   4.59949268
_cell_length_c   4.50479172
_cell_angle_alpha   90.09378601
_cell_angle_beta   90.00013151
_cell_angle_gamma   90.00029833
_symmetry_Int_Tables_number   1
_chemical_formula_structural   CsMg6SiO8
_chemical_formula_sum   'Cs1 Mg6 Si1 O8'
_cell_volume   196.81884463
_cell_formula_units_Z   1
loop_
 _symmetry_equiv_pos_site_id
 _symmetry_equiv_pos_as_xyz
  1  'x, y, z'
loop_
 _atom_site_type_symbol
 _atom_site_label
 _atom_site_symmetry_multiplicity
 _atom_site_fract_x
 _atom_site_fract_y
 _atom_site_fract_z
 _atom_site_occupancy
  Cs  Cs0  1  0.00000943  0.50003998  0.49998278  1
  Mg  Mg0  1  0.49999733  -0.00001267  0.00000516  1
  Mg  Mg1  1  0.50000135  0.49998949  0.50000338  1
  Mg  Mg2  1  0.28246677  -0.00000673  0.50000607  1
  Mg  Mg3  1  0.71752801  -0.00000698  0.50000262  1
  Mg  Mg4  1  0.28314054  0.49999188  0.00000138  1
  Mg  Mg5  1  0.71685564  0.49998952  0.00000400  1
  Si  Si0  1  0.00000418  0.99980527  0.00013553  1
  O  O0  1  0.27528757  -0.00002334  0.00000132  1
  O  O1  1  0.72469671  0.99999118  0.00001391  1
  O  O2  1  0.29066786  0.49999302  0.50000047  1
  O  O3  1  0.70933699  0.49999335  0.50000512  1
  O  O4  1  0.00000761  -0.00011258  0.49976631  1
  O  O5  1  0.49999583  -0.00000432  0.50000416  1
  O  O6  1  0.00000765  0.50038189  0.00006580  1
  O  O7  1  0.49999653  0.49999105  0.00000199  1
loop_
_geom_bond_atom_site_label_1
_geom_bond_atom_site_label_2
_geom_bond_distance
_geom_bond_site_symmetry_2
Cs0 O6 2.252025 1_555
Cs0 O6 2.252768 1_556
Cs0 O4 2.299046 1_565
Cs0 O4 2.300447 1_555
Cs0 O2 2.760994 1_555
Cs0 O3 2.761128 1_455
Mg0 O1 2.134443 1_545
Mg0 O0 2.134541 1_555
Mg0 O5 2.252391 1_555
Mg0 O5 2.252400 1_554
Mg0 O7 2.299729 1_545
Mg0 O7 2.299763 1_555
Mg1 O2 1.988480 1_555
Mg1 O3 1.988501 1_555
Mg1 O7 2.252390 1_556
Mg1 O7 2.252402 1_555
Mg1 O5 2.299718 1_555
Mg1 O5 2.299775 1_565
Mg2 O5 2.066331 1_555
Mg2 O0 2.253407 1_556
Mg2 O0 2.253449 1_555
Mg2 O2 2.301064 1_555
Mg2 O2 2.301067 1_545
Mg2 O4 2.683109 1_555
Mg3 O5 2.066361 1_555
Mg3 O1 2.253374 1_545
Mg3 O1 2.253476 1_546
Mg3 O3 2.301060 1_545
Mg3 O3 2.301064 1_555
Mg3 O4 2.683303 1_655
Mg4 O7 2.059937 1_555
Mg4 O2 2.253526 1_555
Mg4 O2 2.253535 1_554
Mg4 O0 2.300886 1_565
Mg4 O0 2.301025 1_555
Mg4 O6 2.689509 1_555
Mg5 O7 2.059967 1_555
Mg5 O3 2.253523 1_554
Mg5 O3 2.253533 1_555
Mg5 O1 2.300945 1_545
Mg5 O1 2.300959 1_555
Mg5 O6 2.689691 1_655
O4 Si0 2.250732 1_545
O4 Si0 2.254060 1_546
O6 Si0 2.297094 1_555
O6 Si0 2.302399 1_545
