# generated using pymatgen
data_Ag2Te(H2O3)2
_symmetry_space_group_name_H-M   'P 1'
_cell_length_a   10.43772863
_cell_length_b   9.94398212
_cell_length_c   5.60553889
_cell_angle_alpha   78.95457498
_cell_angle_beta   69.23587815
_cell_angle_gamma   31.80954688
_symmetry_Int_Tables_number   1
_chemical_formula_structural   Ag2Te(H2O3)2
_chemical_formula_sum   'Ag4 Te2 H8 O12'
_cell_volume   279.56180569
_cell_formula_units_Z   2
loop_
 _symmetry_equiv_pos_site_id
 _symmetry_equiv_pos_as_xyz
  1  'x, y, z'
loop_
 _atom_site_type_symbol
 _atom_site_label
 _atom_site_symmetry_multiplicity
 _atom_site_fract_x
 _atom_site_fract_y
 _atom_site_fract_z
 _atom_site_occupancy
  Ag  Ag0  1  0.66017200  0.18439800  0.86880200  1
  Ag  Ag1  1  0.86880200  0.28662800  0.66017200  1
  Ag  Ag2  1  0.06560200  0.58982800  0.96337200  1
  Ag  Ag3  1  0.96337200  0.38119800  0.06560200  1
  Te  Te0  1  0.24737300  0.75262700  0.24737300  1
  Te  Te1  1  0.49737300  0.00262700  0.49737300  1
  H  H0  1  0.22450800  0.75522900  0.80278700  1
  H  H1  1  0.80278700  0.21747500  0.22450800  1
  H  H2  1  0.49477100  0.02549200  0.03252500  1
  H  H3  1  0.03252500  0.44721300  0.49477100  1
  H  H4  1  0.93656800  0.80251800  0.45521000  1
  H  H5  1  0.45521000  0.80570400  0.93656800  1
  H  H6  1  0.44748200  0.31343200  0.44429600  1
  H  H7  1  0.44429600  0.79479000  0.44748200  1
  O  O0  1  0.52637800  0.38900300  0.24855100  1
  O  O1  1  0.24855100  0.83606800  0.52637800  1
  O  O2  1  0.86099700  0.72362200  0.41393200  1
  O  O3  1  0.41393200  0.00144900  0.86099700  1
  O  O4  1  0.20735700  0.70081400  0.96858100  1
  O  O5  1  0.96858100  0.12324800  0.20735700  1
  O  O6  1  0.54918600  0.04264300  0.12675200  1
  O  O7  1  0.12675200  0.28141900  0.54918600  1
  O  O8  1  0.97679900  0.85375500  0.51073400  1
  O  O9  1  0.51073400  0.65871200  0.97679900  1
  O  O10  1  0.39624500  0.27320100  0.59128800  1
  O  O11  1  0.59128800  0.73926600  0.39624500  1
loop_
_geom_bond_atom_site_label_1
_geom_bond_atom_site_label_2
_geom_bond_distance
_geom_bond_site_symmetry_2
Ag0 O8 2.262389 1_545
Ag0 O0 2.311654 1_556
Ag0 O6 2.495287 1_556
Ag0 O4 2.645175 1_555
Ag1 O9 2.262389 1_555
Ag1 O1 2.311654 1_645
Ag1 O7 2.495287 1_655
Ag1 O5 2.645175 1_555
Ag2 O10 2.262389 1_555
Ag2 O2 2.311654 1_456
Ag2 O4 2.495287 1_555
Ag2 O6 2.645175 1_466
Ag3 O11 2.262389 1_555
Ag3 O3 2.311654 1_654
Ag3 O5 2.495287 1_555
Ag3 O7 2.645175 1_654
H0 O4 1.021047 1_555
H0 O1 1.643105 1_555
H1 O5 1.021052 1_555
H1 O0 1.643100 1_555
H2 O6 1.021043 1_555
H2 O3 1.643109 1_554
H3 O7 1.021050 1_555
H3 O2 1.643102 1_455
H4 O8 1.024626 1_555
H4 O2 1.594360 1_555
H5 O9 1.024626 1_555
H5 O3 1.594360 1_565
H6 O10 1.024626 1_555
H6 O0 1.594360 1_555
H7 O11 1.024626 1_555
H7 O1 1.594360 1_555
O0 Te0 1.913855 1_555
O1 Te0 1.913855 1_555
O2 Te1 1.913855 1_565
O3 Te1 1.913855 1_555
O4 Te0 2.004817 1_556
O5 Te0 2.004817 1_645
O6 Te1 2.004817 1_555
O7 Te1 2.004817 1_555
O8 Te0 1.988051 1_655
O9 Te0 1.988051 1_556
O10 Te1 1.988051 1_555
O11 Te1 1.988051 1_565
