# generated using pymatgen
data_DyZnNi
_symmetry_space_group_name_H-M   'P 1'
_cell_length_a   6.94809742
_cell_length_b   6.94809742
_cell_length_c   3.74070893
_cell_angle_alpha   90.00000000
_cell_angle_beta   90.00000000
_cell_angle_gamma   119.99999259
_symmetry_Int_Tables_number   1
_chemical_formula_structural   DyZnNi
_chemical_formula_sum   'Dy3 Zn3 Ni3'
_cell_volume   156.39266452
_cell_formula_units_Z   3
loop_
 _symmetry_equiv_pos_site_id
 _symmetry_equiv_pos_as_xyz
  1  'x, y, z'
loop_
 _atom_site_type_symbol
 _atom_site_label
 _atom_site_symmetry_multiplicity
 _atom_site_fract_x
 _atom_site_fract_y
 _atom_site_fract_z
 _atom_site_occupancy
  Dy  Dy0  1  0.40906282  0.40906282  0.50000000  1
  Dy  Dy1  1  0.59093718  0.00000000  0.50000000  1
  Dy  Dy2  1  0.00000000  0.59093718  0.50000000  1
  Zn  Zn0  1  0.75900322  0.75900322  -0.00000000  1
  Zn  Zn1  1  0.24099678  1.00000000  -0.00000000  1
  Zn  Zn2  1  1.00000000  0.24099678  0.00000000  1
  Ni  Ni0  1  0.66666700  0.33333300  -0.00000000  1
  Ni  Ni1  1  0.33333300  0.66666700  0.00000000  1
  Ni  Ni2  1  -0.00000000  0.00000000  0.50000000  1
loop_
_geom_bond_atom_site_label_1
_geom_bond_atom_site_label_2
_geom_bond_distance
_geom_bond_site_symmetry_2
Dy0 Ni1 2.814333 1_555
Dy0 Ni1 2.814333 1_556
Dy0 Ni0 2.814333 1_556
Dy0 Ni0 2.814333 1_555
Dy0 Ni2 2.842209 1_555
Dy0 Zn0 3.067577 1_555
Dy0 Zn0 3.067577 1_556
Dy0 Zn1 3.101779 1_545
Dy0 Zn1 3.101779 1_546
Dy0 Zn2 3.101779 1_455
Dy0 Zn2 3.101779 1_456
Dy1 Ni0 2.814328 1_555
Dy1 Ni0 2.814328 1_556
Dy1 Ni1 2.814329 1_546
Dy1 Ni1 2.814329 1_545
Dy1 Ni2 2.842208 1_655
Dy1 Zn1 3.067577 1_546
Dy1 Zn1 3.067577 1_545
Dy1 Zn0 3.101779 1_545
Dy1 Zn0 3.101779 1_546
Dy1 Zn2 3.101779 1_556
Dy1 Zn2 3.101779 1_555
Dy2 Ni1 2.814328 1_556
Dy2 Ni1 2.814328 1_555
Dy2 Ni0 2.814329 1_456
Dy2 Ni0 2.814329 1_455
Dy2 Ni2 2.842208 1_565
Dy2 Zn2 3.067577 1_455
Dy2 Zn2 3.067577 1_456
Dy2 Zn0 3.101779 1_455
Dy2 Zn0 3.101779 1_456
Dy2 Zn1 3.101779 1_556
Dy2 Zn1 3.101779 1_555
Zn0 Zn2 2.900266 1_565
Zn0 Zn1 2.900266 1_655
Zn1 Zn2 2.900265 1_465
Ni0 Zn2 2.694712 1_555
Ni0 Zn1 2.694717 1_545
Ni0 Zn0 2.694719 1_555
Ni1 Zn1 2.694712 1_555
Ni1 Zn2 2.694717 1_455
Ni1 Zn0 2.694719 1_555
Ni2 Zn1 2.510393 1_545
Ni2 Zn1 2.510393 1_546
Ni2 Zn2 2.510393 1_455
Ni2 Zn2 2.510393 1_456
Ni2 Zn0 2.510393 1_446
Ni2 Zn0 2.510393 1_445
