# generated using pymatgen
data_Yb4CrS7
_symmetry_space_group_name_H-M   'P 1'
_cell_length_a   6.64135959
_cell_length_b   6.64135959
_cell_length_c   11.33298890
_cell_angle_alpha   76.03189859
_cell_angle_beta   76.03189859
_cell_angle_gamma   32.53736412
_symmetry_Int_Tables_number   1
_chemical_formula_structural   Yb4CrS7
_chemical_formula_sum   'Yb4 Cr1 S7'
_cell_volume   260.21741975
_cell_formula_units_Z   1
loop_
 _symmetry_equiv_pos_site_id
 _symmetry_equiv_pos_as_xyz
  1  'x, y, z'
loop_
 _atom_site_type_symbol
 _atom_site_label
 _atom_site_symmetry_multiplicity
 _atom_site_fract_x
 _atom_site_fract_y
 _atom_site_fract_z
 _atom_site_occupancy
  Yb  Yb0  1  0.69189400  0.69189400  0.19869200  1
  Yb  Yb1  1  0.30289000  0.30289000  0.79825700  1
  Yb  Yb2  1  0.99966600  0.99966600  0.00487500  1
  Yb  Yb3  1  0.11538200  0.11538200  0.56534500  1
  Cr  Cr0  1  0.88143700  0.88143700  0.42397800  1
  S  S0  1  0.75531100  0.75531100  0.62041200  1
  S  S1  1  0.28884900  0.28884900  0.35561600  1
  S  S2  1  0.33327000  0.33327000  0.06964800  1
  S  S3  1  0.66581900  0.66581900  0.95265500  1
  S  S4  1  0.01867300  0.01867300  0.24470400  1
  S  S5  1  0.96811600  0.96811600  0.77955100  1
  S  S6  1  0.47869300  0.47869300  0.48626600  1
loop_
_geom_bond_atom_site_label_1
_geom_bond_atom_site_label_2
_geom_bond_distance
_geom_bond_site_symmetry_2
Cr0 S4 2.324217 1_665
Cr0 S0 2.396201 1_555
Cr0 S1 2.432184 1_655
Cr0 S1 2.432184 1_565
Cr0 S6 2.436788 1_565
Cr0 S6 2.436788 1_655
S0 Yb3 2.755796 1_565
S0 Yb3 2.755796 1_655
S0 Yb1 2.916647 1_565
S0 Yb1 2.916647 1_655
S1 Yb3 2.810314 1_555
S1 Yb0 3.042750 1_455
S1 Yb0 3.042750 1_545
S2 Yb0 2.743013 1_455
S2 Yb0 2.743013 1_545
S2 Yb2 2.778261 1_545
S2 Yb2 2.778261 1_455
S2 Yb1 3.195149 1_554
S3 Yb2 2.769420 1_546
S3 Yb2 2.769420 1_456
S3 Yb1 2.835496 1_565
S3 Yb1 2.835496 1_655
S3 Yb0 2.889909 1_556
S4 Yb2 2.788802 1_445
S4 Yb0 2.834198 1_455
S4 Yb0 2.834198 1_545
S5 Yb3 2.669602 1_665
S5 Yb2 2.683152 1_556
S5 Yb1 2.778557 1_565
S5 Yb1 2.778557 1_655
S6 Yb3 2.843934 1_655
S6 Yb3 2.843934 1_565
