# generated using pymatgen
data_Eu3(GaAs2)2
_symmetry_space_group_name_H-M   'P 1'
_cell_length_a   8.50432324
_cell_length_b   8.50432324
_cell_length_c   6.77468385
_cell_angle_alpha   89.08465340
_cell_angle_beta   89.08465340
_cell_angle_gamma   76.18713228
_symmetry_Int_Tables_number   1
_chemical_formula_structural   Eu3(GaAs2)2
_chemical_formula_sum   'Eu6 Ga4 As8'
_cell_volume   475.70134069
_cell_formula_units_Z   2
loop_
 _symmetry_equiv_pos_site_id
 _symmetry_equiv_pos_as_xyz
  1  'x, y, z'
loop_
 _atom_site_type_symbol
 _atom_site_label
 _atom_site_symmetry_multiplicity
 _atom_site_fract_x
 _atom_site_fract_y
 _atom_site_fract_z
 _atom_site_occupancy
  Eu  Eu0  1  0.99688400  0.24774200  0.03115400  1
  Eu  Eu1  1  0.75225800  0.00311600  0.46884600  1
  Eu  Eu2  1  0.00311600  0.75225800  0.96884600  1
  Eu  Eu3  1  0.24774200  0.99688400  0.53115300  1
  Eu  Eu4  1  0.60039200  0.39960800  0.75000000  1
  Eu  Eu5  1  0.39960800  0.60039200  0.25000000  1
  Ga  Ga0  1  0.17465900  0.41813500  0.58444900  1
  Ga  Ga1  1  0.58186500  0.82534100  0.91555100  1
  Ga  Ga2  1  0.82534100  0.58186500  0.41555100  1
  Ga  Ga3  1  0.41813500  0.17465900  0.08444900  1
  As  As0  1  0.93930500  0.28495800  0.52460100  1
  As  As1  1  0.71504200  0.06069500  0.97539900  1
  As  As2  1  0.06069500  0.71504200  0.47539900  1
  As  As3  1  0.28495800  0.93930500  0.02460100  1
  As  As4  1  0.25708500  0.43503300  0.93344700  1
  As  As5  1  0.56496700  0.74291500  0.56655200  1
  As  As6  1  0.74291500  0.56496700  0.06655300  1
  As  As7  1  0.43503300  0.25708500  0.43344700  1
loop_
_geom_bond_atom_site_label_1
_geom_bond_atom_site_label_2
_geom_bond_distance
_geom_bond_site_symmetry_2
As0 Ga0 2.564427 1_655
As0 Ga2 2.579815 1_555
As0 Eu3 3.133046 1_645
As0 Eu4 3.186644 1_555
As0 Eu1 3.207297 1_555
As0 Eu0 3.379755 1_555
As0 Eu0 3.473003 1_556
As1 Ga1 2.564427 1_545
As1 Ga3 2.579815 1_556
As1 Eu2 3.133047 1_645
As1 Eu4 3.186644 1_555
As1 Eu0 3.207297 1_556
As1 Eu1 3.379755 1_556
As1 Eu1 3.473003 1_555
As2 Ga2 2.564427 1_455
As2 Ga0 2.579815 1_555
As2 Eu1 3.133047 1_465
As2 Eu5 3.186644 1_555
As2 Eu3 3.207296 1_555
As2 Eu2 3.379755 1_555
As2 Eu2 3.473003 1_554
As3 Ga3 2.564427 1_565
As3 Ga1 2.579815 1_554
As3 Eu0 3.133047 1_465
As3 Eu5 3.186644 1_555
As3 Eu2 3.207297 1_554
As3 Eu3 3.379762 1_554
As3 Eu3 3.472996 1_555
As4 Ga0 2.492807 1_555
As4 Ga3 2.519873 1_556
As4 Eu5 3.006503 1_556
As4 Eu2 3.036817 1_555
As4 Eu0 3.078027 1_456
As4 Eu4 3.104088 1_555
As5 Ga1 2.492813 1_555
As5 Ga2 2.519870 1_555
As5 Eu5 3.006498 1_555
As5 Eu3 3.036817 1_555
As5 Eu1 3.078026 1_565
As5 Eu4 3.104091 1_555
As6 Ga2 2.492807 1_555
As6 Ga1 2.519873 1_554
As6 Eu4 3.006503 1_554
As6 Eu0 3.036817 1_555
As6 Eu2 3.078027 1_654
As6 Eu5 3.104088 1_555
As7 Ga3 2.492807 1_555
As7 Ga0 2.519873 1_555
As7 Eu4 3.006503 1_555
As7 Eu1 3.036817 1_555
As7 Eu3 3.078026 1_545
As7 Eu5 3.104088 1_555
