# generated using pymatgen
data_K2Nd2Mg(SO4)4
_symmetry_space_group_name_H-M   'P 1'
_cell_length_a   5.46829504
_cell_length_b   8.46986291
_cell_length_c   9.85015537
_cell_angle_alpha   104.62986991
_cell_angle_beta   91.82412173
_cell_angle_gamma   90.05756335
_symmetry_Int_Tables_number   1
_chemical_formula_structural   K2Nd2Mg(SO4)4
_chemical_formula_sum   'K2 Nd2 Mg1 S4 O16'
_cell_volume   441.18230918
_cell_formula_units_Z   1
loop_
 _symmetry_equiv_pos_site_id
 _symmetry_equiv_pos_as_xyz
  1  'x, y, z'
loop_
 _atom_site_type_symbol
 _atom_site_label
 _atom_site_symmetry_multiplicity
 _atom_site_fract_x
 _atom_site_fract_y
 _atom_site_fract_z
 _atom_site_occupancy
  K  K0  1  0.76080798  0.13477591  0.07744296  1
  K  K1  1  0.24592852  0.97379121  0.66166666  1
  Nd  Nd0  1  0.22947802  0.58629063  0.29143813  1
  Nd  Nd1  1  0.76871933  0.39387485  0.72960937  1
  Mg  Mg0  1  0.25207623  0.79529133  0.96725408  1
  S  S0  1  0.24720911  0.34626908  0.91117226  1
  S  S1  1  0.74861027  0.74166534  0.56010451  1
  S  S2  1  0.75270454  0.62760123  0.11489177  1
  S  S3  1  0.25239182  0.23965723  0.46196202  1
  O  O0  1  0.72136300  0.56932672  0.96099138  1
  O  O1  1  0.21318652  0.34153495  0.35850730  1
  O  O2  1  0.77737053  0.63266175  0.65727603  1
  O  O3  1  0.96434277  0.71540898  0.46722045  1
  O  O4  1  0.26624050  0.06742884  0.39170997  1
  O  O5  1  0.46665750  0.25630914  0.84645640  1
  O  O6  1  0.97652446  0.73613213  0.14943151  1
  O  O7  1  0.20914530  0.49593999  0.85771066  1
  O  O8  1  0.04367370  0.26986960  0.56063323  1
  O  O9  1  0.52764846  0.71869675  0.16952724  1
  O  O10  1  0.79434249  0.49157017  0.18462616  1
  O  O11  1  0.28089496  0.38679234  0.06592245  1
  O  O12  1  0.02368254  0.24058461  0.86693176  1
  O  O13  1  0.73975904  0.91257875  0.63848296  1
  O  O14  1  0.48165998  0.29930676  0.54673379  1
  O  O15  1  0.51808242  0.69330871  0.47372596  1
loop_
_geom_bond_atom_site_label_1
_geom_bond_atom_site_label_2
_geom_bond_distance
_geom_bond_site_symmetry_2
K0 O12 2.880114 1_654
K0 O10 2.942044 1_555
K0 O5 3.126834 1_554
K1 O13 2.755982 1_555
K1 O13 2.806992 1_455
K1 O5 2.854834 1_565
K1 O3 2.918371 1_455
K1 O12 2.919808 1_565
K1 O4 2.965837 1_565
K1 O15 3.040808 1_555
K1 O8 3.114257 1_565
K1 Mg0 3.693236 1_555
Nd0 O1 2.331760 1_555
Nd0 O3 2.345746 1_455
Nd0 O15 2.351779 1_555
Nd0 O11 2.452208 1_555
Nd0 O9 2.481820 1_555
Nd0 O6 2.501547 1_455
Nd0 O10 2.612042 1_455
Nd1 O2 2.308731 1_555
Nd1 O8 2.326698 1_655
Nd1 O14 2.332184 1_555
Nd1 O0 2.407774 1_555
Nd1 O5 2.491031 1_555
Nd1 O12 2.495979 1_655
Nd1 O7 2.718662 1_655
Mg0 O7 2.499733 1_555
Mg0 O6 2.523190 1_456
Mg0 O9 2.669299 1_556
O0 S2 1.475261 1_556
O1 S3 1.503212 1_555
O2 S1 1.493440 1_555
O3 S1 1.498220 1_555
O4 S3 1.451269 1_555
O5 S0 1.494029 1_555
O6 S2 1.507305 1_555
O7 S0 1.502816 1_555
O8 S3 1.502776 1_555
O9 S2 1.494595 1_555
O10 S2 1.497164 1_555
O11 S0 1.480871 1_554
O12 S0 1.500683 1_555
O13 S1 1.460113 1_555
O14 S3 1.497750 1_555
O15 S1 1.495134 1_555
