# generated using pymatgen
data_ThFeCo4
_symmetry_space_group_name_H-M   'P 1'
_cell_length_a   3.99556300
_cell_length_b   5.00875110
_cell_length_c   5.00820043
_cell_angle_alpha   60.01888094
_cell_angle_beta   90.00000000
_cell_angle_gamma   90.00000000
_symmetry_Int_Tables_number   1
_chemical_formula_structural   ThFeCo4
_chemical_formula_sum   'Th1 Fe1 Co4'
_cell_volume   86.81651772
_cell_formula_units_Z   1
loop_
 _symmetry_equiv_pos_site_id
 _symmetry_equiv_pos_as_xyz
  1  'x, y, z'
loop_
 _atom_site_type_symbol
 _atom_site_label
 _atom_site_symmetry_multiplicity
 _atom_site_fract_x
 _atom_site_fract_y
 _atom_site_fract_z
 _atom_site_occupancy
  Th  Th0  1  0.00000000  0.99997300  0.00002200  1
  Fe  Fe0  1  0.00000000  0.33333500  0.33338300  1
  Co  Co0  1  0.00000000  0.66657300  0.66669500  1
  Co  Co1  1  0.50000000  0.50106400  0.50102700  1
  Co  Co2  1  0.50000000  0.50105800  0.99792100  1
  Co  Co3  1  0.50000000  0.99789700  0.50105200  1
loop_
_geom_bond_atom_site_label_1
_geom_bond_atom_site_label_2
_geom_bond_distance
_geom_bond_site_symmetry_2
Fe0 Th0 2.891614 1_545
Fe0 Th0 2.891916 1_546
Fe0 Th0 2.892230 1_555
Co0 Co1 2.460525 1_555
Co0 Co1 2.460525 1_455
Co0 Co2 2.460842 1_455
Co0 Co2 2.460842 1_555
Co0 Co3 2.461183 1_455
Co0 Co3 2.461183 1_555
Co0 Fe0 2.890864 1_555
Co0 Th0 2.891631 1_556
Co0 Th0 2.892064 1_555
Co0 Th0 2.892065 1_546
Co0 Fe0 2.892128 1_556
Co0 Fe0 2.892767 1_565
Co1 Fe0 2.471192 1_655
Co1 Fe0 2.471192 1_555
Co1 Co2 2.488530 1_555
Co1 Co3 2.488575 1_555
Co1 Co2 2.519671 1_554
Co1 Co3 2.520176 1_545
Co1 Th0 3.203891 1_555
Co1 Th0 3.203891 1_655
Co1 Th0 3.204229 1_646
Co1 Th0 3.204229 1_546
Co2 Fe0 2.471617 1_656
Co2 Fe0 2.471617 1_556
Co2 Co3 2.489191 1_555
Co2 Co3 2.520714 1_546
Co2 Th0 3.203471 1_556
Co2 Th0 3.203471 1_656
Co2 Th0 3.203747 1_546
Co2 Th0 3.203747 1_646
Co3 Fe0 2.471650 1_665
Co3 Fe0 2.471650 1_565
Co3 Th0 3.203364 1_655
Co3 Th0 3.203364 1_555
Co3 Th0 3.203423 1_656
Co3 Th0 3.203423 1_556
