# generated using pymatgen
data_Li5Mn3O8
_symmetry_space_group_name_H-M   'P 1'
_cell_length_a   5.80463582
_cell_length_b   5.86084785
_cell_length_c   8.36359968
_cell_angle_alpha   89.53087504
_cell_angle_beta   89.93707626
_cell_angle_gamma   91.03968569
_symmetry_Int_Tables_number   1
_chemical_formula_structural   Li5Mn3O8
_chemical_formula_sum   'Li10 Mn6 O16'
_cell_volume   284.47379128
_cell_formula_units_Z   2
loop_
 _symmetry_equiv_pos_site_id
 _symmetry_equiv_pos_as_xyz
  1  'x, y, z'
loop_
 _atom_site_type_symbol
 _atom_site_label
 _atom_site_symmetry_multiplicity
 _atom_site_fract_x
 _atom_site_fract_y
 _atom_site_fract_z
 _atom_site_occupancy
  Li  Li0  1  0.24891500  0.24682000  0.24821100  1
  Li  Li1  1  0.75023500  0.75145700  0.75198600  1
  Li  Li2  1  0.75327700  0.75135900  0.24774500  1
  Li  Li3  1  0.24934700  0.24927900  0.75147700  1
  Li  Li4  1  0.00073800  0.00129200  0.50096800  1
  Li  Li5  1  0.50150500  0.49673400  0.00704100  1
  Li  Li6  1  0.99609500  0.49859600  0.00526000  1
  Li  Li7  1  0.50255600  0.00339100  0.49521100  1
  Li  Li8  1  0.74486700  0.25456500  0.24623100  1
  Li  Li9  1  0.25022100  0.74931400  0.75341600  1
  Mn  Mn0  1  0.50128600  0.50026100  0.49686400  1
  Mn  Mn1  1  0.50116000  0.00190700  0.00359400  1
  Mn  Mn2  1  0.75048600  0.24952300  0.75191600  1
  Mn  Mn3  1  0.99669300  0.00271200  0.99891300  1
  Mn  Mn4  1  0.99783200  0.49900600  0.49732000  1
  Mn  Mn5  1  0.25331700  0.74906600  0.24823600  1
  O  O0  1  0.25299000  0.73133000  0.48891600  1
  O  O1  1  0.72437400  0.24592900  0.01212200  1
  O  O2  1  0.74602400  0.27602500  0.48507500  1
  O  O3  1  0.27033300  0.74736500  0.01734800  1
  O  O4  1  0.99222600  0.49253500  0.72761800  1
  O  O5  1  0.48827000  0.98448100  0.23865200  1
  O  O6  1  0.02286500  0.97551200  0.24073500  1
  O  O7  1  0.51260500  0.48591500  0.72428900  1
  O  O8  1  0.75336600  0.72303700  0.49737300  1
  O  O9  1  0.25235800  0.22189200  0.00113400  1
  O  O10  1  0.01541200  0.51385600  0.26469600  1
  O  O11  1  0.50757300  0.00929100  0.77214300  1
  O  O12  1  0.98616300  0.01594200  0.75933300  1
  O  O13  1  0.48539100  0.51611700  0.26687600  1
  O  O14  1  0.24624200  0.27835600  0.49786900  1
  O  O15  1  0.74527800  0.77713300  0.00143300  1
loop_
_geom_bond_atom_site_label_1
_geom_bond_atom_site_label_2
_geom_bond_distance
_geom_bond_site_symmetry_2
Li0 O6 2.044532 1_545
Li0 O9 2.072904 1_555
Li0 O13 2.079783 1_555
Li0 O5 2.092851 1_545
Li0 O10 2.094189 1_555
Li0 O14 2.097776 1_555
Li1 O12 2.051043 1_565
Li1 O7 2.075345 1_555
Li1 O11 2.092097 1_565
Li1 O15 2.093127 1_556
Li1 O4 2.097436 1_555
Li1 O8 2.137428 1_555
Li2 O6 2.025348 1_655
Li2 O13 2.064575 1_555
Li2 O15 2.064987 1_555
Li2 O5 2.076930 1_555
Li2 O10 2.084956 1_655
Li2 O8 2.093023 1_555
Li3 O12 2.032446 1_455
Li3 O7 2.056080 1_555
Li3 O11 2.080392 1_555
Li3 O4 2.091208 1_455
Li3 O9 2.092997 1_556
Li3 O14 2.126642 1_555
Li4 O14 2.140922 1_555
Li4 O8 2.153645 1_445
Li4 O12 2.164891 1_455
Li4 O0 2.178043 1_545
Li4 O6 2.186752 1_545
Li4 O2 2.208995 1_455
Li5 O1 1.975904 1_555
Li5 O3 2.009749 1_555
Li5 O9 2.146061 1_555
Li5 O15 2.149268 1_555
Li5 O13 2.179046 1_555
Li5 O7 2.367031 1_554
Li6 O3 2.142081 1_655
Li6 O1 2.144185 1_555
Li6 O10 2.175324 1_655
Li6 O15 2.207058 1_555
Li6 O9 2.220858 1_655
Li6 O4 2.322776 1_554
Li7 O2 2.114992 1_555
Li7 O0 2.135767 1_545
Li7 O5 2.151135 1_545
Li7 O14 2.213282 1_555
Li7 O8 2.214962 1_545
Li7 O11 2.316897 1_555
Li8 O1 1.962745 1_555
Li8 O2 2.002590 1_555
Li8 O5 2.155091 1_545
Li8 O10 2.171913 1_655
Li8 O13 2.176172 1_555
Li8 O6 2.318993 1_645
Li9 O4 2.116212 1_455
Li9 O11 2.121205 1_565
Li9 O7 2.202910 1_555
Li9 O12 2.209468 1_465
Li9 O3 2.210582 1_556
Li9 O0 2.215598 1_555
Mn0 O7 1.904520 1_555
Mn0 O13 1.927403 1_555
Mn0 O8 1.943342 1_555
Mn0 O14 1.952722 1_555
Mn0 O2 1.955656 1_555
Mn0 O0 1.996312 1_555
Mn1 O1 1.914130 1_555
Mn1 O11 1.936195 1_554
Mn1 O15 1.952381 1_545
Mn1 O9 1.953368 1_555
Mn1 O5 1.969016 1_545
Mn1 O3 1.989560 1_545
Mn2 O12 1.953509 1_555
Mn2 O11 1.980573 1_555
Mn2 O7 1.986053 1_555
Mn2 O4 1.990205 1_555
Mn2 O1 2.181268 1_556
Mn2 O2 2.236092 1_555
Mn3 O9 1.945287 1_656
Mn3 O15 1.951301 1_546
Mn3 O12 2.005658 1_555
Mn3 O6 2.033539 1_646
Mn3 O1 2.150989 1_556
Mn3 O3 2.206674 1_646
Mn4 O4 1.926411 1_555
Mn4 O2 1.946278 1_555
Mn4 O10 1.949286 1_655
Mn4 O8 1.950714 1_555
Mn4 O14 1.954258 1_655
Mn4 O0 1.994395 1_655
Mn5 O6 1.902095 1_555
Mn5 O5 1.923471 1_555
Mn5 O3 1.933587 1_555
Mn5 O10 1.937451 1_555
Mn5 O13 1.940799 1_555
Mn5 O0 2.014780 1_555
