# generated using pymatgen
data_Sm2Cr2Fe15C2
_symmetry_space_group_name_H-M   'P 1'
_cell_length_a   6.48547812
_cell_length_b   6.48547812
_cell_length_c   6.49856351
_cell_angle_alpha   83.49744117
_cell_angle_beta   83.49744117
_cell_angle_gamma   83.40927898
_symmetry_Int_Tables_number   1
_chemical_formula_structural   Sm2Cr2Fe15C2
_chemical_formula_sum   'Sm2 Cr2 Fe15 C2'
_cell_volume   268.39041309
_cell_formula_units_Z   1
loop_
 _symmetry_equiv_pos_site_id
 _symmetry_equiv_pos_as_xyz
  1  'x, y, z'
loop_
 _atom_site_type_symbol
 _atom_site_label
 _atom_site_symmetry_multiplicity
 _atom_site_fract_x
 _atom_site_fract_y
 _atom_site_fract_z
 _atom_site_occupancy
  Sm  Sm0  1  0.64904000  0.64904000  0.66451400  1
  Sm  Sm1  1  0.35096000  0.35096000  0.33548600  1
  Cr  Cr0  1  0.91398900  0.91398900  0.91319300  1
  Cr  Cr1  1  0.08601100  0.08601100  0.08680700  1
  Fe  Fe0  1  0.28219000  0.71781000  0.00000000  1
  Fe  Fe1  1  0.71505500  0.99699000  0.28757700  1
  Fe  Fe2  1  0.00301000  0.28494500  0.71242300  1
  Fe  Fe3  1  0.28494500  0.00301000  0.71242300  1
  Fe  Fe4  1  0.99699000  0.71505500  0.28757700  1
  Fe  Fe5  1  0.71781000  0.28219000  0.00000000  1
  Fe  Fe6  1  0.85539800  0.34290800  0.33871100  1
  Fe  Fe7  1  0.34303700  0.34303700  0.85653600  1
  Fe  Fe8  1  0.34290800  0.85539800  0.33871100  1
  Fe  Fe9  1  0.14460200  0.65709200  0.66128900  1
  Fe  Fe10  1  0.65696300  0.65696300  0.14346400  1
  Fe  Fe11  1  0.65709200  0.14460200  0.66128900  1
  Fe  Fe12  1  0.00000000  0.00000000  0.50000000  1
  Fe  Fe13  1  0.00000000  0.50000000  0.00000000  1
  Fe  Fe14  1  0.50000000  0.00000000  0.00000000  1
  C  C0  1  0.50000000  0.00000000  0.50000000  1
  C  C1  1  0.00000000  0.50000000  0.50000000  1
loop_
_geom_bond_atom_site_label_1
_geom_bond_atom_site_label_2
_geom_bond_distance
_geom_bond_site_symmetry_2
Cr0 Cr1 2.148990 1_666
Cr0 Fe5 2.661669 1_566
Cr0 Fe0 2.661669 1_656
Cr0 Fe11 2.680264 1_565
Cr0 Fe9 2.680264 1_655
Cr0 Fe13 2.687488 1_656
Cr0 Fe14 2.687488 1_566
Cr0 Fe12 2.688000 1_665
Cr0 Fe3 2.694605 1_665
Cr0 Fe2 2.694605 1_665
Cr0 Fe1 2.701827 1_556
Cr0 Fe4 2.701827 1_556
Cr0 Fe10 2.702693 1_556
Cr0 Sm0 3.233046 1_555
Cr1 Fe5 2.661669 1_455
Cr1 Fe0 2.661669 1_545
Cr1 Fe8 2.680264 1_545
Cr1 Fe6 2.680264 1_455
Cr1 Fe14 2.687488 1_555
Cr1 Fe13 2.687488 1_555
Cr1 Fe12 2.688000 1_555
Cr1 Fe4 2.694605 1_445
Cr1 Fe1 2.694605 1_445
Cr1 Fe2 2.701827 1_554
Cr1 Fe3 2.701827 1_554
Cr1 Fe7 2.702693 1_554
Cr1 Sm1 3.233046 1_555
Fe0 Fe13 2.436862 1_555
Fe0 Fe14 2.436862 1_565
Fe0 Fe4 2.476127 1_455
Fe0 Fe3 2.476127 1_564
Fe0 Fe9 2.553067 1_554
Fe0 Fe8 2.553067 1_555
Fe0 Fe10 2.672527 1_555
Fe0 Fe7 2.672527 1_554
Fe0 Sm0 3.068302 1_554
Fe0 Sm1 3.068302 1_555
Fe1 Fe12 2.431731 1_665
Fe1 Fe14 2.452361 1_565
Fe1 Fe5 2.476127 1_565
Fe1 Fe10 2.573035 1_555
Fe2 Fe5 2.476127 1_456
Fe2 Fe7 2.573035 1_555
Fe3 Fe7 2.573035 1_555
Fe5 Fe6 2.553067 1_555
Fe5 Fe7 2.672527 1_554
Fe5 Sm0 3.068302 1_554
Fe5 Sm1 3.068302 1_555
Fe7 Fe9 2.568556 1_555
Fe7 Sm0 3.035874 1_555
Fe7 Sm1 3.125046 1_556
Fe7 Sm1 3.375290 1_555
Fe10 Fe14 2.465832 1_565
Fe10 Fe13 2.465832 1_655
Fe10 Fe8 2.568556 1_555
Fe10 Fe6 2.568556 1_555
Fe10 Fe4 2.573035 1_555
Fe10 Fe5 2.672527 1_555
Fe10 Sm1 3.035874 1_555
Fe10 Sm0 3.125046 1_554
Fe10 Sm0 3.375290 1_555
Fe11 Fe14 2.450782 1_556
Fe11 Fe12 2.477873 1_655
Fe11 Fe5 2.553067 1_556
Fe11 Fe7 2.568556 1_555
Fe12 Fe4 2.431731 1_445
Fe12 Fe2 2.431731 1_555
Fe12 Fe3 2.431731 1_555
Fe12 Fe8 2.477873 1_545
Fe12 Fe9 2.477873 1_545
Fe12 Fe6 2.477873 1_455
Fe12 Sm1 3.404643 1_555
Fe12 Sm0 3.404643 1_445
Fe13 Fe5 2.436862 1_455
Fe13 Fe6 2.450782 1_455
Fe13 Fe9 2.450782 1_554
Fe13 Fe2 2.452361 1_554
Fe13 Fe4 2.452361 1_455
Fe13 Fe7 2.465832 1_554
Fe13 Sm0 3.318120 1_454
Fe13 Sm1 3.318120 1_555
Fe14 Fe5 2.436862 1_555
Fe14 Fe8 2.450782 1_545
Fe14 Fe3 2.452361 1_554
Fe14 Fe7 2.465832 1_554
Fe14 Sm0 3.318120 1_544
Fe14 Sm1 3.318120 1_555
C0 Fe1 1.847989 1_545
C0 Fe3 1.847989 1_555
C0 Fe8 1.923519 1_545
C0 Fe11 1.923519 1_555
C0 Sm0 2.536923 1_545
C0 Sm1 2.536923 1_555
C1 Fe4 1.847989 1_455
C1 Fe2 1.847989 1_555
C1 Fe6 1.923519 1_455
C1 Fe9 1.923519 1_555
C1 Sm0 2.536923 1_455
C1 Sm1 2.536923 1_555
