# generated using pymatgen
data_LaSiBO5
_symmetry_space_group_name_H-M   'P 1'
_cell_length_a   6.92384554
_cell_length_b   6.92384554
_cell_length_c   6.80014200
_cell_angle_alpha   90.00000000
_cell_angle_beta   90.00000000
_cell_angle_gamma   119.99999563
_symmetry_Int_Tables_number   1
_chemical_formula_structural   LaSiBO5
_chemical_formula_sum   'La3 Si3 B3 O15'
_cell_volume   282.32112416
_cell_formula_units_Z   3
loop_
 _symmetry_equiv_pos_site_id
 _symmetry_equiv_pos_as_xyz
  1  'x, y, z'
loop_
 _atom_site_type_symbol
 _atom_site_label
 _atom_site_symmetry_multiplicity
 _atom_site_fract_x
 _atom_site_fract_y
 _atom_site_fract_z
 _atom_site_occupancy
  La  La0  1  0.74065000  0.07427000  0.16794800  1
  La  La1  1  0.33362000  0.25935000  0.83461400  1
  La  La2  1  0.92573000  0.66638000  0.50128100  1
  Si  Si0  1  0.74906100  0.08235000  0.66744100  1
  Si  Si1  1  0.33328900  0.25093900  0.33410700  1
  Si  Si2  1  0.91765000  0.66671100  0.00077400  1
  B  B0  1  0.34366800  0.77953300  0.85444300  1
  B  B1  1  0.43586600  0.65633200  0.52110900  1
  B  B2  1  0.22046700  0.56413400  0.18777600  1
  O  O0  1  0.72665900  0.52678400  0.83982500  1
  O  O1  1  0.80012400  0.27334100  0.50649200  1
  O  O2  1  0.47321600  0.19987600  0.17315900  1
  O  O3  1  0.93692500  0.12814600  0.83158700  1
  O  O4  1  0.19122200  0.06307500  0.49825400  1
  O  O5  1  0.87185400  0.80877800  0.16492100  1
  O  O6  1  0.14193300  0.81102700  0.85682100  1
  O  O7  1  0.66909400  0.85806700  0.52348800  1
  O  O8  1  0.18897300  0.33090600  0.19015500  1
  O  O9  1  0.52569900  0.01288200  0.80924900  1
  O  O10  1  0.48718300  0.47430100  0.47591600  1
  O  O11  1  0.98711800  0.51281700  0.14258200  1
  O  O12  1  0.32693000  0.61526400  0.71132200  1
  O  O13  1  0.28833400  0.67307000  0.37798900  1
  O  O14  1  0.38473600  0.71166600  0.04465500  1
loop_
_geom_bond_atom_site_label_1
_geom_bond_atom_site_label_2
_geom_bond_distance
_geom_bond_site_symmetry_2
La0 O2 2.407620 1_555
La0 O5 2.423771 1_545
La0 O3 2.590519 1_554
La0 O1 2.608003 1_555
La0 O14 2.625256 1_545
La0 O11 2.641997 1_555
La0 O8 2.701857 1_655
La0 O7 2.755008 1_545
La0 O9 2.777192 1_554
La1 O0 2.407615 1_555
La1 O3 2.423764 1_455
La1 O4 2.590512 1_555
La1 O2 2.608006 1_556
La1 O12 2.625253 1_555
La1 O9 2.641996 1_555
La1 O6 2.701857 1_545
La1 O8 2.755014 1_556
La1 O10 2.777186 1_555
La2 O1 2.407614 1_555
La2 O4 2.423766 1_665
La2 O5 2.590509 1_555
La2 O0 2.608003 1_555
La2 O13 2.625253 1_655
La2 O10 2.641996 1_555
La2 O7 2.701856 1_555
La2 O6 2.755008 1_655
La2 O11 2.777192 1_555
B0 O14 1.452011 1_556
B0 O12 1.456859 1_555
B0 O9 1.502338 1_565
B0 O6 1.517693 1_555
B1 O12 1.452020 1_555
B1 O13 1.456860 1_555
B1 O10 1.502332 1_555
B1 O7 1.517689 1_555
B2 O13 1.452020 1_555
B2 O14 1.456862 1_555
B2 O11 1.502340 1_455
B2 O8 1.517687 1_555
O0 Si2 1.613710 1_556
O1 Si0 1.613711 1_555
O2 Si1 1.613702 1_555
O3 Si0 1.620483 1_555
O4 Si1 1.620486 1_555
O5 Si2 1.620482 1_555
O6 Si2 1.678243 1_456
O7 Si0 1.678243 1_565
O8 Si1 1.678239 1_555
O9 Si0 1.676046 1_555
O10 Si1 1.676050 1_555
O11 Si2 1.676046 1_555
