# generated using pymatgen
data_K10Tl7
_symmetry_space_group_name_H-M   'P 1'
_cell_length_a   22.95723600
_cell_length_b   10.22298700
_cell_length_c   13.64435853
_cell_angle_alpha   86.82638099
_cell_angle_beta   90.00000000
_cell_angle_gamma   90.00000000
_symmetry_Int_Tables_number   1
_chemical_formula_structural   K10Tl7
_chemical_formula_sum   'K40 Tl28'
_cell_volume   3197.30426901
_cell_formula_units_Z   4
loop_
 _symmetry_equiv_pos_site_id
 _symmetry_equiv_pos_as_xyz
  1  'x, y, z'
loop_
 _atom_site_type_symbol
 _atom_site_label
 _atom_site_symmetry_multiplicity
 _atom_site_fract_x
 _atom_site_fract_y
 _atom_site_fract_z
 _atom_site_occupancy
  K  K0  1  0.97773000  0.95164500  0.26664500  1
  K  K1  1  0.02227000  0.04835500  0.73335500  1
  K  K2  1  0.47773000  0.04835500  0.23335500  1
  K  K3  1  0.52227000  0.95164500  0.76664500  1
  K  K4  1  0.23001500  0.69618400  0.50363200  1
  K  K5  1  0.76998500  0.30381600  0.49636800  1
  K  K6  1  0.73001500  0.30381600  0.99636800  1
  K  K7  1  0.26998500  0.69618400  0.00363200  1
  K  K8  1  0.71639700  0.67792100  0.55799000  1
  K  K9  1  0.28360300  0.32207900  0.44201000  1
  K  K10  1  0.21639700  0.32207900  0.94201000  1
  K  K11  1  0.78360300  0.67792100  0.05799000  1
  K  K12  1  0.14496800  0.35970300  0.64606000  1
  K  K13  1  0.85503200  0.64029700  0.35394000  1
  K  K14  1  0.64496800  0.64029700  0.85394000  1
  K  K15  1  0.35503200  0.35970300  0.14606000  1
  K  K16  1  0.37750500  0.98694200  0.58155700  1
  K  K17  1  0.62249500  0.01305800  0.41844300  1
  K  K18  1  0.87750500  0.01305800  0.91844300  1
  K  K19  1  0.12249500  0.98694200  0.08155700  1
  K  K20  1  0.02993400  0.68667500  0.52847900  1
  K  K21  1  0.97006600  0.31332500  0.47152100  1
  K  K22  1  0.52993400  0.31332500  0.97152100  1
  K  K23  1  0.47006600  0.68667500  0.02847900  1
  K  K24  1  0.10629300  0.66089000  0.83315800  1
  K  K25  1  0.89370700  0.33911000  0.16684200  1
  K  K26  1  0.60629300  0.33911000  0.66684200  1
  K  K27  1  0.39370700  0.66089000  0.33315800  1
  K  K28  1  0.22778300  0.96084900  0.74369300  1
  K  K29  1  0.77221700  0.03915100  0.25630700  1
  K  K30  1  0.72778300  0.03915100  0.75630700  1
  K  K31  1  0.27221700  0.96084900  0.24369300  1
  K  K32  1  0.97489000  0.68672000  0.03309700  1
  K  K33  1  0.02511000  0.31328000  0.96690300  1
  K  K34  1  0.47489000  0.31328000  0.46690300  1
  K  K35  1  0.52511000  0.68672000  0.53309700  1
  K  K36  1  0.87139600  0.92851500  0.58660900  1
  K  K37  1  0.12860400  0.07148500  0.41339100  1
  K  K38  1  0.37139600  0.07148500  0.91339100  1
  K  K39  1  0.62860400  0.92851500  0.08660900  1
  Tl  Tl0  1  0.25813200  0.58194600  0.75337100  1
  Tl  Tl1  1  0.74186800  0.41805400  0.24662900  1
  Tl  Tl2  1  0.75813200  0.41805400  0.74662900  1
  Tl  Tl3  1  0.24186800  0.58194600  0.25337100  1
  Tl  Tl4  1  0.49318800  0.57079200  0.77607500  1
  Tl  Tl5  1  0.50681200  0.42920800  0.22392500  1
  Tl  Tl6  1  0.99318800  0.42920800  0.72392500  1
  Tl  Tl7  1  0.00681200  0.57079200  0.27607500  1
  Tl  Tl8  1  0.94805800  0.72103600  0.77563800  1
  Tl  Tl9  1  0.05194200  0.27896400  0.22436200  1
  Tl  Tl10  1  0.44805800  0.27896400  0.72436200  1
  Tl  Tl11  1  0.55194200  0.72103600  0.27563800  1
  Tl  Tl12  1  0.30381800  0.28269100  0.70775900  1
  Tl  Tl13  1  0.69618200  0.71730900  0.29224100  1
  Tl  Tl14  1  0.80381800  0.71730900  0.79224100  1
  Tl  Tl15  1  0.19618200  0.28269100  0.20775900  1
  Tl  Tl16  1  0.37855500  0.54230600  0.62137100  1
  Tl  Tl17  1  0.62144500  0.45769400  0.37862900  1
  Tl  Tl18  1  0.87855500  0.45769400  0.87862900  1
  Tl  Tl19  1  0.12144500  0.54230600  0.12137100  1
  Tl  Tl20  1  0.37181000  0.45293100  0.87521900  1
  Tl  Tl21  1  0.62819000  0.54706900  0.12478100  1
  Tl  Tl22  1  0.87181000  0.54706900  0.62478100  1
  Tl  Tl23  1  0.12819000  0.45293100  0.37521900  1
  Tl  Tl24  1  0.37625900  0.76066400  0.79239200  1
  Tl  Tl25  1  0.62374100  0.23933600  0.20760800  1
  Tl  Tl26  1  0.87625900  0.23933600  0.70760800  1
  Tl  Tl27  1  0.12374100  0.76066400  0.29239200  1
loop_
_geom_bond_atom_site_label_1
_geom_bond_atom_site_label_2
_geom_bond_distance
_geom_bond_site_symmetry_2
K0 Tl9 3.770756 1_665
K0 Tl27 3.885265 1_655
K0 Tl7 3.945355 1_655
K1 Tl8 3.770756 1_445
K1 Tl26 3.885265 1_455
K1 Tl6 3.945355 1_455
K2 Tl11 3.770756 1_545
K2 Tl25 3.885265 1_555
K2 Tl5 3.945355 1_555
K3 Tl10 3.770756 1_565
K3 Tl24 3.885265 1_555
K3 Tl4 3.945355 1_555
K4 Tl0 3.598773 1_555
K4 Tl3 3.679580 1_555
K4 Tl27 3.805764 1_555
K4 Tl23 3.898826 1_555
K4 Tl16 4.050201 1_555
K5 Tl1 3.598773 1_555
K5 Tl2 3.679580 1_555
K5 Tl26 3.805764 1_555
K5 Tl22 3.898826 1_555
K5 Tl17 4.050201 1_555
K6 Tl2 3.598773 1_555
K6 Tl1 3.679580 1_556
K6 Tl25 3.805764 1_556
K6 Tl21 3.898826 1_556
K6 Tl18 4.050201 1_555
K7 Tl3 3.598773 1_555
K7 Tl0 3.679580 1_554
K7 Tl24 3.805764 1_554
K7 Tl20 3.898826 1_554
K7 Tl19 4.050201 1_555
K8 Tl13 3.655617 1_555
K8 Tl2 3.720652 1_555
K8 Tl14 3.814209 1_555
K8 Tl22 3.900581 1_555
K8 Tl17 4.052104 1_555
K9 Tl12 3.655617 1_555
K9 Tl3 3.720652 1_555
K9 Tl15 3.814209 1_555
K9 Tl23 3.900581 1_555
K9 Tl16 4.052104 1_555
K10 Tl15 3.655617 1_556
K10 Tl0 3.720652 1_555
K10 Tl12 3.814209 1_555
K10 Tl20 3.900581 1_555
K10 Tl19 4.052104 1_556
K11 Tl14 3.655617 1_554
K11 Tl1 3.720652 1_555
K11 Tl13 3.814209 1_555
K11 Tl21 3.900581 1_555
K11 Tl18 4.052104 1_554
K12 Tl6 3.722712 1_455
K12 Tl23 3.784586 1_555
K12 Tl0 3.797811 1_555
K12 Tl12 3.814968 1_555
K13 Tl7 3.722712 1_655
K13 Tl22 3.784586 1_555
K13 Tl1 3.797811 1_555
K13 Tl13 3.814968 1_555
K14 Tl4 3.722712 1_555
K14 Tl21 3.784586 1_556
K14 Tl2 3.797811 1_555
K14 Tl14 3.814968 1_555
K15 Tl5 3.722712 1_555
K15 Tl20 3.784586 1_554
K15 Tl3 3.797811 1_555
K15 Tl15 3.814968 1_555
K16 Tl24 3.590338 1_555
K16 Tl12 3.942639 1_565
K16 Tl10 3.997039 1_565
K17 Tl25 3.590338 1_555
K17 Tl13 3.942639 1_545
K17 Tl11 3.997039 1_545
K18 Tl26 3.590338 1_555
K18 Tl14 3.942639 1_545
K18 Tl8 3.997039 1_545
K19 Tl27 3.590338 1_555
K19 Tl15 3.942639 1_565
K19 Tl9 3.997039 1_565
K20 Tl6 3.738154 1_455
K20 Tl7 3.741301 1_555
K20 Tl8 3.893611 1_455
K20 Tl27 3.913644 1_555
K20 Tl23 3.965381 1_555
K20 Tl22 4.090639 1_455
K21 Tl7 3.738154 1_655
K21 Tl6 3.741301 1_555
K21 Tl9 3.893611 1_655
K21 Tl26 3.913644 1_555
K21 Tl22 3.965381 1_555
K21 Tl23 4.090639 1_655
K22 Tl4 3.738154 1_555
K22 Tl5 3.741301 1_556
K22 Tl10 3.893611 1_555
K22 Tl25 3.913644 1_556
K22 Tl21 3.965381 1_556
K22 Tl20 4.090639 1_555
K23 Tl5 3.738154 1_555
K23 Tl4 3.741301 1_554
K23 Tl11 3.893611 1_555
K23 Tl24 3.913644 1_554
K23 Tl20 3.965381 1_554
K23 Tl21 4.090639 1_555
K24 Tl0 3.752941 1_555
K24 Tl8 3.759873 1_455
K24 Tl6 3.868348 1_455
K24 Tl19 4.065364 1_556
K25 Tl1 3.752941 1_555
K25 Tl9 3.759873 1_655
K25 Tl7 3.868348 1_655
K25 Tl18 4.065364 1_554
K26 Tl2 3.752941 1_555
K26 Tl10 3.759873 1_555
K26 Tl4 3.868348 1_555
K26 Tl17 4.065364 1_555
K27 Tl3 3.752941 1_555
K27 Tl11 3.759873 1_555
K27 Tl5 3.868348 1_555
K27 Tl16 4.065364 1_555
K28 Tl12 3.732835 1_565
K28 Tl0 3.930699 1_555
K28 Tl24 4.012183 1_555
K29 Tl13 3.732835 1_545
K29 Tl1 3.930699 1_555
K29 Tl25 4.012183 1_555
K30 Tl14 3.732835 1_545
K30 Tl2 3.930699 1_555
K30 Tl26 4.012183 1_555
K31 Tl15 3.732835 1_565
K31 Tl3 3.930699 1_555
K31 Tl27 4.012183 1_555
K32 Tl7 3.535198 1_655
K32 Tl8 3.564585 1_554
K32 Tl19 3.840993 1_655
K32 Tl18 3.919357 1_554
K33 Tl6 3.535198 1_455
K33 Tl9 3.564585 1_556
K33 Tl18 3.840993 1_455
K33 Tl19 3.919357 1_556
K34 Tl5 3.535198 1_555
K34 Tl10 3.564585 1_555
K34 Tl17 3.840993 1_555
K34 Tl16 3.919357 1_555
K35 Tl4 3.535198 1_555
K35 Tl11 3.564585 1_555
K35 Tl16 3.840993 1_555
K35 Tl17 3.919357 1_555
K36 Tl26 3.662730 1_565
K36 Tl8 3.693607 1_555
K36 Tl14 3.777578 1_555
K36 Tl22 3.905472 1_555
K37 Tl27 3.662730 1_545
K37 Tl9 3.693607 1_555
K37 Tl15 3.777578 1_555
K37 Tl23 3.905472 1_555
K38 Tl24 3.662730 1_545
K38 Tl10 3.693607 1_555
K38 Tl12 3.777578 1_555
K38 Tl20 3.905472 1_555
K39 Tl25 3.662730 1_565
K39 Tl11 3.693607 1_555
K39 Tl13 3.777578 1_555
K39 Tl21 3.905472 1_555
Tl0 Tl12 3.325260 1_555
Tl0 Tl20 3.327385 1_555
Tl0 Tl24 3.329182 1_555
Tl0 Tl16 3.336425 1_555
Tl1 Tl13 3.325260 1_555
Tl1 Tl21 3.327385 1_555
Tl1 Tl25 3.329182 1_555
Tl1 Tl17 3.336425 1_555
Tl2 Tl22 3.327385 1_555
Tl2 Tl26 3.329182 1_555
Tl6 Tl8 3.271812 1_555
Tl7 Tl9 3.271812 1_555
Tl10 Tl4 3.271812 1_555
Tl10 Tl20 3.296831 1_555
Tl10 Tl12 3.319166 1_555
Tl10 Tl16 3.368886 1_555
Tl11 Tl5 3.271812 1_555
Tl11 Tl21 3.296831 1_555
Tl11 Tl13 3.319166 1_555
Tl11 Tl17 3.368886 1_555
Tl12 Tl16 3.321253 1_555
Tl12 Tl20 3.335608 1_555
Tl13 Tl17 3.321253 1_555
Tl13 Tl21 3.335608 1_555
Tl14 Tl8 3.319166 1_555
Tl14 Tl18 3.321253 1_555
Tl14 Tl2 3.325260 1_555
Tl14 Tl22 3.335608 1_555
Tl15 Tl9 3.319166 1_555
Tl15 Tl19 3.321253 1_555
Tl15 Tl3 3.325260 1_555
Tl15 Tl23 3.335608 1_555
Tl16 Tl24 3.317779 1_555
Tl16 Tl4 3.396191 1_555
Tl16 Tl20 3.536222 1_555
Tl17 Tl25 3.317779 1_555
Tl17 Tl5 3.396191 1_555
Tl17 Tl21 3.536222 1_555
Tl18 Tl26 3.317779 1_555
Tl18 Tl2 3.336425 1_555
Tl18 Tl8 3.368886 1_555
Tl18 Tl6 3.396191 1_555
Tl18 Tl22 3.536222 1_555
Tl19 Tl27 3.317779 1_555
Tl19 Tl3 3.336425 1_555
Tl19 Tl9 3.368886 1_555
Tl19 Tl7 3.396191 1_555
Tl19 Tl23 3.536222 1_555
Tl20 Tl24 3.284959 1_555
Tl20 Tl4 3.296338 1_555
Tl21 Tl25 3.284959 1_555
Tl21 Tl5 3.296338 1_555
Tl22 Tl26 3.284959 1_555
Tl22 Tl6 3.296338 1_555
Tl22 Tl8 3.296831 1_555
Tl23 Tl27 3.284959 1_555
Tl23 Tl7 3.296338 1_555
Tl23 Tl9 3.296831 1_555
Tl23 Tl3 3.327385 1_555
Tl24 Tl4 3.327304 1_555
Tl25 Tl5 3.327304 1_555
Tl26 Tl6 3.327304 1_555
Tl27 Tl7 3.327304 1_555
Tl27 Tl3 3.329182 1_555
