# generated using pymatgen
data_GdMn4(CuO4)3
_symmetry_space_group_name_H-M   'P 1'
_cell_length_a   6.43284709
_cell_length_b   6.43284709
_cell_length_c   6.43284709
_cell_angle_alpha   109.47122063
_cell_angle_beta   109.47122063
_cell_angle_gamma   109.47122063
_symmetry_Int_Tables_number   1
_chemical_formula_structural   GdMn4(CuO4)3
_chemical_formula_sum   'Gd1 Mn4 Cu3 O12'
_cell_volume   204.92162653
_cell_formula_units_Z   1
loop_
 _symmetry_equiv_pos_site_id
 _symmetry_equiv_pos_as_xyz
  1  'x, y, z'
loop_
 _atom_site_type_symbol
 _atom_site_label
 _atom_site_symmetry_multiplicity
 _atom_site_fract_x
 _atom_site_fract_y
 _atom_site_fract_z
 _atom_site_occupancy
  Gd  Gd0  1  0.00000000  0.00000000  0.00000000  1
  Mn  Mn0  1  0.50000000  0.50000000  0.50000000  1
  Mn  Mn1  1  0.50000000  0.00000000  0.00000000  1
  Mn  Mn2  1  0.00000000  0.00000000  0.50000000  1
  Mn  Mn3  1  0.00000000  0.50000000  0.00000000  1
  Cu  Cu0  1  0.00000000  0.50000000  0.50000000  1
  Cu  Cu1  1  0.50000000  0.50000000  0.00000000  1
  Cu  Cu2  1  0.50000000  0.00000000  0.50000000  1
  O  O0  1  0.16707400  0.86254400  0.69547000  1
  O  O1  1  0.30453000  0.16707400  0.47160300  1
  O  O2  1  0.69547000  0.83292600  0.52839700  1
  O  O3  1  0.47160300  0.30453000  0.16707400  1
  O  O4  1  0.86254400  0.69547000  0.16707400  1
  O  O5  1  0.16707400  0.47160300  0.30453000  1
  O  O6  1  0.13745600  0.30453000  0.83292600  1
  O  O7  1  0.52839700  0.69547000  0.83292600  1
  O  O8  1  0.69547000  0.16707400  0.86254400  1
  O  O9  1  0.30453000  0.83292600  0.13745600  1
  O  O10  1  0.83292600  0.52839700  0.69547000  1
  O  O11  1  0.83292600  0.13745600  0.30453000  1
loop_
_geom_bond_atom_site_label_1
_geom_bond_atom_site_label_2
_geom_bond_distance
_geom_bond_site_symmetry_2
Gd0 O7 2.580117 1_444
Gd0 O3 2.580117 1_555
Gd0 O2 2.580117 1_444
Gd0 O10 2.580117 1_444
Gd0 O1 2.580117 1_555
Gd0 O5 2.580117 1_555
Gd0 O0 2.580122 1_544
Gd0 O11 2.580122 1_455
Gd0 O4 2.580122 1_445
Gd0 O8 2.580122 1_454
Gd0 O6 2.580122 1_554
Gd0 O9 2.580122 1_545
Mn0 O5 1.997984 1_555
Mn0 O3 1.997984 1_555
Mn0 O1 1.997984 1_555
Mn0 O10 1.997984 1_555
Mn0 O2 1.997984 1_555
Mn0 O7 1.997984 1_555
Mn1 O0 1.997987 1_544
Mn1 O9 1.997987 1_545
Mn1 O8 1.997987 1_554
Mn1 O11 1.997987 1_555
Mn1 O7 1.997991 1_544
Mn1 O3 1.997991 1_555
Mn2 O11 1.997987 1_455
Mn2 O4 1.997987 1_445
Mn2 O6 1.997987 1_555
Mn2 O0 1.997987 1_545
Mn2 O2 1.997991 1_445
Mn2 O1 1.997991 1_555
Mn3 O8 1.997987 1_454
Mn3 O6 1.997987 1_554
Mn3 O9 1.997987 1_555
Mn3 O4 1.997987 1_455
Mn3 O10 1.997991 1_454
Mn3 O5 1.997991 1_555
Cu0 O11 1.910057 1_455
Cu0 O0 1.910057 1_555
Cu0 O10 1.910058 1_455
Cu0 O5 1.910058 1_555
Cu1 O4 1.910057 1_555
Cu1 O6 1.910057 1_554
Cu1 O3 1.910058 1_555
Cu1 O7 1.910058 1_554
Cu2 O9 1.910057 1_545
Cu2 O8 1.910057 1_555
Cu2 O1 1.910058 1_555
Cu2 O2 1.910058 1_545
