# generated using pymatgen
data_KBaY(BO3)2
_symmetry_space_group_name_H-M   'P 1'
_cell_length_a   5.47392150
_cell_length_b   5.47404026
_cell_length_c   6.83194508
_cell_angle_alpha   66.38300630
_cell_angle_beta   66.38225073
_cell_angle_gamma   59.99928835
_symmetry_Int_Tables_number   1
_chemical_formula_structural   KBaY(BO3)2
_chemical_formula_sum   'K1 Ba1 Y1 B2 O6'
_cell_volume   157.17716258
_cell_formula_units_Z   1
loop_
 _symmetry_equiv_pos_site_id
 _symmetry_equiv_pos_as_xyz
  1  'x, y, z'
loop_
 _atom_site_type_symbol
 _atom_site_label
 _atom_site_symmetry_multiplicity
 _atom_site_fract_x
 _atom_site_fract_y
 _atom_site_fract_z
 _atom_site_occupancy
  K  K0  1  0.78024700  0.78030600  0.65914100  1
  Ba  Ba0  1  0.20771300  0.20772700  0.37683400  1
  Y  Y0  1  0.00208300  0.00206500  0.99378700  1
  B  B0  1  0.41327600  0.41328600  0.76015200  1
  B  B1  1  0.58985100  0.58982500  0.23049900  1
  O  O0  1  0.70702100  0.26596300  0.76105300  1
  O  O1  1  0.26594700  0.26597900  0.76104500  1
  O  O2  1  0.26594700  0.70702800  0.76104500  1
  O  O3  1  0.29607800  0.73589200  0.23213700  1
  O  O4  1  0.73591800  0.73587900  0.23215400  1
  O  O5  1  0.73591800  0.29605000  0.23215400  1
loop_
_geom_bond_atom_site_label_1
_geom_bond_atom_site_label_2
_geom_bond_distance
_geom_bond_site_symmetry_2
K0 O1 2.811800 1_565
K0 O2 2.811803 1_555
K0 O0 2.811927 1_565
K0 O0 2.811928 1_555
K0 O2 2.811953 1_655
K0 O1 2.811955 1_655
K0 O4 3.134075 1_555
K0 O5 3.134078 1_565
K0 O3 3.134316 1_655
Ba0 O5 2.879981 1_455
Ba0 O4 2.879981 1_455
Ba0 O3 2.880201 1_555
Ba0 O3 2.880212 1_545
Ba0 O5 2.880238 1_555
Ba0 O4 2.880238 1_545
Ba0 O0 2.921628 1_455
Ba0 O1 2.921675 1_555
Ba0 O2 2.921682 1_545
B0 O0 1.393939 1_555
B0 O2 1.393942 1_555
B0 O1 1.393947 1_555
B1 O3 1.390084 1_555
B1 O5 1.390098 1_555
B1 O4 1.390102 1_555
O0 Y0 2.260043 1_655
O1 Y0 2.259985 1_555
O2 Y0 2.259988 1_565
O3 Y0 2.284372 1_564
O4 Y0 2.284414 1_664
O5 Y0 2.284418 1_654
