# generated using pymatgen
data_Mo12P
_symmetry_space_group_name_H-M   'P 1'
_cell_length_a   7.58364483
_cell_length_b   7.58364483
_cell_length_c   7.58364431
_cell_angle_alpha   83.35299311
_cell_angle_beta   83.35299311
_cell_angle_gamma   83.35300136
_symmetry_Int_Tables_number   1
_chemical_formula_structural   Mo12P
_chemical_formula_sum   'Mo24 P2'
_cell_volume   427.98240817
_cell_formula_units_Z   2
loop_
 _symmetry_equiv_pos_site_id
 _symmetry_equiv_pos_as_xyz
  1  'x, y, z'
loop_
 _atom_site_type_symbol
 _atom_site_label
 _atom_site_symmetry_multiplicity
 _atom_site_fract_x
 _atom_site_fract_y
 _atom_site_fract_z
 _atom_site_occupancy
  Mo  Mo0  1  0.55715900  0.75343300  0.43154900  1
  Mo  Mo1  1  0.75343300  0.43154900  0.55715900  1
  Mo  Mo2  1  0.43154900  0.55715900  0.75343300  1
  Mo  Mo3  1  0.58945800  0.95530200  0.11612000  1
  Mo  Mo4  1  0.95530200  0.11612000  0.58945800  1
  Mo  Mo5  1  0.11612000  0.58945800  0.95530200  1
  Mo  Mo6  1  0.84479200  0.66036100  0.18355600  1
  Mo  Mo7  1  0.66036100  0.18355600  0.84479200  1
  Mo  Mo8  1  0.18355600  0.84479200  0.66036100  1
  Mo  Mo9  1  0.03228400  0.38951300  0.30935700  1
  Mo  Mo10  1  0.38951300  0.30935700  0.03228400  1
  Mo  Mo11  1  0.30935700  0.03228400  0.38951300  1
  Mo  Mo12  1  0.98562600  0.24104500  0.89865000  1
  Mo  Mo13  1  0.24104500  0.89865000  0.98562600  1
  Mo  Mo14  1  0.89865000  0.98562600  0.24104500  1
  Mo  Mo15  1  0.11007100  0.47101000  0.62357200  1
  Mo  Mo16  1  0.47101000  0.62357200  0.11007100  1
  Mo  Mo17  1  0.62357200  0.11007100  0.47101000  1
  Mo  Mo18  1  0.32608900  0.18641100  0.69724600  1
  Mo  Mo19  1  0.18641100  0.69724600  0.32608900  1
  Mo  Mo20  1  0.69724600  0.32608900  0.18641100  1
  Mo  Mo21  1  0.55577200  0.86475300  0.77364700  1
  Mo  Mo22  1  0.86475300  0.77364700  0.55577200  1
  Mo  Mo23  1  0.77364700  0.55577200  0.86475300  1
  P  P0  1  0.14568000  0.14568000  0.14568000  1
  P  P1  1  0.43784600  0.43784600  0.43784600  1
loop_
_geom_bond_atom_site_label_1
_geom_bond_atom_site_label_2
_geom_bond_distance
_geom_bond_site_symmetry_2
Mo0 Mo22 2.641467 1_555
Mo0 P1 2.648347 1_555
Mo0 Mo11 2.677270 1_565
Mo0 Mo3 2.688715 1_555
Mo0 Mo6 2.791854 1_555
Mo0 Mo21 2.818176 1_555
Mo0 Mo2 2.833810 1_555
Mo0 Mo1 2.833810 1_555
Mo0 Mo17 2.862829 1_565
Mo0 Mo16 2.900680 1_555
Mo0 Mo19 3.098907 1_555
Mo0 Mo8 3.194400 1_555
Mo1 Mo23 2.641467 1_555
Mo1 P1 2.648347 1_555
Mo1 Mo9 2.677270 1_655
Mo1 Mo4 2.688716 1_555
Mo1 Mo7 2.791854 1_555
Mo1 Mo22 2.818176 1_555
Mo1 Mo2 2.833810 1_555
Mo1 Mo15 2.862829 1_655
Mo1 Mo17 2.900680 1_555
Mo1 Mo20 3.098907 1_555
Mo1 Mo6 3.194400 1_555
Mo2 Mo21 2.641467 1_555
Mo2 P1 2.648347 1_555
Mo2 Mo5 2.688715 1_555
Mo2 Mo8 2.791854 1_555
Mo2 Mo23 2.818176 1_555
Mo2 Mo7 3.194400 1_555
Mo3 Mo7 2.579571 1_564
Mo3 Mo6 2.824139 1_555
Mo4 Mo8 2.579571 1_645
Mo4 Mo7 2.824139 1_555
Mo4 Mo9 2.850471 1_655
Mo5 Mo6 2.579571 1_456
Mo5 Mo8 2.824138 1_555
Mo5 Mo9 2.966183 1_556
Mo6 Mo9 2.516970 1_655
Mo9 P0 2.369751 1_555
Mo10 P0 2.369750 1_555
Mo10 Mo7 2.516970 1_554
Mo10 Mo16 2.675618 1_555
Mo10 Mo2 2.677270 1_554
Mo10 Mo20 2.750093 1_555
Mo10 Mo5 2.850472 1_554
Mo10 Mo18 2.914028 1_554
Mo10 Mo3 2.966183 1_545
Mo11 P0 2.369750 1_555
Mo11 Mo8 2.516970 1_545
Mo11 Mo17 2.675618 1_555
Mo11 Mo18 2.750093 1_555
Mo11 Mo3 2.850471 1_545
Mo11 Mo19 2.914028 1_545
Mo11 Mo4 2.966183 1_455
Mo12 P0 2.348500 1_656
Mo12 Mo7 2.639111 1_555
Mo12 Mo4 2.671716 1_555
Mo12 Mo15 2.714204 1_655
Mo12 Mo23 2.722581 1_555
Mo12 Mo18 2.856028 1_655
Mo12 Mo20 2.975829 1_556
Mo12 Mo5 3.018598 1_655
Mo13 P0 2.348500 1_566
Mo13 Mo8 2.639111 1_555
Mo13 Mo5 2.671716 1_555
Mo13 Mo16 2.714205 1_556
Mo13 Mo21 2.722581 1_555
Mo13 Mo19 2.856028 1_556
Mo13 Mo18 2.975829 1_565
Mo13 Mo3 3.018598 1_556
Mo14 P0 2.348500 1_665
Mo14 Mo6 2.639111 1_555
Mo14 Mo3 2.671716 1_555
Mo14 Mo17 2.714205 1_565
Mo14 Mo22 2.722581 1_555
Mo14 Mo20 2.856028 1_565
Mo14 Mo19 2.975829 1_655
Mo14 Mo4 3.018597 1_565
Mo15 Mo18 2.601599 1_555
Mo15 Mo9 2.675618 1_555
Mo15 P1 2.711582 1_555
Mo15 Mo19 2.720267 1_555
Mo15 Mo5 2.774393 1_555
Mo15 Mo22 2.820054 1_455
Mo15 Mo2 2.900680 1_555
Mo15 Mo8 3.001385 1_555
Mo15 Mo23 3.013304 1_455
Mo15 Mo4 3.106563 1_455
Mo16 Mo19 2.601599 1_555
Mo16 P1 2.711582 1_555
Mo16 Mo20 2.720267 1_555
Mo16 Mo3 2.774393 1_555
Mo16 Mo23 2.820054 1_554
Mo16 Mo2 2.862828 1_554
Mo16 Mo6 3.001385 1_555
Mo16 Mo21 3.013304 1_554
Mo16 Mo5 3.106563 1_554
Mo17 Mo20 2.601599 1_555
Mo17 P1 2.711582 1_555
Mo17 Mo18 2.720267 1_555
Mo17 Mo4 2.774393 1_555
Mo17 Mo21 2.820054 1_545
Mo17 Mo7 3.001385 1_555
Mo17 Mo22 3.013304 1_545
Mo17 Mo3 3.106563 1_545
Mo18 P1 2.709943 1_555
Mo18 Mo21 2.871039 1_545
Mo18 Mo7 2.883931 1_555
Mo18 Mo8 2.973971 1_545
Mo18 Mo2 3.098907 1_555
Mo18 Mo4 3.136753 1_455
Mo19 P1 2.709944 1_555
Mo19 Mo9 2.750093 1_555
Mo19 Mo22 2.871039 1_455
Mo19 Mo8 2.883931 1_555
Mo19 Mo6 2.973971 1_455
Mo19 Mo5 3.136753 1_554
Mo20 P1 2.709944 1_555
Mo20 Mo23 2.871039 1_554
Mo20 Mo6 2.883931 1_555
Mo20 Mo9 2.914028 1_655
Mo20 Mo7 2.973971 1_554
Mo20 Mo3 3.136753 1_545
Mo21 Mo7 2.758700 1_565
Mo21 Mo22 2.773301 1_555
Mo21 Mo23 2.773301 1_555
Mo21 Mo3 2.808792 1_556
Mo21 Mo8 3.069102 1_555
Mo22 Mo8 2.758700 1_655
Mo22 Mo23 2.773301 1_555
Mo22 Mo4 2.808792 1_565
Mo22 Mo6 3.069102 1_555
Mo23 Mo6 2.758700 1_556
Mo23 Mo5 2.808792 1_655
Mo23 Mo7 3.069102 1_555
