# generated using pymatgen
data_Na2CO3
_symmetry_space_group_name_H-M   'P 1'
_cell_length_a   5.28543200
_cell_length_b   5.29514711
_cell_length_c   6.28515564
_cell_angle_alpha   94.93002162
_cell_angle_beta   90.00000000
_cell_angle_gamma   119.93932648
_symmetry_Int_Tables_number   1
_chemical_formula_structural   Na2CO3
_chemical_formula_sum   'Na4 C2 O6'
_cell_volume   151.67852637
_cell_formula_units_Z   2
loop_
 _symmetry_equiv_pos_site_id
 _symmetry_equiv_pos_as_xyz
  1  'x, y, z'
loop_
 _atom_site_type_symbol
 _atom_site_label
 _atom_site_symmetry_multiplicity
 _atom_site_fract_x
 _atom_site_fract_y
 _atom_site_fract_z
 _atom_site_occupancy
  Na  Na0  1  0.00000000  0.00000000  0.00000000  1
  Na  Na1  1  0.00000000  0.00000000  0.50000000  1
  Na  Na2  1  0.67378500  0.34757000  0.77132900  1
  Na  Na3  1  0.32621500  0.65243000  0.22867100  1
  C  C0  1  0.66966500  0.33932900  0.24519300  1
  C  C1  1  0.33033500  0.66067100  0.75480700  1
  O  O0  1  0.81449000  0.20222900  0.26037200  1
  O  O1  1  0.38773900  0.20222900  0.26037200  1
  O  O2  1  0.18551000  0.79777100  0.73962800  1
  O  O3  1  0.61226100  0.79777100  0.73962800  1
  O  O4  1  0.80751700  0.61503300  0.21166700  1
  O  O5  1  0.19248300  0.38496700  0.78833300  1
loop_
_geom_bond_atom_site_label_1
_geom_bond_atom_site_label_2
_geom_bond_distance
_geom_bond_site_symmetry_2
Na0 O5 2.314359 1_554
Na0 O4 2.314359 1_445
Na0 O3 2.352223 1_444
Na0 O0 2.352223 1_455
Na0 O2 2.352223 1_544
Na0 O1 2.352223 1_555
Na1 O3 2.387807 1_445
Na1 O0 2.387807 1_455
Na1 O2 2.387807 1_545
Na1 O1 2.387807 1_555
Na1 O5 2.401975 1_555
Na1 O4 2.401975 1_445
Na2 O3 2.585292 1_555
Na2 O2 2.585292 1_655
Na2 O5 2.649748 1_655
Na2 O5 2.649753 1_555
Na2 O3 2.752501 1_545
Na2 O2 2.752501 1_545
Na2 O4 2.914112 1_556
Na3 O0 2.585292 1_455
Na3 O1 2.585292 1_555
Na3 O4 2.649748 1_455
Na3 O4 2.649753 1_555
Na3 O0 2.752501 1_565
Na3 O1 2.752501 1_565
Na3 O5 2.914112 1_554
C0 O0 1.299478 1_555
C0 O1 1.299482 1_555
C0 O4 1.302956 1_555
C0 Na2 2.982297 1_554
C1 O2 1.299478 1_555
C1 O3 1.299482 1_555
C1 O5 1.302956 1_555
C1 Na3 2.982297 1_556
