# generated using pymatgen
data_MgFe3(P2O7)2
_symmetry_space_group_name_H-M   'P 1'
_cell_length_a   7.54019600
_cell_length_b   7.33300600
_cell_length_c   9.73665477
_cell_angle_alpha   68.06309156
_cell_angle_beta   90.00000000
_cell_angle_gamma   90.00000000
_symmetry_Int_Tables_number   1
_chemical_formula_structural   MgFe3(P2O7)2
_chemical_formula_sum   'Mg2 Fe6 P8 O28'
_cell_volume   499.38238273
_cell_formula_units_Z   2
loop_
 _symmetry_equiv_pos_site_id
 _symmetry_equiv_pos_as_xyz
  1  'x, y, z'
loop_
 _atom_site_type_symbol
 _atom_site_label
 _atom_site_symmetry_multiplicity
 _atom_site_fract_x
 _atom_site_fract_y
 _atom_site_fract_z
 _atom_site_occupancy
  Mg  Mg0  1  0.00000000  0.50000000  0.00000000  1
  Mg  Mg1  1  0.50000000  0.50000000  0.50000000  1
  Fe  Fe0  1  0.13397000  0.81543500  0.51469300  1
  Fe  Fe1  1  0.63397000  0.18456500  0.98530700  1
  Fe  Fe2  1  0.86603000  0.18456500  0.48530700  1
  Fe  Fe3  1  0.36603000  0.81543500  0.01469300  1
  Fe  Fe4  1  0.00000000  0.00000000  0.00000000  1
  Fe  Fe5  1  0.50000000  0.00000000  0.50000000  1
  P  P0  1  0.91731700  0.42279200  0.70201200  1
  P  P1  1  0.41731700  0.57720800  0.79798800  1
  P  P2  1  0.08268300  0.57720800  0.29798800  1
  P  P3  1  0.58268300  0.42279200  0.20201200  1
  P  P4  1  0.20222000  0.13934500  0.68610400  1
  P  P5  1  0.70222000  0.86065500  0.81389600  1
  P  P6  1  0.79778000  0.86065500  0.31389600  1
  P  P7  1  0.29778000  0.13934500  0.18610400  1
  O  O0  1  0.38002700  0.20036700  0.60604900  1
  O  O1  1  0.88002700  0.79963300  0.89395100  1
  O  O2  1  0.61997300  0.79963300  0.39395100  1
  O  O3  1  0.11997300  0.20036700  0.10604900  1
  O  O4  1  0.39124500  0.68326500  0.62625700  1
  O  O5  1  0.89124500  0.31673500  0.87374300  1
  O  O6  1  0.60875500  0.31673500  0.37374300  1
  O  O7  1  0.10875500  0.68326500  0.12625700  1
  O  O8  1  0.77179700  0.37340400  0.61210900  1
  O  O9  1  0.27179700  0.62659600  0.88789100  1
  O  O10  1  0.22820300  0.62659600  0.38789100  1
  O  O11  1  0.72820300  0.37340400  0.11210900  1
  O  O12  1  0.10444800  0.34258000  0.66412200  1
  O  O13  1  0.60444800  0.65742000  0.83587800  1
  O  O14  1  0.89555200  0.65742000  0.33587800  1
  O  O15  1  0.39555200  0.34258000  0.16412200  1
  O  O16  1  0.54152400  0.63670700  0.16515900  1
  O  O17  1  0.04152400  0.36329300  0.33484100  1
  O  O18  1  0.45847600  0.36329300  0.83484100  1
  O  O19  1  0.95847600  0.63670700  0.66515900  1
  O  O20  1  0.79219600  0.96991400  0.14385400  1
  O  O21  1  0.29219600  0.03008600  0.35614600  1
  O  O22  1  0.20780400  0.03008600  0.85614600  1
  O  O23  1  0.70780400  0.96991400  0.64385400  1
  O  O24  1  0.41409200  0.02914500  0.11428900  1
  O  O25  1  0.91409200  0.97085500  0.38571100  1
  O  O26  1  0.58590800  0.97085500  0.88571100  1
  O  O27  1  0.08590800  0.02914500  0.61428900  1
loop_
_geom_bond_atom_site_label_1
_geom_bond_atom_site_label_2
_geom_bond_distance
_geom_bond_site_symmetry_2
Mg0 O1 2.239890 1_454
Mg0 O3 2.239890 1_555
Mg0 O7 2.285625 1_555
Mg0 O5 2.285625 1_454
Mg0 O9 2.344404 1_554
Mg0 O11 2.344404 1_455
Mg1 O2 2.239890 1_555
Mg1 O0 2.239890 1_555
Mg1 O6 2.285625 1_555
Mg1 O4 2.285625 1_555
Mg1 O10 2.344404 1_555
Mg1 O8 2.344404 1_555
Fe0 O19 2.044606 1_455
Fe0 O21 2.113885 1_565
Fe0 O25 2.134330 1_455
Fe0 O27 2.159423 1_565
Fe0 O4 2.257414 1_555
Fe0 O10 2.285635 1_555
Fe1 O18 2.044606 1_555
Fe1 O20 2.113885 1_546
Fe1 O24 2.134330 1_556
Fe1 O26 2.159423 1_545
Fe1 O5 2.257414 1_555
Fe1 O11 2.285635 1_556
Fe2 O17 2.044606 1_655
Fe2 O23 2.113885 1_545
Fe2 O27 2.134330 1_655
Fe2 O25 2.159423 1_545
Fe2 O6 2.257414 1_555
Fe2 O8 2.285635 1_555
Fe3 O16 2.044606 1_555
Fe3 O22 2.113885 1_564
Fe3 O26 2.134330 1_554
Fe3 O24 2.159423 1_565
Fe3 O7 2.257414 1_555
Fe3 O9 2.285635 1_554
Fe4 O20 2.057850 1_445
Fe4 O22 2.057850 1_554
Fe4 O3 2.275281 1_555
Fe4 O1 2.275281 1_444
Fe4 O7 2.333429 1_545
Fe4 O5 2.333429 1_454
Fe5 O23 2.057850 1_545
Fe5 O21 2.057850 1_555
Fe5 O0 2.275281 1_555
Fe5 O2 2.275281 1_545
Fe5 O6 2.333429 1_555
Fe5 O4 2.333429 1_545
O0 P4 1.531232 1_555
O1 P5 1.531232 1_555
O2 P6 1.531232 1_555
O3 P7 1.531232 1_555
O4 P1 1.570902 1_555
O5 P0 1.570902 1_555
O6 P3 1.570902 1_555
O7 P2 1.570902 1_555
O8 P0 1.529128 1_555
O9 P1 1.529128 1_555
O10 P2 1.529128 1_555
O11 P3 1.529128 1_555
O12 P4 1.603757 1_555
O12 P0 1.623313 1_455
O13 P5 1.603757 1_555
O13 P1 1.623313 1_555
O14 P6 1.603757 1_555
O14 P2 1.623313 1_655
O15 P7 1.603757 1_555
O15 P3 1.623313 1_555
O16 P3 1.505040 1_555
O17 P2 1.505040 1_555
O18 P1 1.505040 1_555
O19 P0 1.505040 1_555
O20 P6 1.547164 1_555
O21 P7 1.547164 1_555
O22 P4 1.547164 1_555
O23 P5 1.547164 1_555
O24 P7 1.527515 1_555
O25 P6 1.527515 1_555
O26 P5 1.527515 1_555
O27 P4 1.527515 1_555
