# generated using pymatgen
data_VZnP2PbO9
_symmetry_space_group_name_H-M   'P 1'
_cell_length_a   8.86881300
_cell_length_b   9.24389500
_cell_length_c   18.27749500
_cell_angle_alpha   90.00000000
_cell_angle_beta   90.00000000
_cell_angle_gamma   90.00000000
_symmetry_Int_Tables_number   1
_chemical_formula_structural   VZnP2PbO9
_chemical_formula_sum   'V8 Zn8 P16 Pb8 O72'
_cell_volume   1498.43247011
_cell_formula_units_Z   8
loop_
 _symmetry_equiv_pos_site_id
 _symmetry_equiv_pos_as_xyz
  1  'x, y, z'
loop_
 _atom_site_type_symbol
 _atom_site_label
 _atom_site_symmetry_multiplicity
 _atom_site_fract_x
 _atom_site_fract_y
 _atom_site_fract_z
 _atom_site_occupancy
  V  V0  1  0.50034800  0.16129200  0.28739100  1
  V  V1  1  0.00034800  0.33870800  0.71260900  1
  V  V2  1  0.49965200  0.66129200  0.21260900  1
  V  V3  1  0.99965200  0.83870800  0.78739100  1
  V  V4  1  0.49965200  0.83870800  0.71260900  1
  V  V5  1  0.99965200  0.66129200  0.28739100  1
  V  V6  1  0.50034800  0.33870800  0.78739100  1
  V  V7  1  0.00034800  0.16129200  0.21260900  1
  Zn  Zn0  1  0.69899300  0.91230100  0.41444700  1
  Zn  Zn1  1  0.19899300  0.58769900  0.58555300  1
  Zn  Zn2  1  0.30100700  0.41230100  0.08555300  1
  Zn  Zn3  1  0.80100700  0.08769900  0.91444700  1
  Zn  Zn4  1  0.30100700  0.08769900  0.58555300  1
  Zn  Zn5  1  0.80100700  0.41230100  0.41444700  1
  Zn  Zn6  1  0.69899300  0.58769900  0.91444700  1
  Zn  Zn7  1  0.19899300  0.91230100  0.08555300  1
  P  P0  1  0.75043700  0.40962800  0.25959200  1
  P  P1  1  0.25043700  0.09037200  0.74040800  1
  P  P2  1  0.24956300  0.90962800  0.24040800  1
  P  P3  1  0.74956300  0.59037200  0.75959200  1
  P  P4  1  0.24956300  0.59037200  0.74040800  1
  P  P5  1  0.74956300  0.90962800  0.25959200  1
  P  P6  1  0.75043700  0.09037200  0.75959200  1
  P  P7  1  0.25043700  0.40962800  0.24040800  1
  P  P8  1  0.95075500  0.79922500  0.97743400  1
  P  P9  1  0.45075500  0.70077500  0.02256600  1
  P  P10  1  0.04924500  0.29922500  0.52256600  1
  P  P11  1  0.54924500  0.20077500  0.47743400  1
  P  P12  1  0.04924500  0.20077500  0.02256600  1
  P  P13  1  0.54924500  0.29922500  0.97743400  1
  P  P14  1  0.95075500  0.70077500  0.47743400  1
  P  P15  1  0.45075500  0.79922500  0.52256600  1
  Pb  Pb0  1  0.68194100  0.00623800  0.08849600  1
  Pb  Pb1  1  0.18194100  0.49376200  0.91150400  1
  Pb  Pb2  1  0.31805900  0.50623800  0.41150400  1
  Pb  Pb3  1  0.81805900  0.99376200  0.58849600  1
  Pb  Pb4  1  0.31805900  0.99376200  0.91150400  1
  Pb  Pb5  1  0.81805900  0.50623800  0.08849600  1
  Pb  Pb6  1  0.68194100  0.49376200  0.58849600  1
  Pb  Pb7  1  0.18194100  0.00623800  0.41150400  1
  O  O0  1  0.56060300  0.66496200  0.08689900  1
  O  O1  1  0.06060300  0.83503800  0.91310100  1
  O  O2  1  0.43939700  0.16496200  0.41310100  1
  O  O3  1  0.93939700  0.33503800  0.58689900  1
  O  O4  1  0.43939700  0.33503800  0.91310100  1
  O  O5  1  0.93939700  0.16496200  0.08689900  1
  O  O6  1  0.56060300  0.83503800  0.58689900  1
  O  O7  1  0.06060300  0.66496200  0.41310100  1
  O  O8  1  0.65080700  0.82134000  0.20679500  1
  O  O9  1  0.15080700  0.67866000  0.79320500  1
  O  O10  1  0.34919300  0.32134000  0.29320500  1
  O  O11  1  0.84919300  0.17866000  0.70679500  1
  O  O12  1  0.34919300  0.17866000  0.79320500  1
  O  O13  1  0.84919300  0.32134000  0.20679500  1
  O  O14  1  0.65080700  0.67866000  0.70679500  1
  O  O15  1  0.15080700  0.82134000  0.29320500  1
  O  O16  1  0.81387200  0.90567400  0.97681300  1
  O  O17  1  0.31387200  0.59432600  0.02318700  1
  O  O18  1  0.18612800  0.40567400  0.52318700  1
  O  O19  1  0.68612800  0.09432600  0.47681300  1
  O  O20  1  0.18612800  0.09432600  0.02318700  1
  O  O21  1  0.68612800  0.40567400  0.97681300  1
  O  O22  1  0.81387200  0.59432600  0.47681300  1
  O  O23  1  0.31387200  0.90567400  0.52318700  1
  O  O24  1  0.53091100  0.14944000  0.19867700  1
  O  O25  1  0.03091100  0.35056000  0.80132300  1
  O  O26  1  0.46908900  0.64944000  0.30132300  1
  O  O27  1  0.96908900  0.85056000  0.69867700  1
  O  O28  1  0.46908900  0.85056000  0.80132300  1
  O  O29  1  0.96908900  0.64944000  0.19867700  1
  O  O30  1  0.53091100  0.35056000  0.69867700  1
  O  O31  1  0.03091100  0.14944000  0.30132300  1
  O  O32  1  0.88846200  0.64019400  0.96776600  1
  O  O33  1  0.38846200  0.85980600  0.03223400  1
  O  O34  1  0.11153800  0.14019400  0.53223400  1
  O  O35  1  0.61153800  0.35980600  0.46776600  1
  O  O36  1  0.11153800  0.35980600  0.03223400  1
  O  O37  1  0.61153800  0.14019400  0.96776600  1
  O  O38  1  0.88846200  0.85980600  0.46776600  1
  O  O39  1  0.38846200  0.64019400  0.53223400  1
  O  O40  1  0.84572900  0.50143600  0.31553700  1
  O  O41  1  0.34572900  0.99856400  0.68446300  1
  O  O42  1  0.15427100  0.00143600  0.18446300  1
  O  O43  1  0.65427100  0.49856400  0.81553700  1
  O  O44  1  0.15427100  0.49856400  0.68446300  1
  O  O45  1  0.65427100  0.00143600  0.31553700  1
  O  O46  1  0.84572900  0.99856400  0.81553700  1
  O  O47  1  0.34572900  0.50143600  0.18446300  1
  O  O48  1  0.02546500  0.80097300  0.05318800  1
  O  O49  1  0.52546500  0.69902700  0.94681200  1
  O  O50  1  0.97453500  0.30097300  0.44681200  1
  O  O51  1  0.47453500  0.19902700  0.55318800  1
  O  O52  1  0.97453500  0.19902700  0.94681200  1
  O  O53  1  0.47453500  0.30097300  0.05318800  1
  O  O54  1  0.02546500  0.69902700  0.55318800  1
  O  O55  1  0.52546500  0.80097300  0.44681200  1
  O  O56  1  0.66175500  0.50877900  0.20679200  1
  O  O57  1  0.16175500  0.99122100  0.79320800  1
  O  O58  1  0.33824500  0.00877900  0.29320800  1
  O  O59  1  0.83824500  0.49122100  0.70679200  1
  O  O60  1  0.33824500  0.49122100  0.79320800  1
  O  O61  1  0.83824500  0.00877900  0.20679200  1
  O  O62  1  0.66175500  0.99122100  0.70679200  1
  O  O63  1  0.16175500  0.50877900  0.29320800  1
  O  O64  1  0.65529800  0.31520300  0.31159100  1
  O  O65  1  0.15529800  0.18479700  0.68840900  1
  O  O66  1  0.34470200  0.81520300  0.18840900  1
  O  O67  1  0.84470200  0.68479700  0.81159100  1
  O  O68  1  0.34470200  0.68479700  0.68840900  1
  O  O69  1  0.84470200  0.81520300  0.31159100  1
  O  O70  1  0.65529800  0.18479700  0.81159100  1
  O  O71  1  0.15529800  0.31520300  0.18840900  1
loop_
_geom_bond_atom_site_label_1
_geom_bond_atom_site_label_2
_geom_bond_distance
_geom_bond_site_symmetry_2
O0 P9 1.562471 1_555
O0 V2 2.360639 1_555
O0 Pb5 2.714259 1_555
O1 P8 1.562471 1_455
O1 V3 2.360639 1_455
O1 Pb4 2.714259 1_555
O2 P11 1.562471 1_555
O2 V0 2.360639 1_555
O2 Pb7 2.714259 1_555
O3 P10 1.562471 1_655
O3 V1 2.360639 1_655
O3 Pb6 2.714259 1_555
O4 P13 1.562471 1_555
O4 V6 2.360639 1_555
O4 Pb1 2.714259 1_555
O5 P12 1.562471 1_655
O5 V7 2.360639 1_655
O5 Pb0 2.714259 1_555
O6 P15 1.562471 1_555
O6 V4 2.360639 1_555
O6 Pb3 2.714259 1_555
O7 P14 1.562471 1_455
O7 V5 2.360639 1_455
O7 Pb2 2.714259 1_555
O8 P5 1.537657 1_555
O8 V2 1.999307 1_555
O8 Pb0 2.769960 1_565
O9 P4 1.537657 1_555
O9 V3 1.999307 1_455
O9 Pb1 2.769960 1_555
O10 P7 1.537657 1_555
O10 V0 1.999307 1_555
O10 Pb2 2.769960 1_555
O11 P6 1.537657 1_555
O11 V1 1.999307 1_655
O11 Pb3 2.769960 1_545
O12 P1 1.537657 1_555
O12 V6 1.999307 1_555
O12 Pb4 2.769960 1_545
O13 P0 1.537657 1_555
O13 V7 1.999307 1_655
O13 Pb5 2.769960 1_555
O14 P3 1.537657 1_555
O14 V4 1.999307 1_555
O14 Pb6 2.769960 1_555
O15 P2 1.537657 1_555
O15 V5 1.999307 1_455
O15 Pb7 2.769960 1_565
O16 P8 1.562742 1_555
O16 Zn3 2.035580 1_565
O16 Pb0 2.529837 1_566
O17 P9 1.562742 1_555
O17 Zn2 2.035580 1_555
O17 Pb1 2.529837 1_554
O18 P10 1.562742 1_555
O18 Zn1 2.035580 1_555
O18 Pb2 2.529837 1_555
O19 P11 1.562742 1_555
O19 Zn0 2.035580 1_545
O19 Pb3 2.529837 1_545
O20 P12 1.562742 1_555
O20 Zn7 2.035580 1_545
O20 Pb4 2.529837 1_544
O21 P13 1.562742 1_555
O21 Zn6 2.035580 1_555
O21 Pb5 2.529837 1_556
O22 P14 1.562742 1_555
O22 Zn5 2.035580 1_555
O22 Pb6 2.529837 1_555
O23 P15 1.562742 1_555
O23 Zn4 2.035580 1_565
O23 Pb7 2.529837 1_565
O24 V0 1.647616 1_555
O24 Pb0 2.757166 1_555
O25 V1 1.647616 1_555
O25 Pb1 2.757166 1_555
O26 V2 1.647616 1_555
O26 Pb2 2.757166 1_555
O27 V3 1.647616 1_555
O27 Pb3 2.757166 1_555
O28 V4 1.647616 1_555
O28 Pb4 2.757166 1_555
O29 V5 1.647616 1_555
O29 Pb5 2.757166 1_555
O30 V6 1.647616 1_555
O30 Pb6 2.757166 1_555
O31 V7 1.647616 1_555
O31 Pb7 2.757166 1_555
O32 P8 1.580360 1_555
O32 Zn6 2.002205 1_555
O32 Pb5 2.606235 1_556
O33 P9 1.580360 1_555
O33 Zn7 2.002205 1_555
O33 Pb4 2.606235 1_554
O34 P10 1.580360 1_555
O34 Zn4 2.002205 1_555
O34 Pb7 2.606235 1_555
O35 P11 1.580360 1_555
O35 Zn5 2.002205 1_555
O35 Pb6 2.606235 1_555
O36 P12 1.580360 1_555
O36 Zn2 2.002205 1_555
O36 Pb1 2.606235 1_554
O37 P13 1.580360 1_555
O37 Zn3 2.002205 1_555
O37 Pb0 2.606235 1_556
O38 P14 1.580360 1_555
O38 Zn0 2.002205 1_555
O38 Pb3 2.606235 1_555
O39 P15 1.580360 1_555
O39 Zn1 2.002205 1_555
O39 Pb2 2.606235 1_555
O40 P0 1.574816 1_555
O40 Zn5 2.025946 1_555
O40 V5 2.076477 1_555
O41 P1 1.574816 1_565
O41 Zn4 2.025946 1_565
O41 V4 2.076477 1_555
O42 P2 1.574816 1_545
O42 Zn7 2.025946 1_545
O42 V7 2.076477 1_555
O43 P3 1.574816 1_555
O43 Zn6 2.025946 1_555
O43 V6 2.076477 1_555
O44 P4 1.574816 1_555
O44 Zn1 2.025946 1_555
O44 V1 2.076477 1_555
O45 P5 1.574816 1_545
O45 Zn0 2.025946 1_545
O45 V0 2.076477 1_555
O46 P6 1.574816 1_565
O46 Zn3 2.025946 1_565
O46 V3 2.076477 1_555
O47 P7 1.574816 1_555
O47 Zn2 2.025946 1_555
O47 V2 2.076477 1_555
O48 P8 1.535052 1_454
O48 Zn7 1.943572 1_555
O49 P9 1.535052 1_556
O49 Zn6 1.943572 1_555
O50 P10 1.535052 1_655
O50 Zn5 1.943572 1_555
O51 P11 1.535052 1_555
O51 Zn4 1.943572 1_555
O52 P12 1.535052 1_656
O52 Zn3 1.943572 1_555
O53 P13 1.535052 1_554
O53 Zn2 1.943572 1_555
O54 P14 1.535052 1_455
O54 Zn1 1.943572 1_555
O55 P15 1.535052 1_555
O55 Zn0 1.943572 1_555
O56 P0 1.545950 1_555
O56 V2 2.016370 1_555
O56 Pb5 2.568482 1_555
O57 P1 1.545950 1_565
O57 V3 2.016370 1_455
O57 Pb4 2.568482 1_555
O58 P2 1.545950 1_545
O58 V0 2.016370 1_555
O58 Pb7 2.568482 1_555
O59 P3 1.545950 1_555
O59 V1 2.016370 1_655
O59 Pb6 2.568482 1_555
O60 P4 1.545950 1_555
O60 V6 2.016370 1_555
O60 Pb1 2.568482 1_555
O61 P5 1.545950 1_545
O61 V7 2.016370 1_655
O61 Pb0 2.568482 1_555
O62 P6 1.545950 1_565
O62 V4 2.016370 1_555
O62 Pb3 2.568482 1_555
O63 P7 1.545950 1_555
O63 V5 2.016370 1_455
O63 Pb2 2.568482 1_555
O64 P0 1.541786 1_555
O64 V0 2.026897 1_555
O64 Zn5 2.451486 1_555
O65 P1 1.541786 1_555
O65 V1 2.026897 1_555
O65 Zn4 2.451486 1_555
O66 P2 1.541786 1_555
O66 V2 2.026897 1_555
O66 Zn7 2.451486 1_555
O67 P3 1.541786 1_555
O67 V3 2.026897 1_555
O67 Zn6 2.451486 1_555
O68 P4 1.541786 1_555
O68 V4 2.026897 1_555
O68 Zn1 2.451486 1_555
O69 P5 1.541786 1_555
O69 V5 2.026897 1_555
O69 Zn0 2.451486 1_555
O70 P6 1.541786 1_555
O70 V6 2.026897 1_555
O70 Zn3 2.451486 1_555
O71 P7 1.541786 1_555
O71 V7 2.026897 1_555
O71 Zn2 2.451486 1_555
