# generated using pymatgen
data_GeH4
_symmetry_space_group_name_H-M   'P 1'
_cell_length_a   4.93557932
_cell_length_b   9.74414822
_cell_length_c   9.90416053
_cell_angle_alpha   117.57425818
_cell_angle_beta   90.00000000
_cell_angle_gamma   90.00000000
_symmetry_Int_Tables_number   1
_chemical_formula_structural   GeH4
_chemical_formula_sum   'Ge4 H16'
_cell_volume   422.21643866
_cell_formula_units_Z   4
loop_
 _symmetry_equiv_pos_site_id
 _symmetry_equiv_pos_as_xyz
  1  'x, y, z'
loop_
 _atom_site_type_symbol
 _atom_site_label
 _atom_site_symmetry_multiplicity
 _atom_site_fract_x
 _atom_site_fract_y
 _atom_site_fract_z
 _atom_site_occupancy
  Ge  Ge0  1  0.92374649  0.76822469  0.34301915  1
  Ge  Ge1  1  0.92374649  0.23177531  0.15698085  1
  Ge  Ge2  1  0.07625351  0.23177531  0.65698085  1
  Ge  Ge3  1  0.07625351  0.76822469  0.84301915  1
  H  H0  1  0.63449688  0.81579951  0.39776622  1
  H  H1  1  0.63449688  0.18420049  0.10223378  1
  H  H2  1  0.36550312  0.18420049  0.60223378  1
  H  H3  1  0.36550312  0.81579951  0.89776622  1
  H  H4  1  0.07746182  0.73657864  0.45875192  1
  H  H5  1  0.07746182  0.26342136  0.04124808  1
  H  H6  1  0.92253818  0.26342136  0.54124808  1
  H  H7  1  0.92253818  0.73657864  0.95875192  1
  H  H8  1  0.92048739  0.62274126  0.19014901  1
  H  H9  1  0.92048739  0.37725874  0.30985099  1
  H  H10  1  0.07951261  0.37725874  0.80985099  1
  H  H11  1  0.07951261  0.62274126  0.69014901  1
  H  H12  1  0.06242829  0.89815527  0.32483634  1
  H  H13  1  0.06242829  0.10184473  0.17516366  1
  H  H14  1  0.93757171  0.10184473  0.67516366  1
  H  H15  1  0.93757171  0.89815527  0.82483634  1
loop_
_geom_bond_atom_site_label_1
_geom_bond_atom_site_label_2
_geom_bond_distance
_geom_bond_site_symmetry_2
Ge0 H4 1.520448 1_655
Ge0 H0 1.521277 1_555
Ge0 H12 1.521490 1_655
Ge0 H8 1.521566 1_555
Ge1 H5 1.520448 1_655
Ge1 H1 1.521277 1_555
Ge1 H13 1.521490 1_655
Ge1 H9 1.521566 1_555
Ge2 H6 1.520448 1_455
Ge2 H2 1.521277 1_555
Ge2 H14 1.521490 1_455
Ge2 H10 1.521566 1_555
Ge3 H7 1.520448 1_455
Ge3 H3 1.521277 1_555
Ge3 H15 1.521490 1_455
Ge3 H11 1.521566 1_555
