# generated using pymatgen
data_Rb2CrO4
_symmetry_space_group_name_H-M   'P 1'
_cell_length_a   6.04461725
_cell_length_b   7.99610455
_cell_length_c   10.70468561
_cell_angle_alpha   90.00000000
_cell_angle_beta   90.00000000
_cell_angle_gamma   90.00000000
_symmetry_Int_Tables_number   1
_chemical_formula_structural   Rb2CrO4
_chemical_formula_sum   'Rb8 Cr4 O16'
_cell_volume   517.39376043
_cell_formula_units_Z   4
loop_
 _symmetry_equiv_pos_site_id
 _symmetry_equiv_pos_as_xyz
  1  'x, y, z'
loop_
 _atom_site_type_symbol
 _atom_site_label
 _atom_site_symmetry_multiplicity
 _atom_site_fract_x
 _atom_site_fract_y
 _atom_site_fract_z
 _atom_site_occupancy
  Rb  Rb0  1  0.25000000  0.01370120  0.30290057  1
  Rb  Rb1  1  0.75000000  0.98629880  0.69709943  1
  Rb  Rb2  1  0.25000000  0.51370120  0.19709943  1
  Rb  Rb3  1  0.75000000  0.48629880  0.80290057  1
  Rb  Rb4  1  0.25000000  0.33428967  0.58768414  1
  Rb  Rb5  1  0.75000000  0.66571033  0.41231586  1
  Rb  Rb6  1  0.25000000  0.83428967  0.91231586  1
  Rb  Rb7  1  0.75000000  0.16571033  0.08768414  1
  Cr  Cr0  1  0.25000000  0.76821879  0.57931328  1
  Cr  Cr1  1  0.75000000  0.23178121  0.42068672  1
  Cr  Cr2  1  0.25000000  0.26821879  0.92068672  1
  Cr  Cr3  1  0.75000000  0.73178121  0.07931328  1
  O  O0  1  0.52706597  0.30428111  0.35026829  1
  O  O1  1  0.02706597  0.69571889  0.64973171  1
  O  O2  1  0.97293403  0.80428111  0.14973171  1
  O  O3  1  0.47293403  0.19571889  0.85026829  1
  O  O4  1  0.47293403  0.69571889  0.64973171  1
  O  O5  1  0.97293403  0.30428111  0.35026829  1
  O  O6  1  0.02706597  0.19571889  0.85026829  1
  O  O7  1  0.52706597  0.80428111  0.14973171  1
  O  O8  1  0.25000000  0.70217070  0.43292253  1
  O  O9  1  0.75000000  0.29782930  0.56707747  1
  O  O10  1  0.25000000  0.20217070  0.06707747  1
  O  O11  1  0.75000000  0.79782930  0.93292253  1
  O  O12  1  0.75000000  0.52611158  0.08385572  1
  O  O13  1  0.25000000  0.47388842  0.91614428  1
  O  O14  1  0.75000000  0.02611158  0.41614428  1
  O  O15  1  0.25000000  0.97388842  0.58385572  1
loop_
_geom_bond_atom_site_label_1
_geom_bond_atom_site_label_2
_geom_bond_distance
_geom_bond_site_symmetry_2
Cr0 O15 1.645275 1_555
Cr0 O4 1.649300 1_555
Cr0 O1 1.649300 1_555
Cr0 O8 1.653668 1_555
Cr1 O14 1.645275 1_555
Cr1 O5 1.649300 1_555
Cr1 O0 1.649300 1_555
Cr1 O9 1.653668 1_555
Cr2 O13 1.645275 1_555
Cr2 O6 1.649300 1_555
Cr2 O3 1.649300 1_555
Cr2 O10 1.653668 1_556
Cr3 O12 1.645275 1_555
Cr3 O7 1.649300 1_555
Cr3 O2 1.649300 1_555
Cr3 O11 1.653668 1_554
O0 Rb2 2.880500 1_555
O0 Rb0 2.908712 1_555
O0 Rb4 3.053100 1_555
O0 Rb5 3.257193 1_555
O0 Rb7 3.308272 1_555
O1 Rb3 2.880500 1_455
O1 Rb1 2.908712 1_455
O1 Rb5 3.053100 1_455
O1 Rb4 3.257193 1_555
O1 Rb6 3.308272 1_555
O2 Rb0 2.880500 1_665
O2 Rb2 2.908712 1_655
O2 Rb6 3.053100 1_654
O2 Rb7 3.257193 1_565
O2 Rb5 3.308272 1_555
O3 Rb1 2.880500 1_545
O3 Rb3 2.908712 1_555
O3 Rb7 3.053100 1_556
O3 Rb6 3.257193 1_545
O3 Rb4 3.308272 1_555
O4 Rb3 2.880500 1_555
O4 Rb1 2.908712 1_555
O4 Rb5 3.053100 1_555
O4 Rb4 3.257193 1_555
O4 Rb6 3.308272 1_555
O5 Rb2 2.880500 1_655
O5 Rb0 2.908712 1_655
O5 Rb4 3.053100 1_655
O5 Rb5 3.257193 1_555
O5 Rb7 3.308272 1_555
O6 Rb1 2.880500 1_445
O6 Rb3 2.908712 1_455
O6 Rb7 3.053100 1_456
O6 Rb6 3.257193 1_545
O6 Rb4 3.308272 1_555
O7 Rb0 2.880500 1_565
O7 Rb2 2.908712 1_555
O7 Rb6 3.053100 1_554
O7 Rb7 3.257193 1_565
O7 Rb5 3.308272 1_555
O8 Rb0 2.853500 1_565
O8 Rb2 2.940029 1_555
O8 Rb5 3.044340 1_455
O8 Rb5 3.044340 1_555
O8 Rb4 3.376044 1_555
O9 Rb1 2.853500 1_545
O9 Rb3 2.940029 1_555
O9 Rb4 3.044340 1_555
O9 Rb4 3.044340 1_655
O9 Rb5 3.376044 1_555
O10 Rb2 2.853500 1_555
O10 Rb0 2.940029 1_555
O10 Rb7 3.044340 1_555
O10 Rb7 3.044340 1_455
O10 Rb6 3.376044 1_544
O11 Rb3 2.853500 1_555
O11 Rb1 2.940029 1_555
O11 Rb6 3.044340 1_655
O11 Rb6 3.044340 1_555
O11 Rb7 3.376044 1_566
O12 Rb7 2.882097 1_555
O12 Rb3 3.024338 1_554
O12 Rb2 3.257870 1_655
O12 Rb2 3.257870 1_555
O13 Rb6 2.882097 1_555
O13 Rb2 3.024338 1_556
O13 Rb3 3.257870 1_455
O13 Rb3 3.257870 1_555
O14 Rb5 2.882097 1_545
O14 Rb1 3.024338 1_545
O14 Rb0 3.257870 1_555
O14 Rb0 3.257870 1_655
O15 Rb4 2.882097 1_565
O15 Rb0 3.024338 1_565
O15 Rb1 3.257870 1_555
O15 Rb1 3.257870 1_455
