# generated using pymatgen
data_Ba6Y3Co3(Cu3O11)2
_symmetry_space_group_name_H-M   'P 1'
_cell_length_a   3.89456700
_cell_length_b   11.79249888
_cell_length_c   12.39036817
_cell_angle_alpha   71.53530933
_cell_angle_beta   89.94326544
_cell_angle_gamma   89.95994518
_symmetry_Int_Tables_number   1
_chemical_formula_structural   Ba6Y3Co3(Cu3O11)2
_chemical_formula_sum   'Ba6 Y3 Co3 Cu6 O22'
_cell_volume   539.75295575
_cell_formula_units_Z   1
loop_
 _symmetry_equiv_pos_site_id
 _symmetry_equiv_pos_as_xyz
  1  'x, y, z'
loop_
 _atom_site_type_symbol
 _atom_site_label
 _atom_site_symmetry_multiplicity
 _atom_site_fract_x
 _atom_site_fract_y
 _atom_site_fract_z
 _atom_site_occupancy
  Ba  Ba0  1  0.50450700  0.23099100  0.81848600  1
  Ba  Ba1  1  0.49957700  0.56099600  0.81717100  1
  Ba  Ba2  1  0.49516800  0.89023800  0.81847300  1
  Ba  Ba3  1  0.50042300  0.43900400  0.18282900  1
  Ba  Ba4  1  0.49549300  0.76900900  0.18151400  1
  Ba  Ba5  1  0.50483200  0.10976200  0.18152700  1
  Y  Y0  1  0.50037500  0.33196100  0.50124600  1
  Y  Y1  1  0.49962500  0.66803900  0.49875400  1
  Y  Y2  1  0.50000000  0.00000000  0.50000000  1
  Co  Co0  1  0.00795100  0.31788000  0.00002600  1
  Co  Co1  1  0.99204900  0.68212000  0.99997400  1
  Co  Co2  1  0.00000000  0.00000000  0.00000000  1
  Cu  Cu0  1  0.00015300  0.11758900  0.64667400  1
  Cu  Cu1  1  0.00080400  0.45400600  0.64047600  1
  Cu  Cu2  1  0.99905300  0.78596400  0.64070400  1
  Cu  Cu3  1  0.00094700  0.21403600  0.35929600  1
  Cu  Cu4  1  0.99919600  0.54599400  0.35952400  1
  Cu  Cu5  1  0.99984700  0.88241100  0.35332600  1
  O  O0  1  0.50013900  0.12641400  0.62006800  1
  O  O1  1  0.50063000  0.45934200  0.62062100  1
  O  O2  1  0.49919700  0.79364000  0.62093400  1
  O  O3  1  0.00106200  0.29359500  0.62362500  1
  O  O4  1  0.99967700  0.62659200  0.61992300  1
  O  O5  1  0.99910500  0.95791400  0.62234500  1
  O  O6  1  0.50080300  0.20636000  0.37906600  1
  O  O7  1  0.49937000  0.54065800  0.37937900  1
  O  O8  1  0.49986100  0.87358600  0.37993200  1
  O  O9  1  0.00032300  0.37340800  0.38007700  1
  O  O10  1  0.99893800  0.70640500  0.37637500  1
  O  O11  1  0.00089500  0.04208600  0.37765500  1
  O  O12  1  0.00071800  0.05304300  0.84235500  1
  O  O13  1  0.00314800  0.39329200  0.84743700  1
  O  O14  1  0.99601100  0.70821700  0.84733900  1
  O  O15  1  0.00398900  0.29178300  0.15266100  1
  O  O16  1  0.99685200  0.60670800  0.15256300  1
  O  O17  1  0.99928200  0.94695700  0.15764500  1
  O  O18  1  0.02823600  0.15466000  0.00071400  1
  O  O19  1  0.97176400  0.84534000  0.99928600  1
  O  O20  1  0.50740200  0.34572600  0.99997000  1
  O  O21  1  0.49259800  0.65427400  0.00003000  1
loop_
_geom_bond_atom_site_label_1
_geom_bond_atom_site_label_2
_geom_bond_distance
_geom_bond_site_symmetry_2
Ba0 O12 2.797851 1_655
Ba0 O12 2.819939 1_555
Ba0 O13 2.829243 1_655
Ba0 O13 2.834194 1_555
Ba0 O18 2.838206 1_556
Ba0 O18 2.964414 1_656
Ba0 O20 2.968922 1_555
Ba0 O3 2.996308 1_655
Ba0 O1 3.013332 1_555
Ba0 O3 3.016119 1_555
Ba0 O0 3.079906 1_555
Ba1 O14 2.703513 1_555
Ba1 O13 2.706252 1_555
Ba1 O14 2.721181 1_455
Ba1 O13 2.724748 1_655
Ba1 O21 2.814703 1_556
Ba1 O20 2.816589 1_555
Ba1 O4 3.026543 1_555
Ba1 O4 3.028459 1_455
Ba1 O2 3.035306 1_555
Ba1 O1 3.035961 1_555
Ba2 O12 2.799152 1_565
Ba2 O19 2.828459 1_555
Ba2 O12 2.831316 1_665
Ba2 O14 2.834185 1_455
Ba2 O14 2.837119 1_555
Ba2 O19 2.948856 1_455
Ba2 O21 2.972944 1_556
Ba2 O5 3.008884 1_455
Ba2 O2 3.009074 1_555
Ba2 O5 3.026287 1_555
Ba2 O0 3.076282 1_565
Ba3 O15 2.703513 1_555
Ba3 O16 2.706252 1_555
Ba3 O15 2.721181 1_655
Ba3 O16 2.724748 1_455
Ba3 O20 2.814703 1_554
Ba3 O21 2.816589 1_555
Ba3 O9 3.026543 1_555
Ba3 O9 3.028459 1_655
Ba3 O6 3.035306 1_555
Ba3 O7 3.035961 1_555
Ba4 O17 2.797851 1_455
Ba4 O17 2.819939 1_555
Ba4 O16 2.829243 1_455
Ba4 O16 2.834194 1_555
Ba4 O19 2.838206 1_554
Ba4 O19 2.964414 1_454
Ba4 O21 2.968922 1_555
Ba4 O10 2.996308 1_455
Ba4 O7 3.013332 1_555
Ba4 O10 3.016119 1_555
Ba4 O8 3.079906 1_555
Ba5 O17 2.799152 1_545
Ba5 O18 2.828459 1_555
Ba5 O17 2.831316 1_445
Ba5 O15 2.834185 1_655
Ba5 O15 2.837119 1_555
Ba5 O18 2.948856 1_655
Ba5 O20 2.972944 1_554
Ba5 O11 3.008884 1_655
Ba5 O6 3.009074 1_555
Ba5 O11 3.026287 1_555
Ba5 O8 3.076282 1_545
Co0 O13 1.816787 1_554
Co0 O15 1.817382 1_555
Co0 O18 1.923657 1_555
Co0 O20 1.972857 1_554
Co0 O20 1.976623 1_454
Co1 O16 1.816787 1_556
Co1 O14 1.817382 1_555
Co1 O19 1.923657 1_555
Co1 O21 1.972857 1_556
Co1 O21 1.976623 1_656
Co2 O18 1.830033 1_555
Co2 O19 1.830033 1_444
Co2 O17 1.852735 1_445
Co2 O12 1.852735 1_554
Cu0 O0 1.971924 1_555
Cu0 O0 1.972533 1_455
Cu0 O5 1.999003 1_445
Cu0 O3 2.003502 1_555
Cu0 O12 2.299754 1_555
Cu1 O1 1.960401 1_555
Cu1 O1 1.962143 1_455
Cu1 O3 1.967765 1_555
Cu1 O4 1.969436 1_455
Cu1 O13 2.434236 1_555
Cu2 O2 1.960760 1_555
Cu2 O2 1.961518 1_655
Cu2 O5 1.967541 1_555
Cu2 O4 1.976095 1_555
Cu2 O14 2.430807 1_555
Cu3 O6 1.960760 1_555
Cu3 O6 1.961518 1_455
Cu3 O11 1.967541 1_555
Cu3 O9 1.976095 1_555
Cu3 O15 2.430807 1_555
Cu4 O7 1.960401 1_555
Cu4 O7 1.962143 1_655
Cu4 O10 1.967765 1_555
Cu4 O9 1.969436 1_655
Cu4 O16 2.434236 1_555
Cu5 O8 1.971924 1_555
Cu5 O8 1.972533 1_655
Cu5 O11 1.999003 1_665
Cu5 O10 2.003502 1_555
Cu5 O17 2.299754 1_555
O0 Y0 2.404657 1_555
O0 Y2 2.416676 1_555
O1 Y0 2.418999 1_555
O1 Y1 2.445997 1_555
O2 Y2 2.420209 1_565
O2 Y1 2.430203 1_555
O3 Y0 2.417903 1_555
O3 Y0 2.424113 1_455
O4 Y1 2.411375 1_655
O4 Y1 2.413550 1_555
O5 Y2 2.418789 1_565
O5 Y2 2.422540 1_665
O6 Y2 2.420209 1_555
O6 Y0 2.430203 1_555
O7 Y1 2.418999 1_555
O7 Y0 2.445997 1_555
O8 Y1 2.404657 1_555
O8 Y2 2.416676 1_565
O9 Y0 2.411375 1_455
O9 Y0 2.413550 1_555
O10 Y1 2.417903 1_555
O10 Y1 2.424113 1_655
O11 Y2 2.418789 1_555
O11 Y2 2.422540 1_455
