# generated using pymatgen
data_Li7Mn4CoO12
_symmetry_space_group_name_H-M   'P 1'
_cell_length_a   7.81267381
_cell_length_b   7.81267381
_cell_length_c   10.49449259
_cell_angle_alpha   72.98076902
_cell_angle_beta   72.98076902
_cell_angle_gamma   21.30731525
_symmetry_Int_Tables_number   1
_chemical_formula_structural   Li7Mn4CoO12
_chemical_formula_sum   'Li7 Mn4 Co1 O12'
_cell_volume   222.19826617
_cell_formula_units_Z   1
loop_
 _symmetry_equiv_pos_site_id
 _symmetry_equiv_pos_as_xyz
  1  'x, y, z'
loop_
 _atom_site_type_symbol
 _atom_site_label
 _atom_site_symmetry_multiplicity
 _atom_site_fract_x
 _atom_site_fract_y
 _atom_site_fract_z
 _atom_site_occupancy
  Li  Li0  1  0.49881500  0.49881500  0.25463500  1
  Li  Li1  1  0.49762100  0.49762100  0.74722400  1
  Li  Li2  1  0.82575900  0.82575900  0.44096900  1
  Li  Li3  1  0.83135500  0.83135500  0.90038300  1
  Li  Li4  1  0.17290200  0.17290200  0.06497400  1
  Li  Li5  1  0.16871800  0.16871800  0.58556400  1
  Li  Li6  1  0.33513800  0.33513800  0.66880600  1
  Mn  Mn0  1  0.00548900  0.00548900  0.99453300  1
  Mn  Mn1  1  0.99174000  0.99174000  0.51388100  1
  Mn  Mn2  1  0.33339800  0.33339800  0.16210800  1
  Mn  Mn3  1  0.66333100  0.66333100  0.33966000  1
  Co  Co0  1  0.68340100  0.68340100  0.80761400  1
  O  O0  1  0.57223400  0.57223400  0.04722000  1
  O  O1  1  0.57029400  0.57029400  0.54391900  1
  O  O2  1  0.91567000  0.91567000  0.18631300  1
  O  O3  1  0.92349800  0.92349800  0.68810300  1
  O  O4  1  0.24734800  0.24734800  0.87381900  1
  O  O5  1  0.24124000  0.24124000  0.37420300  1
  O  O6  1  0.42457900  0.42457900  0.45998000  1
  O  O7  1  0.43141000  0.43141000  0.95577700  1
  O  O8  1  0.74182400  0.74182400  0.63314000  1
  O  O9  1  0.75720800  0.75720800  0.12742300  1
  O  O10  1  0.08307000  0.08307000  0.31227200  1
  O  O11  1  0.08394600  0.08394600  0.81747800  1
loop_
_geom_bond_atom_site_label_1
_geom_bond_atom_site_label_2
_geom_bond_distance
_geom_bond_site_symmetry_2
Li0 O6 2.116654 1_555
Li0 O0 2.132462 1_555
Li0 O10 2.142924 1_655
Li0 O10 2.142924 1_565
Li0 O2 2.185331 1_455
Li0 O2 2.185331 1_545
Li1 O3 2.046292 1_455
Li1 O3 2.046292 1_545
Li1 O1 2.092679 1_555
Li1 O7 2.120961 1_555
Li1 O11 2.229148 1_655
Li1 O11 2.229148 1_565
Li2 O8 2.044548 1_555
Li2 O6 2.146862 1_655
Li2 O6 2.146862 1_565
Li2 O5 2.191627 1_655
Li2 O5 2.191627 1_565
Li3 O4 2.010519 1_655
Li3 O4 2.010519 1_565
Li3 O3 2.255535 1_555
Li3 O7 2.305811 1_655
Li3 O7 2.305811 1_565
Li3 O9 2.314644 1_556
Li4 O4 1.991280 1_554
Li4 O0 2.163812 1_545
Li4 O0 2.163812 1_455
Li4 O9 2.167260 1_455
Li4 O9 2.167260 1_545
Li4 O10 2.550656 1_555
Li5 O8 1.982309 1_545
Li5 O8 1.982309 1_455
Li5 O5 2.165389 1_555
Li5 O1 2.225965 1_455
Li5 O1 2.225965 1_545
Li5 O11 2.393926 1_555
Li6 O3 2.032701 1_455
Li6 O3 2.032701 1_545
Li6 O8 2.144525 1_545
Li6 O8 2.144525 1_455
Li6 O4 2.172258 1_555
Li6 O6 2.212750 1_555
Mn0 O11 1.889607 1_555
Mn0 O0 1.944199 1_546
Mn0 O0 1.944199 1_456
Mn0 O7 1.954784 1_455
Mn0 O7 1.954784 1_545
Mn0 O2 2.073537 1_446
Mn1 O3 1.816541 1_555
Mn1 O6 1.953772 1_565
Mn1 O6 1.953772 1_655
Mn1 O1 1.966495 1_655
Mn1 O1 1.966495 1_565
Mn1 O10 2.162397 1_665
Mn2 O9 1.959882 1_545
Mn2 O9 1.959882 1_455
Mn2 O2 1.984417 1_455
Mn2 O2 1.984417 1_545
Mn2 O7 2.238908 1_554
Mn2 O5 2.254057 1_555
Mn3 O10 1.974531 1_565
Mn3 O10 1.974531 1_655
Mn3 O5 1.976658 1_655
Mn3 O5 1.976658 1_565
Mn3 O1 2.193610 1_555
Mn3 O9 2.264187 1_555
Co0 O8 1.782980 1_555
Co0 O4 1.984821 1_565
Co0 O4 1.984821 1_655
Co0 O11 2.082093 1_565
Co0 O11 2.082093 1_655
