# generated using pymatgen
data_MnCo5(BO5)2
_symmetry_space_group_name_H-M   'P 1'
_cell_length_a   3.05988800
_cell_length_b   9.31318200
_cell_length_c   12.52744400
_cell_angle_alpha   90.00000000
_cell_angle_beta   90.00000000
_cell_angle_gamma   90.00000000
_symmetry_Int_Tables_number   1
_chemical_formula_structural   MnCo5(BO5)2
_chemical_formula_sum   'Mn2 Co10 B4 O20'
_cell_volume   356.99825278
_cell_formula_units_Z   2
loop_
 _symmetry_equiv_pos_site_id
 _symmetry_equiv_pos_as_xyz
  1  'x, y, z'
loop_
 _atom_site_type_symbol
 _atom_site_label
 _atom_site_symmetry_multiplicity
 _atom_site_fract_x
 _atom_site_fract_y
 _atom_site_fract_z
 _atom_site_occupancy
  Mn  Mn0  1  0.00000000  0.00677400  0.61420600  1
  Mn  Mn1  1  0.00000000  0.99322600  0.11420600  1
  Co  Co0  1  0.50000000  0.25601500  0.22190700  1
  Co  Co1  1  0.50000000  0.24756800  0.78035300  1
  Co  Co2  1  0.50000000  0.75243200  0.28035300  1
  Co  Co3  1  0.50000000  0.74398500  0.72190700  1
  Co  Co4  1  0.50000000  0.25242400  0.49807800  1
  Co  Co5  1  0.50000000  0.74757600  0.99807800  1
  Co  Co6  1  0.00000000  0.74467800  0.49829100  1
  Co  Co7  1  0.00000000  0.25532200  0.99829100  1
  Co  Co8  1  0.00000000  0.49312400  0.38607200  1
  Co  Co9  1  0.00000000  0.50687600  0.88607200  1
  B  B0  1  0.00000000  0.52576100  0.13925500  1
  B  B1  1  0.00000000  0.97307700  0.86067200  1
  B  B2  1  0.00000000  0.02692300  0.36067200  1
  B  B3  1  0.00000000  0.47423900  0.63925500  1
  O  O0  1  0.50000000  0.63687700  0.42167400  1
  O  O1  1  0.50000000  0.86831200  0.57947200  1
  O  O2  1  0.50000000  0.13168800  0.07947200  1
  O  O3  1  0.50000000  0.36312300  0.92167400  1
  O  O4  1  0.50000000  0.36538100  0.35739200  1
  O  O5  1  0.50000000  0.13690900  0.64311100  1
  O  O6  1  0.50000000  0.86309100  0.14311100  1
  O  O7  1  0.50000000  0.63461900  0.85739200  1
  O  O8  1  0.00000000  0.60033200  0.23550000  1
  O  O9  1  0.00000000  0.89618900  0.76581400  1
  O  O10  1  0.00000000  0.10381100  0.26581400  1
  O  O11  1  0.00000000  0.39966800  0.73550000  1
  O  O12  1  0.00000000  0.37649700  0.13927900  1
  O  O13  1  0.00000000  0.12227400  0.85954800  1
  O  O14  1  0.00000000  0.87772600  0.35954800  1
  O  O15  1  0.00000000  0.62350300  0.63927900  1
  O  O16  1  0.00000000  0.39904700  0.54315200  1
  O  O17  1  0.00000000  0.10260100  0.45622300  1
  O  O18  1  0.00000000  0.89739900  0.95622300  1
  O  O19  1  0.00000000  0.60095300  0.04315200  1
loop_
_geom_bond_atom_site_label_1
_geom_bond_atom_site_label_2
_geom_bond_distance
_geom_bond_site_symmetry_2
Mn0 O5 1.985125 1_455
Mn0 O5 1.985125 1_555
Mn0 O1 2.047665 1_445
Mn0 O1 2.047665 1_545
Mn0 O9 2.160528 1_545
Mn0 O17 2.171037 1_555
Mn1 O6 1.985125 1_455
Mn1 O6 1.985125 1_555
Mn1 O2 2.047665 1_565
Mn1 O2 2.047665 1_465
Mn1 O10 2.160528 1_565
Mn1 O18 2.171037 1_554
Co0 O4 1.979444 1_555
Co0 O2 2.127106 1_555
Co0 O10 2.156987 1_555
Co0 O10 2.156987 1_655
Co0 O12 2.161305 1_655
Co0 O12 2.161305 1_555
Co1 O5 2.004513 1_555
Co1 O3 2.071825 1_555
Co1 O11 2.159404 1_555
Co1 O11 2.159404 1_655
Co1 O13 2.164864 1_555
Co1 O13 2.164864 1_655
Co2 O6 2.004513 1_555
Co2 O0 2.071825 1_555
Co2 O8 2.159404 1_555
Co2 O8 2.159404 1_655
Co2 O14 2.164864 1_555
Co2 O14 2.164864 1_655
Co3 O7 1.979444 1_555
Co3 O1 2.127106 1_555
Co3 O9 2.156987 1_555
Co3 O9 2.156987 1_655
Co3 O15 2.161305 1_555
Co3 O15 2.161305 1_655
Co4 O4 2.052526 1_555
Co4 O5 2.111509 1_555
Co4 O16 2.127025 1_655
Co4 O16 2.127025 1_555
Co4 O17 2.136024 1_655
Co4 O17 2.136024 1_555
Co5 O7 2.052526 1_555
Co5 O6 2.111509 1_556
Co5 O19 2.127025 1_556
Co5 O19 2.127025 1_656
Co5 O18 2.136024 1_655
Co5 O18 2.136024 1_555
Co6 O0 2.066381 1_455
Co6 O0 2.066381 1_555
Co6 O15 2.095972 1_555
Co6 O14 2.134559 1_555
Co6 O1 2.168128 1_455
Co6 O1 2.168128 1_555
Co7 O3 2.066381 1_455
Co7 O3 2.066381 1_555
Co7 O12 2.095972 1_556
Co7 O13 2.134559 1_555
Co7 O2 2.168128 1_556
Co7 O2 2.168128 1_456
Co8 O4 1.971088 1_555
Co8 O4 1.971088 1_455
Co8 O0 2.081352 1_455
Co8 O0 2.081352 1_555
Co8 O8 2.134235 1_555
Co8 O16 2.154050 1_555
Co9 O7 1.971088 1_555
Co9 O7 1.971088 1_455
Co9 O3 2.081352 1_455
Co9 O3 2.081352 1_555
Co9 O11 2.134235 1_555
Co9 O19 2.154050 1_556
B0 O12 1.390123 1_555
B0 O8 1.391418 1_555
B0 O19 1.392775 1_555
B1 O9 1.387402 1_555
B1 O18 1.389093 1_555
B1 O13 1.389570 1_565
B2 O10 1.387402 1_555
B2 O17 1.389093 1_555
B2 O14 1.389570 1_545
B3 O15 1.390123 1_555
B3 O11 1.391418 1_555
B3 O16 1.392775 1_555
