# generated using pymatgen
data_Na2MnCoNiO6
_symmetry_space_group_name_H-M   'P 1'
_cell_length_a   7.16595127
_cell_length_b   7.16595127
_cell_length_c   6.63987326
_cell_angle_alpha   68.94621922
_cell_angle_beta   68.94621922
_cell_angle_gamma   23.52041931
_symmetry_Int_Tables_number   1
_chemical_formula_structural   Na2MnCoNiO6
_chemical_formula_sum   'Na2 Mn1 Co1 Ni1 O6'
_cell_volume   126.57819664
_cell_formula_units_Z   1
loop_
 _symmetry_equiv_pos_site_id
 _symmetry_equiv_pos_as_xyz
  1  'x, y, z'
loop_
 _atom_site_type_symbol
 _atom_site_label
 _atom_site_symmetry_multiplicity
 _atom_site_fract_x
 _atom_site_fract_y
 _atom_site_fract_z
 _atom_site_occupancy
  Na  Na0  1  0.45128600  0.45128600  0.61167000  1
  Na  Na1  1  0.20994900  0.20994900  0.06065300  1
  Mn  Mn0  1  0.33335600  0.33335600  0.33634400  1
  Co  Co0  1  0.66143600  0.66143600  0.66036900  1
  Ni  Ni0  1  0.99884600  0.99884600  0.00565800  1
  O  O0  1  0.40249500  0.40249500  0.02263900  1
  O  O1  1  0.06891900  0.06891900  0.66410000  1
  O  O2  1  0.74267400  0.74267400  0.32135800  1
  O  O3  1  0.26387400  0.26387400  0.64698300  1
  O  O4  1  0.92192300  0.92192300  0.34780000  1
  O  O5  1  0.59375100  0.59375100  0.98909400  1
loop_
_geom_bond_atom_site_label_1
_geom_bond_atom_site_label_2
_geom_bond_distance
_geom_bond_site_symmetry_2
Na0 O1 2.323845 1_565
Na0 O1 2.323845 1_655
Na0 O4 2.429483 1_545
Na0 O4 2.429483 1_455
Na0 O3 2.552885 1_555
Na0 O0 2.558111 1_556
Na1 O5 2.363386 1_454
Na1 O5 2.363386 1_544
Na1 O2 2.433898 1_545
Na1 O2 2.433898 1_455
Na1 O3 2.567436 1_554
Na1 O0 2.619549 1_555
Mn0 O3 1.931070 1_555
Mn0 O4 1.937164 1_455
Mn0 O4 1.937164 1_545
Mn0 O0 1.948552 1_555
Mn0 O2 1.963389 1_455
Mn0 O2 1.963389 1_545
Co0 O1 1.948147 1_655
Co0 O1 1.948147 1_565
Co0 O3 2.028099 1_655
Co0 O3 2.028099 1_565
Co0 O5 2.035874 1_555
Co0 O2 2.117357 1_555
Ni0 O5 1.952175 1_564
Ni0 O5 1.952175 1_654
Ni0 O0 1.965112 1_655
Ni0 O0 1.965112 1_565
Ni0 O1 2.115094 1_664
Ni0 O4 2.127539 1_555
