# generated using pymatgen
data_Zr2Ni12P7
_symmetry_space_group_name_H-M   'P 1'
_cell_length_a   8.93416298
_cell_length_b   8.93433634
_cell_length_c   3.56731830
_cell_angle_alpha   90.00000288
_cell_angle_beta   89.99999567
_cell_angle_gamma   119.99435587
_symmetry_Int_Tables_number   1
_chemical_formula_structural   Zr2Ni12P7
_chemical_formula_sum   'Zr2 Ni12 P7'
_cell_volume   246.61151959
_cell_formula_units_Z   1
loop_
 _symmetry_equiv_pos_site_id
 _symmetry_equiv_pos_as_xyz
  1  'x, y, z'
loop_
 _atom_site_type_symbol
 _atom_site_label
 _atom_site_symmetry_multiplicity
 _atom_site_fract_x
 _atom_site_fract_y
 _atom_site_fract_z
 _atom_site_occupancy
  Zr  Zr0  1  -0.00000081  -0.00002092  0.00000005  1
  Zr  Zr1  1  0.33336197  0.66665837  0.50000001  1
  Ni  Ni0  1  0.29529520  0.39526372  -0.00000004  1
  Ni  Ni1  1  0.88596680  0.46063553  0.50000016  1
  Ni  Ni2  1  0.09995626  0.70475877  0.00000007  1
  Ni  Ni3  1  0.53941639  0.42515667  0.50000009  1
  Ni  Ni4  1  0.39046851  0.17661622  -0.00000053  1
  Ni  Ni5  1  0.78607445  0.60949482  -0.00000001  1
  Ni  Ni6  1  0.82338518  0.21391367  0.00000025  1
  Ni  Ni7  1  0.23143242  0.94634657  0.49999977  1
  Ni  Ni8  1  0.05365076  0.28504962  0.50000001  1
  Ni  Ni9  1  0.71491220  0.76857964  0.50000013  1
  Ni  Ni10  1  0.57471328  0.11407887  0.49999991  1
  Ni  Ni11  1  0.60475388  0.90008287  0.00000021  1
  P  P0  1  0.66664865  0.33333354  0.00000001  1
  P  P1  1  0.07911745  0.45134869  -0.00000006  1
  P  P2  1  0.25669998  0.21462865  0.49999975  1
  P  P3  1  0.78538981  0.04209088  0.50000021  1
  P  P4  1  0.95789756  0.74327421  0.50000000  1
  P  P5  1  0.54865887  0.62782363  0.00000007  1
  P  P6  1  0.37219819  0.92088598  -0.00000006  1
loop_
_geom_bond_atom_site_label_1
_geom_bond_atom_site_label_2
_geom_bond_distance
_geom_bond_site_symmetry_2
Ni0 P5 2.176822 1_555
Ni0 P1 2.224606 1_555
Ni0 P2 2.312677 1_555
Ni0 P2 2.312678 1_554
Ni0 Zr1 2.889970 1_554
Ni0 Zr1 2.889970 1_555
Ni0 Zr0 3.180705 1_555
Ni1 P4 2.273115 1_555
Ni1 P0 2.467018 1_556
Ni1 P0 2.467019 1_555
Ni1 P1 2.511834 1_656
Ni1 P1 2.511835 1_655
Ni2 P1 2.176958 1_555
Ni2 P6 2.224561 1_555
Ni2 P4 2.312427 1_455
Ni2 P4 2.312427 1_454
Ni2 Zr1 2.890578 1_555
Ni2 Zr1 2.890578 1_554
Ni2 Zr0 3.179542 1_565
Ni3 P2 2.273242 1_555
Ni3 P0 2.465554 1_556
Ni3 P0 2.465554 1_555
Ni3 P5 2.513440 1_556
Ni3 P5 2.513441 1_555
Ni4 P0 2.143474 1_555
Ni4 P6 2.207710 1_545
Ni4 P2 2.265143 1_554
Ni4 P2 2.265144 1_555
Ni4 Zr0 3.025863 1_555
Ni5 P0 2.143357 1_555
Ni5 P5 2.207534 1_555
Ni5 P4 2.265404 1_554
Ni5 P4 2.265404 1_555
Ni5 Zr0 3.026111 1_665
Ni6 P0 2.143131 1_555
Ni6 P1 2.207768 1_655
Ni6 P3 2.265448 1_555
Ni6 P3 2.265448 1_554
Ni6 Zr0 3.026301 1_655
Ni7 P4 2.197919 1_455
Ni7 P6 2.258501 1_555
Ni7 P6 2.258502 1_556
Ni7 P2 2.292422 1_565
Ni7 Zr0 2.945652 1_565
Ni7 Zr0 2.945653 1_566
Ni7 Zr1 3.057551 1_555
Ni8 P2 2.197242 1_555
Ni8 P1 2.258923 1_556
Ni8 P1 2.258924 1_555
Ni8 P3 2.292247 1_455
Ni8 Zr0 2.945738 1_555
Ni8 Zr0 2.945738 1_556
Ni8 Zr1 3.057849 1_555
Ni9 P3 2.197602 1_565
Ni9 P5 2.258658 1_556
Ni9 P5 2.258659 1_555
Ni9 P4 2.292274 1_555
Ni9 Zr0 2.945855 1_666
Ni9 Zr0 2.945856 1_665
Ni9 Zr1 3.057086 1_555
Ni10 P3 2.273055 1_555
Ni10 P0 2.466709 1_555
Ni10 P0 2.466710 1_556
Ni10 P6 2.512340 1_545
Ni10 P6 2.512340 1_546
Ni11 P6 2.176566 1_555
Ni11 P5 2.224670 1_555
Ni11 P3 2.312664 1_564
Ni11 P3 2.312664 1_565
Ni11 Zr1 2.890319 1_555
Ni11 Zr1 2.890320 1_554
Ni11 Zr0 3.180373 1_665
P1 Zr1 2.769956 1_554
P1 Zr1 2.769956 1_555
P2 Zr0 2.778757 1_555
P2 Zr0 2.778758 1_556
P3 Zr0 2.778581 1_656
P3 Zr0 2.778581 1_655
P4 Zr0 2.778575 1_665
P4 Zr0 2.778575 1_666
P5 Zr1 2.769284 1_555
P5 Zr1 2.769284 1_554
P6 Zr1 2.770004 1_554
P6 Zr1 2.770005 1_555
