# generated using pymatgen
data_Fe3P4H12(NO8)2
_symmetry_space_group_name_H-M   'P 1'
_cell_length_a   8.34681900
_cell_length_b   9.49482756
_cell_length_c   9.48248942
_cell_angle_alpha   99.73883947
_cell_angle_beta   90.00000000
_cell_angle_gamma   90.00000000
_symmetry_Int_Tables_number   1
_chemical_formula_structural   Fe3P4H12(NO8)2
_chemical_formula_sum   'Fe6 P8 H24 N4 O32'
_cell_volume   740.67264358
_cell_formula_units_Z   2
loop_
 _symmetry_equiv_pos_site_id
 _symmetry_equiv_pos_as_xyz
  1  'x, y, z'
loop_
 _atom_site_type_symbol
 _atom_site_label
 _atom_site_symmetry_multiplicity
 _atom_site_fract_x
 _atom_site_fract_y
 _atom_site_fract_z
 _atom_site_occupancy
  Fe  Fe0  1  0.36091800  0.13088600  0.99534000  1
  Fe  Fe1  1  0.86091800  0.86911400  0.50466000  1
  Fe  Fe2  1  0.63908200  0.86911400  0.00466000  1
  Fe  Fe3  1  0.13908200  0.13088600  0.49534000  1
  Fe  Fe4  1  0.00000000  0.00000000  0.00000000  1
  Fe  Fe5  1  0.50000000  0.00000000  0.50000000  1
  P  P0  1  0.79916200  0.09404400  0.29002400  1
  P  P1  1  0.29916200  0.90595600  0.20997600  1
  P  P2  1  0.20083800  0.90595600  0.70997600  1
  P  P3  1  0.70083800  0.09404400  0.79002400  1
  P  P4  1  0.05237400  0.29711500  0.23492000  1
  P  P5  1  0.55237400  0.70288500  0.26508000  1
  P  P6  1  0.94762600  0.70288500  0.76508000  1
  P  P7  1  0.44762600  0.29711500  0.73492000  1
  H  H0  1  0.52889200  0.21353600  0.23838600  1
  H  H1  1  0.02889200  0.78646400  0.26161400  1
  H  H2  1  0.47110800  0.78646400  0.76161400  1
  H  H3  1  0.97110800  0.21353600  0.73838600  1
  H  H4  1  0.48204500  0.36706500  0.20155800  1
  H  H5  1  0.98204500  0.63293500  0.29844200  1
  H  H6  1  0.51795500  0.63293500  0.79844200  1
  H  H7  1  0.01795500  0.36706500  0.70155800  1
  H  H8  1  0.71127900  0.54157500  0.05324700  1
  H  H9  1  0.21127900  0.45842500  0.44675300  1
  H  H10  1  0.28872100  0.45842500  0.94675300  1
  H  H11  1  0.78872100  0.54157500  0.55324700  1
  H  H12  1  0.70968000  0.35817700  0.00843500  1
  H  H13  1  0.20968000  0.64182300  0.49156500  1
  H  H14  1  0.29032000  0.64182300  0.99156500  1
  H  H15  1  0.79032000  0.35817700  0.50843500  1
  H  H16  1  0.82329000  0.45831600  0.91430200  1
  H  H17  1  0.32329000  0.54168400  0.58569800  1
  H  H18  1  0.17671000  0.54168400  0.08569800  1
  H  H19  1  0.67671000  0.45831600  0.41430200  1
  H  H20  1  0.87456400  0.44391000  0.08425000  1
  H  H21  1  0.37456400  0.55609000  0.41575000  1
  H  H22  1  0.12543600  0.55609000  0.91575000  1
  H  H23  1  0.62543600  0.44391000  0.58425000  1
  N  N0  1  0.77785000  0.44850300  0.01366700  1
  N  N1  1  0.27785000  0.55149700  0.48633300  1
  N  N2  1  0.22215000  0.55149700  0.98633300  1
  N  N3  1  0.72215000  0.44850300  0.51366700  1
  O  O0  1  0.14436700  0.29843800  0.37526400  1
  O  O1  1  0.64436700  0.70156200  0.12473600  1
  O  O2  1  0.85563300  0.70156200  0.62473600  1
  O  O3  1  0.35563300  0.29843800  0.87526400  1
  O  O4  1  0.86731100  0.24915000  0.26484900  1
  O  O5  1  0.36731100  0.75085000  0.23515100  1
  O  O6  1  0.13268900  0.75085000  0.73515100  1
  O  O7  1  0.63268900  0.24915000  0.76484900  1
  O  O8  1  0.63362500  0.12585300  0.35662700  1
  O  O9  1  0.13362500  0.87414700  0.14337300  1
  O  O10  1  0.36637500  0.87414700  0.64337300  1
  O  O11  1  0.86637500  0.12585300  0.85662700  1
  O  O12  1  0.79644200  0.00164700  0.13959100  1
  O  O13  1  0.29644200  0.99835300  0.36040900  1
  O  O14  1  0.20355800  0.99835300  0.86040900  1
  O  O15  1  0.70355800  0.00164700  0.63959100  1
  O  O16  1  0.11670100  0.18730900  0.10958700  1
  O  O17  1  0.61670100  0.81269100  0.39041300  1
  O  O18  1  0.88329900  0.81269100  0.89041300  1
  O  O19  1  0.38329900  0.18730900  0.60958700  1
  O  O20  1  0.91895900  0.03886400  0.39058100  1
  O  O21  1  0.41895900  0.96113600  0.10941900  1
  O  O22  1  0.08104100  0.96113600  0.60941900  1
  O  O23  1  0.58104100  0.03886400  0.89058100  1
  O  O24  1  0.03169800  0.44782900  0.20063700  1
  O  O25  1  0.53169800  0.55217100  0.29936300  1
  O  O26  1  0.96830200  0.55217100  0.79936300  1
  O  O27  1  0.46830200  0.44782900  0.70063700  1
  O  O28  1  0.48822700  0.26435700  0.16115000  1
  O  O29  1  0.98822700  0.73564300  0.33885000  1
  O  O30  1  0.51177300  0.73564300  0.83885000  1
  O  O31  1  0.01177300  0.26435700  0.66115000  1
loop_
_geom_bond_atom_site_label_1
_geom_bond_atom_site_label_2
_geom_bond_distance
_geom_bond_site_symmetry_2
Fe0 O14 2.097866 1_545
Fe0 O3 2.107633 1_555
Fe0 O28 2.129126 1_556
Fe0 O21 2.143006 1_546
Fe0 O23 2.198258 1_555
Fe0 O16 2.327984 1_556
Fe1 O15 2.097866 1_565
Fe1 O2 2.107633 1_555
Fe1 O29 2.129126 1_555
Fe1 O20 2.143006 1_565
Fe1 O22 2.198258 1_655
Fe1 O17 2.327984 1_555
Fe2 O12 2.097866 1_565
Fe2 O1 2.107633 1_555
Fe2 O30 2.129126 1_554
Fe2 O23 2.143006 1_564
Fe2 O21 2.198258 1_555
Fe2 O18 2.327984 1_554
Fe3 O13 2.097866 1_545
Fe3 O0 2.107633 1_555
Fe3 O31 2.129126 1_555
Fe3 O22 2.143006 1_545
Fe3 O20 2.198258 1_455
Fe3 O19 2.327984 1_555
Fe4 O18 2.136910 1_444
Fe4 O16 2.136910 1_555
Fe4 O12 2.152244 1_455
Fe4 O14 2.152244 1_544
Fe4 O9 2.251633 1_545
Fe4 O11 2.251633 1_454
Fe5 O17 2.136910 1_545
Fe5 O19 2.136910 1_555
Fe5 O15 2.152244 1_555
Fe5 O13 2.152244 1_545
Fe5 O8 2.251633 1_555
Fe5 O10 2.251633 1_545
H0 O28 1.002001 1_555
H0 O8 1.740762 1_555
H1 O29 1.002001 1_455
H1 O9 1.740762 1_555
H2 O30 1.002001 1_555
H2 O10 1.740762 1_555
H3 O31 1.002001 1_655
H3 O11 1.740762 1_555
H4 O28 0.986949 1_555
H5 O29 0.986949 1_555
H6 O30 0.986949 1_555
H7 O31 0.986949 1_555
H8 N0 1.057515 1_555
H8 O1 1.652451 1_555
H9 N1 1.057515 1_555
H9 O0 1.652451 1_555
H10 N2 1.057515 1_555
H10 O3 1.652451 1_555
H11 N3 1.057515 1_555
H11 O2 1.652451 1_555
H12 N0 1.023406 1_555
H13 N1 1.023406 1_555
H14 N2 1.023406 1_555
H15 N3 1.023406 1_555
H16 N0 1.034421 1_556
H17 N1 1.034421 1_555
H18 N2 1.034421 1_554
H19 N3 1.034421 1_555
H20 N0 1.054230 1_555
H20 O24 1.710474 1_655
H21 N1 1.054230 1_555
H21 O25 1.710474 1_555
H22 N2 1.054230 1_555
H22 O26 1.710474 1_455
H23 N3 1.054230 1_555
H23 O27 1.710474 1_555
O0 P4 1.534650 1_555
O1 P5 1.534650 1_555
O2 P6 1.534650 1_555
O3 P7 1.534650 1_555
O4 P0 1.633509 1_555
O4 P4 1.648556 1_655
O5 P1 1.633509 1_555
O5 P5 1.648556 1_555
O6 P2 1.633509 1_555
O6 P6 1.648556 1_455
O7 P3 1.633509 1_555
O7 P7 1.648556 1_555
O8 P0 1.527963 1_555
O9 P1 1.527963 1_555
O10 P2 1.527963 1_555
O11 P3 1.527963 1_555
O12 P0 1.543250 1_555
O13 P1 1.543250 1_555
O14 P2 1.543250 1_555
O15 P3 1.543250 1_555
O16 P4 1.539006 1_555
O17 P5 1.539006 1_555
O18 P6 1.539006 1_555
O19 P7 1.539006 1_555
O20 P0 1.533812 1_555
O21 P1 1.533812 1_555
O22 P2 1.533812 1_555
O23 P3 1.533812 1_555
O24 P4 1.529909 1_555
O25 P5 1.529909 1_555
O26 P6 1.529909 1_555
O27 P7 1.529909 1_555
