# generated using pymatgen
data_LiMg6B
_symmetry_space_group_name_H-M   'P 1'
_cell_length_a   4.57649400
_cell_length_b   6.47394100
_cell_length_c   10.48658900
_cell_angle_alpha   90.00000000
_cell_angle_beta   90.00000000
_cell_angle_gamma   90.00000000
_symmetry_Int_Tables_number   1
_chemical_formula_structural   LiMg6B
_chemical_formula_sum   'Li2 Mg12 B2'
_cell_volume   310.69615703
_cell_formula_units_Z   2
loop_
 _symmetry_equiv_pos_site_id
 _symmetry_equiv_pos_as_xyz
  1  'x, y, z'
loop_
 _atom_site_type_symbol
 _atom_site_label
 _atom_site_symmetry_multiplicity
 _atom_site_fract_x
 _atom_site_fract_y
 _atom_site_fract_z
 _atom_site_occupancy
  Li  Li0  1  0.00000000  0.50000000  0.33011300  1
  Li  Li1  1  0.00000000  0.00000000  0.83011300  1
  Mg  Mg0  1  0.00000000  0.27909400  0.09847100  1
  Mg  Mg1  1  0.00000000  0.72090600  0.09847100  1
  Mg  Mg2  1  0.00000000  0.50000000  0.83852500  1
  Mg  Mg3  1  0.50000000  0.23318500  0.89480400  1
  Mg  Mg4  1  0.50000000  0.76681500  0.89480400  1
  Mg  Mg5  1  0.50000000  0.50000000  0.65545200  1
  Mg  Mg6  1  0.00000000  0.77909400  0.59847100  1
  Mg  Mg7  1  0.00000000  0.22090600  0.59847100  1
  Mg  Mg8  1  0.00000000  0.00000000  0.33852500  1
  Mg  Mg9  1  0.50000000  0.73318500  0.39480400  1
  Mg  Mg10  1  0.50000000  0.26681500  0.39480400  1
  Mg  Mg11  1  0.50000000  0.00000000  0.15545200  1
  B  B0  1  0.50000000  0.50000000  0.18936000  1
  B  B1  1  0.50000000  0.00000000  0.68936000  1
loop_
_geom_bond_atom_site_label_1
_geom_bond_atom_site_label_2
_geom_bond_distance
_geom_bond_site_symmetry_2
Li0 Mg0 2.818860 1_555
Li0 Mg1 2.818860 1_555
Li0 Mg10 2.824049 1_455
Li0 Mg9 2.824049 1_555
Li0 Mg10 2.824049 1_555
Li0 Mg9 2.824049 1_455
Li0 Mg8 3.238172 1_565
Li0 Mg8 3.238172 1_555
Li1 Mg7 2.818860 1_555
Li1 Mg6 2.818860 1_545
Li1 Mg3 2.824049 1_455
Li1 Mg4 2.824049 1_445
Li1 Mg3 2.824049 1_555
Li1 Mg4 2.824049 1_545
Li1 Mg2 3.238172 1_545
Li1 Mg2 3.238172 1_555
Mg0 Mg11 2.976204 1_555
Mg0 Mg11 2.976204 1_455
Mg0 Mg2 3.078322 1_554
Mg0 Mg8 3.098661 1_555
Mg1 Mg11 2.976204 1_465
Mg1 Mg11 2.976204 1_565
Mg1 Mg2 3.078322 1_554
Mg1 Mg8 3.098661 1_565
Mg2 Mg3 2.927132 1_555
Mg2 Mg4 2.927132 1_555
Mg2 Mg3 2.927132 1_455
Mg2 Mg4 2.927132 1_455
Mg2 Mg5 2.986930 1_455
Mg2 Mg5 2.986930 1_555
Mg2 Mg6 3.098661 1_555
Mg2 Mg7 3.098661 1_555
Mg3 Mg5 3.046925 1_555
Mg4 Mg5 3.046925 1_555
Mg5 Mg6 2.976204 1_655
Mg5 Mg6 2.976204 1_555
Mg5 Mg7 2.976204 1_555
Mg5 Mg7 2.976204 1_655
Mg5 Mg9 3.122490 1_555
Mg6 Mg8 3.078322 1_565
Mg7 Mg8 3.078322 1_555
Mg8 Mg9 2.927132 1_445
Mg8 Mg9 2.927132 1_545
Mg10 Mg8 2.927132 1_555
Mg10 Mg8 2.927132 1_655
Mg10 Mg11 3.046925 1_555
Mg10 Mg5 3.122490 1_555
Mg11 Mg8 2.986930 1_655
Mg11 Mg8 2.986930 1_555
Mg11 Mg9 3.046925 1_545
Mg11 Mg4 3.122490 1_544
Mg11 Mg3 3.122490 1_554
B0 Mg10 2.630673 1_555
B0 Mg9 2.630673 1_555
B0 Li0 2.722996 1_555
B0 Li0 2.722996 1_655
B0 Mg0 2.861780 1_555
B0 Mg0 2.861780 1_655
B0 Mg1 2.861780 1_555
B0 Mg1 2.861780 1_655
B1 Mg4 2.630673 1_545
B1 Mg3 2.630673 1_555
B1 Li1 2.722996 1_555
B1 Li1 2.722996 1_655
B1 Mg6 2.861780 1_545
B1 Mg6 2.861780 1_645
B1 Mg7 2.861780 1_555
B1 Mg7 2.861780 1_655
