# generated using pymatgen
data_LaNiSb2
_symmetry_space_group_name_H-M   'P 1'
_cell_length_a   4.42768468
_cell_length_b   4.42768468
_cell_length_c   10.05425152
_cell_angle_alpha   90.00000000
_cell_angle_beta   90.00000000
_cell_angle_gamma   90.00000000
_symmetry_Int_Tables_number   1
_chemical_formula_structural   LaNiSb2
_chemical_formula_sum   'La2 Ni2 Sb4'
_cell_volume   197.10748430
_cell_formula_units_Z   2
loop_
 _symmetry_equiv_pos_site_id
 _symmetry_equiv_pos_as_xyz
  1  'x, y, z'
loop_
 _atom_site_type_symbol
 _atom_site_label
 _atom_site_symmetry_multiplicity
 _atom_site_fract_x
 _atom_site_fract_y
 _atom_site_fract_z
 _atom_site_occupancy
  La  La0  1  -0.00000000  0.50000000  0.74291055  1
  La  La1  1  0.50000000  -0.00000000  0.25708945  1
  Ni  Ni0  1  0.50000000  0.50000000  0.50000000  1
  Ni  Ni1  1  -0.00000000  -0.00000000  0.50000000  1
  Sb  Sb0  1  0.50000000  0.50000000  0.00000000  1
  Sb  Sb1  1  0.00000000  0.00000000  0.00000000  1
  Sb  Sb2  1  -0.00000000  0.50000000  0.37650692  1
  Sb  Sb3  1  0.50000000  0.00000000  0.62349308  1
loop_
_geom_bond_atom_site_label_1
_geom_bond_atom_site_label_2
_geom_bond_distance
_geom_bond_site_symmetry_2
La0 Ni0 3.296339 1_555
La0 Ni1 3.296339 1_555
La0 Ni1 3.296339 1_565
La0 Ni0 3.296339 1_455
La0 Sb3 3.353172 1_555
La0 Sb3 3.353172 1_565
La0 Sb3 3.353172 1_455
La0 Sb3 3.353172 1_465
La0 Sb0 3.403308 1_556
La0 Sb1 3.403308 1_556
La0 Sb0 3.403308 1_456
La0 Sb1 3.403308 1_566
La1 Ni0 3.296339 1_545
La1 Ni1 3.296339 1_555
La1 Ni1 3.296339 1_655
La1 Ni0 3.296339 1_555
La1 Sb2 3.353172 1_655
La1 Sb2 3.353172 1_645
La1 Sb2 3.353172 1_545
La1 Sb2 3.353172 1_555
La1 Sb0 3.403308 1_545
La1 Sb1 3.403308 1_655
La1 Sb1 3.403308 1_555
La1 Sb0 3.403308 1_555
Ni0 Sb2 2.538256 1_555
Ni0 Sb2 2.538256 1_655
Ni0 Sb3 2.538256 1_565
Ni0 Sb3 2.538256 1_555
Ni1 Sb2 2.538256 1_555
Ni1 Sb2 2.538256 1_545
Ni1 Sb3 2.538256 1_455
Ni1 Sb3 2.538256 1_555
Sb0 Sb1 3.130846 1_565
Sb0 Sb1 3.130846 1_655
Sb0 Sb1 3.130846 1_555
Sb0 Sb1 3.130846 1_665
