# generated using pymatgen
data_CsV2SbO8
_symmetry_space_group_name_H-M   'P 1'
_cell_length_a   17.10545100
_cell_length_b   5.70986000
_cell_length_c   10.33904674
_cell_angle_alpha   57.05574773
_cell_angle_beta   90.00000000
_cell_angle_gamma   90.00000000
_symmetry_Int_Tables_number   1
_chemical_formula_structural   CsV2SbO8
_chemical_formula_sum   'Cs4 V8 Sb4 O32'
_cell_volume   847.43424864
_cell_formula_units_Z   4
loop_
 _symmetry_equiv_pos_site_id
 _symmetry_equiv_pos_as_xyz
  1  'x, y, z'
loop_
 _atom_site_type_symbol
 _atom_site_label
 _atom_site_symmetry_multiplicity
 _atom_site_fract_x
 _atom_site_fract_y
 _atom_site_fract_z
 _atom_site_occupancy
  Cs  Cs0  1  0.71789800  0.26681500  0.49557500  1
  Cs  Cs1  1  0.78210200  0.26681500  0.99557500  1
  Cs  Cs2  1  0.28210200  0.73318500  0.50442500  1
  Cs  Cs3  1  0.21789800  0.73318500  0.00442500  1
  V  V0  1  0.60703700  0.79688800  0.95827700  1
  V  V1  1  0.89296300  0.79688800  0.45827700  1
  V  V2  1  0.39296300  0.20311200  0.04172300  1
  V  V3  1  0.10703700  0.20311200  0.54172300  1
  V  V4  1  0.57481800  0.90480000  0.36425300  1
  V  V5  1  0.92518200  0.90480000  0.86425300  1
  V  V6  1  0.42518200  0.09520000  0.63574700  1
  V  V7  1  0.07481800  0.09520000  0.13574700  1
  Sb  Sb0  1  0.54745900  0.48264300  0.75876500  1
  Sb  Sb1  1  0.95254100  0.48264300  0.25876500  1
  Sb  Sb2  1  0.45254100  0.51735700  0.24123500  1
  Sb  Sb3  1  0.04745900  0.51735700  0.74123500  1
  O  O0  1  0.51405200  0.71165800  0.04501300  1
  O  O1  1  0.98594800  0.71165800  0.54501300  1
  O  O2  1  0.48594800  0.28834200  0.95498700  1
  O  O3  1  0.01405200  0.28834200  0.45498700  1
  O  O4  1  0.61501100  0.66952400  0.83317000  1
  O  O5  1  0.88498900  0.66952400  0.33317000  1
  O  O6  1  0.38498900  0.33047600  0.16683000  1
  O  O7  1  0.11501100  0.33047600  0.66683000  1
  O  O8  1  0.62458100  0.16933100  0.85033000  1
  O  O9  1  0.87541900  0.16933100  0.35033000  1
  O  O10  1  0.37541900  0.83066900  0.14967000  1
  O  O11  1  0.12458100  0.83066900  0.64967000  1
  O  O12  1  0.67901300  0.65784200  0.08314200  1
  O  O13  1  0.82098700  0.65784200  0.58314200  1
  O  O14  1  0.32098700  0.34215800  0.91685800  1
  O  O15  1  0.17901300  0.34215800  0.41685800  1
  O  O16  1  0.50958900  0.72328100  0.31851800  1
  O  O17  1  0.99041100  0.72328100  0.81851800  1
  O  O18  1  0.49041100  0.27671900  0.68148200  1
  O  O19  1  0.00958900  0.27671900  0.18148200  1
  O  O20  1  0.53301100  0.21668700  0.33345700  1
  O  O21  1  0.96698900  0.21668700  0.83345700  1
  O  O22  1  0.46698900  0.78331300  0.66654300  1
  O  O23  1  0.03301100  0.78331300  0.16654300  1
  O  O24  1  0.60712900  0.68369500  0.56168700  1
  O  O25  1  0.89287100  0.68369500  0.06168700  1
  O  O26  1  0.39287100  0.31630500  0.43831300  1
  O  O27  1  0.10712900  0.31630500  0.93831300  1
  O  O28  1  0.65609200  0.98042300  0.26399100  1
  O  O29  1  0.84390800  0.98042300  0.76399100  1
  O  O30  1  0.34390800  0.01957700  0.73600900  1
  O  O31  1  0.15609200  0.01957700  0.23600900  1
loop_
_geom_bond_atom_site_label_1
_geom_bond_atom_site_label_2
_geom_bond_distance
_geom_bond_site_symmetry_2
Cs0 O29 3.175808 1_545
Cs0 O9 3.276309 1_555
Cs0 O13 3.333581 1_555
Cs0 O24 3.390119 1_555
Cs0 O5 3.475121 1_555
Cs0 O13 3.549055 1_545
Cs0 O24 3.559183 1_545
Cs0 O28 3.583561 1_555
Cs0 O12 3.640800 1_555
Cs0 O20 3.662659 1_555
Cs0 O28 3.712586 1_545
Cs0 O4 3.736882 1_545
Cs0 O8 3.753694 1_555
Cs1 O28 3.175808 1_546
Cs1 O8 3.276309 1_555
Cs1 O12 3.333581 1_556
Cs1 O25 3.390119 1_556
Cs1 O4 3.475121 1_555
Cs1 O12 3.549055 1_546
Cs1 O25 3.559183 1_546
Cs1 O29 3.583561 1_555
Cs1 O13 3.640800 1_555
Cs1 O21 3.662659 1_555
Cs1 O29 3.712586 1_545
Cs1 O5 3.736882 1_546
Cs1 O9 3.753694 1_556
Cs2 O31 3.175808 1_565
Cs2 O11 3.276309 1_555
Cs2 O15 3.333581 1_555
Cs2 O26 3.390119 1_555
Cs2 O7 3.475121 1_555
Cs2 O15 3.549055 1_565
Cs2 O26 3.559183 1_565
Cs2 O30 3.583561 1_555
Cs2 O14 3.640800 1_555
Cs2 O22 3.662659 1_555
Cs2 O30 3.712586 1_565
Cs2 O6 3.736882 1_565
Cs2 O10 3.753694 1_555
Cs3 O30 3.175808 1_564
Cs3 O10 3.276309 1_555
Cs3 O14 3.333581 1_554
Cs3 O27 3.390119 1_554
Cs3 O6 3.475121 1_555
Cs3 O14 3.549055 1_564
Cs3 O27 3.559183 1_564
Cs3 O31 3.583561 1_555
Cs3 O15 3.640800 1_555
Cs3 O23 3.662659 1_555
Cs3 O31 3.712586 1_565
Cs3 O7 3.736882 1_564
Cs3 O11 3.753694 1_554
O0 V0 1.759605 1_554
O0 Sb2 2.001425 1_555
O1 V1 1.759605 1_555
O1 Sb3 2.001425 1_655
O2 V2 1.759605 1_556
O2 Sb0 2.001425 1_555
O3 V3 1.759605 1_555
O3 Sb1 2.001425 1_455
O4 V0 1.801024 1_555
O4 Sb0 1.989579 1_555
O5 V1 1.801024 1_555
O5 Sb1 1.989579 1_555
O6 V2 1.801024 1_555
O6 Sb2 1.989579 1_555
O7 V3 1.801024 1_555
O7 Sb3 1.989579 1_555
O8 V0 1.810148 1_545
O8 Sb0 1.998724 1_555
O9 V1 1.810148 1_545
O9 Sb1 1.998724 1_555
O10 V2 1.810148 1_565
O10 Sb2 1.998724 1_555
O11 V3 1.810148 1_565
O11 Sb3 1.998724 1_555
O12 V0 1.642557 1_554
O13 V1 1.642557 1_555
O14 V2 1.642557 1_556
O15 V3 1.642557 1_555
O16 V4 1.753798 1_555
O16 Sb2 1.998760 1_555
O17 V5 1.753798 1_555
O17 Sb3 1.998760 1_655
O18 V6 1.753798 1_555
O18 Sb0 1.998760 1_555
O19 V7 1.753798 1_555
O19 Sb1 1.998760 1_455
O20 V4 1.779728 1_545
O20 Sb2 1.992679 1_555
O21 V5 1.779728 1_545
O21 Sb3 1.992679 1_655
O22 V6 1.779728 1_565
O22 Sb0 1.992679 1_555
O23 V7 1.779728 1_565
O23 Sb1 1.992679 1_455
O24 V4 1.806434 1_555
O24 Sb0 1.991814 1_555
O25 V5 1.806434 1_554
O25 Sb1 1.991814 1_555
O26 V6 1.806434 1_555
O26 Sb2 1.991814 1_555
O27 V7 1.806434 1_556
O27 Sb3 1.991814 1_555
O28 V4 1.645270 1_555
O29 V5 1.645270 1_555
O30 V6 1.645270 1_555
O31 V7 1.645270 1_555
