# generated using pymatgen
data_Ho3Ni2
_symmetry_space_group_name_H-M   'P 1'
_cell_length_a   6.81923710
_cell_length_b   6.81923710
_cell_length_c   9.49925456
_cell_angle_alpha   75.57300230
_cell_angle_beta   75.57300230
_cell_angle_gamma   30.68116910
_symmetry_Int_Tables_number   1
_chemical_formula_structural   Ho3Ni2
_chemical_formula_sum   'Ho6 Ni4'
_cell_volume   217.74738976
_cell_formula_units_Z   2
loop_
 _symmetry_equiv_pos_site_id
 _symmetry_equiv_pos_as_xyz
  1  'x, y, z'
loop_
 _atom_site_type_symbol
 _atom_site_label
 _atom_site_symmetry_multiplicity
 _atom_site_fract_x
 _atom_site_fract_y
 _atom_site_fract_z
 _atom_site_occupancy
  Ho  Ho0  1  0.13132674  0.13132674  0.00216214  1
  Ho  Ho1  1  0.86867326  0.86867326  0.99783786  1
  Ho  Ho2  1  0.40277511  0.40277511  0.67381006  1
  Ho  Ho3  1  0.59722489  0.59722489  0.32618994  1
  Ho  Ho4  1  0.14453968  0.14453968  0.63713726  1
  Ho  Ho5  1  0.85546032  0.85546032  0.36286274  1
  Ni  Ni0  1  0.53418041  0.53418041  0.85616718  1
  Ni  Ni1  1  0.46581959  0.46581959  0.14383282  1
  Ni  Ni2  1  0.74362968  0.74362968  0.77621639  1
  Ni  Ni3  1  0.25637032  0.25637032  0.22378361  1
loop_
_geom_bond_atom_site_label_1
_geom_bond_atom_site_label_2
_geom_bond_distance
_geom_bond_site_symmetry_2
Ho0 Ni0 2.779600 1_454
Ho0 Ni0 2.779600 1_544
Ho0 Ni1 2.879358 1_455
Ho0 Ni1 2.879358 1_545
Ho0 Ni2 2.899138 1_544
Ho0 Ni2 2.899138 1_454
Ho0 Ni3 2.987622 1_555
Ho1 Ni1 2.779600 1_656
Ho1 Ni1 2.779600 1_566
Ho1 Ni0 2.879358 1_565
Ho1 Ni0 2.879358 1_655
Ho1 Ni3 2.899138 1_656
Ho1 Ni3 2.899138 1_566
Ho1 Ni2 2.987622 1_555
Ho2 Ni2 2.744125 1_545
Ho2 Ni2 2.744125 1_455
Ho2 Ni0 2.744946 1_555
Ho3 Ni3 2.744125 1_565
Ho3 Ni3 2.744125 1_655
Ho3 Ni1 2.744946 1_555
Ho4 Ni2 2.754693 1_545
Ho4 Ni2 2.754693 1_455
Ho4 Ni0 2.851327 1_455
Ho4 Ni0 2.851327 1_545
Ho5 Ni3 2.754693 1_565
Ho5 Ni3 2.754693 1_655
Ho5 Ni1 2.851327 1_655
Ho5 Ni1 2.851327 1_565
Ni0 Ni1 2.646896 1_556
Ni0 Ni2 2.661696 1_555
Ni1 Ni3 2.661696 1_555
