# generated using pymatgen
data_Li7Mn4CoO12
_symmetry_space_group_name_H-M   'P 1'
_cell_length_a   2.87708300
_cell_length_b   5.20005900
_cell_length_c   14.61605007
_cell_angle_alpha   88.04172958
_cell_angle_beta   90.00000000
_cell_angle_gamma   90.00000000
_symmetry_Int_Tables_number   1
_chemical_formula_structural   Li7Mn4CoO12
_chemical_formula_sum   'Li7 Mn4 Co1 O12'
_cell_volume   218.54303664
_cell_formula_units_Z   1
loop_
 _symmetry_equiv_pos_site_id
 _symmetry_equiv_pos_as_xyz
  1  'x, y, z'
loop_
 _atom_site_type_symbol
 _atom_site_label
 _atom_site_symmetry_multiplicity
 _atom_site_fract_x
 _atom_site_fract_y
 _atom_site_fract_z
 _atom_site_occupancy
  Li  Li0  1  0.50000000  0.50547600  0.99358900  1
  Li  Li1  1  0.00000000  0.33437600  0.83389500  1
  Li  Li2  1  0.50000000  0.16230600  0.67104200  1
  Li  Li3  1  0.00000000  0.00216700  0.50086600  1
  Li  Li4  1  0.00000000  0.66481800  0.16594000  1
  Li  Li5  1  0.50000000  0.83296300  0.33505700  1
  Li  Li6  1  0.50000000  0.83244300  0.83221400  1
  Mn  Mn0  1  0.00000000  0.97968500  0.99191700  1
  Mn  Mn1  1  0.00000000  0.67499000  0.67242200  1
  Mn  Mn2  1  0.00000000  0.34322600  0.33591700  1
  Mn  Mn3  1  0.50000000  0.15774400  0.16494400  1
  Co  Co0  1  0.50000000  0.51056200  0.50287200  1
  O  O0  1  0.50000000  0.83901300  0.07137900  1
  O  O1  1  0.00000000  0.69426500  0.92271200  1
  O  O2  1  0.50000000  0.51140700  0.74157800  1
  O  O3  1  0.00000000  0.36146300  0.58505900  1
  O  O4  1  0.00000000  0.00618100  0.24123400  1
  O  O5  1  0.50000000  0.19326500  0.41356400  1
  O  O6  1  0.50000000  0.15262000  0.92490400  1
  O  O7  1  0.00000000  0.96570700  0.73999900  1
  O  O8  1  0.50000000  0.81159800  0.59140000  1
  O  O9  1  0.00000000  0.67647800  0.42376600  1
  O  O10  1  0.00000000  0.29632600  0.08559600  1
  O  O11  1  0.50000000  0.49092200  0.25813300  1
loop_
_geom_bond_atom_site_label_1
_geom_bond_atom_site_label_2
_geom_bond_distance
_geom_bond_site_symmetry_2
Li0 O1 2.009187 1_655
Li0 O1 2.009187 1_555
Li0 O0 2.106107 1_556
Li0 O6 2.121431 1_555
Li0 O10 2.227270 1_556
Li0 O10 2.227270 1_656
Li1 O6 2.155501 1_555
Li1 O6 2.155501 1_455
Li1 O2 2.156988 1_455
Li1 O2 2.156988 1_555
Li1 O1 2.313772 1_555
Li1 O7 2.395524 1_545
Li2 O7 2.014933 1_545
Li2 O7 2.014933 1_645
Li2 O2 2.118080 1_555
Li2 O3 2.152290 1_655
Li2 O3 2.152290 1_555
Li2 O8 2.196814 1_545
Li3 O9 2.066064 1_545
Li3 O5 2.144394 1_455
Li3 O5 2.144394 1_555
Li3 O8 2.170897 1_445
Li3 O8 2.170897 1_545
Li3 O3 2.272048 1_555
Li4 O4 2.120287 1_565
Li4 O11 2.149320 1_455
Li4 O11 2.149320 1_555
Li4 O0 2.171308 1_455
Li4 O0 2.171308 1_555
Li4 O10 2.281346 1_555
Li5 O9 2.083401 1_655
Li5 O9 2.083401 1_555
Li5 O11 2.136425 1_555
Li5 O4 2.162602 1_565
Li5 O4 2.162602 1_665
Li5 O5 2.230234 1_565
Li6 O1 2.066479 1_655
Li6 O1 2.066479 1_555
Li6 O7 2.074224 1_655
Li6 O7 2.074224 1_555
Li6 O2 2.166333 1_555
Li6 O6 2.182099 1_565
Mn0 O1 1.824443 1_555
Mn0 O6 1.943514 1_565
Mn0 O6 1.943514 1_465
Mn0 O0 1.973660 1_456
Mn0 O0 1.973660 1_556
Mn0 O10 2.177147 1_566
Mn1 O7 1.833846 1_555
Mn1 O2 1.938020 1_455
Mn1 O2 1.938020 1_555
Mn1 O8 1.979625 1_555
Mn1 O8 1.979625 1_455
Mn1 O3 2.104953 1_555
Mn2 O11 1.972847 1_555
Mn2 O11 1.972847 1_455
Mn2 O5 1.976106 1_555
Mn2 O5 1.976106 1_455
Mn2 O9 2.191754 1_555
Mn2 O4 2.269960 1_555
Mn3 O4 1.968211 1_555
Mn3 O4 1.968211 1_655
Mn3 O10 1.968915 1_555
Mn3 O10 1.968915 1_655
Mn3 O0 2.184524 1_545
Mn3 O11 2.240131 1_555
Co0 O3 2.012430 1_655
Co0 O3 2.012430 1_555
Co0 O9 2.020505 1_555
Co0 O9 2.020505 1_655
Co0 O8 2.064746 1_555
Co0 O5 2.138565 1_555
