# generated using pymatgen
data_Mg2TaWO6
_symmetry_space_group_name_H-M   'P 1'
_cell_length_a   7.75489800
_cell_length_b   5.36643500
_cell_length_c   5.46125553
_cell_angle_alpha   88.45145001
_cell_angle_beta   90.00000000
_cell_angle_gamma   90.00000000
_symmetry_Int_Tables_number   1
_chemical_formula_structural   Mg2TaWO6
_chemical_formula_sum   'Mg4 Ta2 W2 O12'
_cell_volume   227.19345769
_cell_formula_units_Z   2
loop_
 _symmetry_equiv_pos_site_id
 _symmetry_equiv_pos_as_xyz
  1  'x, y, z'
loop_
 _atom_site_type_symbol
 _atom_site_label
 _atom_site_symmetry_multiplicity
 _atom_site_fract_x
 _atom_site_fract_y
 _atom_site_fract_z
 _atom_site_occupancy
  Mg  Mg0  1  0.75000000  0.00742000  0.03345300  1
  Mg  Mg1  1  0.75000000  0.49648200  0.54547300  1
  Mg  Mg2  1  0.25000000  0.50351800  0.45452700  1
  Mg  Mg3  1  0.25000000  0.99258000  0.96654700  1
  Ta  Ta0  1  0.00000000  0.00000000  0.50000000  1
  Ta  Ta1  1  0.50000000  0.00000000  0.50000000  1
  W  W0  1  0.00000000  0.50000000  0.00000000  1
  W  W1  1  0.50000000  0.50000000  0.00000000  1
  O  O0  1  0.43015600  0.15523000  0.18513300  1
  O  O1  1  0.56854800  0.68884300  0.33586900  1
  O  O2  1  0.56984400  0.84477000  0.81486700  1
  O  O3  1  0.06854800  0.31115700  0.66413100  1
  O  O4  1  0.25000000  0.87173000  0.57441600  1
  O  O5  1  0.43145200  0.31115700  0.66413100  1
  O  O6  1  0.93145200  0.68884300  0.33586900  1
  O  O7  1  0.06984400  0.15523000  0.18513300  1
  O  O8  1  0.75000000  0.36102000  0.90189200  1
  O  O9  1  0.93015600  0.84477000  0.81486700  1
  O  O10  1  0.25000000  0.63898000  0.09810800  1
  O  O11  1  0.75000000  0.12827000  0.42558400  1
loop_
_geom_bond_atom_site_label_1
_geom_bond_atom_site_label_2
_geom_bond_distance
_geom_bond_site_symmetry_2
Mg0 O8 2.010799 1_554
Mg0 O2 2.048194 1_544
Mg0 O9 2.048194 1_544
Mg0 O11 2.254285 1_555
Mg1 O8 2.059325 1_555
Mg1 O6 2.071750 1_555
Mg1 O1 2.071750 1_555
Mg1 O11 2.098365 1_555
Mg2 O10 2.059325 1_555
Mg2 O5 2.071750 1_555
Mg2 O3 2.071750 1_555
Mg2 O4 2.098365 1_555
Mg3 O10 2.010799 1_556
Mg3 O0 2.048194 1_566
Mg3 O7 2.048194 1_566
Mg3 O4 2.254285 1_555
O0 Ta1 1.966419 1_555
O0 W1 2.153529 1_555
O1 Ta1 1.988765 1_565
O1 W1 2.185083 1_555
O2 Ta1 1.966419 1_565
O2 W1 2.153529 1_556
O3 Ta0 1.988765 1_555
O3 W0 2.185083 1_556
O4 Ta1 2.093449 1_565
O4 Ta0 2.093449 1_565
O5 Ta1 1.988765 1_555
O5 W1 2.185083 1_556
O6 Ta0 1.988765 1_665
O6 W0 2.185083 1_655
O7 Ta0 1.966419 1_555
O7 W0 2.153529 1_555
O8 W0 2.150252 1_656
O8 W1 2.150252 1_556
O9 Ta0 1.966419 1_665
O9 W0 2.153529 1_656
O10 W1 2.150252 1_555
O10 W0 2.150252 1_555
O11 Ta1 2.093449 1_555
O11 Ta0 2.093449 1_655
