# generated using pymatgen
data_Li9Mn2Co5O16
_symmetry_space_group_name_H-M   'P 1'
_cell_length_a   5.94525649
_cell_length_b   5.94525649
_cell_length_c   9.63830704
_cell_angle_alpha   83.47414407
_cell_angle_beta   83.47414407
_cell_angle_gamma   57.12844784
_symmetry_Int_Tables_number   1
_chemical_formula_structural   Li9Mn2Co5O16
_chemical_formula_sum   'Li9 Mn2 Co5 O16'
_cell_volume   283.72471801
_cell_formula_units_Z   1
loop_
 _symmetry_equiv_pos_site_id
 _symmetry_equiv_pos_as_xyz
  1  'x, y, z'
loop_
 _atom_site_type_symbol
 _atom_site_label
 _atom_site_symmetry_multiplicity
 _atom_site_fract_x
 _atom_site_fract_y
 _atom_site_fract_z
 _atom_site_occupancy
  Li  Li0  1  0.12912400  0.12912400  0.74305200  1
  Li  Li1  1  0.37479600  0.37479600  0.26069800  1
  Li  Li2  1  0.62520400  0.62520400  0.73930200  1
  Li  Li3  1  0.62367400  0.12281600  0.74759400  1
  Li  Li4  1  0.87718400  0.37632600  0.25240600  1
  Li  Li5  1  0.12281600  0.62367400  0.74759400  1
  Li  Li6  1  0.37632600  0.87718400  0.25240600  1
  Li  Li7  1  0.87087600  0.87087600  0.25694800  1
  Li  Li8  1  0.50000000  0.50000000  0.50000000  1
  Mn  Mn0  1  0.75007800  0.24992200  0.00000000  1
  Mn  Mn1  1  0.24992200  0.75007800  0.00000000  1
  Co  Co0  1  0.00000000  0.50000000  0.50000000  1
  Co  Co1  1  0.50000000  0.00000000  0.50000000  1
  Co  Co2  1  0.24972900  0.24972900  0.00075100  1
  Co  Co3  1  0.75027100  0.75027100  0.99924900  1
  Co  Co4  1  0.00000000  0.00000000  0.50000000  1
  O  O0  1  0.94744700  0.94744700  0.87926000  1
  O  O1  1  0.19960800  0.19960800  0.38216000  1
  O  O2  1  0.44822400  0.44822400  0.87816000  1
  O  O3  1  0.44826000  0.95043000  0.88464600  1
  O  O4  1  0.68501200  0.15454700  0.39955500  1
  O  O5  1  0.95043000  0.44826000  0.88464600  1
  O  O6  1  0.15454700  0.68501200  0.39955500  1
  O  O7  1  0.69640700  0.69640700  0.39083600  1
  O  O8  1  0.30359300  0.30359300  0.60916400  1
  O  O9  1  0.55177600  0.55177600  0.12184000  1
  O  O10  1  0.80039200  0.80039200  0.61784000  1
  O  O11  1  0.84545300  0.31498800  0.60044500  1
  O  O12  1  0.04957000  0.55174000  0.11535400  1
  O  O13  1  0.31498800  0.84545300  0.60044500  1
  O  O14  1  0.55174000  0.04957000  0.11535400  1
  O  O15  1  0.05255300  0.05255300  0.12074000  1
loop_
_geom_bond_atom_site_label_1
_geom_bond_atom_site_label_2
_geom_bond_distance
_geom_bond_site_symmetry_2
Li0 O11 2.028115 1_455
Li0 O13 2.028115 1_545
Li0 O8 2.092012 1_555
Li0 O3 2.159163 1_545
Li0 O5 2.159163 1_455
Li0 O0 2.163001 1_445
Li1 O1 2.040434 1_555
Li1 O6 2.109140 1_555
Li1 O4 2.109140 1_555
Li1 O9 2.137057 1_555
Li1 O14 2.209171 1_555
Li1 O12 2.209171 1_555
Li2 O10 2.040434 1_555
Li2 O13 2.109140 1_555
Li2 O11 2.109140 1_555
Li2 O2 2.137057 1_555
Li2 O3 2.209171 1_555
Li2 O5 2.209171 1_555
Li3 O10 2.098191 1_545
Li3 O3 2.102916 1_545
Li3 O0 2.116301 1_545
Li3 O2 2.116355 1_555
Li3 O8 2.141868 1_555
Li3 O11 2.428420 1_555
Li4 O1 2.098191 1_655
Li4 O12 2.102916 1_655
Li4 O15 2.116301 1_655
Li4 O9 2.116355 1_555
Li4 O7 2.141868 1_555
Li4 O4 2.428420 1_555
Li5 O10 2.098191 1_455
Li5 O5 2.102916 1_455
Li5 O0 2.116301 1_455
Li5 O2 2.116355 1_555
Li5 O8 2.141868 1_555
Li5 O13 2.428420 1_555
Li6 O1 2.098191 1_565
Li6 O14 2.102916 1_565
Li6 O15 2.116301 1_565
Li6 O9 2.116355 1_555
Li6 O7 2.141868 1_555
Li6 O6 2.428420 1_555
Li7 O6 2.028115 1_655
Li7 O4 2.028115 1_565
Li7 O7 2.092012 1_555
Li7 O12 2.159163 1_655
Li7 O14 2.159163 1_565
Li7 O15 2.163001 1_665
Li8 O11 2.030493 1_555
Li8 O6 2.030493 1_555
Li8 O13 2.030493 1_555
Li8 O4 2.030493 1_555
Li8 O7 2.180735 1_555
Li8 O8 2.180735 1_555
Mn0 O0 1.959521 1_544
Mn0 O15 1.959521 1_655
Mn0 O2 1.963983 1_554
Mn0 O9 1.963983 1_555
Mn0 O5 2.229586 1_554
Mn0 O14 2.229586 1_555
Mn1 O0 1.959521 1_454
Mn1 O15 1.959521 1_565
Mn1 O2 1.963983 1_554
Mn1 O9 1.963983 1_555
Mn1 O3 2.229586 1_554
Mn1 O12 2.229586 1_555
Co0 O7 1.895494 1_455
Co0 O8 1.895494 1_555
Co0 O6 1.908979 1_555
Co0 O11 1.908979 1_455
Co0 O10 1.934384 1_455
Co0 O1 1.934384 1_555
Co1 O7 1.895494 1_545
Co1 O8 1.895494 1_555
Co1 O4 1.908979 1_555
Co1 O13 1.908979 1_545
Co1 O10 1.934384 1_545
Co1 O1 1.934384 1_555
Co2 O5 1.919440 1_454
Co2 O3 1.919440 1_544
Co2 O14 1.921656 1_555
Co2 O12 1.921656 1_555
Co2 O15 2.227390 1_555
Co2 O2 2.249276 1_554
Co3 O14 1.919440 1_566
Co3 O12 1.919440 1_656
Co3 O5 1.921656 1_555
Co3 O3 1.921656 1_555
Co3 O0 2.227390 1_555
Co3 O9 2.249276 1_556
Co4 O13 1.905396 1_545
Co4 O11 1.905396 1_455
Co4 O6 1.905396 1_545
Co4 O4 1.905396 1_455
Co4 O10 2.241116 1_445
Co4 O1 2.241116 1_555
