# generated using pymatgen
data_Te3C2S2(OF)6
_symmetry_space_group_name_H-M   'P 1'
_cell_length_a   8.39547200
_cell_length_b   8.39547200
_cell_length_c   11.31124528
_cell_angle_alpha   75.03687764
_cell_angle_beta   75.03687764
_cell_angle_gamma   62.05083920
_symmetry_Int_Tables_number   1
_chemical_formula_structural   Te3C2S2(OF)6
_chemical_formula_sum   'Te6 C4 S4 O12 F12'
_cell_volume   671.54337394
_cell_formula_units_Z   2
loop_
 _symmetry_equiv_pos_site_id
 _symmetry_equiv_pos_as_xyz
  1  'x, y, z'
loop_
 _atom_site_type_symbol
 _atom_site_label
 _atom_site_symmetry_multiplicity
 _atom_site_fract_x
 _atom_site_fract_y
 _atom_site_fract_z
 _atom_site_occupancy
  Te  Te0  1  0.29427300  0.40248000  0.53150100  1
  Te  Te1  1  0.59752000  0.70572700  0.46849900  1
  Te  Te2  1  0.07120200  0.73463800  0.61233800  1
  Te  Te3  1  0.26536200  0.92879800  0.38766200  1
  Te  Te4  1  0.40122300  0.52419300  0.69077500  1
  Te  Te5  1  0.47580700  0.59877700  0.30922500  1
  C  C0  1  0.90906500  0.21923400  0.81135800  1
  C  C1  1  0.78076600  0.09093500  0.18864200  1
  C  C2  1  0.59164600  0.81687700  0.92041500  1
  C  C3  1  0.18312300  0.40835400  0.07958500  1
  S  S0  1  0.91749600  0.23196400  0.64243700  1
  S  S1  1  0.76803600  0.08250400  0.35756300  1
  S  S2  1  0.50208900  0.87638300  0.77189900  1
  S  S3  1  0.12361700  0.49791100  0.22810100  1
  O  O0  1  0.10899600  0.11292900  0.59895000  1
  O  O1  1  0.88707100  0.89100400  0.40105000  1
  O  O2  1  0.86631700  0.42692400  0.59186600  1
  O  O3  1  0.57307600  0.13368300  0.40813400  1
  O  O4  1  0.78491600  0.16607400  0.64282700  1
  O  O5  1  0.83392600  0.21508400  0.35717300  1
  O  O6  1  0.38451800  0.77999600  0.79919600  1
  O  O7  1  0.22000400  0.61548200  0.20080400  1
  O  O8  1  0.40721200  0.07412000  0.75492500  1
  O  O9  1  0.92588000  0.59278800  0.24507500  1
  O  O10  1  0.66614000  0.79900400  0.68026400  1
  O  O11  1  0.20099600  0.33386000  0.31973600  1
  F  F0  1  0.97485100  0.04383500  0.86768400  1
  F  F1  1  0.95616500  0.02514900  0.13231600  1
  F  F2  1  0.73149600  0.30724500  0.86368600  1
  F  F3  1  0.69275500  0.26850400  0.13631400  1
  F  F4  1  0.00471000  0.30003300  0.82998000  1
  F  F5  1  0.69996700  0.99529000  0.17002000  1
  F  F6  1  0.67284500  0.63361900  0.95643300  1
  F  F7  1  0.36638100  0.32715500  0.04356700  1
  F  F8  1  0.71585300  0.88326100  0.90552400  1
  F  F9  1  0.11673900  0.28414700  0.09447600  1
  F  F10  1  0.45361800  0.89073500  0.01227300  1
  F  F11  1  0.10926500  0.54638200  0.98772700  1
loop_
_geom_bond_atom_site_label_1
_geom_bond_atom_site_label_2
_geom_bond_distance
_geom_bond_site_symmetry_2
C0 F0 1.346941 1_555
C0 F4 1.349453 1_655
C0 F2 1.362483 1_555
C1 F1 1.346941 1_555
C1 F5 1.349453 1_545
C1 F3 1.362483 1_555
C2 F8 1.353499 1_555
C2 F6 1.354397 1_555
C2 F10 1.358052 1_556
C3 F9 1.353499 1_555
C3 F7 1.354397 1_555
C3 F11 1.358052 1_554
O0 S0 1.471347 1_455
O1 S1 1.471347 1_565
O2 S0 1.474814 1_555
O2 Te1 2.739839 1_555
O3 S1 1.474814 1_555
O3 Te0 2.739839 1_555
O4 S0 1.455447 1_555
O5 S1 1.455447 1_555
O6 S2 1.478776 1_555
O6 Te4 2.669214 1_555
O7 S3 1.478776 1_555
O7 Te5 2.669214 1_555
O8 S2 1.449867 1_545
O9 S3 1.449867 1_655
O10 S2 1.471432 1_555
O11 S3 1.471432 1_555
