# generated using pymatgen
data_Rh8C20O19
_symmetry_space_group_name_H-M   'P 1'
_cell_length_a   9.26001400
_cell_length_b   10.56599298
_cell_length_c   17.92532009
_cell_angle_alpha   104.09902883
_cell_angle_beta   92.39895228
_cell_angle_gamma   110.85919245
_symmetry_Int_Tables_number   1
_chemical_formula_structural   Rh8C20O19
_chemical_formula_sum   'Rh16 C40 O38'
_cell_volume   1573.43464401
_cell_formula_units_Z   2
loop_
 _symmetry_equiv_pos_site_id
 _symmetry_equiv_pos_as_xyz
  1  'x, y, z'
loop_
 _atom_site_type_symbol
 _atom_site_label
 _atom_site_symmetry_multiplicity
 _atom_site_fract_x
 _atom_site_fract_y
 _atom_site_fract_z
 _atom_site_occupancy
  Rh  Rh0  1  0.21136100  0.25906200  0.39373000  1
  Rh  Rh1  1  0.74524600  0.52729800  0.75199200  1
  Rh  Rh2  1  0.49621400  0.63805900  0.66130000  1
  Rh  Rh3  1  0.44661100  0.71193500  0.15718300  1
  Rh  Rh4  1  0.50378600  0.36194100  0.33870000  1
  Rh  Rh5  1  0.25475400  0.47270200  0.24800800  1
  Rh  Rh6  1  0.72850200  0.82179400  0.83374400  1
  Rh  Rh7  1  0.27149800  0.17820600  0.16625600  1
  Rh  Rh8  1  0.06521000  0.20792600  0.24565200  1
  Rh  Rh9  1  0.48353100  0.44000100  0.17409800  1
  Rh  Rh10  1  0.30845400  0.09043500  0.33411500  1
  Rh  Rh11  1  0.51646900  0.55999900  0.82590200  1
  Rh  Rh12  1  0.93479000  0.79207400  0.75434800  1
  Rh  Rh13  1  0.78863900  0.74093800  0.60627000  1
  Rh  Rh14  1  0.69154600  0.90956500  0.66588500  1
  Rh  Rh15  1  0.55338900  0.28806500  0.84281700  1
  C  C0  1  0.31788700  0.29602600  0.24950900  1
  C  C1  1  0.05503200  0.41082300  0.17514200  1
  C  C2  1  0.59761200  0.73776300  0.24842100  1
  C  C3  1  0.52451200  0.68809000  0.88759800  1
  C  C4  1  0.14932200  0.84295500  0.74725400  1
  C  C5  1  0.53495200  0.16513000  0.38461300  1
  C  C6  1  0.64289500  0.52117600  0.63307700  1
  C  C7  1  0.35846400  0.03002600  0.25143100  1
  C  C8  1  0.62684800  0.59146700  0.11038400  1
  C  C9  1  0.64153600  0.96997400  0.74856900  1
  C  C10  1  0.46504800  0.83487000  0.61538600  1
  C  C11  1  0.53601400  0.90281200  0.10616700  1
  C  C12  1  0.94496800  0.58917700  0.82485800  1
  C  C13  1  0.66206900  0.44773700  0.41103400  1
  C  C14  1  0.31411100  0.20772700  0.49824100  1
  C  C15  1  0.77548300  0.92138700  0.91063100  1
  C  C16  1  0.46398600  0.09718800  0.89383300  1
  C  C17  1  0.19294800  0.63301700  0.23837500  1
  C  C18  1  0.35710500  0.47882400  0.36692300  1
  C  C19  1  0.33704300  0.56411700  0.73825700  1
  C  C20  1  0.37315200  0.40853300  0.88961600  1
  C  C21  1  0.40238800  0.26223700  0.75157900  1
  C  C22  1  0.71500100  0.31760600  0.93049000  1
  C  C23  1  0.02395000  0.07546100  0.18164000  1
  C  C24  1  0.97605000  0.92453900  0.81836000  1
  C  C25  1  0.27274200  0.89909500  0.39528000  1
  C  C26  1  0.85067800  0.15704500  0.25274600  1
  C  C27  1  0.07698900  0.06351000  0.38268900  1
  C  C28  1  0.22451700  0.07861300  0.08936900  1
  C  C29  1  0.94946000  0.68892600  0.58468600  1
  C  C30  1  0.47548800  0.31191000  0.11240200  1
  C  C31  1  0.68588900  0.79227300  0.50175900  1
  C  C32  1  0.28499900  0.68239400  0.06951000  1
  C  C33  1  0.72725800  0.10090500  0.60472000  1
  C  C34  1  0.92301100  0.93649000  0.61731100  1
  C  C35  1  0.66295700  0.43588300  0.26174300  1
  C  C36  1  0.05054000  0.31107400  0.41531400  1
  C  C37  1  0.80705200  0.36698300  0.76162500  1
  C  C38  1  0.68211300  0.70397400  0.75049100  1
  C  C39  1  0.33793100  0.55226300  0.58896600  1
  O  O0  1  0.27985000  0.86988700  0.74306100  1
  O  O1  1  0.24872300  0.78106200  0.42798000  1
  O  O2  1  0.13465900  0.71582700  0.23497400  1
  O  O3  1  0.62587400  0.82392200  0.43889200  1
  O  O4  1  0.27553000  0.33077400  0.92612600  1
  O  O5  1  0.75127700  0.21893800  0.57202000  1
  O  O6  1  0.79846300  0.45697000  0.26570900  1
  O  O7  1  0.41666300  0.94892800  0.24927100  1
  O  O8  1  0.75654900  0.50841500  0.45128000  1
  O  O9  1  0.72015000  0.13011300  0.25693900  1
  O  O10  1  0.39826400  0.56728700  0.39966200  1
  O  O11  1  0.18999800  0.67132800  0.01670800  1
  O  O12  1  0.04118100  0.65831200  0.56747900  1
  O  O13  1  0.37412600  0.17607800  0.56110800  1
  O  O14  1  0.07251200  0.01688800  0.84035400  1
  O  O15  1  0.80375500  0.98498700  0.95498700  1
  O  O16  1  0.98407800  0.95886300  0.41062100  1
  O  O17  1  0.20153700  0.54303000  0.73429100  1
  O  O18  1  0.92748800  0.98311200  0.15964600  1
  O  O19  1  0.58333700  0.05107200  0.75072900  1
  O  O20  1  0.54594700  0.30352000  0.06984700  1
  O  O21  1  0.24345100  0.49158500  0.54872000  1
  O  O22  1  0.59330200  0.02089600  0.07769300  1
  O  O23  1  0.01592200  0.04113700  0.58937900  1
  O  O24  1  0.30782400  0.23764200  0.70033600  1
  O  O25  1  0.19624500  0.01501300  0.04501300  1
  O  O26  1  0.03678800  0.54824900  0.87520400  1
  O  O27  1  0.69217600  0.76235800  0.29966400  1
  O  O28  1  0.60173600  0.43271300  0.60033800  1
  O  O29  1  0.45405300  0.69648000  0.93015300  1
  O  O30  1  0.96321200  0.45175100  0.12479600  1
  O  O31  1  0.36584700  0.88342100  0.57649500  1
  O  O32  1  0.81000200  0.32867200  0.98329200  1
  O  O33  1  0.95881900  0.34168800  0.43252100  1
  O  O34  1  0.72447000  0.66922600  0.07387400  1
  O  O35  1  0.40669800  0.97910400  0.92230700  1
  O  O36  1  0.63415300  0.11657900  0.42350500  1
  O  O37  1  0.86534100  0.28417300  0.76502600  1
loop_
_geom_bond_atom_site_label_1
_geom_bond_atom_site_label_2
_geom_bond_distance
_geom_bond_site_symmetry_2
C0 Rh7 1.619177 1_555
C0 Rh4 2.092314 1_555
C0 Rh5 2.151190 1_555
C0 Rh8 2.179437 1_555
C0 Rh9 2.451104 1_555
C1 O30 1.453320 1_455
C1 Rh5 2.018536 1_555
C2 O27 1.154280 1_555
C2 Rh3 2.005933 1_555
C3 O29 1.032154 1_555
C3 Rh11 1.500808 1_555
C4 O0 1.149192 1_555
C4 Rh12 1.882960 1_455
C5 O36 1.431510 1_555
C5 Rh10 2.038486 1_555
C5 Rh4 2.515209 1_555
C6 O28 0.907557 1_555
C6 Rh2 2.138629 1_555
C6 Rh1 2.272921 1_555
C7 O7 1.157856 1_545
C7 Rh10 1.620385 1_555
C8 O34 1.305026 1_555
C8 Rh3 2.493860 1_555
C9 O19 1.157856 1_565
C9 Rh14 1.620385 1_555
C10 O31 1.431500 1_555
C10 Rh14 2.038492 1_555
C10 Rh2 2.515218 1_555
C11 O22 1.400070 1_565
C11 Rh3 2.315607 1_555
C12 O26 1.453320 1_655
C12 Rh1 2.018536 1_555
C13 O8 1.009599 1_555
C13 Rh4 1.724324 1_555
C14 O13 1.397897 1_555
C15 O15 0.865606 1_555
C15 Rh6 1.453720 1_555
C16 O35 1.400070 1_545
C16 Rh15 2.315607 1_555
C17 O2 1.191715 1_555
C17 Rh5 2.012770 1_555
C17 Rh3 2.795265 1_555
C18 O10 0.907557 1_555
C18 Rh4 2.138629 1_555
C18 Rh5 2.272921 1_555
C19 O17 1.189498 1_555
C19 Rh2 2.135657 1_555
C20 O4 1.305026 1_555
C20 Rh15 2.493860 1_555
C21 O24 1.154280 1_555
C21 Rh15 2.005933 1_555
C22 O32 1.219237 1_555
C22 Rh15 2.009557 1_555
C23 O18 1.033352 1_445
C23 Rh8 1.490498 1_555
C24 O14 1.033352 1_665
C24 Rh12 1.490498 1_555
C25 O1 1.455309 1_555
C26 O9 1.149192 1_555
C26 Rh8 1.882960 1_655
C27 O16 1.357128 1_445
C27 Rh0 1.950865 1_555
C27 Rh10 2.296903 1_555
C28 O25 0.865606 1_555
C28 Rh7 1.453720 1_555
C29 O12 1.044085 1_655
C29 Rh13 1.787989 1_555
C30 O20 1.032154 1_555
C30 Rh9 1.500808 1_555
C31 O3 1.397897 1_555
C32 O11 1.219237 1_555
C32 Rh3 2.009557 1_555
C33 O5 1.455309 1_555
C34 O23 1.357128 1_665
C34 Rh13 1.950865 1_555
C34 Rh14 2.296903 1_555
C35 O6 1.189498 1_555
C35 Rh4 2.135657 1_555
C36 O33 1.044085 1_455
C36 Rh0 1.787989 1_555
C37 O37 1.191715 1_555
C37 Rh1 2.012770 1_555
C37 Rh15 2.795265 1_555
C38 Rh6 1.619177 1_555
C38 Rh2 2.092314 1_555
C38 Rh1 2.151190 1_555
C38 Rh12 2.179437 1_555
C38 Rh11 2.451104 1_555
C39 O21 1.009599 1_555
C39 Rh2 1.724324 1_555
O7 Rh3 2.755199 1_555
O19 Rh15 2.755199 1_555
