# generated using pymatgen
data_Be4N6O19
_symmetry_space_group_name_H-M   'P 1'
_cell_length_a   13.97759403
_cell_length_b   13.97759403
_cell_length_c   13.97759403
_cell_angle_alpha   90.00000000
_cell_angle_beta   90.00000000
_cell_angle_gamma   90.00000000
_symmetry_Int_Tables_number   1
_chemical_formula_structural   Be4N6O19
_chemical_formula_sum   'Be32 N48 O152'
_cell_volume   2730.84636355
_cell_formula_units_Z   8
loop_
 _symmetry_equiv_pos_site_id
 _symmetry_equiv_pos_as_xyz
  1  'x, y, z'
loop_
 _atom_site_type_symbol
 _atom_site_label
 _atom_site_symmetry_multiplicity
 _atom_site_fract_x
 _atom_site_fract_y
 _atom_site_fract_z
 _atom_site_occupancy
  Be  Be0  1  0.30067706  0.69932294  0.19932294  1
  Be  Be1  1  0.69932294  0.19932294  0.30067706  1
  Be  Be2  1  0.19932294  0.30067706  0.69932294  1
  Be  Be3  1  0.80067706  0.80067706  0.80067706  1
  Be  Be4  1  0.69932294  0.30067706  0.80067706  1
  Be  Be5  1  0.30067706  0.80067706  0.69932294  1
  Be  Be6  1  0.80067706  0.69932294  0.30067706  1
  Be  Be7  1  0.19932294  0.19932294  0.19932294  1
  Be  Be8  1  0.12084438  0.73777921  0.25323602  1
  Be  Be9  1  0.87915562  0.23777921  0.24676398  1
  Be  Be10  1  0.37915562  0.26222079  0.75323602  1
  Be  Be11  1  0.62084438  0.76222079  0.74676398  1
  Be  Be12  1  0.25323602  0.12084438  0.73777921  1
  Be  Be13  1  0.24676398  0.87915562  0.23777921  1
  Be  Be14  1  0.75323602  0.37915562  0.26222079  1
  Be  Be15  1  0.74676398  0.62084438  0.76222079  1
  Be  Be16  1  0.73777921  0.25323602  0.12084438  1
  Be  Be17  1  0.23777921  0.24676398  0.87915562  1
  Be  Be18  1  0.26222079  0.75323602  0.37915562  1
  Be  Be19  1  0.76222079  0.74676398  0.62084438  1
  Be  Be20  1  0.87915562  0.26222079  0.74676398  1
  Be  Be21  1  0.12084438  0.76222079  0.75323602  1
  Be  Be22  1  0.62084438  0.73777921  0.24676398  1
  Be  Be23  1  0.37915562  0.23777921  0.25323602  1
  Be  Be24  1  0.74676398  0.87915562  0.26222079  1
  Be  Be25  1  0.75323602  0.12084438  0.76222079  1
  Be  Be26  1  0.24676398  0.62084438  0.73777921  1
  Be  Be27  1  0.25323602  0.37915562  0.23777921  1
  Be  Be28  1  0.26222079  0.74676398  0.87915562  1
  Be  Be29  1  0.76222079  0.75323602  0.12084438  1
  Be  Be30  1  0.73777921  0.24676398  0.62084438  1
  Be  Be31  1  0.23777921  0.25323602  0.37915562  1
  N  N0  1  0.15558226  0.61937940  0.11375837  1
  N  N1  1  0.84441774  0.11937940  0.38624163  1
  N  N2  1  0.34441774  0.38062060  0.61375837  1
  N  N3  1  0.65558226  0.88062060  0.88624163  1
  N  N4  1  0.11375837  0.15558226  0.61937940  1
  N  N5  1  0.38624163  0.84441774  0.11937940  1
  N  N6  1  0.61375837  0.34441774  0.38062060  1
  N  N7  1  0.88624163  0.65558226  0.88062060  1
  N  N8  1  0.61937940  0.11375837  0.15558226  1
  N  N9  1  0.11937940  0.38624163  0.84441774  1
  N  N10  1  0.38062060  0.61375837  0.34441774  1
  N  N11  1  0.88062060  0.88624163  0.65558226  1
  N  N12  1  0.84441774  0.38062060  0.88624163  1
  N  N13  1  0.15558226  0.88062060  0.61375837  1
  N  N14  1  0.65558226  0.61937940  0.38624163  1
  N  N15  1  0.34441774  0.11937940  0.11375837  1
  N  N16  1  0.88624163  0.84441774  0.38062060  1
  N  N17  1  0.61375837  0.15558226  0.88062060  1
  N  N18  1  0.38624163  0.65558226  0.61937940  1
  N  N19  1  0.11375837  0.34441774  0.11937940  1
  N  N20  1  0.38062060  0.88624163  0.84441774  1
  N  N21  1  0.88062060  0.61375837  0.15558226  1
  N  N22  1  0.61937940  0.38624163  0.65558226  1
  N  N23  1  0.11937940  0.11375837  0.34441774  1
  N  N24  1  0.09509215  0.69285679  0.43040475  1
  N  N25  1  0.90490785  0.19285679  0.06959525  1
  N  N26  1  0.40490785  0.30714321  0.93040475  1
  N  N27  1  0.59509215  0.80714321  0.56959525  1
  N  N28  1  0.43040475  0.09509215  0.69285679  1
  N  N29  1  0.06959525  0.90490785  0.19285679  1
  N  N30  1  0.93040475  0.40490785  0.30714321  1
  N  N31  1  0.56959525  0.59509215  0.80714321  1
  N  N32  1  0.69285679  0.43040475  0.09509215  1
  N  N33  1  0.19285679  0.06959525  0.90490785  1
  N  N34  1  0.30714321  0.93040475  0.40490785  1
  N  N35  1  0.80714321  0.56959525  0.59509215  1
  N  N36  1  0.90490785  0.30714321  0.56959525  1
  N  N37  1  0.09509215  0.80714321  0.93040475  1
  N  N38  1  0.59509215  0.69285679  0.06959525  1
  N  N39  1  0.40490785  0.19285679  0.43040475  1
  N  N40  1  0.56959525  0.90490785  0.30714321  1
  N  N41  1  0.93040475  0.09509215  0.80714321  1
  N  N42  1  0.06959525  0.59509215  0.69285679  1
  N  N43  1  0.43040475  0.40490785  0.19285679  1
  N  N44  1  0.30714321  0.56959525  0.90490785  1
  N  N45  1  0.80714321  0.93040475  0.09509215  1
  N  N46  1  0.69285679  0.06959525  0.59509215  1
  N  N47  1  0.19285679  0.43040475  0.40490785  1
  O  O0  1  0.23332257  0.76667743  0.26667743  1
  O  O1  1  0.76667743  0.26667743  0.23332257  1
  O  O2  1  0.26667743  0.23332257  0.76667743  1
  O  O3  1  0.73332257  0.73332257  0.73332257  1
  O  O4  1  0.76667743  0.23332257  0.73332257  1
  O  O5  1  0.23332257  0.73332257  0.76667743  1
  O  O6  1  0.73332257  0.76667743  0.23332257  1
  O  O7  1  0.26667743  0.26667743  0.26667743  1
  O  O8  1  0.24173797  0.61132523  0.14855090  1
  O  O9  1  0.75826203  0.11132523  0.35144910  1
  O  O10  1  0.25826203  0.38867477  0.64855090  1
  O  O11  1  0.74173797  0.88867477  0.85144910  1
  O  O12  1  0.14855090  0.24173797  0.61132523  1
  O  O13  1  0.35144910  0.75826203  0.11132523  1
  O  O14  1  0.64855090  0.25826203  0.38867477  1
  O  O15  1  0.85144910  0.74173797  0.88867477  1
  O  O16  1  0.61132523  0.14855090  0.24173797  1
  O  O17  1  0.11132523  0.35144910  0.75826203  1
  O  O18  1  0.38867477  0.64855090  0.25826203  1
  O  O19  1  0.88867477  0.85144910  0.74173797  1
  O  O20  1  0.75826203  0.38867477  0.85144910  1
  O  O21  1  0.24173797  0.88867477  0.64855090  1
  O  O22  1  0.74173797  0.61132523  0.35144910  1
  O  O23  1  0.25826203  0.11132523  0.14855090  1
  O  O24  1  0.85144910  0.75826203  0.38867477  1
  O  O25  1  0.64855090  0.24173797  0.88867477  1
  O  O26  1  0.35144910  0.74173797  0.61132523  1
  O  O27  1  0.14855090  0.25826203  0.11132523  1
  O  O28  1  0.38867477  0.85144910  0.75826203  1
  O  O29  1  0.88867477  0.64855090  0.24173797  1
  O  O30  1  0.61132523  0.35144910  0.74173797  1
  O  O31  1  0.11132523  0.14855090  0.25826203  1
  O  O32  1  0.09776138  0.68059223  0.15347774  1
  O  O33  1  0.90223862  0.18059223  0.34652226  1
  O  O34  1  0.40223862  0.31940777  0.65347774  1
  O  O35  1  0.59776138  0.81940777  0.84652226  1
  O  O36  1  0.15347774  0.09776138  0.68059223  1
  O  O37  1  0.34652226  0.90223862  0.18059223  1
  O  O38  1  0.65347774  0.40223862  0.31940777  1
  O  O39  1  0.84652226  0.59776138  0.81940777  1
  O  O40  1  0.68059223  0.15347774  0.09776138  1
  O  O41  1  0.18059223  0.34652226  0.90223862  1
  O  O42  1  0.31940777  0.65347774  0.40223862  1
  O  O43  1  0.81940777  0.84652226  0.59776138  1
  O  O44  1  0.90223862  0.31940777  0.84652226  1
  O  O45  1  0.09776138  0.81940777  0.65347774  1
  O  O46  1  0.59776138  0.68059223  0.34652226  1
  O  O47  1  0.40223862  0.18059223  0.15347774  1
  O  O48  1  0.84652226  0.90223862  0.31940777  1
  O  O49  1  0.65347774  0.09776138  0.81940777  1
  O  O50  1  0.34652226  0.59776138  0.68059223  1
  O  O51  1  0.15347774  0.40223862  0.18059223  1
  O  O52  1  0.31940777  0.84652226  0.90223862  1
  O  O53  1  0.81940777  0.65347774  0.09776138  1
  O  O54  1  0.68059223  0.34652226  0.59776138  1
  O  O55  1  0.18059223  0.15347774  0.40223862  1
  O  O56  1  0.12996073  0.57103148  0.04699184  1
  O  O57  1  0.87003927  0.07103148  0.45300816  1
  O  O58  1  0.37003927  0.42896852  0.54699184  1
  O  O59  1  0.62996073  0.92896852  0.95300816  1
  O  O60  1  0.04699184  0.12996073  0.57103148  1
  O  O61  1  0.45300816  0.87003927  0.07103148  1
  O  O62  1  0.54699184  0.37003927  0.42896852  1
  O  O63  1  0.95300816  0.62996073  0.92896852  1
  O  O64  1  0.57103148  0.04699184  0.12996073  1
  O  O65  1  0.07103148  0.45300816  0.87003927  1
  O  O66  1  0.42896852  0.54699184  0.37003927  1
  O  O67  1  0.92896852  0.95300816  0.62996073  1
  O  O68  1  0.87003927  0.42896852  0.95300816  1
  O  O69  1  0.12996073  0.92896852  0.54699184  1
  O  O70  1  0.62996073  0.57103148  0.45300816  1
  O  O71  1  0.37003927  0.07103148  0.04699184  1
  O  O72  1  0.95300816  0.87003927  0.42896852  1
  O  O73  1  0.54699184  0.12996073  0.92896852  1
  O  O74  1  0.45300816  0.62996073  0.57103148  1
  O  O75  1  0.04699184  0.37003927  0.07103148  1
  O  O76  1  0.42896852  0.95300816  0.87003927  1
  O  O77  1  0.92896852  0.54699184  0.12996073  1
  O  O78  1  0.57103148  0.45300816  0.62996073  1
  O  O79  1  0.07103148  0.04699184  0.37003927  1
  O  O80  1  0.08043419  0.67097240  0.34113452  1
  O  O81  1  0.91956581  0.17097240  0.15886548  1
  O  O82  1  0.41956581  0.32902760  0.84113452  1
  O  O83  1  0.58043419  0.82902760  0.65886548  1
  O  O84  1  0.34113452  0.08043419  0.67097240  1
  O  O85  1  0.15886548  0.91956581  0.17097240  1
  O  O86  1  0.84113452  0.41956581  0.32902760  1
  O  O87  1  0.65886548  0.58043419  0.82902760  1
  O  O88  1  0.67097240  0.34113452  0.08043419  1
  O  O89  1  0.17097240  0.15886548  0.91956581  1
  O  O90  1  0.32902760  0.84113452  0.41956581  1
  O  O91  1  0.82902760  0.65886548  0.58043419  1
  O  O92  1  0.91956581  0.32902760  0.65886548  1
  O  O93  1  0.08043419  0.82902760  0.84113452  1
  O  O94  1  0.58043419  0.67097240  0.15886548  1
  O  O95  1  0.41956581  0.17097240  0.34113452  1
  O  O96  1  0.65886548  0.91956581  0.32902760  1
  O  O97  1  0.84113452  0.08043419  0.82902760  1
  O  O98  1  0.15886548  0.58043419  0.67097240  1
  O  O99  1  0.34113452  0.41956581  0.17097240  1
  O  O100  1  0.32902760  0.65886548  0.91956581  1
  O  O101  1  0.82902760  0.84113452  0.08043419  1
  O  O102  1  0.67097240  0.15886548  0.58043419  1
  O  O103  1  0.17097240  0.34113452  0.41956581  1
  O  O104  1  0.16784435  0.74846727  0.45007794  1
  O  O105  1  0.83215565  0.24846727  0.04992206  1
  O  O106  1  0.33215565  0.25153273  0.95007794  1
  O  O107  1  0.66784435  0.75153273  0.54992206  1
  O  O108  1  0.45007794  0.16784435  0.74846727  1
  O  O109  1  0.04992206  0.83215565  0.24846727  1
  O  O110  1  0.95007794  0.33215565  0.25153273  1
  O  O111  1  0.54992206  0.66784435  0.75153273  1
  O  O112  1  0.74846727  0.45007794  0.16784435  1
  O  O113  1  0.24846727  0.04992206  0.83215565  1
  O  O114  1  0.25153273  0.95007794  0.33215565  1
  O  O115  1  0.75153273  0.54992206  0.66784435  1
  O  O116  1  0.83215565  0.25153273  0.54992206  1
  O  O117  1  0.16784435  0.75153273  0.95007794  1
  O  O118  1  0.66784435  0.74846727  0.04992206  1
  O  O119  1  0.33215565  0.24846727  0.45007794  1
  O  O120  1  0.54992206  0.83215565  0.25153273  1
  O  O121  1  0.95007794  0.16784435  0.75153273  1
  O  O122  1  0.04992206  0.66784435  0.74846727  1
  O  O123  1  0.45007794  0.33215565  0.24846727  1
  O  O124  1  0.25153273  0.54992206  0.83215565  1
  O  O125  1  0.75153273  0.95007794  0.16784435  1
  O  O126  1  0.74846727  0.04992206  0.66784435  1
  O  O127  1  0.24846727  0.45007794  0.33215565  1
  O  O128  1  0.04345916  0.66322195  0.49272436  1
  O  O129  1  0.95654084  0.16322195  0.00727564  1
  O  O130  1  0.45654084  0.33677805  0.99272436  1
  O  O131  1  0.54345916  0.83677805  0.50727564  1
  O  O132  1  0.49272436  0.04345916  0.66322195  1
  O  O133  1  0.00727564  0.95654084  0.16322195  1
  O  O134  1  0.99272436  0.45654084  0.33677805  1
  O  O135  1  0.50727564  0.54345916  0.83677805  1
  O  O136  1  0.66322195  0.49272436  0.04345916  1
  O  O137  1  0.16322195  0.00727564  0.95654084  1
  O  O138  1  0.33677805  0.99272436  0.45654084  1
  O  O139  1  0.83677805  0.50727564  0.54345916  1
  O  O140  1  0.95654084  0.33677805  0.50727564  1
  O  O141  1  0.04345916  0.83677805  0.99272436  1
  O  O142  1  0.54345916  0.66322195  0.00727564  1
  O  O143  1  0.45654084  0.16322195  0.49272436  1
  O  O144  1  0.50727564  0.95654084  0.33677805  1
  O  O145  1  0.99272436  0.04345916  0.83677805  1
  O  O146  1  0.00727564  0.54345916  0.66322195  1
  O  O147  1  0.49272436  0.45654084  0.16322195  1
  O  O148  1  0.33677805  0.50727564  0.95654084  1
  O  O149  1  0.83677805  0.99272436  0.04345916  1
  O  O150  1  0.66322195  0.00727564  0.54345916  1
  O  O151  1  0.16322195  0.49272436  0.45654084  1
loop_
_geom_bond_atom_site_label_1
_geom_bond_atom_site_label_2
_geom_bond_distance
_geom_bond_site_symmetry_2
Be0 O0 1.630646 1_555
Be0 O13 1.641711 1_555
Be0 O8 1.641711 1_555
Be0 O18 1.641711 1_555
Be1 O1 1.630646 1_555
Be1 O9 1.641711 1_555
Be1 O16 1.641711 1_555
Be1 O14 1.641711 1_555
Be2 O2 1.630646 1_555
Be2 O17 1.641711 1_555
Be2 O12 1.641711 1_555
Be2 O10 1.641711 1_555
Be3 O3 1.630646 1_555
Be3 O11 1.641711 1_555
Be3 O19 1.641711 1_555
Be3 O15 1.641711 1_555
Be4 O4 1.630646 1_555
Be4 O30 1.641711 1_555
Be4 O20 1.641711 1_555
Be4 O25 1.641711 1_555
Be5 O5 1.630646 1_555
Be5 O26 1.641711 1_555
Be5 O28 1.641711 1_555
Be5 O21 1.641711 1_555
Be6 O6 1.630646 1_555
Be6 O22 1.641711 1_555
Be6 O24 1.641711 1_555
Be6 O29 1.641711 1_555
Be7 O7 1.630646 1_555
Be7 O27 1.641711 1_555
Be7 O31 1.641711 1_555
Be7 O23 1.641711 1_555
Be8 O0 1.634071 1_555
Be8 O32 1.639310 1_555
Be8 O80 1.643320 1_555
Be8 O109 1.651465 1_555
Be9 O1 1.634071 1_555
Be9 O33 1.639310 1_555
Be9 O81 1.643320 1_555
Be9 O110 1.651465 1_555
Be10 O2 1.634071 1_555
Be10 O34 1.639310 1_555
Be10 O82 1.643320 1_555
Be10 O108 1.651465 1_555
Be11 O3 1.634071 1_555
Be11 O35 1.639310 1_555
Be11 O83 1.643320 1_555
Be11 O111 1.651465 1_555
Be12 O2 1.634071 1_555
Be12 O36 1.639310 1_555
Be12 O84 1.643320 1_555
Be12 O113 1.651465 1_555
Be13 O0 1.634071 1_555
Be13 O37 1.639310 1_555
Be13 O85 1.643320 1_555
Be13 O114 1.651465 1_555
Be14 O1 1.634071 1_555
Be14 O38 1.639310 1_555
Be14 O86 1.643320 1_555
Be14 O112 1.651465 1_555
Be15 O3 1.634071 1_555
Be15 O39 1.639310 1_555
Be15 O87 1.643320 1_555
Be15 O115 1.651465 1_555
Be16 O1 1.634071 1_555
Be16 O40 1.639310 1_555
Be16 O88 1.643320 1_555
Be16 O105 1.651465 1_555
Be17 O2 1.634071 1_555
Be17 O41 1.639310 1_555
Be17 O89 1.643320 1_555
Be17 O106 1.651465 1_555
Be18 O0 1.634071 1_555
Be18 O42 1.639310 1_555
Be18 O90 1.643320 1_555
Be18 O104 1.651465 1_555
Be19 O3 1.634071 1_555
Be19 O43 1.639310 1_555
Be19 O91 1.643320 1_555
Be19 O107 1.651465 1_555
Be20 O4 1.634071 1_555
Be20 O44 1.639310 1_555
Be20 O92 1.643320 1_555
Be20 O121 1.651465 1_555
Be21 O5 1.634071 1_555
Be21 O45 1.639310 1_555
Be21 O93 1.643320 1_555
Be21 O122 1.651465 1_555
Be22 O6 1.634071 1_555
Be22 O46 1.639310 1_555
Be22 O94 1.643320 1_555
Be22 O120 1.651465 1_555
Be23 O7 1.634071 1_555
Be23 O47 1.639310 1_555
Be23 O95 1.643320 1_555
Be23 O123 1.651465 1_555
Be24 O6 1.634071 1_555
Be24 O48 1.639310 1_555
Be24 O96 1.643320 1_555
Be24 O125 1.651465 1_555
Be25 O4 1.634071 1_555
Be25 O49 1.639310 1_555
Be25 O97 1.643320 1_555
Be25 O126 1.651465 1_555
Be26 O5 1.634071 1_555
Be26 O50 1.639310 1_555
Be26 O98 1.643320 1_555
Be26 O124 1.651465 1_555
Be27 O7 1.634071 1_555
Be27 O51 1.639310 1_555
Be27 O99 1.643320 1_555
Be27 O127 1.651465 1_555
Be28 O5 1.634071 1_555
Be28 O52 1.639310 1_555
Be28 O100 1.643320 1_555
Be28 O117 1.651465 1_555
Be29 O6 1.634071 1_555
Be29 O53 1.639310 1_555
Be29 O101 1.643320 1_555
Be29 O118 1.651465 1_555
Be30 O4 1.634071 1_555
Be30 O54 1.639310 1_555
Be30 O102 1.643320 1_555
Be30 O116 1.651465 1_555
Be31 O7 1.634071 1_555
Be31 O55 1.639310 1_555
Be31 O103 1.643320 1_555
Be31 O119 1.651465 1_555
N0 O56 1.206595 1_555
N0 O32 1.301335 1_555
N0 O8 1.303608 1_555
N1 O57 1.206595 1_555
N1 O33 1.301335 1_555
N1 O9 1.303608 1_555
N2 O58 1.206595 1_555
N2 O34 1.301335 1_555
N2 O10 1.303608 1_555
N3 O59 1.206595 1_555
N3 O35 1.301335 1_555
N3 O11 1.303608 1_555
N4 O60 1.206595 1_555
N4 O36 1.301335 1_555
N4 O12 1.303608 1_555
N5 O61 1.206595 1_555
N5 O37 1.301335 1_555
N5 O13 1.303608 1_555
N6 O62 1.206595 1_555
N6 O38 1.301335 1_555
N6 O14 1.303608 1_555
N7 O63 1.206595 1_555
N7 O39 1.301335 1_555
N7 O15 1.303608 1_555
N8 O64 1.206595 1_555
N8 O40 1.301335 1_555
N8 O16 1.303608 1_555
N9 O65 1.206595 1_555
N9 O41 1.301335 1_555
N9 O17 1.303608 1_555
N10 O66 1.206595 1_555
N10 O42 1.301335 1_555
N10 O18 1.303608 1_555
N11 O67 1.206595 1_555
N11 O43 1.301335 1_555
N11 O19 1.303608 1_555
N12 O68 1.206595 1_555
N12 O44 1.301335 1_555
N12 O20 1.303608 1_555
N13 O69 1.206595 1_555
N13 O45 1.301335 1_555
N13 O21 1.303608 1_555
N14 O70 1.206595 1_555
N14 O46 1.301335 1_555
N14 O22 1.303608 1_555
N15 O71 1.206595 1_555
N15 O47 1.301335 1_555
N15 O23 1.303608 1_555
N16 O72 1.206595 1_555
N16 O48 1.301335 1_555
N16 O24 1.303608 1_555
N17 O73 1.206595 1_555
N17 O49 1.301335 1_555
N17 O25 1.303608 1_555
N18 O74 1.206595 1_555
N18 O50 1.301335 1_555
N18 O26 1.303608 1_555
N19 O75 1.206595 1_555
N19 O51 1.301335 1_555
N19 O27 1.303608 1_555
N20 O76 1.206595 1_555
N20 O52 1.301335 1_555
N20 O28 1.303608 1_555
N21 O77 1.206595 1_555
N21 O53 1.301335 1_555
N21 O29 1.303608 1_555
N22 O78 1.206595 1_555
N22 O54 1.301335 1_555
N22 O30 1.303608 1_555
N23 O79 1.206595 1_555
N23 O55 1.301335 1_555
N23 O31 1.303608 1_555
N24 O128 1.204665 1_555
N24 O80 1.300965 1_555
N24 O104 1.309160 1_555
N25 O129 1.204665 1_555
N25 O81 1.300965 1_555
N25 O105 1.309160 1_555
N26 O130 1.204665 1_555
N26 O82 1.300965 1_555
N26 O106 1.309160 1_555
N27 O131 1.204665 1_555
N27 O83 1.300965 1_555
N27 O107 1.309160 1_555
N28 O132 1.204665 1_555
N28 O84 1.300965 1_555
N28 O108 1.309160 1_555
N29 O133 1.204665 1_555
N29 O85 1.300965 1_555
N29 O109 1.309160 1_555
N30 O134 1.204665 1_555
N30 O86 1.300965 1_555
N30 O110 1.309160 1_555
N31 O135 1.204665 1_555
N31 O87 1.300965 1_555
N31 O111 1.309160 1_555
N32 O136 1.204665 1_555
N32 O88 1.300965 1_555
N32 O112 1.309160 1_555
N33 O137 1.204665 1_555
N33 O89 1.300965 1_555
N33 O113 1.309160 1_555
N34 O138 1.204665 1_555
N34 O90 1.300965 1_555
N34 O114 1.309160 1_555
N35 O139 1.204665 1_555
N35 O91 1.300965 1_555
N35 O115 1.309160 1_555
N36 O140 1.204665 1_555
N36 O92 1.300965 1_555
N36 O116 1.309160 1_555
N37 O141 1.204665 1_555
N37 O93 1.300965 1_555
N37 O117 1.309160 1_555
N38 O142 1.204665 1_555
N38 O94 1.300965 1_555
N38 O118 1.309160 1_555
N39 O143 1.204665 1_555
N39 O95 1.300965 1_555
N39 O119 1.309160 1_555
N40 O144 1.204665 1_555
N40 O96 1.300965 1_555
N40 O120 1.309160 1_555
N41 O145 1.204665 1_555
N41 O97 1.300965 1_555
N41 O121 1.309160 1_555
N42 O146 1.204665 1_555
N42 O98 1.300965 1_555
N42 O122 1.309160 1_555
N43 O147 1.204665 1_555
N43 O99 1.300965 1_555
N43 O123 1.309160 1_555
N44 O148 1.204665 1_555
N44 O100 1.300965 1_555
N44 O124 1.309160 1_555
N45 O149 1.204665 1_555
N45 O101 1.300965 1_555
N45 O125 1.309160 1_555
N46 O150 1.204665 1_555
N46 O102 1.300965 1_555
N46 O126 1.309160 1_555
N47 O151 1.204665 1_555
N47 O103 1.300965 1_555
N47 O127 1.309160 1_555
