# generated using pymatgen
data_Sm4FeSe6O
_symmetry_space_group_name_H-M   'P 1'
_cell_length_a   9.55723722
_cell_length_b   9.55723722
_cell_length_c   6.97184700
_cell_angle_alpha   90.00000000
_cell_angle_beta   90.00000000
_cell_angle_gamma   119.99999462
_symmetry_Int_Tables_number   1
_chemical_formula_structural   Sm4FeSe6O
_chemical_formula_sum   'Sm8 Fe2 Se12 O2'
_cell_volume   551.49710212
_cell_formula_units_Z   2
loop_
 _symmetry_equiv_pos_site_id
 _symmetry_equiv_pos_as_xyz
  1  'x, y, z'
loop_
 _atom_site_type_symbol
 _atom_site_label
 _atom_site_symmetry_multiplicity
 _atom_site_fract_x
 _atom_site_fract_y
 _atom_site_fract_z
 _atom_site_occupancy
  Sm  Sm0  1  0.66666700  0.33333300  0.70847100  1
  Sm  Sm1  1  0.33333300  0.66666700  0.20847100  1
  Sm  Sm2  1  0.20072900  0.79927100  0.65949300  1
  Sm  Sm3  1  0.40145900  0.20072900  0.15949300  1
  Sm  Sm4  1  0.79927100  0.59854100  0.15949300  1
  Sm  Sm5  1  0.20072900  0.40145900  0.65949300  1
  Sm  Sm6  1  0.59854100  0.79927100  0.65949300  1
  Sm  Sm7  1  0.79927100  0.20072900  0.15949300  1
  Fe  Fe0  1  0.00000000  0.00000000  0.49655700  1
  Fe  Fe1  1  0.00000000  0.00000000  0.99655700  1
  Se  Se0  1  0.53134000  0.06268100  0.44577100  1
  Se  Se1  1  0.46866000  0.93731900  0.94577100  1
  Se  Se2  1  0.06268100  0.53134000  0.94577100  1
  Se  Se3  1  0.53134000  0.46866000  0.44577100  1
  Se  Se4  1  0.93731900  0.46866000  0.44577100  1
  Se  Se5  1  0.46866000  0.53134000  0.94577100  1
  Se  Se6  1  0.12615500  0.87384500  0.26675100  1
  Se  Se7  1  0.25230900  0.12615500  0.76675100  1
  Se  Se8  1  0.87384500  0.74769100  0.76675100  1
  Se  Se9  1  0.12615500  0.25230900  0.26675100  1
  Se  Se10  1  0.74769100  0.87384500  0.26675100  1
  Se  Se11  1  0.87384500  0.12615500  0.76675100  1
  O  O0  1  0.66666700  0.33333300  0.04129600  1
  O  O1  1  0.33333300  0.66666700  0.54129600  1
loop_
_geom_bond_atom_site_label_1
_geom_bond_atom_site_label_2
_geom_bond_distance
_geom_bond_site_symmetry_2
Fe0 Se10 2.632111 1_445
Fe0 Se9 2.632111 1_555
Fe0 Se6 2.632118 1_545
Fe0 Se8 2.812396 1_445
Fe0 Se7 2.812396 1_555
Fe0 Se11 2.812402 1_455
Fe1 Se8 2.632111 1_445
Fe1 Se7 2.632111 1_555
Fe1 Se11 2.632118 1_455
Fe1 Se9 2.812396 1_556
Fe1 Se10 2.812396 1_446
Fe1 Se6 2.812402 1_546
Se0 Sm0 2.893547 1_555
Se0 Sm3 2.983760 1_555
Se0 Sm7 2.983772 1_555
Se0 Sm6 3.253802 1_545
Se0 Sm2 3.253802 1_545
Se1 Sm1 2.893547 1_556
Se1 Sm6 2.983760 1_555
Se1 Sm2 2.983772 1_555
Se1 Sm3 3.253802 1_566
Se1 Sm7 3.253802 1_566
Se2 Sm1 2.893547 1_556
Se2 Sm5 2.983760 1_555
Se2 Sm2 2.983772 1_555
Se2 Sm4 3.253802 1_456
Se2 Sm7 3.253802 1_456
Se3 Sm0 2.893560 1_555
Se3 Sm4 2.983773 1_555
Se3 Sm3 2.983773 1_555
Se3 Sm5 3.253802 1_555
Se3 Sm6 3.253802 1_555
Se4 Sm0 2.893547 1_555
Se4 Sm4 2.983760 1_555
Se4 Sm7 2.983772 1_555
Se4 Sm5 3.253802 1_655
Se4 Sm2 3.253802 1_655
Se5 Sm1 2.893560 1_556
Se5 Sm6 2.983773 1_555
Se5 Sm5 2.983773 1_555
Se5 Sm3 3.253802 1_556
Se5 Sm4 3.253802 1_556
Se6 Sm2 3.003550 1_555
Se6 Sm3 3.003694 1_565
Se6 Sm4 3.003694 1_455
Se6 Sm1 3.453532 1_555
Se7 Sm3 3.003556 1_556
Se7 Sm5 3.003694 1_555
Se7 Sm2 3.003694 1_545
Se7 Sm0 3.453548 1_555
Se8 Sm4 3.003556 1_556
Se8 Sm6 3.003694 1_555
Se8 Sm2 3.003694 1_655
Se8 Sm0 3.453548 1_555
Se9 Sm5 3.003556 1_555
Se9 Sm3 3.003694 1_555
Se9 Sm7 3.003694 1_455
Se9 Sm1 3.453548 1_555
Se10 Sm6 3.003556 1_555
Se10 Sm4 3.003694 1_555
Se10 Sm7 3.003694 1_565
Se10 Sm1 3.453548 1_555
Se11 Sm7 3.003550 1_556
Se11 Sm5 3.003694 1_655
Se11 Sm6 3.003694 1_545
Se11 Sm0 3.453532 1_555
O0 Sm0 2.320405 1_554
O0 Sm7 2.344658 1_555
O0 Sm4 2.344658 1_555
O0 Sm3 2.344658 1_555
O1 Sm1 2.320405 1_555
O1 Sm2 2.344658 1_555
O1 Sm6 2.344658 1_555
O1 Sm5 2.344658 1_555
