# generated using pymatgen
data_Mg16Al12Tl
_symmetry_space_group_name_H-M   'P 1'
_cell_length_a   9.35300447
_cell_length_b   9.14062192
_cell_length_c   9.07697143
_cell_angle_alpha   108.99163698
_cell_angle_beta   109.94834419
_cell_angle_gamma   110.22093530
_symmetry_Int_Tables_number   1
_chemical_formula_structural   Mg16Al12Tl
_chemical_formula_sum   'Mg16 Al12 Tl1'
_cell_volume   591.74433522
_cell_formula_units_Z   1
loop_
 _symmetry_equiv_pos_site_id
 _symmetry_equiv_pos_as_xyz
  1  'x, y, z'
loop_
 _atom_site_type_symbol
 _atom_site_label
 _atom_site_symmetry_multiplicity
 _atom_site_fract_x
 _atom_site_fract_y
 _atom_site_fract_z
 _atom_site_occupancy
  Mg  Mg0  1  0.00125300  0.00133300  0.00000000  1
  Mg  Mg1  1  0.31299500  0.60355600  0.00000000  1
  Mg  Mg2  1  0.00153400  0.34533400  0.00000000  1
  Mg  Mg3  1  0.33732700  0.00430000  0.00000000  1
  Mg  Mg4  1  0.67982900  0.68367200  0.28429500  1
  Mg  Mg5  1  0.60034800  0.99931600  0.31308500  1
  Mg  Mg6  1  0.00393200  0.60437100  0.31685100  1
  Mg  Mg7  1  0.00335700  0.99649400  0.34859400  1
  Mg  Mg8  1  0.71220000  0.39479100  0.39425200  1
  Mg  Mg9  1  0.39878400  0.71692400  0.40122500  1
  Mg  Mg10  1  0.99755800  0.31569900  0.59877600  1
  Mg  Mg11  1  0.31794700  0.00053900  0.60574800  1
  Mg  Mg12  1  0.65476300  0.64789900  0.65140600  1
  Mg  Mg13  1  0.68708100  0.28752100  0.68314900  1
  Mg  Mg14  1  0.28726400  0.68623200  0.68691600  1
  Mg  Mg15  1  0.39553600  0.39937900  0.71570600  1
  Al  Al0  1  0.82385600  0.64589900  0.00000000  1
  Al  Al1  1  0.63318100  0.80904500  0.00000000  1
  Al  Al2  1  0.35832500  0.36773700  0.18382600  1
  Al  Al3  1  0.18738800  0.82038600  0.18694700  1
  Al  Al4  1  0.82558000  0.17879500  0.18814100  1
  Al  Al5  1  0.18078600  0.36649500  0.36800700  1
  Al  Al6  1  0.36822000  0.18519700  0.37012500  1
  Al  Al7  1  0.99809600  0.81507400  0.62987700  1
  Al  Al8  1  0.81278200  0.99849000  0.63199500  1
  Al  Al9  1  0.63744000  0.99065400  0.81186000  1
  Al  Al10  1  0.00044100  0.63344100  0.81305300  1
  Al  Al11  1  0.17449800  0.18391100  0.81617300  1
  Tl  Tl0  1  0.60769900  0.31752600  0.00000000  1
loop_
_geom_bond_atom_site_label_1
_geom_bond_atom_site_label_2
_geom_bond_distance
_geom_bond_site_symmetry_2
Mg0 Mg3 3.134031 1_555
Mg0 Mg2 3.143476 1_555
Mg0 Mg7 3.172313 1_545
Mg0 Mg12 3.172316 1_444
Mg1 Mg2 3.050257 1_555
Mg1 Mg14 3.124420 1_554
Mg1 Mg5 3.124422 1_555
Mg1 Mg10 3.155324 1_454
Mg1 Mg9 3.155327 1_555
Mg1 Mg15 3.155787 1_554
Mg1 Mg4 3.155787 1_555
Mg2 Mg6 3.060309 1_555
Mg3 Mg5 3.085684 1_545
Mg3 Tl0 3.096294 1_555
Mg4 Mg7 3.066049 1_655
Mg4 Tl0 3.153645 1_555
Mg4 Mg5 3.173276 1_555
Mg4 Mg8 3.181529 1_555
Mg4 Mg9 3.220953 1_555
Mg4 Mg6 3.293764 1_655
Mg5 Mg8 3.135454 1_565
Mg5 Mg9 3.141062 1_555
Mg6 Tl0 3.159513 1_455
Mg6 Mg8 3.190489 1_455
Mg6 Mg9 3.195996 1_555
Mg8 Tl0 3.122779 1_555
Mg10 Mg7 3.090954 1_645
Mg10 Mg14 3.141076 1_655
Mg10 Mg8 3.149429 1_555
Mg10 Mg5 3.163575 1_545
Mg10 Mg13 3.195984 1_555
Mg10 Mg15 3.220975 1_655
Mg11 Mg7 3.047873 1_545
Mg11 Tl0 3.122780 1_556
Mg11 Mg6 3.134926 1_545
Mg11 Mg14 3.135453 1_545
Mg11 Mg9 3.149440 1_545
Mg11 Mg15 3.181538 1_555
Mg11 Mg13 3.190499 1_555
Mg12 Mg8 3.047874 1_555
Mg12 Mg15 3.066030 1_555
Mg12 Mg9 3.090951 1_555
Mg13 Mg2 3.060313 1_656
Mg13 Mg5 3.128125 1_545
Mg13 Mg8 3.134924 1_555
Mg13 Tl0 3.159515 1_556
Mg13 Mg15 3.293754 1_555
Mg14 Mg3 3.085678 1_566
Mg14 Mg6 3.128128 1_555
Mg14 Mg9 3.163581 1_555
Mg14 Mg15 3.173273 1_555
Mg15 Tl0 3.153644 1_556
Al0 Al1 2.691237 1_555
Al0 Al10 2.745335 1_654
Al0 Al3 2.745335 1_655
Al0 Tl0 2.983567 1_555
Al0 Mg13 3.016562 1_554
Al0 Mg6 3.016568 1_655
Al0 Mg12 3.025988 1_554
Al0 Mg7 3.025993 1_655
Al0 Mg0 3.095451 1_665
Al0 Mg15 3.272081 1_554
Al0 Mg4 3.272096 1_555
Al1 Al9 2.742162 1_554
Al1 Al4 2.742169 1_565
Al1 Mg1 2.933908 1_555
Al1 Mg14 2.990488 1_554
Al1 Mg5 2.990496 1_555
Al1 Mg15 3.108839 1_554
Al1 Mg4 3.108854 1_555
Al1 Mg7 3.135326 1_655
Al1 Mg12 3.135328 1_554
Al1 Mg0 3.279911 1_665
Al2 Al5 2.728729 1_555
Al2 Al6 2.736517 1_555
Al2 Mg4 2.936881 1_555
Al2 Mg9 2.963248 1_555
Al2 Mg2 3.076999 1_555
Al2 Mg8 3.078511 1_555
Al2 Mg3 3.094558 1_555
Al2 Mg0 3.159565 1_555
Al2 Mg1 3.178084 1_555
Al3 Al6 2.705259 1_565
Al3 Mg9 2.907297 1_555
Al3 Mg6 2.964300 1_555
Al3 Mg1 2.994784 1_555
Al3 Mg3 3.085935 1_565
Al3 Mg7 3.131799 1_555
Al3 Mg11 3.165747 1_565
Al3 Mg5 3.209503 1_555
Al3 Mg0 3.232240 1_565
Al4 Al5 2.679916 1_655
Al4 Al9 2.775536 1_544
Al4 Mg5 2.977832 1_545
Al4 Mg8 2.986577 1_555
Al4 Tl0 3.081961 1_555
Al4 Mg7 3.083038 1_645
Al4 Mg10 3.086740 1_555
Al4 Mg2 3.133680 1_655
Al4 Mg0 3.193966 1_655
Al4 Mg6 3.241350 1_655
Al5 Al6 2.797477 1_555
Al5 Mg14 2.902987 1_555
Al5 Mg15 2.953824 1_555
Al5 Mg9 2.990889 1_555
Al5 Mg2 3.088748 1_555
Al5 Mg7 3.123450 1_545
Al5 Mg10 3.173729 1_455
Al5 Mg0 3.187500 1_555
Al5 Mg6 3.209166 1_555
Al6 Mg13 2.898644 1_555
Al6 Mg15 2.974582 1_555
Al6 Mg8 3.009041 1_555
Al6 Mg3 3.081608 1_555
Al6 Mg7 3.148878 1_545
Al6 Mg11 3.182990 1_555
Al6 Mg0 3.218883 1_555
Al6 Mg5 3.257765 1_545
Al7 Al8 2.797461 1_555
Al7 Mg6 2.898663 1_655
Al7 Mg4 2.974589 1_555
Al7 Mg11 3.009032 1_665
Al7 Mg3 3.081596 1_666
Al7 Mg12 3.148880 1_555
Al7 Mg8 3.183002 1_555
Al7 Mg0 3.218869 1_666
Al7 Mg14 3.257771 1_655
Al8 Al9 2.679925 1_555
Al8 Mg5 2.902994 1_555
Al8 Mg4 2.953832 1_555
Al8 Mg10 2.990870 1_565
Al8 Mg2 3.088733 1_666
Al8 Mg12 3.123468 1_555
Al8 Mg9 3.173736 1_555
Al8 Mg0 3.187489 1_666
Al8 Mg13 3.209178 1_565
Al9 Mg14 2.977828 1_555
Al9 Mg11 2.986595 1_565
Al9 Tl0 3.081964 1_566
Al9 Mg12 3.083042 1_555
Al9 Mg9 3.086738 1_555
Al9 Mg2 3.133676 1_666
Al9 Mg0 3.193956 1_666
Al9 Mg13 3.241365 1_565
Al10 Al7 2.705244 1_455
Al10 Al3 2.757929 1_556
Al10 Mg10 2.907303 1_455
Al10 Mg13 2.964305 1_455
Al10 Mg1 2.994795 1_556
Al10 Mg3 3.085925 1_566
Al10 Mg12 3.131784 1_455
Al10 Mg8 3.165745 1_455
Al10 Mg14 3.209506 1_555
Al10 Mg0 3.232225 1_566
Al11 Al2 2.711894 1_556
Al11 Al8 2.728699 1_445
Al11 Al7 2.736502 1_445
Al11 Mg15 2.936893 1_555
Al11 Mg10 2.963237 1_455
Al11 Mg2 3.076996 1_556
Al11 Mg11 3.078505 1_555
Al11 Mg3 3.094568 1_556
Al11 Mg0 3.159569 1_556
Al11 Mg1 3.178082 1_556
