# generated using pymatgen
data_TlHg6S4Br5
_symmetry_space_group_name_H-M   'P 1'
_cell_length_a   11.24555046
_cell_length_b   11.24555046
_cell_length_c   11.24555046
_cell_angle_alpha   99.37374461
_cell_angle_beta   99.37374461
_cell_angle_gamma   132.39611306
_symmetry_Int_Tables_number   1
_chemical_formula_structural   TlHg6S4Br5
_chemical_formula_sum   'Tl2 Hg12 S8 Br10'
_cell_volume   960.92334745
_cell_formula_units_Z   2
loop_
 _symmetry_equiv_pos_site_id
 _symmetry_equiv_pos_as_xyz
  1  'x, y, z'
loop_
 _atom_site_type_symbol
 _atom_site_label
 _atom_site_symmetry_multiplicity
 _atom_site_fract_x
 _atom_site_fract_y
 _atom_site_fract_z
 _atom_site_occupancy
  Tl  Tl0  1  0.75000000  0.25000000  0.50000000  1
  Tl  Tl1  1  0.25000000  0.75000000  0.50000000  1
  Hg  Hg0  1  0.30014800  0.43887900  0.21429100  1
  Hg  Hg1  1  0.22458800  0.08585700  0.78570900  1
  Hg  Hg2  1  0.08585700  0.30014800  0.86126900  1
  Hg  Hg3  1  0.43887900  0.22458800  0.13873100  1
  Hg  Hg4  1  0.69985200  0.56112100  0.78570900  1
  Hg  Hg5  1  0.77541200  0.91414300  0.21429100  1
  Hg  Hg6  1  0.91414300  0.69985200  0.13873100  1
  Hg  Hg7  1  0.56112100  0.77541200  0.86126900  1
  Hg  Hg8  1  0.23055700  0.14123600  0.37179300  1
  Hg  Hg9  1  0.76944300  0.85876400  0.62820700  1
  Hg  Hg10  1  0.85876400  0.23055700  0.08932100  1
  Hg  Hg11  1  0.14123600  0.76944300  0.91067900  1
  S  S0  1  0.46413600  0.39421800  0.32810600  1
  S  S1  1  0.06611300  0.13603100  0.67189400  1
  S  S2  1  0.13603100  0.46413600  0.06991800  1
  S  S3  1  0.39421800  0.06611300  0.93008200  1
  S  S4  1  0.53586400  0.60578200  0.67189400  1
  S  S5  1  0.93388700  0.86396900  0.32810600  1
  S  S6  1  0.86396900  0.53586400  0.93008200  1
  S  S7  1  0.60578200  0.93388700  0.06991800  1
  Br  Br0  1  0.50000000  0.50000000  0.00000000  1
  Br  Br1  1  0.00000000  0.00000000  0.00000000  1
  Br  Br2  1  0.42830600  0.17264000  0.60094500  1
  Br  Br3  1  0.57169400  0.82736000  0.39905500  1
  Br  Br4  1  0.82736000  0.42830600  0.25566600  1
  Br  Br5  1  0.17264000  0.57169400  0.74433400  1
  Br  Br6  1  0.06928600  0.31349000  0.38277600  1
  Br  Br7  1  0.93071400  0.68651000  0.61722400  1
  Br  Br8  1  0.68651000  0.06928600  0.75579600  1
  Br  Br9  1  0.31349000  0.93071400  0.24420400  1
loop_
_geom_bond_atom_site_label_1
_geom_bond_atom_site_label_2
_geom_bond_distance
_geom_bond_site_symmetry_2
Hg0 S0 2.445558 1_555
Hg0 S2 2.450268 1_555
Hg1 S1 2.445558 1_555
Hg1 S3 2.450268 1_555
Hg2 S2 2.445553 1_556
Hg2 S1 2.450276 1_555
Hg3 S3 2.445553 1_554
Hg3 S0 2.450276 1_555
Hg4 S4 2.445558 1_555
Hg4 S6 2.450268 1_555
Hg5 S5 2.445558 1_555
Hg5 S7 2.450268 1_555
Hg6 S6 2.445553 1_554
Hg6 S5 2.450276 1_555
Hg7 S7 2.445553 1_556
Hg7 S4 2.450276 1_555
Hg8 S0 2.456244 1_555
Hg8 S5 2.456253 1_445
Hg9 S4 2.456244 1_555
Hg9 S1 2.456253 1_665
Hg10 S2 2.456251 1_655
Hg10 S7 2.456251 1_545
Hg11 S3 2.456251 1_565
Hg11 S6 2.456251 1_455
Br2 Hg8 2.913485 1_555
Br2 Hg4 3.116730 1_555
Br2 Hg1 3.116737 1_555
Br3 Hg9 2.913485 1_555
Br3 Hg0 3.116730 1_555
Br3 Hg5 3.116737 1_555
Br4 Hg10 2.913493 1_555
Br4 Hg6 3.116727 1_555
Br4 Hg3 3.116727 1_555
Br5 Hg11 2.913493 1_555
Br5 Hg7 3.116727 1_555
Br5 Hg2 3.116727 1_555
Br6 Hg0 3.139166 1_555
Br6 Hg5 3.139166 1_445
Br7 Hg4 3.139166 1_555
Br7 Hg1 3.139166 1_665
Br8 Hg2 3.139166 1_655
Br8 Hg7 3.139166 1_545
Br9 Hg3 3.139166 1_565
Br9 Hg6 3.139166 1_455
