# generated using pymatgen
data_Eu2(ZnNi)5
_symmetry_space_group_name_H-M   'P 1'
_cell_length_a   3.93724335
_cell_length_b   5.25858267
_cell_length_c   8.93951734
_cell_angle_alpha   89.99998686
_cell_angle_beta   90.00000000
_cell_angle_gamma   90.00000000
_symmetry_Int_Tables_number   1
_chemical_formula_structural   Eu2(ZnNi)5
_chemical_formula_sum   'Eu2 Zn5 Ni5'
_cell_volume   185.08662451
_cell_formula_units_Z   1
loop_
 _symmetry_equiv_pos_site_id
 _symmetry_equiv_pos_as_xyz
  1  'x, y, z'
loop_
 _atom_site_type_symbol
 _atom_site_label
 _atom_site_symmetry_multiplicity
 _atom_site_fract_x
 _atom_site_fract_y
 _atom_site_fract_z
 _atom_site_occupancy
  Eu  Eu0  1  -0.00000000  0.50000000  -0.00000000  1
  Eu  Eu1  1  -0.00000000  0.00000000  0.50000000  1
  Zn  Zn0  1  0.50000000  0.00000000  -0.00000000  1
  Zn  Zn1  1  0.50000000  0.74734897  0.25711647  1
  Zn  Zn2  1  0.50000000  0.25265103  0.74288353  1
  Zn  Zn3  1  0.50000000  0.25265216  0.25711707  1
  Zn  Zn4  1  0.50000000  0.74734784  0.74288293  1
  Ni  Ni0  1  -0.00000000  0.50000086  0.34219255  1
  Ni  Ni1  1  -0.00000000  -0.00000010  0.83372227  1
  Ni  Ni2  1  -0.00000000  0.00000010  0.16627773  1
  Ni  Ni3  1  -0.00000000  0.49999914  0.65780745  1
  Ni  Ni4  1  0.50000000  0.50000000  0.50000000  1
loop_
_geom_bond_atom_site_label_1
_geom_bond_atom_site_label_2
_geom_bond_distance
_geom_bond_site_symmetry_2
Eu0 Ni2 3.020377 1_555
Eu0 Ni1 3.020377 1_564
Eu0 Ni1 3.020379 1_554
Eu0 Ni2 3.020379 1_565
Eu0 Ni0 3.059036 1_555
Eu0 Ni3 3.059036 1_554
Eu0 Zn0 3.284607 1_455
Eu0 Zn0 3.284607 1_555
Eu0 Zn0 3.284607 1_465
Eu0 Zn0 3.284607 1_565
Eu0 Zn2 3.293994 1_454
Eu0 Zn2 3.293994 1_554
Eu0 Zn1 3.293994 1_555
Eu0 Zn1 3.293994 1_455
Eu0 Zn4 3.293995 1_554
Eu0 Zn3 3.293995 1_555
Eu0 Zn3 3.293995 1_455
Eu0 Zn4 3.293995 1_454
Eu1 Ni2 2.983316 1_555
Eu1 Ni1 2.983316 1_555
Eu1 Ni3 2.983838 1_555
Eu1 Ni0 2.983838 1_545
Eu1 Ni3 2.983845 1_545
Eu1 Ni0 2.983845 1_555
Eu1 Zn3 3.217916 1_555
Eu1 Zn3 3.217916 1_455
Eu1 Zn4 3.217916 1_545
Eu1 Zn4 3.217916 1_445
Eu1 Zn1 3.217917 1_445
Eu1 Zn1 3.217917 1_545
Eu1 Zn2 3.217917 1_455
Eu1 Zn2 3.217917 1_555
Eu1 Ni4 3.284607 1_445
Eu1 Ni4 3.284607 1_555
Eu1 Ni4 3.284607 1_455
Eu1 Ni4 3.284607 1_545
Zn0 Zn2 2.654850 1_554
Zn0 Zn1 2.654850 1_545
Zn0 Zn4 2.654858 1_544
Zn0 Zn3 2.654858 1_555
Zn1 Zn3 2.601404 1_555
Zn1 Zn3 2.657179 1_565
Zn2 Zn4 2.601404 1_555
Zn2 Zn4 2.657179 1_545
Ni0 Ni4 2.421902 1_455
Ni0 Ni4 2.421902 1_555
Ni0 Zn1 2.479055 1_555
Ni0 Zn1 2.479055 1_455
Ni0 Zn3 2.479055 1_555
Ni0 Zn3 2.479055 1_455
Ni1 Zn0 2.466776 1_556
Ni1 Zn0 2.466776 1_456
Ni1 Zn2 2.509989 1_555
Ni1 Zn2 2.509989 1_455
Ni1 Zn4 2.509994 1_545
Ni1 Zn4 2.509994 1_445
Ni2 Zn0 2.466776 1_555
Ni2 Zn0 2.466776 1_455
Ni2 Zn1 2.509989 1_445
Ni2 Zn1 2.509989 1_545
Ni2 Zn3 2.509994 1_555
Ni2 Zn3 2.509994 1_455
Ni3 Ni4 2.421902 1_455
Ni3 Ni4 2.421902 1_555
Ni3 Zn2 2.479055 1_455
Ni3 Zn2 2.479055 1_555
Ni3 Zn4 2.479055 1_455
Ni3 Zn4 2.479055 1_555
Ni4 Zn3 2.531042 1_555
Ni4 Zn4 2.531042 1_555
Ni4 Zn2 2.531049 1_555
Ni4 Zn1 2.531049 1_555
