# generated using pymatgen
data_Nb3Al2N
_symmetry_space_group_name_H-M   'P 1'
_cell_length_a   7.06342329
_cell_length_b   7.06342329
_cell_length_c   7.06342329
_cell_angle_alpha   90.00000000
_cell_angle_beta   90.00000000
_cell_angle_gamma   90.00000000
_symmetry_Int_Tables_number   1
_chemical_formula_structural   Nb3Al2N
_chemical_formula_sum   'Nb12 Al8 N4'
_cell_volume   352.40795154
_cell_formula_units_Z   4
loop_
 _symmetry_equiv_pos_site_id
 _symmetry_equiv_pos_as_xyz
  1  'x, y, z'
loop_
 _atom_site_type_symbol
 _atom_site_label
 _atom_site_symmetry_multiplicity
 _atom_site_fract_x
 _atom_site_fract_y
 _atom_site_fract_z
 _atom_site_occupancy
  Nb  Nb0  1  0.79543796  0.95456204  0.37500000  1
  Nb  Nb1  1  0.70456204  0.04543796  0.87500000  1
  Nb  Nb2  1  0.20456204  0.45456204  0.12500000  1
  Nb  Nb3  1  0.29543796  0.54543796  0.62500000  1
  Nb  Nb4  1  0.95456204  0.37500000  0.79543796  1
  Nb  Nb5  1  0.04543796  0.87500000  0.70456204  1
  Nb  Nb6  1  0.45456204  0.12500000  0.20456204  1
  Nb  Nb7  1  0.54543796  0.62500000  0.29543796  1
  Nb  Nb8  1  0.37500000  0.79543796  0.95456204  1
  Nb  Nb9  1  0.87500000  0.70456204  0.04543796  1
  Nb  Nb10  1  0.12500000  0.20456204  0.45456204  1
  Nb  Nb11  1  0.62500000  0.29543796  0.54543796  1
  Al  Al0  1  0.17855162  0.82144838  0.32144838  1
  Al  Al1  1  0.32144838  0.17855162  0.82144838  1
  Al  Al2  1  0.82144838  0.32144838  0.17855162  1
  Al  Al3  1  0.67855162  0.67855162  0.67855162  1
  Al  Al4  1  0.57144838  0.42855162  0.92855162  1
  Al  Al5  1  0.42855162  0.92855162  0.57144838  1
  Al  Al6  1  0.92855162  0.57144838  0.42855162  1
  Al  Al7  1  0.07144838  0.07144838  0.07144838  1
  N  N0  1  0.87500000  0.12500000  0.62500000  1
  N  N1  1  0.62500000  0.87500000  0.12500000  1
  N  N2  1  0.12500000  0.62500000  0.87500000  1
  N  N3  1  0.37500000  0.37500000  0.37500000  1
loop_
_geom_bond_atom_site_label_1
_geom_bond_atom_site_label_2
_geom_bond_distance
_geom_bond_site_symmetry_2
Al0 Al6 2.609370 1_455
Al0 Al5 2.609370 1_555
Al0 Al7 2.609370 1_565
Al0 Nb10 2.889649 1_565
Al0 Nb5 2.889649 1_555
Al0 Nb0 2.889649 1_455
Al0 Nb7 2.945321 1_555
Al0 Nb2 2.945321 1_555
Al0 Nb8 2.945321 1_554
Al0 Nb3 3.013258 1_555
Al0 Nb6 3.013258 1_565
Al0 Nb9 3.013258 1_455
Al1 Al5 2.609370 1_545
Al1 Al4 2.609370 1_555
Al1 Al7 2.609370 1_556
Al1 Nb6 2.889649 1_556
Al1 Nb1 2.889649 1_555
Al1 Nb8 2.889649 1_545
Al1 Nb3 2.945321 1_555
Al1 Nb10 2.945321 1_555
Al1 Nb4 2.945321 1_455
Al1 Nb11 3.013258 1_555
Al1 Nb5 3.013258 1_545
Al1 Nb2 3.013258 1_556
Al2 Al4 2.609370 1_554
Al2 Al6 2.609370 1_555
Al2 Al7 2.609370 1_655
Al2 Nb2 2.889649 1_655
Al2 Nb9 2.889649 1_555
Al2 Nb4 2.889649 1_554
Al2 Nb6 2.945321 1_555
Al2 Nb11 2.945321 1_555
Al2 Nb0 2.945321 1_545
Al2 Nb7 3.013258 1_555
Al2 Nb10 3.013258 1_655
Al2 Nb1 3.013258 1_554
Al3 Al6 2.609370 1_555
Al3 Al4 2.609370 1_555
Al3 Al5 2.609370 1_555
Al3 Nb11 2.889649 1_555
Al3 Nb3 2.889649 1_555
Al3 Nb7 2.889649 1_555
Al3 Nb1 2.945321 1_565
Al3 Nb5 2.945321 1_655
Al3 Nb9 2.945321 1_556
Al3 Nb4 3.013258 1_555
Al3 Nb8 3.013258 1_555
Al3 Nb0 3.013258 1_555
Al4 Nb1 2.889649 1_555
Al4 Nb11 2.889649 1_555
Al4 Nb4 2.889649 1_555
Al4 Nb2 2.945321 1_556
Al4 Nb8 2.945321 1_555
Al4 Nb7 2.945321 1_556
Al4 Nb6 3.013258 1_556
Al4 Nb9 3.013258 1_556
Al4 Nb3 3.013258 1_555
Al5 Nb8 2.889649 1_555
Al5 Nb5 2.889649 1_555
Al5 Nb3 2.889649 1_555
Al5 Nb0 2.945321 1_555
Al5 Nb6 2.945321 1_565
Al5 Nb11 2.945321 1_565
Al5 Nb7 3.013258 1_555
Al5 Nb10 3.013258 1_565
Al5 Nb1 3.013258 1_565
Al6 Nb9 2.889649 1_555
Al6 Nb0 2.889649 1_555
Al6 Nb7 2.889649 1_555
Al6 Nb4 2.945321 1_555
Al6 Nb10 2.945321 1_655
Al6 Nb3 2.945321 1_655
Al6 Nb11 3.013258 1_555
Al6 Nb2 3.013258 1_655
Al6 Nb5 3.013258 1_655
Al7 Nb2 2.889649 1_555
Al7 Nb6 2.889649 1_555
Al7 Nb10 2.889649 1_555
Al7 Nb5 2.945321 1_544
Al7 Nb9 2.945321 1_445
Al7 Nb1 2.945321 1_454
Al7 Nb0 3.013258 1_445
Al7 Nb4 3.013258 1_454
Al7 Nb8 3.013258 1_544
N0 Nb4 2.209838 1_555
N0 Nb1 2.209838 1_555
N0 Nb10 2.209838 1_655
N0 Nb0 2.209838 1_545
N0 Nb11 2.209838 1_555
N0 Nb5 2.209838 1_645
N1 Nb7 2.209838 1_555
N1 Nb6 2.209838 1_565
N1 Nb9 2.209838 1_555
N1 Nb8 2.209838 1_554
N1 Nb0 2.209838 1_555
N1 Nb1 2.209838 1_564
N2 Nb5 2.209838 1_555
N2 Nb2 2.209838 1_556
N2 Nb8 2.209838 1_555
N2 Nb4 2.209838 1_455
N2 Nb3 2.209838 1_555
N2 Nb9 2.209838 1_456
N3 Nb10 2.209838 1_555
N3 Nb7 2.209838 1_555
N3 Nb2 2.209838 1_555
N3 Nb11 2.209838 1_555
N3 Nb6 2.209838 1_555
N3 Nb3 2.209838 1_555
