# generated using pymatgen
data_V4CoH4C4(NO5)2
_symmetry_space_group_name_H-M   'P 1'
_cell_length_a   8.05117203
_cell_length_b   8.05117203
_cell_length_c   11.68442400
_cell_angle_alpha   90.00000000
_cell_angle_beta   90.00000000
_cell_angle_gamma   127.65074824
_symmetry_Int_Tables_number   1
_chemical_formula_structural   V4CoH4C4(NO5)2
_chemical_formula_sum   'V8 Co2 H8 C8 N4 O20'
_cell_volume   599.67093078
_cell_formula_units_Z   2
loop_
 _symmetry_equiv_pos_site_id
 _symmetry_equiv_pos_as_xyz
  1  'x, y, z'
loop_
 _atom_site_type_symbol
 _atom_site_label
 _atom_site_symmetry_multiplicity
 _atom_site_fract_x
 _atom_site_fract_y
 _atom_site_fract_z
 _atom_site_occupancy
  V  V0  1  0.34743800  0.92258200  0.60417400  1
  V  V1  1  0.07741800  0.65256200  0.39582500  1
  V  V2  1  0.34743800  0.92258200  0.89582500  1
  V  V3  1  0.07741800  0.65256200  0.10417500  1
  V  V4  1  0.65256200  0.07741800  0.39582600  1
  V  V5  1  0.92258200  0.34743800  0.60417400  1
  V  V6  1  0.65256200  0.07741800  0.10417500  1
  V  V7  1  0.92258200  0.34743800  0.89582600  1
  Co  Co0  1  0.17455100  0.17455100  0.75000000  1
  Co  Co1  1  0.82544900  0.82544900  0.25000000  1
  H  H0  1  0.85116600  0.85116600  0.57128100  1
  H  H1  1  0.14883400  0.14883400  0.42871900  1
  H  H2  1  0.85116600  0.85116600  0.92871900  1
  H  H3  1  0.14883400  0.14883400  0.07128100  1
  H  H4  1  0.49605200  0.49605200  0.57391600  1
  H  H5  1  0.50394800  0.50394800  0.42608400  1
  H  H6  1  0.49605200  0.49605200  0.92608400  1
  H  H7  1  0.50394800  0.50394800  0.07391600  1
  C  C0  1  0.77360700  0.77360700  0.65158000  1
  C  C1  1  0.22639300  0.22639300  0.34842000  1
  C  C2  1  0.77360700  0.77360700  0.84842000  1
  C  C3  1  0.22639300  0.22639300  0.15158000  1
  C  C4  1  0.57732300  0.57732300  0.65237500  1
  C  C5  1  0.42267700  0.42267700  0.34762500  1
  C  C6  1  0.57732300  0.57732300  0.84762500  1
  C  C7  1  0.42267700  0.42267700  0.15237500  1
  N  N0  1  0.47916500  0.47916500  0.75000000  1
  N  N1  1  0.52083500  0.52083500  0.25000000  1
  N  N2  1  0.87091900  0.87091900  0.75000000  1
  N  N3  1  0.12908100  0.12908100  0.25000000  1
  O  O0  1  0.27458100  0.07585100  0.62338300  1
  O  O1  1  0.92414900  0.72541900  0.37661700  1
  O  O2  1  0.27458100  0.07585100  0.87661700  1
  O  O3  1  0.92414900  0.72541900  0.12338300  1
  O  O4  1  0.72541900  0.92414900  0.37661700  1
  O  O5  1  0.07585100  0.27458100  0.62338300  1
  O  O6  1  0.72541900  0.92414900  0.12338300  1
  O  O7  1  0.07585100  0.27458100  0.87661700  1
  O  O8  1  0.35695200  0.90105400  0.43179200  1
  O  O9  1  0.09894600  0.64304800  0.56820800  1
  O  O10  1  0.35695200  0.90105400  0.06820800  1
  O  O11  1  0.09894600  0.64304800  0.93179200  1
  O  O12  1  0.64304800  0.09894600  0.56820800  1
  O  O13  1  0.90105400  0.35695200  0.43179200  1
  O  O14  1  0.64304800  0.09894600  0.93179200  1
  O  O15  1  0.90105400  0.35695200  0.06820800  1
  O  O16  1  0.37565700  0.86205500  0.75000000  1
  O  O17  1  0.13794500  0.62434300  0.25000000  1
  O  O18  1  0.62434300  0.13794500  0.25000000  1
  O  O19  1  0.86205500  0.37565700  0.75000000  1
loop_
_geom_bond_atom_site_label_1
_geom_bond_atom_site_label_2
_geom_bond_distance
_geom_bond_site_symmetry_2
Co0 O5 2.061721 1_555
Co0 O2 2.061721 1_555
Co0 O7 2.061721 1_555
Co0 O0 2.061721 1_555
Co0 N2 2.156662 1_445
Co0 N0 2.163637 1_555
Co1 O1 2.061721 1_555
Co1 O4 2.061721 1_555
Co1 O3 2.061721 1_555
Co1 O6 2.061721 1_555
Co1 N3 2.156662 1_665
Co1 N1 2.163637 1_555
C0 H0 1.088021 1_555
C0 N2 1.341718 1_555
C0 C4 1.394213 1_555
C1 H1 1.088021 1_555
C1 N3 1.341718 1_555
C1 C5 1.394213 1_555
C2 H2 1.088021 1_555
C2 N2 1.341718 1_555
C2 C6 1.394213 1_555
C3 H3 1.088021 1_555
C3 N3 1.341718 1_555
C3 C7 1.394213 1_555
C4 H4 1.083353 1_555
C4 N0 1.336889 1_555
C5 H5 1.083353 1_555
C5 N1 1.336889 1_555
C6 H6 1.083353 1_555
C6 N0 1.336889 1_555
C7 H7 1.083353 1_555
C7 N1 1.336889 1_555
O0 V0 1.673772 1_545
O1 V1 1.673771 1_655
O2 V2 1.673771 1_545
O3 V3 1.673771 1_655
O4 V4 1.673772 1_565
O5 V5 1.673772 1_455
O6 V6 1.673771 1_565
O7 V7 1.673772 1_455
O8 V4 1.930957 1_565
O8 V1 1.934811 1_555
O8 V0 2.027084 1_555
O9 V5 1.930957 1_455
O9 V0 1.934809 1_555
O9 V1 2.027095 1_555
O10 V6 1.930959 1_565
O10 V3 1.934811 1_555
O10 V2 2.027095 1_554
O11 V7 1.930957 1_455
O11 V2 1.934811 1_555
O11 V3 2.027095 1_556
O12 V0 1.930957 1_545
O12 V5 1.934809 1_555
O12 V4 2.027084 1_555
O13 V1 1.930959 1_655
O13 V4 1.934809 1_555
O13 V5 2.027084 1_555
O14 V2 1.930959 1_545
O14 V7 1.934809 1_555
O14 V6 2.027095 1_556
O15 V3 1.930959 1_655
O15 V6 1.934811 1_555
O15 V7 2.027084 1_554
O16 V2 1.824161 1_555
O16 V0 1.824172 1_555
O17 V1 1.824161 1_555
O17 V3 1.824161 1_555
O18 V6 1.824161 1_555
O18 V4 1.824172 1_555
O19 V5 1.824172 1_555
O19 V7 1.824172 1_555
