# generated using pymatgen
data_Li4V3P8O29
_symmetry_space_group_name_H-M   'P 1'
_cell_length_a   9.77506100
_cell_length_b   9.81764785
_cell_length_c   14.42713139
_cell_angle_alpha   90.01792617
_cell_angle_beta   90.15736259
_cell_angle_gamma   119.80562023
_symmetry_Int_Tables_number   1
_chemical_formula_structural   Li4V3P8O29
_chemical_formula_sum   'Li8 V6 P16 O58'
_cell_volume   1201.38559329
_cell_formula_units_Z   2
loop_
 _symmetry_equiv_pos_site_id
 _symmetry_equiv_pos_as_xyz
  1  'x, y, z'
loop_
 _atom_site_type_symbol
 _atom_site_label
 _atom_site_symmetry_multiplicity
 _atom_site_fract_x
 _atom_site_fract_y
 _atom_site_fract_z
 _atom_site_occupancy
  Li  Li0  1  0.69807100  0.78186800  0.05489000  1
  Li  Li1  1  0.67216200  0.90568300  0.56150600  1
  Li  Li2  1  0.23753300  0.33398900  0.55949600  1
  Li  Li3  1  0.08449000  0.31042200  0.05515200  1
  Li  Li4  1  0.21894000  0.91610200  0.05715300  1
  Li  Li5  1  0.09475200  0.76570800  0.56088700  1
  Li  Li6  1  0.66164600  0.33062800  0.09881300  1
  Li  Li7  1  0.99581700  0.99930800  0.50369200  1
  V  V0  1  0.99866200  0.43231400  0.25419600  1
  V  V1  1  0.00172400  0.56634600  0.75037500  1
  V  V2  1  0.56401500  0.99695100  0.74591800  1
  V  V3  1  0.43199700  0.00059700  0.25050800  1
  V  V4  1  0.56991200  0.56754300  0.25367800  1
  V  V5  1  0.43498900  0.43693400  0.74948900  1
  P  P0  1  0.67971000  0.76977400  0.84098700  1
  P  P1  1  0.68893900  0.91586600  0.34294000  1
  P  P2  1  0.22942300  0.31175600  0.34200500  1
  P  P3  1  0.33101100  0.66315900  0.13315100  1
  P  P4  1  0.33064600  0.66247700  0.62954500  1
  P  P5  1  0.08951200  0.31984300  0.84090000  1
  P  P6  1  0.91668100  0.22435900  0.66214500  1
  P  P7  1  0.23180800  0.91027900  0.84172500  1
  P  P8  1  0.77347600  0.09014300  0.16527400  1
  P  P9  1  0.08440900  0.77244200  0.34218200  1
  P  P10  1  0.90931100  0.68177500  0.16361600  1
  P  P11  1  0.66657200  0.33444700  0.36766500  1
  P  P12  1  0.66836000  0.33358600  0.86413900  1
  P  P13  1  0.77821400  0.69336800  0.66356800  1
  P  P14  1  0.30434900  0.08355100  0.66426200  1
  P  P15  1  0.31863700  0.23050900  0.16246300  1
  O  O0  1  0.79516100  0.80266800  0.58642600  1
  O  O1  1  0.66423400  0.74753900  0.32291900  1
  O  O2  1  0.76564000  0.99095400  0.08596900  1
  O  O3  1  0.65810400  0.91306800  0.82569500  1
  O  O4  1  0.51862100  0.61957800  0.81637000  1
  O  O5  1  0.47255000  0.65173500  0.17887200  1
  O  O6  1  0.38633200  0.46753200  0.32650600  1
  O  O7  1  0.23042600  0.24738800  0.08425800  1
  O  O8  1  0.25728400  0.34274600  0.82673100  1
  O  O9  1  0.48718100  0.80877900  0.66284400  1
  O  O10  1  0.53337500  0.91356800  0.32791300  1
  O  O11  1  0.32451900  0.50949100  0.67097400  1
  O  O12  1  0.33038600  0.64665600  0.03080100  1
  O  O13  1  0.31759900  0.64825000  0.52622400  1
  O  O14  1  0.17624900  0.52284000  0.17711400  1
  O  O15  1  0.37670000  0.89572900  0.81948000  1
  O  O16  1  0.34002700  0.81782200  0.16706000  1
  O  O17  1  0.08848600  0.34191600  0.32571800  1
  O  O18  1  0.98448100  0.20167600  0.76059600  1
  O  O19  1  0.01347800  0.21319400  0.58519700  1
  O  O20  1  0.01881600  0.25882100  0.93270100  1
  O  O21  1  0.09977900  0.48092800  0.81881800  1
  O  O22  1  0.18620800  0.67254900  0.67093400  1
  O  O23  1  0.91769200  0.26043800  0.16094000  1
  O  O24  1  0.08397800  0.61551700  0.32530400  1
  O  O25  1  0.25268000  0.91029300  0.32419300  1
  O  O26  1  0.80406600  0.02327100  0.26129000  1
  O  O27  1  0.76888300  0.97116000  0.43464600  1
  O  O28  1  0.19254900  0.99241100  0.58716100  1
  O  O29  1  0.74533300  0.08677700  0.65834700  1
  O  O30  1  0.92155400  0.38409400  0.67176600  1
  O  O31  1  0.08343300  0.74415000  0.82313200  1
  O  O32  1  0.81696200  0.33546300  0.32240900  1
  O  O33  1  0.89079600  0.51600200  0.17734800  1
  O  O34  1  0.00802500  0.77082300  0.08402000  1
  O  O35  1  0.02310500  0.78558600  0.43415200  1
  O  O36  1  0.97810500  0.77932200  0.25957500  1
  O  O37  1  0.91390100  0.65435900  0.66072000  1
  O  O38  1  0.65844500  0.18539200  0.82310100  1
  O  O39  1  0.62448700  0.10784300  0.17683900  1
  O  O40  1  0.82027000  0.47791000  0.82077300  1
  O  O41  1  0.66887100  0.34339600  0.96749400  1
  O  O42  1  0.68070600  0.34979800  0.46962300  1
  O  O43  1  0.67091600  0.48545100  0.32143700  1
  O  O44  1  0.45769100  0.07419500  0.66854400  1
  O  O45  1  0.52063700  0.19172400  0.32596900  1
  O  O46  1  0.73897700  0.65780900  0.15903500  1
  O  O47  1  0.80025100  0.78048600  0.76200900  1
  O  O48  1  0.73818400  0.75563300  0.93305000  1
  O  O49  1  0.61661400  0.53995300  0.67019700  1
  O  O50  1  0.52754200  0.34911500  0.82018300  1
  O  O51  1  0.48655400  0.37505100  0.17760800  1
  O  O52  1  0.33874300  0.08353100  0.15708000  1
  O  O53  1  0.22856200  0.97422200  0.93390900  1
  O  O54  1  0.21769000  0.01944200  0.76263000  1
  O  O55  1  0.34561000  0.25879500  0.66229500  1
  O  O56  1  0.21365900  0.23592100  0.43372100  1
  O  O57  1  0.21954100  0.20083700  0.25859400  1
loop_
_geom_bond_atom_site_label_1
_geom_bond_atom_site_label_2
_geom_bond_distance
_geom_bond_site_symmetry_2
Li0 O48 1.847663 1_554
Li0 O2 1.871087 1_555
Li0 O46 2.093532 1_555
Li1 O0 1.950483 1_555
Li1 O27 2.015661 1_555
Li1 O29 2.086467 1_565
Li1 O9 2.148820 1_555
Li2 O19 1.939929 1_555
Li2 O56 2.011797 1_555
Li2 O55 2.151292 1_555
Li2 O11 2.193796 1_555
Li3 O20 1.860001 1_554
Li3 O7 1.862466 1_555
Li3 O23 2.108859 1_455
Li3 O14 2.525699 1_555
Li4 O53 1.855834 1_554
Li4 O34 1.875268 1_555
Li4 O52 2.056052 1_565
Li4 O16 2.443815 1_555
Li5 O28 1.973212 1_555
Li5 O35 2.000193 1_555
Li5 O37 2.118614 1_455
Li5 O22 2.227629 1_555
Li6 O41 1.897927 1_554
Li6 O51 2.272505 1_555
Li6 O39 2.323157 1_555
Li6 O33 2.354890 1_555
Li7 O0 2.291038 1_555
Li7 O28 2.295581 1_655
Li7 O27 2.316842 1_555
Li7 O19 2.336421 1_665
Li7 O35 2.457006 1_655
Li7 O56 2.458758 1_665
O0 P13 1.497529 1_555
O1 P1 1.573320 1_555
O1 V4 1.828900 1_555
O2 P8 1.479153 1_565
O3 P0 1.538734 1_555
O3 V2 1.896456 1_555
O4 P0 1.571098 1_555
O4 V5 1.830844 1_555
O5 P3 1.584675 1_555
O5 V4 1.879011 1_555
O6 P2 1.552942 1_555
O6 V4 1.883529 1_555
O7 P15 1.476749 1_555
O8 P5 1.554725 1_555
O8 V5 1.878511 1_555
O9 P4 1.563922 1_555
O9 V2 2.006930 1_555
O10 P1 1.524454 1_555
O10 V3 1.948180 1_565
O11 P4 1.589987 1_555
O11 V5 1.927460 1_555
O12 P3 1.485093 1_555
O13 P4 1.496281 1_555
O14 P3 1.588298 1_555
O14 V0 1.875502 1_455
O15 P7 1.527411 1_555
O15 V2 1.915452 1_555
O16 P3 1.555306 1_555
O16 V3 1.966358 1_565
O17 P2 1.563538 1_555
O17 V0 1.842170 1_455
O18 P5 1.597113 1_655
O18 P6 1.627273 1_555
O19 P6 1.499504 1_455
O20 P5 1.478014 1_555
O21 P5 1.566952 1_555
O21 V1 1.841571 1_555
O22 P4 1.582136 1_555
O22 V1 1.948238 1_555
O23 P8 1.563318 1_555
O23 V0 1.987207 1_555
O24 P9 1.557617 1_555
O24 V0 1.867072 1_455
O25 P9 1.547283 1_555
O25 V3 1.858627 1_565
O26 P1 1.610701 1_545
O26 P8 1.622581 1_555
O27 P1 1.492645 1_555
O28 P14 1.500953 1_565
O29 P6 1.543781 1_555
O29 V2 1.993595 1_545
O30 P6 1.551265 1_555
O30 V1 1.923995 1_655
O31 P7 1.575321 1_555
O31 V1 1.842591 1_555
O32 P11 1.605679 1_555
O32 V0 1.832628 1_555
O33 P10 1.558314 1_555
O33 V0 1.967583 1_555
O34 P10 1.477220 1_455
O35 P9 1.489112 1_555
O36 P9 1.602410 1_655
O36 P10 1.624746 1_555
O37 P13 1.553326 1_555
O37 V1 1.971977 1_655
O38 P12 1.528292 1_555
O38 V2 1.951939 1_545
O39 P8 1.559479 1_555
O39 V3 1.954696 1_555
O40 P12 1.586859 1_555
O40 V1 1.846876 1_655
O41 P12 1.494028 1_555
O42 P11 1.477692 1_555
O43 P11 1.607053 1_555
O43 V4 1.834731 1_555
O44 P14 1.547709 1_555
O44 V2 1.918094 1_545
O45 P11 1.538790 1_555
O45 V3 1.958110 1_555
O46 P10 1.562679 1_555
O46 V4 1.984467 1_555
O47 P0 1.606858 1_555
O47 P13 1.615351 1_555
O48 P0 1.478157 1_555
O49 P13 1.551995 1_555
O49 V5 1.926240 1_555
O50 P12 1.588728 1_555
O50 V5 1.836568 1_555
O51 P15 1.561397 1_555
O51 V4 1.975544 1_555
O52 P15 1.552027 1_555
O52 V3 2.010599 1_555
O53 P7 1.477627 1_555
O54 P14 1.613967 1_555
O54 P7 1.617625 1_545
O55 P14 1.560064 1_555
O55 V5 1.969274 1_555
O56 P2 1.488824 1_555
O57 P2 1.592881 1_555
O57 P15 1.635166 1_555
