# generated using pymatgen
data_CaGa2Cu3(RuO6)2
_symmetry_space_group_name_H-M   'P 1'
_cell_length_a   6.44540824
_cell_length_b   6.44540824
_cell_length_c   7.47204477
_cell_angle_alpha   54.78995921
_cell_angle_beta   54.78995921
_cell_angle_gamma   70.19718403
_symmetry_Int_Tables_number   1
_chemical_formula_structural   CaGa2Cu3(RuO6)2
_chemical_formula_sum   'Ca1 Ga2 Cu3 Ru2 O12'
_cell_volume   207.21035676
_cell_formula_units_Z   1
loop_
 _symmetry_equiv_pos_site_id
 _symmetry_equiv_pos_as_xyz
  1  'x, y, z'
loop_
 _atom_site_type_symbol
 _atom_site_label
 _atom_site_symmetry_multiplicity
 _atom_site_fract_x
 _atom_site_fract_y
 _atom_site_fract_z
 _atom_site_occupancy
  Ca  Ca0  1  0.00000000  0.00000000  0.00000000  1
  Ga  Ga0  1  0.50000000  0.00000000  0.50000000  1
  Ga  Ga1  1  0.00000000  0.50000000  0.50000000  1
  Cu  Cu0  1  0.50000000  0.50000000  0.00000000  1
  Cu  Cu1  1  0.50000000  0.50000000  0.50000000  1
  Cu  Cu2  1  0.00000000  0.00000000  0.50000000  1
  Ru  Ru0  1  0.00000000  0.50000000  0.00000000  1
  Ru  Ru1  1  0.50000000  0.00000000  0.00000000  1
  O  O0  1  0.82753500  0.82753500  0.47861100  1
  O  O1  1  0.17246500  0.17246500  0.52138900  1
  O  O2  1  0.82738000  0.82738000  0.86467000  1
  O  O3  1  0.17262000  0.17262000  0.13533000  1
  O  O4  1  0.30503900  0.68971600  0.83145700  1
  O  O5  1  0.69496100  0.31028400  0.16854300  1
  O  O6  1  0.68971600  0.30503900  0.83145700  1
  O  O7  1  0.31028400  0.69496100  0.16854300  1
  O  O8  1  0.13552200  0.48175700  0.69448300  1
  O  O9  1  0.86447800  0.51824300  0.30551700  1
  O  O10  1  0.51824300  0.86447800  0.30551700  1
  O  O11  1  0.48175700  0.13552200  0.69448300  1
loop_
_geom_bond_atom_site_label_1
_geom_bond_atom_site_label_2
_geom_bond_distance
_geom_bond_site_symmetry_2
Ca0 O4 2.614585 1_544
Ca0 O6 2.614585 1_454
Ca0 O7 2.614585 1_545
Ca0 O5 2.614585 1_455
Ca0 O0 2.632394 1_445
Ca0 O1 2.632394 1_554
Ca0 O2 2.632827 1_444
Ca0 O3 2.632827 1_555
Ca0 O9 2.642036 1_445
Ca0 O11 2.642036 1_554
Ca0 O10 2.642036 1_445
Ca0 O8 2.642036 1_554
Ga0 O0 1.985871 1_545
Ga0 O1 1.985871 1_555
Ga0 O11 2.021308 1_555
Ga0 O10 2.021308 1_545
Ga0 O5 2.028508 1_555
Ga0 O4 2.028508 1_545
Ga1 O0 1.985871 1_455
Ga1 O1 1.985871 1_555
Ga1 O8 2.021308 1_555
Ga1 O9 2.021308 1_455
Ga1 O7 2.028508 1_555
Ga1 O6 2.028508 1_455
Cu0 O5 1.915264 1_555
Cu0 O7 1.915264 1_555
Cu0 O6 1.915264 1_554
Cu0 O4 1.915264 1_554
Cu1 O10 1.922970 1_555
Cu1 O8 1.922970 1_555
Cu1 O9 1.922970 1_555
Cu1 O11 1.922970 1_555
Cu2 O1 1.934907 1_555
Cu2 O0 1.934907 1_445
Cu2 O3 1.935798 1_555
Cu2 O2 1.935798 1_445
O2 Ru1 1.989736 1_566
O2 Ru0 1.989736 1_656
O3 Ru0 1.989736 1_555
O3 Ru1 1.989736 1_555
O4 Ru0 1.986132 1_556
O5 Ru0 1.986132 1_655
O6 Ru1 1.986132 1_556
O7 Ru1 1.986132 1_565
O8 Ru0 1.982087 1_556
O9 Ru0 1.982087 1_655
O10 Ru1 1.982087 1_565
O11 Ru1 1.982087 1_556
