# generated using pymatgen
data_Ba3Li2B10(H3O11)2
_symmetry_space_group_name_H-M   'P 1'
_cell_length_a   6.85065000
_cell_length_b   6.85065000
_cell_length_c   21.12137942
_cell_angle_alpha   78.19873223
_cell_angle_beta   78.19873223
_cell_angle_gamma   65.57494097
_symmetry_Int_Tables_number   1
_chemical_formula_structural   Ba3Li2B10(H3O11)2
_chemical_formula_sum   'Ba6 Li4 B20 H12 O44'
_cell_volume   875.42673123
_cell_formula_units_Z   2
loop_
 _symmetry_equiv_pos_site_id
 _symmetry_equiv_pos_as_xyz
  1  'x, y, z'
loop_
 _atom_site_type_symbol
 _atom_site_label
 _atom_site_symmetry_multiplicity
 _atom_site_fract_x
 _atom_site_fract_y
 _atom_site_fract_z
 _atom_site_occupancy
  Ba  Ba0  1  0.86288700  0.92397700  0.09575500  1
  Ba  Ba1  1  0.07602300  0.13711300  0.40424500  1
  Ba  Ba2  1  0.13711300  0.07602300  0.90424500  1
  Ba  Ba3  1  0.92397700  0.86288700  0.59575500  1
  Ba  Ba4  1  0.74793100  0.25206900  0.25000000  1
  Ba  Ba5  1  0.25206900  0.74793100  0.75000000  1
  Li  Li0  1  0.27294600  0.18548200  0.03932700  1
  Li  Li1  1  0.81451800  0.72705400  0.46067300  1
  Li  Li2  1  0.72705400  0.81451800  0.96067300  1
  Li  Li3  1  0.18548200  0.27294600  0.53932700  1
  B  B0  1  0.38618900  0.41418200  0.13239700  1
  B  B1  1  0.58581800  0.61381100  0.36760300  1
  B  B2  1  0.61381100  0.58581800  0.86760300  1
  B  B3  1  0.41418200  0.38618900  0.63239700  1
  B  B4  1  0.17906200  0.40220200  0.24693100  1
  B  B5  1  0.59779800  0.82093800  0.25306900  1
  B  B6  1  0.82093800  0.59779800  0.75306900  1
  B  B7  1  0.40220200  0.17906200  0.74693100  1
  B  B8  1  0.75366100  0.45922500  0.08997400  1
  B  B9  1  0.54077500  0.24633900  0.41002600  1
  B  B10  1  0.24633900  0.54077500  0.91002600  1
  B  B11  1  0.45922500  0.75366100  0.58997400  1
  B  B12  1  0.40155800  0.73300100  0.04979500  1
  B  B13  1  0.26699900  0.59844200  0.45020500  1
  B  B14  1  0.59844200  0.26699900  0.95020500  1
  B  B15  1  0.73300100  0.40155800  0.54979500  1
  B  B16  1  0.29179400  0.08753000  0.18408500  1
  B  B17  1  0.91247000  0.70820600  0.31591500  1
  B  B18  1  0.70820600  0.91247000  0.81591500  1
  B  B19  1  0.08753000  0.29179400  0.68408500  1
  H  H0  1  0.86893600  0.37747000  0.00071100  1
  H  H1  1  0.62253000  0.13106400  0.49928900  1
  H  H2  1  0.13106400  0.62253000  0.99928900  1
  H  H3  1  0.37747000  0.86893600  0.50071100  1
  H  H4  1  0.02369200  0.41296400  0.12916800  1
  H  H5  1  0.58703600  0.97630800  0.37083200  1
  H  H6  1  0.97630800  0.58703600  0.87083200  1
  H  H7  1  0.41296400  0.02369200  0.62916800  1
  H  H8  1  0.22176100  0.82220300  0.18669700  1
  H  H9  1  0.17779700  0.77823900  0.31330300  1
  H  H10  1  0.77823900  0.17779700  0.81330300  1
  H  H11  1  0.82220300  0.22176100  0.68669700  1
  O  O0  1  0.62311700  0.33534200  0.12625600  1
  O  O1  1  0.66465800  0.37688300  0.37374400  1
  O  O2  1  0.37688300  0.66465800  0.87374400  1
  O  O3  1  0.33534200  0.62311700  0.62625600  1
  O  O4  1  0.30856500  0.24693400  0.12683700  1
  O  O5  1  0.75306600  0.69143500  0.37316300  1
  O  O6  1  0.69143500  0.75306600  0.87316300  1
  O  O7  1  0.24693400  0.30856500  0.62683700  1
  O  O8  1  0.62298900  0.66698400  0.05388700  1
  O  O9  1  0.33301600  0.37701100  0.44611300  1
  O  O10  1  0.37701100  0.33301600  0.94611300  1
  O  O11  1  0.66698400  0.62298900  0.55388700  1
  O  O12  1  0.17499600  0.20464700  0.24266700  1
  O  O13  1  0.79535300  0.82500400  0.25733300  1
  O  O14  1  0.82500400  0.79535300  0.75733300  1
  O  O15  1  0.20464700  0.17499600  0.74266700  1
  O  O16  1  0.29502100  0.59795300  0.08225600  1
  O  O17  1  0.40204700  0.70497900  0.41774400  1
  O  O18  1  0.70497900  0.40204700  0.91774400  1
  O  O19  1  0.59795300  0.29502100  0.58225600  1
  O  O20  1  0.92812800  0.32700900  0.04206300  1
  O  O21  1  0.67299100  0.07187200  0.45793700  1
  O  O22  1  0.07187200  0.67299100  0.95793700  1
  O  O23  1  0.32700900  0.92812800  0.54206300  1
  O  O24  1  0.86509100  0.49974300  0.13658200  1
  O  O25  1  0.50025700  0.13490900  0.36341800  1
  O  O26  1  0.13490900  0.50025700  0.86341800  1
  O  O27  1  0.49974300  0.86509100  0.63658200  1
  O  O28  1  0.06338700  0.48821400  0.30293200  1
  O  O29  1  0.51178600  0.93661300  0.19706800  1
  O  O30  1  0.93661300  0.51178600  0.69706800  1
  O  O31  1  0.48821400  0.06338700  0.80293200  1
  O  O32  1  0.16009000  0.97796700  0.17150800  1
  O  O33  1  0.02203300  0.83991000  0.32849200  1
  O  O34  1  0.83991000  0.02203300  0.82849200  1
  O  O35  1  0.97796700  0.16009000  0.67150800  1
  O  O36  1  0.29233500  0.92060000  0.01474400  1
  O  O37  1  0.07940000  0.70766500  0.48525600  1
  O  O38  1  0.70766500  0.07940000  0.98525600  1
  O  O39  1  0.92060000  0.29233500  0.51474400  1
  O  O40  1  0.29593100  0.49513000  0.19940100  1
  O  O41  1  0.50487000  0.70406900  0.30059900  1
  O  O42  1  0.70406900  0.50487000  0.80059900  1
  O  O43  1  0.49513000  0.29593100  0.69940100  1
loop_
_geom_bond_atom_site_label_1
_geom_bond_atom_site_label_2
_geom_bond_distance
_geom_bond_site_symmetry_2
Ba0 O38 2.602658 1_564
Ba0 O0 2.745260 1_565
Ba0 O24 2.852055 1_555
Ba0 O29 2.858347 1_555
Ba0 O16 2.877629 1_655
Ba0 O20 2.939659 1_565
Ba0 H2 2.973821 1_654
Ba0 O32 3.006594 1_655
Ba0 O36 3.079686 1_655
Ba0 O8 3.194795 1_555
Ba0 O13 3.314776 1_555
Ba1 O39 2.602658 1_455
Ba1 O1 2.745260 1_455
Ba1 O25 2.852055 1_555
Ba1 O28 2.858347 1_555
Ba1 O17 2.877629 1_545
Ba1 O21 2.939659 1_455
Ba1 H3 2.973821 1_545
Ba1 O33 3.006594 1_545
Ba1 O37 3.079686 1_545
Ba1 O9 3.194795 1_555
Ba1 O12 3.314776 1_555
Ba2 O36 2.602658 1_546
Ba2 O2 2.745260 1_545
Ba2 O26 2.852055 1_555
Ba2 O31 2.858347 1_555
Ba2 O18 2.877629 1_455
Ba2 O22 2.939659 1_545
Ba2 H0 2.973821 1_456
Ba2 O34 3.006594 1_455
Ba2 O38 3.079686 1_455
Ba2 O10 3.194795 1_555
Ba2 O15 3.314776 1_555
Ba3 O37 2.602658 1_655
Ba3 O3 2.745260 1_655
Ba3 O27 2.852055 1_555
Ba3 O30 2.858347 1_555
Ba3 O19 2.877629 1_565
Ba3 O23 2.939659 1_655
Ba3 H1 2.973821 1_565
Ba3 O35 3.006594 1_565
Ba3 O39 3.079686 1_565
Ba3 O11 3.194795 1_555
Ba3 O14 3.314776 1_555
Ba4 O12 2.781777 1_655
Ba4 O13 2.781777 1_545
Ba4 O0 2.790795 1_555
Ba4 O1 2.790795 1_555
Ba4 O24 2.817613 1_555
Ba4 O25 2.817613 1_555
Ba4 O33 3.036589 1_645
Ba4 O32 3.036589 1_645
Ba4 O41 3.140814 1_555
Ba4 O40 3.140814 1_555
Ba5 O15 2.781777 1_565
Ba5 O14 2.781777 1_455
Ba5 O3 2.790795 1_555
Ba5 O2 2.790795 1_555
Ba5 O27 2.817613 1_555
Ba5 O26 2.817613 1_555
Ba5 O34 3.036589 1_465
Ba5 O35 3.036589 1_465
Ba5 O42 3.140814 1_555
Ba5 O43 3.140814 1_555
Li0 O36 1.933368 1_545
Li0 O4 2.059325 1_555
Li0 O20 2.143940 1_455
Li0 O10 2.147980 1_554
Li1 O37 1.933368 1_655
Li1 O5 2.059325 1_555
Li1 O21 2.143940 1_565
Li1 O11 2.147980 1_555
Li2 O38 1.933368 1_565
Li2 O6 2.059325 1_555
Li2 O22 2.143940 1_655
Li2 O8 2.147980 1_556
Li3 O39 1.933368 1_455
Li3 O7 2.059325 1_555
Li3 O23 2.143940 1_545
Li3 O9 2.147980 1_555
B0 O0 1.469889 1_555
B0 O16 1.473613 1_555
B0 O4 1.481148 1_555
B0 O40 1.540193 1_555
B1 O1 1.469889 1_555
B1 O17 1.473613 1_555
B1 O5 1.481148 1_555
B1 O41 1.540193 1_555
B2 O2 1.469889 1_555
B2 O18 1.473613 1_555
B2 O6 1.481148 1_555
B2 O42 1.540193 1_555
B3 O3 1.469889 1_555
B3 O19 1.473613 1_555
B3 O7 1.481148 1_555
B3 O43 1.540193 1_555
B4 O40 1.373115 1_555
B4 O28 1.374684 1_555
B4 O12 1.386573 1_555
B5 O41 1.373115 1_555
B5 O29 1.374684 1_555
B5 O13 1.386573 1_555
B6 O42 1.373115 1_555
B6 O30 1.374684 1_555
B6 O14 1.386573 1_555
B7 O43 1.373115 1_555
B7 O31 1.374684 1_555
B7 O15 1.386573 1_555
B8 O0 1.479405 1_555
B8 O8 1.479771 1_555
B8 O24 1.491059 1_555
B8 O20 1.502621 1_555
B9 O1 1.479405 1_555
B9 O9 1.479771 1_555
B9 O25 1.491059 1_555
B9 O21 1.502621 1_555
B10 O2 1.479405 1_555
B10 O10 1.479771 1_555
B10 O26 1.491059 1_555
B10 O22 1.502621 1_555
B11 O3 1.479405 1_555
B11 O11 1.479771 1_555
B11 O27 1.491059 1_555
B11 O23 1.502621 1_555
B12 O36 1.342299 1_555
B12 O16 1.397487 1_555
B12 O8 1.408334 1_555
B13 O37 1.342299 1_555
B13 O17 1.397487 1_555
B13 O9 1.408334 1_555
B14 O38 1.342299 1_555
B14 O18 1.397487 1_555
B14 O10 1.408334 1_555
B15 O39 1.342299 1_555
B15 O19 1.397487 1_555
B15 O11 1.408334 1_555
B16 O4 1.474654 1_555
B16 O29 1.476448 1_545
B16 O32 1.479073 1_545
B16 O12 1.511667 1_555
B17 O5 1.474654 1_555
B17 O28 1.476448 1_655
B17 O33 1.479073 1_655
B17 O13 1.511667 1_555
B18 O6 1.474654 1_555
B18 O31 1.476448 1_565
B18 O34 1.479073 1_565
B18 O14 1.511667 1_555
B19 O7 1.474654 1_555
B19 O30 1.476448 1_455
B19 O35 1.479073 1_455
B19 O15 1.511667 1_555
H0 O20 0.975819 1_555
H1 O21 0.975819 1_555
H2 O22 0.975819 1_555
H3 O23 0.975819 1_555
H4 O24 0.996377 1_455
H5 O25 0.996377 1_565
H6 O26 0.996377 1_655
H7 O27 0.996377 1_545
H8 O32 0.981153 1_555
H9 O33 0.981153 1_555
H10 O34 0.981153 1_555
H11 O35 0.981153 1_555
