# generated using pymatgen
data_RbMg14Sn
_symmetry_space_group_name_H-M   'P 1'
_cell_length_a   6.52482858
_cell_length_b   6.52482803
_cell_length_c   10.97309773
_cell_angle_alpha   90.00000000
_cell_angle_beta   90.00000000
_cell_angle_gamma   120.00000279
_symmetry_Int_Tables_number   1
_chemical_formula_structural   RbMg14Sn
_chemical_formula_sum   'Rb1 Mg14 Sn1'
_cell_volume   404.57406845
_cell_formula_units_Z   1
loop_
 _symmetry_equiv_pos_site_id
 _symmetry_equiv_pos_as_xyz
  1  'x, y, z'
loop_
 _atom_site_type_symbol
 _atom_site_label
 _atom_site_symmetry_multiplicity
 _atom_site_fract_x
 _atom_site_fract_y
 _atom_site_fract_z
 _atom_site_occupancy
  Rb  Rb0  1  0.16666700  0.33333300  0.62500000  1
  Mg  Mg0  1  0.16263154  0.83131527  0.12500000  1
  Mg  Mg1  1  0.17292378  0.83646139  0.62500000  1
  Mg  Mg2  1  0.66868473  0.33736846  0.12500000  1
  Mg  Mg3  1  0.66353861  0.32707622  0.62500000  1
  Mg  Mg4  1  0.66868473  0.83131527  0.12500000  1
  Mg  Mg5  1  0.66353861  0.83646139  0.62500000  1
  Mg  Mg6  1  0.33837760  0.16162240  0.36313942  1
  Mg  Mg7  1  0.33837760  0.16162240  0.88686058  1
  Mg  Mg8  1  0.33837760  0.67675621  0.36313942  1
  Mg  Mg9  1  0.33837760  0.67675621  0.88686058  1
  Mg  Mg10  1  0.82324379  0.16162240  0.36313942  1
  Mg  Mg11  1  0.82324379  0.16162240  0.88686058  1
  Mg  Mg12  1  0.83333300  0.66666700  0.38184083  1
  Mg  Mg13  1  0.83333300  0.66666700  0.86815917  1
  Sn  Sn0  1  0.16666700  0.33333300  0.12500000  1
loop_
_geom_bond_atom_site_label_1
_geom_bond_atom_site_label_2
_geom_bond_distance
_geom_bond_site_symmetry_2
Mg0 Mg9 3.211982 1_554
Mg0 Mg8 3.211982 1_555
Mg0 Mg7 3.211988 1_564
Mg0 Mg6 3.211988 1_565
Mg0 Mg2 3.222918 1_455
Mg0 Mg4 3.222918 1_455
Mg0 Sn0 3.262494 1_565
Mg0 Sn0 3.262494 1_555
Mg0 Mg2 3.301910 1_565
Mg0 Mg4 3.301910 1_555
Mg0 Mg12 3.377196 1_455
Mg0 Mg13 3.377196 1_454
Mg1 Mg3 3.201177 1_565
Mg1 Mg5 3.201178 1_555
Mg1 Rb0 3.262606 1_555
Mg1 Rb0 3.262606 1_565
Mg1 Mg13 3.286575 1_455
Mg1 Mg12 3.286575 1_455
Mg1 Mg3 3.323651 1_455
Mg1 Mg5 3.323651 1_455
Mg1 Mg8 3.410691 1_555
Mg1 Mg9 3.410691 1_555
Mg1 Mg6 3.410697 1_565
Mg1 Mg7 3.410697 1_565
Mg2 Mg7 3.211988 1_554
Mg2 Mg6 3.211988 1_555
Mg2 Mg4 3.222918 1_555
Mg2 Sn0 3.262494 1_655
Mg2 Sn0 3.262494 1_555
Mg2 Mg4 3.301910 1_545
Mg3 Mg5 3.201177 1_545
Mg3 Rb0 3.262606 1_655
Mg3 Rb0 3.262606 1_555
Mg3 Mg5 3.323651 1_555
Mg3 Mg6 3.410697 1_555
Mg3 Mg7 3.410697 1_555
Mg4 Mg8 3.211988 1_555
Mg4 Mg9 3.211988 1_554
Mg4 Sn0 3.262494 1_665
Mg4 Sn0 3.262494 1_555
Mg5 Rb0 3.262606 1_555
Mg5 Rb0 3.262606 1_665
Mg5 Mg8 3.410697 1_555
Mg5 Mg9 3.410697 1_555
Mg6 Mg8 3.163669 1_545
Mg6 Sn0 3.254874 1_555
Mg6 Mg8 3.361160 1_555
Mg6 Rb0 3.467322 1_555
Mg7 Mg9 3.163669 1_545
Mg7 Sn0 3.254874 1_556
Mg7 Mg9 3.361160 1_555
Mg7 Rb0 3.467322 1_555
Mg8 Sn0 3.254880 1_555
Mg8 Rb0 3.467328 1_555
Mg9 Sn0 3.254880 1_556
Mg9 Rb0 3.467328 1_555
Mg10 Mg8 3.163669 1_545
Mg10 Mg6 3.163669 1_555
Mg10 Mg2 3.211982 1_555
Mg10 Mg4 3.211988 1_545
Mg10 Sn0 3.254880 1_655
Mg10 Mg12 3.269359 1_555
Mg10 Mg12 3.269359 1_545
Mg10 Mg8 3.361160 1_655
Mg10 Mg6 3.361160 1_655
Mg10 Mg3 3.410691 1_555
Mg10 Mg5 3.410697 1_545
Mg10 Rb0 3.467328 1_655
Mg11 Mg9 3.163669 1_545
Mg11 Mg7 3.163669 1_555
Mg11 Mg2 3.211982 1_556
Mg11 Mg4 3.211988 1_546
Mg11 Sn0 3.254880 1_656
Mg11 Mg13 3.269359 1_555
Mg11 Mg13 3.269359 1_545
Mg11 Mg9 3.361160 1_655
Mg11 Mg7 3.361160 1_655
Mg11 Mg3 3.410691 1_555
Mg11 Mg5 3.410697 1_545
Mg11 Rb0 3.467328 1_655
Mg12 Mg6 3.269359 1_555
Mg12 Mg6 3.269359 1_665
Mg12 Mg8 3.269359 1_655
Mg12 Mg8 3.269359 1_555
Mg12 Mg5 3.286568 1_555
Mg12 Mg3 3.286575 1_555
Mg12 Mg4 3.377190 1_555
Mg12 Mg2 3.377196 1_555
Mg13 Mg7 3.269359 1_555
Mg13 Mg7 3.269359 1_665
Mg13 Mg9 3.269359 1_655
Mg13 Mg9 3.269359 1_555
Mg13 Mg5 3.286568 1_555
Mg13 Mg3 3.286575 1_555
Mg13 Mg4 3.377190 1_556
Mg13 Mg2 3.377196 1_556
