# generated using pymatgen
data_GdBN2
_symmetry_space_group_name_H-M   'P 1'
_cell_length_a   6.74029272
_cell_length_b   7.23267973
_cell_length_c   7.23267971
_cell_angle_alpha   110.80882805
_cell_angle_beta   108.09792939
_cell_angle_gamma   108.09791937
_symmetry_Int_Tables_number   1
_chemical_formula_structural   GdBN2
_chemical_formula_sum   'Gd6 B6 N12'
_cell_volume   275.89077938
_cell_formula_units_Z   6
loop_
 _symmetry_equiv_pos_site_id
 _symmetry_equiv_pos_as_xyz
  1  'x, y, z'
loop_
 _atom_site_type_symbol
 _atom_site_label
 _atom_site_symmetry_multiplicity
 _atom_site_fract_x
 _atom_site_fract_y
 _atom_site_fract_z
 _atom_site_occupancy
  Gd  Gd0  1  0.24826098  0.54554553  0.45308219  1
  Gd  Gd1  1  0.79513519  0.54689950  0.09245536  1
  Gd  Gd2  1  0.70272028  0.90756120  0.45447149  1
  Gd  Gd3  1  0.74826099  0.45308251  0.54554622  1
  Gd  Gd4  1  0.20272088  0.45447175  0.90756124  1
  Gd  Gd5  1  0.29513498  0.09245531  0.54689943  1
  B  B0  1  0.86832302  0.12116130  0.24232951  1
  B  B1  1  0.62599869  0.75767036  0.87883517  1
  B  B2  1  0.74716838  0.12116021  0.87883628  1
  B  B3  1  0.36832296  0.24232955  0.12116122  1
  B  B4  1  0.24716841  0.87883633  0.12116008  1
  B  B5  1  0.12599875  0.87883544  0.75767033  1
  N  N0  1  0.87129066  0.24914777  0.12462617  1
  N  N1  1  0.74665197  0.87536143  0.12453326  1
  N  N2  1  0.62214768  0.87546511  0.75083051  1
  N  N3  1  0.37129055  0.12462607  0.24914768  1
  N  N4  1  0.12214827  0.75083093  0.87546513  1
  N  N5  1  0.24665148  0.12453326  0.87536135  1
  N  N6  1  0.50391843  0.51160460  0.75589378  1
  N  N7  1  0.74805433  0.24411823  0.75572126  1
  N  N8  1  0.99233222  0.24429511  0.48839233  1
  N  N9  1  0.00391831  0.75589379  0.51160464  1
  N  N10  1  0.49233229  0.48839243  0.24429532  1
  N  N11  1  0.24805428  0.75572130  0.24411805  1
loop_
_geom_bond_atom_site_label_1
_geom_bond_atom_site_label_2
_geom_bond_distance
_geom_bond_site_symmetry_2
Gd0 N2 2.433847 1_555
Gd0 N0 2.437747 1_455
Gd0 N8 2.474320 1_455
Gd0 N6 2.475168 1_555
Gd0 N11 2.495481 1_555
Gd0 N10 2.584580 1_555
Gd0 N9 2.595852 1_555
Gd1 N0 2.433924 1_555
Gd1 N1 2.437664 1_555
Gd1 N6 2.474312 1_554
Gd1 N7 2.475207 1_554
Gd1 N9 2.495540 1_655
Gd1 N11 2.584917 1_655
Gd1 N10 2.595553 1_555
Gd2 N1 2.433829 1_555
Gd2 N2 2.437566 1_555
Gd2 N7 2.474271 1_565
Gd2 N8 2.475188 1_565
Gd2 N10 2.495657 1_555
Gd2 N9 2.584591 1_655
Gd2 N11 2.595689 1_555
Gd3 N4 2.433847 1_655
Gd3 N3 2.437750 1_555
Gd3 N10 2.474321 1_555
Gd3 N9 2.475170 1_655
Gd3 N7 2.495478 1_555
Gd3 N8 2.584583 1_555
Gd3 N6 2.595848 1_555
Gd4 N5 2.433827 1_555
Gd4 N4 2.437567 1_555
Gd4 N11 2.474271 1_556
Gd4 N10 2.475187 1_556
Gd4 N8 2.495657 1_455
Gd4 N6 2.584588 1_555
Gd4 N7 2.595692 1_455
Gd5 N3 2.433924 1_555
Gd5 N5 2.437665 1_555
Gd5 N9 2.474312 1_545
Gd5 N11 2.475207 1_545
Gd5 N6 2.495540 1_555
Gd5 N7 2.584918 1_555
Gd5 N8 2.595551 1_455
B0 N0 1.463218 1_555
B0 N1 1.463869 1_545
B0 N8 1.465024 1_555
B1 N1 1.463272 1_556
B1 N2 1.463864 1_555
B1 N6 1.465041 1_555
B2 N2 1.463254 1_545
B2 N0 1.463808 1_556
B2 N7 1.465083 1_555
B3 N3 1.463219 1_555
B3 N5 1.463869 1_554
B3 N10 1.465025 1_555
B4 N4 1.463253 1_554
B4 N3 1.463807 1_565
B4 N11 1.465083 1_555
B5 N5 1.463271 1_565
B5 N4 1.463863 1_555
B5 N9 1.465041 1_555
