# generated using pymatgen
data_SrLaVO4
_symmetry_space_group_name_H-M   'P 1'
_cell_length_a   5.52055540
_cell_length_b   5.55477169
_cell_length_c   12.78064523
_cell_angle_alpha   89.96117826
_cell_angle_beta   89.96752128
_cell_angle_gamma   90.00269408
_symmetry_Int_Tables_number   1
_chemical_formula_structural   SrLaVO4
_chemical_formula_sum   'Sr4 La4 V4 O16'
_cell_volume   391.92376249
_cell_formula_units_Z   4
loop_
 _symmetry_equiv_pos_site_id
 _symmetry_equiv_pos_as_xyz
  1  'x, y, z'
loop_
 _atom_site_type_symbol
 _atom_site_label
 _atom_site_symmetry_multiplicity
 _atom_site_fract_x
 _atom_site_fract_y
 _atom_site_fract_z
 _atom_site_occupancy
  Sr  Sr0  1  0.00014300  0.50035900  0.14621100  1
  Sr  Sr1  1  0.50001600  0.49997700  0.64610600  1
  Sr  Sr2  1  0.99985400  0.99983000  0.35390200  1
  Sr  Sr3  1  0.49996700  0.00009600  0.85375800  1
  La  La0  1  0.50005400  0.99967700  0.14207400  1
  La  La1  1  0.00029500  0.00034800  0.64192300  1
  La  La2  1  0.49997700  0.50012400  0.35813800  1
  La  La3  1  0.99972200  0.49928500  0.85791000  1
  V  V0  1  0.49999800  0.50035800  0.99911900  1
  V  V1  1  0.49998100  0.99984500  0.50081800  1
  V  V2  1  0.99991100  0.49987800  0.49918900  1
  V  V3  1  0.00008800  0.00024800  0.00092300  1
  O  O0  1  0.49999800  0.00002000  0.32362900  1
  O  O1  1  0.99999300  0.99991200  0.82352900  1
  O  O2  1  0.50000200  0.49998800  0.17651200  1
  O  O3  1  0.00000500  0.50003900  0.67635100  1
  O  O4  1  0.99999000  0.49996800  0.33509200  1
  O  O5  1  0.49993400  0.49998100  0.83499000  1
  O  O6  1  0.00001900  0.00010200  0.16494800  1
  O  O7  1  0.50007000  0.00001000  0.66490900  1
  O  O8  1  0.24970400  0.75000200  0.99986100  1
  O  O9  1  0.75006500  0.75008800  0.50007700  1
  O  O10  1  0.74985500  0.24988000  0.00011000  1
  O  O11  1  0.25012300  0.25002000  0.49993500  1
  O  O12  1  0.25019100  0.24997500  0.00007900  1
  O  O13  1  0.74984100  0.24993900  0.49997800  1
  O  O14  1  0.75029500  0.75001200  0.99990300  1
  O  O15  1  0.24991100  0.75003900  0.50002800  1
loop_
_geom_bond_atom_site_label_1
_geom_bond_atom_site_label_2
_geom_bond_distance
_geom_bond_site_symmetry_2
La0 O0 2.320392 1_565
La0 O10 2.668133 1_565
La0 O12 2.669985 1_565
La0 O14 2.670980 1_554
La0 O8 2.672683 1_554
La0 O6 2.775690 1_665
La0 O6 2.775744 1_565
La0 O2 2.810044 1_555
La0 O2 2.814045 1_565
La1 O1 2.321041 1_445
La1 O11 2.666885 1_555
La1 O15 2.668662 1_545
La1 O13 2.669199 1_455
La1 O9 2.670841 1_445
La1 O7 2.774798 1_555
La1 O7 2.776937 1_455
La1 O3 2.810624 1_555
La1 O3 2.813426 1_545
La2 O2 2.321298 1_555
La2 O11 2.666549 1_555
La2 O13 2.668315 1_555
La2 O15 2.668761 1_555
La2 O9 2.670387 1_555
La2 O4 2.775854 1_555
La2 O4 2.776043 1_455
La2 O0 2.811321 1_565
La2 O0 2.813053 1_555
La3 O3 2.320442 1_655
La3 O10 2.668069 1_556
La3 O14 2.670187 1_555
La3 O12 2.670379 1_656
La3 O8 2.672368 1_655
La3 O5 2.774782 1_555
La3 O5 2.776779 1_655
La3 O1 2.808785 1_545
La3 O1 2.815077 1_555
O0 V1 2.264589 1_545
O0 Sr2 2.786692 1_545
O0 Sr2 2.787832 1_445
O1 V3 2.267212 1_666
O1 Sr3 2.787110 1_565
O1 Sr3 2.787259 1_665
O2 V0 2.267197 1_554
O2 Sr0 2.786759 1_555
O2 Sr0 2.787866 1_655
O3 V2 2.264246 1_455
O3 Sr1 2.787056 1_555
O3 Sr1 2.787370 1_455
O4 V2 2.097265 1_555
O4 Sr0 2.414020 1_655
O4 Sr2 2.787170 1_555
O4 Sr2 2.788372 1_545
O5 V0 2.097677 1_555
O5 Sr1 2.414059 1_555
O5 Sr3 2.786926 1_555
O5 Sr3 2.788523 1_565
O6 V3 2.096345 1_555
O6 Sr2 2.414953 1_445
O6 Sr0 2.786430 1_545
O6 Sr0 2.788951 1_555
O7 V1 2.097190 1_545
O7 Sr3 2.413612 1_555
O7 Sr1 2.787418 1_555
O7 Sr1 2.788108 1_545
O8 V3 1.957440 1_566
O8 V0 1.957682 1_555
O8 Sr0 2.704260 1_556
O8 Sr3 2.705340 1_565
O9 V1 1.957309 1_555
O9 V2 1.958178 1_555
O9 Sr2 2.703638 1_555
O9 Sr1 2.704134 1_555
O10 V3 1.957400 1_655
O10 V0 1.959283 1_554
O10 Sr3 2.707978 1_554
O10 Sr0 2.708871 1_655
O11 V1 1.958084 1_545
O11 V2 1.958204 1_455
O11 Sr1 2.706887 1_555
O11 Sr2 2.707393 1_445
O12 V3 1.957169 1_555
O12 V0 1.958610 1_554
O12 Sr3 2.706646 1_554
O12 Sr0 2.707184 1_555
O13 V1 1.957669 1_545
O13 V2 1.957872 1_555
O13 Sr1 2.705534 1_555
O13 Sr2 2.705807 1_545
O14 V0 1.957652 1_555
O14 V3 1.958003 1_666
O14 Sr0 2.705872 1_656
O14 Sr3 2.707013 1_565
O15 V1 1.957366 1_555
O15 V2 1.958496 1_455
O15 Sr2 2.705247 1_455
O15 Sr1 2.705731 1_555
