# generated using pymatgen
data_Mg(InSe2)2
_symmetry_space_group_name_H-M   'P 1'
_cell_length_a   9.66080100
_cell_length_b   5.73575000
_cell_length_c   13.90807700
_cell_angle_alpha   90.00000000
_cell_angle_beta   90.00000000
_cell_angle_gamma   90.00000000
_symmetry_Int_Tables_number   1
_chemical_formula_structural   Mg(InSe2)2
_chemical_formula_sum   'Mg4 In8 Se16'
_cell_volume   770.67351900
_cell_formula_units_Z   4
loop_
 _symmetry_equiv_pos_site_id
 _symmetry_equiv_pos_as_xyz
  1  'x, y, z'
loop_
 _atom_site_type_symbol
 _atom_site_label
 _atom_site_symmetry_multiplicity
 _atom_site_fract_x
 _atom_site_fract_y
 _atom_site_fract_z
 _atom_site_occupancy
  Mg  Mg0  1  0.15186700  0.25000000  0.43608100  1
  Mg  Mg1  1  0.84813300  0.75000000  0.56391900  1
  Mg  Mg2  1  0.34813300  0.75000000  0.93608100  1
  Mg  Mg3  1  0.65186700  0.25000000  0.06391900  1
  In  In0  1  0.08663300  0.75000000  0.25186600  1
  In  In1  1  0.91336700  0.25000000  0.74813400  1
  In  In2  1  0.41336700  0.25000000  0.75186600  1
  In  In3  1  0.58663300  0.75000000  0.24813400  1
  In  In4  1  0.14259400  0.25000000  0.97306600  1
  In  In5  1  0.85740600  0.75000000  0.02693400  1
  In  In6  1  0.35740600  0.75000000  0.47306600  1
  In  In7  1  0.64259400  0.25000000  0.52693400  1
  Se  Se0  1  0.17068500  0.51484700  0.79546400  1
  Se  Se1  1  0.82931500  0.48515300  0.20453600  1
  Se  Se2  1  0.32931500  0.48515300  0.29546400  1
  Se  Se3  1  0.67068500  0.51484700  0.70453600  1
  Se  Se4  1  0.67068500  0.98515300  0.70453600  1
  Se  Se5  1  0.32931500  0.01484700  0.29546400  1
  Se  Se6  1  0.82931500  0.01484700  0.20453600  1
  Se  Se7  1  0.17068500  0.98515300  0.79546400  1
  Se  Se8  1  0.93333500  0.25000000  0.55384200  1
  Se  Se9  1  0.06666500  0.75000000  0.44615800  1
  Se  Se10  1  0.56666500  0.75000000  0.05384200  1
  Se  Se11  1  0.43333500  0.25000000  0.94615800  1
  Se  Se12  1  0.14433200  0.75000000  0.05746000  1
  Se  Se13  1  0.85566800  0.25000000  0.94254000  1
  Se  Se14  1  0.35566800  0.25000000  0.55746000  1
  Se  Se15  1  0.64433200  0.75000000  0.44254000  1
loop_
_geom_bond_atom_site_label_1
_geom_bond_atom_site_label_2
_geom_bond_distance
_geom_bond_site_symmetry_2
Mg0 Se14 2.593518 1_555
Mg0 Se8 2.672008 1_455
Mg0 Se2 2.929642 1_555
Mg0 Se5 2.929642 1_555
Mg0 Se9 2.986951 1_555
Mg0 Se9 2.986951 1_545
Mg1 Se15 2.593518 1_555
Mg1 Se9 2.672008 1_655
Mg1 Se3 2.929642 1_555
Mg1 Se4 2.929642 1_555
Mg1 Se8 2.986951 1_555
Mg1 Se8 2.986951 1_565
Mg2 Se12 2.593518 1_556
Mg2 Se10 2.672008 1_556
Mg2 Se7 2.929642 1_555
Mg2 Se0 2.929642 1_555
Mg2 Se11 2.986951 1_565
Mg2 Se11 2.986951 1_555
Mg3 Se13 2.593518 1_554
Mg3 Se11 2.672008 1_554
Mg3 Se1 2.929642 1_555
Mg3 Se6 2.929642 1_555
Mg3 Se10 2.986951 1_545
Mg3 Se10 2.986951 1_555
In0 Se9 2.709105 1_555
In0 Se12 2.760674 1_555
In0 Se2 2.858675 1_555
In0 Se5 2.858675 1_565
In0 Se1 2.986747 1_455
In0 Se6 2.986747 1_465
In1 Se8 2.709105 1_555
In1 Se13 2.760674 1_555
In1 Se4 2.858675 1_545
In1 Se3 2.858675 1_555
In1 Se7 2.986747 1_645
In1 Se0 2.986747 1_655
In2 Se11 2.709105 1_555
In2 Se14 2.760674 1_555
In2 Se0 2.858675 1_555
In2 Se7 2.858675 1_545
In2 Se3 2.986747 1_555
In2 Se4 2.986747 1_545
In3 Se10 2.709105 1_555
In3 Se15 2.760674 1_555
In3 Se1 2.858675 1_555
In3 Se6 2.858675 1_565
In3 Se2 2.986747 1_555
In3 Se5 2.986747 1_565
In4 Se13 2.804260 1_455
In4 Se11 2.833613 1_555
In4 Se0 2.912509 1_555
In4 Se7 2.912509 1_545
In4 Se12 3.098822 1_546
In4 Se12 3.098822 1_556
In5 Se12 2.804260 1_655
In5 Se10 2.833613 1_555
In5 Se1 2.912509 1_555
In5 Se6 2.912509 1_565
In5 Se13 3.098822 1_564
In5 Se13 3.098822 1_554
In6 Se15 2.804260 1_555
In6 Se9 2.833613 1_555
In6 Se2 2.912509 1_555
In6 Se5 2.912509 1_565
In6 Se14 3.098822 1_555
In6 Se14 3.098822 1_565
In7 Se14 2.804260 1_555
In7 Se8 2.833613 1_555
In7 Se3 2.912509 1_555
In7 Se4 2.912509 1_545
In7 Se15 3.098822 1_555
In7 Se15 3.098822 1_545
