# generated using pymatgen
data_Zr2H3Pd
_symmetry_space_group_name_H-M   'P 1'
_cell_length_a   7.07332116
_cell_length_b   7.07332116
_cell_length_c   7.07332116
_cell_angle_alpha   153.79641530
_cell_angle_beta   153.79641530
_cell_angle_gamma   37.39557839
_symmetry_Int_Tables_number   1
_chemical_formula_structural   Zr2H3Pd
_chemical_formula_sum   'Zr2 H3 Pd1'
_cell_volume   68.89939505
_cell_formula_units_Z   1
loop_
 _symmetry_equiv_pos_site_id
 _symmetry_equiv_pos_as_xyz
  1  'x, y, z'
loop_
 _atom_site_type_symbol
 _atom_site_label
 _atom_site_symmetry_multiplicity
 _atom_site_fract_x
 _atom_site_fract_y
 _atom_site_fract_z
 _atom_site_occupancy
  Zr  Zr0  1  0.64706200  0.64706200  0.00000000  1
  Zr  Zr1  1  0.35293800  0.35293800  0.00000000  1
  H  H0  1  0.50000000  0.50000000  0.00000000  1
  H  H1  1  0.75000000  0.25000000  0.50000000  1
  H  H2  1  0.25000000  0.75000000  0.50000000  1
  Pd  Pd0  1  0.00000000  0.00000000  0.00000000  1
loop_
_geom_bond_atom_site_label_1
_geom_bond_atom_site_label_2
_geom_bond_distance
_geom_bond_site_symmetry_2
H0 Zr0 1.970634 1_555
H0 Zr1 1.970634 1_555
H0 Pd0 2.267540 1_554
H0 Pd0 2.267540 1_666
H0 Pd0 2.267540 1_565
H0 Pd0 2.267540 1_655
H1 Zr0 2.115073 1_556
H1 Zr0 2.115073 1_545
H1 Zr1 2.115073 1_656
H1 Zr1 2.115073 1_555
H2 Zr1 2.115073 1_555
H2 Zr1 2.115073 1_566
H2 Zr0 2.115073 1_455
H2 Zr0 2.115073 1_556
Pd0 Zr1 3.004186 1_444
Pd0 Zr0 3.004186 1_556
Pd0 Zr1 3.004186 1_455
Pd0 Zr0 3.004186 1_545
Pd0 Zr0 3.004186 1_455
Pd0 Zr0 3.004186 1_444
Pd0 Zr1 3.004186 1_545
Pd0 Zr1 3.004186 1_556
