# generated using pymatgen
data_NaB7(H9O10)2
_symmetry_space_group_name_H-M   'P 1'
_cell_length_a   10.48660750
_cell_length_b   13.03710012
_cell_length_c   15.52715494
_cell_angle_alpha   90.00000000
_cell_angle_beta   100.72234655
_cell_angle_gamma   90.00000000
_symmetry_Int_Tables_number   1
_chemical_formula_structural   NaB7(H9O10)2
_chemical_formula_sum   'Na4 B28 H72 O80'
_cell_volume   2085.73090778
_cell_formula_units_Z   4
loop_
 _symmetry_equiv_pos_site_id
 _symmetry_equiv_pos_as_xyz
  1  'x, y, z'
loop_
 _atom_site_type_symbol
 _atom_site_label
 _atom_site_symmetry_multiplicity
 _atom_site_fract_x
 _atom_site_fract_y
 _atom_site_fract_z
 _atom_site_occupancy
  Na  Na0  1  0.94718802  0.96102529  0.61565471  1
  Na  Na1  1  0.05281198  0.46102529  0.88434529  1
  Na  Na2  1  0.05281198  0.03897471  0.38434529  1
  Na  Na3  1  0.94718802  0.53897471  0.11565471  1
  B  B0  1  0.14567175  0.81846809  0.81411384  1
  B  B1  1  0.85432825  0.31846809  0.68588616  1
  B  B2  1  0.85432825  0.18153191  0.18588616  1
  B  B3  1  0.14567175  0.68153191  0.31411384  1
  B  B4  1  0.05416630  0.87598934  0.93703750  1
  B  B5  1  0.94583370  0.37598934  0.56296250  1
  B  B6  1  0.94583370  0.12401066  0.06296250  1
  B  B7  1  0.05416630  0.62401066  0.43703750  1
  B  B8  1  0.12693921  0.00014869  0.83977567  1
  B  B9  1  0.87306079  0.50014869  0.66022433  1
  B  B10  1  0.87306079  0.99985131  0.16022433  1
  B  B11  1  0.12693921  0.49985131  0.33977567  1
  B  B12  1  0.28979355  0.10808019  0.78862034  1
  B  B13  1  0.71020645  0.60808019  0.71137966  1
  B  B14  1  0.71020645  0.89191981  0.21137966  1
  B  B15  1  0.28979355  0.39191981  0.28862034  1
  B  B16  1  0.26276434  0.95506622  0.68367526  1
  B  B17  1  0.73723566  0.45506622  0.81632474  1
  B  B18  1  0.73723566  0.04493378  0.31632474  1
  B  B19  1  0.26276434  0.54493378  0.18367526  1
  B  B20  1  0.31748500  0.76941536  0.73402242  1
  B  B21  1  0.68251500  0.26941536  0.76597758  1
  B  B22  1  0.68251500  0.23058464  0.26597758  1
  B  B23  1  0.31748500  0.73058464  0.23402242  1
  B  B24  1  0.55337061  0.66198258  0.42901914  1
  B  B25  1  0.44662939  0.16198258  0.07098086  1
  B  B26  1  0.44662939  0.33801742  0.57098086  1
  B  B27  1  0.55337061  0.83801742  0.92901914  1
  H  H0  1  0.86933095  0.16649304  0.55678588  1
  H  H1  1  0.13066905  0.66649304  0.94321412  1
  H  H2  1  0.13066905  0.83350696  0.44321412  1
  H  H3  1  0.86933095  0.33350696  0.05678588  1
  H  H4  1  0.82706378  0.08621537  0.47876775  1
  H  H5  1  0.17293622  0.58621537  0.02123225  1
  H  H6  1  0.17293622  0.91378463  0.52123225  1
  H  H7  1  0.82706378  0.41378463  0.97876775  1
  H  H8  1  0.64513887  0.95375883  0.61325177  1
  H  H9  1  0.35486113  0.45375883  0.88674823  1
  H  H10  1  0.35486113  0.04624117  0.38674823  1
  H  H11  1  0.64513887  0.54624117  0.11325177  1
  H  H12  1  0.67467657  0.83555805  0.63406745  1
  H  H13  1  0.32532343  0.33555805  0.86593255  1
  H  H14  1  0.32532343  0.16444195  0.36593255  1
  H  H15  1  0.67467657  0.66444195  0.13406745  1
  H  H16  1  0.81821297  0.91402300  0.43132055  1
  H  H17  1  0.18178703  0.41402300  0.06867945  1
  H  H18  1  0.18178703  0.08597700  0.56867945  1
  H  H19  1  0.81821297  0.58597700  0.93132055  1
  H  H20  1  0.76706207  0.87227908  0.51561342  1
  H  H21  1  0.23293793  0.37227908  0.98438658  1
  H  H22  1  0.23293793  0.12772092  0.48438658  1
  H  H23  1  0.76706207  0.62772092  0.01561342  1
  H  H24  1  0.97413849  0.74388548  0.63059917  1
  H  H25  1  0.02586151  0.24388548  0.86940083  1
  H  H26  1  0.02586151  0.25611452  0.36940083  1
  H  H27  1  0.97413849  0.75611452  0.13059917  1
  H  H28  1  0.87914919  0.76358861  0.69256830  1
  H  H29  1  0.12085081  0.26358861  0.80743170  1
  H  H30  1  0.12085081  0.23641139  0.30743170  1
  H  H31  1  0.87914919  0.73641139  0.19256830  1
  H  H32  1  0.83532801  0.00728265  0.75656619  1
  H  H33  1  0.16467199  0.50728265  0.74343381  1
  H  H34  1  0.16467199  0.99271735  0.24343381  1
  H  H35  1  0.83532801  0.49271735  0.25656619  1
  H  H36  1  0.87783516  0.11794011  0.73972819  1
  H  H37  1  0.12216484  0.61794011  0.76027181  1
  H  H38  1  0.12216484  0.88205989  0.26027181  1
  H  H39  1  0.87783516  0.38205989  0.23972819  1
  H  H40  1  0.98477068  0.91569699  0.04081579  1
  H  H41  1  0.01522932  0.41569699  0.45918421  1
  H  H42  1  0.01522932  0.08430301  0.95918421  1
  H  H43  1  0.98477068  0.58430301  0.54081579  1
  H  H44  1  0.43510425  0.20625484  0.78705109  1
  H  H45  1  0.56489575  0.70625484  0.71294891  1
  H  H46  1  0.56489575  0.79374516  0.21294891  1
  H  H47  1  0.43510425  0.29374516  0.28705109  1
  H  H48  1  0.40623339  0.63730328  0.77390652  1
  H  H49  1  0.59376661  0.13730328  0.72609348  1
  H  H50  1  0.59376661  0.36269672  0.22609348  1
  H  H51  1  0.40623339  0.86269672  0.27390652  1
  H  H52  1  0.59178057  0.51386950  0.42659624  1
  H  H53  1  0.40821943  0.01386950  0.07340376  1
  H  H54  1  0.40821943  0.48613050  0.57340376  1
  H  H55  1  0.59178057  0.98613050  0.92659624  1
  H  H56  1  0.39845982  0.70810639  0.47065515  1
  H  H57  1  0.60154018  0.20810639  0.02934485  1
  H  H58  1  0.60154018  0.29189361  0.52934485  1
  H  H59  1  0.39845982  0.79189361  0.97065515  1
  H  H60  1  0.68501742  0.78133066  0.42730360  1
  H  H61  1  0.31498258  0.28133066  0.07269640  1
  H  H62  1  0.31498258  0.21866934  0.57269640  1
  H  H63  1  0.68501742  0.71866934  0.92730360  1
  H  H64  1  0.47454753  0.02794243  0.67092289  1
  H  H65  1  0.52545247  0.52794243  0.82907711  1
  H  H66  1  0.52545247  0.97205757  0.32907711  1
  H  H67  1  0.47454753  0.47205757  0.17092289  1
  H  H68  1  0.49882168  0.10959842  0.60213235  1
  H  H69  1  0.50117832  0.60959842  0.89786765  1
  H  H70  1  0.50117832  0.89040158  0.39786765  1
  H  H71  1  0.49882168  0.39040158  0.10213235  1
  O  O0  1  0.82865187  0.09954121  0.54255610  1
  O  O1  1  0.17134813  0.59954121  0.95744390  1
  O  O2  1  0.17134813  0.90045879  0.45744390  1
  O  O3  1  0.82865187  0.40045879  0.04255610  1
  O  O4  1  0.71073056  0.89889191  0.61378644  1
  O  O5  1  0.28926944  0.39889191  0.88621356  1
  O  O6  1  0.28926944  0.10110809  0.38621356  1
  O  O7  1  0.71073056  0.60110809  0.11378644  1
  O  O8  1  0.81235030  0.85025120  0.46760162  1
  O  O9  1  0.18764970  0.35025120  0.03239838  1
  O  O10  1  0.18764970  0.14974880  0.53239838  1
  O  O11  1  0.81235030  0.64974880  0.96760162  1
  O  O12  1  0.96096534  0.78842824  0.67904688  1
  O  O13  1  0.03903466  0.28842824  0.82095312  1
  O  O14  1  0.03903466  0.21157176  0.32095312  1
  O  O15  1  0.96096534  0.71157176  0.17904688  1
  O  O16  1  0.16924355  0.97515344  0.61623509  1
  O  O17  1  0.83075645  0.47515344  0.88376491  1
  O  O18  1  0.83075645  0.02484656  0.38376491  1
  O  O19  1  0.16924355  0.52484656  0.11623509  1
  O  O20  1  0.91150357  0.04769839  0.75063398  1
  O  O21  1  0.08849643  0.54769839  0.74936602  1
  O  O22  1  0.08849643  0.95230161  0.24936602  1
  O  O23  1  0.91150357  0.45230161  0.25063398  1
  O  O24  1  0.14830181  0.91915861  0.78692320  1
  O  O25  1  0.85169819  0.41915861  0.71307680  1
  O  O26  1  0.85169819  0.08084139  0.21307680  1
  O  O27  1  0.14830181  0.58084139  0.28692320  1
  O  O28  1  0.07117484  0.97841285  0.91266090  1
  O  O29  1  0.92882516  0.47841285  0.58733910  1
  O  O30  1  0.92882516  0.02158715  0.08733910  1
  O  O31  1  0.07117484  0.52158715  0.41266090  1
  O  O32  1  0.08741765  0.79651782  0.88520855  1
  O  O33  1  0.91258235  0.29651782  0.61479145  1
  O  O34  1  0.91258235  0.20348218  0.11479145  1
  O  O35  1  0.08741765  0.70348218  0.38520855  1
  O  O36  1  0.18305542  0.09300764  0.83037285  1
  O  O37  1  0.81694458  0.59300764  0.66962715  1
  O  O38  1  0.81694458  0.90699236  0.16962715  1
  O  O39  1  0.18305542  0.40699236  0.33037285  1
  O  O40  1  0.33282358  0.03555576  0.73711905  1
  O  O41  1  0.66717642  0.53555576  0.76288095  1
  O  O42  1  0.66717642  0.96444424  0.26288095  1
  O  O43  1  0.33282358  0.46444424  0.23711905  1
  O  O44  1  0.33113991  0.86046861  0.69557910  1
  O  O45  1  0.66886009  0.36046861  0.80442090  1
  O  O46  1  0.66886009  0.13953139  0.30442090  1
  O  O47  1  0.33113991  0.63953139  0.19557910  1
  O  O48  1  0.21790459  0.74570747  0.78128750  1
  O  O49  1  0.78209541  0.24570747  0.71871250  1
  O  O50  1  0.78209541  0.25429253  0.21871250  1
  O  O51  1  0.21790459  0.75429253  0.28128750  1
  O  O52  1  0.01255336  0.85361504  0.01210583  1
  O  O53  1  0.98744664  0.35361504  0.48789417  1
  O  O54  1  0.98744664  0.14638496  0.98789417  1
  O  O55  1  0.01255336  0.64638496  0.51210583  1
  O  O56  1  0.35033191  0.20116013  0.80702618  1
  O  O57  1  0.64966809  0.70116013  0.69297382  1
  O  O58  1  0.64966809  0.79883987  0.19297382  1
  O  O59  1  0.35033191  0.29883987  0.30702618  1
  O  O60  1  0.40588382  0.69272405  0.72907665  1
  O  O61  1  0.59411618  0.19272405  0.77092335  1
  O  O62  1  0.59411618  0.30727595  0.27092335  1
  O  O63  1  0.40588382  0.80727595  0.22907665  1
  O  O64  1  0.62794666  0.57948304  0.41292286  1
  O  O65  1  0.37205334  0.07948304  0.08707714  1
  O  O66  1  0.37205334  0.42051696  0.58707714  1
  O  O67  1  0.62794666  0.92051696  0.91292286  1
  O  O68  1  0.43379374  0.64386612  0.45353270  1
  O  O69  1  0.56620626  0.14386612  0.04646730  1
  O  O70  1  0.56620626  0.35613388  0.54646730  1
  O  O71  1  0.43379374  0.85613388  0.95353270  1
  O  O72  1  0.58992000  0.76158285  0.41954919  1
  O  O73  1  0.41008000  0.26158285  0.08045081  1
  O  O74  1  0.41008000  0.23841715  0.58045081  1
  O  O75  1  0.58992000  0.73841715  0.91954919  1
  O  O76  1  0.54236515  0.05354049  0.64015056  1
  O  O77  1  0.45763485  0.55354049  0.85984944  1
  O  O78  1  0.45763485  0.94645951  0.35984944  1
  O  O79  1  0.54236515  0.44645951  0.14015056  1
loop_
_geom_bond_atom_site_label_1
_geom_bond_atom_site_label_2
_geom_bond_distance
_geom_bond_site_symmetry_2
Na0 O16 2.334228 1_655
Na0 O0 2.359980 1_565
Na0 O12 2.449499 1_555
Na0 O20 2.470071 1_565
Na0 O4 2.603620 1_555
Na1 O17 2.334228 1_455
Na1 O1 2.359980 1_555
Na1 O13 2.449499 1_555
Na1 O21 2.470071 1_555
Na1 O5 2.603620 1_555
Na2 O18 2.334228 1_455
Na2 O2 2.359980 1_545
Na2 O14 2.449499 1_555
Na2 O22 2.470071 1_545
Na2 O6 2.603620 1_555
Na3 O19 2.334228 1_655
Na3 O3 2.359980 1_555
Na3 O15 2.449499 1_555
Na3 O23 2.470071 1_555
Na3 O7 2.603620 1_555
B0 O48 1.370053 1_555
B0 O24 1.380780 1_555
B0 O32 1.387298 1_555
B1 O49 1.370053 1_555
B1 O25 1.380780 1_555
B1 O33 1.387298 1_555
B2 O50 1.370053 1_555
B2 O26 1.380780 1_555
B2 O34 1.387298 1_555
B3 O51 1.370053 1_555
B3 O27 1.380780 1_555
B3 O35 1.387298 1_555
B4 O52 1.350332 1_556
B4 O32 1.395383 1_555
B4 O28 1.408274 1_555
B5 O53 1.350332 1_555
B5 O33 1.395383 1_555
B5 O29 1.408274 1_555
B6 O54 1.350332 1_554
B6 O34 1.395383 1_555
B6 O30 1.408274 1_555
B7 O55 1.350332 1_555
B7 O35 1.395383 1_555
B7 O31 1.408274 1_555
B8 O36 1.365709 1_555
B8 O24 1.380917 1_545
B8 O28 1.396161 1_545
B9 O37 1.365709 1_555
B9 O25 1.380917 1_555
B9 O29 1.396161 1_555
B10 O38 1.365709 1_555
B10 O26 1.380917 1_565
B10 O30 1.396161 1_565
B11 O39 1.365709 1_555
B11 O27 1.380917 1_555
B11 O31 1.396161 1_555
B12 O40 1.367970 1_555
B12 O56 1.374683 1_555
B12 O36 1.407763 1_555
B13 O41 1.367970 1_555
B13 O57 1.374683 1_555
B13 O37 1.407763 1_555
B14 O42 1.367970 1_555
B14 O58 1.374683 1_555
B14 O38 1.407763 1_555
B15 O43 1.367970 1_555
B15 O59 1.374683 1_555
B15 O39 1.407763 1_555
B16 O16 1.320903 1_555
B16 O44 1.421251 1_555
B16 O40 1.450055 1_565
B17 O17 1.320903 1_555
B17 O45 1.421251 1_555
B17 O41 1.450055 1_555
B18 O18 1.320903 1_555
B18 O46 1.421251 1_555
B18 O42 1.450055 1_545
B19 O19 1.320903 1_555
B19 O47 1.421251 1_555
B19 O43 1.450055 1_555
B20 O44 1.348241 1_555
B20 O60 1.375277 1_555
B20 O48 1.417666 1_555
B21 O45 1.348241 1_555
B21 O61 1.375277 1_555
B21 O49 1.417666 1_555
B22 O46 1.348241 1_555
B22 O62 1.375277 1_555
B22 O50 1.417666 1_555
B23 O47 1.348241 1_555
B23 O63 1.375277 1_555
B23 O51 1.417666 1_555
B24 O72 1.369523 1_555
B24 O64 1.379715 1_555
B24 O68 1.396662 1_555
B25 O73 1.369523 1_555
B25 O65 1.379715 1_555
B25 O69 1.396662 1_555
B26 O74 1.369523 1_555
B26 O66 1.379715 1_555
B26 O70 1.396662 1_555
B27 O75 1.369523 1_555
B27 O67 1.379715 1_555
B27 O71 1.396662 1_555
H0 O0 0.978572 1_555
H1 O1 0.978572 1_555
H2 O2 0.978572 1_555
H3 O3 0.978572 1_555
H4 O0 1.002655 1_555
H4 O18 1.684891 1_555
H5 O1 1.002655 1_554
H5 O19 1.684891 1_555
H6 O2 1.002655 1_555
H6 O16 1.684891 1_555
H7 O3 1.002655 1_556
H7 O17 1.684891 1_555
H8 O4 0.991323 1_555
H9 O5 0.991323 1_555
H10 O6 0.991323 1_555
H11 O7 0.991323 1_555
H12 O4 0.983961 1_555
H13 O5 0.983961 1_555
H14 O6 0.983961 1_555
H15 O7 0.983961 1_555
H16 O8 1.012544 1_555
H16 O18 1.638958 1_565
H17 O9 1.012544 1_555
H17 O19 1.638958 1_555
H18 O10 1.012544 1_555
H18 O16 1.638958 1_545
H19 O11 1.012544 1_555
H19 O17 1.638958 1_555
H20 O8 0.997753 1_555
H20 Na0 2.495543 1_555
H21 O9 0.997753 1_556
H21 Na1 2.495543 1_555
H22 O10 0.997753 1_555
H22 Na2 2.495543 1_555
H23 O11 0.997753 1_554
H23 Na3 2.495543 1_555
H24 O12 0.980235 1_555
H25 O13 0.980235 1_555
H26 O14 0.980235 1_555
H27 O15 0.980235 1_555
H28 O12 0.975753 1_555
H29 O13 0.975753 1_555
H30 O14 0.975753 1_555
H31 O15 0.975753 1_555
H32 O20 0.975505 1_555
H33 O21 0.975505 1_555
H34 O22 0.975505 1_555
H35 O23 0.975505 1_555
H36 O20 0.984723 1_555
H37 O21 0.984723 1_555
H38 O22 0.984723 1_555
H39 O23 0.984723 1_555
H40 O52 0.993484 1_655
H41 O53 0.993484 1_455
H42 O54 0.993484 1_455
H43 O55 0.993484 1_655
H44 O56 0.996734 1_555
H45 O57 0.996734 1_555
H46 O58 0.996734 1_555
H47 O59 0.996734 1_555
H48 O60 1.002814 1_555
H49 O61 1.002814 1_555
H50 O62 1.002814 1_555
H51 O63 1.002814 1_555
H52 O64 0.974988 1_555
H53 O65 0.974988 1_555
H54 O66 0.974988 1_555
H55 O67 0.974988 1_555
H56 O68 0.972652 1_555
H57 O69 0.972652 1_555
H58 O70 0.972652 1_555
H59 O71 0.972652 1_555
H60 O72 1.015188 1_555
H61 O73 1.015188 1_555
H62 O74 1.015188 1_555
H63 O75 1.015188 1_555
H64 O76 0.985842 1_555
H65 O77 0.985842 1_555
H66 O78 0.985842 1_555
H67 O79 0.985842 1_555
H68 O76 0.995386 1_555
H69 O77 0.995386 1_555
H70 O78 0.995386 1_555
H71 O79 0.995386 1_555
