# generated using pymatgen
data_Na3Eu2(GeSe3)2
_symmetry_space_group_name_H-M   'P 1'
_cell_length_a   7.38744122
_cell_length_b   7.38744122
_cell_length_c   8.03697834
_cell_angle_alpha   81.22711727
_cell_angle_beta   81.22711727
_cell_angle_gamma   120.01145592
_symmetry_Int_Tables_number   1
_chemical_formula_structural   Na3Eu2(GeSe3)2
_chemical_formula_sum   'Na3 Eu2 Ge2 Se6'
_cell_volume   361.69792122
_cell_formula_units_Z   1
loop_
 _symmetry_equiv_pos_site_id
 _symmetry_equiv_pos_as_xyz
  1  'x, y, z'
loop_
 _atom_site_type_symbol
 _atom_site_label
 _atom_site_symmetry_multiplicity
 _atom_site_fract_x
 _atom_site_fract_y
 _atom_site_fract_z
 _atom_site_occupancy
  Na  Na0  1  0.67353600  0.32646400  0.00000000  1
  Na  Na1  1  0.32646400  0.67353600  0.00000000  1
  Na  Na2  1  0.00000000  0.00000000  0.00000000  1
  Eu  Eu0  1  0.83375500  0.16624500  0.50000000  1
  Eu  Eu1  1  0.16624500  0.83375500  0.50000000  1
  Ge  Ge0  1  0.55365400  0.55365400  0.33568300  1
  Ge  Ge1  1  0.44634600  0.44634600  0.66431700  1
  Se  Se0  1  0.25292000  0.25292000  0.24988900  1
  Se  Se1  1  0.74708000  0.74708000  0.75011100  1
  Se  Se2  1  0.58233100  0.91285500  0.25041700  1
  Se  Se3  1  0.41766900  0.08714500  0.74958300  1
  Se  Se4  1  0.08714500  0.41766900  0.74958300  1
  Se  Se5  1  0.91285500  0.58233100  0.25041700  1
loop_
_geom_bond_atom_site_label_1
_geom_bond_atom_site_label_2
_geom_bond_distance
_geom_bond_site_symmetry_2
Na0 Se2 3.080872 1_545
Na0 Se4 3.080872 1_654
Na0 Se5 3.106754 1_555
Na0 Se3 3.106754 1_554
Na0 Se1 3.171534 1_554
Na0 Se0 3.171534 1_555
Na1 Se5 3.080872 1_455
Na1 Se3 3.080872 1_564
Na1 Se2 3.106754 1_555
Na1 Se4 3.106754 1_554
Na1 Se1 3.171534 1_554
Na1 Se0 3.171534 1_555
Na2 Se4 3.115895 1_554
Na2 Se3 3.115895 1_554
Na2 Se5 3.115895 1_445
Na2 Se2 3.115895 1_445
Na2 Se1 3.132505 1_444
Na2 Se0 3.132505 1_555
Eu0 Se1 3.124830 1_545
Eu0 Se0 3.124830 1_655
Eu0 Se5 3.127023 1_555
Eu0 Se3 3.127023 1_555
Eu0 Se2 3.127505 1_545
Eu0 Se4 3.127505 1_655
Eu1 Se1 3.124830 1_455
Eu1 Se0 3.124830 1_565
Eu1 Se2 3.127023 1_555
Eu1 Se4 3.127023 1_555
Eu1 Se5 3.127505 1_455
Eu1 Se3 3.127505 1_565
Ge0 Se0 2.518739 1_555
Ge0 Se5 2.528760 1_555
Ge0 Se2 2.528760 1_555
Ge1 Se1 2.518739 1_555
Ge1 Se4 2.528760 1_555
Ge1 Se3 2.528760 1_555
