# generated using pymatgen
data_GdWBrO4
_symmetry_space_group_name_H-M   'P 1'
_cell_length_a   6.95018775
_cell_length_b   7.31086706
_cell_length_c   11.09630710
_cell_angle_alpha   105.17699407
_cell_angle_beta   107.72713564
_cell_angle_gamma   93.06216148
_symmetry_Int_Tables_number   1
_chemical_formula_structural   GdWBrO4
_chemical_formula_sum   'Gd4 W4 Br4 O16'
_cell_volume   512.85683120
_cell_formula_units_Z   4
loop_
 _symmetry_equiv_pos_site_id
 _symmetry_equiv_pos_as_xyz
  1  'x, y, z'
loop_
 _atom_site_type_symbol
 _atom_site_label
 _atom_site_symmetry_multiplicity
 _atom_site_fract_x
 _atom_site_fract_y
 _atom_site_fract_z
 _atom_site_occupancy
  Gd  Gd0  1  0.64838325  0.12039608  0.73144057  1
  Gd  Gd1  1  0.35161675  0.87960392  0.26855943  1
  Gd  Gd2  1  0.38654547  0.65262901  0.76778809  1
  Gd  Gd3  1  0.61345453  0.34737099  0.23221191  1
  W  W0  1  0.73253524  0.81397924  0.13313992  1
  W  W1  1  0.26746476  0.18602076  0.86686008  1
  W  W2  1  0.77033809  0.59085757  0.62782107  1
  W  W3  1  0.22966191  0.40914243  0.37217893  1
  Br  Br0  1  0.25859965  0.99600640  0.51756952  1
  Br  Br1  1  0.74140035  0.00399360  0.48243048  1
  Br  Br2  1  0.19116804  0.71525420  0.98030449  1
  Br  Br3  1  0.80883196  0.28474580  0.01969551  1
  O  O0  1  0.66573277  0.72964447  0.95868505  1
  O  O1  1  0.33426723  0.27035553  0.04131495  1
  O  O2  1  0.00111775  0.86943326  0.20643354  1
  O  O3  1  0.99888225  0.13056674  0.79356646  1
  O  O4  1  0.62801178  0.64785649  0.19965417  1
  O  O5  1  0.37198822  0.35214351  0.80034583  1
  O  O6  1  0.39354009  0.98245498  0.81868993  1
  O  O7  1  0.60645991  0.01754502  0.18131007  1
  O  O8  1  0.03797115  0.64591757  0.67196888  1
  O  O9  1  0.96202885  0.35408243  0.32803112  1
  O  O10  1  0.71356026  0.41354178  0.70061812  1
  O  O11  1  0.28643974  0.58645822  0.29938188  1
  O  O12  1  0.66691715  0.50462028  0.45163388  1
  O  O13  1  0.33308285  0.49537972  0.54836612  1
  O  O14  1  0.65784616  0.79247867  0.70111238  1
  O  O15  1  0.34215384  0.20752133  0.29888762  1
loop_
_geom_bond_atom_site_label_1
_geom_bond_atom_site_label_2
_geom_bond_distance
_geom_bond_site_symmetry_2
Gd0 O10 2.299932 1_555
Gd0 O3 2.312179 1_555
Gd0 O14 2.339403 1_545
Gd0 O6 2.540891 1_545
Gd0 O5 2.776559 1_555
Gd1 O11 2.299932 1_555
Gd1 O2 2.312179 1_555
Gd1 O15 2.339403 1_565
Gd1 O7 2.540891 1_565
Gd1 O4 2.776559 1_555
Gd2 O0 2.307584 1_555
Gd2 O13 2.307738 1_555
Gd2 O5 2.319653 1_555
Gd2 O6 2.322380 1_555
Gd2 O8 2.322394 1_555
Gd2 O14 2.487536 1_555
Gd3 O1 2.307584 1_555
Gd3 O12 2.307738 1_555
Gd3 O4 2.319653 1_555
Gd3 O7 2.322380 1_555
Gd3 O9 2.322394 1_555
Gd3 O15 2.487536 1_555
Br0 Gd0 2.913706 1_565
Br0 Gd1 2.948255 1_555
Br1 Gd1 2.913706 1_545
Br1 Gd0 2.948255 1_555
Br2 Gd1 2.930954 1_556
Br2 Gd2 3.010899 1_555
Br3 Gd0 2.930954 1_554
Br3 Gd3 3.010899 1_555
O0 W0 1.772061 1_556
O1 W1 1.772061 1_554
O2 W0 1.769846 1_455
O3 W1 1.769846 1_655
O4 W0 1.802522 1_555
O5 W1 1.802522 1_555
O6 W1 1.810084 1_565
O7 W0 1.810084 1_545
O8 W2 1.767437 1_455
O9 W3 1.767437 1_655
O10 W2 1.782262 1_555
O11 W3 1.782262 1_555
O12 W2 1.785140 1_555
O13 W3 1.785140 1_555
O14 W2 1.824301 1_555
O15 W3 1.824301 1_555
