# generated using pymatgen
data_TiPt3
_symmetry_space_group_name_H-M   'P 1'
_cell_length_a   3.92452764
_cell_length_b   3.92452152
_cell_length_c   3.92452764
_cell_angle_alpha   90.00000000
_cell_angle_beta   90.00000000
_cell_angle_gamma   90.00000000
_symmetry_Int_Tables_number   1
_chemical_formula_structural   TiPt3
_chemical_formula_sum   'Ti1 Pt3'
_cell_volume   60.44515549
_cell_formula_units_Z   1
loop_
 _symmetry_equiv_pos_site_id
 _symmetry_equiv_pos_as_xyz
  1  'x, y, z'
loop_
 _atom_site_type_symbol
 _atom_site_label
 _atom_site_symmetry_multiplicity
 _atom_site_fract_x
 _atom_site_fract_y
 _atom_site_fract_z
 _atom_site_occupancy
  Ti  Ti0  1  0.00000000  -0.00000000  0.00000000  1
  Pt  Pt0  1  0.50000000  0.50000000  0.00000000  1
  Pt  Pt1  1  0.50000000  0.00000000  0.50000000  1
  Pt  Pt2  1  0.00000000  0.50000000  0.50000000  1
loop_
_geom_bond_atom_site_label_1
_geom_bond_atom_site_label_2
_geom_bond_distance
_geom_bond_site_symmetry_2
Pt0 Pt1 2.775058 1_555
Pt0 Pt1 2.775058 1_554
Pt0 Ti0 2.775058 1_555
Pt0 Pt1 2.775058 1_565
Pt0 Pt1 2.775058 1_564
Pt0 Ti0 2.775058 1_565
Pt0 Ti0 2.775058 1_655
Pt0 Ti0 2.775058 1_665
Pt0 Pt2 2.775060 1_654
Pt0 Pt2 2.775060 1_554
Pt0 Pt2 2.775060 1_655
Pt0 Pt2 2.775060 1_555
Pt1 Pt2 2.775058 1_545
Pt1 Pt2 2.775058 1_555
Pt1 Pt2 2.775058 1_655
Pt1 Pt2 2.775058 1_645
Pt1 Ti0 2.775060 1_556
Pt1 Ti0 2.775060 1_555
Pt1 Ti0 2.775060 1_656
Pt1 Ti0 2.775060 1_655
Pt2 Ti0 2.775058 1_555
Pt2 Ti0 2.775058 1_566
Pt2 Ti0 2.775058 1_565
Pt2 Ti0 2.775058 1_556
