# generated using pymatgen
data_Li4CO4
_symmetry_space_group_name_H-M   'P 1'
_cell_length_a   4.72378362
_cell_length_b   4.72378362
_cell_length_c   4.60488316
_cell_angle_alpha   72.53052472
_cell_angle_beta   72.53052472
_cell_angle_gamma   72.66749411
_symmetry_Int_Tables_number   1
_chemical_formula_structural   Li4CO4
_chemical_formula_sum   'Li4 C1 O4'
_cell_volume   91.02309142
_cell_formula_units_Z   1
loop_
 _symmetry_equiv_pos_site_id
 _symmetry_equiv_pos_as_xyz
  1  'x, y, z'
loop_
 _atom_site_type_symbol
 _atom_site_label
 _atom_site_symmetry_multiplicity
 _atom_site_fract_x
 _atom_site_fract_y
 _atom_site_fract_z
 _atom_site_occupancy
  Li  Li0  1  0.64777800  0.64777800  0.53016300  1
  Li  Li1  1  0.13692700  0.65057700  0.05597800  1
  Li  Li2  1  0.65057700  0.13692700  0.05597800  1
  Li  Li3  1  0.24141600  0.24141600  0.70609100  1
  C  C0  1  0.04132800  0.04132800  0.43850500  1
  O  O0  1  0.22512000  0.22512000  0.18769900  1
  O  O1  1  0.81919100  0.23252300  0.62663100  1
  O  O2  1  0.23252300  0.81919100  0.62663100  1
  O  O3  1  0.90266900  0.90266900  0.31411400  1
loop_
_geom_bond_atom_site_label_1
_geom_bond_atom_site_label_2
_geom_bond_distance
_geom_bond_site_symmetry_2
Li0 O3 1.820618 1_555
Li0 O1 1.856655 1_555
Li0 O2 1.856655 1_555
Li1 O3 1.824976 1_455
Li1 O2 1.865482 1_554
Li1 O0 1.871248 1_555
Li2 O3 1.824976 1_545
Li2 O1 1.865482 1_554
Li2 O0 1.871248 1_555
Li3 O2 2.147323 1_545
Li3 O1 2.147323 1_455
Li3 O0 2.174579 1_556
Li3 O0 2.436073 1_555
C0 O3 1.375604 1_445
C0 O2 1.423574 1_545
C0 O1 1.423574 1_455
C0 O0 1.444460 1_555
