# generated using pymatgen
data_Li2Cu4S3
_symmetry_space_group_name_H-M   'P 1'
_cell_length_a   7.65914747
_cell_length_b   7.65914747
_cell_length_c   10.03134022
_cell_angle_alpha   71.98068600
_cell_angle_beta   71.98068600
_cell_angle_gamma   28.70758402
_symmetry_Int_Tables_number   1
_chemical_formula_structural   Li2Cu4S3
_chemical_formula_sum   'Li4 Cu8 S6'
_cell_volume   267.86567645
_cell_formula_units_Z   2
loop_
 _symmetry_equiv_pos_site_id
 _symmetry_equiv_pos_as_xyz
  1  'x, y, z'
loop_
 _atom_site_type_symbol
 _atom_site_label
 _atom_site_symmetry_multiplicity
 _atom_site_fract_x
 _atom_site_fract_y
 _atom_site_fract_z
 _atom_site_occupancy
  Li  Li0  1  0.83548200  0.83548200  0.84922000  1
  Li  Li1  1  0.30841400  0.30841400  0.35224800  1
  Li  Li2  1  0.69158600  0.69158600  0.64775200  1
  Li  Li3  1  0.16451800  0.16451800  0.15078000  1
  Cu  Cu0  1  0.48481400  0.48481400  0.88193300  1
  Cu  Cu1  1  0.46947700  0.46947700  0.63545400  1
  Cu  Cu2  1  0.89891800  0.89891800  0.51358200  1
  Cu  Cu3  1  0.89867400  0.89867400  0.09945800  1
  Cu  Cu4  1  0.10132600  0.10132600  0.90054200  1
  Cu  Cu5  1  0.10108200  0.10108200  0.48641800  1
  Cu  Cu6  1  0.53052300  0.53052300  0.36454600  1
  Cu  Cu7  1  0.51518600  0.51518600  0.11806700  1
  S  S0  1  0.97008600  0.97008600  0.27460200  1
  S  S1  1  0.31800500  0.31800500  0.62217700  1
  S  S2  1  0.33848300  0.33848300  0.04331100  1
  S  S3  1  0.66151700  0.66151700  0.95668900  1
  S  S4  1  0.68199500  0.68199500  0.37782300  1
  S  S5  1  0.02991400  0.02991400  0.72539800  1
loop_
_geom_bond_atom_site_label_1
_geom_bond_atom_site_label_2
_geom_bond_distance
_geom_bond_site_symmetry_2
Li0 S3 2.459636 1_555
Li0 S2 2.730103 1_566
Li0 S2 2.730103 1_656
Li0 S5 2.753099 1_665
Li1 S4 2.623627 1_545
Li1 S4 2.623627 1_455
Li1 S1 2.756499 1_555
Li1 S0 2.962247 1_545
Li1 S0 2.962247 1_455
Li2 S1 2.623627 1_565
Li2 S1 2.623627 1_655
Li2 S4 2.756499 1_555
Li2 S5 2.962247 1_655
Li2 S5 2.962247 1_565
Li3 S2 2.459636 1_555
Li3 S3 2.730103 1_544
Li3 S3 2.730103 1_454
Li3 S0 2.753099 1_445
Cu0 S2 2.256405 1_556
Cu0 S5 2.418227 1_655
Cu0 S5 2.418227 1_565
Cu1 S1 2.293863 1_555
Cu1 S5 2.395953 1_565
Cu1 S5 2.395953 1_655
Cu2 S0 2.290316 1_555
Cu2 S1 2.323467 1_565
Cu2 S1 2.323467 1_655
Cu3 S2 2.245377 1_655
Cu3 S2 2.245377 1_565
Cu3 S0 2.323562 1_555
Cu4 S3 2.245377 1_455
Cu4 S3 2.245377 1_545
Cu4 S5 2.323562 1_555
Cu5 S5 2.290316 1_555
Cu5 S4 2.323467 1_455
Cu5 S4 2.323467 1_545
Cu6 S4 2.293863 1_555
Cu6 S0 2.395953 1_545
Cu6 S0 2.395953 1_455
Cu7 S3 2.256405 1_554
Cu7 S0 2.418227 1_545
Cu7 S0 2.418227 1_455
