# generated using pymatgen
data_Na3MgP3(H12O11)2
_symmetry_space_group_name_H-M   'P 1'
_cell_length_a   9.26859990
_cell_length_b   14.76483040
_cell_length_c   15.16411911
_cell_angle_alpha   90.24841978
_cell_angle_beta   90.00000150
_cell_angle_gamma   89.99999494
_symmetry_Int_Tables_number   1
_chemical_formula_structural   Na3MgP3(H12O11)2
_chemical_formula_sum   'Na12 Mg4 P12 H96 O88'
_cell_volume   2075.17966510
_cell_formula_units_Z   4
loop_
 _symmetry_equiv_pos_site_id
 _symmetry_equiv_pos_as_xyz
  1  'x, y, z'
loop_
 _atom_site_type_symbol
 _atom_site_label
 _atom_site_symmetry_multiplicity
 _atom_site_fract_x
 _atom_site_fract_y
 _atom_site_fract_z
 _atom_site_occupancy
  Na  Na0  1  0.96633681  0.14267675  0.20931772  1
  Na  Na1  1  0.53366311  0.64267681  0.70931804  1
  Na  Na2  1  0.03366319  0.85732325  0.79068228  1
  Na  Na3  1  0.46633689  0.35732319  0.29068196  1
  Na  Na4  1  0.23562251  0.24717043  0.93772720  1
  Na  Na5  1  0.26437742  0.74717040  0.43772734  1
  Na  Na6  1  0.76437749  0.75282957  0.06227280  1
  Na  Na7  1  0.73562258  0.25282960  0.56227266  1
  Na  Na8  1  0.80867821  0.38600079  0.20401216  1
  Na  Na9  1  0.69132167  0.88600061  0.70401222  1
  Na  Na10  1  0.19132179  0.61399921  0.79598784  1
  Na  Na11  1  0.30867833  0.11399939  0.29598778  1
  Mg  Mg0  1  0.95671220  0.24881301  0.81981072  1
  Mg  Mg1  1  0.54328657  0.74881301  0.31981147  1
  Mg  Mg2  1  0.04328780  0.75118699  0.18018928  1
  Mg  Mg3  1  0.45671343  0.25118699  0.68018853  1
  P  P0  1  0.72737834  0.40441451  0.90128419  1
  P  P1  1  0.77262137  0.90441473  0.40128430  1
  P  P2  1  0.27262166  0.59558549  0.09871581  1
  P  P3  1  0.22737863  0.09558527  0.59871570  1
  P  P4  1  0.72103285  0.10835706  0.90932714  1
  P  P5  1  0.77896707  0.60835710  0.40932719  1
  P  P6  1  0.27896715  0.89164294  0.09067286  1
  P  P7  1  0.22103293  0.39164290  0.59067281  1
  P  P8  1  0.84320883  0.25961669  0.01664065  1
  P  P9  1  0.65679095  0.75961678  0.51664070  1
  P  P10  1  0.15679117  0.74038331  0.98335935  1
  P  P11  1  0.34320905  0.24038322  0.48335930  1
  H  H0  1  0.99720301  0.19487494  0.65343074  1
  H  H1  1  0.50279704  0.69487498  0.15343078  1
  H  H2  1  0.00279699  0.80512506  0.34656926  1
  H  H3  1  0.49720296  0.30512502  0.84656922  1
  H  H4  1  0.99378785  0.30432207  0.65561358  1
  H  H5  1  0.50621207  0.80432213  0.15561355  1
  H  H6  1  0.00621215  0.69567793  0.34438642  1
  H  H7  1  0.49378793  0.19567787  0.84438645  1
  H  H8  1  0.11428090  0.40402418  0.84487499  1
  H  H9  1  0.38571902  0.90402418  0.34487503  1
  H  H10  1  0.88571910  0.59597582  0.15512501  1
  H  H11  1  0.61428098  0.09597582  0.65512497  1
  H  H12  1  0.19379115  0.34749379  0.76768895  1
  H  H13  1  0.30620896  0.84749382  0.26768891  1
  H  H14  1  0.80620885  0.65250621  0.23231105  1
  H  H15  1  0.69379104  0.15250618  0.73231109  1
  H  H16  1  0.19295928  0.14655484  0.76998512  1
  H  H17  1  0.30704074  0.64655484  0.26998506  1
  H  H18  1  0.80704072  0.85344516  0.23001488  1
  H  H19  1  0.69295926  0.35344516  0.73001494  1
  H  H20  1  0.10967029  0.08782194  0.84394989  1
  H  H21  1  0.39032967  0.58782189  0.34394992  1
  H  H22  1  0.89032971  0.91217806  0.15605011  1
  H  H23  1  0.60967033  0.41217811  0.65605008  1
  H  H24  1  0.65117319  0.10161923  0.23954051  1
  H  H25  1  0.84882692  0.60161926  0.73954054  1
  H  H26  1  0.34882681  0.89838077  0.76045949  1
  H  H27  1  0.15117308  0.39838074  0.26045946  1
  H  H28  1  0.73196825  0.07808397  0.32697371  1
  H  H29  1  0.76803169  0.57808394  0.82697365  1
  H  H30  1  0.26803175  0.92191603  0.67302629  1
  H  H31  1  0.23196831  0.42191606  0.17302635  1
  H  H32  1  0.76300955  0.31421462  0.37791819  1
  H  H33  1  0.73699050  0.81421462  0.87791824  1
  H  H34  1  0.23699045  0.68578538  0.62208181  1
  H  H35  1  0.26300950  0.18578538  0.12208176  1
  H  H36  1  0.71367306  0.23559985  0.31334599  1
  H  H37  1  0.78632685  0.73559988  0.81334594  1
  H  H38  1  0.28632694  0.76440015  0.68665401  1
  H  H39  1  0.21367315  0.26440012  0.18665406  1
  H  H40  1  0.87489977  0.02107547  0.05454198  1
  H  H41  1  0.62510019  0.52107546  0.55454200  1
  H  H42  1  0.12510023  0.97892453  0.94545802  1
  H  H43  1  0.37489981  0.47892454  0.44545800  1
  H  H44  1  0.03325739  0.00074766  0.08738438  1
  H  H45  1  0.46674255  0.50074762  0.58738437  1
  H  H46  1  0.96674261  0.99925234  0.91261562  1
  H  H47  1  0.53325745  0.49925238  0.41261563  1
  H  H48  1  0.97756662  0.19631213  0.39634009  1
  H  H49  1  0.52243346  0.69631215  0.89634005  1
  H  H50  1  0.02243338  0.80368787  0.60365991  1
  H  H51  1  0.47756654  0.30368785  0.10365995  1
  H  H52  1  0.11954977  0.24451956  0.36363287  1
  H  H53  1  0.38045026  0.74451955  0.86363291  1
  H  H54  1  0.88045023  0.75548044  0.63636713  1
  H  H55  1  0.61954974  0.25548045  0.13636709  1
  H  H56  1  0.62681919  0.53504908  0.26136333  1
  H  H57  1  0.87318078  0.03504913  0.76136336  1
  H  H58  1  0.37318081  0.46495092  0.73863667  1
  H  H59  1  0.12681922  0.96495087  0.23863664  1
  H  H60  1  0.54436341  0.51718567  0.17418085  1
  H  H61  1  0.95563657  0.01718568  0.67418086  1
  H  H62  1  0.45563659  0.48281433  0.82581915  1
  H  H63  1  0.04436343  0.98281432  0.32581914  1
  H  H64  1  0.31805860  0.41194637  0.03930796  1
  H  H65  1  0.18194144  0.91194638  0.53930798  1
  H  H66  1  0.68194140  0.58805363  0.96069204  1
  H  H67  1  0.81805856  0.08805362  0.46069202  1
  H  H68  1  0.44490673  0.38157338  0.97577756  1
  H  H69  1  0.05509327  0.88157339  0.47577759  1
  H  H70  1  0.55509327  0.61842662  0.02422244  1
  H  H71  1  0.94490673  0.11842661  0.52422241  1
  H  H72  1  0.43353540  0.11513487  0.97795027  1
  H  H73  1  0.06646470  0.61513492  0.47795033  1
  H  H74  1  0.56646460  0.88486513  0.02204973  1
  H  H75  1  0.93353530  0.38486508  0.52204967  1
  H  H76  1  0.30111257  0.06924701  0.02696592  1
  H  H77  1  0.19888738  0.56924703  0.52696593  1
  H  H78  1  0.69888743  0.93075299  0.97303408  1
  H  H79  1  0.80111262  0.43075297  0.47303407  1
  H  H80  1  0.87469873  0.49283623  0.04774860  1
  H  H81  1  0.62530126  0.99283624  0.54774855  1
  H  H82  1  0.12530127  0.50716377  0.95225140  1
  H  H83  1  0.37469874  0.00716376  0.45225145  1
  H  H84  1  0.02577326  0.49483486  0.09727430  1
  H  H85  1  0.47422675  0.99483484  0.59727430  1
  H  H86  1  0.97422674  0.50516514  0.90272570  1
  H  H87  1  0.52577325  0.00516516  0.40272570  1
  H  H88  1  0.98220211  0.49425419  0.33681527  1
  H  H89  1  0.51779786  0.99425424  0.83681527  1
  H  H90  1  0.01779789  0.50574581  0.66318473  1
  H  H91  1  0.48220214  0.00574576  0.16318473  1
  H  H92  1  0.96790376  0.39197733  0.36146706  1
  H  H93  1  0.53209626  0.89197737  0.86146706  1
  H  H94  1  0.03209624  0.60802267  0.63853294  1
  H  H95  1  0.46790374  0.10802263  0.13853294  1
  O  O0  1  0.56294385  0.40417226  0.89184635  1
  O  O1  1  0.93705637  0.90417221  0.39184639  1
  O  O2  1  0.43705615  0.59582774  0.10815365  1
  O  O3  1  0.06294363  0.09582779  0.60815361  1
  O  O4  1  0.80203821  0.35052328  0.82804062  1
  O  O5  1  0.69796168  0.85052319  0.32804078  1
  O  O6  1  0.19796179  0.64947672  0.17195938  1
  O  O7  1  0.30203832  0.14947681  0.67195922  1
  O  O8  1  0.79086955  0.49962847  0.91694348  1
  O  O9  1  0.70913040  0.99962824  0.41694358  1
  O  O10  1  0.20913045  0.50037153  0.08305652  1
  O  O11  1  0.29086960  0.00037176  0.58305642  1
  O  O12  1  0.76137028  0.35361067  0.99555357  1
  O  O13  1  0.73862984  0.85361070  0.49555367  1
  O  O14  1  0.23862972  0.64638933  0.00444643  1
  O  O15  1  0.26137016  0.14638930  0.50444633  1
  O  O16  1  0.79340491  0.02454334  0.94861592  1
  O  O17  1  0.70659484  0.52454335  0.44861592  1
  O  O18  1  0.20659509  0.97545666  0.05138408  1
  O  O19  1  0.29340516  0.47545665  0.55138408  1
  O  O20  1  0.55930064  0.09753665  0.89117211  1
  O  O21  1  0.94069910  0.59753684  0.39117189  1
  O  O22  1  0.44069936  0.90246335  0.10882789  1
  O  O23  1  0.05930090  0.40246316  0.60882811  1
  O  O24  1  0.80371155  0.14449646  0.82856201  1
  O  O25  1  0.69628852  0.64449676  0.32856206  1
  O  O26  1  0.19628845  0.85550354  0.17143799  1
  O  O27  1  0.30371148  0.35550324  0.67143794  1
  O  O28  1  0.72347116  0.18654563  0.98619949  1
  O  O29  1  0.77652870  0.68654565  0.48619952  1
  O  O30  1  0.27652884  0.81345437  0.01380051  1
  O  O31  1  0.22347130  0.31345435  0.51380048  1
  O  O32  1  0.85419332  0.25598737  0.11498156  1
  O  O33  1  0.64580662  0.75598726  0.61498173  1
  O  O34  1  0.14580668  0.74401263  0.88501844  1
  O  O35  1  0.35419338  0.24401274  0.38501827  1
  O  O36  1  0.97568074  0.24969942  0.95906951  1
  O  O37  1  0.52431944  0.74969951  0.45906983  1
  O  O38  1  0.02431926  0.75030058  0.04093049  1
  O  O39  1  0.47568056  0.25030049  0.54093017  1
  O  O40  1  0.94877227  0.24857607  0.68116895  1
  O  O41  1  0.55122754  0.74857624  0.18116883  1
  O  O42  1  0.05122773  0.75142393  0.31883105  1
  O  O43  1  0.44877246  0.25142376  0.81883117  1
  O  O44  1  0.13109319  0.34160137  0.82051118  1
  O  O45  1  0.36890678  0.84160131  0.32051109  1
  O  O46  1  0.86890681  0.65839863  0.17948882  1
  O  O47  1  0.63109322  0.15839869  0.67948891  1
  O  O48  1  0.12773259  0.15093681  0.82184847  1
  O  O49  1  0.37226758  0.65093695  0.32184860  1
  O  O50  1  0.87226741  0.84906319  0.17815153  1
  O  O51  1  0.62773242  0.34906305  0.67815140  1
  O  O52  1  0.73408694  0.12100254  0.27704590  1
  O  O53  1  0.76591287  0.62100264  0.77704576  1
  O  O54  1  0.26591306  0.87899746  0.72295410  1
  O  O55  1  0.23408713  0.37899736  0.22295424  1
  O  O56  1  0.70386114  0.30167849  0.32565957  1
  O  O57  1  0.79613862  0.80167847  0.82565962  1
  O  O58  1  0.29613886  0.69832151  0.67434043  1
  O  O59  1  0.20386138  0.19832153  0.17434038  1
  O  O60  1  0.93332389  0.01296808  0.10878968  1
  O  O61  1  0.56667613  0.51296796  0.60878973  1
  O  O62  1  0.06667611  0.98703192  0.89121032  1
  O  O63  1  0.43332387  0.48703204  0.39121027  1
  O  O64  1  0.02443277  0.22407972  0.34418082  1
  O  O65  1  0.47556745  0.72407984  0.84418066  1
  O  O66  1  0.97556723  0.77592028  0.65581918  1
  O  O67  1  0.52443255  0.27592016  0.15581934  1
  O  O68  1  0.60561062  0.48663529  0.21856986  1
  O  O69  1  0.89438940  0.98663522  0.71856967  1
  O  O70  1  0.39438938  0.51336471  0.78143014  1
  O  O71  1  0.10561060  0.01336478  0.28143033  1
  O  O72  1  0.37079868  0.35786282  0.01737534  1
  O  O73  1  0.12920173  0.85786295  0.51737529  1
  O  O74  1  0.62920132  0.64213718  0.98262466  1
  O  O75  1  0.87079827  0.14213705  0.48262471  1
  O  O76  1  0.35234117  0.12825088  0.01902456  1
  O  O77  1  0.14765836  0.62825099  0.51902433  1
  O  O78  1  0.64765883  0.87174912  0.98097544  1
  O  O79  1  0.85234164  0.37174901  0.48097567  1
  O  O80  1  0.91884425  0.49610720  0.10651148  1
  O  O81  1  0.58115543  0.99610727  0.60651144  1
  O  O82  1  0.08115575  0.50389280  0.89348852  1
  O  O83  1  0.41884457  0.00389273  0.39348856  1
  O  O84  1  0.99018150  0.43201063  0.31163593  1
  O  O85  1  0.50981827  0.93201088  0.81163591  1
  O  O86  1  0.00981850  0.56798937  0.68836407  1
  O  O87  1  0.49018173  0.06798912  0.18836409  1
loop_
_geom_bond_atom_site_label_1
_geom_bond_atom_site_label_2
_geom_bond_distance
_geom_bond_site_symmetry_2
Na0 O52 2.407050 1_555
Na0 O59 2.409730 1_655
Na0 O64 2.428076 1_655
Na0 O32 2.438545 1_555
Na0 O60 2.461681 1_555
Na0 O71 2.554518 1_655
Na1 O53 2.407046 1_555
Na1 O58 2.409728 1_555
Na1 O65 2.428070 1_555
Na1 O33 2.438545 1_555
Na1 O61 2.461686 1_555
Na1 O70 2.554516 1_555
Na2 O54 2.407050 1_555
Na2 O57 2.409730 1_455
Na2 O66 2.428076 1_455
Na2 O34 2.438545 1_555
Na2 O62 2.461681 1_555
Na2 O69 2.554518 1_455
Na3 O55 2.407046 1_555
Na3 O56 2.409728 1_555
Na3 O67 2.428070 1_555
Na3 O35 2.438545 1_555
Na3 O63 2.461686 1_555
Na3 O68 2.554516 1_555
Na4 O72 2.383801 1_556
Na4 O76 2.406623 1_556
Na4 O36 2.431201 1_455
Na4 O44 2.462422 1_555
Na4 O48 2.466770 1_555
Na4 O43 2.675550 1_555
Na5 O73 2.383799 1_555
Na5 O77 2.406620 1_555
Na5 O37 2.431204 1_555
Na5 O45 2.462424 1_555
Na5 O49 2.466770 1_555
Na5 O42 2.675551 1_555
Na6 O74 2.383801 1_554
Na6 O78 2.406623 1_554
Na6 O38 2.431201 1_655
Na6 O46 2.462422 1_555
Na6 O50 2.466770 1_555
Na6 O41 2.675550 1_555
Na7 O75 2.383799 1_555
Na7 O79 2.406620 1_555
Na7 O39 2.431204 1_555
Na7 O47 2.462424 1_555
Na7 O51 2.466770 1_555
Na7 O40 2.675551 1_555
Na8 O32 2.379737 1_555
Na8 O68 2.407517 1_555
Na8 O80 2.427419 1_555
Na8 O56 2.432408 1_555
Na8 O84 2.438325 1_555
Na9 O33 2.379735 1_555
Na9 O69 2.407519 1_555
Na9 O81 2.427423 1_555
Na9 O57 2.432406 1_555
Na9 O85 2.438327 1_555
Na10 O34 2.379737 1_555
Na10 O70 2.407517 1_555
Na10 O82 2.427419 1_555
Na10 O58 2.432408 1_555
Na10 O86 2.438325 1_555
Na11 O35 2.379735 1_555
Na11 O71 2.407519 1_555
Na11 O83 2.427423 1_555
Na11 O59 2.432406 1_555
Na11 O87 2.438327 1_555
Mg0 O4 2.079519 1_555
Mg0 O24 2.098252 1_555
Mg0 O40 2.103656 1_555
Mg0 O44 2.118778 1_655
Mg0 O36 2.119027 1_555
Mg0 O48 2.145305 1_655
Mg1 O5 2.079525 1_555
Mg1 O25 2.098256 1_555
Mg1 O41 2.103669 1_555
Mg1 O45 2.118769 1_555
Mg1 O37 2.119019 1_555
Mg1 O49 2.145294 1_555
Mg2 O6 2.079519 1_555
Mg2 O26 2.098252 1_555
Mg2 O42 2.103656 1_555
Mg2 O46 2.118778 1_455
Mg2 O38 2.119027 1_555
Mg2 O50 2.145305 1_455
Mg3 O7 2.079525 1_555
Mg3 O27 2.098256 1_555
Mg3 O43 2.103669 1_555
Mg3 O47 2.118769 1_555
Mg3 O39 2.119019 1_555
Mg3 O51 2.145294 1_555
H0 O40 1.002099 1_555
H1 O41 1.002099 1_555
H2 O42 1.002099 1_555
H3 O43 1.002099 1_555
H4 O40 1.002240 1_555
H5 O41 1.002237 1_555
H6 O42 1.002240 1_555
H7 O43 1.002237 1_555
H8 O44 1.003637 1_555
H9 O45 1.003639 1_555
H10 O46 1.003637 1_555
H11 O47 1.003639 1_555
H12 O44 0.993721 1_555
H13 O45 0.993720 1_555
H14 O46 0.993721 1_555
H15 O47 0.993720 1_555
H16 O48 0.993861 1_555
H17 O49 0.993864 1_555
H18 O50 0.993861 1_555
H19 O51 0.993864 1_555
H20 O48 1.005714 1_555
H21 O49 1.005716 1_555
H22 O50 1.005714 1_555
H23 O51 1.005716 1_555
H24 O52 0.997266 1_555
H25 O53 0.997266 1_555
H26 O54 0.997266 1_555
H27 O55 0.997266 1_555
H28 O52 0.989606 1_555
H29 O53 0.989608 1_555
H30 O54 0.989606 1_555
H31 O55 0.989608 1_555
H32 O56 0.980573 1_555
H33 O57 0.980571 1_555
H34 O58 0.980573 1_555
H35 O59 0.980571 1_555
H36 O56 0.996710 1_555
H37 O57 0.996709 1_555
H38 O58 0.996710 1_555
H39 O59 0.996709 1_555
H40 O60 0.992531 1_555
H41 O61 0.992531 1_555
H42 O62 0.992531 1_555
H43 O63 0.992531 1_555
H44 O60 0.997665 1_455
H45 O61 0.997666 1_555
H46 O62 0.997665 1_655
H47 O63 0.997666 1_555
H48 O64 0.992567 1_655
H49 O65 0.992568 1_555
H50 O66 0.992567 1_455
H51 O67 0.992568 1_555
H52 O64 0.977004 1_555
H53 O65 0.977005 1_555
H54 O66 0.977004 1_555
H55 O67 0.977005 1_555
H56 O68 0.983205 1_555
H57 O69 0.983209 1_545
H58 O70 0.983205 1_555
H59 O71 0.983209 1_565
H60 O68 0.990679 1_555
H61 O69 0.990677 1_545
H62 O70 0.990679 1_555
H63 O71 0.990677 1_565
H64 O72 0.992432 1_555
H65 O73 0.992429 1_555
H66 O74 0.992432 1_555
H67 O75 0.992429 1_555
H68 O72 0.997083 1_556
H69 O73 0.997084 1_555
H70 O74 0.997083 1_554
H71 O75 0.997084 1_555
H72 O76 0.995363 1_556
H73 O77 0.995356 1_555
H74 O78 0.995363 1_554
H75 O79 0.995356 1_555
H76 O76 0.999911 1_555
H77 O77 0.999914 1_555
H78 O78 0.999911 1_555
H79 O79 0.999914 1_555
H80 O80 0.981536 1_555
H81 O81 0.981538 1_555
H82 O82 0.981536 1_555
H83 O83 0.981538 1_555
H84 O80 1.001097 1_455
H85 O81 1.001094 1_555
H86 O82 1.001097 1_655
H87 O83 1.001094 1_555
H88 O84 0.996396 1_555
H89 O85 0.996394 1_555
H90 O86 0.996396 1_555
H91 O87 0.996394 1_555
H92 O84 0.983305 1_555
H93 O85 0.983308 1_555
H94 O86 0.983305 1_555
H95 O87 0.983308 1_555
O0 P0 1.530785 1_555
O1 P1 1.530790 1_555
O2 P2 1.530785 1_555
O3 P3 1.530790 1_555
O4 P0 1.529025 1_555
O5 P1 1.529026 1_555
O6 P2 1.529025 1_555
O7 P3 1.529026 1_555
O8 P0 1.541466 1_555
O9 P1 1.541459 1_555
O10 P2 1.541466 1_555
O11 P3 1.541459 1_555
O12 P8 1.614766 1_556
O12 P0 1.647644 1_555
O13 P9 1.614766 1_555
O13 P1 1.647644 1_555
O14 P10 1.614766 1_554
O14 P2 1.647644 1_555
O15 P11 1.614766 1_555
O15 P3 1.647644 1_555
O16 P4 1.530587 1_555
O17 P5 1.530588 1_555
O18 P6 1.530587 1_555
O19 P7 1.530588 1_555
O20 P4 1.532328 1_555
O21 P5 1.532327 1_555
O22 P6 1.532328 1_555
O23 P7 1.532327 1_555
O24 P4 1.541946 1_555
O25 P5 1.541946 1_555
O26 P6 1.541946 1_555
O27 P7 1.541946 1_555
O28 P8 1.613819 1_556
O28 P4 1.637203 1_555
O29 P9 1.613820 1_555
O29 P5 1.637203 1_555
O30 P10 1.613819 1_554
O30 P6 1.637203 1_555
O31 P11 1.613820 1_555
O31 P7 1.637203 1_555
O32 P8 1.495917 1_555
O33 P9 1.495918 1_555
O34 P10 1.495917 1_555
O35 P11 1.495918 1_555
O36 P8 1.513292 1_556
O37 P9 1.513287 1_555
O38 P10 1.513292 1_554
O39 P11 1.513287 1_555
