# generated using pymatgen
data_NaCoP2HO7
_symmetry_space_group_name_H-M   'P 1'
_cell_length_a   6.60926791
_cell_length_b   6.74614000
_cell_length_c   12.22092853
_cell_angle_alpha   97.60094478
_cell_angle_beta   91.03656730
_cell_angle_gamma   84.53623404
_symmetry_Int_Tables_number   1
_chemical_formula_structural   NaCoP2HO7
_chemical_formula_sum   'Na4 Co4 P8 H4 O28'
_cell_volume   537.64505534
_cell_formula_units_Z   4
loop_
 _symmetry_equiv_pos_site_id
 _symmetry_equiv_pos_as_xyz
  1  'x, y, z'
loop_
 _atom_site_type_symbol
 _atom_site_label
 _atom_site_symmetry_multiplicity
 _atom_site_fract_x
 _atom_site_fract_y
 _atom_site_fract_z
 _atom_site_occupancy
  Na  Na0  1  0.61809700  0.37149300  0.11848900  1
  Na  Na1  1  0.61804200  0.87148800  0.61845900  1
  Na  Na2  1  0.33744300  0.10809200  0.34391600  1
  Na  Na3  1  0.33751200  0.60816200  0.84398000  1
  Co  Co0  1  0.14917900  0.25673300  0.64057300  1
  Co  Co1  1  0.85164900  0.74071700  0.35644200  1
  Co  Co2  1  0.14916400  0.75667900  0.14053900  1
  Co  Co3  1  0.85164200  0.24050300  0.85632500  1
  P  P0  1  0.11834800  0.21900200  0.08102500  1
  P  P1  1  0.11846800  0.71901100  0.58103800  1
  P  P2  1  0.88007300  0.28186300  0.41883000  1
  P  P3  1  0.88002700  0.78185200  0.91882600  1
  P  P4  1  0.64347500  0.84763200  0.13079000  1
  P  P5  1  0.64347500  0.34776500  0.63079500  1
  P  P6  1  0.35612100  0.65121400  0.36921500  1
  P  P7  1  0.35613000  0.15116500  0.86924100  1
  H  H0  1  0.28759900  0.41613100  0.21616700  1
  H  H1  1  0.28773300  0.91603800  0.71621600  1
  H  H2  1  0.71229500  0.08912400  0.28584200  1
  H  H3  1  0.71233100  0.58920900  0.78584200  1
  O  O0  1  0.20910800  0.41740600  0.13554200  1
  O  O1  1  0.20930900  0.91734100  0.63554600  1
  O  O2  1  0.79208500  0.08281600  0.36247100  1
  O  O3  1  0.79197700  0.58285700  0.86245200  1
  O  O4  1  0.59026500  0.06033000  0.19088600  1
  O  O5  1  0.59022300  0.56046000  0.69084600  1
  O  O6  1  0.40311400  0.43895700  0.30700700  1
  O  O7  1  0.40327700  0.93888400  0.80707200  1
  O  O8  1  0.82983700  0.73853300  0.18405500  1
  O  O9  1  0.82989200  0.23878100  0.68408300  1
  O  O10  1  0.17406300  0.76668200  0.31558700  1
  O  O11  1  0.17399600  0.26647000  0.81554300  1
  O  O12  1  0.11349700  0.07213600  0.16414800  1
  O  O13  1  0.11343200  0.57215000  0.66415300  1
  O  O14  1  0.88997400  0.42939700  0.33695600  1
  O  O15  1  0.89002800  0.92935500  0.83693400  1
  O  O16  1  0.46616800  0.71747400  0.11516600  1
  O  O17  1  0.46625000  0.21751300  0.61521500  1
  O  O18  1  0.53607200  0.77770300  0.38807200  1
  O  O19  1  0.53597800  0.27778400  0.88807700  1
  O  O20  1  0.71293500  0.88225800  0.00886900  1
  O  O21  1  0.71294800  0.38224700  0.50885000  1
  O  O22  1  0.28462600  0.61604800  0.49051700  1
  O  O23  1  0.28457500  0.11603500  0.99054400  1
  O  O24  1  0.92184600  0.27730300  0.02179300  1
  O  O25  1  0.92196400  0.77745400  0.52183800  1
  O  O26  1  0.07669500  0.21934000  0.47712800  1
  O  O27  1  0.07666400  0.71941000  0.97710000  1
loop_
_geom_bond_atom_site_label_1
_geom_bond_atom_site_label_2
_geom_bond_distance
_geom_bond_site_symmetry_2
Na0 O24 2.339822 1_555
Na0 O4 2.407033 1_555
Na0 O16 2.456614 1_555
Na0 O6 2.692905 1_555
Na0 O0 2.700015 1_555
Na0 O19 2.856982 1_554
Na0 O8 2.970862 1_555
Na1 O25 2.340211 1_555
Na1 O5 2.406114 1_555
Na1 O17 2.456468 1_565
Na1 O7 2.693122 1_555
Na1 O1 2.698367 1_555
Na1 O18 2.856557 1_555
Na1 O9 2.972804 1_565
Na2 O26 2.390707 1_555
Na2 O6 2.414925 1_555
Na2 O4 2.498922 1_555
Na2 O18 2.591860 1_545
Na2 O10 2.615291 1_545
Na2 O12 2.624089 1_555
Na3 O27 2.390439 1_555
Na3 O7 2.414158 1_555
Na3 O5 2.499389 1_555
Na3 O19 2.591119 1_555
Na3 O11 2.617464 1_555
Na3 O13 2.625184 1_555
Co0 O26 2.034217 1_555
Co0 O13 2.100264 1_555
Co0 O17 2.110410 1_555
Co0 O11 2.134416 1_555
Co0 O9 2.203833 1_455
Co0 O1 2.279103 1_545
Co1 O25 2.053885 1_555
Co1 O14 2.073719 1_555
Co1 O8 2.107252 1_555
Co1 O18 2.113412 1_555
Co1 O10 2.225647 1_655
Co1 O2 2.295565 1_565
Co2 O27 2.034157 1_554
Co2 O12 2.100522 1_565
Co2 O16 2.110000 1_555
Co2 O10 2.135231 1_555
Co2 O8 2.204341 1_455
Co2 O0 2.278254 1_555
Co3 O24 2.054577 1_556
Co3 O15 2.072606 1_545
Co3 O9 2.105836 1_555
Co3 O19 2.114252 1_555
Co3 O11 2.225040 1_655
Co3 O3 2.297193 1_555
H0 O0 1.105863 1_555
H0 O6 1.336236 1_555
H0 Na0 2.482137 1_555
H1 O1 1.106164 1_555
H1 O7 1.336511 1_555
H1 Na1 2.481522 1_555
H2 O2 1.070189 1_555
H2 O4 1.403996 1_555
H3 O3 1.069568 1_555
H3 O5 1.404656 1_555
O0 P0 1.580418 1_555
O1 P1 1.580214 1_555
O2 P2 1.582791 1_555
O3 P3 1.582740 1_555
O4 P4 1.535070 1_545
O5 P5 1.534896 1_555
O6 P6 1.536450 1_555
O7 P7 1.536533 1_565
O8 P4 1.551660 1_555
O9 P5 1.551709 1_555
O10 P6 1.553126 1_555
O11 P7 1.553362 1_555
O12 P0 1.512642 1_555
O13 P1 1.512661 1_555
O14 P2 1.508061 1_555
O15 P3 1.508148 1_555
O16 P4 1.524544 1_555
O17 P5 1.524481 1_555
O18 P6 1.525489 1_555
O19 P7 1.525447 1_555
O20 P3 1.610479 1_554
O20 P4 1.619453 1_555
O21 P2 1.610404 1_555
O21 P5 1.619473 1_555
O22 P1 1.614832 1_555
O22 P6 1.617674 1_555
O23 P0 1.614824 1_556
O23 P7 1.617742 1_555
O24 P0 1.519677 1_655
O25 P1 1.519725 1_655
O26 P2 1.521804 1_455
O27 P3 1.521601 1_455
