# generated using pymatgen
data_CeMg6Ti
_symmetry_space_group_name_H-M   'P 1'
_cell_length_a   4.95589800
_cell_length_b   6.44853500
_cell_length_c   11.60136800
_cell_angle_alpha   90.00000000
_cell_angle_beta   90.00000000
_cell_angle_gamma   90.00000000
_symmetry_Int_Tables_number   1
_chemical_formula_structural   CeMg6Ti
_chemical_formula_sum   'Ce2 Mg12 Ti2'
_cell_volume   370.75978676
_cell_formula_units_Z   2
loop_
 _symmetry_equiv_pos_site_id
 _symmetry_equiv_pos_as_xyz
  1  'x, y, z'
loop_
 _atom_site_type_symbol
 _atom_site_label
 _atom_site_symmetry_multiplicity
 _atom_site_fract_x
 _atom_site_fract_y
 _atom_site_fract_z
 _atom_site_occupancy
  Ce  Ce0  1  0.50000000  0.50000000  0.19456300  1
  Ce  Ce1  1  0.50000000  0.00000000  0.69456300  1
  Mg  Mg0  1  0.00000000  0.75311500  0.07443800  1
  Mg  Mg1  1  0.00000000  0.24688500  0.07443800  1
  Mg  Mg2  1  0.00000000  0.00000000  0.32592100  1
  Mg  Mg3  1  0.50000000  0.25774700  0.42729400  1
  Mg  Mg4  1  0.50000000  0.74225300  0.42729400  1
  Mg  Mg5  1  0.50000000  0.00000000  0.16706100  1
  Mg  Mg6  1  0.00000000  0.25311500  0.57443800  1
  Mg  Mg7  1  0.00000000  0.74688500  0.57443800  1
  Mg  Mg8  1  0.00000000  0.50000000  0.82592100  1
  Mg  Mg9  1  0.50000000  0.75774700  0.92729400  1
  Mg  Mg10  1  0.50000000  0.24225300  0.92729400  1
  Mg  Mg11  1  0.50000000  0.50000000  0.66706100  1
  Ti  Ti0  1  0.00000000  0.50000000  0.30899100  1
  Ti  Ti1  1  0.00000000  0.00000000  0.80899100  1
loop_
_geom_bond_atom_site_label_1
_geom_bond_atom_site_label_2
_geom_bond_distance
_geom_bond_site_symmetry_2
Ce0 Ti0 2.811146 1_655
Ce0 Ti0 2.811146 1_555
Ce0 Mg4 3.119357 1_555
Ce0 Mg3 3.119357 1_555
Ce0 Mg5 3.240016 1_555
Ce0 Mg5 3.240016 1_565
Ce0 Mg1 3.278191 1_655
Ce0 Mg0 3.278191 1_555
Ce0 Mg0 3.278191 1_655
Ce0 Mg1 3.278191 1_555
Ce0 Mg9 3.518067 1_554
Ce0 Mg10 3.518067 1_554
Ce1 Ti1 2.811146 1_555
Ce1 Ti1 2.811146 1_655
Ce1 Mg10 3.119357 1_555
Ce1 Mg9 3.119357 1_545
Ce1 Mg11 3.240016 1_555
Ce1 Mg11 3.240016 1_545
Ce1 Mg7 3.278191 1_545
Ce1 Mg7 3.278191 1_645
Ce1 Mg6 3.278191 1_655
Ce1 Mg6 3.278191 1_555
Ce1 Mg3 3.518067 1_555
Ce1 Mg4 3.518067 1_545
Mg0 Mg9 3.009189 1_554
Mg0 Mg9 3.009189 1_454
Mg0 Mg5 3.135205 1_465
Mg0 Mg5 3.135205 1_565
Mg0 Ti0 3.173125 1_555
Mg0 Mg1 3.184093 1_565
Mg0 Mg1 3.264442 1_555
Mg0 Mg8 3.313099 1_554
Mg0 Mg2 3.323656 1_565
Mg0 Ti1 3.466732 1_564
Mg1 Mg10 3.009189 1_454
Mg1 Mg10 3.009189 1_554
Mg1 Mg5 3.135205 1_455
Mg1 Mg5 3.135205 1_555
Mg1 Ti0 3.173125 1_555
Mg1 Mg8 3.313099 1_554
Mg1 Mg2 3.323656 1_555
Mg1 Ti1 3.466732 1_554
Mg2 Mg5 3.088180 1_455
Mg2 Mg5 3.088180 1_555
Mg2 Mg3 3.207165 1_555
Mg2 Mg3 3.207165 1_455
Mg2 Mg4 3.207165 1_545
Mg2 Mg4 3.207165 1_445
Mg2 Ti0 3.230244 1_545
Mg2 Ti0 3.230244 1_555
Mg2 Mg6 3.313099 1_555
Mg2 Mg7 3.313099 1_545
Mg3 Mg6 3.009189 1_555
Mg3 Mg6 3.009189 1_655
Mg3 Mg4 3.124354 1_555
Mg3 Ti0 3.234860 1_655
Mg3 Ti0 3.234860 1_555
Mg3 Mg4 3.324181 1_545
Mg3 Mg5 3.446340 1_555
Mg4 Mg7 3.009189 1_555
Mg4 Mg7 3.009189 1_655
Mg4 Ti0 3.234860 1_655
Mg4 Ti0 3.234860 1_555
Mg4 Mg5 3.446340 1_565
Mg5 Mg9 3.190272 1_544
Mg6 Ti1 3.173125 1_555
Mg6 Mg7 3.184093 1_555
Mg6 Mg7 3.264442 1_545
Mg6 Mg8 3.323656 1_555
Mg6 Ti0 3.466732 1_555
Mg7 Ti1 3.173125 1_565
Mg7 Mg8 3.323656 1_555
Mg7 Ti0 3.466732 1_555
Mg8 Mg9 3.207165 1_455
Mg8 Mg9 3.207165 1_555
Mg8 Ti1 3.230244 1_555
Mg8 Ti1 3.230244 1_565
Mg9 Ti1 3.234860 1_565
Mg9 Ti1 3.234860 1_665
Mg10 Mg9 3.124354 1_545
Mg10 Mg5 3.190272 1_556
Mg10 Mg8 3.207165 1_555
Mg10 Mg8 3.207165 1_655
Mg10 Ti1 3.234860 1_555
Mg10 Ti1 3.234860 1_655
Mg10 Mg9 3.324181 1_555
Mg10 Mg11 3.446340 1_555
Mg11 Mg8 3.088180 1_555
Mg11 Mg8 3.088180 1_655
Mg11 Mg7 3.135205 1_555
Mg11 Mg6 3.135205 1_655
Mg11 Mg7 3.135205 1_655
Mg11 Mg6 3.135205 1_555
Mg11 Mg4 3.190272 1_555
Mg11 Mg3 3.190272 1_555
Mg11 Mg9 3.446340 1_555
