# generated using pymatgen
data_Li9Mn2Co5O16
_symmetry_space_group_name_H-M   'P 1'
_cell_length_a   2.92818800
_cell_length_b   10.19900700
_cell_length_c   10.33047315
_cell_angle_alpha   70.80801679
_cell_angle_beta   90.00000000
_cell_angle_gamma   90.00000000
_symmetry_Int_Tables_number   1
_chemical_formula_structural   Li9Mn2Co5O16
_chemical_formula_sum   'Li9 Mn2 Co5 O16'
_cell_volume   291.36898960
_cell_formula_units_Z   1
loop_
 _symmetry_equiv_pos_site_id
 _symmetry_equiv_pos_as_xyz
  1  'x, y, z'
loop_
 _atom_site_type_symbol
 _atom_site_label
 _atom_site_symmetry_multiplicity
 _atom_site_fract_x
 _atom_site_fract_y
 _atom_site_fract_z
 _atom_site_occupancy
  Li  Li0  1  0.50000000  0.99260600  0.75577300  1
  Li  Li1  1  0.50000000  0.00739400  0.24422700  1
  Li  Li2  1  0.00000000  0.74713900  0.75794000  1
  Li  Li3  1  0.00000000  0.75165100  0.24143200  1
  Li  Li4  1  0.50000000  0.50070100  0.77072100  1
  Li  Li5  1  0.50000000  0.49929900  0.22927900  1
  Li  Li6  1  0.00000000  0.24834900  0.75856800  1
  Li  Li7  1  0.00000000  0.25286100  0.24206000  1
  Li  Li8  1  0.00000000  0.50000000  0.00000000  1
  Mn  Mn0  1  0.00000000  0.00000000  0.00000000  1
  Mn  Mn1  1  0.00000000  0.50000000  0.50000000  1
  Co  Co0  1  0.00000000  0.00000000  0.50000000  1
  Co  Co1  1  0.50000000  0.73194800  0.99439500  1
  Co  Co2  1  0.50000000  0.75521900  0.50144400  1
  Co  Co3  1  0.50000000  0.26805200  0.00560500  1
  Co  Co4  1  0.50000000  0.24478100  0.49855600  1
  O  O0  1  0.50000000  0.10957900  0.89000700  1
  O  O1  1  0.50000000  0.11838800  0.38485000  1
  O  O2  1  0.00000000  0.87730000  0.89224800  1
  O  O3  1  0.00000000  0.86448900  0.38544000  1
  O  O4  1  0.50000000  0.63602600  0.87730300  1
  O  O5  1  0.50000000  0.61019400  0.39161400  1
  O  O6  1  0.00000000  0.36345100  0.88055000  1
  O  O7  1  0.00000000  0.37451600  0.39216700  1
  O  O8  1  0.50000000  0.88161200  0.61515000  1
  O  O9  1  0.50000000  0.89042100  0.10999300  1
  O  O10  1  0.00000000  0.62548400  0.60783300  1
  O  O11  1  0.00000000  0.63654900  0.11945000  1
  O  O12  1  0.50000000  0.38980600  0.60838600  1
  O  O13  1  0.50000000  0.36397400  0.12269700  1
  O  O14  1  0.00000000  0.13551100  0.61456000  1
  O  O15  1  0.00000000  0.12270000  0.10775200  1
loop_
_geom_bond_atom_site_label_1
_geom_bond_atom_site_label_2
_geom_bond_distance
_geom_bond_site_symmetry_2
Li0 O2 2.103370 1_555
Li0 O2 2.103370 1_655
Li0 O0 2.105680 1_565
Li0 O8 2.114956 1_555
Li0 O14 2.235629 1_565
Li0 O14 2.235629 1_665
Li1 O15 2.103370 1_655
Li1 O15 2.103370 1_555
Li1 O9 2.105680 1_545
Li1 O1 2.114956 1_555
Li1 O3 2.235629 1_545
Li1 O3 2.235629 1_645
Li2 O4 2.007375 1_455
Li2 O4 2.007375 1_555
Li2 O8 2.206884 1_555
Li2 O8 2.206884 1_455
Li2 O2 2.213217 1_555
Li2 O10 2.282338 1_555
Li3 O11 1.984598 1_555
Li3 O3 2.159448 1_555
Li3 O9 2.174142 1_455
Li3 O9 2.174142 1_555
Li3 O5 2.271650 1_455
Li3 O5 2.271650 1_555
Li4 O4 2.028869 1_555
Li4 O6 2.084739 1_655
Li4 O6 2.084739 1_555
Li4 O10 2.277448 1_655
Li4 O10 2.277448 1_555
Li4 O12 2.310531 1_555
Li5 O13 2.028869 1_555
Li5 O11 2.084739 1_655
Li5 O11 2.084739 1_555
Li5 O7 2.277448 1_655
Li5 O7 2.277448 1_555
Li5 O5 2.310531 1_555
Li6 O6 1.984598 1_555
Li6 O14 2.159448 1_555
Li6 O0 2.174142 1_555
Li6 O0 2.174142 1_455
Li6 O12 2.271650 1_455
Li6 O12 2.271650 1_555
Li7 O13 2.007375 1_455
Li7 O13 2.007375 1_555
Li7 O1 2.206884 1_455
Li7 O1 2.206884 1_555
Li7 O15 2.213217 1_555
Li7 O7 2.282338 1_555
Li8 O4 2.125728 1_554
Li8 O4 2.125728 1_454
Li8 O13 2.125728 1_455
Li8 O13 2.125728 1_555
Li8 O11 2.142913 1_555
Li8 O6 2.142913 1_554
Mn0 O15 1.928977 1_555
Mn0 O2 1.928977 1_544
Mn0 O0 1.961837 1_554
Mn0 O0 1.961837 1_454
Mn0 O9 1.961837 1_545
Mn0 O9 1.961837 1_445
Mn1 O10 1.953502 1_555
Mn1 O7 1.953502 1_555
Mn1 O12 1.957803 1_455
Mn1 O12 1.957803 1_555
Mn1 O5 1.957803 1_455
Mn1 O5 1.957803 1_555
Co0 O1 2.017966 1_555
Co0 O1 2.017966 1_455
Co0 O8 2.017966 1_445
Co0 O8 2.017966 1_545
Co0 O14 2.094300 1_555
Co0 O3 2.094300 1_545
Co1 O4 1.788377 1_555
Co1 O11 1.983125 1_656
Co1 O11 1.983125 1_556
Co1 O2 2.103861 1_655
Co1 O2 2.103861 1_555
Co1 O9 2.303776 1_556
Co2 O3 1.985850 1_655
Co2 O3 1.985850 1_555
Co2 O8 2.009241 1_555
Co2 O10 2.036208 1_555
Co2 O10 2.036208 1_655
Co2 O5 2.139728 1_555
Co3 O13 1.788377 1_555
Co3 O6 1.983125 1_554
Co3 O6 1.983125 1_654
Co3 O15 2.103861 1_655
Co3 O15 2.103861 1_555
Co3 O0 2.303776 1_554
Co4 O14 1.985850 1_555
Co4 O14 1.985850 1_655
Co4 O1 2.009241 1_555
Co4 O7 2.036208 1_655
Co4 O7 2.036208 1_555
Co4 O12 2.139728 1_555
