# generated using pymatgen
data_SrNb2CuO7
_symmetry_space_group_name_H-M   'P 1'
_cell_length_a   9.65640382
_cell_length_b   9.65640382
_cell_length_c   9.65640382
_cell_angle_alpha   156.26310660
_cell_angle_beta   156.26310660
_cell_angle_gamma   33.81825666
_symmetry_Int_Tables_number   1
_chemical_formula_structural   SrNb2CuO7
_chemical_formula_sum   'Sr1 Nb2 Cu1 O7'
_cell_volume   145.75871054
_cell_formula_units_Z   1
loop_
 _symmetry_equiv_pos_site_id
 _symmetry_equiv_pos_as_xyz
  1  'x, y, z'
loop_
 _atom_site_type_symbol
 _atom_site_label
 _atom_site_symmetry_multiplicity
 _atom_site_fract_x
 _atom_site_fract_y
 _atom_site_fract_z
 _atom_site_occupancy
  Sr  Sr0  1  0.00000000  0.00000000  0.00000000  1
  Nb  Nb0  1  0.61536800  0.61536800  0.00000000  1
  Nb  Nb1  1  0.38463200  0.38463200  0.00000000  1
  Cu  Cu0  1  0.75000000  0.25000000  0.50000000  1
  O  O0  1  0.71989400  0.71989400  0.00000000  1
  O  O1  1  0.60643900  0.10643900  0.50000000  1
  O  O2  1  0.89356100  0.39356100  0.50000000  1
  O  O3  1  0.28010600  0.28010600  0.00000000  1
  O  O4  1  0.09939000  0.59939000  0.50000000  1
  O  O5  1  0.40061000  0.90061000  0.50000000  1
  O  O6  1  0.50000000  0.50000000  0.00000000  1
loop_
_geom_bond_atom_site_label_1
_geom_bond_atom_site_label_2
_geom_bond_distance
_geom_bond_site_symmetry_2
Nb0 O0 1.931417 1_555
Nb0 O1 1.992829 1_565
Nb0 O1 1.992829 1_554
Nb0 O4 2.007812 1_655
Nb0 O4 2.007812 1_554
Nb0 O6 2.131754 1_555
Nb1 O3 1.931417 1_555
Nb1 O2 1.992829 1_555
Nb1 O2 1.992829 1_454
Nb1 O5 2.007812 1_544
Nb1 O5 2.007812 1_555
Nb1 O6 2.131754 1_555
Cu0 O3 2.062428 1_555
Cu0 O3 2.062428 1_656
Cu0 O0 2.062428 1_556
Cu0 O0 2.062428 1_545
O1 Sr0 2.795051 1_656
O1 Sr0 2.795051 1_555
O2 Sr0 2.795051 1_666
O2 Sr0 2.795051 1_655
O4 Sr0 2.704983 1_566
O4 Sr0 2.704983 1_555
O5 Sr0 2.704983 1_666
O5 Sr0 2.704983 1_565
O6 Sr0 2.808610 1_554
O6 Sr0 2.808610 1_565
O6 Sr0 2.808610 1_666
O6 Sr0 2.808610 1_655
