# generated using pymatgen
data_MgAl2(Si3O8)2
_symmetry_space_group_name_H-M   'P 1'
_cell_length_a   5.06237014
_cell_length_b   8.44008197
_cell_length_c   8.83375828
_cell_angle_alpha   88.97234847
_cell_angle_beta   90.34171276
_cell_angle_gamma   89.35889883
_symmetry_Int_Tables_number   1
_chemical_formula_structural   MgAl2(Si3O8)2
_chemical_formula_sum   'Mg1 Al2 Si6 O16'
_cell_volume   377.34688478
_cell_formula_units_Z   1
loop_
 _symmetry_equiv_pos_site_id
 _symmetry_equiv_pos_as_xyz
  1  'x, y, z'
loop_
 _atom_site_type_symbol
 _atom_site_label
 _atom_site_symmetry_multiplicity
 _atom_site_fract_x
 _atom_site_fract_y
 _atom_site_fract_z
 _atom_site_occupancy
  Mg  Mg0  1  0.55662233  0.12271216  0.01994724  1
  Al  Al0  1  0.62220088  0.30927911  0.33427135  1
  Al  Al1  1  0.87195518  0.18495458  0.80891386  1
  Si  Si0  1  0.91801452  0.80377296  0.82766643  1
  Si  Si1  1  0.61878432  0.68664491  0.32548203  1
  Si  Si2  1  0.41906627  0.68713215  0.65860792  1
  Si  Si3  1  0.10910810  0.80612628  0.15154846  1
  Si  Si4  1  0.36502733  0.31214169  0.66092419  1
  Si  Si5  1  0.09669709  0.17827181  0.16042874  1
  O  O0  1  0.94157536  0.23203934  0.00368509  1
  O  O1  1  0.51133979  0.25694648  0.51082679  1
  O  O2  1  0.36193525  0.70802116  0.21322140  1
  O  O3  1  0.16772320  0.80000113  0.70971342  1
  O  O4  1  0.21550264  0.99285654  0.12143427  1
  O  O5  1  0.32426758  0.50528360  0.66338264  1
  O  O6  1  0.80300022  0.98302006  0.85644403  1
  O  O7  1  0.71762741  0.50631025  0.32162256  1
  O  O8  1  0.85393405  0.80720444  0.26387784  1
  O  O9  1  0.66986807  0.69807684  0.77488414  1
  O  O10  1  0.52106284  0.74592674  0.49204268  1
  O  O11  1  0.02469339  0.73175608  0.99024493  1
  O  O12  1  0.07555610  0.23637931  0.66853016  1
  O  O13  1  0.38672252  0.26094964  0.18137461  1
  O  O14  1  0.53605605  0.24958589  0.81346915  1
  O  O15  1  0.88666051  0.18031886  0.29271207  1
loop_
_geom_bond_atom_site_label_1
_geom_bond_atom_site_label_2
_geom_bond_distance
_geom_bond_site_symmetry_2
Mg0 O13 2.046068 1_555
Mg0 O14 2.099900 1_554
Mg0 O0 2.169935 1_555
Mg0 O4 2.238884 1_545
Mg0 O6 2.254223 1_544
Al0 O1 1.712845 1_555
Al0 O7 1.738748 1_555
Al0 O15 1.760518 1_555
Al0 O13 1.850173 1_555
Al1 O12 1.671696 1_655
Al1 O14 1.780883 1_555
Al1 O6 1.786708 1_545
Al1 O0 1.806351 1_556
O0 Si5 1.642053 1_655
O1 Si4 1.596828 1_555
O2 Si3 1.603858 1_555
O2 Si1 1.636957 1_555
O3 Si0 1.643382 1_455
O3 Si2 1.650889 1_555
O4 Si3 1.688303 1_555
O4 Si5 1.711755 1_565
O5 Si2 1.613119 1_555
O5 Si4 1.641396 1_555
O6 Si0 1.639582 1_555
O7 Si1 1.597864 1_555
O8 Si3 1.633641 1_655
O8 Si1 1.662402 1_555
O9 Si0 1.619966 1_555
O9 Si2 1.632810 1_555
O10 Si2 1.632934 1_555
O10 Si1 1.639974 1_555
O11 Si3 1.624137 1_556
O11 Si0 1.635790 1_455
O12 Si4 1.606683 1_555
O13 Si5 1.643517 1_555
O14 Si4 1.671705 1_555
O15 Si5 1.584782 1_655
