# generated using pymatgen
data_KCaCr2F9
_symmetry_space_group_name_H-M   'P 1'
_cell_length_a   7.52821627
_cell_length_b   7.52821627
_cell_length_c   23.81974900
_cell_angle_alpha   90.00000000
_cell_angle_beta   90.00000000
_cell_angle_gamma   119.84949131
_symmetry_Int_Tables_number   1
_chemical_formula_structural   KCaCr2F9
_chemical_formula_sum   'K6 Ca6 Cr12 F54'
_cell_volume   1170.86993066
_cell_formula_units_Z   6
loop_
 _symmetry_equiv_pos_site_id
 _symmetry_equiv_pos_as_xyz
  1  'x, y, z'
loop_
 _atom_site_type_symbol
 _atom_site_label
 _atom_site_symmetry_multiplicity
 _atom_site_fract_x
 _atom_site_fract_y
 _atom_site_fract_z
 _atom_site_occupancy
  K  K0  1  0.49055000  0.50945000  0.75000000  1
  K  K1  1  0.50945000  0.49055000  0.25000000  1
  K  K2  1  0.53607800  0.49382600  0.58337400  1
  K  K3  1  0.46392200  0.50617400  0.08337400  1
  K  K4  1  0.50617400  0.46392200  0.91662600  1
  K  K5  1  0.49382600  0.53607800  0.41662600  1
  Ca  Ca0  1  0.01559000  0.01559000  0.50000000  1
  Ca  Ca1  1  0.98441000  0.98441000  0.00000000  1
  Ca  Ca2  1  0.99928900  0.48601700  0.83329600  1
  Ca  Ca3  1  0.00071100  0.51398300  0.33329600  1
  Ca  Ca4  1  0.51398300  0.00071100  0.66670400  1
  Ca  Ca5  1  0.48601700  0.99928900  0.16670400  1
  Cr  Cr0  1  0.01999000  0.51763100  0.50262600  1
  Cr  Cr1  1  0.98001000  0.48236900  0.00262600  1
  Cr  Cr2  1  0.48236900  0.98001000  0.99737400  1
  Cr  Cr3  1  0.51763100  0.01999000  0.49737400  1
  Cr  Cr4  1  0.01552000  0.49786200  0.66413900  1
  Cr  Cr5  1  0.98448000  0.50213800  0.16413900  1
  Cr  Cr6  1  0.50213800  0.98448000  0.83586100  1
  Cr  Cr7  1  0.49786200  0.01552000  0.33586100  1
  Cr  Cr8  1  0.98773600  0.00352500  0.16916200  1
  Cr  Cr9  1  0.01226400  0.99647500  0.66916200  1
  Cr  Cr10  1  0.99647500  0.01226400  0.33083800  1
  Cr  Cr11  1  0.00352500  0.98773600  0.83083800  1
  F  F0  1  0.17441000  0.37835900  0.51642600  1
  F  F1  1  0.82559000  0.62164100  0.01642600  1
  F  F2  1  0.62164100  0.82559000  0.98357400  1
  F  F3  1  0.37835900  0.17441000  0.48357400  1
  F  F4  1  0.72289600  0.36347600  0.67779600  1
  F  F5  1  0.27710400  0.63652400  0.17779600  1
  F  F6  1  0.63652400  0.27710400  0.82220400  1
  F  F7  1  0.36347600  0.72289600  0.32220400  1
  F  F8  1  0.96954200  0.22449300  0.65367000  1
  F  F9  1  0.03045800  0.77550700  0.15367000  1
  F  F10  1  0.77550700  0.03045800  0.84633000  1
  F  F11  1  0.22449300  0.96954200  0.34633000  1
  F  F12  1  0.07501100  0.48916500  0.74230300  1
  F  F13  1  0.92498900  0.51083500  0.24230300  1
  F  F14  1  0.51083500  0.92498900  0.75769700  1
  F  F15  1  0.48916500  0.07501100  0.25769700  1
  F  F16  1  0.04145400  0.97970700  0.59031100  1
  F  F17  1  0.95854600  0.02029300  0.09031100  1
  F  F18  1  0.02029300  0.95854600  0.90968900  1
  F  F19  1  0.97970700  0.04145400  0.40968900  1
  F  F20  1  0.24783400  0.79122000  0.51373800  1
  F  F21  1  0.75216600  0.20878000  0.01373800  1
  F  F22  1  0.20878000  0.75216600  0.98626200  1
  F  F23  1  0.79122000  0.24783400  0.48626200  1
  F  F24  1  0.98068400  0.01931600  0.75000000  1
  F  F25  1  0.01931600  0.98068400  0.25000000  1
  F  F26  1  0.91257700  0.46443900  0.92417100  1
  F  F27  1  0.08742300  0.53556100  0.42417100  1
  F  F28  1  0.53556100  0.08742300  0.57582900  1
  F  F29  1  0.46443900  0.91257700  0.07582900  1
  F  F30  1  0.16824100  0.28381200  0.83591600  1
  F  F31  1  0.83175900  0.71618800  0.33591600  1
  F  F32  1  0.71618800  0.83175900  0.66408400  1
  F  F33  1  0.28381200  0.16824100  0.16408400  1
  F  F34  1  0.14240900  0.35022500  0.99141000  1
  F  F35  1  0.85759100  0.64977500  0.49141000  1
  F  F36  1  0.64977500  0.85759100  0.50859000  1
  F  F37  1  0.35022500  0.14240900  0.00859000  1
  F  F38  1  0.83954500  0.69219000  0.82259400  1
  F  F39  1  0.16045500  0.30781000  0.32259400  1
  F  F40  1  0.30781000  0.16045500  0.67740600  1
  F  F41  1  0.69219000  0.83954500  0.17740600  1
  F  F42  1  0.05372500  0.76613100  0.68023000  1
  F  F43  1  0.94627500  0.23386900  0.18023000  1
  F  F44  1  0.23386900  0.94627500  0.81977000  1
  F  F45  1  0.76613100  0.05372500  0.31977000  1
  F  F46  1  0.30652300  0.63823900  0.64793600  1
  F  F47  1  0.69347700  0.36176100  0.14793600  1
  F  F48  1  0.36176100  0.69347700  0.85206400  1
  F  F49  1  0.63823900  0.30652300  0.35206400  1
  F  F50  1  0.95045100  0.50435000  0.58351400  1
  F  F51  1  0.04954900  0.49565000  0.08351400  1
  F  F52  1  0.49565000  0.04954900  0.91648600  1
  F  F53  1  0.50435000  0.95045100  0.41648600  1
loop_
_geom_bond_atom_site_label_1
_geom_bond_atom_site_label_2
_geom_bond_distance
_geom_bond_site_symmetry_2
Ca0 F19 2.188799 1_455
Ca0 F16 2.188799 1_545
Ca0 F36 2.404175 1_445
Ca0 F35 2.404175 1_445
Ca0 F3 2.406366 1_555
Ca0 F0 2.406366 1_555
Ca1 F17 2.188799 1_565
Ca1 F18 2.188799 1_654
Ca1 F37 2.404175 1_665
Ca1 F34 2.404175 1_664
Ca1 F1 2.406366 1_555
Ca1 F2 2.406366 1_554
Ca2 F12 2.238264 1_655
Ca2 F26 2.243332 1_555
Ca2 F6 2.392902 1_555
Ca2 F38 2.403813 1_555
Ca2 F48 2.417201 1_655
Ca2 F30 2.422024 1_655
Ca3 F13 2.238264 1_455
Ca3 F27 2.243332 1_555
Ca3 F7 2.392902 1_555
Ca3 F39 2.403813 1_555
Ca3 F49 2.417201 1_455
Ca3 F31 2.422024 1_455
Ca4 F14 2.238264 1_545
Ca4 F28 2.243332 1_555
Ca4 F4 2.392902 1_555
Ca4 F40 2.403813 1_555
Ca4 F46 2.417201 1_545
Ca4 F32 2.422024 1_545
Ca5 F15 2.238264 1_565
Ca5 F29 2.243332 1_555
Ca5 F5 2.392902 1_555
Ca5 F41 2.403813 1_555
Ca5 F47 2.417201 1_565
Ca5 F33 2.422024 1_565
Cr0 F27 1.923551 1_555
Cr0 F20 1.933275 1_555
Cr0 F23 1.939397 1_455
Cr0 F35 1.940721 1_455
Cr0 F0 1.942181 1_555
Cr0 F50 1.986013 1_455
Cr1 F26 1.923551 1_554
Cr1 F21 1.933275 1_555
Cr1 F22 1.939397 1_654
Cr1 F34 1.940721 1_654
Cr1 F1 1.942181 1_555
Cr1 F51 1.986013 1_655
Cr2 F29 1.923551 1_556
Cr2 F22 1.933275 1_555
Cr2 F21 1.939397 1_566
Cr2 F37 1.940721 1_566
Cr2 F2 1.942181 1_555
Cr2 F52 1.986013 1_565
Cr3 F28 1.923551 1_555
Cr3 F23 1.933275 1_555
Cr3 F20 1.939397 1_545
Cr3 F36 1.940721 1_545
Cr3 F3 1.942181 1_555
Cr3 F53 1.986013 1_545
Cr4 F12 1.923676 1_555
Cr4 F8 1.925666 1_455
Cr4 F42 1.931357 1_555
Cr4 F46 1.939194 1_555
Cr4 F4 1.940034 1_455
Cr4 F50 1.988556 1_455
Cr5 F13 1.923676 1_555
Cr5 F9 1.925666 1_655
Cr5 F43 1.931357 1_555
Cr5 F47 1.939194 1_555
Cr5 F5 1.940034 1_655
Cr5 F51 1.988556 1_655
Cr6 F14 1.923676 1_555
Cr6 F10 1.925666 1_565
Cr6 F44 1.931357 1_555
Cr6 F48 1.939194 1_555
Cr6 F6 1.940034 1_565
Cr6 F52 1.988556 1_565
Cr7 F15 1.923676 1_555
Cr7 F11 1.925666 1_545
Cr7 F45 1.931357 1_555
Cr7 F49 1.939194 1_555
Cr7 F7 1.940034 1_545
Cr7 F53 1.988556 1_545
Cr8 F17 1.902502 1_555
Cr8 F43 1.926849 1_555
Cr8 F9 1.932819 1_645
Cr8 F33 1.941406 1_655
Cr8 F41 1.943889 1_545
Cr8 F25 1.958185 1_645
Cr9 F16 1.902502 1_555
Cr9 F42 1.926849 1_555
Cr9 F8 1.932819 1_465
Cr9 F32 1.941406 1_455
Cr9 F40 1.943889 1_565
Cr9 F24 1.958185 1_465
Cr10 F19 1.902502 1_555
Cr10 F45 1.926849 1_555
Cr10 F11 1.932819 1_645
Cr10 F31 1.941406 1_545
Cr10 F39 1.943889 1_655
Cr10 F25 1.958185 1_645
Cr11 F18 1.902502 1_555
Cr11 F44 1.926849 1_555
Cr11 F10 1.932819 1_465
Cr11 F30 1.941406 1_565
Cr11 F38 1.943889 1_455
Cr11 F24 1.958185 1_465
F0 K2 2.890646 1_555
F0 K5 3.162444 1_555
F1 K3 2.890646 1_555
F1 K4 3.162444 1_554
F2 K4 2.890646 1_555
F2 K3 3.162444 1_556
F3 K5 2.890646 1_555
F3 K2 3.162444 1_555
F4 K0 3.023009 1_555
F4 K2 3.061576 1_555
F5 K1 3.023009 1_555
F5 K3 3.061576 1_555
F6 K0 3.023009 1_555
F6 K4 3.061576 1_555
F7 K1 3.023009 1_555
F7 K5 3.061576 1_555
F12 K0 3.060629 1_555
F13 K1 3.060629 1_555
F14 K0 3.060629 1_555
F15 K1 3.060629 1_555
F26 K4 3.062832 1_555
F27 K5 3.062832 1_555
F28 K2 3.062832 1_555
F29 K3 3.062832 1_555
F30 K4 2.927934 1_555
F30 K0 2.976270 1_555
F31 K5 2.927934 1_555
F31 K1 2.976270 1_555
F32 K2 2.927934 1_555
F32 K0 2.976270 1_555
F33 K3 2.927934 1_555
F33 K1 2.976270 1_555
F34 K4 3.011954 1_555
F34 K3 3.034242 1_556
F35 K5 3.011954 1_555
F35 K2 3.034242 1_555
F36 K2 3.011954 1_555
F36 K5 3.034242 1_555
F37 K3 3.011954 1_555
F37 K4 3.034242 1_554
F38 K0 2.861365 1_555
F38 K4 3.158363 1_555
F39 K1 2.861365 1_555
F39 K5 3.158363 1_555
F40 K0 2.861365 1_555
F40 K2 3.158363 1_555
F41 K1 2.861365 1_555
F41 K3 3.158363 1_555
F46 K2 2.898901 1_555
F46 K0 3.179132 1_555
F47 K3 2.898901 1_555
F47 K1 3.179132 1_555
F48 K4 2.898901 1_555
F48 K0 3.179132 1_555
F49 K5 2.898901 1_555
F49 K1 3.179132 1_555
F50 K2 3.080825 1_555
F51 K3 3.080825 1_555
F52 K4 3.080825 1_555
F53 K5 3.080825 1_555
