# generated using pymatgen
data_LiZnAsO4
_symmetry_space_group_name_H-M   'P 1'
_cell_length_a   8.86543341
_cell_length_b   8.86543341
_cell_length_c   8.86543301
_cell_angle_alpha   107.85188036
_cell_angle_beta   107.85188036
_cell_angle_gamma   107.85188779
_symmetry_Int_Tables_number   1
_chemical_formula_structural   LiZnAsO4
_chemical_formula_sum   'Li6 Zn6 As6 O24'
_cell_volume   566.26469051
_cell_formula_units_Z   6
loop_
 _symmetry_equiv_pos_site_id
 _symmetry_equiv_pos_as_xyz
  1  'x, y, z'
loop_
 _atom_site_type_symbol
 _atom_site_label
 _atom_site_symmetry_multiplicity
 _atom_site_fract_x
 _atom_site_fract_y
 _atom_site_fract_z
 _atom_site_occupancy
  Li  Li0  1  0.06651200  0.66550100  0.84140600  1
  Li  Li1  1  0.38052200  0.14650800  0.55136300  1
  Li  Li2  1  0.14650800  0.55136300  0.38052200  1
  Li  Li3  1  0.55136300  0.38052200  0.14650800  1
  Li  Li4  1  0.66550100  0.84140600  0.06651200  1
  Li  Li5  1  0.84140600  0.06651200  0.66550100  1
  Zn  Zn0  1  0.73973500  0.33485300  0.50516300  1
  Zn  Zn1  1  0.33485300  0.50516300  0.73973500  1
  Zn  Zn2  1  0.50516300  0.73973500  0.33485300  1
  Zn  Zn3  1  0.04320700  0.81792100  0.21948400  1
  Zn  Zn4  1  0.81792100  0.21948400  0.04320700  1
  Zn  Zn5  1  0.21948400  0.04320700  0.81792100  1
  As  As0  1  0.88818900  0.70867000  0.47998300  1
  As  As1  1  0.70867000  0.47998300  0.88818900  1
  As  As2  1  0.47998300  0.88818900  0.70867000  1
  As  As3  1  0.40305800  0.99441800  0.17789500  1
  As  As4  1  0.99441800  0.17789500  0.40305800  1
  As  As5  1  0.17789500  0.40305800  0.99441800  1
  O  O0  1  0.90684000  0.58184800  0.59186600  1
  O  O1  1  0.58184800  0.59186600  0.90684000  1
  O  O2  1  0.59186600  0.90684000  0.58184800  1
  O  O3  1  0.91380000  0.96433400  0.24844400  1
  O  O4  1  0.96433400  0.24844400  0.91380000  1
  O  O5  1  0.24844400  0.91380000  0.96433400  1
  O  O6  1  0.30745700  0.29399900  0.97505000  1
  O  O7  1  0.97505000  0.30745700  0.29399900  1
  O  O8  1  0.01246200  0.69193800  0.36543900  1
  O  O9  1  0.29399900  0.97505000  0.30745700  1
  O  O10  1  0.36543900  0.01246200  0.69193800  1
  O  O11  1  0.69193800  0.36543900  0.01246200  1
  O  O12  1  0.33567100  0.66969800  0.62813700  1
  O  O13  1  0.62813700  0.33567100  0.66969800  1
  O  O14  1  0.66969800  0.62813700  0.33567100  1
  O  O15  1  0.63489400  0.97076200  0.92356900  1
  O  O16  1  0.92356900  0.63489400  0.97076200  1
  O  O17  1  0.97076200  0.92356900  0.63489400  1
  O  O18  1  0.51946200  0.87133700  0.19013900  1
  O  O19  1  0.19013900  0.51946200  0.87133700  1
  O  O20  1  0.87133700  0.19013900  0.51946200  1
  O  O21  1  0.25918100  0.54651200  0.21407300  1
  O  O22  1  0.21407300  0.25918100  0.54651200  1
  O  O23  1  0.54651200  0.21407300  0.25918100  1
loop_
_geom_bond_atom_site_label_1
_geom_bond_atom_site_label_2
_geom_bond_distance
_geom_bond_site_symmetry_2
Li0 O19 1.962198 1_555
Li0 O16 1.966135 1_455
Li0 O0 1.969361 1_455
Li0 O5 1.977217 1_555
Li1 O9 1.956421 1_545
Li1 O10 1.973844 1_555
Li1 O13 1.996031 1_555
Li1 O22 2.017010 1_555
Li2 O7 1.956421 1_455
Li2 O8 1.973844 1_555
Li2 O12 1.996031 1_555
Li2 O21 2.017010 1_555
Li3 O6 1.956421 1_554
Li3 O11 1.973844 1_555
Li3 O14 1.996031 1_555
Li3 O23 2.017010 1_555
Li4 O18 1.962198 1_555
Li4 O15 1.966135 1_554
Li4 O1 1.969361 1_554
Li4 O3 1.977217 1_555
Li5 O20 1.962198 1_555
Li5 O17 1.966135 1_545
Li5 O2 1.969361 1_545
Li5 O4 1.977217 1_555
As0 O8 1.720703 1_655
As0 O14 1.723729 1_555
As0 O0 1.724092 1_555
As0 O17 1.725103 1_555
As1 O11 1.720703 1_556
As1 O13 1.723729 1_555
As1 O1 1.724092 1_555
As1 O16 1.725103 1_555
As2 O10 1.720703 1_565
As2 O12 1.723729 1_555
As2 O2 1.724092 1_555
As2 O15 1.725103 1_555
As3 O5 1.718388 1_554
As3 O18 1.720968 1_555
As3 O9 1.727327 1_555
As3 O23 1.728619 1_565
As4 O3 1.718388 1_545
As4 O20 1.720968 1_555
As4 O7 1.727327 1_555
As4 O22 1.728619 1_655
As5 O4 1.718388 1_455
As5 O19 1.720968 1_555
As5 O6 1.727327 1_555
As5 O21 1.728619 1_556
O0 Zn0 1.965032 1_555
O1 Zn1 1.965032 1_555
O2 Zn2 1.965032 1_555
O3 Zn3 1.989026 1_655
O4 Zn4 1.989026 1_556
O5 Zn5 1.989026 1_565
O6 Zn5 1.965695 1_555
O7 Zn4 1.965695 1_555
O8 Zn3 1.977810 1_555
O9 Zn3 1.965695 1_555
O10 Zn5 1.977810 1_555
O11 Zn4 1.977810 1_555
O12 Zn1 1.997339 1_555
O13 Zn0 1.997338 1_555
O14 Zn2 1.997339 1_555
O15 Zn4 1.984243 1_566
O16 Zn3 1.984243 1_656
O17 Zn5 1.984243 1_665
O18 Zn2 1.987463 1_555
O19 Zn1 1.987463 1_555
O20 Zn0 1.987463 1_555
O21 Zn2 1.997481 1_555
O22 Zn1 1.997481 1_555
O23 Zn0 1.997481 1_555
