# generated using pymatgen
data_LaMg
_symmetry_space_group_name_H-M   'P 1'
_cell_length_a   17.47288168
_cell_length_b   17.47288168
_cell_length_c   11.37689200
_cell_angle_alpha   90.00000000
_cell_angle_beta   90.00000000
_cell_angle_gamma   154.84067542
_symmetry_Int_Tables_number   1
_chemical_formula_structural   LaMg
_chemical_formula_sum   'La24 Mg24'
_cell_volume   1476.66314867
_cell_formula_units_Z   24
loop_
 _symmetry_equiv_pos_site_id
 _symmetry_equiv_pos_as_xyz
  1  'x, y, z'
loop_
 _atom_site_type_symbol
 _atom_site_label
 _atom_site_symmetry_multiplicity
 _atom_site_fract_x
 _atom_site_fract_y
 _atom_site_fract_z
 _atom_site_occupancy
  La  La0_0  1  0.49146650  0.00853350  0.00000000  1
  La  La0_1  1  0.49146650  0.00853350  0.50000000  1
  La  La0_2  1  0.49146650  0.50853350  0.00000000  1
  La  La0_3  1  0.49146650  0.50853350  0.50000000  1
  La  La0_4  1  0.99146650  0.00853350  0.00000000  1
  La  La0_5  1  0.99146650  0.00853350  0.50000000  1
  La  La0_6  1  0.99146650  0.50853350  0.00000000  1
  La  La0_7  1  0.99146650  0.50853350  0.50000000  1
  La  La1_0  1  0.32393250  0.17606750  0.00000000  1
  La  La1_1  1  0.32393250  0.17606750  0.50000000  1
  La  La1_2  1  0.32393250  0.67606750  0.00000000  1
  La  La1_3  1  0.32393250  0.67606750  0.50000000  1
  La  La1_4  1  0.82393250  0.17606750  0.00000000  1
  La  La1_5  1  0.82393250  0.17606750  0.50000000  1
  La  La1_6  1  0.82393250  0.67606750  0.00000000  1
  La  La1_7  1  0.82393250  0.67606750  0.50000000  1
  La  La2_0  1  0.39966800  0.10033200  0.25000000  1
  La  La2_1  1  0.39966800  0.10033200  0.75000000  1
  La  La2_2  1  0.39966800  0.60033200  0.25000000  1
  La  La2_3  1  0.39966800  0.60033200  0.75000000  1
  La  La2_4  1  0.89966800  0.10033200  0.25000000  1
  La  La2_5  1  0.89966800  0.10033200  0.75000000  1
  La  La2_6  1  0.89966800  0.60033200  0.25000000  1
  La  La2_7  1  0.89966800  0.60033200  0.75000000  1
  Mg  Mg0_0  1  0.16047350  0.33952650  0.00000000  1
  Mg  Mg0_1  1  0.16047350  0.33952650  0.50000000  1
  Mg  Mg0_2  1  0.16047350  0.83952650  0.00000000  1
  Mg  Mg0_3  1  0.16047350  0.83952650  0.50000000  1
  Mg  Mg0_4  1  0.66047350  0.33952650  0.00000000  1
  Mg  Mg0_5  1  0.66047350  0.33952650  0.50000000  1
  Mg  Mg0_6  1  0.66047350  0.83952650  0.00000000  1
  Mg  Mg0_7  1  0.66047350  0.83952650  0.50000000  1
  Mg  Mg1_0  1  0.05708200  0.44291800  0.25000000  1
  Mg  Mg1_1  1  0.05708200  0.44291800  0.75000000  1
  Mg  Mg1_2  1  0.05708200  0.94291800  0.25000000  1
  Mg  Mg1_3  1  0.05708200  0.94291800  0.75000000  1
  Mg  Mg1_4  1  0.55708200  0.44291800  0.25000000  1
  Mg  Mg1_5  1  0.55708200  0.44291800  0.75000000  1
  Mg  Mg1_6  1  0.55708200  0.94291800  0.25000000  1
  Mg  Mg1_7  1  0.55708200  0.94291800  0.75000000  1
  Mg  Mg2_0  1  0.23404400  0.26595600  0.25000000  1
  Mg  Mg2_1  1  0.23404400  0.26595600  0.75000000  1
  Mg  Mg2_2  1  0.23404400  0.76595600  0.25000000  1
  Mg  Mg2_3  1  0.23404400  0.76595600  0.75000000  1
  Mg  Mg2_4  1  0.73404400  0.26595600  0.25000000  1
  Mg  Mg2_5  1  0.73404400  0.26595600  0.75000000  1
  Mg  Mg2_6  1  0.73404400  0.76595600  0.25000000  1
  Mg  Mg2_7  1  0.73404400  0.76595600  0.75000000  1
loop_
_geom_bond_atom_site_label_1
_geom_bond_atom_site_label_2
_geom_bond_distance
_geom_bond_site_symmetry_2
La0_0 Mg0_2 3.354322 1_545
La0_0 Mg0_4 3.354322 1_555
La0_0 La1_2 3.395816 1_545
La0_0 La1_4 3.395816 1_555
La0_0 Mg2_5 3.431359 1_554
La0_0 Mg2_4 3.431359 1_555
La0_0 Mg2_2 3.431359 1_545
La0_0 Mg2_3 3.431359 1_544
La0_0 Mg1_6 3.619112 1_545
La0_0 Mg1_7 3.619112 1_544
La0_0 La0_6 3.805538 1_555
La0_0 La0_6 3.805538 1_445
La0_1 Mg0_3 3.354322 1_545
La0_1 Mg0_5 3.354322 1_555
La0_1 La1_3 3.395816 1_545
La0_1 La1_5 3.395816 1_555
La0_1 Mg2_4 3.431359 1_555
La0_1 Mg2_5 3.431359 1_555
La0_1 Mg2_2 3.431359 1_545
La0_1 Mg2_3 3.431359 1_545
La0_1 Mg1_6 3.619112 1_545
La0_1 Mg1_7 3.619112 1_545
La0_1 La0_7 3.805538 1_555
La0_1 La0_7 3.805538 1_445
La0_2 Mg0_0 3.354322 1_555
La0_2 Mg0_6 3.354322 1_555
La0_2 La1_6 3.395816 1_555
La0_2 La1_0 3.395816 1_555
La0_2 Mg2_6 3.431359 1_555
La0_2 Mg2_7 3.431359 1_554
La0_2 Mg2_0 3.431359 1_555
La0_2 Mg2_1 3.431359 1_554
La0_2 Mg1_4 3.619112 1_555
La0_2 Mg1_5 3.619112 1_554
La0_2 La0_4 3.805538 1_565
La0_2 La0_4 3.805538 1_455
La0_3 Mg0_1 3.354322 1_555
La0_3 Mg0_7 3.354322 1_555
La0_3 La1_7 3.395816 1_555
La0_3 La1_1 3.395816 1_555
La0_3 Mg2_6 3.431359 1_555
La0_3 Mg2_7 3.431359 1_555
La0_3 Mg2_0 3.431359 1_555
La0_3 Mg2_1 3.431359 1_555
La0_3 Mg1_4 3.619112 1_555
La0_3 Mg1_5 3.619112 1_555
La0_3 La0_5 3.805538 1_455
La0_3 La0_5 3.805538 1_565
La0_4 Mg0_6 3.354322 1_545
La0_4 Mg0_0 3.354322 1_655
La0_4 La1_6 3.395816 1_545
La0_4 La1_0 3.395816 1_655
La0_4 Mg2_0 3.431359 1_655
La0_4 Mg2_1 3.431359 1_654
La0_4 Mg2_6 3.431359 1_545
La0_4 Mg2_7 3.431359 1_544
La0_4 Mg1_2 3.619112 1_645
La0_4 Mg1_3 3.619112 1_644
La0_5 Mg0_7 3.354322 1_545
La0_5 Mg0_1 3.354322 1_655
La0_5 La1_7 3.395816 1_545
La0_5 La1_1 3.395816 1_655
La0_5 Mg2_0 3.431359 1_655
La0_5 Mg2_1 3.431359 1_655
La0_5 Mg2_6 3.431359 1_545
La0_5 Mg2_7 3.431359 1_545
La0_5 Mg1_2 3.619112 1_645
La0_5 Mg1_3 3.619112 1_645
La0_6 Mg0_4 3.354322 1_555
La0_6 Mg0_2 3.354322 1_655
La0_6 La1_4 3.395816 1_555
La0_6 La1_2 3.395816 1_655
La0_6 Mg2_2 3.431359 1_655
La0_6 Mg2_3 3.431359 1_654
La0_6 Mg2_4 3.431359 1_555
La0_6 Mg2_5 3.431359 1_554
La0_6 Mg1_0 3.619112 1_655
La0_6 Mg1_1 3.619112 1_654
La0_7 Mg0_5 3.354322 1_555
La0_7 Mg0_3 3.354322 1_655
La0_7 La1_5 3.395816 1_555
La0_7 La1_3 3.395816 1_655
La0_7 Mg2_2 3.431359 1_655
La0_7 Mg2_3 3.431359 1_655
La0_7 Mg2_4 3.431359 1_555
La0_7 Mg2_5 3.431359 1_555
La0_7 Mg1_0 3.619112 1_655
La0_7 Mg1_1 3.619112 1_655
La1_0 Mg1_2 3.469933 1_545
La1_0 Mg1_3 3.469933 1_544
La1_0 Mg1_4 3.469933 1_555
La1_0 Mg1_5 3.469933 1_554
La1_0 Mg0_4 3.511797 1_555
La1_0 Mg0_2 3.511797 1_545
La1_0 La1_6 3.805538 1_555
La1_0 La1_6 3.805538 1_445
La1_0 La2_1 3.842136 1_554
La1_0 La2_0 3.842136 1_555
La1_1 Mg1_2 3.469933 1_545
La1_1 Mg1_4 3.469933 1_555
La1_1 Mg1_3 3.469933 1_545
La1_1 Mg1_5 3.469933 1_555
La1_1 Mg0_5 3.511797 1_555
La1_1 Mg0_3 3.511797 1_545
La1_1 La1_7 3.805538 1_555
La1_1 La1_7 3.805538 1_445
La1_1 La2_0 3.842136 1_555
La1_1 La2_1 3.842136 1_555
La1_2 Mg1_1 3.469933 1_554
La1_2 Mg1_6 3.469933 1_555
La1_2 Mg1_0 3.469933 1_555
La1_2 Mg1_7 3.469933 1_554
La1_2 Mg0_0 3.511797 1_555
La1_2 Mg0_6 3.511797 1_555
La1_2 La1_4 3.805538 1_565
La1_2 La1_4 3.805538 1_455
La1_2 La2_2 3.842136 1_555
La1_2 La2_3 3.842136 1_554
La1_3 Mg1_6 3.469933 1_555
La1_3 Mg1_0 3.469933 1_555
La1_3 Mg1_7 3.469933 1_555
La1_3 Mg1_1 3.469933 1_555
La1_3 Mg0_7 3.511797 1_555
La1_3 Mg0_1 3.511797 1_555
La1_3 La1_5 3.805538 1_565
La1_3 La1_5 3.805538 1_455
La1_3 La2_2 3.842136 1_555
La1_3 La2_3 3.842136 1_555
La1_4 Mg1_0 3.469933 1_655
La1_4 Mg1_6 3.469933 1_545
La1_4 Mg1_7 3.469933 1_544
La1_4 Mg1_1 3.469933 1_654
La1_4 Mg0_0 3.511797 1_655
La1_4 Mg0_6 3.511797 1_545
La1_4 La2_4 3.842136 1_555
La1_4 La2_5 3.842136 1_554
La1_5 Mg1_0 3.469933 1_655
La1_5 Mg1_6 3.469933 1_545
La1_5 Mg1_7 3.469933 1_545
La1_5 Mg1_1 3.469933 1_655
La1_5 Mg0_1 3.511797 1_655
La1_5 Mg0_7 3.511797 1_545
La1_5 La2_4 3.842136 1_555
La1_5 La2_5 3.842136 1_555
La1_6 Mg1_4 3.469933 1_555
La1_6 Mg1_5 3.469933 1_554
La1_6 Mg1_2 3.469933 1_655
La1_6 Mg1_3 3.469933 1_654
La1_6 Mg0_2 3.511797 1_655
La1_6 Mg0_4 3.511797 1_555
La1_6 La2_6 3.842136 1_555
La1_6 La2_7 3.842136 1_554
La1_7 Mg1_4 3.469933 1_555
La1_7 Mg1_5 3.469933 1_555
La1_7 Mg1_2 3.469933 1_655
La1_7 Mg1_3 3.469933 1_655
La1_7 Mg0_3 3.511797 1_655
La1_7 Mg0_5 3.511797 1_555
La1_7 La2_6 3.842136 1_555
La1_7 La2_7 3.842136 1_555
La2_0 Mg0_3 3.441796 1_545
La2_0 Mg0_2 3.441796 1_545
La2_0 Mg0_4 3.441796 1_555
La2_0 Mg0_5 3.441796 1_555
La2_0 Mg2_2 3.449966 1_545
La2_0 Mg2_4 3.449966 1_555
La2_0 Mg1_2 3.686779 1_545
La2_0 Mg1_4 3.686779 1_555
La2_0 La2_6 3.805538 1_555
La2_0 La2_6 3.805538 1_445
La2_1 Mg0_2 3.441796 1_546
La2_1 Mg0_3 3.441796 1_545
La2_1 Mg0_4 3.441796 1_556
La2_1 Mg0_5 3.441796 1_555
La2_1 Mg2_3 3.449966 1_545
La2_1 Mg2_5 3.449966 1_555
La2_1 Mg1_3 3.686779 1_545
La2_1 Mg1_5 3.686779 1_555
La2_1 La2_7 3.805538 1_555
La2_1 La2_7 3.805538 1_445
La2_2 Mg0_1 3.441796 1_555
La2_2 Mg0_0 3.441796 1_555
La2_2 Mg0_7 3.441796 1_555
La2_2 Mg0_6 3.441796 1_555
La2_2 Mg2_0 3.449966 1_555
La2_2 Mg2_6 3.449966 1_555
La2_2 Mg1_0 3.686779 1_555
La2_2 Mg1_6 3.686779 1_555
La2_2 La2_4 3.805538 1_565
La2_2 La2_4 3.805538 1_455
La2_3 Mg0_0 3.441796 1_556
La2_3 Mg0_1 3.441796 1_555
La2_3 Mg0_7 3.441796 1_555
La2_3 Mg0_6 3.441796 1_556
La2_3 Mg2_1 3.449966 1_555
La2_3 Mg2_7 3.449966 1_555
La2_3 Mg1_1 3.686779 1_555
La2_3 Mg1_7 3.686779 1_555
La2_3 La2_5 3.805538 1_565
La2_3 La2_5 3.805538 1_455
La2_4 Mg0_7 3.441796 1_545
La2_4 Mg0_6 3.441796 1_545
La2_4 Mg0_1 3.441796 1_655
La2_4 Mg0_0 3.441796 1_655
La2_4 Mg2_6 3.449966 1_545
La2_4 Mg2_0 3.449966 1_655
La2_4 Mg1_6 3.686779 1_545
La2_4 Mg1_0 3.686779 1_655
La2_5 Mg0_6 3.441796 1_546
La2_5 Mg0_7 3.441796 1_545
La2_5 Mg0_0 3.441796 1_656
La2_5 Mg0_1 3.441796 1_655
La2_5 Mg2_7 3.449966 1_545
La2_5 Mg2_1 3.449966 1_655
La2_5 Mg1_7 3.686779 1_545
La2_5 Mg1_1 3.686779 1_655
La2_6 Mg0_5 3.441796 1_555
La2_6 Mg0_4 3.441796 1_555
La2_6 Mg0_2 3.441796 1_655
La2_6 Mg0_3 3.441796 1_655
La2_6 Mg2_4 3.449966 1_555
La2_6 Mg2_2 3.449966 1_655
La2_6 Mg1_4 3.686779 1_555
La2_6 Mg1_2 3.686779 1_655
La2_7 Mg0_4 3.441796 1_556
La2_7 Mg0_5 3.441796 1_555
La2_7 Mg0_2 3.441796 1_656
La2_7 Mg0_3 3.441796 1_655
La2_7 Mg2_5 3.449966 1_555
La2_7 Mg2_3 3.449966 1_655
La2_7 Mg1_5 3.686779 1_555
La2_7 Mg1_3 3.686779 1_655
Mg1_0 Mg2_2 3.134660 1_555
Mg1_0 Mg2_4 3.134660 1_455
Mg1_1 Mg2_3 3.134660 1_555
Mg1_1 Mg2_5 3.134660 1_455
Mg1_2 Mg2_6 3.134660 1_455
Mg1_2 Mg2_0 3.134660 1_565
Mg1_3 Mg2_7 3.134660 1_455
Mg1_3 Mg2_1 3.134660 1_565
Mg1_4 Mg2_6 3.134660 1_555
Mg1_4 Mg2_0 3.134660 1_555
Mg1_5 Mg2_7 3.134660 1_555
Mg1_5 Mg2_1 3.134660 1_555
Mg1_6 Mg2_4 3.134660 1_565
Mg1_6 Mg2_2 3.134660 1_555
Mg1_7 Mg2_5 3.134660 1_565
Mg1_7 Mg2_3 3.134660 1_555
