# generated using pymatgen
data_Mg6GaC
_symmetry_space_group_name_H-M   'P 1'
_cell_length_a   4.65934300
_cell_length_b   5.93325100
_cell_length_c   11.39898900
_cell_angle_alpha   90.00000000
_cell_angle_beta   90.00000000
_cell_angle_gamma   90.00000000
_symmetry_Int_Tables_number   1
_chemical_formula_structural   Mg6GaC
_chemical_formula_sum   'Mg12 Ga2 C2'
_cell_volume   315.12563811
_cell_formula_units_Z   2
loop_
 _symmetry_equiv_pos_site_id
 _symmetry_equiv_pos_as_xyz
  1  'x, y, z'
loop_
 _atom_site_type_symbol
 _atom_site_label
 _atom_site_symmetry_multiplicity
 _atom_site_fract_x
 _atom_site_fract_y
 _atom_site_fract_z
 _atom_site_occupancy
  Mg  Mg0  1  0.00000000  0.27337100  0.10422500  1
  Mg  Mg1  1  0.00000000  0.72662900  0.10422500  1
  Mg  Mg2  1  0.00000000  0.00000000  0.33611300  1
  Mg  Mg3  1  0.50000000  0.74671100  0.42402800  1
  Mg  Mg4  1  0.50000000  0.25328900  0.42402800  1
  Mg  Mg5  1  0.50000000  0.00000000  0.16988800  1
  Mg  Mg6  1  0.00000000  0.77337100  0.60422500  1
  Mg  Mg7  1  0.00000000  0.22662900  0.60422500  1
  Mg  Mg8  1  0.00000000  0.50000000  0.83611300  1
  Mg  Mg9  1  0.50000000  0.24671100  0.92402800  1
  Mg  Mg10  1  0.50000000  0.75328900  0.92402800  1
  Mg  Mg11  1  0.50000000  0.50000000  0.66988800  1
  Ga  Ga0  1  0.00000000  0.50000000  0.36880600  1
  Ga  Ga1  1  0.00000000  0.00000000  0.86880600  1
  C  C0  1  0.50000000  0.50000000  0.06868600  1
  C  C1  1  0.50000000  0.00000000  0.56868600  1
loop_
_geom_bond_atom_site_label_1
_geom_bond_atom_site_label_2
_geom_bond_distance
_geom_bond_site_symmetry_2
Mg0 Mg5 2.935715 1_455
Mg0 Mg5 2.935715 1_555
Mg1 Mg5 2.935715 1_465
Mg1 Mg5 2.935715 1_565
Mg2 Mg5 3.002936 1_455
Mg2 Mg5 3.002936 1_555
Mg3 Mg5 3.263548 1_565
Mg4 Mg5 3.263548 1_555
Mg5 Mg9 3.161807 1_554
Mg10 Mg5 3.161807 1_566
Mg10 Mg11 3.263548 1_555
Mg11 Mg6 2.935715 1_555
Mg11 Mg6 2.935715 1_655
Mg11 Mg7 2.935715 1_655
Mg11 Mg7 2.935715 1_555
Mg11 Mg8 3.002936 1_655
Mg11 Mg8 3.002936 1_555
Mg11 Mg3 3.161807 1_555
Mg11 Mg4 3.161807 1_555
Mg11 Mg9 3.263548 1_555
Ga0 Mg4 2.822466 1_455
Ga0 Mg3 2.822466 1_555
Ga0 Mg4 2.822466 1_555
Ga0 Mg3 2.822466 1_455
Ga0 Mg2 2.989941 1_555
Ga0 Mg2 2.989941 1_565
Ga0 Mg6 3.135633 1_555
Ga0 Mg7 3.135633 1_555
Ga0 Mg1 3.302130 1_555
Ga0 Mg0 3.302130 1_555
Ga1 Mg9 2.822466 1_455
Ga1 Mg9 2.822466 1_555
Ga1 Mg10 2.822466 1_445
Ga1 Mg10 2.822466 1_545
Ga1 Mg8 2.989941 1_555
Ga1 Mg8 2.989941 1_545
Ga1 Mg1 3.135633 1_546
Ga1 Mg0 3.135633 1_556
Ga1 Mg7 3.302130 1_555
Ga1 Mg6 3.302130 1_545
C0 Mg10 2.231041 1_554
C0 Mg9 2.231041 1_554
C0 Mg1 2.720213 1_655
C0 Mg1 2.720213 1_555
C0 Mg0 2.720213 1_655
C0 Mg0 2.720213 1_555
C1 Mg4 2.231041 1_555
C1 Mg3 2.231041 1_545
C1 Mg7 2.720213 1_655
C1 Mg7 2.720213 1_555
C1 Mg6 2.720213 1_645
C1 Mg6 2.720213 1_545
