# generated using pymatgen
data_K6InAs3
_symmetry_space_group_name_H-M   'P 1'
_cell_length_a   9.04530698
_cell_length_b   9.16029397
_cell_length_c   19.66412788
_cell_angle_alpha   94.28892897
_cell_angle_beta   94.80514060
_cell_angle_gamma   119.45284379
_symmetry_Int_Tables_number   1
_chemical_formula_structural   K6InAs3
_chemical_formula_sum   'K24 In4 As12'
_cell_volume   1401.07975781
_cell_formula_units_Z   4
loop_
 _symmetry_equiv_pos_site_id
 _symmetry_equiv_pos_as_xyz
  1  'x, y, z'
loop_
 _atom_site_type_symbol
 _atom_site_label
 _atom_site_symmetry_multiplicity
 _atom_site_fract_x
 _atom_site_fract_y
 _atom_site_fract_z
 _atom_site_occupancy
  K  K0  1  0.28544071  0.15452322  0.80272010  1
  K  K1  1  0.71455929  0.84547678  0.19727990  1
  K  K2  1  0.96039612  0.76544683  0.69604116  1
  K  K3  1  0.03960388  0.23455317  0.30395884  1
  K  K4  1  0.55080383  0.01773745  0.69494184  1
  K  K5  1  0.44919617  0.98226255  0.30505816  1
  K  K6  1  0.63541919  0.74329201  0.80591483  1
  K  K7  1  0.36458081  0.25670799  0.19408517  1
  K  K8  1  0.97176588  0.16395171  0.93420727  1
  K  K9  1  0.02823412  0.83604829  0.06579273  1
  K  K10  1  0.88966452  0.40961913  0.80352963  1
  K  K11  1  0.11033548  0.59038087  0.19647037  1
  K  K12  1  0.62913832  0.86830790  0.00228008  1
  K  K13  1  0.37086168  0.13169210  0.99771992  1
  K  K14  1  0.82970970  0.01374620  0.56623225  1
  K  K15  1  0.17029030  0.98625380  0.43376775  1
  K  K16  1  0.76273198  0.62771357  0.49837088  1
  K  K17  1  0.23726802  0.37228643  0.50162912  1
  K  K18  1  0.20539998  0.42073658  0.69647596  1
  K  K19  1  0.79460002  0.57926342  0.30352404  1
  K  K20  1  0.74869763  0.25946765  0.44696108  1
  K  K21  1  0.25130237  0.74053235  0.55303892  1
  K  K22  1  0.70386476  0.47194003  0.94625696  1
  K  K23  1  0.29613524  0.52805997  0.05374304  1
  In  In0  1  0.28670213  0.78450966  0.87518856  1
  In  In1  1  0.71329787  0.21549034  0.12481144  1
  In  In2  1  0.54516094  0.36819648  0.62426323  1
  In  In3  1  0.45483906  0.63180352  0.37573677  1
  As  As0  1  0.83906348  0.37542613  0.62047901  1
  As  As1  1  0.16093652  0.62457387  0.37952099  1
  As  As2  1  0.57844222  0.06775673  0.86937446  1
  As  As3  1  0.42155778  0.93224327  0.13062554  1
  As  As4  1  0.24242007  0.09316821  0.61772487  1
  As  As5  1  0.75757993  0.90683179  0.38227513  1
  As  As6  1  0.55574582  0.66317695  0.62922626  1
  As  As7  1  0.44425418  0.33682305  0.37077374  1
  As  As8  1  0.01283454  0.81265661  0.88191325  1
  As  As9  1  0.98716546  0.18734339  0.11808675  1
  As  As10  1  0.29524453  0.50185679  0.88109605  1
  As  As11  1  0.70475547  0.49814321  0.11890395  1
loop_
_geom_bond_atom_site_label_1
_geom_bond_atom_site_label_2
_geom_bond_distance
_geom_bond_site_symmetry_2
In0 K12 3.536533 1_556
In0 K13 3.558798 1_565
In0 K10 3.602258 1_455
In1 K13 3.536533 1_554
In1 K12 3.558798 1_545
In1 K11 3.602258 1_655
In2 K17 3.544547 1_555
In2 K16 3.570487 1_555
In2 K4 3.613438 1_555
In3 K16 3.544547 1_555
In3 K17 3.570487 1_555
In3 K5 3.613438 1_555
As0 In2 2.634001 1_555
As0 K18 3.333277 1_655
As0 K2 3.354594 1_555
As0 K14 3.361881 1_555
As0 K20 3.402280 1_555
As0 K4 3.554420 1_555
As0 K10 3.560700 1_555
As0 K16 3.701957 1_555
As1 In3 2.634001 1_555
As1 K19 3.333277 1_455
As1 K3 3.354594 1_555
As1 K15 3.361881 1_555
As1 K21 3.402280 1_555
As1 K5 3.554420 1_555
As1 K11 3.560700 1_555
As1 K17 3.701957 1_555
As2 In0 2.659024 1_545
As2 K0 3.319497 1_555
As2 K8 3.323907 1_555
As2 K4 3.398000 1_555
As2 K12 3.422834 1_546
As2 K6 3.422881 1_545
As2 K13 3.448525 1_555
As2 K10 3.457687 1_555
As2 K22 3.467775 1_555
As3 In1 2.659024 1_565
As3 K1 3.319497 1_555
As3 K9 3.323907 1_555
As3 K5 3.398000 1_555
As3 K13 3.422834 1_564
As3 K7 3.422881 1_565
As3 K12 3.448525 1_555
As3 K11 3.457687 1_555
As3 K23 3.467775 1_555
As4 In2 2.640156 1_555
As4 K2 3.421977 1_445
As4 K21 3.422966 1_545
As4 K18 3.448756 1_555
As4 K4 3.450603 1_555
As4 K14 3.475083 1_455
As4 K17 3.567009 1_555
As4 K15 3.593944 1_545
As4 K0 3.597587 1_555
As5 In3 2.640156 1_555
As5 K3 3.421977 1_665
As5 K20 3.422966 1_565
As5 K19 3.448756 1_555
As5 K5 3.450603 1_555
As5 K15 3.475083 1_655
As5 K16 3.567009 1_555
As5 K14 3.593944 1_565
As5 K1 3.597587 1_555
As6 In2 2.650406 1_555
As6 K18 3.308113 1_555
As6 K14 3.357266 1_565
As6 K16 3.392965 1_555
As6 K2 3.411595 1_555
As6 K21 3.422935 1_555
As6 K4 3.427140 1_565
As6 K6 3.436364 1_555
As6 K17 3.454662 1_555
As7 In3 2.650406 1_555
As7 K19 3.308113 1_555
As7 K15 3.357266 1_545
As7 K17 3.392965 1_555
As7 K3 3.411595 1_555
As7 K20 3.422935 1_555
As7 K5 3.427140 1_545
As7 K7 3.436364 1_555
As7 K16 3.454662 1_555
As8 In0 2.626493 1_555
As8 K6 3.340876 1_455
As8 K22 3.428942 1_455
As8 K10 3.473265 1_455
As8 K0 3.477223 1_565
As8 K8 3.506475 1_465
As8 K13 3.560334 1_565
As8 K9 3.593038 1_556
As8 K2 3.611444 1_455
As9 In1 2.626493 1_555
As9 K7 3.340876 1_655
As9 K23 3.428942 1_655
As9 K11 3.473265 1_655
As9 K1 3.477223 1_545
As9 K9 3.506475 1_645
As9 K12 3.560334 1_545
As9 K8 3.593038 1_554
As9 K3 3.611444 1_655
As10 In0 2.638856 1_555
As10 K6 3.332202 1_555
As10 K8 3.364800 1_455
As10 K23 3.384525 1_556
As10 K0 3.387095 1_555
As10 K10 3.510052 1_455
As10 K18 3.591757 1_555
As10 K12 3.700806 1_556
As10 K22 3.953888 1_555
As11 In1 2.638856 1_555
As11 K7 3.332202 1_555
As11 K9 3.364800 1_655
As11 K22 3.384525 1_554
As11 K1 3.387095 1_555
As11 K11 3.510052 1_655
As11 K19 3.591757 1_555
As11 K13 3.700806 1_554
As11 K23 3.953888 1_555
