# generated using pymatgen
data_V2AsO6
_symmetry_space_group_name_H-M   'P 1'
_cell_length_a   4.76049679
_cell_length_b   8.80823197
_cell_length_c   9.46539123
_cell_angle_alpha   90.00000000
_cell_angle_beta   90.00000000
_cell_angle_gamma   90.00000000
_symmetry_Int_Tables_number   1
_chemical_formula_structural   V2AsO6
_chemical_formula_sum   'V8 As4 O24'
_cell_volume   396.89862046
_cell_formula_units_Z   4
loop_
 _symmetry_equiv_pos_site_id
 _symmetry_equiv_pos_as_xyz
  1  'x, y, z'
loop_
 _atom_site_type_symbol
 _atom_site_label
 _atom_site_symmetry_multiplicity
 _atom_site_fract_x
 _atom_site_fract_y
 _atom_site_fract_z
 _atom_site_occupancy
  V  V0  1  0.09482857  0.66429036  0.89525280  1
  V  V1  1  0.40517143  0.33570964  0.39525280  1
  V  V2  1  0.59482857  0.83570964  0.10474720  1
  V  V3  1  0.90517143  0.16429036  0.60474720  1
  V  V4  1  0.10760685  0.00660289  0.90073907  1
  V  V5  1  0.39239315  0.99339711  0.40073907  1
  V  V6  1  0.60760685  0.49339711  0.09926093  1
  V  V7  1  0.89239315  0.50660289  0.59926093  1
  As  As0  1  0.89302774  0.16075630  0.19086567  1
  As  As1  1  0.60697226  0.83924370  0.69086567  1
  As  As2  1  0.39302774  0.33924370  0.80913433  1
  As  As3  1  0.10697226  0.66075630  0.30913433  1
  O  O0  1  0.91516384  0.15685213  0.01457129  1
  O  O1  1  0.58483616  0.84314787  0.51457129  1
  O  O2  1  0.41516384  0.34314787  0.98542871  1
  O  O3  1  0.08483616  0.65685213  0.48542871  1
  O  O4  1  0.71649941  0.32395628  0.23665574  1
  O  O5  1  0.78350059  0.67604372  0.73665574  1
  O  O6  1  0.21649941  0.17604372  0.76334426  1
  O  O7  1  0.28350059  0.82395628  0.26334426  1
  O  O8  1  0.72050243  0.00044045  0.24819195  1
  O  O9  1  0.77949757  -0.00044045  0.74819195  1
  O  O10  1  0.22050243  0.49955955  0.75180805  1
  O  O11  1  0.27949757  0.50044045  0.25180805  1
  O  O12  1  0.21442245  0.16507146  0.27148357  1
  O  O13  1  0.28557755  0.83492854  0.77148357  1
  O  O14  1  0.71442245  0.33492854  0.72851643  1
  O  O15  1  0.78557755  0.66507146  0.22851643  1
  O  O16  1  0.40694402  0.66427288  0.01680430  1
  O  O17  1  0.09305598  0.33572712  0.51680430  1
  O  O18  1  0.90694402  0.83572712  0.98319570  1
  O  O19  1  0.59305598  0.16427288  0.48319570  1
  O  O20  1  0.39133529  0.97851998  0.00809385  1
  O  O21  1  0.10866471  0.02148002  0.50809385  1
  O  O22  1  0.89133529  0.52148002  0.99190615  1
  O  O23  1  0.60866471  0.47851998  0.49190615  1
loop_
_geom_bond_atom_site_label_1
_geom_bond_atom_site_label_2
_geom_bond_distance
_geom_bond_site_symmetry_2
As0 O0 1.672373 1_555
As0 O12 1.710155 1_655
As0 O4 1.720604 1_555
As0 O8 1.721337 1_555
As1 O1 1.672373 1_555
As1 O13 1.710155 1_555
As1 O5 1.720604 1_555
As1 O9 1.721337 1_565
As2 O2 1.672373 1_555
As2 O14 1.710155 1_555
As2 O6 1.720604 1_555
As2 O10 1.721337 1_555
As3 O3 1.672373 1_555
As3 O15 1.710155 1_455
As3 O7 1.720604 1_555
As3 O11 1.721337 1_555
O0 V4 1.936927 1_654
O1 V5 1.936927 1_555
O2 V6 1.936927 1_556
O3 V7 1.936927 1_455
O4 V6 2.046335 1_555
O4 V1 2.112065 1_555
O5 V7 2.046335 1_555
O5 V0 2.112065 1_655
O6 V4 2.046335 1_555
O6 V3 2.112065 1_455
O7 V5 2.046335 1_555
O7 V2 2.112065 1_555
O8 V2 2.075284 1_545
O8 V5 2.128022 1_545
O9 V3 2.075284 1_555
O9 V4 2.128022 1_655
O10 V0 2.075284 1_555
O10 V7 2.128022 1_455
O11 V1 2.075284 1_555
O11 V6 2.128022 1_555
O12 V1 2.110951 1_555
O12 V5 2.121609 1_545
O13 V0 2.110951 1_555
O13 V4 2.121609 1_565
O14 V3 2.110951 1_555
O14 V7 2.121609 1_555
O15 V2 2.110951 1_555
O15 V6 2.121609 1_555
O16 V0 1.879202 1_554
O16 V2 1.942466 1_555
O16 V6 1.946030 1_555
O17 V1 1.879202 1_555
O17 V3 1.942466 1_455
O17 V7 1.946030 1_455
O18 V2 1.879202 1_556
O18 V0 1.942466 1_655
O18 V4 1.946030 1_665
O19 V3 1.879202 1_555
O19 V1 1.942466 1_555
O19 V5 1.946030 1_545
O20 V4 1.708250 1_564
O20 V2 1.832413 1_555
O21 V5 1.708250 1_545
O21 V3 1.832413 1_455
O22 V6 1.708250 1_556
O22 V0 1.832413 1_655
O23 V7 1.708250 1_555
O23 V1 1.832413 1_555
