# generated using pymatgen
data_Hf10MnSb5
_symmetry_space_group_name_H-M   'P 1'
_cell_length_a   5.55266760
_cell_length_b   8.25451597
_cell_length_c   8.25447410
_cell_angle_alpha   96.49345146
_cell_angle_beta   109.67043842
_cell_angle_gamma   70.33091596
_symmetry_Int_Tables_number   1
_chemical_formula_structural   Hf10MnSb5
_chemical_formula_sum   'Hf10 Mn1 Sb5'
_cell_volume   335.47499743
_cell_formula_units_Z   1
loop_
 _symmetry_equiv_pos_site_id
 _symmetry_equiv_pos_as_xyz
  1  'x, y, z'
loop_
 _atom_site_type_symbol
 _atom_site_label
 _atom_site_symmetry_multiplicity
 _atom_site_fract_x
 _atom_site_fract_y
 _atom_site_fract_z
 _atom_site_occupancy
  Hf  Hf0  1  0.93343767  0.85828686  0.70590718  1
  Hf  Hf1  1  0.08590612  0.14179015  0.29414310  1
  Hf  Hf2  1  0.41409865  0.29414024  0.14179301  1
  Hf  Hf3  1  0.56656046  0.70590741  0.85828839  1
  Hf  Hf4  1  0.22773959  0.70585285  0.14179794  1
  Hf  Hf5  1  0.79168755  0.29415444  0.85825467  1
  Hf  Hf6  1  0.27226394  0.14179410  0.70585133  1
  Hf  Hf7  1  0.70830911  0.85825500  0.29415565  1
  Hf  Hf8  1  0.24999922  0.49994742  0.49995338  1
  Hf  Hf9  1  0.75000416  0.50000548  0.50001014  1
  Mn  Mn0  1  0.25000035  -0.00010066  -0.00009991  1
  Sb  Sb0  1  0.33556656  0.82813349  0.49996667  1
  Sb  Sb1  1  0.66444400  0.17188083  0.49996387  1
  Sb  Sb2  1  0.83555839  0.49996670  0.17188008  1
  Sb  Sb3  1  0.16442271  0.49995234  0.82810025  1
  Sb  Sb4  1  0.75000152  0.00003335  0.00003424  1
loop_
_geom_bond_atom_site_label_1
_geom_bond_atom_site_label_2
_geom_bond_distance
_geom_bond_site_symmetry_2
Hf0 Mn0 2.866211 1_666
Hf0 Sb1 2.916270 1_565
Hf0 Sb4 2.919083 1_566
Hf0 Sb3 2.943034 1_655
Hf0 Sb0 3.165920 1_655
Hf0 Sb0 3.260975 1_555
Hf1 Mn0 2.868664 1_555
Hf1 Sb0 2.916294 1_545
Hf1 Sb4 2.918928 1_455
Hf1 Sb2 2.942097 1_455
Hf1 Sb1 3.167845 1_555
Hf1 Sb1 3.258028 1_455
Hf2 Mn0 2.868647 1_555
Hf2 Sb3 2.916464 1_554
Hf2 Sb4 2.918977 1_555
Hf2 Sb1 2.942014 1_555
Hf2 Sb2 3.167899 1_455
Hf2 Sb2 3.258034 1_555
Hf3 Mn0 2.866250 1_566
Hf3 Sb2 2.916229 1_556
Hf3 Sb4 2.919069 1_566
Hf3 Sb0 2.942992 1_555
Hf3 Sb3 3.165968 1_555
Hf3 Sb3 3.261101 1_655
Hf4 Mn0 2.867231 1_565
Hf4 Sb3 2.917409 1_554
Hf4 Sb4 2.918827 1_465
Hf4 Sb0 2.942504 1_555
Hf4 Sb2 3.163971 1_555
Hf4 Sb2 3.262350 1_455
Hf5 Mn0 2.867259 1_656
Hf5 Sb2 2.916637 1_556
Hf5 Sb4 2.919055 1_556
Hf5 Sb1 2.943275 1_555
Hf5 Sb3 3.168684 1_655
Hf5 Sb3 3.256986 1_555
Hf6 Mn0 2.867235 1_556
Hf6 Sb0 2.917117 1_545
Hf6 Sb4 2.918801 1_556
Hf6 Sb3 2.942377 1_555
Hf6 Sb1 3.163934 1_455
Hf6 Sb1 3.262382 1_555
Hf7 Mn0 2.867218 1_565
Hf7 Sb1 2.916637 1_565
Hf7 Sb4 2.919064 1_565
Hf7 Sb2 2.943295 1_555
Hf7 Sb0 3.168719 1_555
Hf7 Sb0 3.256994 1_655
Hf8 Sb3 2.903309 1_555
Hf8 Sb0 2.903597 1_555
Hf8 Sb2 2.904100 1_455
Hf8 Sb1 2.904142 1_555
Hf9 Sb1 2.903034 1_555
Hf9 Sb2 2.903068 1_555
Hf9 Sb3 2.904088 1_655
Hf9 Sb0 2.904417 1_555
Mn0 Sb4 2.776328 1_455
Mn0 Sb4 2.776340 1_555
