# generated using pymatgen
data_Li9Mn2Co5O16
_symmetry_space_group_name_H-M   'P 1'
_cell_length_a   5.82836400
_cell_length_b   6.61889684
_cell_length_c   7.80486759
_cell_angle_alpha   86.24410053
_cell_angle_beta   79.42131380
_cell_angle_gamma   77.28227324
_symmetry_Int_Tables_number   1
_chemical_formula_structural   Li9Mn2Co5O16
_chemical_formula_sum   'Li9 Mn2 Co5 O16'
_cell_volume   288.61347759
_cell_formula_units_Z   1
loop_
 _symmetry_equiv_pos_site_id
 _symmetry_equiv_pos_as_xyz
  1  'x, y, z'
loop_
 _atom_site_type_symbol
 _atom_site_label
 _atom_site_symmetry_multiplicity
 _atom_site_fract_x
 _atom_site_fract_y
 _atom_site_fract_z
 _atom_site_occupancy
  Li  Li0  1  0.56320400  0.62336800  0.12726300  1
  Li  Li1  1  0.68881000  0.86710200  0.38458600  1
  Li  Li2  1  0.43679600  0.37663200  0.87273700  1
  Li  Li3  1  0.31119000  0.13289800  0.61541400  1
  Li  Li4  1  0.18474400  0.86352400  0.38472700  1
  Li  Li5  1  0.06289500  0.62036200  0.13544000  1
  Li  Li6  1  0.93710500  0.37963800  0.86456000  1
  Li  Li7  1  0.81525600  0.13647600  0.61527300  1
  Li  Li8  1  0.00000000  0.50000000  0.50000000  1
  Mn  Mn0  1  0.74987700  0.99923800  0.00103000  1
  Mn  Mn1  1  0.25012300  0.00076200  0.99897000  1
  Co  Co0  1  0.87437400  0.26412300  0.26034600  1
  Co  Co1  1  0.12562600  0.73587700  0.73965400  1
  Co  Co2  1  0.36522100  0.25779600  0.26202700  1
  Co  Co3  1  0.50000000  0.50000000  0.50000000  1
  Co  Co4  1  0.63477900  0.74220400  0.73797300  1
  O  O0  1  0.47327000  0.94556300  0.16347100  1
  O  O1  1  0.59517600  0.19480900  0.43396800  1
  O  O2  1  0.34144400  0.71525700  0.92566100  1
  O  O3  1  0.22059400  0.45158200  0.68959300  1
  O  O4  1  0.10476200  0.17888400  0.41851400  1
  O  O5  1  0.97326800  0.94601900  0.16484500  1
  O  O6  1  0.83856100  0.71045800  0.93211200  1
  O  O7  1  0.70254400  0.45070800  0.68473700  1
  O  O8  1  0.65855600  0.28474300  0.07433900  1
  O  O9  1  0.77940600  0.54841800  0.31040700  1
  O  O10  1  0.52673000  0.05443700  0.83652900  1
  O  O11  1  0.40482400  0.80519100  0.56603200  1
  O  O12  1  0.29745600  0.54929200  0.31526300  1
  O  O13  1  0.16143900  0.28954200  0.06788800  1
  O  O14  1  0.02673200  0.05398100  0.83515500  1
  O  O15  1  0.89523800  0.82111600  0.58148600  1
loop_
_geom_bond_atom_site_label_1
_geom_bond_atom_site_label_2
_geom_bond_distance
_geom_bond_site_symmetry_2
Li0 O9 2.042156 1_555
Li0 O12 2.048920 1_555
Li0 O0 2.105916 1_555
Li0 O6 2.150026 1_554
Li0 O2 2.188954 1_554
Li0 O8 2.234184 1_555
Li1 O11 2.067606 1_555
Li1 O15 2.087639 1_555
Li1 O9 2.149571 1_555
Li1 O1 2.159235 1_565
Li1 O5 2.276590 1_555
Li1 O0 2.284186 1_555
Li2 O3 2.042156 1_555
Li2 O7 2.048920 1_555
Li2 O10 2.105916 1_555
Li2 O13 2.150026 1_556
Li2 O8 2.188954 1_556
Li2 O2 2.234184 1_555
Li3 O1 2.067606 1_555
Li3 O4 2.087639 1_555
Li3 O3 2.149571 1_555
Li3 O11 2.159235 1_545
Li3 O14 2.276590 1_555
Li3 O10 2.284186 1_555
Li4 O11 2.042946 1_555
Li4 O4 2.059701 1_565
Li4 O12 2.113461 1_555
Li4 O15 2.117752 1_455
Li4 O5 2.262761 1_455
Li4 O0 2.306034 1_555
Li5 O9 2.062617 1_455
Li5 O12 2.096405 1_555
Li5 O5 2.120546 1_455
Li5 O6 2.208653 1_454
Li5 O13 2.211066 1_555
Li5 O2 2.247045 1_554
Li6 O3 2.062617 1_655
Li6 O7 2.096405 1_555
Li6 O14 2.120546 1_655
Li6 O13 2.208653 1_656
Li6 O6 2.211066 1_555
Li6 O8 2.247045 1_556
Li7 O1 2.042946 1_555
Li7 O15 2.059701 1_545
Li7 O7 2.113461 1_555
Li7 O4 2.117752 1_655
Li7 O14 2.262761 1_655
Li7 O10 2.306034 1_555
Li8 O3 2.097711 1_555
Li8 O9 2.097711 1_455
Li8 O7 2.112017 1_455
Li8 O12 2.112017 1_555
Li8 O15 2.181256 1_455
Li8 O4 2.181256 1_555
Mn0 O8 1.941320 1_565
Mn0 O0 1.943034 1_555
Mn0 O5 1.950457 1_555
Mn0 O6 1.951303 1_554
Mn0 O10 1.953422 1_564
Mn0 O14 1.959603 1_664
Mn1 O2 1.941320 1_545
Mn1 O10 1.943034 1_555
Mn1 O14 1.950457 1_555
Mn1 O13 1.951303 1_556
Mn1 O0 1.953422 1_546
Mn1 O5 1.959603 1_446
Co0 O9 1.886326 1_555
Co0 O4 1.956822 1_655
Co0 O1 2.032824 1_555
Co0 O13 2.062043 1_655
Co0 O8 2.068191 1_555
Co0 O5 2.198738 1_545
Co1 O3 1.886326 1_555
Co1 O15 1.956822 1_455
Co1 O11 2.032824 1_555
Co1 O6 2.062043 1_455
Co1 O2 2.068191 1_555
Co1 O14 2.198738 1_565
Co2 O4 1.911483 1_555
Co2 O12 1.939176 1_555
Co2 O1 2.027828 1_555
Co2 O13 2.063959 1_555
Co2 O8 2.069082 1_555
Co2 O0 2.171784 1_545
Co3 O7 1.993164 1_555
Co3 O12 1.993164 1_555
Co3 O11 2.047409 1_555
Co3 O1 2.047409 1_555
Co3 O9 2.056009 1_555
Co3 O3 2.056009 1_555
Co4 O15 1.911483 1_555
Co4 O7 1.939176 1_555
Co4 O11 2.027828 1_555
Co4 O6 2.063959 1_555
Co4 O2 2.069082 1_555
Co4 O10 2.171784 1_565
