# generated using pymatgen
data_K2ScHgF6
_symmetry_space_group_name_H-M   'P 1'
_cell_length_a   6.48491023
_cell_length_b   6.48491023
_cell_length_c   6.48491023
_cell_angle_alpha   60.00000000
_cell_angle_beta   60.00000000
_cell_angle_gamma   60.00000000
_symmetry_Int_Tables_number   1
_chemical_formula_structural   K2ScHgF6
_chemical_formula_sum   'K2 Sc1 Hg1 F6'
_cell_volume   192.83990468
_cell_formula_units_Z   1
loop_
 _symmetry_equiv_pos_site_id
 _symmetry_equiv_pos_as_xyz
  1  'x, y, z'
loop_
 _atom_site_type_symbol
 _atom_site_label
 _atom_site_symmetry_multiplicity
 _atom_site_fract_x
 _atom_site_fract_y
 _atom_site_fract_z
 _atom_site_occupancy
  K  K0  1  0.75000000  0.75000000  0.75000000  1
  K  K1  1  0.25000000  0.25000000  0.25000000  1
  Sc  Sc0  1  0.00000000  0.00000000  0.00000000  1
  Hg  Hg0  1  0.50000000  0.50000000  0.50000000  1
  F  F0  1  0.77881200  0.22118800  0.22118800  1
  F  F1  1  0.22118800  0.22118800  0.77881200  1
  F  F2  1  0.22118700  0.77881200  0.77881200  1
  F  F3  1  0.22118800  0.77881200  0.22118800  1
  F  F4  1  0.77881200  0.22118700  0.77881200  1
  F  F5  1  0.77881200  0.77881300  0.22118700  1
loop_
_geom_bond_atom_site_label_1
_geom_bond_atom_site_label_2
_geom_bond_distance
_geom_bond_site_symmetry_2
F0 Sc0 2.028526 1_655
F0 Hg0 2.556998 1_555
F0 K1 3.253204 1_655
F0 K0 3.253204 1_554
F0 K1 3.253204 1_555
F0 K0 3.253204 1_545
F1 Sc0 2.028526 1_556
F1 Hg0 2.556998 1_555
F1 K1 3.253204 1_555
F1 K0 3.253204 1_455
F1 K0 3.253204 1_545
F1 K1 3.253204 1_556
F2 Sc0 2.028526 1_566
F2 Hg0 2.556998 1_555
F2 K0 3.253197 1_455
F2 K1 3.253204 1_556
F2 K1 3.253204 1_565
F2 K0 3.253210 1_555
F3 Sc0 2.028526 1_565
F3 Hg0 2.556998 1_555
F3 K1 3.253204 1_555
F3 K0 3.253204 1_554
F3 K1 3.253204 1_565
F3 K0 3.253204 1_455
F4 Sc0 2.028526 1_656
F4 Hg0 2.556998 1_555
F4 K0 3.253197 1_545
F4 K1 3.253204 1_556
F4 K1 3.253204 1_655
F4 K0 3.253210 1_555
F5 Sc0 2.028521 1_665
F5 Hg0 2.557003 1_555
F5 K0 3.253201 1_554
F5 K1 3.253201 1_565
F5 K1 3.253208 1_655
F5 K0 3.253208 1_555
