# generated using pymatgen
data_LaAs2Au
_symmetry_space_group_name_H-M   'P 1'
_cell_length_a   4.13493743
_cell_length_b   4.13493743
_cell_length_c   10.90986986
_cell_angle_alpha   100.92386494
_cell_angle_beta   100.92386494
_cell_angle_gamma   90.00000000
_symmetry_Int_Tables_number   1
_chemical_formula_structural   LaAs2Au
_chemical_formula_sum   'La2 As4 Au2'
_cell_volume   179.71016973
_cell_formula_units_Z   2
loop_
 _symmetry_equiv_pos_site_id
 _symmetry_equiv_pos_as_xyz
  1  'x, y, z'
loop_
 _atom_site_type_symbol
 _atom_site_label
 _atom_site_symmetry_multiplicity
 _atom_site_fract_x
 _atom_site_fract_y
 _atom_site_fract_z
 _atom_site_occupancy
  La  La0  1  0.11602404  0.11602404  0.23204809  1
  La  La1  1  0.88397596  0.88397596  0.76795191  1
  As  As0  1  0.33609300  0.33609300  0.67218699  1
  As  As1  1  0.66390700  0.66390700  0.32781301  1
  As  As2  1  -0.00000000  0.50000000  0.00000000  1
  As  As3  1  0.50000000  0.00000000  0.00000000  1
  Au  Au0  1  0.25000000  0.75000000  0.50000000  1
  Au  Au1  1  0.75000000  0.25000000  0.50000000  1
loop_
_geom_bond_atom_site_label_1
_geom_bond_atom_site_label_2
_geom_bond_distance
_geom_bond_site_symmetry_2
As0 Au1 2.747701 1_455
As0 Au0 2.747701 1_545
As0 Au0 2.747704 1_555
As0 Au1 2.747704 1_555
As0 La1 3.092249 1_445
As0 La1 3.092252 1_455
As0 La1 3.092252 1_545
As0 La1 3.092255 1_555
As1 Au0 2.747701 1_655
As1 Au1 2.747701 1_565
As1 Au1 2.747704 1_555
As1 Au0 2.747704 1_555
As1 La0 3.092249 1_665
As1 La0 3.092252 1_565
As1 La0 3.092252 1_655
As1 La0 3.092255 1_555
As2 As3 2.923842 1_465
As2 As3 2.923842 1_565
As2 As3 2.923842 1_455
As2 As3 2.923842 1_555
As2 La1 3.197370 1_444
As2 La0 3.197370 1_565
As2 La1 3.197370 1_454
As2 La0 3.197370 1_555
As3 La0 3.197370 1_655
As3 La1 3.197370 1_444
As3 La1 3.197370 1_544
As3 La0 3.197370 1_555
Au0 Au1 2.923842 1_565
Au0 Au1 2.923842 1_455
Au0 Au1 2.923842 1_465
Au0 Au1 2.923842 1_555
Au0 La1 3.493771 1_455
Au0 La0 3.493771 1_565
Au0 La1 3.493771 1_555
Au0 La0 3.493771 1_555
Au1 La1 3.493771 1_545
Au1 La0 3.493771 1_655
Au1 La1 3.493771 1_555
Au1 La0 3.493771 1_555
