# generated using pymatgen
data_MgMn6Nb4O18
_symmetry_space_group_name_H-M   'P 1'
_cell_length_a   5.37197889
_cell_length_b   5.54691187
_cell_length_c   15.29086162
_cell_angle_alpha   87.07508495
_cell_angle_beta   100.11129966
_cell_angle_gamma   119.25593317
_symmetry_Int_Tables_number   1
_chemical_formula_structural   MgMn6Nb4O18
_chemical_formula_sum   'Mg1 Mn6 Nb4 O18'
_cell_volume   391.02223495
_cell_formula_units_Z   1
loop_
 _symmetry_equiv_pos_site_id
 _symmetry_equiv_pos_as_xyz
  1  'x, y, z'
loop_
 _atom_site_type_symbol
 _atom_site_label
 _atom_site_symmetry_multiplicity
 _atom_site_fract_x
 _atom_site_fract_y
 _atom_site_fract_z
 _atom_site_occupancy
  Mg  Mg0  1  0.76146300  0.70681100  0.45206700  1
  Mn  Mn0  1  0.63545700  0.33819600  0.68305900  1
  Mn  Mn1  1  0.60093800  0.28008700  0.98023700  1
  Mn  Mn2  1  0.57645000  0.10672100  0.47973500  1
  Mn  Mn3  1  0.23765200  0.63868100  0.56579300  1
  Mn  Mn4  1  0.28864700  0.62504100  0.00645800  1
  Mn  Mn5  1  0.68974500  0.35459800  0.17932100  1
  Nb  Nb0  1  0.87133800  0.93149100  0.87092500  1
  Nb  Nb1  1  0.01794500  0.97333200  0.13646700  1
  Nb  Nb2  1  0.98419400  0.01219000  0.66916900  1
  Nb  Nb3  1  0.10280800  0.09514800  0.33162300  1
  O  O0  1  0.34847100  0.29738600  0.08597000  1
  O  O1  1  0.58160200  0.63141200  0.91913000  1
  O  O2  1  0.01052700  0.28998300  0.23572900  1
  O  O3  1  0.38553400  0.10284400  0.23751000  1
  O  O4  1  0.95511300  0.62910200  0.08636000  1
  O  O5  1  0.66956300  0.76099000  0.56701400  1
  O  O6  1  0.75685900  0.06365600  0.75372000  1
  O  O7  1  0.92756800  0.24650000  0.93111200  1
  O  O8  1  0.14883700  0.78908000  0.43564800  1
  O  O9  1  0.29800000  0.02615700  0.60838100  1
  O  O10  1  0.32999300  0.33060900  0.73009400  1
  O  O11  1  0.87698100  0.31470200  0.59832900  1
  O  O12  1  0.86802300  0.75699100  0.24266200  1
  O  O13  1  0.21767200  0.92974400  0.92242800  1
  O  O14  1  0.67993100  0.99288300  0.08110000  1
  O  O15  1  0.81596600  0.05258100  0.39650600  1
  O  O16  1  0.44925200  0.35958400  0.40484000  1
  O  O17  1  0.92180600  0.70516200  0.74415100  1
loop_
_geom_bond_atom_site_label_1
_geom_bond_atom_site_label_2
_geom_bond_distance
_geom_bond_site_symmetry_2
Mg0 O16 1.898250 1_555
Mg0 O8 1.960933 1_655
Mg0 O15 1.964237 1_565
Mg0 O5 1.981649 1_555
Mn0 O10 1.885611 1_555
Mn0 O9 1.998513 1_555
Mn0 O17 2.002818 1_555
Mn0 O11 2.037568 1_555
Mn0 O6 2.113575 1_555
Mn1 O13 2.102959 1_545
Mn1 O7 2.115263 1_555
Mn1 O1 2.158587 1_555
Mn1 O14 2.297146 1_546
Mn1 O0 2.318498 1_556
Mn1 O4 2.374321 1_556
Mn2 O16 2.060049 1_555
Mn2 O15 2.087337 1_555
Mn2 O8 2.111190 1_545
Mn2 O11 2.142631 1_555
Mn2 O5 2.480124 1_545
Mn2 O9 2.568423 1_555
Mn3 O11 2.018646 1_455
Mn3 O5 2.071601 1_555
Mn3 O9 2.129861 1_565
Mn3 O8 2.184047 1_555
Mn4 O13 2.211150 1_554
Mn4 O1 2.222545 1_554
Mn4 O7 2.231589 1_454
Mn4 O14 2.255529 1_555
Mn4 O0 2.256740 1_555
Mn4 O4 2.348287 1_455
Mn5 O3 1.888275 1_555
Mn5 O2 1.972866 1_655
Mn5 O0 2.014445 1_555
Mn5 O12 2.154720 1_555
Mn5 O4 2.177198 1_555
Mn5 O14 2.541735 1_545
Nb0 O1 1.865967 1_555
Nb0 O7 1.882014 1_565
Nb0 O13 1.893180 1_655
Nb0 O6 2.011740 1_565
Nb0 O17 2.484530 1_555
Nb1 O14 1.915460 1_455
Nb1 O4 1.943033 1_455
Nb1 O12 2.010257 1_455
Nb1 O0 2.049411 1_565
Nb1 O3 2.111406 1_565
Nb1 O2 2.398352 1_565
Nb2 O17 1.924848 1_545
Nb2 O10 1.947203 1_655
Nb2 O9 2.031486 1_655
Nb2 O6 2.043824 1_555
Nb2 O5 2.057043 1_545
Nb2 O11 2.204728 1_555
Nb3 O15 1.889895 1_455
Nb3 O16 1.906919 1_555
Nb3 O2 1.915850 1_555
Nb3 O12 2.074882 1_445
Nb3 O3 2.253282 1_555
Nb3 O8 2.338839 1_545
