# generated using pymatgen
data_AlCrF5
_symmetry_space_group_name_H-M   'P 1'
_cell_length_a   5.17148150
_cell_length_b   5.17148150
_cell_length_c   5.17148150
_cell_angle_alpha   139.25771017
_cell_angle_beta   106.43137618
_cell_angle_gamma   87.67776392
_symmetry_Int_Tables_number   1
_chemical_formula_structural   AlCrF5
_chemical_formula_sum   'Al1 Cr1 F5'
_cell_volume   83.17713692
_cell_formula_units_Z   1
loop_
 _symmetry_equiv_pos_site_id
 _symmetry_equiv_pos_as_xyz
  1  'x, y, z'
loop_
 _atom_site_type_symbol
 _atom_site_label
 _atom_site_symmetry_multiplicity
 _atom_site_fract_x
 _atom_site_fract_y
 _atom_site_fract_z
 _atom_site_occupancy
  Al  Al0  1  0.50000000  0.50000000  0.00000000  1
  Cr  Cr0  1  0.00000000  0.00000000  0.00000000  1
  F  F0  1  0.79179722  0.50000000  0.29179722  1
  F  F1  1  0.20820278  0.50000000  0.70820278  1
  F  F2  1  0.26059961  0.26059961  0.00000000  1
  F  F3  1  0.73940039  0.73940039  -0.00000000  1
  F  F4  1  0.50000000  0.00000000  0.50000000  1
loop_
_geom_bond_atom_site_label_1
_geom_bond_atom_site_label_2
_geom_bond_distance
_geom_bond_site_symmetry_2
Al0 F2 1.785994 1_555
Al0 F3 1.785994 1_555
Al0 F4 1.800193 1_565
Al0 F4 1.800193 1_554
Al0 F1 1.807220 1_554
Al0 F0 1.807220 1_555
Cr0 F2 1.944146 1_555
Cr0 F3 1.944146 1_445
Cr0 F1 2.214377 1_544
Cr0 F0 2.214377 1_444
Cr0 F0 2.214377 1_455
Cr0 F1 2.214377 1_555
