# generated using pymatgen
data_Y4Ga16Co3
_symmetry_space_group_name_H-M   'P 1'
_cell_length_a   6.04257800
_cell_length_b   6.04257800
_cell_length_c   11.12390000
_cell_angle_alpha   90.00000000
_cell_angle_beta   90.00000000
_cell_angle_gamma   90.00000000
_symmetry_Int_Tables_number   1
_chemical_formula_structural   Y4Ga16Co3
_chemical_formula_sum   'Y4 Ga16 Co3'
_cell_volume   406.16416733
_cell_formula_units_Z   1
loop_
 _symmetry_equiv_pos_site_id
 _symmetry_equiv_pos_as_xyz
  1  'x, y, z'
loop_
 _atom_site_type_symbol
 _atom_site_label
 _atom_site_symmetry_multiplicity
 _atom_site_fract_x
 _atom_site_fract_y
 _atom_site_fract_z
 _atom_site_occupancy
  Y  Y0  1  0.50000000  0.00000000  0.80519100  1
  Y  Y1  1  0.00000000  0.50000000  0.80519100  1
  Y  Y2  1  0.50000000  0.00000000  0.19480900  1
  Y  Y3  1  0.00000000  0.50000000  0.19480900  1
  Ga  Ga0  1  0.25032700  0.25032700  0.61491900  1
  Ga  Ga1  1  0.74967300  0.74967300  0.61491900  1
  Ga  Ga2  1  0.74967300  0.25032700  0.61491900  1
  Ga  Ga3  1  0.25032700  0.74967300  0.61491900  1
  Ga  Ga4  1  0.74967300  0.74967300  0.38508100  1
  Ga  Ga5  1  0.25032700  0.25032700  0.38508100  1
  Ga  Ga6  1  0.25032700  0.74967300  0.38508100  1
  Ga  Ga7  1  0.74967300  0.25032700  0.38508100  1
  Ga  Ga8  1  0.28049200  0.28049200  0.00000000  1
  Ga  Ga9  1  0.71950800  0.71950800  0.00000000  1
  Ga  Ga10  1  0.71950800  0.28049200  0.00000000  1
  Ga  Ga11  1  0.28049200  0.71950800  0.00000000  1
  Ga  Ga12  1  0.50000000  0.50000000  0.80187700  1
  Ga  Ga13  1  0.50000000  0.50000000  0.19812300  1
  Ga  Ga14  1  0.00000000  0.00000000  0.78077400  1
  Ga  Ga15  1  0.00000000  0.00000000  0.21922600  1
  Co  Co0  1  0.50000000  0.00000000  0.50000000  1
  Co  Co1  1  0.00000000  0.50000000  0.50000000  1
  Co  Co2  1  0.00000000  0.00000000  0.00000000  1
loop_
_geom_bond_atom_site_label_1
_geom_bond_atom_site_label_2
_geom_bond_distance
_geom_bond_site_symmetry_2
Ga0 Ga5 2.556695 1_555
Ga0 Ga14 2.824871 1_555
Ga0 Ga12 2.979484 1_555
Ga0 Y0 3.007317 1_555
Ga0 Y1 3.007317 1_555
Ga0 Ga3 3.017337 1_555
Ga0 Ga2 3.017337 1_555
Ga0 Ga3 3.025241 1_545
Ga0 Ga2 3.025241 1_455
Ga1 Ga4 2.556695 1_555
Ga1 Ga14 2.824871 1_665
Ga1 Ga12 2.979484 1_555
Ga1 Y1 3.007317 1_655
Ga1 Y0 3.007317 1_565
Ga1 Ga3 3.017337 1_555
Ga1 Ga2 3.017337 1_555
Ga1 Ga3 3.025241 1_655
Ga1 Ga2 3.025241 1_565
Ga2 Ga7 2.556695 1_555
Ga2 Y1 3.007317 1_655
Ga2 Y0 3.007317 1_555
Ga3 Ga6 2.556695 1_555
Ga3 Y0 3.007317 1_565
Ga3 Y1 3.007317 1_555
Ga4 Y3 3.007317 1_655
Ga4 Y2 3.007317 1_565
Ga4 Ga7 3.017337 1_555
Ga4 Ga6 3.017337 1_555
Ga4 Ga7 3.025241 1_565
Ga4 Ga6 3.025241 1_655
Ga5 Y2 3.007317 1_555
Ga5 Y3 3.007317 1_555
Ga5 Ga7 3.017337 1_555
Ga5 Ga6 3.017337 1_555
Ga5 Ga7 3.025241 1_455
Ga5 Ga6 3.025241 1_545
Ga6 Y2 3.007317 1_565
Ga6 Y3 3.007317 1_555
Ga7 Y3 3.007317 1_655
Ga7 Y2 3.007317 1_555
Ga8 Y1 3.054183 1_554
Ga8 Y3 3.054183 1_555
Ga8 Y0 3.054183 1_554
Ga8 Y2 3.054183 1_555
Ga9 Y3 3.054183 1_655
Ga9 Y2 3.054183 1_565
Ga9 Y0 3.054183 1_564
Ga9 Y1 3.054183 1_654
Ga10 Ga9 2.652788 1_555
Ga10 Ga8 2.652788 1_555
Ga10 Ga13 2.894101 1_555
Ga10 Ga12 2.894101 1_554
Ga10 Y3 3.054183 1_655
Ga10 Y1 3.054183 1_654
Ga10 Y0 3.054183 1_554
Ga10 Y2 3.054183 1_555
Ga11 Ga9 2.652788 1_555
Ga11 Ga8 2.652788 1_555
Ga11 Ga13 2.894101 1_555
Ga11 Ga12 2.894101 1_554
Ga11 Y2 3.054183 1_565
Ga11 Y0 3.054183 1_564
Ga11 Y1 3.054183 1_554
Ga11 Y3 3.054183 1_555
Ga12 Ga8 2.894101 1_556
Ga12 Ga9 2.894101 1_556
Ga12 Ga3 2.979484 1_555
Ga12 Ga2 2.979484 1_555
Ga12 Y0 3.021514 1_565
Ga12 Y1 3.021514 1_555
Ga12 Y1 3.021514 1_655
Ga12 Y0 3.021514 1_555
Ga13 Ga8 2.894101 1_555
Ga13 Ga9 2.894101 1_555
Ga13 Ga5 2.979484 1_555
Ga13 Ga4 2.979484 1_555
Ga13 Ga6 2.979484 1_555
Ga13 Ga7 2.979484 1_555
Ga13 Y3 3.021514 1_555
Ga13 Y3 3.021514 1_655
Ga13 Y2 3.021514 1_565
Ga13 Y2 3.021514 1_555
Ga14 Ga2 2.824871 1_455
Ga14 Ga3 2.824871 1_545
Ga14 Y0 3.033473 1_455
Ga14 Y0 3.033473 1_555
Ga14 Y1 3.033473 1_545
Ga14 Y1 3.033473 1_555
Ga15 Ga4 2.824871 1_445
Ga15 Ga5 2.824871 1_555
Ga15 Ga7 2.824871 1_455
Ga15 Ga6 2.824871 1_545
Ga15 Y3 3.033473 1_545
Ga15 Y3 3.033473 1_555
Ga15 Y2 3.033473 1_455
Ga15 Y2 3.033473 1_555
Co0 Ga6 2.489633 1_545
Co0 Ga3 2.489633 1_545
Co0 Ga1 2.489633 1_545
Co0 Ga5 2.489633 1_555
Co0 Ga0 2.489633 1_555
Co0 Ga4 2.489633 1_545
Co0 Ga7 2.489633 1_555
Co0 Ga2 2.489633 1_555
Co1 Ga7 2.489633 1_455
Co1 Ga2 2.489633 1_455
Co1 Ga4 2.489633 1_455
Co1 Ga5 2.489633 1_555
Co1 Ga1 2.489633 1_455
Co1 Ga0 2.489633 1_555
Co1 Ga3 2.489633 1_555
Co1 Ga6 2.489633 1_555
Co2 Ga9 2.396943 1_445
Co2 Ga11 2.396943 1_545
Co2 Ga10 2.396943 1_455
Co2 Ga8 2.396943 1_555
Co2 Ga15 2.438648 1_555
Co2 Ga14 2.438648 1_554
