# generated using pymatgen
data_Li2CeAl
_symmetry_space_group_name_H-M   'P 1'
_cell_length_a   5.27690331
_cell_length_b   5.34583087
_cell_length_c   5.37701471
_cell_angle_alpha   59.36798383
_cell_angle_beta   59.96398307
_cell_angle_gamma   59.62443856
_symmetry_Int_Tables_number   1
_chemical_formula_structural   Li2CeAl
_chemical_formula_sum   'Li2 Ce1 Al1'
_cell_volume   106.40213407
_cell_formula_units_Z   1
loop_
 _symmetry_equiv_pos_site_id
 _symmetry_equiv_pos_as_xyz
  1  'x, y, z'
loop_
 _atom_site_type_symbol
 _atom_site_label
 _atom_site_symmetry_multiplicity
 _atom_site_fract_x
 _atom_site_fract_y
 _atom_site_fract_z
 _atom_site_occupancy
  Li  Li0  1  0.99991800  0.00012800  0.00020500  1
  Li  Li1  1  0.50008100  0.49987200  0.49979500  1
  Ce  Ce0  1  0.75000000  0.75000000  0.74999900  1
  Al  Al0  1  0.24999900  0.24999900  0.25000000  1
loop_
_geom_bond_atom_site_label_1
_geom_bond_atom_site_label_2
_geom_bond_distance
_geom_bond_site_symmetry_2
Ce0 Li1 3.227125 1_655
Ce0 Li0 3.227130 1_466
Ce0 Li0 3.248477 1_556
Ce0 Li1 3.248477 1_565
Ce0 Li1 3.275654 1_555
Ce0 Li0 3.275659 1_566
Ce0 Li0 3.278494 1_565
Ce0 Li1 3.278503 1_556
Al0 Li1 3.226391 1_455
Al0 Li0 3.226396 1_555
Al0 Li1 3.249608 1_545
Al0 Li0 3.249617 1_465
Al0 Li0 3.273419 1_455
Al0 Li1 3.273432 1_555
Al0 Li1 3.280323 1_554
Al0 Li0 3.280323 1_456
Al0 Ce0 3.738972 1_545
Al0 Ce0 3.738972 1_454
Al0 Ce0 3.747261 1_445
Al0 Ce0 3.747276 1_554
Al0 Ce0 3.797828 1_544
Al0 Ce0 3.797828 1_455
