# generated using pymatgen
data_K2BaMgCo(NO2)6
_symmetry_space_group_name_H-M   'P 1'
_cell_length_a   7.90938158
_cell_length_b   7.54569230
_cell_length_c   7.88251540
_cell_angle_alpha   117.47976477
_cell_angle_beta   119.03183844
_cell_angle_gamma   91.96459435
_symmetry_Int_Tables_number   1
_chemical_formula_structural   K2BaMgCo(NO2)6
_chemical_formula_sum   'K2 Ba1 Mg1 Co1 N6 O12'
_cell_volume   344.11075929
_cell_formula_units_Z   1
loop_
 _symmetry_equiv_pos_site_id
 _symmetry_equiv_pos_as_xyz
  1  'x, y, z'
loop_
 _atom_site_type_symbol
 _atom_site_label
 _atom_site_symmetry_multiplicity
 _atom_site_fract_x
 _atom_site_fract_y
 _atom_site_fract_z
 _atom_site_occupancy
  K  K0  1  0.21774200  0.70821100  0.38108000  1
  K  K1  1  0.83666200  0.32713100  0.61892000  1
  Ba  Ba0  1  0.50843000  0.47620800  0.00000000  1
  Mg  Mg0  1  0.43554500  0.92267300  0.00000000  1
  Co  Co0  1  0.99507100  0.99332500  0.00000000  1
  N  N0  1  0.16401600  0.80329300  0.00000000  1
  N  N1  1  0.81517100  0.17627300  0.00000100  1
  N  N2  1  0.19445300  0.20001800  0.40335200  1
  N  N3  1  0.79110200  0.79666600  0.59664800  1
  N  N4  1  0.17498800  0.18076700  0.99999900  1
  N  N5  1  0.81781000  0.80513300  0.00000000  1
  O  O0  1  0.65799000  0.13794700  0.81313600  1
  O  O1  1  0.84485500  0.32481100  0.18686500  1
  O  O2  1  0.16456000  0.69186000  0.80890800  1
  O  O3  1  0.35565200  0.88295200  0.19109200  1
  O  O4  1  0.34389700  0.15371900  0.00000100  1
  O  O5  1  0.66402600  0.61209300  0.48089300  1
  O  O6  1  0.84354100  0.63820600  0.00000000  1
  O  O7  1  0.65323800  0.83884500  0.00000000  1
  O  O8  1  0.79766400  0.86399700  0.47902300  1
  O  O9  1  0.31863900  0.38497300  0.52097700  1
  O  O10  1  0.18313300  0.13120000  0.51910700  1
  O  O11  1  0.14592100  0.34702600  0.00000000  1
loop_
_geom_bond_atom_site_label_1
_geom_bond_atom_site_label_2
_geom_bond_distance
_geom_bond_site_symmetry_2
K0 O11 2.730577 1_555
K0 O6 2.803824 1_455
K0 O3 2.912100 1_555
K0 O10 2.930888 1_565
K0 O9 3.092472 1_555
K0 O1 3.218224 1_455
K1 O11 2.730577 1_656
K1 O6 2.803824 1_556
K1 O2 2.912100 1_655
K1 O5 2.930888 1_555
K1 O8 3.092467 1_545
K1 O0 3.218225 1_555
Ba0 O4 2.719904 1_555
Ba0 O6 2.880511 1_555
Ba0 O0 2.917583 1_554
Ba0 O1 2.917590 1_555
Ba0 O7 2.929935 1_555
Ba0 O5 2.955264 1_555
Ba0 O10 2.955264 1_554
Ba0 O11 2.996582 1_555
Ba0 O9 3.002258 1_554
Ba0 O8 3.002263 1_555
Ba0 O2 3.302015 1_554
Ba0 O3 3.302015 1_555
Mg0 O7 1.854571 1_555
Mg0 O4 1.910901 1_565
Mg0 O3 2.021269 1_555
Mg0 O2 2.021270 1_554
Co0 N5 1.961040 1_555
Co0 N4 1.971678 1_664
Co0 N0 1.993257 1_655
Co0 N1 2.016188 1_565
Co0 N3 2.327388 1_554
Co0 N2 2.327388 1_665
N0 O2 1.346703 1_554
N0 O3 1.346703 1_555
N1 O1 1.266367 1_555
N1 O0 1.266375 1_554
N2 O9 1.264946 1_555
N2 O10 1.274200 1_555
N3 O8 1.264955 1_555
N3 O5 1.274204 1_555
N4 O11 1.283157 1_556
N4 O4 1.358358 1_556
N5 O6 1.282785 1_555
N5 O7 1.334818 1_555
