# generated using pymatgen
data_Zr6MnCl14
_symmetry_space_group_name_H-M   'P 1'
_cell_length_a   9.74069289
_cell_length_b   9.74069080
_cell_length_c   11.89498576
_cell_angle_alpha   90.00000000
_cell_angle_beta   90.00000000
_cell_angle_gamma   97.66209831
_symmetry_Int_Tables_number   1
_chemical_formula_structural   Zr6MnCl14
_chemical_formula_sum   'Zr12 Mn2 Cl28'
_cell_volume   1118.53241213
_cell_formula_units_Z   2
loop_
 _symmetry_equiv_pos_site_id
 _symmetry_equiv_pos_as_xyz
  1  'x, y, z'
loop_
 _atom_site_type_symbol
 _atom_site_label
 _atom_site_symmetry_multiplicity
 _atom_site_fract_x
 _atom_site_fract_y
 _atom_site_fract_z
 _atom_site_occupancy
  Zr  Zr0  1  0.95318191  0.19642959  0.12102287  1
  Zr  Zr1  1  0.04681809  0.80357041  0.87897713  1
  Zr  Zr2  1  0.54681809  0.30357041  0.62102287  1
  Zr  Zr3  1  0.69642959  0.45318191  0.37897713  1
  Zr  Zr4  1  0.45318191  0.69642959  0.37897713  1
  Zr  Zr5  1  0.30357041  0.54681809  0.62102287  1
  Zr  Zr6  1  0.80357041  0.04681809  0.87897713  1
  Zr  Zr7  1  0.19642959  0.95318191  0.12102287  1
  Zr  Zr8  1  0.34959060  0.34959060  0.39153041  1
  Zr  Zr9  1  0.65040940  0.65040940  0.60846959  1
  Zr  Zr10  1  0.15040940  0.15040940  0.89153041  1
  Zr  Zr11  1  0.84959060  0.84959060  0.10846959  1
  Mn  Mn0  1  -0.00000000  0.00000000  -0.00000000  1
  Mn  Mn1  1  0.50000000  0.50000000  0.50000000  1
  Cl  Cl0  1  0.29165811  0.53655539  0.25420038  1
  Cl  Cl1  1  0.70834189  0.46344461  0.74579962  1
  Cl  Cl2  1  0.20834189  0.96344461  0.75420038  1
  Cl  Cl3  1  0.03655539  0.79165811  0.24579962  1
  Cl  Cl4  1  0.79165811  0.03655539  0.24579962  1
  Cl  Cl5  1  0.96344461  0.20834189  0.75420038  1
  Cl  Cl6  1  0.46344461  0.70834189  0.74579962  1
  Cl  Cl7  1  0.53655539  0.29165811  0.25420038  1
  Cl  Cl8  1  0.12130942  0.36573837  0.00865529  1
  Cl  Cl9  1  0.87869058  0.63426163  0.99134471  1
  Cl  Cl10  1  0.37869058  0.13426163  0.50865529  1
  Cl  Cl11  1  0.86573837  0.62130942  0.49134471  1
  Cl  Cl12  1  0.62130942  0.86573837  0.49134471  1
  Cl  Cl13  1  0.13426163  0.37869058  0.50865529  1
  Cl  Cl14  1  0.63426163  0.87869058  0.99134471  1
  Cl  Cl15  1  0.36573837  0.12130942  0.00865529  1
  Cl  Cl16  1  0.90650753  0.40650753  0.25000000  1
  Cl  Cl17  1  0.09349247  0.59349247  0.75000000  1
  Cl  Cl18  1  0.59349247  0.09349247  0.75000000  1
  Cl  Cl19  1  0.40650753  0.90650753  0.25000000  1
  Cl  Cl20  1  0.75119807  0.24880193  -0.00000000  1
  Cl  Cl21  1  0.24880193  0.75119807  -0.00000000  1
  Cl  Cl22  1  0.74880193  0.25119807  0.50000000  1
  Cl  Cl23  1  0.25119807  0.74880193  0.50000000  1
  Cl  Cl24  1  0.15986737  0.15986737  0.25914606  1
  Cl  Cl25  1  0.84013263  0.84013263  0.74085394  1
  Cl  Cl26  1  0.34013263  0.34013263  0.75914606  1
  Cl  Cl27  1  0.65986737  0.65986737  0.24085394  1
loop_
_geom_bond_atom_site_label_1
_geom_bond_atom_site_label_2
_geom_bond_distance
_geom_bond_site_symmetry_2
Mn0 Zr10 2.320631 1_554
Mn0 Zr11 2.320631 1_445
Mn0 Zr1 2.484743 1_544
Mn0 Zr0 2.484743 1_455
Mn0 Zr6 2.484743 1_454
Mn0 Zr7 2.484743 1_545
Mn1 Zr9 2.320631 1_555
Mn1 Zr8 2.320631 1_555
Mn1 Zr2 2.484743 1_555
Mn1 Zr4 2.484743 1_555
Mn1 Zr5 2.484743 1_555
Mn1 Zr3 2.484743 1_555
Cl0 Zr4 2.539708 1_555
Cl0 Zr8 2.564679 1_555
Cl1 Zr2 2.539708 1_555
Cl1 Zr9 2.564679 1_555
Cl2 Zr1 2.539708 1_555
Cl2 Zr10 2.564679 1_565
Cl3 Zr7 2.539708 1_555
Cl3 Zr11 2.564679 1_455
Cl4 Zr0 2.539708 1_555
Cl4 Zr11 2.564679 1_545
Cl5 Zr6 2.539708 1_555
Cl5 Zr10 2.564679 1_655
Cl6 Zr5 2.539708 1_555
Cl6 Zr9 2.564679 1_555
Cl7 Zr3 2.539708 1_555
Cl7 Zr8 2.564679 1_555
Cl8 Zr0 2.543250 1_455
Cl8 Zr10 2.564994 1_554
Cl9 Zr1 2.543250 1_655
Cl9 Zr11 2.564994 1_556
Cl10 Zr2 2.543250 1_555
Cl10 Zr8 2.564994 1_555
Cl11 Zr3 2.543250 1_555
Cl11 Zr9 2.564995 1_555
Cl12 Zr4 2.543250 1_555
Cl12 Zr9 2.564994 1_555
Cl13 Zr5 2.543250 1_555
Cl13 Zr8 2.564995 1_555
Cl14 Zr6 2.543250 1_565
Cl14 Zr11 2.564995 1_556
Cl15 Zr7 2.543250 1_545
Cl15 Zr10 2.564995 1_554
Cl16 Zr0 2.644968 1_555
Cl16 Zr3 2.644968 1_555
Cl17 Zr1 2.644968 1_555
Cl17 Zr5 2.644968 1_555
Cl18 Zr2 2.644968 1_555
Cl18 Zr6 2.644968 1_555
Cl19 Zr4 2.644968 1_555
Cl19 Zr7 2.644968 1_555
Cl20 Zr6 2.543845 1_554
Cl20 Zr0 2.543845 1_555
Cl21 Zr7 2.543845 1_555
Cl21 Zr1 2.543845 1_554
Cl22 Zr3 2.543845 1_555
Cl22 Zr2 2.543845 1_555
Cl23 Zr5 2.543845 1_555
Cl23 Zr4 2.543845 1_555
Cl24 Zr7 2.659061 1_545
Cl24 Zr0 2.659062 1_455
Cl24 Zr8 2.898184 1_555
Cl25 Zr6 2.659061 1_565
Cl25 Zr1 2.659062 1_655
Cl25 Zr9 2.898184 1_555
Cl26 Zr5 2.659061 1_555
Cl26 Zr2 2.659062 1_555
Cl26 Zr10 2.898184 1_555
Cl27 Zr3 2.659061 1_555
Cl27 Zr4 2.659062 1_555
Cl27 Zr11 2.898184 1_555
