# generated using pymatgen
data_Mg6CrCd
_symmetry_space_group_name_H-M   'P 1'
_cell_length_a   5.00728500
_cell_length_b   6.27104400
_cell_length_c   10.89341100
_cell_angle_alpha   90.00000000
_cell_angle_beta   90.00000000
_cell_angle_gamma   90.00000000
_symmetry_Int_Tables_number   1
_chemical_formula_structural   Mg6CrCd
_chemical_formula_sum   'Mg12 Cr2 Cd2'
_cell_volume   342.06295910
_cell_formula_units_Z   2
loop_
 _symmetry_equiv_pos_site_id
 _symmetry_equiv_pos_as_xyz
  1  'x, y, z'
loop_
 _atom_site_type_symbol
 _atom_site_label
 _atom_site_symmetry_multiplicity
 _atom_site_fract_x
 _atom_site_fract_y
 _atom_site_fract_z
 _atom_site_occupancy
  Mg  Mg0  1  0.50000000  0.24831500  0.41665200  1
  Mg  Mg1  1  0.50000000  0.75168500  0.41665200  1
  Mg  Mg2  1  0.00000000  0.75593300  0.08539100  1
  Mg  Mg3  1  0.00000000  0.24406700  0.08539100  1
  Mg  Mg4  1  0.00000000  0.00000000  0.32921000  1
  Mg  Mg5  1  0.00000000  0.50000000  0.33327400  1
  Mg  Mg6  1  0.50000000  0.74831500  0.91665200  1
  Mg  Mg7  1  0.50000000  0.25168500  0.91665200  1
  Mg  Mg8  1  0.00000000  0.25593300  0.58539100  1
  Mg  Mg9  1  0.00000000  0.74406700  0.58539100  1
  Mg  Mg10  1  0.00000000  0.50000000  0.82921000  1
  Mg  Mg11  1  0.00000000  0.00000000  0.83327400  1
  Cr  Cr0  1  0.50000000  0.00000000  0.16747800  1
  Cr  Cr1  1  0.50000000  0.50000000  0.66747800  1
  Cd  Cd0  1  0.50000000  0.50000000  0.16594800  1
  Cd  Cd1  1  0.50000000  0.00000000  0.66594800  1
loop_
_geom_bond_atom_site_label_1
_geom_bond_atom_site_label_2
_geom_bond_distance
_geom_bond_site_symmetry_2
Mg0 Mg5 3.095852 1_555
Mg0 Mg5 3.095852 1_655
Mg0 Mg4 3.098454 1_555
Mg0 Mg4 3.098454 1_655
Mg0 Mg8 3.106329 1_555
Mg0 Mg8 3.106329 1_655
Mg0 Mg1 3.114389 1_545
Mg0 Mg1 3.156655 1_555
Mg1 Mg5 3.095852 1_655
Mg1 Mg5 3.095852 1_555
Mg1 Mg4 3.098454 1_665
Mg1 Mg4 3.098454 1_565
Mg1 Mg9 3.106329 1_655
Mg1 Mg9 3.106329 1_555
Mg2 Mg3 3.061110 1_565
Mg2 Mg4 3.065460 1_565
Mg2 Mg6 3.106329 1_554
Mg2 Mg6 3.106329 1_454
Mg2 Mg5 3.141257 1_555
Mg2 Mg3 3.209934 1_555
Mg3 Mg4 3.065460 1_555
Mg3 Mg7 3.106329 1_554
Mg3 Mg7 3.106329 1_454
Mg3 Mg5 3.141257 1_555
Mg4 Mg5 3.135835 1_545
Mg4 Mg5 3.135835 1_555
Mg4 Mg9 3.219292 1_545
Mg4 Mg8 3.219292 1_555
Mg5 Mg8 3.144104 1_555
Mg5 Mg9 3.144104 1_555
Mg6 Mg7 3.114389 1_555
Mg6 Mg7 3.156655 1_565
Mg8 Mg9 3.061110 1_555
Mg8 Mg9 3.209934 1_545
Mg10 Mg8 3.065460 1_555
Mg10 Mg9 3.065460 1_555
Mg10 Mg6 3.098454 1_555
Mg10 Mg7 3.098454 1_455
Mg10 Mg7 3.098454 1_555
Mg10 Mg6 3.098454 1_455
Mg10 Mg11 3.135835 1_555
Mg10 Mg11 3.135835 1_565
Mg10 Mg3 3.219292 1_556
Mg10 Mg2 3.219292 1_556
Mg11 Mg7 3.095852 1_555
Mg11 Mg6 3.095852 1_445
Mg11 Mg7 3.095852 1_455
Mg11 Mg6 3.095852 1_545
Mg11 Mg9 3.141257 1_545
Mg11 Mg8 3.141257 1_555
Mg11 Mg3 3.144104 1_556
Mg11 Mg2 3.144104 1_546
Cr0 Mg4 3.061407 1_655
Cr0 Mg4 3.061407 1_555
Cr0 Mg3 3.067643 1_555
Cr0 Mg3 3.067643 1_655
Cr0 Mg2 3.067643 1_645
Cr0 Mg2 3.067643 1_545
Cr0 Mg0 3.129309 1_555
Cr0 Mg1 3.129309 1_545
Cr0 Mg7 3.155449 1_554
Cr0 Mg6 3.155449 1_544
Cr1 Mg10 3.061407 1_655
Cr1 Mg10 3.061407 1_555
Cr1 Mg9 3.067643 1_555
Cr1 Mg8 3.067643 1_655
Cr1 Mg9 3.067643 1_655
Cr1 Mg8 3.067643 1_555
Cr1 Mg6 3.129309 1_555
Cr1 Mg7 3.129309 1_555
Cr1 Mg0 3.155449 1_555
Cr1 Mg1 3.155449 1_555
Cd0 Mg5 3.096877 1_655
Cd0 Mg5 3.096877 1_555
Cd0 Mg3 3.100681 1_555
Cd0 Mg2 3.100681 1_655
Cd0 Mg3 3.100681 1_655
Cd0 Mg2 3.100681 1_555
Cd0 Mg6 3.130462 1_554
Cd0 Mg7 3.130462 1_554
Cd0 Cr0 3.135566 1_555
Cd0 Cr0 3.135566 1_565
Cd0 Mg0 3.154298 1_555
Cd0 Mg1 3.154298 1_555
Cd1 Mg11 3.096877 1_655
Cd1 Mg11 3.096877 1_555
Cd1 Mg9 3.100681 1_545
Cd1 Mg9 3.100681 1_645
Cd1 Mg8 3.100681 1_655
Cd1 Mg8 3.100681 1_555
Cd1 Mg0 3.130462 1_555
Cd1 Mg1 3.130462 1_545
Cd1 Cr1 3.135566 1_545
Cd1 Cr1 3.135566 1_555
Cd1 Mg7 3.154298 1_555
Cd1 Mg6 3.154298 1_545
