# generated using pymatgen
data_Ba2SrFeO6
_symmetry_space_group_name_H-M   'P 1'
_cell_length_a   8.56297275
_cell_length_b   8.56297275
_cell_length_c   8.56297275
_cell_angle_alpha   90.00000000
_cell_angle_beta   90.00000000
_cell_angle_gamma   90.00000000
_symmetry_Int_Tables_number   1
_chemical_formula_structural   Ba2SrFeO6
_chemical_formula_sum   'Ba8 Sr4 Fe4 O24'
_cell_volume   627.87571525
_cell_formula_units_Z   4
loop_
 _symmetry_equiv_pos_site_id
 _symmetry_equiv_pos_as_xyz
  1  'x, y, z'
loop_
 _atom_site_type_symbol
 _atom_site_label
 _atom_site_symmetry_multiplicity
 _atom_site_fract_x
 _atom_site_fract_y
 _atom_site_fract_z
 _atom_site_occupancy
  Ba  Ba0  1  0.50000000  0.50000000  0.50000000  1
  Ba  Ba1  1  0.00000000  -0.00000000  -0.00000000  1
  Ba  Ba2  1  0.00000000  0.00000000  0.50000000  1
  Ba  Ba3  1  0.00000000  0.50000000  -0.00000000  1
  Ba  Ba4  1  0.50000000  0.00000000  -0.00000000  1
  Ba  Ba5  1  0.50000000  0.50000000  -0.00000000  1
  Ba  Ba6  1  0.50000000  0.00000000  0.50000000  1
  Ba  Ba7  1  0.00000000  0.50000000  0.50000000  1
  Sr  Sr0  1  0.25000000  0.25000000  0.25000000  1
  Sr  Sr1  1  0.25000000  0.75000000  0.75000000  1
  Sr  Sr2  1  0.75000000  0.25000000  0.75000000  1
  Sr  Sr3  1  0.75000000  0.75000000  0.25000000  1
  Fe  Fe0  1  0.75000000  0.75000000  0.75000000  1
  Fe  Fe1  1  0.75000000  0.25000000  0.25000000  1
  Fe  Fe2  1  0.25000000  0.75000000  0.25000000  1
  Fe  Fe3  1  0.25000000  0.25000000  0.75000000  1
  O  O0  1  0.23404181  0.26687698  0.53021249  1
  O  O1  1  0.23404181  0.73312302  0.46978751  1
  O  O2  1  0.76595819  0.26687698  0.46978751  1
  O  O3  1  0.76595819  0.73312302  0.53021249  1
  O  O4  1  0.26687698  0.53021249  0.23404181  1
  O  O5  1  0.73312302  0.46978751  0.23404181  1
  O  O6  1  0.26687698  0.46978751  0.76595819  1
  O  O7  1  0.73312302  0.53021249  0.76595819  1
  O  O8  1  0.53021249  0.23404181  0.26687698  1
  O  O9  1  0.46978751  0.23404181  0.73312302  1
  O  O10  1  0.46978751  0.76595819  0.26687698  1
  O  O11  1  0.53021249  0.76595819  0.73312302  1
  O  O12  1  0.26595819  0.23312302  0.96978751  1
  O  O13  1  0.26595819  0.76687698  0.03021249  1
  O  O14  1  0.73404181  0.23312302  0.03021249  1
  O  O15  1  0.73404181  0.76687698  0.96978751  1
  O  O16  1  0.23312302  0.96978751  0.26595819  1
  O  O17  1  0.76687698  0.03021249  0.26595819  1
  O  O18  1  0.23312302  0.03021249  0.73404181  1
  O  O19  1  0.76687698  0.96978751  0.73404181  1
  O  O20  1  0.96978751  0.26595819  0.23312302  1
  O  O21  1  0.03021249  0.26595819  0.76687698  1
  O  O22  1  0.03021249  0.73404181  0.23312302  1
  O  O23  1  0.96978751  0.73404181  0.76687698  1
loop_
_geom_bond_atom_site_label_1
_geom_bond_atom_site_label_2
_geom_bond_distance
_geom_bond_site_symmetry_2
Ba0 O5 3.039468 1_555
Ba0 O7 3.039468 1_555
Ba0 O9 3.039468 1_555
Ba0 O3 3.039468 1_555
Ba0 O11 3.039468 1_555
Ba0 O1 3.039468 1_555
Ba0 O4 3.039468 1_555
Ba0 O6 3.039468 1_555
Ba0 O8 3.039468 1_555
Ba0 O0 3.039468 1_555
Ba0 O10 3.039468 1_555
Ba0 O2 3.039468 1_555
Ba1 O12 3.039468 1_554
Ba1 O13 3.039468 1_545
Ba1 O15 3.039468 1_444
Ba1 O19 3.039468 1_444
Ba1 O17 3.039468 1_455
Ba1 O14 3.039468 1_455
Ba1 O21 3.039468 1_554
Ba1 O23 3.039468 1_444
Ba1 O16 3.039468 1_545
Ba1 O22 3.039468 1_545
Ba1 O18 3.039468 1_554
Ba1 O20 3.039468 1_455
Ba2 O18 2.840465 1_555
Ba2 O19 2.840465 1_445
Ba2 O17 2.840465 1_455
Ba2 O16 2.840465 1_545
Ba2 O0 3.050530 1_555
Ba2 O2 3.050530 1_455
Ba2 O3 3.050530 1_445
Ba2 O1 3.050530 1_545
Ba2 O23 3.236644 1_445
Ba2 O21 3.236644 1_555
Ba2 O20 3.236644 1_455
Ba2 O22 3.236644 1_545
Ba3 O21 2.840465 1_554
Ba3 O23 2.840465 1_454
Ba3 O22 2.840465 1_555
Ba3 O20 2.840465 1_455
Ba3 O6 3.050530 1_554
Ba3 O4 3.050530 1_555
Ba3 O5 3.050530 1_455
Ba3 O7 3.050530 1_454
Ba3 O15 3.236644 1_454
Ba3 O12 3.236644 1_554
Ba3 O14 3.236644 1_455
Ba3 O13 3.236644 1_555
Ba4 O14 2.840465 1_555
Ba4 O12 2.840465 1_554
Ba4 O13 2.840465 1_545
Ba4 O15 2.840465 1_544
Ba4 O10 3.050530 1_545
Ba4 O8 3.050530 1_555
Ba4 O9 3.050530 1_554
Ba4 O11 3.050530 1_544
Ba4 O18 3.236644 1_554
Ba4 O16 3.236644 1_545
Ba4 O17 3.236644 1_555
Ba4 O19 3.236644 1_544
Ba5 O5 2.840465 1_555
Ba5 O6 2.840465 1_554
Ba5 O7 2.840465 1_554
Ba5 O4 2.840465 1_555
Ba5 O12 3.050530 1_554
Ba5 O14 3.050530 1_555
Ba5 O15 3.050530 1_554
Ba5 O13 3.050530 1_555
Ba5 O10 3.236644 1_555
Ba5 O8 3.236644 1_555
Ba5 O9 3.236644 1_554
Ba5 O11 3.236644 1_554
Ba6 O8 2.840465 1_555
Ba6 O10 2.840465 1_545
Ba6 O9 2.840465 1_555
Ba6 O11 2.840465 1_545
Ba6 O16 3.050530 1_545
Ba6 O18 3.050530 1_555
Ba6 O19 3.050530 1_545
Ba6 O17 3.050530 1_555
Ba6 O2 3.236644 1_555
Ba6 O0 3.236644 1_555
Ba6 O3 3.236644 1_545
Ba6 O1 3.236644 1_545
Ba7 O3 2.840465 1_455
Ba7 O0 2.840465 1_555
Ba7 O2 2.840465 1_455
Ba7 O1 2.840465 1_555
Ba7 O21 3.050530 1_555
Ba7 O22 3.050530 1_555
Ba7 O23 3.050530 1_455
Ba7 O20 3.050530 1_455
Ba7 O4 3.236644 1_555
Ba7 O6 3.236644 1_555
Ba7 O5 3.236644 1_455
Ba7 O7 3.236644 1_455
Fe0 O3 1.892515 1_555
Fe0 O23 1.892515 1_555
Fe0 O11 1.892515 1_555
Fe0 O15 1.892515 1_555
Fe0 O7 1.892515 1_555
Fe0 O19 1.892515 1_555
Fe1 O8 1.892515 1_555
Fe1 O20 1.892515 1_555
Fe1 O14 1.892515 1_555
Fe1 O17 1.892515 1_555
Fe1 O2 1.892515 1_555
Fe1 O5 1.892515 1_555
Fe2 O4 1.892515 1_555
Fe2 O16 1.892515 1_555
Fe2 O22 1.892515 1_555
Fe2 O13 1.892515 1_555
Fe2 O10 1.892515 1_555
Fe2 O1 1.892515 1_555
Fe3 O0 1.892515 1_555
Fe3 O12 1.892515 1_555
Fe3 O21 1.892515 1_555
Fe3 O18 1.892515 1_555
Fe3 O6 1.892515 1_555
Fe3 O9 1.892515 1_555
O0 Sr0 2.407681 1_555
O1 Sr1 2.407681 1_555
O2 Sr2 2.407681 1_555
O3 Sr3 2.407681 1_555
O4 Sr0 2.407681 1_555
O5 Sr3 2.407681 1_555
O6 Sr1 2.407681 1_555
O7 Sr2 2.407681 1_555
O8 Sr0 2.407681 1_555
O9 Sr2 2.407681 1_555
O10 Sr3 2.407681 1_555
O11 Sr1 2.407681 1_555
O12 Sr0 2.407681 1_556
O13 Sr1 2.407681 1_554
O14 Sr2 2.407681 1_554
O15 Sr3 2.407681 1_556
O16 Sr0 2.407681 1_565
O17 Sr3 2.407681 1_545
O18 Sr1 2.407681 1_545
O19 Sr2 2.407681 1_565
O20 Sr0 2.407681 1_655
O21 Sr2 2.407681 1_455
O22 Sr3 2.407681 1_455
O23 Sr1 2.407681 1_655
