# generated using pymatgen
data_TbZnRh
_symmetry_space_group_name_H-M   'P 1'
_cell_length_a   4.01146095
_cell_length_b   6.91849527
_cell_length_c   8.08413506
_cell_angle_alpha   90.00000000
_cell_angle_beta   90.00000000
_cell_angle_gamma   90.00000000
_symmetry_Int_Tables_number   1
_chemical_formula_structural   TbZnRh
_chemical_formula_sum   'Tb4 Zn4 Rh4'
_cell_volume   224.36121221
_cell_formula_units_Z   4
loop_
 _symmetry_equiv_pos_site_id
 _symmetry_equiv_pos_as_xyz
  1  'x, y, z'
loop_
 _atom_site_type_symbol
 _atom_site_label
 _atom_site_symmetry_multiplicity
 _atom_site_fract_x
 _atom_site_fract_y
 _atom_site_fract_z
 _atom_site_occupancy
  Tb  Tb0  1  0.25000000  0.53858625  0.81556439  1
  Tb  Tb1  1  0.75000000  0.46141375  0.18443561  1
  Tb  Tb2  1  0.25000000  0.03858625  0.68443561  1
  Tb  Tb3  1  0.75000000  0.96141375  0.31556439  1
  Zn  Zn0  1  0.25000000  0.13612086  0.06271934  1
  Zn  Zn1  1  0.75000000  0.86387914  0.93728066  1
  Zn  Zn2  1  0.25000000  0.63612086  0.43728066  1
  Zn  Zn3  1  0.75000000  0.36387914  0.56271934  1
  Rh  Rh0  1  0.75000000  0.74371635  0.62364123  1
  Rh  Rh1  1  0.25000000  0.25628365  0.37635877  1
  Rh  Rh2  1  0.75000000  0.24371635  0.87635877  1
  Rh  Rh3  1  0.25000000  0.75628365  0.12364123  1
loop_
_geom_bond_atom_site_label_1
_geom_bond_atom_site_label_2
_geom_bond_distance
_geom_bond_site_symmetry_2
Tb0 Zn3 3.108377 1_455
Tb0 Zn3 3.108377 1_555
Tb0 Zn2 3.131661 1_555
Tb0 Zn1 3.171131 1_555
Tb0 Zn1 3.171131 1_455
Tb0 Zn0 3.427146 1_556
Tb1 Zn2 3.108377 1_555
Tb1 Zn2 3.108377 1_655
Tb1 Zn3 3.131661 1_555
Tb1 Zn0 3.171131 1_655
Tb1 Zn0 3.171131 1_555
Tb1 Zn1 3.427146 1_554
Tb2 Zn1 3.108377 1_445
Tb2 Zn1 3.108377 1_545
Tb2 Zn0 3.131661 1_556
Tb2 Zn3 3.171131 1_455
Tb2 Zn3 3.171131 1_555
Tb2 Zn2 3.427146 1_545
Tb3 Zn0 3.108377 1_565
Tb3 Zn0 3.108377 1_665
Tb3 Zn1 3.131661 1_554
Tb3 Zn2 3.171131 1_555
Tb3 Zn2 3.171131 1_655
Tb3 Zn3 3.427146 1_565
Zn0 Zn1 2.932382 1_444
Zn0 Zn1 2.932382 1_544
Zn2 Zn3 2.932382 1_555
Zn2 Zn3 2.932382 1_455
Rh0 Zn2 2.616643 1_555
Rh0 Zn2 2.616643 1_655
Rh0 Zn1 2.668317 1_555
Rh0 Zn3 2.673654 1_555
Rh0 Tb2 2.902813 1_565
Rh0 Tb2 2.902813 1_665
Rh0 Tb0 2.905910 1_655
Rh0 Tb0 2.905910 1_555
Rh0 Tb3 2.910535 1_555
Rh1 Zn3 2.616643 1_555
Rh1 Zn3 2.616643 1_455
Rh1 Zn0 2.668317 1_555
Rh1 Zn2 2.673654 1_555
Rh1 Tb3 2.902813 1_445
Rh1 Tb3 2.902813 1_545
Rh1 Tb1 2.905910 1_455
Rh1 Tb1 2.905910 1_555
Rh1 Tb2 2.910535 1_555
Rh2 Zn0 2.616643 1_556
Rh2 Zn0 2.616643 1_656
Rh2 Zn3 2.668317 1_555
Rh2 Zn1 2.673654 1_545
Rh2 Tb0 2.902813 1_555
Rh2 Tb0 2.902813 1_655
Rh2 Tb2 2.905910 1_555
Rh2 Tb2 2.905910 1_655
Rh2 Tb1 2.910535 1_556
Rh3 Zn1 2.616643 1_554
Rh3 Zn1 2.616643 1_454
Rh3 Zn2 2.668317 1_555
Rh3 Zn0 2.673654 1_565
Rh3 Tb1 2.902813 1_455
Rh3 Tb1 2.902813 1_555
Rh3 Tb3 2.905910 1_455
Rh3 Tb3 2.905910 1_555
Rh3 Tb0 2.910535 1_554
