# generated using pymatgen
data_MnMoH2SeO7
_symmetry_space_group_name_H-M   'P 1'
_cell_length_a   5.11319524
_cell_length_b   6.88806129
_cell_length_c   9.15551248
_cell_angle_alpha   92.18843779
_cell_angle_beta   96.47426192
_cell_angle_gamma   109.75824776
_symmetry_Int_Tables_number   1
_chemical_formula_structural   MnMoH2SeO7
_chemical_formula_sum   'Mn2 Mo2 H4 Se2 O14'
_cell_volume   300.53237931
_cell_formula_units_Z   2
loop_
 _symmetry_equiv_pos_site_id
 _symmetry_equiv_pos_as_xyz
  1  'x, y, z'
loop_
 _atom_site_type_symbol
 _atom_site_label
 _atom_site_symmetry_multiplicity
 _atom_site_fract_x
 _atom_site_fract_y
 _atom_site_fract_z
 _atom_site_occupancy
  Mn  Mn0  1  0.00000000  0.00000000  0.00000000  1
  Mn  Mn1  1  0.50000000  0.50000000  0.50000000  1
  Mo  Mo0  1  0.20548400  0.90747800  0.60085600  1
  Mo  Mo1  1  0.79451600  0.09252200  0.39914400  1
  H  H0  1  0.59224200  0.62928700  0.86579000  1
  H  H1  1  0.40775800  0.37071300  0.13421000  1
  H  H2  1  0.45134800  0.73817600  0.98238700  1
  H  H3  1  0.54865200  0.26182400  0.01761300  1
  Se  Se0  1  0.15182200  0.69021700  0.24545600  1
  Se  Se1  1  0.84817800  0.30978300  0.75454400  1
  O  O0  1  0.62639500  0.74099100  0.94421300  1
  O  O1  1  0.37360500  0.25900900  0.05578700  1
  O  O2  1  0.21342300  0.78248400  0.07940600  1
  O  O3  1  0.78657700  0.21751600  0.92059400  1
  O  O4  1  0.34335900  0.53260600  0.27453300  1
  O  O5  1  0.65664100  0.46739400  0.72546700  1
  O  O6  1  0.37580900  0.91236000  0.37693100  1
  O  O7  1  0.62419100  0.08764000  0.62306900  1
  O  O8  1  0.26166100  0.66700400  0.60712600  1
  O  O9  1  0.73833900  0.33299600  0.39287400  1
  O  O10  1  0.84306200  0.81187100  0.49133200  1
  O  O11  1  0.15693800  0.18812900  0.50866800  1
  O  O12  1  0.14732300  0.96736400  0.78025900  1
  O  O13  1  0.85267700  0.03263600  0.21974100  1
loop_
_geom_bond_atom_site_label_1
_geom_bond_atom_site_label_2
_geom_bond_distance
_geom_bond_site_symmetry_2
Mn0 O1 2.121132 1_555
Mn0 O0 2.121132 1_444
Mn0 O2 2.230229 1_545
Mn0 O3 2.230229 1_454
Mn0 O13 2.255483 1_455
Mn0 O12 2.255483 1_544
Mn1 O5 2.176536 1_555
Mn1 O4 2.176536 1_555
Mn1 O8 2.213954 1_555
Mn1 O9 2.213954 1_555
Mn1 O10 2.279193 1_555
Mn1 O11 2.279193 1_555
Mo0 O12 1.760068 1_555
Mo0 O8 1.776145 1_555
Mo0 O10 1.891747 1_455
Mo0 O7 2.061841 1_565
Mo0 O11 2.216491 1_565
Mo0 O6 2.313186 1_555
Mo1 O13 1.760068 1_555
Mo1 O9 1.776145 1_555
Mo1 O11 1.891747 1_655
Mo1 O6 2.061841 1_545
Mo1 O10 2.216491 1_545
Mo1 O7 2.313186 1_555
H0 O0 0.988294 1_555
H1 O1 0.988294 1_555
H2 O0 0.991449 1_555
H2 O2 1.684096 1_556
H3 O1 0.991449 1_555
H3 O3 1.684096 1_554
O2 Se0 1.691386 1_555
O3 Se1 1.691386 1_555
O4 Se0 1.700224 1_555
O5 Se1 1.700224 1_555
O6 Se0 1.861597 1_555
O7 Se1 1.861597 1_555
