# generated using pymatgen
data_Li7Mn2(CoO4)3
_symmetry_space_group_name_H-M   'P 1'
_cell_length_a   3.00951900
_cell_length_b   5.01828491
_cell_length_c   14.65201094
_cell_angle_alpha   82.26619018
_cell_angle_beta   85.10562690
_cell_angle_gamma   88.48945107
_symmetry_Int_Tables_number   1
_chemical_formula_structural   Li7Mn2(CoO4)3
_chemical_formula_sum   'Li7 Mn2 Co3 O12'
_cell_volume   218.44665807
_cell_formula_units_Z   1
loop_
 _symmetry_equiv_pos_site_id
 _symmetry_equiv_pos_as_xyz
  1  'x, y, z'
loop_
 _atom_site_type_symbol
 _atom_site_label
 _atom_site_symmetry_multiplicity
 _atom_site_fract_x
 _atom_site_fract_y
 _atom_site_fract_z
 _atom_site_occupancy
  Li  Li0  1  0.09578200  0.42335500  0.82327100  1
  Li  Li1  1  0.75269900  0.75590500  0.50612500  1
  Li  Li2  1  0.41285100  0.08164300  0.17021600  1
  Li  Li3  1  0.58738900  0.91265200  0.82295600  1
  Li  Li4  1  0.23892100  0.24601900  0.50655200  1
  Li  Li5  1  0.91227900  0.58030900  0.17024200  1
  Li  Li6  1  0.16647000  0.83315200  0.66557500  1
  Mn  Mn0  1  0.00226900  0.99998700  0.99877900  1
  Mn  Mn1  1  0.50214500  0.50004000  0.99847400  1
  Co  Co0  1  0.66674400  0.33326300  0.66554300  1
  Co  Co1  1  0.33098800  0.66603700  0.33576700  1
  Co  Co2  1  0.83073800  0.16607100  0.33611700  1
  O  O0  1  0.57703300  0.20934300  0.92235100  1
  O  O1  1  0.19040400  0.51730500  0.59415500  1
  O  O2  1  0.86283100  0.88176800  0.25792500  1
  O  O3  1  0.07885200  0.71386000  0.91956700  1
  O  O4  1  0.70697100  0.07596700  0.59122700  1
  O  O5  1  0.36296400  0.38045900  0.25767300  1
  O  O6  1  0.62665100  0.59177100  0.74042900  1
  O  O7  1  0.30058100  0.95161900  0.41339500  1
  O  O8  1  0.92402200  0.28797100  0.07778200  1
  O  O9  1  0.14297800  0.14888900  0.73771400  1
  O  O10  1  0.80247900  0.45535500  0.41088100  1
  O  O11  1  0.42495800  0.78726100  0.07728300  1
loop_
_geom_bond_atom_site_label_1
_geom_bond_atom_site_label_2
_geom_bond_distance
_geom_bond_site_symmetry_2
Li0 O9 1.978065 1_555
Li0 O6 2.033315 1_455
Li0 O6 2.050441 1_555
Li0 O3 2.157782 1_555
Li0 O0 2.231648 1_455
Li0 O0 2.283798 1_555
Li1 O7 2.132574 1_555
Li1 O1 2.150266 1_655
Li1 O4 2.156753 1_565
Li1 O10 2.182570 1_555
Li1 O7 2.207561 1_655
Li1 O1 2.297758 1_555
Li2 O2 2.090438 1_545
Li2 O5 2.094202 1_555
Li2 O11 2.137269 1_545
Li2 O8 2.150342 1_555
Li2 O2 2.185225 1_445
Li2 O8 2.225497 1_455
Li3 O9 2.134734 1_565
Li3 O6 2.135114 1_555
Li3 O3 2.161481 1_555
Li3 O0 2.216313 1_565
Li3 O3 2.255218 1_655
Li3 O9 2.260699 1_665
Li4 O1 1.987480 1_555
Li4 O4 2.049762 1_555
Li4 O4 2.068467 1_455
Li4 O7 2.136635 1_545
Li4 O10 2.153802 1_455
Li4 O10 2.288449 1_555
Li5 O5 2.089388 1_655
Li5 O2 2.107099 1_555
Li5 O8 2.124316 1_555
Li5 O11 2.158584 1_655
Li5 O5 2.181770 1_555
Li5 O11 2.228112 1_555
Li6 O1 2.009980 1_555
Li6 O9 2.016135 1_565
Li6 O4 2.096366 1_465
Li6 O6 2.097945 1_555
Li6 O6 2.179825 1_455
Li6 O4 2.182273 1_565
Mn0 O3 1.961451 1_555
Mn0 O0 1.962796 1_465
Mn0 O8 1.967163 1_466
Mn0 O11 1.982037 1_556
Mn0 O0 2.190548 1_565
Mn0 O11 2.215311 1_456
Mn1 O0 1.949512 1_555
Mn1 O11 1.961976 1_556
Mn1 O8 1.985585 1_556
Mn1 O3 1.989028 1_555
Mn1 O3 2.218617 1_655
Mn1 O8 2.220319 1_456
Co0 O4 1.793080 1_555
Co0 O6 1.803782 1_555
Co0 O1 1.981969 1_555
Co0 O9 1.988419 1_655
Co0 O1 1.991527 1_655
Co0 O9 1.997018 1_555
Co1 O7 1.941642 1_555
Co1 O5 1.946182 1_555
Co1 O10 2.053467 1_555
Co1 O2 2.078316 1_455
Co1 O10 2.082238 1_455
Co1 O2 2.117139 1_555
Co2 O10 1.928805 1_555
Co2 O2 1.941952 1_545
Co2 O7 2.074761 1_645
Co2 O5 2.079370 1_555
Co2 O7 2.107177 1_545
Co2 O5 2.118489 1_655
