# generated using pymatgen
data_CaCd4(TcO3)4
_symmetry_space_group_name_H-M   'P 1'
_cell_length_a   5.46017527
_cell_length_b   5.41542574
_cell_length_c   9.33120561
_cell_angle_alpha   81.38312853
_cell_angle_beta   98.61063348
_cell_angle_gamma   92.54776355
_symmetry_Int_Tables_number   1
_chemical_formula_structural   CaCd4(TcO3)4
_chemical_formula_sum   'Ca1 Cd4 Tc4 O12'
_cell_volume   269.65829203
_cell_formula_units_Z   1
loop_
 _symmetry_equiv_pos_site_id
 _symmetry_equiv_pos_as_xyz
  1  'x, y, z'
loop_
 _atom_site_type_symbol
 _atom_site_label
 _atom_site_symmetry_multiplicity
 _atom_site_fract_x
 _atom_site_fract_y
 _atom_site_fract_z
 _atom_site_occupancy
  Ca  Ca0  1  0.08802100  0.92052500  0.15447600  1
  Cd  Cd0  1  0.44124700  0.54043100  0.32313600  1
  Cd  Cd1  1  0.79496100  0.22422500  0.31295800  1
  Cd  Cd2  1  0.48954500  0.46973200  0.75491300  1
  Cd  Cd3  1  0.02599200  0.01859000  0.74660800  1
  Tc  Tc0  1  0.04627700  0.44657600  0.96655600  1
  Tc  Tc1  1  0.45715900  0.03029500  0.53627400  1
  Tc  Tc2  1  0.95252100  0.56511200  0.53585200  1
  Tc  Tc3  1  0.56417100  0.91775400  0.97057800  1
  O  O0  1  0.79191800  0.65923900  0.98391000  1
  O  O1  1  0.71671000  0.28477300  0.62056500  1
  O  O2  1  0.19810400  0.28130400  0.55138800  1
  O  O3  1  0.29763900  0.69096800  0.01966600  1
  O  O4  1  0.31453800  0.20482900  0.92867600  1
  O  O5  1  0.19037100  0.80545400  0.41562100  1
  O  O6  1  0.71079900  0.81193400  0.51995400  1
  O  O7  1  0.82881800  0.16063200  0.94068400  1
  O  O8  1  0.62759200  0.91818500  0.18824500  1
  O  O9  1  0.11043100  0.32796700  0.19001000  1
  O  O10  1  0.46007600  0.88227300  0.74823500  1
  O  O11  1  0.04787000  0.60111200  0.75003000  1
loop_
_geom_bond_atom_site_label_1
_geom_bond_atom_site_label_2
_geom_bond_distance
_geom_bond_site_symmetry_2
Ca0 O9 2.275195 1_565
Ca0 O3 2.337530 1_555
Ca0 O5 2.409726 1_555
Ca0 O7 2.492878 1_464
Ca0 O8 2.579330 1_455
Ca0 O0 2.617286 1_454
Ca0 O4 2.824630 1_564
Ca0 O8 2.916060 1_555
Cd0 O5 2.362400 1_555
Cd0 O9 2.387752 1_555
Cd0 O8 2.496260 1_555
Cd1 O9 2.216182 1_655
Cd1 O8 2.249666 1_545
Cd2 O10 2.237890 1_555
Cd2 O1 2.250706 1_555
Cd2 O4 2.290229 1_555
Cd2 O11 2.536559 1_555
Cd2 O2 2.590686 1_555
Cd2 O7 2.771863 1_555
Cd2 O0 2.791976 1_555
Cd3 O11 2.264473 1_545
Cd3 O1 2.329522 1_455
Cd3 O2 2.417180 1_555
Cd3 O4 2.440579 1_555
Cd3 O7 2.470875 1_455
Cd3 O10 2.510845 1_545
O0 Tc0 1.883311 1_655
O0 Tc3 1.891571 1_555
O1 Tc1 2.084143 1_555
O1 Tc2 2.087788 1_555
O2 Tc1 2.038757 1_555
O2 Tc2 2.059014 1_455
O3 Tc3 1.925672 1_554
O3 Tc0 1.926733 1_554
O4 Tc3 2.067439 1_545
O4 Tc0 2.109152 1_555
O5 Tc2 2.118439 1_455
O5 Tc1 2.152693 1_565
O6 Tc2 1.894575 1_555
O6 Tc1 1.897960 1_565
O7 Tc0 1.930989 1_655
O7 Tc3 1.933302 1_545
O8 Tc3 2.008983 1_554
O9 Tc0 2.069510 1_554
O10 Tc1 2.017755 1_565
O10 Tc3 2.102644 1_555
O11 Tc2 2.024693 1_455
O11 Tc0 2.068960 1_555
