# generated using pymatgen
data_CeU4O10
_symmetry_space_group_name_H-M   'P 1'
_cell_length_a   3.83860404
_cell_length_b   3.83860404
_cell_length_c   15.81909001
_cell_angle_alpha   90.00000000
_cell_angle_beta   96.96876126
_cell_angle_gamma   120.00000006
_symmetry_Int_Tables_number   1
_chemical_formula_structural   CeU4O10
_chemical_formula_sum   'Ce1 U4 O10'
_cell_volume   199.87310112
_cell_formula_units_Z   1
loop_
 _symmetry_equiv_pos_site_id
 _symmetry_equiv_pos_as_xyz
  1  'x, y, z'
loop_
 _atom_site_type_symbol
 _atom_site_label
 _atom_site_symmetry_multiplicity
 _atom_site_fract_x
 _atom_site_fract_y
 _atom_site_fract_z
 _atom_site_occupancy
  Ce  Ce0  1  -0.00000000  -0.00000000  -0.00000000  1
  U  U0  1  0.80005281  0.40002640  0.20007921  1
  U  U1  1  0.59975233  0.79987616  0.39962849  1
  U  U2  1  0.40024767  0.20012384  0.60037151  1
  U  U3  1  0.19994719  0.59997360  0.79992079  1
  O  O0  1  0.89542963  0.94771482  0.84314445  1
  O  O1  1  0.10012233  0.55006117  0.65018350  1
  O  O2  1  0.29992305  0.14996153  0.44988458  1
  O  O3  1  0.70475545  0.35237772  0.05713317  1
  O  O4  1  0.50058340  0.75029170  0.25087510  1
  O  O5  1  0.29524455  0.64762228  0.94286683  1
  O  O6  1  0.49941660  0.24970830  0.74912490  1
  O  O7  1  0.70007695  0.85003847  0.55011542  1
  O  O8  1  0.10457037  0.05228518  0.15685555  1
  O  O9  1  0.89987767  0.44993883  0.34981650  1
loop_
_geom_bond_atom_site_label_1
_geom_bond_atom_site_label_2
_geom_bond_distance
_geom_bond_site_symmetry_2
Ce0 O3 2.390071 1_455
Ce0 O5 2.390071 1_544
Ce0 O3 2.390071 1_445
Ce0 O5 2.390071 1_554
Ce0 O5 2.390071 1_444
Ce0 O3 2.390071 1_555
Ce0 O0 2.456841 1_444
Ce0 O8 2.456841 1_555
O0 U3 2.317321 1_665
O0 U3 2.317321 1_655
O0 U3 2.317321 1_555
O1 U3 2.345347 1_555
O1 U2 2.349543 1_565
O1 U2 2.349543 1_555
O1 U2 2.349543 1_455
O2 U1 2.351862 1_555
O2 U1 2.351862 1_445
O2 U1 2.351862 1_545
O2 U2 2.357088 1_555
O3 U0 2.238975 1_555
O4 U1 2.329936 1_555
O4 U0 2.354705 1_565
O4 U0 2.354706 1_555
O4 U0 2.354706 1_455
O5 U3 2.238975 1_555
O6 U2 2.329936 1_555
O6 U3 2.354705 1_545
O6 U3 2.354706 1_555
O6 U3 2.354706 1_655
O7 U2 2.351862 1_555
O7 U2 2.351862 1_665
O7 U2 2.351862 1_565
O7 U1 2.357088 1_555
O8 U0 2.317321 1_455
O8 U0 2.317321 1_445
O8 U0 2.317321 1_555
O9 U0 2.345347 1_555
O9 U1 2.349543 1_545
O9 U1 2.349543 1_555
O9 U1 2.349543 1_655
