# generated using pymatgen
data_MnH9C4(NO2)3
_symmetry_space_group_name_H-M   'P 1'
_cell_length_a   8.39655553
_cell_length_b   11.83454397
_cell_length_c   9.07051754
_cell_angle_alpha   90.00000000
_cell_angle_beta   90.00000000
_cell_angle_gamma   90.00000000
_symmetry_Int_Tables_number   1
_chemical_formula_structural   MnH9C4(NO2)3
_chemical_formula_sum   'Mn4 H36 C16 N12 O24'
_cell_volume   901.33193665
_cell_formula_units_Z   4
loop_
 _symmetry_equiv_pos_site_id
 _symmetry_equiv_pos_as_xyz
  1  'x, y, z'
loop_
 _atom_site_type_symbol
 _atom_site_label
 _atom_site_symmetry_multiplicity
 _atom_site_fract_x
 _atom_site_fract_y
 _atom_site_fract_z
 _atom_site_occupancy
  Mn  Mn0  1  0.25987032  0.25000000  0.25000000  1
  Mn  Mn1  1  0.24012968  0.75000000  0.25000000  1
  Mn  Mn2  1  0.74012968  0.75000000  0.75000000  1
  Mn  Mn3  1  0.75987032  0.25000000  0.75000000  1
  H  H0  1  0.25000000  0.50000000  0.19247648  1
  H  H1  1  0.25000000  0.00000000  0.30752352  1
  H  H2  1  0.75000000  0.50000000  0.80752352  1
  H  H3  1  0.75000000  0.00000000  0.69247648  1
  H  H4  1  0.60967101  0.27207299  0.42380428  1
  H  H5  1  0.89032899  0.72792701  0.42380428  1
  H  H6  1  0.89032899  0.77207299  0.07619572  1
  H  H7  1  0.60967101  0.22792701  0.07619572  1
  H  H8  1  0.39032899  0.72792701  0.57619572  1
  H  H9  1  0.10967101  0.27207299  0.57619572  1
  H  H10  1  0.10967101  0.22792701  0.92380428  1
  H  H11  1  0.39032899  0.77207299  0.92380428  1
  H  H12  1  0.32649738  0.41867982  0.57913554  1
  H  H13  1  0.17350262  0.58132018  0.57913554  1
  H  H14  1  0.17350262  0.91867982  0.92086446  1
  H  H15  1  0.32649738  0.08132018  0.92086446  1
  H  H16  1  0.67350262  0.58132018  0.42086446  1
  H  H17  1  0.82649738  0.41867982  0.42086446  1
  H  H18  1  0.82649738  0.08132018  0.07913554  1
  H  H19  1  0.67350262  0.91867982  0.07913554  1
  H  H20  1  0.41738114  0.37673674  0.74789097  1
  H  H21  1  0.08261886  0.62326326  0.74789097  1
  H  H22  1  0.08261886  0.87673674  0.75210903  1
  H  H23  1  0.41738114  0.12326326  0.75210903  1
  H  H24  1  0.58261886  0.62326326  0.25210903  1
  H  H25  1  0.91738114  0.37673674  0.25210903  1
  H  H26  1  0.91738114  0.12326326  0.24789097  1
  H  H27  1  0.58261886  0.87673674  0.24789097  1
  H  H28  1  0.18942958  0.56099185  0.96679972  1
  H  H29  1  0.31057042  0.43900815  0.96679972  1
  H  H30  1  0.31057042  0.06099185  0.53320028  1
  H  H31  1  0.18942958  0.93900815  0.53320028  1
  H  H32  1  0.81057042  0.43900815  0.03320028  1
  H  H33  1  0.68942958  0.56099185  0.03320028  1
  H  H34  1  0.68942958  0.93900815  0.46679972  1
  H  H35  1  0.81057042  0.06099185  0.46679972  1
  C  C0  1  0.25000000  0.50000000  0.31355454  1
  C  C1  1  0.25000000  0.00000000  0.18644546  1
  C  C2  1  0.75000000  0.50000000  0.68644546  1
  C  C3  1  0.75000000  0.00000000  0.81355454  1
  C  C4  1  0.52962679  0.21363328  0.48309633  1
  C  C5  1  0.97037321  0.78636672  0.48309633  1
  C  C6  1  0.97037321  0.71363328  0.01690367  1
  C  C7  1  0.52962679  0.28636672  0.01690367  1
  C  C8  1  0.47037321  0.78636672  0.51690367  1
  C  C9  1  0.02962679  0.21363328  0.51690367  1
  C  C10  1  0.02962679  0.28636672  0.98309633  1
  C  C11  1  0.47037321  0.71363328  0.98309633  1
  C  C12  1  0.25000000  0.50000000  0.76382756  1
  C  C13  1  0.25000000  0.00000000  0.73617244  1
  C  C14  1  0.75000000  0.50000000  0.23617244  1
  C  C15  1  0.75000000  0.00000000  0.26382756  1
  N  N0  1  0.33891433  0.42537660  0.69050377  1
  N  N1  1  0.16108567  0.57462340  0.69050377  1
  N  N2  1  0.16108567  0.92537660  0.80949623  1
  N  N3  1  0.33891433  0.07462340  0.80949623  1
  N  N4  1  0.66108567  0.57462340  0.30949623  1
  N  N5  1  0.83891433  0.42537660  0.30949623  1
  N  N6  1  0.83891433  0.07462340  0.19050377  1
  N  N7  1  0.66108567  0.92537660  0.19050377  1
  N  N8  1  0.25000000  0.50000000  0.91047294  1
  N  N9  1  0.25000000  0.00000000  0.58952706  1
  N  N10  1  0.75000000  0.50000000  0.08952706  1
  N  N11  1  0.75000000  0.00000000  0.41047294  1
  O  O0  1  0.26537824  0.40601658  0.37803884  1
  O  O1  1  0.23462176  0.59398342  0.37803884  1
  O  O2  1  0.23462176  0.90601658  0.12196116  1
  O  O3  1  0.26537824  0.09398342  0.12196116  1
  O  O4  1  0.73462176  0.59398342  0.62196116  1
  O  O5  1  0.76537824  0.40601658  0.62196116  1
  O  O6  1  0.76537824  0.09398342  0.87803884  1
  O  O7  1  0.73462176  0.90601658  0.87803884  1
  O  O8  1  0.41056703  0.17467767  0.41473390  1
  O  O9  1  0.08943297  0.82532233  0.41473390  1
  O  O10  1  0.08943297  0.67467767  0.08526610  1
  O  O11  1  0.41056703  0.32532233  0.08526610  1
  O  O12  1  0.58943297  0.82532233  0.58526610  1
  O  O13  1  0.91056703  0.17467767  0.58526610  1
  O  O14  1  0.91056703  0.32532233  0.91473390  1
  O  O15  1  0.58943297  0.67467767  0.91473390  1
  O  O16  1  0.56216311  0.19034331  0.61544436  1
  O  O17  1  0.93783689  0.80965669  0.61544436  1
  O  O18  1  0.93783689  0.69034331  0.88455564  1
  O  O19  1  0.56216311  0.30965669  0.88455564  1
  O  O20  1  0.43783689  0.80965669  0.38455564  1
  O  O21  1  0.06216311  0.19034331  0.38455564  1
  O  O22  1  0.06216311  0.30965669  0.11544436  1
  O  O23  1  0.43783689  0.69034331  0.11544436  1
loop_
_geom_bond_atom_site_label_1
_geom_bond_atom_site_label_2
_geom_bond_distance
_geom_bond_site_symmetry_2
Mn0 O11 2.151365 1_555
Mn0 O8 2.151365 1_555
Mn0 O21 2.178036 1_555
Mn0 O22 2.178036 1_555
Mn0 O0 2.181760 1_555
Mn0 O3 2.181760 1_555
Mn1 O9 2.151365 1_555
Mn1 O10 2.151365 1_555
Mn1 O20 2.178036 1_555
Mn1 O23 2.178036 1_555
Mn1 O1 2.181760 1_555
Mn1 O2 2.181760 1_555
Mn2 O12 2.151365 1_555
Mn2 O15 2.151365 1_555
Mn2 O18 2.178036 1_555
Mn2 O17 2.178036 1_555
Mn2 O7 2.181760 1_555
Mn2 O4 2.181760 1_555
Mn3 O14 2.151365 1_555
Mn3 O13 2.151365 1_555
Mn3 O19 2.178036 1_555
Mn3 O16 2.178036 1_555
Mn3 O6 2.181760 1_555
Mn3 O5 2.181760 1_555
H12 N0 1.018621 1_555
H13 N1 1.018621 1_555
H14 N2 1.018621 1_555
H15 N3 1.018621 1_555
H16 N4 1.018621 1_555
H17 N5 1.018621 1_555
H18 N6 1.018621 1_555
H19 N7 1.018621 1_555
H20 N0 1.018032 1_555
H21 N1 1.018032 1_555
H22 N2 1.018032 1_555
H23 N3 1.018032 1_555
H24 N4 1.018032 1_555
H25 N5 1.018032 1_555
H26 N6 1.018032 1_555
H27 N7 1.018032 1_555
H28 N8 1.020147 1_555
H29 N8 1.020147 1_555
H30 N9 1.020147 1_555
H31 N9 1.020147 1_565
H32 N10 1.020147 1_555
H33 N10 1.020147 1_555
H34 N11 1.020147 1_565
H35 N11 1.020147 1_555
C0 H0 1.098241 1_555
C0 O0 1.263285 1_555
C0 O1 1.263285 1_555
C1 H1 1.098241 1_555
C1 O2 1.263285 1_545
C1 O3 1.263285 1_555
C2 H2 1.098241 1_555
C2 O5 1.263285 1_555
C2 O4 1.263285 1_555
C3 H3 1.098241 1_555
C3 O7 1.263285 1_545
C3 O6 1.263285 1_555
C4 H4 1.104207 1_555
C4 O16 1.261634 1_555
C4 O8 1.263498 1_555
C5 H5 1.104207 1_555
C5 O17 1.261634 1_555
C5 O9 1.263498 1_655
C6 H6 1.104207 1_555
C6 O18 1.261634 1_554
C6 O10 1.263498 1_655
C7 H7 1.104207 1_555
C7 O19 1.261634 1_554
C7 O11 1.263498 1_555
C8 H8 1.104207 1_555
C8 O20 1.261634 1_555
C8 O12 1.263498 1_555
C9 H9 1.104207 1_555
C9 O21 1.261634 1_555
C9 O13 1.263498 1_455
C10 H10 1.104207 1_555
C10 O22 1.261634 1_556
C10 O14 1.263498 1_455
C11 H11 1.104207 1_555
C11 O23 1.261634 1_556
C11 O15 1.263498 1_555
C12 N8 1.330149 1_555
C12 N0 1.334030 1_555
C12 N1 1.334030 1_555
C13 N9 1.330149 1_555
C13 N3 1.334030 1_555
C13 N2 1.334030 1_545
C14 N10 1.330149 1_555
C14 N4 1.334030 1_555
C14 N5 1.334030 1_555
C15 N11 1.330149 1_555
C15 N7 1.334030 1_545
C15 N6 1.334030 1_555
