# generated using pymatgen
data_Ta3NO6
_symmetry_space_group_name_H-M   'P 1'
_cell_length_a   10.55469597
_cell_length_b   10.55469597
_cell_length_c   11.94043734
_cell_angle_alpha   60.55833670
_cell_angle_beta   60.55833670
_cell_angle_gamma   21.07372108
_symmetry_Int_Tables_number   1
_chemical_formula_structural   Ta3NO6
_chemical_formula_sum   'Ta9 N3 O18'
_cell_volume   414.22252159
_cell_formula_units_Z   3
loop_
 _symmetry_equiv_pos_site_id
 _symmetry_equiv_pos_as_xyz
  1  'x, y, z'
loop_
 _atom_site_type_symbol
 _atom_site_label
 _atom_site_symmetry_multiplicity
 _atom_site_fract_x
 _atom_site_fract_y
 _atom_site_fract_z
 _atom_site_occupancy
  Ta  Ta0  1  0.00017843  0.00017843  0.00004240  1
  Ta  Ta1  1  0.81559418  0.81559418  0.00275495  1
  Ta  Ta2  1  0.18306575  0.18306575  0.00152787  1
  Ta  Ta3  1  0.91940007  0.91940007  0.63409376  1
  Ta  Ta4  1  0.08033167  0.08033167  0.37332088  1
  Ta  Ta5  1  0.10424044  0.10424044  0.62737151  1
  Ta  Ta6  1  0.89177391  0.89177391  0.37300375  1
  Ta  Ta7  1  0.70871328  0.70871328  0.36968061  1
  Ta  Ta8  1  0.29014132  0.29014132  0.63204693  1
  N  N0  1  0.82835370  0.82835370  0.58996292  1
  N  N1  1  0.17262742  0.17262742  0.40418602  1
  N  N2  1  0.02411424  0.02411424  0.58176182  1
  O  O0  1  0.62805678  0.62805678  0.58154256  1
  O  O1  1  0.37497714  0.37497714  0.41356525  1
  O  O2  1  0.40174129  0.40174129  0.62552067  1
  O  O3  1  0.59778840  0.59778840  0.37136526  1
  O  O4  1  0.20716996  0.20716996  0.61405974  1
  O  O5  1  0.79565656  0.79565656  0.37740651  1
  O  O6  1  0.75189912  0.75189912  0.19151654  1
  O  O7  1  0.24622025  0.24622025  0.81041810  1
  O  O8  1  0.29056544  0.29056544  0.00318711  1
  O  O9  1  0.70902953  0.70902953  0.99895980  1
  O  O10  1  0.09858315  0.09858315  0.98870353  1
  O  O11  1  0.90037109  0.90037109  0.01428955  1
  O  O12  1  0.97599486  0.97599486  0.41419861  1
  O  O13  1  0.12773090  0.12773090  0.18886860  1
  O  O14  1  0.87060165  0.87060165  0.81432064  1
  O  O15  1  0.49898588  0.49898588  0.00090685  1
  O  O16  1  0.95215547  0.95215547  0.19537097  1
  O  O17  1  0.04929116  0.04929116  0.80604428  1
loop_
_geom_bond_atom_site_label_1
_geom_bond_atom_site_label_2
_geom_bond_distance
_geom_bond_site_symmetry_2
N0 Ta8 2.051412 1_565
N0 Ta8 2.051412 1_655
N0 Ta3 2.200813 1_555
N0 Ta6 2.243661 1_555
N1 Ta7 2.036523 1_545
N1 Ta7 2.036523 1_455
N1 Ta4 2.123834 1_555
N1 Ta5 2.309583 1_555
N2 Ta3 1.937861 1_445
N2 Ta5 1.991823 1_555
N2 Ta4 2.156874 1_555
O0 Ta5 1.999661 1_565
O0 Ta5 1.999661 1_655
O0 Ta7 2.228724 1_555
O1 Ta6 1.978033 1_545
O1 Ta6 1.978033 1_455
O1 Ta8 2.304931 1_555
O2 Ta3 1.976778 1_545
O2 Ta3 1.976778 1_455
O2 Ta8 2.278122 1_555
O3 Ta4 1.961807 1_655
O3 Ta4 1.961807 1_565
O3 Ta7 2.292081 1_555
O4 Ta8 1.838753 1_555
O4 Ta5 2.061274 1_555
O5 Ta7 1.852218 1_555
O5 Ta6 1.969008 1_555
O6 Ta7 1.849970 1_555
O6 Ta1 1.961690 1_555
O7 Ta8 1.850888 1_555
O7 Ta2 1.983535 1_556
O8 Ta1 1.998126 1_545
O8 Ta1 1.998126 1_455
O8 Ta2 2.240959 1_555
O9 Ta2 2.000029 1_656
O9 Ta2 2.000029 1_566
O9 Ta1 2.234584 1_556
O10 Ta2 1.834663 1_556
O10 Ta0 1.978023 1_556
O11 Ta1 1.832158 1_555
O11 Ta0 1.991748 1_665
O12 Ta4 1.967266 1_665
O12 Ta6 2.038801 1_555
O12 Ta3 2.278119 1_555
O13 Ta4 1.911023 1_555
O13 Ta2 1.937512 1_555
O14 Ta3 1.864787 1_555
O14 Ta1 1.948660 1_556
O15 Ta0 1.930237 1_565
O15 Ta0 1.930237 1_655
O16 Ta6 1.846969 1_555
O16 Ta0 2.026976 1_665
O17 Ta5 1.849116 1_555
O17 Ta0 2.010925 1_556
