# generated using pymatgen
data_La2Cr2O5
_symmetry_space_group_name_H-M   'P 1'
_cell_length_a   8.89535776
_cell_length_b   8.89535776
_cell_length_c   8.89535776
_cell_angle_alpha   143.59454645
_cell_angle_beta   142.25231407
_cell_angle_gamma   53.44803487
_symmetry_Int_Tables_number   1
_chemical_formula_structural   La2Cr2O5
_chemical_formula_sum   'La4 Cr4 O10'
_cell_volume   254.11415655
_cell_formula_units_Z   2
loop_
 _symmetry_equiv_pos_site_id
 _symmetry_equiv_pos_as_xyz
  1  'x, y, z'
loop_
 _atom_site_type_symbol
 _atom_site_label
 _atom_site_symmetry_multiplicity
 _atom_site_fract_x
 _atom_site_fract_y
 _atom_site_fract_z
 _atom_site_occupancy
  La  La0  1  0.89202500  0.38536900  0.51205600  1
  La  La1  1  0.10797500  0.62003000  0.49334400  1
  La  La2  1  0.37331400  0.88536900  0.49334400  1
  La  La3  1  0.62668600  0.12003000  0.51205600  1
  Cr  Cr0  1  0.00000000  0.00882300  0.00882300  1
  Cr  Cr1  1  0.50000000  0.50882300  0.00882300  1
  Cr  Cr2  1  0.74251000  0.74575200  0.98826200  1
  Cr  Cr3  1  0.25749000  0.24575200  0.00324100  1
  O  O0  1  0.27622100  0.27720300  0.50936800  1
  O  O1  1  0.72377900  0.23314700  0.00098300  1
  O  O2  1  0.26783500  0.77720300  0.00098300  1
  O  O3  1  0.73216500  0.73314700  0.50936800  1
  O  O4  1  0.95330000  0.89811300  0.10187900  1
  O  O5  1  0.04670000  0.14857800  0.94481300  1
  O  O6  1  0.29623500  0.39811300  0.94481300  1
  O  O7  1  0.70376500  0.64857800  0.10187900  1
  O  O8  1  0.62639400  0.34698400  0.47337800  1
  O  O9  1  0.37360600  0.84698400  0.72059000  1
loop_
_geom_bond_atom_site_label_1
_geom_bond_atom_site_label_2
_geom_bond_distance
_geom_bond_site_symmetry_2
La0 O8 2.303133 1_555
La0 O6 2.377808 1_655
La0 O3 2.533489 1_555
La0 O1 2.546793 1_555
La0 O4 2.696502 1_545
La0 O4 2.923431 1_556
La0 O2 2.953696 1_656
La0 O0 2.963372 1_655
La1 O9 2.303140 1_555
La1 O7 2.377809 1_455
La1 O2 2.533492 1_556
La1 O0 2.546793 1_555
La1 O5 2.696502 1_554
La1 O5 2.923431 1_565
La1 O3 2.953696 1_455
La1 O1 2.963370 1_455
La2 O9 2.303140 1_555
La2 O4 2.377809 1_455
La2 O1 2.533483 1_566
La2 O3 2.546793 1_555
La2 O6 2.696502 1_554
La2 O6 2.923431 1_565
La2 O0 2.953696 1_565
La2 O2 2.963358 1_555
La3 O8 2.303147 1_555
La3 O5 2.377809 1_655
La3 O0 2.533480 1_555
La3 O2 2.546793 1_545
La3 O7 2.696502 1_545
La3 O7 2.923431 1_556
La3 O1 2.953696 1_556
La3 O3 2.963360 1_545
Cr0 O2 2.027505 1_545
Cr0 O3 2.027506 1_444
Cr0 O0 2.033958 1_555
Cr0 O1 2.033960 1_455
Cr0 O5 2.042263 1_554
Cr0 O4 2.042272 1_445
Cr1 O0 2.027506 1_554
Cr1 O1 2.027508 1_555
Cr1 O2 2.033957 1_555
Cr1 O3 2.033958 1_555
Cr1 O7 2.042256 1_555
Cr1 O6 2.042263 1_554
Cr2 O4 2.049215 1_556
Cr2 O7 2.049230 1_556
Cr2 O9 2.196333 1_555
Cr2 O8 2.314700 1_555
Cr3 O6 2.049214 1_554
Cr3 O5 2.049229 1_554
Cr3 O8 2.196337 1_555
Cr3 O9 2.314698 1_544
