# generated using pymatgen
data_Nd(FeB)4
_symmetry_space_group_name_H-M   'P 1'
_cell_length_a   7.05541900
_cell_length_b   7.05541900
_cell_length_c   3.80894000
_cell_angle_alpha   90.00000000
_cell_angle_beta   90.00000000
_cell_angle_gamma   90.00000000
_symmetry_Int_Tables_number   1
_chemical_formula_structural   Nd(FeB)4
_chemical_formula_sum   'Nd2 Fe8 B8'
_cell_volume   189.60498531
_cell_formula_units_Z   2
loop_
 _symmetry_equiv_pos_site_id
 _symmetry_equiv_pos_as_xyz
  1  'x, y, z'
loop_
 _atom_site_type_symbol
 _atom_site_label
 _atom_site_symmetry_multiplicity
 _atom_site_fract_x
 _atom_site_fract_y
 _atom_site_fract_z
 _atom_site_occupancy
  Nd  Nd0  1  0.00000000  0.00000000  0.00000000  1
  Nd  Nd1  1  0.50000000  0.50000000  0.50000000  1
  Fe  Fe0  1  0.13203000  0.38831600  0.89255600  1
  Fe  Fe1  1  0.86797000  0.61168400  0.89255600  1
  Fe  Fe2  1  0.88831600  0.36797000  0.39255600  1
  Fe  Fe3  1  0.11168400  0.63203000  0.39255600  1
  Fe  Fe4  1  0.36797000  0.11168400  0.60744400  1
  Fe  Fe5  1  0.63203000  0.88831600  0.60744400  1
  Fe  Fe6  1  0.61168400  0.13203000  0.10744400  1
  Fe  Fe7  1  0.38831600  0.86797000  0.10744400  1
  B  B0  1  0.66519500  0.79827500  0.10563100  1
  B  B1  1  0.33480500  0.20172500  0.10563100  1
  B  B2  1  0.29827500  0.83480500  0.60563100  1
  B  B3  1  0.70172500  0.16519500  0.60563100  1
  B  B4  1  0.83480500  0.70172500  0.39436900  1
  B  B5  1  0.16519500  0.29827500  0.39436900  1
  B  B6  1  0.20172500  0.66519500  0.89436900  1
  B  B7  1  0.79827500  0.33480500  0.89436900  1
loop_
_geom_bond_atom_site_label_1
_geom_bond_atom_site_label_2
_geom_bond_distance
_geom_bond_site_symmetry_2
Fe0 Nd0 2.922560 1_556
Fe0 Nd1 3.097864 1_555
Fe1 Nd0 2.922560 1_666
Fe1 Nd1 3.097864 1_555
Fe2 Nd1 2.922560 1_555
Fe2 Nd0 3.097864 1_655
Fe3 Nd1 2.922560 1_555
Fe3 Nd0 3.097864 1_565
Fe4 Nd1 2.922560 1_555
Fe4 Nd0 3.097864 1_556
Fe5 Nd1 2.922560 1_555
Fe5 Nd0 3.097864 1_666
Fe6 Nd0 2.922560 1_655
Fe6 Nd1 3.097864 1_555
Fe7 Nd0 2.922560 1_565
Fe7 Nd1 3.097864 1_555
B0 B4 1.762266 1_555
B0 Fe7 2.014447 1_555
B0 Fe5 2.014716 1_554
B0 Fe5 2.027729 1_555
B0 Fe1 2.106795 1_554
B0 Fe6 2.384865 1_565
B0 Nd0 2.787018 1_665
B0 Nd1 2.836116 1_555
B0 Nd1 3.332949 1_554
B1 B5 1.762266 1_555
B1 Fe6 2.014447 1_555
B1 Fe4 2.014716 1_554
B1 Fe4 2.027729 1_555
B1 Fe0 2.106795 1_554
B1 Fe7 2.384865 1_545
B1 Nd0 2.787018 1_555
B1 Nd1 2.836116 1_555
B1 Nd1 3.332949 1_554
B2 B6 1.762266 1_555
B2 Fe4 2.014447 1_565
B2 Fe7 2.014716 1_555
B2 Fe7 2.027729 1_556
B2 Fe3 2.106795 1_555
B2 Fe5 2.384865 1_555
B2 Nd1 2.787018 1_555
B2 Nd0 2.836116 1_566
B2 Nd0 3.332949 1_565
B3 B7 1.762266 1_555
B3 Fe5 2.014447 1_545
B3 Fe6 2.014716 1_555
B3 Fe6 2.027729 1_556
B3 Fe2 2.106795 1_555
B3 Fe4 2.384865 1_555
B3 Nd1 2.787018 1_555
B3 Nd0 2.836116 1_656
B3 Nd0 3.332949 1_655
B4 Fe3 2.014447 1_655
B4 Fe1 2.014716 1_555
B4 Fe1 2.027729 1_554
B4 Fe5 2.106795 1_555
B4 Fe2 2.384865 1_555
B4 Nd1 2.787018 1_555
B4 Nd0 2.836116 1_665
B4 Nd0 3.332949 1_666
B5 Fe2 2.014447 1_455
B5 Fe0 2.014716 1_555
B5 Fe0 2.027729 1_554
B5 Fe4 2.106795 1_555
B5 Fe3 2.384865 1_555
B5 Nd1 2.787018 1_555
B5 Nd0 2.836116 1_555
B5 Nd0 3.332949 1_556
B6 Fe0 2.014447 1_555
B6 Fe3 2.014716 1_556
B6 Fe3 2.027729 1_555
B6 Fe7 2.106795 1_556
B6 Fe1 2.384865 1_455
B6 Nd0 2.787018 1_566
B6 Nd1 2.836116 1_555
B6 Nd1 3.332949 1_556
B7 Fe1 2.014447 1_555
B7 Fe2 2.014716 1_556
B7 Fe2 2.027729 1_555
B7 Fe6 2.106795 1_556
B7 Fe0 2.384865 1_655
B7 Nd0 2.787018 1_656
B7 Nd1 2.836116 1_555
B7 Nd1 3.332949 1_556
