# generated using pymatgen
data_BaSrPrTiO6
_symmetry_space_group_name_H-M   'P 1'
_cell_length_a   8.53363844
_cell_length_b   8.53835541
_cell_length_c   8.56143470
_cell_angle_alpha   90.00000000
_cell_angle_beta   90.00000000
_cell_angle_gamma   90.00000000
_symmetry_Int_Tables_number   1
_chemical_formula_structural   BaSrPrTiO6
_chemical_formula_sum   'Ba4 Sr4 Pr4 Ti4 O24'
_cell_volume   623.81385366
_cell_formula_units_Z   4
loop_
 _symmetry_equiv_pos_site_id
 _symmetry_equiv_pos_as_xyz
  1  'x, y, z'
loop_
 _atom_site_type_symbol
 _atom_site_label
 _atom_site_symmetry_multiplicity
 _atom_site_fract_x
 _atom_site_fract_y
 _atom_site_fract_z
 _atom_site_occupancy
  Ba  Ba0  1  0.00000000  -0.00000000  -0.00000000  1
  Ba  Ba1  1  0.50000000  0.50000000  0.50000000  1
  Ba  Ba2  1  -0.00000000  0.50000000  -0.00000000  1
  Ba  Ba3  1  -0.00000000  -0.00000000  0.50000000  1
  Sr  Sr0  1  0.00000000  0.50000000  0.50000000  1
  Sr  Sr1  1  0.50000000  -0.00000000  0.50000000  1
  Sr  Sr2  1  0.50000000  0.50000000  0.00000000  1
  Sr  Sr3  1  0.50000000  -0.00000000  0.00000000  1
  Pr  Pr0  1  0.74687188  0.74948808  0.74794978  1
  Pr  Pr1  1  0.25312812  0.25051192  0.74794978  1
  Pr  Pr2  1  0.25312812  0.74948808  0.25205022  1
  Pr  Pr3  1  0.74687188  0.25051192  0.25205022  1
  Ti  Ti0  1  0.25629911  0.24904715  0.25401821  1
  Ti  Ti1  1  0.74370089  0.75095285  0.25401821  1
  Ti  Ti2  1  0.74370089  0.24904715  0.74598179  1
  Ti  Ti3  1  0.25629911  0.75095285  0.74598179  1
  O  O0  1  0.02221019  0.22658464  0.27443116  1
  O  O1  1  0.97778981  0.77341536  0.27443116  1
  O  O2  1  0.97778981  0.22658464  0.72556884  1
  O  O3  1  0.02221019  0.77341536  0.72556884  1
  O  O4  1  0.28381014  0.02176870  0.21423526  1
  O  O5  1  0.28381014  0.97823130  0.78576474  1
  O  O6  1  0.71618986  0.97823130  0.21423526  1
  O  O7  1  0.71618986  0.02176870  0.78576474  1
  O  O8  1  0.22601079  0.27665891  0.02168203  1
  O  O9  1  0.77398921  0.27665891  0.97831797  1
  O  O10  1  0.22601079  0.72334109  0.97831797  1
  O  O11  1  0.77398921  0.72334109  0.02168203  1
  O  O12  1  0.47793942  0.29455959  0.21418615  1
  O  O13  1  0.52206058  0.70544041  0.21418615  1
  O  O14  1  0.52206058  0.29455959  0.78581385  1
  O  O15  1  0.47793942  0.70544041  0.78581385  1
  O  O16  1  0.21810529  0.47743157  0.29117419  1
  O  O17  1  0.21810529  0.52256843  0.70882581  1
  O  O18  1  0.78189471  0.52256843  0.29117419  1
  O  O19  1  0.78189471  0.47743157  0.70882581  1
  O  O20  1  0.29251165  0.21266553  0.47666706  1
  O  O21  1  0.70748835  0.21266553  0.52333294  1
  O  O22  1  0.29251165  0.78733447  0.52333294  1
  O  O23  1  0.70748835  0.78733447  0.47666706  1
loop_
_geom_bond_atom_site_label_1
_geom_bond_atom_site_label_2
_geom_bond_distance
_geom_bond_site_symmetry_2
Ba0 O4 3.043757 1_555
Ba0 O5 3.043757 1_544
Ba0 O7 3.043757 1_454
Ba0 O6 3.043757 1_445
Ba0 O3 3.049442 1_544
Ba0 O1 3.049442 1_445
Ba0 O0 3.049442 1_555
Ba0 O2 3.049442 1_454
Ba0 O9 3.055220 1_454
Ba0 O11 3.055220 1_445
Ba0 O10 3.055220 1_544
Ba0 O8 3.055220 1_555
Ba1 O18 3.003396 1_555
Ba1 O19 3.003396 1_555
Ba1 O16 3.003396 1_555
Ba1 O17 3.003396 1_555
Ba1 O13 3.016634 1_555
Ba1 O12 3.016634 1_555
Ba1 O14 3.016634 1_555
Ba1 O15 3.016634 1_555
Ba1 O22 3.032166 1_555
Ba1 O20 3.032166 1_555
Ba1 O23 3.032166 1_555
Ba1 O21 3.032166 1_555
Ba2 O8 2.718610 1_555
Ba2 O9 2.718610 1_454
Ba2 O10 2.718610 1_554
Ba2 O11 2.718610 1_455
Ba2 O19 3.117003 1_454
Ba2 O16 3.117003 1_555
Ba2 O17 3.117003 1_554
Ba2 O18 3.117003 1_455
Ba2 O3 3.317553 1_554
Ba2 O1 3.317553 1_455
Ba2 O2 3.317553 1_454
Ba2 O0 3.317553 1_555
Ba3 O3 2.740135 1_545
Ba3 O1 2.740135 1_445
Ba3 O0 2.740135 1_555
Ba3 O2 2.740135 1_455
Ba3 O20 3.093225 1_555
Ba3 O22 3.093225 1_545
Ba3 O23 3.093225 1_445
Ba3 O21 3.093225 1_455
O0 Ti0 2.014411 1_555
O0 Pr3 2.366274 1_455
O0 Sr0 3.035688 1_555
O1 Ti1 2.014411 1_555
O1 Pr2 2.366274 1_655
O1 Sr0 3.035688 1_655
O2 Ti2 2.014411 1_555
O2 Pr1 2.366274 1_655
O2 Sr0 3.035688 1_655
O3 Ti3 2.014411 1_555
O3 Pr0 2.366274 1_455
O3 Sr0 3.035688 1_555
O4 Ti0 1.984185 1_555
O4 Pr2 2.361821 1_545
O4 Sr3 2.608122 1_555
O4 Sr1 3.069819 1_555
O5 Ti3 1.984185 1_555
O5 Pr1 2.361821 1_565
O5 Sr3 2.608122 1_566
O5 Sr1 3.069819 1_565
O6 Ti1 1.984185 1_555
O6 Pr3 2.361821 1_565
O6 Sr3 2.608122 1_565
O6 Sr1 3.069819 1_565
O7 Ti2 1.984185 1_555
O7 Pr0 2.361821 1_545
O7 Sr3 2.608122 1_556
O7 Sr1 3.069819 1_555
O8 Ti0 2.019661 1_555
O8 Pr1 2.365497 1_554
O8 Sr2 3.022880 1_555
O9 Ti2 2.019661 1_555
O9 Pr3 2.365497 1_556
O9 Sr2 3.022880 1_556
O10 Ti3 2.019661 1_555
O10 Pr2 2.365497 1_556
O10 Sr2 3.022880 1_556
O11 Ti1 2.019661 1_555
O11 Pr0 2.365497 1_554
O11 Sr2 3.022880 1_555
O12 Ti0 1.960789 1_555
O12 Pr3 2.348070 1_555
O12 Sr2 2.544601 1_555
O13 Ti1 1.960789 1_555
O13 Pr2 2.348070 1_555
O13 Sr2 2.544601 1_555
O14 Ti2 1.960789 1_555
O14 Pr1 2.348070 1_555
O14 Sr2 2.544601 1_556
O15 Ti3 1.960789 1_555
O15 Pr0 2.348070 1_555
O15 Sr2 2.544601 1_556
O16 Ti0 2.002506 1_555
O16 Pr2 2.365894 1_555
O16 Sr0 2.587995 1_555
O17 Ti3 2.002506 1_555
O17 Pr1 2.365894 1_555
O17 Sr0 2.587995 1_555
O18 Ti1 2.002506 1_555
O18 Pr3 2.365894 1_555
O18 Sr0 2.587995 1_655
O19 Ti2 2.002506 1_555
O19 Pr0 2.365894 1_555
O19 Sr0 2.587995 1_655
O20 Ti0 1.955906 1_555
O20 Pr1 2.368904 1_555
O20 Sr1 2.544055 1_555
O21 Ti2 1.955906 1_555
O21 Pr3 2.368904 1_555
O21 Sr1 2.544055 1_555
O22 Ti3 1.955906 1_555
O22 Pr2 2.368904 1_555
O22 Sr1 2.544055 1_565
O23 Ti1 1.955906 1_555
O23 Pr0 2.368904 1_555
O23 Sr1 2.544055 1_565
