# generated using pymatgen
data_Ba2SmGaSe5
_symmetry_space_group_name_H-M   'P 1'
_cell_length_a   7.43316100
_cell_length_b   8.87665356
_cell_length_c   9.61789038
_cell_angle_alpha   103.71251383
_cell_angle_beta   103.00362202
_cell_angle_gamma   107.52342382
_symmetry_Int_Tables_number   1
_chemical_formula_structural   Ba2SmGaSe5
_chemical_formula_sum   'Ba4 Sm2 Ga2 Se10'
_cell_volume   557.00619593
_cell_formula_units_Z   2
loop_
 _symmetry_equiv_pos_site_id
 _symmetry_equiv_pos_as_xyz
  1  'x, y, z'
loop_
 _atom_site_type_symbol
 _atom_site_label
 _atom_site_symmetry_multiplicity
 _atom_site_fract_x
 _atom_site_fract_y
 _atom_site_fract_z
 _atom_site_occupancy
  Ba  Ba0  1  0.63427300  0.97840800  0.29271700  1
  Ba  Ba1  1  0.36572700  0.02159200  0.70728300  1
  Ba  Ba2  1  0.34006500  0.50960100  0.70508400  1
  Ba  Ba3  1  0.65993500  0.49039900  0.29491600  1
  Sm  Sm0  1  0.99723800  0.73071800  0.99757000  1
  Sm  Sm1  1  0.00276200  0.26928200  0.00243000  1
  Ga  Ga0  1  0.80436900  0.87108900  0.68695100  1
  Ga  Ga1  1  0.19563100  0.12891100  0.31304900  1
  Se  Se0  1  0.98843600  0.68565200  0.68131000  1
  Se  Se1  1  0.01156400  0.31434800  0.31869000  1
  Se  Se2  1  0.98286300  0.14954200  0.68525100  1
  Se  Se3  1  0.01713700  0.85045800  0.31474900  1
  Se  Se4  1  0.70723500  0.90605900  0.92258800  1
  Se  Se5  1  0.29276500  0.09394100  0.07741200  1
  Se  Se6  1  0.70203800  0.40966600  0.94509800  1
  Se  Se7  1  0.29796200  0.59033400  0.05490200  1
  Se  Se8  1  0.48881500  0.74042600  0.49223600  1
  Se  Se9  1  0.51118500  0.25957400  0.50776400  1
loop_
_geom_bond_atom_site_label_1
_geom_bond_atom_site_label_2
_geom_bond_distance
_geom_bond_site_symmetry_2
Ba0 Se8 3.285445 1_555
Ba0 Se1 3.333966 1_665
Ba0 Se9 3.335177 1_565
Ba0 Se3 3.350092 1_655
Ba0 Se7 3.442827 1_555
Ba0 Se5 3.463047 1_565
Ba0 Se4 3.657030 1_554
Ba0 Se2 3.712569 1_565
Ba1 Se9 3.285445 1_555
Ba1 Se0 3.333966 1_445
Ba1 Se8 3.335177 1_545
Ba1 Se2 3.350092 1_455
Ba1 Se6 3.442827 1_555
Ba1 Se4 3.463047 1_545
Ba1 Se5 3.657030 1_556
Ba1 Se3 3.712569 1_545
Ba2 Se9 3.306766 1_555
Ba2 Se8 3.354781 1_555
Ba2 Se7 3.375980 1_556
Ba2 Se2 3.416735 1_455
Ba2 Se0 3.418495 1_455
Ba2 Se4 3.516563 1_555
Ba2 Se6 3.601131 1_555
Ba2 Se1 3.618178 1_555
Ba3 Se8 3.306766 1_555
Ba3 Se9 3.354781 1_555
Ba3 Se6 3.375980 1_554
Ba3 Se3 3.416735 1_655
Ba3 Se1 3.418495 1_655
Ba3 Se5 3.516563 1_555
Ba3 Se7 3.601131 1_555
Ba3 Se0 3.618178 1_555
Ga0 Se8 2.389402 1_555
Ga0 Se2 2.433954 1_565
Ga0 Se0 2.435511 1_555
Ga0 Se4 2.508333 1_555
Ga1 Se9 2.389402 1_555
Ga1 Se3 2.433954 1_545
Ga1 Se1 2.435511 1_555
Ga1 Se5 2.508333 1_555
Se0 Sm0 2.955396 1_555
Se1 Sm1 2.955396 1_555
Se2 Sm1 2.936452 1_656
Se3 Sm0 2.936452 1_454
Se4 Sm0 3.072842 1_555
Se4 Sm1 3.100423 1_666
Se5 Sm1 3.072842 1_555
Se5 Sm0 3.100423 1_444
Se6 Sm0 2.871463 1_555
Se6 Sm1 2.881340 1_656
Se7 Sm1 2.871463 1_555
Se7 Sm0 2.881340 1_454
