# generated using pymatgen
data_CrCoTe
_symmetry_space_group_name_H-M   'P 1'
_cell_length_a   4.15921623
_cell_length_b   4.15921623
_cell_length_c   4.15921623
_cell_angle_alpha   60.00000000
_cell_angle_beta   60.00000000
_cell_angle_gamma   60.00000000
_symmetry_Int_Tables_number   1
_chemical_formula_structural   CrCoTe
_chemical_formula_sum   'Cr1 Co1 Te1'
_cell_volume   50.87676621
_cell_formula_units_Z   1
loop_
 _symmetry_equiv_pos_site_id
 _symmetry_equiv_pos_as_xyz
  1  'x, y, z'
loop_
 _atom_site_type_symbol
 _atom_site_label
 _atom_site_symmetry_multiplicity
 _atom_site_fract_x
 _atom_site_fract_y
 _atom_site_fract_z
 _atom_site_occupancy
  Cr  Cr0  1  0.25000000  0.25000000  0.25000000  1
  Co  Co0  1  0.00000000  0.00000000  0.00000000  1
  Te  Te0  1  0.75000000  0.75000000  0.75000000  1
loop_
_geom_bond_atom_site_label_1
_geom_bond_atom_site_label_2
_geom_bond_distance
_geom_bond_site_symmetry_2
Cr0 Te0 2.941010 1_554
Cr0 Te0 2.941010 1_455
Cr0 Te0 2.941010 1_454
Cr0 Te0 2.941010 1_544
Cr0 Te0 2.941010 1_545
Cr0 Te0 2.941010 1_445
Co0 Cr0 2.546989 1_455
Co0 Te0 2.546989 1_544
Co0 Te0 2.546989 1_444
Co0 Cr0 2.546989 1_555
Co0 Cr0 2.546989 1_554
Co0 Te0 2.546989 1_454
Co0 Te0 2.546989 1_445
Co0 Cr0 2.546989 1_545
