# generated using pymatgen
data_Li8CaSn7
_symmetry_space_group_name_H-M   'P 1'
_cell_length_a   13.64320221
_cell_length_b   13.64320221
_cell_length_c   11.56206400
_cell_angle_alpha   90.00000000
_cell_angle_beta   90.00000000
_cell_angle_gamma   160.51500349
_symmetry_Int_Tables_number   1
_chemical_formula_structural   Li8CaSn7
_chemical_formula_sum   'Li16 Ca2 Sn14'
_cell_volume   717.86367155
_cell_formula_units_Z   2
loop_
 _symmetry_equiv_pos_site_id
 _symmetry_equiv_pos_as_xyz
  1  'x, y, z'
loop_
 _atom_site_type_symbol
 _atom_site_label
 _atom_site_symmetry_multiplicity
 _atom_site_fract_x
 _atom_site_fract_y
 _atom_site_fract_z
 _atom_site_occupancy
  Li  Li0  1  0.97583800  0.02416200  0.25000000  1
  Li  Li1  1  0.02416200  0.97583800  0.75000000  1
  Li  Li2  1  0.75874600  0.24125400  0.09489000  1
  Li  Li3  1  0.24125400  0.75874600  0.90511000  1
  Li  Li4  1  0.24125400  0.75874600  0.59489000  1
  Li  Li5  1  0.75874600  0.24125400  0.40511000  1
  Li  Li6  1  0.54538300  0.45461700  0.12425500  1
  Li  Li7  1  0.45461700  0.54538300  0.87574500  1
  Li  Li8  1  0.45461700  0.54538300  0.62425500  1
  Li  Li9  1  0.54538300  0.45461700  0.37574500  1
  Li  Li10  1  0.88837700  0.11162300  0.51901500  1
  Li  Li11  1  0.11162300  0.88837700  0.48098500  1
  Li  Li12  1  0.11162300  0.88837700  0.01901500  1
  Li  Li13  1  0.88837700  0.11162300  0.98098500  1
  Li  Li14  1  0.00000000  0.00000000  0.00000000  1
  Li  Li15  1  0.00000000  0.00000000  0.50000000  1
  Ca  Ca0  1  0.85823400  0.14176600  0.25000000  1
  Ca  Ca1  1  0.14176600  0.85823400  0.75000000  1
  Sn  Sn0  1  0.65486800  0.34513200  0.25000000  1
  Sn  Sn1  1  0.34513200  0.65486800  0.75000000  1
  Sn  Sn2  1  0.07878700  0.92121300  0.25000000  1
  Sn  Sn3  1  0.92121300  0.07878700  0.75000000  1
  Sn  Sn4  1  0.67071900  0.32928100  0.54725300  1
  Sn  Sn5  1  0.32928100  0.67071900  0.45274700  1
  Sn  Sn6  1  0.32928100  0.67071900  0.04725300  1
  Sn  Sn7  1  0.67071900  0.32928100  0.95274700  1
  Sn  Sn8  1  0.26236400  0.73763600  0.25000000  1
  Sn  Sn9  1  0.73763600  0.26236400  0.75000000  1
  Sn  Sn10  1  0.43425100  0.56574900  0.12178600  1
  Sn  Sn11  1  0.56574900  0.43425100  0.87821400  1
  Sn  Sn12  1  0.56574900  0.43425100  0.62178600  1
  Sn  Sn13  1  0.43425100  0.56574900  0.37821400  1
loop_
_geom_bond_atom_site_label_1
_geom_bond_atom_site_label_2
_geom_bond_distance
_geom_bond_site_symmetry_2
Li0 Sn2 2.768596 1_645
Li0 Li14 2.962652 1_655
Li0 Li15 2.962652 1_655
Li0 Sn13 2.962855 1_545
Li0 Sn13 2.962855 1_655
Li0 Sn10 2.962855 1_545
Li0 Sn10 2.962855 1_655
Li1 Sn3 2.768596 1_465
Li1 Li15 2.962652 1_565
Li1 Li14 2.962652 1_566
Li1 Sn11 2.962855 1_565
Li1 Sn11 2.962855 1_455
Li1 Sn12 2.962855 1_565
Li1 Sn12 2.962855 1_455
Li2 Sn7 2.881856 1_554
Li2 Sn8 2.925040 1_545
Li2 Sn8 2.925040 1_655
Li2 Sn6 3.038369 1_545
Li2 Sn6 3.038369 1_655
Li2 Sn0 3.319690 1_555
Li3 Sn6 2.881856 1_556
Li3 Sn9 2.925040 1_455
Li3 Sn9 2.925040 1_565
Li3 Sn7 3.038369 1_455
Li3 Sn7 3.038369 1_565
Li3 Sn1 3.319690 1_555
Li4 Sn5 2.881856 1_555
Li4 Sn9 2.925040 1_455
Li4 Sn9 2.925040 1_565
Li4 Sn4 3.038369 1_455
Li4 Sn4 3.038369 1_565
Li4 Sn1 3.319690 1_555
Li5 Sn4 2.881856 1_555
Li5 Sn8 2.925040 1_545
Li5 Sn8 2.925040 1_655
Li5 Sn5 3.038369 1_545
Li5 Sn5 3.038369 1_655
Li5 Sn0 3.319690 1_555
Li6 Sn2 2.872434 1_545
Li6 Sn2 2.872434 1_655
Li6 Sn11 2.896987 1_554
Li6 Sn10 2.988797 1_555
Li6 Sn0 3.283755 1_555
Li7 Sn3 2.872434 1_565
Li7 Sn3 2.872434 1_455
Li7 Sn10 2.896987 1_556
Li7 Sn11 2.988797 1_555
Li7 Sn1 3.283755 1_555
Li8 Sn3 2.872434 1_565
Li8 Sn3 2.872434 1_455
Li8 Sn13 2.896987 1_555
Li8 Sn12 2.988797 1_555
Li8 Sn1 3.283755 1_555
Li9 Sn2 2.872434 1_545
Li9 Sn2 2.872434 1_655
Li9 Sn12 2.896987 1_555
Li9 Sn13 2.988797 1_555
Li9 Sn0 3.283755 1_555
Li10 Sn3 2.812868 1_555
Li10 Sn5 2.905675 1_655
Li10 Sn5 2.905675 1_545
Li10 Li15 3.009905 1_655
Li10 Sn13 3.082586 1_655
Li10 Sn13 3.082586 1_545
Li11 Sn2 2.812868 1_555
Li11 Sn4 2.905675 1_565
Li11 Sn4 2.905675 1_455
Li11 Li15 3.009905 1_565
Li11 Sn12 3.082586 1_565
Li11 Sn12 3.082586 1_455
Li12 Sn2 2.812868 1_555
Li12 Sn7 2.905675 1_564
Li12 Sn7 2.905675 1_454
Li12 Li14 3.009905 1_565
Li12 Sn11 3.082586 1_564
Li12 Sn11 3.082586 1_454
Li13 Sn3 2.812868 1_555
Li13 Sn6 2.905675 1_546
Li13 Sn6 2.905675 1_656
Li13 Li14 3.009905 1_656
Li13 Sn10 3.082586 1_656
Li13 Sn10 3.082586 1_546
Li14 Li6 2.980546 1_445
Li14 Li6 2.980546 1_555
Li14 Li7 2.980546 1_444
Li14 Li7 2.980546 1_554
Li14 Sn10 3.230996 1_555
Li14 Sn10 3.230996 1_445
Li14 Sn11 3.230996 1_554
Li14 Sn11 3.230996 1_444
Li15 Li9 2.980546 1_445
Li15 Li8 2.980546 1_445
Li15 Li8 2.980546 1_555
Li15 Li9 2.980546 1_555
Li15 Sn12 3.230996 1_555
Li15 Sn13 3.230996 1_555
Li15 Sn12 3.230996 1_445
Li15 Sn13 3.230996 1_445
Ca0 Li0 3.162711 1_555
Ca0 Li13 3.214268 1_554
Ca0 Li10 3.214268 1_555
Ca0 Li2 3.220972 1_555
Ca0 Li5 3.220972 1_555
Ca0 Sn5 3.381058 1_545
Ca0 Sn5 3.381058 1_655
Ca0 Sn6 3.381058 1_545
Ca0 Sn6 3.381058 1_655
Ca0 Sn13 3.421539 1_545
Ca0 Sn13 3.421539 1_655
Ca0 Sn10 3.421539 1_545
Ca0 Sn10 3.421539 1_655
Ca0 Sn8 3.460832 1_545
Ca0 Sn8 3.460832 1_655
Ca1 Li1 3.162711 1_555
Ca1 Li12 3.214268 1_556
Ca1 Li11 3.214268 1_555
Ca1 Li4 3.220972 1_555
Ca1 Li3 3.220972 1_555
Ca1 Sn4 3.381058 1_455
Ca1 Sn7 3.381058 1_455
Ca1 Sn7 3.381058 1_565
Ca1 Sn4 3.381058 1_565
Ca1 Sn11 3.421539 1_455
Ca1 Sn11 3.421539 1_565
Ca1 Sn12 3.421539 1_455
Ca1 Sn12 3.421539 1_565
Ca1 Sn9 3.460832 1_455
Ca1 Sn9 3.460832 1_565
Sn0 Sn2 3.084867 1_545
Sn0 Sn2 3.084867 1_655
Sn1 Sn3 3.084867 1_455
Sn1 Sn3 3.084867 1_565
Sn10 Sn6 2.951550 1_555
Sn10 Sn13 2.964837 1_555
Sn11 Sn7 2.951550 1_555
Sn11 Sn12 2.964837 1_555
Sn12 Sn4 2.951550 1_555
Sn13 Sn5 2.951550 1_555
