# generated using pymatgen
data_Tm6Ti4Al43
_symmetry_space_group_name_H-M   'P 1'
_cell_length_a   11.04570910
_cell_length_b   11.04570910
_cell_length_c   17.69112600
_cell_angle_alpha   90.00000000
_cell_angle_beta   90.00000000
_cell_angle_gamma   120.00000658
_symmetry_Int_Tables_number   1
_chemical_formula_structural   Tm6Ti4Al43
_chemical_formula_sum   'Tm12 Ti8 Al86'
_cell_volume   1869.27536018
_cell_formula_units_Z   2
loop_
 _symmetry_equiv_pos_site_id
 _symmetry_equiv_pos_as_xyz
  1  'x, y, z'
loop_
 _atom_site_type_symbol
 _atom_site_label
 _atom_site_symmetry_multiplicity
 _atom_site_fract_x
 _atom_site_fract_y
 _atom_site_fract_z
 _atom_site_occupancy
  Tm  Tm0  1  0.53127300  0.00000000  0.59662200  1
  Tm  Tm1  1  0.46872700  0.00000000  0.40337800  1
  Tm  Tm2  1  0.00000000  0.53127300  0.59662200  1
  Tm  Tm3  1  0.46872700  0.00000000  0.09662200  1
  Tm  Tm4  1  0.00000000  0.53127300  0.90337800  1
  Tm  Tm5  1  0.00000000  0.46872700  0.40337800  1
  Tm  Tm6  1  0.53127300  0.00000000  0.90337800  1
  Tm  Tm7  1  0.00000000  0.46872700  0.09662200  1
  Tm  Tm8  1  0.46872700  0.46872700  0.59662200  1
  Tm  Tm9  1  0.53127300  0.53127300  0.40337800  1
  Tm  Tm10  1  0.53127300  0.53127300  0.09662200  1
  Tm  Tm11  1  0.46872700  0.46872700  0.90337800  1
  Ti  Ti0  1  0.00000000  0.00000000  0.50000000  1
  Ti  Ti1  1  0.00000000  0.00000000  0.00000000  1
  Ti  Ti2  1  0.72761900  0.00000000  0.75000000  1
  Ti  Ti3  1  0.27238100  0.00000000  0.25000000  1
  Ti  Ti4  1  0.00000000  0.72761900  0.75000000  1
  Ti  Ti5  1  0.00000000  0.27238100  0.25000000  1
  Ti  Ti6  1  0.27238100  0.27238100  0.75000000  1
  Ti  Ti7  1  0.72761900  0.72761900  0.25000000  1
  Al  Al0  1  0.14975800  0.59718800  0.75000000  1
  Al  Al1  1  0.85024200  0.40281200  0.25000000  1
  Al  Al2  1  0.40281200  0.55257000  0.75000000  1
  Al  Al3  1  0.59718800  0.14975800  0.75000000  1
  Al  Al4  1  0.59718800  0.44743000  0.25000000  1
  Al  Al5  1  0.40281200  0.85024200  0.25000000  1
  Al  Al6  1  0.44743000  0.85024200  0.75000000  1
  Al  Al7  1  0.55257000  0.40281200  0.75000000  1
  Al  Al8  1  0.55257000  0.14975800  0.25000000  1
  Al  Al9  1  0.44743000  0.59718800  0.25000000  1
  Al  Al10  1  0.85024200  0.44743000  0.75000000  1
  Al  Al11  1  0.14975800  0.55257000  0.25000000  1
  Al  Al12  1  0.15711100  0.00000000  0.11587700  1
  Al  Al13  1  0.84288900  0.00000000  0.88412300  1
  Al  Al14  1  0.00000000  0.15711100  0.11587700  1
  Al  Al15  1  0.84288900  0.00000000  0.61587700  1
  Al  Al16  1  0.00000000  0.15711100  0.38412300  1
  Al  Al17  1  0.00000000  0.84288900  0.88412300  1
  Al  Al18  1  0.15711100  0.00000000  0.38412300  1
  Al  Al19  1  0.00000000  0.84288900  0.61587700  1
  Al  Al20  1  0.84288900  0.84288900  0.11587700  1
  Al  Al21  1  0.15711100  0.15711100  0.88412300  1
  Al  Al22  1  0.15711100  0.15711100  0.61587700  1
  Al  Al23  1  0.84288900  0.84288900  0.38412300  1
  Al  Al24  1  0.24742900  0.49485800  0.50000000  1
  Al  Al25  1  0.75257100  0.50514200  0.50000000  1
  Al  Al26  1  0.50514200  0.75257100  0.50000000  1
  Al  Al27  1  0.75257100  0.50514200  0.00000000  1
  Al  Al28  1  0.49485800  0.24742900  0.00000000  1
  Al  Al29  1  0.49485800  0.24742900  0.50000000  1
  Al  Al30  1  0.24742900  0.49485800  0.00000000  1
  Al  Al31  1  0.50514200  0.75257100  0.00000000  1
  Al  Al32  1  0.24742900  0.75257100  0.50000000  1
  Al  Al33  1  0.75257100  0.24742900  0.50000000  1
  Al  Al34  1  0.75257100  0.24742900  0.00000000  1
  Al  Al35  1  0.24742900  0.75257100  0.00000000  1
  Al  Al36  1  0.14665300  0.00000000  0.75000000  1
  Al  Al37  1  0.85334700  0.00000000  0.25000000  1
  Al  Al38  1  0.00000000  0.14665300  0.75000000  1
  Al  Al39  1  0.00000000  0.85334700  0.25000000  1
  Al  Al40  1  0.85334700  0.85334700  0.75000000  1
  Al  Al41  1  0.14665300  0.14665300  0.25000000  1
  Al  Al42  1  0.33333300  0.66666700  0.62594800  1
  Al  Al43  1  0.66666700  0.33333300  0.37405200  1
  Al  Al44  1  0.66666700  0.33333300  0.12594800  1
  Al  Al45  1  0.66666700  0.33333300  0.87405200  1
  Al  Al46  1  0.33333300  0.66666700  0.87405200  1
  Al  Al47  1  0.33333300  0.66666700  0.12594800  1
  Al  Al48  1  0.33333300  0.66666700  0.37405200  1
  Al  Al49  1  0.66666700  0.33333300  0.62594800  1
  Al  Al50  1  0.25464700  0.00000000  0.52909600  1
  Al  Al51  1  0.74535300  0.00000000  0.47090400  1
  Al  Al52  1  0.00000000  0.25464700  0.52909600  1
  Al  Al53  1  0.74535300  0.00000000  0.02909600  1
  Al  Al54  1  0.00000000  0.25464700  0.97090400  1
  Al  Al55  1  0.00000000  0.74535300  0.47090400  1
  Al  Al56  1  0.25464700  0.00000000  0.97090400  1
  Al  Al57  1  0.00000000  0.74535300  0.02909600  1
  Al  Al58  1  0.74535300  0.74535300  0.52909600  1
  Al  Al59  1  0.25464700  0.25464700  0.47090400  1
  Al  Al60  1  0.25464700  0.25464700  0.02909600  1
  Al  Al61  1  0.74535300  0.74535300  0.97090400  1
  Al  Al62  1  0.15830100  0.39374700  0.66424500  1
  Al  Al63  1  0.84169900  0.60625300  0.33575500  1
  Al  Al64  1  0.60625300  0.76455300  0.66424500  1
  Al  Al65  1  0.84169900  0.60625300  0.16424500  1
  Al  Al66  1  0.39374700  0.15830100  0.83575500  1
  Al  Al67  1  0.39374700  0.23544700  0.33575500  1
  Al  Al68  1  0.15830100  0.39374700  0.83575500  1
  Al  Al69  1  0.60625300  0.84169900  0.16424500  1
  Al  Al70  1  0.23544700  0.84169900  0.66424500  1
  Al  Al71  1  0.39374700  0.23544700  0.16424500  1
  Al  Al72  1  0.76455300  0.60625300  0.83575500  1
  Al  Al73  1  0.76455300  0.15830100  0.33575500  1
  Al  Al74  1  0.60625300  0.76455300  0.83575500  1
  Al  Al75  1  0.23544700  0.39374700  0.16424500  1
  Al  Al76  1  0.60625300  0.84169900  0.33575500  1
  Al  Al77  1  0.39374700  0.15830100  0.66424500  1
  Al  Al78  1  0.76455300  0.15830100  0.16424500  1
  Al  Al79  1  0.23544700  0.39374700  0.33575500  1
  Al  Al80  1  0.23544700  0.84169900  0.83575500  1
  Al  Al81  1  0.76455300  0.60625300  0.66424500  1
  Al  Al82  1  0.84169900  0.23544700  0.83575500  1
  Al  Al83  1  0.15830100  0.76455300  0.16424500  1
  Al  Al84  1  0.15830100  0.76455300  0.33575500  1
  Al  Al85  1  0.84169900  0.23544700  0.66424500  1
loop_
_geom_bond_atom_site_label_1
_geom_bond_atom_site_label_2
_geom_bond_distance
_geom_bond_site_symmetry_2
Tm0 Tm1 3.487812 1_555
Tm2 Tm5 3.487812 1_555
Tm3 Tm6 3.487812 1_554
Tm4 Tm7 3.487812 1_556
Tm8 Tm9 3.487812 1_555
Tm10 Tm11 3.487812 1_554
Ti2 Tm0 3.473659 1_555
Ti2 Tm6 3.473659 1_555
Ti3 Tm1 3.473659 1_555
Ti3 Tm3 3.473659 1_555
Ti4 Tm2 3.473659 1_555
Ti4 Tm4 3.473659 1_555
Ti5 Tm5 3.473659 1_555
Ti5 Tm7 3.473659 1_555
Ti6 Tm8 3.473659 1_555
Ti6 Tm11 3.473659 1_555
Ti7 Tm9 3.473659 1_555
Ti7 Tm10 3.473659 1_555
Al0 Ti4 2.682375 1_555
Al0 Al68 2.751770 1_555
Al0 Al62 2.751770 1_555
Al0 Al80 2.816996 1_555
Al0 Al70 2.816996 1_555
Al0 Al46 2.821489 1_555
Al0 Al42 2.821489 1_555
Al0 Al10 2.865129 1_455
Al0 Tm2 3.069975 1_555
Al0 Tm4 3.069975 1_555
Al1 Ti5 2.682375 1_655
Al1 Al63 2.751770 1_555
Al1 Al65 2.751770 1_555
Al1 Al73 2.816996 1_555
Al1 Al78 2.816996 1_555
Al1 Al43 2.821489 1_555
Al1 Al44 2.821489 1_555
Al1 Al11 2.865129 1_655
Al1 Tm5 3.069975 1_655
Al1 Tm7 3.069975 1_655
Al2 Ti6 2.682375 1_555
Al2 Al74 2.751765 1_555
Al2 Al64 2.751765 1_555
Al2 Al68 2.816998 1_555
Al2 Al62 2.816998 1_555
Al2 Al46 2.821495 1_555
Al2 Al42 2.821495 1_555
Al2 Al7 2.865130 1_555
Al2 Tm11 3.069975 1_555
Al2 Tm8 3.069975 1_555
Al3 Ti2 2.682375 1_555
Al3 Al66 2.751770 1_555
Al3 Al77 2.751770 1_555
Al3 Al82 2.816996 1_555
Al3 Al85 2.816996 1_555
Al3 Al45 2.821489 1_555
Al3 Al49 2.821489 1_555
Al3 Al6 2.865129 1_545
Al3 Tm6 3.069975 1_555
Al3 Tm0 3.069975 1_555
Al4 Ti7 2.682375 1_555
Al4 Al67 2.751765 1_555
Al4 Al71 2.751765 1_555
Al4 Al63 2.816998 1_555
Al4 Al65 2.816998 1_555
Al4 Al43 2.821495 1_555
Al4 Al44 2.821495 1_555
Al4 Al9 2.865130 1_555
Al4 Tm9 3.069975 1_555
Al4 Tm10 3.069975 1_555
Al5 Ti3 2.682375 1_565
Al5 Al76 2.751770 1_555
Al5 Al69 2.751770 1_555
Al5 Al84 2.816996 1_555
Al5 Al83 2.816996 1_555
Al5 Al8 2.865129 1_565
Al5 Tm1 3.069975 1_565
Al5 Tm3 3.069975 1_565
Al6 Ti2 2.682374 1_565
Al6 Al80 2.751761 1_555
Al6 Al70 2.751761 1_555
Al6 Al74 2.817005 1_555
Al6 Al64 2.817005 1_555
Al6 Tm6 3.069975 1_565
Al6 Tm0 3.069975 1_565
Al7 Ti6 2.682375 1_555
Al7 Al72 2.751765 1_555
Al7 Al81 2.751765 1_555
Al7 Al77 2.816998 1_555
Al7 Tm11 3.069975 1_555
Al7 Tm8 3.069975 1_555
Al8 Ti3 2.682374 1_555
Al8 Tm1 3.069975 1_555
Al8 Tm3 3.069975 1_555
Al9 Ti7 2.682375 1_555
Al9 Tm9 3.069975 1_555
Al9 Tm10 3.069975 1_555
Al10 Ti4 2.682374 1_655
Al10 Al82 2.751761 1_555
Al10 Al85 2.751761 1_555
Al10 Al72 2.817005 1_555
Al10 Al81 2.817005 1_555
Al10 Al45 2.821490 1_555
Al10 Al49 2.821490 1_555
Al10 Tm4 3.069975 1_655
Al10 Tm2 3.069975 1_655
Al11 Ti5 2.682374 1_555
Al11 Al84 2.751761 1_555
Al11 Al83 2.751761 1_555
Al11 Al79 2.817005 1_555
Al11 Al75 2.817005 1_555
Al11 Al48 2.821490 1_555
Al11 Al47 2.821490 1_555
Al11 Tm5 3.069975 1_555
Al11 Tm7 3.069975 1_555
Al12 Ti1 2.685908 1_555
Al12 Ti3 2.692815 1_555
Al12 Al71 2.744094 1_555
Al12 Al83 2.744100 1_545
Al12 Al56 2.781827 1_554
Al12 Al57 2.898096 1_545
Al12 Al60 2.898096 1_555
Al12 Al39 2.907682 1_545
Al12 Al41 2.907682 1_555
Al12 Al20 3.005805 1_445
Al12 Al14 3.005805 1_555
Al12 Tm3 3.458835 1_555
Al13 Ti1 2.685908 1_656
Al13 Ti2 2.692815 1_555
Al13 Al74 2.744094 1_545
Al13 Al82 2.744100 1_555
Al13 Al53 2.781827 1_556
Al13 Al54 2.898096 1_655
Al13 Al61 2.898096 1_545
Al13 Al38 2.907682 1_655
Al13 Al40 2.907682 1_545
Al13 Al21 3.005805 1_655
Al13 Al17 3.005805 1_645
Al13 Tm6 3.458835 1_555
Al14 Ti1 2.685908 1_555
Al14 Ti5 2.692815 1_555
Al14 Al75 2.744094 1_555
Al14 Al78 2.744100 1_455
Al14 Al54 2.781827 1_554
Al14 Al53 2.898096 1_455
Al14 Al60 2.898096 1_555
Al14 Al37 2.907682 1_455
Al14 Al41 2.907682 1_555
Al14 Al20 3.005805 1_445
Al14 Tm7 3.458835 1_555
Al15 Ti0 2.685908 1_655
Al15 Ti2 2.692815 1_555
Al15 Al64 2.744094 1_545
Al15 Al85 2.744100 1_555
Al15 Al51 2.781827 1_555
Al15 Al52 2.898096 1_655
Al15 Al58 2.898096 1_545
Al15 Al38 2.907682 1_655
Al15 Al40 2.907682 1_545
Al15 Al22 3.005805 1_655
Al15 Al19 3.005805 1_645
Al15 Tm0 3.458835 1_555
Al16 Ti0 2.685908 1_555
Al16 Ti5 2.692815 1_555
Al16 Al79 2.744094 1_555
Al16 Al73 2.744100 1_455
Al16 Al52 2.781827 1_555
Al16 Al51 2.898096 1_455
Al16 Al59 2.898096 1_555
Al16 Al37 2.907682 1_455
Al16 Al41 2.907682 1_555
Al16 Al23 3.005805 1_445
Al16 Al18 3.005805 1_555
Al16 Tm5 3.458835 1_555
Al17 Ti1 2.685908 1_566
Al17 Ti4 2.692815 1_555
Al17 Al72 2.744094 1_455
Al17 Al80 2.744100 1_555
Al17 Al57 2.781827 1_556
Al17 Al56 2.898096 1_565
Al17 Al61 2.898096 1_455
Al17 Al36 2.907682 1_565
Al17 Al40 2.907682 1_455
Al17 Al21 3.005805 1_565
Al17 Tm4 3.458835 1_555
Al18 Ti0 2.685908 1_555
Al18 Ti3 2.692815 1_555
Al18 Al67 2.744094 1_555
Al18 Al84 2.744100 1_545
Al18 Al50 2.781827 1_555
Al18 Al55 2.898096 1_545
Al18 Al59 2.898096 1_555
Al18 Al39 2.907682 1_545
Al18 Al41 2.907682 1_555
Al18 Al23 3.005805 1_445
Al18 Tm1 3.458835 1_555
Al19 Ti0 2.685908 1_565
Al19 Ti4 2.692815 1_555
Al19 Al81 2.744094 1_455
Al19 Al70 2.744100 1_555
Al19 Al55 2.781827 1_555
Al19 Al50 2.898096 1_565
Al19 Al58 2.898096 1_455
Al19 Al36 2.907682 1_565
Al19 Al40 2.907682 1_455
Al19 Al22 3.005805 1_565
Al19 Tm2 3.458835 1_555
Al20 Ti1 2.685907 1_665
Al20 Ti7 2.692815 1_555
Al20 Al69 2.744089 1_555
Al20 Al65 2.744089 1_555
Al20 Al61 2.781827 1_554
Al20 Al53 2.898096 1_565
Al20 Al57 2.898096 1_655
Al20 Al39 2.907682 1_655
Al20 Al37 2.907682 1_565
Al20 Tm10 3.458834 1_555
Al21 Ti1 2.685907 1_556
Al21 Ti6 2.692815 1_555
Al21 Al66 2.744089 1_555
Al21 Al68 2.744089 1_555
Al21 Al60 2.781827 1_556
Al21 Al56 2.898096 1_555
Al21 Al54 2.898096 1_555
Al21 Al36 2.907682 1_555
Al21 Al38 2.907682 1_555
Al21 Tm11 3.458834 1_555
Al22 Ti0 2.685907 1_555
Al22 Ti6 2.692815 1_555
Al22 Al62 2.744089 1_555
Al22 Al77 2.744089 1_555
Al22 Al59 2.781827 1_555
Al22 Al50 2.898096 1_555
Al22 Al52 2.898096 1_555
Al22 Al36 2.907682 1_555
Al22 Al38 2.907682 1_555
Al22 Tm8 3.458834 1_555
Al23 Ti0 2.685907 1_665
Al23 Ti7 2.692815 1_555
Al23 Al63 2.744089 1_555
Al23 Al76 2.744089 1_555
Al23 Al58 2.781827 1_555
Al23 Al55 2.898096 1_655
Al23 Al51 2.898096 1_565
Al23 Al39 2.907682 1_655
Al23 Al37 2.907682 1_565
Al23 Tm9 3.458834 1_555
Al24 Al52 2.742783 1_555
Al24 Al59 2.742784 1_555
Al24 Al42 2.768719 1_555
Al24 Al48 2.768719 1_555
Al24 Al26 2.846623 1_555
Al24 Al32 2.846623 1_555
Al24 Al62 3.091925 1_555
Al24 Al79 3.091927 1_555
Al24 Tm5 3.112200 1_555
Al24 Tm8 3.112201 1_555
Al24 Tm9 3.413565 1_555
Al24 Tm2 3.413565 1_555
Al25 Al55 2.742783 1_655
Al25 Al58 2.742784 1_555
Al25 Al49 2.768719 1_555
Al25 Al43 2.768719 1_555
Al25 Al29 2.846623 1_555
Al25 Al33 2.846623 1_555
Al25 Al63 3.091925 1_555
Al25 Al81 3.091927 1_555
Al25 Tm2 3.112200 1_655
Al25 Tm9 3.112201 1_555
Al25 Tm8 3.413565 1_555
Al25 Tm5 3.413565 1_655
Al26 Al51 2.742783 1_565
Al26 Al58 2.742784 1_555
Al26 Al42 2.768719 1_555
Al26 Al48 2.768719 1_555
Al26 Al32 2.846623 1_555
Al26 Al76 3.091925 1_555
Al26 Al64 3.091927 1_555
Al26 Tm0 3.112200 1_565
Al26 Tm9 3.112201 1_555
Al26 Tm8 3.413565 1_555
Al26 Tm1 3.413565 1_565
Al27 Al57 2.742783 1_655
Al27 Al61 2.742784 1_554
Al27 Al44 2.768719 1_555
Al27 Al45 2.768719 1_554
Al27 Al28 2.846623 1_555
Al27 Al34 2.846623 1_555
Al27 Al65 3.091925 1_555
Al27 Al72 3.091927 1_554
Al27 Tm4 3.112200 1_654
Al27 Tm10 3.112201 1_555
Al27 Tm11 3.413565 1_554
Al27 Tm7 3.413565 1_655
Al28 Al56 2.742783 1_554
Al28 Al60 2.742784 1_555
Al28 Al44 2.768719 1_555
Al28 Al45 2.768719 1_554
Al28 Al34 2.846623 1_555
Al28 Al66 3.091925 1_554
Al28 Al71 3.091927 1_555
Al28 Tm3 3.112200 1_555
Al28 Tm11 3.112201 1_554
Al28 Tm10 3.413565 1_555
Al28 Tm6 3.413565 1_554
Al29 Al50 2.742783 1_555
Al29 Al59 2.742784 1_555
Al29 Al49 2.768719 1_555
Al29 Al43 2.768719 1_555
Al29 Al33 2.846623 1_555
Al29 Al77 3.091925 1_555
Al29 Al67 3.091927 1_555
Al29 Tm1 3.112200 1_555
Al29 Tm8 3.112201 1_555
Al29 Tm9 3.413565 1_555
Al29 Tm0 3.413565 1_555
Al30 Al54 2.742783 1_554
Al30 Al60 2.742784 1_555
Al30 Al47 2.768719 1_555
Al30 Al46 2.768719 1_554
Al30 Al31 2.846623 1_555
Al30 Al35 2.846623 1_555
Al30 Al68 3.091925 1_554
Al30 Al75 3.091927 1_555
Al30 Tm7 3.112200 1_555
Al30 Tm11 3.112201 1_554
Al30 Tm10 3.413565 1_555
Al30 Tm4 3.413565 1_554
Al31 Al53 2.742783 1_565
Al31 Al61 2.742784 1_554
Al31 Al47 2.768719 1_555
Al31 Al46 2.768719 1_554
Al31 Al35 2.846623 1_555
Al31 Al69 3.091925 1_555
Al31 Al74 3.091927 1_554
Al31 Tm6 3.112200 1_564
Al31 Tm10 3.112201 1_555
Al31 Tm11 3.413565 1_554
Al31 Tm3 3.413565 1_565
Al32 Al55 2.742784 1_555
Al32 Al50 2.742784 1_565
Al32 Al42 2.768713 1_555
Al32 Al48 2.768713 1_555
Al32 Al70 3.091923 1_555
Al32 Al84 3.091923 1_555
Al32 Tm2 3.112200 1_555
Al32 Tm1 3.112200 1_565
Al32 Tm5 3.413564 1_555
Al32 Tm0 3.413564 1_565
Al33 Al51 2.742784 1_555
Al33 Al52 2.742784 1_655
Al33 Al49 2.768713 1_555
Al33 Al43 2.768713 1_555
Al33 Al85 3.091923 1_555
Al33 Al73 3.091923 1_555
Al33 Tm0 3.112200 1_555
Al33 Tm5 3.112200 1_655
Al33 Tm1 3.413564 1_555
Al33 Tm2 3.413564 1_655
Al34 Al53 2.742784 1_555
Al34 Al54 2.742784 1_654
Al34 Al44 2.768713 1_555
Al34 Al45 2.768713 1_554
Al34 Al78 3.091923 1_555
Al34 Al82 3.091923 1_554
Al34 Tm6 3.112200 1_554
Al34 Tm7 3.112200 1_655
Al34 Tm3 3.413564 1_555
Al34 Tm4 3.413564 1_654
Al35 Al57 2.742784 1_555
Al35 Al56 2.742784 1_564
Al35 Al47 2.768713 1_555
Al35 Al46 2.768713 1_554
Al35 Al83 3.091923 1_555
Al35 Al80 3.091923 1_554
Al35 Tm4 3.112200 1_554
Al35 Tm3 3.112200 1_565
Al35 Tm7 3.413564 1_555
Al35 Tm6 3.413564 1_564
Al36 Ti4 2.608121 1_545
Al36 Ti6 2.608121 1_555
Al36 Al40 2.805725 1_445
Al36 Al38 2.805726 1_555
Al36 Al66 2.834765 1_555
Al36 Al77 2.834765 1_555
Al36 Al80 2.834772 1_545
Al36 Al70 2.834772 1_545
Al37 Ti5 2.608121 1_655
Al37 Ti7 2.608121 1_545
Al37 Al41 2.805725 1_655
Al37 Al39 2.805726 1_645
Al37 Al76 2.834765 1_545
Al37 Al69 2.834765 1_545
Al37 Al73 2.834772 1_555
Al37 Al78 2.834772 1_555
Al38 Ti2 2.608121 1_455
Al38 Ti6 2.608121 1_555
Al38 Al40 2.805725 1_445
Al38 Al68 2.834765 1_555
Al38 Al62 2.834765 1_555
Al38 Al82 2.834772 1_455
Al38 Al85 2.834772 1_455
Al39 Ti3 2.608121 1_565
Al39 Ti7 2.608121 1_455
Al39 Al41 2.805725 1_565
Al39 Al63 2.834765 1_455
Al39 Al65 2.834765 1_455
Al39 Al84 2.834772 1_555
Al39 Al83 2.834772 1_555
Al40 Ti4 2.608121 1_655
Al40 Ti2 2.608121 1_565
Al40 Al74 2.834763 1_555
Al40 Al72 2.834763 1_555
Al40 Al64 2.834763 1_555
Al40 Al81 2.834763 1_555
Al41 Ti5 2.608121 1_555
Al41 Ti3 2.608121 1_555
Al41 Al67 2.834763 1_555
Al41 Al79 2.834763 1_555
Al41 Al71 2.834763 1_555
Al41 Al75 2.834763 1_555
Al42 Al70 2.730622 1_555
Al42 Al62 2.730639 1_555
Al42 Al64 2.730642 1_555
Al42 Al6 2.821490 1_555
Al42 Tm2 3.248964 1_555
Al42 Tm0 3.248965 1_565
Al42 Tm8 3.248975 1_555
Al43 Al73 2.730622 1_555
Al43 Al63 2.730639 1_555
Al43 Al67 2.730642 1_555
Al43 Al8 2.821490 1_555
Al43 Tm5 3.248964 1_655
Al43 Tm1 3.248965 1_555
Al43 Tm9 3.248975 1_555
Al44 Al78 2.730622 1_555
Al44 Al65 2.730639 1_555
Al44 Al71 2.730642 1_555
Al44 Al8 2.821490 1_555
Al44 Tm7 3.248964 1_655
Al44 Tm3 3.248965 1_555
Al44 Tm10 3.248975 1_555
Al45 Al82 2.730622 1_555
Al45 Al66 2.730639 1_555
Al45 Al72 2.730642 1_555
Al45 Al7 2.821495 1_555
Al45 Tm6 3.248964 1_555
Al45 Tm4 3.248965 1_655
Al45 Tm11 3.248975 1_555
Al46 Al80 2.730622 1_555
Al46 Al68 2.730639 1_555
Al46 Al74 2.730642 1_555
Al46 Al6 2.821490 1_555
Al46 Tm4 3.248964 1_555
Al46 Tm6 3.248965 1_565
Al46 Tm11 3.248975 1_555
Al47 Al83 2.730622 1_555
Al47 Al69 2.730639 1_555
Al47 Al75 2.730642 1_555
Al47 Al5 2.821489 1_555
Al47 Al9 2.821495 1_555
Al47 Tm3 3.248964 1_565
Al47 Tm7 3.248965 1_555
Al47 Tm10 3.248975 1_555
Al48 Al84 2.730622 1_555
Al48 Al76 2.730639 1_555
Al48 Al79 2.730642 1_555
Al48 Al5 2.821489 1_555
Al48 Al9 2.821495 1_555
Al48 Tm1 3.248964 1_565
Al48 Tm5 3.248965 1_555
Al48 Tm9 3.248975 1_555
Al49 Al85 2.730622 1_555
Al49 Al77 2.730639 1_555
Al49 Al81 2.730642 1_555
Al49 Al7 2.821495 1_555
Al49 Tm0 3.248964 1_555
Al49 Tm2 3.248965 1_655
Al49 Tm8 3.248975 1_555
Al50 Ti0 2.859468 1_555
Al50 Al77 2.906567 1_555
Al50 Al70 2.906570 1_545
Al50 Al55 2.995235 1_545
Al50 Al59 2.995235 1_555
Al50 Tm1 3.246264 1_555
Al50 Tm0 3.280756 1_555
Al51 Ti0 2.859468 1_655
Al51 Al76 2.906567 1_545
Al51 Al73 2.906570 1_555
Al51 Al52 2.995235 1_655
Al51 Al58 2.995235 1_545
Al51 Tm0 3.246264 1_555
Al51 Tm1 3.280756 1_555
Al52 Ti0 2.859468 1_555
Al52 Al62 2.906567 1_555
Al52 Al85 2.906570 1_455
Al52 Al59 2.995235 1_555
Al52 Tm5 3.246264 1_555
Al52 Tm2 3.280756 1_555
Al53 Ti1 2.859468 1_655
Al53 Al69 2.906567 1_545
Al53 Al78 2.906570 1_555
Al53 Al54 2.995235 1_654
Al53 Al61 2.995235 1_544
Al53 Tm6 3.246264 1_554
Al53 Tm3 3.280756 1_555
Al54 Ti1 2.859468 1_556
Al54 Al68 2.906567 1_555
Al54 Al82 2.906570 1_455
Al54 Al60 2.995235 1_556
Al54 Tm7 3.246264 1_556
Al54 Tm4 3.280756 1_555
Al55 Ti0 2.859468 1_565
Al55 Al63 2.906567 1_455
Al55 Al84 2.906570 1_555
Al55 Al58 2.995235 1_455
Al55 Tm2 3.246264 1_555
Al55 Tm5 3.280756 1_555
Al56 Ti1 2.859468 1_556
Al56 Al66 2.906567 1_555
Al56 Al80 2.906570 1_545
Al56 Al57 2.995235 1_546
Al56 Al60 2.995235 1_556
Al56 Tm3 3.246264 1_556
Al56 Tm6 3.280756 1_555
Al57 Ti1 2.859468 1_565
Al57 Al65 2.906567 1_455
Al57 Al83 2.906570 1_555
Al57 Al61 2.995235 1_454
Al57 Tm4 3.246264 1_554
Al57 Tm7 3.280756 1_555
Al58 Ti0 2.859468 1_665
Al58 Al81 2.906564 1_555
Al58 Al64 2.906564 1_555
Al58 Tm9 3.246264 1_555
Al58 Tm8 3.280756 1_555
Al59 Ti0 2.859468 1_555
Al59 Al67 2.906564 1_555
Al59 Al79 2.906564 1_555
Al59 Tm8 3.246264 1_555
Al59 Tm9 3.280756 1_555
Al60 Ti1 2.859468 1_555
Al60 Al71 2.906564 1_555
Al60 Al75 2.906564 1_555
Al60 Tm11 3.246264 1_554
Al60 Tm10 3.280756 1_555
Al61 Ti1 2.859468 1_666
Al61 Al72 2.906564 1_555
Al61 Al74 2.906564 1_555
Al61 Tm10 3.246264 1_556
Al61 Tm11 3.280756 1_555
Al62 Ti6 2.715847 1_555
Al62 Al85 3.028572 1_455
Al62 Al68 3.034205 1_555
Al62 Tm2 3.074470 1_555
Al62 Tm8 3.321820 1_555
Al63 Ti7 2.715847 1_555
Al63 Al84 3.028572 1_655
Al63 Al65 3.034205 1_555
Al63 Tm5 3.074470 1_655
Al63 Tm9 3.321820 1_555
Al64 Ti2 2.715855 1_565
Al64 Al81 3.028553 1_555
Al64 Al74 3.034205 1_555
Al64 Tm8 3.074460 1_555
Al64 Tm0 3.321831 1_565
Al65 Ti7 2.715847 1_555
Al65 Al83 3.028572 1_655
Al65 Tm7 3.074470 1_655
Al65 Tm10 3.321820 1_555
Al66 Ti6 2.715847 1_555
Al66 Al7 2.816998 1_555
Al66 Al80 3.028572 1_545
Al66 Al77 3.034205 1_555
Al66 Tm6 3.074470 1_555
Al66 Tm11 3.321820 1_555
Al67 Ti3 2.715855 1_555
Al67 Al8 2.817005 1_555
Al67 Al79 3.028553 1_555
Al67 Al71 3.034205 1_555
Al67 Tm9 3.074460 1_555
Al67 Tm1 3.321831 1_555
Al68 Ti6 2.715847 1_555
Al68 Al82 3.028572 1_455
Al68 Tm4 3.074470 1_555
Al68 Tm11 3.321820 1_555
Al69 Ti7 2.715847 1_555
Al69 Al9 2.816998 1_555
Al69 Al78 3.028572 1_565
Al69 Al76 3.034205 1_555
Al69 Tm3 3.074470 1_565
Al69 Tm10 3.321820 1_555
Al70 Ti4 2.715855 1_555
Al70 Al77 3.028572 1_565
Al70 Al80 3.034205 1_555
Al70 Tm0 3.074461 1_565
Al70 Tm2 3.321823 1_555
Al71 Ti3 2.715855 1_555
Al71 Al8 2.817005 1_555
Al71 Al75 3.028553 1_555
Al71 Tm10 3.074460 1_555
Al71 Tm3 3.321831 1_555
Al72 Ti4 2.715855 1_655
Al72 Al74 3.028553 1_555
Al72 Al81 3.034205 1_555
Al72 Tm11 3.074460 1_555
Al72 Tm4 3.321831 1_655
Al73 Ti5 2.715855 1_655
Al73 Al8 2.751761 1_555
Al73 Al76 3.028572 1_545
Al73 Al78 3.034205 1_555
Al73 Tm1 3.074461 1_555
Al73 Tm5 3.321823 1_655
Al74 Ti2 2.715855 1_565
Al74 Tm11 3.074460 1_555
Al74 Tm6 3.321831 1_565
Al75 Ti5 2.715855 1_555
Al75 Al9 2.751765 1_555
Al75 Al79 3.034205 1_555
Al75 Tm10 3.074460 1_555
Al75 Tm7 3.321831 1_555
Al76 Ti7 2.715847 1_555
Al76 Al9 2.816998 1_555
Al76 Tm1 3.074470 1_565
Al76 Tm9 3.321820 1_555
Al77 Ti6 2.715847 1_555
Al77 Tm0 3.074470 1_555
Al77 Tm8 3.321820 1_555
Al78 Ti5 2.715855 1_655
Al78 Al8 2.751761 1_555
Al78 Tm3 3.074461 1_555
Al78 Tm7 3.321823 1_655
Al79 Ti5 2.715855 1_555
Al79 Al9 2.751765 1_555
Al79 Tm9 3.074460 1_555
Al79 Tm5 3.321831 1_555
Al80 Ti4 2.715855 1_555
Al80 Tm6 3.074461 1_565
Al80 Tm4 3.321823 1_555
Al81 Ti4 2.715855 1_655
Al81 Tm8 3.074460 1_555
Al81 Tm2 3.321831 1_655
Al82 Ti2 2.715855 1_555
Al82 Al85 3.034205 1_555
Al82 Tm4 3.074461 1_655
Al82 Tm6 3.321823 1_555
Al83 Ti3 2.715855 1_565
Al83 Al84 3.034205 1_555
Al83 Tm7 3.074461 1_555
Al83 Tm3 3.321823 1_565
Al84 Ti3 2.715855 1_565
Al84 Tm5 3.074461 1_555
Al84 Tm1 3.321823 1_565
Al85 Ti2 2.715855 1_555
Al85 Tm2 3.074461 1_655
Al85 Tm0 3.321823 1_555
