# generated using pymatgen
data_Sr2Ga2O5
_symmetry_space_group_name_H-M   'P 1'
_cell_length_a   9.72946000
_cell_length_b   10.11510700
_cell_length_c   10.81225300
_cell_angle_alpha   90.00000000
_cell_angle_beta   90.00000000
_cell_angle_gamma   90.00000000
_symmetry_Int_Tables_number   1
_chemical_formula_structural   Sr2Ga2O5
_chemical_formula_sum   'Sr16 Ga16 O40'
_cell_volume   1064.08278591
_cell_formula_units_Z   8
loop_
 _symmetry_equiv_pos_site_id
 _symmetry_equiv_pos_as_xyz
  1  'x, y, z'
loop_
 _atom_site_type_symbol
 _atom_site_label
 _atom_site_symmetry_multiplicity
 _atom_site_fract_x
 _atom_site_fract_y
 _atom_site_fract_z
 _atom_site_occupancy
  Sr  Sr0  1  0.99564000  0.49678900  0.25549200  1
  Sr  Sr1  1  0.50436000  0.99678900  0.74450800  1
  Sr  Sr2  1  0.49564000  0.50321100  0.24450800  1
  Sr  Sr3  1  0.00436000  0.00321100  0.75549200  1
  Sr  Sr4  1  0.00436000  0.50321100  0.74450800  1
  Sr  Sr5  1  0.49564000  0.00321100  0.25549200  1
  Sr  Sr6  1  0.50436000  0.49678900  0.75549200  1
  Sr  Sr7  1  0.99564000  0.99678900  0.24450800  1
  Sr  Sr8  1  0.75129100  0.25400100  0.27396200  1
  Sr  Sr9  1  0.74870900  0.75400100  0.72603800  1
  Sr  Sr10  1  0.25129100  0.74599900  0.22603800  1
  Sr  Sr11  1  0.24870900  0.24599900  0.77396200  1
  Sr  Sr12  1  0.24870900  0.74599900  0.72603800  1
  Sr  Sr13  1  0.25129100  0.24599900  0.27396200  1
  Sr  Sr14  1  0.74870900  0.25400100  0.77396200  1
  Sr  Sr15  1  0.75129100  0.75400100  0.22603800  1
  Ga  Ga0  1  0.73266000  0.53348600  0.49375600  1
  Ga  Ga1  1  0.76734000  0.03348600  0.50624400  1
  Ga  Ga2  1  0.23266000  0.46651400  0.00624400  1
  Ga  Ga3  1  0.26734000  0.96651400  0.99375600  1
  Ga  Ga4  1  0.26734000  0.46651400  0.50624400  1
  Ga  Ga5  1  0.23266000  0.96651400  0.49375600  1
  Ga  Ga6  1  0.76734000  0.53348600  0.99375600  1
  Ga  Ga7  1  0.73266000  0.03348600  0.00624400  1
  Ga  Ga8  1  0.96130300  0.76649000  0.46907600  1
  Ga  Ga9  1  0.53869700  0.26649000  0.53092400  1
  Ga  Ga10  1  0.46130300  0.23351000  0.03092400  1
  Ga  Ga11  1  0.03869700  0.73351000  0.96907600  1
  Ga  Ga12  1  0.03869700  0.23351000  0.53092400  1
  Ga  Ga13  1  0.46130300  0.73351000  0.46907600  1
  Ga  Ga14  1  0.53869700  0.76649000  0.96907600  1
  Ga  Ga15  1  0.96130300  0.26649000  0.03092400  1
  O  O0  1  0.00906300  0.73732600  0.30604700  1
  O  O1  1  0.49093700  0.23732600  0.69395300  1
  O  O2  1  0.50906300  0.26267400  0.19395300  1
  O  O3  1  0.99093700  0.76267400  0.80604700  1
  O  O4  1  0.99093700  0.26267400  0.69395300  1
  O  O5  1  0.50906300  0.76267400  0.30604700  1
  O  O6  1  0.49093700  0.73732600  0.80604700  1
  O  O7  1  0.00906300  0.23732600  0.19395300  1
  O  O8  1  0.89218100  0.61922800  0.55879600  1
  O  O9  1  0.60781900  0.11922800  0.44120400  1
  O  O10  1  0.39218100  0.38077200  0.94120400  1
  O  O11  1  0.10781900  0.88077200  0.05879600  1
  O  O12  1  0.10781900  0.38077200  0.44120400  1
  O  O13  1  0.39218100  0.88077200  0.55879600  1
  O  O14  1  0.60781900  0.61922800  0.05879600  1
  O  O15  1  0.89218100  0.11922800  0.94120400  1
  O  O16  1  0.74358200  0.51320700  0.32366300  1
  O  O17  1  0.75641800  0.01320700  0.67633700  1
  O  O18  1  0.24358200  0.48679300  0.17633700  1
  O  O19  1  0.25641800  0.98679300  0.82366300  1
  O  O20  1  0.25641800  0.48679300  0.67633700  1
  O  O21  1  0.24358200  0.98679300  0.32366300  1
  O  O22  1  0.75641800  0.51320700  0.82366300  1
  O  O23  1  0.74358200  0.01320700  0.17633700  1
  O  O24  1  0.58873100  0.63809200  0.56260800  1
  O  O25  1  0.91126900  0.13809200  0.43739200  1
  O  O26  1  0.08873100  0.36190800  0.93739200  1
  O  O27  1  0.41126900  0.86190800  0.06260800  1
  O  O28  1  0.41126900  0.36190800  0.43739200  1
  O  O29  1  0.08873100  0.86190800  0.56260800  1
  O  O30  1  0.91126900  0.63809200  0.06260800  1
  O  O31  1  0.58873100  0.13809200  0.93739200  1
  O  O32  1  0.69879800  0.36940800  0.56491800  1
  O  O33  1  0.80120200  0.86940800  0.43508200  1
  O  O34  1  0.19879800  0.63059200  0.93508200  1
  O  O35  1  0.30120200  0.13059200  0.06491800  1
  O  O36  1  0.30120200  0.63059200  0.43508200  1
  O  O37  1  0.19879800  0.13059200  0.56491800  1
  O  O38  1  0.80120200  0.36940800  0.06491800  1
  O  O39  1  0.69879800  0.86940800  0.93508200  1
loop_
_geom_bond_atom_site_label_1
_geom_bond_atom_site_label_2
_geom_bond_distance
_geom_bond_site_symmetry_2
Ga0 O16 1.853541 1_555
Ga0 O32 1.858775 1_555
Ga0 O24 1.906505 1_555
Ga0 O8 1.911960 1_555
Ga1 O17 1.853541 1_555
Ga1 O33 1.858775 1_545
Ga1 O25 1.906505 1_555
Ga1 O9 1.911960 1_555
Ga2 O18 1.853541 1_555
Ga2 O34 1.858775 1_554
Ga2 O26 1.906505 1_554
Ga2 O10 1.911960 1_554
Ga3 O19 1.853541 1_555
Ga3 O35 1.858775 1_566
Ga3 O27 1.906505 1_556
Ga3 O11 1.911960 1_556
Ga4 O20 1.853541 1_555
Ga4 O36 1.858775 1_555
Ga4 O28 1.906505 1_555
Ga4 O12 1.911960 1_555
Ga5 O21 1.853541 1_555
Ga5 O37 1.858775 1_565
Ga5 O29 1.906505 1_555
Ga5 O13 1.911960 1_555
Ga6 O22 1.853541 1_555
Ga6 O38 1.858775 1_556
Ga6 O30 1.906505 1_556
Ga6 O14 1.911960 1_556
Ga7 O23 1.853541 1_555
Ga7 O39 1.858775 1_544
Ga7 O31 1.906505 1_554
Ga7 O15 1.911960 1_554
Ga8 O0 1.846645 1_655
Ga8 O29 1.868521 1_655
Ga8 O8 1.900566 1_555
Ga8 O33 1.909253 1_555
Ga9 O1 1.846645 1_555
Ga9 O28 1.868521 1_555
Ga9 O9 1.900566 1_555
Ga9 O32 1.909253 1_555
Ga10 O2 1.846645 1_555
Ga10 O31 1.868521 1_554
Ga10 O10 1.900566 1_554
Ga10 O35 1.909253 1_555
Ga11 O3 1.846645 1_455
Ga11 O30 1.868521 1_456
Ga11 O11 1.900566 1_556
Ga11 O34 1.909253 1_555
Ga12 O4 1.846645 1_455
Ga12 O25 1.868521 1_455
Ga12 O12 1.900566 1_555
Ga12 O37 1.909253 1_555
Ga13 O5 1.846645 1_555
Ga13 O24 1.868521 1_555
Ga13 O13 1.900566 1_555
Ga13 O36 1.909253 1_555
Ga14 O6 1.846645 1_555
Ga14 O27 1.868521 1_556
Ga14 O14 1.900566 1_556
Ga14 O39 1.909253 1_555
Ga15 O7 1.846645 1_655
Ga15 O26 1.868521 1_654
Ga15 O15 1.900566 1_554
Ga15 O38 1.909253 1_555
O0 Sr0 2.497121 1_455
O0 Sr10 2.512034 1_555
O0 Sr15 2.658342 1_455
O0 Sr7 2.710675 1_455
O1 Sr1 2.497121 1_545
O1 Sr11 2.512034 1_555
O1 Sr14 2.658342 1_555
O1 Sr6 2.710675 1_555
O2 Sr2 2.497121 1_555
O2 Sr8 2.512034 1_555
O2 Sr13 2.658342 1_555
O2 Sr5 2.710675 1_555
O3 Sr3 2.497121 1_665
O3 Sr9 2.512034 1_555
O3 Sr12 2.658342 1_655
O3 Sr4 2.710675 1_655
O4 Sr4 2.497121 1_655
O4 Sr14 2.512034 1_555
O4 Sr11 2.658342 1_655
O4 Sr3 2.710675 1_655
O5 Sr5 2.497121 1_565
O5 Sr15 2.512034 1_555
O5 Sr10 2.658342 1_555
O5 Sr2 2.710675 1_555
O6 Sr6 2.497121 1_555
O6 Sr12 2.512034 1_555
O6 Sr9 2.658342 1_555
O6 Sr1 2.710675 1_555
O7 Sr7 2.497121 1_445
O7 Sr13 2.512034 1_555
O7 Sr8 2.658342 1_455
O7 Sr0 2.710675 1_455
O8 Sr4 2.569110 1_655
O8 Sr9 2.660225 1_555
O9 Sr5 2.569110 1_555
O9 Sr8 2.660225 1_555
O10 Sr6 2.569110 1_555
O10 Sr11 2.660225 1_555
O11 Sr7 2.569110 1_455
O11 Sr10 2.660225 1_555
O12 Sr0 2.569110 1_455
O12 Sr13 2.660225 1_555
O13 Sr1 2.569110 1_555
O13 Sr12 2.660225 1_555
O14 Sr2 2.569110 1_555
O14 Sr15 2.660225 1_555
O15 Sr3 2.569110 1_655
O15 Sr14 2.660225 1_555
O16 Sr2 2.561657 1_555
O16 Sr0 2.566141 1_555
O16 Sr15 2.655603 1_555
O16 Sr8 2.677451 1_555
O17 Sr3 2.561657 1_655
O17 Sr1 2.566141 1_545
O17 Sr14 2.655603 1_555
O17 Sr9 2.677451 1_545
O18 Sr0 2.561657 1_455
O18 Sr2 2.566141 1_555
O18 Sr13 2.655603 1_555
O18 Sr10 2.677451 1_555
O19 Sr1 2.561657 1_555
O19 Sr3 2.566141 1_565
O19 Sr12 2.655603 1_555
O19 Sr11 2.677451 1_565
O20 Sr6 2.561657 1_555
O20 Sr4 2.566141 1_555
O20 Sr11 2.655603 1_555
O20 Sr12 2.677451 1_555
O21 Sr7 2.561657 1_455
O21 Sr5 2.566141 1_565
O21 Sr10 2.655603 1_555
O21 Sr13 2.677451 1_565
O22 Sr4 2.561657 1_655
O22 Sr6 2.566141 1_555
O22 Sr9 2.655603 1_555
O22 Sr14 2.677451 1_555
O23 Sr5 2.561657 1_555
O23 Sr7 2.566141 1_545
O23 Sr8 2.655603 1_555
O23 Sr15 2.677451 1_545
O24 Sr9 2.630540 1_555
O24 Sr6 2.658212 1_555
O25 Sr8 2.630540 1_555
O25 Sr7 2.658212 1_545
O26 Sr11 2.630540 1_555
O26 Sr4 2.658212 1_555
O27 Sr10 2.630540 1_555
O27 Sr5 2.658212 1_565
O28 Sr13 2.630540 1_555
O28 Sr2 2.658212 1_555
O29 Sr12 2.630540 1_555
O29 Sr3 2.658212 1_565
O30 Sr15 2.630540 1_555
O30 Sr0 2.658212 1_555
O31 Sr14 2.630540 1_555
O31 Sr1 2.658212 1_545
O32 Sr14 2.589826 1_555
O33 Sr15 2.589826 1_555
O34 Sr12 2.589826 1_555
O35 Sr13 2.589826 1_555
O36 Sr10 2.589826 1_555
O37 Sr11 2.589826 1_555
O38 Sr8 2.589826 1_555
O39 Sr9 2.589826 1_555
