# generated using pymatgen
data_CaMg14CoO16
_symmetry_space_group_name_H-M   'P 1'
_cell_length_a   4.32004800
_cell_length_b   8.57241500
_cell_length_c   8.62382000
_cell_angle_alpha   90.00000000
_cell_angle_beta   90.00000000
_cell_angle_gamma   90.00000000
_symmetry_Int_Tables_number   1
_chemical_formula_structural   CaMg14CoO16
_chemical_formula_sum   'Ca1 Mg14 Co1 O16'
_cell_volume   319.36803265
_cell_formula_units_Z   1
loop_
 _symmetry_equiv_pos_site_id
 _symmetry_equiv_pos_as_xyz
  1  'x, y, z'
loop_
 _atom_site_type_symbol
 _atom_site_label
 _atom_site_symmetry_multiplicity
 _atom_site_fract_x
 _atom_site_fract_y
 _atom_site_fract_z
 _atom_site_occupancy
  Ca  Ca0  1  0.00000000  0.00000000  0.00000000  1
  Mg  Mg0  1  0.00000000  0.00000000  0.50000000  1
  Mg  Mg1  1  0.00000000  0.50000000  0.50000000  1
  Mg  Mg2  1  0.50000000  0.74425500  0.00000000  1
  Mg  Mg3  1  0.50000000  0.25574500  0.00000000  1
  Mg  Mg4  1  0.50000000  0.74886800  0.50000000  1
  Mg  Mg5  1  0.50000000  0.25113200  0.50000000  1
  Mg  Mg6  1  0.50000000  0.00000000  0.74400100  1
  Mg  Mg7  1  0.50000000  0.50000000  0.74952600  1
  Mg  Mg8  1  0.50000000  0.00000000  0.25599900  1
  Mg  Mg9  1  0.50000000  0.50000000  0.25047400  1
  Mg  Mg10  1  0.00000000  0.74559800  0.74650300  1
  Mg  Mg11  1  0.00000000  0.25440200  0.74650300  1
  Mg  Mg12  1  0.00000000  0.74559800  0.25349700  1
  Mg  Mg13  1  0.00000000  0.25440200  0.25349700  1
  Co  Co0  1  0.00000000  0.50000000  0.00000000  1
  O  O0  1  0.00000000  0.00000000  0.73678900  1
  O  O1  1  0.00000000  0.50000000  0.74236400  1
  O  O2  1  0.00000000  0.00000000  0.26321100  1
  O  O3  1  0.00000000  0.50000000  0.25763600  1
  O  O4  1  0.50000000  0.74971400  0.75107700  1
  O  O5  1  0.50000000  0.25028600  0.75107700  1
  O  O6  1  0.50000000  0.74971400  0.24892300  1
  O  O7  1  0.50000000  0.25028600  0.24892300  1
  O  O8  1  0.50000000  0.00000000  0.00000000  1
  O  O9  1  0.50000000  0.50000000  0.00000000  1
  O  O10  1  0.50000000  0.00000000  0.50000000  1
  O  O11  1  0.50000000  0.50000000  0.50000000  1
  O  O12  1  0.00000000  0.73684500  0.00000000  1
  O  O13  1  0.00000000  0.26315500  0.00000000  1
  O  O14  1  0.00000000  0.74819400  0.50000000  1
  O  O15  1  0.00000000  0.25180600  0.50000000  1
loop_
_geom_bond_atom_site_label_1
_geom_bond_atom_site_label_2
_geom_bond_distance
_geom_bond_site_symmetry_2
Ca0 O8 2.160024 1_455
Ca0 O8 2.160024 1_555
Ca0 O13 2.255874 1_555
Ca0 O12 2.255874 1_545
Ca0 O2 2.269884 1_555
Ca0 O0 2.269884 1_554
Mg0 O0 2.042026 1_555
Mg0 O2 2.042026 1_555
Mg0 O15 2.158586 1_555
Mg0 O14 2.158586 1_545
Mg0 O10 2.160024 1_455
Mg0 O10 2.160024 1_555
Mg1 O1 2.090104 1_555
Mg1 O3 2.090104 1_555
Mg1 O14 2.127622 1_555
Mg1 O15 2.127622 1_555
Mg1 O11 2.160024 1_455
Mg1 O11 2.160024 1_555
Mg2 O9 2.093855 1_555
Mg2 O6 2.147177 1_555
Mg2 O4 2.147177 1_554
Mg2 O12 2.160958 1_655
Mg2 O12 2.160958 1_555
Mg2 O8 2.192352 1_565
Mg3 O9 2.093855 1_555
Mg3 O7 2.147177 1_555
Mg3 O5 2.147177 1_554
Mg3 O13 2.160958 1_555
Mg3 O13 2.160958 1_655
Mg3 O8 2.192352 1_555
Mg4 O11 2.133400 1_555
Mg4 O10 2.152808 1_565
Mg4 O14 2.160032 1_555
Mg4 O14 2.160032 1_655
Mg4 O4 2.165255 1_555
Mg4 O6 2.165255 1_555
Mg5 O11 2.133400 1_555
Mg5 O10 2.152808 1_555
Mg5 O15 2.160032 1_555
Mg5 O15 2.160032 1_655
Mg5 O5 2.165255 1_555
Mg5 O7 2.165255 1_555
Mg6 O10 2.104221 1_555
Mg6 O5 2.146423 1_555
Mg6 O4 2.146423 1_545
Mg6 O0 2.160919 1_555
Mg6 O0 2.160919 1_655
Mg6 O8 2.207689 1_556
Mg7 O5 2.140694 1_555
Mg7 O4 2.140694 1_555
Mg7 O11 2.151867 1_555
Mg7 O9 2.160043 1_556
Mg7 O1 2.160907 1_555
Mg7 O1 2.160907 1_655
Mg8 O10 2.104221 1_555
Mg8 O7 2.146423 1_555
Mg8 O6 2.146423 1_545
Mg8 O2 2.160919 1_655
Mg8 O2 2.160919 1_555
Mg8 O8 2.207689 1_555
Mg9 O6 2.140694 1_555
Mg9 O7 2.140694 1_555
Mg9 O11 2.151867 1_555
Mg9 O9 2.160043 1_555
Mg9 O3 2.160907 1_555
Mg9 O3 2.160907 1_655
Mg10 O1 2.105671 1_555
Mg10 O14 2.125914 1_555
Mg10 O4 2.160672 1_455
Mg10 O4 2.160672 1_555
Mg10 O0 2.182448 1_565
Mg10 O12 2.187400 1_556
Mg11 O1 2.105671 1_555
Mg11 O15 2.125914 1_555
Mg11 O5 2.160672 1_455
Mg11 O5 2.160672 1_555
Mg11 O0 2.182448 1_555
Mg11 O13 2.187400 1_556
Mg12 O3 2.105671 1_555
Mg12 O14 2.125914 1_555
Mg12 O6 2.160672 1_555
Mg12 O6 2.160672 1_455
Mg12 O2 2.182448 1_565
Mg12 O12 2.187400 1_555
Mg13 O3 2.105671 1_555
Mg13 O15 2.125914 1_555
Mg13 O7 2.160672 1_555
Mg13 O7 2.160672 1_455
Mg13 O2 2.182448 1_555
Mg13 O13 2.187400 1_555
Co0 O12 2.030334 1_555
Co0 O13 2.030334 1_555
Co0 O9 2.160024 1_555
Co0 O9 2.160024 1_455
Co0 O3 2.221806 1_555
Co0 O1 2.221806 1_554
