# generated using pymatgen
data_Y3In5
_symmetry_space_group_name_H-M   'P 1'
_cell_length_a   6.80407300
_cell_length_b   10.97281700
_cell_length_c   12.71443800
_cell_angle_alpha   90.00000000
_cell_angle_beta   90.00000000
_cell_angle_gamma   90.00000000
_symmetry_Int_Tables_number   1
_chemical_formula_structural   Y3In5
_chemical_formula_sum   'Y12 In20'
_cell_volume   949.25800701
_cell_formula_units_Z   4
loop_
 _symmetry_equiv_pos_site_id
 _symmetry_equiv_pos_as_xyz
  1  'x, y, z'
loop_
 _atom_site_type_symbol
 _atom_site_label
 _atom_site_symmetry_multiplicity
 _atom_site_fract_x
 _atom_site_fract_y
 _atom_site_fract_z
 _atom_site_occupancy
  Y  Y0  1  0.34727100  0.75000000  0.05593900  1
  Y  Y1  1  0.15272900  0.75000000  0.55593900  1
  Y  Y2  1  0.65272900  0.25000000  0.94406100  1
  Y  Y3  1  0.84727100  0.25000000  0.44406100  1
  Y  Y4  1  0.89199900  0.49721200  0.14348100  1
  Y  Y5  1  0.60800100  0.00278800  0.64348100  1
  Y  Y6  1  0.10800100  0.99721200  0.85651900  1
  Y  Y7  1  0.39199900  0.50278800  0.35651900  1
  Y  Y8  1  0.10800100  0.50278800  0.85651900  1
  Y  Y9  1  0.39199900  0.99721200  0.35651900  1
  Y  Y10  1  0.89199900  0.00278800  0.14348100  1
  Y  Y11  1  0.60800100  0.49721200  0.64348100  1
  In  In0  1  0.62030800  0.75000000  0.50261100  1
  In  In1  1  0.87969200  0.75000000  0.00261100  1
  In  In2  1  0.37969200  0.25000000  0.49738900  1
  In  In3  1  0.12030800  0.25000000  0.99738900  1
  In  In4  1  0.65127900  0.75000000  0.24934700  1
  In  In5  1  0.84872100  0.75000000  0.74934700  1
  In  In6  1  0.34872100  0.25000000  0.75065300  1
  In  In7  1  0.15127900  0.25000000  0.25065300  1
  In  In8  1  0.12603800  0.75000000  0.28765800  1
  In  In9  1  0.37396200  0.75000000  0.78765800  1
  In  In10  1  0.87396200  0.25000000  0.71234200  1
  In  In11  1  0.62603800  0.25000000  0.21234200  1
  In  In12  1  0.87577700  0.54457800  0.40323200  1
  In  In13  1  0.62422300  0.95542200  0.90323200  1
  In  In14  1  0.12422300  0.04457800  0.59676800  1
  In  In15  1  0.37577700  0.45542200  0.09676800  1
  In  In16  1  0.12422300  0.45542200  0.59676800  1
  In  In17  1  0.37577700  0.04457800  0.09676800  1
  In  In18  1  0.87577700  0.95542200  0.40323200  1
  In  In19  1  0.62422300  0.54457800  0.90323200  1
loop_
_geom_bond_atom_site_label_1
_geom_bond_atom_site_label_2
_geom_bond_distance
_geom_bond_site_symmetry_2
In0 In12 3.114285 1_555
In0 In18 3.114285 1_555
In0 Y1 3.252892 1_555
In0 Y5 3.302868 1_565
In0 Y11 3.302868 1_555
In0 Y9 3.636157 1_555
In0 Y7 3.636157 1_555
In0 Y1 3.685538 1_655
In1 In19 3.114285 1_554
In1 In13 3.114285 1_554
In1 Y0 3.252892 1_655
In1 Y10 3.302868 1_565
In1 Y4 3.302868 1_555
In1 Y8 3.636157 1_654
In1 Y6 3.636157 1_654
In1 Y0 3.685538 1_555
In2 Y3 3.252892 1_555
In2 Y7 3.302868 1_555
In2 Y9 3.302868 1_545
In2 Y11 3.636157 1_555
In2 Y5 3.636157 1_555
In2 Y3 3.685538 1_455
In3 Y2 3.252892 1_455
In3 Y6 3.302868 1_545
In3 Y8 3.302868 1_555
In3 Y4 3.636157 1_456
In3 Y10 3.636157 1_456
In3 Y2 3.685538 1_555
In4 Y0 3.213364 1_555
In4 In8 3.266814 1_655
In4 Y10 3.491185 1_565
In4 Y4 3.491185 1_555
In4 Y7 3.511024 1_555
In4 Y9 3.511024 1_555
In5 Y1 3.213364 1_655
In5 In9 3.266814 1_555
In5 Y5 3.491185 1_565
In5 Y11 3.491185 1_555
In5 Y6 3.511024 1_655
In5 Y8 3.511024 1_655
In6 Y2 3.213364 1_555
In6 Y8 3.491185 1_555
In6 Y6 3.491185 1_545
In6 Y11 3.511024 1_555
In6 Y5 3.511024 1_555
In7 Y3 3.213364 1_455
In7 Y7 3.491185 1_555
In7 Y9 3.491185 1_545
In7 Y4 3.511024 1_455
In7 Y10 3.511024 1_455
In8 Y0 3.308450 1_555
In8 Y7 3.376319 1_555
In8 Y9 3.376319 1_555
In8 Y1 3.415873 1_555
In8 Y10 3.686476 1_465
In8 Y4 3.686476 1_455
In9 Y1 3.308450 1_555
In9 Y6 3.376319 1_555
In9 Y8 3.376319 1_555
In9 Y0 3.415873 1_556
In9 Y5 3.686476 1_565
In9 Y11 3.686476 1_555
In10 In16 3.184273 1_655
In10 In14 3.184273 1_655
In10 In6 3.266814 1_655
In10 Y2 3.308450 1_555
In10 Y11 3.376319 1_555
In10 Y5 3.376319 1_555
In10 Y3 3.415873 1_555
In10 Y6 3.686476 1_645
In10 Y8 3.686476 1_655
In11 In15 3.184273 1_555
In11 In17 3.184273 1_555
In11 In7 3.266814 1_555
In11 Y3 3.308450 1_555
In11 Y4 3.376319 1_555
In11 Y10 3.376319 1_555
In11 Y2 3.415873 1_554
In11 Y7 3.686476 1_555
In11 Y9 3.686476 1_545
In12 In16 3.141610 1_655
In12 In8 3.184273 1_655
In12 Y3 3.279511 1_555
In12 Y4 3.345056 1_555
In12 In4 3.352934 1_555
In12 Y7 3.376101 1_555
In12 Y1 3.521576 1_655
In12 Y7 3.591666 1_655
In12 Y11 3.594505 1_555
In13 In17 3.141610 1_566
In13 In9 3.184273 1_555
In13 Y2 3.279511 1_565
In13 Y5 3.345056 1_565
In13 In5 3.352934 1_555
In13 Y6 3.376101 1_655
In13 Y0 3.521576 1_556
In13 Y6 3.591666 1_555
In13 Y10 3.594505 1_566
In14 In2 3.114285 1_555
In14 In18 3.141610 1_445
In14 Y1 3.279511 1_545
In14 Y6 3.345056 1_545
In14 In6 3.352934 1_555
In14 Y5 3.376101 1_555
In14 Y3 3.521576 1_455
In14 Y5 3.591666 1_455
In14 Y9 3.594505 1_545
In15 In3 3.114285 1_554
In15 In19 3.141610 1_554
In15 Y0 3.279511 1_555
In15 Y7 3.345056 1_555
In15 In7 3.352934 1_555
In15 Y4 3.376101 1_455
In15 Y2 3.521576 1_554
In15 Y4 3.591666 1_555
In15 Y8 3.594505 1_554
In16 In2 3.114285 1_555
In16 Y1 3.279511 1_555
In16 Y8 3.345056 1_555
In16 In6 3.352934 1_555
In16 Y11 3.376101 1_555
In16 Y3 3.521576 1_455
In16 Y11 3.591666 1_455
In16 Y7 3.594505 1_555
In17 In3 3.114285 1_554
In17 Y0 3.279511 1_545
In17 Y9 3.345056 1_545
In17 In7 3.352934 1_555
In17 Y10 3.376101 1_455
In17 Y2 3.521576 1_554
In17 Y10 3.591666 1_555
In17 Y6 3.594505 1_544
In18 In8 3.184273 1_655
In18 Y3 3.279511 1_565
In18 Y10 3.345056 1_565
In18 In4 3.352934 1_555
In18 Y9 3.376101 1_555
In18 Y1 3.521576 1_655
In18 Y9 3.591666 1_655
In18 Y5 3.594505 1_565
In19 In9 3.184273 1_555
In19 Y2 3.279511 1_555
In19 Y11 3.345056 1_555
In19 In5 3.352934 1_555
In19 Y8 3.376101 1_655
In19 Y0 3.521576 1_556
In19 Y8 3.591666 1_555
In19 Y4 3.594505 1_556
