# generated using pymatgen
data_Y5(SiN3)3
_symmetry_space_group_name_H-M   'P 1'
_cell_length_a   7.55293862
_cell_length_b   10.98972971
_cell_length_c   15.42243800
_cell_angle_alpha   90.00000000
_cell_angle_beta   90.00000000
_cell_angle_gamma   136.67833929
_symmetry_Int_Tables_number   1
_chemical_formula_structural   Y5(SiN3)3
_chemical_formula_sum   'Y20 Si12 N36'
_cell_volume   878.29268552
_cell_formula_units_Z   4
loop_
 _symmetry_equiv_pos_site_id
 _symmetry_equiv_pos_as_xyz
  1  'x, y, z'
loop_
 _atom_site_type_symbol
 _atom_site_label
 _atom_site_symmetry_multiplicity
 _atom_site_fract_x
 _atom_site_fract_y
 _atom_site_fract_z
 _atom_site_occupancy
  Y  Y0  1  0.00000000  0.49677600  0.83122700  1
  Y  Y1  1  0.00000000  0.50322400  0.16877300  1
  Y  Y2  1  0.00000000  0.00322400  0.33122700  1
  Y  Y3  1  0.00000000  0.99677600  0.66877300  1
  Y  Y4  1  0.41137200  0.96953800  0.86917900  1
  Y  Y5  1  0.41137200  0.44183400  0.13082100  1
  Y  Y6  1  0.41137200  0.94183400  0.36917900  1
  Y  Y7  1  0.41137200  0.46953800  0.63082100  1
  Y  Y8  1  0.58862800  0.03046200  0.13082100  1
  Y  Y9  1  0.58862800  0.55816600  0.86917900  1
  Y  Y10  1  0.58862800  0.05816600  0.63082100  1
  Y  Y11  1  0.58862800  0.53046200  0.36917900  1
  Y  Y12  1  0.00000000  0.51026900  0.60942600  1
  Y  Y13  1  0.00000000  0.48973100  0.39057400  1
  Y  Y14  1  0.00000000  0.98973100  0.10942600  1
  Y  Y15  1  0.00000000  0.01026900  0.89057400  1
  Y  Y16  1  0.58622400  0.29311200  0.00000000  1
  Y  Y17  1  0.58622400  0.79311200  0.50000000  1
  Y  Y18  1  0.41377600  0.70688800  0.00000000  1
  Y  Y19  1  0.41377600  0.20688800  0.50000000  1
  Si  Si0  1  0.00000000  0.75667300  0.01561100  1
  Si  Si1  1  0.00000000  0.24332700  0.98438900  1
  Si  Si2  1  0.00000000  0.74332700  0.51561100  1
  Si  Si3  1  0.00000000  0.25667300  0.48438900  1
  Si  Si4  1  0.00000000  0.23748700  0.77595900  1
  Si  Si5  1  0.00000000  0.76251300  0.22404100  1
  Si  Si6  1  0.00000000  0.26251300  0.27595900  1
  Si  Si7  1  0.00000000  0.73748700  0.72404100  1
  Si  Si8  1  0.50000000  0.78749000  0.75000000  1
  Si  Si9  1  0.50000000  0.71251000  0.25000000  1
  Si  Si10  1  0.50000000  0.21251000  0.25000000  1
  Si  Si11  1  0.50000000  0.28749000  0.75000000  1
  N  N0  1  0.00000000  0.35193900  0.70027800  1
  N  N1  1  0.00000000  0.64806100  0.29972200  1
  N  N2  1  0.00000000  0.14806100  0.20027800  1
  N  N3  1  0.00000000  0.85193900  0.79972200  1
  N  N4  1  0.00000000  0.29395100  0.87902700  1
  N  N5  1  0.00000000  0.70604900  0.12097300  1
  N  N6  1  0.00000000  0.20604900  0.37902700  1
  N  N7  1  0.00000000  0.79395100  0.62097300  1
  N  N8  1  0.00000000  0.63384700  0.94422800  1
  N  N9  1  0.00000000  0.36615300  0.05577200  1
  N  N10  1  0.00000000  0.86615300  0.44422800  1
  N  N11  1  0.00000000  0.13384700  0.55577200  1
  N  N12  1  0.74723200  0.51412800  0.73822500  1
  N  N13  1  0.74723200  0.23310400  0.26177500  1
  N  N14  1  0.74723200  0.73310400  0.23822500  1
  N  N15  1  0.74723200  0.01412800  0.76177500  1
  N  N16  1  0.25276800  0.48587200  0.26177500  1
  N  N17  1  0.25276800  0.76689600  0.73822500  1
  N  N18  1  0.25276800  0.26689600  0.76177500  1
  N  N19  1  0.25276800  0.98587200  0.23822500  1
  N  N20  1  0.53803800  0.23252600  0.84810500  1
  N  N21  1  0.53803800  0.30551200  0.15189500  1
  N  N22  1  0.53803800  0.80551200  0.34810500  1
  N  N23  1  0.53803800  0.73252600  0.65189500  1
  N  N24  1  0.46196200  0.76747400  0.15189500  1
  N  N25  1  0.46196200  0.69448800  0.84810500  1
  N  N26  1  0.46196200  0.19448800  0.65189500  1
  N  N27  1  0.46196200  0.26747400  0.34810500  1
  N  N28  1  0.26828700  0.98922400  0.00230800  1
  N  N29  1  0.26828700  0.27906300  0.99769200  1
  N  N30  1  0.26828700  0.77906300  0.50230800  1
  N  N31  1  0.26828700  0.48922400  0.49769200  1
  N  N32  1  0.73171300  0.01077600  0.99769200  1
  N  N33  1  0.73171300  0.72093700  0.00230800  1
  N  N34  1  0.73171300  0.22093700  0.49769200  1
  N  N35  1  0.73171300  0.51077600  0.50230800  1
loop_
_geom_bond_atom_site_label_1
_geom_bond_atom_site_label_2
_geom_bond_distance
_geom_bond_site_symmetry_2
N0 Si4 1.715918 1_555
N0 Y12 2.234024 1_555
N0 Y0 2.571413 1_555
N0 Y7 2.574664 1_555
N0 Y10 2.574664 1_455
N1 Si5 1.715918 1_555
N1 Y13 2.234024 1_555
N1 Y1 2.571413 1_555
N1 Y11 2.574664 1_455
N1 Y6 2.574664 1_555
N2 Si6 1.715918 1_555
N2 Y14 2.234024 1_545
N2 Y2 2.571413 1_555
N2 Y8 2.574664 1_455
N2 Y5 2.574664 1_555
N3 Si7 1.715918 1_555
N3 Y15 2.234024 1_565
N3 Y3 2.571413 1_555
N3 Y4 2.574664 1_555
N3 Y9 2.574664 1_455
N4 Si4 1.706385 1_555
N4 Si1 1.717540 1_555
N4 Y0 2.347735 1_555
N4 Y9 3.071923 1_555
N4 Y4 3.071923 1_445
N5 Si5 1.706385 1_555
N5 Si0 1.717540 1_555
N5 Y1 2.347735 1_555
N5 Y5 3.071923 1_455
N5 Y8 3.071923 1_565
N6 Si6 1.706385 1_555
N6 Si3 1.717540 1_555
N6 Y2 2.347735 1_555
N6 Y6 3.071923 1_445
N6 Y11 3.071923 1_555
N7 Si7 1.706385 1_555
N7 Si2 1.717540 1_555
N7 Y3 2.347735 1_555
N7 Y10 3.071923 1_565
N7 Y7 3.071923 1_455
N8 Si0 1.741840 1_556
N8 Y0 2.303550 1_555
N8 Y18 2.738812 1_556
N8 Y16 2.738812 1_456
N8 Y9 2.815176 1_455
N8 Y4 2.815176 1_555
N9 Si1 1.741840 1_554
N9 Y1 2.303550 1_555
N9 Y16 2.738812 1_455
N9 Y18 2.738812 1_555
N9 Y5 2.815176 1_555
N9 Y8 2.815176 1_455
N10 Si2 1.741840 1_555
N10 Y2 2.303550 1_565
N10 Y17 2.738812 1_455
N10 Y19 2.738812 1_565
N10 Y6 2.815176 1_555
N10 Y11 2.815176 1_455
N11 Si3 1.741840 1_555
N11 Y3 2.303550 1_545
N11 Y19 2.738812 1_555
N11 Y17 2.738812 1_445
N11 Y10 2.815176 1_455
N11 Y7 2.815176 1_555
N12 Si7 1.702744 1_655
N12 Si11 1.719359 1_555
N12 Y0 2.503631 1_655
N12 Y9 2.567433 1_555
N12 Y7 2.758656 1_555
N13 Si6 1.702744 1_655
N13 Si10 1.719358 1_555
N13 Y1 2.503632 1_655
N13 Y8 2.567434 1_555
N13 Y6 2.758656 1_545
N14 Si5 1.702744 1_655
N14 Si9 1.719358 1_555
N14 Y2 2.503632 1_665
N14 Y11 2.567434 1_555
N14 Y5 2.758656 1_555
N15 Si4 1.702744 1_655
N15 Si8 1.719359 1_545
N15 Y3 2.503631 1_645
N15 Y10 2.567433 1_555
N15 Y4 2.758656 1_545
N16 Si6 1.702744 1_555
N16 Si9 1.719359 1_555
N16 Y1 2.503631 1_555
N16 Y5 2.567433 1_555
N16 Y11 2.758656 1_555
N17 Si7 1.702744 1_555
N17 Si8 1.719358 1_555
N17 Y0 2.503632 1_555
N17 Y4 2.567434 1_555
N17 Y10 2.758656 1_565
N18 Si4 1.702744 1_555
N18 Si11 1.719358 1_555
N18 Y3 2.503632 1_545
N18 Y7 2.567434 1_555
N18 Y9 2.758656 1_555
N19 Si5 1.702744 1_555
N19 Si10 1.719359 1_565
N19 Y2 2.503631 1_565
N19 Y6 2.567433 1_555
N19 Y8 2.758656 1_565
N20 Si11 1.728911 1_555
N20 Y4 2.313177 1_545
N20 Y16 2.389754 1_556
N20 Y0 2.435606 1_655
N21 Si10 1.728911 1_555
N21 Y5 2.313177 1_555
N21 Y16 2.389754 1_555
N21 Y1 2.435606 1_655
N22 Si9 1.728911 1_555
N22 Y6 2.313177 1_555
N22 Y17 2.389754 1_555
N22 Y2 2.435606 1_665
N23 Si8 1.728911 1_555
N23 Y7 2.313177 1_555
N23 Y17 2.389754 1_555
N23 Y3 2.435606 1_655
N24 Si9 1.728911 1_555
N24 Y8 2.313177 1_565
N24 Y18 2.389754 1_555
N24 Y1 2.435606 1_555
N25 Si8 1.728911 1_555
N25 Y9 2.313177 1_555
N25 Y18 2.389754 1_556
N25 Y0 2.435606 1_555
N26 Si11 1.728911 1_555
N26 Y10 2.313177 1_555
N26 Y19 2.389754 1_555
N26 Y3 2.435606 1_545
N27 Si10 1.728911 1_555
N27 Y11 2.313177 1_555
N27 Y19 2.389754 1_555
N27 Y2 2.435606 1_555
N28 Si0 1.773280 1_555
N28 Y16 2.291761 1_565
N28 Y4 2.402178 1_554
N28 Y14 2.617584 1_555
N28 Y15 2.794810 1_564
N28 Y8 2.896938 1_565
N29 Si1 1.773280 1_555
N29 Y16 2.291761 1_556
N29 Y5 2.402178 1_556
N29 Y15 2.617584 1_555
N29 Y14 2.794810 1_546
N29 Y9 2.896938 1_555
N30 Si2 1.773280 1_555
N30 Y17 2.291761 1_555
N30 Y6 2.402178 1_555
N30 Y12 2.617584 1_555
N30 Y13 2.794810 1_555
N30 Y10 2.896938 1_565
N31 Si3 1.773280 1_555
N31 Y17 2.291761 1_555
N31 Y7 2.402178 1_555
N31 Y13 2.617584 1_555
N31 Y12 2.794810 1_555
N31 Y11 2.896938 1_555
N32 Si1 1.773280 1_655
N32 Y18 2.291761 1_546
N32 Y8 2.402178 1_556
N32 Y15 2.617584 1_655
N32 Y14 2.794810 1_646
N32 Y4 2.896938 1_545
N33 Si0 1.773280 1_655
N33 Y18 2.291761 1_555
N33 Y9 2.402178 1_554
N33 Y14 2.617584 1_655
N33 Y15 2.794810 1_664
N33 Y5 2.896938 1_555
N34 Si3 1.773280 1_655
N34 Y19 2.291761 1_555
N34 Y10 2.402178 1_555
N34 Y13 2.617584 1_655
N34 Y12 2.794810 1_655
N34 Y6 2.896938 1_545
N35 Si2 1.773280 1_655
N35 Y19 2.291761 1_555
N35 Y11 2.402178 1_555
N35 Y12 2.617584 1_655
N35 Y13 2.794810 1_655
N35 Y7 2.896938 1_555
