# generated using pymatgen
data_Y(CoO2)3
_symmetry_space_group_name_H-M   'P 1'
_cell_length_a   5.73989800
_cell_length_b   6.17120272
_cell_length_c   15.11891091
_cell_angle_alpha   98.93979751
_cell_angle_beta   86.96379877
_cell_angle_gamma   114.94632231
_symmetry_Int_Tables_number   1
_chemical_formula_structural   Y(CoO2)3
_chemical_formula_sum   'Y4 Co12 O24'
_cell_volume   479.63277919
_cell_formula_units_Z   4
loop_
 _symmetry_equiv_pos_site_id
 _symmetry_equiv_pos_as_xyz
  1  'x, y, z'
loop_
 _atom_site_type_symbol
 _atom_site_label
 _atom_site_symmetry_multiplicity
 _atom_site_fract_x
 _atom_site_fract_y
 _atom_site_fract_z
 _atom_site_occupancy
  Y  Y0  1  0.33489000  0.66898600  0.45645000  1
  Y  Y1  1  0.96515500  0.98467400  0.12307900  1
  Y  Y2  1  0.66511000  0.33101400  0.54355000  1
  Y  Y3  1  0.03484500  0.01532600  0.87692100  1
  Co  Co0  1  0.31857000  0.17921900  0.33875200  1
  Co  Co1  1  0.68143000  0.82078100  0.66124800  1
  Co  Co2  1  0.00000000  0.50000000  0.00000000  1
  Co  Co3  1  0.81466000  0.16336000  0.33358700  1
  Co  Co4  1  0.18534000  0.83664000  0.66641300  1
  Co  Co5  1  0.50000000  0.50000000  0.00000000  1
  Co  Co6  1  0.59220300  0.32860500  0.16535100  1
  Co  Co7  1  0.00000000  0.00000000  0.50000000  1
  Co  Co8  1  0.40779700  0.67139500  0.83464900  1
  Co  Co9  1  0.84469700  0.64018600  0.32099700  1
  Co  Co10  1  0.15530300  0.35981400  0.67900300  1
  Co  Co11  1  0.50000000  0.00000000  0.00000000  1
  O  O0  1  0.89266400  0.44287000  0.41082600  1
  O  O1  1  0.16080900  0.09085900  0.73664400  1
  O  O2  1  0.53299400  0.79079600  0.07067500  1
  O  O3  1  0.33917500  0.09033300  0.21895100  1
  O  O4  1  0.70552800  0.71541700  0.54073100  1
  O  O5  1  0.16606700  0.43709900  0.89980400  1
  O  O6  1  0.83919100  0.90914100  0.26335600  1
  O  O7  1  0.10733600  0.55713000  0.58917400  1
  O  O8  1  0.46700600  0.20920400  0.92932500  1
  O  O9  1  0.29447200  0.28458300  0.45926900  1
  O  O10  1  0.66082500  0.90966700  0.78104900  1
  O  O11  1  0.83393300  0.56290100  0.10019600  1
  O  O12  1  0.16282100  0.86840200  0.37664000  1
  O  O13  1  0.51119700  0.49162500  0.67138400  1
  O  O14  1  0.86517600  0.16834400  0.00711000  1
  O  O15  1  0.72418800  0.00947500  0.43525600  1
  O  O16  1  0.14455100  0.65662300  0.76038900  1
  O  O17  1  0.34694800  0.30485600  0.09169700  1
  O  O18  1  0.85544900  0.34337700  0.23961100  1
  O  O19  1  0.27581200  0.99052500  0.56474400  1
  O  O20  1  0.65305200  0.69514400  0.90830300  1
  O  O21  1  0.48880300  0.50837500  0.32861600  1
  O  O22  1  0.83717900  0.13159800  0.62336000  1
  O  O23  1  0.13482400  0.83165600  0.99289000  1
loop_
_geom_bond_atom_site_label_1
_geom_bond_atom_site_label_2
_geom_bond_distance
_geom_bond_site_symmetry_2
Co0 O3 1.821754 1_555
Co0 O9 1.855497 1_555
Co0 O21 1.873766 1_555
Co0 O12 1.909782 1_545
Co1 O10 1.821754 1_555
Co1 O4 1.855497 1_555
Co1 O13 1.873766 1_555
Co1 O22 1.909782 1_565
Co2 O11 1.824957 1_455
Co2 O5 1.824957 1_554
Co2 O23 1.876958 1_554
Co2 O14 1.876958 1_455
Co3 O6 1.805908 1_545
Co3 O0 1.821364 1_555
Co3 O15 1.867456 1_555
Co3 O18 1.882445 1_555
Co4 O1 1.805908 1_565
Co4 O7 1.821364 1_555
Co4 O19 1.867456 1_555
Co4 O16 1.882445 1_555
Co5 O2 1.880655 1_555
Co5 O8 1.880655 1_554
Co5 O20 1.908264 1_554
Co5 O17 1.908264 1_555
Co5 O11 2.369932 1_555
Co5 O5 2.369932 1_554
Co6 O17 1.784530 1_555
Co6 O3 1.836412 1_555
Co6 O18 1.893061 1_555
Co6 O11 1.895183 1_555
Co7 O19 1.930784 1_545
Co7 O15 1.930784 1_455
Co7 O9 2.010550 1_555
Co7 O4 2.010550 1_445
Co7 O12 2.235238 1_545
Co7 O22 2.235238 1_455
Co8 O20 1.784530 1_555
Co8 O10 1.836412 1_555
Co8 O16 1.893061 1_555
Co8 O5 1.895183 1_555
Co9 O21 1.857542 1_555
Co9 O12 1.910677 1_655
Co9 O6 2.003004 1_555
Co9 O0 2.058983 1_555
Co9 O18 2.063907 1_555
Co10 O13 1.857542 1_555
Co10 O22 1.910677 1_455
Co10 O1 2.003004 1_555
Co10 O7 2.058983 1_555
Co10 O16 2.063907 1_555
Co11 O8 1.871051 1_554
Co11 O2 1.871051 1_545
Co11 O14 1.907000 1_555
Co11 O23 1.907000 1_544
Co11 O17 2.586056 1_555
Co11 O20 2.586056 1_544
O0 Y2 2.366730 1_555
O0 Y0 2.400960 1_655
O1 Y3 2.257984 1_555
O2 Y1 2.371175 1_555
O3 Y1 2.447480 1_445
O4 Y2 2.291123 1_555
O4 Y0 2.427181 1_555
O5 Y3 2.357079 1_555
O6 Y1 2.257984 1_555
O7 Y0 2.366730 1_555
O7 Y2 2.400960 1_455
O8 Y3 2.371175 1_555
O9 Y0 2.291123 1_555
O9 Y2 2.427181 1_555
O10 Y3 2.447480 1_665
O11 Y1 2.357079 1_555
O12 Y0 2.357742 1_555
O13 Y2 2.336802 1_555
O14 Y3 2.389445 1_654
O14 Y1 2.441545 1_545
O15 Y0 2.384059 1_545
O15 Y2 2.496425 1_555
O16 Y3 2.871748 1_565
O17 Y1 2.336750 1_445
O18 Y1 2.871748 1_545
O19 Y2 2.384059 1_565
O19 Y0 2.496425 1_555
O20 Y3 2.336750 1_665
O21 Y0 2.336802 1_555
O22 Y2 2.357742 1_555
O23 Y1 2.389445 1_456
O23 Y3 2.441545 1_565
