# generated using pymatgen
data_InSnCl3
_symmetry_space_group_name_H-M   'P 1'
_cell_length_a   11.97861142
_cell_length_b   11.57359828
_cell_length_c   11.43199059
_cell_angle_alpha   62.75254982
_cell_angle_beta   59.20202012
_cell_angle_gamma   58.04543006
_symmetry_Int_Tables_number   1
_chemical_formula_structural   InSnCl3
_chemical_formula_sum   'In8 Sn8 Cl24'
_cell_volume   1116.47835406
_cell_formula_units_Z   8
loop_
 _symmetry_equiv_pos_site_id
 _symmetry_equiv_pos_as_xyz
  1  'x, y, z'
loop_
 _atom_site_type_symbol
 _atom_site_label
 _atom_site_symmetry_multiplicity
 _atom_site_fract_x
 _atom_site_fract_y
 _atom_site_fract_z
 _atom_site_occupancy
  In  In0  1  0.00024700  0.50079200  0.49920800  1
  In  In1  1  0.50079200  0.00024700  0.99975300  1
  In  In2  1  0.65096500  0.01824200  0.34903500  1
  In  In3  1  0.47682000  0.52255400  0.85383600  1
  In  In4  1  0.14616400  0.85321000  0.52318000  1
  In  In5  1  0.01824200  0.65096500  0.98175800  1
  In  In6  1  0.52255400  0.47682000  0.14679000  1
  In  In7  1  0.85321000  0.14616400  0.47744600  1
  Sn  Sn0  1  0.64976600  0.64976600  0.35023400  1
  Sn  Sn1  1  0.36929300  0.36929300  0.63070700  1
  Sn  Sn2  1  0.14594500  0.84240100  0.15759900  1
  Sn  Sn3  1  0.84240100  0.14594500  0.85405500  1
  Sn  Sn4  1  0.75024500  0.75024500  0.74975500  1
  Sn  Sn5  1  0.25024500  0.25024500  0.24975500  1
  Sn  Sn6  1  0.99235200  0.33038500  0.00764800  1
  Sn  Sn7  1  0.33038500  0.99235200  0.66961500  1
  Cl  Cl0  1  0.92966900  0.83295100  0.43458800  1
  Cl  Cl1  1  0.81013400  0.43256800  0.84410800  1
  Cl  Cl2  1  0.41998100  0.93879700  0.34938200  1
  Cl  Cl3  1  0.29211700  0.33538500  0.93839600  1
  Cl  Cl4  1  0.65061800  0.70815900  0.58001900  1
  Cl  Cl5  1  0.06160400  0.56589900  0.70788300  1
  Cl  Cl6  1  0.56541200  0.19720800  0.07033100  1
  Cl  Cl7  1  0.15589200  0.08681000  0.18986600  1
  Cl  Cl8  1  0.08681000  0.15589200  0.56743200  1
  Cl  Cl9  1  0.19720800  0.56541200  0.16704900  1
  Cl  Cl10  1  0.56589900  0.06160400  0.66461400  1
  Cl  Cl11  1  0.70815900  0.65061800  0.06120300  1
  Cl  Cl12  1  0.33538500  0.29211700  0.43410100  1
  Cl  Cl13  1  0.93879700  0.41998100  0.29184100  1
  Cl  Cl14  1  0.43256800  0.81013400  0.91319000  1
  Cl  Cl15  1  0.83295100  0.92966900  0.80279200  1
  Cl  Cl16  1  0.18565500  0.18565500  0.81434500  1
  Cl  Cl17  1  0.81028300  0.81028300  0.18971700  1
  Cl  Cl18  1  0.69452800  0.31015100  0.68984900  1
  Cl  Cl19  1  0.31015100  0.69452800  0.30547200  1
  Cl  Cl20  1  0.87930600  0.14150100  0.12069400  1
  Cl  Cl21  1  0.38552500  0.61022200  0.61447500  1
  Cl  Cl22  1  0.14150100  0.87930600  0.85849900  1
  Cl  Cl23  1  0.61022200  0.38552500  0.38977800  1
loop_
_geom_bond_atom_site_label_1
_geom_bond_atom_site_label_2
_geom_bond_distance
_geom_bond_site_symmetry_2
Cl0 Sn2 2.886654 1_655
Cl0 Sn4 3.099503 1_555
Cl1 Sn6 3.013329 1_556
Cl1 Sn3 3.083662 1_555
Cl1 Sn4 3.092756 1_555
Cl2 Sn0 3.002969 1_555
Cl2 Sn5 3.046092 1_565
Cl3 Sn1 3.028455 1_555
Cl3 Sn5 3.061955 1_556
Cl4 Sn0 3.002962 1_555
Cl4 Sn4 3.046100 1_555
Cl5 Sn1 3.028457 1_555
Cl5 Sn4 3.061954 1_455
Cl6 Sn3 2.886654 1_554
Cl6 Sn5 3.099503 1_555
Cl7 Sn6 3.013329 1_455
Cl7 Sn2 3.083662 1_545
Cl7 Sn5 3.092756 1_555
Cl8 Sn7 3.013329 1_545
Cl8 Sn3 3.083662 1_455
Cl8 Sn5 3.092756 1_555
Cl9 Sn2 2.886654 1_555
Cl9 Sn5 3.099503 1_555
Cl10 Sn1 3.028457 1_555
Cl10 Sn4 3.061954 1_545
Cl11 Sn0 3.002973 1_555
Cl11 Sn4 3.046089 1_554
Cl12 Sn1 3.028466 1_555
Cl12 Sn5 3.061944 1_555
Cl13 Sn0 3.002969 1_555
Cl13 Sn5 3.046090 1_655
Cl14 Sn7 3.013329 1_555
Cl14 Sn2 3.083662 1_556
Cl14 Sn4 3.092756 1_555
Cl15 Sn3 2.886654 1_565
Cl15 Sn4 3.099503 1_555
Cl16 Sn7 2.663621 1_545
Cl16 Sn6 2.663621 1_456
Cl16 Sn1 3.146002 1_555
Cl17 Sn0 2.749904 1_555
Cl17 In5 2.888737 1_654
Cl17 In2 2.888737 1_565
Cl18 Sn3 2.616921 1_555
Cl18 In3 2.964143 1_555
Cl18 In7 2.964143 1_555
Cl19 Sn2 2.616921 1_555
Cl19 In6 2.964143 1_555
Cl19 In4 2.964143 1_555
Cl20 Sn6 2.652764 1_555
Cl20 In2 3.120798 1_555
Cl21 Sn1 2.812587 1_555
Cl21 In3 3.010105 1_555
Cl21 In4 3.010105 1_555
Cl21 Sn0 3.135218 1_555
Cl22 Sn7 2.652764 1_555
Cl22 In5 3.120798 1_555
Cl23 Sn1 2.812587 1_555
Cl23 In7 3.010105 1_555
Cl23 In6 3.010105 1_555
Cl23 Sn0 3.135218 1_555
