# generated using pymatgen
data_MnHO2
_symmetry_space_group_name_H-M   'P 1'
_cell_length_a   6.23546600
_cell_length_b   10.62273469
_cell_length_c   10.70120951
_cell_angle_alpha   89.83846720
_cell_angle_beta   89.60871637
_cell_angle_gamma   89.84337772
_symmetry_Int_Tables_number   1
_chemical_formula_structural   MnHO2
_chemical_formula_sum   'Mn16 H16 O32'
_cell_volume   708.80155844
_cell_formula_units_Z   16
loop_
 _symmetry_equiv_pos_site_id
 _symmetry_equiv_pos_as_xyz
  1  'x, y, z'
loop_
 _atom_site_type_symbol
 _atom_site_label
 _atom_site_symmetry_multiplicity
 _atom_site_fract_x
 _atom_site_fract_y
 _atom_site_fract_z
 _atom_site_occupancy
  Mn  Mn0  1  0.50191500  0.35728800  0.85745000  1
  Mn  Mn1  1  0.99811200  0.35535800  0.85694000  1
  Mn  Mn2  1  0.50535800  0.85393100  0.64232400  1
  Mn  Mn3  1  0.00850600  0.85399700  0.64297200  1
  Mn  Mn4  1  0.99479800  0.14390900  0.36331600  1
  Mn  Mn5  1  0.49869300  0.14085100  0.35701500  1
  Mn  Mn6  1  0.00167500  0.64078300  0.14194300  1
  Mn  Mn7  1  0.49647100  0.64035500  0.14232600  1
  Mn  Mn8  1  0.74538600  0.84752700  0.34325100  1
  Mn  Mn9  1  0.25083000  0.84830700  0.34256400  1
  Mn  Mn10  1  0.75100400  0.34055300  0.14863100  1
  Mn  Mn11  1  0.25082700  0.33455400  0.14986900  1
  Mn  Mn12  1  0.75497900  0.66100100  0.84914700  1
  Mn  Mn13  1  0.25347900  0.65318400  0.84790200  1
  Mn  Mn14  1  0.75396400  0.15110700  0.66152300  1
  Mn  Mn15  1  0.25476900  0.15114200  0.65669000  1
  H  H0  1  0.71503000  0.34371700  0.39825200  1
  H  H1  1  0.27004200  0.34672900  0.39869800  1
  H  H2  1  0.52026900  0.83741100  0.92834400  1
  H  H3  1  0.00010700  0.85717800  0.90554400  1
  H  H4  1  0.00925400  0.16082900  0.07175900  1
  H  H5  1  0.46673300  0.15539500  0.06068000  1
  H  H6  1  0.46867600  0.93099000  0.16273200  1
  H  H7  1  0.99624400  0.93917100  0.17797900  1
  H  H8  1  0.97322200  0.08833700  0.86273400  1
  H  H9  1  0.51864300  0.06605600  0.83562200  1
  H  H10  1  0.25764200  0.66528300  0.58001400  1
  H  H11  1  0.77239300  0.64704000  0.59748100  1
  H  H12  1  0.23568300  0.41900200  0.66951500  1
  H  H13  1  0.75746900  0.40341400  0.65275100  1
  H  H14  1  0.21993100  0.59825000  0.34950200  1
  H  H15  1  0.75953000  0.59118000  0.34111200  1
  O  O0  1  0.75724900  0.66630600  0.02807500  1
  O  O1  1  0.24371000  0.65829100  0.02772400  1
  O  O2  1  0.73532500  0.02829900  0.34054000  1
  O  O3  1  0.25501800  0.02725700  0.34725600  1
  O  O4  1  0.75355500  0.97073500  0.65671100  1
  O  O5  1  0.25345000  0.96772100  0.65673900  1
  O  O6  1  0.75708500  0.34038700  0.97010200  1
  O  O7  1  0.24387800  0.33617000  0.97219100  1
  O  O8  1  0.99208700  0.17500200  0.55277400  1
  O  O9  1  0.52767000  0.17657700  0.54731800  1
  O  O10  1  0.98667300  0.54685700  0.82890300  1
  O  O11  1  0.52185200  0.54708300  0.83307800  1
  O  O12  1  0.48777500  0.44654900  0.16517200  1
  O  O13  1  0.02533100  0.45000300  0.18009000  1
  O  O14  1  0.49487600  0.82284700  0.44917800  1
  O  O15  1  0.02106000  0.82647600  0.46057000  1
  O  O16  1  0.47126400  0.84792900  0.20134400  1
  O  O17  1  0.99773000  0.85609400  0.21643000  1
  O  O18  1  0.00451300  0.20301700  0.15217300  1
  O  O19  1  0.47524200  0.19463900  0.14252200  1
  O  O20  1  0.98762600  0.15483200  0.80118300  1
  O  O21  1  0.51297100  0.14795600  0.79465500  1
  O  O22  1  0.51838300  0.79537700  0.84785200  1
  O  O23  1  0.00082000  0.79854900  0.83636700  1
  O  O24  1  0.75321900  0.33801200  0.71604400  1
  O  O25  1  0.24465800  0.34536700  0.72325900  1
  O  O26  1  0.75940300  0.71441000  0.65816600  1
  O  O27  1  0.26138300  0.71121300  0.65866100  1
  O  O28  1  0.75425800  0.65831200  0.27946700  1
  O  O29  1  0.24245900  0.66327600  0.28689700  1
  O  O30  1  0.73615000  0.28261500  0.33205000  1
  O  O31  1  0.26179000  0.27779100  0.33973700  1
loop_
_geom_bond_atom_site_label_1
_geom_bond_atom_site_label_2
_geom_bond_distance
_geom_bond_site_symmetry_2
Mn0 O6 2.010105 1_555
Mn0 O7 2.029837 1_555
Mn0 O11 2.036238 1_555
Mn0 O25 2.164472 1_555
Mn0 O24 2.180559 1_555
Mn0 O21 2.325513 1_555
Mn1 O6 1.930248 1_555
Mn1 O7 1.983375 1_655
Mn1 O10 2.056528 1_555
Mn1 O25 2.095481 1_655
Mn1 O24 2.161859 1_555
Mn1 O20 2.214999 1_555
Mn2 O5 1.984832 1_555
Mn2 O4 1.993289 1_555
Mn2 O14 2.095512 1_555
Mn2 O27 2.156575 1_555
Mn2 O26 2.173499 1_555
Mn2 O22 2.285889 1_555
Mn3 O5 1.956539 1_555
Mn3 O15 1.975500 1_555
Mn3 O4 2.018349 1_455
Mn3 O23 2.150404 1_555
Mn3 O26 2.155356 1_455
Mn3 O27 2.191839 1_555
Mn4 O3 2.045549 1_655
Mn4 O2 2.050188 1_555
Mn4 O8 2.055025 1_555
Mn4 O31 2.205246 1_655
Mn4 O30 2.208089 1_555
Mn4 O18 2.343828 1_655
Mn5 O2 1.904124 1_555
Mn5 O3 1.946417 1_555
Mn5 O31 2.079149 1_555
Mn5 O9 2.081742 1_555
Mn5 O30 2.129796 1_555
Mn5 O19 2.369208 1_555
Mn6 O1 1.944558 1_555
Mn6 O0 1.975466 1_455
Mn6 O13 2.071244 1_555
Mn6 O28 2.132972 1_455
Mn6 O29 2.180212 1_555
Mn6 O17 2.424237 1_455
Mn7 O1 2.011911 1_555
Mn7 O0 2.046536 1_555
Mn7 O12 2.073343 1_555
Mn7 O28 2.193044 1_555
Mn7 O29 2.219907 1_555
Mn7 O16 2.300048 1_555
Mn8 O2 1.921290 1_565
Mn8 O14 1.941657 1_555
Mn8 O17 2.072890 1_555
Mn8 O28 2.124992 1_555
Mn8 O15 2.146340 1_655
Mn8 O16 2.294145 1_555
Mn9 O3 1.901998 1_565
Mn9 O15 1.917449 1_555
Mn9 O14 1.926191 1_555
Mn9 O16 2.035860 1_555
Mn9 O29 2.056333 1_555
Mn9 O17 2.084999 1_455
Mn10 O6 1.910599 1_554
Mn10 O12 1.995052 1_555
Mn10 O30 2.056937 1_555
Mn10 O13 2.100490 1_655
Mn10 O18 2.150028 1_655
Mn10 O19 2.319518 1_555
Mn11 O13 1.890038 1_555
Mn11 O7 1.902187 1_554
Mn11 O12 1.907656 1_555
Mn11 O19 2.039884 1_555
Mn11 O18 2.079174 1_555
Mn11 O31 2.119269 1_555
Mn12 O10 1.895253 1_555
Mn12 O11 1.902966 1_555
Mn12 O0 1.915884 1_556
Mn12 O22 2.050098 1_555
Mn12 O26 2.119492 1_555
Mn12 O23 2.124091 1_655
Mn13 O1 1.925773 1_556
Mn13 O11 2.020624 1_555
Mn13 O10 2.025098 1_455
Mn13 O27 2.115475 1_555
Mn13 O23 2.206813 1_555
Mn13 O22 2.241342 1_555
Mn14 O9 1.891420 1_555
Mn14 O8 1.897415 1_555
Mn14 O4 1.916890 1_545
Mn14 O21 2.063904 1_555
Mn14 O24 2.070954 1_555
Mn14 O20 2.094851 1_555
Mn15 O5 1.948471 1_545
Mn15 O8 2.001181 1_455
Mn15 O9 2.076550 1_555
Mn15 O25 2.185224 1_555
Mn15 O21 2.192008 1_555
Mn15 O20 2.265390 1_455
H0 O30 0.970245 1_555
H1 O31 0.969682 1_555
H2 O22 0.971491 1_555
H3 O23 0.968737 1_555
H4 O18 0.971584 1_555
H5 O19 0.972860 1_555
H6 O16 0.973377 1_555
H7 O17 0.972713 1_555
H8 O20 0.968386 1_555
H9 O21 0.973775 1_555
H10 O27 0.974453 1_555
H11 O26 0.970582 1_555
H12 O25 0.971293 1_555
H13 O24 0.969191 1_555
H14 O29 0.970743 1_555
H15 O28 0.970730 1_555
