# generated using pymatgen
data_CaTi3V5O16
_symmetry_space_group_name_H-M   'P 1'
_cell_length_a   6.06367210
_cell_length_b   6.05529122
_cell_length_c   9.25896167
_cell_angle_alpha   88.96287566
_cell_angle_beta   90.06499112
_cell_angle_gamma   120.16979080
_symmetry_Int_Tables_number   1
_chemical_formula_structural   CaTi3V5O16
_chemical_formula_sum   'Ca1 Ti3 V5 O16'
_cell_volume   293.85189220
_cell_formula_units_Z   1
loop_
 _symmetry_equiv_pos_site_id
 _symmetry_equiv_pos_as_xyz
  1  'x, y, z'
loop_
 _atom_site_type_symbol
 _atom_site_label
 _atom_site_symmetry_multiplicity
 _atom_site_fract_x
 _atom_site_fract_y
 _atom_site_fract_z
 _atom_site_occupancy
  Ca  Ca0  1  0.33631400  0.65352000  0.87557200  1
  Ti  Ti0  1  0.13599600  0.79639700  0.22194500  1
  Ti  Ti1  1  0.18266000  0.31047400  0.22421700  1
  Ti  Ti2  1  0.34904000  0.16898800  0.69410100  1
  V  V0  1  0.35022900  0.67900400  0.47811700  1
  V  V1  1  0.67600900  0.83672400  0.21771400  1
  V  V2  1  0.67414200  0.32203200  0.00284000  1
  V  V3  1  0.83829700  0.15727900  0.70872200  1
  V  V4  1  0.84139800  0.66388300  0.70777800  1
  O  O0  1  0.17797400  0.82244900  0.61698700  1
  O  O1  1  0.05350000  0.52261500  0.35206500  1
  O  O2  1  0.32660700  0.66635200  0.11327600  1
  O  O3  1  0.01965900  0.99653500  0.32707400  1
  O  O4  1  0.00417000  0.99038600  0.80759600  1
  O  O5  1  0.17764300  0.34568300  0.61685700  1
  O  O6  1  0.48158500  0.94498600  0.35728600  1
  O  O7  1  0.47145100  0.51689300  0.34938400  1
  O  O8  1  0.34341800  0.16758700  0.11497200  1
  O  O9  1  0.65710800  0.82004100  0.61769100  1
  O  O10  1  0.54154300  0.45957400  0.83356200  1
  O  O11  1  0.54581900  0.05593000  0.83385100  1
  O  O12  1  0.66982700  0.32853600  0.59945000  1
  O  O13  1  0.83509700  0.65835500  0.11395600  1
  O  O14  1  0.93903400  0.45980200  0.83482400  1
  O  O15  1  0.85064900  0.17700300  0.11731400  1
loop_
_geom_bond_atom_site_label_1
_geom_bond_atom_site_label_2
_geom_bond_distance
_geom_bond_site_symmetry_2
Ca0 O14 2.120183 1_455
Ca0 O11 2.134539 1_565
Ca0 O10 2.136761 1_555
Ca0 O2 2.205563 1_556
O0 V4 1.949059 1_455
O0 Ti2 1.963102 1_565
O0 V0 2.110471 1_555
O1 Ti0 1.882984 1_555
O1 V0 1.954205 1_555
O1 Ti1 2.175573 1_555
O2 Ti0 1.978503 1_555
O2 V1 2.079092 1_555
O2 Ti1 2.119459 1_555
O3 Ti1 1.883001 1_565
O3 Ti0 1.953803 1_555
O3 V1 2.075508 1_455
O4 V4 1.959552 1_455
O4 V3 1.963945 1_465
O4 Ti2 2.082686 1_565
O5 Ti2 1.955688 1_555
O5 V3 1.966817 1_455
O5 V0 2.145982 1_555
O6 V0 1.768462 1_555
O6 V1 2.073783 1_555
O6 Ti0 2.216047 1_555
O7 V0 1.922028 1_555
O7 Ti1 1.954404 1_555
O7 V1 2.068558 1_555
O8 Ti1 1.898311 1_555
O8 V2 2.014610 1_555
O8 Ti0 2.166950 1_545
O9 V4 1.967240 1_555
O9 V3 1.972987 1_565
O9 V0 2.073456 1_555
O10 V4 1.970921 1_555
O10 Ti2 2.034799 1_555
O10 V2 2.102295 1_556
O11 V3 1.936264 1_555
O11 Ti2 2.086187 1_555
O11 V2 2.116195 1_556
O12 Ti2 1.889271 1_555
O12 V4 2.039546 1_555
O12 V3 2.041333 1_555
O13 Ti0 1.876328 1_655
O13 V1 2.026566 1_555
O13 V2 2.057726 1_555
O14 V4 1.985575 1_555
O14 V3 2.010766 1_555
O14 V2 2.075523 1_556
O15 V2 1.987108 1_555
O15 V1 1.992710 1_545
O15 Ti1 2.018645 1_655
