# generated using pymatgen
data_Sr2AlTlCo2O7
_symmetry_space_group_name_H-M   'P 1'
_cell_length_a   3.89546768
_cell_length_b   3.92859355
_cell_length_c   11.61210444
_cell_angle_alpha   85.73653043
_cell_angle_beta   94.55134240
_cell_angle_gamma   93.07842685
_symmetry_Int_Tables_number   1
_chemical_formula_structural   Sr2AlTlCo2O7
_chemical_formula_sum   'Sr2 Al1 Tl1 Co2 O7'
_cell_volume   176.45330039
_cell_formula_units_Z   1
loop_
 _symmetry_equiv_pos_site_id
 _symmetry_equiv_pos_as_xyz
  1  'x, y, z'
loop_
 _atom_site_type_symbol
 _atom_site_label
 _atom_site_symmetry_multiplicity
 _atom_site_fract_x
 _atom_site_fract_y
 _atom_site_fract_z
 _atom_site_occupancy
  Sr  Sr0  1  0.43892113  0.55071408  0.78237124  1
  Sr  Sr1  1  0.56926061  0.42818113  0.21794441  1
  Al  Al0  1  0.50072899  0.49772997  0.49993036  1
  Tl  Tl0  1  0.01769607  0.92111760  0.00074320  1
  Co  Co0  1  0.91586460  0.07624616  0.63028140  1
  Co  Co1  1  0.08523337  0.91750820  0.36933532  1
  O  O0  1  0.40757206  0.12817107  0.60418777  1
  O  O1  1  0.86778014  0.58868704  0.60747386  1
  O  O2  1  0.59458466  0.86368783  0.39412034  1
  O  O3  1  0.13235864  0.40727681  0.39294749  1
  O  O4  1  0.95586546  0.05435224  0.81376708  1
  O  O5  1  0.02698924  0.99112092  0.18601237  1
  O  O6  1  0.48714603  0.57520796  0.00088815  1
loop_
_geom_bond_atom_site_label_1
_geom_bond_atom_site_label_2
_geom_bond_distance
_geom_bond_site_symmetry_2
Al0 O3 1.859215 1_555
Al0 O0 1.859304 1_555
Al0 O1 1.860034 1_555
Al0 O2 1.860776 1_555
Co0 O1 1.950150 1_545
Co0 O0 1.960421 1_655
Co0 O0 1.998236 1_555
Co0 O1 2.027669 1_555
Co0 O4 2.119639 1_555
Co1 O2 1.953325 1_455
Co1 O3 1.960500 1_565
Co1 O2 2.002453 1_555
Co1 O3 2.019079 1_555
Co1 O5 2.122643 1_555
O0 Sr0 2.738693 1_555
O0 Sr0 2.955382 1_545
O1 Sr0 2.721120 1_555
O1 Sr0 2.893167 1_655
O2 Sr1 2.755443 1_555
O2 Sr1 2.903422 1_565
O3 Sr1 2.746280 1_555
O3 Sr1 2.869680 1_455
O4 Tl0 2.192626 1_646
O4 Sr0 2.661839 1_655
O4 Sr0 2.768695 1_545
O4 Sr0 2.861839 1_555
O4 Sr0 2.864375 1_645
O5 Tl0 2.186288 1_555
O5 Sr1 2.606423 1_465
O5 Sr1 2.669965 1_565
O5 Sr1 2.786985 1_455
O5 Sr1 3.121900 1_555
O6 Tl0 2.336032 1_555
O6 Tl0 2.411781 1_655
O6 Sr0 2.538084 1_554
O6 Sr1 2.542479 1_555
