# generated using pymatgen
data_Tb3Cu20Sb11
_symmetry_space_group_name_H-M   'P 1'
_cell_length_a   11.96340387
_cell_length_b   11.96340387
_cell_length_c   11.96340387
_cell_angle_alpha   60.00000000
_cell_angle_beta   60.00000000
_cell_angle_gamma   60.00000000
_symmetry_Int_Tables_number   1
_chemical_formula_structural   Tb3Cu20Sb11
_chemical_formula_sum   'Tb6 Cu40 Sb22'
_cell_volume   1210.73554999
_cell_formula_units_Z   2
loop_
 _symmetry_equiv_pos_site_id
 _symmetry_equiv_pos_as_xyz
  1  'x, y, z'
loop_
 _atom_site_type_symbol
 _atom_site_label
 _atom_site_symmetry_multiplicity
 _atom_site_fract_x
 _atom_site_fract_y
 _atom_site_fract_z
 _atom_site_occupancy
  Tb  Tb0  1  0.48952400  0.01047600  0.01047600  1
  Tb  Tb1  1  0.01047600  0.48952400  0.48952400  1
  Tb  Tb2  1  0.01047600  0.48952400  0.01047600  1
  Tb  Tb3  1  0.48952400  0.01047600  0.48952400  1
  Tb  Tb4  1  0.01047600  0.01047600  0.48952400  1
  Tb  Tb5  1  0.48952400  0.48952400  0.01047600  1
  Cu  Cu0  1  0.99692000  0.99692000  0.23197300  1
  Cu  Cu1  1  0.99692000  0.99692000  0.77418700  1
  Cu  Cu2  1  0.23197300  0.77418700  0.99692000  1
  Cu  Cu3  1  0.23197300  0.99692000  0.99692000  1
  Cu  Cu4  1  0.77418700  0.23197300  0.99692000  1
  Cu  Cu5  1  0.77418700  0.99692000  0.99692000  1
  Cu  Cu6  1  0.99692000  0.23197300  0.77418700  1
  Cu  Cu7  1  0.99692000  0.77418700  0.23197300  1
  Cu  Cu8  1  0.99692000  0.23197300  0.99692000  1
  Cu  Cu9  1  0.77418700  0.99692000  0.23197300  1
  Cu  Cu10  1  0.23197300  0.99692000  0.77418700  1
  Cu  Cu11  1  0.99692000  0.77418700  0.99692000  1
  Cu  Cu12  1  0.25157100  0.25157100  0.86544800  1
  Cu  Cu13  1  0.25157100  0.25157100  0.63141100  1
  Cu  Cu14  1  0.86544800  0.63141100  0.25157100  1
  Cu  Cu15  1  0.86544800  0.25157100  0.25157100  1
  Cu  Cu16  1  0.63141100  0.86544800  0.25157100  1
  Cu  Cu17  1  0.63141100  0.25157100  0.25157100  1
  Cu  Cu18  1  0.25157100  0.86544800  0.63141100  1
  Cu  Cu19  1  0.25157100  0.63141100  0.86544800  1
  Cu  Cu20  1  0.25157100  0.86544800  0.25157100  1
  Cu  Cu21  1  0.63141100  0.25157100  0.86544800  1
  Cu  Cu22  1  0.86544800  0.25157100  0.63141100  1
  Cu  Cu23  1  0.25157100  0.63141100  0.25157100  1
  Cu  Cu24  1  0.69859900  0.69859900  0.69859900  1
  Cu  Cu25  1  0.69859900  0.69859900  0.90420400  1
  Cu  Cu26  1  0.69859900  0.90420400  0.69859900  1
  Cu  Cu27  1  0.90420400  0.69859900  0.69859900  1
  Cu  Cu28  1  0.50478900  0.50478900  0.72398000  1
  Cu  Cu29  1  0.50478900  0.50478900  0.26644100  1
  Cu  Cu30  1  0.72398000  0.26644100  0.50478900  1
  Cu  Cu31  1  0.72398000  0.50478900  0.50478900  1
  Cu  Cu32  1  0.26644100  0.72398000  0.50478900  1
  Cu  Cu33  1  0.26644100  0.50478900  0.50478900  1
  Cu  Cu34  1  0.50478900  0.72398000  0.26644100  1
  Cu  Cu35  1  0.50478900  0.26644100  0.72398000  1
  Cu  Cu36  1  0.50478900  0.72398000  0.50478900  1
  Cu  Cu37  1  0.26644100  0.50478900  0.72398000  1
  Cu  Cu38  1  0.72398000  0.50478900  0.26644100  1
  Cu  Cu39  1  0.50478900  0.26644100  0.50478900  1
  Sb  Sb0  1  0.75127600  0.75127600  0.43603300  1
  Sb  Sb1  1  0.75127600  0.75127600  0.06141500  1
  Sb  Sb2  1  0.43603300  0.06141500  0.75127600  1
  Sb  Sb3  1  0.43603300  0.75127600  0.75127600  1
  Sb  Sb4  1  0.06141500  0.43603300  0.75127600  1
  Sb  Sb5  1  0.06141500  0.75127600  0.75127600  1
  Sb  Sb6  1  0.75127600  0.43603300  0.06141500  1
  Sb  Sb7  1  0.75127600  0.06141500  0.43603300  1
  Sb  Sb8  1  0.75127600  0.43603300  0.75127600  1
  Sb  Sb9  1  0.06141500  0.75127600  0.43603300  1
  Sb  Sb10  1  0.43603300  0.75127600  0.06141500  1
  Sb  Sb11  1  0.75127600  0.06141500  0.75127600  1
  Sb  Sb12  1  0.35336800  0.35336800  0.35336800  1
  Sb  Sb13  1  0.35336800  0.35336800  0.93989600  1
  Sb  Sb14  1  0.35336800  0.93989600  0.35336800  1
  Sb  Sb15  1  0.93989600  0.35336800  0.35336800  1
  Sb  Sb16  1  0.50000000  0.50000000  0.50000000  1
  Sb  Sb17  1  0.14791900  0.14791900  0.14791900  1
  Sb  Sb18  1  0.14791900  0.14791900  0.55624400  1
  Sb  Sb19  1  0.14791900  0.55624400  0.14791900  1
  Sb  Sb20  1  0.55624400  0.14791900  0.14791900  1
  Sb  Sb21  1  0.00000000  0.00000000  0.00000000  1
loop_
_geom_bond_atom_site_label_1
_geom_bond_atom_site_label_2
_geom_bond_distance
_geom_bond_site_symmetry_2
Cu0 Cu7 2.664645 1_555
Cu0 Cu9 2.664645 1_555
Cu0 Sb17 2.677319 1_665
Cu0 Cu20 2.713628 1_655
Cu0 Cu15 2.713628 1_565
Cu0 Sb21 2.738835 1_665
Cu0 Sb9 2.762821 1_655
Cu0 Sb7 2.762821 1_565
Cu0 Cu3 2.812034 1_654
Cu0 Cu8 2.812034 1_564
Cu0 Tb4 3.251462 1_665
Cu1 Cu5 2.664645 1_555
Cu1 Cu11 2.664645 1_555
Cu1 Sb18 2.677315 1_665
Cu1 Cu18 2.713624 1_655
Cu1 Cu22 2.713624 1_565
Cu1 Sb21 2.738835 1_666
Cu1 Sb5 2.762821 1_655
Cu1 Sb11 2.762821 1_565
Cu1 Cu6 2.812034 1_565
Cu1 Cu10 2.812034 1_655
Cu1 Tb4 3.251462 1_665
Cu2 Cu3 2.664645 1_555
Cu2 Sb19 2.677309 1_556
Cu2 Cu23 2.713628 1_556
Cu2 Sb21 2.738835 1_566
Cu2 Sb10 2.762821 1_556
Cu2 Sb3 2.762821 1_555
Cu2 Cu7 2.812034 1_456
Cu2 Tb5 3.251462 1_556
Cu3 Sb17 2.677319 1_566
Cu3 Sb21 2.738835 1_566
Cu3 Sb10 2.762821 1_556
Cu3 Sb2 2.762821 1_565
Cu3 Cu8 2.812034 1_465
Cu3 Tb0 3.251462 1_566
Cu4 Cu8 2.664645 1_555
Cu4 Cu6 2.664645 1_555
Cu4 Sb20 2.677309 1_556
Cu4 Sb21 2.738835 1_656
Cu4 Sb6 2.762821 1_556
Cu4 Sb8 2.762821 1_555
Cu4 Cu5 2.812034 1_545
Cu4 Cu9 2.812034 1_546
Cu4 Tb5 3.251462 1_556
Cu5 Sb20 2.677315 1_566
Cu5 Sb21 2.738835 1_666
Cu5 Sb1 2.762821 1_556
Cu5 Sb11 2.762821 1_565
Cu5 Cu9 2.812034 1_556
Cu5 Tb0 3.251462 1_566
Cu6 Cu8 2.664645 1_555
Cu6 Sb18 2.677309 1_655
Cu6 Sb21 2.738835 1_656
Cu6 Sb4 2.762821 1_655
Cu6 Sb8 2.762821 1_555
Cu6 Tb1 3.251462 1_655
Cu7 Cu9 2.664645 1_555
Cu7 Sb19 2.677309 1_655
Cu7 Sb21 2.738835 1_665
Cu7 Sb9 2.762821 1_655
Cu7 Sb0 2.762821 1_555
Cu7 Tb1 3.251462 1_655
Cu8 Sb17 2.677319 1_656
Cu8 Sb21 2.738835 1_656
Cu8 Sb6 2.762821 1_556
Cu8 Sb4 2.762821 1_655
Cu8 Tb2 3.251462 1_656
Cu9 Sb20 2.677309 1_565
Cu9 Sb21 2.738835 1_665
Cu9 Sb7 2.762821 1_565
Cu9 Sb0 2.762821 1_555
Cu9 Tb3 3.251462 1_565
Cu10 Cu2 2.664645 1_555
Cu10 Cu3 2.664645 1_555
Cu10 Sb18 2.677309 1_565
Cu10 Cu18 2.713618 1_555
Cu10 Cu13 2.713628 1_565
Cu10 Sb21 2.738835 1_566
Cu10 Sb2 2.762821 1_565
Cu10 Sb3 2.762821 1_555
Cu10 Cu6 2.812034 1_465
Cu10 Tb3 3.251462 1_565
Cu11 Cu5 2.664645 1_555
Cu11 Sb19 2.677315 1_656
Cu11 Cu14 2.713624 1_556
Cu11 Cu19 2.713624 1_655
Cu11 Sb21 2.738835 1_666
Cu11 Sb5 2.762821 1_655
Cu11 Sb1 2.762821 1_556
Cu11 Cu7 2.812034 1_556
Cu11 Cu2 2.812034 1_655
Cu11 Tb2 3.251462 1_656
Cu12 Sb4 2.642648 1_555
Cu12 Sb2 2.642648 1_555
Cu12 Cu37 2.680260 1_555
Cu12 Cu35 2.680260 1_555
Cu12 Cu3 2.713628 1_545
Cu12 Cu8 2.713628 1_455
Cu12 Sb13 2.722497 1_555
Cu12 Sb17 2.766205 1_556
Cu12 Cu13 2.799879 1_555
Cu12 Tb0 3.340267 1_556
Cu12 Tb2 3.340267 1_556
Cu13 Sb2 2.642642 1_555
Cu13 Sb4 2.642642 1_555
Cu13 Cu33 2.680259 1_555
Cu13 Cu39 2.680259 1_555
Cu13 Cu6 2.713628 1_455
Cu13 Sb12 2.722507 1_555
Cu13 Sb18 2.766205 1_555
Cu13 Tb1 3.340273 1_555
Cu13 Tb3 3.340273 1_555
Cu14 Sb0 2.642640 1_555
Cu14 Sb1 2.642650 1_555
Cu14 Cu31 2.680268 1_555
Cu14 Cu38 2.680281 1_555
Cu14 Cu7 2.713618 1_555
Cu14 Sb15 2.722507 1_555
Cu14 Sb19 2.766205 1_655
Cu14 Cu16 2.799879 1_555
Cu14 Tb1 3.340265 1_655
Cu14 Tb2 3.340275 1_655
Cu15 Sb7 2.642648 1_555
Cu15 Sb6 2.642648 1_555
Cu15 Cu30 2.680260 1_555
Cu15 Cu38 2.680260 1_555
Cu15 Cu8 2.713628 1_554
Cu15 Sb15 2.722497 1_555
Cu15 Sb17 2.766205 1_655
Cu15 Cu17 2.799879 1_555
Cu15 Tb4 3.340267 1_655
Cu15 Tb2 3.340267 1_655
Cu16 Sb0 2.642640 1_555
Cu16 Sb1 2.642650 1_555
Cu16 Cu36 2.680268 1_555
Cu16 Cu34 2.680281 1_555
Cu16 Cu9 2.713618 1_555
Cu16 Cu5 2.713624 1_554
Cu16 Sb14 2.722507 1_555
Cu16 Sb20 2.766205 1_565
Cu16 Tb3 3.340265 1_565
Cu16 Tb0 3.340275 1_565
Cu17 Sb6 2.642642 1_555
Cu17 Sb7 2.642642 1_555
Cu17 Cu29 2.680259 1_555
Cu17 Cu39 2.680259 1_555
Cu17 Cu4 2.713628 1_554
Cu17 Cu9 2.713628 1_545
Cu17 Sb12 2.722507 1_555
Cu17 Sb20 2.766205 1_555
Cu17 Tb5 3.340273 1_555
Cu17 Tb3 3.340273 1_555
Cu18 Sb3 2.642640 1_555
Cu18 Sb5 2.642650 1_555
Cu18 Cu36 2.680268 1_555
Cu18 Cu32 2.680281 1_555
Cu18 Sb14 2.722507 1_555
Cu18 Sb18 2.766205 1_565
Cu18 Cu19 2.799879 1_555
Cu18 Tb3 3.340265 1_565
Cu18 Tb4 3.340275 1_565
Cu19 Sb3 2.642640 1_555
Cu19 Sb5 2.642650 1_555
Cu19 Cu28 2.680268 1_555
Cu19 Cu37 2.680281 1_555
Cu19 Cu2 2.713618 1_555
Cu19 Sb13 2.722507 1_555
Cu19 Sb19 2.766205 1_556
Cu19 Tb5 3.340265 1_556
Cu19 Tb2 3.340275 1_556
Cu20 Sb10 2.642648 1_555
Cu20 Sb9 2.642648 1_555
Cu20 Cu32 2.680260 1_555
Cu20 Cu34 2.680260 1_555
Cu20 Cu3 2.713628 1_554
Cu20 Sb14 2.722497 1_555
Cu20 Sb17 2.766205 1_565
Cu20 Cu23 2.799879 1_555
Cu20 Tb0 3.340267 1_565
Cu20 Tb4 3.340267 1_565
Cu21 Sb8 2.642640 1_555
Cu21 Sb11 2.642650 1_555
Cu21 Cu28 2.680268 1_555
Cu21 Cu35 2.680281 1_555
Cu21 Cu4 2.713618 1_555
Cu21 Cu5 2.713624 1_545
Cu21 Sb13 2.722507 1_555
Cu21 Sb20 2.766205 1_556
Cu21 Cu22 2.799879 1_555
Cu21 Tb5 3.340265 1_556
Cu21 Tb0 3.340275 1_556
Cu22 Sb8 2.642640 1_555
Cu22 Sb11 2.642650 1_555
Cu22 Cu31 2.680268 1_555
Cu22 Cu30 2.680281 1_555
Cu22 Cu6 2.713618 1_555
Cu22 Sb15 2.722507 1_555
Cu22 Sb18 2.766205 1_655
Cu22 Tb1 3.340265 1_655
Cu22 Tb4 3.340275 1_655
Cu23 Sb10 2.642642 1_555
Cu23 Sb9 2.642642 1_555
Cu23 Cu29 2.680259 1_555
Cu23 Cu33 2.680259 1_555
Cu23 Cu7 2.713628 1_455
Cu23 Sb12 2.722507 1_555
Cu23 Sb19 2.766205 1_555
Cu23 Tb1 3.340273 1_555
Cu23 Tb5 3.340273 1_555
Cu24 Cu26 2.459736 1_555
Cu24 Cu25 2.459736 1_555
Cu24 Cu27 2.459736 1_555
Cu24 Sb3 2.664460 1_555
Cu24 Sb8 2.664460 1_555
Cu24 Sb0 2.664460 1_555
Cu25 Cu26 2.459736 1_555
Cu25 Cu27 2.459736 1_555
Cu25 Sb1 2.664449 1_556
Cu25 Sb6 2.664458 1_556
Cu25 Sb10 2.664458 1_556
Cu26 Cu27 2.459736 1_555
Cu26 Sb11 2.664449 1_565
Cu26 Sb2 2.664458 1_565
Cu26 Sb7 2.664458 1_565
Cu27 Sb5 2.664449 1_655
Cu27 Sb9 2.664458 1_655
Cu27 Sb4 2.664458 1_655
Cu28 Cu36 2.622270 1_555
Cu28 Cu31 2.622270 1_555
Cu28 Sb13 2.675533 1_555
Cu28 Sb16 2.738055 1_555
Cu28 Sb3 2.783444 1_555
Cu28 Sb8 2.783444 1_555
Cu28 Cu37 2.851453 1_555
Cu28 Cu35 2.851453 1_555
Cu28 Tb5 3.255108 1_556
Cu29 Cu34 2.622270 1_555
Cu29 Cu38 2.622270 1_555
Cu29 Sb12 2.675529 1_555
Cu29 Sb16 2.738067 1_555
Cu29 Sb6 2.783438 1_555
Cu29 Sb10 2.783438 1_555
Cu29 Cu39 2.851453 1_555
Cu29 Cu33 2.851453 1_555
Cu29 Tb5 3.255096 1_555
Cu30 Cu35 2.622270 1_555
Cu30 Cu39 2.622270 1_555
Cu30 Sb15 2.675539 1_555
Cu30 Sb16 2.738061 1_555
Cu30 Sb7 2.783433 1_555
Cu30 Sb11 2.783441 1_555
Cu30 Cu31 2.851453 1_555
Cu30 Cu38 2.851453 1_555
Cu30 Tb4 3.255102 1_655
Cu31 Cu36 2.622270 1_555
Cu31 Sb15 2.675533 1_555
Cu31 Sb16 2.738055 1_555
Cu31 Sb8 2.783444 1_555
Cu31 Sb0 2.783444 1_555
Cu31 Cu38 2.851453 1_555
Cu31 Tb1 3.255108 1_655
Cu32 Cu37 2.622270 1_555
Cu32 Cu33 2.622270 1_555
Cu32 Sb14 2.675539 1_555
Cu32 Sb16 2.738061 1_555
Cu32 Sb9 2.783433 1_555
Cu32 Sb5 2.783441 1_555
Cu32 Cu34 2.851453 1_555
Cu32 Cu36 2.851453 1_555
Cu32 Tb4 3.255102 1_565
Cu33 Cu37 2.622270 1_555
Cu33 Sb12 2.675529 1_555
Cu33 Sb16 2.738067 1_555
Cu33 Sb4 2.783438 1_555
Cu33 Sb9 2.783438 1_555
Cu33 Cu39 2.851453 1_555
Cu33 Tb1 3.255096 1_555
Cu34 Cu38 2.622270 1_555
Cu34 Sb14 2.675539 1_555
Cu34 Sb16 2.738061 1_555
Cu34 Sb10 2.783433 1_555
Cu34 Sb1 2.783441 1_555
Cu34 Cu36 2.851453 1_555
Cu34 Tb0 3.255102 1_565
Cu35 Cu39 2.622270 1_555
Cu35 Sb13 2.675539 1_555
Cu35 Sb16 2.738061 1_555
Cu35 Sb2 2.783433 1_555
Cu35 Sb11 2.783441 1_555
Cu35 Cu37 2.851453 1_555
Cu35 Tb0 3.255102 1_556
Cu36 Sb14 2.675533 1_555
Cu36 Sb16 2.738055 1_555
Cu36 Sb0 2.783444 1_555
Cu36 Sb3 2.783444 1_555
Cu36 Tb3 3.255108 1_565
Cu37 Sb13 2.675539 1_555
Cu37 Sb16 2.738061 1_555
Cu37 Sb4 2.783433 1_555
Cu37 Sb5 2.783441 1_555
Cu37 Tb2 3.255102 1_556
Cu38 Sb15 2.675539 1_555
Cu38 Sb16 2.738061 1_555
Cu38 Sb6 2.783433 1_555
Cu38 Sb1 2.783441 1_555
Cu38 Tb2 3.255102 1_655
Cu39 Sb12 2.675529 1_555
Cu39 Sb16 2.738067 1_555
Cu39 Sb7 2.783438 1_555
Cu39 Sb2 2.783438 1_555
Cu39 Tb3 3.255096 1_555
Sb0 Tb3 3.178247 1_565
Sb0 Tb1 3.178247 1_655
Sb1 Tb0 3.178247 1_565
Sb1 Tb2 3.178247 1_655
Sb2 Tb0 3.178247 1_556
Sb2 Tb3 3.178247 1_555
Sb3 Tb3 3.178247 1_565
Sb3 Tb5 3.178247 1_556
Sb4 Tb2 3.178247 1_556
Sb4 Tb1 3.178247 1_555
Sb5 Tb4 3.178247 1_565
Sb5 Tb2 3.178247 1_556
Sb6 Tb2 3.178247 1_655
Sb6 Tb5 3.178247 1_555
Sb7 Tb4 3.178247 1_655
Sb7 Tb3 3.178247 1_555
Sb8 Tb1 3.178247 1_655
Sb8 Tb5 3.178247 1_556
Sb9 Tb4 3.178247 1_565
Sb9 Tb1 3.178247 1_555
Sb10 Tb0 3.178247 1_565
Sb10 Tb5 3.178247 1_555
Sb11 Tb4 3.178247 1_655
Sb11 Tb0 3.178247 1_556
Sb12 Tb5 3.379883 1_555
Sb12 Tb3 3.379883 1_555
Sb12 Tb1 3.379883 1_555
Sb13 Tb0 3.379883 1_556
Sb13 Tb2 3.379883 1_556
Sb13 Tb5 3.379883 1_556
Sb14 Tb0 3.379883 1_565
Sb14 Tb4 3.379883 1_565
Sb14 Tb3 3.379883 1_565
Sb15 Tb4 3.379883 1_655
Sb15 Tb2 3.379883 1_655
Sb15 Tb1 3.379883 1_655
Sb17 Tb2 3.372392 1_555
Sb17 Tb0 3.372392 1_555
Sb17 Tb4 3.372392 1_555
Sb18 Tb3 3.372390 1_555
Sb18 Tb1 3.372390 1_555
Sb18 Tb4 3.372400 1_555
Sb19 Tb1 3.372390 1_555
Sb19 Tb5 3.372390 1_555
Sb19 Tb2 3.372400 1_555
Sb20 Tb3 3.372390 1_555
Sb20 Tb5 3.372390 1_555
Sb20 Tb0 3.372400 1_555
