# generated using pymatgen
data_Zn74Pd21
_symmetry_space_group_name_H-M   'P 1'
_cell_length_a   8.02886823
_cell_length_b   8.02886823
_cell_length_c   46.77549760
_cell_angle_alpha   90.00000000
_cell_angle_beta   90.00000000
_cell_angle_gamma   110.08904767
_symmetry_Int_Tables_number   1
_chemical_formula_structural   Zn74Pd21
_chemical_formula_sum   'Zn148 Pd42'
_cell_volume   2831.82642833
_cell_formula_units_Z   2
loop_
 _symmetry_equiv_pos_site_id
 _symmetry_equiv_pos_as_xyz
  1  'x, y, z'
loop_
 _atom_site_type_symbol
 _atom_site_label
 _atom_site_symmetry_multiplicity
 _atom_site_fract_x
 _atom_site_fract_y
 _atom_site_fract_z
 _atom_site_occupancy
  Zn  Zn0  1  0.35149327  0.09301614  0.20382638  1
  Zn  Zn1  1  0.64850673  0.90698386  0.79617362  1
  Zn  Zn2  1  0.64850673  0.90698386  0.70382638  1
  Zn  Zn3  1  0.09301614  0.35149327  0.29617362  1
  Zn  Zn4  1  0.35149327  0.09301614  0.29617362  1
  Zn  Zn5  1  0.90698386  0.64850673  0.70382638  1
  Zn  Zn6  1  0.90698386  0.64850673  0.79617362  1
  Zn  Zn7  1  0.09301614  0.35149327  0.20382638  1
  Zn  Zn8  1  0.58664340  0.84008652  0.16015838  1
  Zn  Zn9  1  0.41335660  0.15991348  0.83984162  1
  Zn  Zn10  1  0.41335660  0.15991348  0.66015838  1
  Zn  Zn11  1  0.84008652  0.58664340  0.33984162  1
  Zn  Zn12  1  0.58664340  0.84008652  0.33984162  1
  Zn  Zn13  1  0.15991348  0.41335660  0.66015838  1
  Zn  Zn14  1  0.15991348  0.41335660  0.83984162  1
  Zn  Zn15  1  0.84008652  0.58664340  0.16015838  1
  Zn  Zn16  1  0.26982248  0.91751790  0.07369938  1
  Zn  Zn17  1  0.73017752  0.08248210  0.92630062  1
  Zn  Zn18  1  0.73017752  0.08248210  0.57369938  1
  Zn  Zn19  1  0.91751790  0.26982248  0.42630062  1
  Zn  Zn20  1  0.26982248  0.91751790  0.42630062  1
  Zn  Zn21  1  0.08248210  0.73017752  0.57369938  1
  Zn  Zn22  1  0.08248210  0.73017752  0.92630062  1
  Zn  Zn23  1  0.91751790  0.26982248  0.07369938  1
  Zn  Zn24  1  0.58542355  0.23285161  0.16274257  1
  Zn  Zn25  1  0.41457645  0.76714839  0.83725743  1
  Zn  Zn26  1  0.41457645  0.76714839  0.66274257  1
  Zn  Zn27  1  0.23285161  0.58542355  0.33725743  1
  Zn  Zn28  1  0.58542355  0.23285161  0.33725743  1
  Zn  Zn29  1  0.76714839  0.41457645  0.66274257  1
  Zn  Zn30  1  0.76714839  0.41457645  0.83725743  1
  Zn  Zn31  1  0.23285161  0.58542355  0.16274257  1
  Zn  Zn32  1  0.51000250  0.51000250  0.13927133  1
  Zn  Zn33  1  0.48999750  0.48999750  0.86072867  1
  Zn  Zn34  1  0.48999750  0.48999750  0.63927133  1
  Zn  Zn35  1  0.51000250  0.51000250  0.36072867  1
  Zn  Zn36  1  0.05406472  0.05406472  0.66385288  1
  Zn  Zn37  1  0.94593528  0.94593528  0.33614712  1
  Zn  Zn38  1  0.94593528  0.94593528  0.16385288  1
  Zn  Zn39  1  0.05406472  0.05406472  0.83614712  1
  Zn  Zn40  1  0.41048136  0.17720125  0.11311181  1
  Zn  Zn41  1  0.58951864  0.82279875  0.88688819  1
  Zn  Zn42  1  0.58951864  0.82279875  0.61311181  1
  Zn  Zn43  1  0.17720125  0.41048136  0.38688819  1
  Zn  Zn44  1  0.41048136  0.17720125  0.38688819  1
  Zn  Zn45  1  0.82279875  0.58951864  0.61311181  1
  Zn  Zn46  1  0.82279875  0.58951864  0.88688819  1
  Zn  Zn47  1  0.17720125  0.41048136  0.11311181  1
  Zn  Zn48  1  0.55270061  0.55270061  0.25000000  1
  Zn  Zn49  1  0.44729939  0.44729939  0.75000000  1
  Zn  Zn50  1  0.04184539  0.04184539  0.55717980  1
  Zn  Zn51  1  0.95815461  0.95815461  0.44282020  1
  Zn  Zn52  1  0.95815461  0.95815461  0.05717980  1
  Zn  Zn53  1  0.04184539  0.04184539  0.94282020  1
  Zn  Zn54  1  0.28213797  0.92431188  0.15283432  1
  Zn  Zn55  1  0.71786203  0.07568812  0.84716568  1
  Zn  Zn56  1  0.71786203  0.07568812  0.65283432  1
  Zn  Zn57  1  0.92431188  0.28213797  0.34716568  1
  Zn  Zn58  1  0.28213797  0.92431188  0.34716568  1
  Zn  Zn59  1  0.07568812  0.71786203  0.65283432  1
  Zn  Zn60  1  0.07568812  0.71786203  0.84716568  1
  Zn  Zn61  1  0.92431188  0.28213797  0.15283432  1
  Zn  Zn62  1  0.61083289  0.86855195  0.06787352  1
  Zn  Zn63  1  0.38916711  0.13144805  0.93212648  1
  Zn  Zn64  1  0.38916711  0.13144805  0.56787352  1
  Zn  Zn65  1  0.86855195  0.61083289  0.43212648  1
  Zn  Zn66  1  0.61083289  0.86855195  0.43212648  1
  Zn  Zn67  1  0.13144805  0.38916711  0.56787352  1
  Zn  Zn68  1  0.13144805  0.38916711  0.93212648  1
  Zn  Zn69  1  0.86855195  0.61083289  0.06787352  1
  Zn  Zn70  1  0.67988103  0.90842814  0.25000000  1
  Zn  Zn71  1  0.32011897  0.09157186  0.75000000  1
  Zn  Zn72  1  0.90842814  0.67988103  0.25000000  1
  Zn  Zn73  1  0.09157186  0.32011897  0.75000000  1
  Zn  Zn74  1  0.43278277  0.80232322  0.01798650  1
  Zn  Zn75  1  0.56721723  0.19767678  0.98201350  1
  Zn  Zn76  1  0.56721723  0.19767678  0.51798650  1
  Zn  Zn77  1  0.80232322  0.43278277  0.48201350  1
  Zn  Zn78  1  0.43278277  0.80232322  0.48201350  1
  Zn  Zn79  1  0.19767678  0.56721723  0.51798650  1
  Zn  Zn80  1  0.19767678  0.56721723  0.98201350  1
  Zn  Zn81  1  0.80232322  0.43278277  0.01798650  1
  Zn  Zn82  1  0.05415372  0.05415372  0.11210143  1
  Zn  Zn83  1  0.94584628  0.94584628  0.88789857  1
  Zn  Zn84  1  0.94584628  0.94584628  0.61210143  1
  Zn  Zn85  1  0.05415372  0.05415372  0.38789857  1
  Zn  Zn86  1  0.00000000  -0.00000000  0.00000000  1
  Zn  Zn87  1  0.00000000  -0.00000000  0.50000000  1
  Zn  Zn88  1  0.32806265  0.08313346  0.02322509  1
  Zn  Zn89  1  0.67193735  0.91686654  0.97677491  1
  Zn  Zn90  1  0.67193735  0.91686654  0.52322509  1
  Zn  Zn91  1  0.08313346  0.32806265  0.47677491  1
  Zn  Zn92  1  0.32806265  0.08313346  0.47677491  1
  Zn  Zn93  1  0.91686654  0.67193735  0.52322509  1
  Zn  Zn94  1  0.91686654  0.67193735  0.97677491  1
  Zn  Zn95  1  0.08313346  0.32806265  0.02322509  1
  Zn  Zn96  1  0.73009095  0.08269255  0.20025648  1
  Zn  Zn97  1  0.26990905  0.91730745  0.79974352  1
  Zn  Zn98  1  0.26990905  0.91730745  0.70025648  1
  Zn  Zn99  1  0.08269255  0.73009095  0.29974352  1
  Zn  Zn100  1  0.73009095  0.08269255  0.29974352  1
  Zn  Zn101  1  0.91730745  0.26990905  0.70025648  1
  Zn  Zn102  1  0.91730745  0.26990905  0.79974352  1
  Zn  Zn103  1  0.08269255  0.73009095  0.20025648  1
  Zn  Zn104  1  0.55381414  0.18238806  0.25000000  1
  Zn  Zn105  1  0.44618586  0.81761194  0.75000000  1
  Zn  Zn106  1  0.18238806  0.55381414  0.25000000  1
  Zn  Zn107  1  0.81761194  0.44618586  0.75000000  1
  Zn  Zn108  1  0.01723813  0.01723813  0.22126699  1
  Zn  Zn109  1  0.98276187  0.98276187  0.77873301  1
  Zn  Zn110  1  0.98276187  0.98276187  0.72126699  1
  Zn  Zn111  1  0.01723813  0.01723813  0.27873301  1
  Zn  Zn112  1  0.68673411  0.05703682  0.11579166  1
  Zn  Zn113  1  0.31326589  0.94296318  0.88420834  1
  Zn  Zn114  1  0.31326589  0.94296318  0.61579166  1
  Zn  Zn115  1  0.05703682  0.68673411  0.38420834  1
  Zn  Zn116  1  0.68673411  0.05703682  0.38420834  1
  Zn  Zn117  1  0.94296318  0.31326589  0.61579166  1
  Zn  Zn118  1  0.94296318  0.31326589  0.88420834  1
  Zn  Zn119  1  0.05703682  0.68673411  0.11579166  1
  Zn  Zn120  1  0.41905954  0.77336146  0.21101823  1
  Zn  Zn121  1  0.58094046  0.22663854  0.78898177  1
  Zn  Zn122  1  0.58094046  0.22663854  0.71101823  1
  Zn  Zn123  1  0.77336146  0.41905954  0.28898177  1
  Zn  Zn124  1  0.41905954  0.77336146  0.28898177  1
  Zn  Zn125  1  0.22663854  0.58094046  0.71101823  1
  Zn  Zn126  1  0.22663854  0.58094046  0.78898177  1
  Zn  Zn127  1  0.77336146  0.41905954  0.21101823  1
  Zn  Zn128  1  0.58062418  0.22917973  0.06397700  1
  Zn  Zn129  1  0.41937582  0.77082027  0.93602300  1
  Zn  Zn130  1  0.41937582  0.77082027  0.56397700  1
  Zn  Zn131  1  0.22917973  0.58062418  0.43602300  1
  Zn  Zn132  1  0.58062418  0.22917973  0.43602300  1
  Zn  Zn133  1  0.77082027  0.41937582  0.56397700  1
  Zn  Zn134  1  0.77082027  0.41937582  0.93602300  1
  Zn  Zn135  1  0.22917973  0.58062418  0.06397700  1
  Zn  Zn136  1  0.45019684  0.45019684  0.19760954  1
  Zn  Zn137  1  0.54980316  0.54980316  0.80239046  1
  Zn  Zn138  1  0.54980316  0.54980316  0.69760954  1
  Zn  Zn139  1  0.45019684  0.45019684  0.30239046  1
  Zn  Zn140  1  0.44322458  0.44322458  0.02613458  1
  Zn  Zn141  1  0.55677542  0.55677542  0.97386542  1
  Zn  Zn142  1  0.55677542  0.55677542  0.52613458  1
  Zn  Zn143  1  0.44322458  0.44322458  0.47386542  1
  Zn  Zn144  1  0.52915064  0.52915064  0.08197783  1
  Zn  Zn145  1  0.47084936  0.47084936  0.91802217  1
  Zn  Zn146  1  0.47084936  0.47084936  0.58197783  1
  Zn  Zn147  1  0.52915064  0.52915064  0.41802217  1
  Pd  Pd0  1  0.39622809  0.75653386  0.11257275  1
  Pd  Pd1  1  0.60377191  0.24346614  0.88742725  1
  Pd  Pd2  1  0.60377191  0.24346614  0.61257275  1
  Pd  Pd3  1  0.75653386  0.39622809  0.38742725  1
  Pd  Pd4  1  0.39622809  0.75653386  0.38742725  1
  Pd  Pd5  1  0.24346614  0.60377191  0.61257275  1
  Pd  Pd6  1  0.24346614  0.60377191  0.88742725  1
  Pd  Pd7  1  0.75653386  0.39622809  0.11257275  1
  Pd  Pd8  1  0.25296148  0.89229415  0.25000000  1
  Pd  Pd9  1  0.74703852  0.10770585  0.75000000  1
  Pd  Pd10  1  0.89229415  0.25296148  0.25000000  1
  Pd  Pd11  1  0.10770585  0.74703852  0.75000000  1
  Pd  Pd12  1  0.22673807  0.22673807  0.61430909  1
  Pd  Pd13  1  0.77326193  0.77326193  0.38569091  1
  Pd  Pd14  1  0.77326193  0.77326193  0.11430909  1
  Pd  Pd15  1  0.22673807  0.22673807  0.88569091  1
  Pd  Pd16  1  0.24381493  0.24381493  0.06773842  1
  Pd  Pd17  1  0.75618507  0.75618507  0.93226158  1
  Pd  Pd18  1  0.75618507  0.75618507  0.56773842  1
  Pd  Pd19  1  0.24381493  0.24381493  0.43226158  1
  Pd  Pd20  1  0.23421224  0.23421224  0.15970458  1
  Pd  Pd21  1  0.76578776  0.76578776  0.84029542  1
  Pd  Pd22  1  0.76578776  0.76578776  0.65970458  1
  Pd  Pd23  1  0.23421224  0.23421224  0.34029542  1
  Pd  Pd24  1  0.73523206  0.09445899  0.02639946  1
  Pd  Pd25  1  0.26476794  0.90554101  0.97360054  1
  Pd  Pd26  1  0.26476794  0.90554101  0.52639946  1
  Pd  Pd27  1  0.09445899  0.73523206  0.47360054  1
  Pd  Pd28  1  0.73523206  0.09445899  0.47360054  1
  Pd  Pd29  1  0.90554101  0.26476794  0.52639946  1
  Pd  Pd30  1  0.90554101  0.26476794  0.97360054  1
  Pd  Pd31  1  0.09445899  0.73523206  0.02639946  1
  Pd  Pd32  1  0.26301947  0.26301947  0.70383235  1
  Pd  Pd33  1  0.73698053  0.73698053  0.29616765  1
  Pd  Pd34  1  0.73698053  0.73698053  0.20383235  1
  Pd  Pd35  1  0.26301947  0.26301947  0.79616765  1
  Pd  Pd36  1  0.27136373  0.27136373  0.25000000  1
  Pd  Pd37  1  0.72863627  0.72863627  0.75000000  1
  Pd  Pd38  1  0.27681456  0.27681456  0.52235131  1
  Pd  Pd39  1  0.72318544  0.72318544  0.47764869  1
  Pd  Pd40  1  0.72318544  0.72318544  0.02235131  1
  Pd  Pd41  1  0.27681456  0.27681456  0.97764869  1
loop_
_geom_bond_atom_site_label_1
_geom_bond_atom_site_label_2
_geom_bond_distance
_geom_bond_site_symmetry_2
Zn0 Zn24 2.651891 1_555
Zn0 Zn108 2.667624 1_555
Zn0 Zn136 2.715769 1_555
Zn0 Zn103 2.975938 1_545
Zn0 Zn96 3.073707 1_555
Zn1 Zn25 2.651891 1_555
Zn1 Zn109 2.667624 1_555
Zn1 Zn137 2.715769 1_555
Zn1 Zn102 2.975938 1_565
Zn1 Zn97 3.073707 1_555
Zn2 Zn26 2.651891 1_555
Zn2 Zn98 3.073707 1_555
Zn3 Zn99 3.073707 1_555
Zn4 Zn99 2.975938 1_545
Zn5 Zn98 2.975938 1_655
Zn6 Zn97 2.975938 1_655
Zn7 Zn96 2.975938 1_455
Zn8 Zn96 2.664091 1_565
Zn9 Zn97 2.664091 1_545
Zn10 Zn98 2.664091 1_545
Zn10 Zn34 2.690068 1_555
Zn10 Zn36 2.718366 1_555
Zn10 Zn29 2.876476 1_555
Zn11 Zn99 2.664091 1_655
Zn11 Zn35 2.690068 1_555
Zn11 Zn37 2.718366 1_555
Zn11 Zn28 2.876476 1_555
Zn12 Zn35 2.690068 1_555
Zn12 Zn37 2.718366 1_555
Zn12 Zn27 2.876476 1_555
Zn13 Zn34 2.690068 1_555
Zn13 Zn36 2.718366 1_555
Zn13 Zn26 2.876476 1_555
Zn14 Zn33 2.690068 1_555
Zn14 Zn39 2.718366 1_555
Zn14 Zn25 2.876476 1_555
Zn15 Zn32 2.690068 1_555
Zn15 Zn38 2.718366 1_555
Zn15 Zn24 2.876476 1_555
Zn16 Zn52 2.743373 1_455
Zn17 Zn53 2.743373 1_655
Zn18 Zn50 2.743373 1_655
Zn19 Zn51 2.743373 1_545
Zn20 Zn51 2.743373 1_455
Zn21 Zn50 2.743373 1_565
Zn22 Zn53 2.743373 1_565
Zn23 Zn52 2.743373 1_545
Zn24 Zn96 2.616040 1_555
Zn24 Zn61 2.652354 1_555
Zn24 Zn40 2.670348 1_555
Zn24 Zn32 2.729328 1_555
Zn24 Zn54 2.852546 1_545
Zn25 Zn97 2.616040 1_555
Zn25 Zn60 2.652354 1_555
Zn25 Zn41 2.670348 1_555
Zn25 Zn33 2.729328 1_555
Zn25 Zn55 2.852546 1_565
Zn26 Zn98 2.616040 1_555
Zn26 Zn59 2.652354 1_555
Zn26 Zn42 2.670348 1_555
Zn26 Zn34 2.729328 1_555
Zn26 Zn56 2.852546 1_565
Zn27 Zn99 2.616040 1_555
Zn27 Zn3 2.651891 1_555
Zn27 Zn58 2.652354 1_555
Zn27 Zn43 2.670348 1_555
Zn27 Zn35 2.729328 1_555
Zn27 Zn57 2.852546 1_455
Zn28 Zn4 2.651891 1_555
Zn28 Zn57 2.652354 1_555
Zn28 Zn44 2.670348 1_555
Zn28 Zn35 2.729328 1_555
Zn28 Zn58 2.852546 1_545
Zn29 Zn5 2.651891 1_555
Zn29 Zn56 2.652354 1_555
Zn29 Zn45 2.670348 1_555
Zn29 Zn34 2.729328 1_555
Zn29 Zn59 2.852546 1_655
Zn30 Zn6 2.651891 1_555
Zn30 Zn55 2.652354 1_555
Zn30 Zn46 2.670348 1_555
Zn30 Zn33 2.729328 1_555
Zn30 Zn60 2.852546 1_655
Zn30 Zn9 2.876476 1_555
Zn31 Zn7 2.651891 1_555
Zn31 Zn54 2.652354 1_555
Zn31 Zn47 2.670348 1_555
Zn31 Zn32 2.729328 1_555
Zn31 Zn61 2.852546 1_455
Zn31 Zn8 2.876476 1_555
Zn32 Zn8 2.690068 1_555
Zn32 Zn47 2.794406 1_555
Zn32 Zn40 2.794406 1_555
Zn33 Zn9 2.690068 1_555
Zn33 Zn41 2.794406 1_555
Zn33 Zn46 2.794406 1_555
Zn34 Zn42 2.794406 1_555
Zn34 Zn45 2.794406 1_555
Zn35 Zn43 2.794406 1_555
Zn35 Zn44 2.794406 1_555
Zn36 Zn84 2.617451 1_445
Zn36 Zn56 2.811419 1_455
Zn36 Zn59 2.811419 1_545
Zn36 Zn98 2.900955 1_545
Zn37 Zn85 2.617451 1_665
Zn37 Zn57 2.811419 1_565
Zn37 Zn58 2.811419 1_655
Zn37 Zn99 2.900955 1_655
Zn38 Zn82 2.617451 1_665
Zn38 Zn8 2.718366 1_555
Zn38 Zn54 2.811419 1_655
Zn38 Zn61 2.811419 1_565
Zn38 Zn96 2.900955 1_565
Zn39 Zn83 2.617451 1_445
Zn39 Zn9 2.718366 1_555
Zn39 Zn55 2.811419 1_455
Zn39 Zn60 2.811419 1_545
Zn39 Zn97 2.900955 1_545
Zn50 Zn64 2.676921 1_555
Zn50 Zn67 2.676921 1_555
Zn50 Zn87 2.702179 1_555
Zn50 Zn84 2.716568 1_445
Zn51 Zn65 2.676921 1_555
Zn51 Zn66 2.676921 1_555
Zn51 Zn87 2.702179 1_665
Zn51 Zn85 2.716568 1_665
Zn52 Zn62 2.676921 1_555
Zn52 Zn69 2.676921 1_555
Zn52 Zn86 2.702179 1_665
Zn52 Zn82 2.716568 1_665
Zn53 Zn63 2.676921 1_555
Zn53 Zn68 2.676921 1_555
Zn53 Zn86 2.702179 1_556
Zn53 Zn83 2.716568 1_445
Zn58 Zn99 2.863719 1_555
Zn59 Zn98 2.863719 1_555
Zn60 Zn97 2.863719 1_555
Zn61 Zn96 2.863719 1_555
Zn70 Zn96 2.673303 1_565
Zn71 Zn98 2.673303 1_545
Zn71 Zn97 2.673303 1_545
Zn72 Zn99 2.673303 1_655
Zn86 Zn89 2.712152 1_444
Zn86 Zn94 2.712152 1_444
Zn86 Zn88 2.712152 1_555
Zn86 Zn95 2.712152 1_555
Zn87 Zn90 2.712152 1_445
Zn87 Zn93 2.712152 1_445
Zn87 Zn91 2.712152 1_555
Zn87 Zn92 2.712152 1_555
Zn100 Zn28 2.616040 1_555
Zn100 Zn123 2.650104 1_555
Zn100 Zn12 2.664091 1_545
Zn100 Zn70 2.673303 1_545
Zn100 Zn111 2.718366 1_655
Zn100 Zn57 2.863719 1_555
Zn100 Zn124 2.897783 1_545
Zn100 Zn37 2.900955 1_545
Zn100 Zn104 2.972528 1_555
Zn100 Zn3 2.975938 1_655
Zn100 Zn4 3.073707 1_555
Zn101 Zn29 2.616040 1_555
Zn101 Zn122 2.650104 1_555
Zn101 Zn13 2.664091 1_655
Zn101 Zn73 2.673303 1_655
Zn101 Zn110 2.718366 1_545
Zn101 Zn56 2.863719 1_555
Zn101 Zn125 2.897783 1_655
Zn101 Zn36 2.900955 1_655
Zn101 Zn107 2.972528 1_555
Zn101 Zn2 2.975938 1_545
Zn101 Zn5 3.073707 1_555
Zn102 Zn30 2.616040 1_555
Zn102 Zn121 2.650104 1_555
Zn102 Zn14 2.664091 1_655
Zn102 Zn73 2.673303 1_655
Zn102 Zn109 2.718366 1_545
Zn102 Zn55 2.863719 1_555
Zn102 Zn126 2.897783 1_655
Zn102 Zn39 2.900955 1_655
Zn102 Zn107 2.972528 1_555
Zn102 Zn6 3.073707 1_555
Zn103 Zn31 2.616040 1_555
Zn103 Zn120 2.650104 1_555
Zn103 Zn15 2.664091 1_455
Zn103 Zn72 2.673303 1_455
Zn103 Zn108 2.718366 1_565
Zn103 Zn54 2.863719 1_555
Zn103 Zn127 2.897783 1_455
Zn103 Zn38 2.900955 1_455
Zn103 Zn106 2.972528 1_555
Zn103 Zn7 3.073707 1_555
Zn104 Zn96 2.972528 1_555
Zn105 Zn97 2.972528 1_555
Zn105 Zn98 2.972528 1_555
Zn106 Zn99 2.972528 1_555
Zn108 Zn7 2.667624 1_555
Zn108 Zn111 2.688002 1_555
Zn108 Zn96 2.718366 1_455
Zn108 Zn38 2.764531 1_445
Zn108 Zn70 2.877585 1_445
Zn108 Zn72 2.877585 1_445
Zn109 Zn6 2.667624 1_555
Zn109 Zn110 2.688002 1_555
Zn109 Zn97 2.718366 1_655
Zn109 Zn39 2.764531 1_665
Zn109 Zn73 2.877585 1_665
Zn109 Zn71 2.877585 1_665
Zn110 Zn2 2.667624 1_555
Zn110 Zn5 2.667624 1_555
Zn110 Zn98 2.718366 1_655
Zn110 Zn36 2.764531 1_665
Zn110 Zn73 2.877585 1_665
Zn110 Zn71 2.877585 1_665
Zn111 Zn4 2.667624 1_555
Zn111 Zn3 2.667624 1_555
Zn111 Zn99 2.718366 1_545
Zn111 Zn37 2.764531 1_445
Zn111 Zn70 2.877585 1_445
Zn111 Zn72 2.877585 1_445
Zn112 Zn24 2.875080 1_555
Zn113 Zn25 2.875080 1_555
Zn114 Zn26 2.875080 1_555
Zn115 Zn27 2.875080 1_555
Zn116 Zn28 2.875080 1_555
Zn117 Zn29 2.875080 1_555
Zn118 Zn30 2.875080 1_555
Zn119 Zn31 2.875080 1_555
Zn120 Zn136 2.762909 1_555
Zn120 Zn31 2.839258 1_555
Zn120 Zn96 2.897783 1_565
Zn121 Zn137 2.762909 1_555
Zn121 Zn30 2.839258 1_555
Zn121 Zn97 2.897783 1_545
Zn122 Zn138 2.762909 1_555
Zn122 Zn29 2.839258 1_555
Zn122 Zn98 2.897783 1_545
Zn123 Zn139 2.762909 1_555
Zn123 Zn28 2.839258 1_555
Zn123 Zn99 2.897783 1_655
Zn124 Zn99 2.650104 1_555
Zn124 Zn139 2.762909 1_555
Zn124 Zn27 2.839258 1_555
Zn125 Zn98 2.650104 1_555
Zn125 Zn138 2.762909 1_555
Zn125 Zn26 2.839258 1_555
Zn126 Zn97 2.650104 1_555
Zn126 Zn137 2.762909 1_555
Zn126 Zn25 2.839258 1_555
Zn127 Zn96 2.650104 1_555
Zn127 Zn136 2.762909 1_555
Zn127 Zn24 2.839258 1_555
Zn128 Zn144 2.713676 1_555
Zn129 Zn145 2.713676 1_555
Zn130 Zn146 2.713676 1_555
Zn131 Zn147 2.713676 1_555
Zn132 Zn147 2.713676 1_555
Zn133 Zn146 2.713676 1_555
Zn134 Zn145 2.713676 1_555
Zn135 Zn144 2.713676 1_555
Zn136 Zn48 2.625781 1_555
Zn136 Zn7 2.715769 1_555
Zn136 Zn32 2.783718 1_555
Zn136 Zn24 2.861007 1_555
Zn136 Zn31 2.861007 1_555
Zn137 Zn49 2.625781 1_555
Zn137 Zn6 2.715769 1_555
Zn137 Zn33 2.783718 1_555
Zn137 Zn25 2.861007 1_555
Zn137 Zn30 2.861007 1_555
Zn138 Zn49 2.625781 1_555
Zn138 Zn2 2.715769 1_555
Zn138 Zn5 2.715769 1_555
Zn138 Zn34 2.783718 1_555
Zn138 Zn29 2.861007 1_555
Zn138 Zn26 2.861007 1_555
Zn139 Zn48 2.625781 1_555
Zn139 Zn4 2.715769 1_555
Zn139 Zn3 2.715769 1_555
Zn139 Zn35 2.783718 1_555
Zn139 Zn27 2.861007 1_555
Zn139 Zn28 2.861007 1_555
Zn140 Zn144 2.729099 1_555
Zn141 Zn145 2.729099 1_555
Zn142 Zn146 2.729099 1_555
Zn143 Zn147 2.729099 1_555
Zn144 Zn62 2.657696 1_555
Zn144 Zn69 2.657696 1_555
Zn144 Zn32 2.685716 1_555
Zn145 Zn68 2.657696 1_555
Zn145 Zn63 2.657696 1_555
Zn145 Zn33 2.685716 1_555
Zn146 Zn67 2.657696 1_555
Zn146 Zn64 2.657696 1_555
Zn146 Zn34 2.685716 1_555
Zn147 Zn65 2.657696 1_555
Zn147 Zn66 2.657696 1_555
Zn147 Zn35 2.685716 1_555
Pd0 Zn119 2.589360 1_555
Pd0 Zn16 2.628316 1_555
Pd0 Zn8 2.652761 1_555
Pd0 Zn54 2.654804 1_555
Pd0 Zn62 2.661717 1_555
Pd0 Zn112 2.723636 1_565
Pd0 Zn47 2.730605 1_555
Pd0 Zn32 2.748462 1_555
Pd0 Zn135 2.767534 1_555
Pd0 Zn144 2.803273 1_555
Pd0 Zn31 2.806625 1_555
Pd1 Zn118 2.589360 1_555
Pd1 Zn17 2.628316 1_555
Pd1 Zn9 2.652761 1_555
Pd1 Zn55 2.654804 1_555
Pd1 Zn63 2.661717 1_555
Pd1 Zn113 2.723636 1_545
Pd1 Zn46 2.730605 1_555
Pd1 Zn33 2.748462 1_555
Pd1 Zn134 2.767534 1_555
Pd1 Zn145 2.803273 1_555
Pd1 Zn30 2.806625 1_555
Pd2 Zn117 2.589360 1_555
Pd2 Zn18 2.628316 1_555
Pd2 Zn10 2.652761 1_555
Pd2 Zn56 2.654804 1_555
Pd2 Zn64 2.661717 1_555
Pd2 Zn114 2.723636 1_545
Pd2 Zn45 2.730605 1_555
Pd2 Zn34 2.748462 1_555
Pd2 Zn133 2.767534 1_555
Pd2 Zn146 2.803273 1_555
Pd2 Zn29 2.806625 1_555
Pd3 Zn116 2.589360 1_555
Pd3 Zn19 2.628316 1_555
Pd3 Zn11 2.652761 1_555
Pd3 Zn57 2.654804 1_555
Pd3 Zn65 2.661717 1_555
Pd3 Zn115 2.723636 1_655
Pd3 Zn44 2.730605 1_555
Pd3 Zn35 2.748462 1_555
Pd3 Zn132 2.767534 1_555
Pd3 Zn147 2.803273 1_555
Pd3 Zn28 2.806625 1_555
Pd4 Zn115 2.589360 1_555
Pd4 Zn20 2.628316 1_555
Pd4 Zn12 2.652761 1_555
Pd4 Zn58 2.654804 1_555
Pd4 Zn66 2.661717 1_555
Pd4 Zn116 2.723636 1_565
Pd4 Zn43 2.730605 1_555
Pd4 Zn35 2.748462 1_555
Pd4 Zn131 2.767534 1_555
Pd4 Zn147 2.803273 1_555
Pd4 Zn27 2.806625 1_555
Pd5 Zn114 2.589360 1_555
Pd5 Zn21 2.628316 1_555
Pd5 Zn13 2.652761 1_555
Pd5 Zn59 2.654804 1_555
Pd5 Zn67 2.661717 1_555
Pd5 Zn117 2.723636 1_455
Pd5 Zn42 2.730605 1_555
Pd5 Zn34 2.748462 1_555
Pd5 Zn130 2.767534 1_555
Pd5 Zn146 2.803273 1_555
Pd5 Zn26 2.806625 1_555
Pd6 Zn113 2.589360 1_555
Pd6 Zn22 2.628316 1_555
Pd6 Zn14 2.652761 1_555
Pd6 Zn60 2.654804 1_555
Pd6 Zn68 2.661717 1_555
Pd6 Zn118 2.723636 1_455
Pd6 Zn41 2.730605 1_555
Pd6 Zn33 2.748462 1_555
Pd6 Zn129 2.767534 1_555
Pd6 Zn145 2.803273 1_555
Pd6 Zn25 2.806625 1_555
Pd7 Zn112 2.589360 1_555
Pd7 Zn23 2.628316 1_555
Pd7 Zn15 2.652761 1_555
Pd7 Zn61 2.654804 1_555
Pd7 Zn69 2.661717 1_555
Pd7 Zn119 2.723636 1_655
Pd7 Zn40 2.730605 1_555
Pd7 Zn32 2.748462 1_555
Pd7 Zn128 2.767534 1_555
Pd7 Zn144 2.803273 1_555
Pd7 Zn24 2.806625 1_555
Pd8 Zn106 2.578497 1_555
Pd8 Zn120 2.624845 1_555
Pd8 Zn124 2.624845 1_555
Pd8 Zn0 2.647998 1_565
Pd8 Zn4 2.647998 1_565
Pd8 Zn72 2.705484 1_455
Pd8 Zn104 2.719310 1_565
Pd8 Zn108 2.774673 1_565
Pd8 Zn111 2.774673 1_565
Pd8 Zn99 2.784915 1_555
Pd8 Zn103 2.784915 1_555
Pd9 Zn107 2.578497 1_555
Pd9 Zn122 2.624845 1_555
Pd9 Zn121 2.624845 1_555
Pd9 Zn1 2.647998 1_545
Pd9 Zn2 2.647998 1_545
Pd9 Zn73 2.705484 1_655
Pd9 Zn105 2.719310 1_545
Pd9 Zn110 2.774673 1_545
Pd9 Zn109 2.774673 1_545
Pd9 Zn102 2.784915 1_555
Pd9 Zn101 2.784915 1_555
Pd10 Zn104 2.578497 1_555
Pd10 Zn127 2.624845 1_555
Pd10 Zn123 2.624845 1_555
Pd10 Zn7 2.647998 1_655
Pd10 Zn3 2.647998 1_655
Pd10 Zn70 2.705484 1_545
Pd10 Zn106 2.719310 1_655
Pd10 Zn108 2.774673 1_655
Pd10 Zn111 2.774673 1_655
Pd10 Zn100 2.784915 1_555
Pd10 Zn96 2.784915 1_555
Pd11 Zn105 2.578497 1_555
Pd11 Zn125 2.624845 1_555
Pd11 Zn126 2.624845 1_555
Pd11 Zn6 2.647998 1_455
Pd11 Zn5 2.647998 1_455
Pd11 Zn71 2.705484 1_565
Pd11 Zn107 2.719310 1_455
Pd11 Zn109 2.774673 1_455
Pd11 Zn110 2.774673 1_455
Pd11 Zn97 2.784915 1_555
Pd11 Zn98 2.784915 1_555
Pd12 Zn84 2.586299 1_445
Pd12 Zn114 2.601127 1_545
Pd12 Zn117 2.601127 1_455
Pd12 Zn34 2.688774 1_555
Pd12 Zn146 2.707570 1_555
Pd12 Zn13 2.772097 1_555
Pd12 Zn10 2.772097 1_555
Pd12 Zn64 2.772952 1_555
Pd12 Zn67 2.772952 1_555
Pd12 Zn36 2.809663 1_555
Pd12 Zn50 3.167719 1_555
Pd13 Zn85 2.586299 1_665
Pd13 Zn115 2.601127 1_655
Pd13 Zn116 2.601127 1_565
Pd13 Zn35 2.688774 1_555
Pd13 Zn147 2.707570 1_555
Pd13 Zn11 2.772097 1_555
Pd13 Zn12 2.772097 1_555
Pd13 Zn66 2.772952 1_555
Pd13 Zn65 2.772952 1_555
Pd13 Zn37 2.809663 1_555
Pd13 Zn51 3.167719 1_555
Pd14 Zn82 2.586299 1_665
Pd14 Zn112 2.601127 1_565
Pd14 Zn119 2.601127 1_655
Pd14 Zn32 2.688774 1_555
Pd14 Zn144 2.707570 1_555
Pd14 Zn8 2.772097 1_555
Pd14 Zn15 2.772097 1_555
Pd14 Zn69 2.772952 1_555
Pd14 Zn62 2.772952 1_555
Pd14 Zn38 2.809663 1_555
Pd14 Zn52 3.167719 1_555
Pd15 Zn83 2.586299 1_445
Pd15 Zn113 2.601127 1_545
Pd15 Zn118 2.601127 1_455
Pd15 Zn33 2.688774 1_555
Pd15 Zn145 2.707570 1_555
Pd15 Zn9 2.772097 1_555
Pd15 Zn14 2.772097 1_555
Pd15 Zn63 2.772952 1_555
Pd15 Zn68 2.772952 1_555
Pd15 Zn39 2.809663 1_555
Pd15 Zn53 3.167719 1_555
Pd16 Zn88 2.656429 1_555
Pd16 Zn95 2.656429 1_555
Pd16 Zn40 2.659463 1_555
Pd16 Zn47 2.659463 1_555
Pd16 Zn52 2.674112 1_445
Pd16 Zn140 2.674472 1_555
Pd16 Zn144 2.708301 1_555
Pd16 Zn82 2.711225 1_555
Pd16 Zn16 2.713019 1_545
Pd16 Zn23 2.713019 1_455
Pd16 Zn128 2.752404 1_555
Pd16 Zn135 2.752404 1_555
Pd17 Zn94 2.656429 1_555
Pd17 Zn89 2.656429 1_555
Pd17 Zn46 2.659463 1_555
Pd17 Zn41 2.659463 1_555
Pd17 Zn53 2.674112 1_665
Pd17 Zn141 2.674472 1_555
Pd17 Zn145 2.708301 1_555
Pd17 Zn83 2.711225 1_555
Pd17 Zn17 2.713019 1_565
Pd17 Zn22 2.713019 1_655
Pd17 Zn134 2.752404 1_555
Pd17 Zn129 2.752404 1_555
Pd18 Zn93 2.656429 1_555
Pd18 Zn90 2.656429 1_555
Pd18 Zn45 2.659463 1_555
Pd18 Zn42 2.659463 1_555
Pd18 Zn50 2.674112 1_665
Pd18 Zn142 2.674472 1_555
Pd18 Zn146 2.708301 1_555
Pd18 Zn84 2.711225 1_555
Pd18 Zn21 2.713019 1_655
Pd18 Zn18 2.713019 1_565
Pd18 Zn130 2.752404 1_555
Pd18 Zn133 2.752404 1_555
Pd19 Zn92 2.656429 1_555
Pd19 Zn91 2.656429 1_555
Pd19 Zn43 2.659463 1_555
Pd19 Zn44 2.659463 1_555
Pd19 Zn51 2.674112 1_445
Pd19 Zn143 2.674472 1_555
Pd19 Zn147 2.708301 1_555
Pd19 Zn85 2.711225 1_555
Pd19 Zn20 2.713019 1_545
Pd19 Zn19 2.713019 1_455
Pd19 Zn132 2.752404 1_555
Pd19 Zn131 2.752404 1_555
Pd20 Zn38 2.659270 1_445
Pd20 Zn136 2.663102 1_555
Pd20 Zn61 2.664569 1_455
Pd20 Zn54 2.664569 1_545
Pd20 Zn7 2.676657 1_555
Pd20 Zn0 2.676657 1_555
Pd20 Zn32 2.711348 1_555
Pd20 Zn47 2.721622 1_555
Pd20 Zn40 2.721622 1_555
Pd20 Zn82 2.775285 1_555
Pd20 Zn24 2.827174 1_555
Pd20 Zn31 2.827174 1_555
Pd21 Zn39 2.659270 1_665
Pd21 Zn137 2.663102 1_555
Pd21 Zn60 2.664569 1_655
Pd21 Zn55 2.664569 1_565
Pd21 Zn6 2.676657 1_555
Pd21 Zn1 2.676657 1_555
Pd21 Zn33 2.711348 1_555
Pd21 Zn41 2.721622 1_555
Pd21 Zn46 2.721622 1_555
Pd21 Zn83 2.775285 1_555
Pd21 Zn30 2.827174 1_555
Pd21 Zn25 2.827174 1_555
Pd22 Zn36 2.659270 1_665
Pd22 Zn138 2.663102 1_555
Pd22 Zn59 2.664569 1_655
Pd22 Zn56 2.664569 1_565
Pd22 Zn5 2.676657 1_555
Pd22 Zn2 2.676657 1_555
Pd22 Zn34 2.711348 1_555
Pd22 Zn45 2.721622 1_555
Pd22 Zn42 2.721622 1_555
Pd22 Zn84 2.775285 1_555
Pd22 Zn29 2.827174 1_555
Pd22 Zn26 2.827174 1_555
Pd23 Zn37 2.659270 1_445
Pd23 Zn139 2.663102 1_555
Pd23 Zn57 2.664569 1_455
Pd23 Zn58 2.664569 1_545
Pd23 Zn4 2.676657 1_555
Pd23 Zn3 2.676657 1_555
Pd23 Zn35 2.711348 1_555
Pd23 Zn43 2.721622 1_555
Pd23 Zn44 2.721622 1_555
Pd23 Zn85 2.775285 1_555
Pd23 Zn27 2.827174 1_555
Pd23 Zn28 2.827174 1_555
Pd24 Zn128 2.592832 1_555
Pd24 Zn62 2.608901 1_545
Pd24 Zn81 2.611216 1_555
Pd24 Zn89 2.679851 1_544
Pd24 Zn75 2.754082 1_554
Pd24 Zn23 2.757506 1_555
Pd24 Zn74 2.764123 1_545
Pd24 Zn86 2.779659 1_655
Pd24 Zn95 2.782650 1_655
Pd24 Zn52 2.796350 1_545
Pd25 Zn129 2.592832 1_555
Pd25 Zn63 2.608901 1_565
Pd25 Zn80 2.611216 1_555
Pd25 Zn88 2.679851 1_566
Pd25 Zn74 2.754082 1_556
Pd25 Zn22 2.757506 1_555
Pd25 Zn75 2.764123 1_565
Pd25 Zn86 2.779659 1_566
Pd25 Zn94 2.782650 1_455
Pd25 Zn53 2.796350 1_565
Pd26 Zn130 2.592832 1_555
Pd26 Zn64 2.608901 1_565
Pd26 Zn79 2.611216 1_555
Pd26 Zn92 2.679851 1_565
Pd26 Zn78 2.754082 1_555
Pd26 Zn21 2.757506 1_555
Pd26 Zn76 2.764123 1_565
Pd26 Zn87 2.779659 1_565
Pd26 Zn93 2.782650 1_455
Pd26 Zn50 2.796350 1_565
Pd27 Zn131 2.592832 1_555
Pd27 Zn65 2.608901 1_455
Pd27 Zn78 2.611216 1_555
Pd27 Zn93 2.679851 1_455
Pd27 Zn79 2.754082 1_555
Pd27 Zn20 2.757506 1_555
Pd27 Zn77 2.764123 1_455
Pd27 Zn87 2.779659 1_565
Pd27 Zn92 2.782650 1_565
Pd27 Zn51 2.796350 1_455
Pd28 Zn132 2.592832 1_555
Pd28 Zn66 2.608901 1_545
Pd28 Zn77 2.611216 1_555
Pd28 Zn90 2.679851 1_545
Pd28 Zn76 2.754082 1_555
Pd28 Zn19 2.757506 1_555
Pd28 Zn78 2.764123 1_545
Pd28 Zn87 2.779659 1_655
Pd28 Zn91 2.782650 1_655
Pd28 Zn51 2.796350 1_545
Pd29 Zn133 2.592832 1_555
Pd29 Zn67 2.608901 1_655
Pd29 Zn76 2.611216 1_555
Pd29 Zn91 2.679851 1_655
Pd29 Zn77 2.754082 1_555
Pd29 Zn18 2.757506 1_555
Pd29 Zn79 2.764123 1_655
Pd29 Zn87 2.779659 1_655
Pd29 Zn90 2.782650 1_545
Pd29 Zn50 2.796350 1_655
Pd30 Zn134 2.592832 1_555
Pd30 Zn68 2.608901 1_655
Pd30 Zn75 2.611216 1_555
Pd30 Zn95 2.679851 1_656
Pd30 Zn81 2.754082 1_556
Pd30 Zn17 2.757506 1_555
Pd30 Zn80 2.764123 1_655
Pd30 Zn86 2.779659 1_656
Pd30 Zn89 2.782650 1_545
Pd30 Zn53 2.796350 1_655
Pd31 Zn135 2.592832 1_555
Pd31 Zn69 2.608901 1_455
Pd31 Zn74 2.611216 1_555
Pd31 Zn94 2.679851 1_454
Pd31 Zn80 2.754082 1_554
Pd31 Zn16 2.757506 1_555
Pd31 Zn81 2.764123 1_455
Pd31 Zn86 2.779659 1_565
Pd31 Zn88 2.782650 1_565
Pd31 Zn52 2.796350 1_455
Pd32 Zn13 2.646125 1_555
Pd32 Zn10 2.646125 1_555
Pd32 Zn138 2.654450 1_555
Pd32 Zn36 2.681935 1_555
Pd32 Zn73 2.683659 1_555
Pd32 Zn71 2.683659 1_555
Pd32 Zn125 2.688119 1_555
Pd32 Zn122 2.688119 1_555
Pd32 Zn110 2.704297 1_445
Pd32 Zn49 2.745519 1_555
Pd32 Zn98 2.800159 1_545
Pd32 Zn101 2.800159 1_455
Pd33 Zn11 2.646125 1_555
Pd33 Zn12 2.646125 1_555
Pd33 Zn139 2.654450 1_555
Pd33 Zn37 2.681935 1_555
Pd33 Zn72 2.683659 1_555
Pd33 Zn70 2.683659 1_555
Pd33 Zn123 2.688119 1_555
Pd33 Zn124 2.688119 1_555
Pd33 Zn111 2.704297 1_665
Pd33 Zn48 2.745519 1_555
Pd33 Zn100 2.800159 1_565
Pd33 Zn99 2.800159 1_655
Pd34 Zn8 2.646125 1_555
Pd34 Zn15 2.646125 1_555
Pd34 Zn136 2.654450 1_555
Pd34 Zn38 2.681935 1_555
Pd34 Zn72 2.683659 1_555
Pd34 Zn70 2.683659 1_555
Pd34 Zn127 2.688119 1_555
Pd34 Zn120 2.688119 1_555
Pd34 Zn108 2.704297 1_665
Pd34 Zn48 2.745519 1_555
Pd34 Zn103 2.800159 1_655
Pd34 Zn96 2.800159 1_565
Pd35 Zn14 2.646125 1_555
Pd35 Zn9 2.646125 1_555
Pd35 Zn137 2.654450 1_555
Pd35 Zn39 2.681935 1_555
Pd35 Zn73 2.683659 1_555
Pd35 Zn71 2.683659 1_555
Pd35 Zn126 2.688119 1_555
Pd35 Zn121 2.688119 1_555
Pd35 Zn109 2.704297 1_445
Pd35 Zn49 2.745519 1_555
Pd35 Zn97 2.800159 1_545
Pd35 Zn102 2.800159 1_455
Pd36 Zn48 2.588332 1_555
Pd36 Zn104 2.601143 1_555
Pd36 Zn106 2.601143 1_555
Pd36 Zn111 2.696759 1_555
Pd36 Zn108 2.696759 1_555
Pd36 Zn0 2.786015 1_555
Pd36 Zn7 2.786015 1_555
Pd36 Zn4 2.786015 1_555
Pd36 Zn3 2.786015 1_555
Pd36 Zn136 2.951670 1_555
Pd36 Zn139 2.951670 1_555
Pd37 Zn49 2.588332 1_555
Pd37 Zn107 2.601143 1_555
Pd37 Zn105 2.601143 1_555
Pd37 Zn109 2.696759 1_555
Pd37 Zn110 2.696759 1_555
Pd37 Zn5 2.786015 1_555
Pd37 Zn2 2.786015 1_555
Pd37 Zn6 2.786015 1_555
Pd37 Zn1 2.786015 1_555
Pd37 Zn138 2.951670 1_555
Pd37 Zn137 2.951670 1_555
Pd38 Zn142 2.581744 1_555
Pd38 Zn79 2.626689 1_555
Pd38 Zn76 2.626689 1_555
Pd38 Zn50 2.706874 1_555
Pd38 Zn64 2.726385 1_555
Pd38 Zn67 2.726385 1_555
Pd38 Zn143 2.736337 1_555
Pd38 Zn91 2.751694 1_555
Pd38 Zn92 2.751694 1_555
Pd38 Zn87 2.752975 1_555
Pd39 Zn143 2.581744 1_555
Pd39 Zn78 2.626689 1_555
Pd39 Zn77 2.626689 1_555
Pd39 Zn51 2.706874 1_555
Pd39 Zn66 2.726385 1_555
Pd39 Zn65 2.726385 1_555
Pd39 Zn142 2.736337 1_555
Pd39 Zn93 2.751694 1_555
Pd39 Zn90 2.751694 1_555
Pd39 Zn87 2.752975 1_665
Pd40 Zn140 2.581744 1_555
Pd40 Zn81 2.626689 1_555
Pd40 Zn74 2.626689 1_555
Pd40 Zn52 2.706874 1_555
Pd40 Zn62 2.726385 1_555
Pd40 Zn69 2.726385 1_555
Pd40 Zn141 2.736337 1_554
Pd40 Zn94 2.751694 1_554
Pd40 Zn89 2.751694 1_554
Pd40 Zn86 2.752975 1_665
Pd41 Zn141 2.581744 1_555
Pd41 Zn75 2.626689 1_555
Pd41 Zn80 2.626689 1_555
Pd41 Zn53 2.706874 1_555
Pd41 Zn63 2.726385 1_555
Pd41 Zn68 2.726385 1_555
Pd41 Zn140 2.736337 1_556
Pd41 Zn95 2.751694 1_556
Pd41 Zn88 2.751694 1_556
Pd41 Zn86 2.752975 1_556
