# generated using pymatgen
data_Mg14AlNiO16
_symmetry_space_group_name_H-M   'P 1'
_cell_length_a   4.22289300
_cell_length_b   8.44068000
_cell_length_c   8.61042400
_cell_angle_alpha   90.00000000
_cell_angle_beta   90.00000000
_cell_angle_gamma   90.00000000
_symmetry_Int_Tables_number   1
_chemical_formula_structural   Mg14AlNiO16
_chemical_formula_sum   'Mg14 Al1 Ni1 O16'
_cell_volume   306.91071497
_cell_formula_units_Z   1
loop_
 _symmetry_equiv_pos_site_id
 _symmetry_equiv_pos_as_xyz
  1  'x, y, z'
loop_
 _atom_site_type_symbol
 _atom_site_label
 _atom_site_symmetry_multiplicity
 _atom_site_fract_x
 _atom_site_fract_y
 _atom_site_fract_z
 _atom_site_occupancy
  Mg  Mg0  1  0.00000000  0.50000000  0.00000000  1
  Mg  Mg1  1  0.00000000  0.50000000  0.50000000  1
  Mg  Mg2  1  0.50000000  0.00000000  0.25518900  1
  Mg  Mg3  1  0.50000000  0.00000000  0.74481100  1
  Mg  Mg4  1  0.50000000  0.50000000  0.25208700  1
  Mg  Mg5  1  0.50000000  0.50000000  0.74791300  1
  Mg  Mg6  1  0.50000000  0.24987400  0.00000000  1
  Mg  Mg7  1  0.50000000  0.24600400  0.50000000  1
  Mg  Mg8  1  0.50000000  0.75012600  0.00000000  1
  Mg  Mg9  1  0.50000000  0.75399600  0.50000000  1
  Mg  Mg10  1  0.00000000  0.24676300  0.25442600  1
  Mg  Mg11  1  0.00000000  0.24676300  0.74557400  1
  Mg  Mg12  1  0.00000000  0.75323700  0.25442600  1
  Mg  Mg13  1  0.00000000  0.75323700  0.74557400  1
  Al  Al0  1  0.00000000  0.00000000  0.00000000  1
  Ni  Ni0  1  0.00000000  0.00000000  0.50000000  1
  O  O0  1  0.00000000  0.23918300  0.00000000  1
  O  O1  1  0.00000000  0.25670800  0.50000000  1
  O  O2  1  0.00000000  0.76081700  0.00000000  1
  O  O3  1  0.00000000  0.74329200  0.50000000  1
  O  O4  1  0.50000000  0.24849800  0.24942200  1
  O  O5  1  0.50000000  0.24849800  0.75057800  1
  O  O6  1  0.50000000  0.75150200  0.24942200  1
  O  O7  1  0.50000000  0.75150200  0.75057800  1
  O  O8  1  0.50000000  0.00000000  0.00000000  1
  O  O9  1  0.50000000  0.00000000  0.50000000  1
  O  O10  1  0.50000000  0.50000000  0.00000000  1
  O  O11  1  0.50000000  0.50000000  0.50000000  1
  O  O12  1  0.00000000  0.00000000  0.21239500  1
  O  O13  1  0.00000000  0.00000000  0.78760500  1
  O  O14  1  0.00000000  0.50000000  0.24585300  1
  O  O15  1  0.00000000  0.50000000  0.75414700  1
loop_
_geom_bond_atom_site_label_1
_geom_bond_atom_site_label_2
_geom_bond_distance
_geom_bond_site_symmetry_2
Mg0 O10 2.111447 1_455
Mg0 O10 2.111447 1_555
Mg0 O14 2.116899 1_555
Mg0 O15 2.116899 1_554
Mg0 O0 2.201473 1_555
Mg0 O2 2.201473 1_555
Mg1 O3 2.053550 1_555
Mg1 O1 2.053550 1_555
Mg1 O11 2.111447 1_455
Mg1 O11 2.111447 1_555
Mg1 O14 2.188313 1_555
Mg1 O15 2.188313 1_555
Mg2 O4 2.098080 1_555
Mg2 O6 2.098080 1_545
Mg2 O9 2.107927 1_555
Mg2 O12 2.143357 1_655
Mg2 O12 2.143357 1_555
Mg2 O8 2.197285 1_555
Mg3 O5 2.098080 1_555
Mg3 O7 2.098080 1_545
Mg3 O9 2.107927 1_555
Mg3 O13 2.143357 1_555
Mg3 O13 2.143357 1_655
Mg3 O8 2.197285 1_556
Mg4 O14 2.112129 1_555
Mg4 O14 2.112129 1_655
Mg4 O4 2.122972 1_555
Mg4 O6 2.122972 1_555
Mg4 O11 2.134636 1_555
Mg4 O10 2.170576 1_555
Mg5 O15 2.112129 1_655
Mg5 O15 2.112129 1_555
Mg5 O7 2.122972 1_555
Mg5 O5 2.122972 1_555
Mg5 O11 2.134636 1_555
Mg5 O10 2.170576 1_556
Mg6 O8 2.109106 1_555
Mg6 O10 2.111234 1_555
Mg6 O0 2.113374 1_655
Mg6 O0 2.113374 1_555
Mg6 O4 2.147661 1_555
Mg6 O5 2.147661 1_554
Mg7 O9 2.076441 1_555
Mg7 O1 2.113379 1_655
Mg7 O1 2.113379 1_555
Mg7 O11 2.143899 1_555
Mg7 O4 2.157686 1_555
Mg7 O5 2.157686 1_555
Mg8 O8 2.109106 1_565
Mg8 O10 2.111234 1_555
Mg8 O2 2.113374 1_555
Mg8 O2 2.113374 1_655
Mg8 O6 2.147661 1_555
Mg8 O7 2.147661 1_554
Mg9 O9 2.076441 1_565
Mg9 O3 2.113379 1_655
Mg9 O3 2.113379 1_555
Mg9 O11 2.143899 1_555
Mg9 O7 2.157686 1_555
Mg9 O6 2.157686 1_555
Mg10 O4 2.111937 1_455
Mg10 O4 2.111937 1_555
Mg10 O12 2.114055 1_555
Mg10 O1 2.116162 1_555
Mg10 O14 2.138767 1_555
Mg10 O0 2.191650 1_555
Mg11 O5 2.111937 1_555
Mg11 O5 2.111937 1_455
Mg11 O13 2.114055 1_555
Mg11 O1 2.116162 1_555
Mg11 O15 2.138767 1_555
Mg11 O0 2.191650 1_556
Mg12 O6 2.111937 1_555
Mg12 O6 2.111937 1_455
Mg12 O12 2.114055 1_565
Mg12 O3 2.116162 1_555
Mg12 O14 2.138767 1_555
Mg12 O2 2.191650 1_555
Mg13 O7 2.111937 1_555
Mg13 O7 2.111937 1_455
Mg13 O13 2.114055 1_565
Mg13 O3 2.116162 1_555
Mg13 O15 2.138767 1_555
Mg13 O2 2.191650 1_556
Al0 O13 1.828811 1_554
Al0 O12 1.828811 1_555
Al0 O0 2.018867 1_555
Al0 O2 2.018867 1_545
Al0 O8 2.111447 1_555
Al0 O8 2.111447 1_455
Ni0 O9 2.111447 1_455
Ni0 O9 2.111447 1_555
Ni0 O1 2.166790 1_555
Ni0 O3 2.166790 1_545
Ni0 O12 2.476401 1_555
Ni0 O13 2.476401 1_555
