# generated using pymatgen
data_ZnFeNiP2O9
_symmetry_space_group_name_H-M   'P 1'
_cell_length_a   6.23124500
_cell_length_b   7.38674500
_cell_length_c   14.20968600
_cell_angle_alpha   90.00000000
_cell_angle_beta   90.00000000
_cell_angle_gamma   90.00000000
_symmetry_Int_Tables_number   1
_chemical_formula_structural   ZnFeNiP2O9
_chemical_formula_sum   'Zn4 Fe4 Ni4 P8 O36'
_cell_volume   654.05220663
_cell_formula_units_Z   4
loop_
 _symmetry_equiv_pos_site_id
 _symmetry_equiv_pos_as_xyz
  1  'x, y, z'
loop_
 _atom_site_type_symbol
 _atom_site_label
 _atom_site_symmetry_multiplicity
 _atom_site_fract_x
 _atom_site_fract_y
 _atom_site_fract_z
 _atom_site_occupancy
  Zn  Zn0  1  0.25000000  0.92916700  0.77924200  1
  Zn  Zn1  1  0.25000000  0.57083300  0.27924200  1
  Zn  Zn2  1  0.75000000  0.07083300  0.22075800  1
  Zn  Zn3  1  0.75000000  0.42916700  0.72075800  1
  Fe  Fe0  1  0.25000000  0.35314900  0.88175500  1
  Fe  Fe1  1  0.75000000  0.64685100  0.11824500  1
  Fe  Fe2  1  0.75000000  0.85314900  0.61824500  1
  Fe  Fe3  1  0.25000000  0.14685100  0.38175500  1
  Ni  Ni0  1  0.00000000  0.00000000  0.00000000  1
  Ni  Ni1  1  0.00000000  0.50000000  0.50000000  1
  Ni  Ni2  1  0.50000000  0.50000000  0.50000000  1
  Ni  Ni3  1  0.50000000  0.00000000  0.00000000  1
  P  P0  1  0.75000000  0.35705200  0.92920800  1
  P  P1  1  0.25000000  0.64294800  0.07079200  1
  P  P2  1  0.25000000  0.85705200  0.57079200  1
  P  P3  1  0.75000000  0.14294800  0.42920800  1
  P  P4  1  0.25000000  0.37926700  0.69522800  1
  P  P5  1  0.75000000  0.62073300  0.30477200  1
  P  P6  1  0.75000000  0.87926700  0.80477200  1
  P  P7  1  0.25000000  0.12073300  0.19522800  1
  O  O0  1  0.53686300  0.60902700  0.36077300  1
  O  O1  1  0.03686300  0.39097300  0.63922700  1
  O  O2  1  0.46313700  0.10902700  0.13922700  1
  O  O3  1  0.96313700  0.89097300  0.86077300  1
  O  O4  1  0.46313700  0.39097300  0.63922700  1
  O  O5  1  0.96313700  0.60902700  0.36077300  1
  O  O6  1  0.53686300  0.89097300  0.86077300  1
  O  O7  1  0.03686300  0.10902700  0.13922700  1
  O  O8  1  0.75000000  0.33423900  0.47659000  1
  O  O9  1  0.25000000  0.66576100  0.52341000  1
  O  O10  1  0.25000000  0.83423900  0.02341000  1
  O  O11  1  0.75000000  0.16576100  0.97659000  1
  O  O12  1  0.25000000  0.13105300  0.94763300  1
  O  O13  1  0.75000000  0.86894700  0.05236700  1
  O  O14  1  0.75000000  0.63105300  0.55236700  1
  O  O15  1  0.25000000  0.36894700  0.44763300  1
  O  O16  1  0.25000000  0.20017200  0.75471100  1
  O  O17  1  0.75000000  0.79982800  0.24528900  1
  O  O18  1  0.75000000  0.70017200  0.74528900  1
  O  O19  1  0.25000000  0.29982800  0.25471100  1
  O  O20  1  0.93916900  0.12893300  0.35974600  1
  O  O21  1  0.43916900  0.87106700  0.64025400  1
  O  O22  1  0.06083100  0.62893300  0.14025400  1
  O  O23  1  0.56083100  0.37106700  0.85974600  1
  O  O24  1  0.06083100  0.87106700  0.64025400  1
  O  O25  1  0.56083100  0.12893300  0.35974600  1
  O  O26  1  0.93916900  0.37106700  0.85974600  1
  O  O27  1  0.43916900  0.62893300  0.14025400  1
  O  O28  1  0.25000000  0.96951000  0.27198000  1
  O  O29  1  0.75000000  0.03049000  0.72802000  1
  O  O30  1  0.75000000  0.46951000  0.22802000  1
  O  O31  1  0.25000000  0.53049000  0.77198000  1
  O  O32  1  0.25000000  0.00221400  0.49497100  1
  O  O33  1  0.75000000  0.99778600  0.50502900  1
  O  O34  1  0.75000000  0.50221400  0.00502900  1
  O  O35  1  0.25000000  0.49778600  0.99497100  1
loop_
_geom_bond_atom_site_label_1
_geom_bond_atom_site_label_2
_geom_bond_distance
_geom_bond_site_symmetry_2
Fe0 O12 1.888849 1_555
Fe0 O35 1.931215 1_555
Fe0 O23 1.966410 1_555
Fe0 O26 1.966410 1_455
Fe0 O31 2.036963 1_555
Fe0 O16 2.129754 1_555
Fe1 O13 1.888849 1_555
Fe1 O34 1.931215 1_555
Fe1 O22 1.966410 1_655
Fe1 O27 1.966410 1_555
Fe1 O30 2.036963 1_555
Fe1 O17 2.129754 1_555
Fe2 O14 1.888849 1_555
Fe2 O33 1.931215 1_555
Fe2 O24 1.966410 1_655
Fe2 O21 1.966410 1_555
Fe2 O29 2.036963 1_565
Fe2 O18 2.129754 1_555
Fe3 O15 1.888849 1_555
Fe3 O32 1.931215 1_555
Fe3 O25 1.966410 1_555
Fe3 O20 1.966410 1_455
Fe3 O28 2.036963 1_545
Fe3 O19 2.129754 1_555
Ni0 O12 1.979298 1_554
Ni0 O13 1.979298 1_445
Ni0 O11 2.009147 1_454
Ni0 O10 2.009147 1_545
Ni0 O7 2.148328 1_555
Ni0 O3 2.148328 1_444
Ni1 O14 1.979298 1_455
Ni1 O15 1.979298 1_555
Ni1 O9 2.009147 1_555
Ni1 O8 2.009147 1_455
Ni1 O5 2.148328 1_455
Ni1 O1 2.148328 1_555
Ni2 O14 1.979298 1_555
Ni2 O15 1.979298 1_555
Ni2 O9 2.009147 1_555
Ni2 O8 2.009147 1_555
Ni2 O0 2.148328 1_555
Ni2 O4 2.148328 1_555
Ni3 O12 1.979298 1_554
Ni3 O13 1.979298 1_545
Ni3 O11 2.009147 1_554
Ni3 O10 2.009147 1_545
Ni3 O6 2.148328 1_544
Ni3 O2 2.148328 1_555
O0 P5 1.550670 1_555
O0 Zn1 2.148719 1_555
O1 P4 1.550670 1_555
O1 Zn3 2.148719 1_455
O2 P7 1.550670 1_555
O2 Zn2 2.148719 1_555
O3 P6 1.550670 1_555
O3 Zn0 2.148719 1_655
O4 P4 1.550670 1_555
O4 Zn3 2.148719 1_555
O5 P5 1.550670 1_555
O5 Zn1 2.148719 1_655
O6 P6 1.550670 1_555
O6 Zn0 2.148719 1_555
O7 P7 1.550670 1_555
O7 Zn2 2.148719 1_455
O8 P3 1.565225 1_555
O9 P2 1.565225 1_555
O10 P1 1.565225 1_555
O11 P0 1.565225 1_555
O16 P4 1.569893 1_555
O16 Zn0 2.031967 1_545
O17 P5 1.569893 1_555
O17 Zn2 2.031967 1_565
O18 P6 1.569893 1_555
O18 Zn3 2.031967 1_555
O19 P7 1.569893 1_555
O19 Zn1 2.031967 1_555
O20 P3 1.540916 1_555
O20 Zn2 2.339698 1_555
O21 P2 1.540916 1_555
O21 Zn0 2.339698 1_555
O22 P1 1.540916 1_555
O22 Zn1 2.339698 1_555
O23 P0 1.540916 1_555
O23 Zn3 2.339698 1_555
O24 P2 1.540916 1_555
O24 Zn0 2.339698 1_555
O25 P3 1.540916 1_555
O25 Zn2 2.339698 1_555
O26 P0 1.540916 1_555
O26 Zn3 2.339698 1_555
O27 P1 1.540916 1_555
O27 Zn1 2.339698 1_555
O28 P7 1.561169 1_565
O29 P6 1.561169 1_545
O30 P5 1.561169 1_555
O31 P4 1.561169 1_555
O32 P2 1.520049 1_545
O33 P3 1.520049 1_565
O34 P0 1.520049 1_554
O35 P1 1.520049 1_556
