# generated using pymatgen
data_YCuSO7
_symmetry_space_group_name_H-M   'P 1'
_cell_length_a   6.08452600
_cell_length_b   6.11837800
_cell_length_c   14.90000100
_cell_angle_alpha   90.00000000
_cell_angle_beta   90.00000000
_cell_angle_gamma   90.00000000
_symmetry_Int_Tables_number   1
_chemical_formula_structural   YCuSO7
_chemical_formula_sum   'Y4 Cu4 S4 O28'
_cell_volume   554.68874451
_cell_formula_units_Z   4
loop_
 _symmetry_equiv_pos_site_id
 _symmetry_equiv_pos_as_xyz
  1  'x, y, z'
loop_
 _atom_site_type_symbol
 _atom_site_label
 _atom_site_symmetry_multiplicity
 _atom_site_fract_x
 _atom_site_fract_y
 _atom_site_fract_z
 _atom_site_occupancy
  Y  Y0  1  0.25000000  0.46080600  0.91530300  1
  Y  Y1  1  0.25000000  0.03919400  0.41530300  1
  Y  Y2  1  0.75000000  0.53919400  0.08469700  1
  Y  Y3  1  0.75000000  0.96080600  0.58469700  1
  Cu  Cu0  1  0.00000000  0.00000000  0.00000000  1
  Cu  Cu1  1  0.50000000  0.50000000  0.50000000  1
  Cu  Cu2  1  0.50000000  0.00000000  0.00000000  1
  Cu  Cu3  1  0.00000000  0.50000000  0.50000000  1
  S  S0  1  0.25000000  0.73542400  0.69374200  1
  S  S1  1  0.25000000  0.76457600  0.19374200  1
  S  S2  1  0.75000000  0.26457600  0.30625800  1
  S  S3  1  0.75000000  0.23542400  0.80625800  1
  O  O0  1  0.25000000  0.52727800  0.64318300  1
  O  O1  1  0.25000000  0.97272200  0.14318300  1
  O  O2  1  0.75000000  0.47272200  0.35681700  1
  O  O3  1  0.75000000  0.02727800  0.85681700  1
  O  O4  1  0.25000000  0.69922400  0.79210500  1
  O  O5  1  0.25000000  0.80077600  0.29210500  1
  O  O6  1  0.75000000  0.30077600  0.20789500  1
  O  O7  1  0.75000000  0.19922400  0.70789500  1
  O  O8  1  0.94900900  0.36557600  0.82835500  1
  O  O9  1  0.55099100  0.13442400  0.32835500  1
  O  O10  1  0.44900900  0.63442400  0.17164500  1
  O  O11  1  0.05099100  0.86557600  0.67164500  1
  O  O12  1  0.05099100  0.63442400  0.17164500  1
  O  O13  1  0.44900900  0.86557600  0.67164500  1
  O  O14  1  0.55099100  0.36557600  0.82835500  1
  O  O15  1  0.94900900  0.13442400  0.32835500  1
  O  O16  1  0.01477800  0.70618200  0.98636600  1
  O  O17  1  0.48522200  0.79381800  0.48636600  1
  O  O18  1  0.51477800  0.29381800  0.01363400  1
  O  O19  1  0.98522200  0.20618200  0.51363400  1
  O  O20  1  0.98522200  0.29381800  0.01363400  1
  O  O21  1  0.51477800  0.20618200  0.51363400  1
  O  O22  1  0.48522200  0.70618200  0.98636600  1
  O  O23  1  0.01477800  0.79381800  0.48636600  1
  O  O24  1  0.25000000  0.05562100  0.93570000  1
  O  O25  1  0.25000000  0.44437900  0.43570000  1
  O  O26  1  0.75000000  0.94437900  0.06430000  1
  O  O27  1  0.75000000  0.55562100  0.56430000  1
loop_
_geom_bond_atom_site_label_1
_geom_bond_atom_site_label_2
_geom_bond_distance
_geom_bond_site_symmetry_2
Cu0 O20 1.811365 1_455
Cu0 O16 1.811365 1_544
Cu0 O24 1.829631 1_554
Cu0 O26 1.829631 1_445
Cu1 O17 1.811365 1_555
Cu1 O21 1.811365 1_555
Cu1 O27 1.829631 1_555
Cu1 O25 1.829631 1_555
Cu2 O18 1.811365 1_555
Cu2 O22 1.811365 1_544
Cu2 O24 1.829631 1_554
Cu2 O26 1.829631 1_545
Cu3 O23 1.811365 1_555
Cu3 O19 1.811365 1_455
Cu3 O27 1.829631 1_455
Cu3 O25 1.829631 1_555
O0 S0 1.479644 1_555
O1 S1 1.479644 1_555
O2 S2 1.479644 1_555
O3 S3 1.479644 1_555
O4 S0 1.482250 1_555
O4 Y0 2.344677 1_555
O5 S1 1.482250 1_555
O5 Y1 2.344677 1_565
O6 S2 1.482250 1_555
O6 Y2 2.344677 1_555
O7 S3 1.482250 1_555
O7 Y3 2.344677 1_545
O8 S3 1.486185 1_555
O8 Y0 2.317725 1_655
O9 S2 1.486185 1_555
O9 Y1 2.317725 1_555
O10 S1 1.486185 1_555
O10 Y2 2.317725 1_555
O11 S0 1.486185 1_555
O11 Y3 2.317725 1_455
O12 S1 1.486185 1_555
O12 Y2 2.317725 1_455
O13 S0 1.486185 1_555
O13 Y3 2.317725 1_555
O14 S3 1.486185 1_555
O14 Y0 2.317725 1_555
O15 S2 1.486185 1_555
O15 Y1 2.317725 1_655
O16 Y0 2.328825 1_555
O16 Y2 2.405400 1_456
O17 Y1 2.328825 1_565
O17 Y3 2.405400 1_555
O18 Y2 2.328825 1_555
O18 Y0 2.405400 1_554
O19 Y3 2.328825 1_545
O19 Y1 2.405400 1_655
O20 Y2 2.328825 1_555
O20 Y0 2.405400 1_654
O21 Y3 2.328825 1_545
O21 Y1 2.405400 1_555
O22 Y0 2.328825 1_555
O22 Y2 2.405400 1_556
O23 Y1 2.328825 1_565
O23 Y3 2.405400 1_455
O24 Y0 2.497634 1_555
O25 Y1 2.497634 1_555
O26 Y2 2.497634 1_555
O27 Y3 2.497634 1_555
