# generated using pymatgen
data_Ba2Ca3Cu4HgO10
_symmetry_space_group_name_H-M   'P 1'
_cell_length_a   3.89770900
_cell_length_b   3.89770900
_cell_length_c   19.40210000
_cell_angle_alpha   90.00000000
_cell_angle_beta   90.00000000
_cell_angle_gamma   90.00000000
_symmetry_Int_Tables_number   1
_chemical_formula_structural   Ba2Ca3Cu4HgO10
_chemical_formula_sum   'Ba2 Ca3 Cu4 Hg1 O10'
_cell_volume   294.75933119
_cell_formula_units_Z   1
loop_
 _symmetry_equiv_pos_site_id
 _symmetry_equiv_pos_as_xyz
  1  'x, y, z'
loop_
 _atom_site_type_symbol
 _atom_site_label
 _atom_site_symmetry_multiplicity
 _atom_site_fract_x
 _atom_site_fract_y
 _atom_site_fract_z
 _atom_site_occupancy
  Ba  Ba0  1  0.50000000  0.50000000  0.84938100  1
  Ba  Ba1  1  0.50000000  0.50000000  0.15061900  1
  Ca  Ca0  1  0.50000000  0.50000000  0.66806300  1
  Ca  Ca1  1  0.50000000  0.50000000  0.33193700  1
  Ca  Ca2  1  0.50000000  0.50000000  0.50000000  1
  Cu  Cu0  1  0.00000000  0.00000000  0.74765200  1
  Cu  Cu1  1  0.00000000  0.00000000  0.25234800  1
  Cu  Cu2  1  0.00000000  0.00000000  0.58492400  1
  Cu  Cu3  1  0.00000000  0.00000000  0.41507600  1
  Hg  Hg0  1  0.00000000  0.00000000  0.00000000  1
  O  O0  1  0.00000000  0.00000000  0.89661100  1
  O  O1  1  0.00000000  0.00000000  0.10338900  1
  O  O2  1  0.00000000  0.50000000  0.58411000  1
  O  O3  1  0.50000000  0.00000000  0.58411000  1
  O  O4  1  0.00000000  0.50000000  0.41589000  1
  O  O5  1  0.50000000  0.00000000  0.41589000  1
  O  O6  1  0.00000000  0.50000000  0.74999900  1
  O  O7  1  0.50000000  0.00000000  0.74999900  1
  O  O8  1  0.00000000  0.50000000  0.25000100  1
  O  O9  1  0.50000000  0.00000000  0.25000100  1
loop_
_geom_bond_atom_site_label_1
_geom_bond_atom_site_label_2
_geom_bond_distance
_geom_bond_site_symmetry_2
Ba0 O6 2.741544 1_555
Ba0 O6 2.741544 1_655
Ba0 O7 2.741544 1_555
Ba0 O7 2.741544 1_565
Ba0 O0 2.904442 1_655
Ba0 O0 2.904442 1_665
Ba0 O0 2.904442 1_555
Ba0 O0 2.904442 1_565
Ba1 O8 2.741544 1_555
Ba1 O9 2.741544 1_555
Ba1 O9 2.741544 1_565
Ba1 O8 2.741544 1_655
Ba1 O1 2.904442 1_665
Ba1 O1 2.904442 1_555
Ba1 O1 2.904442 1_655
Ba1 O1 2.904442 1_565
Ca0 O7 2.515010 1_555
Ca0 O7 2.515010 1_565
Ca0 O6 2.515010 1_555
Ca0 O6 2.515010 1_655
Ca0 O2 2.539928 1_555
Ca0 O2 2.539928 1_655
Ca0 O3 2.539928 1_555
Ca0 O3 2.539928 1_565
Ca1 O8 2.515010 1_655
Ca1 O8 2.515010 1_555
Ca1 O9 2.515010 1_555
Ca1 O9 2.515010 1_565
Ca1 O4 2.539928 1_555
Ca1 O5 2.539928 1_555
Ca1 O4 2.539928 1_655
Ca1 O5 2.539928 1_565
Ca2 O4 2.541882 1_555
Ca2 O5 2.541882 1_555
Ca2 O2 2.541882 1_555
Ca2 O2 2.541882 1_655
Ca2 O4 2.541882 1_655
Ca2 O3 2.541882 1_555
Ca2 O3 2.541882 1_565
Ca2 O5 2.541882 1_565
Cu0 O7 1.949386 1_455
Cu0 O6 1.949386 1_555
Cu0 O7 1.949386 1_555
Cu0 O6 1.949386 1_545
Cu1 O8 1.949386 1_545
Cu1 O9 1.949386 1_455
Cu1 O8 1.949386 1_555
Cu1 O9 1.949386 1_555
Cu2 O3 1.948918 1_455
Cu2 O2 1.948918 1_545
Cu2 O2 1.948918 1_555
Cu2 O3 1.948918 1_555
Cu3 O4 1.948918 1_545
Cu3 O5 1.948918 1_555
Cu3 O5 1.948918 1_455
Cu3 O4 1.948918 1_555
Hg0 O0 2.005964 1_554
Hg0 O1 2.005964 1_555
