# generated using pymatgen
data_Ba2Cu(C3O8)2
_symmetry_space_group_name_H-M   'P 1'
_cell_length_a   6.43796300
_cell_length_b   9.15527037
_cell_length_c   10.43587356
_cell_angle_alpha   64.14639151
_cell_angle_beta   82.75607955
_cell_angle_gamma   86.82598663
_symmetry_Int_Tables_number   1
_chemical_formula_structural   Ba2Cu(C3O8)2
_chemical_formula_sum   'Ba2 Cu1 C6 O16'
_cell_volume   549.12062221
_cell_formula_units_Z   1
loop_
 _symmetry_equiv_pos_site_id
 _symmetry_equiv_pos_as_xyz
  1  'x, y, z'
loop_
 _atom_site_type_symbol
 _atom_site_label
 _atom_site_symmetry_multiplicity
 _atom_site_fract_x
 _atom_site_fract_y
 _atom_site_fract_z
 _atom_site_occupancy
  Ba  Ba0  1  0.26684100  0.48899700  0.34134100  1
  Ba  Ba1  1  0.73315900  0.51100300  0.65865900  1
  Cu  Cu0  1  0.50000000  0.50000000  0.00000000  1
  C  C0  1  0.13162700  0.90908500  0.39201600  1
  C  C1  1  0.86837300  0.09091500  0.60798400  1
  C  C2  1  0.21102200  0.88351500  0.89607600  1
  C  C3  1  0.78897800  0.11648500  0.10392400  1
  C  C4  1  0.70010100  0.63861600  0.31876900  1
  C  C5  1  0.29989900  0.36138400  0.68123100  1
  O  O0  1  0.22729500  0.99798300  0.28560200  1
  O  O1  1  0.77270500  0.00201700  0.71439800  1
  O  O2  1  0.03581100  0.81928800  0.49976500  1
  O  O3  1  0.96418900  0.18071200  0.50023500  1
  O  O4  1  0.19652500  0.82336700  0.02225000  1
  O  O5  1  0.80347500  0.17663300  0.97775000  1
  O  O6  1  0.22452900  0.94392400  0.77043900  1
  O  O7  1  0.77547100  0.05607600  0.22956100  1
  O  O8  1  0.88751800  0.59846200  0.35550500  1
  O  O9  1  0.11248200  0.40153800  0.64449500  1
  O  O10  1  0.64769400  0.64004400  0.20391600  1
  O  O11  1  0.35230600  0.35995600  0.79608400  1
  O  O12  1  0.63601800  0.62247000  0.84268100  1
  O  O13  1  0.36398200  0.37753000  0.15731900  1
  O  O14  1  0.55978300  0.66982600  0.40444000  1
  O  O15  1  0.44021700  0.33017400  0.59556000  1
loop_
_geom_bond_atom_site_label_1
_geom_bond_atom_site_label_2
_geom_bond_distance
_geom_bond_site_symmetry_2
Ba0 O13 2.540925 1_555
Ba0 O8 2.599434 1_455
Ba0 O15 2.757031 1_555
Ba0 O10 2.782090 1_555
Ba0 O14 2.888070 1_555
Ba0 O9 2.953555 1_555
Ba0 O3 3.197602 1_455
Ba0 O4 3.464263 1_555
Ba1 O12 2.540925 1_555
Ba1 O9 2.599434 1_655
Ba1 O14 2.757031 1_555
Ba1 O11 2.782090 1_555
Ba1 O15 2.888070 1_555
Ba1 O8 2.953555 1_555
Ba1 O2 3.197602 1_655
Ba1 O5 3.464263 1_555
Cu0 O12 1.691181 1_554
Cu0 O13 1.691181 1_555
C0 O0 1.170364 1_555
C0 O2 1.181432 1_555
C1 O1 1.170364 1_555
C1 O3 1.181432 1_555
C2 O6 1.173309 1_555
C2 O4 1.178159 1_556
C3 O7 1.173309 1_555
C3 O5 1.178159 1_554
C4 O10 1.280022 1_555
C4 O8 1.297144 1_555
C4 O14 1.299067 1_555
C5 O11 1.280022 1_555
C5 O9 1.297144 1_555
C5 O15 1.299067 1_555
