# generated using pymatgen
data_TaZn2AgO6
_symmetry_space_group_name_H-M   'P 1'
_cell_length_a   7.51989400
_cell_length_b   5.62109400
_cell_length_c   5.69465282
_cell_angle_alpha   76.99243256
_cell_angle_beta   90.00000000
_cell_angle_gamma   90.00000000
_symmetry_Int_Tables_number   1
_chemical_formula_structural   TaZn2AgO6
_chemical_formula_sum   'Ta2 Zn4 Ag2 O12'
_cell_volume   234.53653535
_cell_formula_units_Z   2
loop_
 _symmetry_equiv_pos_site_id
 _symmetry_equiv_pos_as_xyz
  1  'x, y, z'
loop_
 _atom_site_type_symbol
 _atom_site_label
 _atom_site_symmetry_multiplicity
 _atom_site_fract_x
 _atom_site_fract_y
 _atom_site_fract_z
 _atom_site_occupancy
  Ta  Ta0  1  0.00000000  0.00000000  0.50000000  1
  Ta  Ta1  1  0.50000000  0.00000000  0.50000000  1
  Zn  Zn0  1  0.75000000  0.96592100  0.05499600  1
  Zn  Zn1  1  0.75000000  0.47716500  0.54107900  1
  Zn  Zn2  1  0.25000000  0.52283500  0.45892100  1
  Zn  Zn3  1  0.25000000  0.03407900  0.94500400  1
  Ag  Ag0  1  0.00000000  0.50000000  0.00000000  1
  Ag  Ag1  1  0.50000000  0.50000000  0.00000000  1
  O  O0  1  0.43795400  0.15409900  0.15681000  1
  O  O1  1  0.57637300  0.72340300  0.37028700  1
  O  O2  1  0.56204600  0.84590100  0.84319000  1
  O  O3  1  0.07637300  0.27659700  0.62971300  1
  O  O4  1  0.25000000  0.85375400  0.54932700  1
  O  O5  1  0.42362700  0.27659700  0.62971300  1
  O  O6  1  0.92362700  0.72340300  0.37028700  1
  O  O7  1  0.06204600  0.15409900  0.15681000  1
  O  O8  1  0.75000000  0.35889600  0.90781400  1
  O  O9  1  0.93795400  0.84590100  0.84319000  1
  O  O10  1  0.25000000  0.64110400  0.09218600  1
  O  O11  1  0.75000000  0.14624600  0.45067300  1
loop_
_geom_bond_atom_site_label_1
_geom_bond_atom_site_label_2
_geom_bond_distance
_geom_bond_site_symmetry_2
Ag0 O9 2.003492 1_454
Ag0 O7 2.003492 1_555
Ag0 O10 2.150914 1_555
Ag0 O8 2.150914 1_454
Ag1 O2 2.003492 1_554
Ag1 O0 2.003492 1_555
Ag1 O10 2.150914 1_555
Ag1 O8 2.150914 1_554
O0 Ta1 2.006346 1_555
O0 Zn3 2.067356 1_554
O1 Ta1 1.951871 1_565
O1 Zn1 1.990099 1_555
O1 Zn0 2.384324 1_555
O2 Ta1 2.006346 1_565
O2 Zn0 2.067356 1_556
O3 Ta0 1.951871 1_555
O3 Zn2 1.990099 1_555
O3 Zn3 2.384324 1_555
O4 Zn2 2.038680 1_555
O4 Ta0 2.045738 1_565
O4 Ta1 2.045738 1_565
O5 Ta1 1.951871 1_555
O5 Zn2 1.990099 1_555
O5 Zn3 2.384324 1_555
O6 Ta0 1.951871 1_665
O6 Zn1 1.990099 1_555
O6 Zn0 2.384324 1_555
O7 Ta0 2.006346 1_555
O7 Zn3 2.067356 1_554
O8 Zn1 2.044137 1_555
O8 Zn0 2.179109 1_546
O9 Ta0 2.006346 1_665
O9 Zn0 2.067356 1_556
O10 Zn2 2.044137 1_555
O10 Zn3 2.179109 1_564
O11 Zn1 2.038680 1_555
O11 Ta1 2.045738 1_555
O11 Ta0 2.045738 1_655
