# generated using pymatgen
data_Mg30CrBiO32
_symmetry_space_group_name_H-M   'P 1'
_cell_length_a   8.64408800
_cell_length_b   8.64408800
_cell_length_c   8.65077900
_cell_angle_alpha   90.00000000
_cell_angle_beta   90.00000000
_cell_angle_gamma   90.00000000
_symmetry_Int_Tables_number   1
_chemical_formula_structural   Mg30CrBiO32
_chemical_formula_sum   'Mg30 Cr1 Bi1 O32'
_cell_volume   646.38843317
_cell_formula_units_Z   1
loop_
 _symmetry_equiv_pos_site_id
 _symmetry_equiv_pos_as_xyz
  1  'x, y, z'
loop_
 _atom_site_type_symbol
 _atom_site_label
 _atom_site_symmetry_multiplicity
 _atom_site_fract_x
 _atom_site_fract_y
 _atom_site_fract_z
 _atom_site_occupancy
  Mg  Mg0  1  0.00000000  0.50000000  0.00000000  1
  Mg  Mg1  1  0.50000000  0.00000000  0.00000000  1
  Mg  Mg2  1  0.00000000  0.00000000  0.50000000  1
  Mg  Mg3  1  0.00000000  0.50000000  0.50000000  1
  Mg  Mg4  1  0.50000000  0.00000000  0.50000000  1
  Mg  Mg5  1  0.50000000  0.50000000  0.50000000  1
  Mg  Mg6  1  0.24116400  0.24116400  0.00000000  1
  Mg  Mg7  1  0.24116400  0.75883600  0.00000000  1
  Mg  Mg8  1  0.75883600  0.24116400  0.00000000  1
  Mg  Mg9  1  0.75883600  0.75883600  0.00000000  1
  Mg  Mg10  1  0.24813800  0.24813800  0.50000000  1
  Mg  Mg11  1  0.24813800  0.75186200  0.50000000  1
  Mg  Mg12  1  0.75186200  0.24813800  0.50000000  1
  Mg  Mg13  1  0.75186200  0.75186200  0.50000000  1
  Mg  Mg14  1  0.00000000  0.24797900  0.25068000  1
  Mg  Mg15  1  0.00000000  0.75202100  0.25068000  1
  Mg  Mg16  1  0.50000000  0.24148100  0.25751000  1
  Mg  Mg17  1  0.50000000  0.75851900  0.25751000  1
  Mg  Mg18  1  0.00000000  0.24797900  0.74932000  1
  Mg  Mg19  1  0.00000000  0.75202100  0.74932000  1
  Mg  Mg20  1  0.50000000  0.24148100  0.74249000  1
  Mg  Mg21  1  0.50000000  0.75851900  0.74249000  1
  Mg  Mg22  1  0.24797900  0.00000000  0.25068000  1
  Mg  Mg23  1  0.24148100  0.50000000  0.25751000  1
  Mg  Mg24  1  0.75202100  0.00000000  0.25068000  1
  Mg  Mg25  1  0.75851900  0.50000000  0.25751000  1
  Mg  Mg26  1  0.24797900  0.00000000  0.74932000  1
  Mg  Mg27  1  0.24148100  0.50000000  0.74249000  1
  Mg  Mg28  1  0.75202100  0.00000000  0.74932000  1
  Mg  Mg29  1  0.75851900  0.50000000  0.74249000  1
  Cr  Cr0  1  0.00000000  0.00000000  0.00000000  1
  Bi  Bi0  1  0.50000000  0.50000000  0.00000000  1
  O  O0  1  0.00000000  0.00000000  0.26644700  1
  O  O1  1  0.00000000  0.50000000  0.25438600  1
  O  O2  1  0.50000000  0.00000000  0.25438600  1
  O  O3  1  0.50000000  0.50000000  0.26628900  1
  O  O4  1  0.00000000  0.00000000  0.73355300  1
  O  O5  1  0.00000000  0.50000000  0.74561400  1
  O  O6  1  0.50000000  0.00000000  0.74561400  1
  O  O7  1  0.50000000  0.50000000  0.73371100  1
  O  O8  1  0.25083900  0.25083900  0.24895600  1
  O  O9  1  0.25083900  0.74916100  0.24895600  1
  O  O10  1  0.74916100  0.25083900  0.24895600  1
  O  O11  1  0.74916100  0.74916100  0.24895600  1
  O  O12  1  0.25083900  0.25083900  0.75104400  1
  O  O13  1  0.25083900  0.74916100  0.75104400  1
  O  O14  1  0.74916100  0.25083900  0.75104400  1
  O  O15  1  0.74916100  0.74916100  0.75104400  1
  O  O16  1  0.00000000  0.26335200  0.00000000  1
  O  O17  1  0.00000000  0.73664800  0.00000000  1
  O  O18  1  0.50000000  0.23512500  0.00000000  1
  O  O19  1  0.50000000  0.76487500  0.00000000  1
  O  O20  1  0.00000000  0.25192700  0.50000000  1
  O  O21  1  0.00000000  0.74807300  0.50000000  1
  O  O22  1  0.50000000  0.24978100  0.50000000  1
  O  O23  1  0.50000000  0.75021900  0.50000000  1
  O  O24  1  0.26335200  0.00000000  0.00000000  1
  O  O25  1  0.23512500  0.50000000  0.00000000  1
  O  O26  1  0.73664800  0.00000000  0.00000000  1
  O  O27  1  0.76487500  0.50000000  0.00000000  1
  O  O28  1  0.25192700  0.00000000  0.50000000  1
  O  O29  1  0.24978100  0.50000000  0.50000000  1
  O  O30  1  0.74807300  0.00000000  0.50000000  1
  O  O31  1  0.75021900  0.50000000  0.50000000  1
loop_
_geom_bond_atom_site_label_1
_geom_bond_atom_site_label_2
_geom_bond_distance
_geom_bond_site_symmetry_2
Mg0 O25 2.032441 1_555
Mg0 O27 2.032441 1_455
Mg0 O17 2.045606 1_555
Mg0 O16 2.045606 1_555
Mg0 O1 2.200637 1_555
Mg0 O5 2.200637 1_554
Mg1 O19 2.032441 1_545
Mg1 O18 2.032441 1_555
Mg1 O26 2.045606 1_555
Mg1 O24 2.045606 1_555
Mg1 O6 2.200637 1_554
Mg1 O2 2.200637 1_555
Mg2 O0 2.020415 1_555
Mg2 O4 2.020415 1_555
Mg2 O28 2.177679 1_555
Mg2 O30 2.177679 1_455
Mg2 O21 2.177679 1_545
Mg2 O20 2.177679 1_555
Mg3 O1 2.124752 1_555
Mg3 O5 2.124752 1_555
Mg3 O20 2.144365 1_555
Mg3 O21 2.144365 1_555
Mg3 O31 2.159129 1_455
Mg3 O29 2.159129 1_555
Mg4 O6 2.124752 1_555
Mg4 O2 2.124752 1_555
Mg4 O30 2.144365 1_555
Mg4 O28 2.144365 1_555
Mg4 O23 2.159129 1_545
Mg4 O22 2.159129 1_555
Mg5 O3 2.021782 1_555
Mg5 O7 2.021782 1_555
Mg5 O22 2.162915 1_555
Mg5 O23 2.162915 1_555
Mg5 O29 2.162915 1_555
Mg5 O31 2.162915 1_555
Mg6 O24 2.093447 1_555
Mg6 O16 2.093447 1_555
Mg6 O12 2.156908 1_554
Mg6 O8 2.156908 1_555
Mg6 O25 2.238010 1_555
Mg6 O18 2.238010 1_555
Mg7 O17 2.093447 1_555
Mg7 O24 2.093447 1_565
Mg7 O13 2.156908 1_554
Mg7 O9 2.156908 1_555
Mg7 O25 2.238010 1_555
Mg7 O19 2.238010 1_555
Mg8 O26 2.093447 1_555
Mg8 O16 2.093447 1_655
Mg8 O14 2.156908 1_554
Mg8 O10 2.156908 1_555
Mg8 O18 2.238010 1_555
Mg8 O27 2.238010 1_555
Mg9 O26 2.093447 1_565
Mg9 O17 2.093447 1_655
Mg9 O15 2.156908 1_554
Mg9 O11 2.156908 1_555
Mg9 O19 2.238010 1_555
Mg9 O27 2.238010 1_555
Mg10 O28 2.145177 1_555
Mg10 O20 2.145177 1_555
Mg10 O8 2.171977 1_555
Mg10 O12 2.171977 1_555
Mg10 O22 2.177164 1_555
Mg10 O29 2.177164 1_555
Mg11 O28 2.145177 1_565
Mg11 O21 2.145177 1_555
Mg11 O9 2.171977 1_555
Mg11 O13 2.171977 1_555
Mg11 O23 2.177164 1_555
Mg11 O29 2.177164 1_555
Mg12 O20 2.145177 1_655
Mg12 O30 2.145177 1_555
Mg12 O10 2.171977 1_555
Mg12 O14 2.171977 1_555
Mg12 O31 2.177164 1_555
Mg12 O22 2.177164 1_555
Mg13 O30 2.145177 1_565
Mg13 O21 2.145177 1_655
Mg13 O11 2.171977 1_555
Mg13 O15 2.171977 1_555
Mg13 O31 2.177164 1_555
Mg13 O23 2.177164 1_555
Mg14 O0 2.147887 1_555
Mg14 O20 2.157082 1_555
Mg14 O8 2.168467 1_555
Mg14 O10 2.168467 1_455
Mg14 O16 2.172645 1_555
Mg14 O1 2.178728 1_555
Mg15 O0 2.147887 1_565
Mg15 O21 2.157082 1_555
Mg15 O9 2.168467 1_555
Mg15 O11 2.168467 1_455
Mg15 O17 2.172645 1_555
Mg15 O1 2.178728 1_555
Mg16 O2 2.087558 1_555
Mg16 O22 2.098954 1_555
Mg16 O10 2.156558 1_555
Mg16 O8 2.156558 1_555
Mg16 O18 2.228340 1_555
Mg16 O3 2.235951 1_555
Mg17 O2 2.087558 1_565
Mg17 O23 2.098954 1_555
Mg17 O11 2.156558 1_555
Mg17 O9 2.156558 1_555
Mg17 O19 2.228340 1_555
Mg17 O3 2.235951 1_555
Mg18 O4 2.147887 1_555
Mg18 O20 2.157082 1_555
Mg18 O12 2.168467 1_555
Mg18 O14 2.168467 1_455
Mg18 O16 2.172645 1_556
Mg18 O5 2.178728 1_555
Mg19 O4 2.147887 1_565
Mg19 O21 2.157082 1_555
Mg19 O13 2.168467 1_555
Mg19 O15 2.168467 1_455
Mg19 O17 2.172645 1_556
Mg19 O5 2.178728 1_555
Mg20 O6 2.087558 1_555
Mg20 O22 2.098954 1_555
Mg20 O14 2.156558 1_555
Mg20 O12 2.156558 1_555
Mg20 O18 2.228340 1_556
Mg20 O7 2.235951 1_555
Mg21 O6 2.087558 1_565
Mg21 O23 2.098954 1_555
Mg21 O15 2.156558 1_555
Mg21 O13 2.156558 1_555
Mg21 O19 2.228340 1_556
Mg21 O7 2.235951 1_555
Mg22 O0 2.147887 1_555
Mg22 O28 2.157082 1_555
Mg22 O8 2.168467 1_555
Mg22 O9 2.168467 1_545
Mg22 O24 2.172645 1_555
Mg22 O2 2.178728 1_555
Mg23 O1 2.087558 1_555
Mg23 O29 2.098954 1_555
Mg23 O9 2.156558 1_555
Mg23 O8 2.156558 1_555
Mg23 O25 2.228340 1_555
Mg23 O3 2.235951 1_555
Mg24 O0 2.147887 1_655
Mg24 O30 2.157082 1_555
Mg24 O10 2.168467 1_555
Mg24 O11 2.168467 1_545
Mg24 O26 2.172645 1_555
Mg24 O2 2.178728 1_555
Mg25 O1 2.087558 1_655
Mg25 O31 2.098954 1_555
Mg25 O11 2.156558 1_555
Mg25 O10 2.156558 1_555
Mg25 O27 2.228340 1_555
Mg25 O3 2.235951 1_555
Mg26 O4 2.147887 1_555
Mg26 O28 2.157082 1_555
Mg26 O12 2.168467 1_555
Mg26 O13 2.168467 1_545
Mg26 O24 2.172645 1_556
Mg26 O6 2.178728 1_555
Mg27 O5 2.087558 1_555
Mg27 O29 2.098954 1_555
Mg27 O13 2.156558 1_555
Mg27 O12 2.156558 1_555
Mg27 O25 2.228340 1_556
Mg27 O7 2.235951 1_555
Mg28 O4 2.147887 1_655
Mg28 O30 2.157082 1_555
Mg28 O14 2.168467 1_555
Mg28 O15 2.168467 1_545
Mg28 O26 2.172645 1_556
Mg28 O6 2.178728 1_555
Mg29 O5 2.087558 1_655
Mg29 O31 2.098954 1_555
Mg29 O15 2.156558 1_555
Mg29 O14 2.156558 1_555
Mg29 O27 2.228340 1_556
Mg29 O7 2.235951 1_555
Cr0 O24 2.276438 1_555
Cr0 O16 2.276438 1_555
Cr0 O26 2.276438 1_455
Cr0 O17 2.276438 1_545
Cr0 O4 2.304974 1_554
Cr0 O0 2.304974 1_555
Bi0 O25 2.289603 1_555
Bi0 O18 2.289603 1_555
Bi0 O27 2.289603 1_555
Bi0 O19 2.289603 1_555
Bi0 O3 2.303607 1_555
Bi0 O7 2.303607 1_554
