# generated using pymatgen
data_YbTi2O5F
_symmetry_space_group_name_H-M   'P 1'
_cell_length_a   5.23690300
_cell_length_b   5.52791900
_cell_length_c   14.59390200
_cell_angle_alpha   90.00000000
_cell_angle_beta   90.00000000
_cell_angle_gamma   90.00000000
_symmetry_Int_Tables_number   1
_chemical_formula_structural   YbTi2O5F
_chemical_formula_sum   'Yb4 Ti8 O20 F4'
_cell_volume   422.48143161
_cell_formula_units_Z   4
loop_
 _symmetry_equiv_pos_site_id
 _symmetry_equiv_pos_as_xyz
  1  'x, y, z'
loop_
 _atom_site_type_symbol
 _atom_site_label
 _atom_site_symmetry_multiplicity
 _atom_site_fract_x
 _atom_site_fract_y
 _atom_site_fract_z
 _atom_site_occupancy
  Yb  Yb0  1  0.00000000  0.51210700  0.00000000  1
  Yb  Yb1  1  0.50000000  0.48789300  0.50000000  1
  Yb  Yb2  1  0.50000000  0.98431300  0.00000000  1
  Yb  Yb3  1  0.00000000  0.01568700  0.50000000  1
  Ti  Ti0  1  0.42639900  0.41360500  0.83523600  1
  Ti  Ti1  1  0.92639900  0.58639500  0.66476400  1
  Ti  Ti2  1  0.07360100  0.58639500  0.33523600  1
  Ti  Ti3  1  0.57360100  0.41360500  0.16476400  1
  Ti  Ti4  1  0.05736200  0.09969600  0.17366600  1
  Ti  Ti5  1  0.55736200  0.90030400  0.32633400  1
  Ti  Ti6  1  0.44263800  0.90030400  0.67366600  1
  Ti  Ti7  1  0.94263800  0.09969600  0.82633400  1
  O  O0  1  0.70722200  0.31075900  0.90454000  1
  O  O1  1  0.20722200  0.68924100  0.59546000  1
  O  O2  1  0.79277800  0.68924100  0.40454000  1
  O  O3  1  0.29277800  0.31075900  0.09546000  1
  O  O4  1  0.79241900  0.18302400  0.09420600  1
  O  O5  1  0.29241900  0.81697600  0.40579400  1
  O  O6  1  0.70758100  0.81697600  0.59420600  1
  O  O7  1  0.20758100  0.18302400  0.90579400  1
  O  O8  1  0.58314000  0.61925100  0.74058800  1
  O  O9  1  0.08314000  0.38074900  0.75941200  1
  O  O10  1  0.91686000  0.38074900  0.24058800  1
  O  O11  1  0.41686000  0.61925100  0.25941200  1
  O  O12  1  0.90332300  0.88699300  0.25653900  1
  O  O13  1  0.40332300  0.11300700  0.24346100  1
  O  O14  1  0.59667700  0.11300700  0.75653900  1
  O  O15  1  0.09667700  0.88699300  0.74346100  1
  O  O16  1  0.33990600  0.65389200  0.91145500  1
  O  O17  1  0.83990600  0.34610800  0.58854500  1
  O  O18  1  0.16009400  0.34610800  0.41145500  1
  O  O19  1  0.66009400  0.65389200  0.08854500  1
  F  F0  1  0.16388800  0.84156300  0.08596600  1
  F  F1  1  0.66388800  0.15843700  0.41403400  1
  F  F2  1  0.33611200  0.15843700  0.58596600  1
  F  F3  1  0.83611200  0.84156300  0.91403400  1
loop_
_geom_bond_atom_site_label_1
_geom_bond_atom_site_label_2
_geom_bond_distance
_geom_bond_site_symmetry_2
O0 Ti0 1.873225 1_555
O0 Ti7 2.045443 1_555
O0 Yb0 2.351707 1_656
O0 Yb2 2.524866 1_546
O1 Ti1 1.873225 1_455
O1 Ti6 2.045443 1_555
O1 Yb1 2.351707 1_555
O1 Yb3 2.524866 1_565
O2 Ti2 1.873225 1_655
O2 Ti5 2.045443 1_555
O2 Yb1 2.351707 1_555
O2 Yb3 2.524866 1_665
O3 Ti3 1.873225 1_555
O3 Ti4 2.045443 1_555
O3 Yb0 2.351707 1_555
O3 Yb2 2.524866 1_545
O4 Ti4 1.866019 1_655
O4 Ti3 1.999539 1_555
O4 Yb2 2.332782 1_545
O4 Yb0 2.526103 1_655
O5 Ti5 1.866019 1_555
O5 Ti2 1.999539 1_555
O5 Yb3 2.332782 1_565
O5 Yb1 2.526103 1_555
O6 Ti6 1.866019 1_555
O6 Ti1 1.999539 1_555
O6 Yb3 2.332782 1_665
O6 Yb1 2.526103 1_555
O7 Ti7 1.866019 1_455
O7 Ti0 1.999539 1_555
O7 Yb2 2.332782 1_546
O7 Yb0 2.526103 1_556
O8 Ti0 1.968253 1_555
O8 Ti6 1.977129 1_555
O8 Ti1 2.118702 1_555
O9 Ti1 1.968253 1_455
O9 Ti7 1.977129 1_455
O9 Ti0 2.118702 1_555
O10 Ti2 1.968253 1_655
O10 Ti4 1.977129 1_655
O10 Ti3 2.118702 1_555
O11 Ti3 1.968253 1_555
O11 Ti5 1.977129 1_555
O11 Ti2 2.118702 1_555
O12 Ti4 1.869761 1_665
O12 Ti5 2.079762 1_555
O12 Ti2 2.208033 1_655
O13 Ti5 1.869761 1_545
O13 Ti4 2.079762 1_555
O13 Ti3 2.208033 1_555
O14 Ti6 1.869761 1_545
O14 Ti7 2.079762 1_555
O14 Ti0 2.208033 1_555
O15 Ti7 1.869761 1_465
O15 Ti6 2.079762 1_555
O15 Ti1 2.208033 1_455
O16 Ti0 1.790754 1_555
O16 Yb0 2.335107 1_556
O16 Yb2 2.389348 1_556
O17 Ti1 1.790754 1_555
O17 Yb1 2.335107 1_555
O17 Yb3 2.389348 1_655
O18 Ti2 1.790754 1_555
O18 Yb1 2.335107 1_555
O18 Yb3 2.389348 1_555
O19 Ti3 1.790754 1_555
O19 Yb0 2.335107 1_655
O19 Yb2 2.389348 1_555
F0 Ti4 1.996365 1_565
F0 Yb2 2.301069 1_555
F0 Yb0 2.372210 1_555
F1 Ti5 1.996365 1_545
F1 Yb3 2.301069 1_655
F1 Yb1 2.372210 1_555
F2 Ti6 1.996365 1_545
F2 Yb3 2.301069 1_555
F2 Yb1 2.372210 1_555
F3 Ti7 1.996365 1_565
F3 Yb2 2.301069 1_556
F3 Yb0 2.372210 1_656
