# generated using pymatgen
data_K9Fe2S7
_symmetry_space_group_name_H-M   'P 1'
_cell_length_a   12.65142231
_cell_length_b   12.65138192
_cell_length_c   12.65130320
_cell_angle_alpha   89.99992732
_cell_angle_beta   90.00010530
_cell_angle_gamma   89.99978031
_symmetry_Int_Tables_number   1
_chemical_formula_structural   K9Fe2S7
_chemical_formula_sum   'K36 Fe8 S28'
_cell_volume   2024.94197747
_cell_formula_units_Z   4
loop_
 _symmetry_equiv_pos_site_id
 _symmetry_equiv_pos_as_xyz
  1  'x, y, z'
loop_
 _atom_site_type_symbol
 _atom_site_label
 _atom_site_symmetry_multiplicity
 _atom_site_fract_x
 _atom_site_fract_y
 _atom_site_fract_z
 _atom_site_occupancy
  K  K0  1  0.70770916  0.82301023  0.54226105  1
  K  K1  1  0.26128254  0.76128258  0.73871750  1
  K  K2  1  0.73871495  0.26128201  0.76128512  1
  K  K3  1  0.76128237  0.73871584  0.26128325  1
  K  K4  1  0.05867919  0.05866462  0.05868424  1
  K  K5  1  0.44133280  0.94132944  0.55866963  1
  K  K6  1  0.55867913  0.44133572  0.94131617  1
  K  K7  1  0.94131320  0.55868969  0.44131084  1
  K  K8  1  0.83309758  0.00080249  0.30023000  1
  K  K9  1  0.30023233  0.83310081  0.00080234  1
  K  K10  1  0.00079887  0.30022765  0.83310524  1
  K  K11  1  0.49920148  0.69976575  0.33310409  1
  K  K12  1  0.80023196  0.66689825  0.99919794  1
  K  K13  1  0.99920121  0.80023401  0.66689592  1
  K  K14  1  0.19976643  0.16689818  0.50080211  1
  K  K15  1  0.69976747  0.33310298  0.49919636  1
  K  K16  1  0.58547186  0.91452450  0.08547223  1
  K  K17  1  0.91453050  0.08546969  0.58547036  1
  K  K18  1  0.08547186  0.58547352  0.91452805  1
  K  K19  1  0.41453062  0.41453020  0.41452893  1
  K  K20  1  0.32301696  0.95772918  0.29230898  1
  K  K21  1  0.82301502  0.54226841  0.70769530  1
  K  K22  1  0.50079937  0.19977312  0.16689450  1
  K  K23  1  0.54226466  0.70770403  0.82300381  1
  K  K24  1  0.20771217  0.67698964  0.45773866  1
  K  K25  1  0.23871517  0.23871770  0.23871484  1
  K  K26  1  0.95773271  0.29230522  0.32301398  1
  K  K27  1  0.29229311  0.32300576  0.95773605  1
  K  K28  1  0.45772876  0.20769097  0.67698809  1
  K  K29  1  0.04226425  0.79229488  0.17699568  1
  K  K30  1  0.79229442  0.17698995  0.04226220  1
  K  K31  1  0.17698382  0.04226834  0.79230511  1
  K  K32  1  0.66689996  0.99919839  0.80023178  1
  K  K33  1  0.16690023  0.50080073  0.19976763  1
  K  K34  1  0.33309778  0.49919717  0.69976937  1
  K  K35  1  0.67698425  0.45773159  0.20769567  1
  Fe  Fe0  1  0.09972739  0.40027075  0.59972885  1
  Fe  Fe1  1  0.40027258  0.59972924  0.09972895  1
  Fe  Fe2  1  0.59972599  0.09972830  0.40027279  1
  Fe  Fe3  1  0.90027220  0.90027065  0.90027329  1
  Fe  Fe4  1  0.42874351  0.07125745  0.92874361  1
  Fe  Fe5  1  0.07125966  0.92874569  0.42873699  1
  Fe  Fe6  1  0.92874366  0.42874156  0.07125671  1
  Fe  Fe7  1  0.57125798  0.57125557  0.57126405  1
  S  S0  1  0.20677273  0.29322630  0.70677485  1
  S  S1  1  0.29322654  0.70677385  0.20677658  1
  S  S2  1  0.70677257  0.20677313  0.29322615  1
  S  S3  1  0.79322651  0.79322609  0.79322439  1
  S  S4  1  0.42425827  0.94028808  0.81063842  1
  S  S5  1  0.92425872  0.55971163  0.18936421  1
  S  S6  1  0.57573284  0.44027781  0.68935723  1
  S  S7  1  0.55971317  0.18936401  0.92425914  1
  S  S8  1  0.68936866  0.57574431  0.44029014  1
  S  S9  1  0.18936710  0.92425580  0.55971104  1
  S  S10  1  0.94029019  0.81063437  0.42425755  1
  S  S11  1  0.81063563  0.42425824  0.94028963  1
  S  S12  1  0.44029034  0.68936497  0.57574311  1
  S  S13  1  0.05971318  0.31063601  0.07574136  1
  S  S14  1  0.31063548  0.07574179  0.05971096  1
  S  S15  1  0.07573295  0.05972307  0.31064262  1
  S  S16  1  0.58813123  0.93096391  0.33458027  1
  S  S17  1  0.08813196  0.56903559  0.66542059  1
  S  S18  1  0.41186825  0.43096567  0.16541919  1
  S  S19  1  0.56903587  0.66541788  0.08813173  1
  S  S20  1  0.16542086  0.41186771  0.43096556  1
  S  S21  1  0.66542019  0.08813208  0.56903480  1
  S  S22  1  0.93096575  0.33457852  0.58813246  1
  S  S23  1  0.33458088  0.58813382  0.93096455  1
  S  S24  1  0.43096567  0.16542091  0.41186804  1
  S  S25  1  0.06903512  0.83458216  0.91186892  1
  S  S26  1  0.83458006  0.91186595  0.06903641  1
  S  S27  1  0.91186817  0.06903386  0.83458184  1
loop_
_geom_bond_atom_site_label_1
_geom_bond_atom_site_label_2
_geom_bond_distance
_geom_bond_site_symmetry_2
K0 S10 3.303251 1_555
K0 S16 3.325256 1_555
K0 S3 3.375384 1_555
K0 S8 3.391770 1_555
K0 S21 3.413406 1_565
K1 S9 3.194940 1_555
K1 S12 3.194981 1_555
K1 S4 3.194994 1_555
K1 S23 3.402055 1_555
K1 S17 3.402089 1_555
K1 S25 3.402098 1_555
K2 S7 3.194929 1_555
K2 S6 3.194971 1_555
K2 S11 3.194974 1_555
K2 S21 3.402091 1_555
K2 S27 3.402107 1_555
K2 S22 3.402132 1_555
K3 S8 3.194930 1_555
K3 S5 3.194971 1_555
K3 S10 3.194984 1_555
K3 S26 3.402069 1_555
K3 S19 3.402084 1_555
K3 S16 3.402094 1_555
K4 S15 3.194923 1_555
K4 S14 3.194946 1_555
K4 S13 3.195109 1_555
K4 S25 3.391768 1_544
K4 S26 3.391845 1_445
K4 S27 3.391945 1_454
K5 S12 3.195036 1_555
K5 S9 3.195063 1_555
K5 S4 3.195072 1_555
K5 S16 3.391724 1_555
K5 S21 3.391754 1_565
K5 S24 3.391769 1_565
K6 S6 3.194931 1_555
K6 S11 3.194947 1_555
K6 S7 3.195113 1_555
K6 S19 3.391767 1_556
K6 S23 3.391819 1_555
K6 S18 3.391957 1_556
K7 S10 3.194767 1_555
K7 S5 3.194773 1_555
K7 S8 3.194776 1_555
K7 S17 3.392066 1_655
K7 S20 3.392082 1_655
K7 S22 3.392108 1_555
K8 S2 3.058152 1_555
K8 S26 3.133913 1_545
K8 S15 3.161642 1_655
K8 S10 3.176394 1_545
K8 S16 3.251834 1_545
K9 S1 3.058192 1_555
K9 S25 3.133961 1_554
K9 S14 3.161659 1_565
K9 S4 3.176320 1_554
K9 S23 3.251821 1_554
K10 S0 3.058229 1_555
K10 S27 3.133909 1_455
K10 S13 3.161599 1_556
K10 S11 3.176332 1_455
K10 S22 3.251860 1_455
K11 S1 3.058219 1_555
K11 S16 3.133956 1_555
K11 S12 3.161624 1_555
K11 S8 3.176316 1_555
K11 S19 3.251859 1_555
K12 S3 3.058190 1_555
K12 S19 3.133953 1_556
K12 S11 3.161645 1_555
K12 S5 3.176334 1_556
K12 S26 3.251834 1_556
K13 S3 3.058228 1_555
K13 S17 3.133956 1_655
K13 S10 3.161612 1_555
K13 S9 3.176313 1_655
K13 S25 3.251863 1_655
K14 S0 3.058187 1_555
K14 S24 3.133992 1_555
K14 S9 3.161673 1_545
K14 S15 3.176257 1_555
K14 S20 3.251840 1_555
K15 S2 3.058171 1_555
K15 S22 3.133986 1_555
K15 S8 3.161651 1_555
K15 S6 3.176275 1_555
K15 S21 3.251869 1_555
K16 S19 3.158575 1_555
K16 S16 3.158576 1_555
K16 S26 3.158604 1_555
K17 S22 3.158603 1_555
K17 S27 3.158616 1_555
K17 S21 3.158631 1_555
K18 S17 3.158568 1_555
K18 S25 3.158600 1_555
K18 S23 3.158615 1_555
K19 S18 3.158594 1_555
K19 S24 3.158607 1_555
K19 S20 3.158626 1_555
K20 S14 3.303473 1_565
K20 S24 3.325250 1_565
K20 S1 3.375380 1_555
K20 S15 3.392092 1_565
K20 S16 3.413275 1_555
K21 S11 3.303417 1_555
K21 S22 3.325258 1_555
K21 S3 3.375389 1_555
K21 S6 3.392067 1_555
K21 S17 3.413322 1_655
K22 S2 3.058225 1_555
K22 S18 3.133888 1_555
K22 S7 3.161591 1_554
K22 S14 3.176344 1_555
K22 S24 3.251878 1_555
K23 S4 3.303286 1_555
K23 S23 3.325304 1_555
K23 S3 3.375413 1_555
K23 S12 3.391707 1_555
K23 S19 3.413452 1_556
K24 S12 3.303220 1_555
K24 S17 3.325292 1_555
K24 S1 3.375362 1_555
K24 S9 3.391783 1_555
K24 S20 3.413414 1_555
K25 S13 3.194917 1_555
K25 S14 3.194962 1_555
K25 S15 3.194974 1_555
K25 S20 3.402091 1_555
K25 S18 3.402114 1_555
K25 S24 3.402124 1_555
K26 S15 3.303233 1_655
K26 S20 3.325253 1_655
K26 S2 3.375444 1_555
K26 S13 3.391873 1_655
K26 S22 3.413306 1_555
K27 S13 3.303246 1_556
K27 S18 3.325304 1_556
K27 S0 3.375366 1_555
K27 S14 3.391764 1_556
K27 S23 3.413481 1_555
K28 S6 3.303317 1_555
K28 S21 3.325269 1_555
K28 S0 3.375400 1_555
K28 S7 3.391865 1_555
K28 S24 3.413314 1_555
K29 S5 3.303284 1_455
K29 S26 3.325292 1_455
K29 S1 3.375407 1_555
K29 S10 3.391724 1_455
K29 S25 3.413441 1_554
K30 S7 3.303245 1_554
K30 S27 3.325248 1_554
K30 S2 3.375413 1_555
K30 S11 3.391804 1_554
K30 S26 3.413425 1_545
K31 S9 3.303433 1_545
K31 S25 3.325221 1_545
K31 S0 3.375398 1_555
K31 S4 3.391913 1_545
K31 S27 3.413305 1_455
K32 S3 3.058182 1_555
K32 S21 3.133937 1_565
K32 S4 3.161687 1_555
K32 S7 3.176343 1_565
K32 S27 3.251844 1_565
K33 S1 3.058200 1_555
K33 S20 3.133945 1_555
K33 S5 3.161678 1_455
K33 S13 3.176335 1_555
K33 S18 3.251832 1_555
K34 S0 3.058166 1_555
K34 S23 3.133932 1_555
K34 S6 3.161629 1_555
K34 S12 3.176393 1_555
K34 S17 3.251816 1_555
K35 S8 3.303439 1_555
K35 S19 3.325211 1_555
K35 S2 3.375401 1_555
K35 S5 3.391921 1_555
K35 S18 3.413310 1_555
Fe0 S22 2.295823 1_455
Fe0 S20 2.295830 1_555
Fe0 S17 2.295847 1_555
Fe0 S0 2.345658 1_555
Fe1 S18 2.295824 1_555
Fe1 S19 2.295827 1_555
Fe1 S23 2.295831 1_554
Fe1 S1 2.345681 1_555
Fe2 S24 2.295803 1_555
Fe2 S21 2.295814 1_555
Fe2 S16 2.295846 1_545
Fe2 S2 2.345683 1_555
Fe3 S25 2.295814 1_655
Fe3 S26 2.295820 1_556
Fe3 S27 2.295826 1_565
Fe3 S3 2.345690 1_555
Fe4 S4 2.231877 1_545
Fe4 S14 2.231884 1_556
Fe4 S7 2.231904 1_555
Fe4 K16 3.434387 1_546
Fe5 S15 2.231854 1_565
Fe5 S9 2.231940 1_555
Fe5 S10 2.231941 1_455
Fe5 K17 3.434369 1_465
Fe6 S11 2.231878 1_554
Fe6 S13 2.231886 1_655
Fe6 S5 2.231903 1_555
Fe6 K18 3.434392 1_654
Fe7 S6 2.231848 1_555
Fe7 S12 2.231899 1_555
Fe7 S8 2.231970 1_555
Fe7 K19 3.434383 1_555
