# generated using pymatgen
data_Er3Si13Ir4
_symmetry_space_group_name_H-M   'P 1'
_cell_length_a   8.74522000
_cell_length_b   8.74522000
_cell_length_c   8.74522000
_cell_angle_alpha   90.00000000
_cell_angle_beta   90.00000000
_cell_angle_gamma   90.00000000
_symmetry_Int_Tables_number   1
_chemical_formula_structural   Er3Si13Ir4
_chemical_formula_sum   'Er6 Si26 Ir8'
_cell_volume   668.82456841
_cell_formula_units_Z   2
loop_
 _symmetry_equiv_pos_site_id
 _symmetry_equiv_pos_as_xyz
  1  'x, y, z'
loop_
 _atom_site_type_symbol
 _atom_site_label
 _atom_site_symmetry_multiplicity
 _atom_site_fract_x
 _atom_site_fract_y
 _atom_site_fract_z
 _atom_site_occupancy
  Er  Er0  1  0.00000000  0.50000000  0.75000000  1
  Er  Er1  1  0.50000000  0.25000000  0.00000000  1
  Er  Er2  1  0.75000000  0.00000000  0.50000000  1
  Er  Er3  1  0.00000000  0.50000000  0.25000000  1
  Er  Er4  1  0.50000000  0.75000000  0.00000000  1
  Er  Er5  1  0.25000000  0.00000000  0.50000000  1
  Si  Si0  1  0.50000000  0.50000000  0.50000000  1
  Si  Si1  1  0.00000000  0.00000000  0.00000000  1
  Si  Si2  1  0.79457200  0.36212100  0.50000000  1
  Si  Si3  1  0.63787900  0.50000000  0.79457200  1
  Si  Si4  1  0.50000000  0.20542800  0.63787900  1
  Si  Si5  1  0.20542800  0.63787900  0.50000000  1
  Si  Si6  1  0.36212100  0.50000000  0.20542800  1
  Si  Si7  1  0.50000000  0.79457200  0.36212100  1
  Si  Si8  1  0.79457200  0.63787900  0.50000000  1
  Si  Si9  1  0.63787900  0.50000000  0.20542800  1
  Si  Si10  1  0.20542800  0.36212100  0.50000000  1
  Si  Si11  1  0.36212100  0.50000000  0.79457200  1
  Si  Si12  1  0.50000000  0.79457200  0.63787900  1
  Si  Si13  1  0.50000000  0.20542800  0.36212100  1
  Si  Si14  1  0.29457200  0.00000000  0.86212100  1
  Si  Si15  1  0.13787900  0.29457200  0.00000000  1
  Si  Si16  1  0.00000000  0.13787900  0.70542800  1
  Si  Si17  1  0.70542800  0.00000000  0.13787900  1
  Si  Si18  1  0.86212100  0.70542800  0.00000000  1
  Si  Si19  1  0.00000000  0.86212100  0.29457200  1
  Si  Si20  1  0.29457200  0.00000000  0.13787900  1
  Si  Si21  1  0.13787900  0.70542800  0.00000000  1
  Si  Si22  1  0.70542800  0.00000000  0.86212100  1
  Si  Si23  1  0.86212100  0.29457200  0.00000000  1
  Si  Si24  1  0.00000000  0.13787900  0.29457200  1
  Si  Si25  1  0.00000000  0.86212100  0.70542800  1
  Ir  Ir0  1  0.75000000  0.25000000  0.75000000  1
  Ir  Ir1  1  0.25000000  0.75000000  0.25000000  1
  Ir  Ir2  1  0.75000000  0.75000000  0.25000000  1
  Ir  Ir3  1  0.25000000  0.25000000  0.75000000  1
  Ir  Ir4  1  0.25000000  0.75000000  0.75000000  1
  Ir  Ir5  1  0.75000000  0.25000000  0.25000000  1
  Ir  Ir6  1  0.25000000  0.25000000  0.25000000  1
  Ir  Ir7  1  0.75000000  0.75000000  0.75000000  1
loop_
_geom_bond_atom_site_label_1
_geom_bond_atom_site_label_2
_geom_bond_distance
_geom_bond_site_symmetry_2
Er0 Si10 3.075923 1_555
Er0 Si23 3.075923 1_456
Er0 Si5 3.075923 1_555
Er0 Si15 3.075923 1_556
Er0 Si8 3.075923 1_455
Er0 Si2 3.075923 1_455
Er0 Si21 3.075923 1_556
Er0 Si18 3.075923 1_456
Er0 Ir3 3.091902 1_555
Er0 Ir0 3.091902 1_455
Er0 Ir7 3.091902 1_455
Er0 Ir4 3.091902 1_555
Er0 Si25 3.190727 1_555
Er0 Si3 3.190727 1_455
Er0 Si16 3.190727 1_555
Er0 Si11 3.190727 1_555
Er1 Si6 3.075923 1_555
Er1 Si9 3.075923 1_555
Er1 Si14 3.075923 1_554
Er1 Si20 3.075923 1_555
Er1 Si17 3.075923 1_555
Er1 Si22 3.075923 1_554
Er1 Si3 3.075923 1_554
Er1 Si11 3.075923 1_554
Er1 Ir0 3.091902 1_554
Er1 Ir6 3.091902 1_555
Er1 Ir3 3.091902 1_554
Er1 Ir5 3.091902 1_555
Er1 Si15 3.190727 1_555
Er1 Si4 3.190727 1_554
Er1 Si13 3.190727 1_555
Er1 Si23 3.190727 1_555
Er2 Si19 3.075923 1_645
Er2 Si4 3.075923 1_555
Er2 Si24 3.075923 1_655
Er2 Si13 3.075923 1_555
Er2 Si7 3.075923 1_545
Er2 Si16 3.075923 1_655
Er2 Si25 3.075923 1_645
Er2 Si12 3.075923 1_545
Er2 Ir2 3.091902 1_545
Er2 Ir0 3.091902 1_555
Er2 Ir7 3.091902 1_545
Er2 Ir5 3.091902 1_555
Er2 Si8 3.190727 1_545
Er2 Si2 3.190727 1_555
Er2 Si22 3.190727 1_555
Er2 Si17 3.190727 1_555
Er3 Si23 3.075923 1_455
Er3 Si10 3.075923 1_555
Er3 Si5 3.075923 1_555
Er3 Si15 3.075923 1_555
Er3 Si8 3.075923 1_455
Er3 Si2 3.075923 1_455
Er3 Si18 3.075923 1_455
Er3 Si21 3.075923 1_555
Er3 Ir6 3.091902 1_555
Er3 Ir5 3.091902 1_455
Er3 Ir2 3.091902 1_455
Er3 Ir1 3.091902 1_555
Er3 Si9 3.190727 1_455
Er3 Si24 3.190727 1_555
Er3 Si19 3.190727 1_555
Er3 Si6 3.190727 1_555
Er4 Si6 3.075923 1_555
Er4 Si9 3.075923 1_555
Er4 Si14 3.075923 1_564
Er4 Si20 3.075923 1_565
Er4 Si17 3.075923 1_565
Er4 Si22 3.075923 1_564
Er4 Si3 3.075923 1_554
Er4 Si11 3.075923 1_554
Er4 Ir2 3.091902 1_555
Er4 Ir4 3.091902 1_554
Er4 Ir1 3.091902 1_555
Er4 Ir7 3.091902 1_554
Er4 Si18 3.190727 1_555
Er4 Si21 3.190727 1_555
Er4 Si12 3.190727 1_554
Er4 Si7 3.190727 1_555
Er5 Si19 3.075923 1_545
Er5 Si4 3.075923 1_555
Er5 Si24 3.075923 1_555
Er5 Si13 3.075923 1_555
Er5 Si16 3.075923 1_555
Er5 Si7 3.075923 1_545
Er5 Si12 3.075923 1_545
Er5 Si25 3.075923 1_545
Er5 Ir6 3.091902 1_555
Er5 Ir3 3.091902 1_555
Er5 Ir1 3.091902 1_545
Er5 Ir4 3.091902 1_545
Er5 Si5 3.190727 1_545
Er5 Si10 3.190727 1_555
Er5 Si20 3.190727 1_555
Er5 Si14 3.190727 1_555
Si0 Si11 2.844325 1_555
Si0 Si8 2.844325 1_555
Si0 Si12 2.844325 1_555
Si0 Si2 2.844325 1_555
Si0 Si3 2.844325 1_555
Si0 Si7 2.844325 1_555
Si0 Si6 2.844325 1_555
Si0 Si10 2.844325 1_555
Si0 Si13 2.844325 1_555
Si0 Si4 2.844325 1_555
Si0 Si5 2.844325 1_555
Si0 Si9 2.844325 1_555
Si1 Si18 2.844325 1_445
Si1 Si22 2.844325 1_454
Si1 Si16 2.844325 1_554
Si1 Si21 2.844325 1_545
Si1 Si25 2.844325 1_544
Si1 Si17 2.844325 1_455
Si1 Si14 2.844325 1_554
Si1 Si23 2.844325 1_455
Si1 Si20 2.844325 1_555
Si1 Si15 2.844325 1_555
Si1 Si24 2.844325 1_555
Si1 Si19 2.844325 1_545
Ir0 Si3 2.427610 1_555
Ir0 Si16 2.427610 1_655
Ir0 Si23 2.427610 1_556
Ir0 Si4 2.427610 1_555
Ir0 Si2 2.427610 1_555
Ir0 Si22 2.427610 1_555
Ir1 Si20 2.427610 1_565
Ir1 Si19 2.427610 1_555
Ir1 Si6 2.427610 1_555
Ir1 Si7 2.427610 1_555
Ir1 Si5 2.427610 1_555
Ir1 Si21 2.427610 1_555
Ir2 Si17 2.427610 1_565
Ir2 Si7 2.427610 1_555
Ir2 Si19 2.427610 1_655
Ir2 Si9 2.427610 1_555
Ir2 Si18 2.427610 1_555
Ir2 Si8 2.427610 1_555
Ir3 Si16 2.427610 1_555
Ir3 Si10 2.427610 1_555
Ir3 Si14 2.427610 1_555
Ir3 Si11 2.427610 1_555
Ir3 Si4 2.427610 1_555
Ir3 Si15 2.427610 1_556
Ir4 Si12 2.427610 1_555
Ir4 Si14 2.427610 1_565
Ir4 Si25 2.427610 1_555
Ir4 Si21 2.427610 1_556
Ir4 Si11 2.427610 1_555
Ir4 Si5 2.427610 1_555
Ir5 Si17 2.427610 1_555
Ir5 Si23 2.427610 1_555
Ir5 Si13 2.427610 1_555
Ir5 Si9 2.427610 1_555
Ir5 Si2 2.427610 1_555
Ir5 Si24 2.427610 1_655
Ir6 Si6 2.427610 1_555
Ir6 Si10 2.427610 1_555
Ir6 Si24 2.427610 1_555
Ir6 Si13 2.427610 1_555
Ir6 Si20 2.427610 1_555
Ir6 Si15 2.427610 1_555
Ir7 Si12 2.427610 1_555
Ir7 Si22 2.427610 1_565
Ir7 Si25 2.427610 1_655
Ir7 Si3 2.427610 1_555
Ir7 Si18 2.427610 1_556
Ir7 Si8 2.427610 1_555
