# generated using pymatgen
data_NbPRh
_symmetry_space_group_name_H-M   'P 1'
_cell_length_a   3.75770719
_cell_length_b   6.37333454
_cell_length_c   7.16148532
_cell_angle_alpha   90.00000000
_cell_angle_beta   90.00000000
_cell_angle_gamma   90.00000000
_symmetry_Int_Tables_number   1
_chemical_formula_structural   NbPRh
_chemical_formula_sum   'Nb4 P4 Rh4'
_cell_volume   171.51130730
_cell_formula_units_Z   4
loop_
 _symmetry_equiv_pos_site_id
 _symmetry_equiv_pos_as_xyz
  1  'x, y, z'
loop_
 _atom_site_type_symbol
 _atom_site_label
 _atom_site_symmetry_multiplicity
 _atom_site_fract_x
 _atom_site_fract_y
 _atom_site_fract_z
 _atom_site_occupancy
  Nb  Nb0  1  0.75000000  0.46955853  0.66624408  1
  Nb  Nb1  1  0.75000000  0.96955853  0.83375592  1
  Nb  Nb2  1  0.25000000  0.53044998  0.33371652  1
  Nb  Nb3  1  0.25000000  0.03044998  0.16628348  1
  P  P0  1  0.75000000  0.73395322  0.12543967  1
  P  P1  1  0.75000000  0.23395322  0.37456033  1
  P  P2  1  0.25000000  0.26604274  0.87460051  1
  P  P3  1  0.25000000  0.76604274  0.62539949  1
  Rh  Rh0  1  0.75000000  0.35234201  0.06146480  1
  Rh  Rh1  1  0.75000000  0.85234201  0.43853520  1
  Rh  Rh2  1  0.25000000  0.64765152  0.93863854  1
  Rh  Rh3  1  0.25000000  0.14765152  0.56136146  1
loop_
_geom_bond_atom_site_label_1
_geom_bond_atom_site_label_2
_geom_bond_distance
_geom_bond_site_symmetry_2
Nb0 P1 2.572593 1_555
Nb0 P3 2.680711 1_655
Nb0 P3 2.680711 1_555
Nb0 P2 2.727449 1_655
Nb0 P2 2.727449 1_555
Nb0 Rh3 2.881565 1_655
Nb0 Rh3 2.881565 1_555
Nb0 Rh0 2.927299 1_556
Nb0 Rh1 2.934446 1_555
Nb0 Rh2 2.936638 1_555
Nb0 Rh2 2.936638 1_655
Nb1 P0 2.572593 1_556
Nb1 P2 2.680711 1_565
Nb1 P2 2.680711 1_665
Nb1 P3 2.727449 1_655
Nb1 P3 2.727449 1_555
Nb1 Rh2 2.881565 1_555
Nb1 Rh2 2.881565 1_655
Nb1 Rh1 2.927299 1_555
Nb1 Rh0 2.934446 1_566
Nb1 Rh3 2.936638 1_565
Nb1 Rh3 2.936638 1_665
Nb2 P3 2.572542 1_555
Nb2 P1 2.680767 1_555
Nb2 P1 2.680767 1_455
Nb2 P0 2.727099 1_455
Nb2 P0 2.727099 1_555
Nb2 Rh1 2.881377 1_555
Nb2 Rh1 2.881377 1_455
Nb2 Rh2 2.926286 1_554
Nb2 Rh3 2.934271 1_555
Nb2 Rh0 2.935996 1_555
Nb2 Rh0 2.935996 1_455
Nb3 P2 2.572542 1_554
Nb3 P0 2.680767 1_445
Nb3 P0 2.680767 1_545
Nb3 P1 2.727099 1_555
Nb3 P1 2.727099 1_455
Nb3 Rh0 2.881377 1_455
Nb3 Rh0 2.881377 1_555
Nb3 Rh3 2.926286 1_555
Nb3 Rh2 2.934271 1_544
Nb3 Rh1 2.935996 1_445
Nb3 Rh1 2.935996 1_545
P0 Rh1 2.365779 1_555
P0 Rh2 2.371131 1_554
P0 Rh2 2.371131 1_654
P0 Rh0 2.474912 1_555
P1 Rh0 2.365779 1_555
P1 Rh3 2.371131 1_655
P1 Rh3 2.371131 1_555
P1 Rh1 2.474912 1_545
P2 Rh3 2.366758 1_555
P2 Rh0 2.371382 1_556
P2 Rh0 2.371382 1_456
P2 Rh2 2.474981 1_555
P3 Rh2 2.366758 1_555
P3 Rh1 2.371382 1_455
P3 Rh1 2.371382 1_555
P3 Rh3 2.474981 1_565
Rh0 Rh2 2.801097 1_554
Rh0 Rh2 2.801097 1_654
Rh1 Rh3 2.801097 1_565
Rh1 Rh3 2.801097 1_665
