# generated using pymatgen
data_YMg
_symmetry_space_group_name_H-M   'P 1'
_cell_length_a   6.90018072
_cell_length_b   6.90018072
_cell_length_c   33.30004600
_cell_angle_alpha   90.00000000
_cell_angle_beta   90.00000000
_cell_angle_gamma   120.00000689
_symmetry_Int_Tables_number   1
_chemical_formula_structural   YMg
_chemical_formula_sum   'Y24 Mg24'
_cell_volume   1373.08165692
_cell_formula_units_Z   24
loop_
 _symmetry_equiv_pos_site_id
 _symmetry_equiv_pos_as_xyz
  1  'x, y, z'
loop_
 _atom_site_type_symbol
 _atom_site_label
 _atom_site_symmetry_multiplicity
 _atom_site_fract_x
 _atom_site_fract_y
 _atom_site_fract_z
 _atom_site_occupancy
  Y  Y0_0  1  0.33333350  0.16666650  0.00000000  1
  Y  Y0_1  1  0.33333350  0.16666650  0.50000000  1
  Y  Y0_2  1  0.33333350  0.66666650  0.00000000  1
  Y  Y0_3  1  0.33333350  0.66666650  0.50000000  1
  Y  Y0_4  1  0.83333350  0.16666650  0.00000000  1
  Y  Y0_5  1  0.83333350  0.16666650  0.50000000  1
  Y  Y0_6  1  0.83333350  0.66666650  0.00000000  1
  Y  Y0_7  1  0.83333350  0.66666650  0.50000000  1
  Y  Y1_0  1  0.00000000  0.00000000  0.41055400  1
  Y  Y1_1  1  0.00000000  0.00000000  0.91055400  1
  Y  Y1_2  1  0.00000000  0.50000000  0.41055400  1
  Y  Y1_3  1  0.00000000  0.50000000  0.91055400  1
  Y  Y1_4  1  0.50000000  0.00000000  0.41055400  1
  Y  Y1_5  1  0.50000000  0.00000000  0.91055400  1
  Y  Y1_6  1  0.50000000  0.50000000  0.41055400  1
  Y  Y1_7  1  0.50000000  0.50000000  0.91055400  1
  Y  Y2_0  1  0.00000000  0.00000000  0.08944600  1
  Y  Y2_1  1  0.00000000  0.00000000  0.58944600  1
  Y  Y2_2  1  0.00000000  0.50000000  0.08944600  1
  Y  Y2_3  1  0.00000000  0.50000000  0.58944600  1
  Y  Y2_4  1  0.50000000  0.00000000  0.08944600  1
  Y  Y2_5  1  0.50000000  0.00000000  0.58944600  1
  Y  Y2_6  1  0.50000000  0.50000000  0.08944600  1
  Y  Y2_7  1  0.50000000  0.50000000  0.58944600  1
  Mg  Mg0_0  1  0.33333350  0.16666650  0.32714450  1
  Mg  Mg0_1  1  0.33333350  0.16666650  0.82714450  1
  Mg  Mg0_2  1  0.33333350  0.66666650  0.32714450  1
  Mg  Mg0_3  1  0.33333350  0.66666650  0.82714450  1
  Mg  Mg0_4  1  0.83333350  0.16666650  0.32714450  1
  Mg  Mg0_5  1  0.83333350  0.16666650  0.82714450  1
  Mg  Mg0_6  1  0.83333350  0.66666650  0.32714450  1
  Mg  Mg0_7  1  0.83333350  0.66666650  0.82714450  1
  Mg  Mg1_0  1  0.00000000  0.00000000  0.25000000  1
  Mg  Mg1_1  1  0.00000000  0.00000000  0.75000000  1
  Mg  Mg1_2  1  0.00000000  0.50000000  0.25000000  1
  Mg  Mg1_3  1  0.00000000  0.50000000  0.75000000  1
  Mg  Mg1_4  1  0.50000000  0.00000000  0.25000000  1
  Mg  Mg1_5  1  0.50000000  0.00000000  0.75000000  1
  Mg  Mg1_6  1  0.50000000  0.50000000  0.25000000  1
  Mg  Mg1_7  1  0.50000000  0.50000000  0.75000000  1
  Mg  Mg2_0  1  0.33333350  0.16666650  0.17285550  1
  Mg  Mg2_1  1  0.33333350  0.16666650  0.67285550  1
  Mg  Mg2_2  1  0.33333350  0.66666650  0.17285550  1
  Mg  Mg2_3  1  0.33333350  0.66666650  0.67285550  1
  Mg  Mg2_4  1  0.83333350  0.16666650  0.17285550  1
  Mg  Mg2_5  1  0.83333350  0.16666650  0.67285550  1
  Mg  Mg2_6  1  0.83333350  0.66666650  0.17285550  1
  Mg  Mg2_7  1  0.83333350  0.66666650  0.67285550  1
loop_
_geom_bond_atom_site_label_1
_geom_bond_atom_site_label_2
_geom_bond_distance
_geom_bond_site_symmetry_2
Y0_0 Y0_6 3.450090 1_555
Y0_0 Y0_6 3.450090 1_445
Y0_0 Y0_4 3.450090 1_555
Y0_0 Y0_2 3.450090 1_545
Y0_0 Y0_4 3.450090 1_455
Y0_0 Y0_2 3.450090 1_555
Y0_0 Y2_4 3.583224 1_555
Y0_0 Y1_5 3.583224 1_554
Y0_0 Y2_6 3.583226 1_555
Y0_0 Y2_0 3.583226 1_555
Y0_0 Y1_1 3.583226 1_554
Y0_0 Y1_7 3.583226 1_554
Y0_1 Y0_7 3.450090 1_555
Y0_1 Y0_7 3.450090 1_445
Y0_1 Y0_5 3.450090 1_555
Y0_1 Y0_3 3.450090 1_545
Y0_1 Y0_3 3.450090 1_555
Y0_1 Y0_5 3.450090 1_455
Y0_1 Y2_5 3.583224 1_555
Y0_1 Y1_4 3.583224 1_555
Y0_1 Y1_0 3.583226 1_555
Y0_1 Y2_7 3.583226 1_555
Y0_1 Y2_1 3.583226 1_555
Y0_1 Y1_6 3.583226 1_555
Y0_2 Y0_4 3.450090 1_565
Y0_2 Y0_4 3.450090 1_455
Y0_2 Y0_6 3.450090 1_555
Y0_2 Y0_6 3.450090 1_455
Y0_2 Y2_6 3.583224 1_555
Y0_2 Y1_7 3.583224 1_554
Y0_2 Y2_4 3.583226 1_565
Y0_2 Y2_2 3.583226 1_555
Y0_2 Y1_5 3.583226 1_564
Y0_2 Y1_3 3.583226 1_554
Y0_3 Y0_5 3.450090 1_565
Y0_3 Y0_5 3.450090 1_455
Y0_3 Y0_7 3.450090 1_555
Y0_3 Y0_7 3.450090 1_455
Y0_3 Y1_6 3.583224 1_555
Y0_3 Y2_7 3.583224 1_555
Y0_3 Y2_5 3.583226 1_565
Y0_3 Y1_4 3.583226 1_565
Y0_3 Y2_3 3.583226 1_555
Y0_3 Y1_2 3.583226 1_555
Y0_4 Y0_6 3.450090 1_555
Y0_4 Y0_6 3.450090 1_545
Y0_4 Y2_0 3.583224 1_655
Y0_4 Y1_1 3.583224 1_654
Y0_4 Y2_2 3.583226 1_655
Y0_4 Y2_4 3.583226 1_555
Y0_4 Y1_5 3.583226 1_554
Y0_4 Y1_3 3.583226 1_654
Y0_5 Y0_7 3.450090 1_545
Y0_5 Y0_7 3.450090 1_555
Y0_5 Y2_1 3.583224 1_655
Y0_5 Y1_0 3.583224 1_655
Y0_5 Y1_4 3.583226 1_555
Y0_5 Y2_5 3.583226 1_555
Y0_5 Y1_2 3.583226 1_655
Y0_5 Y2_3 3.583226 1_655
Y0_6 Y2_2 3.583224 1_655
Y0_6 Y1_3 3.583224 1_654
Y0_6 Y2_6 3.583226 1_555
Y0_6 Y2_0 3.583226 1_665
Y0_6 Y1_1 3.583226 1_664
Y0_6 Y1_7 3.583226 1_554
Y0_7 Y1_2 3.583224 1_655
Y0_7 Y2_3 3.583224 1_655
Y0_7 Y2_1 3.583226 1_665
Y0_7 Y2_7 3.583226 1_555
Y0_7 Y1_0 3.583226 1_665
Y0_7 Y1_6 3.583226 1_555
Y1_0 Y1_6 3.450090 1_555
Y1_0 Y1_6 3.450090 1_445
Y1_0 Y1_4 3.450090 1_555
Y1_0 Y1_2 3.450090 1_555
Y1_0 Y1_2 3.450090 1_545
Y1_0 Y1_4 3.450090 1_455
Y1_1 Y1_7 3.450090 1_445
Y1_1 Y1_7 3.450090 1_555
Y1_1 Y1_5 3.450090 1_555
Y1_1 Y1_3 3.450090 1_555
Y1_1 Y1_3 3.450090 1_545
Y1_1 Y1_5 3.450090 1_455
Y1_2 Y1_4 3.450090 1_565
Y1_2 Y1_4 3.450090 1_455
Y1_2 Y1_6 3.450090 1_455
Y1_2 Y1_6 3.450090 1_555
Y1_3 Y1_5 3.450090 1_455
Y1_3 Y1_5 3.450090 1_565
Y1_3 Y1_7 3.450090 1_555
Y1_3 Y1_7 3.450090 1_455
Y1_4 Y1_6 3.450090 1_545
Y1_4 Y1_6 3.450090 1_555
Y1_5 Y1_7 3.450090 1_545
Y1_5 Y1_7 3.450090 1_555
Y2_0 Y2_6 3.450090 1_445
Y2_0 Y2_6 3.450090 1_555
Y2_0 Y2_2 3.450090 1_555
Y2_0 Y2_4 3.450090 1_455
Y2_0 Y2_2 3.450090 1_545
Y2_0 Y2_4 3.450090 1_555
Y2_1 Y2_7 3.450090 1_555
Y2_1 Y2_7 3.450090 1_445
Y2_1 Y2_3 3.450090 1_545
Y2_1 Y2_3 3.450090 1_555
Y2_1 Y2_5 3.450090 1_455
Y2_1 Y2_5 3.450090 1_555
Y2_2 Y2_4 3.450090 1_455
Y2_2 Y2_4 3.450090 1_565
Y2_2 Y2_6 3.450090 1_555
Y2_2 Y2_6 3.450090 1_455
Y2_3 Y2_5 3.450090 1_565
Y2_3 Y2_5 3.450090 1_455
Y2_3 Y2_7 3.450090 1_455
Y2_3 Y2_7 3.450090 1_555
Y2_4 Y2_6 3.450090 1_555
Y2_4 Y2_6 3.450090 1_545
Y2_5 Y2_7 3.450090 1_555
Y2_5 Y2_7 3.450090 1_545
Mg0_0 Mg1_4 3.250696 1_555
Mg0_0 Mg1_6 3.250698 1_555
Mg0_0 Mg1_0 3.250698 1_555
Mg0_0 Y1_4 3.417957 1_555
Mg0_0 Y1_0 3.417959 1_555
Mg0_0 Y1_6 3.417959 1_555
Mg0_0 Mg0_6 3.450090 1_555
Mg0_0 Mg0_6 3.450090 1_445
Mg0_0 Mg0_2 3.450090 1_545
Mg0_0 Mg0_4 3.450090 1_555
Mg0_0 Mg0_4 3.450090 1_455
Mg0_0 Mg0_2 3.450090 1_555
Mg0_1 Mg1_5 3.250696 1_555
Mg0_1 Mg1_1 3.250698 1_555
Mg0_1 Mg1_7 3.250698 1_555
Mg0_1 Y1_5 3.417957 1_555
Mg0_1 Y1_1 3.417959 1_555
Mg0_1 Y1_7 3.417959 1_555
Mg0_1 Mg0_7 3.450090 1_555
Mg0_1 Mg0_7 3.450090 1_445
Mg0_1 Mg0_5 3.450090 1_555
Mg0_1 Mg0_3 3.450090 1_545
Mg0_1 Mg0_5 3.450090 1_455
Mg0_1 Mg0_3 3.450090 1_555
Mg0_2 Mg1_6 3.250696 1_555
Mg0_2 Mg1_4 3.250698 1_565
Mg0_2 Mg1_2 3.250698 1_555
Mg0_2 Y1_6 3.417957 1_555
Mg0_2 Y1_4 3.417959 1_565
Mg0_2 Y1_2 3.417959 1_555
Mg0_2 Mg0_4 3.450090 1_565
Mg0_2 Mg0_4 3.450090 1_455
Mg0_2 Mg0_6 3.450090 1_555
Mg0_2 Mg0_6 3.450090 1_455
Mg0_3 Mg1_7 3.250696 1_555
Mg0_3 Mg1_5 3.250698 1_565
Mg0_3 Mg1_3 3.250698 1_555
Mg0_3 Y1_7 3.417957 1_555
Mg0_3 Y1_5 3.417959 1_565
Mg0_3 Y1_3 3.417959 1_555
Mg0_3 Mg0_5 3.450090 1_565
Mg0_3 Mg0_5 3.450090 1_455
Mg0_3 Mg0_7 3.450090 1_555
Mg0_3 Mg0_7 3.450090 1_455
Mg0_4 Mg1_0 3.250696 1_655
Mg0_4 Mg1_4 3.250698 1_555
Mg0_4 Mg1_2 3.250698 1_655
Mg0_4 Y1_0 3.417957 1_655
Mg0_4 Y1_4 3.417959 1_555
Mg0_4 Y1_2 3.417959 1_655
Mg0_4 Mg0_6 3.450090 1_545
Mg0_4 Mg0_6 3.450090 1_555
Mg0_5 Mg1_1 3.250696 1_655
Mg0_5 Mg1_3 3.250698 1_655
Mg0_5 Mg1_5 3.250698 1_555
Mg0_5 Y1_1 3.417957 1_655
Mg0_5 Y1_3 3.417959 1_655
Mg0_5 Y1_5 3.417959 1_555
Mg0_5 Mg0_7 3.450090 1_555
Mg0_5 Mg0_7 3.450090 1_545
Mg0_6 Mg1_2 3.250696 1_655
Mg0_6 Mg1_0 3.250698 1_665
Mg0_6 Mg1_6 3.250698 1_555
Mg0_6 Y1_2 3.417957 1_655
Mg0_6 Y1_0 3.417959 1_665
Mg0_6 Y1_6 3.417959 1_555
Mg0_7 Mg1_3 3.250696 1_655
Mg0_7 Mg1_1 3.250698 1_665
Mg0_7 Mg1_7 3.250698 1_555
Mg0_7 Y1_3 3.417957 1_655
Mg0_7 Y1_7 3.417959 1_555
Mg0_7 Y1_1 3.417959 1_665
Mg1_0 Mg2_4 3.250696 1_455
Mg1_0 Mg2_6 3.250698 1_445
Mg1_0 Mg2_0 3.250698 1_555
Mg1_0 Mg1_6 3.450090 1_445
Mg1_0 Mg1_6 3.450090 1_555
Mg1_0 Mg1_4 3.450090 1_455
Mg1_0 Mg1_4 3.450090 1_555
Mg1_0 Mg1_2 3.450090 1_555
Mg1_0 Mg1_2 3.450090 1_545
Mg1_1 Mg2_5 3.250696 1_455
Mg1_1 Mg2_7 3.250698 1_445
Mg1_1 Mg2_1 3.250698 1_555
Mg1_1 Mg1_7 3.450090 1_445
Mg1_1 Mg1_7 3.450090 1_555
Mg1_1 Mg1_3 3.450090 1_555
Mg1_1 Mg1_3 3.450090 1_545
Mg1_1 Mg1_5 3.450090 1_455
Mg1_1 Mg1_5 3.450090 1_555
Mg1_2 Mg2_6 3.250696 1_455
Mg1_2 Mg2_4 3.250698 1_455
Mg1_2 Mg2_2 3.250698 1_555
Mg1_2 Mg1_4 3.450090 1_565
Mg1_2 Mg1_4 3.450090 1_455
Mg1_2 Mg1_6 3.450090 1_555
Mg1_2 Mg1_6 3.450090 1_455
Mg1_3 Mg2_7 3.250696 1_455
Mg1_3 Mg2_5 3.250698 1_455
Mg1_3 Mg2_3 3.250698 1_555
Mg1_3 Mg1_5 3.450090 1_565
Mg1_3 Mg1_5 3.450090 1_455
Mg1_3 Mg1_7 3.450090 1_455
Mg1_3 Mg1_7 3.450090 1_555
Mg1_4 Mg2_0 3.250696 1_555
Mg1_4 Mg2_2 3.250698 1_545
Mg1_4 Mg2_4 3.250698 1_555
Mg1_4 Mg1_6 3.450090 1_545
Mg1_4 Mg1_6 3.450090 1_555
Mg1_5 Mg2_1 3.250696 1_555
Mg1_5 Mg2_3 3.250698 1_545
Mg1_5 Mg2_5 3.250698 1_555
Mg1_5 Mg1_7 3.450090 1_555
Mg1_5 Mg1_7 3.450090 1_545
Mg1_6 Mg2_2 3.250696 1_555
Mg1_6 Mg2_6 3.250698 1_555
Mg1_6 Mg2_0 3.250698 1_555
Mg1_7 Mg2_3 3.250696 1_555
Mg1_7 Mg2_7 3.250698 1_555
Mg1_7 Mg2_1 3.250698 1_555
Mg2_0 Y2_4 3.417957 1_555
Mg2_0 Y2_0 3.417959 1_555
Mg2_0 Y2_6 3.417959 1_555
Mg2_0 Mg2_6 3.450090 1_555
Mg2_0 Mg2_6 3.450090 1_445
Mg2_0 Mg2_2 3.450090 1_545
Mg2_0 Mg2_4 3.450090 1_555
Mg2_0 Mg2_4 3.450090 1_455
Mg2_0 Mg2_2 3.450090 1_555
Mg2_1 Y2_5 3.417957 1_555
Mg2_1 Y2_7 3.417959 1_555
Mg2_1 Y2_1 3.417959 1_555
Mg2_1 Mg2_7 3.450090 1_555
Mg2_1 Mg2_7 3.450090 1_445
Mg2_1 Mg2_5 3.450090 1_555
Mg2_1 Mg2_3 3.450090 1_545
Mg2_1 Mg2_3 3.450090 1_555
Mg2_1 Mg2_5 3.450090 1_455
Mg2_2 Y2_6 3.417957 1_555
Mg2_2 Y2_4 3.417959 1_565
Mg2_2 Y2_2 3.417959 1_555
Mg2_2 Mg2_4 3.450090 1_565
Mg2_2 Mg2_4 3.450090 1_455
Mg2_2 Mg2_6 3.450090 1_555
Mg2_2 Mg2_6 3.450090 1_455
Mg2_3 Y2_7 3.417957 1_555
Mg2_3 Y2_5 3.417959 1_565
Mg2_3 Y2_3 3.417959 1_555
Mg2_3 Mg2_5 3.450090 1_565
Mg2_3 Mg2_5 3.450090 1_455
Mg2_3 Mg2_7 3.450090 1_555
Mg2_3 Mg2_7 3.450090 1_455
Mg2_4 Y2_0 3.417957 1_655
Mg2_4 Y2_4 3.417959 1_555
Mg2_4 Y2_2 3.417959 1_655
Mg2_4 Mg2_6 3.450090 1_555
Mg2_4 Mg2_6 3.450090 1_545
Mg2_5 Y2_1 3.417957 1_655
Mg2_5 Y2_5 3.417959 1_555
Mg2_5 Y2_3 3.417959 1_655
Mg2_5 Mg2_7 3.450090 1_555
Mg2_5 Mg2_7 3.450090 1_545
Mg2_6 Y2_2 3.417957 1_655
Mg2_6 Y2_0 3.417959 1_665
Mg2_6 Y2_6 3.417959 1_555
Mg2_7 Y2_3 3.417957 1_655
Mg2_7 Y2_1 3.417959 1_665
Mg2_7 Y2_7 3.417959 1_555
