# generated using pymatgen
data_Mg3Ge3(MoO6)2
_symmetry_space_group_name_H-M   'P 1'
_cell_length_a   10.70550813
_cell_length_b   10.70550813
_cell_length_c   10.70550813
_cell_angle_alpha   109.47122063
_cell_angle_beta   109.47122063
_cell_angle_gamma   109.47122063
_symmetry_Int_Tables_number   1
_chemical_formula_structural   Mg3Ge3(MoO6)2
_chemical_formula_sum   'Mg12 Ge12 Mo8 O48'
_cell_volume   944.49565853
_cell_formula_units_Z   4
loop_
 _symmetry_equiv_pos_site_id
 _symmetry_equiv_pos_as_xyz
  1  'x, y, z'
loop_
 _atom_site_type_symbol
 _atom_site_label
 _atom_site_symmetry_multiplicity
 _atom_site_fract_x
 _atom_site_fract_y
 _atom_site_fract_z
 _atom_site_occupancy
  Mg  Mg0  1  0.25000000  0.87500000  0.62500000  1
  Mg  Mg1  1  0.75000000  0.62500000  0.87500000  1
  Mg  Mg2  1  0.62500000  0.87500000  0.75000000  1
  Mg  Mg3  1  0.87500000  0.62500000  0.25000000  1
  Mg  Mg4  1  0.62500000  0.25000000  0.87500000  1
  Mg  Mg5  1  0.87500000  0.75000000  0.62500000  1
  Mg  Mg6  1  0.75000000  0.12500000  0.37500000  1
  Mg  Mg7  1  0.25000000  0.37500000  0.12500000  1
  Mg  Mg8  1  0.37500000  0.12500000  0.25000000  1
  Mg  Mg9  1  0.12500000  0.37500000  0.75000000  1
  Mg  Mg10  1  0.37500000  0.75000000  0.12500000  1
  Mg  Mg11  1  0.12500000  0.25000000  0.37500000  1
  Ge  Ge0  1  0.12500000  0.75000000  0.87500000  1
  Ge  Ge1  1  0.87500000  0.25000000  0.12500000  1
  Ge  Ge2  1  0.62500000  0.37500000  0.25000000  1
  Ge  Ge3  1  0.75000000  0.87500000  0.12500000  1
  Ge  Ge4  1  0.87500000  0.12500000  0.75000000  1
  Ge  Ge5  1  0.25000000  0.62500000  0.37500000  1
  Ge  Ge6  1  0.75000000  0.37500000  0.62500000  1
  Ge  Ge7  1  0.25000000  0.12500000  0.87500000  1
  Ge  Ge8  1  0.12500000  0.87500000  0.25000000  1
  Ge  Ge9  1  0.37500000  0.62500000  0.75000000  1
  Ge  Ge10  1  0.62500000  0.75000000  0.37500000  1
  Ge  Ge11  1  0.37500000  0.25000000  0.62500000  1
  Mo  Mo0  1  0.50000000  0.50000000  0.50000000  1
  Mo  Mo1  1  0.50000000  0.00000000  0.50000000  1
  Mo  Mo2  1  0.00000000  0.50000000  0.50000000  1
  Mo  Mo3  1  0.50000000  0.50000000  0.00000000  1
  Mo  Mo4  1  0.00000000  0.00000000  0.50000000  1
  Mo  Mo5  1  0.00000000  0.50000000  0.00000000  1
  Mo  Mo6  1  0.50000000  0.00000000  0.00000000  1
  Mo  Mo7  1  0.00000000  0.00000000  0.00000000  1
  O  O0  1  0.41289500  0.81088100  0.78121600  1
  O  O1  1  0.86832100  0.39798700  0.08710500  1
  O  O2  1  0.10201300  0.97033400  0.68911900  1
  O  O3  1  0.52966600  0.63167900  0.71878400  1
  O  O4  1  0.68911900  0.08710500  0.71878400  1
  O  O5  1  0.63167900  0.71878400  0.52966600  1
  O  O6  1  0.63167900  0.41289500  0.10201300  1
  O  O7  1  0.71878400  0.52966600  0.63167900  1
  O  O8  1  0.81088100  0.52966600  0.39798700  1
  O  O9  1  0.97033400  0.78121600  0.86832100  1
  O  O10  1  0.78121600  0.86832100  0.97033400  1
  O  O11  1  0.71878400  0.68911900  0.08710500  1
  O  O12  1  0.41289500  0.10201300  0.63167900  1
  O  O13  1  0.39798700  0.81088100  0.52966600  1
  O  O14  1  0.08710500  0.71878400  0.68911900  1
  O  O15  1  0.10201300  0.63167900  0.41289500  1
  O  O16  1  0.52966600  0.39798700  0.81088100  1
  O  O17  1  0.08710500  0.86832100  0.39798700  1
  O  O18  1  0.97033400  0.68911900  0.10201300  1
  O  O19  1  0.18911900  0.47033400  0.60201300  1
  O  O20  1  0.68911900  0.10201300  0.97033400  1
  O  O21  1  0.78121600  0.41289500  0.81088100  1
  O  O22  1  0.39798700  0.08710500  0.86832100  1
  O  O23  1  0.86832100  0.97033400  0.78121600  1
  O  O24  1  0.58710500  0.18911900  0.21878400  1
  O  O25  1  0.13167900  0.60201300  0.91289500  1
  O  O26  1  0.89798700  0.02966600  0.31088100  1
  O  O27  1  0.47033400  0.36832100  0.28121600  1
  O  O28  1  0.31088100  0.91289500  0.28121600  1
  O  O29  1  0.36832100  0.28121600  0.47033400  1
  O  O30  1  0.36832100  0.58710500  0.89798700  1
  O  O31  1  0.28121600  0.47033400  0.36832100  1
  O  O32  1  0.13167900  0.02966600  0.21878400  1
  O  O33  1  0.60201300  0.91289500  0.13167900  1
  O  O34  1  0.21878400  0.58710500  0.18911900  1
  O  O35  1  0.18911900  0.21878400  0.58710500  1
  O  O36  1  0.31088100  0.89798700  0.02966600  1
  O  O37  1  0.02966600  0.31088100  0.89798700  1
  O  O38  1  0.91289500  0.13167900  0.60201300  1
  O  O39  1  0.47033400  0.60201300  0.18911900  1
  O  O40  1  0.89798700  0.36832100  0.58710500  1
  O  O41  1  0.91289500  0.28121600  0.31088100  1
  O  O42  1  0.60201300  0.18911900  0.47033400  1
  O  O43  1  0.58710500  0.89798700  0.36832100  1
  O  O44  1  0.28121600  0.31088100  0.91289500  1
  O  O45  1  0.21878400  0.13167900  0.02966600  1
  O  O46  1  0.02966600  0.21878400  0.13167900  1
  O  O47  1  0.81088100  0.78121600  0.41289500  1
loop_
_geom_bond_atom_site_label_1
_geom_bond_atom_site_label_2
_geom_bond_distance
_geom_bond_site_symmetry_2
Mg0 O22 2.314866 1_565
Mg0 O15 2.314866 1_555
Mg0 O13 2.314870 1_555
Mg0 O2 2.314870 1_555
Mg0 O12 2.434775 1_565
Mg0 O17 2.434775 1_555
Mg0 O14 2.434783 1_555
Mg0 O0 2.434783 1_555
Mg1 O7 2.314866 1_555
Mg1 O10 2.314866 1_555
Mg1 O21 2.314866 1_555
Mg1 O11 2.314866 1_556
Mg1 O18 2.434771 1_556
Mg1 O16 2.434771 1_555
Mg1 O9 2.434775 1_555
Mg1 O3 2.434775 1_555
Mg2 O23 2.314866 1_555
Mg2 O3 2.314866 1_555
Mg2 O0 2.314866 1_555
Mg2 O4 2.314866 1_565
Mg2 O13 2.434771 1_555
Mg2 O20 2.434771 1_565
Mg2 O10 2.434775 1_555
Mg2 O5 2.434775 1_555
Mg3 O17 2.314866 1_655
Mg3 O6 2.314866 1_555
Mg3 O8 2.314870 1_555
Mg3 O18 2.314870 1_555
Mg3 O15 2.434775 1_655
Mg3 O1 2.434775 1_555
Mg3 O11 2.434783 1_555
Mg3 O47 2.434783 1_555
Mg4 O12 2.314866 1_555
Mg4 O1 2.314866 1_556
Mg4 O16 2.314870 1_555
Mg4 O20 2.314870 1_555
Mg4 O6 2.434775 1_556
Mg4 O22 2.434775 1_555
Mg4 O4 2.434783 1_555
Mg4 O21 2.434783 1_555
Mg5 O5 2.314866 1_555
Mg5 O9 2.314866 1_555
Mg5 O14 2.314866 1_655
Mg5 O47 2.314866 1_555
Mg5 O2 2.434771 1_655
Mg5 O8 2.434771 1_555
Mg5 O23 2.434775 1_555
Mg5 O7 2.434775 1_555
Mg6 O40 2.314866 1_555
Mg6 O33 2.314866 1_545
Mg6 O42 2.314870 1_555
Mg6 O26 2.314870 1_555
Mg6 O38 2.434775 1_555
Mg6 O43 2.434775 1_545
Mg6 O24 2.434783 1_555
Mg6 O41 2.434783 1_555
Mg7 O31 2.314866 1_555
Mg7 O45 2.314866 1_555
Mg7 O44 2.314866 1_554
Mg7 O34 2.314866 1_555
Mg7 O39 2.434771 1_555
Mg7 O37 2.434771 1_554
Mg7 O46 2.434775 1_555
Mg7 O27 2.434775 1_555
Mg8 O27 2.314866 1_555
Mg8 O32 2.314866 1_555
Mg8 O28 2.314866 1_545
Mg8 O24 2.314866 1_555
Mg8 O42 2.434771 1_555
Mg8 O36 2.434771 1_545
Mg8 O45 2.434775 1_555
Mg8 O29 2.434775 1_555
Mg9 O30 2.314866 1_555
Mg9 O38 2.314866 1_455
Mg9 O37 2.314870 1_555
Mg9 O19 2.314870 1_555
Mg9 O40 2.434775 1_455
Mg9 O25 2.434775 1_555
Mg9 O35 2.434783 1_555
Mg9 O44 2.434783 1_555
Mg10 O43 2.314866 1_555
Mg10 O25 2.314866 1_554
Mg10 O39 2.314870 1_555
Mg10 O36 2.314870 1_555
Mg10 O30 2.434775 1_554
Mg10 O33 2.434775 1_555
Mg10 O28 2.434783 1_555
Mg10 O34 2.434783 1_555
Mg11 O29 2.314866 1_555
Mg11 O46 2.314866 1_555
Mg11 O41 2.314866 1_455
Mg11 O35 2.314866 1_555
Mg11 O19 2.434771 1_555
Mg11 O26 2.434771 1_455
Mg11 O31 2.434775 1_555
Mg11 O32 2.434775 1_555
Ge0 O14 1.778833 1_555
Ge0 O36 1.778838 1_556
Ge0 O9 1.778843 1_455
Ge0 O25 1.778843 1_555
Ge1 O41 1.778833 1_555
Ge1 O20 1.778838 1_554
Ge1 O1 1.778843 1_555
Ge1 O46 1.778843 1_655
Ge2 O24 1.778833 1_555
Ge2 O8 1.778838 1_555
Ge2 O6 1.778843 1_555
Ge2 O27 1.778843 1_555
Ge3 O11 1.778833 1_555
Ge3 O26 1.778838 1_565
Ge3 O33 1.778843 1_555
Ge3 O10 1.778843 1_554
Ge4 O4 1.778833 1_555
Ge4 O37 1.778838 1_655
Ge4 O38 1.778843 1_555
Ge4 O23 1.778843 1_545
Ge5 O34 1.778833 1_555
Ge5 O13 1.778838 1_555
Ge5 O15 1.778843 1_555
Ge5 O31 1.778843 1_555
Ge6 O21 1.778833 1_555
Ge6 O42 1.778838 1_555
Ge6 O40 1.778843 1_555
Ge6 O7 1.778843 1_555
Ge7 O44 1.778833 1_555
Ge7 O2 1.778838 1_545
Ge7 O45 1.778843 1_556
Ge7 O22 1.778843 1_555
Ge8 O28 1.778833 1_555
Ge8 O18 1.778838 1_455
Ge8 O17 1.778843 1_555
Ge8 O32 1.778843 1_565
Ge9 O0 1.778833 1_555
Ge9 O19 1.778838 1_555
Ge9 O3 1.778843 1_555
Ge9 O30 1.778843 1_555
Ge10 O47 1.778833 1_555
Ge10 O39 1.778838 1_555
Ge10 O43 1.778843 1_555
Ge10 O5 1.778843 1_555
Ge11 O35 1.778833 1_555
Ge11 O16 1.778838 1_555
Ge11 O12 1.778843 1_555
Ge11 O29 1.778843 1_555
Mo0 O31 2.139722 1_555
Mo0 O27 2.139722 1_555
Mo0 O29 2.139722 1_555
Mo0 O7 2.139722 1_555
Mo0 O5 2.139722 1_555
Mo0 O3 2.139722 1_555
Mo1 O43 2.139722 1_545
Mo1 O12 2.139722 1_555
Mo1 O28 2.139727 1_545
Mo1 O4 2.139727 1_555
Mo1 O42 2.139731 1_555
Mo1 O13 2.139731 1_545
Mo2 O15 2.139722 1_555
Mo2 O40 2.139722 1_455
Mo2 O14 2.139727 1_555
Mo2 O41 2.139727 1_455
Mo2 O8 2.139731 1_455
Mo2 O19 2.139731 1_555
Mo3 O6 2.139722 1_555
Mo3 O30 2.139722 1_554
Mo3 O11 2.139727 1_555
Mo3 O44 2.139727 1_554
Mo3 O39 2.139731 1_555
Mo3 O16 2.139731 1_554
Mo4 O17 2.139722 1_545
Mo4 O38 2.139722 1_455
Mo4 O47 2.139727 1_445
Mo4 O35 2.139727 1_555
Mo4 O26 2.139731 1_455
Mo4 O2 2.139731 1_545
Mo5 O1 2.139722 1_455
Mo5 O25 2.139722 1_554
Mo5 O21 2.139727 1_454
Mo5 O34 2.139727 1_555
Mo5 O37 2.139731 1_554
Mo5 O18 2.139731 1_455
Mo6 O33 2.139722 1_545
Mo6 O22 2.139722 1_554
Mo6 O24 2.139727 1_555
Mo6 O0 2.139727 1_544
Mo6 O36 2.139731 1_545
Mo6 O20 2.139731 1_554
Mo7 O32 2.139722 1_555
Mo7 O9 2.139722 1_444
Mo7 O23 2.139722 1_444
Mo7 O46 2.139722 1_555
Mo7 O10 2.139722 1_444
Mo7 O45 2.139722 1_555
