# generated using pymatgen
data_TmTiClO3
_symmetry_space_group_name_H-M   'P 1'
_cell_length_a   5.28906305
_cell_length_b   5.28906305
_cell_length_c   9.74767940
_cell_angle_alpha   74.32163517
_cell_angle_beta   74.32163517
_cell_angle_gamma   43.12928745
_symmetry_Int_Tables_number   1
_chemical_formula_structural   TmTiClO3
_chemical_formula_sum   'Tm2 Ti2 Cl2 O6'
_cell_volume   178.37553207
_cell_formula_units_Z   2
loop_
 _symmetry_equiv_pos_site_id
 _symmetry_equiv_pos_as_xyz
  1  'x, y, z'
loop_
 _atom_site_type_symbol
 _atom_site_label
 _atom_site_symmetry_multiplicity
 _atom_site_fract_x
 _atom_site_fract_y
 _atom_site_fract_z
 _atom_site_occupancy
  Tm  Tm0  1  0.27673700  0.27673700  0.20457300  1
  Tm  Tm1  1  0.72326300  0.72326300  0.79542700  1
  Ti  Ti0  1  0.88241500  0.88241500  0.42683900  1
  Ti  Ti1  1  0.11758500  0.11758500  0.57316100  1
  Cl  Cl0  1  0.61589300  0.61589300  0.09269000  1
  Cl  Cl1  1  0.38410700  0.38410700  0.90731000  1
  O  O0  1  0.84789600  0.84789600  0.24733200  1
  O  O1  1  0.15210400  0.15210400  0.75266800  1
  O  O2  1  0.66762200  0.66762200  0.56797300  1
  O  O3  1  0.33237800  0.33237800  0.43202700  1
  O  O4  1  0.92136000  0.92136000  0.62694400  1
  O  O5  1  0.07864000  0.07864000  0.37305600  1
loop_
_geom_bond_atom_site_label_1
_geom_bond_atom_site_label_2
_geom_bond_distance
_geom_bond_site_symmetry_2
Cl0 Tm1 2.780866 1_554
Cl0 Tm0 2.911222 1_565
Cl0 Tm0 2.911222 1_655
Cl0 Tm0 3.194844 1_555
Cl1 Tm0 2.780866 1_556
Cl1 Tm1 2.911222 1_545
Cl1 Tm1 2.911222 1_455
Cl1 Tm1 3.194844 1_555
O0 Ti0 1.876795 1_555
O0 Tm0 2.147668 1_565
O0 Tm0 2.147668 1_655
O1 Ti1 1.876795 1_555
O1 Tm1 2.147668 1_545
O1 Tm1 2.147668 1_455
O2 Ti1 2.002381 1_565
O2 Ti1 2.002381 1_655
O2 Ti0 2.160618 1_555
O2 Tm1 2.433243 1_555
O3 Ti0 2.002381 1_545
O3 Ti0 2.002381 1_455
O3 Ti1 2.160618 1_555
O3 Tm0 2.433243 1_555
O4 Ti1 1.847472 1_665
O4 Ti0 2.094224 1_555
O4 Tm1 2.152922 1_555
O5 Ti0 1.847472 1_445
O5 Ti1 2.094224 1_555
O5 Tm0 2.152922 1_555
