# generated using pymatgen
data_Na3Nd9B8O27
_symmetry_space_group_name_H-M   'P 1'
_cell_length_a   8.83124927
_cell_length_b   8.83124927
_cell_length_c   8.54217400
_cell_angle_alpha   90.00000000
_cell_angle_beta   90.00000000
_cell_angle_gamma   119.99999450
_symmetry_Int_Tables_number   1
_chemical_formula_structural   Na3Nd9B8O27
_chemical_formula_sum   'Na3 Nd9 B8 O27'
_cell_volume   576.95687868
_cell_formula_units_Z   1
loop_
 _symmetry_equiv_pos_site_id
 _symmetry_equiv_pos_as_xyz
  1  'x, y, z'
loop_
 _atom_site_type_symbol
 _atom_site_label
 _atom_site_symmetry_multiplicity
 _atom_site_fract_x
 _atom_site_fract_y
 _atom_site_fract_z
 _atom_site_occupancy
  Na  Na0  1  0.33625400  0.00000000  0.00000000  1
  Na  Na1  1  0.00000000  0.33625400  0.00000000  1
  Na  Na2  1  0.66374600  0.66374600  0.00000000  1
  Nd  Nd0  1  0.65179700  0.00000000  0.23458800  1
  Nd  Nd1  1  0.00000000  0.65179700  0.23458800  1
  Nd  Nd2  1  0.65179700  0.00000000  0.76541200  1
  Nd  Nd3  1  0.00000000  0.65179700  0.76541200  1
  Nd  Nd4  1  0.34820300  0.34820300  0.23458800  1
  Nd  Nd5  1  0.34820300  0.34820300  0.76541200  1
  Nd  Nd6  1  0.28248100  0.00000000  0.50000000  1
  Nd  Nd7  1  0.00000000  0.28248100  0.50000000  1
  Nd  Nd8  1  0.71751900  0.71751900  0.50000000  1
  B  B0  1  0.00000000  0.00000000  0.20958500  1
  B  B1  1  0.00000000  0.00000000  0.79041500  1
  B  B2  1  0.33333300  0.66666700  0.00000000  1
  B  B3  1  0.66666700  0.33333300  0.00000000  1
  B  B4  1  0.33333300  0.66666700  0.32374400  1
  B  B5  1  0.33333300  0.66666700  0.67625600  1
  B  B6  1  0.66666700  0.33333300  0.67625600  1
  B  B7  1  0.66666700  0.33333300  0.32374400  1
  O  O0  1  0.17768100  0.51152300  0.31718000  1
  O  O1  1  0.48847700  0.66615800  0.31718000  1
  O  O2  1  0.17768100  0.51152300  0.68282000  1
  O  O3  1  0.51152300  0.17768100  0.68282000  1
  O  O4  1  0.33384200  0.82231900  0.31718000  1
  O  O5  1  0.48847700  0.66615800  0.68282000  1
  O  O6  1  0.66615800  0.48847700  0.68282000  1
  O  O7  1  0.51152300  0.17768100  0.31718000  1
  O  O8  1  0.33384200  0.82231900  0.68282000  1
  O  O9  1  0.66615800  0.48847700  0.31718000  1
  O  O10  1  0.82231900  0.33384200  0.68282000  1
  O  O11  1  0.82231900  0.33384200  0.31718000  1
  O  O12  1  0.32231900  0.50302100  0.00000000  1
  O  O13  1  0.49697900  0.81929800  0.00000000  1
  O  O14  1  0.50302100  0.32231900  0.00000000  1
  O  O15  1  0.18070200  0.67768100  0.00000000  1
  O  O16  1  0.81929800  0.49697900  0.00000000  1
  O  O17  1  0.67768100  0.18070200  0.00000000  1
  O  O18  1  0.74317800  0.00000000  0.50000000  1
  O  O19  1  0.00000000  0.74317800  0.50000000  1
  O  O20  1  0.25682200  0.25682200  0.50000000  1
  O  O21  1  0.15680800  0.00000000  0.21197400  1
  O  O22  1  0.00000000  0.15680800  0.21197400  1
  O  O23  1  0.15680800  0.00000000  0.78802600  1
  O  O24  1  0.00000000  0.15680800  0.78802600  1
  O  O25  1  0.84319200  0.84319200  0.21197400  1
  O  O26  1  0.84319200  0.84319200  0.78802600  1
loop_
_geom_bond_atom_site_label_1
_geom_bond_atom_site_label_2
_geom_bond_distance
_geom_bond_site_symmetry_2
Na0 O21 2.406258 1_555
Na0 O23 2.406258 1_554
Na0 O15 2.465621 1_545
Na0 O14 2.465621 1_555
Na0 O13 2.612753 1_545
Na0 O17 2.612753 1_555
Na1 O24 2.406258 1_554
Na1 O22 2.406258 1_555
Na1 O17 2.465621 1_455
Na1 O12 2.465621 1_555
Na1 O16 2.612753 1_455
Na1 O15 2.612753 1_555
Na2 O25 2.406258 1_555
Na2 O26 2.406258 1_554
Na2 O13 2.465621 1_555
Na2 O16 2.465621 1_555
Na2 O14 2.612753 1_555
Na2 O12 2.612753 1_555
Nd0 O18 2.406541 1_555
Nd0 O17 2.499941 1_555
Nd0 O13 2.499941 1_545
Nd0 O7 2.537406 1_555
Nd0 O4 2.537406 1_545
Nd0 O1 2.649125 1_545
Nd0 O11 2.649125 1_555
Nd0 O25 2.674448 1_545
Nd0 O22 2.674448 1_655
Nd1 O19 2.406541 1_555
Nd1 O15 2.499941 1_555
Nd1 O16 2.499941 1_455
Nd1 O0 2.537406 1_555
Nd1 O11 2.537406 1_455
Nd1 O9 2.649125 1_455
Nd1 O4 2.649125 1_555
Nd1 O25 2.674448 1_455
Nd1 O21 2.674448 1_565
Nd2 O18 2.406541 1_555
Nd2 O17 2.499941 1_556
Nd2 O13 2.499941 1_546
Nd2 O3 2.537406 1_555
Nd2 O8 2.537406 1_545
Nd2 O5 2.649125 1_545
Nd2 O10 2.649125 1_555
Nd2 O26 2.674448 1_545
Nd2 O24 2.674448 1_655
Nd3 O19 2.406541 1_555
Nd3 O15 2.499941 1_556
Nd3 O16 2.499941 1_456
Nd3 O2 2.537406 1_555
Nd3 O10 2.537406 1_455
Nd3 O6 2.649125 1_455
Nd3 O8 2.649125 1_555
Nd3 O26 2.674448 1_455
Nd3 O23 2.674448 1_565
Nd4 O20 2.406541 1_555
Nd4 O12 2.499941 1_555
Nd4 O14 2.499941 1_555
Nd4 O1 2.537406 1_555
Nd4 O9 2.537406 1_555
Nd4 O7 2.649124 1_555
Nd4 O0 2.649124 1_555
Nd4 O21 2.674448 1_555
Nd4 O22 2.674448 1_555
Nd5 O20 2.406541 1_555
Nd5 O12 2.499941 1_556
Nd5 O14 2.499941 1_556
Nd5 O5 2.537406 1_555
Nd5 O6 2.537406 1_555
Nd5 O2 2.649124 1_555
Nd5 O3 2.649124 1_555
Nd5 O23 2.674448 1_555
Nd5 O24 2.674448 1_555
Nd6 O20 2.389432 1_555
Nd6 O19 2.389432 1_545
Nd6 O4 2.412164 1_545
Nd6 O8 2.412164 1_545
Nd6 O7 2.412164 1_555
Nd6 O3 2.412164 1_555
Nd6 O23 2.699107 1_555
Nd6 O21 2.699107 1_555
Nd7 O20 2.389432 1_555
Nd7 O18 2.389432 1_455
Nd7 O11 2.412164 1_455
Nd7 O10 2.412164 1_455
Nd7 O0 2.412164 1_555
Nd7 O2 2.412164 1_555
Nd7 O24 2.699107 1_555
Nd7 O22 2.699107 1_555
Nd8 O18 2.389432 1_565
Nd8 O19 2.389432 1_655
Nd8 O1 2.412164 1_555
Nd8 O9 2.412164 1_555
Nd8 O5 2.412164 1_555
Nd8 O6 2.412164 1_555
Nd8 O26 2.699107 1_555
Nd8 O25 2.699107 1_555
B0 O22 1.384961 1_555
B0 O21 1.384961 1_555
B0 O25 1.384961 1_445
B1 O24 1.384961 1_555
B1 O23 1.384961 1_555
B1 O26 1.384961 1_445
B2 O15 1.399094 1_555
B2 O13 1.399099 1_555
B2 O12 1.399103 1_555
B3 O17 1.399094 1_555
B3 O16 1.399099 1_555
B3 O14 1.399103 1_555
B4 O4 1.373505 1_555
B4 O0 1.373509 1_555
B4 O1 1.373513 1_555
B5 O8 1.373505 1_555
B5 O2 1.373509 1_555
B5 O5 1.373513 1_555
B6 O10 1.373505 1_555
B6 O3 1.373509 1_555
B6 O6 1.373513 1_555
B7 O11 1.373505 1_555
B7 O7 1.373509 1_555
B7 O9 1.373513 1_555
