# generated using pymatgen
data_LaNb3O9
_symmetry_space_group_name_H-M   'P 1'
_cell_length_a   8.90359764
_cell_length_b   8.90359764
_cell_length_c   9.81733016
_cell_angle_alpha   57.00949239
_cell_angle_beta   57.00949239
_cell_angle_gamma   36.81770077
_symmetry_Int_Tables_number   1
_chemical_formula_structural   LaNb3O9
_chemical_formula_sum   'La2 Nb6 O18'
_cell_volume   381.94821846
_cell_formula_units_Z   2
loop_
 _symmetry_equiv_pos_site_id
 _symmetry_equiv_pos_as_xyz
  1  'x, y, z'
loop_
 _atom_site_type_symbol
 _atom_site_label
 _atom_site_symmetry_multiplicity
 _atom_site_fract_x
 _atom_site_fract_y
 _atom_site_fract_z
 _atom_site_occupancy
  La  La0  1  0.33371900  0.33371900  0.99886800  1
  La  La1  1  0.67322600  0.67322600  0.99814200  1
  Nb  Nb0  1  0.58899700  0.58899700  0.74741400  1
  Nb  Nb1  1  0.75026400  0.75026400  0.26419300  1
  Nb  Nb2  1  0.07868100  0.07868100  0.25716000  1
  Nb  Nb3  1  0.92892500  0.92892500  0.73945700  1
  Nb  Nb4  1  0.25718200  0.25718200  0.73219900  1
  Nb  Nb5  1  0.41822900  0.41822900  0.24821100  1
  O  O0  1  0.50371500  0.50371500  0.99957200  1
  O  O1  1  0.57939100  0.10214800  0.22971900  1
  O  O2  1  0.10214800  0.57939100  0.22971900  1
  O  O3  1  0.17886400  0.17886400  0.00136700  1
  O  O4  1  0.83058000  0.83058000  0.99796600  1
  O  O5  1  0.00517100  0.00517100  0.49910800  1
  O  O6  1  0.66924400  0.66924400  0.50241300  1
  O  O7  1  0.92449700  0.43647900  0.22364100  1
  O  O8  1  0.73046600  0.25861200  0.76657300  1
  O  O9  1  0.75030200  0.27821400  0.23245500  1
  O  O10  1  0.25861200  0.73046600  0.76657300  1
  O  O11  1  0.43647900  0.92449700  0.22364100  1
  O  O12  1  0.57396000  0.08309100  0.77492600  1
  O  O13  1  0.33902500  0.33902500  0.49660100  1
  O  O14  1  0.08309100  0.57396000  0.77492600  1
  O  O15  1  0.27821400  0.75030200  0.23245500  1
  O  O16  1  0.90748700  0.42816100  0.76903000  1
  O  O17  1  0.42816100  0.90748700  0.76903000  1
loop_
_geom_bond_atom_site_label_1
_geom_bond_atom_site_label_2
_geom_bond_distance
_geom_bond_site_symmetry_2
La0 O3 2.602421 1_556
La0 O14 2.639599 1_555
La0 O12 2.639599 1_555
La0 O7 2.662235 1_456
La0 O11 2.662235 1_546
La0 O8 2.689251 1_555
La0 O10 2.689251 1_555
La0 O1 2.694619 1_556
La0 O2 2.694619 1_556
La0 O4 2.812327 1_545
La0 O4 2.812327 1_455
La0 O0 2.876216 1_555
La1 O4 2.657654 1_555
La1 O7 2.666564 1_556
La1 O11 2.666564 1_556
La1 O16 2.668246 1_555
La1 O17 2.668246 1_555
La1 O12 2.671509 1_565
La1 O14 2.671509 1_655
La1 O9 2.678868 1_556
La1 O15 2.678868 1_556
La1 O3 2.814123 1_566
La1 O3 2.814123 1_656
La1 O0 2.856016 1_555
Nb0 O6 1.969933 1_555
Nb0 O16 1.989885 1_555
Nb0 O17 1.989885 1_555
Nb0 O10 1.999528 1_555
Nb0 O8 1.999528 1_555
Nb0 O0 2.027425 1_555
Nb1 O6 1.915451 1_555
Nb1 O7 1.992462 1_555
Nb1 O11 1.992462 1_555
Nb1 O2 2.004837 1_655
Nb1 O1 2.004837 1_565
Nb1 O4 2.145199 1_554
Nb2 O9 1.936464 1_455
Nb2 O15 1.936464 1_545
Nb2 O5 1.949000 1_555
Nb2 O3 2.071880 1_555
Nb2 O11 2.118905 1_545
Nb2 O7 2.118905 1_455
Nb3 O5 1.933501 1_665
Nb3 O8 1.960566 1_565
Nb3 O10 1.960566 1_655
Nb3 O4 2.088493 1_555
Nb3 O14 2.090496 1_655
Nb3 O12 2.090496 1_565
Nb4 O13 1.894995 1_555
Nb4 O17 1.981641 1_545
Nb4 O16 1.981641 1_455
Nb4 O12 2.028353 1_555
Nb4 O14 2.028353 1_555
Nb4 O3 2.172688 1_556
Nb5 O2 1.954253 1_555
Nb5 O1 1.954253 1_555
Nb5 O13 1.997965 1_555
Nb5 O0 1.999506 1_554
Nb5 O9 2.032319 1_555
Nb5 O15 2.032319 1_555
