# generated using pymatgen
data_CeGa3Ag
_symmetry_space_group_name_H-M   'P 1'
_cell_length_a   4.34580800
_cell_length_b   4.34580800
_cell_length_c   6.22381247
_cell_angle_alpha   69.56604246
_cell_angle_beta   69.56604246
_cell_angle_gamma   90.00000000
_symmetry_Int_Tables_number   1
_chemical_formula_structural   CeGa3Ag
_chemical_formula_sum   'Ce1 Ga3 Ag1'
_cell_volume   102.21665094
_cell_formula_units_Z   1
loop_
 _symmetry_equiv_pos_site_id
 _symmetry_equiv_pos_as_xyz
  1  'x, y, z'
loop_
 _atom_site_type_symbol
 _atom_site_label
 _atom_site_symmetry_multiplicity
 _atom_site_fract_x
 _atom_site_fract_y
 _atom_site_fract_z
 _atom_site_occupancy
  Ce  Ce0  1  0.00000000  0.00000000  0.00000000  1
  Ga  Ga0  1  0.38671700  0.38671700  0.22656600  1
  Ga  Ga1  1  0.61328300  0.61328300  0.77343400  1
  Ga  Ga2  1  0.25000000  0.75000000  0.50000000  1
  Ag  Ag0  1  0.75000000  0.25000000  0.50000000  1
loop_
_geom_bond_atom_site_label_1
_geom_bond_atom_site_label_2
_geom_bond_distance
_geom_bond_site_symmetry_2
Ce0 Ga0 3.308578 1_555
Ce0 Ga0 3.308578 1_445
Ce0 Ga0 3.308578 1_545
Ce0 Ga0 3.308578 1_455
Ce0 Ga1 3.308578 1_544
Ce0 Ga1 3.308578 1_554
Ce0 Ga1 3.308578 1_454
Ce0 Ga1 3.308578 1_444
Ce0 Ga2 3.470550 1_545
Ce0 Ga2 3.470550 1_554
Ce0 Ga2 3.470550 1_544
Ce0 Ga2 3.470550 1_445
Ga0 Ga1 2.452479 1_554
Ga0 Ga2 2.628997 1_555
Ga0 Ga2 2.628997 1_545
Ga1 Ga2 2.628997 1_555
Ga1 Ga2 2.628997 1_655
Ag0 Ga1 2.628997 1_555
Ag0 Ga1 2.628997 1_545
Ag0 Ga0 2.628997 1_655
Ag0 Ga0 2.628997 1_555
Ag0 Ga2 3.072950 1_555
Ag0 Ga2 3.072950 1_545
Ag0 Ga2 3.072950 1_645
Ag0 Ga2 3.072950 1_655
Ag0 Ce0 3.470550 1_656
Ag0 Ce0 3.470550 1_556
Ag0 Ce0 3.470550 1_655
Ag0 Ce0 3.470550 1_665
