# generated using pymatgen
data_Nb5B6
_symmetry_space_group_name_H-M   'P 1'
_cell_length_a   3.16670630
_cell_length_b   3.31689087
_cell_length_c   11.55449525
_cell_angle_alpha   90.00000000
_cell_angle_beta   97.87622746
_cell_angle_gamma   90.00000000
_symmetry_Int_Tables_number   1
_chemical_formula_structural   Nb5B6
_chemical_formula_sum   'Nb5 B6'
_cell_volume   120.21911931
_cell_formula_units_Z   1
loop_
 _symmetry_equiv_pos_site_id
 _symmetry_equiv_pos_as_xyz
  1  'x, y, z'
loop_
 _atom_site_type_symbol
 _atom_site_label
 _atom_site_symmetry_multiplicity
 _atom_site_fract_x
 _atom_site_fract_y
 _atom_site_fract_z
 _atom_site_occupancy
  Nb  Nb0  1  0.00000000  0.00000000  0.00000000  1
  Nb  Nb1  1  0.38575815  0.00000000  0.77151529  1
  Nb  Nb2  1  0.61424185  -0.00000000  0.22848471  1
  Nb  Nb3  1  0.19433672  0.50000000  0.38867044  1
  Nb  Nb4  1  0.80566328  0.50000000  0.61132956  1
  B  B0  1  0.08164881  0.50000000  0.16329861  1
  B  B1  1  0.91835119  0.50000000  0.83670139  1
  B  B2  1  0.27251454  0.00000000  0.54502708  1
  B  B3  1  0.72748546  0.00000000  0.45497292  1
  B  B4  1  0.46037294  0.50000000  0.92074589  1
  B  B5  1  0.53962706  0.50000000  0.07925411  1
loop_
_geom_bond_atom_site_label_1
_geom_bond_atom_site_label_2
_geom_bond_distance
_geom_bond_site_symmetry_2
B0 B5 1.852650 1_455
B0 B5 1.852653 1_555
B0 Nb2 2.411243 1_565
B0 Nb2 2.411243 1_555
B0 Nb2 2.411243 1_465
B0 Nb2 2.411243 1_455
B0 Nb0 2.498745 1_555
B0 Nb0 2.498745 1_565
B0 Nb3 2.579492 1_555
B1 B4 1.852650 1_655
B1 B4 1.852653 1_555
B1 Nb1 2.411243 1_565
B1 Nb1 2.411243 1_555
B1 Nb1 2.411243 1_655
B1 Nb1 2.411243 1_665
B1 Nb0 2.498745 1_666
B1 Nb0 2.498745 1_656
B1 Nb4 2.579492 1_555
B2 B3 1.889275 1_555
B2 B3 1.889285 1_455
B2 Nb4 2.415222 1_555
B2 Nb4 2.415222 1_545
B2 Nb4 2.415233 1_445
B2 Nb4 2.415233 1_455
B2 Nb3 2.439884 1_545
B2 Nb3 2.439884 1_555
B2 Nb1 2.592270 1_555
B3 Nb3 2.415222 1_545
B3 Nb3 2.415222 1_555
B3 Nb3 2.415233 1_655
B3 Nb3 2.415233 1_645
B3 Nb4 2.439884 1_545
B3 Nb4 2.439884 1_555
B3 Nb2 2.592270 1_555
B4 B5 1.814205 1_556
B4 Nb1 2.380707 1_565
B4 Nb1 2.380707 1_555
B4 Nb0 2.465823 1_656
B4 Nb0 2.465823 1_666
B4 Nb0 2.465823 1_556
B4 Nb0 2.465823 1_566
B5 Nb2 2.380707 1_555
B5 Nb2 2.380707 1_565
B5 Nb0 2.465823 1_555
B5 Nb0 2.465823 1_565
B5 Nb0 2.465823 1_655
B5 Nb0 2.465823 1_665
