# generated using pymatgen
data_Ca3Sc2N4
_symmetry_space_group_name_H-M   'P 1'
_cell_length_a   6.90826445
_cell_length_b   8.48706620
_cell_length_c   6.17373791
_cell_angle_alpha   89.99999683
_cell_angle_beta   90.41858502
_cell_angle_gamma   127.89883063
_symmetry_Int_Tables_number   1
_chemical_formula_structural   Ca3Sc2N4
_chemical_formula_sum   'Ca6 Sc4 N8'
_cell_volume   285.61848013
_cell_formula_units_Z   2
loop_
 _symmetry_equiv_pos_site_id
 _symmetry_equiv_pos_as_xyz
  1  'x, y, z'
loop_
 _atom_site_type_symbol
 _atom_site_label
 _atom_site_symmetry_multiplicity
 _atom_site_fract_x
 _atom_site_fract_y
 _atom_site_fract_z
 _atom_site_occupancy
  Ca  Ca0  1  0.22512200  0.98339800  0.98520400  1
  Ca  Ca1  1  0.77487800  0.75827600  0.51479600  1
  Ca  Ca2  1  0.77487800  0.01660200  0.01479600  1
  Ca  Ca3  1  0.22512200  0.24172400  0.48520400  1
  Ca  Ca4  1  0.00000000  0.60394100  0.75000000  1
  Ca  Ca5  1  0.00000000  0.39605900  0.25000000  1
  Sc  Sc0  1  0.62063500  0.18619000  0.60609000  1
  Sc  Sc1  1  0.37936500  0.56555600  0.89391000  1
  Sc  Sc2  1  0.37936500  0.81381000  0.39391000  1
  Sc  Sc3  1  0.62063500  0.43444400  0.10609000  1
  N  N0  1  0.24045700  0.95341900  0.56857000  1
  N  N1  1  0.75954300  0.71296200  0.93143000  1
  N  N2  1  0.75954300  0.04658100  0.43143000  1
  N  N3  1  0.24045700  0.28703800  0.06857000  1
  N  N4  1  0.70547600  0.26882300  0.93556000  1
  N  N5  1  0.29452400  0.56334600  0.56444000  1
  N  N6  1  0.29452400  0.73117700  0.06444000  1
  N  N7  1  0.70547600  0.43665400  0.43556000  1
loop_
_geom_bond_atom_site_label_1
_geom_bond_atom_site_label_2
_geom_bond_distance
_geom_bond_site_symmetry_2
Ca0 N6 2.511741 1_556
Ca0 N3 2.565330 1_566
Ca0 N1 2.576465 1_455
Ca0 N0 2.594073 1_555
Ca0 N4 2.667033 1_565
Ca1 N7 2.511733 1_555
Ca1 N2 2.565330 1_565
Ca1 N0 2.576465 1_655
Ca1 N1 2.594072 1_555
Ca1 N5 2.667031 1_555
Ca2 N4 2.511741 1_554
Ca2 N1 2.565330 1_544
Ca2 N3 2.576465 1_655
Ca2 N2 2.594073 1_555
Ca2 N6 2.667033 1_545
Ca3 N5 2.511733 1_555
Ca3 N0 2.565330 1_545
Ca3 N2 2.576465 1_455
Ca3 N3 2.594072 1_555
Ca3 N7 2.667031 1_555
Ca4 N7 2.513453 1_455
Ca4 N6 2.513454 1_556
Ca4 N4 2.542860 1_455
Ca4 N5 2.542865 1_555
Ca4 N0 2.604916 1_555
Ca4 N1 2.604916 1_455
Ca5 N5 2.513453 1_555
Ca5 N4 2.513454 1_454
Ca5 N6 2.542860 1_555
Ca5 N7 2.542865 1_455
Ca5 N2 2.604916 1_455
Ca5 N3 2.604916 1_555
N0 Sc0 2.114493 1_565
N0 Sc2 2.213483 1_555
N1 Sc1 2.114494 1_555
N1 Sc3 2.213490 1_556
N2 Sc2 2.114493 1_545
N2 Sc0 2.213483 1_555
N3 Sc3 2.114494 1_555
N3 Sc1 2.213490 1_554
N4 Sc3 2.109237 1_556
N4 Sc0 2.109588 1_555
N5 Sc2 2.109251 1_555
N5 Sc1 2.109586 1_555
N6 Sc1 2.109237 1_554
N6 Sc2 2.109588 1_555
N7 Sc0 2.109251 1_555
N7 Sc3 2.109586 1_555
