# generated using pymatgen
data_HoFe6(Sn2Ge)2
_symmetry_space_group_name_H-M   'P 1'
_cell_length_a   5.29554519
_cell_length_b   5.29554519
_cell_length_c   8.72265900
_cell_angle_alpha   90.00000000
_cell_angle_beta   90.00000000
_cell_angle_gamma   120.00001481
_symmetry_Int_Tables_number   1
_chemical_formula_structural   HoFe6(Sn2Ge)2
_chemical_formula_sum   'Ho1 Fe6 Sn4 Ge2'
_cell_volume   211.83651243
_cell_formula_units_Z   1
loop_
 _symmetry_equiv_pos_site_id
 _symmetry_equiv_pos_as_xyz
  1  'x, y, z'
loop_
 _atom_site_type_symbol
 _atom_site_label
 _atom_site_symmetry_multiplicity
 _atom_site_fract_x
 _atom_site_fract_y
 _atom_site_fract_z
 _atom_site_occupancy
  Ho  Ho0  1  0.00000000  0.00000000  0.00000000  1
  Fe  Fe0  1  0.50000000  0.50000000  0.76833500  1
  Fe  Fe1  1  0.50000000  0.50000000  0.23166500  1
  Fe  Fe2  1  0.00000000  0.50000000  0.76833500  1
  Fe  Fe3  1  0.00000000  0.50000000  0.23166500  1
  Fe  Fe4  1  0.50000000  0.00000000  0.76833500  1
  Fe  Fe5  1  0.50000000  0.00000000  0.23166500  1
  Sn  Sn0  1  0.66666700  0.33333300  0.50000000  1
  Sn  Sn1  1  0.33333300  0.66666700  0.50000000  1
  Sn  Sn2  1  0.00000000  0.00000000  0.66344300  1
  Sn  Sn3  1  0.00000000  0.00000000  0.33655700  1
  Ge  Ge0  1  0.66666700  0.33333300  0.00000000  1
  Ge  Ge1  1  0.33333300  0.66666700  0.00000000  1
loop_
_geom_bond_atom_site_label_1
_geom_bond_atom_site_label_2
_geom_bond_distance
_geom_bond_site_symmetry_2
Ho0 Sn3 2.935672 1_555
Ho0 Sn2 2.935672 1_554
Fe0 Ge0 2.533827 1_556
Fe0 Ge1 2.533827 1_556
Fe0 Fe2 2.647773 1_555
Fe0 Fe2 2.647773 1_655
Fe0 Fe4 2.647773 1_555
Fe0 Fe4 2.647773 1_565
Fe0 Sn0 2.795585 1_555
Fe0 Sn1 2.795585 1_555
Fe0 Sn2 2.801394 1_665
Fe0 Sn2 2.801394 1_555
Fe0 Ho0 3.330776 1_556
Fe0 Ho0 3.330776 1_666
Fe1 Ge0 2.533827 1_555
Fe1 Ge1 2.533827 1_555
Fe1 Fe5 2.647773 1_565
Fe1 Fe3 2.647773 1_655
Fe1 Fe3 2.647773 1_555
Fe1 Fe5 2.647773 1_555
Fe1 Sn1 2.795585 1_555
Fe1 Sn0 2.795585 1_555
Fe1 Sn3 2.801394 1_665
Fe1 Sn3 2.801394 1_555
Fe1 Ho0 3.330776 1_555
Fe1 Ho0 3.330776 1_665
Fe2 Ge0 2.533824 1_456
Fe2 Ge1 2.533824 1_556
Fe2 Fe4 2.647772 1_455
Fe2 Fe4 2.647772 1_565
Fe2 Sn1 2.795582 1_555
Fe2 Sn0 2.795582 1_455
Fe2 Sn2 2.801394 1_565
Fe2 Sn2 2.801394 1_555
Fe2 Ho0 3.330776 1_556
Fe2 Ho0 3.330776 1_566
Fe3 Ge0 2.533824 1_455
Fe3 Ge1 2.533824 1_555
Fe3 Fe5 2.647772 1_565
Fe3 Fe5 2.647772 1_455
Fe3 Sn0 2.795582 1_455
Fe3 Sn1 2.795582 1_555
Fe3 Sn3 2.801394 1_565
Fe3 Sn3 2.801394 1_555
Fe3 Ho0 3.330776 1_565
Fe3 Ho0 3.330776 1_555
Fe4 Ge1 2.533824 1_546
Fe4 Ge0 2.533824 1_556
Fe4 Sn0 2.795582 1_555
Fe4 Sn1 2.795582 1_545
Fe4 Sn2 2.801394 1_655
Fe4 Sn2 2.801394 1_555
Fe4 Ho0 3.330776 1_556
Fe4 Ho0 3.330776 1_656
Fe5 Ge1 2.533824 1_545
Fe5 Ge0 2.533824 1_555
Fe5 Sn1 2.795582 1_545
Fe5 Sn0 2.795582 1_555
Fe5 Sn3 2.801394 1_555
Fe5 Sn3 2.801394 1_655
Fe5 Ho0 3.330776 1_655
Fe5 Ho0 3.330776 1_555
Sn2 Sn3 2.851315 1_555
Ge0 Ho0 3.057382 1_655
Ge0 Ho0 3.057386 1_665
Ge0 Ho0 3.057386 1_555
Ge1 Ho0 3.057382 1_565
Ge1 Ho0 3.057386 1_665
Ge1 Ho0 3.057386 1_555
