# generated using pymatgen
data_Li9Mn2Co5O16
_symmetry_space_group_name_H-M   'P 1'
_cell_length_a   2.95458300
_cell_length_b   9.74273498
_cell_length_c   10.10858547
_cell_angle_alpha   85.80995895
_cell_angle_beta   86.99296473
_cell_angle_gamma   83.55900765
_symmetry_Int_Tables_number   1
_chemical_formula_structural   Li9Mn2Co5O16
_chemical_formula_sum   'Li9 Mn2 Co5 O16'
_cell_volume   288.08559988
_cell_formula_units_Z   1
loop_
 _symmetry_equiv_pos_site_id
 _symmetry_equiv_pos_as_xyz
  1  'x, y, z'
loop_
 _atom_site_type_symbol
 _atom_site_label
 _atom_site_symmetry_multiplicity
 _atom_site_fract_x
 _atom_site_fract_y
 _atom_site_fract_z
 _atom_site_occupancy
  Li  Li0  1  0.88212400  0.25286600  0.81828900  1
  Li  Li1  1  0.14362000  0.74442100  0.69465700  1
  Li  Li2  1  0.36939900  0.25118400  0.56028900  1
  Li  Li3  1  0.61597800  0.75448900  0.43360500  1
  Li  Li4  1  0.87140700  0.25056200  0.31085000  1
  Li  Li5  1  0.12690900  0.74825800  0.18682600  1
  Li  Li6  1  0.36403900  0.25431400  0.06516000  1
  Li  Li7  1  0.63442300  0.73648800  0.93219900  1
  Li  Li8  1  0.22961300  0.50887300  0.87292600  1
  Mn  Mn0  1  0.99300700  0.00290800  0.00213300  1
  Mn  Mn1  1  0.75612000  0.50073600  0.62995300  1
  Co  Co0  1  0.49812300  0.00308700  0.74923600  1
  Co  Co1  1  0.00347400  0.99662700  0.49872100  1
  Co  Co2  1  0.26231800  0.49631200  0.37313800  1
  Co  Co3  1  0.50592100  0.99752400  0.25050700  1
  Co  Co4  1  0.74574700  0.49914800  0.11685600  1
  O  O0  1  0.40472700  0.12355700  0.90934000  1
  O  O1  1  0.68646700  0.61792800  0.76564600  1
  O  O2  1  0.92709300  0.11689800  0.65799400  1
  O  O3  1  0.23004600  0.60467200  0.53214700  1
  O  O4  1  0.44425000  0.11040800  0.40311600  1
  O  O5  1  0.66538500  0.60732000  0.27676200  1
  O  O6  1  0.91429100  0.11427700  0.15818100  1
  O  O7  1  0.15660300  0.61678300  0.04105300  1
  O  O8  1  0.28723900  0.39065000  0.70647300  1
  O  O9  1  0.56031000  0.88524900  0.58877300  1
  O  O10  1  0.85329500  0.38599400  0.46964200  1
  O  O11  1  0.09395700  0.88105000  0.34070400  1
  O  O12  1  0.32058900  0.38765500  0.22147700  1
  O  O13  1  0.57942200  0.88567700  0.09823100  1
  O  O14  1  0.80751000  0.38659300  0.99019000  1
  O  O15  1  0.06659500  0.88749100  0.84492800  1
loop_
_geom_bond_atom_site_label_1
_geom_bond_atom_site_label_2
_geom_bond_distance
_geom_bond_site_symmetry_2
Li0 O0 2.088462 1_655
Li0 O8 2.123466 1_655
Li0 O0 2.125290 1_555
Li0 O2 2.156299 1_555
Li0 O14 2.234229 1_555
Li0 O8 2.371969 1_555
Li1 O1 2.000163 1_455
Li1 O1 2.038193 1_555
Li1 O15 2.122296 1_555
Li1 O9 2.137755 1_555
Li1 O3 2.196004 1_555
Li1 O9 2.333835 1_455
Li2 O8 2.066548 1_555
Li2 O10 2.100313 1_455
Li2 O2 2.110525 1_455
Li2 O4 2.160516 1_555
Li2 O10 2.171810 1_555
Li2 O2 2.213706 1_555
Li3 O9 2.080441 1_555
Li3 O11 2.082604 1_555
Li3 O3 2.112998 1_555
Li3 O11 2.116374 1_655
Li3 O5 2.202683 1_555
Li3 O3 2.407799 1_655
Li4 O6 2.098078 1_555
Li4 O4 2.098643 1_555
Li4 O12 2.111179 1_655
Li4 O10 2.145945 1_555
Li4 O12 2.176918 1_555
Li4 O4 2.249451 1_655
Li5 O7 2.014172 1_555
Li5 O11 2.086327 1_555
Li5 O13 2.117270 1_555
Li5 O5 2.163103 1_455
Li5 O13 2.168416 1_455
Li5 O5 2.173099 1_555
Li6 O14 2.020889 1_554
Li6 O0 2.087427 1_554
Li6 O12 2.107672 1_555
Li6 O14 2.109871 1_454
Li6 O6 2.144660 1_455
Li6 O6 2.205447 1_555
Li7 O1 2.099912 1_555
Li7 O7 2.130290 1_656
Li7 O7 2.140770 1_556
Li7 O15 2.164879 1_655
Li7 O15 2.273577 1_555
Li7 O13 2.287099 1_556
Li8 O1 2.031437 1_555
Li8 O7 2.052313 1_556
Li8 O14 2.086059 1_455
Li8 O8 2.096658 1_555
Li8 O1 2.124118 1_455
Li8 O14 2.299864 1_555
Mn0 O13 1.941090 1_545
Mn0 O0 1.944555 1_654
Mn0 O6 1.968418 1_555
Mn0 O15 2.001760 1_644
Mn0 O13 2.195579 1_645
Mn0 O0 2.198672 1_554
Mn1 O1 1.836839 1_555
Mn1 O8 1.941017 1_555
Mn1 O8 1.959505 1_655
Mn1 O3 1.997543 1_655
Mn1 O3 2.020057 1_555
Mn1 O10 2.025367 1_555
Co0 O2 1.931263 1_555
Co0 O15 1.965509 1_545
Co0 O9 2.043624 1_545
Co0 O0 2.056962 1_555
Co0 O2 2.126212 1_455
Co0 O15 2.147552 1_645
Co1 O9 1.941638 1_455
Co1 O4 1.973361 1_565
Co1 O11 2.010318 1_555
Co1 O2 2.048020 1_465
Co1 O9 2.079694 1_555
Co1 O4 2.119645 1_465
Co2 O5 1.884227 1_555
Co2 O10 1.892564 1_455
Co2 O12 1.915519 1_555
Co2 O3 1.979025 1_555
Co2 O10 2.181766 1_555
Co2 O5 2.197213 1_455
Co3 O11 1.908618 1_555
Co3 O6 1.911898 1_565
Co3 O13 1.939323 1_555
Co3 O4 1.948342 1_565
Co3 O11 2.170313 1_655
Co3 O6 2.188700 1_465
Co4 O14 1.735237 1_554
Co4 O7 1.860231 1_655
Co4 O12 1.968559 1_555
Co4 O5 1.983032 1_555
Co4 O7 2.120056 1_555
Co4 O12 2.188532 1_655
