# generated using pymatgen
data_Mn4Co4Si3Ge
_symmetry_space_group_name_H-M   'P 1'
_cell_length_a   3.68315000
_cell_length_b   5.76509300
_cell_length_c   6.92043148
_cell_angle_alpha   89.68515621
_cell_angle_beta   90.00000000
_cell_angle_gamma   90.00000000
_symmetry_Int_Tables_number   1
_chemical_formula_structural   Mn4Co4Si3Ge
_chemical_formula_sum   'Mn4 Co4 Si3 Ge1'
_cell_volume   146.94416322
_cell_formula_units_Z   1
loop_
 _symmetry_equiv_pos_site_id
 _symmetry_equiv_pos_as_xyz
  1  'x, y, z'
loop_
 _atom_site_type_symbol
 _atom_site_label
 _atom_site_symmetry_multiplicity
 _atom_site_fract_x
 _atom_site_fract_y
 _atom_site_fract_z
 _atom_site_occupancy
  Mn  Mn0  1  0.00000000  0.53548300  0.68718300  1
  Mn  Mn1  1  0.00000000  0.02195600  0.81969200  1
  Mn  Mn2  1  0.50000000  0.47835000  0.30923600  1
  Mn  Mn3  1  0.50000000  0.97388800  0.18384600  1
  Co  Co0  1  0.00000000  0.65807600  0.06122300  1
  Co  Co1  1  0.00000000  0.15281700  0.43245100  1
  Co  Co2  1  0.50000000  0.34301400  0.94594400  1
  Co  Co3  1  0.50000000  0.83351200  0.56007300  1
  Si  Si0  1  0.00000000  0.26719800  0.12213700  1
  Si  Si1  1  0.00000000  0.76643500  0.37581200  1
  Si  Si2  1  0.50000000  0.73261900  0.88026100  1
  Ge  Ge0  1  0.50000000  0.23665000  0.62214200  1
loop_
_geom_bond_atom_site_label_1
_geom_bond_atom_site_label_2
_geom_bond_distance
_geom_bond_site_symmetry_2
Mn0 Si1 2.526759 1_555
Mn0 Si2 2.546590 1_455
Mn0 Si2 2.546590 1_555
Mn1 Si2 2.518297 1_445
Mn1 Si2 2.518297 1_545
Mn1 Si0 2.532258 1_556
Mn2 Si1 2.523978 1_555
Mn2 Si1 2.523978 1_655
Mn2 Si0 2.562633 1_555
Mn2 Si0 2.562633 1_655
Mn3 Si2 2.526019 1_554
Mn3 Si0 2.534794 1_565
Mn3 Si0 2.534794 1_665
Mn3 Si1 2.563045 1_555
Mn3 Si1 2.563045 1_655
Co0 Si2 2.266828 1_554
Co0 Si2 2.266828 1_454
Co0 Si1 2.268243 1_555
Co0 Si0 2.290261 1_555
Co0 Mn1 2.675097 1_564
Co0 Mn0 2.687014 1_554
Co0 Mn2 2.718697 1_455
Co0 Mn2 2.718697 1_555
Co0 Mn3 2.728260 1_455
Co0 Mn3 2.728260 1_555
Co1 Si0 2.243001 1_555
Co1 Si1 2.263872 1_545
Co1 Ge0 2.314141 1_455
Co1 Ge0 2.314141 1_555
Co1 Mn3 2.726709 1_445
Co1 Mn3 2.726709 1_545
Co1 Mn2 2.760981 1_455
Co1 Mn2 2.760981 1_555
Co1 Mn1 2.780048 1_555
Co1 Mn0 2.831484 1_555
Co2 Si0 2.250190 1_656
Co2 Si0 2.250190 1_556
Co2 Si2 2.289193 1_555
Co2 Ge0 2.326482 1_555
Co2 Mn2 2.636512 1_556
Co2 Mn3 2.683404 1_546
Co2 Mn1 2.756537 1_655
Co2 Mn1 2.756537 1_555
Co2 Mn0 2.794194 1_555
Co2 Mn0 2.794194 1_655
Co3 Si1 2.274292 1_555
Co3 Si1 2.274292 1_655
Co3 Si2 2.287816 1_555
Co3 Ge0 2.365809 1_565
Co3 Mn0 2.664709 1_655
Co3 Mn0 2.664709 1_555
Co3 Mn2 2.691624 1_555
Co3 Mn3 2.722276 1_555
Co3 Mn1 2.796632 1_565
Co3 Mn1 2.796632 1_665
Ge0 Mn0 2.563311 1_555
Ge0 Mn0 2.563311 1_655
Ge0 Mn2 2.568583 1_555
Ge0 Mn1 2.602658 1_655
Ge0 Mn1 2.602658 1_555
