# generated using pymatgen
data_CdH12C4I2(NO)4
_symmetry_space_group_name_H-M   'P 1'
_cell_length_a   7.98244665
_cell_length_b   7.98244665
_cell_length_c   14.70014395
_cell_angle_alpha   99.19169349
_cell_angle_beta   99.19169349
_cell_angle_gamma   114.30952845
_symmetry_Int_Tables_number   1
_chemical_formula_structural   CdH12C4I2(NO)4
_chemical_formula_sum   'Cd2 H24 C8 I4 N8 O8'
_cell_volume   815.77174398
_cell_formula_units_Z   2
loop_
 _symmetry_equiv_pos_site_id
 _symmetry_equiv_pos_as_xyz
  1  'x, y, z'
loop_
 _atom_site_type_symbol
 _atom_site_label
 _atom_site_symmetry_multiplicity
 _atom_site_fract_x
 _atom_site_fract_y
 _atom_site_fract_z
 _atom_site_occupancy
  Cd  Cd0  1  0.80670800  0.30670800  0.50000000  1
  Cd  Cd1  1  0.55670800  0.55670800  0.00000000  1
  H  H0  1  0.48249000  0.99601100  0.73521100  1
  H  H1  1  0.26080000  0.74727800  0.26478900  1
  H  H2  1  0.24601100  0.23249000  0.23521100  1
  H  H3  1  0.99727800  0.01080000  0.76478900  1
  H  H4  1  0.70226800  0.06279000  0.81087100  1
  H  H5  1  0.25191900  0.89139700  0.18912900  1
  H  H6  1  0.31279000  0.45226800  0.31087100  1
  H  H7  1  0.14139700  0.00191900  0.68912900  1
  H  H8  1  0.38626500  0.62804500  0.51524900  1
  H  H9  1  0.11279600  0.87101600  0.48475100  1
  H  H10  1  0.87804500  0.13626500  0.01524900  1
  H  H11  1  0.12101600  0.86279600  0.98475100  1
  H  H12  1  0.53251400  0.80034800  0.46464500  1
  H  H13  1  0.33570300  0.06786900  0.53535500  1
  H  H14  1  0.05034800  0.28251400  0.96464500  1
  H  H15  1  0.31786900  0.08570300  0.03535500  1
  H  H16  1  0.86817200  0.21132100  0.70808100  1
  H  H17  1  0.50323900  0.16009100  0.29191900  1
  H  H18  1  0.46132100  0.61817200  0.20808100  1
  H  H19  1  0.41009100  0.25323900  0.79191900  1
  H  H20  1  0.73518200  0.66515100  0.45317200  1
  H  H21  1  0.21197900  0.28201000  0.54682800  1
  H  H22  1  0.91515100  0.48518200  0.95317200  1
  H  H23  1  0.53201000  0.96197900  0.04682800  1
  C  C0  1  0.71153900  0.14652600  0.68609100  1
  C  C1  1  0.46043500  0.02544800  0.31390900  1
  C  C2  1  0.39652600  0.46153900  0.18609100  1
  C  C3  1  0.27544800  0.21043500  0.81390900  1
  C  C4  1  0.61256100  0.59234600  0.48212300  1
  C  C5  1  0.11022300  0.13043900  0.51787700  1
  C  C6  1  0.84234600  0.36256100  0.98212300  1
  C  C7  1  0.38043900  0.86022300  0.01787700  1
  I  I0  1  0.11460800  0.58309200  0.65373100  1
  I  I1  1  0.92936100  0.46087700  0.34626900  1
  I  I2  1  0.83309200  0.86460800  0.15373100  1
  I  I3  1  0.71087700  0.67936100  0.84626900  1
  N  N0  1  0.62615600  0.07172400  0.75103000  1
  N  N1  1  0.32069400  0.87512700  0.24897000  1
  N  N2  1  0.32172400  0.37615600  0.25103000  1
  N  N3  1  0.12512700  0.07069400  0.74897000  1
  N  N4  1  0.49807700  0.67614900  0.48483200  1
  N  N5  1  0.19131700  0.01324500  0.51516800  1
  N  N6  1  0.92614900  0.24807700  0.98483200  1
  N  N7  1  0.26324500  0.94131700  0.01516800  1
  O  O0  1  0.62618100  0.14675400  0.60718900  1
  O  O1  1  0.53956500  0.01899200  0.39281100  1
  O  O2  1  0.39675400  0.37618100  0.10718900  1
  O  O3  1  0.26899200  0.28956500  0.89281100  1
  O  O4  1  0.58411000  0.44225800  0.50717000  1
  O  O5  1  0.93508800  0.07693900  0.49283000  1
  O  O6  1  0.69225800  0.33411000  0.00717000  1
  O  O7  1  0.32693900  0.68508800  0.99283000  1
loop_
_geom_bond_atom_site_label_1
_geom_bond_atom_site_label_2
_geom_bond_distance
_geom_bond_site_symmetry_2
Cd0 O4 2.438343 1_555
Cd0 O5 2.438351 1_555
Cd0 O0 2.458246 1_555
Cd0 O1 2.458246 1_555
Cd0 I0 2.860665 1_655
Cd0 I1 2.860665 1_555
Cd1 O6 2.438343 1_555
Cd1 O7 2.438351 1_554
Cd1 O2 2.458246 1_555
Cd1 O3 2.458246 1_554
Cd1 I2 2.860665 1_555
Cd1 I3 2.860665 1_554
H0 N0 1.016739 1_565
H1 N1 1.016753 1_555
H2 N2 1.016739 1_555
H3 N3 1.016753 1_655
H4 N0 1.016370 1_555
H5 N1 1.016366 1_555
H6 N2 1.016370 1_555
H7 N3 1.016366 1_555
H8 N4 1.021845 1_555
H9 N5 1.021845 1_565
H10 N6 1.021845 1_554
H11 N7 1.021845 1_556
H12 N4 1.020879 1_555
H13 N5 1.020879 1_555
H14 N6 1.020879 1_455
H15 N7 1.020879 1_545
C0 H16 1.104681 1_555
C0 O0 1.248510 1_555
C0 N0 1.336879 1_555
C1 H17 1.104682 1_555
C1 O1 1.248510 1_555
C1 N1 1.336875 1_545
C2 H18 1.104681 1_555
C2 O2 1.248510 1_555
C2 N2 1.336879 1_555
C3 H19 1.104682 1_555
C3 O3 1.248510 1_555
C3 N3 1.336875 1_555
C4 H20 1.104852 1_555
C4 O4 1.251454 1_555
C4 N4 1.338160 1_555
C5 H21 1.104847 1_555
C5 O5 1.251451 1_455
C5 N5 1.338167 1_555
C6 H22 1.104852 1_555
C6 O6 1.251454 1_556
C6 N6 1.338160 1_555
C7 H23 1.104847 1_555
C7 O7 1.251451 1_554
C7 N7 1.338167 1_555
