# generated using pymatgen
data_Dy5CoBi2
_symmetry_space_group_name_H-M   'P 1'
_cell_length_a   8.04567460
_cell_length_b   8.80125574
_cell_length_c   12.35112330
_cell_angle_alpha   89.99934267
_cell_angle_beta   90.00895360
_cell_angle_gamma   90.00042199
_symmetry_Int_Tables_number   1
_chemical_formula_structural   Dy5CoBi2
_chemical_formula_sum   'Dy20 Co4 Bi8'
_cell_volume   874.60822376
_cell_formula_units_Z   4
loop_
 _symmetry_equiv_pos_site_id
 _symmetry_equiv_pos_as_xyz
  1  'x, y, z'
loop_
 _atom_site_type_symbol
 _atom_site_label
 _atom_site_symmetry_multiplicity
 _atom_site_fract_x
 _atom_site_fract_y
 _atom_site_fract_z
 _atom_site_occupancy
  Dy  Dy0  1  0.84753308  0.74999601  0.80154872  1
  Dy  Dy1  1  0.15248109  0.25000363  0.19845768  1
  Dy  Dy2  1  0.34752584  0.25000275  0.69839825  1
  Dy  Dy3  1  0.65253245  0.74999536  0.30156090  1
  Dy  Dy4  1  0.38299083  0.74999594  0.68850737  1
  Dy  Dy5  1  0.61704987  0.25000253  0.31146444  1
  Dy  Dy6  1  0.88298111  0.25000370  0.81144862  1
  Dy  Dy7  1  0.11702017  0.74999593  0.18857057  1
  Dy  Dy8  1  0.94893568  0.74999502  0.50207312  1
  Dy  Dy9  1  0.05109589  0.25000210  0.49797580  1
  Dy  Dy10  1  0.44891664  0.25000331  0.99791480  1
  Dy  Dy11  1  0.55107827  0.74999527  0.00204307  1
  Dy  Dy12  1  0.67479047  0.03614534  0.56314352  1
  Dy  Dy13  1  0.32522429  0.96373825  0.43686648  1
  Dy  Dy14  1  0.17480885  0.96374870  0.93683648  1
  Dy  Dy15  1  0.32522056  0.53625900  0.43686495  1
  Dy  Dy16  1  0.82514933  0.03616364  0.06316144  1
  Dy  Dy17  1  0.67479441  0.46385479  0.56314493  1
  Dy  Dy18  1  0.82514462  0.46384028  0.06316272  1
  Dy  Dy19  1  0.17481435  0.53625209  0.93683490  1
  Co  Co0  1  0.56253319  0.75000226  0.50818250  1
  Co  Co1  1  0.43749649  0.25000105  0.49182891  1
  Co  Co2  1  0.06248284  0.25000798  0.99180959  1
  Co  Co3  1  0.93745851  0.75000282  0.00817465  1
  Bi  Bi0  1  0.57032643  0.49112205  0.82669262  1
  Bi  Bi1  1  0.42963305  0.50894589  0.17330202  1
  Bi  Bi2  1  0.07032674  0.50893588  0.67330236  1
  Bi  Bi3  1  0.42963273  0.99105305  0.17330193  1
  Bi  Bi4  1  0.92968545  0.49112423  0.32671547  1
  Bi  Bi5  1  0.57032639  0.00887559  0.82669240  1
  Bi  Bi6  1  0.92968520  0.00887349  0.32671612  1
  Bi  Bi7  1  0.07032719  0.99106205  0.67330166  1
loop_
_geom_bond_atom_site_label_1
_geom_bond_atom_site_label_2
_geom_bond_distance
_geom_bond_site_symmetry_2
Co0 Dy3 2.652858 1_555
Co0 Dy4 2.654842 1_555
Co0 Dy12 2.760217 1_565
Co0 Dy17 2.760265 1_555
Co0 Dy13 2.821264 1_555
Co0 Dy15 2.821327 1_555
Co0 Dy8 3.109796 1_555
Co1 Dy2 2.652174 1_555
Co1 Dy5 2.655300 1_555
Co1 Dy15 2.761196 1_555
Co1 Dy13 2.761222 1_545
Co1 Dy12 2.821880 1_555
Co1 Dy17 2.821890 1_555
Co1 Dy9 3.109792 1_555
Co2 Dy1 2.652953 1_556
Co2 Dy6 2.654659 1_455
Co2 Dy19 2.761321 1_555
Co2 Dy14 2.761450 1_545
Co2 Dy18 2.822331 1_456
Co2 Dy16 2.822339 1_456
Co2 Dy10 3.110023 1_555
Co3 Dy0 2.652530 1_554
Co3 Dy7 2.655284 1_655
Co3 Dy16 2.760656 1_565
Co3 Dy18 2.760660 1_555
Co3 Dy14 2.821800 1_654
Co3 Dy19 2.821897 1_654
Co3 Dy11 3.109600 1_555
Bi0 Dy11 3.147370 1_556
Bi0 Dy10 3.151274 1_555
Bi0 Dy2 3.197953 1_555
Bi0 Dy0 3.203444 1_555
Bi0 Dy4 3.221037 1_555
Bi0 Dy6 3.296515 1_555
Bi0 Dy17 3.370560 1_555
Bi0 Dy19 3.483668 1_555
Bi0 Dy18 3.576220 1_556
Bi1 Dy10 3.148138 1_554
Bi1 Dy11 3.151256 1_555
Bi1 Dy3 3.197774 1_555
Bi1 Dy1 3.203579 1_555
Bi1 Dy5 3.221626 1_555
Bi1 Dy7 3.295889 1_555
Bi1 Dy15 3.370659 1_555
Bi1 Dy18 3.483625 1_555
Bi1 Dy19 3.576207 1_554
Bi2 Dy9 3.147511 1_555
Bi2 Dy8 3.150737 1_455
Bi2 Dy0 3.197578 1_455
Bi2 Dy2 3.203670 1_555
Bi2 Dy6 3.221417 1_455
Bi2 Dy4 3.296146 1_555
Bi2 Dy19 3.370195 1_555
Bi2 Dy17 3.483447 1_455
Bi2 Dy15 3.576785 1_555
Bi3 Dy10 3.148149 1_564
Bi3 Dy11 3.151348 1_555
Bi3 Dy3 3.197817 1_555
Bi3 Dy1 3.203658 1_565
Bi3 Dy5 3.221678 1_565
Bi3 Dy7 3.295900 1_555
Bi3 Dy13 3.370666 1_555
Bi3 Dy16 3.483664 1_565
Bi3 Dy14 3.576215 1_554
Bi4 Dy8 3.147381 1_555
Bi4 Dy9 3.151417 1_655
Bi4 Dy1 3.198010 1_655
Bi4 Dy3 3.203094 1_555
Bi4 Dy7 3.220990 1_655
Bi4 Dy5 3.296353 1_555
Bi4 Dy18 3.370523 1_555
Bi4 Dy15 3.483483 1_655
Bi4 Dy17 3.576660 1_555
Bi5 Dy11 3.147379 1_546
Bi5 Dy10 3.151371 1_555
Bi5 Dy2 3.197991 1_555
Bi5 Dy0 3.203507 1_545
Bi5 Dy4 3.221084 1_545
Bi5 Dy6 3.296544 1_555
Bi5 Dy12 3.370562 1_555
Bi5 Dy14 3.483704 1_545
Bi5 Dy16 3.576238 1_556
Bi6 Dy8 3.147391 1_545
Bi6 Dy9 3.151473 1_655
Bi6 Dy1 3.198029 1_655
Bi6 Dy3 3.203119 1_545
Bi6 Dy7 3.221075 1_645
Bi6 Dy5 3.296415 1_555
Bi6 Dy16 3.370535 1_555
Bi6 Dy13 3.483518 1_645
Bi6 Dy12 3.576665 1_555
Bi7 Dy9 3.147511 1_565
Bi7 Dy8 3.150803 1_455
Bi7 Dy0 3.197577 1_455
Bi7 Dy2 3.203698 1_565
Bi7 Dy6 3.221525 1_465
Bi7 Dy4 3.296200 1_555
Bi7 Dy14 3.370204 1_555
Bi7 Dy12 3.483486 1_465
Bi7 Dy13 3.576785 1_555
