# generated using pymatgen
data_MgSb
_symmetry_space_group_name_H-M   'P 1'
_cell_length_a   5.49618174
_cell_length_b   5.49618174
_cell_length_c   5.75435339
_cell_angle_alpha   88.16899425
_cell_angle_beta   88.16899425
_cell_angle_gamma   62.66534501
_symmetry_Int_Tables_number   1
_chemical_formula_structural   MgSb
_chemical_formula_sum   'Mg3 Sb3'
_cell_volume   154.30986357
_cell_formula_units_Z   3
loop_
 _symmetry_equiv_pos_site_id
 _symmetry_equiv_pos_as_xyz
  1  'x, y, z'
loop_
 _atom_site_type_symbol
 _atom_site_label
 _atom_site_symmetry_multiplicity
 _atom_site_fract_x
 _atom_site_fract_y
 _atom_site_fract_z
 _atom_site_occupancy
  Mg  Mg0  1  0.34374100  0.65625900  0.00000000  1
  Mg  Mg1  1  0.82450100  0.82198000  0.51715500  1
  Mg  Mg2  1  0.17802000  0.17549900  0.48284500  1
  Sb  Sb0  1  0.02077300  0.30144100  0.98796900  1
  Sb  Sb1  1  0.69855900  0.97922700  0.01203100  1
  Sb  Sb2  1  0.43440500  0.56559500  0.50000000  1
loop_
_geom_bond_atom_site_label_1
_geom_bond_atom_site_label_2
_geom_bond_distance
_geom_bond_site_symmetry_2
Mg0 Sb2 2.923478 1_554
Mg0 Sb2 2.923478 1_555
Mg0 Sb0 3.153022 1_564
Mg0 Sb1 3.153022 1_455
Mg0 Sb0 3.186597 1_554
Mg0 Sb1 3.186597 1_555
Mg0 Sb1 3.313941 1_545
Mg0 Sb0 3.313941 1_654
Mg1 Sb1 2.969399 1_556
Mg1 Sb2 2.980262 1_655
Mg1 Sb1 3.015527 1_555
Mg1 Sb2 3.064207 1_555
Mg2 Sb0 2.969399 1_554
Mg2 Sb2 2.980262 1_545
Mg2 Sb0 3.015527 1_555
Mg2 Sb2 3.064207 1_555
