# generated using pymatgen
data_KYP2H4O9
_symmetry_space_group_name_H-M   'P 1'
_cell_length_a   10.64451000
_cell_length_b   7.83749900
_cell_length_c   10.16169007
_cell_angle_alpha   87.02370660
_cell_angle_beta   90.00000000
_cell_angle_gamma   90.00000000
_symmetry_Int_Tables_number   1
_chemical_formula_structural   KYP2H4O9
_chemical_formula_sum   'K4 Y4 P8 H16 O36'
_cell_volume   846.60904436
_cell_formula_units_Z   4
loop_
 _symmetry_equiv_pos_site_id
 _symmetry_equiv_pos_as_xyz
  1  'x, y, z'
loop_
 _atom_site_type_symbol
 _atom_site_label
 _atom_site_symmetry_multiplicity
 _atom_site_fract_x
 _atom_site_fract_y
 _atom_site_fract_z
 _atom_site_occupancy
  K  K0  1  0.71346100  0.75237800  0.65428600  1
  K  K1  1  0.28653900  0.24762200  0.34571400  1
  K  K2  1  0.21346100  0.24762200  0.84571400  1
  K  K3  1  0.78653900  0.75237800  0.15428600  1
  Y  Y0  1  0.11965600  0.74838000  0.82954900  1
  Y  Y1  1  0.88034400  0.25162000  0.17045100  1
  Y  Y2  1  0.61965600  0.25162000  0.67045100  1
  Y  Y3  1  0.38034400  0.74838000  0.32954900  1
  P  P0  1  0.35197200  0.96253900  0.62784900  1
  P  P1  1  0.64802800  0.03746100  0.37215100  1
  P  P2  1  0.85197200  0.03746100  0.87215100  1
  P  P3  1  0.14802800  0.96253900  0.12784900  1
  P  P4  1  0.39320900  0.60125200  0.66777100  1
  P  P5  1  0.60679100  0.39874800  0.33222900  1
  P  P6  1  0.89320900  0.39874800  0.83222900  1
  P  P7  1  0.10679100  0.60125200  0.16777100  1
  H  H0  1  0.07303500  0.42171700  0.62715300  1
  H  H1  1  0.92696500  0.57828300  0.37284700  1
  H  H2  1  0.57303500  0.57828300  0.87284700  1
  H  H3  1  0.42696500  0.42171700  0.12715300  1
  H  H4  1  0.18788800  0.45537500  0.53520300  1
  H  H5  1  0.81211200  0.54462500  0.46479700  1
  H  H6  1  0.68788800  0.54462500  0.96479700  1
  H  H7  1  0.31211200  0.45537500  0.03520300  1
  H  H8  1  0.11698000  0.84888000  0.53955900  1
  H  H9  1  0.88302000  0.15112000  0.46044100  1
  H  H10  1  0.61698000  0.15112000  0.96044100  1
  H  H11  1  0.38302000  0.84888000  0.03955900  1
  H  H12  1  0.99539900  0.72545900  0.54330200  1
  H  H13  1  0.00460100  0.27454100  0.45669800  1
  H  H14  1  0.49539900  0.27454100  0.95669800  1
  H  H15  1  0.50460100  0.72545900  0.04330200  1
  O  O0  1  0.35436600  0.57185300  0.52539200  1
  O  O1  1  0.64563400  0.42814700  0.47460800  1
  O  O2  1  0.85436600  0.42814700  0.97460800  1
  O  O3  1  0.14563400  0.57185300  0.02539200  1
  O  O4  1  0.28300000  0.58307200  0.76419800  1
  O  O5  1  0.71700000  0.41692800  0.23580200  1
  O  O6  1  0.78300000  0.41692800  0.73580200  1
  O  O7  1  0.21700000  0.58307200  0.26419800  1
  O  O8  1  0.19062700  0.93488900  0.98624300  1
  O  O9  1  0.80937300  0.06511100  0.01375700  1
  O  O10  1  0.69062700  0.06511100  0.51375700  1
  O  O11  1  0.30937300  0.93488900  0.48624300  1
  O  O12  1  0.24176800  0.95450700  0.72411500  1
  O  O13  1  0.75823200  0.04549300  0.27588500  1
  O  O14  1  0.74176800  0.04549300  0.77588500  1
  O  O15  1  0.25823200  0.95450700  0.22411500  1
  O  O16  1  0.93159000  0.87787200  0.85962500  1
  O  O17  1  0.06841000  0.12212800  0.14037500  1
  O  O18  1  0.43159000  0.12212800  0.64037500  1
  O  O19  1  0.56841000  0.87787200  0.35962500  1
  O  O20  1  0.12195200  0.36979700  0.55667800  1
  O  O21  1  0.87804800  0.63020300  0.44332200  1
  O  O22  1  0.62195200  0.63020300  0.94332200  1
  O  O23  1  0.37804800  0.36979700  0.05667800  1
  O  O24  1  0.05708900  0.78593400  0.59718800  1
  O  O25  1  0.94291100  0.21406600  0.40281200  1
  O  O26  1  0.55708900  0.21406600  0.90281200  1
  O  O27  1  0.44291100  0.78593400  0.09718800  1
  O  O28  1  0.00781800  0.50116300  0.78271000  1
  O  O29  1  0.99218200  0.49883700  0.21729000  1
  O  O30  1  0.50781800  0.49883700  0.71729000  1
  O  O31  1  0.49218200  0.50116300  0.28271000  1
  O  O32  1  0.44429200  0.79979000  0.67015500  1
  O  O33  1  0.55570800  0.20021000  0.32984500  1
  O  O34  1  0.94429200  0.20021000  0.82984500  1
  O  O35  1  0.05570800  0.79979000  0.17015500  1
loop_
_geom_bond_atom_site_label_1
_geom_bond_atom_site_label_2
_geom_bond_distance
_geom_bond_site_symmetry_2
K0 O14 2.681406 1_565
K0 O10 2.782525 1_565
K0 O6 2.814252 1_555
K0 O32 2.894740 1_555
K1 O15 2.681406 1_545
K1 O11 2.782525 1_545
K1 O7 2.814252 1_555
K1 O33 2.894740 1_555
K2 O12 2.681406 1_545
K2 O8 2.782525 1_545
K2 O4 2.814252 1_555
K2 O34 2.894740 1_455
K3 O13 2.681406 1_565
K3 O9 2.782525 1_565
K3 O5 2.814252 1_555
K3 O35 2.894740 1_655
H0 O20 0.989868 1_555
H1 O21 0.989868 1_555
H2 O22 0.989868 1_555
H3 O23 0.989868 1_555
H4 O20 0.987363 1_555
H5 O21 0.987363 1_555
H6 O22 0.987363 1_555
H7 O23 0.987363 1_555
H8 O24 0.981192 1_555
H9 O25 0.981192 1_555
H10 O26 0.981192 1_555
H11 O27 0.981192 1_555
H12 O24 0.991282 1_655
H13 O25 0.991282 1_455
H14 O26 0.991282 1_555
H15 O27 0.991282 1_555
O0 P4 1.533599 1_555
O0 Y3 2.380164 1_555
O1 P5 1.533599 1_555
O1 Y2 2.380164 1_555
O2 P6 1.533599 1_555
O2 Y1 2.380164 1_556
O3 P7 1.533599 1_555
O3 Y0 2.380164 1_554
O4 P4 1.530407 1_555
O4 Y0 2.287370 1_555
O5 P5 1.530407 1_555
O5 Y1 2.287370 1_555
O6 P6 1.530407 1_555
O6 Y2 2.287370 1_555
O7 P7 1.530407 1_555
O7 Y3 2.287370 1_555
O8 P3 1.534781 1_556
O8 Y0 2.341903 1_555
O9 P2 1.534781 1_554
O9 Y1 2.341903 1_555
O10 P1 1.534781 1_555
O10 Y2 2.341903 1_555
O11 P0 1.534781 1_555
O11 Y3 2.341903 1_555
O12 P0 1.526624 1_555
O12 Y0 2.295120 1_555
O13 P1 1.526624 1_555
O13 Y1 2.295120 1_555
O14 P2 1.526624 1_555
O14 Y2 2.295120 1_555
O15 P3 1.526624 1_555
O15 Y3 2.295120 1_555
O16 P2 1.521653 1_565
O16 Y0 2.272248 1_655
O17 P3 1.521653 1_545
O17 Y1 2.272248 1_455
O18 P0 1.521653 1_545
O18 Y2 2.272248 1_555
O19 P1 1.521653 1_565
O19 Y3 2.272248 1_555
O24 Y0 2.456254 1_555
O25 Y1 2.456254 1_555
O26 Y2 2.456254 1_555
O27 Y3 2.456254 1_555
O28 P6 1.530963 1_455
O28 Y0 2.343855 1_555
O29 P7 1.530963 1_655
O29 Y1 2.343855 1_555
O30 P4 1.530963 1_555
O30 Y2 2.343855 1_555
O31 P5 1.530963 1_555
O31 Y3 2.343855 1_555
O32 P0 1.649420 1_555
O32 P4 1.649677 1_555
O33 P1 1.649420 1_555
O33 P5 1.649677 1_555
O34 P2 1.649420 1_555
O34 P6 1.649677 1_555
O35 P3 1.649420 1_555
O35 P7 1.649677 1_555
