# generated using pymatgen
data_Mg(SnO2)4
_symmetry_space_group_name_H-M   'P 1'
_cell_length_a   7.73199575
_cell_length_b   7.73199575
_cell_length_c   10.33493282
_cell_angle_alpha   50.14188726
_cell_angle_beta   50.14188726
_cell_angle_gamma   24.21885832
_symmetry_Int_Tables_number   1
_chemical_formula_structural   Mg(SnO2)4
_chemical_formula_sum   'Mg1 Sn4 O8'
_cell_volume   191.41829070
_cell_formula_units_Z   1
loop_
 _symmetry_equiv_pos_site_id
 _symmetry_equiv_pos_as_xyz
  1  'x, y, z'
loop_
 _atom_site_type_symbol
 _atom_site_label
 _atom_site_symmetry_multiplicity
 _atom_site_fract_x
 _atom_site_fract_y
 _atom_site_fract_z
 _atom_site_occupancy
  Mg  Mg0  1  0.56758500  0.56758500  0.92837900  1
  Sn  Sn0  1  0.37042400  0.37042400  0.43754300  1
  Sn  Sn1  1  0.85597200  0.85597200  0.78538400  1
  Sn  Sn2  1  0.17162400  0.17162400  0.15361800  1
  Sn  Sn3  1  0.65543700  0.65543700  0.50095300  1
  O  O0  1  0.14839600  0.14839600  0.37671900  1
  O  O1  1  0.55311400  0.55311400  0.23124300  1
  O  O2  1  0.47125100  0.47125100  0.70397600  1
  O  O3  1  0.87541100  0.87541100  0.56518400  1
  O  O4  1  0.84343600  0.84343600  0.33457100  1
  O  O5  1  0.22638600  0.22638600  0.89573000  1
  O  O6  1  0.17855400  0.17855400  0.61506100  1
  O  O7  1  0.79136200  0.79136200  0.04099300  1
loop_
_geom_bond_atom_site_label_1
_geom_bond_atom_site_label_2
_geom_bond_distance
_geom_bond_site_symmetry_2
Mg0 O5 2.729057 1_655
Mg0 O5 2.729057 1_565
O0 Sn2 2.092407 1_555
O0 Sn3 2.114233 1_545
O0 Sn3 2.114233 1_455
O1 Sn0 2.110734 1_555
O1 Sn2 2.144943 1_655
O1 Sn2 2.144943 1_565
O2 Sn1 2.110544 1_455
O2 Sn1 2.110544 1_545
O2 Sn3 2.120807 1_555
O3 Sn1 2.094891 1_555
O3 Sn0 2.123017 1_565
O3 Sn0 2.123017 1_655
O4 Sn0 2.121147 1_655
O4 Sn0 2.121147 1_565
O4 Sn3 2.151528 1_555
O5 Sn1 2.200272 1_455
O5 Sn1 2.200272 1_545
O5 Sn2 2.212722 1_556
O6 Sn3 2.164304 1_455
O6 Sn3 2.164304 1_545
O6 Sn0 2.191951 1_555
O7 Sn2 2.121524 1_565
O7 Sn2 2.121524 1_655
O7 Sn1 2.133024 1_554
