# generated using pymatgen
data_Mg5In
_symmetry_space_group_name_H-M   'P 1'
_cell_length_a   5.54282689
_cell_length_b   5.54283074
_cell_length_c   5.06021160
_cell_angle_alpha   90.00000000
_cell_angle_beta   90.00000000
_cell_angle_gamma   120.00002081
_symmetry_Int_Tables_number   1
_chemical_formula_structural   Mg5In
_chemical_formula_sum   'Mg5 In1'
_cell_volume   134.63629450
_cell_formula_units_Z   1
loop_
 _symmetry_equiv_pos_site_id
 _symmetry_equiv_pos_as_xyz
  1  'x, y, z'
loop_
 _atom_site_type_symbol
 _atom_site_label
 _atom_site_symmetry_multiplicity
 _atom_site_fract_x
 _atom_site_fract_y
 _atom_site_fract_z
 _atom_site_occupancy
  Mg  Mg0  1  -0.00000000  0.66788624  -0.00000000  1
  Mg  Mg1  1  0.33333300  0.66666700  0.50000000  1
  Mg  Mg2  1  0.66788624  0.00000000  -0.00000000  1
  Mg  Mg3  1  0.66666700  0.33333300  0.50000000  1
  Mg  Mg4  1  0.33211376  0.33211376  0.00000000  1
  In  In0  1  0.00000000  0.00000000  0.50000000  1
loop_
_geom_bond_atom_site_label_1
_geom_bond_atom_site_label_2
_geom_bond_distance
_geom_bond_site_symmetry_2
Mg0 Mg1 3.134903 1_555
Mg0 Mg1 3.134903 1_554
Mg0 Mg3 3.134905 1_455
Mg0 Mg3 3.134905 1_454
Mg0 Mg2 3.188446 1_465
Mg0 Mg4 3.188446 1_565
Mg0 Mg2 3.206022 1_565
Mg0 Mg4 3.206022 1_455
Mg0 Mg4 3.206024 1_555
Mg0 Mg2 3.206024 1_455
Mg1 Mg2 3.134905 1_565
Mg1 Mg2 3.134905 1_566
Mg1 Mg4 3.134907 1_555
Mg1 Mg4 3.134907 1_556
Mg1 Mg3 3.200149 1_455
Mg1 Mg3 3.200151 1_565
Mg1 Mg3 3.200160 1_555
Mg2 Mg3 3.134904 1_554
Mg2 Mg3 3.134904 1_555
Mg2 Mg4 3.188443 1_655
Mg2 Mg4 3.206024 1_555
Mg2 Mg4 3.206024 1_545
Mg3 Mg4 3.134907 1_555
Mg3 Mg4 3.134907 1_556
In0 Mg2 3.128923 1_455
In0 Mg2 3.128923 1_456
In0 Mg4 3.128923 1_555
In0 Mg4 3.128923 1_556
In0 Mg0 3.128924 1_546
In0 Mg0 3.128924 1_545
In0 Mg1 3.200151 1_545
In0 Mg3 3.200151 1_455
In0 Mg3 3.200154 1_555
In0 Mg1 3.200154 1_445
In0 Mg3 3.200156 1_445
In0 Mg1 3.200156 1_555
