# generated using pymatgen
data_La2MnP2O
_symmetry_space_group_name_H-M   'P 1'
_cell_length_a   7.26424700
_cell_length_b   7.26424700
_cell_length_c   14.20449800
_cell_angle_alpha   90.00000000
_cell_angle_beta   90.00000000
_cell_angle_gamma   90.00000000
_symmetry_Int_Tables_number   1
_chemical_formula_structural   La2MnP2O
_chemical_formula_sum   'La2 Mn1 P2 O1'
_cell_volume   749.56119582
_cell_formula_units_Z   1
loop_
 _symmetry_equiv_pos_site_id
 _symmetry_equiv_pos_as_xyz
  1  'x, y, z'
loop_
 _atom_site_type_symbol
 _atom_site_label
 _atom_site_symmetry_multiplicity
 _atom_site_fract_x
 _atom_site_fract_y
 _atom_site_fract_z
 _atom_site_occupancy
  La  La0  1  0.50000000  0.50000000  0.65389800  1
  La  La1  1  0.50000000  0.50000000  0.34610200  1
  Mn  Mn0  1  0.50000000  0.50000000  0.00000000  1
  P  P0  1  0.50000000  0.50000000  0.16551100  1
  P  P1  1  0.50000000  0.50000000  0.83448900  1
  O  O0  1  0.50000000  0.50000000  0.50000000  1
loop_
_geom_bond_atom_site_label_1
_geom_bond_atom_site_label_2
_geom_bond_distance
_geom_bond_site_symmetry_2
La0 O0 2.186044 1_555
La0 P1 2.565204 1_555
La1 O0 2.186044 1_555
La1 P0 2.565204 1_555
Mn0 P0 2.351001 1_555
Mn0 P1 2.351001 1_554
