# generated using pymatgen
data_YbMnFeO5
_symmetry_space_group_name_H-M   'P 1'
_cell_length_a   5.72480400
_cell_length_b   7.24444500
_cell_length_c   8.39248200
_cell_angle_alpha   90.00000000
_cell_angle_beta   90.00000000
_cell_angle_gamma   90.00000000
_symmetry_Int_Tables_number   1
_chemical_formula_structural   YbMnFeO5
_chemical_formula_sum   'Yb4 Mn4 Fe4 O20'
_cell_volume   348.06163857
_cell_formula_units_Z   4
loop_
 _symmetry_equiv_pos_site_id
 _symmetry_equiv_pos_as_xyz
  1  'x, y, z'
loop_
 _atom_site_type_symbol
 _atom_site_label
 _atom_site_symmetry_multiplicity
 _atom_site_fract_x
 _atom_site_fract_y
 _atom_site_fract_z
 _atom_site_occupancy
  Yb  Yb0  1  0.50000000  0.36786700  0.33081700  1
  Yb  Yb1  1  0.50000000  0.63213300  0.66918300  1
  Yb  Yb2  1  0.50000000  0.13213300  0.83081700  1
  Yb  Yb3  1  0.50000000  0.86786700  0.16918300  1
  Mn  Mn0  1  0.25103300  0.00000000  0.50000000  1
  Mn  Mn1  1  0.74896700  0.00000000  0.50000000  1
  Mn  Mn2  1  0.74896700  0.50000000  0.00000000  1
  Mn  Mn3  1  0.25103300  0.50000000  0.00000000  1
  Fe  Fe0  1  0.00000000  0.10038700  0.14819000  1
  Fe  Fe1  1  0.00000000  0.89961300  0.85181000  1
  Fe  Fe2  1  0.00000000  0.39961300  0.64819000  1
  Fe  Fe3  1  0.00000000  0.60038700  0.35181000  1
  O  O0  1  0.24849100  0.10925300  0.28981800  1
  O  O1  1  0.75150900  0.89074700  0.71018200  1
  O  O2  1  0.24849100  0.89074700  0.71018200  1
  O  O3  1  0.75150900  0.39074700  0.78981800  1
  O  O4  1  0.75150900  0.10925300  0.28981800  1
  O  O5  1  0.24849100  0.60925300  0.21018200  1
  O  O6  1  0.75150900  0.60925300  0.21018200  1
  O  O7  1  0.24849100  0.39074700  0.78981800  1
  O  O8  1  0.20982300  0.00000000  0.00000000  1
  O  O9  1  0.79017700  0.00000000  0.00000000  1
  O  O10  1  0.79017700  0.50000000  0.50000000  1
  O  O11  1  0.20982300  0.50000000  0.50000000  1
  O  O12  1  0.50000000  0.33928800  0.05566900  1
  O  O13  1  0.50000000  0.66071200  0.94433100  1
  O  O14  1  0.50000000  0.16071200  0.55566900  1
  O  O15  1  0.50000000  0.83928800  0.44433100  1
  O  O16  1  0.00000000  0.34309700  0.07585400  1
  O  O17  1  0.00000000  0.65690300  0.92414600  1
  O  O18  1  0.00000000  0.15690300  0.57585400  1
  O  O19  1  0.00000000  0.84309700  0.42414600  1
loop_
_geom_bond_atom_site_label_1
_geom_bond_atom_site_label_2
_geom_bond_distance
_geom_bond_site_symmetry_2
Mn0 O14 1.898748 1_555
Mn0 O15 1.898748 1_545
Mn0 O0 1.933433 1_555
Mn0 O2 1.933433 1_545
Mn0 O18 1.939740 1_555
Mn0 O19 1.939740 1_545
Mn1 O14 1.898748 1_555
Mn1 O15 1.898748 1_545
Mn1 O1 1.933433 1_545
Mn1 O4 1.933433 1_555
Mn1 O18 1.939740 1_655
Mn1 O19 1.939740 1_645
Mn2 O13 1.898748 1_554
Mn2 O12 1.898748 1_555
Mn2 O3 1.933433 1_554
Mn2 O6 1.933433 1_555
Mn2 O17 1.939740 1_654
Mn2 O16 1.939740 1_655
Mn3 O13 1.898748 1_554
Mn3 O12 1.898748 1_555
Mn3 O7 1.933433 1_554
Mn3 O5 1.933433 1_555
Mn3 O16 1.939740 1_555
Mn3 O17 1.939740 1_554
Fe0 O0 1.854886 1_555
Fe0 O4 1.854886 1_455
Fe0 O16 1.860151 1_555
Fe0 O8 1.875768 1_555
Fe0 O9 1.875768 1_455
Fe1 O2 1.854886 1_555
Fe1 O1 1.854886 1_455
Fe1 O17 1.860151 1_555
Fe1 O9 1.875768 1_466
Fe1 O8 1.875768 1_566
Fe2 O7 1.854886 1_555
Fe2 O3 1.854886 1_455
Fe2 O18 1.860151 1_555
Fe2 O11 1.875768 1_555
Fe2 O10 1.875768 1_455
Fe3 O5 1.854886 1_555
Fe3 O6 1.854886 1_455
Fe3 O19 1.860151 1_555
Fe3 O10 1.875768 1_455
Fe3 O11 1.875768 1_555
O0 Yb0 2.387800 1_555
O0 Yb3 2.481154 1_545
O1 Yb1 2.387800 1_555
O1 Yb2 2.481154 1_565
O2 Yb1 2.387800 1_555
O2 Yb2 2.481154 1_565
O3 Yb2 2.387800 1_555
O3 Yb1 2.481154 1_555
O4 Yb0 2.387800 1_555
O4 Yb3 2.481154 1_545
O5 Yb3 2.387800 1_555
O5 Yb0 2.481154 1_555
O6 Yb3 2.387800 1_555
O6 Yb0 2.481154 1_555
O7 Yb2 2.387800 1_555
O7 Yb1 2.481154 1_555
O8 Yb3 2.385773 1_545
O8 Yb2 2.385773 1_554
O9 Yb3 2.385773 1_545
O9 Yb2 2.385773 1_554
O10 Yb0 2.385773 1_555
O10 Yb1 2.385773 1_555
O11 Yb0 2.385773 1_555
O11 Yb1 2.385773 1_555
O12 Yb0 2.318438 1_555
O12 Yb2 2.411056 1_554
O13 Yb1 2.318438 1_555
O13 Yb3 2.411056 1_556
O14 Yb2 2.318438 1_555
O14 Yb0 2.411056 1_555
O15 Yb3 2.318438 1_555
O15 Yb1 2.411056 1_555
