# generated using pymatgen
data_BaMnCO3F2
_symmetry_space_group_name_H-M   'P 1'
_cell_length_a   4.97843200
_cell_length_b   4.97843100
_cell_length_c   10.15015700
_cell_angle_alpha   90.00000000
_cell_angle_beta   90.00000000
_cell_angle_gamma   119.99999339
_symmetry_Int_Tables_number   1
_chemical_formula_structural   BaMnCO3F2
_chemical_formula_sum   'Ba2 Mn2 C2 O6 F4'
_cell_volume   217.86551439
_cell_formula_units_Z   2
loop_
 _symmetry_equiv_pos_site_id
 _symmetry_equiv_pos_as_xyz
  1  'x, y, z'
loop_
 _atom_site_type_symbol
 _atom_site_label
 _atom_site_symmetry_multiplicity
 _atom_site_fract_x
 _atom_site_fract_y
 _atom_site_fract_z
 _atom_site_occupancy
  Ba  Ba0  1  0.00000000  0.00000000  0.50000000  1
  Ba  Ba1  1  0.00000000  0.00000000  0.00000000  1
  Mn  Mn0  1  0.33333300  0.66666700  0.25000000  1
  Mn  Mn1  1  0.66666700  0.33333300  0.75000000  1
  C  C0  1  0.33333300  0.66666700  0.75000000  1
  C  C1  1  0.66666700  0.33333300  0.25000000  1
  O  O0  1  0.87322000  0.62592200  0.25000000  1
  O  O1  1  0.24729800  0.87322000  0.75000000  1
  O  O2  1  0.75270200  0.12678000  0.25000000  1
  O  O3  1  0.12678000  0.37407800  0.75000000  1
  O  O4  1  0.37407800  0.24729800  0.25000000  1
  O  O5  1  0.62592200  0.75270200  0.75000000  1
  F  F0  1  0.33333300  0.66666700  0.45490300  1
  F  F1  1  0.66666700  0.33333300  0.95490300  1
  F  F2  1  0.33333300  0.66666700  0.04509700  1
  F  F3  1  0.66666700  0.33333300  0.54509700  1
loop_
_geom_bond_atom_site_label_1
_geom_bond_atom_site_label_2
_geom_bond_distance
_geom_bond_site_symmetry_2
Ba0 F3 2.910516 1_455
Ba0 F0 2.910516 1_545
Ba0 F3 2.910520 1_445
Ba0 F0 2.910520 1_555
Ba0 F3 2.910521 1_555
Ba0 F0 2.910521 1_445
Ba0 O3 3.021636 1_555
Ba0 O0 3.021636 1_445
Ba0 O2 3.021636 1_455
Ba0 O1 3.021636 1_545
Ba0 O4 3.021636 1_555
Ba0 O5 3.021636 1_445
Ba1 F2 2.910516 1_545
Ba1 F1 2.910516 1_454
Ba1 F1 2.910520 1_444
Ba1 F2 2.910520 1_555
Ba1 F2 2.910521 1_445
Ba1 F1 2.910521 1_554
Ba1 O3 3.021636 1_554
Ba1 O0 3.021636 1_445
Ba1 O2 3.021636 1_455
Ba1 O1 3.021636 1_544
Ba1 O4 3.021636 1_555
Ba1 O5 3.021636 1_444
Mn0 O0 2.196255 1_455
Mn0 O2 2.196257 1_565
Mn0 O4 2.196260 1_555
Mn1 O3 2.196255 1_655
Mn1 O1 2.196257 1_545
Mn1 O5 2.196260 1_555
C0 O1 1.296659 1_555
C0 O3 1.296662 1_555
C0 O5 1.296664 1_555
C1 O2 1.296659 1_555
C1 O0 1.296662 1_555
C1 O4 1.296664 1_555
F0 Mn0 2.079798 1_555
F1 Mn1 2.079798 1_555
F2 Mn0 2.079798 1_555
F3 Mn1 2.079798 1_555
