# generated using pymatgen
data_Mn2Zn3(SiO4)3
_symmetry_space_group_name_H-M   'P 1'
_cell_length_a   10.28019786
_cell_length_b   10.28019786
_cell_length_c   10.28019786
_cell_angle_alpha   109.47122063
_cell_angle_beta   109.47122063
_cell_angle_gamma   109.47122063
_symmetry_Int_Tables_number   1
_chemical_formula_structural   Mn2Zn3(SiO4)3
_chemical_formula_sum   'Mn8 Zn12 Si12 O48'
_cell_volume   836.33934683
_cell_formula_units_Z   4
loop_
 _symmetry_equiv_pos_site_id
 _symmetry_equiv_pos_as_xyz
  1  'x, y, z'
loop_
 _atom_site_type_symbol
 _atom_site_label
 _atom_site_symmetry_multiplicity
 _atom_site_fract_x
 _atom_site_fract_y
 _atom_site_fract_z
 _atom_site_occupancy
  Mn  Mn0  1  0.50000000  0.00000000  0.00000000  1
  Mn  Mn1  1  0.50000000  0.50000000  0.00000000  1
  Mn  Mn2  1  0.00000000  0.50000000  0.50000000  1
  Mn  Mn3  1  0.00000000  0.00000000  0.50000000  1
  Mn  Mn4  1  0.50000000  0.50000000  0.50000000  1
  Mn  Mn5  1  0.00000000  0.50000000  0.00000000  1
  Mn  Mn6  1  0.50000000  0.00000000  0.50000000  1
  Mn  Mn7  1  0.00000000  0.00000000  0.00000000  1
  Zn  Zn0  1  0.25000000  0.37500000  0.12500000  1
  Zn  Zn1  1  0.75000000  0.12500000  0.37500000  1
  Zn  Zn2  1  0.37500000  0.12500000  0.25000000  1
  Zn  Zn3  1  0.12500000  0.37500000  0.75000000  1
  Zn  Zn4  1  0.25000000  0.87500000  0.62500000  1
  Zn  Zn5  1  0.12500000  0.25000000  0.37500000  1
  Zn  Zn6  1  0.62500000  0.25000000  0.87500000  1
  Zn  Zn7  1  0.75000000  0.62500000  0.87500000  1
  Zn  Zn8  1  0.87500000  0.75000000  0.62500000  1
  Zn  Zn9  1  0.87500000  0.62500000  0.25000000  1
  Zn  Zn10  1  0.62500000  0.87500000  0.75000000  1
  Zn  Zn11  1  0.37500000  0.75000000  0.12500000  1
  Si  Si0  1  0.12500000  0.75000000  0.87500000  1
  Si  Si1  1  0.87500000  0.25000000  0.12500000  1
  Si  Si2  1  0.75000000  0.37500000  0.62500000  1
  Si  Si3  1  0.12500000  0.87500000  0.25000000  1
  Si  Si4  1  0.25000000  0.12500000  0.87500000  1
  Si  Si5  1  0.37500000  0.62500000  0.75000000  1
  Si  Si6  1  0.37500000  0.25000000  0.62500000  1
  Si  Si7  1  0.87500000  0.12500000  0.75000000  1
  Si  Si8  1  0.62500000  0.37500000  0.25000000  1
  Si  Si9  1  0.75000000  0.87500000  0.12500000  1
  Si  Si10  1  0.25000000  0.62500000  0.37500000  1
  Si  Si11  1  0.62500000  0.75000000  0.37500000  1
  O  O0  1  0.58725700  0.89508300  0.37538600  1
  O  O1  1  0.37538600  0.58725700  0.89508300  1
  O  O2  1  0.28812900  0.30782600  0.91274300  1
  O  O3  1  0.48030400  0.60491700  0.19217400  1
  O  O4  1  0.30782600  0.89508300  0.01969600  1
  O  O5  1  0.12461400  0.01969600  0.21187100  1
  O  O6  1  0.37538600  0.28812900  0.48030400  1
  O  O7  1  0.89508300  0.37538600  0.58725700  1
  O  O8  1  0.19217400  0.21187100  0.58725700  1
  O  O9  1  0.48030400  0.37538600  0.28812900  1
  O  O10  1  0.89508300  0.01969600  0.30782600  1
  O  O11  1  0.60491700  0.91274300  0.12461400  1
  O  O12  1  0.91274300  0.12461400  0.60491700  1
  O  O13  1  0.28812900  0.48030400  0.37538600  1
  O  O14  1  0.58725700  0.19217400  0.21187100  1
  O  O15  1  0.21187100  0.58725700  0.19217400  1
  O  O16  1  0.01969600  0.30782600  0.89508300  1
  O  O17  1  0.91274300  0.28812900  0.30782600  1
  O  O18  1  0.01969600  0.21187100  0.12461400  1
  O  O19  1  0.80782600  0.78812900  0.41274300  1
  O  O20  1  0.19217400  0.48030400  0.60491700  1
  O  O21  1  0.60491700  0.19217400  0.48030400  1
  O  O22  1  0.21187100  0.12461400  0.01969600  1
  O  O23  1  0.12461400  0.60491700  0.91274300  1
  O  O24  1  0.41274300  0.10491700  0.62461400  1
  O  O25  1  0.62461400  0.41274300  0.10491700  1
  O  O26  1  0.71187100  0.69217400  0.08725700  1
  O  O27  1  0.51969600  0.39508300  0.80782600  1
  O  O28  1  0.69217400  0.10491700  0.98030400  1
  O  O29  1  0.87538600  0.98030400  0.78812900  1
  O  O30  1  0.62461400  0.71187100  0.51969600  1
  O  O31  1  0.10491700  0.62461400  0.41274300  1
  O  O32  1  0.87538600  0.39508300  0.08725700  1
  O  O33  1  0.78812900  0.87538600  0.98030400  1
  O  O34  1  0.39508300  0.80782600  0.51969600  1
  O  O35  1  0.69217400  0.08725700  0.71187100  1
  O  O36  1  0.80782600  0.51969600  0.39508300  1
  O  O37  1  0.98030400  0.78812900  0.87538600  1
  O  O38  1  0.08725700  0.71187100  0.69217400  1
  O  O39  1  0.98030400  0.69217400  0.10491700  1
  O  O40  1  0.78812900  0.41274300  0.80782600  1
  O  O41  1  0.41274300  0.80782600  0.78812900  1
  O  O42  1  0.71187100  0.51969600  0.62461400  1
  O  O43  1  0.08725700  0.87538600  0.39508300  1
  O  O44  1  0.39508300  0.08725700  0.87538600  1
  O  O45  1  0.10491700  0.98030400  0.69217400  1
  O  O46  1  0.51969600  0.62461400  0.71187100  1
  O  O47  1  0.30782600  0.91274300  0.28812900  1
loop_
_geom_bond_atom_site_label_1
_geom_bond_atom_site_label_2
_geom_bond_distance
_geom_bond_site_symmetry_2
Mn0 O4 2.024594 1_545
Mn0 O28 2.024594 1_554
Mn0 O11 2.024600 1_545
Mn0 O14 2.024600 1_555
Mn0 O41 2.024600 1_544
Mn0 O44 2.024600 1_554
Mn1 O3 2.024594 1_555
Mn1 O27 2.024594 1_554
Mn1 O1 2.024600 1_554
Mn1 O26 2.024600 1_555
Mn1 O2 2.024600 1_554
Mn1 O25 2.024600 1_555
Mn2 O20 2.024594 1_555
Mn2 O36 2.024594 1_455
Mn2 O7 2.024600 1_455
Mn2 O38 2.024600 1_555
Mn2 O17 2.024600 1_455
Mn2 O31 2.024600 1_555
Mn3 O10 2.024594 1_455
Mn3 O45 2.024594 1_545
Mn3 O12 2.024600 1_455
Mn3 O8 2.024600 1_555
Mn3 O19 2.024600 1_445
Mn3 O43 2.024600 1_545
Mn4 O30 2.024605 1_555
Mn4 O42 2.024605 1_555
Mn4 O46 2.024605 1_555
Mn4 O6 2.024605 1_555
Mn4 O9 2.024605 1_555
Mn4 O13 2.024605 1_555
Mn5 O16 2.024594 1_554
Mn5 O39 2.024594 1_455
Mn5 O23 2.024600 1_554
Mn5 O15 2.024600 1_555
Mn5 O40 2.024600 1_454
Mn5 O32 2.024600 1_455
Mn6 O21 2.024594 1_555
Mn6 O34 2.024594 1_545
Mn6 O0 2.024600 1_545
Mn6 O35 2.024600 1_555
Mn6 O47 2.024600 1_545
Mn6 O24 2.024600 1_555
Mn7 O29 2.024605 1_444
Mn7 O33 2.024605 1_444
Mn7 O37 2.024605 1_444
Mn7 O22 2.024605 1_555
Mn7 O5 2.024605 1_555
Mn7 O18 2.024605 1_555
O0 Si11 1.660712 1_555
O0 Zn11 2.266701 1_555
O0 Zn1 2.400011 1_565
O1 Si5 1.660712 1_555
O1 Zn3 2.266701 1_555
O1 Zn11 2.400011 1_556
O2 Si4 1.660712 1_555
O2 Zn0 2.266701 1_556
O2 Zn3 2.400011 1_555
O3 Si11 1.660710 1_555
O3 Zn11 2.266707 1_555
O3 Zn0 2.400017 1_555
O4 Si0 1.660710 1_554
O4 Zn11 2.266707 1_555
O4 Zn2 2.400017 1_565
O5 Si3 1.660702 1_545
O5 Zn2 2.266702 1_555
O5 Zn5 2.400019 1_555
O6 Si6 1.660702 1_555
O6 Zn5 2.266702 1_555
O6 Zn2 2.400019 1_555
O7 Si2 1.660712 1_555
O7 Zn1 2.266701 1_555
O7 Zn3 2.400011 1_655
O8 Si6 1.660712 1_555
O8 Zn5 2.266701 1_555
O8 Zn3 2.400011 1_555
O9 Si8 1.660702 1_555
O9 Zn2 2.266702 1_555
O9 Zn0 2.400019 1_555
O10 Si9 1.660710 1_545
O10 Zn1 2.266707 1_555
O10 Zn5 2.400017 1_655
O11 Si9 1.660712 1_555
O11 Zn1 2.266701 1_565
O11 Zn11 2.400011 1_555
O12 Si7 1.660712 1_555
O12 Zn3 2.266701 1_655
O12 Zn1 2.400011 1_555
O13 Si10 1.660702 1_555
O13 Zn0 2.266702 1_555
O13 Zn5 2.400019 1_555
O14 Si8 1.660712 1_555
O14 Zn2 2.266701 1_555
O14 Zn1 2.400011 1_555
O15 Si10 1.660712 1_555
O15 Zn0 2.266701 1_555
O15 Zn11 2.400011 1_555
O16 Si7 1.660710 1_455
O16 Zn3 2.266707 1_555
O16 Zn0 2.400017 1_556
O17 Si1 1.660712 1_555
O17 Zn5 2.266701 1_655
O17 Zn1 2.400011 1_555
O18 Si1 1.660702 1_455
O18 Zn5 2.266702 1_555
O18 Zn0 2.400019 1_555
O19 Si11 1.660712 1_555
O19 Zn8 2.266701 1_555
O19 Zn9 2.400011 1_555
O20 Si5 1.660710 1_555
O20 Zn3 2.266707 1_555
O20 Zn5 2.400017 1_555
O21 Si2 1.660710 1_555
O21 Zn1 2.266707 1_555
O21 Zn2 2.400017 1_555
O22 Si4 1.660702 1_554
O22 Zn0 2.266702 1_555
O22 Zn2 2.400019 1_555
O23 Si0 1.660712 1_555
O23 Zn11 2.266701 1_556
O23 Zn3 2.400011 1_555
O24 Si6 1.660712 1_555
O24 Zn6 2.266701 1_555
O24 Zn4 2.400011 1_545
O25 Si8 1.660712 1_555
O25 Zn9 2.266701 1_555
O25 Zn6 2.400011 1_554
O26 Si9 1.660712 1_555
O26 Zn7 2.266701 1_554
O26 Zn9 2.400011 1_555
O27 Si6 1.660710 1_555
O27 Zn6 2.266707 1_555
O27 Zn7 2.400017 1_555
O28 Si1 1.660710 1_556
O28 Zn6 2.266707 1_555
O28 Zn10 2.400017 1_545
O29 Si7 1.660702 1_565
O29 Zn10 2.266702 1_555
O29 Zn8 2.400019 1_555
O30 Si11 1.660702 1_555
O30 Zn8 2.266702 1_555
O30 Zn10 2.400019 1_555
O31 Si10 1.660712 1_555
O31 Zn4 2.266701 1_555
O31 Zn9 2.400011 1_455
O32 Si1 1.660712 1_555
O32 Zn6 2.266701 1_554
O32 Zn9 2.400011 1_555
O33 Si9 1.660702 1_556
O33 Zn7 2.266702 1_555
O33 Zn10 2.400019 1_555
O34 Si10 1.660710 1_555
O34 Zn4 2.266707 1_555
O34 Zn10 2.400017 1_555
O35 Si7 1.660712 1_555
O35 Zn10 2.266701 1_545
O35 Zn6 2.400011 1_555
O36 Si8 1.660710 1_555
O36 Zn9 2.266707 1_555
O36 Zn8 2.400017 1_555
O37 Si0 1.660702 1_655
O37 Zn8 2.266702 1_555
O37 Zn7 2.400019 1_555
O38 Si0 1.660712 1_555
O38 Zn8 2.266701 1_455
O38 Zn4 2.400011 1_555
O39 Si3 1.660710 1_655
O39 Zn9 2.266707 1_555
O39 Zn7 2.400017 1_554
O40 Si2 1.660712 1_555
O40 Zn7 2.266701 1_555
O40 Zn6 2.400011 1_555
O41 Si5 1.660712 1_555
O41 Zn10 2.266701 1_555
O41 Zn4 2.400011 1_555
O42 Si2 1.660702 1_555
O42 Zn7 2.266702 1_555
O42 Zn8 2.400019 1_555
O43 Si3 1.660712 1_555
O43 Zn9 2.266701 1_455
O43 Zn4 2.400011 1_555
O44 Si4 1.660712 1_555
O44 Zn4 2.266701 1_545
O44 Zn6 2.400011 1_555
O45 Si4 1.660710 1_565
O45 Zn4 2.266707 1_555
O45 Zn8 2.400017 1_455
O46 Si5 1.660702 1_555
O46 Zn10 2.266702 1_555
O46 Zn7 2.400019 1_555
O47 Si3 1.660712 1_555
O47 Zn2 2.266701 1_565
O47 Zn11 2.400011 1_555
