# generated using pymatgen
data_Dy6InCo2
_symmetry_space_group_name_H-M   'P 1'
_cell_length_a   8.34286732
_cell_length_b   8.34287290
_cell_length_c   8.34287723
_cell_angle_alpha   112.04542322
_cell_angle_beta   108.98228876
_cell_angle_gamma   107.42076040
_symmetry_Int_Tables_number   1
_chemical_formula_structural   Dy6InCo2
_chemical_formula_sum   'Dy12 In2 Co4'
_cell_volume   446.25746701
_cell_formula_units_Z   2
loop_
 _symmetry_equiv_pos_site_id
 _symmetry_equiv_pos_as_xyz
  1  'x, y, z'
loop_
 _atom_site_type_symbol
 _atom_site_label
 _atom_site_symmetry_multiplicity
 _atom_site_fract_x
 _atom_site_fract_y
 _atom_site_fract_z
 _atom_site_occupancy
  Dy  Dy0  1  0.44062393  0.23428396  0.20634014  1
  Dy  Dy1  1  0.55937035  0.76570740  0.79366271  1
  Dy  Dy2  1  0.02795858  0.23429016  0.79366877  1
  Dy  Dy3  1  0.97205867  0.76571245  0.20634581  1
  Dy  Dy4  1  0.18372508  0.28601119  0.46973339  1
  Dy  Dy5  1  0.81627606  0.71399389  0.53026665  1
  Dy  Dy6  1  0.18372466  0.71399204  0.89771390  1
  Dy  Dy7  1  0.81627656  0.28601001  0.10228313  1
  Dy  Dy8  1  0.32593807  0.63826012  0.31232836  1
  Dy  Dy9  1  0.67406069  0.36173500  0.68767987  1
  Dy  Dy10  1  0.32593716  0.01360923  0.68767811  1
  Dy  Dy11  1  0.67406118  0.98638087  0.31232549  1
  In  In0  1  0.50000374  0.50000009  0.00000365  1
  In  In1  1  0.00000232  -0.00000012  0.00000290  1
  Co  Co0  1  0.34013007  -0.00000433  0.34013376  1
  Co  Co1  1  0.65982262  -0.00000525  0.65982600  1
  Co  Co2  1  0.11211677  0.61211271  0.50000301  1
  Co  Co3  1  0.88791447  0.38790956  0.50000536  1
loop_
_geom_bond_atom_site_label_1
_geom_bond_atom_site_label_2
_geom_bond_distance
_geom_bond_site_symmetry_2
Dy0 In1 3.058143 1_555
Dy0 In0 3.299252 1_555
Dy1 In1 3.058218 1_666
Dy1 In0 3.299209 1_556
Dy2 In1 3.058179 1_556
Dy2 In0 3.299184 1_556
Dy3 In1 3.058213 1_665
Dy3 In0 3.299246 1_555
Dy4 In1 3.206792 1_555
Dy4 In0 3.657544 1_556
Dy5 In1 3.206819 1_666
Dy5 In0 3.657479 1_555
Dy6 In1 3.206797 1_566
Dy6 In0 3.657556 1_556
Dy7 In1 3.206824 1_655
Dy7 In0 3.657487 1_555
Dy8 In0 3.381931 1_555
Dy9 In0 3.381876 1_556
Dy10 In0 3.381924 1_556
Dy11 In0 3.381866 1_555
Co0 Dy3 2.652262 1_445
Co0 Dy0 2.652338 1_555
Co0 Dy8 2.901425 1_545
Co0 Dy9 2.901433 1_555
Co0 Dy10 2.901436 1_555
Co0 Dy11 2.901444 1_545
Co0 Dy6 3.067736 1_544
Co0 Dy4 3.067749 1_555
Co1 Dy1 2.652539 1_545
Co1 Dy2 2.652611 1_655
Co1 Dy8 2.901174 1_545
Co1 Dy10 2.901202 1_555
Co1 Dy11 2.901214 1_545
Co1 Dy9 2.901219 1_555
Co1 Dy5 3.067900 1_545
Co1 Dy7 3.067915 1_556
Co2 Co3 2.214180 1_455
Co2 Dy10 2.742592 1_565
Co2 Dy8 2.742598 1_555
Co2 Dy4 2.894491 1_555
Co2 Dy6 2.894498 1_555
Co2 Dy7 2.894540 1_455
Co2 Dy5 2.894563 1_455
Co2 Dy1 3.225002 1_555
Co2 Dy3 3.225020 1_455
Co3 Dy11 2.742833 1_545
Co3 Dy9 2.742839 1_555
Co3 Dy6 2.894399 1_655
Co3 Dy4 2.894412 1_655
Co3 Dy7 2.894492 1_555
Co3 Dy5 2.894496 1_555
Co3 Dy2 3.225164 1_655
Co3 Dy0 3.225196 1_555
