# generated using pymatgen
data_Cd43Pd8
_symmetry_space_group_name_H-M   'P 1'
_cell_length_a   10.05017333
_cell_length_b   10.05017333
_cell_length_c   10.05017369
_cell_angle_alpha   90.10168300
_cell_angle_beta   90.10168300
_cell_angle_gamma   90.10168413
_symmetry_Int_Tables_number   1
_chemical_formula_structural   Cd43Pd8
_chemical_formula_sum   'Cd43 Pd8'
_cell_volume   1015.12288101
_cell_formula_units_Z   1
loop_
 _symmetry_equiv_pos_site_id
 _symmetry_equiv_pos_as_xyz
  1  'x, y, z'
loop_
 _atom_site_type_symbol
 _atom_site_label
 _atom_site_symmetry_multiplicity
 _atom_site_fract_x
 _atom_site_fract_y
 _atom_site_fract_z
 _atom_site_occupancy
  Cd  Cd0  1  0.60423056  0.60423056  0.60423056  1
  Cd  Cd1  1  0.60486845  0.39409184  0.39409184  1
  Cd  Cd2  1  0.39409184  0.39409184  0.60486845  1
  Cd  Cd3  1  0.39409184  0.60486845  0.39409184  1
  Cd  Cd4  1  0.50044497  0.85761366  0.50044497  1
  Cd  Cd5  1  0.50044497  0.50044497  0.85761366  1
  Cd  Cd6  1  0.85761366  0.50044497  0.50044497  1
  Cd  Cd7  1  0.49667427  0.14034221  0.49667427  1
  Cd  Cd8  1  0.49667427  0.49667427  0.14034221  1
  Cd  Cd9  1  0.14034221  0.49667427  0.49667427  1
  Cd  Cd10  1  0.05352558  0.28745649  0.28745649  1
  Cd  Cd11  1  0.28745649  0.05352558  0.28745649  1
  Cd  Cd12  1  0.28745649  0.28745649  0.05352558  1
  Cd  Cd13  1  0.04967193  0.69731091  0.69731091  1
  Cd  Cd14  1  0.30596139  0.95356361  0.69572524  1
  Cd  Cd15  1  0.30596139  0.69572524  0.95356361  1
  Cd  Cd16  1  0.95356361  0.69572524  0.30596139  1
  Cd  Cd17  1  0.69572524  0.95356361  0.30596139  1
  Cd  Cd18  1  0.69731091  0.69731091  0.04967193  1
  Cd  Cd19  1  0.95356361  0.30596139  0.69572524  1
  Cd  Cd20  1  0.69731091  0.04967193  0.69731091  1
  Cd  Cd21  1  0.69572524  0.30596139  0.95356361  1
  Cd  Cd22  1  0.54823215  0.80684565  0.80684565  1
  Cd  Cd23  1  0.80684565  0.54823315  0.80684565  1
  Cd  Cd24  1  0.80684565  0.80684565  0.54823215  1
  Cd  Cd25  1  0.54073360  0.19250639  0.19250639  1
  Cd  Cd26  1  0.80837005  0.45428954  0.19478916  1
  Cd  Cd27  1  0.80837005  0.19478916  0.45428954  1
  Cd  Cd28  1  0.45428954  0.19478916  0.80837005  1
  Cd  Cd29  1  0.19478916  0.45428954  0.80837005  1
  Cd  Cd30  1  0.19250639  0.19250639  0.54073360  1
  Cd  Cd31  1  0.45428954  0.80837005  0.19478916  1
  Cd  Cd32  1  0.19250639  0.54073360  0.19250639  1
  Cd  Cd33  1  0.19478916  0.80837005  0.45428954  1
  Cd  Cd34  1  0.00436516  0.34998713  0.00436516  1
  Cd  Cd35  1  0.00436516  0.00436516  0.34998713  1
  Cd  Cd36  1  0.34998713  0.00436516  0.00436516  1
  Cd  Cd37  1  0.00005924  0.64334161  0.00005924  1
  Cd  Cd38  1  0.00005924  0.00005924  0.64334161  1
  Cd  Cd39  1  0.64334161  0.00005924  0.00005924  1
  Cd  Cd40  1  0.10678901  0.90526609  0.90526609  1
  Cd  Cd41  1  0.90526609  0.90526609  0.10678901  1
  Cd  Cd42  1  0.90526609  0.10678901  0.90526609  1
  Pd  Pd0  1  0.83164268  0.83164268  0.83164268  1
  Pd  Pd1  1  0.82072644  0.17318343  0.17318343  1
  Pd  Pd2  1  0.17318343  0.17318343  0.82072644  1
  Pd  Pd3  1  0.17318343  0.82072644  0.17318343  1
  Pd  Pd4  1  0.32885864  0.32885864  0.32885864  1
  Pd  Pd5  1  0.32910587  0.67186033  0.67186033  1
  Pd  Pd6  1  0.67186033  0.67186033  0.32910587  1
  Pd  Pd7  1  0.67186033  0.32910587  0.67186033  1
loop_
_geom_bond_atom_site_label_1
_geom_bond_atom_site_label_2
_geom_bond_distance
_geom_bond_site_symmetry_2
Cd0 Pd5 2.929363 1_555
Cd0 Pd7 2.929363 1_555
Cd0 Pd6 2.929363 1_555
Cd0 Cd23 2.933141 1_555
Cd0 Cd24 2.933143 1_555
Cd0 Cd22 2.933143 1_555
Cd0 Cd4 2.945478 1_555
Cd0 Cd6 2.945478 1_555
Cd0 Cd5 2.945478 1_555
Cd0 Cd2 2.984092 1_555
Cd0 Cd3 2.984092 1_555
Cd0 Cd1 2.984092 1_555
Cd1 Pd4 2.922324 1_555
Cd1 Cd27 2.928402 1_555
Cd1 Cd26 2.928402 1_555
Cd1 Cd25 2.932699 1_555
Cd1 Pd6 2.945231 1_555
Cd1 Pd7 2.945231 1_555
Cd1 Cd6 2.951932 1_555
Cd1 Cd7 2.958447 1_555
Cd1 Cd8 2.958447 1_555
Cd1 Cd3 2.998444 1_555
Cd1 Cd2 2.998444 1_555
Cd2 Pd4 2.922324 1_555
Cd2 Cd28 2.928402 1_555
Cd2 Cd29 2.928402 1_555
Cd2 Cd30 2.932699 1_555
Cd2 Pd7 2.945231 1_555
Cd2 Pd5 2.945231 1_555
Cd2 Cd5 2.951932 1_555
Cd2 Cd9 2.958447 1_555
Cd2 Cd7 2.958447 1_555
Cd2 Cd3 2.998444 1_555
Cd3 Pd4 2.922324 1_555
Cd3 Cd33 2.928402 1_555
Cd3 Cd31 2.928402 1_555
Cd3 Cd32 2.932699 1_555
Cd3 Pd6 2.945231 1_555
Cd3 Pd5 2.945231 1_555
Cd3 Cd4 2.951932 1_555
Cd3 Cd9 2.958447 1_555
Cd3 Cd8 2.958447 1_555
Cd4 Cd7 2.842110 1_565
Cd4 Pd5 3.070635 1_555
Cd4 Pd6 3.070635 1_555
Cd5 Cd8 2.842110 1_556
Cd5 Pd7 3.070635 1_555
Cd5 Pd5 3.070635 1_555
Cd6 Cd9 2.842110 1_655
Cd6 Pd7 3.070635 1_555
Cd6 Pd6 3.070635 1_555
Cd7 Pd4 3.048157 1_555
Cd7 Pd7 3.124753 1_555
Cd8 Pd4 3.048157 1_555
Cd8 Pd6 3.124753 1_555
Cd9 Pd4 3.048157 1_555
Cd9 Pd5 3.124753 1_555
Cd10 Pd4 2.827469 1_555
Cd10 Pd1 2.843984 1_455
Cd10 Cd35 2.955706 1_555
Cd10 Cd34 2.955706 1_555
Cd10 Cd32 3.056438 1_555
Cd10 Cd30 3.056438 1_555
Cd10 Cd9 3.094360 1_555
Cd10 Cd27 3.124313 1_455
Cd10 Cd26 3.124313 1_455
Cd10 Cd11 3.327830 1_555
Cd10 Cd12 3.327831 1_555
Cd11 Pd4 2.827469 1_555
Cd11 Pd3 2.843984 1_545
Cd11 Cd35 2.955706 1_555
Cd11 Cd36 2.955706 1_555
Cd11 Cd25 3.056438 1_555
Cd11 Cd30 3.056438 1_555
Cd11 Cd7 3.094360 1_555
Cd11 Cd33 3.124313 1_545
Cd11 Cd31 3.124313 1_545
Cd11 Cd12 3.327831 1_555
Cd12 Pd4 2.827469 1_555
Cd12 Pd2 2.843984 1_554
Cd12 Cd34 2.955706 1_555
Cd12 Cd36 2.955706 1_555
Cd12 Cd32 3.056438 1_555
Cd12 Cd25 3.056438 1_555
Cd12 Cd8 3.094360 1_555
Cd12 Cd28 3.124313 1_554
Cd12 Cd29 3.124313 1_554
Cd13 Pd5 2.832419 1_555
Cd13 Pd0 2.908838 1_455
Cd13 Cd9 2.993492 1_555
Cd13 Cd40 3.006922 1_555
Cd13 Cd29 3.058562 1_555
Cd13 Cd33 3.058562 1_555
Cd13 Cd23 3.068358 1_455
Cd13 Cd24 3.068363 1_455
Cd13 Cd38 3.132245 1_565
Cd13 Cd37 3.132245 1_556
Cd13 Cd6 3.393222 1_455
Cd14 Pd5 2.850835 1_555
Cd14 Pd2 2.870079 1_565
Cd14 Cd4 2.935256 1_555
Cd14 Cd40 2.948310 1_555
Cd14 Cd33 3.039320 1_555
Cd14 Cd28 3.058245 1_565
Cd14 Cd22 3.059242 1_555
Cd14 Cd30 3.083837 1_565
Cd14 Cd38 3.153966 1_565
Cd14 Cd36 3.172830 1_566
Cd14 Cd7 3.348672 1_565
Cd15 Pd5 2.850836 1_555
Cd15 Pd3 2.870079 1_556
Cd15 Cd5 2.935256 1_555
Cd15 Cd40 2.948310 1_555
Cd15 Cd29 3.039320 1_555
Cd15 Cd31 3.058245 1_556
Cd15 Cd22 3.059242 1_555
Cd15 Cd32 3.083837 1_556
Cd15 Cd37 3.153966 1_556
Cd15 Cd36 3.172829 1_566
Cd15 Cd8 3.348672 1_556
Cd16 Pd6 2.850835 1_555
Cd16 Pd3 2.870079 1_655
Cd16 Cd6 2.935256 1_555
Cd16 Cd41 2.948310 1_555
Cd16 Cd26 3.039320 1_555
Cd16 Cd33 3.058245 1_655
Cd16 Cd24 3.059242 1_555
Cd16 Cd32 3.083837 1_655
Cd16 Cd37 3.153966 1_655
Cd16 Cd35 3.172829 1_665
Cd16 Cd9 3.348672 1_655
Cd17 Pd6 2.850835 1_555
Cd17 Pd1 2.870079 1_565
Cd17 Cd4 2.935256 1_555
Cd17 Cd41 2.948310 1_555
Cd17 Cd31 3.039320 1_555
Cd17 Cd27 3.058245 1_565
Cd17 Cd24 3.059242 1_555
Cd17 Cd25 3.083837 1_565
Cd17 Cd39 3.153966 1_565
Cd17 Cd35 3.172829 1_665
Cd17 Cd7 3.348672 1_565
Cd18 Pd6 2.832420 1_555
Cd18 Pd0 2.908838 1_554
Cd18 Cd8 2.993492 1_555
Cd18 Cd41 3.006921 1_555
Cd18 Cd26 3.058562 1_555
Cd18 Cd31 3.058562 1_555
Cd18 Cd23 3.068358 1_554
Cd18 Cd22 3.068363 1_554
Cd18 Cd37 3.132245 1_655
Cd18 Cd39 3.132245 1_565
Cd18 Cd5 3.393222 1_554
Cd19 Pd7 2.850835 1_555
Cd19 Pd2 2.870079 1_655
Cd19 Cd6 2.935256 1_555
Cd19 Cd42 2.948310 1_555
Cd19 Cd27 3.039320 1_555
Cd19 Cd29 3.058245 1_655
Cd19 Cd23 3.059250 1_555
Cd19 Cd30 3.083837 1_655
Cd19 Cd38 3.153966 1_655
Cd19 Cd34 3.172830 1_656
Cd19 Cd9 3.348672 1_655
Cd20 Pd7 2.832419 1_555
Cd20 Pd0 2.908838 1_545
Cd20 Cd7 2.993492 1_555
Cd20 Cd42 3.006922 1_555
Cd20 Cd28 3.058562 1_555
Cd20 Cd27 3.058562 1_555
Cd20 Cd22 3.068363 1_545
Cd20 Cd24 3.068363 1_545
Cd20 Cd38 3.132245 1_655
Cd20 Cd39 3.132245 1_556
Cd20 Cd4 3.393222 1_545
Cd21 Pd7 2.850836 1_555
Cd21 Pd1 2.870079 1_556
Cd21 Cd5 2.935256 1_555
Cd21 Cd42 2.948310 1_555
Cd21 Cd28 3.039320 1_555
Cd21 Cd26 3.058245 1_556
Cd21 Cd23 3.059250 1_555
Cd21 Cd25 3.083837 1_556
Cd21 Cd39 3.153966 1_556
Cd21 Cd34 3.172829 1_656
Cd21 Cd8 3.348672 1_556
Cd22 Pd0 2.869131 1_555
Cd22 Cd39 2.903193 1_566
Cd22 Pd5 2.916001 1_555
Cd22 Cd5 3.158286 1_555
Cd22 Cd4 3.158286 1_555
Cd22 Cd36 3.444564 1_566
Cd23 Pd0 2.869121 1_555
Cd23 Cd37 2.903190 1_656
Cd23 Pd7 2.916009 1_555
Cd23 Cd5 3.158287 1_555
Cd23 Cd6 3.158287 1_555
Cd23 Cd34 3.444570 1_656
Cd24 Pd0 2.869131 1_555
Cd24 Cd38 2.903193 1_665
Cd24 Pd6 2.916001 1_555
Cd24 Cd4 3.158286 1_555
Cd24 Cd6 3.158286 1_555
Cd24 Cd35 3.444564 1_665
Cd25 Pd1 2.828009 1_555
Cd25 Pd4 2.881684 1_555
Cd25 Cd39 2.923356 1_555
Cd25 Cd8 3.134561 1_555
Cd25 Cd7 3.134561 1_555
Cd25 Cd36 3.284394 1_555
Cd26 Pd1 2.836070 1_555
Cd26 Pd6 2.914199 1_555
Cd26 Cd34 2.941954 1_655
Cd26 Cd6 3.144101 1_555
Cd26 Cd8 3.208352 1_555
Cd26 Cd37 3.341433 1_655
Cd27 Pd1 2.836070 1_555
Cd27 Pd7 2.914199 1_555
Cd27 Cd35 2.941954 1_655
Cd27 Cd6 3.144101 1_555
Cd27 Cd7 3.208352 1_555
Cd27 Cd38 3.341433 1_655
Cd28 Pd2 2.836070 1_555
Cd28 Pd7 2.914199 1_555
Cd28 Cd36 2.941954 1_556
Cd28 Cd5 3.144101 1_555
Cd28 Cd7 3.208352 1_555
Cd28 Cd39 3.341433 1_556
Cd29 Pd2 2.836070 1_555
Cd29 Pd5 2.914199 1_555
Cd29 Cd34 2.941954 1_556
Cd29 Cd5 3.144101 1_555
Cd29 Cd9 3.208352 1_555
Cd29 Cd37 3.341433 1_556
Cd30 Pd2 2.828009 1_555
Cd30 Pd4 2.881684 1_555
Cd30 Cd38 2.923356 1_555
Cd30 Cd7 3.134561 1_555
Cd30 Cd9 3.134561 1_555
Cd30 Cd35 3.284394 1_555
Cd31 Pd3 2.836070 1_555
Cd31 Pd6 2.914199 1_555
Cd31 Cd36 2.941954 1_565
Cd31 Cd4 3.144101 1_555
Cd31 Cd8 3.208352 1_555
Cd31 Cd39 3.341433 1_565
Cd32 Pd3 2.828009 1_555
Cd32 Pd4 2.881684 1_555
Cd32 Cd37 2.923356 1_555
Cd32 Cd8 3.134561 1_555
Cd32 Cd9 3.134561 1_555
Cd32 Cd34 3.284394 1_555
Cd33 Pd3 2.836070 1_555
Cd33 Pd5 2.914199 1_555
Cd33 Cd35 2.941954 1_565
Cd33 Cd4 3.144101 1_555
Cd33 Cd9 3.208352 1_555
Cd33 Cd38 3.341433 1_565
Cd34 Cd42 2.817288 1_454
Cd34 Cd37 2.949051 1_555
Cd34 Pd1 3.074484 1_455
Cd34 Pd2 3.074484 1_554
Cd35 Cd41 2.817289 1_445
Cd35 Cd38 2.949051 1_555
Cd35 Pd1 3.074484 1_455
Cd35 Pd3 3.074484 1_545
Cd36 Cd40 2.817288 1_544
Cd36 Cd39 2.949051 1_555
Cd36 Pd3 3.074484 1_545
Cd36 Pd2 3.074484 1_554
Cd37 Cd40 2.998360 1_554
Cd37 Cd41 2.998360 1_455
Cd37 Pd3 3.033171 1_555
Cd37 Pd0 3.053500 1_454
Cd38 Cd40 2.998360 1_545
Cd38 Cd42 2.998360 1_455
Cd38 Pd2 3.033171 1_555
Cd38 Pd0 3.053500 1_445
Cd39 Cd42 2.998360 1_554
Cd39 Cd41 2.998360 1_545
Cd39 Pd1 3.033171 1_555
Cd39 Pd0 3.053500 1_544
Cd40 Cd42 2.866804 1_465
Cd40 Cd41 2.866804 1_456
Cd40 Pd2 2.901909 1_565
Cd40 Pd3 2.901909 1_556
Cd40 Pd0 2.953850 1_455
Cd41 Cd42 2.866804 1_564
Cd41 Pd1 2.901909 1_565
Cd41 Pd3 2.901909 1_655
Cd41 Pd0 2.953850 1_554
Cd42 Pd2 2.901909 1_655
Cd42 Pd1 2.901909 1_556
Cd42 Pd0 2.953850 1_545
