# generated using pymatgen
data_Li2Fe3SnO8
_symmetry_space_group_name_H-M   'P 1'
_cell_length_a   6.00222490
_cell_length_b   6.13605521
_cell_length_c   8.65924526
_cell_angle_alpha   88.49938075
_cell_angle_beta   90.39088484
_cell_angle_gamma   89.08176167
_symmetry_Int_Tables_number   1
_chemical_formula_structural   Li2Fe3SnO8
_chemical_formula_sum   'Li4 Fe6 Sn2 O16'
_cell_volume   318.76117515
_cell_formula_units_Z   2
loop_
 _symmetry_equiv_pos_site_id
 _symmetry_equiv_pos_as_xyz
  1  'x, y, z'
loop_
 _atom_site_type_symbol
 _atom_site_label
 _atom_site_symmetry_multiplicity
 _atom_site_fract_x
 _atom_site_fract_y
 _atom_site_fract_z
 _atom_site_occupancy
  Li  Li0  1  0.99299200  0.24586200  0.11997600  1
  Li  Li1  1  0.49285400  0.74624000  0.62016200  1
  Li  Li2  1  0.00592800  0.75302800  0.88012700  1
  Li  Li3  1  0.50586000  0.25294200  0.38014600  1
  Fe  Fe0  1  0.49939700  0.00071900  0.99976200  1
  Fe  Fe1  1  0.75006500  0.24992000  0.74991400  1
  Fe  Fe2  1  0.75011300  0.74961100  0.25032400  1
  Fe  Fe3  1  0.99928700  0.50070300  0.49985500  1
  Fe  Fe4  1  0.25000000  0.74989200  0.25000000  1
  Fe  Fe5  1  0.25032300  0.24969400  0.75009500  1
  Sn  Sn0  1  0.00090100  0.00082400  0.49981400  1
  Sn  Sn1  1  0.50091700  0.50075200  0.99991100  1
  O  O0  1  0.98400900  0.53610900  0.26087500  1
  O  O1  1  0.48417100  0.03611300  0.76074000  1
  O  O2  1  0.01613800  0.46281700  0.73865000  1
  O  O3  1  0.51614800  0.96270700  0.23874600  1
  O  O4  1  0.22883400  0.74307400  0.48535400  1
  O  O5  1  0.72891200  0.24303400  0.98528300  1
  O  O6  1  0.76875700  0.74835000  0.48795000  1
  O  O7  1  0.26887900  0.24823900  0.98788600  1
  O  O8  1  0.99567100  0.97497600  0.25767600  1
  O  O9  1  0.49566200  0.47501900  0.75769400  1
  O  O10  1  0.00451100  0.02492400  0.74240400  1
  O  O11  1  0.50431300  0.52474000  0.24248600  1
  O  O12  1  0.23159300  0.25247300  0.51182000  1
  O  O13  1  0.73166200  0.75236100  0.01198500  1
  O  O14  1  0.77100000  0.25743700  0.51516300  1
  O  O15  1  0.27110300  0.75743700  0.01520100  1
loop_
_geom_bond_atom_site_label_1
_geom_bond_atom_site_label_2
_geom_bond_distance
_geom_bond_site_symmetry_2
Li0 O5 1.962092 1_554
Li0 O7 2.018999 1_654
Li0 O8 2.019880 1_545
Li0 O0 2.185175 1_555
Li1 O4 1.962468 1_555
Li1 O6 2.019674 1_555
Li1 O9 2.020706 1_555
Li1 O1 2.181633 1_565
Li2 O15 1.969706 1_556
Li2 O13 2.009805 1_456
Li2 O10 2.025084 1_565
Li2 O2 2.188024 1_555
Li3 O14 1.969269 1_555
Li3 O12 2.008896 1_555
Li3 O11 2.024278 1_555
Li3 O3 2.187767 1_545
Fe0 O7 2.038198 1_555
Fe0 O15 2.044885 1_546
Fe0 O5 2.045115 1_555
Fe0 O13 2.049041 1_546
Fe0 O1 2.076686 1_555
Fe0 O3 2.078014 1_546
Fe1 O14 2.036864 1_555
Fe1 O5 2.042308 1_555
Fe1 O10 2.044798 1_655
Fe1 O9 2.045157 1_555
Fe1 O2 2.080597 1_655
Fe1 O1 2.083203 1_555
Fe2 O3 1.903742 1_555
Fe2 O0 1.904879 1_555
Fe2 O11 2.038123 1_555
Fe2 O8 2.038959 1_555
Fe2 O6 2.059745 1_555
Fe2 O13 2.065663 1_555
Fe3 O6 2.038823 1_555
Fe3 O14 2.044726 1_555
Fe3 O4 2.045508 1_655
Fe3 O12 2.048571 1_655
Fe3 O0 2.076341 1_555
Fe3 O2 2.076348 1_655
Fe4 O15 2.037348 1_555
Fe4 O4 2.042186 1_555
Fe4 O8 2.044718 1_455
Fe4 O11 2.044848 1_555
Fe4 O3 2.080622 1_555
Fe4 O0 2.083575 1_455
Fe5 O2 1.904779 1_555
Fe5 O1 1.905017 1_555
Fe5 O10 2.037691 1_555
Fe5 O9 2.037921 1_555
Fe5 O7 2.061120 1_555
Fe5 O12 2.065186 1_555
O4 Sn0 2.081371 1_565
O5 Sn1 2.081588 1_555
O6 Sn0 2.104195 1_665
O7 Sn1 2.104034 1_555
O8 Sn0 2.106919 1_665
O9 Sn1 2.107531 1_555
O10 Sn0 2.109693 1_555
O11 Sn1 2.109492 1_554
O12 Sn0 2.094618 1_555
O13 Sn1 2.094686 1_554
O14 Sn0 2.084466 1_655
O15 Sn1 2.084411 1_554
