# generated using pymatgen
data_Zn7SiN6
_symmetry_space_group_name_H-M   'P 1'
_cell_length_a   10.18855800
_cell_length_b   5.55789200
_cell_length_c   12.58375700
_cell_angle_alpha   90.00000000
_cell_angle_beta   90.00000000
_cell_angle_gamma   90.00000000
_symmetry_Int_Tables_number   1
_chemical_formula_structural   Zn7SiN6
_chemical_formula_sum   'Zn28 Si4 N24'
_cell_volume   712.57921218
_cell_formula_units_Z   4
loop_
 _symmetry_equiv_pos_site_id
 _symmetry_equiv_pos_as_xyz
  1  'x, y, z'
loop_
 _atom_site_type_symbol
 _atom_site_label
 _atom_site_symmetry_multiplicity
 _atom_site_fract_x
 _atom_site_fract_y
 _atom_site_fract_z
 _atom_site_occupancy
  Zn  Zn0  1  0.98398000  0.72651800  0.04094700  1
  Zn  Zn1  1  0.51602000  0.77348200  0.54094700  1
  Zn  Zn2  1  0.48398000  0.77348200  0.95905300  1
  Zn  Zn3  1  0.01602000  0.72651800  0.45905300  1
  Zn  Zn4  1  0.01602000  0.27348200  0.95905300  1
  Zn  Zn5  1  0.48398000  0.22651800  0.45905300  1
  Zn  Zn6  1  0.51602000  0.22651800  0.04094700  1
  Zn  Zn7  1  0.98398000  0.27348200  0.54094700  1
  Zn  Zn8  1  0.23865000  0.64049300  0.65480800  1
  Zn  Zn9  1  0.26135000  0.85950700  0.15480800  1
  Zn  Zn10  1  0.73865000  0.85950700  0.34519200  1
  Zn  Zn11  1  0.76135000  0.64049300  0.84519200  1
  Zn  Zn12  1  0.76135000  0.35950700  0.34519200  1
  Zn  Zn13  1  0.73865000  0.14049300  0.84519200  1
  Zn  Zn14  1  0.26135000  0.14049300  0.65480800  1
  Zn  Zn15  1  0.23865000  0.35950700  0.15480800  1
  Zn  Zn16  1  0.21341200  0.72191000  0.92074800  1
  Zn  Zn17  1  0.28658800  0.77809000  0.42074800  1
  Zn  Zn18  1  0.71341200  0.77809000  0.07925200  1
  Zn  Zn19  1  0.78658800  0.72191000  0.57925200  1
  Zn  Zn20  1  0.78658800  0.27809000  0.07925200  1
  Zn  Zn21  1  0.71341200  0.22191000  0.57925200  1
  Zn  Zn22  1  0.28658800  0.22191000  0.92074800  1
  Zn  Zn23  1  0.21341200  0.27809000  0.42074800  1
  Zn  Zn24  1  0.00000000  0.42209400  0.75000000  1
  Zn  Zn25  1  0.50000000  0.07790600  0.25000000  1
  Zn  Zn26  1  0.00000000  0.57790600  0.25000000  1
  Zn  Zn27  1  0.50000000  0.92209400  0.75000000  1
  Si  Si0  1  0.00000000  0.91627300  0.75000000  1
  Si  Si1  1  0.50000000  0.58372700  0.25000000  1
  Si  Si2  1  0.00000000  0.08372700  0.25000000  1
  Si  Si3  1  0.50000000  0.41627300  0.75000000  1
  N  N0  1  0.12723200  0.71301700  0.78250100  1
  N  N1  1  0.37276800  0.78698300  0.28250100  1
  N  N2  1  0.62723200  0.78698300  0.21749900  1
  N  N3  1  0.87276800  0.71301700  0.71749900  1
  N  N4  1  0.87276800  0.28698300  0.21749900  1
  N  N5  1  0.62723200  0.21301700  0.71749900  1
  N  N6  1  0.37276800  0.21301700  0.78250100  1
  N  N7  1  0.12723200  0.28698300  0.28250100  1
  N  N8  1  0.16791200  0.56809000  0.51053100  1
  N  N9  1  0.33208800  0.93191000  0.01053100  1
  N  N10  1  0.66791200  0.93191000  0.48946900  1
  N  N11  1  0.83208800  0.56809000  0.98946900  1
  N  N12  1  0.83208800  0.43191000  0.48946900  1
  N  N13  1  0.66791200  0.06809000  0.98946900  1
  N  N14  1  0.33208800  0.06809000  0.51053100  1
  N  N15  1  0.16791200  0.43191000  0.01053100  1
  N  N16  1  0.43514900  0.62173100  0.65652300  1
  N  N17  1  0.06485100  0.87826900  0.15652300  1
  N  N18  1  0.93514900  0.87826900  0.34347700  1
  N  N19  1  0.56485100  0.62173100  0.84347700  1
  N  N20  1  0.56485100  0.37826900  0.34347700  1
  N  N21  1  0.93514900  0.12173100  0.84347700  1
  N  N22  1  0.06485100  0.12173100  0.65652300  1
  N  N23  1  0.43514900  0.37826900  0.15652300  1
loop_
_geom_bond_atom_site_label_1
_geom_bond_atom_site_label_2
_geom_bond_distance
_geom_bond_site_symmetry_2
N0 Si0 1.767443 1_555
N0 Zn16 1.949322 1_555
N0 Zn8 2.008263 1_555
N0 Zn24 2.112372 1_555
N1 Si1 1.767443 1_555
N1 Zn17 1.949322 1_555
N1 Zn9 2.008263 1_555
N1 Zn25 2.112372 1_565
N2 Si1 1.767443 1_555
N2 Zn18 1.949322 1_555
N2 Zn10 2.008263 1_555
N2 Zn25 2.112372 1_565
N3 Si0 1.767443 1_655
N3 Zn19 1.949322 1_555
N3 Zn11 2.008263 1_555
N3 Zn24 2.112372 1_655
N4 Si2 1.767443 1_655
N4 Zn20 1.949322 1_555
N4 Zn12 2.008263 1_555
N4 Zn26 2.112372 1_655
N5 Si3 1.767443 1_555
N5 Zn21 1.949322 1_555
N5 Zn13 2.008263 1_555
N5 Zn27 2.112372 1_545
N6 Si3 1.767443 1_555
N6 Zn22 1.949322 1_555
N6 Zn14 2.008263 1_555
N6 Zn27 2.112372 1_545
N7 Si2 1.767443 1_555
N7 Zn23 1.949322 1_555
N7 Zn15 2.008263 1_555
N7 Zn26 2.112372 1_555
N8 Zn3 1.894702 1_555
N8 Zn8 1.994386 1_555
N8 Zn23 2.022185 1_555
N8 Zn17 2.025027 1_555
N8 Zn7 2.517828 1_455
N9 Zn2 1.894702 1_554
N9 Zn9 1.994386 1_555
N9 Zn22 2.022185 1_564
N9 Zn16 2.025027 1_554
N9 Zn6 2.517828 1_565
N10 Zn1 1.894702 1_555
N10 Zn10 1.994386 1_555
N10 Zn21 2.022185 1_565
N10 Zn19 2.025027 1_555
N10 Zn5 2.517828 1_565
N11 Zn0 1.894702 1_556
N11 Zn11 1.994386 1_555
N11 Zn20 2.022185 1_556
N11 Zn18 2.025027 1_556
N11 Zn4 2.517828 1_655
N12 Zn7 1.894702 1_555
N12 Zn12 1.994386 1_555
N12 Zn19 2.022185 1_555
N12 Zn21 2.025027 1_555
N12 Zn3 2.517828 1_655
N13 Zn6 1.894702 1_556
N13 Zn13 1.994386 1_555
N13 Zn18 2.022185 1_546
N13 Zn20 2.025027 1_556
N13 Zn2 2.517828 1_545
N14 Zn5 1.894702 1_555
N14 Zn14 1.994386 1_555
N14 Zn17 2.022185 1_545
N14 Zn23 2.025027 1_555
N14 Zn1 2.517828 1_545
N15 Zn4 1.894702 1_554
N15 Zn15 1.994386 1_555
N15 Zn16 2.022185 1_554
N15 Zn22 2.025027 1_554
N15 Zn0 2.517828 1_455
N16 Si3 1.767542 1_555
N16 Zn1 1.872293 1_555
N16 Zn8 2.004871 1_555
N16 Zn27 2.146412 1_555
N17 Si2 1.767542 1_565
N17 Zn0 1.872293 1_455
N17 Zn9 2.004871 1_555
N17 Zn26 2.146412 1_555
N18 Si2 1.767542 1_665
N18 Zn3 1.872293 1_655
N18 Zn10 2.004871 1_555
N18 Zn26 2.146412 1_655
N19 Si3 1.767542 1_555
N19 Zn2 1.872293 1_555
N19 Zn11 2.004871 1_555
N19 Zn27 2.146412 1_555
N20 Si1 1.767542 1_555
N20 Zn5 1.872293 1_555
N20 Zn12 2.004871 1_555
N20 Zn25 2.146412 1_555
N21 Si0 1.767542 1_645
N21 Zn4 1.872293 1_655
N21 Zn13 2.004871 1_555
N21 Zn24 2.146412 1_655
N22 Si0 1.767542 1_545
N22 Zn7 1.872293 1_455
N22 Zn14 2.004871 1_555
N22 Zn24 2.146412 1_555
N23 Si1 1.767542 1_555
N23 Zn6 1.872293 1_555
N23 Zn15 2.004871 1_555
N23 Zn25 2.146412 1_555
