# generated using pymatgen
data_Li9Mn2Co5O16
_symmetry_space_group_name_H-M   'P 1'
_cell_length_a   2.94887800
_cell_length_b   10.16554796
_cell_length_c   10.63188789
_cell_angle_alpha   113.93940283
_cell_angle_beta   94.98572907
_cell_angle_gamma   92.32952060
_symmetry_Int_Tables_number   1
_chemical_formula_structural   Li9Mn2Co5O16
_chemical_formula_sum   'Li9 Mn2 Co5 O16'
_cell_volume   289.18210867
_cell_formula_units_Z   1
loop_
 _symmetry_equiv_pos_site_id
 _symmetry_equiv_pos_as_xyz
  1  'x, y, z'
loop_
 _atom_site_type_symbol
 _atom_site_label
 _atom_site_symmetry_multiplicity
 _atom_site_fract_x
 _atom_site_fract_y
 _atom_site_fract_z
 _atom_site_occupancy
  Li  Li0  1  0.13062000  0.93599900  0.25045900  1
  Li  Li1  1  0.88003000  0.06206900  0.75381200  1
  Li  Li2  1  0.61980000  0.19519800  0.25536100  1
  Li  Li3  1  0.62836600  0.68799400  0.25190500  1
  Li  Li4  1  0.37273900  0.80931700  0.74604700  1
  Li  Li5  1  0.13446800  0.44125100  0.25274400  1
  Li  Li6  1  0.86801200  0.55376100  0.73990600  1
  Li  Li7  1  0.35915300  0.31733300  0.74369300  1
  Li  Li8  1  0.26803200  0.37788000  0.50965200  1
  Mn  Mn0  1  0.00236200  0.00021900  0.00083700  1
  Mn  Mn1  1  0.74471000  0.13098200  0.50117200  1
  Co  Co0  1  0.49510100  0.25017200  0.99838500  1
  Co  Co1  1  0.99881800  0.49983200  0.99907700  1
  Co  Co2  1  0.75359900  0.61432400  0.49698400  1
  Co  Co3  1  0.50386400  0.75048200  0.00191600  1
  Co  Co4  1  0.23891900  0.87183900  0.49728800  1
  O  O0  1  0.60079300  0.96675600  0.12073700  1
  O  O1  1  0.27418500  0.08544100  0.60530700  1
  O  O2  1  0.07154900  0.21510100  0.11749700  1
  O  O3  1  0.06634600  0.71720300  0.11611200  1
  O  O4  1  0.83104300  0.82988400  0.60706400  1
  O  O5  1  0.56547000  0.46790800  0.11471600  1
  O  O6  1  0.34351300  0.59908200  0.61556700  1
  O  O7  1  0.81306900  0.32436000  0.61774700  1
  O  O8  1  0.65203800  0.91314000  0.38789200  1
  O  O9  1  0.40315200  0.03328400  0.87891600  1
  O  O10  1  0.21164100  0.15228800  0.39033500  1
  O  O11  1  0.17527300  0.66457300  0.38772600  1
  O  O12  1  0.93759300  0.78624600  0.88636000  1
  O  O13  1  0.69287500  0.43182300  0.38496100  1
  O  O14  1  0.43052900  0.53309000  0.88412200  1
  O  O15  1  0.93234100  0.28117100  0.88570100  1
loop_
_geom_bond_atom_site_label_1
_geom_bond_atom_site_label_2
_geom_bond_distance
_geom_bond_site_symmetry_2
Li0 O10 2.084449 1_565
Li0 O3 2.088920 1_555
Li0 O0 2.110953 1_455
Li0 O8 2.113602 1_555
Li0 O0 2.137602 1_555
Li0 O8 2.188162 1_455
Li1 O9 2.056785 1_655
Li1 O15 2.085848 1_555
Li1 O9 2.107092 1_555
Li1 O1 2.121621 1_655
Li1 O4 2.229496 1_545
Li1 O1 2.364273 1_555
Li2 O10 2.112769 1_555
Li2 O2 2.126536 1_655
Li2 O2 2.158365 1_555
Li2 O0 2.173159 1_545
Li2 O13 2.224310 1_555
Li2 O10 2.330257 1_655
Li3 O5 2.106729 1_555
Li3 O3 2.116946 1_655
Li3 O11 2.125002 1_555
Li3 O8 2.148848 1_555
Li3 O11 2.156004 1_655
Li3 O3 2.211623 1_555
Li4 O6 2.014332 1_555
Li4 O12 2.125847 1_455
Li4 O9 2.130367 1_565
Li4 O4 2.151402 1_555
Li4 O4 2.155559 1_455
Li4 O12 2.222328 1_555
Li5 O13 2.024431 1_455
Li5 O13 2.101567 1_555
Li5 O5 2.112172 1_555
Li5 O11 2.128753 1_555
Li5 O2 2.150214 1_555
Li5 O5 2.230257 1_455
Li6 O6 2.132806 1_555
Li6 O7 2.150816 1_555
Li6 O14 2.154692 1_555
Li6 O6 2.165622 1_655
Li6 O12 2.229489 1_555
Li6 O14 2.234827 1_655
Li7 O7 1.992795 1_555
Li7 O7 2.025709 1_455
Li7 O14 2.081896 1_555
Li7 O15 2.177588 1_455
Li7 O1 2.204008 1_555
Li7 O15 2.308465 1_555
Li8 O7 2.032941 1_455
Li8 O6 2.057859 1_555
Li8 O13 2.109622 1_555
Li8 O7 2.111275 1_555
Li8 O10 2.113626 1_555
Li8 O13 2.282449 1_455
Mn0 O0 1.929913 1_445
Mn0 O9 1.943622 1_554
Mn0 O12 2.006607 1_444
Mn0 O2 2.018076 1_555
Mn0 O0 2.205585 1_545
Mn0 O9 2.217944 1_454
Mn1 O7 1.840712 1_555
Mn1 O10 1.948430 1_655
Mn1 O10 1.954335 1_555
Mn1 O1 1.999019 1_555
Mn1 O1 2.013007 1_655
Mn1 O8 2.039191 1_545
Co0 O15 1.933630 1_555
Co0 O2 1.973822 1_556
Co0 O9 2.041273 1_555
Co0 O5 2.041651 1_556
Co0 O15 2.071691 1_455
Co0 O2 2.159144 1_656
Co1 O14 1.949237 1_655
Co1 O5 1.952706 1_556
Co1 O3 2.039731 1_656
Co1 O15 2.044843 1_555
Co1 O5 2.102352 1_656
Co1 O14 2.107556 1_555
Co2 O13 1.742177 1_555
Co2 O6 1.866607 1_555
Co2 O11 1.958943 1_655
Co2 O4 2.013757 1_555
Co2 O6 2.106872 1_655
Co2 O11 2.174107 1_555
Co3 O3 1.955309 1_555
Co3 O12 1.968570 1_554
Co3 O0 2.035529 1_555
Co3 O14 2.041306 1_554
Co3 O3 2.090142 1_655
Co3 O12 2.117846 1_454
Co4 O4 1.896580 1_455
Co4 O8 1.901088 1_555
Co4 O11 1.941525 1_555
Co4 O1 1.995438 1_565
Co4 O8 2.151661 1_455
Co4 O4 2.168694 1_555
