# generated using pymatgen
data_Ti4Cu2O
_symmetry_space_group_name_H-M   'P 1'
_cell_length_a   8.10945129
_cell_length_b   8.10945129
_cell_length_c   8.10945129
_cell_angle_alpha   60.00000000
_cell_angle_beta   60.00000000
_cell_angle_gamma   60.00000000
_symmetry_Int_Tables_number   1
_chemical_formula_structural   Ti4Cu2O
_chemical_formula_sum   'Ti16 Cu8 O4'
_cell_volume   377.10249951
_cell_formula_units_Z   4
loop_
 _symmetry_equiv_pos_site_id
 _symmetry_equiv_pos_as_xyz
  1  'x, y, z'
loop_
 _atom_site_type_symbol
 _atom_site_label
 _atom_site_symmetry_multiplicity
 _atom_site_fract_x
 _atom_site_fract_y
 _atom_site_fract_z
 _atom_site_occupancy
  Ti  Ti0  1  0.07014900  0.07014900  0.42985100  1
  Ti  Ti1  1  0.42985100  0.07014900  0.42985100  1
  Ti  Ti2  1  0.07014900  0.42985100  0.42985100  1
  Ti  Ti3  1  0.42985100  0.42985100  0.07014900  1
  Ti  Ti4  1  0.07014900  0.42985100  0.07014900  1
  Ti  Ti5  1  0.42985100  0.07014900  0.07014900  1
  Ti  Ti6  1  0.18476200  0.18476200  0.81523800  1
  Ti  Ti7  1  0.81523800  0.18476200  0.81523800  1
  Ti  Ti8  1  0.18476200  0.81523800  0.81523800  1
  Ti  Ti9  1  0.81523800  0.81523800  0.18476200  1
  Ti  Ti10  1  0.18476200  0.81523800  0.18476200  1
  Ti  Ti11  1  0.81523800  0.18476200  0.18476200  1
  Ti  Ti12  1  0.83349300  0.83349300  0.49952000  1
  Ti  Ti13  1  0.83349300  0.49952000  0.83349300  1
  Ti  Ti14  1  0.49952000  0.83349300  0.83349300  1
  Ti  Ti15  1  0.83349300  0.83349300  0.83349300  1
  Cu  Cu0  1  0.62085900  0.62085900  0.13742300  1
  Cu  Cu1  1  0.62085900  0.13742300  0.62085900  1
  Cu  Cu2  1  0.13742300  0.62085900  0.62085900  1
  Cu  Cu3  1  0.62085900  0.62085900  0.62085900  1
  Cu  Cu4  1  0.41527100  0.41527100  0.75418800  1
  Cu  Cu5  1  0.41527100  0.75418800  0.41527100  1
  Cu  Cu6  1  0.75418800  0.41527100  0.41527100  1
  Cu  Cu7  1  0.41527100  0.41527100  0.41527100  1
  O  O0  1  0.12455000  0.12455000  0.62635100  1
  O  O1  1  0.12455000  0.62635100  0.12455000  1
  O  O2  1  0.62635100  0.12455000  0.12455000  1
  O  O3  1  0.12455000  0.12455000  0.12455000  1
loop_
_geom_bond_atom_site_label_1
_geom_bond_atom_site_label_2
_geom_bond_distance
_geom_bond_site_symmetry_2
Cu0 Cu7 2.429513 1_555
Cu0 Cu5 2.429518 1_555
Cu0 Cu6 2.429518 1_555
Cu0 Ti15 2.548503 1_554
Cu0 Ti13 2.548507 1_554
Cu0 Ti14 2.548507 1_554
Cu0 Ti9 2.968480 1_555
Cu0 Ti10 2.968480 1_555
Cu0 Ti11 2.968480 1_555
Cu0 Ti5 3.030784 1_565
Cu0 Ti4 3.030784 1_655
Cu0 Ti3 3.030784 1_555
Cu1 Cu7 2.429513 1_555
Cu1 Cu4 2.429518 1_555
Cu1 Cu6 2.429518 1_555
Cu1 Ti15 2.548503 1_545
Cu1 Ti14 2.548507 1_545
Cu1 Ti12 2.548507 1_545
Cu1 Ti7 2.968480 1_555
Cu1 Ti6 2.968480 1_555
Cu1 Ti11 2.968480 1_555
Cu1 Ti5 3.030784 1_556
Cu1 Ti0 3.030784 1_655
Cu1 Ti1 3.030784 1_555
Cu2 Cu7 2.429513 1_555
Cu2 Cu4 2.429518 1_555
Cu2 Cu5 2.429518 1_555
Cu2 Ti15 2.548503 1_455
Cu2 Ti13 2.548507 1_455
Cu2 Ti12 2.548507 1_455
Cu2 Ti8 2.968480 1_555
Cu2 Ti6 2.968480 1_555
Cu2 Ti10 2.968480 1_555
Cu2 Ti4 3.030784 1_556
Cu2 Ti0 3.030784 1_565
Cu2 Ti2 3.030784 1_555
Cu3 Cu6 2.429511 1_555
Cu3 Cu4 2.429511 1_555
Cu3 Cu5 2.429511 1_555
Cu3 Ti13 2.548500 1_555
Cu3 Ti12 2.548500 1_555
Cu3 Ti14 2.548500 1_555
Cu3 Ti7 2.968480 1_555
Cu3 Ti8 2.968480 1_555
Cu3 Ti9 2.968480 1_555
Cu3 Ti3 3.030784 1_556
Cu3 Ti1 3.030784 1_565
Cu3 Ti2 3.030784 1_655
Cu4 Ti3 2.685716 1_556
Cu4 Ti5 2.685721 1_556
Cu4 Ti4 2.685721 1_556
Cu4 Cu5 2.748431 1_555
Cu4 Cu6 2.748431 1_555
Cu4 Cu7 2.748431 1_555
Cu4 Ti8 2.979432 1_555
Cu4 Ti7 2.979432 1_555
Cu4 Ti6 2.979439 1_555
Cu5 Ti1 2.685716 1_565
Cu5 Ti5 2.685721 1_565
Cu5 Ti0 2.685721 1_565
Cu5 Cu6 2.748431 1_555
Cu5 Cu7 2.748431 1_555
Cu5 Ti8 2.979432 1_555
Cu5 Ti9 2.979432 1_555
Cu5 Ti10 2.979439 1_555
Cu6 Ti2 2.685716 1_655
Cu6 Ti0 2.685721 1_655
Cu6 Ti4 2.685721 1_655
Cu6 Cu7 2.748431 1_555
Cu6 Ti9 2.979432 1_555
Cu6 Ti7 2.979432 1_555
Cu6 Ti11 2.979439 1_555
Cu7 Ti3 2.685724 1_555
Cu7 Ti2 2.685724 1_555
Cu7 Ti1 2.685724 1_555
Cu7 Ti6 2.979435 1_555
Cu7 Ti10 2.979435 1_555
Cu7 Ti11 2.979435 1_555
O0 Ti2 2.128169 1_555
O0 Ti1 2.128169 1_555
O0 Ti0 2.128175 1_555
O0 Ti6 2.134824 1_555
O0 Ti8 2.134830 1_545
O0 Ti7 2.134830 1_455
O1 Ti3 2.128169 1_555
O1 Ti2 2.128169 1_555
O1 Ti4 2.128175 1_555
O1 Ti10 2.134824 1_555
O1 Ti9 2.134830 1_455
O1 Ti8 2.134830 1_554
O2 Ti3 2.128169 1_555
O2 Ti1 2.128169 1_555
O2 Ti5 2.128175 1_555
O2 Ti11 2.134824 1_555
O2 Ti9 2.134830 1_545
O2 Ti7 2.134830 1_554
O3 Ti0 2.128167 1_555
O3 Ti4 2.128167 1_555
O3 Ti5 2.128167 1_555
O3 Ti10 2.134832 1_545
O3 Ti11 2.134832 1_455
O3 Ti6 2.134832 1_554
