# generated using pymatgen
data_CsMnCrF6
_symmetry_space_group_name_H-M   'P 1'
_cell_length_a   7.62414516
_cell_length_b   7.62414516
_cell_length_c   7.62414516
_cell_angle_alpha   120.97851123
_cell_angle_beta   119.89506986
_cell_angle_gamma   89.24770186
_symmetry_Int_Tables_number   1
_chemical_formula_structural   CsMnCrF6
_chemical_formula_sum   'Cs2 Mn2 Cr2 F12'
_cell_volume   311.23741664
_cell_formula_units_Z   2
loop_
 _symmetry_equiv_pos_site_id
 _symmetry_equiv_pos_as_xyz
  1  'x, y, z'
loop_
 _atom_site_type_symbol
 _atom_site_label
 _atom_site_symmetry_multiplicity
 _atom_site_fract_x
 _atom_site_fract_y
 _atom_site_fract_z
 _atom_site_occupancy
  Cs  Cs0  1  0.62141600  0.37141600  0.25000000  1
  Cs  Cs1  1  0.37858400  0.62858400  0.75000000  1
  Mn  Mn0  1  0.50000000  0.00000000  0.50000000  1
  Mn  Mn1  1  0.00000000  0.00000000  0.00000000  1
  Cr  Cr0  1  0.00000000  0.00000000  0.50000000  1
  Cr  Cr1  1  0.00000000  0.50000000  0.00000000  1
  F  F0  1  0.05708700  0.30708700  0.75000000  1
  F  F1  1  0.67052600  0.92052600  0.75000000  1
  F  F2  1  0.06194900  0.33447200  0.13838100  1
  F  F3  1  0.69609100  0.92356800  0.36161900  1
  F  F4  1  0.69609100  0.33447200  0.77252300  1
  F  F5  1  0.06194900  0.92356800  0.72747700  1
  F  F6  1  0.94291300  0.69291300  0.25000000  1
  F  F7  1  0.32947400  0.07947400  0.25000000  1
  F  F8  1  0.93805100  0.66552800  0.86161900  1
  F  F9  1  0.30390900  0.07643200  0.63838100  1
  F  F10  1  0.30390900  0.66552800  0.22747700  1
  F  F11  1  0.93805100  0.07643200  0.27252300  1
loop_
_geom_bond_atom_site_label_1
_geom_bond_atom_site_label_2
_geom_bond_distance
_geom_bond_site_symmetry_2
Cs0 F7 3.168365 1_555
Cs0 F9 3.279787 1_554
Cs0 F10 3.279787 1_555
Cs0 F8 3.279787 1_555
Cs0 F11 3.279787 1_555
Cs0 F6 3.489118 1_555
Cs1 F1 3.168365 1_555
Cs1 F5 3.279787 1_555
Cs1 F2 3.279787 1_555
Cs1 F4 3.279787 1_555
Cs1 F3 3.279787 1_556
Cs1 F0 3.489118 1_555
Cr0 F11 1.946055 1_455
Cr0 F9 1.946055 1_555
Cr0 F3 1.946055 1_445
Cr0 F5 1.946055 1_545
Cr0 F0 1.977343 1_555
Cr0 F6 1.977343 1_445
Cr1 F8 1.946055 1_454
Cr1 F10 1.946055 1_555
Cr1 F4 1.946055 1_454
Cr1 F2 1.946055 1_555
Cr1 F6 1.977343 1_455
Cr1 F0 1.977343 1_554
F1 Mn1 2.094857 1_666
F1 Mn0 2.094857 1_565
F2 Mn1 2.145765 1_555
F3 Mn0 2.145765 1_565
F4 Mn0 2.145765 1_555
F5 Mn1 2.145765 1_566
F7 Mn1 2.094857 1_555
F7 Mn0 2.094857 1_555
F8 Mn1 2.145765 1_666
F9 Mn0 2.145765 1_555
F10 Mn0 2.145765 1_565
F11 Mn1 2.145765 1_655
