# generated using pymatgen
data_Na2Ni3P2(HO5)2
_symmetry_space_group_name_H-M   'P 1'
_cell_length_a   4.98508002
_cell_length_b   5.74283200
_cell_length_c   7.78789026
_cell_angle_alpha   111.63563035
_cell_angle_beta   102.93212092
_cell_angle_gamma   90.00000000
_symmetry_Int_Tables_number   1
_chemical_formula_structural   Na2Ni3P2(HO5)2
_chemical_formula_sum   'Na2 Ni3 P2 H2 O10'
_cell_volume   201.15145841
_cell_formula_units_Z   1
loop_
 _symmetry_equiv_pos_site_id
 _symmetry_equiv_pos_as_xyz
  1  'x, y, z'
loop_
 _atom_site_type_symbol
 _atom_site_label
 _atom_site_symmetry_multiplicity
 _atom_site_fract_x
 _atom_site_fract_y
 _atom_site_fract_z
 _atom_site_occupancy
  Na  Na0  1  0.28432200  0.23510900  0.47021800  1
  Na  Na1  1  0.71567800  0.76489100  0.52978200  1
  Ni  Ni0  1  0.00000000  0.00000000  0.00000000  1
  Ni  Ni1  1  0.50000000  0.73177800  0.00000000  1
  Ni  Ni2  1  0.50000000  0.26822200  0.00000000  1
  P  P0  1  0.90380100  0.37622500  0.75245000  1
  P  P1  1  0.09619900  0.62377500  0.24755000  1
  H  H0  1  0.75238200  0.14015900  0.28031800  1
  H  H1  1  0.24761800  0.85984100  0.71968200  1
  O  O0  1  0.77112400  0.59291000  0.18582100  1
  O  O1  1  0.22887600  0.40709000  0.81417900  1
  O  O2  1  0.21734300  0.81212300  0.17368300  1
  O  O3  1  0.21734300  0.36156100  0.17368300  1
  O  O4  1  0.78265700  0.18787700  0.82631700  1
  O  O5  1  0.78265700  0.63843900  0.82631700  1
  O  O6  1  0.71099400  0.07053100  0.14106100  1
  O  O7  1  0.28900600  0.92946900  0.85893900  1
  O  O8  1  0.80938600  0.26683600  0.53367300  1
  O  O9  1  0.19061400  0.73316400  0.46632700  1
loop_
_geom_bond_atom_site_label_1
_geom_bond_atom_site_label_2
_geom_bond_distance
_geom_bond_site_symmetry_2
Na0 O8 2.517977 1_455
Na0 O8 2.546229 1_555
Na0 O1 2.570590 1_555
Na0 O2 2.619848 1_545
Na0 O3 2.619851 1_555
Na0 O9 2.908211 1_545
Na0 O9 2.908217 1_555
Na1 O9 2.517977 1_655
Na1 O9 2.546229 1_555
Na1 O0 2.570590 1_555
Na1 O4 2.619848 1_565
Na1 O5 2.619851 1_555
Na1 O8 2.908211 1_565
Na1 O8 2.908217 1_555
Ni0 O7 1.956240 1_544
Ni0 O6 1.956240 1_455
Ni0 O4 2.141925 1_454
Ni0 O2 2.141925 1_545
Ni0 O3 2.141929 1_555
Ni0 O5 2.141929 1_444
Ni1 O7 2.001152 1_554
Ni1 O6 2.001156 1_565
Ni1 O2 2.102575 1_555
Ni1 O5 2.102576 1_554
Ni1 O1 2.128983 1_554
Ni1 O0 2.128986 1_555
Ni2 O6 2.001152 1_555
Ni2 O7 2.001156 1_544
Ni2 O4 2.102575 1_554
Ni2 O3 2.102576 1_555
Ni2 O0 2.128983 1_555
Ni2 O1 2.128986 1_554
H0 O6 0.979134 1_555
H0 Na0 2.677009 1_655
H1 O7 0.979134 1_555
H1 Na1 2.677009 1_455
O0 P1 1.573879 1_655
O1 P0 1.573879 1_455
O2 P1 1.574787 1_555
O3 P1 1.574782 1_555
O4 P0 1.574787 1_555
O5 P0 1.574782 1_555
O8 P0 1.539782 1_555
O9 P1 1.539782 1_555
