# generated using pymatgen
data_Dy4MgRu
_symmetry_space_group_name_H-M   'P 1'
_cell_length_a   9.65905301
_cell_length_b   9.65899287
_cell_length_c   9.65911488
_cell_angle_alpha   59.99950353
_cell_angle_beta   59.99972226
_cell_angle_gamma   59.99929089
_symmetry_Int_Tables_number   1
_chemical_formula_structural   Dy4MgRu
_chemical_formula_sum   'Dy16 Mg4 Ru4'
_cell_volume   637.21187374
_cell_formula_units_Z   4
loop_
 _symmetry_equiv_pos_site_id
 _symmetry_equiv_pos_as_xyz
  1  'x, y, z'
loop_
 _atom_site_type_symbol
 _atom_site_label
 _atom_site_symmetry_multiplicity
 _atom_site_fract_x
 _atom_site_fract_y
 _atom_site_fract_z
 _atom_site_occupancy
  Dy  Dy0  1  0.34343341  0.34342673  0.34343553  1
  Dy  Dy1  1  0.34344194  0.34343576  0.96969044  1
  Dy  Dy2  1  0.34343621  0.96969917  0.34343894  1
  Dy  Dy3  1  0.96969645  0.34343269  0.34344215  1
  Dy  Dy4  1  0.81291374  0.18707513  0.18707847  1
  Dy  Dy5  1  0.18707951  0.81293317  0.81291125  1
  Dy  Dy6  1  0.18707836  0.81292045  0.18707759  1
  Dy  Dy7  1  0.81292670  0.18707657  0.81292059  1
  Dy  Dy8  1  0.18707946  0.18707523  0.81291074  1
  Dy  Dy9  1  0.81291531  0.81293065  0.18707917  1
  Dy  Dy10  1  0.93834944  0.56165027  0.56165541  1
  Dy  Dy11  1  0.56165419  0.93834365  0.93835162  1
  Dy  Dy12  1  0.56164822  0.93834889  0.56165367  1
  Dy  Dy13  1  0.93834411  0.56165592  0.93834729  1
  Dy  Dy14  1  0.56165255  0.56165292  0.93835111  1
  Dy  Dy15  1  0.93834931  0.93834524  0.56165623  1
  Mg  Mg0  1  0.57879891  0.57880189  0.57880190  1
  Mg  Mg1  1  0.57878618  0.57878878  0.26362491  1
  Mg  Mg2  1  0.57878624  0.26362172  0.57879004  1
  Mg  Mg3  1  0.26362226  0.57878880  0.57878886  1
  Ru  Ru0  1  0.13870688  0.13870419  0.13870378  1
  Ru  Ru1  1  0.13870649  0.13870396  0.58388519  1
  Ru  Ru2  1  0.13870619  0.58388555  0.13870326  1
  Ru  Ru3  1  0.58388795  0.13870366  0.13870286  1
loop_
_geom_bond_atom_site_label_1
_geom_bond_atom_site_label_2
_geom_bond_distance
_geom_bond_site_symmetry_2
Dy0 Ru1 2.817732 1_555
Dy0 Ru3 2.817772 1_555
Dy0 Ru2 2.817797 1_555
Dy0 Dy12 3.484638 1_545
Dy0 Dy10 3.484724 1_455
Dy0 Dy14 3.484752 1_554
Dy0 Mg2 3.548686 1_555
Dy0 Mg1 3.548709 1_555
Dy0 Mg3 3.548720 1_555
Dy1 Ru3 2.817779 1_556
Dy1 Ru2 2.817806 1_556
Dy1 Ru0 2.817843 1_556
Dy1 Dy11 3.484704 1_545
Dy1 Dy14 3.484719 1_555
Dy1 Dy13 3.484786 1_455
Dy1 Mg0 3.548675 1_555
Dy1 Mg2 3.548705 1_555
Dy1 Mg3 3.548730 1_555
Dy2 Ru1 2.817743 1_565
Dy2 Ru3 2.817778 1_565
Dy2 Ru0 2.817842 1_565
Dy2 Mg0 3.548688 1_555
Dy2 Mg1 3.548739 1_555
Dy2 Mg3 3.548746 1_555
Dy3 Ru1 2.817748 1_655
Dy3 Ru2 2.817813 1_655
Dy3 Ru0 2.817851 1_655
Dy3 Mg0 3.548720 1_555
Dy3 Mg2 3.548757 1_555
Dy3 Mg1 3.548767 1_555
Dy4 Ru3 2.759697 1_555
Dy4 Ru0 2.759878 1_655
Dy4 Mg1 3.541901 1_555
Dy4 Mg2 3.541934 1_555
Dy5 Ru1 2.759647 1_565
Dy5 Ru2 2.759871 1_556
Dy5 Mg0 3.541860 1_555
Dy5 Mg3 3.542016 1_555
Dy6 Ru2 2.759769 1_555
Dy6 Ru0 2.759769 1_565
Dy6 Mg1 3.541873 1_555
Dy6 Mg3 3.541912 1_555
Dy7 Ru1 2.759755 1_655
Dy7 Ru3 2.759793 1_556
Dy7 Mg0 3.541892 1_555
Dy7 Mg2 3.542048 1_555
Dy8 Ru1 2.759688 1_555
Dy8 Ru0 2.759906 1_556
Dy8 Mg2 3.541878 1_555
Dy8 Mg3 3.541894 1_555
Dy9 Ru3 2.759655 1_565
Dy9 Ru2 2.759833 1_655
Dy9 Mg0 3.541910 1_555
Dy9 Mg1 3.542030 1_555
Dy10 Mg0 3.315557 1_555
Dy10 Mg3 3.315620 1_655
Dy10 Ru1 3.480326 1_655
Dy10 Ru2 3.480423 1_655
Dy10 Dy3 3.484714 1_555
Dy10 Dy8 3.620692 1_655
Dy10 Dy7 3.620751 1_555
Dy10 Dy6 3.620793 1_655
Dy10 Dy9 3.620851 1_555
Dy10 Dy15 3.638497 1_555
Dy10 Dy13 3.638512 1_555
Dy10 Dy12 3.638514 1_555
Dy10 Dy14 3.638526 1_555
Dy11 Mg1 3.315645 1_556
Dy11 Mg2 3.315709 1_565
Dy11 Ru0 3.480345 1_566
Dy11 Ru3 3.480364 1_566
Dy11 Dy2 3.484776 1_556
Dy11 Dy9 3.620754 1_556
Dy11 Dy6 3.620790 1_556
Dy11 Dy7 3.620816 1_565
Dy11 Dy8 3.620851 1_565
Dy11 Dy13 3.638407 1_555
Dy11 Dy14 3.638463 1_555
Dy11 Dy15 3.638516 1_555
Dy11 Dy12 3.638572 1_555
Dy12 Mg0 3.315497 1_555
Dy12 Mg2 3.315615 1_565
Dy12 Ru1 3.480307 1_565
Dy12 Ru3 3.480394 1_565
Dy12 Dy2 3.484671 1_555
Dy12 Dy8 3.620675 1_565
Dy12 Dy5 3.620697 1_555
Dy12 Dy4 3.620749 1_565
Dy12 Dy9 3.620768 1_555
Dy12 Dy14 3.638506 1_555
Dy12 Dy15 3.638571 1_555
Dy13 Mg1 3.315703 1_556
Dy13 Mg3 3.315712 1_655
Dy13 Ru0 3.480363 1_656
Dy13 Ru2 3.480403 1_656
Dy13 Dy3 3.484820 1_556
Dy13 Dy9 3.620841 1_556
Dy13 Dy4 3.620845 1_556
Dy13 Dy5 3.620858 1_655
Dy13 Dy8 3.620866 1_655
Dy13 Dy15 3.638444 1_555
Dy13 Dy14 3.638480 1_555
Dy14 Mg0 3.315580 1_555
Dy14 Mg1 3.315636 1_556
Dy14 Ru3 3.480344 1_556
Dy14 Ru2 3.480357 1_556
Dy14 Dy4 3.620716 1_556
Dy14 Dy6 3.620744 1_556
Dy14 Dy7 3.620802 1_555
Dy14 Dy5 3.620832 1_555
Dy15 Mg3 3.315632 1_655
Dy15 Mg2 3.315687 1_565
Dy15 Ru1 3.480367 1_665
Dy15 Ru0 3.480409 1_665
Dy15 Dy3 3.484701 1_565
Dy15 Dy2 3.484747 1_655
Dy15 Dy5 3.620729 1_655
Dy15 Dy7 3.620773 1_565
Dy15 Dy6 3.620834 1_655
Dy15 Dy4 3.620871 1_565
Mg0 Mg3 3.044434 1_555
Mg0 Mg2 3.044441 1_555
Mg0 Mg1 3.044456 1_555
Mg1 Mg3 3.044182 1_555
Mg1 Mg2 3.044183 1_555
Mg2 Mg3 3.044158 1_555
