# generated using pymatgen
data_Sr2La14Mg4Ga12O43
_symmetry_space_group_name_H-M   'P 1'
_cell_length_a   5.56411014
_cell_length_b   5.58067283
_cell_length_c   44.34236611
_cell_angle_alpha   60.69811112
_cell_angle_beta   60.87332539
_cell_angle_gamma   60.40197047
_symmetry_Int_Tables_number   1
_chemical_formula_structural   Sr2La14Mg4Ga12O43
_chemical_formula_sum   'Sr2 La14 Mg4 Ga12 O43'
_cell_volume   988.03803164
_cell_formula_units_Z   1
loop_
 _symmetry_equiv_pos_site_id
 _symmetry_equiv_pos_as_xyz
  1  'x, y, z'
loop_
 _atom_site_type_symbol
 _atom_site_label
 _atom_site_symmetry_multiplicity
 _atom_site_fract_x
 _atom_site_fract_y
 _atom_site_fract_z
 _atom_site_occupancy
  Sr  Sr0  1  0.27210500  0.75977100  0.09038600  1
  Sr  Sr1  1  0.24919600  0.72591700  0.22764300  1
  La  La0  1  0.75879200  0.27254200  0.02615800  1
  La  La1  1  0.73571500  0.28643300  0.15492200  1
  La  La2  1  0.25620700  0.74448600  0.34286100  1
  La  La3  1  0.74020800  0.24174500  0.28669100  1
  La  La4  1  0.24102900  0.75117600  0.46882200  1
  La  La5  1  0.73918100  0.26076100  0.40576600  1
  La  La6  1  0.24921100  0.74821100  0.59351000  1
  La  La7  1  0.74591000  0.25341600  0.53075100  1
  La  La8  1  0.25092300  0.74908400  0.71823400  1
  La  La9  1  0.75122400  0.25367900  0.65526900  1
  La  La10  1  0.25309300  0.74904900  0.84265400  1
  La  La11  1  0.75157200  0.25425900  0.78003300  1
  La  La12  1  0.26010100  0.74669900  0.96659600  1
  La  La13  1  0.75169500  0.25813700  0.90413700  1
  Mg  Mg0  1  0.55726900  0.95878200  0.12467000  1
  Mg  Mg1  1  0.54863600  0.97012800  0.25294100  1
  Mg  Mg2  1  0.96134700  0.54973900  0.06109500  1
  Mg  Mg3  1  0.94160200  0.57812200  0.18800700  1
  Ga  Ga0  1  0.50901200  0.99436100  0.99863700  1
  Ga  Ga1  1  0.49363800  0.00293200  0.49988400  1
  Ga  Ga2  1  0.48398600  0.99896600  0.37610000  1
  Ga  Ga3  1  0.02157200  0.47008500  0.31539000  1
  Ga  Ga4  1  0.50038200  0.00061000  0.62464800  1
  Ga  Ga5  1  0.98495000  0.50530200  0.43762200  1
  Ga  Ga6  1  0.99843000  0.50122300  0.56219900  1
  Ga  Ga7  1  0.50289600  0.00415400  0.87353300  1
  Ga  Ga8  1  0.50160300  0.00167800  0.74930700  1
  Ga  Ga9  1  0.00076100  0.50147800  0.68701900  1
  Ga  Ga10  1  0.00266300  0.50223800  0.81151900  1
  Ga  Ga11  1  0.00582200  0.50488400  0.93551100  1
  O  O0  1  0.30913500  0.68315200  0.03101800  1
  O  O1  1  0.72198200  0.28416300  0.10222200  1
  O  O2  1  0.29511000  0.69425700  0.16398100  1
  O  O3  1  0.83228200  0.70437300  0.01950400  1
  O  O4  1  0.24849300  0.17597300  0.28854500  1
  O  O5  1  0.68664700  0.88001300  0.08034700  1
  O  O6  1  0.80443800  0.25302900  0.22682600  1
  O  O7  1  0.30650500  0.68188800  0.28344400  1
  O  O8  1  0.87374800  0.64747700  0.14525700  1
  O  O9  1  0.22195800  0.18016200  0.41572100  1
  O  O10  1  0.63885600  0.91352500  0.20681300  1
  O  O11  1  0.17374800  0.26123400  0.47715900  1
  O  O12  1  0.67565000  0.29798300  0.34934800  1
  O  O13  1  0.30244200  0.68153000  0.40658400  1
  O  O14  1  0.81432300  0.66977500  0.27968700  1
  O  O15  1  0.24577500  0.17681400  0.54055000  1
  O  O16  1  0.73580700  0.80908500  0.33753900  1
  O  O17  1  0.18234400  0.25943300  0.60197600  1
  O  O18  1  0.67102800  0.32088400  0.47103700  1
  O  O19  1  0.31369800  0.68415200  0.53054600  1
  O  O20  1  0.80669300  0.73337800  0.39859800  1
  O  O21  1  0.25076200  0.17756200  0.66514400  1
  O  O22  1  0.73728300  0.83361800  0.45917600  1
  O  O23  1  0.18254500  0.26030100  0.72679900  1
  O  O24  1  0.68202300  0.31764200  0.59496100  1
  O  O25  1  0.31764100  0.68362200  0.65537500  1
  O  O26  1  0.81446500  0.74139200  0.52264400  1
  O  O27  1  0.25185200  0.17801800  0.78971100  1
  O  O28  1  0.74818600  0.82406000  0.58443400  1
  O  O29  1  0.18630800  0.26341300  0.85092800  1
  O  O30  1  0.68353700  0.31850100  0.71965600  1
  O  O31  1  0.31895000  0.68514000  0.77986800  1
  O  O32  1  0.81890800  0.74160600  0.64747200  1
  O  O33  1  0.25783500  0.17894800  0.91385800  1
  O  O34  1  0.75002900  0.82552300  0.70909300  1
  O  O35  1  0.19629500  0.27572600  0.97449500  1
  O  O36  1  0.68756200  0.31771200  0.84433600  1
  O  O37  1  0.31651000  0.69107500  0.90395200  1
  O  O38  1  0.81972800  0.74225700  0.77213200  1
  O  O39  1  0.75049200  0.82605900  0.83358100  1
  O  O40  1  0.69989100  0.31111800  0.96978900  1
  O  O41  1  0.82059100  0.73415500  0.89647400  1
  O  O42  1  0.73921400  0.83122400  0.95728100  1
loop_
_geom_bond_atom_site_label_1
_geom_bond_atom_site_label_2
_geom_bond_distance
_geom_bond_site_symmetry_2
La0 O5 2.347551 1_545
La0 O35 2.397566 1_654
La0 O0 2.419127 1_555
La0 O3 2.494373 1_555
La0 O40 2.569530 1_554
La0 O0 3.200199 1_645
La1 O10 2.264824 1_545
La1 O8 2.279523 1_555
La1 O1 2.381301 1_555
La1 O2 2.403323 1_555
La2 O4 2.433689 1_565
La2 O12 2.438410 1_555
La2 O20 2.520601 1_455
La2 O7 2.688584 1_555
La2 O16 2.749689 1_555
La2 O13 2.796502 1_555
La2 O16 2.849687 1_455
La3 O16 2.364358 1_545
La3 O7 2.452405 1_555
La3 O14 2.468727 1_555
La3 O6 2.472534 1_555
La3 O4 2.703942 1_655
La3 O12 2.778023 1_555
La3 O4 2.893174 1_555
La3 O7 3.159859 1_645
La3 O14 3.162375 1_545
La4 O9 2.400317 1_565
La4 O26 2.412110 1_455
La4 O18 2.413066 1_555
La4 O11 2.764000 1_555
La4 O19 2.778555 1_555
La4 O13 2.808010 1_555
La4 O22 2.816289 1_555
La4 O22 2.819834 1_455
La4 O11 2.867375 1_565
La5 O22 2.401231 1_545
La5 O13 2.404429 1_555
La5 O12 2.589661 1_555
La5 O20 2.690828 1_555
La5 O9 2.716509 1_655
La6 O15 2.395163 1_565
La6 O24 2.420898 1_555
La6 O32 2.425509 1_455
La6 O17 2.753904 1_555
La6 O25 2.777343 1_555
La6 O28 2.805801 1_455
La6 O19 2.815437 1_555
La6 O28 2.820584 1_555
La6 O17 2.877946 1_565
La7 O11 2.410422 1_655
La7 O28 2.413361 1_545
La7 O19 2.418924 1_555
La7 O18 2.696237 1_555
La7 O26 2.761367 1_555
La7 O15 2.815554 1_655
La7 O15 2.816342 1_555
La7 O26 2.869661 1_545
La7 O24 2.872155 1_555
La8 O21 2.397858 1_565
La8 O30 2.420335 1_555
La8 O38 2.426683 1_455
La8 O23 2.756812 1_555
La8 O31 2.767468 1_555
La8 O34 2.805327 1_455
La8 O25 2.809956 1_555
La8 O34 2.821990 1_555
La8 O23 2.876790 1_565
La9 O17 2.413114 1_655
La9 O34 2.413256 1_545
La9 O25 2.420572 1_555
La9 O24 2.712797 1_555
La9 O32 2.764167 1_555
La9 O21 2.815265 1_555
La9 O21 2.816763 1_655
La9 O32 2.864456 1_545
La9 O30 2.872934 1_555
La10 O27 2.395978 1_565
La10 O36 2.428052 1_555
La10 O41 2.430250 1_455
La10 O29 2.739815 1_555
La10 O37 2.752703 1_555
La10 O31 2.803974 1_555
La10 O39 2.811747 1_455
La10 O39 2.815643 1_555
La10 O29 2.890829 1_565
La11 O39 2.407240 1_545
La11 O23 2.411448 1_655
La11 O31 2.420480 1_555
La11 O30 2.711567 1_555
La11 O38 2.764086 1_555
La11 O27 2.815079 1_555
La11 O27 2.815658 1_655
La11 O38 2.865476 1_545
La11 O36 2.873594 1_555
La12 O33 2.401001 1_565
La12 O3 2.408882 1_456
La12 O40 2.457943 1_555
La12 O35 2.656413 1_555
La12 O42 2.734840 1_555
La12 O37 2.794636 1_555
La12 O0 2.834084 1_556
La12 O42 2.901256 1_455
La12 O35 2.969967 1_565
La12 O41 3.155391 1_555
La12 O40 3.156870 1_465
La13 O42 2.396427 1_545
La13 O29 2.421480 1_655
La13 O37 2.433437 1_555
La13 O36 2.685237 1_555
La13 O41 2.704628 1_555
La13 O33 2.791426 1_555
La13 O33 2.842195 1_655
La13 O41 2.924321 1_545
La13 O40 2.930331 1_555
Mg0 O5 1.931307 1_555
Mg0 O8 1.985680 1_555
Mg0 O1 2.028469 1_565
Mg0 O2 2.116276 1_555
Mg1 O14 1.927363 1_555
Mg1 O4 1.978528 1_565
Mg1 O10 2.002940 1_555
Mg1 O7 2.114052 1_555
Mg1 O6 2.164497 1_565
Mg2 O3 1.944469 1_555
Mg2 O5 1.987261 1_555
Mg2 O0 2.004156 1_655
Mg2 O1 2.058162 1_555
Mg3 O8 1.928727 1_555
Mg3 O6 1.966981 1_555
Mg3 O2 1.991843 1_655
Mg3 O10 2.020453 1_555
Ga0 O3 1.997382 1_556
Ga0 O42 2.006998 1_555
Ga0 O35 2.026871 1_565
Ga0 O40 2.051293 1_565
Ga0 O0 2.056064 1_556
Ga1 O22 2.002724 1_545
Ga1 O18 2.009526 1_555
Ga1 O11 2.012738 1_555
Ga1 O15 2.016207 1_555
Ga1 O26 2.018350 1_545
Ga1 O19 2.020543 1_545
Ga2 O12 1.979369 1_565
Ga2 O16 1.996097 1_555
Ga2 O9 2.005959 1_565
Ga2 O13 2.019983 1_555
Ga2 O20 2.020814 1_555
Ga3 O14 1.964413 1_455
Ga3 O7 1.985752 1_555
Ga3 O4 2.026657 1_555
Ga3 O16 2.097355 1_455
Ga3 O12 2.117451 1_455
Ga4 O17 2.003518 1_555
Ga4 O28 2.008952 1_545
Ga4 O32 2.009560 1_545
Ga4 O24 2.018932 1_555
Ga4 O21 2.020315 1_555
Ga4 O25 2.022027 1_545
Ga5 O20 1.966220 1_555
Ga5 O13 2.001655 1_655
Ga5 O18 2.017242 1_555
Ga5 O11 2.018520 1_655
Ga5 O9 2.022122 1_655
Ga5 O22 2.026647 1_555
Ga6 O26 2.003003 1_555
Ga6 O17 2.010578 1_655
Ga6 O15 2.011712 1_655
Ga6 O19 2.014691 1_655
Ga6 O28 2.020155 1_555
Ga6 O24 2.023518 1_555
Ga7 O29 1.995687 1_555
Ga7 O39 2.004792 1_545
Ga7 O33 2.006989 1_555
Ga7 O41 2.012220 1_545
Ga7 O36 2.014332 1_555
Ga7 O37 2.017162 1_545
Ga8 O23 2.003654 1_555
Ga8 O34 2.007708 1_545
Ga8 O38 2.007954 1_545
Ga8 O27 2.015098 1_555
Ga8 O30 2.019032 1_555
Ga8 O31 2.019739 1_545
Ga9 O32 1.995614 1_455
Ga9 O23 2.003568 1_555
Ga9 O21 2.015536 1_555
Ga9 O25 2.019095 1_555
Ga9 O34 2.021322 1_455
Ga9 O30 2.024805 1_455
Ga10 O38 1.993607 1_455
Ga10 O29 1.996856 1_555
Ga10 O27 2.015090 1_555
Ga10 O31 2.019035 1_555
Ga10 O39 2.020142 1_455
Ga10 O36 2.021127 1_455
Ga11 O41 1.990444 1_455
Ga11 O37 2.005615 1_555
Ga11 O35 2.006895 1_555
Ga11 O40 2.016919 1_455
Ga11 O33 2.018905 1_555
Ga11 O42 2.026639 1_455
O0 Sr0 2.764448 1_555
O1 Sr0 2.634101 1_555
O2 Sr1 2.794091 1_555
O4 Sr1 2.932751 1_555
O5 Sr0 2.491113 1_555
O6 Sr1 2.751470 1_645
O6 Sr1 2.905369 1_555
O7 Sr1 2.525874 1_555
O8 Sr0 2.419767 1_655
O10 Sr1 2.448732 1_555
O14 Sr1 2.425682 1_655
