# generated using pymatgen
data_VCrO3
_symmetry_space_group_name_H-M   'P 1'
_cell_length_a   5.10928500
_cell_length_b   5.50969096
_cell_length_c   8.85979453
_cell_angle_alpha   105.59203230
_cell_angle_beta   89.85997116
_cell_angle_gamma   117.58434768
_symmetry_Int_Tables_number   1
_chemical_formula_structural   VCrO3
_chemical_formula_sum   'V4 Cr4 O12'
_cell_volume   210.73717215
_cell_formula_units_Z   4
loop_
 _symmetry_equiv_pos_site_id
 _symmetry_equiv_pos_as_xyz
  1  'x, y, z'
loop_
 _atom_site_type_symbol
 _atom_site_label
 _atom_site_symmetry_multiplicity
 _atom_site_fract_x
 _atom_site_fract_y
 _atom_site_fract_z
 _atom_site_occupancy
  V  V0  1  0.72297000  0.87622900  0.57196200  1
  V  V1  1  0.22482200  0.37017300  0.07664500  1
  V  V2  1  0.02549000  0.37695200  0.67624900  1
  V  V3  1  0.27675100  0.12936400  0.42486900  1
  Cr  Cr0  1  0.52212400  0.87136800  0.17292000  1
  Cr  Cr1  1  0.97548100  0.62863700  0.32484200  1
  Cr  Cr2  1  0.47721600  0.12620800  0.82639200  1
  Cr  Cr3  1  0.77479200  0.62363400  0.92555300  1
  O  O0  1  0.77737300  0.52650100  0.72498100  1
  O  O1  1  0.27627700  0.02327400  0.22323600  1
  O  O2  1  0.81911300  0.87422800  0.37285100  1
  O  O3  1  0.67916000  0.62507400  0.12558800  1
  O  O4  1  0.22440300  0.77573400  0.97324200  1
  O  O5  1  0.72271700  0.28044200  0.47206000  1
  O  O6  1  0.27513700  0.72208000  0.52616900  1
  O  O7  1  0.77454000  0.22166600  0.02613500  1
  O  O8  1  0.32633100  0.37469200  0.87689900  1
  O  O9  1  0.17912500  0.12644000  0.62619700  1
  O  O10  1  0.72332400  0.97215600  0.77605000  1
  O  O11  1  0.22285500  0.47514900  0.27716100  1
loop_
_geom_bond_atom_site_label_1
_geom_bond_atom_site_label_2
_geom_bond_distance
_geom_bond_site_symmetry_2
Cr0 O1 1.802034 1_565
Cr0 O3 1.833532 1_555
Cr0 O4 2.119200 1_554
Cr0 O2 2.327320 1_555
Cr0 O11 2.437668 1_555
Cr0 O7 2.472944 1_565
Cr1 O11 1.812811 1_655
Cr1 O2 1.827644 1_555
Cr1 O6 2.140196 1_655
Cr1 O3 2.318602 1_555
Cr1 O1 2.418831 1_665
Cr1 O5 2.468186 1_555
Cr2 O10 1.811815 1_545
Cr2 O8 1.820804 1_555
Cr2 O7 2.118716 1_556
Cr2 O9 2.341328 1_555
Cr2 O0 2.439154 1_555
Cr2 O4 2.474349 1_545
Cr3 O0 1.714523 1_555
Cr3 O3 1.836175 1_556
Cr3 O8 2.023283 1_555
Cr3 O4 2.046812 1_655
O0 V2 1.801623 1_655
O1 V3 1.723476 1_555
O2 V0 1.828588 1_555
O2 V3 2.066073 1_665
O3 V1 2.051185 1_555
O5 V3 2.029929 1_555
O5 V2 2.164098 1_655
O6 V0 2.034932 1_555
O6 V2 2.472968 1_555
O7 V1 2.056081 1_655
O8 V1 1.846271 1_556
O8 V2 2.359245 1_555
O9 V2 1.841343 1_555
O9 V3 1.853211 1_555
O9 V0 2.058403 1_445
O10 V0 1.741907 1_555
O11 V1 1.715699 1_555
