# generated using pymatgen
data_Zr5Ir2Os
_symmetry_space_group_name_H-M   'P 1'
_cell_length_a   8.05636217
_cell_length_b   8.05636217
_cell_length_c   5.58626800
_cell_angle_alpha   90.00000000
_cell_angle_beta   90.00000000
_cell_angle_gamma   120.13015298
_symmetry_Int_Tables_number   1
_chemical_formula_structural   Zr5Ir2Os
_chemical_formula_sum   'Zr10 Ir4 Os2'
_cell_volume   313.58789170
_cell_formula_units_Z   2
loop_
 _symmetry_equiv_pos_site_id
 _symmetry_equiv_pos_as_xyz
  1  'x, y, z'
loop_
 _atom_site_type_symbol
 _atom_site_label
 _atom_site_symmetry_multiplicity
 _atom_site_fract_x
 _atom_site_fract_y
 _atom_site_fract_z
 _atom_site_occupancy
  Zr  Zr0  1  0.66651200  0.33253800  0.25077700  1
  Zr  Zr1  1  0.33253800  0.66651200  0.25077700  1
  Zr  Zr2  1  0.33253800  0.66651200  0.74922300  1
  Zr  Zr3  1  0.66651200  0.33253800  0.74922300  1
  Zr  Zr4  1  0.76092800  0.00479300  0.50000000  1
  Zr  Zr5  1  0.00479300  0.76092800  0.50000000  1
  Zr  Zr6  1  0.24023700  0.24023700  0.50000000  1
  Zr  Zr7  1  0.24065300  0.99895200  0.00000000  1
  Zr  Zr8  1  0.99895200  0.24065300  0.00000000  1
  Zr  Zr9  1  0.75745700  0.75745700  0.00000000  1
  Ir  Ir0  1  0.60060800  0.60060800  0.50000000  1
  Ir  Ir1  1  0.60041500  0.99901000  0.00000000  1
  Ir  Ir2  1  0.99901000  0.60041500  0.00000000  1
  Ir  Ir3  1  0.39872400  0.39872400  0.00000000  1
  Os  Os0  1  0.40068600  0.99960600  0.50000000  1
  Os  Os1  1  0.99960600  0.40068600  0.50000000  1
loop_
_geom_bond_atom_site_label_1
_geom_bond_atom_site_label_2
_geom_bond_distance
_geom_bond_site_symmetry_2
Ir0 Zr2 2.834704 1_555
Ir0 Zr3 2.834704 1_555
Ir0 Zr0 2.834704 1_555
Ir0 Zr1 2.834704 1_555
Ir0 Zr5 2.837101 1_655
Ir0 Zr4 2.837101 1_565
Ir0 Zr6 2.897566 1_555
Ir0 Zr9 3.064651 1_556
Ir0 Zr9 3.064651 1_555
Ir1 Zr8 2.797087 1_565
Ir1 Zr9 2.803489 1_555
Ir1 Zr1 2.826984 1_555
Ir1 Zr2 2.826984 1_554
Ir1 Zr0 2.833676 1_565
Ir1 Zr3 2.833676 1_564
Ir1 Zr7 2.898138 1_555
Ir1 Zr4 3.068472 1_565
Ir1 Zr4 3.068472 1_564
Ir2 Zr7 2.797087 1_655
Ir2 Zr9 2.803489 1_555
Ir2 Zr0 2.826984 1_555
Ir2 Zr3 2.826984 1_554
Ir2 Zr1 2.833676 1_655
Ir2 Zr2 2.833676 1_654
Ir2 Zr8 2.898138 1_555
Ir2 Zr5 3.068472 1_655
Ir2 Zr5 3.068472 1_654
Ir3 Zr8 2.806613 1_455
Ir3 Zr7 2.806613 1_545
Ir3 Zr1 2.838329 1_555
Ir3 Zr0 2.838329 1_555
Ir3 Zr2 2.838329 1_554
Ir3 Zr3 2.838329 1_554
Ir3 Zr9 2.884396 1_555
Ir3 Zr6 3.070094 1_554
Ir3 Zr6 3.070094 1_555
Os0 Zr5 2.777237 1_555
Os0 Zr6 2.818667 1_565
Os0 Zr3 2.819966 1_565
Os0 Zr0 2.819966 1_565
Os0 Zr2 2.821687 1_555
Os0 Zr1 2.821687 1_555
Os0 Zr4 2.881490 1_565
Os0 Zr7 3.075233 1_555
Os0 Zr7 3.075233 1_556
Os1 Zr4 2.777237 1_555
Os1 Zr6 2.818667 1_655
Os1 Zr2 2.819966 1_655
Os1 Zr1 2.819966 1_655
Os1 Zr3 2.821687 1_555
Os1 Zr0 2.821687 1_555
Os1 Zr5 2.881490 1_655
Os1 Zr8 3.075233 1_555
Os1 Zr8 3.075233 1_556
