# generated using pymatgen
data_BaZnWF7
_symmetry_space_group_name_H-M   'P 1'
_cell_length_a   10.32691100
_cell_length_b   5.82437200
_cell_length_c   9.99559688
_cell_angle_alpha   87.43676371
_cell_angle_beta   90.00000000
_cell_angle_gamma   90.00000000
_symmetry_Int_Tables_number   1
_chemical_formula_structural   BaZnWF7
_chemical_formula_sum   'Ba4 Zn4 W4 F28'
_cell_volume   600.61134425
_cell_formula_units_Z   4
loop_
 _symmetry_equiv_pos_site_id
 _symmetry_equiv_pos_as_xyz
  1  'x, y, z'
loop_
 _atom_site_type_symbol
 _atom_site_label
 _atom_site_symmetry_multiplicity
 _atom_site_fract_x
 _atom_site_fract_y
 _atom_site_fract_z
 _atom_site_occupancy
  Ba  Ba0  1  0.32688100  0.73553800  0.49621900  1
  Ba  Ba1  1  0.82688100  0.26446200  0.00378100  1
  Ba  Ba2  1  0.67311900  0.26446200  0.50378100  1
  Ba  Ba3  1  0.17311900  0.73553800  0.99621900  1
  Zn  Zn0  1  0.39667300  0.31218900  0.81075900  1
  Zn  Zn1  1  0.89667300  0.68781100  0.68924100  1
  Zn  Zn2  1  0.10332700  0.31218900  0.31075900  1
  Zn  Zn3  1  0.60332700  0.68781100  0.18924100  1
  W  W0  1  0.61159500  0.80478600  0.81611100  1
  W  W1  1  0.38840500  0.19521400  0.18388900  1
  W  W2  1  0.88840500  0.80478600  0.31611100  1
  W  W3  1  0.11159500  0.19521400  0.68388900  1
  F  F0  1  0.44973700  0.87033900  0.12039800  1
  F  F1  1  0.06038000  0.63120700  0.37654500  1
  F  F2  1  0.71170400  0.50916000  0.75215700  1
  F  F3  1  0.28829600  0.49084000  0.24784300  1
  F  F4  1  0.46025700  0.10139200  0.37474400  1
  F  F5  1  0.80174000  0.73593100  0.50776500  1
  F  F6  1  0.78483100  0.97334300  0.75096900  1
  F  F7  1  0.96025700  0.89860800  0.12525600  1
  F  F8  1  0.43962000  0.63120700  0.87654500  1
  F  F9  1  0.21170400  0.49084000  0.74784300  1
  F  F10  1  0.05026300  0.87033900  0.62039800  1
  F  F11  1  0.55026300  0.12966100  0.87960200  1
  F  F12  1  0.28483100  0.02665700  0.74903100  1
  F  F13  1  0.95778400  0.60060900  0.87048000  1
  F  F14  1  0.53974300  0.89860800  0.62525600  1
  F  F15  1  0.03974300  0.10139200  0.87474400  1
  F  F16  1  0.21516900  0.02665700  0.24903100  1
  F  F17  1  0.94973700  0.12966100  0.37960200  1
  F  F18  1  0.45778400  0.39939100  0.62952000  1
  F  F19  1  0.93962000  0.36879300  0.62345500  1
  F  F20  1  0.04221600  0.39939100  0.12952000  1
  F  F21  1  0.71516900  0.97334300  0.25096900  1
  F  F22  1  0.54221600  0.60060900  0.37048000  1
  F  F23  1  0.30174000  0.26406900  0.99223500  1
  F  F24  1  0.19826000  0.26406900  0.49223500  1
  F  F25  1  0.69826000  0.73593100  0.00776500  1
  F  F26  1  0.56038000  0.36879300  0.12345500  1
  F  F27  1  0.78829600  0.50916000  0.25215700  1
loop_
_geom_bond_atom_site_label_1
_geom_bond_atom_site_label_2
_geom_bond_distance
_geom_bond_site_symmetry_2
Ba0 F18 2.683767 1_555
Ba0 F22 2.688983 1_555
Ba0 F14 2.739956 1_555
Ba0 F4 2.771395 1_565
Ba0 F3 2.944506 1_555
Ba0 F24 3.052247 1_555
Ba0 F1 3.072365 1_555
Ba0 F9 3.074284 1_555
Ba0 F12 3.135696 1_565
Ba0 F16 3.152140 1_565
Ba0 F10 3.225601 1_555
Ba0 F24 3.351298 1_565
Ba1 F13 2.683767 1_554
Ba1 F20 2.688983 1_655
Ba1 F15 2.739956 1_654
Ba1 F7 2.771395 1_545
Ba1 F27 2.944506 1_555
Ba1 F25 3.052247 1_555
Ba1 F26 3.072365 1_555
Ba1 F2 3.074284 1_554
Ba1 F6 3.135696 1_544
Ba1 F21 3.152140 1_545
Ba1 F11 3.225601 1_554
Ba1 F25 3.351298 1_545
Ba2 F22 2.683767 1_555
Ba2 F18 2.688983 1_555
Ba2 F4 2.739956 1_555
Ba2 F14 2.771395 1_545
Ba2 F2 2.944506 1_555
Ba2 F5 3.052247 1_555
Ba2 F19 3.072365 1_555
Ba2 F27 3.074284 1_555
Ba2 F21 3.135696 1_545
Ba2 F6 3.152140 1_545
Ba2 F17 3.225601 1_555
Ba2 F5 3.351298 1_545
Ba3 F20 2.683767 1_556
Ba3 F13 2.688983 1_455
Ba3 F7 2.739956 1_456
Ba3 F15 2.771395 1_565
Ba3 F9 2.944506 1_555
Ba3 F23 3.052247 1_555
Ba3 F8 3.072365 1_555
Ba3 F3 3.074284 1_556
Ba3 F16 3.135696 1_566
Ba3 F12 3.152140 1_565
Ba3 F0 3.225601 1_556
Ba3 F23 3.351298 1_565
F0 Zn3 2.013464 1_555
F0 W1 2.119367 1_565
F1 Zn2 2.047155 1_555
F1 W2 2.118124 1_455
F2 W0 2.130868 1_555
F2 Zn1 2.251304 1_555
F3 W1 2.130868 1_555
F3 Zn2 2.251304 1_555
F4 W1 2.096498 1_555
F5 Zn1 2.069939 1_555
F5 W2 2.136118 1_555
F6 W0 2.128639 1_555
F6 Zn1 2.138266 1_555
F7 W2 2.096498 1_555
F8 Zn0 2.047155 1_555
F8 W0 2.118124 1_555
F9 W3 2.130868 1_555
F9 Zn0 2.251304 1_555
F10 Zn1 2.013464 1_455
F10 W3 2.119367 1_565
F11 Zn0 2.013464 1_555
F11 W0 2.119367 1_545
F12 W3 2.128639 1_555
F12 Zn0 2.138266 1_555
F13 Zn1 1.963619 1_555
F14 W0 2.096498 1_555
F15 W3 2.096498 1_555
F16 W1 2.128639 1_555
F16 Zn2 2.138266 1_555
F17 Zn2 2.013464 1_655
F17 W2 2.119367 1_545
F18 Zn0 1.963619 1_555
F19 Zn1 2.047155 1_555
F19 W3 2.118124 1_655
F20 Zn2 1.963619 1_555
F21 W2 2.128639 1_555
F21 Zn3 2.138266 1_555
F22 Zn3 1.963619 1_555
F23 Zn0 2.069939 1_555
F23 W1 2.136118 1_556
F24 Zn2 2.069939 1_555
F24 W3 2.136118 1_555
F25 Zn3 2.069939 1_555
F25 W0 2.136118 1_554
F26 Zn3 2.047155 1_555
F26 W1 2.118124 1_555
F27 W2 2.130868 1_555
F27 Zn3 2.251304 1_555
