# generated using pymatgen
data_Fe(BO2)2
_symmetry_space_group_name_H-M   'P 1'
_cell_length_a   5.45047177
_cell_length_b   6.07202731
_cell_length_c   7.15696279
_cell_angle_alpha   86.12148828
_cell_angle_beta   101.78264828
_cell_angle_gamma   74.62456613
_symmetry_Int_Tables_number   1
_chemical_formula_structural   Fe(BO2)2
_chemical_formula_sum   'Fe4 B8 O16'
_cell_volume   221.70420321
_cell_formula_units_Z   4
loop_
 _symmetry_equiv_pos_site_id
 _symmetry_equiv_pos_as_xyz
  1  'x, y, z'
loop_
 _atom_site_type_symbol
 _atom_site_label
 _atom_site_symmetry_multiplicity
 _atom_site_fract_x
 _atom_site_fract_y
 _atom_site_fract_z
 _atom_site_occupancy
  Fe  Fe0  1  0.67738946  0.32265448  0.04834517  1
  Fe  Fe1  1  0.32253094  0.67741122  0.95166613  1
  Fe  Fe2  1  0.17743012  0.82262453  0.54832824  1
  Fe  Fe3  1  0.82261635  0.17733380  0.45167303  1
  B  B0  1  0.28569968  0.08380373  0.20845405  1
  B  B1  1  0.78568125  0.58378933  0.70843950  1
  B  B2  1  0.35538958  0.27606108  0.64527478  1
  B  B3  1  0.85538969  0.77602988  0.14525638  1
  B  B4  1  0.71429755  0.91621104  0.79152793  1
  B  B5  1  0.21431940  0.41619743  0.29156504  1
  B  B6  1  0.64461353  0.72393790  0.35473324  1
  B  B7  1  0.14461967  0.22395727  0.85473812  1
  O  O0  1  0.84103370  0.86005284  0.33705880  1
  O  O1  1  0.34104717  0.36007908  0.83707848  1
  O  O2  1  0.05129094  0.24420590  0.25641223  1
  O  O3  1  0.55127786  0.74421217  0.75638812  1
  O  O4  1  0.15895767  0.13994407  0.66293643  1
  O  O5  1  0.65895059  0.63993731  0.16292356  1
  O  O6  1  0.94870162  0.75579127  0.74358829  1
  O  O7  1  0.44873772  0.25578468  0.24363132  1
  O  O8  1  0.39072579  0.88001787  0.34883458  1
  O  O9  1  0.89069601  0.38000852  0.84885093  1
  O  O10  1  0.26222872  0.46019189  0.48880101  1
  O  O11  1  0.76224774  0.96019908  0.98880549  1
  O  O12  1  0.60931417  0.12000454  0.65114268  1
  O  O13  1  0.10928852  0.61996869  0.15115858  1
  O  O14  1  0.73775466  0.53976429  0.51117705  1
  O  O15  1  0.23777088  0.03982011  0.01121084  1
loop_
_geom_bond_atom_site_label_1
_geom_bond_atom_site_label_2
_geom_bond_distance
_geom_bond_site_symmetry_2
Fe0 O1 2.073439 1_554
Fe0 O9 2.082516 1_554
Fe0 O5 2.130460 1_555
Fe0 O7 2.138785 1_555
Fe0 O2 2.178870 1_655
Fe0 O11 2.215122 1_544
Fe1 O5 2.073649 1_556
Fe1 O13 2.082391 1_556
Fe1 O1 2.130716 1_555
Fe1 O3 2.139013 1_555
Fe1 O6 2.178648 1_455
Fe1 O15 2.214873 1_566
Fe2 O0 2.073654 1_455
Fe2 O8 2.082533 1_555
Fe2 O4 2.130740 1_565
Fe2 O6 2.138897 1_455
Fe2 O3 2.178646 1_555
Fe2 O10 2.214969 1_555
Fe3 O4 2.073459 1_655
Fe3 O12 2.082319 1_555
Fe3 O0 2.130579 1_545
Fe3 O2 2.138747 1_655
Fe3 O7 2.178690 1_555
Fe3 O14 2.214901 1_555
B0 O15 1.438664 1_555
B0 O8 1.445532 1_545
B0 O2 1.504402 1_555
B0 O7 1.542677 1_555
B1 O14 1.438870 1_555
B1 O9 1.445632 1_555
B1 O3 1.504405 1_555
B1 O6 1.542696 1_555
B2 O10 1.435033 1_555
B2 O12 1.445885 1_555
B2 O1 1.506049 1_555
B2 O4 1.534848 1_555
B3 O11 1.435075 1_554
B3 O13 1.445735 1_655
B3 O0 1.506063 1_555
B3 O5 1.534783 1_555
B4 O11 1.438910 1_555
B4 O12 1.445577 1_565
B4 O6 1.504371 1_555
B4 O3 1.542672 1_555
B5 O10 1.438630 1_555
B5 O13 1.445574 1_555
B5 O7 1.504390 1_555
B5 O2 1.542677 1_555
B6 O14 1.435058 1_555
B6 O8 1.445739 1_555
B6 O5 1.506044 1_555
B6 O0 1.534802 1_555
B7 O15 1.435053 1_556
B7 O9 1.445839 1_455
B7 O4 1.506021 1_555
B7 O1 1.534846 1_555
