# generated using pymatgen
data_SrMgSi
_symmetry_space_group_name_H-M   'P 1'
_cell_length_a   4.59551364
_cell_length_b   7.81954387
_cell_length_c   8.46367020
_cell_angle_alpha   90.00000000
_cell_angle_beta   90.00000000
_cell_angle_gamma   90.00000000
_symmetry_Int_Tables_number   1
_chemical_formula_structural   SrMgSi
_chemical_formula_sum   'Sr4 Mg4 Si4'
_cell_volume   304.14046952
_cell_formula_units_Z   4
loop_
 _symmetry_equiv_pos_site_id
 _symmetry_equiv_pos_as_xyz
  1  'x, y, z'
loop_
 _atom_site_type_symbol
 _atom_site_label
 _atom_site_symmetry_multiplicity
 _atom_site_fract_x
 _atom_site_fract_y
 _atom_site_fract_z
 _atom_site_occupancy
  Sr  Sr0  1  0.25000000  0.01459122  0.81582212  1
  Sr  Sr1  1  0.25000000  0.51459122  0.68417788  1
  Sr  Sr2  1  0.75000000  0.48540878  0.31582212  1
  Sr  Sr3  1  0.75000000  0.98540878  0.18417788  1
  Mg  Mg0  1  0.75000000  0.35653688  0.93596352  1
  Mg  Mg1  1  0.25000000  0.64346312  0.06403648  1
  Mg  Mg2  1  0.75000000  0.85653688  0.56403648  1
  Mg  Mg3  1  0.25000000  0.14346312  0.43596352  1
  Si  Si0  1  0.75000000  0.21743527  0.60869362  1
  Si  Si1  1  0.25000000  0.28256473  0.10869362  1
  Si  Si2  1  0.25000000  0.78256473  0.39130638  1
  Si  Si3  1  0.75000000  0.71743527  0.89130638  1
loop_
_geom_bond_atom_site_label_1
_geom_bond_atom_site_label_2
_geom_bond_distance
_geom_bond_site_symmetry_2
Mg0 Si1 2.784153 1_656
Mg0 Si1 2.784153 1_556
Mg0 Si3 2.847259 1_555
Mg0 Si0 2.975817 1_555
Mg0 Sr1 3.368747 1_555
Mg0 Sr1 3.368747 1_655
Mg0 Sr2 3.369230 1_556
Mg0 Sr3 3.582637 1_546
Mg0 Sr0 3.669219 1_655
Mg0 Sr0 3.669219 1_555
Mg1 Si3 2.784153 1_454
Mg1 Si3 2.784153 1_554
Mg1 Si1 2.847259 1_555
Mg1 Si2 2.975817 1_555
Mg1 Sr2 3.368747 1_455
Mg1 Sr2 3.368747 1_555
Mg1 Sr1 3.369230 1_554
Mg1 Sr0 3.582637 1_564
Mg1 Sr3 3.669219 1_455
Mg1 Sr3 3.669219 1_555
Mg2 Si2 2.784153 1_655
Mg2 Si2 2.784153 1_555
Mg2 Si0 2.847259 1_565
Mg2 Si3 2.975817 1_555
Mg2 Sr0 3.368747 1_665
Mg2 Sr0 3.368747 1_565
Mg2 Sr3 3.369230 1_555
Mg2 Sr2 3.582637 1_555
Mg2 Sr1 3.669219 1_655
Mg2 Sr1 3.669219 1_555
Mg3 Si0 2.784153 1_555
Mg3 Si0 2.784153 1_455
Mg3 Si2 2.847259 1_545
Mg3 Si1 2.975817 1_555
Mg3 Sr3 3.368747 1_445
Mg3 Sr3 3.368747 1_545
Mg3 Sr0 3.369230 1_555
Mg3 Sr1 3.582637 1_555
Mg3 Sr2 3.669219 1_555
Mg3 Sr2 3.669219 1_455
Si0 Sr2 3.245785 1_555
Si0 Sr0 3.296786 1_655
Si0 Sr0 3.296786 1_555
Si0 Sr1 3.329726 1_655
Si0 Sr1 3.329726 1_555
Si1 Sr0 3.245785 1_554
Si1 Sr2 3.296786 1_455
Si1 Sr2 3.296786 1_555
Si1 Sr3 3.329726 1_545
Si1 Sr3 3.329726 1_445
Si2 Sr1 3.245785 1_555
Si2 Sr3 3.296786 1_455
Si2 Sr3 3.296786 1_555
Si2 Sr2 3.329726 1_455
Si2 Sr2 3.329726 1_555
Si3 Sr3 3.245785 1_556
Si3 Sr1 3.296786 1_555
Si3 Sr1 3.296786 1_655
Si3 Sr0 3.329726 1_665
Si3 Sr0 3.329726 1_565
