# generated using pymatgen
data_YFe3F15
_symmetry_space_group_name_H-M   'P 1'
_cell_length_a   9.35285804
_cell_length_b   5.89678578
_cell_length_c   11.26351700
_cell_angle_alpha   90.00000000
_cell_angle_beta   90.00000000
_cell_angle_gamma   106.91439203
_symmetry_Int_Tables_number   1
_chemical_formula_structural   YFe3F15
_chemical_formula_sum   'Y2 Fe6 F30'
_cell_volume   594.33031896
_cell_formula_units_Z   2
loop_
 _symmetry_equiv_pos_site_id
 _symmetry_equiv_pos_as_xyz
  1  'x, y, z'
loop_
 _atom_site_type_symbol
 _atom_site_label
 _atom_site_symmetry_multiplicity
 _atom_site_fract_x
 _atom_site_fract_y
 _atom_site_fract_z
 _atom_site_occupancy
  Y  Y0  1  0.92788900  0.51675700  0.25000000  1
  Y  Y1  1  0.40544400  0.48324300  0.75000000  1
  Fe  Fe0  1  0.16666700  0.00000000  0.50000000  1
  Fe  Fe1  1  0.51085200  0.03186400  0.50764000  1
  Fe  Fe2  1  0.82248100  0.96813600  0.49236000  1
  Fe  Fe3  1  0.16666700  0.00000000  0.00000000  1
  Fe  Fe4  1  0.51085200  0.03186400  0.99236000  1
  Fe  Fe5  1  0.82248100  0.96813600  0.00764000  1
  F  F0  1  0.16963600  0.60240600  0.25000000  1
  F  F1  1  0.37669700  0.60871400  0.25000000  1
  F  F2  1  0.73400800  0.61487700  0.25000000  1
  F  F3  1  0.16369700  0.39759400  0.75000000  1
  F  F4  1  0.59932600  0.38512400  0.75000000  1
  F  F5  1  0.95663600  0.39128600  0.75000000  1
  F  F6  1  0.01953300  0.10371000  0.57773900  1
  F  F7  1  0.35290700  0.16977700  0.60378200  1
  F  F8  1  0.70507500  0.12656200  0.59000100  1
  F  F9  1  0.31380100  0.89629000  0.42226100  1
  F  F10  1  0.62825800  0.87343800  0.40999900  1
  F  F11  1  0.98042600  0.83022300  0.39621800  1
  F  F12  1  0.12871800  0.74993500  0.90717300  1
  F  F13  1  0.44815700  0.76056200  0.88578800  1
  F  F14  1  0.77855300  0.70664600  0.91655200  1
  F  F15  1  0.20461600  0.25006500  0.09282700  1
  F  F16  1  0.55478000  0.29335400  0.08344800  1
  F  F17  1  0.88517600  0.23943800  0.11421200  1
  F  F18  1  0.20461600  0.25006500  0.40717300  1
  F  F19  1  0.55478000  0.29335400  0.41655200  1
  F  F20  1  0.88517600  0.23943800  0.38578800  1
  F  F21  1  0.12871800  0.74993500  0.59282700  1
  F  F22  1  0.44815700  0.76056200  0.61421200  1
  F  F23  1  0.77855300  0.70664600  0.58344800  1
  F  F24  1  0.01953300  0.10371000  0.92226100  1
  F  F25  1  0.35290700  0.16977700  0.89621800  1
  F  F26  1  0.70507500  0.12656200  0.90999900  1
  F  F27  1  0.31380100  0.89629000  0.07773900  1
  F  F28  1  0.62825800  0.87343800  0.09000100  1
  F  F29  1  0.98042600  0.83022300  0.10378200  1
loop_
_geom_bond_atom_site_label_1
_geom_bond_atom_site_label_2
_geom_bond_distance
_geom_bond_site_symmetry_2
F0 Y0 2.168603 1_455
F2 Y0 2.057543 1_555
F3 Y1 2.168603 1_555
F4 Y1 2.057549 1_555
F6 Fe0 1.877263 1_555
F6 Fe2 2.025643 1_445
F7 Fe0 2.094787 1_555
F7 Fe1 2.171476 1_555
F7 Y1 2.417033 1_555
F8 Fe1 1.970272 1_555
F8 Fe2 1.971029 1_545
F9 Fe0 1.877263 1_565
F9 Fe1 2.025636 1_565
F10 Fe2 1.970272 1_555
F10 Fe1 1.971029 1_565
F11 Fe0 2.094793 1_665
F11 Fe2 2.171476 1_555
F11 Y0 2.417033 1_555
F12 Fe3 1.757558 1_566
F13 Fe4 1.948915 1_565
F13 Y1 2.189258 1_555
F14 Fe5 1.797330 1_556
F15 Fe3 1.757558 1_555
F16 Fe4 1.797330 1_554
F17 Fe5 1.948915 1_545
F17 Y0 2.189258 1_555
F18 Fe0 1.757558 1_555
F19 Fe1 1.797330 1_555
F20 Fe2 1.948915 1_545
F20 Y0 2.189258 1_555
F21 Fe0 1.757558 1_565
F22 Fe1 1.948915 1_565
F22 Y1 2.189258 1_555
F23 Fe2 1.797330 1_555
F24 Fe3 1.877263 1_556
F24 Fe5 2.025643 1_446
F25 Fe3 2.094787 1_556
F25 Fe4 2.171476 1_555
F25 Y1 2.417033 1_555
F26 Fe4 1.970272 1_555
F26 Fe5 1.971029 1_546
F27 Fe3 1.877263 1_565
F27 Fe4 2.025636 1_564
F28 Fe5 1.970272 1_555
F28 Fe4 1.971029 1_564
F29 Fe3 2.094793 1_665
F29 Fe5 2.171476 1_555
F29 Y0 2.417033 1_555
