# generated using pymatgen
data_Zn2SiO4
_symmetry_space_group_name_H-M   'P 1'
_cell_length_a   4.99737300
_cell_length_b   5.10975300
_cell_length_c   10.43236100
_cell_angle_alpha   90.00000000
_cell_angle_beta   90.00000000
_cell_angle_gamma   90.00000000
_symmetry_Int_Tables_number   1
_chemical_formula_structural   Zn2SiO4
_chemical_formula_sum   'Zn8 Si4 O16'
_cell_volume   266.39390265
_cell_formula_units_Z   4
loop_
 _symmetry_equiv_pos_site_id
 _symmetry_equiv_pos_as_xyz
  1  'x, y, z'
loop_
 _atom_site_type_symbol
 _atom_site_label
 _atom_site_symmetry_multiplicity
 _atom_site_fract_x
 _atom_site_fract_y
 _atom_site_fract_z
 _atom_site_occupancy
  Zn  Zn0  1  0.49634900  0.05547400  0.16336000  1
  Zn  Zn1  1  0.99634900  0.44452600  0.83664000  1
  Zn  Zn2  1  0.50365100  0.55547400  0.33664000  1
  Zn  Zn3  1  0.00365100  0.94452600  0.66336000  1
  Zn  Zn4  1  0.50365100  0.94452600  0.83664000  1
  Zn  Zn5  1  0.00365100  0.55547400  0.16336000  1
  Zn  Zn6  1  0.49634900  0.44452600  0.66336000  1
  Zn  Zn7  1  0.99634900  0.05547400  0.33664000  1
  Si  Si0  1  0.50000000  0.00000000  0.50000000  1
  Si  Si1  1  0.00000000  0.50000000  0.50000000  1
  Si  Si2  1  0.50000000  0.50000000  0.00000000  1
  Si  Si3  1  0.00000000  0.00000000  0.00000000  1
  O  O0  1  0.70120200  0.28759900  0.45096100  1
  O  O1  1  0.20120200  0.21240100  0.54903900  1
  O  O2  1  0.29879800  0.78759900  0.04903900  1
  O  O3  1  0.79879800  0.71240100  0.95096100  1
  O  O4  1  0.29879800  0.71240100  0.54903900  1
  O  O5  1  0.79879800  0.78759900  0.45096100  1
  O  O6  1  0.70120200  0.21240100  0.95096100  1
  O  O7  1  0.20120200  0.28759900  0.04903900  1
  O  O8  1  0.38537900  0.95535600  0.34160500  1
  O  O9  1  0.88537900  0.54464400  0.65839500  1
  O  O10  1  0.61462100  0.45535600  0.15839500  1
  O  O11  1  0.11462100  0.04464400  0.84160500  1
  O  O12  1  0.61462100  0.04464400  0.65839500  1
  O  O13  1  0.11462100  0.45535600  0.34160500  1
  O  O14  1  0.38537900  0.54464400  0.84160500  1
  O  O15  1  0.88537900  0.95535600  0.15839500  1
loop_
_geom_bond_atom_site_label_1
_geom_bond_atom_site_label_2
_geom_bond_distance
_geom_bond_site_symmetry_2
O0 Si0 1.852654 1_555
O0 Si1 1.915542 1_655
O0 Zn2 2.066535 1_555
O0 Zn7 2.237125 1_555
O1 Si1 1.852654 1_555
O1 Si0 1.915542 1_555
O1 Zn3 2.066535 1_545
O1 Zn6 2.237125 1_555
O2 Si2 1.852654 1_555
O2 Si3 1.915542 1_565
O2 Zn0 2.066535 1_565
O2 Zn5 2.237125 1_555
O3 Si3 1.852654 1_666
O3 Si2 1.915542 1_556
O3 Zn1 2.066535 1_555
O3 Zn4 2.237125 1_555
O4 Si0 1.852654 1_565
O4 Si1 1.915542 1_555
O4 Zn6 2.066535 1_555
O4 Zn3 2.237125 1_555
O5 Si1 1.852654 1_655
O5 Si0 1.915542 1_565
O5 Zn7 2.066535 1_565
O5 Zn2 2.237125 1_555
O6 Si2 1.852654 1_556
O6 Si3 1.915542 1_656
O6 Zn4 2.066535 1_545
O6 Zn1 2.237125 1_555
O7 Si3 1.852654 1_555
O7 Si2 1.915542 1_555
O7 Zn5 2.066535 1_555
O7 Zn0 2.237125 1_555
O8 Si0 1.763712 1_565
O8 Zn0 2.006751 1_565
O8 Zn7 2.010977 1_465
O8 Zn2 2.127696 1_555
O9 Si1 1.763712 1_655
O9 Zn1 2.006751 1_555
O9 Zn6 2.010977 1_555
O9 Zn3 2.127696 1_655
O10 Si2 1.763712 1_555
O10 Zn2 2.006751 1_555
O10 Zn5 2.010977 1_655
O10 Zn0 2.127696 1_555
O11 Si3 1.763712 1_556
O11 Zn3 2.006751 1_545
O11 Zn4 2.010977 1_545
O11 Zn1 2.127696 1_455
O12 Si0 1.763712 1_555
O12 Zn4 2.006751 1_545
O12 Zn3 2.010977 1_645
O12 Zn6 2.127696 1_555
O13 Si1 1.763712 1_555
O13 Zn5 2.006751 1_555
O13 Zn2 2.010977 1_555
O13 Zn7 2.127696 1_455
O14 Si2 1.763712 1_556
O14 Zn6 2.006751 1_555
O14 Zn1 2.010977 1_455
O14 Zn4 2.127696 1_555
O15 Si3 1.763712 1_665
O15 Zn7 2.006751 1_565
O15 Zn0 2.010977 1_565
O15 Zn5 2.127696 1_655
