# generated using pymatgen
data_Al2Ni9Pd
_symmetry_space_group_name_H-M   'P 1'
_cell_length_a   3.60220700
_cell_length_b   3.60220700
_cell_length_c   10.76919500
_cell_angle_alpha   90.00000000
_cell_angle_beta   90.00000000
_cell_angle_gamma   90.00000000
_symmetry_Int_Tables_number   1
_chemical_formula_structural   Al2Ni9Pd
_chemical_formula_sum   'Al2 Ni9 Pd1'
_cell_volume   139.73994647
_cell_formula_units_Z   1
loop_
 _symmetry_equiv_pos_site_id
 _symmetry_equiv_pos_as_xyz
  1  'x, y, z'
loop_
 _atom_site_type_symbol
 _atom_site_label
 _atom_site_symmetry_multiplicity
 _atom_site_fract_x
 _atom_site_fract_y
 _atom_site_fract_z
 _atom_site_occupancy
  Al  Al0  1  0.00000000  0.00000000  0.33673300  1
  Al  Al1  1  0.00000000  0.00000000  0.66326700  1
  Ni  Ni0  1  0.50000000  0.50000000  0.00000000  1
  Ni  Ni1  1  0.50000000  0.50000000  0.33571400  1
  Ni  Ni2  1  0.50000000  0.50000000  0.66428600  1
  Ni  Ni3  1  0.50000000  0.00000000  0.17315500  1
  Ni  Ni4  1  0.50000000  0.00000000  0.50000000  1
  Ni  Ni5  1  0.50000000  0.00000000  0.82684500  1
  Ni  Ni6  1  0.00000000  0.50000000  0.17315500  1
  Ni  Ni7  1  0.00000000  0.50000000  0.50000000  1
  Ni  Ni8  1  0.00000000  0.50000000  0.82684500  1
  Pd  Pd0  1  0.00000000  0.00000000  0.00000000  1
loop_
_geom_bond_atom_site_label_1
_geom_bond_atom_site_label_2
_geom_bond_distance
_geom_bond_site_symmetry_2
Al0 Ni4 2.517028 1_455
Al0 Ni7 2.517028 1_555
Al0 Ni4 2.517028 1_555
Al0 Ni7 2.517028 1_545
Al0 Ni3 2.519369 1_555
Al0 Ni6 2.519369 1_545
Al0 Ni6 2.519369 1_555
Al0 Ni3 2.519369 1_455
Al0 Ni1 2.547169 1_555
Al0 Ni1 2.547169 1_445
Al0 Ni1 2.547169 1_455
Al0 Ni1 2.547169 1_545
Al1 Ni4 2.517028 1_455
Al1 Ni4 2.517028 1_555
Al1 Ni7 2.517028 1_555
Al1 Ni7 2.517028 1_545
Al1 Ni5 2.519369 1_455
Al1 Ni5 2.519369 1_555
Al1 Ni8 2.519369 1_555
Al1 Ni8 2.519369 1_545
Al1 Ni2 2.547169 1_455
Al1 Ni2 2.547169 1_555
Al1 Ni2 2.547169 1_545
Al1 Ni2 2.547169 1_445
Ni0 Pd0 2.547145 1_565
Ni0 Pd0 2.547145 1_655
Ni0 Pd0 2.547145 1_665
Ni0 Pd0 2.547145 1_555
Ni0 Ni3 2.592533 1_565
Ni0 Ni6 2.592533 1_655
Ni0 Ni3 2.592533 1_555
Ni0 Ni6 2.592533 1_555
Ni0 Ni5 2.592533 1_564
Ni0 Ni8 2.592533 1_654
Ni0 Ni8 2.592533 1_554
Ni0 Ni5 2.592533 1_554
Ni1 Ni3 2.511708 1_555
Ni1 Ni6 2.511708 1_655
Ni1 Ni6 2.511708 1_555
Ni1 Ni3 2.511708 1_565
Ni1 Ni7 2.524706 1_655
Ni1 Ni7 2.524706 1_555
Ni1 Ni4 2.524706 1_555
Ni1 Ni4 2.524706 1_565
Ni2 Ni8 2.511708 1_655
Ni2 Ni8 2.511708 1_555
Ni2 Ni5 2.511708 1_555
Ni2 Ni5 2.511708 1_565
Ni2 Ni7 2.524706 1_555
Ni2 Ni7 2.524706 1_655
Ni2 Ni4 2.524706 1_555
Ni2 Ni4 2.524706 1_565
Ni3 Ni6 2.547145 1_645
Ni3 Ni6 2.547145 1_545
Ni3 Ni6 2.547145 1_555
Ni3 Ni6 2.547145 1_655
Ni3 Pd0 2.592533 1_555
Ni3 Pd0 2.592533 1_655
Ni4 Ni7 2.547145 1_645
Ni4 Ni7 2.547145 1_555
Ni4 Ni7 2.547145 1_545
Ni4 Ni7 2.547145 1_655
Ni5 Ni8 2.547145 1_555
Ni5 Ni8 2.547145 1_655
Ni5 Ni8 2.547145 1_645
Ni5 Ni8 2.547145 1_545
Ni5 Pd0 2.592533 1_656
Ni5 Pd0 2.592533 1_556
Ni6 Pd0 2.592533 1_555
Ni6 Pd0 2.592533 1_565
Ni8 Pd0 2.592533 1_566
Ni8 Pd0 2.592533 1_556
