# generated using pymatgen
data_Tb2RuO5
_symmetry_space_group_name_H-M   'P 1'
_cell_length_a   3.88927500
_cell_length_b   10.30377600
_cell_length_c   11.34050300
_cell_angle_alpha   90.00000000
_cell_angle_beta   90.00000000
_cell_angle_gamma   90.00000000
_symmetry_Int_Tables_number   1
_chemical_formula_structural   Tb2RuO5
_chemical_formula_sum   'Tb8 Ru4 O20'
_cell_volume   454.46179402
_cell_formula_units_Z   4
loop_
 _symmetry_equiv_pos_site_id
 _symmetry_equiv_pos_as_xyz
  1  'x, y, z'
loop_
 _atom_site_type_symbol
 _atom_site_label
 _atom_site_symmetry_multiplicity
 _atom_site_fract_x
 _atom_site_fract_y
 _atom_site_fract_z
 _atom_site_occupancy
  Tb  Tb0  1  0.25000000  0.61088700  0.23763600  1
  Tb  Tb1  1  0.75000000  0.38911300  0.76236400  1
  Tb  Tb2  1  0.75000000  0.88911300  0.73763600  1
  Tb  Tb3  1  0.25000000  0.11088700  0.26236400  1
  Tb  Tb4  1  0.25000000  0.63200900  0.56720200  1
  Tb  Tb5  1  0.75000000  0.36799100  0.43279800  1
  Tb  Tb6  1  0.75000000  0.86799100  0.06720200  1
  Tb  Tb7  1  0.25000000  0.13200900  0.93279800  1
  Ru  Ru0  1  0.25000000  0.67656600  0.88833200  1
  Ru  Ru1  1  0.75000000  0.32343400  0.11166800  1
  Ru  Ru2  1  0.75000000  0.82343400  0.38833200  1
  Ru  Ru3  1  0.25000000  0.17656600  0.61166800  1
  O  O0  1  0.25000000  0.99111600  0.09460900  1
  O  O1  1  0.75000000  0.00888400  0.90539100  1
  O  O2  1  0.75000000  0.50888400  0.59460900  1
  O  O3  1  0.25000000  0.49111600  0.40539100  1
  O  O4  1  0.25000000  0.71975700  0.05309700  1
  O  O5  1  0.75000000  0.28024300  0.94690300  1
  O  O6  1  0.75000000  0.78024300  0.55309700  1
  O  O7  1  0.25000000  0.21975700  0.44690300  1
  O  O8  1  0.25000000  0.76631200  0.73399600  1
  O  O9  1  0.75000000  0.23368800  0.26600400  1
  O  O10  1  0.75000000  0.73368800  0.23399600  1
  O  O11  1  0.25000000  0.26631200  0.76600400  1
  O  O12  1  0.25000000  0.52023200  0.79876200  1
  O  O13  1  0.75000000  0.47976800  0.20123800  1
  O  O14  1  0.75000000  0.97976800  0.29876200  1
  O  O15  1  0.25000000  0.02023300  0.70123800  1
  O  O16  1  0.25000000  0.76929300  0.39151200  1
  O  O17  1  0.75000000  0.23070700  0.60848800  1
  O  O18  1  0.75000000  0.73070700  0.89151200  1
  O  O19  1  0.25000000  0.26929300  0.10848800  1
loop_
_geom_bond_atom_site_label_1
_geom_bond_atom_site_label_2
_geom_bond_distance
_geom_bond_site_symmetry_2
O0 Tb3 2.267645 1_565
O0 Tb7 2.339831 1_564
O0 Tb6 2.342583 1_555
O0 Tb6 2.342583 1_455
O1 Tb2 2.267645 1_545
O1 Tb6 2.339831 1_546
O1 Tb7 2.342583 1_555
O1 Tb7 2.342583 1_655
O2 Tb1 2.267645 1_555
O2 Tb5 2.339831 1_555
O2 Tb4 2.342583 1_555
O2 Tb4 2.342583 1_655
O3 Tb0 2.267645 1_555
O3 Tb4 2.339831 1_555
O3 Tb5 2.342583 1_455
O3 Tb5 2.342583 1_555
O4 Ru0 1.920784 1_554
O4 Tb0 2.374455 1_555
O4 Tb6 2.477915 1_555
O4 Tb6 2.477915 1_455
O5 Ru1 1.920784 1_556
O5 Tb1 2.374455 1_555
O5 Tb7 2.477915 1_555
O5 Tb7 2.477915 1_655
O6 Ru2 1.920784 1_555
O6 Tb2 2.374455 1_555
O6 Tb4 2.477915 1_655
O6 Tb4 2.477915 1_555
O7 Ru3 1.920784 1_555
O7 Tb3 2.374455 1_555
O7 Tb5 2.477915 1_555
O7 Tb5 2.477915 1_455
O8 Ru0 1.979515 1_555
O8 Tb2 2.320418 1_455
O8 Tb2 2.320418 1_555
O8 Tb4 2.343685 1_555
O9 Ru1 1.979515 1_555
O9 Tb3 2.320418 1_555
O9 Tb3 2.320418 1_655
O9 Tb5 2.343685 1_555
O10 Ru2 1.979515 1_555
O10 Tb0 2.320418 1_555
O10 Tb0 2.320418 1_655
O10 Tb6 2.343685 1_555
O11 Ru3 1.979515 1_555
O11 Tb1 2.320418 1_555
O11 Tb1 2.320418 1_455
O11 Tb7 2.343685 1_555
O12 Ru0 1.904353 1_555
O12 Tb1 2.403592 1_555
O12 Tb1 2.403592 1_455
O12 Tb4 2.867470 1_555
O13 Ru1 1.904353 1_555
O13 Tb0 2.403592 1_555
O13 Tb0 2.403592 1_655
O13 Tb5 2.867470 1_555
O14 Ru2 1.904353 1_555
O14 Tb3 2.403592 1_565
O14 Tb3 2.403592 1_665
O14 Tb6 2.867470 1_555
O15 Ru3 1.904345 1_555
O15 Tb2 2.403597 1_445
O15 Tb2 2.403597 1_545
O15 Tb7 2.867466 1_555
O16 Ru2 2.023393 1_455
O16 Ru2 2.023393 1_555
O16 Tb0 2.389382 1_555
O16 Tb4 2.443490 1_555
O17 Ru3 2.023393 1_555
O17 Ru3 2.023393 1_655
O17 Tb1 2.389382 1_555
O17 Tb5 2.443490 1_555
O18 Ru0 2.023393 1_555
O18 Ru0 2.023393 1_655
O18 Tb2 2.389382 1_555
O18 Tb6 2.443490 1_556
O19 Ru1 2.023393 1_555
O19 Ru1 2.023393 1_455
O19 Tb3 2.389382 1_555
O19 Tb7 2.443490 1_554
