# generated using pymatgen
data_NaNi2H3(SO5)2
_symmetry_space_group_name_H-M   'P 1'
_cell_length_a   7.27834948
_cell_length_b   7.27834856
_cell_length_c   6.33497409
_cell_angle_alpha   73.22730955
_cell_angle_beta   73.22731014
_cell_angle_gamma   48.57714988
_symmetry_Int_Tables_number   1
_chemical_formula_structural   NaNi2H3(SO5)2
_chemical_formula_sum   'Na1 Ni2 H3 S2 O10'
_cell_volume   238.69754860
_cell_formula_units_Z   1
loop_
 _symmetry_equiv_pos_site_id
 _symmetry_equiv_pos_as_xyz
  1  'x, y, z'
loop_
 _atom_site_type_symbol
 _atom_site_label
 _atom_site_symmetry_multiplicity
 _atom_site_fract_x
 _atom_site_fract_y
 _atom_site_fract_z
 _atom_site_occupancy
  Na  Na0  1  0.51302900  0.51302900  0.47321900  1
  Ni  Ni0  1  0.99751900  0.47833200  0.03918200  1
  Ni  Ni1  1  0.47833200  0.99751900  0.03918200  1
  H  H0  1  0.07551600  0.07551600  0.06341200  1
  H  H1  1  0.59190100  0.59190100  0.00650400  1
  H  H2  1  0.91206300  0.91206300  0.96833700  1
  S  S0  1  0.10822800  0.10822800  0.66180500  1
  S  S1  1  0.87825100  0.87825100  0.34211900  1
  O  O0  1  0.27118200  0.27118200  0.21941800  1
  O  O1  1  0.64679700  0.64679700  0.07858400  1
  O  O2  1  0.14593700  0.14593700  0.94997200  1
  O  O3  1  0.14347600  0.73909200  0.32049500  1
  O  O4  1  0.24431600  0.83897400  0.70404900  1
  O  O5  1  0.73909200  0.14347600  0.32049500  1
  O  O6  1  0.83897400  0.24431600  0.70404900  1
  O  O7  1  0.84513300  0.84513300  0.09410900  1
  O  O8  1  0.34568600  0.34568600  0.98368900  1
  O  O9  1  0.77356900  0.77356900  0.50338300  1
loop_
_geom_bond_atom_site_label_1
_geom_bond_atom_site_label_2
_geom_bond_distance
_geom_bond_site_symmetry_2
Na0 O5 2.367507 1_555
Na0 O3 2.367507 1_555
Na0 O4 2.409049 1_555
Na0 O6 2.409049 1_555
Na0 O1 2.567206 1_555
Ni0 O1 1.936278 1_555
Ni0 O0 1.972176 1_655
Ni0 O8 1.980324 1_654
Ni0 O2 2.077954 1_654
Ni0 O7 2.207684 1_555
Ni1 O1 1.936277 1_555
Ni1 O0 1.972176 1_565
Ni1 O8 1.980324 1_564
Ni1 O2 2.077955 1_564
Ni1 O7 2.207684 1_555
H0 O2 0.981988 1_554
H1 O1 0.974489 1_555
H2 O7 0.987635 1_556
O0 O8 1.507488 1_554
O2 S0 2.039911 1_555
O3 S1 1.453053 1_455
O4 S0 1.474793 1_565
O5 S1 1.453052 1_545
O6 S0 1.474793 1_655
O7 S1 1.760315 1_555
O9 S1 1.440264 1_555
