# generated using pymatgen
data_Gd3InS6
_symmetry_space_group_name_H-M   'P 1'
_cell_length_a   3.88600080
_cell_length_b   13.60234353
_cell_length_c   16.56249925
_cell_angle_alpha   90.00000000
_cell_angle_beta   90.00000000
_cell_angle_gamma   90.00000000
_symmetry_Int_Tables_number   1
_chemical_formula_structural   Gd3InS6
_chemical_formula_sum   'Gd12 In4 S24'
_cell_volume   875.47247457
_cell_formula_units_Z   4
loop_
 _symmetry_equiv_pos_site_id
 _symmetry_equiv_pos_as_xyz
  1  'x, y, z'
loop_
 _atom_site_type_symbol
 _atom_site_label
 _atom_site_symmetry_multiplicity
 _atom_site_fract_x
 _atom_site_fract_y
 _atom_site_fract_z
 _atom_site_occupancy
  Gd  Gd0  1  0.50000000  0.04002351  0.27648789  1
  Gd  Gd1  1  0.50000000  0.95997649  0.72351211  1
  Gd  Gd2  1  -0.00000000  0.54002351  0.22351211  1
  Gd  Gd3  1  -0.00000000  0.45997649  0.77648789  1
  Gd  Gd4  1  0.50000000  0.81139847  0.14584707  1
  Gd  Gd5  1  0.50000000  0.18860153  0.85415293  1
  Gd  Gd6  1  -0.00000000  0.31139847  0.35415293  1
  Gd  Gd7  1  -0.00000000  0.68860153  0.64584707  1
  Gd  Gd8  1  0.50000000  0.25153510  0.10664269  1
  Gd  Gd9  1  0.50000000  0.74846490  0.89335731  1
  Gd  Gd10  1  0.00000000  0.75153510  0.39335731  1
  Gd  Gd11  1  -0.00000000  0.24846490  0.60664269  1
  In  In0  1  0.50000000  0.50000000  0.50000000  1
  In  In1  1  0.00000000  -0.00000000  0.00000000  1
  In  In2  1  0.50000000  0.50000000  0.00000000  1
  In  In3  1  -0.00000000  -0.00000000  0.50000000  1
  S  S0  1  0.50000000  0.61235460  0.11613900  1
  S  S1  1  0.50000000  0.38764540  0.88386100  1
  S  S2  1  -0.00000000  0.11235460  0.38386100  1
  S  S3  1  0.00000000  0.88764540  0.61613900  1
  S  S4  1  0.50000000  0.90470075  0.41486234  1
  S  S5  1  0.50000000  0.09529925  0.58513766  1
  S  S6  1  -0.00000000  0.40470075  0.08513766  1
  S  S7  1  -0.00000000  0.59529925  0.91486234  1
  S  S8  1  0.50000000  0.68223017  0.28683059  1
  S  S9  1  0.50000000  0.31776983  0.71316941  1
  S  S10  1  0.00000000  0.18223017  0.21316941  1
  S  S11  1  0.00000000  0.81776983  0.78683059  1
  S  S12  1  0.50000000  0.30901720  0.47945361  1
  S  S13  1  0.50000000  0.69098280  0.52054639  1
  S  S14  1  -0.00000000  0.80901720  0.02054639  1
  S  S15  1  -0.00000000  0.19098280  0.97945361  1
  S  S16  1  0.50000000  0.02078878  0.10407652  1
  S  S17  1  0.50000000  0.97921122  0.89592348  1
  S  S18  1  0.00000000  0.52078878  0.39592348  1
  S  S19  1  0.00000000  0.47921122  0.60407652  1
  S  S20  1  0.50000000  0.38877953  0.25369799  1
  S  S21  1  0.50000000  0.61122047  0.74630201  1
  S  S22  1  0.00000000  0.88877953  0.24630201  1
  S  S23  1  0.00000000  0.11122047  0.75369799  1
loop_
_geom_bond_atom_site_label_1
_geom_bond_atom_site_label_2
_geom_bond_distance
_geom_bond_site_symmetry_2
Gd0 S2 2.811733 1_655
Gd0 S2 2.811733 1_555
Gd0 S16 2.867524 1_555
Gd0 S22 2.873600 1_545
Gd0 S22 2.873600 1_645
Gd0 S10 2.935427 1_555
Gd0 S10 2.935427 1_655
Gd0 S4 2.939502 1_545
Gd1 S3 2.811733 1_655
Gd1 S3 2.811733 1_555
Gd1 S17 2.867524 1_555
Gd1 S23 2.873600 1_565
Gd1 S23 2.873600 1_665
Gd1 S11 2.935427 1_555
Gd1 S11 2.935427 1_655
Gd1 S5 2.939502 1_565
Gd2 S0 2.811733 1_555
Gd2 S0 2.811733 1_455
Gd2 S18 2.867524 1_555
Gd2 S20 2.873600 1_555
Gd2 S20 2.873600 1_455
Gd2 S8 2.935427 1_555
Gd2 S8 2.935427 1_455
Gd2 S6 2.939502 1_555
Gd3 S1 2.811733 1_455
Gd3 S1 2.811733 1_555
Gd3 S19 2.867524 1_555
Gd3 S21 2.873600 1_555
Gd3 S21 2.873600 1_455
Gd3 S9 2.935427 1_555
Gd3 S9 2.935427 1_455
Gd3 S7 2.939502 1_555
Gd4 S0 2.751810 1_555
Gd4 S22 2.766102 1_655
Gd4 S22 2.766102 1_555
Gd4 S14 2.843086 1_655
Gd4 S14 2.843086 1_555
Gd4 S8 2.922230 1_555
Gd4 S16 2.931017 1_565
Gd5 S1 2.751810 1_555
Gd5 S23 2.766102 1_655
Gd5 S23 2.766102 1_555
Gd5 S15 2.843086 1_555
Gd5 S15 2.843086 1_655
Gd5 S9 2.922230 1_555
Gd5 S17 2.931017 1_545
Gd6 S2 2.751810 1_555
Gd6 S20 2.766102 1_455
Gd6 S20 2.766102 1_555
Gd6 S12 2.843086 1_455
Gd6 S12 2.843086 1_555
Gd6 S10 2.922230 1_555
Gd6 S18 2.931017 1_555
Gd7 S3 2.751810 1_555
Gd7 S21 2.766102 1_555
Gd7 S21 2.766102 1_455
Gd7 S13 2.843086 1_455
Gd7 S13 2.843086 1_555
Gd7 S11 2.922230 1_555
Gd7 S19 2.931017 1_555
Gd8 S10 2.788705 1_555
Gd8 S10 2.788705 1_655
Gd8 S6 2.871013 1_555
Gd8 S6 2.871013 1_655
Gd8 S15 2.981826 1_554
Gd8 S15 2.981826 1_654
Gd8 S20 3.068758 1_555
Gd8 S16 3.138978 1_555
Gd9 S11 2.788705 1_555
Gd9 S11 2.788705 1_655
Gd9 S7 2.871013 1_555
Gd9 S7 2.871013 1_655
Gd9 S14 2.981826 1_656
Gd9 S14 2.981826 1_556
Gd9 S21 3.068758 1_555
Gd9 S17 3.138978 1_555
Gd10 S8 2.788705 1_455
Gd10 S8 2.788705 1_555
Gd10 S4 2.871013 1_555
Gd10 S4 2.871013 1_455
Gd10 S13 2.981826 1_455
Gd10 S13 2.981826 1_555
Gd10 S22 3.068758 1_555
Gd10 S18 3.138978 1_555
Gd11 S9 2.788705 1_555
Gd11 S9 2.788705 1_455
Gd11 S5 2.871013 1_555
Gd11 S5 2.871013 1_455
Gd11 S12 2.981826 1_555
Gd11 S12 2.981826 1_455
Gd11 S23 3.068758 1_555
Gd11 S19 3.138978 1_555
In0 S18 2.612774 1_655
In0 S19 2.612774 1_555
In0 S19 2.612774 1_655
In0 S18 2.612774 1_555
In0 S12 2.620008 1_555
In0 S13 2.620008 1_555
In1 S17 2.612774 1_544
In1 S16 2.612774 1_555
In1 S17 2.612774 1_444
In1 S16 2.612774 1_455
In1 S15 2.620008 1_554
In1 S14 2.620008 1_545
In2 S0 2.456768 1_555
In2 S1 2.456768 1_554
In2 S6 2.728367 1_555
In2 S6 2.728367 1_655
In2 S7 2.728367 1_554
In2 S7 2.728367 1_654
In3 S2 2.456768 1_555
In3 S3 2.456768 1_545
In3 S4 2.728367 1_545
In3 S4 2.728367 1_445
In3 S5 2.728367 1_455
In3 S5 2.728367 1_555
