# generated using pymatgen
data_Zr(CuCl3)2
_symmetry_space_group_name_H-M   'P 1'
_cell_length_a   11.35578116
_cell_length_b   10.99052115
_cell_length_c   6.05785421
_cell_angle_alpha   90.19196004
_cell_angle_beta   90.67373892
_cell_angle_gamma   120.31682265
_symmetry_Int_Tables_number   1
_chemical_formula_structural   Zr(CuCl3)2
_chemical_formula_sum   'Zr3 Cu6 Cl18'
_cell_volume   652.58070483
_cell_formula_units_Z   3
loop_
 _symmetry_equiv_pos_site_id
 _symmetry_equiv_pos_as_xyz
  1  'x, y, z'
loop_
 _atom_site_type_symbol
 _atom_site_label
 _atom_site_symmetry_multiplicity
 _atom_site_fract_x
 _atom_site_fract_y
 _atom_site_fract_z
 _atom_site_occupancy
  Zr  Zr0  1  0.33567882  0.66727892  0.02299448  1
  Zr  Zr1  1  0.99847776  0.00092946  0.49227512  1
  Zr  Zr2  1  0.66226527  0.32890653  0.98865070  1
  Cu  Cu0  1  0.40018292  0.79730780  0.58385892  1
  Cu  Cu1  1  0.08523337  0.18754826  0.89958967  1
  Cu  Cu2  1  0.24994084  0.49567020  0.42697926  1
  Cu  Cu3  1  0.75970577  0.51586998  0.58272756  1
  Cu  Cu4  1  0.90544635  0.81299903  0.09348088  1
  Cu  Cu5  1  0.75924430  0.24970058  0.57459397  1
  Cl  Cl0  1  0.10923888  0.90215952  0.26309019  1
  Cl  Cl1  1  0.22506803  0.76654088  0.78139840  1
  Cl  Cl2  1  0.12481109  0.56874036  0.25013405  1
  Cl  Cl3  1  0.10687688  0.22381351  0.27256076  1
  Cl  Cl4  1  0.21762209  0.43981320  0.78747168  1
  Cl  Cl5  1  0.44794500  0.88568921  0.24670945  1
  Cl  Cl6  1  0.20240128  0.09919829  0.74071152  1
  Cl  Cl7  1  0.44109047  0.55698195  0.25088702  1
  Cl  Cl8  1  0.53945105  0.75478455  0.78328421  1
  Cl  Cl9  1  0.47743974  0.23663467  0.23169022  1
  Cl  Cl10  1  0.56251405  0.43817370  0.75250388  1
  Cl  Cl11  1  0.78824233  0.89997456  0.25755186  1
  Cl  Cl12  1  0.56306637  0.11658162  0.74779596  1
  Cl  Cl13  1  0.78528388  0.56089489  0.21736442  1
  Cl  Cl14  1  0.88640840  0.77962298  0.72171129  1
  Cl  Cl15  1  0.89326694  0.45045673  0.76591983  1
  Cl  Cl16  1  0.78587990  0.23527171  0.21472760  1
  Cl  Cl17  1  0.88351523  0.10475690  0.72393911  1
loop_
_geom_bond_atom_site_label_1
_geom_bond_atom_site_label_2
_geom_bond_distance
_geom_bond_site_symmetry_2
Cl0 Cu4 2.240415 1_455
Cl0 Zr1 2.469280 1_465
Cl1 Cu0 2.209201 1_555
Cl1 Zr0 2.502144 1_556
Cl2 Cu2 2.221198 1_555
Cl2 Zr0 2.503901 1_555
Cl3 Cu1 2.281707 1_554
Cl3 Zr1 2.510694 1_455
Cl3 Cu2 2.736178 1_555
Cl4 Cu2 2.254100 1_555
Cl4 Cu1 2.497390 1_555
Cl4 Zr0 2.574939 1_556
Cl5 Cu0 2.217336 1_555
Cl5 Zr0 2.464169 1_555
Cl6 Cu1 2.228831 1_555
Cl6 Zr1 2.485191 1_455
Cl7 Cu2 2.210506 1_555
Cl7 Zr0 2.499109 1_555
Cl8 Cu0 2.209994 1_555
Cl8 Zr0 2.495963 1_556
Cl9 Zr2 2.352673 1_554
Cl10 Cu3 2.220556 1_555
Cl10 Zr2 2.473558 1_555
Cl11 Cu4 2.232086 1_555
Cl11 Zr1 2.487552 1_565
Cl12 Cu5 2.231381 1_555
Cl12 Zr2 2.475483 1_555
Cl13 Cu3 2.259505 1_555
Cl13 Cu4 2.514621 1_555
Cl13 Zr2 2.589777 1_554
Cl14 Cu4 2.270753 1_556
Cl14 Zr1 2.531127 1_565
Cl14 Cu3 2.631817 1_555
Cl15 Cu5 2.253694 1_555
Cl15 Cu3 2.261710 1_555
Cl15 Zr2 2.654022 1_555
Cl16 Cu5 2.220524 1_555
Cl16 Zr2 2.515511 1_554
Cl17 Cu1 2.244834 1_655
Cl17 Zr1 2.551914 1_555
Cl17 Cu5 2.756231 1_555
