# generated using pymatgen
data_Li7Mn2(CoO4)3
_symmetry_space_group_name_H-M   'P 1'
_cell_length_a   5.01415500
_cell_length_b   5.10688527
_cell_length_c   8.87547770
_cell_angle_alpha   90.13084803
_cell_angle_beta   90.00045189
_cell_angle_gamma   108.18700227
_symmetry_Int_Tables_number   1
_chemical_formula_structural   Li7Mn2(CoO4)3
_chemical_formula_sum   'Li7 Mn2 Co3 O12'
_cell_volume   215.91735140
_cell_formula_units_Z   1
loop_
 _symmetry_equiv_pos_site_id
 _symmetry_equiv_pos_as_xyz
  1  'x, y, z'
loop_
 _atom_site_type_symbol
 _atom_site_label
 _atom_site_symmetry_multiplicity
 _atom_site_fract_x
 _atom_site_fract_y
 _atom_site_fract_z
 _atom_site_occupancy
  Li  Li0  1  0.00300400  0.50495800  0.17926800  1
  Li  Li1  1  0.49938800  0.50083500  0.34333900  1
  Li  Li2  1  0.00070500  0.49793000  0.49580800  1
  Li  Li3  1  0.50868300  0.50609600  0.65805200  1
  Li  Li4  1  0.99778400  0.49955400  0.82761900  1
  Li  Li5  1  0.49465800  0.49755900  0.00067700  1
  Li  Li6  1  0.00401900  0.00247300  0.33514700  1
  Mn  Mn0  1  0.99695700  0.99641900  0.00425700  1
  Mn  Mn1  1  0.49961900  0.00019300  0.17020800  1
  Co  Co0  1  0.50340100  0.00459100  0.49135600  1
  Co  Co1  1  0.99641000  0.00188900  0.65953300  1
  Co  Co2  1  0.49273700  0.99260400  0.82563300  1
  O  O0  1  0.25167000  0.77653400  0.00706000  1
  O  O1  1  0.74985900  0.77736000  0.15461700  1
  O  O2  1  0.27985300  0.76778000  0.32097700  1
  O  O3  1  0.75169600  0.77264000  0.50630700  1
  O  O4  1  0.25559300  0.76861300  0.67086300  1
  O  O5  1  0.76155800  0.77538200  0.84358900  1
  O  O6  1  0.72205300  0.23421800  0.32189400  1
  O  O7  1  0.26046800  0.23241900  0.50831300  1
  O  O8  1  0.75032600  0.23378900  0.67411900  1
  O  O9  1  0.23228700  0.21991000  0.84346500  1
  O  O10  1  0.74069800  0.21558500  0.00424200  1
  O  O11  1  0.24657500  0.22066700  0.15365500  1
loop_
_geom_bond_atom_site_label_1
_geom_bond_atom_site_label_2
_geom_bond_distance
_geom_bond_site_symmetry_2
Li0 O2 2.034597 1_555
Li0 O6 2.071425 1_455
Li0 O1 2.167462 1_455
Li0 O0 2.178182 1_555
Li0 O11 2.180931 1_555
Li0 O10 2.259002 1_455
Li1 O2 2.011860 1_555
Li1 O6 2.020996 1_555
Li1 O7 2.107657 1_555
Li1 O3 2.124614 1_555
Li1 O1 2.298015 1_555
Li1 O11 2.311953 1_555
Li2 O3 2.151422 1_455
Li2 O7 2.156504 1_555
Li2 O4 2.201267 1_555
Li2 O8 2.202952 1_455
Li2 O6 2.228086 1_455
Li2 O2 2.252061 1_555
Li3 O3 2.030899 1_555
Li3 O7 2.043106 1_555
Li3 O8 2.115417 1_555
Li3 O4 2.117082 1_555
Li3 O5 2.260922 1_555
Li3 O9 2.347648 1_555
Li4 O8 2.044021 1_555
Li4 O4 2.096359 1_655
Li4 O5 2.109005 1_555
Li4 O9 2.119201 1_655
Li4 O0 2.241312 1_656
Li4 O10 2.250698 1_556
Li5 O11 2.073926 1_555
Li5 O1 2.096573 1_555
Li5 O9 2.124775 1_554
Li5 O5 2.138147 1_554
Li5 O0 2.144902 1_555
Li5 O10 2.169280 1_555
Li6 O3 2.089802 1_445
Li6 O2 2.097460 1_545
Li6 O7 2.108020 1_555
Li6 O6 2.111523 1_455
Li6 O11 2.116090 1_555
Li6 O1 2.142442 1_445
Mn0 O1 1.925914 1_555
Mn0 O11 1.932500 1_665
Mn0 O0 1.946315 1_655
Mn0 O10 1.949747 1_565
Mn0 O5 1.965142 1_554
Mn0 O9 1.974440 1_664
Mn1 O2 1.898550 1_545
Mn1 O6 1.909272 1_555
Mn1 O1 1.944003 1_545
Mn1 O11 1.947230 1_555
Mn1 O10 2.004591 1_555
Mn1 O0 2.013213 1_545
Co0 O7 1.934954 1_555
Co0 O3 1.972833 1_545
Co0 O6 2.011186 1_555
Co0 O2 2.037435 1_545
Co0 O4 2.146765 1_545
Co0 O8 2.149620 1_555
Co1 O3 1.954915 1_545
Co1 O8 1.962985 1_555
Co1 O7 1.993648 1_655
Co1 O4 2.021202 1_645
Co1 O9 2.114983 1_655
Co1 O5 2.133473 1_545
Co2 O4 1.937281 1_555
Co2 O5 2.001769 1_555
Co2 O8 2.002048 1_565
Co2 O9 2.005872 1_565
Co2 O0 2.108818 1_556
Co2 O10 2.112691 1_566
