# generated using pymatgen
data_Al8Cr4Si3
_symmetry_space_group_name_H-M   'P 1'
_cell_length_a   4.93496917
_cell_length_b   5.14605396
_cell_length_c   8.89948262
_cell_angle_alpha   72.72990250
_cell_angle_beta   82.90776420
_cell_angle_gamma   78.61880881
_symmetry_Int_Tables_number   1
_chemical_formula_structural   Al8Cr4Si3
_chemical_formula_sum   'Al8 Cr4 Si3'
_cell_volume   211.06585200
_cell_formula_units_Z   1
loop_
 _symmetry_equiv_pos_site_id
 _symmetry_equiv_pos_as_xyz
  1  'x, y, z'
loop_
 _atom_site_type_symbol
 _atom_site_label
 _atom_site_symmetry_multiplicity
 _atom_site_fract_x
 _atom_site_fract_y
 _atom_site_fract_z
 _atom_site_occupancy
  Al  Al0  1  0.05467300  0.14758300  0.18062600  1
  Al  Al1  1  0.94532700  0.85241700  0.81937400  1
  Al  Al2  1  0.58008800  0.04149000  0.12295000  1
  Al  Al3  1  0.41991200  0.95851000  0.87705000  1
  Al  Al4  1  0.17660600  0.64523200  0.13560000  1
  Al  Al5  1  0.82339400  0.35476800  0.86440000  1
  Al  Al6  1  0.49524200  0.22591500  0.37128800  1
  Al  Al7  1  0.50475800  0.77408500  0.62871200  1
  Cr  Cr0  1  0.32355400  0.73934000  0.37635600  1
  Cr  Cr1  1  0.67644600  0.26066000  0.62364400  1
  Cr  Cr2  1  0.70321000  0.54920300  0.10054500  1
  Cr  Cr3  1  0.29679000  0.45079700  0.89945500  1
  Si  Si0  1  0.00000000  0.00000000  0.50000000  1
  Si  Si1  1  0.16141500  0.41394200  0.62583000  1
  Si  Si2  1  0.83858500  0.58605800  0.37417000  1
loop_
_geom_bond_atom_site_label_1
_geom_bond_atom_site_label_2
_geom_bond_distance
_geom_bond_site_symmetry_2
Al0 Cr2 2.409076 1_455
Al0 Cr0 2.550723 1_545
Al0 Al2 2.561980 1_555
Al0 Al2 2.648526 1_455
Al0 Al4 2.649595 1_555
Al0 Al4 2.673407 1_545
Al0 Si0 2.708851 1_555
Al0 Cr3 2.793384 1_554
Al1 Cr3 2.409076 1_655
Al1 Cr1 2.550723 1_565
Al1 Al3 2.561980 1_555
Al1 Al3 2.648526 1_655
Al1 Al5 2.649595 1_555
Al1 Al5 2.673407 1_565
Al1 Si0 2.708851 1_665
Al1 Cr2 2.793384 1_556
Al2 Cr2 2.547397 1_545
Al2 Al3 2.590642 1_544
Al2 Al6 2.611617 1_555
Al2 Cr0 2.663850 1_545
Al2 Al5 2.685957 1_554
Al2 Cr3 2.717386 1_554
Al2 Cr2 2.742725 1_555
Al2 Si2 2.920922 1_545
Al3 Cr3 2.547397 1_565
Al3 Al7 2.611617 1_555
Al3 Cr1 2.663850 1_565
Al3 Al4 2.685957 1_556
Al3 Cr2 2.717386 1_556
Al3 Cr3 2.742725 1_555
Al3 Si1 2.920922 1_565
Al4 Si2 2.514989 1_455
Al4 Cr3 2.544805 1_554
Al4 Cr2 2.545515 1_555
Al4 Cr0 2.547461 1_555
Al4 Cr2 2.554698 1_455
Al4 Al6 2.883799 1_555
Al5 Si1 2.514989 1_655
Al5 Cr2 2.544805 1_556
Al5 Cr3 2.545515 1_555
Al5 Cr1 2.547461 1_555
Al5 Cr3 2.554698 1_655
Al5 Al7 2.883799 1_555
Al6 Cr1 2.583189 1_555
Al6 Cr0 2.622685 1_555
Al6 Cr2 2.703663 1_555
Al6 Al7 2.734518 1_545
Al6 Si2 2.754033 1_555
Al6 Si0 2.763970 1_655
Al6 Cr0 2.783962 1_545
Al6 Si0 2.876843 1_555
Al6 Si1 2.921060 1_555
Al7 Cr0 2.583189 1_555
Al7 Cr1 2.622685 1_555
Al7 Cr3 2.703663 1_555
Al7 Si1 2.754033 1_555
Al7 Si0 2.763970 1_565
Al7 Cr1 2.783962 1_565
Al7 Si0 2.876843 1_665
Al7 Si2 2.921060 1_555
Cr0 Si0 2.270867 1_565
Cr0 Si1 2.501239 1_555
Cr0 Si2 2.507642 1_555
Cr0 Si2 2.667617 1_455
Cr1 Si0 2.270867 1_655
Cr1 Si2 2.501239 1_555
Cr1 Si1 2.507642 1_555
Cr1 Si1 2.667617 1_655
Cr2 Si2 2.671713 1_555
Cr3 Si1 2.671713 1_555
Si1 Si2 2.735872 1_455
