# generated using pymatgen
data_AgBi2WO8
_symmetry_space_group_name_H-M   'P 1'
_cell_length_a   8.28769193
_cell_length_b   7.68190739
_cell_length_c   7.68190739
_cell_angle_alpha   97.48527793
_cell_angle_beta   116.85170566
_cell_angle_gamma   116.85170566
_symmetry_Int_Tables_number   1
_chemical_formula_structural   AgBi2WO8
_chemical_formula_sum   'Ag2 Bi4 W2 O16'
_cell_volume   353.29713092
_cell_formula_units_Z   2
loop_
 _symmetry_equiv_pos_site_id
 _symmetry_equiv_pos_as_xyz
  1  'x, y, z'
loop_
 _atom_site_type_symbol
 _atom_site_label
 _atom_site_symmetry_multiplicity
 _atom_site_fract_x
 _atom_site_fract_y
 _atom_site_fract_z
 _atom_site_occupancy
  Ag  Ag0  1  0.60120100  0.72214900  0.72214900  1
  Ag  Ag1  1  0.39879900  0.27785100  0.27785100  1
  Bi  Bi0  1  0.99084900  0.25379300  0.25379300  1
  Bi  Bi1  1  0.00915100  0.74620700  0.74620700  1
  Bi  Bi2  1  0.50000000  0.82968800  0.17031200  1
  Bi  Bi3  1  0.50000000  0.17031200  0.82968800  1
  W  W0  1  0.00000000  0.75377100  0.24622900  1
  W  W1  1  0.00000000  0.24622900  0.75377100  1
  O  O0  1  0.84951600  0.43838900  0.16389400  1
  O  O1  1  0.15048400  0.56161100  0.83610600  1
  O  O2  1  0.15048400  0.83610600  0.56161100  1
  O  O3  1  0.84951600  0.16389400  0.43838900  1
  O  O4  1  0.74436200  0.72331300  0.19906600  1
  O  O5  1  0.25563800  0.27668700  0.80093400  1
  O  O6  1  0.25563800  0.80093400  0.27668700  1
  O  O7  1  0.74436200  0.19906600  0.72331300  1
  O  O8  1  0.86396900  0.68656100  0.93025900  1
  O  O9  1  0.13603100  0.31343900  0.06974100  1
  O  O10  1  0.13603100  0.06974100  0.31343900  1
  O  O11  1  0.86396900  0.93025900  0.68656100  1
  O  O12  1  0.65284600  0.99139000  0.99139000  1
  O  O13  1  0.34715400  0.00861000  0.00861000  1
  O  O14  1  0.73084200  0.47149000  0.47149000  1
  O  O15  1  0.26915800  0.52851000  0.52851000  1
loop_
_geom_bond_atom_site_label_1
_geom_bond_atom_site_label_2
_geom_bond_distance
_geom_bond_site_symmetry_2
Ag0 O15 2.006471 1_555
Ag0 O8 2.209003 1_555
Ag0 O11 2.209003 1_555
Ag0 O12 2.454550 1_555
Ag1 O14 2.006471 1_555
Ag1 O9 2.209003 1_555
Ag1 O10 2.209003 1_555
Ag1 O13 2.454550 1_555
Bi0 O15 2.066997 1_655
Bi0 O12 2.170936 1_544
Bi0 O9 2.205511 1_655
Bi0 O10 2.205511 1_655
Bi0 O3 2.210131 1_555
Bi0 O0 2.210131 1_555
Bi1 O14 2.066997 1_455
Bi1 O13 2.170936 1_566
Bi1 O11 2.205511 1_455
Bi1 O8 2.205511 1_455
Bi1 O2 2.210131 1_555
Bi1 O1 2.210131 1_555
Bi2 O12 2.373393 1_554
Bi2 O13 2.373393 1_565
Bi2 O3 2.395508 1_565
Bi2 O1 2.395508 1_554
Bi2 O4 2.440468 1_555
Bi2 O6 2.440468 1_555
Bi3 O12 2.373393 1_545
Bi3 O13 2.373393 1_556
Bi3 O2 2.395508 1_545
Bi3 O0 2.395508 1_556
Bi3 O7 2.440468 1_555
Bi3 O5 2.440468 1_555
O0 W0 1.995923 1_655
O1 W1 1.995923 1_555
O2 W0 1.995923 1_555
O3 W1 1.995923 1_655
O4 W0 1.873865 1_655
O5 W1 1.873865 1_555
O6 W0 1.873865 1_555
O7 W1 1.873865 1_655
O8 W0 2.026024 1_656
O9 W1 2.026024 1_554
O10 W0 2.026024 1_545
O11 W1 2.026024 1_665
