# generated using pymatgen
data_K2MgFe4P6(O4F3)4
_symmetry_space_group_name_H-M   'P 1'
_cell_length_a   7.64795834
_cell_length_b   7.62986902
_cell_length_c   10.94539319
_cell_angle_alpha   101.40410507
_cell_angle_beta   110.55447958
_cell_angle_gamma   90.35378766
_symmetry_Int_Tables_number   1
_chemical_formula_structural   K2MgFe4P6(O4F3)4
_chemical_formula_sum   'K2 Mg1 Fe4 P6 O16 F12'
_cell_volume   584.23676143
_cell_formula_units_Z   1
loop_
 _symmetry_equiv_pos_site_id
 _symmetry_equiv_pos_as_xyz
  1  'x, y, z'
loop_
 _atom_site_type_symbol
 _atom_site_label
 _atom_site_symmetry_multiplicity
 _atom_site_fract_x
 _atom_site_fract_y
 _atom_site_fract_z
 _atom_site_occupancy
  K  K0  1  0.75213549  0.06481760  0.80748834  1
  K  K1  1  0.24866979  0.93695700  0.18884728  1
  Mg  Mg0  1  0.00056448  0.49967162  0.49842462  1
  Fe  Fe0  1  0.63255297  0.32343294  0.31722917  1
  Fe  Fe1  1  0.36820130  0.68044553  0.67849766  1
  Fe  Fe2  1  0.49833295  0.50249261  0.99911776  1
  Fe  Fe3  1  0.00244958  0.00099724  0.49891709  1
  P  P0  1  0.65329778  0.74631312  0.50527694  1
  P  P1  1  0.34785741  0.25637756  0.48956967  1
  P  P2  1  0.29153359  0.09074933  0.81589669  1
  P  P3  1  0.71203706  0.91226327  0.18303888  1
  P  P4  1  0.05833904  0.57432374  0.83217926  1
  P  P5  1  0.93924287  0.42806418  0.16460698  1
  O  O0  1  0.73274561  0.57279320  0.45763653  1
  O  O1  1  0.26739263  0.42865507  0.53773570  1
  O  O2  1  0.78573366  0.91371513  0.53906796  1
  O  O3  1  0.21906745  0.08681983  0.45867562  1
  O  O4  1  0.60243549  0.07181220  0.20490331  1
  O  O5  1  0.40393836  0.93236971  0.79754839  1
  O  O6  1  0.41913220  0.26130526  0.88585215  1
  O  O7  1  0.58124732  0.74408325  0.11196598  1
  O  O8  1  0.87991255  0.88946352  0.30375141  1
  O  O9  1  0.12459516  0.11044062  0.69355273  1
  O  O10  1  0.91122045  0.41115616  0.29020260  1
  O  O11  1  0.08739110  0.58706568  0.70626461  1
  O  O12  1  0.77618210  0.43892256  0.04231533  1
  O  O13  1  0.22055656  0.56707437  0.95601511  1
  O  O14  1  0.41718326  0.26114258  0.37720056  1
  O  O15  1  0.57853536  0.74230374  0.61515785  1
  F  F0  1  0.88746904  0.24249500  0.47730298  1
  F  F1  1  0.11656765  0.75762645  0.52157024  1
  F  F2  1  0.48570322  0.42404799  0.15428559  1
  F  F3  1  0.50678652  0.58184266  0.84285959  1
  F  F4  1  0.80839696  0.94912840  0.07953673  1
  F  F5  1  0.19270608  0.05617373  0.91870281  1
  F  F6  1  0.90678303  0.41675351  0.80168739  1
  F  F7  1  0.09149340  0.58576133  0.19748442  1
  F  F8  1  0.52678924  0.23969279  0.61651561  1
  F  F9  1  0.47773562  0.76549950  0.37721597  1
  F  F10  1  0.04977612  0.26786745  0.12276834  1
  F  F11  1  0.94623855  0.73541558  0.87063414  1
loop_
_geom_bond_atom_site_label_1
_geom_bond_atom_site_label_2
_geom_bond_distance
_geom_bond_site_symmetry_2
K0 O5 2.800797 1_545
K0 O15 2.863230 1_545
K0 O2 3.036632 1_545
K1 O4 2.823119 1_565
K1 O14 2.847401 1_565
K1 O3 3.036181 1_565
K1 O7 3.225337 1_555
K1 O13 3.356923 1_554
Mg0 O1 2.032840 1_555
Mg0 O0 2.043642 1_455
Mg0 O11 2.096334 1_555
Mg0 O10 2.099828 1_455
Fe0 O4 2.027965 1_555
Fe0 O14 2.059790 1_555
Fe0 O0 2.137195 1_555
Fe0 O10 2.362424 1_555
Fe1 O15 2.047974 1_555
Fe1 O5 2.054327 1_555
Fe1 O1 2.153137 1_555
Fe1 O11 2.395275 1_555
Fe2 O6 1.961384 1_555
Fe2 O7 1.964874 1_556
Fe2 O12 2.090993 1_556
Fe2 O13 2.092756 1_555
Fe3 O3 1.995105 1_555
Fe3 O2 1.999321 1_445
Fe3 O9 1.999458 1_555
Fe3 O8 2.007779 1_445
O0 P0 1.534050 1_555
O1 P1 1.532383 1_555
O2 P0 1.525853 1_555
O3 P1 1.528262 1_555
O4 P3 1.509988 1_545
O5 P2 1.509211 1_565
O6 P2 1.515792 1_555
O7 P3 1.515020 1_555
O8 P3 1.525399 1_555
O9 P2 1.525525 1_555
O10 P5 1.492992 1_555
O11 P4 1.491964 1_555
O12 P5 1.492222 1_555
O13 P4 1.493021 1_555
O14 P1 1.506818 1_555
O15 P0 1.507165 1_555
F0 Fe3 2.066573 1_655
F0 Mg0 2.076329 1_655
F0 Fe0 2.301343 1_555
F1 Fe3 2.078790 1_565
F1 Mg0 2.085276 1_555
F1 Fe1 2.256883 1_555
F2 Fe2 1.941261 1_554
F2 Fe0 2.043785 1_555
F3 Fe2 1.944871 1_555
F3 Fe1 2.032720 1_555
F4 P3 1.617195 1_555
F4 K0 3.158363 1_564
F4 K1 3.161797 1_655
F5 P2 1.618398 1_555
F5 K1 3.151700 1_546
F5 K0 3.161297 1_455
F6 P4 1.566124 1_655
F6 K0 2.948604 1_555
F7 P5 1.565340 1_455
F7 K1 2.962138 1_555
F8 P1 1.598890 1_555
F8 K0 2.778751 1_555
F9 P0 1.597178 1_555
F9 K1 2.754993 1_555
F10 P5 1.575293 1_455
F10 K1 3.034568 1_545
F11 P4 1.576301 1_655
F11 K0 3.001768 1_565
