# generated using pymatgen
data_SrLaGaCuO5
_symmetry_space_group_name_H-M   'P 1'
_cell_length_a   9.19227902
_cell_length_b   9.19227902
_cell_length_c   5.35338285
_cell_angle_alpha   73.09100553
_cell_angle_beta   73.09100553
_cell_angle_gamma   130.17322148
_symmetry_Int_Tables_number   1
_chemical_formula_structural   SrLaGaCuO5
_chemical_formula_sum   'Sr2 La2 Ga2 Cu2 O10'
_cell_volume   250.02737659
_cell_formula_units_Z   2
loop_
 _symmetry_equiv_pos_site_id
 _symmetry_equiv_pos_as_xyz
  1  'x, y, z'
loop_
 _atom_site_type_symbol
 _atom_site_label
 _atom_site_symmetry_multiplicity
 _atom_site_fract_x
 _atom_site_fract_y
 _atom_site_fract_z
 _atom_site_occupancy
  Sr  Sr0  1  0.40150700  0.12287900  0.48996400  1
  Sr  Sr1  1  0.12287900  0.40150700  0.48996400  1
  La  La0  1  0.57423100  0.86926300  0.53081200  1
  La  La1  1  0.86926300  0.57423100  0.53081200  1
  Ga  Ga0  1  0.18435400  0.18435400  0.11112000  1
  Ga  Ga1  1  0.81787800  0.81787800  0.97153100  1
  Cu  Cu0  1  0.49729200  0.99636000  0.00323700  1
  Cu  Cu1  1  0.99636000  0.49729200  0.00323700  1
  O  O0  1  0.86910900  0.86910900  0.28244500  1
  O  O1  1  0.12901200  0.12901200  0.51757100  1
  O  O2  1  0.42050500  0.22566600  0.90307700  1
  O  O3  1  0.60045200  0.80176500  0.02103400  1
  O  O4  1  0.22566600  0.42050500  0.90307700  1
  O  O5  1  0.80176500  0.60045200  0.02103400  1
  O  O6  1  0.75356300  0.24485900  0.50283400  1
  O  O7  1  0.24047900  0.75082700  0.00570900  1
  O  O8  1  0.24485900  0.75356300  0.50283400  1
  O  O9  1  0.75082700  0.24047900  0.00570900  1
loop_
_geom_bond_atom_site_label_1
_geom_bond_atom_site_label_2
_geom_bond_distance
_geom_bond_site_symmetry_2
La0 O4 2.388495 1_555
La0 O8 2.553881 1_555
La0 O7 2.569895 1_556
La0 O9 2.607699 1_565
La0 O6 2.621570 1_565
La0 O3 2.635142 1_556
La0 O0 2.650429 1_555
La0 O3 2.947202 1_555
La1 O2 2.388495 1_555
La1 O6 2.553881 1_555
La1 O9 2.569895 1_556
La1 O7 2.607699 1_655
La1 O8 2.621570 1_655
La1 O5 2.635142 1_556
La1 O0 2.650429 1_555
La1 O5 2.947202 1_555
Ga0 O4 1.838714 1_554
Ga0 O2 1.838714 1_554
Ga0 O1 1.905357 1_555
Ga0 O0 1.926016 1_445
Ga1 O3 1.836806 1_556
Ga1 O5 1.836806 1_556
Ga1 O1 1.904123 1_665
Ga1 O0 1.959516 1_556
Cu0 O8 1.937662 1_555
Cu0 O9 1.937781 1_565
Cu0 O7 1.938367 1_555
Cu0 O6 1.941736 1_564
Cu0 O3 2.499985 1_555
Cu0 O2 2.590565 1_564
Cu1 O6 1.937662 1_555
Cu1 O7 1.937781 1_655
Cu1 O9 1.938367 1_555
Cu1 O8 1.941736 1_654
Cu1 O5 2.499985 1_555
Cu1 O4 2.590565 1_654
O1 Sr0 2.504195 1_555
O1 Sr1 2.504195 1_555
O2 Sr0 2.653580 1_555
O2 Sr0 2.921551 1_556
O3 Sr1 2.547197 1_555
O3 Sr1 3.212537 1_664
O4 Sr1 2.653580 1_555
O4 Sr1 2.921551 1_556
O5 Sr0 2.547197 1_555
O5 Sr0 3.212537 1_664
O6 Sr1 2.665038 1_655
O6 Sr0 2.688477 1_555
O7 Sr0 2.666257 1_564
O7 Sr1 2.692389 1_555
O8 Sr0 2.665038 1_565
O8 Sr1 2.688477 1_555
O9 Sr1 2.666257 1_654
O9 Sr0 2.692389 1_555
