# generated using pymatgen
data_Li2MgSi
_symmetry_space_group_name_H-M   'P 1'
_cell_length_a   6.33622665
_cell_length_b   6.33622665
_cell_length_c   6.33622665
_cell_angle_alpha   90.00000000
_cell_angle_beta   90.00000000
_cell_angle_gamma   90.00000000
_symmetry_Int_Tables_number   1
_chemical_formula_structural   Li2MgSi
_chemical_formula_sum   'Li8 Mg4 Si4'
_cell_volume   254.38535855
_cell_formula_units_Z   4
loop_
 _symmetry_equiv_pos_site_id
 _symmetry_equiv_pos_as_xyz
  1  'x, y, z'
loop_
 _atom_site_type_symbol
 _atom_site_label
 _atom_site_symmetry_multiplicity
 _atom_site_fract_x
 _atom_site_fract_y
 _atom_site_fract_z
 _atom_site_occupancy
  Li  Li0  1  0.50000000  0.50000000  0.50000000  1
  Li  Li1  1  0.50000000  0.50000000  0.00000000  1
  Li  Li2  1  0.50000000  0.00000000  0.50000000  1
  Li  Li3  1  -0.00000000  0.50000000  0.50000000  1
  Li  Li4  1  0.27367151  0.27367151  0.72632849  1
  Li  Li5  1  0.27367151  0.72632849  0.27367151  1
  Li  Li6  1  0.72632849  0.27367151  0.27367151  1
  Li  Li7  1  0.72632849  0.72632849  0.72632849  1
  Mg  Mg0  1  -0.00000000  -0.00000000  0.00000000  1
  Mg  Mg1  1  -0.00000000  -0.00000000  0.50000000  1
  Mg  Mg2  1  -0.00000000  0.50000000  0.00000000  1
  Mg  Mg3  1  0.50000000  0.00000000  0.00000000  1
  Si  Si0  1  0.74676865  0.74676865  0.25323135  1
  Si  Si1  1  0.74676865  0.25323135  0.74676865  1
  Si  Si2  1  0.25323135  0.74676865  0.74676865  1
  Si  Si3  1  0.25323135  0.25323135  0.25323135  1
loop_
_geom_bond_atom_site_label_1
_geom_bond_atom_site_label_2
_geom_bond_distance
_geom_bond_site_symmetry_2
Li0 Li6 2.483880 1_555
Li0 Li7 2.483880 1_555
Li0 Li4 2.483880 1_555
Li0 Li5 2.483880 1_555
Li0 Si3 2.708204 1_555
Li0 Si0 2.708204 1_555
Li0 Si2 2.708204 1_555
Li0 Si1 2.708204 1_555
Li1 Li4 2.668336 1_554
Li1 Li6 2.668336 1_555
Li1 Li5 2.668336 1_555
Li1 Li7 2.668336 1_554
Li1 Si3 2.732050 1_555
Li1 Si1 2.732050 1_554
Li1 Si2 2.732050 1_554
Li1 Si0 2.732050 1_555
Li2 Li6 2.668336 1_555
Li2 Li4 2.668336 1_555
Li2 Li7 2.668336 1_545
Li2 Li5 2.668336 1_545
Li2 Si2 2.732050 1_545
Li2 Si3 2.732050 1_555
Li2 Si0 2.732050 1_545
Li2 Si1 2.732050 1_555
Li3 Li7 2.668336 1_455
Li3 Li4 2.668336 1_555
Li3 Li6 2.668336 1_455
Li3 Li5 2.668336 1_555
Li3 Si0 2.732050 1_455
Li3 Si3 2.732050 1_555
Li3 Si1 2.732050 1_455
Li3 Si2 2.732050 1_555
Li4 Mg2 2.840841 1_556
Li4 Mg3 2.840841 1_556
Li4 Mg1 2.840841 1_555
Li4 Si1 3.003241 1_555
Li4 Si3 3.003241 1_555
Li4 Si2 3.003241 1_555
Li4 Mg0 3.003454 1_556
Li5 Mg2 2.840841 1_555
Li5 Mg3 2.840841 1_565
Li5 Mg1 2.840841 1_565
Li5 Si0 3.003241 1_555
Li5 Si3 3.003241 1_555
Li5 Si2 3.003241 1_555
Li5 Mg0 3.003454 1_565
Li6 Mg1 2.840841 1_655
Li6 Mg2 2.840841 1_655
Li6 Mg3 2.840841 1_555
Li6 Si3 3.003241 1_555
Li6 Si1 3.003241 1_555
Li6 Si0 3.003241 1_555
Li6 Mg0 3.003454 1_655
Li7 Mg1 2.840841 1_665
Li7 Mg3 2.840841 1_566
Li7 Mg2 2.840841 1_656
Li7 Si2 3.003241 1_555
Li7 Si1 3.003241 1_555
Li7 Si0 3.003241 1_555
Li7 Mg0 3.003454 1_666
Mg0 Si1 2.779130 1_454
Mg0 Si2 2.779130 1_544
Mg0 Si0 2.779130 1_445
Mg0 Si3 2.779130 1_555
Mg1 Si0 2.755690 1_445
Mg1 Si2 2.755690 1_545
Mg1 Si3 2.755690 1_555
Mg1 Si1 2.755690 1_455
Mg2 Si1 2.755690 1_454
Mg2 Si0 2.755690 1_455
Mg2 Si3 2.755690 1_555
Mg2 Si2 2.755690 1_554
Mg3 Si2 2.755690 1_544
Mg3 Si1 2.755690 1_554
Mg3 Si3 2.755690 1_555
Mg3 Si0 2.755690 1_545
