# generated using pymatgen
data_La2CdAu2
_symmetry_space_group_name_H-M   'P 1'
_cell_length_a   8.15512079
_cell_length_b   8.15512079
_cell_length_c   4.00338191
_cell_angle_alpha   90.00000000
_cell_angle_beta   90.00000000
_cell_angle_gamma   90.00000000
_symmetry_Int_Tables_number   1
_chemical_formula_structural   La2CdAu2
_chemical_formula_sum   'La4 Cd2 Au4'
_cell_volume   266.24889769
_cell_formula_units_Z   2
loop_
 _symmetry_equiv_pos_site_id
 _symmetry_equiv_pos_as_xyz
  1  'x, y, z'
loop_
 _atom_site_type_symbol
 _atom_site_label
 _atom_site_symmetry_multiplicity
 _atom_site_fract_x
 _atom_site_fract_y
 _atom_site_fract_z
 _atom_site_occupancy
  La  La0  1  0.67199361  0.17199361  0.50000000  1
  La  La1  1  0.32800639  0.82800639  0.50000000  1
  La  La2  1  0.17199361  0.32800639  0.50000000  1
  La  La3  1  0.82800639  0.67199361  0.50000000  1
  Cd  Cd0  1  -0.00000000  0.00000000  0.00000000  1
  Cd  Cd1  1  0.50000000  0.50000000  0.00000000  1
  Au  Au0  1  0.12823064  0.62823064  0.00000000  1
  Au  Au1  1  0.87176936  0.37176936  -0.00000000  1
  Au  Au2  1  0.62823064  0.87176936  -0.00000000  1
  Au  Au3  1  0.37176936  0.12823064  0.00000000  1
loop_
_geom_bond_atom_site_label_1
_geom_bond_atom_site_label_2
_geom_bond_distance
_geom_bond_site_symmetry_2
Cd0 La0 3.623451 1_455
Cd0 La0 3.623451 1_454
Cd0 La3 3.623451 1_444
Cd0 La2 3.623451 1_554
Cd0 La3 3.623451 1_445
Cd0 La1 3.623451 1_545
Cd0 La1 3.623451 1_544
Cd0 La2 3.623451 1_555
Cd1 La1 3.623451 1_554
Cd1 La0 3.623451 1_554
Cd1 La3 3.623451 1_555
Cd1 La3 3.623451 1_554
Cd1 La0 3.623451 1_555
Cd1 La2 3.623451 1_554
Cd1 La1 3.623451 1_555
Cd1 La2 3.623451 1_555
Au0 Au1 2.957789 1_455
Au0 La1 3.052101 1_555
Au0 La1 3.052101 1_554
Au0 La3 3.182551 1_455
Au0 La3 3.182551 1_454
Au0 La2 3.182551 1_554
Au0 La2 3.182551 1_555
Au0 Cd0 3.207105 1_565
Au0 Cd1 3.207105 1_555
Au1 La0 3.052101 1_555
Au1 La0 3.052101 1_554
Au1 La2 3.182551 1_655
Au1 La2 3.182551 1_654
Au1 La3 3.182551 1_555
Au1 La3 3.182551 1_554
Au1 Cd0 3.207105 1_655
Au1 Cd1 3.207105 1_555
Au2 Au3 2.957789 1_565
Au2 La3 3.052101 1_555
Au2 La3 3.052101 1_554
Au2 La0 3.182551 1_564
Au2 La0 3.182551 1_565
Au2 La1 3.182551 1_554
Au2 La1 3.182551 1_555
Au2 Cd0 3.207105 1_665
Au2 Cd1 3.207105 1_555
Au3 La2 3.052101 1_554
Au3 La2 3.052101 1_555
Au3 La1 3.182551 1_545
Au3 La1 3.182551 1_544
Au3 La0 3.182551 1_555
Au3 La0 3.182551 1_554
Au3 Cd1 3.207105 1_555
Au3 Cd0 3.207105 1_555
