# generated using pymatgen
data_MnBO3
_symmetry_space_group_name_H-M   'P 1'
_cell_length_a   4.68409486
_cell_length_b   5.45749631
_cell_length_c   7.34317133
_cell_angle_alpha   75.24612380
_cell_angle_beta   86.01851330
_cell_angle_gamma   87.58288049
_symmetry_Int_Tables_number   1
_chemical_formula_structural   MnBO3
_chemical_formula_sum   'Mn4 B4 O12'
_cell_volume   181.03091068
_cell_formula_units_Z   4
loop_
 _symmetry_equiv_pos_site_id
 _symmetry_equiv_pos_as_xyz
  1  'x, y, z'
loop_
 _atom_site_type_symbol
 _atom_site_label
 _atom_site_symmetry_multiplicity
 _atom_site_fract_x
 _atom_site_fract_y
 _atom_site_fract_z
 _atom_site_occupancy
  Mn  Mn0  1  0.49999925  0.50000151  0.49999986  1
  Mn  Mn1  1  0.49999487  0.49999621  -0.00000571  1
  Mn  Mn2  1  -0.00000116  -0.00000144  -0.00000154  1
  Mn  Mn3  1  0.00000718  0.00000228  0.50000432  1
  B  B0  1  0.00641928  0.50682325  0.24290955  1
  B  B1  1  0.50660205  0.00708636  0.74307843  1
  B  B2  1  0.99357759  0.49317548  0.75709074  1
  B  B3  1  0.49340261  0.99291688  0.25692232  1
  O  O0  1  0.80073325  0.99896077  0.73687099  1
  O  O1  1  0.30056878  0.49839988  0.23684754  1
  O  O2  1  0.14622372  0.64557560  0.60438169  1
  O  O3  1  0.64593383  0.14544553  0.10427253  1
  O  O4  1  0.63853985  0.83590579  0.39980955  1
  O  O5  1  0.13864432  0.33597721  0.89998101  1
  O  O6  1  0.36146421  0.16409366  0.60018953  1
  O  O7  1  0.86134874  0.66402622  0.10001660  1
  O  O8  1  0.85376947  0.35441948  0.39562660  1
  O  O9  1  0.35406516  0.85455473  0.89572684  1
  O  O10  1  0.19926446  0.00103967  0.26313777  1
  O  O11  1  0.69944052  0.50160092  0.76314137  1
loop_
_geom_bond_atom_site_label_1
_geom_bond_atom_site_label_2
_geom_bond_distance
_geom_bond_site_symmetry_2
Mn0 O4 1.915751 1_555
Mn0 O6 1.915759 1_555
Mn0 O8 1.996837 1_555
Mn0 O2 1.996864 1_555
Mn0 O11 2.206020 1_555
Mn0 O1 2.206070 1_555
Mn1 O1 1.914427 1_555
Mn1 O11 1.914455 1_554
Mn1 O3 2.001042 1_555
Mn1 O9 2.001052 1_554
Mn1 O5 2.200177 1_554
Mn1 O7 2.200254 1_555
Mn2 O7 1.916109 1_445
Mn2 O5 1.916131 1_554
Mn2 O9 1.997262 1_544
Mn2 O3 1.997273 1_455
Mn2 O0 2.204779 1_444
Mn2 O10 2.204862 1_555
Mn3 O10 1.914808 1_555
Mn3 O0 1.914837 1_445
Mn3 O8 2.000995 1_455
Mn3 O2 2.001007 1_545
Mn3 O6 2.201408 1_555
Mn3 O4 2.201496 1_445
B0 O1 1.374655 1_555
B0 O7 1.374823 1_455
B0 O8 1.387225 1_455
B1 O6 1.374532 1_555
B1 O0 1.374541 1_545
B1 O9 1.386947 1_545
B2 O11 1.374599 1_555
B2 O5 1.374790 1_655
B2 O2 1.387172 1_655
B3 O4 1.374531 1_555
B3 O10 1.374572 1_565
B3 O3 1.386933 1_565
