# generated using pymatgen
data_K2Mo(OF)4
_symmetry_space_group_name_H-M   'P 1'
_cell_length_a   6.41519000
_cell_length_b   6.36016200
_cell_length_c   18.56795386
_cell_angle_alpha   84.55618656
_cell_angle_beta   90.00000000
_cell_angle_gamma   90.00000000
_symmetry_Int_Tables_number   1
_chemical_formula_structural   K2Mo(OF)4
_chemical_formula_sum   'K8 Mo4 O16 F16'
_cell_volume   754.18610130
_cell_formula_units_Z   4
loop_
 _symmetry_equiv_pos_site_id
 _symmetry_equiv_pos_as_xyz
  1  'x, y, z'
loop_
 _atom_site_type_symbol
 _atom_site_label
 _atom_site_symmetry_multiplicity
 _atom_site_fract_x
 _atom_site_fract_y
 _atom_site_fract_z
 _atom_site_occupancy
  K  K0  1  0.64852800  0.68951000  0.89965500  1
  K  K1  1  0.14852800  0.31049000  0.60034500  1
  K  K2  1  0.35147200  0.31049000  0.10034500  1
  K  K3  1  0.85147200  0.68951000  0.39965500  1
  K  K4  1  0.65097700  0.25194200  0.75360700  1
  K  K5  1  0.15097700  0.74805800  0.74639300  1
  K  K6  1  0.34902300  0.74805800  0.24639300  1
  K  K7  1  0.84902300  0.25194200  0.25360700  1
  Mo  Mo0  1  0.66716700  0.78377900  0.63036400  1
  Mo  Mo1  1  0.16716700  0.21622100  0.86963600  1
  Mo  Mo2  1  0.33283300  0.21622100  0.36963600  1
  Mo  Mo3  1  0.83283300  0.78377900  0.13036400  1
  O  O0  1  0.40111000  0.95179800  0.62599000  1
  O  O1  1  0.90111000  0.04820200  0.87401000  1
  O  O2  1  0.59889000  0.04820200  0.37401000  1
  O  O3  1  0.09889000  0.95179800  0.12599000  1
  O  O4  1  0.57477600  0.08683500  0.61780900  1
  O  O5  1  0.07477600  0.91316500  0.88219100  1
  O  O6  1  0.42522400  0.91316500  0.38219100  1
  O  O7  1  0.92522400  0.08683500  0.11780900  1
  O  O8  1  0.68094900  0.73928300  0.54115600  1
  O  O9  1  0.18094900  0.26071700  0.95884400  1
  O  O10  1  0.31905100  0.26071700  0.45884400  1
  O  O11  1  0.81905100  0.73928300  0.04115600  1
  O  O12  1  0.65954700  0.30519000  0.98820600  1
  O  O13  1  0.15954700  0.69481000  0.51179400  1
  O  O14  1  0.34045300  0.69481000  0.01179400  1
  O  O15  1  0.84045300  0.30519000  0.48820600  1
  F  F0  1  0.66753900  0.81617900  0.74131900  1
  F  F1  1  0.16753900  0.18382100  0.75868100  1
  F  F2  1  0.33246100  0.18382100  0.25868100  1
  F  F3  1  0.83246100  0.81617900  0.24131900  1
  F  F4  1  0.85717600  0.54296800  0.66270000  1
  F  F5  1  0.35717600  0.45703200  0.83730000  1
  F  F6  1  0.14282400  0.45703200  0.33730000  1
  F  F7  1  0.64282400  0.54296800  0.16270000  1
  F  F8  1  0.45643500  0.55836600  0.66009600  1
  F  F9  1  0.95643500  0.44163400  0.83990400  1
  F  F10  1  0.54356500  0.44163400  0.33990400  1
  F  F11  1  0.04356500  0.55836600  0.16009600  1
  F  F12  1  0.93782200  0.93383200  0.63400800  1
  F  F13  1  0.43782200  0.06616800  0.86599200  1
  F  F14  1  0.06217800  0.06616800  0.36599200  1
  F  F15  1  0.56217800  0.93383200  0.13400800  1
loop_
_geom_bond_atom_site_label_1
_geom_bond_atom_site_label_2
_geom_bond_distance
_geom_bond_site_symmetry_2
K0 O1 2.801911 1_565
K0 O12 2.814365 1_555
K0 O14 2.873321 1_556
K0 O11 2.890998 1_556
K1 O0 2.801911 1_545
K1 O13 2.814365 1_555
K1 O15 2.873321 1_455
K1 O10 2.890998 1_555
K2 O3 2.801911 1_545
K2 O14 2.814365 1_555
K2 O12 2.873321 1_554
K2 O9 2.890998 1_554
K3 O2 2.801911 1_565
K3 O15 2.814365 1_555
K3 O13 2.873321 1_655
K3 O8 2.890998 1_555
K4 O4 2.863915 1_555
K4 O1 2.949992 1_555
K5 O5 2.863915 1_555
K5 O0 2.949992 1_555
K6 O6 2.863915 1_555
K6 O3 2.949992 1_555
K7 O7 2.863915 1_555
K7 O2 2.949992 1_555
Mo0 O8 1.708960 1_555
Mo0 O4 2.008877 1_565
Mo0 O0 2.011289 1_555
Mo1 O9 1.708960 1_555
Mo1 O5 2.008877 1_545
Mo1 O1 2.011289 1_455
Mo2 O10 1.708960 1_555
Mo2 O6 2.008877 1_545
Mo2 O2 2.011289 1_555
Mo3 O11 1.708960 1_555
Mo3 O7 2.008877 1_565
Mo3 O3 2.011289 1_655
O0 O4 1.406121 1_565
O1 O5 1.406121 1_645
O2 O6 1.406121 1_545
O3 O7 1.406121 1_465
F0 Mo0 2.089851 1_555
F0 K4 2.804402 1_565
F0 K0 2.976235 1_555
F0 K5 3.131644 1_655
F1 Mo1 2.089851 1_555
F1 K5 2.804402 1_545
F1 K1 2.976235 1_555
F1 K4 3.131644 1_555
F2 Mo2 2.089851 1_555
F2 K6 2.804402 1_545
F2 K2 2.976235 1_555
F2 K7 3.131644 1_455
F3 Mo3 2.089851 1_555
F3 K7 2.804402 1_565
F3 K3 2.976235 1_555
F3 K6 3.131644 1_555
F4 Mo0 2.004402 1_555
F4 K1 2.710173 1_655
F4 K4 2.726224 1_555
F4 K5 2.837861 1_655
F5 Mo1 2.004402 1_555
F5 K0 2.710173 1_555
F5 K5 2.726224 1_555
F5 K4 2.837861 1_555
F6 Mo2 2.004402 1_555
F6 K3 2.710173 1_455
F6 K6 2.726224 1_555
F6 K7 2.837861 1_455
F7 Mo3 2.004402 1_555
F7 K2 2.710173 1_555
F7 K7 2.726224 1_555
F7 K6 2.837861 1_555
F8 Mo0 2.009374 1_555
F8 K4 2.780019 1_555
F8 K1 2.819565 1_555
F8 K5 2.868772 1_555
F9 Mo1 2.009374 1_655
F9 K5 2.780019 1_655
F9 K0 2.819565 1_555
F9 K4 2.868772 1_555
F10 Mo2 2.009374 1_555
F10 K6 2.780019 1_555
F10 K3 2.819565 1_555
F10 K7 2.868772 1_555
F11 Mo3 2.009374 1_455
F11 K7 2.780019 1_455
F11 K2 2.819565 1_555
F11 K6 2.868772 1_555
F12 Mo0 1.985544 1_555
F12 K5 2.674448 1_655
F12 K1 2.769955 1_665
F13 Mo1 1.985544 1_555
F13 K4 2.674448 1_555
F13 K0 2.769955 1_545
F14 Mo2 1.985544 1_555
F14 K7 2.674448 1_455
F14 K3 2.769955 1_445
F15 Mo3 1.985544 1_555
F15 K6 2.674448 1_555
F15 K2 2.769955 1_565
