# generated using pymatgen
data_CsMg30BO32
_symmetry_space_group_name_H-M   'P 1'
_cell_length_a   8.59923900
_cell_length_b   8.59923900
_cell_length_c   8.71213600
_cell_angle_alpha   90.00000000
_cell_angle_beta   90.00000000
_cell_angle_gamma   90.00000000
_symmetry_Int_Tables_number   1
_chemical_formula_structural   CsMg30BO32
_chemical_formula_sum   'Cs1 Mg30 B1 O32'
_cell_volume   644.23554871
_cell_formula_units_Z   1
loop_
 _symmetry_equiv_pos_site_id
 _symmetry_equiv_pos_as_xyz
  1  'x, y, z'
loop_
 _atom_site_type_symbol
 _atom_site_label
 _atom_site_symmetry_multiplicity
 _atom_site_fract_x
 _atom_site_fract_y
 _atom_site_fract_z
 _atom_site_occupancy
  Cs  Cs0  1  0.00000000  0.00000000  0.00000000  1
  Mg  Mg0  1  0.00000000  0.50000000  0.00000000  1
  Mg  Mg1  1  0.50000000  0.00000000  0.00000000  1
  Mg  Mg2  1  0.00000000  0.00000000  0.50000000  1
  Mg  Mg3  1  0.00000000  0.50000000  0.50000000  1
  Mg  Mg4  1  0.50000000  0.00000000  0.50000000  1
  Mg  Mg5  1  0.50000000  0.50000000  0.50000000  1
  Mg  Mg6  1  0.25671500  0.25671500  0.00000000  1
  Mg  Mg7  1  0.25671500  0.74328500  0.00000000  1
  Mg  Mg8  1  0.74328500  0.25671500  0.00000000  1
  Mg  Mg9  1  0.74328500  0.74328500  0.00000000  1
  Mg  Mg10  1  0.24999100  0.24999100  0.50000000  1
  Mg  Mg11  1  0.24999100  0.75000900  0.50000000  1
  Mg  Mg12  1  0.75000900  0.24999100  0.50000000  1
  Mg  Mg13  1  0.75000900  0.75000900  0.50000000  1
  Mg  Mg14  1  0.00000000  0.25411300  0.25544900  1
  Mg  Mg15  1  0.00000000  0.74588700  0.25544900  1
  Mg  Mg16  1  0.50000000  0.25533200  0.25193000  1
  Mg  Mg17  1  0.50000000  0.74466800  0.25193000  1
  Mg  Mg18  1  0.00000000  0.25411300  0.74455100  1
  Mg  Mg19  1  0.00000000  0.74588700  0.74455100  1
  Mg  Mg20  1  0.50000000  0.25533200  0.74807000  1
  Mg  Mg21  1  0.50000000  0.74466800  0.74807000  1
  Mg  Mg22  1  0.25411300  0.00000000  0.25544900  1
  Mg  Mg23  1  0.25533200  0.50000000  0.25193000  1
  Mg  Mg24  1  0.74588700  0.00000000  0.25544900  1
  Mg  Mg25  1  0.74466800  0.50000000  0.25193000  1
  Mg  Mg26  1  0.25411300  0.00000000  0.74455100  1
  Mg  Mg27  1  0.25533200  0.50000000  0.74807000  1
  Mg  Mg28  1  0.74588700  0.00000000  0.74455100  1
  Mg  Mg29  1  0.74466800  0.50000000  0.74807000  1
  B  B0  1  0.50000000  0.50000000  0.00000000  1
  O  O0  1  0.00000000  0.00000000  0.28499400  1
  O  O1  1  0.00000000  0.50000000  0.25174300  1
  O  O2  1  0.50000000  0.00000000  0.25174300  1
  O  O3  1  0.50000000  0.50000000  0.25656000  1
  O  O4  1  0.00000000  0.00000000  0.71500600  1
  O  O5  1  0.00000000  0.50000000  0.74825700  1
  O  O6  1  0.50000000  0.00000000  0.74825700  1
  O  O7  1  0.50000000  0.50000000  0.74344000  1
  O  O8  1  0.25057500  0.25057500  0.24753500  1
  O  O9  1  0.25057500  0.74942500  0.24753500  1
  O  O10  1  0.74942500  0.25057500  0.24753500  1
  O  O11  1  0.74942500  0.74942500  0.24753500  1
  O  O12  1  0.25057500  0.25057500  0.75246500  1
  O  O13  1  0.25057500  0.74942500  0.75246500  1
  O  O14  1  0.74942500  0.25057500  0.75246500  1
  O  O15  1  0.74942500  0.74942500  0.75246500  1
  O  O16  1  0.00000000  0.28742800  0.00000000  1
  O  O17  1  0.00000000  0.71257200  0.00000000  1
  O  O18  1  0.50000000  0.29959500  0.00000000  1
  O  O19  1  0.50000000  0.70040500  0.00000000  1
  O  O20  1  0.00000000  0.25776200  0.50000000  1
  O  O21  1  0.00000000  0.74223800  0.50000000  1
  O  O22  1  0.50000000  0.25175800  0.50000000  1
  O  O23  1  0.50000000  0.74824200  0.50000000  1
  O  O24  1  0.28742800  0.00000000  0.00000000  1
  O  O25  1  0.29959500  0.50000000  0.00000000  1
  O  O26  1  0.71257200  0.00000000  0.00000000  1
  O  O27  1  0.70040500  0.50000000  0.00000000  1
  O  O28  1  0.25776200  0.00000000  0.50000000  1
  O  O29  1  0.25175800  0.50000000  0.50000000  1
  O  O30  1  0.74223800  0.00000000  0.50000000  1
  O  O31  1  0.74824200  0.50000000  0.50000000  1
loop_
_geom_bond_atom_site_label_1
_geom_bond_atom_site_label_2
_geom_bond_distance
_geom_bond_site_symmetry_2
Cs0 O24 2.471662 1_555
Cs0 O16 2.471662 1_555
Cs0 O26 2.471662 1_455
Cs0 O17 2.471662 1_545
Cs0 O0 2.482906 1_555
Cs0 O4 2.482906 1_554
Mg0 O17 1.827957 1_555
Mg0 O16 1.827957 1_555
Mg0 O1 2.193219 1_555
Mg0 O5 2.193219 1_554
Mg0 O25 2.576289 1_555
Mg0 O27 2.576289 1_455
Mg1 O26 1.827957 1_555
Mg1 O24 1.827957 1_555
Mg1 O2 2.193219 1_555
Mg1 O6 2.193219 1_554
Mg1 O18 2.576289 1_555
Mg1 O19 2.576289 1_545
Mg2 O4 1.873162 1_555
Mg2 O0 1.873162 1_555
Mg2 O20 2.216557 1_555
Mg2 O28 2.216557 1_555
Mg2 O30 2.216557 1_455
Mg2 O21 2.216557 1_545
Mg3 O21 2.083062 1_555
Mg3 O20 2.083062 1_555
Mg3 O5 2.162849 1_555
Mg3 O1 2.162849 1_555
Mg3 O29 2.164927 1_555
Mg3 O31 2.164927 1_455
Mg4 O30 2.083062 1_555
Mg4 O28 2.083062 1_555
Mg4 O6 2.162849 1_555
Mg4 O2 2.162849 1_555
Mg4 O22 2.164927 1_555
Mg4 O23 2.164927 1_545
Mg5 O3 2.120882 1_555
Mg5 O7 2.120882 1_555
Mg5 O31 2.134692 1_555
Mg5 O23 2.134692 1_555
Mg5 O22 2.134692 1_555
Mg5 O29 2.134692 1_555
Mg6 O25 2.124313 1_555
Mg6 O18 2.124313 1_555
Mg6 O8 2.157851 1_555
Mg6 O12 2.157851 1_554
Mg6 O24 2.223296 1_555
Mg6 O16 2.223296 1_555
Mg7 O25 2.124313 1_555
Mg7 O19 2.124313 1_555
Mg7 O9 2.157851 1_555
Mg7 O13 2.157851 1_554
Mg7 O17 2.223296 1_555
Mg7 O24 2.223296 1_565
Mg8 O18 2.124313 1_555
Mg8 O27 2.124313 1_555
Mg8 O10 2.157851 1_555
Mg8 O14 2.157851 1_554
Mg8 O26 2.223296 1_555
Mg8 O16 2.223296 1_655
Mg9 O19 2.124313 1_555
Mg9 O27 2.124313 1_555
Mg9 O11 2.157851 1_555
Mg9 O15 2.157851 1_554
Mg9 O26 2.223296 1_565
Mg9 O17 2.223296 1_655
Mg10 O22 2.149941 1_555
Mg10 O29 2.149941 1_555
Mg10 O20 2.150771 1_555
Mg10 O28 2.150771 1_555
Mg10 O12 2.199521 1_555
Mg10 O8 2.199521 1_555
Mg11 O29 2.149941 1_555
Mg11 O23 2.149941 1_555
Mg11 O21 2.150771 1_555
Mg11 O28 2.150771 1_565
Mg11 O13 2.199521 1_555
Mg11 O9 2.199521 1_555
Mg12 O22 2.149941 1_555
Mg12 O31 2.149941 1_555
Mg12 O30 2.150771 1_555
Mg12 O20 2.150771 1_655
Mg12 O14 2.199521 1_555
Mg12 O10 2.199521 1_555
Mg13 O23 2.149941 1_555
Mg13 O31 2.149941 1_555
Mg13 O21 2.150771 1_655
Mg13 O30 2.150771 1_565
Mg13 O15 2.199521 1_555
Mg13 O11 2.199521 1_555
Mg14 O1 2.114688 1_555
Mg14 O20 2.130793 1_555
Mg14 O10 2.156072 1_455
Mg14 O8 2.156072 1_555
Mg14 O0 2.200286 1_555
Mg14 O16 2.243870 1_555
Mg15 O1 2.114688 1_555
Mg15 O21 2.130793 1_555
Mg15 O9 2.156072 1_555
Mg15 O11 2.156072 1_455
Mg15 O0 2.200286 1_565
Mg15 O17 2.243870 1_555
Mg16 O3 2.104345 1_555
Mg16 O8 2.145597 1_555
Mg16 O10 2.145597 1_555
Mg16 O22 2.161438 1_555
Mg16 O2 2.195661 1_555
Mg16 O18 2.227608 1_555
Mg17 O3 2.104345 1_555
Mg17 O11 2.145597 1_555
Mg17 O9 2.145597 1_555
Mg17 O23 2.161438 1_555
Mg17 O2 2.195661 1_565
Mg17 O19 2.227608 1_555
Mg18 O5 2.114688 1_555
Mg18 O20 2.130793 1_555
Mg18 O14 2.156072 1_455
Mg18 O12 2.156072 1_555
Mg18 O4 2.200286 1_555
Mg18 O16 2.243870 1_556
Mg19 O5 2.114688 1_555
Mg19 O21 2.130793 1_555
Mg19 O13 2.156072 1_555
Mg19 O15 2.156072 1_455
Mg19 O4 2.200286 1_565
Mg19 O17 2.243870 1_556
Mg20 O7 2.104345 1_555
Mg20 O12 2.145597 1_555
Mg20 O14 2.145597 1_555
Mg20 O22 2.161438 1_555
Mg20 O6 2.195661 1_555
Mg20 O18 2.227608 1_556
Mg21 O7 2.104345 1_555
Mg21 O15 2.145597 1_555
Mg21 O13 2.145597 1_555
Mg21 O23 2.161438 1_555
Mg21 O6 2.195661 1_565
Mg21 O19 2.227608 1_556
Mg22 O2 2.114688 1_555
Mg22 O28 2.130793 1_555
Mg22 O9 2.156072 1_545
Mg22 O8 2.156072 1_555
Mg22 O0 2.200286 1_555
Mg22 O24 2.243870 1_555
Mg23 O3 2.104345 1_555
Mg23 O8 2.145597 1_555
Mg23 O9 2.145597 1_555
Mg23 O29 2.161438 1_555
Mg23 O1 2.195661 1_555
Mg23 O25 2.227608 1_555
Mg24 O2 2.114688 1_555
Mg24 O30 2.130793 1_555
Mg24 O10 2.156072 1_555
Mg24 O11 2.156072 1_545
Mg24 O0 2.200286 1_655
Mg24 O26 2.243870 1_555
Mg25 O3 2.104345 1_555
Mg25 O11 2.145597 1_555
Mg25 O10 2.145597 1_555
Mg25 O31 2.161438 1_555
Mg25 O1 2.195661 1_655
Mg25 O27 2.227608 1_555
Mg26 O6 2.114688 1_555
Mg26 O28 2.130793 1_555
Mg26 O12 2.156072 1_555
Mg26 O13 2.156072 1_545
Mg26 O4 2.200286 1_555
Mg26 O24 2.243870 1_556
Mg27 O7 2.104345 1_555
Mg27 O13 2.145597 1_555
Mg27 O12 2.145597 1_555
Mg27 O29 2.161438 1_555
Mg27 O5 2.195661 1_555
Mg27 O25 2.227608 1_556
Mg28 O6 2.114688 1_555
Mg28 O30 2.130793 1_555
Mg28 O15 2.156072 1_545
Mg28 O14 2.156072 1_555
Mg28 O4 2.200286 1_655
Mg28 O26 2.243870 1_556
Mg29 O7 2.104345 1_555
Mg29 O15 2.145597 1_555
Mg29 O14 2.145597 1_555
Mg29 O31 2.161438 1_555
Mg29 O5 2.195661 1_655
Mg29 O27 2.227608 1_556
B0 O19 1.723330 1_555
B0 O27 1.723330 1_555
B0 O18 1.723330 1_555
B0 O25 1.723330 1_555
