# generated using pymatgen
data_Mn13Si2(SbO14)2
_symmetry_space_group_name_H-M   'P 1'
_cell_length_a   11.74710343
_cell_length_b   11.74710343
_cell_length_c   8.84550617
_cell_angle_alpha   87.40099425
_cell_angle_beta   87.40099425
_cell_angle_gamma   152.48404954
_symmetry_Int_Tables_number   1
_chemical_formula_structural   Mn13Si2(SbO14)2
_chemical_formula_sum   'Mn13 Si2 Sb2 O28'
_cell_volume   553.58008981
_cell_formula_units_Z   1
loop_
 _symmetry_equiv_pos_site_id
 _symmetry_equiv_pos_as_xyz
  1  'x, y, z'
loop_
 _atom_site_type_symbol
 _atom_site_label
 _atom_site_symmetry_multiplicity
 _atom_site_fract_x
 _atom_site_fract_y
 _atom_site_fract_z
 _atom_site_occupancy
  Mn  Mn0  1  0.35759700  0.04073300  0.36944700  1
  Mn  Mn1  1  0.20252400  0.35056400  0.64647000  1
  Mn  Mn2  1  0.95941500  0.64231400  0.63432200  1
  Mn  Mn3  1  0.64231400  0.95941500  0.63432200  1
  Mn  Mn4  1  0.79380000  0.64405000  0.35444800  1
  Mn  Mn5  1  0.28555000  0.71357700  0.00185300  1
  Mn  Mn6  1  0.64405000  0.79380000  0.35444800  1
  Mn  Mn7  1  0.99832700  0.99832700  0.00054900  1
  Mn  Mn8  1  0.42744700  0.57566600  0.99904300  1
  Mn  Mn9  1  0.35056400  0.20252400  0.64647000  1
  Mn  Mn10  1  0.04073300  0.35759700  0.36944700  1
  Mn  Mn11  1  0.57566600  0.42744700  0.99904300  1
  Mn  Mn12  1  0.71357700  0.28555000  0.00185300  1
  Si  Si0  1  0.76597300  0.76597300  0.68280800  1
  Si  Si1  1  0.22839800  0.22839800  0.31756800  1
  Sb  Sb0  1  0.85413100  0.14597500  0.00017200  1
  Sb  Sb1  1  0.14597500  0.85413100  0.00017200  1
  O  O0  1  0.99611100  0.29594700  0.59324900  1
  O  O1  1  0.38156000  0.80790000  0.64051600  1
  O  O2  1  0.06309700  0.06309700  0.65124300  1
  O  O3  1  0.68197500  0.68197500  0.87355800  1
  O  O4  1  0.60917000  0.17904000  0.36087100  1
  O  O5  1  0.00836900  0.70874000  0.40949400  1
  O  O6  1  0.41996400  0.99718300  0.90141200  1
  O  O7  1  0.57232700  0.99152400  0.10244100  1
  O  O8  1  0.31249500  0.31249500  0.12743000  1
  O  O9  1  0.72119900  0.88102600  0.11609700  1
  O  O10  1  0.59470100  0.71426100  0.61402500  1
  O  O11  1  0.70874000  0.00836900  0.40949400  1
  O  O12  1  0.99152400  0.57232700  0.10244100  1
  O  O13  1  0.11796300  0.27694000  0.88613300  1
  O  O14  1  0.27864000  0.39955200  0.38482100  1
  O  O15  1  0.93088700  0.93088700  0.35027600  1
  O  O16  1  0.88102600  0.72119900  0.11609700  1
  O  O17  1  0.27694000  0.11796300  0.88613300  1
  O  O18  1  0.99718300  0.41996400  0.90141200  1
  O  O19  1  0.59644900  0.88521500  0.86306800  1
  O  O20  1  0.40473600  0.11550100  0.13790700  1
  O  O21  1  0.71426100  0.59470100  0.61402500  1
  O  O22  1  0.88521500  0.59644900  0.86306800  1
  O  O23  1  0.80790000  0.38156000  0.64051600  1
  O  O24  1  0.39955200  0.27864000  0.38482100  1
  O  O25  1  0.11550100  0.40473600  0.13790700  1
  O  O26  1  0.29594700  0.99611100  0.59324900  1
  O  O27  1  0.17904000  0.60917000  0.36087100  1
loop_
_geom_bond_atom_site_label_1
_geom_bond_atom_site_label_2
_geom_bond_distance
_geom_bond_site_symmetry_2
Mn0 O4 1.682514 1_555
Mn0 O5 1.878560 1_545
Mn0 O26 1.954673 1_545
Mn0 O20 2.035692 1_555
Mn0 O24 2.381019 1_555
Mn1 O0 1.970828 1_455
Mn1 O2 2.063524 1_555
Mn1 O13 2.085127 1_555
Mn1 O10 2.101451 1_555
Mn1 O14 2.294782 1_555
Mn2 O23 1.690876 1_555
Mn2 O26 1.903423 1_655
Mn2 O5 1.963208 1_655
Mn2 O22 2.013024 1_555
Mn2 O21 2.416096 1_555
Mn3 O1 1.690876 1_555
Mn3 O0 1.903423 1_565
Mn3 O11 1.963208 1_565
Mn3 O19 2.013024 1_555
Mn3 O10 2.416096 1_555
Mn4 O5 1.978673 1_655
Mn4 O16 2.073636 1_555
Mn4 O15 2.075288 1_555
Mn4 O24 2.113532 1_555
Mn4 O21 2.281460 1_555
Mn5 O7 1.956060 1_555
Mn5 O18 1.996817 1_454
Mn5 O6 2.157613 1_554
Mn5 O12 2.212801 1_455
Mn5 O25 2.265420 1_555
Mn5 O19 2.284317 1_554
Mn6 O11 1.978673 1_565
Mn6 O9 2.073636 1_555
Mn6 O15 2.075288 1_555
Mn6 O14 2.113532 1_555
Mn6 O10 2.281460 1_555
Mn7 O8 2.256611 1_665
Mn7 O17 2.263430 1_664
Mn7 O13 2.263430 1_664
Mn7 O3 2.267895 1_554
Mn7 O9 2.270471 1_555
Mn7 O16 2.270471 1_555
Mn8 O13 2.132337 1_555
Mn8 O9 2.133515 1_556
Mn8 O3 2.163720 1_555
Mn8 O8 2.192771 1_556
Mn8 O19 2.278712 1_555
Mn8 O25 2.299046 1_556
Mn9 O26 1.970828 1_545
Mn9 O2 2.063524 1_555
Mn9 O17 2.085127 1_555
Mn9 O21 2.101451 1_555
Mn9 O24 2.294782 1_555
Mn10 O27 1.682514 1_555
Mn10 O11 1.878560 1_455
Mn10 O0 1.954673 1_455
Mn10 O25 2.035692 1_555
Mn10 O14 2.381019 1_555
Mn11 O17 2.132337 1_555
Mn11 O16 2.133515 1_556
Mn11 O3 2.163720 1_555
Mn11 O8 2.192771 1_556
Mn11 O22 2.278712 1_555
Mn11 O20 2.299046 1_556
Mn12 O12 1.956060 1_555
Mn12 O6 1.996817 1_544
Mn12 O18 2.157613 1_554
Mn12 O7 2.212801 1_545
Mn12 O20 2.265420 1_555
Mn12 O22 2.284317 1_554
O2 Si0 1.630126 1_445
O3 Si0 1.662890 1_555
O6 Sb1 1.991102 1_556
O7 Sb0 1.998704 1_565
O8 Si1 1.657739 1_555
O9 Sb0 2.030123 1_565
O10 Si0 1.662465 1_555
O12 Sb1 1.998704 1_655
O13 Sb0 2.026841 1_456
O14 Si1 1.667364 1_555
O15 Si1 1.632055 1_665
O16 Sb1 2.030123 1_655
O17 Sb1 2.026841 1_546
O18 Sb0 1.991102 1_556
O19 Sb0 2.059038 1_566
O20 Sb1 2.066839 1_545
O21 Si0 1.662465 1_555
O22 Sb1 2.059038 1_656
O24 Si1 1.667364 1_555
O25 Sb0 2.066839 1_455
