# generated using pymatgen
data_AgC3N3O2
_symmetry_space_group_name_H-M   'P 1'
_cell_length_a   7.90028019
_cell_length_b   15.43591906
_cell_length_c   19.26077055
_cell_angle_alpha   70.95628730
_cell_angle_beta   78.12626653
_cell_angle_gamma   75.16838750
_symmetry_Int_Tables_number   1
_chemical_formula_structural   AgC3N3O2
_chemical_formula_sum   'Ag16 C48 N48 O32'
_cell_volume   2127.00036190
_cell_formula_units_Z   16
loop_
 _symmetry_equiv_pos_site_id
 _symmetry_equiv_pos_as_xyz
  1  'x, y, z'
loop_
 _atom_site_type_symbol
 _atom_site_label
 _atom_site_symmetry_multiplicity
 _atom_site_fract_x
 _atom_site_fract_y
 _atom_site_fract_z
 _atom_site_occupancy
  Ag  Ag0  1  0.63792475  0.43205923  0.78523021  1
  Ag  Ag1  1  0.85355988  0.06694755  0.71487313  1
  Ag  Ag2  1  0.09023847  0.14590590  0.07450180  1
  Ag  Ag3  1  0.14490440  0.42631042  0.94917740  1
  Ag  Ag4  1  0.90925534  0.85324468  0.92646819  1
  Ag  Ag5  1  0.48226360  0.92728191  0.44876520  1
  Ag  Ag6  1  0.77122225  0.45390223  0.32238633  1
  Ag  Ag7  1  0.22466271  0.54586177  0.67813576  1
  Ag  Ag8  1  0.68872026  0.64821372  0.57372403  1
  Ag  Ag9  1  0.45068523  0.95379855  0.82204210  1
  Ag  Ag10  1  0.85572411  0.57375249  0.05158507  1
  Ag  Ag11  1  0.36411873  0.56648773  0.21403254  1
  Ag  Ag12  1  0.14603153  0.93314322  0.28581069  1
  Ag  Ag13  1  0.31034815  0.35367246  0.42566376  1
  Ag  Ag14  1  0.54965027  0.04658458  0.17847741  1
  Ag  Ag15  1  0.52010001  0.07278852  0.55153364  1
  C  C0  1  0.19453611  0.32489702  0.21536557  1
  C  C1  1  0.09393249  0.08205974  0.38920223  1
  C  C2  1  0.63270350  0.11300748  0.33263107  1
  C  C3  1  0.80445371  0.67482725  0.78536787  1
  C  C4  1  0.75700867  0.39235994  0.54092094  1
  C  C5  1  0.28251791  0.58242357  0.39292420  1
  C  C6  1  0.51471381  0.12140973  0.99221598  1
  C  C7  1  0.30819625  0.89272653  0.04111300  1
  C  C8  1  0.69642550  0.75404855  0.33910020  1
  C  C9  1  0.36566262  0.88719425  0.66726845  1
  C  C10  1  0.81902784  0.84724084  0.53083672  1
  C  C11  1  0.30391620  0.24519632  0.66111833  1
  C  C12  1  0.27393473  0.16004885  0.84327455  1
  C  C13  1  0.48432137  0.87935936  0.00786107  1
  C  C14  1  0.96687454  0.70051781  0.16552891  1
  C  C15  1  0.78931009  0.74598496  0.16139993  1
  C  C16  1  0.56442546  0.41728516  0.11083033  1
  C  C17  1  0.90877094  0.91857346  0.61090602  1
  C  C18  1  0.71796146  0.41739828  0.60706981  1
  C  C19  1  0.74240662  0.08293806  0.89285245  1
  C  C20  1  0.24251849  0.60727767  0.45925130  1
  C  C21  1  0.37168108  0.62126942  0.49239801  1
  C  C22  1  0.25451628  0.74075603  0.70432700  1
  C  C23  1  0.83327627  0.79934337  0.33405474  1
  C  C24  1  0.72311101  0.65947696  0.34377509  1
  C  C25  1  0.19681557  0.65279792  0.96919416  1
  C  C26  1  0.94718104  0.87411445  0.55485008  1
  C  C27  1  0.25671763  0.91802136  0.10711764  1
  C  C28  1  0.03398246  0.29972358  0.83484473  1
  C  C29  1  0.80576370  0.34602336  0.03062257  1
  C  C30  1  0.92186373  0.61179879  0.83325588  1
  C  C31  1  0.62686841  0.37914727  0.50792098  1
  C  C32  1  0.69107445  0.10767831  0.95914873  1
  C  C33  1  0.07729025  0.38750020  0.16704666  1
  C  C34  1  0.43736562  0.58154767  0.88876413  1
  C  C35  1  0.72777527  0.84074651  0.15705475  1
  C  C36  1  0.16807769  0.19965037  0.66495769  1
  C  C37  1  0.37559127  0.62555382  0.94509494  1
  C  C38  1  0.70159119  0.75836058  0.79694493  1
  C  C39  1  0.27524408  0.33997909  0.65652175  1
  C  C40  1  0.26308068  0.82443003  0.71540753  1
  C  C41  1  0.21159051  0.25469020  0.83896878  1
  C  C42  1  0.62694813  0.37291353  0.05476543  1
  C  C43  1  0.73564193  0.17558575  0.28459335  1
  C  C44  1  0.18319013  0.15338919  0.46937307  1
  C  C45  1  0.29780357  0.24116837  0.20408457  1
  C  C46  1  0.05561658  0.12658038  0.44508134  1
  C  C47  1  0.74315595  0.25942506  0.29564103  1
  N  N0  1  0.50912493  0.45568627  0.15668730  1
  N  N1  1  0.02098278  0.55871591  0.87254845  1
  N  N2  1  0.67940307  0.44099529  0.66127342  1
  N  N3  1  0.97822328  0.44038213  0.12759387  1
  N  N4  1  0.94684067  0.83857176  0.32743762  1
  N  N5  1  0.06789273  0.61735149  0.49383435  1
  N  N6  1  0.11357273  0.66136369  0.17111115  1
  N  N7  1  0.25474028  0.41881601  0.65368548  1
  N  N8  1  0.48056964  0.63162777  0.52042332  1
  N  N9  1  0.32141321  0.55921627  0.33852241  1
  N  N10  1  0.75114439  0.32888022  0.30575643  1
  N  N11  1  0.33690944  0.30906010  0.82996981  1
  N  N12  1  0.70814067  0.82643511  0.51067850  1
  N  N13  1  0.45083724  0.94046684  0.62808408  1
  N  N14  1  0.54727686  0.05992291  0.37188760  1
  N  N15  1  0.05546377  0.16023796  0.67039472  1
  N  N16  1  0.61283613  0.82761201  0.80706961  1
  N  N17  1  0.67209690  0.91945245  0.15457260  1
  N  N18  1  0.63190080  0.86964096  0.98009866  1
  N  N19  1  0.49953053  0.63366556  0.98426899  1
  N  N20  1  0.93170472  0.38118919  0.50630332  1
  N  N21  1  0.84487513  0.14843213  0.22506792  1
  N  N22  1  0.82055986  0.11782641  0.99386038  1
  N  N23  1  0.88403214  0.13474218  0.48431818  1
  N  N24  1  0.24552822  0.67133946  0.69440138  1
  N  N25  1  0.87853485  0.95696127  0.65681240  1
  N  N26  1  0.11832541  0.86587752  0.51537918  1
  N  N27  1  0.21667272  0.35170672  0.27502788  1
  N  N28  1  0.49174153  0.54371453  0.84249305  1
  N  N29  1  0.36721455  0.13127471  0.02007827  1
  N  N30  1  0.74198429  0.58080489  0.34652048  1
  N  N31  1  0.12345344  0.04349899  0.34342297  1
  N  N32  1  0.95788657  0.32527108  0.01059304  1
  N  N33  1  0.52543962  0.80830865  0.33070068  1
  N  N34  1  0.15538902  0.85125077  0.77537197  1
  N  N35  1  0.21846490  0.94175644  0.16126023  1
  N  N36  1  0.78226148  0.64901766  0.72518028  1
  N  N37  1  0.47507395  0.19148609  0.67017850  1
  N  N38  1  0.29445087  0.17378551  0.48950659  1
  N  N39  1  0.32940934  0.08131517  0.84578211  1
  N  N40  1  0.17842105  0.88233719  0.00654095  1
  N  N41  1  0.78091020  0.05981353  0.83843472  1
  N  N42  1  0.04476670  0.67363114  0.98929564  1
  N  N43  1  0.51724839  0.36915461  0.48010364  1
  N  N44  1  0.66303989  0.69241321  0.16999172  1
  N  N45  1  0.50307990  0.36517604  0.01526969  1
  N  N46  1  0.38599287  0.17165756  0.19423432  1
  N  N47  1  0.88710384  0.33847618  0.82923929  1
  O  O0  1  0.95108941  0.60609843  0.46404547  1
  O  O1  1  0.49764618  0.27191797  0.82582536  1
  O  O2  1  0.96692964  0.36195221  0.44499425  1
  O  O3  1  0.12967585  0.42872014  0.28350583  1
  O  O4  1  0.59304222  0.22907659  0.67506225  1
  O  O5  1  0.84441402  0.07102077  0.21699455  1
  O  O6  1  0.77351388  0.10222201  0.46474317  1
  O  O7  1  0.04960375  0.39096050  0.53641296  1
  O  O8  1  0.34037501  0.39695966  0.03538237  1
  O  O9  1  0.94286950  0.20276224  0.18110637  1
  O  O10  1  0.22267667  0.86283117  0.94540731  1
  O  O11  1  0.50262804  0.73002252  0.17453416  1
  O  O12  1  0.15668228  0.92842779  0.78352263  1
  O  O13  1  0.50276320  0.10489462  0.67432866  1
  O  O14  1  0.49917187  0.89477866  0.32614729  1
  O  O15  1  0.86721523  0.57184062  0.71648206  1
  O  O16  1  0.28066280  0.39554326  0.82579159  1
  O  O17  1  0.03136028  0.63735770  0.55488554  1
  O  O18  1  0.05802193  0.79677067  0.81970534  1
  O  O19  1  0.71797479  0.60592718  0.17400704  1
  O  O20  1  0.22943294  0.89759167  0.53529431  1
  O  O21  1  0.32460730  0.29701301  0.31900183  1
  O  O22  1  0.02063298  0.89255622  0.03681772  1
  O  O23  1  0.55273016  0.32978042  0.96324743  1
  O  O24  1  0.45010387  0.66971524  0.03594775  1
  O  O25  1  0.67464259  0.70429618  0.68130476  1
  O  O26  1  0.77567528  0.13720313  0.05511340  1
  O  O27  1  0.97849842  0.10690871  0.96412772  1
  O  O28  1  0.15543647  0.83039181  0.46343604  1
  O  O29  1  0.84543148  0.17076130  0.53597445  1
  O  O30  1  0.66215723  0.60127761  0.96465287  1
  O  O31  1  0.40578275  0.77126811  0.32650457  1
loop_
_geom_bond_atom_site_label_1
_geom_bond_atom_site_label_2
_geom_bond_distance
_geom_bond_site_symmetry_2
Ag0 N47 2.261038 1_555
Ag0 N28 2.284286 1_555
Ag0 N2 2.304964 1_555
Ag1 N25 2.269032 1_545
Ag1 N15 2.271671 1_655
Ag1 N41 2.303186 1_555
Ag2 N29 2.212592 1_555
Ag2 O9 2.451698 1_455
Ag2 O26 2.630391 1_455
Ag2 N32 2.664124 1_455
Ag2 O27 2.745995 1_454
Ag3 N1 2.217136 1_555
Ag3 N32 2.295930 1_456
Ag3 O8 2.356467 1_556
Ag3 O16 2.539787 1_555
Ag4 N18 2.210793 1_555
Ag4 O18 2.453665 1_655
Ag4 O10 2.623094 1_655
Ag4 N42 2.668589 1_655
Ag4 O22 2.746720 1_656
Ag5 N14 2.212541 1_565
Ag5 N12 2.296045 1_555
Ag5 O20 2.361715 1_555
Ag5 O14 2.540941 1_555
Ag6 N30 2.103555 1_555
Ag6 N10 2.105470 1_555
Ag7 N7 2.107626 1_555
Ag7 N24 2.111269 1_555
Ag8 N8 2.214829 1_555
Ag8 O25 2.466127 1_555
Ag8 O17 2.624993 1_655
Ag8 N12 2.650580 1_555
Ag8 O0 2.754292 1_555
Ag9 N39 2.107834 1_565
Ag9 N16 2.110749 1_555
Ag10 N3 2.216821 1_555
Ag10 N42 2.298085 1_654
Ag10 O30 2.362080 1_554
Ag10 O19 2.534246 1_555
Ag11 N6 2.268343 1_555
Ag11 N0 2.272996 1_555
Ag11 N9 2.320903 1_555
Ag12 N4 2.267894 1_455
Ag12 N31 2.271870 1_565
Ag12 N35 2.316450 1_555
Ag13 N43 2.212965 1_555
Ag13 O21 2.454581 1_555
Ag13 O2 2.636992 1_455
Ag13 N38 2.669236 1_555
Ag13 O7 2.740594 1_555
Ag14 N17 2.105532 1_545
Ag14 N46 2.105714 1_555
Ag15 N13 2.218131 1_545
Ag15 N38 2.296489 1_555
Ag15 O6 2.366821 1_555
Ag15 O13 2.540677 1_555
C0 N27 1.397304 1_555
C0 C45 1.397738 1_555
C0 C33 1.402686 1_555
C1 N31 1.171731 1_555
C1 C46 1.401559 1_555
C2 N14 1.169372 1_555
C2 C43 1.399928 1_555
C3 C38 1.396177 1_555
C3 N36 1.397901 1_555
C3 C30 1.400762 1_555
C4 N20 1.397719 1_555
C5 N9 1.173360 1_555
C6 N29 1.172269 1_556
C7 N40 1.398243 1_555
C8 N33 1.405243 1_555
C9 N13 1.169571 1_555
C10 N12 1.177587 1_555
C10 C26 1.394259 1_555
C11 C39 1.397765 1_555
C11 C36 1.403957 1_555
C11 N37 1.405342 1_555
C12 N39 1.170105 1_555
C12 C41 1.397499 1_555
C13 N18 1.172199 1_554
C13 C7 1.400497 1_555
C14 N6 1.170593 1_655
C14 C15 1.404353 1_555
C15 C35 1.398473 1_555
C15 N44 1.404077 1_555
C16 N0 1.171592 1_555
C16 C42 1.403258 1_555
C17 N25 1.171537 1_555
C17 C26 1.403867 1_555
C18 N2 1.172983 1_555
C18 C4 1.402276 1_555
C19 N41 1.172976 1_555
C19 C32 1.402376 1_555
C20 N5 1.396692 1_555
C20 C21 1.402282 1_555
C20 C5 1.403824 1_555
C21 N8 1.172516 1_555
C22 N24 1.169589 1_555
C22 C40 1.396024 1_555
C23 N4 1.169860 1_555
C23 C8 1.402357 1_555
C24 N30 1.169776 1_555
C24 C8 1.395723 1_555
C25 N42 1.178289 1_555
C25 C37 1.393068 1_555
C26 N26 1.405114 1_655
C27 N35 1.173032 1_555
C27 C7 1.401400 1_555
C28 N47 1.170476 1_455
C28 C41 1.403153 1_555
C29 N32 1.178370 1_555
C29 C42 1.392714 1_555
C30 N1 1.169637 1_655
C31 N43 1.172230 1_555
C31 C4 1.401263 1_555
C32 N22 1.396361 1_555
C32 C6 1.401278 1_555
C33 N3 1.170121 1_455
C34 N28 1.171969 1_555
C34 C37 1.403601 1_555
C35 N17 1.170005 1_555
C36 N15 1.170382 1_555
C37 N19 1.404339 1_555
C38 N16 1.169786 1_555
C39 N7 1.170239 1_555
C40 N34 1.398759 1_555
C40 C9 1.400588 1_555
C41 N11 1.405145 1_555
C42 N45 1.405729 1_555
C43 C47 1.395645 1_555
C43 N21 1.398622 1_555
C44 N38 1.176327 1_555
C44 C46 1.392795 1_555
C45 N46 1.169784 1_555
C46 N23 1.406303 1_455
C47 N10 1.169341 1_555
N5 O0 1.255334 1_455
N5 O17 1.270068 1_555
N11 O1 1.250221 1_555
N11 O16 1.275513 1_555
N19 O24 1.242239 1_556
N19 O30 1.279865 1_555
N20 O7 1.256160 1_655
N20 O2 1.269384 1_555
N21 O5 1.255282 1_555
N21 O9 1.272346 1_555
N22 O27 1.254805 1_555
N22 O26 1.269214 1_556
N23 O29 1.241513 1_555
N23 O6 1.280563 1_555
N26 O28 1.241620 1_555
N26 O20 1.279987 1_555
N27 O3 1.254762 1_555
N27 O21 1.272498 1_555
N33 O31 1.251150 1_555
N33 O14 1.273417 1_555
N34 O12 1.254144 1_555
N34 O18 1.272917 1_555
N36 O15 1.253934 1_555
N36 O25 1.272321 1_555
N37 O4 1.250069 1_555
N37 O13 1.276156 1_555
N40 O22 1.256623 1_555
N40 O10 1.267838 1_554
N44 O11 1.249634 1_555
N44 O19 1.275286 1_555
N45 O23 1.241835 1_554
N45 O8 1.280355 1_555
