# generated using pymatgen
data_Co3Rh
_symmetry_space_group_name_H-M   'P 1'
_cell_length_a   5.15410224
_cell_length_b   5.15410213
_cell_length_c   16.27422864
_cell_angle_alpha   90.00000181
_cell_angle_beta   89.99999855
_cell_angle_gamma   120.00061418
_symmetry_Int_Tables_number   1
_chemical_formula_structural   Co3Rh
_chemical_formula_sum   'Co24 Rh8'
_cell_volume   374.39876426
_cell_formula_units_Z   8
loop_
 _symmetry_equiv_pos_site_id
 _symmetry_equiv_pos_as_xyz
  1  'x, y, z'
loop_
 _atom_site_type_symbol
 _atom_site_label
 _atom_site_symmetry_multiplicity
 _atom_site_fract_x
 _atom_site_fract_y
 _atom_site_fract_z
 _atom_site_occupancy
  Co  Co0_0  1  0.16666653  0.33333347  0.25000798  1
  Co  Co0_1  1  0.16666653  0.33333347  0.75000798  1
  Co  Co0_2  1  0.16666653  0.83333347  0.25000798  1
  Co  Co0_3  1  0.16666653  0.83333347  0.75000798  1
  Co  Co0_4  1  0.66666653  0.33333347  0.25000798  1
  Co  Co0_5  1  0.66666653  0.33333347  0.75000798  1
  Co  Co0_6  1  0.66666653  0.83333347  0.25000798  1
  Co  Co0_7  1  0.66666653  0.83333347  0.75000798  1
  Co  Co1_0  1  0.49999999  0.00000001  0.13026330  1
  Co  Co1_1  1  0.49999999  0.00000001  0.63026331  1
  Co  Co1_2  1  0.49999999  0.50000001  0.13026330  1
  Co  Co1_3  1  0.49999999  0.50000001  0.63026331  1
  Co  Co1_4  1  0.99999999  0.00000001  0.13026330  1
  Co  Co1_5  1  0.99999999  0.00000001  0.63026330  1
  Co  Co1_6  1  0.99999999  0.50000001  0.13026330  1
  Co  Co1_7  1  0.99999999  0.50000001  0.63026330  1
  Co  Co2_0  1  0.50000001  0.00000002  0.36973366  1
  Co  Co2_1  1  0.50000000  0.00000002  0.86973367  1
  Co  Co2_2  1  0.50000001  0.50000002  0.36973366  1
  Co  Co2_3  1  0.50000001  0.50000002  0.86973367  1
  Co  Co2_4  1  0.00000001  0.00000002  0.36973366  1
  Co  Co2_5  1  0.00000001  0.00000002  0.86973366  1
  Co  Co2_6  1  0.00000000  0.50000002  0.36973366  1
  Co  Co2_7  1  0.00000001  0.50000002  0.86973366  1
  Rh  Rh0_0  1  0.16666648  0.33333351  0.49999554  1
  Rh  Rh0_1  1  0.16666648  0.33333351  0.99999554  1
  Rh  Rh0_2  1  0.16666648  0.83333351  0.49999554  1
  Rh  Rh0_3  1  0.16666648  0.83333351  0.99999555  1
  Rh  Rh0_4  1  0.66666648  0.33333351  0.49999554  1
  Rh  Rh0_5  1  0.66666648  0.33333351  0.99999554  1
  Rh  Rh0_6  1  0.66666648  0.83333351  0.49999554  1
  Rh  Rh0_7  1  0.66666648  0.83333351  0.99999554  1
loop_
_geom_bond_atom_site_label_1
_geom_bond_atom_site_label_2
_geom_bond_distance
_geom_bond_site_symmetry_2
Co0_0 Co2_4 2.451558 1_555
Co0_0 Co2_2 2.451558 1_555
Co0_0 Co2_6 2.451565 1_555
Co0_0 Co1_4 2.451804 1_455
Co0_0 Co1_2 2.451804 1_555
Co0_0 Co1_6 2.451811 1_455
Co0_0 Co0_6 2.577027 1_445
Co0_0 Co0_6 2.577027 1_555
Co0_0 Co0_2 2.577051 1_555
Co0_0 Co0_2 2.577051 1_545
Co0_0 Co0_4 2.577051 1_455
Co0_0 Co0_4 2.577051 1_555
Co0_1 Co2_5 2.451558 1_555
Co0_1 Co2_3 2.451558 1_555
Co0_1 Co2_7 2.451565 1_555
Co0_1 Co1_5 2.451804 1_455
Co0_1 Co1_3 2.451804 1_555
Co0_1 Co1_7 2.451811 1_455
Co0_1 Co0_7 2.577027 1_445
Co0_1 Co0_7 2.577027 1_555
Co0_1 Co0_3 2.577051 1_555
Co0_1 Co0_3 2.577051 1_545
Co0_1 Co0_5 2.577051 1_455
Co0_1 Co0_5 2.577051 1_555
Co0_2 Co2_6 2.451558 1_555
Co0_2 Co2_0 2.451558 1_565
Co0_2 Co2_4 2.451565 1_565
Co0_2 Co1_6 2.451804 1_455
Co0_2 Co1_0 2.451804 1_565
Co0_2 Co1_4 2.451811 1_465
Co0_2 Co0_4 2.577027 1_455
Co0_2 Co0_4 2.577027 1_565
Co0_2 Co0_6 2.577051 1_455
Co0_2 Co0_6 2.577051 1_555
Co0_3 Co2_7 2.451558 1_555
Co0_3 Co2_1 2.451558 1_565
Co0_3 Co2_5 2.451565 1_565
Co0_3 Co1_7 2.451804 1_455
Co0_3 Co1_1 2.451804 1_565
Co0_3 Co1_5 2.451811 1_465
Co0_3 Co0_5 2.577027 1_455
Co0_3 Co0_5 2.577027 1_565
Co0_3 Co0_7 2.577051 1_555
Co0_3 Co0_7 2.577051 1_455
Co0_4 Co2_0 2.451558 1_555
Co0_4 Co2_6 2.451558 1_655
Co0_4 Co2_2 2.451565 1_555
Co0_4 Co1_0 2.451804 1_555
Co0_4 Co1_6 2.451804 1_555
Co0_4 Co1_2 2.451811 1_555
Co0_4 Co0_6 2.577051 1_545
Co0_4 Co0_6 2.577051 1_555
Co0_5 Co2_1 2.451558 1_555
Co0_5 Co2_7 2.451558 1_655
Co0_5 Co2_3 2.451565 1_555
Co0_5 Co1_1 2.451804 1_555
Co0_5 Co1_7 2.451804 1_555
Co0_5 Co1_3 2.451811 1_555
Co0_5 Co0_7 2.577051 1_545
Co0_5 Co0_7 2.577051 1_555
Co0_6 Co2_2 2.451558 1_555
Co0_6 Co2_4 2.451558 1_665
Co0_6 Co2_0 2.451565 1_565
Co0_6 Co1_2 2.451804 1_555
Co0_6 Co1_4 2.451804 1_565
Co0_6 Co1_0 2.451811 1_565
Co0_7 Co2_3 2.451558 1_555
Co0_7 Co2_5 2.451558 1_665
Co0_7 Co2_1 2.451565 1_565
Co0_7 Co1_3 2.451804 1_555
Co0_7 Co1_5 2.451804 1_565
Co0_7 Co1_1 2.451811 1_565
Co1_0 Co1_6 2.577027 1_445
Co1_0 Co1_6 2.577027 1_555
Co1_0 Co1_2 2.577051 1_545
Co1_0 Co1_2 2.577051 1_555
Co1_0 Co1_4 2.577051 1_555
Co1_0 Co1_4 2.577051 1_455
Co1_0 Rh0_5 2.590007 1_554
Co1_0 Rh0_3 2.590007 1_544
Co1_0 Rh0_7 2.590014 1_544
Co1_1 Co1_7 2.577027 1_445
Co1_1 Co1_7 2.577027 1_555
Co1_1 Co1_3 2.577051 1_545
Co1_1 Co1_3 2.577051 1_555
Co1_1 Co1_5 2.577051 1_455
Co1_1 Co1_5 2.577051 1_555
Co1_1 Rh0_4 2.590007 1_555
Co1_1 Rh0_2 2.590007 1_545
Co1_1 Rh0_6 2.590014 1_545
Co1_2 Co1_4 2.577027 1_455
Co1_2 Co1_4 2.577027 1_565
Co1_2 Co1_6 2.577051 1_455
Co1_2 Co1_6 2.577051 1_555
Co1_2 Rh0_7 2.590007 1_554
Co1_2 Rh0_1 2.590007 1_554
Co1_2 Rh0_5 2.590014 1_554
Co1_3 Co1_5 2.577027 1_455
Co1_3 Co1_5 2.577027 1_565
Co1_3 Co1_7 2.577051 1_555
Co1_3 Co1_7 2.577051 1_455
Co1_3 Rh0_6 2.590007 1_555
Co1_3 Rh0_0 2.590007 1_555
Co1_3 Rh0_4 2.590014 1_555
Co1_4 Co1_6 2.577051 1_555
Co1_4 Co1_6 2.577051 1_545
Co1_4 Rh0_1 2.590007 1_654
Co1_4 Rh0_7 2.590007 1_544
Co1_4 Rh0_3 2.590014 1_644
Co1_5 Co1_7 2.577051 1_545
Co1_5 Co1_7 2.577051 1_555
Co1_5 Rh0_0 2.590007 1_655
Co1_5 Rh0_6 2.590007 1_545
Co1_5 Rh0_2 2.590014 1_645
Co1_6 Rh0_3 2.590007 1_654
Co1_6 Rh0_5 2.590007 1_554
Co1_6 Rh0_1 2.590014 1_654
Co1_7 Rh0_2 2.590007 1_655
Co1_7 Rh0_4 2.590007 1_555
Co1_7 Rh0_0 2.590014 1_655
Co2_0 Co2_6 2.577027 1_655
Co2_0 Co2_6 2.577027 1_545
Co2_0 Co2_2 2.577051 1_545
Co2_0 Co2_2 2.577051 1_555
Co2_0 Co2_4 2.577051 1_555
Co2_0 Co2_4 2.577051 1_655
Co2_0 Rh0_4 2.589929 1_555
Co2_0 Rh0_2 2.589929 1_545
Co2_0 Rh0_6 2.589935 1_545
Co2_1 Co2_7 2.577027 1_545
Co2_1 Co2_7 2.577027 1_655
Co2_1 Co2_3 2.577051 1_545
Co2_1 Co2_3 2.577051 1_555
Co2_1 Co2_5 2.577051 1_555
Co2_1 Co2_5 2.577051 1_655
Co2_1 Rh0_5 2.589929 1_555
Co2_1 Rh0_3 2.589929 1_545
Co2_1 Rh0_7 2.589935 1_545
Co2_2 Co2_4 2.577027 1_555
Co2_2 Co2_4 2.577027 1_665
Co2_2 Co2_6 2.577051 1_655
Co2_2 Co2_6 2.577051 1_555
Co2_2 Rh0_6 2.589929 1_555
Co2_2 Rh0_0 2.589929 1_555
Co2_2 Rh0_4 2.589935 1_555
Co2_3 Co2_5 2.577027 1_555
Co2_3 Co2_5 2.577027 1_665
Co2_3 Co2_7 2.577051 1_555
Co2_3 Co2_7 2.577051 1_655
Co2_3 Rh0_7 2.589929 1_555
Co2_3 Rh0_1 2.589929 1_555
Co2_3 Rh0_5 2.589935 1_555
Co2_4 Co2_6 2.577051 1_545
Co2_4 Co2_6 2.577051 1_555
Co2_4 Rh0_0 2.589929 1_555
Co2_4 Rh0_6 2.589929 1_445
Co2_4 Rh0_2 2.589935 1_545
Co2_5 Co2_7 2.577051 1_545
Co2_5 Co2_7 2.577051 1_555
Co2_5 Rh0_1 2.589929 1_555
Co2_5 Rh0_7 2.589929 1_445
Co2_5 Rh0_3 2.589935 1_545
Co2_6 Rh0_2 2.589929 1_555
Co2_6 Rh0_4 2.589929 1_455
Co2_6 Rh0_0 2.589935 1_555
Co2_7 Rh0_3 2.589929 1_555
Co2_7 Rh0_5 2.589929 1_455
Co2_7 Rh0_1 2.589935 1_555
Rh0_0 Rh0_6 2.577027 1_445
Rh0_0 Rh0_6 2.577027 1_555
Rh0_0 Rh0_2 2.577051 1_545
Rh0_0 Rh0_2 2.577051 1_555
Rh0_0 Rh0_4 2.577051 1_555
Rh0_0 Rh0_4 2.577051 1_455
Rh0_1 Rh0_7 2.577027 1_445
Rh0_1 Rh0_7 2.577027 1_555
Rh0_1 Rh0_3 2.577051 1_545
Rh0_1 Rh0_3 2.577051 1_555
Rh0_1 Rh0_5 2.577051 1_555
Rh0_1 Rh0_5 2.577051 1_455
Rh0_2 Rh0_4 2.577027 1_565
Rh0_2 Rh0_4 2.577027 1_455
Rh0_2 Rh0_6 2.577051 1_555
Rh0_2 Rh0_6 2.577051 1_455
Rh0_3 Rh0_5 2.577027 1_455
Rh0_3 Rh0_5 2.577027 1_565
Rh0_3 Rh0_7 2.577051 1_455
Rh0_3 Rh0_7 2.577051 1_555
Rh0_4 Rh0_6 2.577051 1_545
Rh0_4 Rh0_6 2.577051 1_555
Rh0_5 Rh0_7 2.577051 1_555
Rh0_5 Rh0_7 2.577051 1_545
