# generated using pymatgen
data_Ba6Cu11F34
_symmetry_space_group_name_H-M   'P 1'
_cell_length_a   7.44359826
_cell_length_b   9.99609045
_cell_length_c   10.24248542
_cell_angle_alpha   83.44966233
_cell_angle_beta   73.96949301
_cell_angle_gamma   70.53502752
_symmetry_Int_Tables_number   1
_chemical_formula_structural   Ba6Cu11F34
_chemical_formula_sum   'Ba6 Cu11 F34'
_cell_volume   690.40755807
_cell_formula_units_Z   1
loop_
 _symmetry_equiv_pos_site_id
 _symmetry_equiv_pos_as_xyz
  1  'x, y, z'
loop_
 _atom_site_type_symbol
 _atom_site_label
 _atom_site_symmetry_multiplicity
 _atom_site_fract_x
 _atom_site_fract_y
 _atom_site_fract_z
 _atom_site_occupancy
  Ba  Ba0  1  0.67646287  0.65323039  0.97318528  1
  Ba  Ba1  1  0.32353713  0.34676961  0.02681472  1
  Ba  Ba2  1  0.63832524  0.90726417  0.28345175  1
  Ba  Ba3  1  0.36167476  0.09273583  0.71654825  1
  Ba  Ba4  1  0.20804425  0.63641084  0.35151787  1
  Ba  Ba5  1  0.79195575  0.36358916  0.64848213  1
  Cu  Cu0  1  0.18709049  0.01003329  0.18217080  1
  Cu  Cu1  1  0.81290951  0.98996671  0.81782920  1
  Cu  Cu2  1  0.10084163  0.74726949  0.02342587  1
  Cu  Cu3  1  0.89915837  0.25273051  0.97657413  1
  Cu  Cu4  1  0.29976320  0.74477204  0.72499141  1
  Cu  Cu5  1  0.70023680  0.25522796  0.27500859  1
  Cu  Cu6  1  0.73828074  0.74385981  0.61904515  1
  Cu  Cu7  1  0.26171926  0.25614019  0.38095485  1
  Cu  Cu8  1  0.81299896  0.51534537  0.29325479  1
  Cu  Cu9  1  0.18700104  0.48465463  0.70674521  1
  Cu  Cu10  1  0.00000000  -0.00000000  0.50000000  1
  F  F0  1  0.30229594  0.61842701  0.59617786  1
  F  F1  1  0.69770406  0.38157299  0.40382214  1
  F  F2  1  0.50364313  0.85756167  0.56710908  1
  F  F3  1  0.49635687  0.14243833  0.43289092  1
  F  F4  1  0.75521543  0.10433186  0.61555460  1
  F  F5  1  0.24478457  0.89566814  0.38444540  1
  F  F6  1  0.67688390  0.86462529  0.77024860  1
  F  F7  1  0.32311610  0.13537471  0.22975140  1
  F  F8  1  0.94216396  0.12779254  0.82945875  1
  F  F9  1  0.05783604  0.87220746  0.17054125  1
  F  F10  1  0.93096288  0.65055377  0.19842487  1
  F  F11  1  0.06903712  0.34944623  0.80157513  1
  F  F12  1  0.53986427  0.61735236  0.75559040  1
  F  F13  1  0.46013573  0.38264764  0.24440960  1
  F  F14  1  0.89169416  0.86384984  0.46118402  1
  F  F15  1  0.10830584  0.13615016  0.53881598  1
  F  F16  1  0.88266152  0.39853645  0.09469375  1
  F  F17  1  0.57486012  0.64292984  0.26248800  1
  F  F18  1  0.42513988  0.35707016  0.73751200  1
  F  F19  1  0.43616442  0.88704571  0.10467215  1
  F  F20  1  0.56383558  0.11295429  0.89532785  1
  F  F21  1  0.07683098  0.39612546  0.29468571  1
  F  F22  1  0.92316902  0.60387454  0.70531429  1
  F  F23  1  0.05428382  0.87477002  0.70025960  1
  F  F24  1  0.94571618  0.12522998  0.29974040  1
  F  F25  1  0.85020084  0.85408132  0.99467164  1
  F  F26  1  0.14979916  0.14591868  0.00532836  1
  F  F27  1  0.32566842  0.61802395  0.07503235  1
  F  F28  1  0.67433158  0.38197605  0.92496765  1
  F  F29  1  0.18831467  0.38961253  0.52013104  1
  F  F30  1  0.81168533  0.61038747  0.47986896  1
  F  F31  1  0.71819602  0.14364108  0.13392344  1
  F  F32  1  0.28180398  0.85635892  0.86607656  1
  F  F33  1  0.11733848  0.60146355  0.90530625  1
loop_
_geom_bond_atom_site_label_1
_geom_bond_atom_site_label_2
_geom_bond_distance
_geom_bond_site_symmetry_2
Ba0 F27 2.656041 1_556
Ba0 F19 2.660326 1_556
Ba0 F25 2.782136 1_555
Ba0 F6 2.790068 1_555
Ba0 F12 2.794030 1_555
Ba0 F28 2.816880 1_555
Ba0 F22 2.840019 1_555
Ba0 F17 2.847381 1_556
Ba0 F16 2.848563 1_556
Ba0 F33 3.034946 1_655
Ba1 F28 2.656041 1_554
Ba1 F20 2.660326 1_554
Ba1 F26 2.782136 1_555
Ba1 F7 2.790068 1_555
Ba1 F13 2.794030 1_555
Ba1 F27 2.816880 1_555
Ba1 F21 2.840019 1_555
Ba1 F18 2.847381 1_554
Ba1 F33 2.848563 1_554
Ba1 F16 3.034946 1_455
Ba2 F3 2.694044 1_565
Ba2 F19 2.732650 1_555
Ba2 F10 2.797328 1_555
Ba2 F7 2.804994 1_565
Ba2 F31 2.808882 1_565
Ba2 F2 2.843754 1_555
Ba2 F5 2.861815 1_555
Ba2 F14 2.868735 1_555
Ba2 F17 2.875492 1_555
Ba2 F9 2.929158 1_655
Ba2 F25 2.956729 1_554
Ba3 F2 2.694044 1_545
Ba3 F20 2.732650 1_555
Ba3 F11 2.797328 1_555
Ba3 F6 2.804994 1_545
Ba3 F32 2.808882 1_545
Ba3 F3 2.843754 1_555
Ba3 F4 2.861815 1_555
Ba3 F15 2.868735 1_555
Ba3 F18 2.875492 1_555
Ba3 F8 2.929158 1_455
Ba3 F26 2.956729 1_556
Ba4 F17 2.649702 1_555
Ba4 F27 2.731688 1_555
Ba4 F13 2.735846 1_555
Ba4 F14 2.743964 1_455
Ba4 F0 2.754694 1_555
Ba4 F5 2.761778 1_555
Ba4 F29 2.866995 1_555
Ba4 F10 2.876436 1_455
Ba4 F9 2.938240 1_555
Ba4 F30 2.965086 1_455
Ba4 F21 3.042771 1_555
Ba5 F18 2.649702 1_555
Ba5 F28 2.731688 1_555
Ba5 F12 2.735846 1_555
Ba5 F15 2.743964 1_655
Ba5 F1 2.754694 1_555
Ba5 F4 2.761778 1_555
Ba5 F30 2.866995 1_555
Ba5 F11 2.876436 1_655
Ba5 F8 2.938240 1_555
Ba5 F29 2.965086 1_655
Ba5 F22 3.042771 1_555
Cu0 F19 1.862690 1_545
Cu0 F24 1.935659 1_455
Cu0 F9 1.955025 1_545
Cu0 F7 2.022335 1_555
Cu0 F26 2.160554 1_555
Cu0 F5 2.325404 1_545
Cu1 F20 1.862690 1_565
Cu1 F23 1.935659 1_655
Cu1 F8 1.955025 1_565
Cu1 F6 2.022335 1_555
Cu1 F25 2.160554 1_555
Cu1 F4 2.325404 1_565
Cu2 F25 1.900420 1_454
Cu2 F27 1.908139 1_555
Cu2 F33 1.950395 1_554
Cu2 F9 1.956842 1_555
Cu2 F10 2.216758 1_455
Cu2 F32 2.231582 1_554
Cu3 F26 1.900420 1_656
Cu3 F28 1.908139 1_555
Cu3 F16 1.950395 1_556
Cu3 F8 1.956842 1_555
Cu3 F11 2.216758 1_655
Cu3 F31 2.231582 1_556
Cu4 F32 1.874019 1_555
Cu4 F12 1.901537 1_555
Cu4 F0 1.920083 1_555
Cu4 F23 1.920857 1_555
Cu4 F2 2.357596 1_555
Cu4 F33 2.571897 1_555
Cu5 F31 1.874019 1_555
Cu5 F13 1.901537 1_555
Cu5 F1 1.920083 1_555
Cu5 F24 1.920857 1_555
Cu5 F3 2.357596 1_555
Cu5 F16 2.571897 1_555
Cu6 F30 1.904893 1_555
Cu6 F2 1.917659 1_555
Cu6 F6 1.931988 1_555
Cu6 F22 1.933629 1_555
Cu6 F14 2.192630 1_555
Cu6 F12 2.331714 1_555
Cu7 F29 1.904893 1_555
Cu7 F3 1.917659 1_555
Cu7 F7 1.931988 1_555
Cu7 F21 1.933629 1_555
Cu7 F15 2.192630 1_555
Cu7 F13 2.331714 1_555
Cu8 F10 1.887199 1_555
Cu8 F17 1.891591 1_555
Cu8 F1 1.920857 1_555
Cu8 F21 1.931144 1_655
Cu8 F30 2.225737 1_555
Cu8 F16 2.307433 1_555
Cu9 F11 1.887199 1_555
Cu9 F18 1.891591 1_555
Cu9 F0 1.920857 1_555
Cu9 F22 1.931144 1_455
Cu9 F29 2.225737 1_555
Cu9 F33 2.307433 1_555
Cu10 F5 1.905930 1_545
Cu10 F4 1.905930 1_455
Cu10 F15 1.921443 1_555
Cu10 F14 1.921443 1_445
Cu10 F23 2.339309 1_545
Cu10 F24 2.339309 1_455
