# generated using pymatgen
data_Hf4NiP
_symmetry_space_group_name_H-M   'P 1'
_cell_length_a   6.42549400
_cell_length_b   6.42549400
_cell_length_c   5.24044300
_cell_angle_alpha   90.00000000
_cell_angle_beta   90.00000000
_cell_angle_gamma   90.00000000
_symmetry_Int_Tables_number   1
_chemical_formula_structural   Hf4NiP
_chemical_formula_sum   'Hf8 Ni2 P2'
_cell_volume   216.36202940
_cell_formula_units_Z   2
loop_
 _symmetry_equiv_pos_site_id
 _symmetry_equiv_pos_as_xyz
  1  'x, y, z'
loop_
 _atom_site_type_symbol
 _atom_site_label
 _atom_site_symmetry_multiplicity
 _atom_site_fract_x
 _atom_site_fract_y
 _atom_site_fract_z
 _atom_site_occupancy
  Hf  Hf0  1  0.15762000  0.66209000  0.50000000  1
  Hf  Hf1  1  0.84238000  0.33791000  0.50000000  1
  Hf  Hf2  1  0.66209000  0.84238000  0.50000000  1
  Hf  Hf3  1  0.33791000  0.15762000  0.50000000  1
  Hf  Hf4  1  0.15762000  0.33791000  0.00000000  1
  Hf  Hf5  1  0.84238000  0.66209000  0.00000000  1
  Hf  Hf6  1  0.66209000  0.15762000  0.00000000  1
  Hf  Hf7  1  0.33791000  0.84238000  0.00000000  1
  Ni  Ni0  1  0.00000000  0.00000000  0.25000000  1
  Ni  Ni1  1  0.00000000  0.00000000  0.75000000  1
  P  P0  1  0.50000000  0.50000000  0.25000000  1
  P  P1  1  0.50000000  0.50000000  0.75000000  1
loop_
_geom_bond_atom_site_label_1
_geom_bond_atom_site_label_2
_geom_bond_distance
_geom_bond_site_symmetry_2
Hf0 Ni0 2.730642 1_565
Hf0 Ni1 2.730642 1_565
Hf0 P1 2.764228 1_555
Hf0 P0 2.764228 1_555
Hf1 Ni1 2.730642 1_655
Hf1 Ni0 2.730642 1_655
Hf1 P1 2.764228 1_555
Hf1 P0 2.764228 1_555
Hf2 Ni0 2.730642 1_665
Hf2 Ni1 2.730642 1_665
Hf2 P1 2.764228 1_555
Hf2 P0 2.764228 1_555
Hf3 Ni0 2.730642 1_555
Hf3 Ni1 2.730642 1_555
Hf3 P1 2.764228 1_555
Hf3 P0 2.764228 1_555
Hf4 Ni1 2.730642 1_554
Hf4 Ni0 2.730642 1_555
Hf4 P0 2.764228 1_555
Hf4 P1 2.764228 1_554
Hf5 Ni0 2.730642 1_665
Hf5 Ni1 2.730642 1_664
Hf5 P0 2.764228 1_555
Hf5 P1 2.764228 1_554
Hf6 Ni1 2.730642 1_654
Hf6 Ni0 2.730642 1_655
Hf6 P0 2.764228 1_555
Hf6 P1 2.764228 1_554
Hf7 Ni0 2.730642 1_565
Hf7 Ni1 2.730642 1_564
Hf7 P0 2.764228 1_555
Hf7 P1 2.764228 1_554
Ni0 Ni1 2.620221 1_554
Ni0 Ni1 2.620221 1_555
P0 P1 2.620221 1_555
P0 P1 2.620221 1_554
