# generated using pymatgen
data_TbB4
_symmetry_space_group_name_H-M   'P 1'
_cell_length_a   8.52122700
_cell_length_b   8.52122700
_cell_length_c   4.20170600
_cell_angle_alpha   90.00000000
_cell_angle_beta   90.00000000
_cell_angle_gamma   90.00000000
_symmetry_Int_Tables_number   1
_chemical_formula_structural   TbB4
_chemical_formula_sum   'Tb4 B16'
_cell_volume   305.09137515
_cell_formula_units_Z   4
loop_
 _symmetry_equiv_pos_site_id
 _symmetry_equiv_pos_as_xyz
  1  'x, y, z'
loop_
 _atom_site_type_symbol
 _atom_site_label
 _atom_site_symmetry_multiplicity
 _atom_site_fract_x
 _atom_site_fract_y
 _atom_site_fract_z
 _atom_site_occupancy
  Tb  Tb0  1  0.13901700  0.63901700  0.00000000  1
  Tb  Tb1  1  0.63901700  0.86098300  0.00000000  1
  Tb  Tb2  1  0.36098300  0.13901700  0.00000000  1
  Tb  Tb3  1  0.86098300  0.36098300  0.00000000  1
  B  B0  1  0.37203600  0.44414200  0.00000000  1
  B  B1  1  0.62796400  0.55585800  0.00000000  1
  B  B2  1  0.55585800  0.37203600  0.00000000  1
  B  B3  1  0.44414200  0.62796400  0.00000000  1
  B  B4  1  0.00000000  0.00000000  0.30755400  1
  B  B5  1  0.50000000  0.50000000  0.69244600  1
  B  B6  1  0.00000000  0.00000000  0.69244600  1
  B  B7  1  0.50000000  0.50000000  0.30755400  1
  B  B8  1  0.56433200  0.06433200  0.50000000  1
  B  B9  1  0.06433200  0.43566800  0.50000000  1
  B  B10  1  0.93566800  0.56433200  0.50000000  1
  B  B11  1  0.43566800  0.93566800  0.50000000  1
  B  B12  1  0.05585800  0.12796400  0.00000000  1
  B  B13  1  0.12796400  0.94414200  0.00000000  1
  B  B14  1  0.87203600  0.05585800  0.00000000  1
  B  B15  1  0.94414200  0.87203600  0.00000000  1
loop_
_geom_bond_atom_site_label_1
_geom_bond_atom_site_label_2
_geom_bond_distance
_geom_bond_site_symmetry_2
B0 B3 1.682587 1_555
B0 B2 1.682587 1_555
B0 B7 1.756549 1_555
B0 B5 1.756549 1_554
B0 Tb0 2.588464 1_555
B0 Tb2 2.601745 1_555
B1 B3 1.682587 1_555
B1 B2 1.682587 1_555
B1 B7 1.756549 1_555
B1 B5 1.756549 1_554
B1 Tb3 2.588464 1_555
B1 Tb1 2.601745 1_555
B2 B7 1.756549 1_555
B2 B5 1.756549 1_554
B2 Tb2 2.588464 1_555
B2 Tb3 2.601745 1_555
B3 B7 1.756549 1_555
B3 B5 1.756549 1_554
B3 Tb1 2.588464 1_555
B3 Tb0 2.601745 1_555
B4 B6 1.617203 1_555
B5 B7 1.617203 1_555
B8 Tb2 2.796629 1_555
B8 Tb2 2.796629 1_556
B8 Tb1 2.796629 1_546
B8 Tb1 2.796629 1_545
B9 Tb0 2.796629 1_555
B9 Tb0 2.796629 1_556
B9 Tb3 2.796629 1_456
B9 Tb3 2.796629 1_455
B10 B9 1.550509 1_655
B10 Tb3 2.796629 1_556
B10 Tb3 2.796629 1_555
B10 Tb0 2.796629 1_656
B10 Tb0 2.796629 1_655
B11 B8 1.550509 1_565
B11 Tb1 2.796629 1_556
B11 Tb1 2.796629 1_555
B11 Tb2 2.796629 1_566
B11 Tb2 2.796629 1_565
B12 B13 1.682587 1_545
B12 B14 1.682587 1_455
B12 B4 1.756549 1_555
B12 B6 1.756549 1_554
B12 Tb3 2.588464 1_455
B12 Tb2 2.601745 1_555
B13 B15 1.682587 1_455
B13 B6 1.756549 1_564
B13 B4 1.756549 1_565
B13 Tb2 2.588464 1_565
B13 Tb0 2.601745 1_555
B14 B15 1.682587 1_545
B14 B6 1.756549 1_654
B14 B4 1.756549 1_655
B14 Tb1 2.588464 1_545
B14 Tb3 2.601745 1_555
B15 B4 1.756549 1_665
B15 B6 1.756549 1_664
B15 Tb0 2.588464 1_655
B15 Tb1 2.601745 1_555
