# generated using pymatgen
data_YbPr3
_symmetry_space_group_name_H-M   'P 1'
_cell_length_a   7.46078508
_cell_length_b   7.46078508
_cell_length_c   5.84235256
_cell_angle_alpha   90.00000000
_cell_angle_beta   90.00000000
_cell_angle_gamma   120.00000469
_symmetry_Int_Tables_number   1
_chemical_formula_structural   YbPr3
_chemical_formula_sum   'Yb2 Pr6'
_cell_volume   281.63552299
_cell_formula_units_Z   2
loop_
 _symmetry_equiv_pos_site_id
 _symmetry_equiv_pos_as_xyz
  1  'x, y, z'
loop_
 _atom_site_type_symbol
 _atom_site_label
 _atom_site_symmetry_multiplicity
 _atom_site_fract_x
 _atom_site_fract_y
 _atom_site_fract_z
 _atom_site_occupancy
  Yb  Yb0  1  0.33333300  0.66666700  0.75000000  1
  Yb  Yb1  1  0.66666700  0.33333300  0.25000000  1
  Pr  Pr0  1  0.16902960  0.33805919  0.25000000  1
  Pr  Pr1  1  0.66194081  0.83097040  0.25000000  1
  Pr  Pr2  1  0.16902960  0.83097040  0.25000000  1
  Pr  Pr3  1  0.83097040  0.66194081  0.75000000  1
  Pr  Pr4  1  0.33805919  0.16902960  0.75000000  1
  Pr  Pr5  1  0.83097040  0.16902960  0.75000000  1
loop_
_geom_bond_atom_site_label_1
_geom_bond_atom_site_label_2
_geom_bond_distance
_geom_bond_site_symmetry_2
Pr0 Yb0 3.611273 1_555
Pr0 Yb0 3.611273 1_554
Pr0 Pr5 3.647512 1_455
Pr0 Pr5 3.647512 1_454
Pr0 Pr4 3.647512 1_555
Pr0 Pr4 3.647512 1_554
Pr0 Pr1 3.677504 1_555
Pr0 Pr2 3.677505 1_555
Pr0 Yb1 3.730514 1_455
Pr0 Yb1 3.730521 1_555
Pr0 Pr1 3.783280 1_445
Pr0 Pr2 3.783280 1_545
Pr1 Yb0 3.611273 1_555
Pr1 Yb0 3.611273 1_554
Pr1 Pr5 3.647512 1_564
Pr1 Pr5 3.647512 1_565
Pr1 Pr3 3.647512 1_555
Pr1 Pr3 3.647512 1_554
Pr1 Pr2 3.677505 1_555
Pr1 Yb1 3.730514 1_565
Pr1 Yb1 3.730521 1_555
Pr1 Pr2 3.783280 1_655
Pr2 Yb0 3.611269 1_555
Pr2 Yb0 3.611269 1_554
Pr2 Pr4 3.647512 1_565
Pr2 Pr3 3.647512 1_455
Pr2 Pr4 3.647512 1_564
Pr2 Pr3 3.647512 1_454
Pr2 Yb1 3.730517 1_565
Pr2 Yb1 3.730517 1_455
Pr3 Yb1 3.611273 1_556
Pr3 Yb1 3.611273 1_555
Pr3 Pr4 3.677504 1_555
Pr3 Pr5 3.677505 1_555
Pr3 Yb0 3.730514 1_655
Pr3 Yb0 3.730521 1_555
Pr3 Pr4 3.783280 1_665
Pr3 Pr5 3.783280 1_565
Pr4 Yb1 3.611273 1_556
Pr4 Yb1 3.611273 1_555
Pr4 Pr5 3.677505 1_555
Pr4 Yb0 3.730514 1_545
Pr4 Yb0 3.730521 1_555
Pr4 Pr5 3.783280 1_455
Pr5 Yb1 3.611269 1_556
Pr5 Yb1 3.611269 1_555
Pr5 Yb0 3.730517 1_655
Pr5 Yb0 3.730517 1_545
