# generated using pymatgen
data_CsLu2Cl7
_symmetry_space_group_name_H-M   'P 1'
_cell_length_a   6.85300819
_cell_length_b   12.36308717
_cell_length_c   13.73089491
_cell_angle_alpha   90.00000000
_cell_angle_beta   90.00000000
_cell_angle_gamma   90.00000000
_symmetry_Int_Tables_number   1
_chemical_formula_structural   CsLu2Cl7
_chemical_formula_sum   'Cs4 Lu8 Cl28'
_cell_volume   1163.34097631
_cell_formula_units_Z   4
loop_
 _symmetry_equiv_pos_site_id
 _symmetry_equiv_pos_as_xyz
  1  'x, y, z'
loop_
 _atom_site_type_symbol
 _atom_site_label
 _atom_site_symmetry_multiplicity
 _atom_site_fract_x
 _atom_site_fract_y
 _atom_site_fract_z
 _atom_site_occupancy
  Cs  Cs0  1  0.25000000  0.79403715  0.03360570  1
  Cs  Cs1  1  0.75000000  0.20596285  0.96639430  1
  Cs  Cs2  1  0.75000000  0.29403715  0.46639430  1
  Cs  Cs3  1  0.25000000  0.70596285  0.53360570  1
  Lu  Lu0  1  0.25000000  0.45113151  0.24567533  1
  Lu  Lu1  1  0.75000000  0.54886849  0.75432467  1
  Lu  Lu2  1  0.75000000  0.95113151  0.25432467  1
  Lu  Lu3  1  0.25000000  0.04886849  0.74567533  1
  Lu  Lu4  1  0.25000000  0.14782636  0.24997437  1
  Lu  Lu5  1  0.75000000  0.85217364  0.75002563  1
  Lu  Lu6  1  0.75000000  0.64782636  0.25002563  1
  Lu  Lu7  1  0.25000000  0.35217364  0.74997437  1
  Cl  Cl0  1  0.01020841  0.29901443  0.18480772  1
  Cl  Cl1  1  0.98979159  0.70098557  0.81519228  1
  Cl  Cl2  1  0.98979159  0.79901443  0.31519228  1
  Cl  Cl3  1  0.51020841  0.70098557  0.81519228  1
  Cl  Cl4  1  0.01020841  0.20098557  0.68480772  1
  Cl  Cl5  1  0.48979159  0.29901443  0.18480772  1
  Cl  Cl6  1  0.48979159  0.20098557  0.68480772  1
  Cl  Cl7  1  0.51020841  0.79901443  0.31519228  1
  Cl  Cl8  1  0.00953771  0.56423450  0.13219604  1
  Cl  Cl9  1  0.99046229  0.43576550  0.86780396  1
  Cl  Cl10  1  0.99046229  0.06423450  0.36780396  1
  Cl  Cl11  1  0.50953771  0.43576550  0.86780396  1
  Cl  Cl12  1  0.00953771  0.93576550  0.63219604  1
  Cl  Cl13  1  0.49046229  0.56423450  0.13219604  1
  Cl  Cl14  1  0.49046229  0.93576550  0.63219604  1
  Cl  Cl15  1  0.50953771  0.06423450  0.36780396  1
  Cl  Cl16  1  0.01069698  0.03380880  0.13421635  1
  Cl  Cl17  1  0.98930302  0.96619120  0.86578365  1
  Cl  Cl18  1  0.98930302  0.53380880  0.36578365  1
  Cl  Cl19  1  0.51069698  0.96619120  0.86578365  1
  Cl  Cl20  1  0.01069698  0.46619120  0.63421635  1
  Cl  Cl21  1  0.48930302  0.03380880  0.13421635  1
  Cl  Cl22  1  0.48930302  0.46619120  0.63421635  1
  Cl  Cl23  1  0.51069698  0.53380880  0.36578365  1
  Cl  Cl24  1  0.25000000  0.30036690  0.38977981  1
  Cl  Cl25  1  0.75000000  0.69963310  0.61022019  1
  Cl  Cl26  1  0.75000000  0.80036690  0.11022019  1
  Cl  Cl27  1  0.25000000  0.19963310  0.88977981  1
loop_
_geom_bond_atom_site_label_1
_geom_bond_atom_site_label_2
_geom_bond_distance
_geom_bond_site_symmetry_2
Cl0 Lu0 2.633575 1_555
Cl0 Lu4 2.644769 1_555
Cl0 Cs1 3.673873 1_454
Cl1 Lu1 2.633575 1_555
Cl1 Lu5 2.644769 1_555
Cl1 Cs0 3.673873 1_656
Cl2 Lu2 2.633575 1_555
Cl2 Lu6 2.644769 1_555
Cl2 Cs3 3.673873 1_655
Cl3 Lu1 2.633575 1_555
Cl3 Lu5 2.644769 1_555
Cl3 Cs0 3.673873 1_556
Cl4 Lu3 2.633575 1_555
Cl4 Lu7 2.644769 1_555
Cl4 Cs2 3.673873 1_455
Cl5 Lu0 2.633575 1_555
Cl5 Lu4 2.644769 1_555
Cl5 Cs1 3.673873 1_554
Cl6 Lu3 2.633575 1_555
Cl6 Lu7 2.644769 1_555
Cl6 Cs2 3.673873 1_555
Cl7 Lu2 2.633575 1_555
Cl7 Lu6 2.644769 1_555
Cl7 Cs3 3.673873 1_555
Cl8 Lu6 2.617081 1_455
Cl8 Lu0 2.664337 1_555
Cl8 Cs0 3.552438 1_555
Cl9 Lu7 2.617081 1_655
Cl9 Lu1 2.664337 1_555
Cl9 Cs1 3.552438 1_555
Cl10 Lu4 2.617081 1_655
Cl10 Lu2 2.664337 1_545
Cl10 Cs2 3.552438 1_555
Cl11 Lu7 2.617081 1_555
Cl11 Lu1 2.664337 1_555
Cl11 Cs1 3.552438 1_555
Cl12 Lu5 2.617081 1_455
Cl12 Lu3 2.664337 1_565
Cl12 Cs3 3.552438 1_555
Cl13 Lu6 2.617081 1_555
Cl13 Lu0 2.664337 1_555
Cl13 Cs0 3.552438 1_555
Cl14 Lu5 2.617081 1_555
Cl14 Lu3 2.664337 1_565
Cl14 Cs3 3.552438 1_555
Cl15 Lu4 2.617081 1_555
Cl15 Lu2 2.664337 1_545
Cl15 Cs2 3.552438 1_555
Cl16 Lu2 2.637502 1_445
Cl16 Lu4 2.683804 1_555
Cl16 Cs1 3.609945 1_454
Cl16 Cs0 3.658562 1_545
Cl17 Lu3 2.637502 1_665
Cl17 Lu5 2.683804 1_555
Cl17 Cs0 3.609945 1_656
Cl17 Cs1 3.658562 1_565
Cl18 Lu0 2.637502 1_655
Cl18 Lu6 2.683804 1_555
Cl18 Cs3 3.609945 1_655
Cl18 Cs2 3.658562 1_555
Cl19 Lu3 2.637502 1_565
Cl19 Lu5 2.683804 1_555
Cl19 Cs0 3.609945 1_556
Cl19 Cs1 3.658562 1_565
Cl20 Lu1 2.637502 1_455
Cl20 Lu7 2.683804 1_555
Cl20 Cs2 3.609945 1_455
Cl20 Cs3 3.658562 1_555
Cl21 Lu2 2.637502 1_545
Cl21 Lu4 2.683804 1_555
Cl21 Cs1 3.609945 1_554
Cl21 Cs0 3.658562 1_545
Cl22 Lu1 2.637502 1_555
Cl22 Lu7 2.683804 1_555
Cl22 Cs2 3.609945 1_555
Cl22 Cs3 3.658562 1_555
Cl23 Lu0 2.637502 1_555
Cl23 Lu6 2.683804 1_555
Cl23 Cs3 3.609945 1_555
Cl23 Cs2 3.658562 1_555
Cl24 Lu4 2.691019 1_555
Cl24 Lu0 2.718340 1_555
Cl24 Cs2 3.585210 1_455
Cl24 Cs2 3.585210 1_555
Cl25 Lu5 2.691019 1_555
Cl25 Lu1 2.718340 1_555
Cl25 Cs3 3.585210 1_655
Cl25 Cs3 3.585210 1_555
Cl26 Lu6 2.691019 1_555
Cl26 Lu2 2.718340 1_555
Cl26 Cs0 3.585210 1_555
Cl26 Cs0 3.585210 1_655
Cl27 Lu7 2.691019 1_555
Cl27 Lu3 2.718340 1_555
Cl27 Cs1 3.585210 1_455
Cl27 Cs1 3.585210 1_555
