# generated using pymatgen
data_Eu2Co4Si3Ge
_symmetry_space_group_name_H-M   'P 1'
_cell_length_a   3.92797400
_cell_length_b   3.92797400
_cell_length_c   10.23366000
_cell_angle_alpha   90.00000000
_cell_angle_beta   90.00000000
_cell_angle_gamma   90.00000000
_symmetry_Int_Tables_number   1
_chemical_formula_structural   Eu2Co4Si3Ge
_chemical_formula_sum   'Eu2 Co4 Si3 Ge1'
_cell_volume   157.89493285
_cell_formula_units_Z   1
loop_
 _symmetry_equiv_pos_site_id
 _symmetry_equiv_pos_as_xyz
  1  'x, y, z'
loop_
 _atom_site_type_symbol
 _atom_site_label
 _atom_site_symmetry_multiplicity
 _atom_site_fract_x
 _atom_site_fract_y
 _atom_site_fract_z
 _atom_site_occupancy
  Eu  Eu0  1  0.00000000  0.00000000  0.99749100  1
  Eu  Eu1  1  0.50000000  0.50000000  0.50108500  1
  Co  Co0  1  0.00000000  0.50000000  0.25593000  1
  Co  Co1  1  0.50000000  0.00000000  0.74904800  1
  Co  Co2  1  0.50000000  0.00000000  0.25593000  1
  Co  Co3  1  0.00000000  0.50000000  0.74904800  1
  Si  Si0  1  0.00000000  0.00000000  0.63632400  1
  Si  Si1  1  0.00000000  0.00000000  0.36588200  1
  Si  Si2  1  0.50000000  0.50000000  0.85880700  1
  Ge  Ge0  1  0.50000000  0.50000000  0.13045400  1
loop_
_geom_bond_atom_site_label_1
_geom_bond_atom_site_label_2
_geom_bond_distance
_geom_bond_site_symmetry_2
Eu0 Ge0 3.092893 1_446
Eu0 Ge0 3.092893 1_546
Eu0 Ge0 3.092893 1_456
Eu0 Ge0 3.092893 1_556
Eu0 Si2 3.119094 1_545
Eu0 Si2 3.119094 1_445
Eu0 Si2 3.119094 1_555
Eu0 Si2 3.119094 1_455
Eu1 Si1 3.103047 1_555
Eu1 Si1 3.103047 1_655
Eu1 Si1 3.103047 1_665
Eu1 Si1 3.103047 1_565
Eu1 Si0 3.103211 1_665
Eu1 Si0 3.103211 1_565
Eu1 Si0 3.103211 1_555
Eu1 Si0 3.103211 1_655
Co0 Si1 2.263481 1_565
Co0 Si1 2.263481 1_555
Co0 Ge0 2.346509 1_555
Co0 Ge0 2.346509 1_455
Co0 Eu1 3.186140 1_455
Co0 Eu1 3.186140 1_555
Co0 Eu0 3.294251 1_554
Co0 Eu0 3.294251 1_564
Co1 Si2 2.262500 1_545
Co1 Si2 2.262500 1_555
Co1 Si0 2.277716 1_655
Co1 Si0 2.277716 1_555
Co1 Eu1 3.208816 1_555
Co1 Eu1 3.208816 1_545
Co1 Eu0 3.212702 1_655
Co1 Eu0 3.212702 1_555
Co2 Si1 2.263481 1_555
Co2 Si1 2.263481 1_655
Co2 Ge0 2.346509 1_545
Co2 Ge0 2.346509 1_555
Co2 Eu1 3.186140 1_555
Co2 Eu1 3.186140 1_545
Co2 Eu0 3.294251 1_554
Co2 Eu0 3.294251 1_654
Co3 Si2 2.262500 1_555
Co3 Si2 2.262500 1_455
Co3 Si0 2.277716 1_565
Co3 Si0 2.277716 1_555
Co3 Eu1 3.208816 1_455
Co3 Eu1 3.208816 1_555
Co3 Eu0 3.212702 1_565
Co3 Eu0 3.212702 1_555
Si0 Si1 2.767611 1_555
Ge0 Si2 2.779943 1_554
