# generated using pymatgen
data_CsH2SNO3
_symmetry_space_group_name_H-M   'P 1'
_cell_length_a   6.78862100
_cell_length_b   8.68614300
_cell_length_c   8.70223000
_cell_angle_alpha   90.00000000
_cell_angle_beta   90.00000000
_cell_angle_gamma   90.00000000
_symmetry_Int_Tables_number   1
_chemical_formula_structural   CsH2SNO3
_chemical_formula_sum   'Cs4 H8 S4 N4 O12'
_cell_volume   513.14381144
_cell_formula_units_Z   4
loop_
 _symmetry_equiv_pos_site_id
 _symmetry_equiv_pos_as_xyz
  1  'x, y, z'
loop_
 _atom_site_type_symbol
 _atom_site_label
 _atom_site_symmetry_multiplicity
 _atom_site_fract_x
 _atom_site_fract_y
 _atom_site_fract_z
 _atom_site_occupancy
  Cs  Cs0  1  0.75000000  0.90021300  0.39119800  1
  Cs  Cs1  1  0.75000000  0.59978700  0.89119800  1
  Cs  Cs2  1  0.25000000  0.09978700  0.60880200  1
  Cs  Cs3  1  0.25000000  0.40021300  0.10880200  1
  H  H0  1  0.13042200  0.03183400  0.00231200  1
  H  H1  1  0.36957800  0.46816600  0.50231200  1
  H  H2  1  0.63042200  0.96816600  0.99768800  1
  H  H3  1  0.86957800  0.53183400  0.49768800  1
  H  H4  1  0.86957800  0.96816600  0.99768800  1
  H  H5  1  0.63042200  0.53183400  0.49768800  1
  H  H6  1  0.36957800  0.03183400  0.00231200  1
  H  H7  1  0.13042200  0.46816600  0.50231200  1
  S  S0  1  0.25000000  0.84399100  0.15533700  1
  S  S1  1  0.25000000  0.65600900  0.65533700  1
  S  S2  1  0.75000000  0.15600900  0.84466300  1
  S  S3  1  0.75000000  0.34399100  0.34466300  1
  N  N0  1  0.25000000  0.95999500  0.99719500  1
  N  N1  1  0.25000000  0.54000500  0.49719500  1
  N  N2  1  0.75000000  0.04000500  0.00280500  1
  N  N3  1  0.75000000  0.45999500  0.50280500  1
  O  O0  1  0.25000000  0.94192900  0.29321200  1
  O  O1  1  0.25000000  0.55807100  0.79321200  1
  O  O2  1  0.75000000  0.05807100  0.70678800  1
  O  O3  1  0.75000000  0.44192900  0.20678800  1
  O  O4  1  0.43231400  0.75460200  0.13798500  1
  O  O5  1  0.06768600  0.74539800  0.63798500  1
  O  O6  1  0.93231400  0.24539800  0.86201500  1
  O  O7  1  0.56768600  0.25460200  0.36201500  1
  O  O8  1  0.56768600  0.24539800  0.86201500  1
  O  O9  1  0.93231400  0.25460200  0.36201500  1
  O  O10  1  0.06768600  0.75460200  0.13798500  1
  O  O11  1  0.43231400  0.74539800  0.63798500  1
loop_
_geom_bond_atom_site_label_1
_geom_bond_atom_site_label_2
_geom_bond_distance
_geom_bond_site_symmetry_2
Cs0 O2 3.069608 1_565
Cs0 O5 3.327409 1_655
Cs0 O11 3.327409 1_555
Cs0 O9 3.327471 1_565
Cs0 O7 3.327471 1_565
Cs0 O10 3.332618 1_655
Cs0 O4 3.332618 1_555
Cs0 O0 3.518485 1_555
Cs0 O0 3.518485 1_655
Cs1 O3 3.069608 1_556
Cs1 O10 3.327409 1_656
Cs1 O4 3.327409 1_556
Cs1 O6 3.327471 1_555
Cs1 O8 3.327471 1_555
Cs1 O5 3.332618 1_655
Cs1 O11 3.332618 1_555
Cs1 O1 3.518485 1_555
Cs1 O1 3.518485 1_655
Cs2 O0 3.069608 1_545
Cs2 O9 3.327409 1_455
Cs2 O7 3.327409 1_555
Cs2 O5 3.327471 1_545
Cs2 O11 3.327471 1_545
Cs2 O8 3.332618 1_555
Cs2 O6 3.332618 1_455
Cs2 O2 3.518485 1_455
Cs2 O2 3.518485 1_555
Cs3 O1 3.069608 1_554
Cs3 O6 3.327409 1_454
Cs3 O8 3.327409 1_554
Cs3 O4 3.327471 1_555
Cs3 O10 3.327471 1_555
Cs3 O9 3.332618 1_455
Cs3 O7 3.332618 1_555
Cs3 O3 3.518485 1_455
Cs3 O3 3.518485 1_555
H0 N0 1.024858 1_544
H1 N1 1.024858 1_555
H2 N2 1.024858 1_566
H3 N3 1.024858 1_555
H4 N2 1.024858 1_566
H5 N3 1.024858 1_555
H6 N0 1.024858 1_544
H7 N1 1.024858 1_555
N0 S0 1.705640 1_556
N1 S1 1.705640 1_555
N2 S2 1.705640 1_554
N3 S3 1.705640 1_555
O0 S0 1.470804 1_555
O1 S1 1.470804 1_555
O2 S2 1.470804 1_555
O3 S3 1.470804 1_555
O4 S0 1.468834 1_555
O5 S1 1.468834 1_555
O6 S2 1.468834 1_555
O7 S3 1.468834 1_555
O8 S2 1.468834 1_555
O9 S3 1.468834 1_555
O10 S0 1.468834 1_555
O11 S1 1.468834 1_555
