# generated using pymatgen
data_Y3Ga8Ni3
_symmetry_space_group_name_H-M   'P 1'
_cell_length_a   8.03427716
_cell_length_b   8.03427716
_cell_length_c   9.55966508
_cell_angle_alpha   54.30439227
_cell_angle_beta   54.30439227
_cell_angle_gamma   30.01376296
_symmetry_Int_Tables_number   1
_chemical_formula_structural   Y3Ga8Ni3
_chemical_formula_sum   'Y3 Ga8 Ni3'
_cell_volume   245.98188889
_cell_formula_units_Z   1
loop_
 _symmetry_equiv_pos_site_id
 _symmetry_equiv_pos_as_xyz
  1  'x, y, z'
loop_
 _atom_site_type_symbol
 _atom_site_label
 _atom_site_symmetry_multiplicity
 _atom_site_fract_x
 _atom_site_fract_y
 _atom_site_fract_z
 _atom_site_occupancy
  Y  Y0  1  0.69287800  0.69287800  0.30188800  1
  Y  Y1  1  0.31412500  0.31412500  0.68201900  1
  Y  Y2  1  0.99125700  0.99125700  0.01186200  1
  Ga  Ga0  1  0.49682200  0.49682200  0.71634800  1
  Ga  Ga1  1  0.49924500  0.49924500  0.27893800  1
  Ga  Ga2  1  0.84671300  0.84671300  0.41487000  1
  Ga  Ga3  1  0.15764600  0.15764600  0.56686000  1
  Ga  Ga4  1  0.84212300  0.84212300  0.89188500  1
  Ga  Ga5  1  0.16001600  0.16001600  0.10327900  1
  Ga  Ga6  1  0.99994500  0.99994500  0.49895900  1
  Ga  Ga7  1  0.65594400  0.65594400  0.73866100  1
  Ni  Ni0  1  0.34022200  0.34022200  0.28816500  1
  Ni  Ni1  1  0.65780500  0.65780500  0.98199600  1
  Ni  Ni2  1  0.34525900  0.34525900  0.02427200  1
loop_
_geom_bond_atom_site_label_1
_geom_bond_atom_site_label_2
_geom_bond_distance
_geom_bond_site_symmetry_2
Ga0 Ni2 2.415098 1_556
Ga0 Ga7 2.604066 1_555
Ga0 Ga4 2.835646 1_545
Ga0 Ga4 2.835646 1_455
Ga0 Ga3 2.879395 1_655
Ga0 Ga3 2.879395 1_565
Ga0 Ga6 2.920155 1_545
Ga0 Ga6 2.920155 1_455
Ga0 Y1 3.045050 1_555
Ga0 Y0 3.223589 1_555
Ga0 Y2 3.467168 1_546
Ga0 Y2 3.467168 1_456
Ga1 Ni1 2.382074 1_554
Ga1 Ni0 2.415860 1_555
Ga1 Ga2 2.811453 1_455
Ga1 Ga2 2.811453 1_545
Ga1 Ga5 2.882994 1_565
Ga1 Ga5 2.882994 1_655
Ga1 Ga6 2.963038 1_545
Ga1 Ga6 2.963038 1_455
Ga1 Y1 3.118863 1_555
Ga1 Y0 3.142686 1_555
Ga1 Y2 3.353251 1_455
Ga1 Y2 3.353251 1_545
Ga2 Ni0 2.439796 1_565
Ga2 Ni0 2.439796 1_655
Ga2 Ga7 2.697240 1_555
Ga2 Ga6 2.934616 1_555
Ga2 Y2 3.071388 1_555
Ga2 Y1 3.089546 1_565
Ga2 Y1 3.089546 1_655
Ga2 Y0 3.159552 1_555
Ga3 Ni0 2.450866 1_555
Ga3 Ga7 2.640740 1_455
Ga3 Ga7 2.640740 1_545
Ga3 Ga6 2.886450 1_445
Ga3 Y0 3.061006 1_545
Ga3 Y0 3.061006 1_455
Ga3 Y1 3.215651 1_555
Ga3 Y2 3.390189 1_446
Ga4 Ni1 2.438947 1_555
Ga4 Ni2 2.450786 1_656
Ga4 Ni2 2.450786 1_566
Ga4 Ga6 2.998865 1_555
Ga4 Y1 3.097583 1_565
Ga4 Y1 3.097583 1_655
Ga4 Y0 3.123953 1_556
Ga4 Y2 3.143310 1_556
Ga5 Ni1 2.391943 1_544
Ga5 Ni1 2.391943 1_454
Ga5 Ni2 2.492583 1_555
Ga5 Ga6 3.021003 1_445
Ga5 Y0 3.059867 1_455
Ga5 Y0 3.059867 1_545
Ga5 Y1 3.209551 1_554
Ga5 Y2 3.223284 1_445
Ga6 Y1 3.100054 1_565
Ga6 Y1 3.100054 1_655
Ga6 Y0 3.166710 1_565
Ga6 Y0 3.166710 1_655
Ga7 Ni1 2.343762 1_555
Ga7 Y1 3.007039 1_565
Ga7 Y1 3.007039 1_655
Ga7 Y2 3.101125 1_456
Ga7 Y2 3.101125 1_546
Ni0 Ni2 2.476287 1_555
Ni0 Y0 3.035185 1_545
Ni0 Y0 3.035185 1_455
Ni0 Y2 3.052715 1_455
Ni0 Y2 3.052715 1_545
Ni1 Y1 3.167334 1_565
Ni1 Y1 3.167334 1_655
Ni1 Y2 3.193671 1_546
Ni1 Y2 3.193671 1_456
Ni2 Y2 3.025190 1_545
Ni2 Y2 3.025190 1_455
Ni2 Y0 3.062904 1_455
Ni2 Y0 3.062904 1_545
