# generated using pymatgen
data_MnCoSi
_symmetry_space_group_name_H-M   'P 1'
_cell_length_a   3.97414566
_cell_length_b   3.97414566
_cell_length_c   5.06228700
_cell_angle_alpha   90.00000000
_cell_angle_beta   90.00000000
_cell_angle_gamma   119.99999431
_symmetry_Int_Tables_number   1
_chemical_formula_structural   MnCoSi
_chemical_formula_sum   'Mn2 Co2 Si2'
_cell_volume   69.24126301
_cell_formula_units_Z   2
loop_
 _symmetry_equiv_pos_site_id
 _symmetry_equiv_pos_as_xyz
  1  'x, y, z'
loop_
 _atom_site_type_symbol
 _atom_site_label
 _atom_site_symmetry_multiplicity
 _atom_site_fract_x
 _atom_site_fract_y
 _atom_site_fract_z
 _atom_site_occupancy
  Mn  Mn0  1  0.33333300  0.66666700  0.75000000  1
  Mn  Mn1  1  0.66666700  0.33333300  0.25000000  1
  Co  Co0  1  0.66666700  0.33333300  0.75000000  1
  Co  Co1  1  0.33333300  0.66666700  0.25000000  1
  Si  Si0  1  0.00000000  0.00000000  0.50000000  1
  Si  Si1  1  0.00000000  0.00000000  0.00000000  1
loop_
_geom_bond_atom_site_label_1
_geom_bond_atom_site_label_2
_geom_bond_distance
_geom_bond_site_symmetry_2
Mn0 Si0 2.620357 1_565
Mn0 Si1 2.620357 1_566
Mn0 Si0 2.620360 1_555
Mn0 Si1 2.620360 1_556
Mn0 Si0 2.620360 1_665
Mn0 Si1 2.620360 1_666
Mn1 Si1 2.620357 1_655
Mn1 Si0 2.620357 1_655
Mn1 Si0 2.620360 1_555
Mn1 Si1 2.620360 1_665
Mn1 Si1 2.620360 1_555
Mn1 Si0 2.620360 1_665
Co0 Mn0 2.294472 1_545
Co0 Mn0 2.294472 1_655
Co0 Mn0 2.294479 1_555
Co0 Mn1 2.531144 1_556
Co0 Mn1 2.531144 1_555
Co0 Si1 2.620357 1_656
Co0 Si0 2.620357 1_655
Co0 Si0 2.620360 1_555
Co0 Si1 2.620360 1_556
Co0 Si0 2.620360 1_665
Co0 Si1 2.620360 1_666
Co1 Mn1 2.294472 1_455
Co1 Mn1 2.294472 1_565
Co1 Mn1 2.294479 1_555
Co1 Mn0 2.531144 1_555
Co1 Mn0 2.531144 1_554
Co1 Si1 2.620357 1_565
Co1 Si0 2.620357 1_565
Co1 Si0 2.620360 1_555
Co1 Si1 2.620360 1_665
Co1 Si1 2.620360 1_555
Co1 Si0 2.620360 1_665
Si0 Si1 2.531144 1_556
Si0 Si1 2.531144 1_555
