# generated using pymatgen
data_Mn4(CuO4)3
_symmetry_space_group_name_H-M   'P 1'
_cell_length_a   6.28967501
_cell_length_b   6.29008442
_cell_length_c   6.30594239
_cell_angle_alpha   70.45674648
_cell_angle_beta   109.51133533
_cell_angle_gamma   70.59392090
_symmetry_Int_Tables_number   1
_chemical_formula_structural   Mn4(CuO4)3
_chemical_formula_sum   'Mn4 Cu3 O12'
_cell_volume   191.93760849
_cell_formula_units_Z   1
loop_
 _symmetry_equiv_pos_site_id
 _symmetry_equiv_pos_as_xyz
  1  'x, y, z'
loop_
 _atom_site_type_symbol
 _atom_site_label
 _atom_site_symmetry_multiplicity
 _atom_site_fract_x
 _atom_site_fract_y
 _atom_site_fract_z
 _atom_site_occupancy
  Mn  Mn0  1  0.50000600  0.49999800  0.50000500  1
  Mn  Mn1  1  0.50000000  0.99999900  0.00000400  1
  Mn  Mn2  1  0.00000100  0.50000800  0.99999900  1
  Mn  Mn3  1  0.99999600  0.00000200  0.49999300  1
  Cu  Cu0  1  0.50000400  0.99999500  0.50000100  1
  Cu  Cu1  1  0.00000000  0.50000100  0.49999900  1
  Cu  Cu2  1  0.49999700  0.49999500  0.99999800  1
  O  O0  1  0.13583900  0.68605300  0.81810400  1
  O  O1  1  0.50388000  0.31671500  0.82115000  1
  O  O2  1  0.49612300  0.68328000  0.17885400  1
  O  O3  1  0.82046600  0.49616400  0.68260200  1
  O  O4  1  0.31679200  0.17941700  0.13790500  1
  O  O5  1  0.68320300  0.82058600  0.86209600  1
  O  O6  1  0.17814200  0.13578500  0.68227700  1
  O  O7  1  0.68613700  0.17812600  0.50415400  1
  O  O8  1  0.86415500  0.31395700  0.18188400  1
  O  O9  1  0.82185300  0.86422000  0.31771900  1
  O  O10  1  0.17953700  0.50383400  0.31740000  1
  O  O11  1  0.31386900  0.82187200  0.49584900  1
loop_
_geom_bond_atom_site_label_1
_geom_bond_atom_site_label_2
_geom_bond_distance
_geom_bond_site_symmetry_2
Mn0 O3 1.946237 1_555
Mn0 O10 1.946290 1_555
Mn0 O1 1.953762 1_555
Mn0 O2 1.953762 1_555
Mn0 O11 1.959407 1_555
Mn0 O7 1.959410 1_555
Mn1 O2 1.946492 1_555
Mn1 O1 1.946492 1_564
Mn1 O4 1.954336 1_565
Mn1 O5 1.954339 1_554
Mn1 O9 1.959209 1_555
Mn1 O6 1.959255 1_564
Mn2 O5 1.947306 1_455
Mn2 O4 1.947322 1_556
Mn2 O10 1.955072 1_556
Mn2 O3 1.955112 1_455
Mn2 O0 1.958586 1_555
Mn2 O8 1.958614 1_456
Mn3 O0 1.933212 1_645
Mn3 O8 1.933228 1_555
Mn3 O7 1.933253 1_555
Mn3 O11 1.933277 1_645
Mn3 O9 1.933510 1_545
Mn3 O6 1.933559 1_655
Cu0 O5 1.862627 1_555
Cu0 O4 1.862632 1_565
Cu0 O11 1.870136 1_555
Cu0 O7 1.870166 1_565
Cu1 O10 1.862706 1_555
Cu1 O3 1.862711 1_455
Cu1 O6 1.870090 1_555
Cu1 O9 1.870105 1_455
Cu2 O1 1.863104 1_555
Cu2 O2 1.863171 1_556
Cu2 O8 1.870051 1_556
Cu2 O0 1.870053 1_555
