# generated using pymatgen
data_PrNb3O9
_symmetry_space_group_name_H-M   'P 1'
_cell_length_a   5.61131914
_cell_length_b   16.84739551
_cell_length_c   9.76110730
_cell_angle_alpha   54.89329649
_cell_angle_beta   90.26293543
_cell_angle_gamma   90.46535594
_symmetry_Int_Tables_number   1
_chemical_formula_structural   PrNb3O9
_chemical_formula_sum   'Pr4 Nb12 O36'
_cell_volume   754.88286989
_cell_formula_units_Z   4
loop_
 _symmetry_equiv_pos_site_id
 _symmetry_equiv_pos_as_xyz
  1  'x, y, z'
loop_
 _atom_site_type_symbol
 _atom_site_label
 _atom_site_symmetry_multiplicity
 _atom_site_fract_x
 _atom_site_fract_y
 _atom_site_fract_z
 _atom_site_occupancy
  Pr  Pr0  1  0.26402400  0.91111500  0.00000100  1
  Pr  Pr1  1  0.25859900  0.25046600  0.99867700  1
  Pr  Pr2  1  0.73597600  0.75555100  0.99999900  1
  Pr  Pr3  1  0.74140100  0.41620100  0.00132300  1
  Nb  Nb0  1  0.24779000  0.99932400  0.24672900  1
  Nb  Nb1  1  0.24945400  0.83619200  0.73236700  1
  Nb  Nb2  1  0.25066700  0.65819000  0.26374100  1
  Nb  Nb3  1  0.25123900  0.50684800  0.74516100  1
  Nb  Nb4  1  0.25085000  0.33249500  0.26343100  1
  Nb  Nb5  1  0.24529500  0.16729800  0.74407300  1
  Nb  Nb6  1  0.75054600  0.83047500  0.26763300  1
  Nb  Nb7  1  0.75221000  0.66734300  0.75327100  1
  Nb  Nb8  1  0.75470500  0.49936900  0.25592700  1
  Nb  Nb9  1  0.74915000  0.33417100  0.73656900  1
  Nb  Nb10  1  0.74876100  0.15981800  0.25483900  1
  Nb  Nb11  1  0.74933300  0.00847700  0.73625900  1
  O  O0  1  0.00015100  0.90484900  0.78550400  1
  O  O1  1  0.01114200  0.92763800  0.20272100  1
  O  O2  1  0.99984900  0.76181700  0.21449600  1
  O  O3  1  0.98667100  0.57286000  0.76529200  1
  O  O4  1  0.98636000  0.41731900  0.23279000  1
  O  O5  1  0.01332900  0.09380700  0.23470800  1
  O  O6  1  0.21491100  0.90750200  0.49733500  1
  O  O7  1  0.21678600  0.57093700  0.49996400  1
  O  O8  1  0.21612300  0.23770200  0.50292700  1
  O  O9  1  0.30279500  0.76744600  0.00001200  1
  O  O10  1  0.29525400  0.42377500  0.99855200  1
  O  O11  1  0.27985300  0.09838600  0.00161800  1
  O  O12  1  0.50030900  0.92129600  0.73605200  1
  O  O13  1  0.49149700  0.91890000  0.23252700  1
  O  O14  1  0.50850300  0.74776700  0.76747300  1
  O  O15  1  0.50756200  0.58810800  0.72715700  1
  O  O16  1  0.49969100  0.74537100  0.26394800  1
  O  O17  1  0.50955200  0.59286200  0.23060700  1
  O  O18  1  0.50181200  0.40705800  0.77653200  1
  O  O19  1  0.50687000  0.40721900  0.27045300  1
  O  O20  1  0.49313000  0.25944800  0.72954700  1
  O  O21  1  0.49818800  0.25960800  0.22346800  1
  O  O22  1  0.49044800  0.07380500  0.76939300  1
  O  O23  1  0.49243800  0.07855800  0.27284300  1
  O  O24  1  0.69720500  0.89922000  0.99998800  1
  O  O25  1  0.72014700  0.56828100  0.99838200  1
  O  O26  1  0.70474600  0.24289200  0.00144800  1
  O  O27  1  0.78508900  0.75916400  0.50266500  1
  O  O28  1  0.78387700  0.42896500  0.49707300  1
  O  O29  1  0.78321400  0.09573000  0.50003600  1
  O  O30  1  0.98885800  0.73902900  0.79727900  1
  O  O31  1  0.98777300  0.60384600  0.20157800  1
  O  O32  1  0.99860500  0.39590000  0.81024400  1
  O  O33  1  0.01364000  0.24934800  0.76721000  1
  O  O34  1  0.00139500  0.27076600  0.18975600  1
  O  O35  1  0.01222700  0.06282100  0.79842200  1
loop_
_geom_bond_atom_site_label_1
_geom_bond_atom_site_label_2
_geom_bond_distance
_geom_bond_site_symmetry_2
Nb0 O11 1.987040 1_565
Nb0 O1 1.992961 1_555
Nb0 O13 1.993252 1_555
Nb0 O6 2.014432 1_555
Nb0 O23 2.022342 1_565
Nb0 O5 2.023916 1_565
Nb1 O6 1.890412 1_555
Nb1 O14 1.973102 1_555
Nb1 O30 1.998994 1_455
Nb1 O12 2.016062 1_555
Nb1 O0 2.070493 1_555
Nb1 O9 2.185040 1_556
Nb2 O7 1.901208 1_555
Nb2 O17 1.966202 1_555
Nb2 O31 1.997852 1_455
Nb2 O16 2.019887 1_555
Nb2 O2 2.080460 1_455
Nb2 O9 2.156066 1_555
Nb3 O15 1.915057 1_555
Nb3 O3 1.939141 1_455
Nb3 O7 1.989547 1_555
Nb3 O10 2.038574 1_555
Nb3 O18 2.083142 1_555
Nb3 O32 2.122842 1_455
Nb4 O19 1.929341 1_555
Nb4 O8 1.938667 1_555
Nb4 O4 1.968020 1_455
Nb4 O21 2.042031 1_555
Nb4 O34 2.094141 1_555
Nb4 O10 2.130322 1_554
Nb5 O8 1.939743 1_555
Nb5 O35 1.996234 1_555
Nb5 O22 2.004680 1_555
Nb5 O33 2.010601 1_555
Nb5 O20 2.019372 1_555
Nb5 O11 2.085060 1_556
Nb6 O27 1.890411 1_555
Nb6 O13 1.973102 1_555
Nb6 O1 1.998994 1_655
Nb6 O16 2.016062 1_555
Nb6 O2 2.070504 1_555
Nb6 O24 2.185042 1_554
Nb7 O25 1.987040 1_555
Nb7 O30 1.992961 1_555
Nb7 O14 1.993252 1_555
Nb7 O27 2.014431 1_555
Nb7 O15 2.022354 1_555
Nb7 O3 2.023916 1_555
Nb8 O28 1.939743 1_555
Nb8 O31 1.996234 1_555
Nb8 O17 2.004680 1_555
Nb8 O4 2.010601 1_555
Nb8 O19 2.019372 1_555
Nb8 O25 2.085060 1_554
Nb9 O20 1.929329 1_555
Nb9 O28 1.938669 1_555
Nb9 O33 1.968009 1_655
Nb9 O18 2.042031 1_555
Nb9 O32 2.094141 1_555
Nb9 O26 2.130322 1_556
Nb10 O23 1.915057 1_555
Nb10 O5 1.939130 1_655
Nb10 O29 1.989549 1_555
Nb10 O26 2.038574 1_555
Nb10 O21 2.083142 1_555
Nb10 O34 2.122842 1_655
Nb11 O29 1.901208 1_555
Nb11 O22 1.966202 1_555
Nb11 O35 1.997852 1_655
Nb11 O12 2.019887 1_545
Nb11 O0 2.080472 1_645
Nb11 O24 2.156069 1_545
O0 Pr0 2.609689 1_556
O0 Pr2 2.611193 1_455
O1 Pr0 2.583088 1_555
O2 Pr2 2.609689 1_554
O2 Pr0 2.611193 1_655
O3 Pr3 2.672853 1_556
O4 Pr3 2.648494 1_555
O5 Pr1 2.672853 1_554
O9 Pr0 2.431904 1_555
O9 Pr2 2.440592 1_554
O10 Pr3 2.506988 1_556
O10 Pr1 2.924674 1_555
O10 Pr3 3.109032 1_456
O11 Pr1 2.549510 1_554
O12 Pr2 2.817411 1_555
O12 Pr0 2.818640 1_556
O13 Pr0 2.666672 1_555
O14 Pr2 2.666663 1_555
O15 Pr3 2.895883 1_556
O16 Pr0 2.817404 1_555
O16 Pr2 2.818648 1_554
O17 Pr2 2.658373 1_554
O18 Pr1 2.629300 1_555
O18 Pr3 2.646514 1_556
O19 Pr3 2.868319 1_555
O20 Pr1 2.868319 1_555
O21 Pr3 2.629309 1_555
O21 Pr1 2.646505 1_554
O22 Pr0 2.658382 1_546
O23 Pr1 2.895891 1_554
O24 Pr2 2.431904 1_555
O24 Pr0 2.440592 1_556
O25 Pr3 2.549510 1_556
O26 Pr1 2.506988 1_554
O26 Pr3 2.924674 1_555
O26 Pr1 3.109032 1_654
O30 Pr2 2.583079 1_555
O31 Pr2 2.578572 1_554
O32 Pr1 2.522849 1_655
O32 Pr3 2.538734 1_556
O33 Pr1 2.648494 1_555
O34 Pr3 2.522858 1_455
O34 Pr1 2.538724 1_554
O35 Pr0 2.578582 1_546
