# generated using pymatgen
data_K4Ti2C8O23
_symmetry_space_group_name_H-M   'P 1'
_cell_length_a   11.61749745
_cell_length_b   14.06383269
_cell_length_c   14.50613404
_cell_angle_alpha   90.00000000
_cell_angle_beta   90.00000000
_cell_angle_gamma   102.78133852
_symmetry_Int_Tables_number   1
_chemical_formula_structural   K4Ti2C8O23
_chemical_formula_sum   'K16 Ti8 C32 O92'
_cell_volume   2311.37926709
_cell_formula_units_Z   4
loop_
 _symmetry_equiv_pos_site_id
 _symmetry_equiv_pos_as_xyz
  1  'x, y, z'
loop_
 _atom_site_type_symbol
 _atom_site_label
 _atom_site_symmetry_multiplicity
 _atom_site_fract_x
 _atom_site_fract_y
 _atom_site_fract_z
 _atom_site_occupancy
  K  K0  1  0.71569996  0.12695388  0.89567446  1
  K  K1  1  0.28430004  0.37304612  0.39567446  1
  K  K2  1  0.28430004  0.87304612  0.10432554  1
  K  K3  1  0.71569996  0.62695388  0.60432554  1
  K  K4  1  0.50614055  0.04862925  0.63963955  1
  K  K5  1  0.49385945  0.45137075  0.13963955  1
  K  K6  1  0.49385945  0.95137075  0.36036045  1
  K  K7  1  0.50614055  0.54862925  0.86036045  1
  K  K8  1  0.96809746  0.78817799  0.79450348  1
  K  K9  1  0.03190254  0.71182201  0.29450348  1
  K  K10  1  0.03190254  0.21182201  0.20549652  1
  K  K11  1  0.96809746  0.28817799  0.70549652  1
  K  K12  1  0.84850120  0.08159724  0.45251795  1
  K  K13  1  0.15149880  0.41840276  0.95251795  1
  K  K14  1  0.15149880  0.91840276  0.54748205  1
  K  K15  1  0.84850120  0.58159724  0.04748205  1
  Ti  Ti0  1  0.39244556  0.11015993  0.90219055  1
  Ti  Ti1  1  0.60755444  0.38984007  0.40219055  1
  Ti  Ti2  1  0.60755444  0.88984007  0.09780945  1
  Ti  Ti3  1  0.39244556  0.61015993  0.59780945  1
  Ti  Ti4  1  0.50573796  0.90391920  0.86627739  1
  Ti  Ti5  1  0.49426204  0.59608080  0.36627739  1
  Ti  Ti6  1  0.49426204  0.09608080  0.13372261  1
  Ti  Ti7  1  0.50573796  0.40391920  0.63372261  1
  C  C0  1  0.38801465  0.30944246  0.95127802  1
  C  C1  1  0.61198535  0.19055754  0.45127802  1
  C  C2  1  0.61198535  0.69055754  0.04872198  1
  C  C3  1  0.38801465  0.80944246  0.54872198  1
  C  C4  1  0.25629054  0.31406969  0.62652602  1
  C  C5  1  0.74370946  0.18593031  0.12652602  1
  C  C6  1  0.74370946  0.68593031  0.37347398  1
  C  C7  1  0.25629054  0.81406969  0.87347398  1
  C  C8  1  0.71614648  0.38394612  0.73234786  1
  C  C9  1  0.28385352  0.11605388  0.23234786  1
  C  C10  1  0.28385352  0.61605388  0.26765214  1
  C  C11  1  0.71614648  0.88394612  0.76765214  1
  C  C12  1  0.65817510  0.27768990  0.70014240  1
  C  C13  1  0.34182490  0.22231010  0.20014240  1
  C  C14  1  0.34182490  0.72231010  0.29985760  1
  C  C15  1  0.65817510  0.77768990  0.79985760  1
  C  C16  1  0.27912209  0.33708165  0.73102083  1
  C  C17  1  0.72087791  0.16291835  0.23102083  1
  C  C18  1  0.72087791  0.66291835  0.26897917  1
  C  C19  1  0.27912209  0.83708165  0.76897917  1
  C  C20  1  0.16074063  0.02420164  0.82762811  1
  C  C21  1  0.83925937  0.47579836  0.32762811  1
  C  C22  1  0.83925937  0.97579836  0.17237189  1
  C  C23  1  0.16074063  0.52420164  0.67237189  1
  C  C24  1  0.51761007  0.81101608  0.57561924  1
  C  C25  1  0.48238993  0.68898392  0.07561924  1
  C  C26  1  0.48238993  0.18898392  0.42438076  1
  C  C27  1  0.51761007  0.31101608  0.92438076  1
  C  C28  1  0.23154852  0.07603450  0.74296007  1
  C  C29  1  0.76845148  0.42396550  0.24296007  1
  C  C30  1  0.76845148  0.92396550  0.25703993  1
  C  C31  1  0.23154852  0.57603450  0.75703993  1
  O  O0  1  0.38971090  0.86912004  0.75056885  1
  O  O1  1  0.61028910  0.63087996  0.25056885  1
  O  O2  1  0.61028910  0.13087996  0.24943115  1
  O  O3  1  0.38971090  0.36912004  0.74943115  1
  O  O4  1  0.48467233  0.02978922  0.85407150  1
  O  O5  1  0.51532767  0.47021078  0.35407150  1
  O  O6  1  0.51532767  0.97021078  0.14592850  1
  O  O7  1  0.48467233  0.52978922  0.64592850  1
  O  O8  1  0.35292005  0.83518687  0.92335147  1
  O  O9  1  0.64707995  0.66481313  0.42335147  1
  O  O10  1  0.64707995  0.16481313  0.07664853  1
  O  O11  1  0.35292005  0.33518687  0.57664853  1
  O  O12  1  0.55928055  0.77252386  0.84152562  1
  O  O13  1  0.44071945  0.72747614  0.34152562  1
  O  O14  1  0.44071945  0.22747614  0.15847438  1
  O  O15  1  0.55928055  0.27252386  0.65847438  1
  O  O16  1  0.64960302  0.94544496  0.78279036  1
  O  O17  1  0.35039698  0.55455504  0.28279036  1
  O  O18  1  0.35039698  0.05455504  0.21720964  1
  O  O19  1  0.64960302  0.44544496  0.71720964  1
  O  O20  1  0.53052601  0.22656555  0.89325802  1
  O  O21  1  0.46947399  0.27343445  0.39325802  1
  O  O22  1  0.46947399  0.77343445  0.10674198  1
  O  O23  1  0.53052601  0.72656555  0.60674198  1
  O  O24  1  0.22750625  0.02755161  0.90070556  1
  O  O25  1  0.77249375  0.47244839  0.40070556  1
  O  O26  1  0.77249375  0.97244839  0.09929444  1
  O  O27  1  0.22750625  0.52755161  0.59929444  1
  O  O28  1  0.33560628  0.12419347  0.76571611  1
  O  O29  1  0.66439372  0.37580653  0.26571611  1
  O  O30  1  0.66439372  0.87580653  0.23428389  1
  O  O31  1  0.33560628  0.62419347  0.73428389  1
  O  O32  1  0.31806550  0.22577717  0.94050691  1
  O  O33  1  0.68193450  0.27422283  0.44050691  1
  O  O34  1  0.68193450  0.77422283  0.05949309  1
  O  O35  1  0.31806550  0.72577717  0.55949309  1
  O  O36  1  0.41342758  0.07966506  0.02467126  1
  O  O37  1  0.58657242  0.42033494  0.52467126  1
  O  O38  1  0.58657242  0.92033494  0.97532874  1
  O  O39  1  0.41342758  0.57966506  0.47532874  1
  O  O40  1  0.19441457  0.32859453  0.78537764  1
  O  O41  1  0.80558543  0.17140547  0.28537764  1
  O  O42  1  0.80558543  0.67140547  0.21462236  1
  O  O43  1  0.19441457  0.82859453  0.71462236  1
  O  O44  1  0.81627123  0.40307936  0.76586734  1
  O  O45  1  0.18372877  0.09692064  0.26586734  1
  O  O46  1  0.18372877  0.59692064  0.23413266  1
  O  O47  1  0.81627123  0.90307936  0.73413266  1
  O  O48  1  0.70830934  0.20928762  0.71459395  1
  O  O49  1  0.29169066  0.29071238  0.21459395  1
  O  O50  1  0.29169066  0.79071238  0.28540605  1
  O  O51  1  0.70830934  0.70928762  0.78540605  1
  O  O52  1  0.05594584  0.48309764  0.67798642  1
  O  O53  1  0.94405416  0.01690236  0.17798642  1
  O  O54  1  0.94405416  0.51690236  0.32201358  1
  O  O55  1  0.05594584  0.98309764  0.82201358  1
  O  O56  1  0.15640563  0.28416828  0.59494574  1
  O  O57  1  0.84359437  0.21583172  0.09494574  1
  O  O58  1  0.84359437  0.71583172  0.40505426  1
  O  O59  1  0.15640563  0.78416828  0.90505426  1
  O  O60  1  0.36175787  0.38527372  0.98105083  1
  O  O61  1  0.63824213  0.11472628  0.48105083  1
  O  O62  1  0.63824213  0.61472628  0.01894917  1
  O  O63  1  0.36175787  0.88527372  0.51894917  1
  O  O64  1  0.59604770  0.38534729  0.93314715  1
  O  O65  1  0.40395230  0.11465271  0.43314715  1
  O  O66  1  0.40395230  0.61465271  0.06685285  1
  O  O67  1  0.59604770  0.88534729  0.56685285  1
  O  O68  1  0.19002357  0.06559478  0.66379181  1
  O  O69  1  0.80997643  0.43440522  0.16379181  1
  O  O70  1  0.80997643  0.93440522  0.33620819  1
  O  O71  1  0.19002357  0.56559478  0.83620819  1
  O  O72  1  0.97063166  0.09927006  0.96453858  1
  O  O73  1  0.02936834  0.40072994  0.46453858  1
  O  O74  1  0.02936834  0.90072994  0.03546142  1
  O  O75  1  0.97063166  0.59927006  0.53546142  1
  O  O76  1  0.05248383  0.16213270  0.99536980  1
  O  O77  1  0.94751617  0.33786730  0.49536980  1
  O  O78  1  0.94751617  0.83786730  0.00463020  1
  O  O79  1  0.05248383  0.66213270  0.50463020  1
  O  O80  1  0.93569356  0.07015617  0.65926664  1
  O  O81  1  0.06430644  0.42984383  0.15926664  1
  O  O82  1  0.06430644  0.92984383  0.34073336  1
  O  O83  1  0.93569356  0.57015617  0.84073336  1
  O  O84  1  0.89674710  0.32330959  0.92550383  1
  O  O85  1  0.10325290  0.17669041  0.42550383  1
  O  O86  1  0.10325290  0.67669041  0.07449617  1
  O  O87  1  0.89674710  0.82330959  0.57449617  1
  O  O88  1  0.15049993  0.11472617  0.45989347  1
  O  O89  1  0.84950007  0.38527383  0.95989347  1
  O  O90  1  0.84950007  0.88527383  0.54010653  1
  O  O91  1  0.15049993  0.61472617  0.04010653  1
loop_
_geom_bond_atom_site_label_1
_geom_bond_atom_site_label_2
_geom_bond_distance
_geom_bond_site_symmetry_2
K0 O4 2.795069 1_555
K0 O20 2.815171 1_555
K0 O10 2.828193 1_556
K0 O48 2.879605 1_555
K0 O16 2.986656 1_545
K0 O84 3.109206 1_555
K0 O38 3.178169 1_545
K0 O72 3.229733 1_555
K1 O5 2.795069 1_555
K1 O21 2.815171 1_555
K1 O11 2.828193 1_555
K1 O49 2.879605 1_555
K1 O17 2.986656 1_555
K1 O85 3.109206 1_555
K1 O39 3.178169 1_555
K1 O73 3.229733 1_555
K2 O6 2.795069 1_555
K2 O22 2.815171 1_555
K2 O8 2.828193 1_554
K2 O50 2.879605 1_555
K2 O18 2.986656 1_565
K2 O86 3.109206 1_555
K2 O36 3.178169 1_565
K2 O74 3.229733 1_555
K3 O7 2.795069 1_555
K3 O23 2.815171 1_555
K3 O9 2.828193 1_555
K3 O51 2.879605 1_555
K3 O19 2.986656 1_555
K3 O87 3.109206 1_555
K3 O37 3.178169 1_555
K3 O75 3.229733 1_555
K4 O61 2.807224 1_555
K4 O67 2.922393 1_545
K4 O0 3.046569 1_545
K4 O28 3.054645 1_555
K4 O63 3.074360 1_545
K4 O48 3.075019 1_555
K4 O15 3.083943 1_555
K4 O4 3.127118 1_555
K4 O16 3.204054 1_545
K5 O60 2.807224 1_554
K5 O66 2.922393 1_555
K5 O1 3.046569 1_555
K5 O29 3.054645 1_555
K5 O62 3.074360 1_555
K5 O49 3.075019 1_555
K5 O14 3.083943 1_555
K5 O5 3.127118 1_555
K5 O17 3.204054 1_555
K6 O63 2.807224 1_555
K6 O65 2.922393 1_565
K6 O2 3.046569 1_565
K6 O30 3.054645 1_555
K6 O61 3.074360 1_565
K6 O50 3.075019 1_555
K6 O13 3.083943 1_555
K6 O6 3.127118 1_555
K6 O18 3.204054 1_565
K7 O62 2.807224 1_556
K7 O64 2.922393 1_555
K7 O3 3.046569 1_555
K7 O31 3.054645 1_555
K7 O60 3.074360 1_555
K7 O51 3.075019 1_555
K7 O12 3.083943 1_555
K7 O7 3.127118 1_555
K7 O19 3.204054 1_555
K8 O59 2.723124 1_655
K8 O55 2.734550 1_655
K8 O47 2.783975 1_555
K8 O43 2.813800 1_655
K8 O51 2.979202 1_555
K8 O83 3.079356 1_555
K8 O78 3.148099 1_556
K8 O87 3.361222 1_555
K9 O58 2.723124 1_455
K9 O54 2.734550 1_455
K9 O46 2.783975 1_555
K9 O42 2.813800 1_455
K9 O50 2.979202 1_555
K9 O82 3.079356 1_555
K9 O79 3.148099 1_555
K9 O86 3.361222 1_555
K10 O57 2.723124 1_455
K10 O53 2.734550 1_455
K10 O45 2.783975 1_555
K10 O41 2.813800 1_455
K10 O49 2.979202 1_555
K10 O81 3.079356 1_555
K10 O76 3.148099 1_554
K10 O85 3.361222 1_555
K11 O56 2.723124 1_655
K11 O52 2.734550 1_655
K11 O44 2.783975 1_555
K11 O40 2.813800 1_655
K11 O48 2.979202 1_555
K11 O80 3.079356 1_555
K11 O77 3.148099 1_555
K11 O84 3.361222 1_555
K12 O61 2.618906 1_555
K12 O70 2.631023 1_545
K12 O41 2.828601 1_555
K12 O85 2.991645 1_655
K12 O90 3.041729 1_545
K12 O80 3.181012 1_555
K13 O60 2.618906 1_555
K13 O71 2.631023 1_555
K13 O40 2.828601 1_555
K13 O84 2.991645 1_455
K13 O91 3.041729 1_556
K13 O81 3.181012 1_556
K14 O63 2.618906 1_555
K14 O68 2.631023 1_565
K14 O43 2.828601 1_555
K14 O87 2.991645 1_455
K14 O88 3.041729 1_565
K14 O82 3.181012 1_555
K15 O62 2.618906 1_555
K15 O69 2.631023 1_555
K15 O42 2.828601 1_555
K15 O86 2.991645 1_655
K15 O89 3.041729 1_554
K15 O83 3.181012 1_554
C0 O60 1.249356 1_555
C0 O32 1.283053 1_555
C1 O61 1.249356 1_555
C1 O33 1.283053 1_555
C2 O62 1.249356 1_555
C2 O34 1.283053 1_555
C3 O63 1.249356 1_555
C3 O35 1.283053 1_555
C4 O56 1.231807 1_555
C4 O11 1.313163 1_555
C5 O57 1.231807 1_555
C5 O10 1.313163 1_555
C6 O58 1.231807 1_555
C6 O9 1.313163 1_555
C7 O59 1.231807 1_555
C7 O8 1.313163 1_555
C8 O44 1.234251 1_555
C8 O19 1.299912 1_555
C9 O45 1.234251 1_555
C9 O18 1.299912 1_555
C10 O46 1.234251 1_555
C10 O17 1.299912 1_555
C11 O47 1.234251 1_555
C11 O16 1.299912 1_555
C12 O48 1.247609 1_555
C12 O15 1.285956 1_555
C13 O49 1.247609 1_555
C13 O14 1.285956 1_555
C14 O50 1.247609 1_555
C14 O13 1.285956 1_555
C15 O51 1.247609 1_555
C15 O12 1.285956 1_555
C16 O40 1.245974 1_555
C16 O3 1.291832 1_555
C17 O41 1.245974 1_555
C17 O2 1.291832 1_555
C18 O42 1.245974 1_555
C18 O1 1.291832 1_555
C19 O43 1.245974 1_555
C19 O0 1.291832 1_555
C20 O55 1.229473 1_545
C20 O24 1.308218 1_555
C21 O54 1.229473 1_555
C21 O25 1.308218 1_555
C22 O53 1.229473 1_565
C22 O26 1.308218 1_555
C23 O52 1.229473 1_555
C23 O27 1.308218 1_555
C24 O67 1.232022 1_555
C24 O23 1.309894 1_555
C25 O66 1.232022 1_555
C25 O22 1.309894 1_555
C26 O65 1.232022 1_555
C26 O21 1.309894 1_555
C27 O64 1.232022 1_555
C27 O20 1.309894 1_555
C28 O68 1.241702 1_555
C28 O28 1.291061 1_555
C29 O69 1.241702 1_555
C29 O29 1.291061 1_555
C30 O70 1.241702 1_555
C30 O30 1.291061 1_555
C31 O71 1.241702 1_555
C31 O31 1.291061 1_555
O0 Ti4 2.140535 1_555
O1 Ti5 2.140535 1_555
O2 Ti6 2.140535 1_555
O3 Ti7 2.140535 1_555
O4 Ti4 1.848402 1_545
O4 Ti0 1.857069 1_555
O5 Ti5 1.848402 1_555
O5 Ti1 1.857069 1_555
O6 Ti6 1.848402 1_565
O6 Ti2 1.857069 1_555
O7 Ti7 1.848402 1_555
O7 Ti3 1.857069 1_555
O8 Ti4 2.003107 1_555
O9 Ti5 2.003107 1_555
O10 Ti6 2.003107 1_555
O11 Ti7 2.003107 1_555
O12 Ti4 2.106953 1_555
O13 Ti5 2.106953 1_555
O14 Ti6 2.106953 1_555
O15 Ti7 2.106953 1_555
O16 Ti4 2.041888 1_555
O17 Ti5 2.041888 1_555
O18 Ti6 2.041888 1_555
O19 Ti7 2.041888 1_555
O20 Ti0 2.026878 1_555
O21 Ti1 2.026878 1_555
O22 Ti2 2.026878 1_555
O23 Ti3 2.026878 1_555
O24 Ti0 2.009220 1_555
O25 Ti1 2.009220 1_555
O26 Ti2 2.009220 1_555
O27 Ti3 2.009220 1_555
O28 Ti0 2.109960 1_555
O29 Ti1 2.109960 1_555
O30 Ti2 2.109960 1_555
O31 Ti3 2.109960 1_555
O32 Ti0 2.078763 1_555
O33 Ti1 2.078763 1_555
O34 Ti2 2.078763 1_555
O35 Ti3 2.078763 1_555
O36 Ti6 1.828037 1_555
O36 Ti0 1.856434 1_554
O37 Ti7 1.828037 1_555
O37 Ti1 1.856434 1_555
O38 Ti4 1.828037 1_555
O38 Ti2 1.856434 1_556
O39 Ti5 1.828037 1_555
O39 Ti3 1.856434 1_555
O72 O76 1.230410 1_655
O73 O77 1.230410 1_455
O74 O78 1.230410 1_455
O75 O79 1.230410 1_655
O84 O89 1.233379 1_555
O85 O88 1.233379 1_555
O86 O91 1.233379 1_555
O87 O90 1.233379 1_555
