# generated using pymatgen
data_Li9Co7O16
_symmetry_space_group_name_H-M   'P 1'
_cell_length_a   5.06310500
_cell_length_b   5.82772196
_cell_length_c   10.36001693
_cell_angle_alpha   73.78899556
_cell_angle_beta   76.10547840
_cell_angle_gamma   73.26711180
_symmetry_Int_Tables_number   1
_chemical_formula_structural   Li9Co7O16
_chemical_formula_sum   'Li9 Co7 O16'
_cell_volume   276.82888595
_cell_formula_units_Z   1
loop_
 _symmetry_equiv_pos_site_id
 _symmetry_equiv_pos_as_xyz
  1  'x, y, z'
loop_
 _atom_site_type_symbol
 _atom_site_label
 _atom_site_symmetry_multiplicity
 _atom_site_fract_x
 _atom_site_fract_y
 _atom_site_fract_z
 _atom_site_occupancy
  Li  Li0  1  0.49733300  0.69170700  0.87742000  1
  Li  Li1  1  0.50187600  0.81957600  0.11810700  1
  Li  Li2  1  0.50266700  0.30829300  0.12258000  1
  Li  Li3  1  0.50259200  0.43804800  0.37309200  1
  Li  Li4  1  0.50248200  0.93676300  0.37696400  1
  Li  Li5  1  0.49751800  0.06323700  0.62303600  1
  Li  Li6  1  0.49740800  0.56195200  0.62690800  1
  Li  Li7  1  0.49812400  0.18042400  0.88189300  1
  Li  Li8  1  0.00000000  0.00000000  0.00000000  1
  Co  Co0  1  0.99550800  0.87565700  0.75994100  1
  Co  Co1  1  0.00000000  0.50000000  0.00000000  1
  Co  Co2  1  0.00449200  0.12434300  0.24005900  1
  Co  Co3  1  0.00063200  0.24852000  0.50054400  1
  Co  Co4  1  0.00337900  0.37056400  0.75493100  1
  Co  Co5  1  0.99662100  0.62943600  0.24506900  1
  Co  Co6  1  0.99936800  0.75148000  0.49945600  1
  O  O0  1  0.77889200  0.69502800  0.68557400  1
  O  O1  1  0.77131500  0.82716900  0.93173300  1
  O  O2  1  0.78559800  0.35833100  0.92499000  1
  O  O3  1  0.77823900  0.47485500  0.18103100  1
  O  O4  1  0.76740400  0.94264300  0.19722500  1
  O  O5  1  0.76828000  0.09595900  0.43571300  1
  O  O6  1  0.77646800  0.59394900  0.42628400  1
  O  O7  1  0.77902000  0.22461500  0.68973300  1
  O  O8  1  0.21440200  0.64166900  0.07501000  1
  O  O9  1  0.22098000  0.77538500  0.31026700  1
  O  O10  1  0.22110800  0.30497200  0.31442600  1
  O  O11  1  0.22353200  0.40605100  0.57371600  1
  O  O12  1  0.23172000  0.90404100  0.56428700  1
  O  O13  1  0.23259600  0.05735700  0.80277500  1
  O  O14  1  0.22176100  0.52514500  0.81896900  1
  O  O15  1  0.22868500  0.17283100  0.06826700  1
loop_
_geom_bond_atom_site_label_1
_geom_bond_atom_site_label_2
_geom_bond_distance
_geom_bond_site_symmetry_2
Li0 O1 2.029193 1_555
Li0 O2 2.079828 1_555
Li0 O0 2.148606 1_555
Li0 O14 2.183910 1_555
Li0 O8 2.196900 1_556
Li0 O13 2.206465 1_565
Li1 O1 2.076807 1_554
Li1 O4 2.099119 1_555
Li1 O3 2.122954 1_555
Li1 O15 2.127860 1_565
Li1 O9 2.148733 1_555
Li1 O8 2.198256 1_555
Li2 O15 2.029193 1_555
Li2 O8 2.079828 1_555
Li2 O10 2.148606 1_555
Li2 O3 2.183910 1_555
Li2 O2 2.196900 1_554
Li2 O4 2.206465 1_545
Li3 O10 2.077888 1_555
Li3 O5 2.087499 1_555
Li3 O6 2.103323 1_555
Li3 O9 2.106805 1_555
Li3 O3 2.133846 1_555
Li3 O11 2.208171 1_555
Li4 O4 2.014702 1_555
Li4 O12 2.085205 1_555
Li4 O6 2.085994 1_555
Li4 O5 2.114199 1_565
Li4 O10 2.227247 1_565
Li4 O9 2.236294 1_555
Li5 O13 2.014702 1_555
Li5 O5 2.085205 1_555
Li5 O11 2.085994 1_555
Li5 O12 2.114199 1_545
Li5 O0 2.227247 1_545
Li5 O7 2.236294 1_555
Li6 O0 2.077888 1_555
Li6 O12 2.087499 1_555
Li6 O11 2.103323 1_555
Li6 O7 2.106805 1_555
Li6 O14 2.133846 1_555
Li6 O6 2.208171 1_555
Li7 O15 2.076807 1_556
Li7 O13 2.099119 1_555
Li7 O14 2.122954 1_555
Li7 O1 2.127860 1_545
Li7 O7 2.148733 1_555
Li7 O2 2.198256 1_555
Li8 O1 2.077946 1_444
Li8 O15 2.077946 1_555
Li8 O8 2.082506 1_545
Li8 O2 2.082506 1_454
Li8 O13 2.088820 1_554
Li8 O4 2.088820 1_445
Co0 O1 1.862669 1_555
Co0 O13 2.002319 1_665
Co0 O7 2.034600 1_565
Co0 O14 2.037245 1_655
Co0 O12 2.080570 1_655
Co0 O0 2.104272 1_555
Co1 O3 1.931200 1_455
Co1 O14 1.931200 1_554
Co1 O2 1.934776 1_454
Co1 O8 1.934776 1_555
Co1 O15 1.960947 1_555
Co1 O1 1.960947 1_454
Co2 O15 1.862669 1_555
Co2 O4 2.002319 1_445
Co2 O9 2.034600 1_545
Co2 O3 2.037245 1_455
Co2 O5 2.080570 1_455
Co2 O10 2.104272 1_555
Co3 O10 1.973772 1_555
Co3 O5 1.985127 1_455
Co3 O7 2.000333 1_455
Co3 O11 2.021679 1_555
Co3 O12 2.028193 1_545
Co3 O6 2.042417 1_455
Co4 O2 1.834949 1_455
Co4 O13 1.864284 1_555
Co4 O7 1.927612 1_455
Co4 O11 1.928923 1_555
Co4 O14 1.932305 1_555
Co4 O0 1.944141 1_455
Co5 O8 1.834949 1_655
Co5 O4 1.864284 1_555
Co5 O9 1.927612 1_655
Co5 O6 1.928923 1_555
Co5 O3 1.932305 1_555
Co5 O10 1.944141 1_655
Co6 O0 1.973772 1_555
Co6 O12 1.985127 1_655
Co6 O9 2.000333 1_655
Co6 O6 2.021679 1_555
Co6 O5 2.028193 1_565
Co6 O11 2.042417 1_655
