# generated using pymatgen
data_Y3Pd2
_symmetry_space_group_name_H-M   'P 1'
_cell_length_a   7.49677696
_cell_length_b   7.49684048
_cell_length_c   7.49626729
_cell_angle_alpha   71.64209658
_cell_angle_beta   71.64232220
_cell_angle_gamma   71.64301601
_symmetry_Int_Tables_number   1
_chemical_formula_structural   Y3Pd2
_chemical_formula_sum   'Y9 Pd6'
_cell_volume   368.47017453
_cell_formula_units_Z   3
loop_
 _symmetry_equiv_pos_site_id
 _symmetry_equiv_pos_as_xyz
  1  'x, y, z'
loop_
 _atom_site_type_symbol
 _atom_site_label
 _atom_site_symmetry_multiplicity
 _atom_site_fract_x
 _atom_site_fract_y
 _atom_site_fract_z
 _atom_site_occupancy
  Y  Y0  1  0.00000000  -0.00000000  -0.00000000  1
  Y  Y1  1  0.79475944  0.79479021  0.79483600  1
  Y  Y2  1  0.20524056  0.20520979  0.20516400  1
  Y  Y3  1  0.34167287  0.60705714  0.82892116  1
  Y  Y4  1  0.82884743  0.34165161  0.60709902  1
  Y  Y5  1  0.60705482  0.82889673  0.34161416  1
  Y  Y6  1  0.65832713  0.39294286  0.17107884  1
  Y  Y7  1  0.17115257  0.65834839  0.39290098  1
  Y  Y8  1  0.39294518  0.17110327  0.65838584  1
  Pd  Pd0  1  0.15728640  0.95769835  0.58993861  1
  Pd  Pd1  1  0.58991865  0.15729074  0.95770805  1
  Pd  Pd2  1  0.95770925  0.58994843  0.15723282  1
  Pd  Pd3  1  0.84271360  0.04230165  0.41006139  1
  Pd  Pd4  1  0.41008135  0.84270926  0.04229195  1
  Pd  Pd5  1  0.04229075  0.41005157  0.84276718  1
loop_
_geom_bond_atom_site_label_1
_geom_bond_atom_site_label_2
_geom_bond_distance
_geom_bond_site_symmetry_2
Pd0 Y2 2.878824 1_565
Pd0 Pd3 2.881692 1_465
Pd0 Y3 2.887032 1_555
Pd0 Y8 2.968563 1_565
Pd0 Y0 3.005892 1_566
Pd0 Y7 3.012164 1_555
Pd0 Y1 3.084918 1_455
Pd0 Y4 3.151843 1_465
Pd0 Y5 3.300691 1_555
Pd1 Y2 2.878229 1_556
Pd1 Pd4 2.881648 1_546
Pd1 Y4 2.886553 1_555
Pd1 Y6 2.968114 1_556
Pd1 Y0 3.006209 1_656
Pd1 Y8 3.011693 1_555
Pd1 Y1 3.084585 1_545
Pd1 Y5 3.151253 1_546
Pd1 Y3 3.300524 1_555
Pd2 Y2 2.878863 1_655
Pd2 Pd5 2.881026 1_654
Pd2 Y5 2.886979 1_555
Pd2 Y7 2.968577 1_655
Pd2 Y0 3.005988 1_665
Pd2 Y6 3.012309 1_555
Pd2 Y1 3.084077 1_554
Pd2 Y3 3.151281 1_654
Pd2 Y4 3.301087 1_555
Pd3 Y1 2.878824 1_545
Pd3 Y6 2.887032 1_555
Pd3 Y5 2.968563 1_545
Pd3 Y0 3.005892 1_655
Pd3 Y4 3.012164 1_555
Pd3 Y2 3.084918 1_655
Pd3 Y7 3.151843 1_645
Pd3 Y8 3.300691 1_555
Pd4 Y1 2.878229 1_554
Pd4 Y7 2.886553 1_555
Pd4 Y3 2.968114 1_554
Pd4 Y0 3.006209 1_565
Pd4 Y5 3.011693 1_555
Pd4 Y2 3.084585 1_565
Pd4 Y8 3.151253 1_564
Pd4 Y6 3.300524 1_555
Pd5 Y1 2.878863 1_455
Pd5 Y8 2.886979 1_555
Pd5 Y4 2.968577 1_455
Pd5 Y0 3.005988 1_556
Pd5 Y3 3.012309 1_555
Pd5 Y2 3.084077 1_556
Pd5 Y6 3.151281 1_456
Pd5 Y7 3.301087 1_555
