# generated using pymatgen
data_K3FeS3
_symmetry_space_group_name_H-M   'P 1'
_cell_length_a   12.54520855
_cell_length_b   7.72147962
_cell_length_c   10.12179560
_cell_angle_alpha   52.50176410
_cell_angle_beta   90.00000000
_cell_angle_gamma   90.00000000
_symmetry_Int_Tables_number   1
_chemical_formula_structural   K3FeS3
_chemical_formula_sum   'K12 Fe4 S12'
_cell_volume   777.88051405
_cell_formula_units_Z   4
loop_
 _symmetry_equiv_pos_site_id
 _symmetry_equiv_pos_as_xyz
  1  'x, y, z'
loop_
 _atom_site_type_symbol
 _atom_site_label
 _atom_site_symmetry_multiplicity
 _atom_site_fract_x
 _atom_site_fract_y
 _atom_site_fract_z
 _atom_site_occupancy
  K  K0  1  0.92001423  0.64748084  0.60916336  1
  K  K1  1  0.42001423  0.35251916  0.89083664  1
  K  K2  1  0.07998577  0.35251916  0.39083664  1
  K  K3  1  0.57998577  0.64748084  0.10916336  1
  K  K4  1  0.62948422  0.61994861  0.52438366  1
  K  K5  1  0.12948422  0.38005139  0.97561634  1
  K  K6  1  0.37051578  0.38005139  0.47561634  1
  K  K7  1  0.87051578  0.61994861  0.02438366  1
  K  K8  1  0.81025469  0.13287610  0.57875127  1
  K  K9  1  0.31025469  0.86712390  0.92124873  1
  K  K10  1  0.18974531  0.86712390  0.42124873  1
  K  K11  1  0.68974531  0.13287610  0.07875127  1
  Fe  Fe0  1  0.55837883  0.93682655  0.66165834  1
  Fe  Fe1  1  0.05837883  0.06317345  0.83834166  1
  Fe  Fe2  1  0.44162117  0.06317345  0.33834166  1
  Fe  Fe3  1  0.94162117  0.93682655  0.16165834  1
  S  S0  1  0.11016653  0.85221763  0.12006664  1
  S  S1  1  0.61016653  0.14778237  0.37993336  1
  S  S2  1  0.88983347  0.14778237  0.87993336  1
  S  S3  1  0.38983347  0.85221763  0.62006664  1
  S  S4  1  0.04664315  0.87360874  0.73869287  1
  S  S5  1  0.54664315  0.12639126  0.76130713  1
  S  S6  1  0.95335685  0.12639126  0.26130713  1
  S  S7  1  0.45335685  0.87360874  0.23869287  1
  S  S8  1  0.67017744  0.65144313  0.81317374  1
  S  S9  1  0.17017744  0.34855687  0.68682626  1
  S  S10  1  0.32982256  0.34855687  0.18682626  1
  S  S11  1  0.82982256  0.65144313  0.31317374  1
loop_
_geom_bond_atom_site_label_1
_geom_bond_atom_site_label_2
_geom_bond_distance
_geom_bond_site_symmetry_2
K0 S2 3.109282 1_555
K0 S4 3.174618 1_655
K0 S11 3.185164 1_555
K0 S6 3.224097 1_565
K0 S9 3.685876 1_655
K0 S8 3.763699 1_555
K1 S3 3.109282 1_555
K1 S5 3.174618 1_555
K1 S10 3.185164 1_556
K1 S7 3.224097 1_546
K1 S8 3.685876 1_555
K1 S9 3.763699 1_555
K2 S0 3.109282 1_555
K2 S6 3.174618 1_455
K2 S9 3.185164 1_555
K2 S4 3.224097 1_545
K2 S11 3.685876 1_455
K2 S10 3.763699 1_555
K3 S1 3.109282 1_555
K3 S7 3.174618 1_555
K3 S8 3.185164 1_554
K3 S5 3.224097 1_564
K3 S10 3.685876 1_555
K3 S11 3.763699 1_555
K4 S8 3.119223 1_555
K4 S7 3.191365 1_555
K4 S5 3.198115 1_555
K4 S11 3.211400 1_555
K4 S1 3.398898 1_565
K5 S9 3.119223 1_555
K5 S6 3.191365 1_456
K5 S4 3.198115 1_555
K5 S10 3.211400 1_556
K5 S0 3.398898 1_546
K6 S10 3.119223 1_555
K6 S5 3.191365 1_555
K6 S7 3.198115 1_555
K6 S9 3.211400 1_555
K6 S3 3.398898 1_545
K7 S11 3.119223 1_555
K7 S4 3.191365 1_654
K7 S6 3.198115 1_555
K7 S8 3.211400 1_554
K7 S2 3.398898 1_564
K8 S1 3.175189 1_555
K8 S11 3.196061 1_555
K8 S2 3.275740 1_555
K8 S4 3.387810 1_645
K8 S8 3.434867 1_545
K9 S0 3.175189 1_556
K9 S10 3.196061 1_556
K9 S3 3.275740 1_555
K9 S5 3.387810 1_565
K9 S9 3.434867 1_565
K10 S3 3.175189 1_555
K10 S9 3.196061 1_555
K10 S0 3.275740 1_555
K10 S6 3.387810 1_465
K10 S10 3.434867 1_565
K11 S2 3.175189 1_554
K11 S8 3.196061 1_554
K11 S1 3.275740 1_555
K11 S7 3.387810 1_545
K11 S11 3.434867 1_545
Fe0 S5 2.231342 1_565
Fe0 S8 2.249548 1_555
Fe0 S3 2.325881 1_555
Fe0 S1 2.356218 1_565
Fe1 S4 2.231342 1_545
Fe1 S9 2.249548 1_555
Fe1 S2 2.325881 1_455
Fe1 S0 2.356218 1_546
Fe2 S7 2.231342 1_545
Fe2 S10 2.249548 1_555
Fe2 S1 2.325881 1_555
Fe2 S3 2.356218 1_545
Fe3 S6 2.231342 1_565
Fe3 S11 2.249548 1_555
Fe3 S0 2.325881 1_655
Fe3 S2 2.356218 1_564
