# generated using pymatgen
data_NaFePH2(CO3)2
_symmetry_space_group_name_H-M   'P 1'
_cell_length_a   9.81980743
_cell_length_b   10.37344121
_cell_length_c   11.18132992
_cell_angle_alpha   90.00000000
_cell_angle_beta   90.00000000
_cell_angle_gamma   90.00000000
_symmetry_Int_Tables_number   1
_chemical_formula_structural   NaFePH2(CO3)2
_chemical_formula_sum   'Na8 Fe8 P8 H16 C16 O48'
_cell_volume   1138.98835343
_cell_formula_units_Z   8
loop_
 _symmetry_equiv_pos_site_id
 _symmetry_equiv_pos_as_xyz
  1  'x, y, z'
loop_
 _atom_site_type_symbol
 _atom_site_label
 _atom_site_symmetry_multiplicity
 _atom_site_fract_x
 _atom_site_fract_y
 _atom_site_fract_z
 _atom_site_occupancy
  Na  Na0  1  0.08487776  0.62337006  0.92559392  1
  Na  Na1  1  0.41512224  0.12337006  0.07440608  1
  Na  Na2  1  0.58487776  0.37662994  0.57440608  1
  Na  Na3  1  0.91512224  0.87662994  0.42559392  1
  Na  Na4  1  0.91512224  0.37662994  0.07440608  1
  Na  Na5  1  0.58487776  0.87662994  0.92559392  1
  Na  Na6  1  0.41512224  0.62337006  0.42559392  1
  Na  Na7  1  0.08487776  0.12337006  0.57440608  1
  Fe  Fe0  1  0.91572327  0.82306564  0.10830204  1
  Fe  Fe1  1  0.58427673  0.32306564  0.89169796  1
  Fe  Fe2  1  0.41572327  0.17693436  0.39169796  1
  Fe  Fe3  1  0.08427673  0.67693436  0.60830204  1
  Fe  Fe4  1  0.08427673  0.17693436  0.89169796  1
  Fe  Fe5  1  0.41572327  0.67693436  0.10830204  1
  Fe  Fe6  1  0.58427673  0.82306564  0.60830204  1
  Fe  Fe7  1  0.91572327  0.32306564  0.39169796  1
  P  P0  1  0.22029716  0.90139462  0.95932829  1
  P  P1  1  0.27970284  0.40139462  0.04067171  1
  P  P2  1  0.72029716  0.09860538  0.54067171  1
  P  P3  1  0.77970284  0.59860538  0.45932829  1
  P  P4  1  0.77970284  0.09860538  0.04067171  1
  P  P5  1  0.72029716  0.59860538  0.95932829  1
  P  P6  1  0.27970284  0.90139462  0.45932829  1
  P  P7  1  0.22029716  0.40139462  0.54067171  1
  H  H0  1  0.31929318  0.71591049  0.75520016  1
  H  H1  1  0.18070682  0.21591049  0.24479984  1
  H  H2  1  0.81929318  0.28408951  0.74479984  1
  H  H3  1  0.68070682  0.78408951  0.25520016  1
  H  H4  1  0.68070682  0.28408951  0.24479984  1
  H  H5  1  0.81929318  0.78408951  0.75520016  1
  H  H6  1  0.18070682  0.71591049  0.25520016  1
  H  H7  1  0.31929318  0.21591049  0.74479984  1
  H  H8  1  0.27532474  0.93023586  0.74729401  1
  H  H9  1  0.22467526  0.43023586  0.25270599  1
  H  H10  1  0.77532474  0.06976414  0.75270599  1
  H  H11  1  0.72467526  0.56976414  0.24729401  1
  H  H12  1  0.72467526  0.06976414  0.25270599  1
  H  H13  1  0.77532474  0.56976414  0.74729401  1
  H  H14  1  0.22467526  0.93023586  0.24729401  1
  H  H15  1  0.27532474  0.43023586  0.75270599  1
  C  C0  1  0.94328815  0.09360301  0.24067472  1
  C  C1  1  0.55671185  0.59360301  0.75932528  1
  C  C2  1  0.44328815  0.90639699  0.25932528  1
  C  C3  1  0.05671185  0.40639699  0.74067472  1
  C  C4  1  0.05671185  0.90639699  0.75932528  1
  C  C5  1  0.44328815  0.40639699  0.24067472  1
  C  C6  1  0.55671185  0.09360301  0.74067472  1
  C  C7  1  0.94328815  0.59360301  0.25932528  1
  C  C8  1  0.20108093  0.86981083  0.79544562  1
  C  C9  1  0.29891907  0.36981083  0.20455438  1
  C  C10  1  0.70108093  0.13018917  0.70455438  1
  C  C11  1  0.79891907  0.63018917  0.29544562  1
  C  C12  1  0.79891907  0.13018917  0.20455438  1
  C  C13  1  0.70108093  0.63018917  0.79544562  1
  C  C14  1  0.29891907  0.86981083  0.29544562  1
  C  C15  1  0.20108093  0.36981083  0.70455438  1
  O  O0  1  0.21551417  0.04963007  0.97344068  1
  O  O1  1  0.28448583  0.54963007  0.02655932  1
  O  O2  1  0.71551417  0.95036993  0.52655932  1
  O  O3  1  0.78448583  0.45036993  0.47344068  1
  O  O4  1  0.78448583  0.95036993  0.02655932  1
  O  O5  1  0.71551417  0.45036993  0.97344068  1
  O  O6  1  0.28448583  0.04963007  0.47344068  1
  O  O7  1  0.21551417  0.54963007  0.52655932  1
  O  O8  1  0.35973139  0.84868561  0.99910019  1
  O  O9  1  0.14026861  0.34868561  0.00089981  1
  O  O10  1  0.85973139  0.15131439  0.50089981  1
  O  O11  1  0.64026861  0.65131439  0.49910019  1
  O  O12  1  0.64026861  0.15131439  0.00089981  1
  O  O13  1  0.85973139  0.65131439  0.99910019  1
  O  O14  1  0.14026861  0.84868561  0.49910019  1
  O  O15  1  0.35973139  0.34868561  0.50089981  1
  O  O16  1  0.10065578  0.82851077  0.01470266  1
  O  O17  1  0.39934422  0.32851077  0.98529734  1
  O  O18  1  0.60065578  0.17148923  0.48529734  1
  O  O19  1  0.89934422  0.67148923  0.51470266  1
  O  O20  1  0.89934422  0.17148923  0.98529734  1
  O  O21  1  0.60065578  0.67148923  0.01470266  1
  O  O22  1  0.39934422  0.82851077  0.51470266  1
  O  O23  1  0.10065578  0.32851077  0.48529734  1
  O  O24  1  0.22017894  0.73533106  0.76824172  1
  O  O25  1  0.27982106  0.23533106  0.23175828  1
  O  O26  1  0.72017894  0.26466894  0.73175828  1
  O  O27  1  0.77982106  0.76466894  0.26824172  1
  O  O28  1  0.77982106  0.26466894  0.23175828  1
  O  O29  1  0.72017894  0.76466894  0.76824172  1
  O  O30  1  0.27982106  0.73533106  0.26824172  1
  O  O31  1  0.22017894  0.23533106  0.73175828  1
  O  O32  1  0.98064089  0.97706646  0.23242413  1
  O  O33  1  0.51935911  0.47706646  0.76757587  1
  O  O34  1  0.48064089  0.02293354  0.26757587  1
  O  O35  1  0.01935911  0.52293354  0.73242413  1
  O  O36  1  0.01935911  0.02293354  0.76757587  1
  O  O37  1  0.48064089  0.52293354  0.23242413  1
  O  O38  1  0.51935911  0.97706646  0.73242413  1
  O  O39  1  0.98064089  0.47706646  0.26757587  1
  O  O40  1  0.02043220  0.68468065  0.22227313  1
  O  O41  1  0.47956780  0.18468065  0.77772687  1
  O  O42  1  0.52043220  0.31531935  0.27772687  1
  O  O43  1  0.97956780  0.81531935  0.72227313  1
  O  O44  1  0.97956780  0.31531935  0.77772687  1
  O  O45  1  0.52043220  0.81531935  0.22227313  1
  O  O46  1  0.47956780  0.68468065  0.72227313  1
  O  O47  1  0.02043220  0.18468065  0.27772687  1
loop_
_geom_bond_atom_site_label_1
_geom_bond_atom_site_label_2
_geom_bond_distance
_geom_bond_site_symmetry_2
Na0 O16 2.354820 1_556
Na0 O13 2.376468 1_455
Na0 O1 2.387813 1_556
Na0 O35 2.482858 1_555
Na0 O24 2.491921 1_555
Na1 O17 2.354820 1_554
Na1 O12 2.376468 1_555
Na1 O0 2.387813 1_554
Na1 O34 2.482858 1_555
Na1 O25 2.491921 1_555
Na2 O18 2.354820 1_555
Na2 O15 2.376468 1_555
Na2 O3 2.387813 1_555
Na2 O33 2.482858 1_555
Na2 O26 2.491921 1_555
Na3 O19 2.354820 1_555
Na3 O14 2.376468 1_655
Na3 O2 2.387813 1_555
Na3 O32 2.482858 1_555
Na3 O27 2.491921 1_555
Na4 O20 2.354820 1_554
Na4 O9 2.376468 1_655
Na4 O5 2.387813 1_554
Na4 O39 2.482858 1_555
Na4 O28 2.491921 1_555
Na5 O21 2.354820 1_556
Na5 O8 2.376468 1_555
Na5 O4 2.387813 1_556
Na5 O38 2.482858 1_555
Na5 O29 2.491921 1_555
Na6 O22 2.354820 1_555
Na6 O11 2.376468 1_555
Na6 O7 2.387813 1_555
Na6 O37 2.482858 1_555
Na6 O30 2.491921 1_555
Na7 O23 2.354820 1_555
Na7 O10 2.376468 1_455
Na7 O6 2.387813 1_555
Na7 O36 2.482858 1_555
Na7 O31 2.491921 1_555
Fe0 O4 2.059160 1_555
Fe0 O16 2.096748 1_655
Fe0 O40 2.177601 1_655
Fe0 O32 2.210107 1_555
Fe0 O13 2.228786 1_554
Fe0 O27 2.312163 1_555
Fe1 O5 2.059160 1_555
Fe1 O17 2.096748 1_555
Fe1 O41 2.177601 1_555
Fe1 O33 2.210107 1_555
Fe1 O12 2.228786 1_556
Fe1 O26 2.312163 1_555
Fe2 O6 2.059160 1_555
Fe2 O18 2.096748 1_555
Fe2 O42 2.177601 1_555
Fe2 O34 2.210107 1_555
Fe2 O15 2.228786 1_555
Fe2 O25 2.312163 1_555
Fe3 O7 2.059160 1_555
Fe3 O19 2.096748 1_455
Fe3 O43 2.177601 1_455
Fe3 O35 2.210107 1_555
Fe3 O14 2.228786 1_555
Fe3 O24 2.312163 1_555
Fe4 O0 2.059160 1_555
Fe4 O20 2.096748 1_455
Fe4 O44 2.177601 1_455
Fe4 O36 2.210107 1_555
Fe4 O9 2.228786 1_556
Fe4 O31 2.312163 1_555
Fe5 O1 2.059160 1_555
Fe5 O21 2.096748 1_555
Fe5 O45 2.177601 1_555
Fe5 O37 2.210107 1_555
Fe5 O8 2.228786 1_554
Fe5 O30 2.312163 1_555
Fe6 O2 2.059160 1_555
Fe6 O22 2.096748 1_555
Fe6 O46 2.177601 1_555
Fe6 O38 2.210107 1_555
Fe6 O11 2.228786 1_555
Fe6 O29 2.312163 1_555
Fe7 O3 2.059160 1_555
Fe7 O23 2.096748 1_655
Fe7 O47 2.177601 1_655
Fe7 O39 2.210107 1_555
Fe7 O10 2.228786 1_555
Fe7 O28 2.312163 1_555
H0 O24 1.004554 1_555
H0 O46 1.648500 1_555
H1 O25 1.004554 1_555
H1 O47 1.648500 1_555
H2 O26 1.004554 1_555
H2 O44 1.648500 1_555
H3 O27 1.004554 1_555
H3 O45 1.648500 1_555
H4 O28 1.004554 1_555
H4 O42 1.648500 1_555
H5 O29 1.004554 1_555
H5 O43 1.648500 1_555
H6 O30 1.004554 1_555
H6 O40 1.648500 1_555
H7 O31 1.004554 1_555
H7 O41 1.648500 1_555
C0 O32 1.266670 1_545
C0 O47 1.279895 1_655
C0 C12 1.522156 1_555
C1 O33 1.266670 1_555
C1 O46 1.279895 1_555
C1 C13 1.522156 1_555
C2 O34 1.266670 1_565
C2 O45 1.279895 1_555
C3 O35 1.266670 1_555
C3 O44 1.279895 1_455
C4 O36 1.266670 1_565
C4 O43 1.279895 1_455
C4 C8 1.522156 1_555
C5 O37 1.266670 1_555
C5 O42 1.279895 1_555
C5 C9 1.522156 1_555
C6 O38 1.266670 1_545
C6 O41 1.279895 1_555
C7 O39 1.266670 1_555
C7 O40 1.279895 1_655
C8 H8 1.101953 1_555
C8 O24 1.440059 1_555
C8 P0 1.871026 1_555
C9 H9 1.101953 1_555
C9 O25 1.440059 1_555
C9 P1 1.871026 1_555
C10 H10 1.101953 1_555
C10 O26 1.440059 1_555
C10 C6 1.522156 1_555
C10 P2 1.871026 1_555
C11 H11 1.101953 1_555
C11 O27 1.440059 1_555
C11 C7 1.522156 1_555
C11 P3 1.871026 1_555
C12 H12 1.101953 1_555
C12 O28 1.440059 1_555
C12 P4 1.871026 1_555
C13 H13 1.101953 1_555
C13 O29 1.440059 1_555
C13 P5 1.871026 1_555
C14 H14 1.101953 1_555
C14 O30 1.440059 1_555
C14 C2 1.522156 1_555
C14 P6 1.871026 1_555
C15 H15 1.101953 1_555
C15 O31 1.440059 1_555
C15 C3 1.522156 1_555
C15 P7 1.871026 1_555
O0 P0 1.546500 1_545
O1 P1 1.546500 1_555
O2 P2 1.546500 1_565
O3 P3 1.546500 1_555
O4 P4 1.546500 1_565
O5 P5 1.546500 1_555
O6 P6 1.546500 1_545
O7 P7 1.546500 1_555
O8 P0 1.539960 1_555
O9 P1 1.539960 1_555
O10 P2 1.539960 1_555
O11 P3 1.539960 1_555
O12 P4 1.539960 1_555
O13 P5 1.539960 1_555
O14 P6 1.539960 1_555
O15 P7 1.539960 1_555
O16 P0 1.528157 1_554
O17 P1 1.528157 1_556
O18 P2 1.528157 1_555
O19 P3 1.528157 1_555
O20 P4 1.528157 1_556
O21 P5 1.528157 1_554
O22 P6 1.528157 1_555
O23 P7 1.528157 1_555
