# generated using pymatgen
data_Ba3Sr5Co4(CuO6)4
_symmetry_space_group_name_H-M   'P 1'
_cell_length_a   7.93189022
_cell_length_b   7.93189022
_cell_length_c   7.82285377
_cell_angle_alpha   89.98205883
_cell_angle_beta   89.98205883
_cell_angle_gamma   89.95887227
_symmetry_Int_Tables_number   1
_chemical_formula_structural   Ba3Sr5Co4(CuO6)4
_chemical_formula_sum   'Ba3 Sr5 Co4 Cu4 O24'
_cell_volume   492.17375005
_cell_formula_units_Z   1
loop_
 _symmetry_equiv_pos_site_id
 _symmetry_equiv_pos_as_xyz
  1  'x, y, z'
loop_
 _atom_site_type_symbol
 _atom_site_label
 _atom_site_symmetry_multiplicity
 _atom_site_fract_x
 _atom_site_fract_y
 _atom_site_fract_z
 _atom_site_occupancy
  Ba  Ba0  1  0.75200900  0.24815300  0.75149900  1
  Ba  Ba1  1  0.24817000  0.24817000  0.75156200  1
  Ba  Ba2  1  0.24815300  0.75200900  0.75149900  1
  Sr  Sr0  1  0.75378000  0.24557700  0.24818400  1
  Sr  Sr1  1  0.24676800  0.24676800  0.24835600  1
  Sr  Sr2  1  0.75324600  0.75324600  0.24873300  1
  Sr  Sr3  1  0.24557700  0.75378000  0.24818400  1
  Sr  Sr4  1  0.75321100  0.75321100  0.75211300  1
  Co  Co0  1  0.50144600  0.99824200  0.49646300  1
  Co  Co1  1  0.50267600  0.50267600  0.00244400  1
  Co  Co2  1  0.99824200  0.50144600  0.49646300  1
  Co  Co3  1  0.50089300  0.50089300  0.49375600  1
  Cu  Cu0  1  0.99977200  0.99977200  0.00080300  1
  Cu  Cu1  1  0.50064700  0.99999200  0.00151600  1
  Cu  Cu2  1  0.99984900  0.99984900  0.49823600  1
  Cu  Cu3  1  0.99999200  0.50064700  0.00151600  1
  O  O0  1  0.99892200  0.25165700  0.01413200  1
  O  O1  1  0.50146000  0.25008800  0.01023500  1
  O  O2  1  0.99927200  0.25134400  0.48792100  1
  O  O3  1  0.50028100  0.26278000  0.49101400  1
  O  O4  1  0.99385000  0.74841700  0.00983300  1
  O  O5  1  0.50419500  0.75087800  0.00654600  1
  O  O6  1  0.99467500  0.74896700  0.49266500  1
  O  O7  1  0.50449300  0.73837000  0.49377800  1
  O  O8  1  0.99724700  0.99724700  0.24979600  1
  O  O9  1  0.50051100  0.99936300  0.26062800  1
  O  O10  1  0.99268900  0.99268900  0.74938600  1
  O  O11  1  0.50557800  0.99555500  0.73623500  1
  O  O12  1  0.99936300  0.50051100  0.26062800  1
  O  O13  1  0.50166900  0.50166900  0.23471400  1
  O  O14  1  0.99555500  0.50557800  0.73623500  1
  O  O15  1  0.50331100  0.50331100  0.76880000  1
  O  O16  1  0.74841700  0.99385000  0.00983300  1
  O  O17  1  0.25165700  0.99892200  0.01413200  1
  O  O18  1  0.74896700  0.99467500  0.49266500  1
  O  O19  1  0.25134400  0.99927200  0.48792100  1
  O  O20  1  0.75087800  0.50419500  0.00654600  1
  O  O21  1  0.25008800  0.50146000  0.01023500  1
  O  O22  1  0.73837000  0.50449300  0.49377800  1
  O  O23  1  0.26278000  0.50028100  0.49101400  1
loop_
_geom_bond_atom_site_label_1
_geom_bond_atom_site_label_2
_geom_bond_distance
_geom_bond_site_symmetry_2
Ba0 O10 2.783006 1_545
Ba0 O11 2.802716 1_545
Ba0 O14 2.814359 1_555
Ba0 O15 2.828433 1_555
Ba0 O1 2.836187 1_556
Ba0 O0 2.839051 1_556
Ba0 O2 2.845393 1_555
Ba0 O20 2.847442 1_556
Ba0 O18 2.854029 1_545
Ba0 O16 2.855011 1_546
Ba0 O3 2.855630 1_555
Ba0 O22 2.864929 1_555
Ba1 O17 2.850587 1_546
Ba1 O0 2.850587 1_456
Ba1 O21 2.852016 1_556
Ba1 O1 2.852016 1_556
Ba1 O19 2.855568 1_545
Ba1 O2 2.855568 1_455
Ba1 O3 2.857325 1_555
Ba1 O23 2.857325 1_555
Ba1 O14 2.862174 1_455
Ba1 O11 2.862174 1_545
Ba1 O15 2.866276 1_555
Ba1 O10 2.866916 1_445
Ba2 O10 2.783006 1_455
Ba2 O14 2.802716 1_455
Ba2 O11 2.814359 1_555
Ba2 O15 2.828433 1_555
Ba2 O21 2.836187 1_556
Ba2 O17 2.839051 1_556
Ba2 O19 2.845393 1_555
Ba2 O5 2.847442 1_556
Ba2 O6 2.854029 1_455
Ba2 O4 2.855011 1_456
Ba2 O23 2.855630 1_555
Ba2 O7 2.864929 1_555
Co0 O9 1.844939 1_555
Co0 O11 1.876112 1_555
Co0 O18 1.963709 1_555
Co0 O19 1.984939 1_555
Co0 O7 2.061514 1_555
Co0 O3 2.098720 1_565
Co1 O13 1.817044 1_555
Co1 O15 1.827774 1_554
Co1 O5 1.969028 1_555
Co1 O20 1.969028 1_555
Co1 O1 2.004438 1_555
Co1 O21 2.004438 1_555
Co2 O12 1.844939 1_555
Co2 O14 1.876112 1_555
Co2 O6 1.963709 1_555
Co2 O2 1.984939 1_555
Co2 O22 2.061514 1_555
Co2 O23 2.098720 1_655
Co3 O7 1.883878 1_555
Co3 O22 1.883878 1_555
Co3 O23 1.888824 1_555
Co3 O3 1.888824 1_555
Co3 O13 2.026463 1_555
Co3 O15 2.151812 1_555
Cu0 O8 1.948029 1_555
Cu0 O10 1.968439 1_554
Cu0 O16 1.995535 1_555
Cu0 O4 1.995535 1_555
Cu0 O0 2.000682 1_565
Cu0 O17 2.000682 1_655
Cu1 O16 1.966949 1_555
Cu1 O5 1.976505 1_555
Cu1 O17 1.977419 1_555
Cu1 O1 1.984943 1_565
Cu1 O9 2.027000 1_555
Cu1 O11 2.075920 1_554
Cu2 O8 1.943742 1_555
Cu2 O10 1.966316 1_555
Cu2 O6 1.990912 1_555
Cu2 O18 1.990912 1_555
Cu2 O19 1.996439 1_655
Cu2 O2 1.996439 1_565
Cu3 O4 1.966949 1_555
Cu3 O20 1.976505 1_555
Cu3 O0 1.977419 1_555
Cu3 O21 1.984943 1_655
Cu3 O12 2.027000 1_555
Cu3 O14 2.075920 1_554
O0 Sr0 2.670845 1_555
O0 Sr1 2.688055 1_655
O1 Sr0 2.733849 1_555
O1 Sr1 2.747638 1_555
O2 Sr0 2.704337 1_555
O2 Sr1 2.713843 1_655
O3 Sr1 2.768748 1_555
O3 Sr0 2.769041 1_555
O4 Sr2 2.670963 1_555
O4 Sr3 2.732706 1_655
O4 Sr4 2.776978 1_554
O5 Sr2 2.737634 1_555
O5 Sr3 2.789129 1_555
O5 Sr4 2.803722 1_554
O6 Sr2 2.704049 1_555
O6 Sr3 2.759991 1_655
O6 Sr4 2.790388 1_555
O7 Sr2 2.753089 1_555
O7 Sr3 2.815270 1_555
O7 Sr4 2.827171 1_555
O8 Sr2 2.738052 1_555
O8 Sr0 2.757512 1_565
O8 Sr3 2.757512 1_655
O8 Sr1 2.799996 1_665
O9 Sr2 2.798697 1_555
O9 Sr0 2.804378 1_565
O9 Sr3 2.810473 1_555
O9 Sr1 2.811641 1_565
O10 Sr4 2.687357 1_555
O11 Sr4 2.750112 1_555
O12 Sr2 2.798697 1_555
O12 Sr3 2.804378 1_655
O12 Sr0 2.810473 1_555
O12 Sr1 2.811641 1_655
O13 Sr2 2.825227 1_555
O13 Sr0 2.851367 1_555
O13 Sr3 2.851367 1_555
O13 Sr1 2.862292 1_555
O14 Sr4 2.750112 1_555
O15 Sr4 2.807210 1_555
O16 Sr2 2.670963 1_555
O16 Sr0 2.732706 1_565
O16 Sr4 2.776978 1_554
O17 Sr3 2.670845 1_555
O17 Sr1 2.688055 1_565
O18 Sr2 2.704049 1_555
O18 Sr0 2.759991 1_565
O18 Sr4 2.790388 1_555
O19 Sr3 2.704337 1_555
O19 Sr1 2.713843 1_565
O20 Sr2 2.737634 1_555
O20 Sr0 2.789129 1_555
O20 Sr4 2.803722 1_554
O21 Sr3 2.733849 1_555
O21 Sr1 2.747638 1_555
O22 Sr2 2.753089 1_555
O22 Sr0 2.815270 1_555
O22 Sr4 2.827171 1_555
O23 Sr1 2.768748 1_555
O23 Sr3 2.769041 1_555
