# generated using pymatgen
data_Cs2AgAu
_symmetry_space_group_name_H-M   'P 1'
_cell_length_a   13.82372472
_cell_length_b   13.82372472
_cell_length_c   13.82372472
_cell_angle_alpha   120.61360085
_cell_angle_beta   119.78756635
_cell_angle_gamma   89.65442636
_symmetry_Int_Tables_number   1
_chemical_formula_structural   Cs2AgAu
_chemical_formula_sum   'Cs2 Ag1 Au1'
_cell_volume   1862.10663817
_cell_formula_units_Z   1
loop_
 _symmetry_equiv_pos_site_id
 _symmetry_equiv_pos_as_xyz
  1  'x, y, z'
loop_
 _atom_site_type_symbol
 _atom_site_label
 _atom_site_symmetry_multiplicity
 _atom_site_fract_x
 _atom_site_fract_y
 _atom_site_fract_z
 _atom_site_occupancy
  Cs  Cs0  1  0.00000000  0.25524200  0.25524200  1
  Cs  Cs1  1  0.00000000  0.74475800  0.74475800  1
  Ag  Ag0  1  0.00000000  0.00000000  0.00000000  1
  Au  Au0  1  0.00000000  0.50000000  0.50000000  1
loop_
_geom_bond_atom_site_label_1
_geom_bond_atom_site_label_2
_geom_bond_distance
_geom_bond_site_symmetry_2
Ag0 Cs1 3.495620 1_544
Ag0 Cs0 3.495620 1_555
Au0 Cs0 3.352039 1_555
Au0 Cs1 3.352039 1_555
