# generated using pymatgen
data_Nb3TlCuCl9
_symmetry_space_group_name_H-M   'P 1'
_cell_length_a   9.37858242
_cell_length_b   9.40366484
_cell_length_c   9.38646769
_cell_angle_alpha   119.46482525
_cell_angle_beta   96.11559630
_cell_angle_gamma   105.21942001
_symmetry_Int_Tables_number   1
_chemical_formula_structural   Nb3TlCuCl9
_chemical_formula_sum   'Nb6 Tl2 Cu2 Cl18'
_cell_volume   667.54794039
_cell_formula_units_Z   2
loop_
 _symmetry_equiv_pos_site_id
 _symmetry_equiv_pos_as_xyz
  1  'x, y, z'
loop_
 _atom_site_type_symbol
 _atom_site_label
 _atom_site_symmetry_multiplicity
 _atom_site_fract_x
 _atom_site_fract_y
 _atom_site_fract_z
 _atom_site_occupancy
  Nb  Nb0  1  0.85828100  0.97964700  0.79942200  1
  Nb  Nb1  1  0.14171900  0.02035300  0.20057800  1
  Nb  Nb2  1  0.13344900  0.89320000  0.84309100  1
  Nb  Nb3  1  0.86655100  0.10680000  0.15690900  1
  Nb  Nb4  1  0.86026300  0.75037100  0.92656400  1
  Nb  Nb5  1  0.13973700  0.24962900  0.07343600  1
  Tl  Tl0  1  0.33974400  0.48170400  0.76699800  1
  Tl  Tl1  1  0.66025600  0.51829600  0.23300200  1
  Cu  Cu0  1  0.37975600  0.80998100  0.44988700  1
  Cu  Cu1  1  0.62024400  0.19001900  0.55011300  1
  Cl  Cl0  1  0.66875300  0.67935800  0.67467900  1
  Cl  Cl1  1  0.33124700  0.32064200  0.32532100  1
  Cl  Cl2  1  0.66981100  0.42744800  0.82832800  1
  Cl  Cl3  1  0.33018900  0.57255200  0.17167200  1
  Cl  Cl4  1  0.67747300  0.82963400  0.09866800  1
  Cl  Cl5  1  0.32252700  0.17036600  0.90133200  1
  Cl  Cl6  1  0.99357300  0.58099100  0.73285300  1
  Cl  Cl7  1  0.00642700  0.41900900  0.26714700  1
  Cl  Cl8  1  0.98932800  0.84941700  0.57835300  1
  Cl  Cl9  1  0.01067200  0.15058300  0.42164700  1
  Cl  Cl10  1  0.66802400  0.94784900  0.53797300  1
  Cl  Cl11  1  0.33197600  0.05215100  0.46202700  1
  Cl  Cl12  1  0.30421400  0.75392900  0.64704000  1
  Cl  Cl13  1  0.69578600  0.24607100  0.35296000  1
  Cl  Cl14  1  0.67671300  0.10015100  0.94730400  1
  Cl  Cl15  1  0.32328700  0.89984900  0.05269600  1
  Cl  Cl16  1  0.99915000  0.26967500  0.84909700  1
  Cl  Cl17  1  0.00085000  0.73032500  0.15090300  1
loop_
_geom_bond_atom_site_label_1
_geom_bond_atom_site_label_2
_geom_bond_distance
_geom_bond_site_symmetry_2
Cl0 Nb0 2.484537 1_555
Cl0 Nb4 2.484770 1_555
Cl1 Nb1 2.484537 1_555
Cl1 Nb5 2.484770 1_555
Cl2 Cu1 2.341184 1_555
Cl2 Nb4 2.703443 1_555
Cl3 Cu0 2.341184 1_555
Cl3 Nb5 2.703443 1_555
Cl4 Nb4 2.486059 1_554
Cl4 Nb3 2.490318 1_565
Cl5 Nb5 2.486059 1_556
Cl5 Nb2 2.490318 1_545
Cl6 Nb4 2.467185 1_555
Cl6 Nb2 2.472081 1_655
Cl7 Nb5 2.467185 1_555
Cl7 Nb3 2.472081 1_455
Cl8 Nb0 2.479877 1_555
Cl8 Nb2 2.481355 1_655
Cl9 Nb1 2.479877 1_555
Cl9 Nb3 2.481355 1_455
Cl10 Cu1 2.385621 1_565
Cl10 Cu0 2.510479 1_555
Cl10 Nb0 2.713070 1_555
Cl11 Cu0 2.385621 1_545
Cl11 Cu1 2.510479 1_555
Cl11 Nb1 2.713070 1_555
Cl12 Cu0 2.290691 1_555
Cl12 Nb2 2.650427 1_555
Cl13 Cu1 2.290691 1_555
Cl13 Nb3 2.650427 1_555
Cl14 Nb0 2.465746 1_545
Cl14 Nb3 2.473624 1_556
Cl15 Nb1 2.465746 1_565
Cl15 Nb2 2.473624 1_554
Cl16 Nb0 2.475288 1_545
Cl16 Nb5 2.477419 1_656
Cl17 Nb1 2.475288 1_565
Cl17 Nb4 2.477419 1_454
