# generated using pymatgen
data_Te4MoW3(SeS)2
_symmetry_space_group_name_H-M   'P 1'
_cell_length_a   3.39592138
_cell_length_b   3.39592138
_cell_length_c   38.85683400
_cell_angle_alpha   90.00000000
_cell_angle_beta   90.00000000
_cell_angle_gamma   119.99998783
_symmetry_Int_Tables_number   1
_chemical_formula_structural   Te4MoW3(SeS)2
_chemical_formula_sum   'Te4 Mo1 W3 Se2 S2'
_cell_volume   388.07293050
_cell_formula_units_Z   1
loop_
 _symmetry_equiv_pos_site_id
 _symmetry_equiv_pos_as_xyz
  1  'x, y, z'
loop_
 _atom_site_type_symbol
 _atom_site_label
 _atom_site_symmetry_multiplicity
 _atom_site_fract_x
 _atom_site_fract_y
 _atom_site_fract_z
 _atom_site_occupancy
  Te  Te0  1  0.00000000  0.00000000  0.33044500  1
  Te  Te1  1  0.33333300  0.66666700  0.04555000  1
  Te  Te2  1  0.33333300  0.66666700  0.14200500  1
  Te  Te3  1  0.00000000  0.00000000  0.23344700  1
  Mo  Mo0  1  0.00000000  0.00000000  0.09375800  1
  W  W0  1  0.00000000  0.00000000  0.46966100  1
  W  W1  1  0.33333300  0.66666700  0.28194600  1
  W  W2  1  0.33333300  0.66666700  0.65753700  1
  Se  Se0  1  0.00000000  0.00000000  0.70018600  1
  Se  Se1  1  0.00000000  0.00000000  0.61489000  1
  S  S0  1  0.33333300  0.66666700  0.43085400  1
  S  S1  1  0.33333300  0.66666700  0.50846900  1
loop_
_geom_bond_atom_site_label_1
_geom_bond_atom_site_label_2
_geom_bond_distance
_geom_bond_site_symmetry_2
Te0 W1 2.719465 1_545
Te0 W1 2.719468 1_555
Te0 W1 2.719468 1_445
Te3 W1 2.719465 1_545
Te3 W1 2.719468 1_555
Te3 W1 2.719468 1_445
Mo0 Te1 2.711642 1_545
Mo0 Te1 2.711644 1_445
Mo0 Te1 2.711644 1_555
Mo0 Te2 2.712689 1_545
Mo0 Te2 2.712691 1_445
Mo0 Te2 2.712691 1_555
Se0 W2 2.567180 1_545
Se0 W2 2.567183 1_555
Se0 W2 2.567183 1_445
Se1 W2 2.567130 1_545
Se1 W2 2.567133 1_445
Se1 W2 2.567133 1_555
S0 W0 2.473439 1_565
S0 W0 2.473442 1_555
S0 W0 2.473442 1_665
S1 W0 2.473463 1_565
S1 W0 2.473465 1_555
S1 W0 2.473465 1_665
