# generated using pymatgen
data_Fe3Pb3N5
_symmetry_space_group_name_H-M   'P 1'
_cell_length_a   5.66034180
_cell_length_b   7.51218945
_cell_length_c   8.25520944
_cell_angle_alpha   105.72167285
_cell_angle_beta   101.36769374
_cell_angle_gamma   95.41530488
_symmetry_Int_Tables_number   1
_chemical_formula_structural   Fe3Pb3N5
_chemical_formula_sum   'Fe6 Pb6 N10'
_cell_volume   327.17670810
_cell_formula_units_Z   2
loop_
 _symmetry_equiv_pos_site_id
 _symmetry_equiv_pos_as_xyz
  1  'x, y, z'
loop_
 _atom_site_type_symbol
 _atom_site_label
 _atom_site_symmetry_multiplicity
 _atom_site_fract_x
 _atom_site_fract_y
 _atom_site_fract_z
 _atom_site_occupancy
  Fe  Fe0  1  0.92485200  0.32311700  0.98038800  1
  Fe  Fe1  1  0.07514800  0.67688300  0.01961200  1
  Fe  Fe2  1  0.68274700  0.98595400  0.59275900  1
  Fe  Fe3  1  0.31725300  0.01404600  0.40724100  1
  Fe  Fe4  1  0.10056500  0.93591100  0.73068000  1
  Fe  Fe5  1  0.89943500  0.06408900  0.26932000  1
  Pb  Pb0  1  0.76808400  0.45669100  0.57716400  1
  Pb  Pb1  1  0.23191600  0.54330900  0.42283600  1
  Pb  Pb2  1  0.61409000  0.82588500  0.87617600  1
  Pb  Pb3  1  0.38591000  0.17411500  0.12382400  1
  Pb  Pb4  1  0.67454900  0.65386800  0.22967100  1
  Pb  Pb5  1  0.32545100  0.34613200  0.77032900  1
  N  N0  1  0.93092200  0.14962300  0.77919000  1
  N  N1  1  0.06907800  0.85037700  0.22081000  1
  N  N2  1  0.82990300  0.78630000  0.58943600  1
  N  N3  1  0.17009700  0.21370000  0.41056400  1
  N  N4  1  0.77223800  0.52184900  0.92712300  1
  N  N5  1  0.22776200  0.47815100  0.07287700  1
  N  N6  1  0.35447000  0.96579100  0.61691500  1
  N  N7  1  0.64553000  0.03420900  0.38308500  1
  N  N8  1  0.15677900  0.80729900  0.88768000  1
  N  N9  1  0.84322100  0.19270100  0.11232000  1
loop_
_geom_bond_atom_site_label_1
_geom_bond_atom_site_label_2
_geom_bond_distance
_geom_bond_site_symmetry_2
Fe0 N9 1.746631 1_556
Fe0 N0 1.821081 1_555
Fe0 N5 1.871965 1_656
Fe0 N4 1.902052 1_555
Fe1 N8 1.746631 1_554
Fe1 N1 1.821081 1_555
Fe1 N4 1.871965 1_454
Fe1 N5 1.902052 1_555
Fe2 N2 1.779492 1_555
Fe2 N7 1.839162 1_565
Fe2 N6 1.903886 1_555
Fe2 N0 1.910475 1_565
Fe3 N3 1.779492 1_555
Fe3 N6 1.839162 1_545
Fe3 N7 1.903886 1_555
Fe3 N1 1.910475 1_545
Fe4 N2 1.797354 1_455
Fe4 N8 1.813439 1_555
Fe4 N6 1.892971 1_555
Fe4 N0 1.937531 1_465
Fe5 N3 1.797354 1_655
Fe5 N9 1.813439 1_555
Fe5 N7 1.892971 1_555
Fe5 N1 1.937531 1_645
N0 Pb5 2.583076 1_655
N1 Pb4 2.583076 1_455
N2 Pb0 2.439314 1_555
N2 Pb4 2.790637 1_555
N3 Pb1 2.439314 1_555
N3 Pb5 2.790637 1_555
N4 Pb4 2.613981 1_556
N4 Pb2 2.636821 1_555
N4 Pb5 2.639521 1_555
N4 Pb0 2.791251 1_555
N5 Pb5 2.613981 1_554
N5 Pb3 2.636821 1_555
N5 Pb4 2.639521 1_555
N5 Pb1 2.791251 1_555
N6 Pb5 2.829146 1_565
N7 Pb4 2.829146 1_545
N8 Pb2 2.600944 1_555
N9 Pb3 2.600944 1_555
