# generated using pymatgen
data_Zn(SbO2)2
_symmetry_space_group_name_H-M   'P 1'
_cell_length_a   5.65942559
_cell_length_b   5.65942559
_cell_length_c   11.11763100
_cell_angle_alpha   90.00000000
_cell_angle_beta   90.00000000
_cell_angle_gamma   147.10210481
_symmetry_Int_Tables_number   1
_chemical_formula_structural   Zn(SbO2)2
_chemical_formula_sum   'Zn2 Sb4 O8'
_cell_volume   193.40675317
_cell_formula_units_Z   2
loop_
 _symmetry_equiv_pos_site_id
 _symmetry_equiv_pos_as_xyz
  1  'x, y, z'
loop_
 _atom_site_type_symbol
 _atom_site_label
 _atom_site_symmetry_multiplicity
 _atom_site_fract_x
 _atom_site_fract_y
 _atom_site_fract_z
 _atom_site_occupancy
  Zn  Zn0  1  0.61551000  0.38449000  0.75000000  1
  Zn  Zn1  1  0.38449000  0.61551000  0.25000000  1
  Sb  Sb0  1  0.13122700  0.86877300  0.08114300  1
  Sb  Sb1  1  0.86877300  0.13122700  0.91885700  1
  Sb  Sb2  1  0.13122700  0.86877300  0.41885700  1
  Sb  Sb3  1  0.86877300  0.13122700  0.58114300  1
  O  O0  1  0.77867300  0.22132700  0.37460500  1
  O  O1  1  0.22132700  0.77867300  0.62539500  1
  O  O2  1  0.22132700  0.77867300  0.87460500  1
  O  O3  1  0.77867300  0.22132700  0.12539500  1
  O  O4  1  0.01249800  0.98750200  0.25000000  1
  O  O5  1  0.98750200  0.01249800  0.75000000  1
  O  O6  1  0.50000000  0.50000000  0.00000000  1
  O  O7  1  0.50000000  0.50000000  0.50000000  1
loop_
_geom_bond_atom_site_label_1
_geom_bond_atom_site_label_2
_geom_bond_distance
_geom_bond_site_symmetry_2
O0 Sb2 2.317780 1_655
O0 Sb2 2.317780 1_545
O0 Zn1 2.409712 1_545
O0 Zn1 2.409712 1_655
O0 Sb3 2.495847 1_555
O1 Sb3 2.317780 1_455
O1 Sb3 2.317780 1_565
O1 Zn0 2.409712 1_565
O1 Zn0 2.409712 1_455
O1 Sb2 2.495847 1_555
O2 Sb1 2.317780 1_565
O2 Sb1 2.317780 1_455
O2 Zn0 2.409712 1_565
O2 Zn0 2.409712 1_455
O2 Sb0 2.495847 1_556
O3 Sb0 2.317780 1_545
O3 Sb0 2.317780 1_655
O3 Zn1 2.409712 1_545
O3 Zn1 2.409712 1_655
O3 Sb1 2.495847 1_554
O4 Zn1 2.121107 1_565
O4 Zn1 2.121107 1_455
O4 Sb0 2.277150 1_555
O4 Sb2 2.277150 1_555
O5 Zn0 2.121107 1_545
O5 Zn0 2.121107 1_655
O5 Sb1 2.277150 1_555
O5 Sb3 2.277150 1_555
O6 Sb1 2.326209 1_564
O6 Sb1 2.326209 1_454
O6 Sb0 2.326209 1_655
O6 Sb0 2.326209 1_545
O7 Sb3 2.326209 1_565
O7 Sb3 2.326209 1_455
O7 Sb2 2.326209 1_655
O7 Sb2 2.326209 1_545
