# generated using pymatgen
data_MnZn(Br2O3)2
_symmetry_space_group_name_H-M   'P 1'
_cell_length_a   5.45066600
_cell_length_b   14.10904300
_cell_length_c   13.96386400
_cell_angle_alpha   90.00000000
_cell_angle_beta   90.00000000
_cell_angle_gamma   90.00000000
_symmetry_Int_Tables_number   1
_chemical_formula_structural   MnZn(Br2O3)2
_chemical_formula_sum   'Mn4 Zn4 Br16 O24'
_cell_volume   1073.87254220
_cell_formula_units_Z   4
loop_
 _symmetry_equiv_pos_site_id
 _symmetry_equiv_pos_as_xyz
  1  'x, y, z'
loop_
 _atom_site_type_symbol
 _atom_site_label
 _atom_site_symmetry_multiplicity
 _atom_site_fract_x
 _atom_site_fract_y
 _atom_site_fract_z
 _atom_site_occupancy
  Mn  Mn0  1  0.50000000  0.00000000  0.00000000  1
  Mn  Mn1  1  0.50000000  0.50000000  0.50000000  1
  Mn  Mn2  1  0.50000000  0.50000000  0.00000000  1
  Mn  Mn3  1  0.50000000  0.00000000  0.50000000  1
  Zn  Zn0  1  0.00000000  0.70004000  0.19475600  1
  Zn  Zn1  1  0.00000000  0.29996000  0.80524400  1
  Zn  Zn2  1  0.00000000  0.20004000  0.30524400  1
  Zn  Zn3  1  0.00000000  0.79996000  0.69475600  1
  Br  Br0  1  0.00000000  0.92887000  0.11615100  1
  Br  Br1  1  0.00000000  0.07113000  0.88384900  1
  Br  Br2  1  0.00000000  0.42887000  0.38384900  1
  Br  Br3  1  0.00000000  0.57113000  0.61615100  1
  Br  Br4  1  0.00000000  0.64395600  0.04318400  1
  Br  Br5  1  0.00000000  0.35604400  0.95681600  1
  Br  Br6  1  0.00000000  0.14395600  0.45681600  1
  Br  Br7  1  0.00000000  0.85604400  0.54318400  1
  Br  Br8  1  0.25734000  0.75809500  0.31813700  1
  Br  Br9  1  0.25734000  0.24190500  0.68186300  1
  Br  Br10  1  0.74266000  0.25809500  0.18186300  1
  Br  Br11  1  0.74266000  0.74190500  0.81813700  1
  Br  Br12  1  0.74266000  0.24190500  0.68186300  1
  Br  Br13  1  0.74266000  0.75809500  0.31813700  1
  Br  Br14  1  0.25734000  0.74190500  0.81813700  1
  Br  Br15  1  0.25734000  0.25809500  0.18186300  1
  O  O0  1  0.50000000  0.94548100  0.89159600  1
  O  O1  1  0.50000000  0.05451900  0.10840400  1
  O  O2  1  0.50000000  0.44548100  0.60840400  1
  O  O3  1  0.50000000  0.55451900  0.39159600  1
  O  O4  1  0.24974000  0.90502600  0.04102600  1
  O  O5  1  0.24974000  0.09497400  0.95897400  1
  O  O6  1  0.75026000  0.40502600  0.45897400  1
  O  O7  1  0.75026000  0.59497400  0.54102600  1
  O  O8  1  0.75026000  0.09497400  0.95897400  1
  O  O9  1  0.75026000  0.90502600  0.04102600  1
  O  O10  1  0.24974000  0.59497400  0.54102600  1
  O  O11  1  0.24974000  0.40502600  0.45897400  1
  O  O12  1  0.50000000  0.37385800  0.95302900  1
  O  O13  1  0.50000000  0.62614200  0.04697100  1
  O  O14  1  0.50000000  0.87385800  0.54697100  1
  O  O15  1  0.50000000  0.12614200  0.45302900  1
  O  O16  1  0.30838400  0.51380900  0.88834400  1
  O  O17  1  0.30838400  0.48619100  0.11165600  1
  O  O18  1  0.69161600  0.01380900  0.61165600  1
  O  O19  1  0.69161600  0.98619100  0.38834400  1
  O  O20  1  0.69161600  0.48619100  0.11165600  1
  O  O21  1  0.69161600  0.51380900  0.88834400  1
  O  O22  1  0.30838400  0.98619100  0.38834400  1
  O  O23  1  0.30838400  0.01380900  0.61165600  1
loop_
_geom_bond_atom_site_label_1
_geom_bond_atom_site_label_2
_geom_bond_distance
_geom_bond_site_symmetry_2
Mn0 O0 1.697967 1_544
Mn0 O1 1.697967 1_555
Mn0 O9 1.996120 1_545
Mn0 O8 1.996120 1_554
Mn0 O5 1.996120 1_554
Mn0 O4 1.996120 1_545
Mn1 O2 1.697967 1_555
Mn1 O3 1.697967 1_555
Mn1 O6 1.996120 1_555
Mn1 O10 1.996120 1_555
Mn1 O7 1.996120 1_555
Mn1 O11 1.996120 1_555
Mn2 O21 1.886730 1_554
Mn2 O16 1.886730 1_554
Mn2 O17 1.886730 1_555
Mn2 O20 1.886730 1_555
Mn2 O13 1.896757 1_555
Mn2 O12 1.896757 1_554
Mn3 O23 1.886730 1_555
Mn3 O19 1.886730 1_545
Mn3 O22 1.886730 1_545
Mn3 O18 1.886730 1_555
Mn3 O14 1.896757 1_545
Mn3 O15 1.896757 1_555
Br0 O4 1.751185 1_555
Br0 O9 1.751185 1_455
Br1 O8 1.751185 1_455
Br1 O5 1.751185 1_555
Br2 O11 1.751185 1_555
Br2 O6 1.751185 1_455
Br3 O7 1.751185 1_455
Br3 O10 1.751185 1_555
Br4 Zn0 2.259612 1_555
Br5 Zn1 2.259612 1_555
Br6 Zn2 2.259612 1_555
Br7 Zn3 2.259612 1_555
Br8 Zn0 2.367852 1_555
Br9 Zn1 2.367852 1_555
Br10 Zn2 2.367852 1_655
Br11 Zn3 2.367852 1_655
Br12 Zn1 2.367852 1_655
Br13 Zn0 2.367852 1_655
Br14 Zn3 2.367852 1_555
Br15 Zn2 2.367852 1_555
