# generated using pymatgen
data_LiEuAsS3
_symmetry_space_group_name_H-M   'P 1'
_cell_length_a   13.12062700
_cell_length_b   5.71103100
_cell_length_c   7.21517774
_cell_angle_alpha   75.42627583
_cell_angle_beta   90.00000000
_cell_angle_gamma   90.00000000
_symmetry_Int_Tables_number   1
_chemical_formula_structural   LiEuAsS3
_chemical_formula_sum   'Li4 Eu4 As4 S12'
_cell_volume   523.25432670
_cell_formula_units_Z   4
loop_
 _symmetry_equiv_pos_site_id
 _symmetry_equiv_pos_as_xyz
  1  'x, y, z'
loop_
 _atom_site_type_symbol
 _atom_site_label
 _atom_site_symmetry_multiplicity
 _atom_site_fract_x
 _atom_site_fract_y
 _atom_site_fract_z
 _atom_site_occupancy
  Li  Li0  1  0.29179500  0.72456100  0.06947400  1
  Li  Li1  1  0.79179500  0.27543900  0.43052600  1
  Li  Li2  1  0.70820500  0.27543900  0.93052600  1
  Li  Li3  1  0.20820500  0.72456100  0.56947400  1
  Eu  Eu0  1  0.57975800  0.66973100  0.23151800  1
  Eu  Eu1  1  0.07975800  0.33026900  0.26848200  1
  Eu  Eu2  1  0.42024200  0.33026900  0.76848200  1
  Eu  Eu3  1  0.92024200  0.66973100  0.73151800  1
  As  As0  1  0.59754300  0.87268400  0.66556300  1
  As  As1  1  0.09754300  0.12731600  0.83443700  1
  As  As2  1  0.40245700  0.12731600  0.33443700  1
  As  As3  1  0.90245700  0.87268400  0.16556300  1
  S  S0  1  0.37229300  0.71678500  0.38513900  1
  S  S1  1  0.87229300  0.28321500  0.11486100  1
  S  S2  1  0.62770700  0.28321500  0.61486100  1
  S  S3  1  0.12770700  0.71678500  0.88513900  1
  S  S4  1  0.28415000  0.26225500  0.10350800  1
  S  S5  1  0.78415000  0.73774500  0.39649200  1
  S  S6  1  0.71585000  0.73774500  0.89649200  1
  S  S7  1  0.21585000  0.26225500  0.60350800  1
  S  S8  1  0.04527500  0.80288100  0.35637400  1
  S  S9  1  0.54527500  0.19711900  0.14362600  1
  S  S10  1  0.95472500  0.19711900  0.64362600  1
  S  S11  1  0.45472500  0.80288100  0.85637400  1
loop_
_geom_bond_atom_site_label_1
_geom_bond_atom_site_label_2
_geom_bond_distance
_geom_bond_site_symmetry_2
Li0 S0 2.500792 1_555
Li0 S3 2.536880 1_554
Li0 S4 2.591326 1_555
Li0 S11 2.605377 1_554
Li1 S1 2.500792 1_555
Li1 S2 2.536880 1_555
Li1 S5 2.591326 1_555
Li1 S10 2.605377 1_555
Li2 S2 2.500792 1_555
Li2 S1 2.536880 1_556
Li2 S6 2.591326 1_555
Li2 S9 2.605377 1_556
Li3 S3 2.500792 1_555
Li3 S0 2.536880 1_555
Li3 S7 2.591326 1_555
Li3 S8 2.605377 1_555
Eu0 S6 2.951266 1_554
Eu0 S9 2.952515 1_565
Eu0 S9 2.958614 1_555
Eu0 S0 2.976632 1_555
Eu0 S5 2.998700 1_555
Eu0 S11 3.091939 1_554
Eu0 S2 3.137833 1_555
Eu1 S7 2.951266 1_555
Eu1 S8 2.952515 1_545
Eu1 S8 2.958614 1_555
Eu1 S1 2.976632 1_455
Eu1 S4 2.998700 1_555
Eu1 S10 3.091939 1_455
Eu1 S3 3.137833 1_554
Eu2 S4 2.951266 1_556
Eu2 S11 2.952515 1_545
Eu2 S11 2.958614 1_555
Eu2 S2 2.976632 1_555
Eu2 S7 2.998700 1_555
Eu2 S9 3.091939 1_556
Eu2 S0 3.137833 1_555
Eu3 S5 2.951266 1_555
Eu3 S10 2.952515 1_565
Eu3 S10 2.958614 1_555
Eu3 S3 2.976632 1_655
Eu3 S6 2.998700 1_555
Eu3 S8 3.091939 1_655
Eu3 S1 3.137833 1_556
As0 S6 2.265704 1_555
As0 S11 2.299886 1_555
As0 S2 2.314253 1_565
As1 S7 2.265704 1_555
As1 S10 2.299886 1_455
As1 S3 2.314253 1_545
As2 S4 2.265704 1_555
As2 S9 2.299886 1_555
As2 S0 2.314253 1_545
As3 S5 2.265704 1_555
As3 S8 2.299886 1_655
As3 S1 2.314253 1_565
