# generated using pymatgen
data_Sm4EuS5
_symmetry_space_group_name_H-M   'P 1'
_cell_length_a   16.47339421
_cell_length_b   16.47339421
_cell_length_c   16.47339470
_cell_angle_alpha   14.10050223
_cell_angle_beta   14.10050223
_cell_angle_gamma   14.10050071
_symmetry_Int_Tables_number   1
_chemical_formula_structural   Sm4EuS5
_chemical_formula_sum   'Sm4 Eu1 S5'
_cell_volume   230.94287217
_cell_formula_units_Z   1
loop_
 _symmetry_equiv_pos_site_id
 _symmetry_equiv_pos_as_xyz
  1  'x, y, z'
loop_
 _atom_site_type_symbol
 _atom_site_label
 _atom_site_symmetry_multiplicity
 _atom_site_fract_x
 _atom_site_fract_y
 _atom_site_fract_z
 _atom_site_occupancy
  Sm  Sm0  1  0.59821700  0.59821700  0.59821700  1
  Sm  Sm1  1  0.20081800  0.20081800  0.20081800  1
  Sm  Sm2  1  0.79918200  0.79918200  0.79918200  1
  Sm  Sm3  1  0.40178300  0.40178300  0.40178300  1
  Eu  Eu0  1  0.00000000  0.00000000  0.00000000  1
  S  S0  1  0.70145900  0.70145900  0.70145900  1
  S  S1  1  0.50000000  0.50000000  0.50000000  1
  S  S2  1  0.10035800  0.10035800  0.10035800  1
  S  S3  1  0.29854100  0.29854100  0.29854100  1
  S  S4  1  0.89964200  0.89964200  0.89964200  1
loop_
_geom_bond_atom_site_label_1
_geom_bond_atom_site_label_2
_geom_bond_distance
_geom_bond_site_symmetry_2
Eu0 S0 2.889307 1_544
Eu0 S0 2.889307 1_454
Eu0 S3 2.889307 1_455
Eu0 S3 2.889307 1_545
Eu0 S0 2.889307 1_445
Eu0 S3 2.889307 1_554
S0 Sm3 2.856949 1_655
S0 Sm3 2.856949 1_565
S0 Sm3 2.856949 1_556
S1 Sm1 2.870945 1_565
S1 Sm1 2.870945 1_655
S1 Sm2 2.870945 1_545
S1 Sm2 2.870945 1_455
S1 Sm1 2.870946 1_556
S1 Sm2 2.870946 1_554
S2 Sm3 2.808506 1_455
S2 Sm3 2.808506 1_545
S2 Sm3 2.808507 1_554
S2 Sm2 2.815295 1_454
S2 Sm2 2.815295 1_544
S2 Sm2 2.815296 1_445
S3 Sm0 2.856949 1_455
S3 Sm0 2.856949 1_545
S3 Sm0 2.856949 1_554
S4 Sm0 2.808506 1_655
S4 Sm0 2.808506 1_565
S4 Sm0 2.808507 1_556
S4 Sm1 2.815295 1_566
S4 Sm1 2.815295 1_656
S4 Sm1 2.815296 1_665
