# generated using pymatgen
data_TaTl6VS8
_symmetry_space_group_name_H-M   'P 1'
_cell_length_a   7.75643900
_cell_length_b   7.75643900
_cell_length_c   7.75643900
_cell_angle_alpha   90.00000000
_cell_angle_beta   90.00000000
_cell_angle_gamma   90.00000000
_symmetry_Int_Tables_number   1
_chemical_formula_structural   TaTl6VS8
_chemical_formula_sum   'Ta1 Tl6 V1 S8'
_cell_volume   466.64556654
_cell_formula_units_Z   1
loop_
 _symmetry_equiv_pos_site_id
 _symmetry_equiv_pos_as_xyz
  1  'x, y, z'
loop_
 _atom_site_type_symbol
 _atom_site_label
 _atom_site_symmetry_multiplicity
 _atom_site_fract_x
 _atom_site_fract_y
 _atom_site_fract_z
 _atom_site_occupancy
  Ta  Ta0  1  0.00000000  0.00000000  0.00000000  1
  Tl  Tl0  1  0.00000000  0.00000000  0.50000000  1
  Tl  Tl1  1  0.50000000  0.50000000  0.00000000  1
  Tl  Tl2  1  0.50000000  0.00000000  0.50000000  1
  Tl  Tl3  1  0.00000000  0.50000000  0.00000000  1
  Tl  Tl4  1  0.00000000  0.50000000  0.50000000  1
  Tl  Tl5  1  0.50000000  0.00000000  0.00000000  1
  V  V0  1  0.50000000  0.50000000  0.50000000  1
  S  S0  1  0.33839500  0.33839500  0.66160500  1
  S  S1  1  0.82977000  0.82977000  0.17023000  1
  S  S2  1  0.33839500  0.66160500  0.33839500  1
  S  S3  1  0.82977000  0.17023000  0.82977000  1
  S  S4  1  0.17023000  0.82977000  0.82977000  1
  S  S5  1  0.66160500  0.33839500  0.33839500  1
  S  S6  1  0.66160500  0.66160500  0.66160500  1
  S  S7  1  0.17023000  0.17023000  0.17023000  1
loop_
_geom_bond_atom_site_label_1
_geom_bond_atom_site_label_2
_geom_bond_distance
_geom_bond_site_symmetry_2
S0 V0 2.171090 1_555
S0 Tl2 3.167283 1_555
S0 Tl4 3.167283 1_555
S0 Tl1 3.167283 1_556
S1 Ta0 2.286963 1_665
S1 Tl5 3.166915 1_565
S1 Tl0 3.166915 1_665
S1 Tl3 3.166915 1_655
S2 V0 2.171090 1_555
S2 Tl4 3.167283 1_555
S2 Tl1 3.167283 1_555
S2 Tl2 3.167283 1_565
S3 Ta0 2.286963 1_656
S3 Tl5 3.166915 1_556
S3 Tl3 3.166915 1_656
S3 Tl0 3.166915 1_655
S4 Ta0 2.286963 1_566
S4 Tl0 3.166915 1_565
S4 Tl5 3.166915 1_566
S4 Tl3 3.166915 1_556
S5 V0 2.171090 1_555
S5 Tl2 3.167283 1_555
S5 Tl4 3.167283 1_655
S5 Tl1 3.167283 1_555
S6 V0 2.171090 1_555
S6 Tl4 3.167283 1_655
S6 Tl1 3.167283 1_556
S6 Tl2 3.167283 1_565
S7 Ta0 2.286963 1_555
S7 Tl3 3.166915 1_555
S7 Tl5 3.166915 1_555
S7 Tl0 3.166915 1_555
