# generated using pymatgen
data_SrSbF5
_symmetry_space_group_name_H-M   'P 1'
_cell_length_a   4.39386251
_cell_length_b   8.76352534
_cell_length_c   11.17043262
_cell_angle_alpha   90.00000000
_cell_angle_beta   90.00000000
_cell_angle_gamma   90.00000000
_symmetry_Int_Tables_number   1
_chemical_formula_structural   SrSbF5
_chemical_formula_sum   'Sr4 Sb4 F20'
_cell_volume   430.12561159
_cell_formula_units_Z   4
loop_
 _symmetry_equiv_pos_site_id
 _symmetry_equiv_pos_as_xyz
  1  'x, y, z'
loop_
 _atom_site_type_symbol
 _atom_site_label
 _atom_site_symmetry_multiplicity
 _atom_site_fract_x
 _atom_site_fract_y
 _atom_site_fract_z
 _atom_site_occupancy
  Sr  Sr0  1  0.01170842  0.25000000  0.00000000  1
  Sr  Sr1  1  0.98829158  0.75000000  0.50000000  1
  Sr  Sr2  1  0.98829158  0.75000000  0.00000000  1
  Sr  Sr3  1  0.01170842  0.25000000  0.50000000  1
  Sb  Sb0  1  0.39128203  0.05520016  0.25000000  1
  Sb  Sb1  1  0.39128203  0.44479984  0.75000000  1
  Sb  Sb2  1  0.60871797  0.55520016  0.25000000  1
  Sb  Sb3  1  0.60871797  0.94479984  0.75000000  1
  F  F0  1  0.08873573  0.98964034  0.38690452  1
  F  F1  1  0.08873573  0.51035966  0.61309548  1
  F  F2  1  0.91126427  0.48964034  0.11309548  1
  F  F3  1  0.91126427  0.01035966  0.88690452  1
  F  F4  1  0.91126427  0.01035966  0.61309548  1
  F  F5  1  0.91126427  0.48964034  0.38690452  1
  F  F6  1  0.08873573  0.51035966  0.88690452  1
  F  F7  1  0.08873573  0.98964034  0.11309548  1
  F  F8  1  0.07449254  0.21632779  0.25000000  1
  F  F9  1  0.07449254  0.28367221  0.75000000  1
  F  F10  1  0.92550746  0.71632779  0.25000000  1
  F  F11  1  0.92550746  0.78367221  0.75000000  1
  F  F12  1  0.47606748  0.70455986  0.11221123  1
  F  F13  1  0.47606748  0.79544014  0.88778877  1
  F  F14  1  0.52393252  0.20455986  0.38778877  1
  F  F15  1  0.52393252  0.29544014  0.61221123  1
  F  F16  1  0.52393252  0.29544014  0.88778877  1
  F  F17  1  0.52393252  0.20455986  0.11221123  1
  F  F18  1  0.47606748  0.79544014  0.61221123  1
  F  F19  1  0.47606748  0.70455986  0.38778877  1
loop_
_geom_bond_atom_site_label_1
_geom_bond_atom_site_label_2
_geom_bond_distance
_geom_bond_site_symmetry_2
F0 Sb0 2.106172 1_565
F0 Sr1 2.490214 1_455
F0 Sr3 2.629933 1_565
F1 Sb1 2.106172 1_555
F1 Sr1 2.490214 1_455
F1 Sr3 2.629933 1_555
F2 Sb2 2.106172 1_555
F2 Sr0 2.490214 1_655
F2 Sr2 2.629933 1_555
F3 Sb3 2.106172 1_545
F3 Sr0 2.490214 1_656
F3 Sr2 2.629933 1_546
F4 Sb3 2.106172 1_545
F4 Sr3 2.490214 1_655
F4 Sr1 2.629933 1_545
F5 Sb2 2.106172 1_555
F5 Sr3 2.490214 1_655
F5 Sr1 2.629933 1_555
F6 Sb1 2.106172 1_555
F6 Sr2 2.490214 1_456
F6 Sr0 2.629933 1_556
F7 Sb0 2.106172 1_565
F7 Sr2 2.490214 1_455
F7 Sr0 2.629933 1_565
F8 Sb0 1.982761 1_555
F8 Sr3 2.821673 1_555
F8 Sr0 2.821673 1_555
F9 Sb1 1.982761 1_555
F9 Sr3 2.821673 1_555
F9 Sr0 2.821673 1_556
F10 Sb2 1.982761 1_555
F10 Sr2 2.821673 1_555
F10 Sr1 2.821673 1_555
F11 Sb3 1.982761 1_555
F11 Sr2 2.821673 1_556
F11 Sr1 2.821673 1_555
F12 Sb2 2.102853 1_555
F12 Sr2 2.514578 1_455
F12 Sr2 2.606741 1_555
F13 Sb3 2.102853 1_555
F13 Sr2 2.514578 1_456
F13 Sr2 2.606741 1_556
F14 Sb0 2.102853 1_555
F14 Sr3 2.514578 1_655
F14 Sr3 2.606741 1_555
F15 Sb1 2.102853 1_555
F15 Sr3 2.514578 1_655
F15 Sr3 2.606741 1_555
F16 Sb1 2.102853 1_555
F16 Sr0 2.514578 1_656
F16 Sr0 2.606741 1_556
F17 Sb0 2.102853 1_555
F17 Sr0 2.514578 1_655
F17 Sr0 2.606741 1_555
F18 Sb3 2.102853 1_555
F18 Sr1 2.514578 1_455
F18 Sr1 2.606741 1_555
F19 Sb2 2.102853 1_555
F19 Sr1 2.514578 1_455
F19 Sr1 2.606741 1_555
