# generated using pymatgen
data_Cu2H10N4O17
_symmetry_space_group_name_H-M   'P 1'
_cell_length_a   5.03613100
_cell_length_b   11.52232715
_cell_length_c   12.36805799
_cell_angle_alpha   85.47066553
_cell_angle_beta   78.25278217
_cell_angle_gamma   77.37682957
_symmetry_Int_Tables_number   1
_chemical_formula_structural   Cu2H10N4O17
_chemical_formula_sum   'Cu4 H20 N8 O34'
_cell_volume   685.23021900
_cell_formula_units_Z   2
loop_
 _symmetry_equiv_pos_site_id
 _symmetry_equiv_pos_as_xyz
  1  'x, y, z'
loop_
 _atom_site_type_symbol
 _atom_site_label
 _atom_site_symmetry_multiplicity
 _atom_site_fract_x
 _atom_site_fract_y
 _atom_site_fract_z
 _atom_site_occupancy
  Cu  Cu0  1  0.88571700  0.73868900  0.51087200  1
  Cu  Cu1  1  0.86472200  0.23868900  0.01087200  1
  Cu  Cu2  1  0.11428300  0.26131100  0.48912800  1
  Cu  Cu3  1  0.13527800  0.76131100  0.98912800  1
  H  H0  1  0.85199900  0.89030400  0.64963300  1
  H  H1  1  0.60806400  0.39030400  0.14963300  1
  H  H2  1  0.14800100  0.10969600  0.35036700  1
  H  H3  1  0.39193600  0.60969600  0.85036700  1
  H  H4  1  0.54737700  0.86562000  0.66309300  1
  H  H5  1  0.92391000  0.36562000  0.16309300  1
  H  H6  1  0.45262300  0.13438000  0.33690700  1
  H  H7  1  0.07609000  0.63438000  0.83690700  1
  H  H8  1  0.08038000  0.56432100  0.38480600  1
  H  H9  1  0.97049300  0.06432100  0.88480600  1
  H  H10  1  0.91962000  0.43567900  0.61519400  1
  H  H11  1  0.02950700  0.93567900  0.11519400  1
  H  H12  1  0.20156000  0.67762500  0.32956400  1
  H  H13  1  0.79125200  0.17762500  0.82956400  1
  H  H14  1  0.79844000  0.32237500  0.67043600  1
  H  H15  1  0.20874800  0.82237500  0.17043600  1
  H  H16  1  0.49225800  0.20017000  0.70562500  1
  H  H17  1  0.60194700  0.70017000  0.20562500  1
  H  H18  1  0.50774200  0.79983000  0.29437500  1
  H  H19  1  0.39805300  0.29983000  0.79437500  1
  N  N0  1  0.80466600  0.94705000  0.38908200  1
  N  N1  1  0.85920200  0.44705000  0.88908200  1
  N  N2  1  0.19533400  0.05295000  0.61091800  1
  N  N3  1  0.14079800  0.55295000  0.11091800  1
  N  N4  1  0.67783500  0.88989300  0.91356900  1
  N  N5  1  0.51870400  0.38989300  0.41356900  1
  N  N6  1  0.32216500  0.11010700  0.08643100  1
  N  N7  1  0.48129600  0.61010700  0.58643100  1
  O  O0  1  0.84100700  0.04412100  0.34068800  1
  O  O1  1  0.77418400  0.54412100  0.84068800  1
  O  O2  1  0.15899300  0.95587900  0.65931200  1
  O  O3  1  0.22581600  0.45587900  0.15931200  1
  O  O4  1  0.00491000  0.88261300  0.43274900  1
  O  O5  1  0.67972800  0.38261300  0.93274900  1
  O  O6  1  0.99509000  0.11738700  0.56725100  1
  O  O7  1  0.32027200  0.61738700  0.06725100  1
  O  O8  1  0.58338900  0.91112800  0.39726900  1
  O  O9  1  0.10821400  0.41112800  0.89726900  1
  O  O10  1  0.41661100  0.08887200  0.60273100  1
  O  O11  1  0.89178600  0.58887200  0.10273100  1
  O  O12  1  0.52442900  0.97342700  0.87322700  1
  O  O13  1  0.62891700  0.47342700  0.37322700  1
  O  O14  1  0.47557100  0.02657300  0.12677300  1
  O  O15  1  0.37108300  0.52657300  0.62677300  1
  O  O16  1  0.61176300  0.79334700  0.95102500  1
  O  O17  1  0.64386500  0.29334700  0.45102500  1
  O  O18  1  0.38823700  0.20665300  0.04897500  1
  O  O19  1  0.35613500  0.70665300  0.54897500  1
  O  O20  1  0.92973500  0.90246600  0.91770700  1
  O  O21  1  0.25009200  0.40246600  0.41770700  1
  O  O22  1  0.07026500  0.09753400  0.08229300  1
  O  O23  1  0.74990800  0.59753400  0.58229300  1
  O  O24  1  0.74620700  0.82710200  0.65041500  1
  O  O25  1  0.77627600  0.32710200  0.15041500  1
  O  O26  1  0.25379300  0.17289800  0.34958500  1
  O  O27  1  0.22372400  0.67289800  0.84958500  1
  O  O28  1  0.03030100  0.65165000  0.37169500  1
  O  O29  1  0.94635300  0.15165000  0.87169500  1
  O  O30  1  0.96969900  0.34835000  0.62830500  1
  O  O31  1  0.05364700  0.84835000  0.12830500  1
  O  O32  1  0.56144300  0.25000000  0.75000000  1
  O  O33  1  0.43855700  0.75000000  0.25000000  1
loop_
_geom_bond_atom_site_label_1
_geom_bond_atom_site_label_2
_geom_bond_distance
_geom_bond_site_symmetry_2
Cu0 O23 1.976525 1_555
Cu0 O28 1.985483 1_655
Cu0 O24 1.995290 1_555
Cu0 O4 1.997464 1_655
Cu0 O19 2.452718 1_655
Cu1 O22 1.976525 1_655
Cu1 O29 1.985483 1_554
Cu1 O25 1.995290 1_555
Cu1 O5 1.997464 1_554
Cu1 O18 2.452718 1_555
Cu2 O21 1.976525 1_555
Cu2 O30 1.985483 1_455
Cu2 O26 1.995290 1_555
Cu2 O6 1.997464 1_455
Cu2 O17 2.452718 1_455
Cu3 O20 1.976525 1_455
Cu3 O31 1.985483 1_556
Cu3 O27 1.995290 1_555
Cu3 O7 1.997464 1_556
Cu3 O16 2.452718 1_555
H0 O24 0.990276 1_555
H1 O25 0.990276 1_555
H2 O26 0.990276 1_555
H3 O27 0.990276 1_555
H4 O24 0.988457 1_555
H5 O25 0.988457 1_555
H6 O26 0.988457 1_555
H7 O27 0.988457 1_555
H8 O28 0.991146 1_555
H9 O29 0.991146 1_555
H10 O30 0.991146 1_555
H11 O31 0.991146 1_555
H12 O28 1.005072 1_555
H13 O29 1.005064 1_555
H14 O30 1.005072 1_555
H15 O31 1.005064 1_555
H16 O32 0.983537 1_555
H17 O33 0.983537 1_555
H18 O33 0.983537 1_555
H19 O32 0.983537 1_555
N0 O8 1.253973 1_555
N0 O0 1.257730 1_565
N0 O4 1.300423 1_655
N1 O9 1.253973 1_655
N1 O1 1.257730 1_555
N1 O5 1.300423 1_555
N2 O10 1.253973 1_555
N2 O2 1.257730 1_545
N2 O6 1.300423 1_455
N3 O11 1.253973 1_455
N3 O3 1.257730 1_555
N3 O7 1.300423 1_555
N4 O12 1.236261 1_555
N4 O16 1.257166 1_555
N4 O20 1.319428 1_555
N5 O13 1.236258 1_555
N5 O17 1.257164 1_555
N5 O21 1.319433 1_555
N6 O14 1.236261 1_555
N6 O18 1.257166 1_555
N6 O22 1.319428 1_555
N7 O15 1.236258 1_555
N7 O19 1.257164 1_555
N7 O23 1.319433 1_555
