# generated using pymatgen
data_SmCuSn
_symmetry_space_group_name_H-M   'P 1'
_cell_length_a   4.55585918
_cell_length_b   4.55585918
_cell_length_c   7.50322110
_cell_angle_alpha   90.00000000
_cell_angle_beta   90.00000000
_cell_angle_gamma   119.99999047
_symmetry_Int_Tables_number   1
_chemical_formula_structural   SmCuSn
_chemical_formula_sum   'Sm2 Cu2 Sn2'
_cell_volume   134.87113172
_cell_formula_units_Z   2
loop_
 _symmetry_equiv_pos_site_id
 _symmetry_equiv_pos_as_xyz
  1  'x, y, z'
loop_
 _atom_site_type_symbol
 _atom_site_label
 _atom_site_symmetry_multiplicity
 _atom_site_fract_x
 _atom_site_fract_y
 _atom_site_fract_z
 _atom_site_occupancy
  Sm  Sm0  1  -0.00000000  -0.00000000  0.49354966  1
  Sm  Sm1  1  -0.00000000  -0.00000000  0.99354966  1
  Cu  Cu0  1  0.66666700  0.33333300  0.30865938  1
  Cu  Cu1  1  0.33333300  0.66666700  0.80865938  1
  Sn  Sn0  1  0.33333300  0.66666700  0.22479096  1
  Sn  Sn1  1  0.66666700  0.33333300  0.72479096  1
loop_
_geom_bond_atom_site_label_1
_geom_bond_atom_site_label_2
_geom_bond_distance
_geom_bond_site_symmetry_2
Sm0 Sn1 3.151034 1_455
Sm0 Sn1 3.151038 1_445
Sm0 Sn1 3.151038 1_555
Sm0 Sn0 3.314378 1_545
Sm0 Sn0 3.314381 1_555
Sm0 Sn0 3.314381 1_445
Sm1 Sn0 3.151034 1_546
Sm1 Sn0 3.151038 1_446
Sm1 Sn0 3.151038 1_556
Sm1 Sn1 3.314378 1_455
Sm1 Sn1 3.314381 1_445
Sm1 Sn1 3.314381 1_555
Cu0 Sn0 2.704552 1_545
Cu0 Sn0 2.704552 1_655
Cu0 Sn0 2.704560 1_555
Cu0 Sm0 2.973740 1_655
Cu0 Sm0 2.973744 1_555
Cu0 Sm0 2.973744 1_665
Cu0 Sn1 3.122327 1_555
Cu0 Sm1 3.536764 1_654
Cu0 Sm1 3.536767 1_554
Cu0 Sm1 3.536767 1_664
Cu1 Sn1 2.704552 1_455
Cu1 Sn1 2.704552 1_565
Cu1 Sn1 2.704560 1_555
Cu1 Sm1 2.973740 1_565
Cu1 Sm1 2.973744 1_665
Cu1 Sm1 2.973744 1_555
Cu1 Sn0 3.122327 1_556
Cu1 Sm0 3.536764 1_565
Cu1 Sm0 3.536767 1_555
Cu1 Sm0 3.536767 1_665
