# generated using pymatgen
data_BiBr7(N3F2)2
_symmetry_space_group_name_H-M   'P 1'
_cell_length_a   12.78273400
_cell_length_b   12.78273400
_cell_length_c   12.78273400
_cell_angle_alpha   90.00000000
_cell_angle_beta   90.00000000
_cell_angle_gamma   90.00000000
_symmetry_Int_Tables_number   1
_chemical_formula_structural   BiBr7(N3F2)2
_chemical_formula_sum   'Bi4 Br28 N24 F16'
_cell_volume   2088.67685814
_cell_formula_units_Z   4
loop_
 _symmetry_equiv_pos_site_id
 _symmetry_equiv_pos_as_xyz
  1  'x, y, z'
loop_
 _atom_site_type_symbol
 _atom_site_label
 _atom_site_symmetry_multiplicity
 _atom_site_fract_x
 _atom_site_fract_y
 _atom_site_fract_z
 _atom_site_occupancy
  Bi  Bi0  1  0.50000000  0.50000000  0.00000000  1
  Bi  Bi1  1  0.50000000  0.00000000  0.50000000  1
  Bi  Bi2  1  0.00000000  0.50000000  0.50000000  1
  Bi  Bi3  1  0.00000000  0.00000000  0.00000000  1
  Br  Br0  1  0.02311800  0.57597600  0.27638000  1
  Br  Br1  1  0.97688200  0.07597600  0.22362000  1
  Br  Br2  1  0.47688200  0.42402400  0.77638000  1
  Br  Br3  1  0.52311800  0.92402400  0.72362000  1
  Br  Br4  1  0.27638000  0.02311800  0.57597600  1
  Br  Br5  1  0.22362000  0.97688200  0.07597600  1
  Br  Br6  1  0.77638000  0.47688200  0.42402400  1
  Br  Br7  1  0.72362000  0.52311800  0.92402400  1
  Br  Br8  1  0.57597600  0.27638000  0.02311800  1
  Br  Br9  1  0.07597600  0.22362000  0.97688200  1
  Br  Br10  1  0.42402400  0.77638000  0.47688200  1
  Br  Br11  1  0.92402400  0.72362000  0.52311800  1
  Br  Br12  1  0.97688200  0.42402400  0.72362000  1
  Br  Br13  1  0.02311800  0.92402400  0.77638000  1
  Br  Br14  1  0.52311800  0.57597600  0.22362000  1
  Br  Br15  1  0.47688200  0.07597600  0.27638000  1
  Br  Br16  1  0.72362000  0.97688200  0.42402400  1
  Br  Br17  1  0.77638000  0.02311800  0.92402400  1
  Br  Br18  1  0.22362000  0.52311800  0.57597600  1
  Br  Br19  1  0.27638000  0.47688200  0.07597600  1
  Br  Br20  1  0.42402400  0.72362000  0.97688200  1
  Br  Br21  1  0.92402400  0.77638000  0.02311800  1
  Br  Br22  1  0.57597600  0.22362000  0.52311800  1
  Br  Br23  1  0.07597600  0.27638000  0.47688200  1
  Br  Br24  1  0.00000000  0.00000000  0.50000000  1
  Br  Br25  1  0.00000000  0.50000000  0.00000000  1
  Br  Br26  1  0.50000000  0.00000000  0.00000000  1
  Br  Br27  1  0.50000000  0.50000000  0.50000000  1
  N  N0  1  0.93795300  0.76144700  0.38948900  1
  N  N1  1  0.06204700  0.26144700  0.11051100  1
  N  N2  1  0.56204700  0.23855300  0.88948900  1
  N  N3  1  0.43795300  0.73855300  0.61051100  1
  N  N4  1  0.38948900  0.93795300  0.76144700  1
  N  N5  1  0.11051100  0.06204700  0.26144700  1
  N  N6  1  0.88948900  0.56204700  0.23855300  1
  N  N7  1  0.61051100  0.43795300  0.73855300  1
  N  N8  1  0.76144700  0.38948900  0.93795300  1
  N  N9  1  0.26144700  0.11051100  0.06204700  1
  N  N10  1  0.23855300  0.88948900  0.56204700  1
  N  N11  1  0.73855300  0.61051100  0.43795300  1
  N  N12  1  0.06204700  0.23855300  0.61051100  1
  N  N13  1  0.93795300  0.73855300  0.88948900  1
  N  N14  1  0.43795300  0.76144700  0.11051100  1
  N  N15  1  0.56204700  0.26144700  0.38948900  1
  N  N16  1  0.61051100  0.06204700  0.23855300  1
  N  N17  1  0.88948900  0.93795300  0.73855300  1
  N  N18  1  0.11051100  0.43795300  0.76144700  1
  N  N19  1  0.38948900  0.56204700  0.26144700  1
  N  N20  1  0.23855300  0.61051100  0.06204700  1
  N  N21  1  0.73855300  0.88948900  0.93795300  1
  N  N22  1  0.76144700  0.11051100  0.43795300  1
  N  N23  1  0.26144700  0.38948900  0.56204700  1
  F  F0  1  0.32267100  0.67732900  0.17732900  1
  F  F1  1  0.67732900  0.17732900  0.32267100  1
  F  F2  1  0.17732900  0.32267100  0.67732900  1
  F  F3  1  0.82267100  0.82267100  0.82267100  1
  F  F4  1  0.67732900  0.32267100  0.82267100  1
  F  F5  1  0.32267100  0.82267100  0.67732900  1
  F  F6  1  0.82267100  0.67732900  0.32267100  1
  F  F7  1  0.17732900  0.17732900  0.17732900  1
  F  F8  1  0.08926200  0.91073800  0.41073800  1
  F  F9  1  0.91073800  0.41073800  0.08926200  1
  F  F10  1  0.41073800  0.08926200  0.91073800  1
  F  F11  1  0.58926200  0.58926200  0.58926200  1
  F  F12  1  0.91073800  0.08926200  0.58926200  1
  F  F13  1  0.08926200  0.58926200  0.91073800  1
  F  F14  1  0.58926200  0.91073800  0.08926200  1
  F  F15  1  0.41073800  0.41073800  0.41073800  1
loop_
_geom_bond_atom_site_label_1
_geom_bond_atom_site_label_2
_geom_bond_distance
_geom_bond_site_symmetry_2
Bi0 Br19 3.033381 1_555
Bi0 Br8 3.033381 1_555
Bi0 Br20 3.033381 1_554
Bi0 Br2 3.033381 1_554
Bi0 Br14 3.033381 1_555
Bi0 Br7 3.033381 1_554
Bi1 Br15 3.033381 1_555
Bi1 Br4 3.033381 1_555
Bi1 Br3 3.033381 1_545
Bi1 Br22 3.033381 1_555
Bi1 Br16 3.033381 1_545
Bi1 Br10 3.033381 1_545
Bi2 Br23 3.033381 1_555
Bi2 Br0 3.033381 1_555
Bi2 Br18 3.033381 1_555
Bi2 Br11 3.033381 1_455
Bi2 Br12 3.033381 1_455
Bi2 Br6 3.033381 1_455
Bi3 Br9 3.033381 1_554
Bi3 Br1 3.033381 1_455
Bi3 Br21 3.033381 1_445
Bi3 Br17 3.033381 1_454
Bi3 Br13 3.033381 1_544
Bi3 Br5 3.033381 1_545
Br0 N6 1.784170 1_455
Br1 N5 1.784170 1_655
Br2 N7 1.784170 1_555
Br3 N4 1.784170 1_555
Br4 N10 1.784170 1_545
Br5 N9 1.784170 1_565
Br6 N11 1.784170 1_555
Br7 N8 1.784170 1_555
Br8 N2 1.784170 1_554
Br9 N1 1.784170 1_556
Br10 N3 1.784170 1_555
Br11 N0 1.784170 1_555
Br12 N18 1.784170 1_655
Br13 N17 1.784170 1_455
Br14 N19 1.784170 1_555
Br15 N16 1.784170 1_555
Br16 N22 1.784170 1_565
Br17 N21 1.784170 1_545
Br18 N23 1.784170 1_555
Br19 N20 1.784170 1_555
Br20 N14 1.784170 1_556
Br21 N13 1.784170 1_554
Br22 N15 1.784170 1_555
Br23 N12 1.784170 1_555
Br24 F12 1.976291 1_455
Br24 F8 1.976291 1_545
Br25 F13 1.976291 1_554
Br25 F9 1.976291 1_455
Br26 F14 1.976291 1_545
Br26 F10 1.976291 1_554
Br27 F11 1.976291 1_555
Br27 F15 1.976291 1_555
F0 N20 2.014261 1_555
F0 N19 2.014261 1_555
F0 N14 2.014261 1_555
F1 N16 2.014261 1_555
F1 N15 2.014261 1_555
F1 N22 2.014261 1_555
F2 N12 2.014261 1_555
F2 N23 2.014261 1_555
F2 N18 2.014261 1_555
F3 N17 2.014261 1_555
F3 N13 2.014261 1_555
F3 N21 2.014261 1_555
F4 N2 2.014261 1_555
F4 N7 2.014261 1_555
F4 N8 2.014261 1_555
F5 N3 2.014261 1_555
F5 N10 2.014261 1_555
F5 N4 2.014261 1_555
F6 N11 2.014261 1_555
F6 N6 2.014261 1_555
F6 N0 2.014261 1_555
F7 N9 2.014261 1_555
F7 N1 2.014261 1_555
F7 N5 2.014261 1_555
