# generated using pymatgen
data_Dy2Co2I
_symmetry_space_group_name_H-M   'P 1'
_cell_length_a   3.97608605
_cell_length_b   3.97608605
_cell_length_c   16.90161877
_cell_angle_alpha   90.00000000
_cell_angle_beta   90.00000000
_cell_angle_gamma   120.00002083
_symmetry_Int_Tables_number   1
_chemical_formula_structural   Dy2Co2I
_chemical_formula_sum   'Dy4 Co4 I2'
_cell_volume   231.40374974
_cell_formula_units_Z   2
loop_
 _symmetry_equiv_pos_site_id
 _symmetry_equiv_pos_as_xyz
  1  'x, y, z'
loop_
 _atom_site_type_symbol
 _atom_site_label
 _atom_site_symmetry_multiplicity
 _atom_site_fract_x
 _atom_site_fract_y
 _atom_site_fract_z
 _atom_site_occupancy
  Dy  Dy0  1  0.00000000  -0.00000000  0.10440734  1
  Dy  Dy1  1  -0.00000000  0.00000000  0.89559266  1
  Dy  Dy2  1  -0.00000000  0.00000000  0.60440734  1
  Dy  Dy3  1  0.00000000  -0.00000000  0.39559266  1
  Co  Co0  1  0.33333300  0.66666700  0.50406314  1
  Co  Co1  1  0.66666700  0.33333300  0.49593686  1
  Co  Co2  1  0.66666700  0.33333300  0.00406314  1
  Co  Co3  1  0.33333300  0.66666700  0.99593686  1
  I  I0  1  0.33333300  0.66666700  0.25000000  1
  I  I1  1  0.66666700  0.33333300  0.75000000  1
loop_
_geom_bond_atom_site_label_1
_geom_bond_atom_site_label_2
_geom_bond_distance
_geom_bond_site_symmetry_2
Dy0 I0 3.365270 1_545
Dy0 I0 3.365272 1_445
Dy0 I0 3.365272 1_555
Dy1 I1 3.365270 1_455
Dy1 I1 3.365272 1_555
Dy1 I1 3.365272 1_445
Dy2 I1 3.365270 1_455
Dy2 I1 3.365272 1_445
Dy2 I1 3.365272 1_555
Dy3 I0 3.365270 1_545
Dy3 I0 3.365272 1_445
Dy3 I0 3.365272 1_555
Co0 Co1 2.299697 1_455
Co0 Co1 2.299697 1_565
Co0 Co1 2.299704 1_555
Co0 Dy2 2.854136 1_565
Co0 Dy2 2.854138 1_555
Co0 Dy2 2.854138 1_665
Co0 Dy3 2.937828 1_565
Co0 Dy3 2.937830 1_555
Co0 Dy3 2.937830 1_665
Co1 Dy3 2.854136 1_655
Co1 Dy3 2.854138 1_555
Co1 Dy3 2.854138 1_665
Co1 Dy2 2.937828 1_655
Co1 Dy2 2.937830 1_665
Co1 Dy2 2.937830 1_555
Co2 Co3 2.299697 1_544
Co2 Co3 2.299697 1_654
Co2 Co3 2.299704 1_554
Co2 Dy0 2.854136 1_655
Co2 Dy0 2.854138 1_665
Co2 Dy0 2.854138 1_555
Co2 Dy1 2.937828 1_654
Co2 Dy1 2.937830 1_554
Co2 Dy1 2.937830 1_664
Co3 Dy1 2.854136 1_565
Co3 Dy1 2.854138 1_665
Co3 Dy1 2.854138 1_555
Co3 Dy0 2.937828 1_566
Co3 Dy0 2.937830 1_556
Co3 Dy0 2.937830 1_666
