# generated using pymatgen
data_Ba4Nb2O9
_symmetry_space_group_name_H-M   'P 1'
_cell_length_a   6.14187079
_cell_length_b   6.14182527
_cell_length_c   16.63608359
_cell_angle_alpha   90.00000000
_cell_angle_beta   90.00000000
_cell_angle_gamma   119.99908190
_symmetry_Int_Tables_number   1
_chemical_formula_structural   Ba4Nb2O9
_chemical_formula_sum   'Ba8 Nb4 O18'
_cell_volume   543.48038682
_cell_formula_units_Z   2
loop_
 _symmetry_equiv_pos_site_id
 _symmetry_equiv_pos_as_xyz
  1  'x, y, z'
loop_
 _atom_site_type_symbol
 _atom_site_label
 _atom_site_symmetry_multiplicity
 _atom_site_fract_x
 _atom_site_fract_y
 _atom_site_fract_z
 _atom_site_occupancy
  Ba  Ba0  1  0.00001805  0.00003105  0.75000000  1
  Ba  Ba1  1  -0.00001805  -0.00003105  0.25000000  1
  Ba  Ba2  1  0.66667172  0.33337007  0.63490447  1
  Ba  Ba3  1  0.33332828  0.66662993  0.13490447  1
  Ba  Ba4  1  0.33332828  0.66662993  0.36509553  1
  Ba  Ba5  1  0.66667172  0.33337007  0.86509553  1
  Ba  Ba6  1  0.00000000  -0.00000000  0.50000000  1
  Ba  Ba7  1  0.00000000  -0.00000000  -0.00000000  1
  Nb  Nb0  1  0.66665458  0.33329687  0.34105833  1
  Nb  Nb1  1  0.33334542  0.66670313  0.84105833  1
  Nb  Nb2  1  0.33334542  0.66670313  0.65894167  1
  Nb  Nb3  1  0.66665458  0.33329687  0.15894167  1
  O  O0  1  0.52809223  0.95743390  0.75000000  1
  O  O1  1  0.04261259  0.57072759  0.75000000  1
  O  O2  1  0.42934261  0.47197011  0.75000000  1
  O  O3  1  0.47190777  0.04256610  0.25000000  1
  O  O4  1  0.95738741  0.42927241  0.25000000  1
  O  O5  1  0.57065739  0.52802989  0.25000000  1
  O  O6  1  0.10877945  0.35481229  0.60819637  1
  O  O7  1  0.64523100  0.75401895  0.60819921  1
  O  O8  1  0.24602794  0.89128210  0.60820304  1
  O  O9  1  0.89122055  0.64518771  0.10819637  1
  O  O10  1  0.35476900  0.24598105  0.10819921  1
  O  O11  1  0.75397206  0.10871790  0.10820304  1
  O  O12  1  0.89122055  0.64518771  0.39180363  1
  O  O13  1  0.35476900  0.24598105  0.39180079  1
  O  O14  1  0.75397206  0.10871790  0.39179696  1
  O  O15  1  0.10877945  0.35481229  0.89180363  1
  O  O16  1  0.64523100  0.75401895  0.89180079  1
  O  O17  1  0.24602794  0.89128210  0.89179696  1
loop_
_geom_bond_atom_site_label_1
_geom_bond_atom_site_label_2
_geom_bond_distance
_geom_bond_site_symmetry_2
Ba0 O1 2.776767 1_545
Ba0 O0 2.776958 1_445
Ba0 O2 2.777014 1_555
Ba0 O8 3.050067 1_545
Ba0 O17 3.050067 1_545
Ba0 O7 3.050220 1_445
Ba0 O16 3.050220 1_445
Ba0 O6 3.050230 1_555
Ba0 O15 3.050230 1_555
Ba1 O4 2.776767 1_455
Ba1 O3 2.776958 1_555
Ba1 O5 2.777014 1_445
Ba1 O11 3.050067 1_455
Ba1 O14 3.050067 1_455
Ba1 O10 3.050220 1_555
Ba1 O13 3.050220 1_555
Ba1 O12 3.050230 1_445
Ba1 O9 3.050230 1_445
Ba2 O7 2.688804 1_555
Ba2 O8 2.688820 1_545
Ba2 O6 2.688940 1_655
Ba2 O2 2.785029 1_555
Ba2 O0 2.785080 1_545
Ba2 O1 2.785114 1_655
Ba3 O10 2.688804 1_555
Ba3 O11 2.688820 1_565
Ba3 O9 2.688940 1_455
Ba3 O5 2.785029 1_555
Ba3 O3 2.785080 1_565
Ba3 O4 2.785114 1_455
Ba4 O13 2.688804 1_555
Ba4 O14 2.688820 1_565
Ba4 O12 2.688940 1_455
Ba4 O5 2.785029 1_555
Ba4 O3 2.785080 1_565
Ba4 O4 2.785114 1_455
Ba5 O16 2.688804 1_555
Ba5 O17 2.688820 1_545
Ba5 O15 2.688940 1_655
Ba5 O2 2.785029 1_555
Ba5 O0 2.785080 1_545
Ba5 O1 2.785114 1_655
Ba6 O14 2.641670 1_455
Ba6 O8 2.641670 1_545
Ba6 O7 2.641681 1_445
Ba6 O13 2.641681 1_555
Ba6 O12 2.641823 1_445
Ba6 O6 2.641823 1_555
Ba7 O11 2.641670 1_455
Ba7 O17 2.641670 1_544
Ba7 O16 2.641681 1_444
Ba7 O10 2.641681 1_555
Ba7 O9 2.641823 1_445
Ba7 O15 2.641823 1_554
Nb0 O13 1.908487 1_555
Nb0 O14 1.908491 1_555
Nb0 O12 1.908525 1_555
Nb0 O5 2.185869 1_555
Nb0 O3 2.185899 1_555
Nb0 O4 2.185916 1_555
Nb1 O16 1.908487 1_555
Nb1 O17 1.908491 1_555
Nb1 O15 1.908525 1_555
Nb1 O2 2.185869 1_555
Nb1 O0 2.185899 1_555
Nb1 O1 2.185916 1_555
Nb2 O7 1.908487 1_555
Nb2 O8 1.908491 1_555
Nb2 O6 1.908525 1_555
Nb2 O2 2.185869 1_555
Nb2 O0 2.185899 1_555
Nb2 O1 2.185916 1_555
Nb3 O10 1.908487 1_555
Nb3 O11 1.908491 1_555
Nb3 O9 1.908525 1_555
Nb3 O5 2.185869 1_555
Nb3 O3 2.185899 1_555
Nb3 O4 2.185916 1_555
