# generated using pymatgen
data_HfSeS
_symmetry_space_group_name_H-M   'P 1'
_cell_length_a   3.70201193
_cell_length_b   3.70201120
_cell_length_c   6.28316129
_cell_angle_alpha   90.00197460
_cell_angle_beta   90.00177734
_cell_angle_gamma   60.00105018
_symmetry_Int_Tables_number   1
_chemical_formula_structural   HfSeS
_chemical_formula_sum   'Hf1 Se1 S1'
_cell_volume   74.57426438
_cell_formula_units_Z   1
loop_
 _symmetry_equiv_pos_site_id
 _symmetry_equiv_pos_as_xyz
  1  'x, y, z'
loop_
 _atom_site_type_symbol
 _atom_site_label
 _atom_site_symmetry_multiplicity
 _atom_site_fract_x
 _atom_site_fract_y
 _atom_site_fract_z
 _atom_site_occupancy
  Hf  Hf0  1  0.00000351  0.00000441  0.01187891  1
  Se  Se0  1  0.33332595  0.33332202  0.75751574  1
  S  S0  1  0.66667054  0.66667357  0.23060535  1
loop_
_geom_bond_atom_site_label_1
_geom_bond_atom_site_label_2
_geom_bond_distance
_geom_bond_site_symmetry_2
Hf0 S0 2.541059 1_455
Hf0 S0 2.541060 1_545
Hf0 S0 2.541085 1_445
Hf0 Se0 2.668783 1_554
Hf0 Se0 2.668837 1_454
Hf0 Se0 2.668842 1_544
