# generated using pymatgen
data_BaCaNdSbO6
_symmetry_space_group_name_H-M   'P 1'
_cell_length_a   8.50505280
_cell_length_b   8.51657485
_cell_length_c   8.51413768
_cell_angle_alpha   90.00000000
_cell_angle_beta   90.00000000
_cell_angle_gamma   90.00000000
_symmetry_Int_Tables_number   1
_chemical_formula_structural   BaCaNdSbO6
_chemical_formula_sum   'Ba4 Ca4 Nd4 Sb4 O24'
_cell_volume   616.71235715
_cell_formula_units_Z   4
loop_
 _symmetry_equiv_pos_site_id
 _symmetry_equiv_pos_as_xyz
  1  'x, y, z'
loop_
 _atom_site_type_symbol
 _atom_site_label
 _atom_site_symmetry_multiplicity
 _atom_site_fract_x
 _atom_site_fract_y
 _atom_site_fract_z
 _atom_site_occupancy
  Ba  Ba0  1  0.00000000  -0.00000000  -0.00000000  1
  Ba  Ba1  1  0.50000000  0.50000000  0.50000000  1
  Ba  Ba2  1  0.50000000  -0.00000000  0.50000000  1
  Ba  Ba3  1  0.00000000  0.50000000  -0.00000000  1
  Ca  Ca0  1  0.00000000  0.50000000  0.50000000  1
  Ca  Ca1  1  0.50000000  0.50000000  -0.00000000  1
  Ca  Ca2  1  0.50000000  -0.00000000  -0.00000000  1
  Ca  Ca3  1  0.00000000  -0.00000000  0.50000000  1
  Nd  Nd0  1  0.75000000  0.75000000  0.75000000  1
  Nd  Nd1  1  0.25000000  0.25000000  0.75000000  1
  Nd  Nd2  1  0.25000000  0.75000000  0.25000000  1
  Nd  Nd3  1  0.75000000  0.25000000  0.25000000  1
  Sb  Sb0  1  0.25000000  0.25000000  0.25000000  1
  Sb  Sb1  1  0.75000000  0.75000000  0.25000000  1
  Sb  Sb2  1  0.75000000  0.25000000  0.75000000  1
  Sb  Sb3  1  0.25000000  0.75000000  0.75000000  1
  O  O0  1  0.02031456  0.19129474  0.28428021  1
  O  O1  1  0.97968544  0.80870526  0.28428021  1
  O  O2  1  0.97968544  0.19129474  0.71571979  1
  O  O3  1  0.02031456  0.80870526  0.71571979  1
  O  O4  1  0.30468097  0.02002225  0.20940899  1
  O  O5  1  0.30468097  0.97997775  0.79059101  1
  O  O6  1  0.69531903  0.97997775  0.20940899  1
  O  O7  1  0.69531903  0.02002225  0.79059101  1
  O  O8  1  0.21814353  0.27633573  0.01843209  1
  O  O9  1  0.78185647  0.27633573  0.98156791  1
  O  O10  1  0.21814353  0.72366427  0.98156791  1
  O  O11  1  0.78185647  0.72366427  0.01843209  1
  O  O12  1  0.47968544  0.30870526  0.21571979  1
  O  O13  1  0.52031456  0.69129474  0.21571979  1
  O  O14  1  0.52031456  0.30870526  0.78428021  1
  O  O15  1  0.47968544  0.69129474  0.78428021  1
  O  O16  1  0.19531903  0.47997775  0.29059101  1
  O  O17  1  0.19531903  0.52002225  0.70940899  1
  O  O18  1  0.80468097  0.52002225  0.29059101  1
  O  O19  1  0.80468097  0.47997775  0.70940899  1
  O  O20  1  0.28185647  0.22366427  0.48156791  1
  O  O21  1  0.71814353  0.22366427  0.51843209  1
  O  O22  1  0.28185647  0.77633573  0.51843209  1
  O  O23  1  0.71814353  0.77633573  0.48156791  1
loop_
_geom_bond_atom_site_label_1
_geom_bond_atom_site_label_2
_geom_bond_distance
_geom_bond_site_symmetry_2
Ba0 O0 2.922740 1_555
Ba0 O2 2.922740 1_454
Ba0 O3 2.922740 1_544
Ba0 O1 2.922740 1_445
Ba0 O9 3.000917 1_454
Ba0 O11 3.000917 1_445
Ba0 O10 3.000917 1_544
Ba0 O8 3.000917 1_555
Ba0 O6 3.150067 1_445
Ba0 O7 3.150067 1_454
Ba0 O5 3.150067 1_544
Ba0 O4 3.150067 1_555
Ba1 O12 2.922740 1_555
Ba1 O13 2.922740 1_555
Ba1 O14 2.922740 1_555
Ba1 O15 2.922740 1_555
Ba1 O20 3.000917 1_555
Ba1 O23 3.000917 1_555
Ba1 O21 3.000917 1_555
Ba1 O22 3.000917 1_555
Ba1 O19 3.150067 1_555
Ba1 O16 3.150067 1_555
Ba1 O17 3.150067 1_555
Ba1 O18 3.150067 1_555
Ba2 O20 2.663703 1_555
Ba2 O22 2.663703 1_545
Ba2 O21 2.663703 1_555
Ba2 O23 2.663703 1_545
Ba2 O5 2.984960 1_545
Ba2 O4 2.984960 1_555
Ba2 O6 2.984960 1_545
Ba2 O7 2.984960 1_555
Ba3 O9 2.663703 1_454
Ba3 O8 2.663703 1_555
Ba3 O10 2.663703 1_554
Ba3 O11 2.663703 1_455
Ba3 O18 2.984960 1_455
Ba3 O19 2.984960 1_454
Ba3 O16 2.984960 1_555
Ba3 O17 2.984960 1_554
Ca0 O16 2.442851 1_555
Ca0 O18 2.442851 1_455
Ca0 O19 2.442851 1_455
Ca0 O17 2.442851 1_555
Ca1 O15 2.461182 1_554
Ca1 O14 2.461182 1_554
Ca1 O13 2.461182 1_555
Ca1 O12 2.461182 1_555
Ca1 O9 3.065890 1_554
Ca1 O8 3.065890 1_555
Ca1 O11 3.065890 1_555
Ca1 O10 3.065890 1_554
Ca2 O5 2.442851 1_544
Ca2 O4 2.442851 1_555
Ca2 O7 2.442851 1_554
Ca2 O6 2.442851 1_545
Ca3 O3 2.461182 1_545
Ca3 O1 2.461182 1_445
Ca3 O0 2.461182 1_555
Ca3 O2 2.461182 1_455
Ca3 O22 3.065890 1_545
Ca3 O23 3.065890 1_445
Ca3 O20 3.065890 1_555
Ca3 O21 3.065890 1_455
Nd0 O11 2.312375 1_556
Nd0 O23 2.312375 1_555
Nd0 O15 2.370809 1_555
Nd0 O3 2.370809 1_655
Nd0 O7 2.371535 1_565
Nd0 O19 2.371535 1_555
Nd1 O8 2.312375 1_556
Nd1 O20 2.312375 1_555
Nd1 O2 2.370809 1_455
Nd1 O14 2.370809 1_555
Nd1 O5 2.371535 1_545
Nd1 O17 2.371535 1_555
Nd2 O22 2.312375 1_555
Nd2 O10 2.312375 1_554
Nd2 O13 2.370809 1_555
Nd2 O1 2.370809 1_455
Nd2 O16 2.371535 1_555
Nd2 O4 2.371535 1_565
Nd3 O21 2.312375 1_555
Nd3 O9 2.312375 1_554
Nd3 O12 2.370809 1_555
Nd3 O0 2.370809 1_655
Nd3 O6 2.371535 1_545
Nd3 O18 2.371535 1_555
O0 Sb0 2.037465 1_555
O1 Sb1 2.037465 1_555
O2 Sb2 2.037465 1_555
O3 Sb3 2.037465 1_555
O4 Sb0 2.042529 1_555
O5 Sb3 2.042529 1_555
O6 Sb1 2.042529 1_555
O7 Sb2 2.042529 1_555
O8 Sb0 2.002730 1_555
O9 Sb2 2.002730 1_555
O10 Sb3 2.002730 1_555
O11 Sb1 2.002730 1_555
O12 Sb0 2.037465 1_555
O13 Sb1 2.037465 1_555
O14 Sb2 2.037465 1_555
O15 Sb3 2.037465 1_555
O16 Sb0 2.042529 1_555
O17 Sb3 2.042529 1_555
O18 Sb1 2.042529 1_555
O19 Sb2 2.042529 1_555
O20 Sb0 2.002730 1_555
O21 Sb2 2.002730 1_555
O22 Sb3 2.002730 1_555
O23 Sb1 2.002730 1_555
