# generated using pymatgen
data_La2Mg
_symmetry_space_group_name_H-M   'P 1'
_cell_length_a   6.90061018
_cell_length_b   6.90061018
_cell_length_c   6.90060970
_cell_angle_alpha   53.54357167
_cell_angle_beta   53.54357167
_cell_angle_gamma   53.54357721
_symmetry_Int_Tables_number   1
_chemical_formula_structural   La2Mg
_chemical_formula_sum   'La4 Mg2'
_cell_volume   197.25499753
_cell_formula_units_Z   2
loop_
 _symmetry_equiv_pos_site_id
 _symmetry_equiv_pos_as_xyz
  1  'x, y, z'
loop_
 _atom_site_type_symbol
 _atom_site_label
 _atom_site_symmetry_multiplicity
 _atom_site_fract_x
 _atom_site_fract_y
 _atom_site_fract_z
 _atom_site_occupancy
  La  La0  1  0.00000000  0.67798400  0.32201600  1
  La  La1  1  0.67798400  0.32201600  0.00000000  1
  La  La2  1  0.50000000  0.50000000  0.50000000  1
  La  La3  1  0.32201600  0.00000000  0.67798400  1
  Mg  Mg0  1  0.83263300  0.83263300  0.83263300  1
  Mg  Mg1  1  0.16736700  0.16736700  0.16736700  1
loop_
_geom_bond_atom_site_label_1
_geom_bond_atom_site_label_2
_geom_bond_distance
_geom_bond_site_symmetry_2
La0 La3 3.467293 1_564
La0 La1 3.467293 1_465
La0 Mg0 3.572759 1_454
La0 Mg1 3.572759 1_565
La0 Mg0 3.613311 1_455
La0 Mg1 3.613311 1_555
La0 La2 3.623375 1_455
La0 La2 3.623375 1_555
La0 La1 3.651606 1_456
La0 La3 3.651607 1_555
La0 La3 3.651607 1_465
La0 La1 3.651607 1_555
La1 La3 3.467293 1_654
La1 Mg0 3.572760 1_544
La1 Mg1 3.572760 1_655
La1 Mg1 3.613311 1_555
La1 Mg0 3.613311 1_554
La1 La2 3.623375 1_554
La1 La2 3.623375 1_555
La1 La3 3.651606 1_555
La1 La3 3.651607 1_564
La2 Mg0 3.589173 1_554
La2 Mg1 3.589173 1_556
La2 Mg0 3.589173 1_545
La2 Mg0 3.589173 1_455
La2 Mg1 3.589173 1_565
La2 Mg1 3.589173 1_655
La2 La3 3.623375 1_555
La2 La3 3.623375 1_565
La3 Mg1 3.572759 1_556
La3 Mg0 3.572759 1_445
La3 Mg1 3.613311 1_555
La3 Mg0 3.613311 1_545
Mg0 Mg1 3.589237 1_665
Mg0 Mg1 3.589238 1_656
Mg0 Mg1 3.589238 1_566
