# generated using pymatgen
data_Na2Zn2S3
_symmetry_space_group_name_H-M   'P 1'
_cell_length_a   7.45737800
_cell_length_b   7.45737800
_cell_length_c   11.27326000
_cell_angle_alpha   90.00000000
_cell_angle_beta   90.00000000
_cell_angle_gamma   90.00000000
_symmetry_Int_Tables_number   1
_chemical_formula_structural   Na2Zn2S3
_chemical_formula_sum   'Na8 Zn8 S12'
_cell_volume   626.93402108
_cell_formula_units_Z   4
loop_
 _symmetry_equiv_pos_site_id
 _symmetry_equiv_pos_as_xyz
  1  'x, y, z'
loop_
 _atom_site_type_symbol
 _atom_site_label
 _atom_site_symmetry_multiplicity
 _atom_site_fract_x
 _atom_site_fract_y
 _atom_site_fract_z
 _atom_site_occupancy
  Na  Na0  1  0.96523400  0.24465900  0.39659900  1
  Na  Na1  1  0.03476600  0.75534100  0.89659900  1
  Na  Na2  1  0.74465900  0.53476600  0.64659900  1
  Na  Na3  1  0.25534100  0.46523400  0.14659900  1
  Na  Na4  1  0.75534100  0.03476600  0.10340100  1
  Na  Na5  1  0.24465900  0.96523400  0.60340100  1
  Na  Na6  1  0.53476600  0.74465900  0.35340100  1
  Na  Na7  1  0.46523400  0.25534100  0.85340100  1
  Zn  Zn0  1  0.23721800  0.95178900  0.13494800  1
  Zn  Zn1  1  0.76278200  0.04821100  0.63494800  1
  Zn  Zn2  1  0.45178900  0.26278200  0.38494800  1
  Zn  Zn3  1  0.54821100  0.73721800  0.88494800  1
  Zn  Zn4  1  0.04821100  0.76278200  0.36505200  1
  Zn  Zn5  1  0.95178900  0.23721800  0.86505200  1
  Zn  Zn6  1  0.26278200  0.45178900  0.61505200  1
  Zn  Zn7  1  0.73721800  0.54821100  0.11505200  1
  S  S0  1  0.51814800  0.24005300  0.58887300  1
  S  S1  1  0.48185200  0.75994700  0.08887300  1
  S  S2  1  0.74005300  0.98185200  0.83887300  1
  S  S3  1  0.25994700  0.01814800  0.33887300  1
  S  S4  1  0.75994700  0.48185200  0.91112700  1
  S  S5  1  0.24005300  0.51814800  0.41112700  1
  S  S6  1  0.98185200  0.74005300  0.16112700  1
  S  S7  1  0.01814800  0.25994700  0.66112700  1
  S  S8  1  0.67853300  0.32146700  0.25000000  1
  S  S9  1  0.32146700  0.67853300  0.75000000  1
  S  S10  1  0.82146700  0.82146700  0.50000000  1
  S  S11  1  0.17853300  0.17853300  0.00000000  1
loop_
_geom_bond_atom_site_label_1
_geom_bond_atom_site_label_2
_geom_bond_distance
_geom_bond_site_symmetry_2
Na0 S8 2.762343 1_555
Na0 S3 2.847293 1_655
Na0 S5 2.895961 1_655
Na0 S7 3.010247 1_655
Na1 S9 2.762343 1_555
Na1 S2 2.847293 1_455
Na1 S4 2.895961 1_455
Na1 S6 3.010247 1_456
Na2 S10 2.762343 1_555
Na2 S0 2.847293 1_555
Na2 S7 2.895961 1_655
Na2 S4 3.010247 1_555
Na3 S11 2.762343 1_555
Na3 S1 2.847293 1_555
Na3 S6 2.895961 1_455
Na3 S5 3.010247 1_555
Na4 S8 2.762343 1_555
Na4 S6 2.847293 1_545
Na4 S1 2.895961 1_545
Na4 S2 3.010247 1_544
Na5 S9 2.762343 1_555
Na5 S7 2.847293 1_565
Na5 S0 2.895961 1_565
Na5 S3 3.010247 1_565
Na6 S10 2.762343 1_555
Na6 S5 2.847293 1_555
Na6 S3 2.895961 1_565
Na6 S1 3.010247 1_555
Na7 S11 2.762343 1_556
Na7 S4 2.847293 1_555
Na7 S2 2.895961 1_545
Na7 S0 3.010247 1_555
S0 Zn2 2.357660 1_555
S0 Zn1 2.375856 1_555
S0 Zn6 2.491368 1_555
S1 Zn3 2.357660 1_554
S1 Zn0 2.375856 1_555
S1 Zn7 2.491368 1_555
S2 Zn1 2.357660 1_565
S2 Zn3 2.375856 1_555
S2 Zn5 2.491368 1_565
S3 Zn0 2.357660 1_545
S3 Zn2 2.375856 1_555
S3 Zn4 2.491368 1_545
S4 Zn7 2.357660 1_556
S4 Zn5 2.375856 1_555
S4 Zn3 2.491368 1_555
S5 Zn6 2.357660 1_555
S5 Zn4 2.375856 1_555
S5 Zn2 2.491368 1_555
S6 Zn4 2.357660 1_655
S6 Zn7 2.375856 1_555
S6 Zn0 2.491368 1_655
S7 Zn5 2.357660 1_455
S7 Zn6 2.375856 1_555
S7 Zn1 2.491368 1_455
S8 Zn2 2.316266 1_555
S8 Zn7 2.316266 1_555
S9 Zn3 2.316266 1_555
S9 Zn6 2.316266 1_555
S10 Zn1 2.316266 1_565
S10 Zn4 2.316266 1_655
S11 Zn0 2.316266 1_545
S11 Zn5 2.316266 1_454
