# generated using pymatgen
data_KH3(SeO3)2
_symmetry_space_group_name_H-M   'P 1'
_cell_length_a   16.51111800
_cell_length_b   6.40526400
_cell_length_c   6.45160178
_cell_angle_alpha   88.07874523
_cell_angle_beta   90.00000000
_cell_angle_gamma   90.00000000
_symmetry_Int_Tables_number   1
_chemical_formula_structural   KH3(SeO3)2
_chemical_formula_sum   'K4 H12 Se8 O24'
_cell_volume   681.92538964
_cell_formula_units_Z   4
loop_
 _symmetry_equiv_pos_site_id
 _symmetry_equiv_pos_as_xyz
  1  'x, y, z'
loop_
 _atom_site_type_symbol
 _atom_site_label
 _atom_site_symmetry_multiplicity
 _atom_site_fract_x
 _atom_site_fract_y
 _atom_site_fract_z
 _atom_site_occupancy
  K  K0  1  0.00120300  0.31198700  0.75477600  1
  K  K1  1  0.99879700  0.68801300  0.24522400  1
  K  K2  1  0.50120300  0.18801300  0.24522400  1
  K  K3  1  0.49879700  0.81198700  0.75477600  1
  H  H0  1  0.32512600  0.06902700  0.53219800  1
  H  H1  1  0.67487400  0.93097300  0.46780200  1
  H  H2  1  0.82512600  0.43097300  0.46780200  1
  H  H3  1  0.17487400  0.56902700  0.53219800  1
  H  H4  1  0.16914200  0.44009800  0.02768400  1
  H  H5  1  0.83085800  0.55990200  0.97231600  1
  H  H6  1  0.66914200  0.05990200  0.97231600  1
  H  H7  1  0.33085800  0.94009800  0.02768400  1
  H  H8  1  0.01112100  0.12104900  0.24277800  1
  H  H9  1  0.98887900  0.87895100  0.75722200  1
  H  H10  1  0.51112100  0.37895100  0.75722200  1
  H  H11  1  0.48887900  0.62104900  0.24277800  1
  Se  Se0  1  0.34960600  0.31316900  0.78485500  1
  Se  Se1  1  0.65039400  0.68683100  0.21514500  1
  Se  Se2  1  0.84960600  0.18683100  0.21514500  1
  Se  Se3  1  0.15039400  0.81316900  0.78485500  1
  Se  Se4  1  0.15058700  0.19473100  0.30224000  1
  Se  Se5  1  0.84941300  0.80526900  0.69776000  1
  Se  Se6  1  0.65058700  0.30526900  0.69776000  1
  Se  Se7  1  0.34941300  0.69473100  0.30224000  1
  O  O0  1  0.38912700  0.10759800  0.92600800  1
  O  O1  1  0.61087300  0.89240200  0.07399200  1
  O  O2  1  0.88912700  0.39240200  0.07399200  1
  O  O3  1  0.11087300  0.60759800  0.92600800  1
  O  O4  1  0.43137600  0.39851500  0.64065500  1
  O  O5  1  0.56862400  0.60148500  0.35934500  1
  O  O6  1  0.93137600  0.10148500  0.35934500  1
  O  O7  1  0.06862400  0.89851500  0.64065500  1
  O  O8  1  0.29008000  0.18301600  0.59064200  1
  O  O9  1  0.70992000  0.81698400  0.40935800  1
  O  O10  1  0.79008000  0.31698400  0.40935800  1
  O  O11  1  0.20992000  0.68301600  0.59064200  1
  O  O12  1  0.11095200  0.39393700  0.43237200  1
  O  O13  1  0.88904800  0.60606300  0.56762800  1
  O  O14  1  0.61095200  0.10606300  0.56762800  1
  O  O15  1  0.38904800  0.89393700  0.43237200  1
  O  O16  1  0.06418400  0.11163300  0.15472500  1
  O  O17  1  0.93581600  0.88836700  0.84527500  1
  O  O18  1  0.56418400  0.38836700  0.84527500  1
  O  O19  1  0.43581600  0.61163300  0.15472500  1
  O  O20  1  0.20280200  0.31678800  0.09151800  1
  O  O21  1  0.79719800  0.68321200  0.90848200  1
  O  O22  1  0.70280200  0.18321200  0.90848200  1
  O  O23  1  0.29719800  0.81678800  0.09151800  1
loop_
_geom_bond_atom_site_label_1
_geom_bond_atom_site_label_2
_geom_bond_distance
_geom_bond_site_symmetry_2
K0 O12 2.795075 1_555
K0 O2 2.828805 1_456
K0 O3 2.867888 1_555
K0 O13 2.877948 1_455
K0 O17 2.960196 1_445
K0 O7 2.987648 1_545
K0 O16 3.027251 1_556
K0 O6 3.144245 1_455
K1 O13 2.795075 1_555
K1 O3 2.828805 1_654
K1 O2 2.867888 1_555
K1 O12 2.877948 1_655
K1 O16 2.960196 1_665
K1 O6 2.987648 1_565
K1 O17 3.027251 1_554
K1 O7 3.144245 1_655
K2 O14 2.795075 1_555
K2 O0 2.828805 1_554
K2 O1 2.867888 1_545
K2 O15 2.877948 1_545
K2 O19 2.960196 1_555
K2 O5 2.987648 1_555
K2 O18 3.027251 1_554
K2 O4 3.144245 1_555
K3 O15 2.795075 1_555
K3 O1 2.828805 1_556
K3 O0 2.867888 1_565
K3 O14 2.877948 1_565
K3 O18 2.960196 1_555
K3 O4 2.987648 1_555
K3 O19 3.027251 1_556
K3 O5 3.144245 1_555
H0 O8 1.014177 1_555
H0 O15 1.683714 1_545
H1 O9 1.014177 1_555
H1 O14 1.683714 1_565
H2 O10 1.014177 1_555
H2 O13 1.683714 1_555
H3 O11 1.014177 1_555
H3 O12 1.683714 1_555
H4 O20 1.039473 1_555
H4 O3 1.568374 1_554
H5 O21 1.039473 1_555
H5 O2 1.568374 1_556
H6 O22 1.039473 1_555
H6 O1 1.568374 1_546
H7 O23 1.039473 1_555
H7 O0 1.568374 1_564
H8 O16 1.047022 1_555
H8 O6 1.519407 1_455
H8 K1 2.780681 1_445
H9 O17 1.047022 1_555
H9 O7 1.519407 1_655
H9 K0 2.780681 1_665
H10 O18 1.047022 1_555
H10 O4 1.519407 1_555
H10 K3 2.780681 1_555
H11 O19 1.047022 1_555
H11 O5 1.519407 1_555
H11 K2 2.780681 1_555
O0 Se0 1.705433 1_555
O1 Se1 1.705433 1_555
O2 Se2 1.705433 1_555
O3 Se3 1.705433 1_555
O4 Se0 1.718443 1_555
O5 Se1 1.718443 1_555
O6 Se2 1.718443 1_555
O7 Se3 1.718443 1_555
O8 Se0 1.816861 1_555
O9 Se1 1.816861 1_555
O10 Se2 1.816861 1_555
O11 Se3 1.816861 1_555
O12 Se4 1.683165 1_555
O13 Se5 1.683165 1_555
O14 Se6 1.683165 1_555
O15 Se7 1.683165 1_555
O16 Se4 1.805058 1_555
O17 Se5 1.805058 1_555
O18 Se6 1.805058 1_555
O19 Se7 1.805058 1_555
O20 Se4 1.769589 1_555
O21 Se5 1.769589 1_555
O22 Se6 1.769589 1_555
O23 Se7 1.769589 1_555
