# generated using pymatgen
data_SnP2(HO4)2
_symmetry_space_group_name_H-M   'P 1'
_cell_length_a   4.96739357
_cell_length_b   8.13917900
_cell_length_c   8.92398831
_cell_angle_alpha   117.13110759
_cell_angle_beta   98.01914250
_cell_angle_gamma   90.00000000
_symmetry_Int_Tables_number   1
_chemical_formula_structural   SnP2(HO4)2
_chemical_formula_sum   'Sn2 P4 H4 O16'
_cell_volume   317.13125141
_cell_formula_units_Z   2
loop_
 _symmetry_equiv_pos_site_id
 _symmetry_equiv_pos_as_xyz
  1  'x, y, z'
loop_
 _atom_site_type_symbol
 _atom_site_label
 _atom_site_symmetry_multiplicity
 _atom_site_fract_x
 _atom_site_fract_y
 _atom_site_fract_z
 _atom_site_occupancy
  Sn  Sn0  1  0.25000000  0.13942900  0.00000000  1
  Sn  Sn1  1  0.75000000  0.86057100  0.00000000  1
  P  P0  1  0.19781400  0.65403300  0.74242600  1
  P  P1  1  0.30218600  0.91160700  0.25757400  1
  P  P2  1  0.80218600  0.34596700  0.25757400  1
  P  P3  1  0.69781400  0.08839300  0.74242600  1
  H  H0  1  0.15765400  0.60713700  0.47078200  1
  H  H1  1  0.34234600  0.13635500  0.52921800  1
  H  H2  1  0.84234600  0.39286300  0.52921800  1
  H  H3  1  0.65765400  0.86364500  0.47078200  1
  O  O0  1  0.99411700  0.49965800  0.70326700  1
  O  O1  1  0.50588300  0.79639000  0.29673300  1
  O  O2  1  0.00588300  0.50034200  0.29673300  1
  O  O3  1  0.49411700  0.20361000  0.70326700  1
  O  O4  1  0.46742500  0.65118300  0.85603700  1
  O  O5  1  0.03257500  0.79514600  0.14396300  1
  O  O6  1  0.53257500  0.34881700  0.14396300  1
  O  O7  1  0.96742500  0.20485400  0.85603700  1
  O  O8  1  0.06060600  0.84849600  0.85701800  1
  O  O9  1  0.43939400  0.99147900  0.14298200  1
  O  O10  1  0.93939400  0.15150400  0.14298200  1
  O  O11  1  0.56060600  0.00852100  0.85701800  1
  O  O12  1  0.27904100  0.67484700  0.59072100  1
  O  O13  1  0.22095900  0.08412600  0.40927900  1
  O  O14  1  0.72095900  0.32515300  0.40927900  1
  O  O15  1  0.77904100  0.91587400  0.59072100  1
loop_
_geom_bond_atom_site_label_1
_geom_bond_atom_site_label_2
_geom_bond_distance
_geom_bond_site_symmetry_2
H0 O12 1.046353 1_555
H0 O2 1.475914 1_555
H1 O13 1.046353 1_555
H1 O3 1.475913 1_555
H2 O14 1.046353 1_555
H2 O0 1.475914 1_555
H3 O15 1.046353 1_555
H3 O1 1.475913 1_555
O0 P0 1.491837 1_655
O1 P1 1.491843 1_555
O2 P2 1.491837 1_455
O3 P3 1.491843 1_555
O4 P0 1.569933 1_555
O4 Sn1 2.006281 1_556
O5 P1 1.569933 1_555
O5 Sn1 2.006281 1_455
O6 P2 1.569933 1_555
O6 Sn0 2.006281 1_555
O7 P3 1.569933 1_555
O7 Sn0 2.006281 1_656
O8 P0 1.653383 1_555
O8 Sn1 2.110264 1_456
O8 Sn0 2.242712 1_566
O9 P1 1.653389 1_555
O9 Sn1 2.110265 1_555
O9 Sn0 2.242705 1_565
O10 P2 1.653383 1_555
O10 Sn0 2.110264 1_655
O10 Sn1 2.242712 1_545
O11 P3 1.653389 1_555
O11 Sn0 2.110265 1_556
O11 Sn1 2.242705 1_546
O12 P0 1.544635 1_555
O13 P1 1.544635 1_545
O14 P2 1.544635 1_555
O15 P3 1.544635 1_565
