# generated using pymatgen
data_TmNi4B
_symmetry_space_group_name_H-M   'P 1'
_cell_length_a   4.89652031
_cell_length_b   4.89652204
_cell_length_c   6.86405675
_cell_angle_alpha   90.00000000
_cell_angle_beta   90.00000000
_cell_angle_gamma   120.00000187
_symmetry_Int_Tables_number   1
_chemical_formula_structural   TmNi4B
_chemical_formula_sum   'Tm2 Ni8 B2'
_cell_volume   142.52359329
_cell_formula_units_Z   2
loop_
 _symmetry_equiv_pos_site_id
 _symmetry_equiv_pos_as_xyz
  1  'x, y, z'
loop_
 _atom_site_type_symbol
 _atom_site_label
 _atom_site_symmetry_multiplicity
 _atom_site_fract_x
 _atom_site_fract_y
 _atom_site_fract_z
 _atom_site_occupancy
  Tm  Tm0  1  0.00000000  -0.00000000  0.50000000  1
  Tm  Tm1  1  0.00000000  -0.00000000  0.00000000  1
  Ni  Ni0  1  0.00000000  0.50000000  0.29099521  1
  Ni  Ni1  1  0.50000000  0.50000000  0.29099521  1
  Ni  Ni2  1  0.50000000  0.50000000  0.70900479  1
  Ni  Ni3  1  0.50000000  -0.00000000  0.70900479  1
  Ni  Ni4  1  0.00000000  0.50000000  0.70900479  1
  Ni  Ni5  1  0.66666700  0.33333300  0.00000000  1
  Ni  Ni6  1  0.33333300  0.66666700  0.00000000  1
  Ni  Ni7  1  0.50000000  -0.00000000  0.29099521  1
  B  B0  1  0.66666700  0.33333300  0.50000000  1
  B  B1  1  0.33333300  0.66666700  0.50000000  1
loop_
_geom_bond_atom_site_label_1
_geom_bond_atom_site_label_2
_geom_bond_distance
_geom_bond_site_symmetry_2
Ni0 Ni5 2.446963 1_455
Ni0 Ni6 2.446963 1_555
Ni0 Tm0 2.837626 1_555
Ni0 Tm0 2.837626 1_565
Ni1 Ni6 2.446965 1_555
Ni1 Ni5 2.446965 1_555
Ni1 Tm0 2.837625 1_555
Ni1 Tm0 2.837625 1_665
Ni2 Ni6 2.446965 1_556
Ni2 Ni5 2.446965 1_556
Ni2 Tm0 2.837625 1_555
Ni2 Tm0 2.837625 1_665
Ni3 Ni5 2.446963 1_556
Ni3 Ni6 2.446963 1_546
Ni3 Tm0 2.837625 1_555
Ni3 Tm0 2.837625 1_655
Ni4 Ni6 2.446963 1_556
Ni4 Ni5 2.446963 1_456
Ni4 Tm0 2.837626 1_555
Ni4 Tm0 2.837626 1_565
Ni5 Ni7 2.446963 1_555
Ni5 Ni6 2.827004 1_655
Ni5 Tm1 2.827005 1_655
Ni5 Ni6 2.827005 1_545
Ni5 Tm1 2.827009 1_555
Ni5 Tm1 2.827010 1_665
Ni5 Ni6 2.827014 1_555
Ni6 Ni7 2.446963 1_565
Ni6 Tm1 2.827005 1_565
Ni6 Tm1 2.827009 1_665
Ni6 Tm1 2.827010 1_555
Ni7 Tm0 2.837625 1_555
Ni7 Tm0 2.837625 1_655
B0 Ni0 2.013982 1_655
B0 Ni4 2.013982 1_655
B0 Ni3 2.013983 1_555
B0 Ni7 2.013983 1_555
B0 Ni1 2.013986 1_555
B0 Ni2 2.013986 1_555
B0 Tm0 2.827005 1_655
B0 Tm0 2.827009 1_555
B0 Tm0 2.827010 1_665
B1 Ni0 2.013982 1_555
B1 Ni4 2.013982 1_555
B1 Ni7 2.013983 1_565
B1 Ni3 2.013983 1_565
B1 Ni1 2.013986 1_555
B1 Ni2 2.013986 1_555
B1 Tm0 2.827005 1_565
B1 Tm0 2.827009 1_665
B1 Tm0 2.827010 1_555
