# generated using pymatgen
data_RbIrN2
_symmetry_space_group_name_H-M   'P 1'
_cell_length_a   5.82918100
_cell_length_b   11.73355400
_cell_length_c   17.24420100
_cell_angle_alpha   90.00000000
_cell_angle_beta   90.00000000
_cell_angle_gamma   90.00000000
_symmetry_Int_Tables_number   1
_chemical_formula_structural   RbIrN2
_chemical_formula_sum   'Rb16 Ir16 N32'
_cell_volume   1179.45178892
_cell_formula_units_Z   16
loop_
 _symmetry_equiv_pos_site_id
 _symmetry_equiv_pos_as_xyz
  1  'x, y, z'
loop_
 _atom_site_type_symbol
 _atom_site_label
 _atom_site_symmetry_multiplicity
 _atom_site_fract_x
 _atom_site_fract_y
 _atom_site_fract_z
 _atom_site_occupancy
  Rb  Rb0  1  0.24928900  0.01099400  0.43732700  1
  Rb  Rb1  1  0.74928900  0.48900600  0.56267300  1
  Rb  Rb2  1  0.75071100  0.51099400  0.06267300  1
  Rb  Rb3  1  0.25071100  0.98900600  0.93732700  1
  Rb  Rb4  1  0.75071100  0.98900600  0.56267300  1
  Rb  Rb5  1  0.25071100  0.51099400  0.43732700  1
  Rb  Rb6  1  0.24928900  0.48900600  0.93732700  1
  Rb  Rb7  1  0.74928900  0.01099400  0.06267300  1
  Rb  Rb8  1  0.32536900  0.26173400  0.31416500  1
  Rb  Rb9  1  0.82536900  0.23826600  0.68583500  1
  Rb  Rb10  1  0.67463100  0.76173400  0.18583500  1
  Rb  Rb11  1  0.17463100  0.73826600  0.81416500  1
  Rb  Rb12  1  0.67463100  0.73826600  0.68583500  1
  Rb  Rb13  1  0.17463100  0.76173400  0.31416500  1
  Rb  Rb14  1  0.32536900  0.23826600  0.81416500  1
  Rb  Rb15  1  0.82536900  0.26173400  0.18583500  1
  Ir  Ir0  1  0.75219300  0.01035700  0.31067600  1
  Ir  Ir1  1  0.25219300  0.48964300  0.68932400  1
  Ir  Ir2  1  0.24780700  0.51035700  0.18932400  1
  Ir  Ir3  1  0.74780700  0.98964300  0.81067600  1
  Ir  Ir4  1  0.24780700  0.98964300  0.68932400  1
  Ir  Ir5  1  0.74780700  0.51035700  0.31067600  1
  Ir  Ir6  1  0.75219300  0.48964300  0.81067600  1
  Ir  Ir7  1  0.25219300  0.01035700  0.18932400  1
  Ir  Ir8  1  0.80465800  0.25991800  0.43585800  1
  Ir  Ir9  1  0.30465800  0.24008200  0.56414200  1
  Ir  Ir10  1  0.19534200  0.75991800  0.06414200  1
  Ir  Ir11  1  0.69534200  0.74008200  0.93585800  1
  Ir  Ir12  1  0.19534200  0.74008200  0.56414200  1
  Ir  Ir13  1  0.69534200  0.75991800  0.43585800  1
  Ir  Ir14  1  0.80465800  0.24008200  0.93585800  1
  Ir  Ir15  1  0.30465800  0.25991800  0.06414200  1
  N  N0  1  0.07689800  0.29111700  0.49276800  1
  N  N1  1  0.57689800  0.20888300  0.50723200  1
  N  N2  1  0.92310200  0.79111700  0.00723200  1
  N  N3  1  0.42310200  0.70888300  0.99276800  1
  N  N4  1  0.92310200  0.70888300  0.50723200  1
  N  N5  1  0.42310200  0.79111700  0.49276800  1
  N  N6  1  0.07689800  0.20888300  0.99276800  1
  N  N7  1  0.57689800  0.29111700  0.00723200  1
  N  N8  1  0.70264300  0.40459200  0.39378900  1
  N  N9  1  0.20264300  0.09540800  0.60621100  1
  N  N10  1  0.29735700  0.90459200  0.10621100  1
  N  N11  1  0.79735700  0.59540800  0.89378900  1
  N  N12  1  0.29735700  0.59540800  0.60621100  1
  N  N13  1  0.79735700  0.90459200  0.39378900  1
  N  N14  1  0.70264300  0.09540800  0.89378900  1
  N  N15  1  0.20264300  0.40459200  0.10621100  1
  N  N16  1  0.82579300  0.15728800  0.34977000  1
  N  N17  1  0.32579300  0.34271200  0.65023000  1
  N  N18  1  0.17420700  0.65728800  0.15023000  1
  N  N19  1  0.67420700  0.84271200  0.84977000  1
  N  N20  1  0.17420700  0.84271200  0.65023000  1
  N  N21  1  0.67420700  0.65728800  0.34977000  1
  N  N22  1  0.82579300  0.34271200  0.84977000  1
  N  N23  1  0.32579300  0.15728800  0.15023000  1
  N  N24  1  0.55911600  0.48120000  0.22153400  1
  N  N25  1  0.05911600  0.01880000  0.77846600  1
  N  N26  1  0.44088400  0.98120000  0.27846600  1
  N  N27  1  0.94088400  0.51880000  0.72153400  1
  N  N28  1  0.44088400  0.51880000  0.77846600  1
  N  N29  1  0.94088400  0.98120000  0.22153400  1
  N  N30  1  0.55911600  0.01880000  0.72153400  1
  N  N31  1  0.05911600  0.48120000  0.27846600  1
loop_
_geom_bond_atom_site_label_1
_geom_bond_atom_site_label_2
_geom_bond_distance
_geom_bond_site_symmetry_2
Ir0 N16 1.900208 1_555
Ir0 N13 1.914028 1_545
Ir0 N29 1.920881 1_545
Ir0 N26 1.928368 1_545
Ir1 N17 1.900208 1_555
Ir1 N12 1.914028 1_555
Ir1 N28 1.920881 1_555
Ir1 N27 1.928368 1_455
Ir2 N18 1.900208 1_555
Ir2 N15 1.914028 1_555
Ir2 N31 1.920881 1_555
Ir2 N24 1.928368 1_555
Ir3 N19 1.900208 1_555
Ir3 N14 1.914028 1_565
Ir3 N30 1.920881 1_565
Ir3 N25 1.928368 1_665
Ir4 N20 1.900208 1_555
Ir4 N9 1.914028 1_565
Ir4 N25 1.920881 1_565
Ir4 N30 1.928368 1_565
Ir5 N21 1.900208 1_555
Ir5 N8 1.914028 1_555
Ir5 N24 1.920881 1_555
Ir5 N31 1.928368 1_655
Ir6 N22 1.900208 1_555
Ir6 N11 1.914028 1_555
Ir6 N27 1.920881 1_555
Ir6 N28 1.928368 1_555
Ir7 N23 1.900208 1_555
Ir7 N10 1.914028 1_545
Ir7 N26 1.920881 1_545
Ir7 N29 1.928368 1_445
Ir8 N0 1.901436 1_655
Ir8 N1 1.906854 1_555
Ir8 N16 1.915491 1_555
Ir8 N8 1.939469 1_555
Ir9 N1 1.901436 1_555
Ir9 N0 1.906854 1_555
Ir9 N17 1.915491 1_555
Ir9 N9 1.939469 1_555
Ir10 N2 1.901436 1_455
Ir10 N3 1.906854 1_554
Ir10 N18 1.915491 1_555
Ir10 N10 1.939469 1_555
Ir11 N3 1.901436 1_555
Ir11 N2 1.906854 1_556
Ir11 N19 1.915491 1_555
Ir11 N11 1.939469 1_555
Ir12 N4 1.901436 1_455
Ir12 N5 1.906854 1_555
Ir12 N20 1.915491 1_555
Ir12 N12 1.939469 1_555
Ir13 N5 1.901436 1_555
Ir13 N4 1.906854 1_555
Ir13 N21 1.915491 1_555
Ir13 N13 1.939469 1_555
Ir14 N6 1.901436 1_655
Ir14 N7 1.906854 1_556
Ir14 N22 1.915491 1_555
Ir14 N14 1.939469 1_555
Ir15 N7 1.901436 1_555
Ir15 N6 1.906854 1_554
Ir15 N23 1.915491 1_555
Ir15 N15 1.939469 1_555
N0 Rb5 2.932002 1_555
N0 Rb1 3.239052 1_455
N0 Rb8 3.420855 1_555
N1 Rb4 2.932002 1_545
N1 Rb0 3.239052 1_555
N1 Rb9 3.420855 1_555
N2 Rb7 2.932002 1_565
N2 Rb3 3.239052 1_654
N2 Rb10 3.420855 1_555
N3 Rb6 2.932002 1_555
N3 Rb2 3.239052 1_556
N3 Rb11 3.420855 1_555
N4 Rb1 2.932002 1_555
N4 Rb5 3.239052 1_655
N4 Rb12 3.420855 1_555
N5 Rb0 2.932002 1_565
N5 Rb4 3.239052 1_555
N5 Rb13 3.420855 1_555
N6 Rb3 2.932002 1_545
N6 Rb7 3.239052 1_456
N6 Rb14 3.420855 1_555
N7 Rb2 2.932002 1_555
N7 Rb6 3.239052 1_554
N7 Rb15 3.420855 1_555
N8 Rb5 3.010379 1_555
N8 Rb8 3.087313 1_555
N8 Rb1 3.088089 1_555
N9 Rb4 3.010379 1_445
N9 Rb9 3.087313 1_455
N9 Rb0 3.088089 1_555
N10 Rb7 3.010379 1_565
N10 Rb10 3.087313 1_555
N10 Rb3 3.088089 1_554
N11 Rb6 3.010379 1_655
N11 Rb11 3.087313 1_655
N11 Rb2 3.088089 1_556
N12 Rb1 3.010379 1_555
N12 Rb12 3.087313 1_555
N12 Rb5 3.088089 1_555
N13 Rb0 3.010379 1_665
N13 Rb13 3.087313 1_655
N13 Rb4 3.088089 1_555
N14 Rb3 3.010379 1_545
N14 Rb14 3.087313 1_555
N14 Rb7 3.088089 1_556
N15 Rb2 3.010379 1_455
N15 Rb15 3.087313 1_455
N15 Rb6 3.088089 1_554
N16 Rb15 3.081142 1_555
N16 Rb8 3.218589 1_655
N16 Rb8 3.223062 1_555
N16 Rb0 3.364572 1_655
N17 Rb14 3.081142 1_555
N17 Rb9 3.218589 1_555
N17 Rb9 3.223062 1_455
N17 Rb1 3.364572 1_555
N18 Rb13 3.081142 1_555
N18 Rb10 3.218589 1_455
N18 Rb10 3.223062 1_555
N18 Rb2 3.364572 1_455
N19 Rb12 3.081142 1_555
N19 Rb11 3.218589 1_555
N19 Rb11 3.223062 1_655
N19 Rb3 3.364572 1_555
N20 Rb11 3.081142 1_555
N20 Rb12 3.218589 1_455
N20 Rb12 3.223062 1_555
N20 Rb4 3.364572 1_455
N21 Rb10 3.081142 1_555
N21 Rb13 3.218589 1_555
N21 Rb13 3.223062 1_655
N21 Rb5 3.364572 1_555
N22 Rb9 3.081142 1_555
N22 Rb14 3.218589 1_655
N22 Rb14 3.223062 1_555
N22 Rb6 3.364572 1_655
N23 Rb8 3.081142 1_555
N23 Rb15 3.218589 1_555
N23 Rb15 3.223062 1_455
N23 Rb7 3.364572 1_555
N24 Rb2 2.978931 1_555
N24 Rb15 3.069040 1_555
N24 Rb8 3.322543 1_555
N24 Rb10 3.415758 1_555
N25 Rb3 2.978931 1_545
N25 Rb14 3.069040 1_555
N25 Rb9 3.322543 1_455
N25 Rb11 3.415758 1_545
N26 Rb0 2.978931 1_565
N26 Rb13 3.069040 1_555
N26 Rb10 3.322543 1_555
N26 Rb8 3.415758 1_565
N27 Rb1 2.978931 1_555
N27 Rb12 3.069040 1_555
N27 Rb11 3.322543 1_655
N27 Rb9 3.415758 1_555
N28 Rb6 2.978931 1_555
N28 Rb11 3.069040 1_555
N28 Rb12 3.322543 1_555
N28 Rb14 3.415758 1_555
N29 Rb7 2.978931 1_565
N29 Rb10 3.069040 1_555
N29 Rb13 3.322543 1_655
N29 Rb15 3.415758 1_565
N30 Rb4 2.978931 1_545
N30 Rb9 3.069040 1_555
N30 Rb14 3.322543 1_555
N30 Rb12 3.415758 1_545
N31 Rb5 2.978931 1_555
N31 Rb8 3.069040 1_555
N31 Rb15 3.322543 1_455
N31 Rb13 3.415758 1_555
