# generated using pymatgen
data_ScAgSn
_symmetry_space_group_name_H-M   'P 1'
_cell_length_a   8.35217598
_cell_length_b   8.35235739
_cell_length_c   8.35224459
_cell_angle_alpha   129.40100853
_cell_angle_beta   117.01800396
_cell_angle_gamma   84.89087417
_symmetry_Int_Tables_number   1
_chemical_formula_structural   ScAgSn
_chemical_formula_sum   'Sc6 Ag6 Sn6'
_cell_volume   383.91824015
_cell_formula_units_Z   6
loop_
 _symmetry_equiv_pos_site_id
 _symmetry_equiv_pos_as_xyz
  1  'x, y, z'
loop_
 _atom_site_type_symbol
 _atom_site_label
 _atom_site_symmetry_multiplicity
 _atom_site_fract_x
 _atom_site_fract_y
 _atom_site_fract_z
 _atom_site_occupancy
  Sc  Sc0  1  0.04201342  0.82713907  0.28510899  1
  Sc  Sc1  1  0.95798876  0.24307991  0.78507980  1
  Sc  Sc2  1  0.47928671  0.23981331  0.26048493  1
  Sc  Sc3  1  0.52068175  0.78125526  0.76049510  1
  Sc  Sc4  1  0.74873175  0.67798903  0.42922775  1
  Sc  Sc5  1  0.25123520  0.68049986  0.92923778  1
  Ag  Ag0  1  0.00007107  0.99867970  0.99873927  1
  Ag  Ag1  1  0.50007246  0.99866404  0.49873305  1
  Ag  Ag2  1  0.64505322  0.48899843  0.89021917  1
  Ag  Ag3  1  0.35496702  0.24518237  0.84398165  1
  Ag  Ag4  1  0.90114093  0.24514960  0.39011483  1
  Ag  Ag5  1  0.09882939  0.48894729  0.34397468  1
  Sn  Sn0  1  0.27130873  0.26544745  0.49421836  1
  Sn  Sn1  1  0.72869138  0.22288339  0.99420480  1
  Sn  Sn2  1  0.83630860  0.57618482  0.74631938  1
  Sn  Sn3  1  0.16366215  0.90999577  0.73981485  1
  Sn  Sn4  1  0.67011790  0.90998970  0.24627724  1
  Sn  Sn5  1  0.32984056  0.57618299  0.23984937  1
loop_
_geom_bond_atom_site_label_1
_geom_bond_atom_site_label_2
_geom_bond_distance
_geom_bond_site_symmetry_2
Sc0 Sn3 3.036039 1_555
Sc0 Sn4 3.036272 1_455
Sc0 Sn5 3.039383 1_555
Sc0 Sn2 3.039529 1_454
Sc0 Sn0 3.195799 1_565
Sc0 Sc5 3.620038 1_554
Sc0 Sc1 3.716334 1_465
Sc0 Sc1 3.716867 1_454
Sc0 Sc4 3.758602 1_455
Sc1 Sn2 3.036325 1_555
Sc1 Sn5 3.036340 1_656
Sc1 Sn3 3.039278 1_645
Sc1 Sn4 3.039691 1_545
Sc1 Sn1 3.196522 1_555
Sc1 Sc4 3.620281 1_545
Sc1 Sc5 3.758528 1_655
Sc2 Sn4 3.019640 1_545
Sc2 Sn3 3.019836 1_544
Sc2 Sn5 3.045581 1_555
Sc2 Sn2 3.045807 1_555
Sc2 Sn0 3.059155 1_555
Sc2 Sc4 3.533015 1_555
Sc2 Sc5 3.673609 1_544
Sc3 Sn5 3.019546 1_555
Sc3 Sn2 3.019785 1_555
Sc3 Sn3 3.045408 1_555
Sc3 Sn4 3.045650 1_556
Sc3 Sn1 3.058485 1_565
Sc3 Sc5 3.533244 1_555
Sc3 Sc4 3.673291 1_555
Sc4 Sn3 3.023468 1_655
Sc4 Sn4 3.023525 1_555
Sc4 Sn5 3.043043 1_555
Sc4 Sn2 3.043066 1_555
Sc4 Sn1 3.115496 1_554
Sc5 Sn2 3.023375 1_455
Sc5 Sn5 3.023376 1_556
Sc5 Sn4 3.043026 1_556
Sc5 Sn3 3.043208 1_555
Sc5 Sn0 3.115635 1_555
Ag0 Sn3 2.750122 1_555
Ag0 Sn2 2.750153 1_455
Ag0 Sn0 2.810401 1_566
Ag0 Sn1 2.811008 1_465
Ag0 Ag5 3.035475 1_566
Ag0 Ag4 3.035510 1_466
Ag0 Sc5 3.155185 1_555
Ag0 Sc4 3.156310 1_455
Ag0 Sc0 3.375827 1_556
Ag0 Sc1 3.376675 1_465
Ag0 Sc2 3.570986 1_566
Ag0 Sc3 3.571831 1_455
Ag1 Sn4 2.750026 1_555
Ag1 Sn5 2.750085 1_555
Ag1 Sn1 2.810320 1_565
Ag1 Sn0 2.810732 1_565
Ag1 Ag2 3.035861 1_565
Ag1 Ag3 3.035913 1_565
Ag1 Sc4 3.155131 1_555
Ag1 Sc5 3.156228 1_554
Ag1 Sc1 3.375939 1_565
Ag1 Sc0 3.376682 1_555
Ag1 Sc3 3.570615 1_555
Ag1 Sc2 3.571931 1_565
Ag2 Sn4 2.746349 1_556
Ag2 Sn2 2.754828 1_555
Ag2 Sn1 2.793841 1_555
Ag2 Sn0 2.826296 1_555
Ag2 Sc0 3.123219 1_656
Ag2 Sc3 3.177269 1_555
Ag2 Sc1 3.265085 1_555
Ag2 Sc4 3.345009 1_556
Ag2 Sc5 3.585915 1_555
Ag3 Sn5 2.746304 1_556
Ag3 Sn3 2.754866 1_545
Ag3 Sn0 2.793394 1_555
Ag3 Sn1 2.826137 1_555
Ag3 Sc1 3.123007 1_455
Ag3 Sc2 3.176440 1_556
Ag3 Sc0 3.265305 1_545
Ag3 Sc5 3.345192 1_555
Ag3 Sc4 3.585700 1_556
Ag4 Sn2 2.746550 1_555
Ag4 Sn4 2.754905 1_545
Ag4 Sn0 2.794149 1_655
Ag4 Sn1 2.825503 1_554
Ag4 Sc1 3.123458 1_555
Ag4 Sc2 3.176381 1_555
Ag4 Sc0 3.265255 1_645
Ag4 Sc5 3.345656 1_655
Ag4 Sc4 3.585509 1_555
Ag5 Sn3 2.746597 1_555
Ag5 Sn5 2.754878 1_555
Ag5 Sn1 2.794042 1_454
Ag5 Sn0 2.826159 1_555
Ag5 Sc0 3.123809 1_555
Ag5 Sc3 3.176609 1_555
Ag5 Sc1 3.265461 1_454
Ag5 Sc4 3.345505 1_455
Ag5 Sc5 3.585551 1_555
