# generated using pymatgen
data_TiH8(OF2)3
_symmetry_space_group_name_H-M   'P 1'
_cell_length_a   6.67356700
_cell_length_b   8.28923600
_cell_length_c   13.14278700
_cell_angle_alpha   90.00000000
_cell_angle_beta   90.00000000
_cell_angle_gamma   90.00000000
_symmetry_Int_Tables_number   1
_chemical_formula_structural   TiH8(OF2)3
_chemical_formula_sum   'Ti4 H32 O12 F24'
_cell_volume   727.04283520
_cell_formula_units_Z   4
loop_
 _symmetry_equiv_pos_site_id
 _symmetry_equiv_pos_as_xyz
  1  'x, y, z'
loop_
 _atom_site_type_symbol
 _atom_site_label
 _atom_site_symmetry_multiplicity
 _atom_site_fract_x
 _atom_site_fract_y
 _atom_site_fract_z
 _atom_site_occupancy
  Ti  Ti0  1  0.63688800  0.25011100  0.68124700  1
  Ti  Ti1  1  0.86311200  0.25011100  0.18124700  1
  Ti  Ti2  1  0.36311200  0.75011100  0.31875300  1
  Ti  Ti3  1  0.13688800  0.75011100  0.81875300  1
  H  H0  1  0.57047100  0.60365800  0.88182200  1
  H  H1  1  0.93748600  0.90239000  0.38704300  1
  H  H2  1  0.42952900  0.10365800  0.11817800  1
  H  H3  1  0.06251400  0.40239000  0.61295700  1
  H  H4  1  0.43748600  0.40239000  0.11295700  1
  H  H5  1  0.07047100  0.10365800  0.61817800  1
  H  H6  1  0.56251400  0.90239000  0.88704300  1
  H  H7  1  0.92952900  0.60365800  0.38182200  1
  H  H8  1  0.65647600  0.42071800  0.88944200  1
  H  H9  1  0.85390700  0.08388400  0.39708300  1
  H  H10  1  0.34352400  0.92071800  0.11055800  1
  H  H11  1  0.14609300  0.58388400  0.60291700  1
  H  H12  1  0.35390700  0.58388400  0.10291700  1
  H  H13  1  0.15647600  0.92071800  0.61055800  1
  H  H14  1  0.64609300  0.08388400  0.89708300  1
  H  H15  1  0.84352400  0.42071800  0.38944200  1
  H  H16  1  0.55719700  0.75110100  0.54365500  1
  H  H17  1  0.94280300  0.75110100  0.04365500  1
  H  H18  1  0.44280300  0.25110100  0.45634500  1
  H  H19  1  0.05719700  0.25110100  0.95634500  1
  H  H20  1  0.65539500  0.64736500  0.64116700  1
  H  H21  1  0.84497900  0.85335700  0.14193800  1
  H  H22  1  0.34460500  0.14736500  0.35883300  1
  H  H23  1  0.15502100  0.35335700  0.85806200  1
  H  H24  1  0.34497900  0.35335700  0.35806200  1
  H  H25  1  0.15539500  0.14736500  0.85883300  1
  H  H26  1  0.65502100  0.85335700  0.64193800  1
  H  H27  1  0.84460500  0.64736500  0.14116700  1
  H  H28  1  0.51159400  0.50213900  0.99473700  1
  H  H29  1  0.48840600  0.00213900  0.00526300  1
  H  H30  1  0.01159400  0.00213900  0.50526300  1
  H  H31  1  0.98840600  0.50213900  0.49473700  1
  O  O0  1  0.62846900  0.52127900  0.92898100  1
  O  O1  1  0.88462800  0.98356600  0.43572500  1
  O  O2  1  0.37153100  0.02127900  0.07101900  1
  O  O3  1  0.11537200  0.48356600  0.56427500  1
  O  O4  1  0.38462800  0.48356600  0.06427500  1
  O  O5  1  0.12846900  0.02127900  0.57101900  1
  O  O6  1  0.61537200  0.98356600  0.93572500  1
  O  O7  1  0.87153100  0.52127900  0.42898100  1
  O  O8  1  0.66294100  0.75080300  0.59956700  1
  O  O9  1  0.83705900  0.75080300  0.09956700  1
  O  O10  1  0.33705900  0.25080300  0.40043300  1
  O  O11  1  0.16294100  0.25080300  0.90043300  1
  F  F0  1  0.68964200  0.25266800  0.82706600  1
  F  F1  1  0.81035800  0.25266800  0.32706600  1
  F  F2  1  0.31035800  0.75266800  0.17293400  1
  F  F3  1  0.18964200  0.75266800  0.67293400  1
  F  F4  1  0.65118200  0.47832600  0.68470200  1
  F  F5  1  0.85159400  0.02240400  0.18639200  1
  F  F6  1  0.34881800  0.97832600  0.31529800  1
  F  F7  1  0.14840600  0.52240400  0.81360800  1
  F  F8  1  0.35159400  0.52240400  0.31360800  1
  F  F9  1  0.15118200  0.97832600  0.81529800  1
  F  F10  1  0.64840600  0.02240400  0.68639200  1
  F  F11  1  0.84881800  0.47832600  0.18470200  1
  F  F12  1  0.92636500  0.24883000  0.65927300  1
  F  F13  1  0.57363500  0.24883000  0.15927300  1
  F  F14  1  0.07363500  0.74883000  0.34072700  1
  F  F15  1  0.42636500  0.74883000  0.84072700  1
  F  F16  1  0.60196400  0.25005300  0.53806200  1
  F  F17  1  0.89803600  0.25005300  0.03806200  1
  F  F18  1  0.39803600  0.75005300  0.46193800  1
  F  F19  1  0.10196400  0.75005300  0.96193800  1
  F  F20  1  0.36934300  0.25134800  0.70429900  1
  F  F21  1  0.13065700  0.25134800  0.20429900  1
  F  F22  1  0.63065700  0.75134800  0.29570100  1
  F  F23  1  0.86934300  0.75134800  0.79570100  1
loop_
_geom_bond_atom_site_label_1
_geom_bond_atom_site_label_2
_geom_bond_distance
_geom_bond_site_symmetry_2
H0 O0 1.000130 1_555
H1 O1 0.993266 1_555
H2 O2 1.000130 1_555
H3 O3 0.993266 1_555
H4 O4 0.993266 1_555
H5 O5 1.000130 1_555
H6 O6 0.993266 1_555
H7 O7 1.000130 1_555
H8 O0 0.999909 1_555
H9 O1 0.995716 1_545
H10 O2 0.999909 1_565
H11 O3 0.995716 1_555
H12 O4 0.995716 1_555
H13 O5 0.999909 1_565
H14 O6 0.995716 1_545
H15 O7 0.999909 1_555
H16 O8 1.018819 1_555
H17 O9 1.018819 1_555
H18 O10 1.018819 1_555
H19 O11 1.018819 1_555
H20 O8 1.018152 1_555
H21 O9 1.017625 1_555
H22 O10 1.018152 1_555
H23 O11 1.017625 1_555
H24 O10 1.017625 1_555
H25 O11 1.018152 1_555
H26 O8 1.017625 1_555
H27 O9 1.018152 1_555
H28 O0 1.174905 1_555
H28 O4 1.255748 1_556
H29 O2 1.174905 1_555
H29 O6 1.255748 1_544
H30 O5 1.174905 1_555
H30 O1 1.255748 1_445
H31 O7 1.174905 1_555
H31 O3 1.255748 1_655
F0 H8 1.631416 1_555
F0 H14 1.699624 1_555
F0 Ti0 1.948652 1_555
F1 H15 1.631416 1_555
F1 H9 1.699624 1_555
F1 Ti1 1.948652 1_555
F2 H10 1.631416 1_555
F2 H12 1.699624 1_555
F2 Ti2 1.948652 1_555
F3 H13 1.631416 1_555
F3 H11 1.699624 1_555
F3 Ti3 1.948652 1_555
F4 H20 1.513785 1_555
F4 Ti0 1.894676 1_555
F5 H21 1.518834 1_545
F5 Ti1 1.890291 1_555
F6 H22 1.513785 1_565
F6 Ti2 1.894676 1_555
F7 H23 1.518834 1_555
F7 Ti3 1.890291 1_555
F8 H24 1.518834 1_555
F8 Ti2 1.890291 1_555
F9 H25 1.513785 1_565
F9 Ti3 1.894676 1_555
F10 H26 1.518834 1_545
F10 Ti0 1.890291 1_555
F11 H27 1.513785 1_555
F11 Ti1 1.894676 1_555
F12 H5 1.632381 1_655
F12 H3 1.678200 1_655
F12 Ti0 1.953341 1_555
F13 H2 1.632381 1_555
F13 H4 1.678200 1_555
F13 Ti1 1.953341 1_555
F14 H7 1.632381 1_455
F14 H1 1.678200 1_455
F14 Ti2 1.953341 1_555
F15 H0 1.632381 1_555
F15 H6 1.678200 1_555
F15 Ti3 1.953341 1_555
F16 H18 1.510542 1_555
F16 Ti0 1.896228 1_555
F17 H19 1.510542 1_654
F17 Ti1 1.896228 1_555
F18 H16 1.510542 1_555
F18 Ti2 1.896228 1_555
F19 H17 1.510542 1_456
F19 Ti3 1.896228 1_555
F20 Ti0 1.811030 1_555
F21 Ti1 1.811030 1_455
F22 Ti2 1.811030 1_555
F23 Ti3 1.811030 1_655
