# generated using pymatgen
data_CoH4SeClO6
_symmetry_space_group_name_H-M   'P 1'
_cell_length_a   7.08623968
_cell_length_b   7.18749862
_cell_length_c   7.61890813
_cell_angle_alpha   66.37688821
_cell_angle_beta   69.22074653
_cell_angle_gamma   72.95852151
_symmetry_Int_Tables_number   1
_chemical_formula_structural   CoH4SeClO6
_chemical_formula_sum   'Co2 H8 Se2 Cl2 O12'
_cell_volume   327.20655144
_cell_formula_units_Z   2
loop_
 _symmetry_equiv_pos_site_id
 _symmetry_equiv_pos_as_xyz
  1  'x, y, z'
loop_
 _atom_site_type_symbol
 _atom_site_label
 _atom_site_symmetry_multiplicity
 _atom_site_fract_x
 _atom_site_fract_y
 _atom_site_fract_z
 _atom_site_occupancy
  Co  Co0  1  0.50000000  0.50000000  0.00000000  1
  Co  Co1  1  0.00000000  0.00000000  0.50000000  1
  H  H0  1  0.50321700  0.38031000  0.37542300  1
  H  H1  1  0.49678300  0.61969000  0.62457700  1
  H  H2  1  0.38154400  0.61539300  0.32536300  1
  H  H3  1  0.61845600  0.38460700  0.67463700  1
  H  H4  1  0.84541500  0.66460200  0.59797500  1
  H  H5  1  0.15458500  0.33539800  0.40202500  1
  H  H6  1  0.91811600  0.74900500  0.36211000  1
  H  H7  1  0.08188400  0.25099500  0.63789000  1
  Se  Se0  1  0.79189200  0.79541600  0.97806000  1
  Se  Se1  1  0.20810800  0.20458400  0.02194000  1
  Cl  Cl0  1  0.63430700  0.12832100  0.60141200  1
  Cl  Cl1  1  0.36569300  0.87167900  0.39858800  1
  O  O0  1  0.99953300  0.86405200  0.77323900  1
  O  O1  1  0.00046700  0.13594800  0.22676100  1
  O  O2  1  0.75867500  0.57894900  0.94197200  1
  O  O3  1  0.24132500  0.42105100  0.05802800  1
  O  O4  1  0.89359200  0.68772700  0.16991500  1
  O  O5  1  0.10640800  0.31227300  0.83008500  1
  O  O6  1  0.40937900  0.48380600  0.29782000  1
  O  O7  1  0.59062100  0.51619400  0.70218000  1
  O  O8  1  0.37952800  0.75689000  0.93564100  1
  O  O9  1  0.62047200  0.24311000  0.06435900  1
  O  O10  1  0.94473200  0.74134300  0.48456000  1
  O  O11  1  0.05526800  0.25865700  0.51544000  1
loop_
_geom_bond_atom_site_label_1
_geom_bond_atom_site_label_2
_geom_bond_distance
_geom_bond_site_symmetry_2
Co0 O8 1.739523 1_554
Co0 O9 1.739523 1_555
Co0 O2 1.926410 1_554
Co0 O3 1.926410 1_555
Co0 O6 2.091134 1_555
Co0 O7 2.091134 1_554
Co1 O0 1.911899 1_445
Co1 O1 1.911899 1_555
Co1 O10 2.063537 1_445
Co1 O11 2.063537 1_555
H0 O6 0.990781 1_555
H1 O7 0.990781 1_555
H2 O6 0.998896 1_555
H3 O7 0.998896 1_555
H4 O10 0.979933 1_555
H5 O11 0.979933 1_555
H6 O10 0.993257 1_555
H7 O11 0.993257 1_555
Cl0 H3 2.091628 1_555
Cl0 Co1 2.431566 1_655
Cl1 H2 2.091628 1_555
Cl1 Co1 2.431566 1_565
O0 Se0 1.738636 1_555
O1 Se1 1.738636 1_555
O2 Se0 1.776263 1_555
O3 Se1 1.776263 1_555
O4 Se0 1.663988 1_554
O5 Se1 1.663988 1_556
