# generated using pymatgen
data_Mn2Be3Tl2F12
_symmetry_space_group_name_H-M   'P 1'
_cell_length_a   10.41334600
_cell_length_b   10.41334600
_cell_length_c   10.41334600
_cell_angle_alpha   90.00000000
_cell_angle_beta   90.00000000
_cell_angle_gamma   90.00000000
_symmetry_Int_Tables_number   1
_chemical_formula_structural   Mn2Be3Tl2F12
_chemical_formula_sum   'Mn8 Be12 Tl8 F48'
_cell_volume   1129.20006967
_cell_formula_units_Z   4
loop_
 _symmetry_equiv_pos_site_id
 _symmetry_equiv_pos_as_xyz
  1  'x, y, z'
loop_
 _atom_site_type_symbol
 _atom_site_label
 _atom_site_symmetry_multiplicity
 _atom_site_fract_x
 _atom_site_fract_y
 _atom_site_fract_z
 _atom_site_occupancy
  Mn  Mn0  1  0.33473000  0.33473000  0.33473000  1
  Mn  Mn1  1  0.16527000  0.66527000  0.83473000  1
  Mn  Mn2  1  0.66527000  0.83473000  0.16527000  1
  Mn  Mn3  1  0.83473000  0.16527000  0.66527000  1
  Mn  Mn4  1  0.59820000  0.59820000  0.59820000  1
  Mn  Mn5  1  0.90180000  0.40180000  0.09820000  1
  Mn  Mn6  1  0.40180000  0.09820000  0.90180000  1
  Mn  Mn7  1  0.09820000  0.90180000  0.40180000  1
  Be  Be0  1  0.01885300  0.21550800  0.37581400  1
  Be  Be1  1  0.48114700  0.78449200  0.87581400  1
  Be  Be2  1  0.98114700  0.71550800  0.12418600  1
  Be  Be3  1  0.37581400  0.01885300  0.21550800  1
  Be  Be4  1  0.51885300  0.28449200  0.62418600  1
  Be  Be5  1  0.87581400  0.48114700  0.78449200  1
  Be  Be6  1  0.12418600  0.98114700  0.71550800  1
  Be  Be7  1  0.62418600  0.51885300  0.28449200  1
  Be  Be8  1  0.21550800  0.37581400  0.01885300  1
  Be  Be9  1  0.71550800  0.12418600  0.98114700  1
  Be  Be10  1  0.28449200  0.62418600  0.51885300  1
  Be  Be11  1  0.78449200  0.87581400  0.48114700  1
  Tl  Tl0  1  0.04900800  0.04900800  0.04900800  1
  Tl  Tl1  1  0.45099200  0.95099200  0.54900800  1
  Tl  Tl2  1  0.95099200  0.54900800  0.45099200  1
  Tl  Tl3  1  0.54900800  0.45099200  0.95099200  1
  Tl  Tl4  1  0.81671400  0.81671400  0.81671400  1
  Tl  Tl5  1  0.68328600  0.18328600  0.31671400  1
  Tl  Tl6  1  0.18328600  0.31671400  0.68328600  1
  Tl  Tl7  1  0.31671400  0.68328600  0.18328600  1
  F  F0  1  0.01130600  0.07297500  0.32873600  1
  F  F1  1  0.48869400  0.92702500  0.82873600  1
  F  F2  1  0.98869400  0.57297500  0.17126400  1
  F  F3  1  0.32873600  0.01130600  0.07297500  1
  F  F4  1  0.51130600  0.42702500  0.67126400  1
  F  F5  1  0.82873600  0.48869400  0.92702500  1
  F  F6  1  0.17126400  0.98869400  0.57297500  1
  F  F7  1  0.67126400  0.51130600  0.42702500  1
  F  F8  1  0.07297500  0.32873600  0.01130600  1
  F  F9  1  0.57297500  0.17126400  0.98869400  1
  F  F10  1  0.42702500  0.67126400  0.51130600  1
  F  F11  1  0.92702500  0.82873600  0.48869400  1
  F  F12  1  0.26614300  0.49811900  0.43922000  1
  F  F13  1  0.23385700  0.50188100  0.93922000  1
  F  F14  1  0.73385700  0.99811900  0.06078000  1
  F  F15  1  0.43922000  0.26614300  0.49811900  1
  F  F16  1  0.76614300  0.00188100  0.56078000  1
  F  F17  1  0.93922000  0.23385700  0.50188100  1
  F  F18  1  0.06078000  0.73385700  0.99811900  1
  F  F19  1  0.56078000  0.76614300  0.00188100  1
  F  F20  1  0.49811900  0.43922000  0.26614300  1
  F  F21  1  0.99811900  0.06078000  0.73385700  1
  F  F22  1  0.00188100  0.56078000  0.76614300  1
  F  F23  1  0.50188100  0.93922000  0.23385700  1
  F  F24  1  0.04415800  0.80509400  0.22772200  1
  F  F25  1  0.45584200  0.19490600  0.72772200  1
  F  F26  1  0.95584200  0.30509400  0.27227800  1
  F  F27  1  0.22772200  0.04415800  0.80509400  1
  F  F28  1  0.54415800  0.69490600  0.77227800  1
  F  F29  1  0.72772200  0.45584200  0.19490600  1
  F  F30  1  0.27227800  0.95584200  0.30509400  1
  F  F31  1  0.77227800  0.54415800  0.69490600  1
  F  F32  1  0.80509400  0.22772200  0.04415800  1
  F  F33  1  0.30509400  0.27227800  0.95584200  1
  F  F34  1  0.69490600  0.77227800  0.54415800  1
  F  F35  1  0.19490600  0.72772200  0.45584200  1
  F  F36  1  0.16014700  0.25478200  0.40261100  1
  F  F37  1  0.33985300  0.74521800  0.90261100  1
  F  F38  1  0.83985300  0.75478200  0.09738900  1
  F  F39  1  0.40261100  0.16014700  0.25478200  1
  F  F40  1  0.66014700  0.24521800  0.59738900  1
  F  F41  1  0.90261100  0.33985300  0.74521800  1
  F  F42  1  0.09738900  0.83985300  0.75478200  1
  F  F43  1  0.59738900  0.66014700  0.24521800  1
  F  F44  1  0.25478200  0.40261100  0.16014700  1
  F  F45  1  0.75478200  0.09738900  0.83985300  1
  F  F46  1  0.24521800  0.59738900  0.66014700  1
  F  F47  1  0.74521800  0.90261100  0.33985300  1
loop_
_geom_bond_atom_site_label_1
_geom_bond_atom_site_label_2
_geom_bond_distance
_geom_bond_site_symmetry_2
Be0 F36 1.552410 1_555
Be0 F17 1.564464 1_455
Be0 F0 1.565086 1_555
Be0 F26 1.569473 1_455
Be1 F37 1.552410 1_555
Be1 F19 1.564464 1_556
Be1 F1 1.565086 1_555
Be1 F28 1.569473 1_555
Be2 F38 1.552410 1_555
Be2 F18 1.564464 1_654
Be2 F2 1.565086 1_555
Be2 F24 1.569473 1_655
Be3 F39 1.552410 1_555
Be3 F23 1.564464 1_545
Be3 F3 1.565086 1_555
Be3 F30 1.569473 1_545
Be4 F40 1.552410 1_555
Be4 F15 1.564464 1_555
Be4 F4 1.565086 1_555
Be4 F25 1.569473 1_555
Be5 F41 1.552410 1_555
Be5 F22 1.564464 1_655
Be5 F5 1.565086 1_555
Be5 F31 1.569473 1_555
Be6 F42 1.552410 1_555
Be6 F21 1.564464 1_465
Be6 F6 1.565086 1_555
Be6 F27 1.569473 1_565
Be7 F43 1.552410 1_555
Be7 F20 1.564464 1_555
Be7 F7 1.565086 1_555
Be7 F29 1.569473 1_555
Be8 F44 1.552410 1_555
Be8 F13 1.564464 1_554
Be8 F8 1.565086 1_555
Be8 F33 1.569473 1_554
Be9 F45 1.552410 1_555
Be9 F14 1.564464 1_546
Be9 F9 1.565086 1_555
Be9 F32 1.569473 1_556
Be10 F46 1.552410 1_555
Be10 F12 1.564464 1_555
Be10 F10 1.565086 1_555
Be10 F35 1.569473 1_555
Be11 F47 1.552410 1_555
Be11 F16 1.564464 1_565
Be11 F11 1.565086 1_555
Be11 F34 1.569473 1_555
F0 Mn7 2.138917 1_545
F1 Mn6 2.138917 1_565
F2 Mn5 2.138917 1_555
F3 Mn6 2.138917 1_554
F4 Mn4 2.138917 1_555
F5 Mn5 2.138917 1_556
F6 Mn7 2.138917 1_555
F7 Mn4 2.138917 1_555
F8 Mn5 2.138917 1_455
F9 Mn6 2.138917 1_555
F10 Mn4 2.138917 1_555
F11 Mn7 2.138917 1_655
F12 Mn0 2.142172 1_555
F13 Mn1 2.142172 1_555
F14 Mn2 2.142172 1_555
F15 Mn0 2.142172 1_555
F16 Mn3 2.142172 1_555
F17 Mn3 2.142172 1_555
F18 Mn1 2.142172 1_555
F19 Mn2 2.142172 1_555
F20 Mn0 2.142172 1_555
F21 Mn3 2.142172 1_555
F22 Mn1 2.142172 1_555
F23 Mn2 2.142172 1_555
F24 Mn7 2.148678 1_555
F25 Mn6 2.148678 1_555
F26 Mn5 2.148678 1_555
F27 Mn6 2.148678 1_555
F28 Mn4 2.148678 1_555
F29 Mn5 2.148678 1_555
F30 Mn7 2.148678 1_555
F31 Mn4 2.148678 1_555
F32 Mn5 2.148678 1_555
F33 Mn6 2.148678 1_555
F34 Mn4 2.148678 1_555
F35 Mn7 2.148678 1_555
F36 Mn0 2.120816 1_555
F37 Mn1 2.120816 1_555
F38 Mn2 2.120816 1_555
F39 Mn0 2.120816 1_555
F40 Mn3 2.120816 1_555
F41 Mn3 2.120816 1_555
F42 Mn1 2.120816 1_555
F43 Mn2 2.120816 1_555
F44 Mn0 2.120816 1_555
F45 Mn3 2.120816 1_555
F46 Mn1 2.120816 1_555
F47 Mn2 2.120816 1_555
