# generated using pymatgen
data_Na3CuP2H6NO13
_symmetry_space_group_name_H-M   'P 1'
_cell_length_a   7.42363233
_cell_length_b   8.47174800
_cell_length_c   10.10589173
_cell_angle_alpha   90.00000000
_cell_angle_beta   107.51688745
_cell_angle_gamma   90.00000000
_symmetry_Int_Tables_number   1
_chemical_formula_structural   Na3CuP2H6NO13
_chemical_formula_sum   'Na6 Cu2 P4 H12 N2 O26'
_cell_volume   606.09855069
_cell_formula_units_Z   2
loop_
 _symmetry_equiv_pos_site_id
 _symmetry_equiv_pos_as_xyz
  1  'x, y, z'
loop_
 _atom_site_type_symbol
 _atom_site_label
 _atom_site_symmetry_multiplicity
 _atom_site_fract_x
 _atom_site_fract_y
 _atom_site_fract_z
 _atom_site_occupancy
  Na  Na0  1  0.96169900  0.46577600  0.17737700  1
  Na  Na1  1  0.03830100  0.96577600  0.82262300  1
  Na  Na2  1  0.03830100  0.53422400  0.82262300  1
  Na  Na3  1  0.96169900  0.03422400  0.17737700  1
  Na  Na4  1  0.15719000  0.75000000  0.42786200  1
  Na  Na5  1  0.84281000  0.25000000  0.57213800  1
  Cu  Cu0  1  0.50000000  0.50000000  0.00000000  1
  Cu  Cu1  1  0.50000000  0.00000000  0.00000000  1
  P  P0  1  0.67199700  0.75000000  0.24067200  1
  P  P1  1  0.32800300  0.25000000  0.75932800  1
  P  P2  1  0.27420200  0.75000000  0.12293300  1
  P  P3  1  0.72579800  0.25000000  0.87706700  1
  H  H0  1  0.19634400  0.39812400  0.47751900  1
  H  H1  1  0.80365600  0.89812400  0.52248100  1
  H  H2  1  0.80365600  0.60187600  0.52248100  1
  H  H3  1  0.19634400  0.10187600  0.47751900  1
  H  H4  1  0.32038400  0.43812300  0.38302400  1
  H  H5  1  0.67961600  0.93812300  0.61697600  1
  H  H6  1  0.67961600  0.56187700  0.61697600  1
  H  H7  1  0.32038400  0.06187700  0.38302400  1
  H  H8  1  0.26353400  0.25000000  0.13990200  1
  H  H9  1  0.73646600  0.75000000  0.86009800  1
  H  H10  1  0.08600800  0.25000000  0.00881200  1
  H  H11  1  0.91399200  0.75000000  0.99118800  1
  N  N0  1  0.62039500  0.25000000  0.27986300  1
  N  N1  1  0.37960500  0.75000000  0.72013700  1
  O  O0  1  0.81170500  0.75000000  0.38626300  1
  O  O1  1  0.18829500  0.25000000  0.61373700  1
  O  O2  1  0.68521100  0.59927300  0.15923400  1
  O  O3  1  0.31478900  0.09927300  0.84076600  1
  O  O4  1  0.31478900  0.40072700  0.84076600  1
  O  O5  1  0.68521100  0.90072700  0.15923400  1
  O  O6  1  0.46069100  0.75000000  0.26010600  1
  O  O7  1  0.53930900  0.25000000  0.73989400  1
  O  O8  1  0.28188900  0.59753400  0.04157800  1
  O  O9  1  0.71811100  0.09753300  0.95842200  1
  O  O10  1  0.71811100  0.40246700  0.95842200  1
  O  O11  1  0.28188900  0.90246600  0.04157800  1
  O  O12  1  0.10429100  0.75000000  0.17765100  1
  O  O13  1  0.89570900  0.25000000  0.82234900  1
  O  O14  1  0.79918500  0.25000000  0.30733600  1
  O  O15  1  0.20081500  0.75000000  0.69266400  1
  O  O16  1  0.54695100  0.25000000  0.37867700  1
  O  O17  1  0.45304900  0.75000000  0.62132300  1
  O  O18  1  0.51459200  0.25000000  0.15549800  1
  O  O19  1  0.48540800  0.75000000  0.84450200  1
  O  O20  1  0.20334700  0.46947800  0.40163000  1
  O  O21  1  0.79665300  0.96947800  0.59837000  1
  O  O22  1  0.79665300  0.53052200  0.59837000  1
  O  O23  1  0.20334700  0.03052200  0.40163000  1
  O  O24  1  0.12354000  0.25000000  0.11079000  1
  O  O25  1  0.87646000  0.75000000  0.88921000  1
loop_
_geom_bond_atom_site_label_1
_geom_bond_atom_site_label_2
_geom_bond_distance
_geom_bond_site_symmetry_2
Na0 O2 2.301971 1_555
Na0 O24 2.392607 1_655
Na0 O20 2.430591 1_655
Na0 O10 2.458689 1_554
Na0 O12 2.629949 1_655
Na0 O14 2.734191 1_555
Na1 O3 2.301971 1_565
Na1 O25 2.392607 1_455
Na1 O21 2.430591 1_455
Na1 O11 2.458691 1_556
Na1 O13 2.629949 1_465
Na1 O15 2.734191 1_555
Na2 O4 2.301971 1_555
Na2 O25 2.392607 1_455
Na2 O22 2.430591 1_455
Na2 O8 2.458691 1_556
Na2 O13 2.629949 1_455
Na2 O15 2.734191 1_555
Na3 O5 2.301971 1_545
Na3 O24 2.392607 1_655
Na3 O23 2.430591 1_655
Na3 O9 2.458689 1_554
Na3 O12 2.629949 1_645
Na3 O14 2.734191 1_555
Na4 O23 2.426969 1_565
Na4 O20 2.426969 1_555
Na4 O12 2.439325 1_555
Na4 O17 2.461997 1_555
Na4 O0 2.470959 1_455
Na4 O15 2.597013 1_555
Na5 O21 2.426969 1_545
Na5 O22 2.426969 1_555
Na5 O13 2.439325 1_555
Na5 O16 2.461997 1_555
Na5 O1 2.470959 1_655
Na5 O14 2.597013 1_555
Cu0 O2 1.963516 1_555
Cu0 O4 1.963516 1_554
Cu0 O10 1.972452 1_554
Cu0 O8 1.972456 1_555
Cu1 O5 1.963516 1_545
Cu1 O3 1.963516 1_554
Cu1 O9 1.972452 1_554
Cu1 O11 1.972456 1_545
H0 O20 0.990097 1_555
H1 O21 0.990097 1_555
H2 O22 0.990097 1_555
H3 O23 0.990097 1_555
H4 O20 0.979358 1_555
H5 O21 0.979358 1_555
H6 O22 0.979358 1_555
H7 O23 0.979358 1_555
H8 O24 0.991246 1_555
H9 O25 0.991246 1_555
H10 O24 0.983296 1_555
H11 O25 0.983296 1_555
N0 O18 1.265808 1_555
N0 O14 1.271575 1_555
N0 O16 1.273666 1_555
N1 O19 1.265808 1_555
N1 O15 1.271575 1_555
N1 O17 1.273666 1_555
O0 P0 1.523768 1_555
O1 P1 1.523768 1_555
O2 P0 1.538208 1_555
O3 P1 1.538208 1_555
O4 P1 1.538208 1_555
O5 P0 1.538208 1_555
O6 P2 1.638002 1_555
O6 P0 1.638511 1_555
O7 P3 1.638002 1_555
O7 P1 1.638511 1_555
O8 P2 1.541371 1_555
O9 P3 1.541378 1_555
O10 P3 1.541378 1_555
O11 P2 1.541371 1_555
O12 P2 1.522063 1_555
O13 P3 1.522063 1_555
