# generated using pymatgen
data_Pr5Te7MoCl3O23
_symmetry_space_group_name_H-M   'P 1'
_cell_length_a   10.06548856
_cell_length_b   10.06548856
_cell_length_c   18.58532963
_cell_angle_alpha   87.26481358
_cell_angle_beta   87.26481358
_cell_angle_gamma   134.57541477
_symmetry_Int_Tables_number   1
_chemical_formula_structural   Pr5Te7MoCl3O23
_chemical_formula_sum   'Pr10 Te14 Mo2 Cl6 O46'
_cell_volume   1330.99667414
_cell_formula_units_Z   2
loop_
 _symmetry_equiv_pos_site_id
 _symmetry_equiv_pos_as_xyz
  1  'x, y, z'
loop_
 _atom_site_type_symbol
 _atom_site_label
 _atom_site_symmetry_multiplicity
 _atom_site_fract_x
 _atom_site_fract_y
 _atom_site_fract_z
 _atom_site_occupancy
  Pr  Pr0  1  0.23919800  0.76080200  0.50000000  1
  Pr  Pr1  1  0.75781200  0.24218800  0.50000000  1
  Pr  Pr2  1  0.74221700  0.52062200  0.86341800  1
  Pr  Pr3  1  0.52056200  0.74206300  0.86375500  1
  Pr  Pr4  1  0.25793700  0.47943800  0.13624500  1
  Pr  Pr5  1  0.47937800  0.25778300  0.13658200  1
  Pr  Pr6  1  0.17992300  0.69847200  0.73825200  1
  Pr  Pr7  1  0.69845200  0.18202000  0.73835800  1
  Pr  Pr8  1  0.81798000  0.30154800  0.26164200  1
  Pr  Pr9  1  0.30152800  0.82007700  0.26174800  1
  Te  Te0  1  0.29855100  0.95910800  0.88981600  1
  Te  Te1  1  0.95918300  0.29838000  0.88980900  1
  Te  Te2  1  0.70162000  0.04081700  0.11019100  1
  Te  Te3  1  0.04089200  0.70144900  0.11018400  1
  Te  Te4  1  0.84888100  0.63687900  0.64220700  1
  Te  Te5  1  0.63431400  0.84680600  0.64345100  1
  Te  Te6  1  0.15319400  0.36568600  0.35654900  1
  Te  Te7  1  0.36312100  0.15111900  0.35779300  1
  Te  Te8  1  0.99536400  0.99532000  0.76202100  1
  Te  Te9  1  0.00468000  0.00463600  0.23797900  1
  Te  Te10  1  0.40593200  0.16351700  0.61478900  1
  Te  Te11  1  0.16484200  0.40767500  0.61542200  1
  Te  Te12  1  0.59232500  0.83515800  0.38457800  1
  Te  Te13  1  0.83648300  0.59406800  0.38521100  1
  Mo  Mo0  1  0.26351700  0.26348700  0.97527800  1
  Mo  Mo1  1  0.73651300  0.73648300  0.02472200  1
  Cl  Cl0  1  0.43764700  0.43846400  0.71441600  1
  Cl  Cl1  1  0.56153600  0.56235300  0.28558400  1
  Cl  Cl2  1  0.49953300  0.50046700  0.50000000  1
  Cl  Cl3  1  0.69722300  0.30277700  0.00000000  1
  Cl  Cl4  1  0.30278500  0.69721500  0.00000000  1
  Cl  Cl5  1  0.03579900  0.96420100  0.50000000  1
  O  O0  1  0.41264600  0.89519100  0.83691300  1
  O  O1  1  0.89502900  0.41240200  0.83698000  1
  O  O2  1  0.58759800  0.10497100  0.16302000  1
  O  O3  1  0.10480900  0.58735400  0.16308700  1
  O  O4  1  0.14744200  0.30773400  0.02913800  1
  O  O5  1  0.30771600  0.14743900  0.02913600  1
  O  O6  1  0.85256100  0.69228400  0.97086400  1
  O  O7  1  0.69226600  0.85255800  0.97086200  1
  O  O8  1  0.47818400  0.20414500  0.84057700  1
  O  O9  1  0.20419300  0.47821600  0.84062300  1
  O  O10  1  0.52178400  0.79580700  0.15937700  1
  O  O11  1  0.79585500  0.52181600  0.15942300  1
  O  O12  1  0.76562600  0.76578400  0.81093200  1
  O  O13  1  0.23421600  0.23437400  0.18906800  1
  O  O14  1  0.48272500  0.48274100  0.92203400  1
  O  O15  1  0.51725900  0.51727500  0.07796600  1
  O  O16  1  0.03743600  0.89004300  0.69223000  1
  O  O17  1  0.88958700  0.03658400  0.69176900  1
  O  O18  1  0.96341600  0.11041300  0.30823100  1
  O  O19  1  0.10995700  0.96256400  0.30777000  1
  O  O20  1  0.82392300  0.51734800  0.73370400  1
  O  O21  1  0.51666900  0.82311200  0.73398000  1
  O  O22  1  0.17688800  0.48333100  0.26602000  1
  O  O23  1  0.48265200  0.17607700  0.26629600  1
  O  O24  1  0.11214700  0.11213500  0.91266500  1
  O  O25  1  0.88786500  0.88785300  0.08733500  1
  O  O26  1  0.07242000  0.70104900  0.61405200  1
  O  O27  1  0.70304100  0.07174600  0.61299600  1
  O  O28  1  0.92825400  0.29695900  0.38700400  1
  O  O29  1  0.29895100  0.92758000  0.38594800  1
  O  O30  1  0.68261500  0.35638700  0.60982100  1
  O  O31  1  0.35698600  0.68298200  0.61003700  1
  O  O32  1  0.31701800  0.64301400  0.38996300  1
  O  O33  1  0.64361300  0.31738500  0.39017900  1
  O  O34  1  0.09655700  0.81789200  0.83053400  1
  O  O35  1  0.81772900  0.09652600  0.83042300  1
  O  O36  1  0.90347400  0.18227100  0.16957700  1
  O  O37  1  0.18210800  0.90344300  0.16946600  1
  O  O38  1  0.40268400  0.02607600  0.69067600  1
  O  O39  1  0.02614500  0.40264100  0.69091800  1
  O  O40  1  0.59735900  0.97385500  0.30908200  1
  O  O41  1  0.97392400  0.59731600  0.30932400  1
  O  O42  1  0.42997200  0.06782300  0.53534200  1
  O  O43  1  0.06718100  0.42607800  0.53503200  1
  O  O44  1  0.57392200  0.93281900  0.46496800  1
  O  O45  1  0.93217700  0.57002800  0.46465800  1
loop_
_geom_bond_atom_site_label_1
_geom_bond_atom_site_label_2
_geom_bond_distance
_geom_bond_site_symmetry_2
Mo0 O24 1.754042 1_555
Mo0 O5 1.795725 1_556
Mo0 O4 1.796315 1_556
Mo0 O14 1.861733 1_555
Mo1 O25 1.754042 1_555
Mo1 O6 1.795725 1_554
Mo1 O7 1.796315 1_554
Mo1 O15 1.861733 1_555
Cl3 Pr5 3.069497 1_555
Cl3 Pr2 3.069497 1_554
Cl4 Pr3 3.064765 1_554
Cl4 Pr4 3.064765 1_555
O0 Te0 1.920734 1_555
O0 Pr3 2.476450 1_555
O0 Pr6 2.648749 1_555
O0 Pr7 2.701876 1_565
O1 Te1 1.921312 1_555
O1 Pr2 2.474794 1_555
O1 Pr7 2.638786 1_555
O1 Pr6 2.698938 1_655
O2 Te2 1.921312 1_555
O2 Pr5 2.474794 1_555
O2 Pr8 2.638786 1_555
O2 Pr9 2.698938 1_545
O3 Te3 1.920734 1_555
O3 Pr4 2.476450 1_555
O3 Pr9 2.648749 1_555
O3 Pr8 2.701876 1_455
O4 Pr4 2.455196 1_555
O5 Pr5 2.460479 1_555
O6 Pr2 2.460479 1_555
O7 Pr3 2.455196 1_555
O8 Te0 1.885932 1_545
O8 Pr2 2.396626 1_555
O8 Pr7 2.984250 1_555
O9 Te1 1.885432 1_455
O9 Pr3 2.397266 1_555
O9 Pr6 2.999432 1_555
O10 Te2 1.885432 1_565
O10 Pr4 2.397266 1_555
O10 Pr9 2.999432 1_555
O11 Te3 1.885932 1_655
O11 Pr5 2.396626 1_555
O11 Pr8 2.984250 1_555
O12 Te8 1.900288 1_555
O12 Pr3 2.454620 1_555
O12 Pr2 2.455329 1_555
O13 Te9 1.900288 1_555
O13 Pr4 2.454620 1_555
O13 Pr5 2.455329 1_555
O14 Pr3 2.535111 1_555
O14 Pr2 2.538723 1_555
O15 Pr4 2.535111 1_555
O15 Pr5 2.538723 1_555
O16 Te8 1.921799 1_455
O16 Te4 2.136735 1_455
O17 Te8 1.926779 1_545
O17 Te5 2.133475 1_545
O18 Te9 1.926779 1_655
O18 Te6 2.133475 1_655
O19 Te9 1.921799 1_565
O19 Te7 2.136735 1_565
O20 Te4 1.934441 1_555
O20 Pr2 2.519066 1_555
O20 Pr7 2.640628 1_555
O20 Pr6 2.654169 1_655
O21 Te5 1.914440 1_555
O21 Pr3 2.520016 1_555
O21 Pr6 2.657974 1_555
O21 Pr7 2.677509 1_565
O22 Te6 1.914440 1_555
O22 Pr4 2.520016 1_555
O22 Pr9 2.657974 1_555
O22 Pr8 2.677509 1_455
O23 Te7 1.934441 1_555
O23 Pr5 2.519066 1_555
O23 Pr8 2.640628 1_555
O23 Pr9 2.654169 1_545
O26 Te4 1.889185 1_455
O26 Pr0 2.407149 1_555
O26 Pr6 2.602279 1_555
O27 Te5 1.888645 1_545
O27 Pr1 2.423938 1_555
O27 Pr7 2.640278 1_555
O28 Te6 1.888645 1_655
O28 Pr1 2.423938 1_555
O28 Pr8 2.640278 1_555
O29 Te7 1.889185 1_565
O29 Pr0 2.407149 1_555
O29 Pr9 2.602279 1_555
O30 Te10 1.975474 1_555
O30 Te4 2.181743 1_555
O30 Pr1 2.712529 1_555
O30 Pr7 2.973468 1_555
O31 Te11 1.965093 1_555
O31 Te5 2.167688 1_555
O31 Pr0 2.753835 1_555
O31 Pr6 2.983140 1_555
O32 Te12 1.965093 1_555
O32 Te6 2.167688 1_555
O32 Pr0 2.753835 1_555
O32 Pr9 2.983140 1_555
O33 Te13 1.975474 1_555
O33 Te7 2.181743 1_555
O33 Pr1 2.712529 1_555
O33 Pr8 2.973468 1_555
O34 Te0 1.916956 1_555
O34 Pr6 2.562370 1_555
O34 Pr2 2.585464 1_455
O35 Te1 1.917496 1_555
O35 Pr7 2.572041 1_555
O35 Pr3 2.586942 1_545
O36 Te2 1.917496 1_555
O36 Pr8 2.572041 1_555
O36 Pr4 2.586942 1_655
O37 Te3 1.916956 1_555
O37 Pr9 2.562370 1_555
O37 Pr5 2.585464 1_565
O38 Te10 1.910491 1_555
O38 Pr6 2.415959 1_545
O38 Pr7 2.436623 1_555
O39 Te11 1.904532 1_555
O39 Pr7 2.417055 1_455
O39 Pr6 2.438579 1_555
O40 Te12 1.904532 1_555
O40 Pr8 2.417055 1_565
O40 Pr9 2.438579 1_555
O41 Te13 1.910491 1_555
O41 Pr9 2.415959 1_655
O41 Pr8 2.436623 1_555
O42 Te10 1.896131 1_555
O42 Pr0 2.377645 1_545
O42 Pr1 2.440177 1_555
O43 Te11 1.897952 1_555
O43 Pr1 2.400949 1_455
O43 Pr0 2.503526 1_555
O44 Te12 1.897952 1_555
O44 Pr1 2.400949 1_565
O44 Pr0 2.503526 1_555
O45 Te13 1.896131 1_555
O45 Pr0 2.377645 1_655
O45 Pr1 2.440177 1_555
