# generated using pymatgen
data_Li7Mn4CoO12
_symmetry_space_group_name_H-M   'P 1'
_cell_length_a   3.00341000
_cell_length_b   7.64467205
_cell_length_c   10.16716194
_cell_angle_alpha   107.26673311
_cell_angle_beta   88.07571530
_cell_angle_gamma   98.01853788
_symmetry_Int_Tables_number   1
_chemical_formula_structural   Li7Mn4CoO12
_chemical_formula_sum   'Li7 Mn4 Co1 O12'
_cell_volume   220.73153910
_cell_formula_units_Z   1
loop_
 _symmetry_equiv_pos_site_id
 _symmetry_equiv_pos_as_xyz
  1  'x, y, z'
loop_
 _atom_site_type_symbol
 _atom_site_label
 _atom_site_symmetry_multiplicity
 _atom_site_fract_x
 _atom_site_fract_y
 _atom_site_fract_z
 _atom_site_occupancy
  Li  Li0  1  0.82603400  0.66184600  0.74728500  1
  Li  Li1  1  0.15986200  0.33137800  0.25034400  1
  Li  Li2  1  0.50894100  0.00236700  0.74487000  1
  Li  Li3  1  0.16311300  0.33394900  0.74500400  1
  Li  Li4  1  0.50008200  0.99838800  0.26175200  1
  Li  Li5  1  0.84696500  0.67818800  0.25746400  1
  Li  Li6  1  0.99078500  0.99454400  0.49193700  1
  Mn  Mn0  1  0.99993700  0.99994400  0.99983900  1
  Mn  Mn1  1  0.33799700  0.67279600  0.49942700  1
  Mn  Mn2  1  0.66730700  0.33316100  0.99904400  1
  Mn  Mn3  1  0.33377900  0.66711900  0.00099600  1
  Co  Co0  1  0.66409900  0.32179700  0.50401100  1
  O  O0  1  0.38282600  0.83026000  0.88219600  1
  O  O1  1  0.77852300  0.51099700  0.39824200  1
  O  O2  1  0.04908300  0.16130000  0.87962400  1
  O  O3  1  0.71827600  0.49882600  0.88321100  1
  O  O4  1  0.07299100  0.18776300  0.38669800  1
  O  O5  1  0.40193300  0.81622000  0.38231900  1
  O  O6  1  0.27177300  0.49573300  0.61085500  1
  O  O7  1  0.61456200  0.17020000  0.11671400  1
  O  O8  1  0.88059500  0.80942900  0.60843500  1
  O  O9  1  0.59954100  0.18679700  0.61569200  1
  O  O10  1  0.94973300  0.83720800  0.11776400  1
  O  O11  1  0.28126300  0.49979100  0.11627700  1
loop_
_geom_bond_atom_site_label_1
_geom_bond_atom_site_label_2
_geom_bond_distance
_geom_bond_site_symmetry_2
Li0 O8 2.042317 1_555
Li0 O3 2.108926 1_555
Li0 O0 2.148978 1_555
Li0 O6 2.152389 1_655
Li0 O6 2.197142 1_555
Li0 O0 2.200129 1_655
Li1 O4 1.998673 1_555
Li1 O11 2.127426 1_555
Li1 O1 2.134412 1_455
Li1 O7 2.140130 1_555
Li1 O7 2.153837 1_455
Li1 O1 2.418514 1_555
Li2 O8 2.118111 1_545
Li2 O2 2.143880 1_655
Li2 O2 2.147960 1_555
Li2 O0 2.177138 1_545
Li2 O9 2.180611 1_555
Li2 O8 2.417808 1_445
Li3 O9 2.032184 1_555
Li3 O6 2.086936 1_555
Li3 O9 2.144590 1_455
Li3 O3 2.154178 1_455
Li3 O2 2.155793 1_555
Li3 O3 2.205215 1_555
Li4 O5 2.098458 1_555
Li4 O4 2.161464 1_565
Li4 O10 2.178495 1_555
Li4 O10 2.217434 1_455
Li4 O7 2.237772 1_565
Li4 O4 2.242867 1_665
Li5 O5 1.998946 1_555
Li5 O5 2.087901 1_655
Li5 O10 2.116927 1_555
Li5 O1 2.171968 1_555
Li5 O11 2.197787 1_655
Li5 O11 2.272091 1_555
Li6 O5 2.025003 1_655
Li6 O4 2.050945 1_665
Li6 O8 2.086420 1_555
Li6 O9 2.099696 1_565
Li6 O5 2.187726 1_555
Li6 O9 2.322301 1_665
Mn0 O10 1.956766 1_556
Mn0 O0 1.959206 1_655
Mn0 O7 1.963545 1_566
Mn0 O2 1.967059 1_665
Mn0 O7 2.252232 1_666
Mn0 O0 2.259560 1_555
Mn1 O5 1.832370 1_555
Mn1 O8 1.953824 1_455
Mn1 O8 1.983500 1_555
Mn1 O1 1.987104 1_555
Mn1 O6 1.993825 1_555
Mn1 O1 2.047593 1_455
Mn2 O11 1.950785 1_556
Mn2 O7 1.955853 1_556
Mn2 O3 1.957937 1_555
Mn2 O2 1.973548 1_655
Mn2 O11 2.243767 1_656
Mn2 O2 2.274159 1_555
Mn3 O3 1.957005 1_554
Mn3 O10 1.959761 1_455
Mn3 O11 1.963735 1_555
Mn3 O0 1.966490 1_554
Mn3 O3 2.253261 1_454
Mn3 O10 2.254446 1_555
Co0 O9 1.736963 1_555
Co0 O4 1.872929 1_655
Co0 O6 1.957092 1_555
Co0 O1 2.031346 1_555
Co0 O4 2.129214 1_555
Co0 O6 2.208552 1_655
