# generated using pymatgen
data_Tb6Al39V8
_symmetry_space_group_name_H-M   'P 1'
_cell_length_a   11.00666568
_cell_length_b   11.00666568
_cell_length_c   17.54978100
_cell_angle_alpha   90.00000000
_cell_angle_beta   90.00000000
_cell_angle_gamma   119.99999809
_symmetry_Int_Tables_number   1
_chemical_formula_structural   Tb6Al39V8
_chemical_formula_sum   'Tb12 Al78 V16'
_cell_volume   1841.25480053
_cell_formula_units_Z   2
loop_
 _symmetry_equiv_pos_site_id
 _symmetry_equiv_pos_as_xyz
  1  'x, y, z'
loop_
 _atom_site_type_symbol
 _atom_site_label
 _atom_site_symmetry_multiplicity
 _atom_site_fract_x
 _atom_site_fract_y
 _atom_site_fract_z
 _atom_site_occupancy
  Tb  Tb0  1  0.53446700  0.00000000  0.59887100  1
  Tb  Tb1  1  0.46553300  0.00000000  0.40112900  1
  Tb  Tb2  1  0.00000000  0.53446700  0.59887100  1
  Tb  Tb3  1  0.46553300  0.00000000  0.09887100  1
  Tb  Tb4  1  0.00000000  0.53446700  0.90112900  1
  Tb  Tb5  1  0.00000000  0.46553300  0.40112900  1
  Tb  Tb6  1  0.53446700  0.00000000  0.90112900  1
  Tb  Tb7  1  0.00000000  0.46553300  0.09887100  1
  Tb  Tb8  1  0.46553300  0.46553300  0.59887100  1
  Tb  Tb9  1  0.53446700  0.53446700  0.40112900  1
  Tb  Tb10  1  0.53446700  0.53446700  0.09887100  1
  Tb  Tb11  1  0.46553300  0.46553300  0.90112900  1
  Al  Al0  1  0.15397200  0.60390400  0.75000000  1
  Al  Al1  1  0.84602800  0.39609600  0.25000000  1
  Al  Al2  1  0.39609600  0.55006800  0.75000000  1
  Al  Al3  1  0.60390400  0.15397200  0.75000000  1
  Al  Al4  1  0.60390400  0.44993200  0.25000000  1
  Al  Al5  1  0.39609600  0.84602800  0.25000000  1
  Al  Al6  1  0.44993200  0.84602800  0.75000000  1
  Al  Al7  1  0.55006800  0.39609600  0.75000000  1
  Al  Al8  1  0.55006800  0.15397200  0.25000000  1
  Al  Al9  1  0.44993200  0.60390400  0.25000000  1
  Al  Al10  1  0.84602800  0.44993200  0.75000000  1
  Al  Al11  1  0.15397200  0.55006800  0.25000000  1
  Al  Al12  1  0.15273200  0.00000000  0.11757900  1
  Al  Al13  1  0.84726800  0.00000000  0.88242100  1
  Al  Al14  1  0.00000000  0.15273200  0.11757900  1
  Al  Al15  1  0.84726800  0.00000000  0.61757900  1
  Al  Al16  1  0.00000000  0.15273200  0.38242100  1
  Al  Al17  1  0.00000000  0.84726800  0.88242100  1
  Al  Al18  1  0.15273200  0.00000000  0.38242100  1
  Al  Al19  1  0.00000000  0.84726800  0.61757900  1
  Al  Al20  1  0.84726800  0.84726800  0.11757900  1
  Al  Al21  1  0.15273200  0.15273200  0.88242100  1
  Al  Al22  1  0.15273200  0.15273200  0.61757900  1
  Al  Al23  1  0.84726800  0.84726800  0.38242100  1
  Al  Al24  1  0.25017100  0.50034200  0.50000000  1
  Al  Al25  1  0.74982900  0.49965800  0.50000000  1
  Al  Al26  1  0.49965800  0.74982900  0.50000000  1
  Al  Al27  1  0.74982900  0.49965800  0.00000000  1
  Al  Al28  1  0.50034200  0.25017100  0.00000000  1
  Al  Al29  1  0.50034200  0.25017100  0.50000000  1
  Al  Al30  1  0.25017100  0.50034200  0.00000000  1
  Al  Al31  1  0.49965800  0.74982900  0.00000000  1
  Al  Al32  1  0.25017100  0.74982900  0.50000000  1
  Al  Al33  1  0.74982900  0.25017100  0.50000000  1
  Al  Al34  1  0.74982900  0.25017100  0.00000000  1
  Al  Al35  1  0.25017100  0.74982900  0.00000000  1
  Al  Al36  1  0.15201800  0.00000000  0.75000000  1
  Al  Al37  1  0.84798200  0.00000000  0.25000000  1
  Al  Al38  1  0.00000000  0.15201800  0.75000000  1
  Al  Al39  1  0.00000000  0.84798200  0.25000000  1
  Al  Al40  1  0.84798200  0.84798200  0.75000000  1
  Al  Al41  1  0.15201800  0.15201800  0.25000000  1
  Al  Al42  1  0.25072000  0.00000000  0.52840100  1
  Al  Al43  1  0.74928000  0.00000000  0.47159900  1
  Al  Al44  1  0.00000000  0.25072000  0.52840100  1
  Al  Al45  1  0.74928000  0.00000000  0.02840100  1
  Al  Al46  1  0.00000000  0.25072000  0.97159900  1
  Al  Al47  1  0.00000000  0.74928000  0.47159900  1
  Al  Al48  1  0.25072000  0.00000000  0.97159900  1
  Al  Al49  1  0.00000000  0.74928000  0.02840100  1
  Al  Al50  1  0.74928000  0.74928000  0.52840100  1
  Al  Al51  1  0.25072000  0.25072000  0.47159900  1
  Al  Al52  1  0.25072000  0.25072000  0.02840100  1
  Al  Al53  1  0.74928000  0.74928000  0.97159900  1
  Al  Al54  1  0.16285800  0.39629200  0.66204100  1
  Al  Al55  1  0.83714200  0.60370800  0.33795900  1
  Al  Al56  1  0.60370800  0.76656600  0.66204100  1
  Al  Al57  1  0.83714200  0.60370800  0.16204100  1
  Al  Al58  1  0.39629200  0.16285800  0.83795900  1
  Al  Al59  1  0.39629200  0.23343400  0.33795900  1
  Al  Al60  1  0.16285800  0.39629200  0.83795900  1
  Al  Al61  1  0.60370800  0.83714200  0.16204100  1
  Al  Al62  1  0.23343400  0.83714200  0.66204100  1
  Al  Al63  1  0.39629200  0.23343400  0.16204100  1
  Al  Al64  1  0.76656600  0.60370800  0.83795900  1
  Al  Al65  1  0.76656600  0.16285800  0.33795900  1
  Al  Al66  1  0.60370800  0.76656600  0.83795900  1
  Al  Al67  1  0.23343400  0.39629200  0.16204100  1
  Al  Al68  1  0.60370800  0.83714200  0.33795900  1
  Al  Al69  1  0.39629200  0.16285800  0.66204100  1
  Al  Al70  1  0.76656600  0.16285800  0.16204100  1
  Al  Al71  1  0.23343400  0.39629200  0.33795900  1
  Al  Al72  1  0.23343400  0.83714200  0.83795900  1
  Al  Al73  1  0.76656600  0.60370800  0.66204100  1
  Al  Al74  1  0.83714200  0.23343400  0.83795900  1
  Al  Al75  1  0.16285800  0.76656600  0.16204100  1
  Al  Al76  1  0.16285800  0.76656600  0.33795900  1
  Al  Al77  1  0.83714200  0.23343400  0.66204100  1
  V  V0  1  0.33333300  0.66666700  0.62995100  1
  V  V1  1  0.66666700  0.33333300  0.37004900  1
  V  V2  1  0.66666700  0.33333300  0.12995100  1
  V  V3  1  0.66666700  0.33333300  0.87004900  1
  V  V4  1  0.33333300  0.66666700  0.87004900  1
  V  V5  1  0.33333300  0.66666700  0.12995100  1
  V  V6  1  0.33333300  0.66666700  0.37004900  1
  V  V7  1  0.66666700  0.33333300  0.62995100  1
  V  V8  1  0.00000000  0.00000000  0.50000000  1
  V  V9  1  0.00000000  0.00000000  0.00000000  1
  V  V10  1  0.73707100  0.00000000  0.75000000  1
  V  V11  1  0.26292900  0.00000000  0.25000000  1
  V  V12  1  0.00000000  0.73707100  0.75000000  1
  V  V13  1  0.00000000  0.26292900  0.25000000  1
  V  V14  1  0.26292900  0.26292900  0.75000000  1
  V  V15  1  0.73707100  0.73707100  0.25000000  1
loop_
_geom_bond_atom_site_label_1
_geom_bond_atom_site_label_2
_geom_bond_distance
_geom_bond_site_symmetry_2
Tb0 V7 3.246069 1_555
Tb0 V0 3.246070 1_545
Tb0 V10 3.465180 1_555
Tb0 Tb1 3.552303 1_555
Tb1 V6 3.246069 1_545
Tb1 V1 3.246070 1_555
Tb1 V11 3.465180 1_555
Tb2 V0 3.246069 1_555
Tb2 V7 3.246070 1_455
Tb2 V12 3.465180 1_555
Tb2 Tb5 3.552303 1_555
Tb3 V5 3.246069 1_545
Tb3 V2 3.246070 1_555
Tb3 V11 3.465180 1_555
Tb3 Tb6 3.552303 1_554
Tb4 V4 3.246069 1_555
Tb4 V3 3.246070 1_455
Tb4 V12 3.465180 1_555
Tb4 Tb7 3.552303 1_556
Tb5 V1 3.246069 1_455
Tb5 V6 3.246070 1_555
Tb5 V13 3.465180 1_555
Tb6 V3 3.246069 1_555
Tb6 V4 3.246070 1_545
Tb6 V10 3.465180 1_555
Tb7 V2 3.246069 1_455
Tb7 V5 3.246070 1_555
Tb7 V13 3.465180 1_555
Tb8 V0 3.246079 1_555
Tb8 V7 3.246079 1_555
Tb8 V14 3.465180 1_555
Tb8 Tb9 3.552303 1_555
Tb9 V6 3.246079 1_555
Tb9 V1 3.246079 1_555
Tb9 V15 3.465180 1_555
Tb10 V5 3.246079 1_555
Tb10 V2 3.246079 1_555
Tb10 V15 3.465180 1_555
Tb10 Tb11 3.552303 1_554
Tb11 V4 3.246079 1_555
Tb11 V3 3.246079 1_555
Tb11 V14 3.465180 1_555
Al0 V4 2.729382 1_555
Al0 V0 2.729382 1_555
Al0 Al72 2.737322 1_555
Al0 Al62 2.737322 1_555
Al0 V12 2.739418 1_555
Al0 Al60 2.799590 1_555
Al0 Al54 2.799590 1_555
Al0 Al10 2.935338 1_455
Al0 Al2 3.005391 1_555
Al0 Al6 3.005391 1_555
Al0 Tb4 3.032417 1_555
Al0 Tb2 3.032417 1_555
Al1 V1 2.729382 1_555
Al1 V2 2.729382 1_555
Al1 Al65 2.737322 1_555
Al1 Al70 2.737322 1_555
Al1 V13 2.739418 1_655
Al1 Al57 2.799590 1_555
Al1 Al55 2.799590 1_555
Al1 Al11 2.935338 1_655
Al1 Al4 3.005391 1_555
Al1 Al8 3.005391 1_555
Al1 Tb5 3.032417 1_655
Al1 Tb7 3.032417 1_655
Al2 V4 2.729388 1_555
Al2 V0 2.729388 1_555
Al2 Al60 2.737322 1_555
Al2 Al54 2.737322 1_555
Al2 V14 2.739418 1_555
Al2 Al56 2.799590 1_555
Al2 Al66 2.799590 1_555
Al2 Al7 2.935338 1_555
Al2 Al6 3.005391 1_555
Al2 Tb11 3.032417 1_555
Al2 Tb8 3.032417 1_555
Al3 V3 2.729382 1_555
Al3 V7 2.729382 1_555
Al3 Al74 2.737322 1_555
Al3 Al77 2.737322 1_555
Al3 V10 2.739418 1_555
Al3 Al69 2.799590 1_555
Al3 Al58 2.799590 1_555
Al3 Al6 2.935338 1_545
Al3 Al7 3.005391 1_555
Al3 Tb6 3.032417 1_555
Al3 Tb0 3.032417 1_555
Al4 V1 2.729388 1_555
Al4 V2 2.729388 1_555
Al4 Al55 2.737322 1_555
Al4 Al57 2.737322 1_555
Al4 V15 2.739418 1_555
Al4 Al59 2.799590 1_555
Al4 Al63 2.799590 1_555
Al4 Al9 2.935338 1_555
Al4 Al8 3.005391 1_555
Al4 Tb9 3.032417 1_555
Al4 Tb10 3.032417 1_555
Al5 V6 2.729382 1_555
Al5 V5 2.729382 1_555
Al5 Al75 2.737322 1_555
Al5 Al76 2.737322 1_555
Al5 V11 2.739418 1_565
Al5 Al68 2.799590 1_555
Al5 Al61 2.799590 1_555
Al5 Al8 2.935338 1_565
Al5 Al9 3.005391 1_555
Al5 Tb1 3.032417 1_565
Al5 Tb3 3.032417 1_565
Al6 V4 2.729383 1_555
Al6 V0 2.729383 1_555
Al6 Al66 2.737322 1_555
Al6 V10 2.739418 1_565
Al6 Al62 2.799590 1_555
Al6 Al72 2.799590 1_555
Al6 Tb6 3.032417 1_565
Al6 Tb0 3.032417 1_565
Al7 V3 2.729388 1_555
Al7 V7 2.729388 1_555
Al7 V14 2.739418 1_555
Al7 Al73 2.799590 1_555
Al7 Tb11 3.032417 1_555
Al7 Tb8 3.032417 1_555
Al8 V1 2.729383 1_555
Al8 V2 2.729383 1_555
Al8 V11 2.739418 1_555
Al8 Tb1 3.032417 1_555
Al8 Tb3 3.032417 1_555
Al9 V6 2.729388 1_555
Al9 V5 2.729388 1_555
Al9 V15 2.739418 1_555
Al9 Tb9 3.032417 1_555
Al9 Tb10 3.032417 1_555
Al10 V3 2.729383 1_555
Al10 V7 2.729383 1_555
Al10 Al73 2.737322 1_555
Al10 Al64 2.737322 1_555
Al10 V12 2.739418 1_655
Al10 Al74 2.799590 1_555
Al10 Al77 2.799590 1_555
Al10 Al7 3.005391 1_555
Al10 Al3 3.005391 1_555
Al10 Tb4 3.032417 1_655
Al10 Tb2 3.032417 1_655
Al11 V6 2.729383 1_555
Al11 V5 2.729383 1_555
Al11 Al71 2.737322 1_555
Al11 Al67 2.737322 1_555
Al11 V13 2.739418 1_555
Al11 Al75 2.799590 1_555
Al11 Al76 2.799590 1_555
Al11 Al9 3.005391 1_555
Al11 Al5 3.005391 1_555
Al11 Tb5 3.032417 1_555
Al11 Tb7 3.032417 1_555
Al12 V11 2.621434 1_555
Al12 V9 2.661573 1_555
Al12 Al75 2.740275 1_545
Al12 Al63 2.740275 1_555
Al12 Al48 2.779681 1_554
Al12 Al41 2.865944 1_555
Al12 Al39 2.865944 1_545
Al12 Al52 2.872572 1_555
Al12 Al49 2.872572 1_545
Al12 Al14 2.911699 1_555
Al12 Al20 2.911699 1_445
Al12 Tb3 3.458515 1_555
Al13 V10 2.621434 1_555
Al13 V9 2.661573 1_656
Al13 Al74 2.740275 1_555
Al13 Al66 2.740275 1_545
Al13 Al45 2.779681 1_556
Al13 Al40 2.865944 1_545
Al13 Al38 2.865944 1_655
Al13 Al53 2.872572 1_545
Al13 Al46 2.872572 1_655
Al13 Al17 2.911699 1_645
Al13 Al21 2.911699 1_655
Al13 Tb6 3.458515 1_555
Al14 V13 2.621434 1_555
Al14 V9 2.661573 1_555
Al14 Al70 2.740275 1_455
Al14 Al67 2.740275 1_555
Al14 Al46 2.779681 1_554
Al14 Al41 2.865944 1_555
Al14 Al37 2.865944 1_455
Al14 Al52 2.872572 1_555
Al14 Al45 2.872572 1_455
Al14 Al20 2.911699 1_445
Al14 Tb7 3.458515 1_555
Al15 V10 2.621434 1_555
Al15 V8 2.661573 1_655
Al15 Al77 2.740275 1_555
Al15 Al56 2.740275 1_545
Al15 Al43 2.779681 1_555
Al15 Al40 2.865944 1_545
Al15 Al38 2.865944 1_655
Al15 Al50 2.872572 1_545
Al15 Al44 2.872572 1_655
Al15 Al19 2.911699 1_645
Al15 Al22 2.911699 1_655
Al15 Tb0 3.458515 1_555
Al16 V13 2.621434 1_555
Al16 V8 2.661573 1_555
Al16 Al65 2.740275 1_455
Al16 Al71 2.740275 1_555
Al16 Al44 2.779681 1_555
Al16 Al41 2.865944 1_555
Al16 Al37 2.865944 1_455
Al16 Al51 2.872572 1_555
Al16 Al43 2.872572 1_455
Al16 Al18 2.911699 1_555
Al16 Al23 2.911699 1_445
Al16 Tb5 3.458515 1_555
Al17 V12 2.621434 1_555
Al17 V9 2.661573 1_566
Al17 Al72 2.740275 1_555
Al17 Al64 2.740275 1_455
Al17 Al49 2.779681 1_556
Al17 Al40 2.865944 1_455
Al17 Al36 2.865944 1_565
Al17 Al53 2.872572 1_455
Al17 Al48 2.872572 1_565
Al17 Al21 2.911699 1_565
Al17 Tb4 3.458515 1_555
Al18 V11 2.621434 1_555
Al18 V8 2.661573 1_555
Al18 Al76 2.740275 1_545
Al18 Al59 2.740275 1_555
Al18 Al42 2.779681 1_555
Al18 Al41 2.865944 1_555
Al18 Al39 2.865944 1_545
Al18 Al51 2.872572 1_555
Al18 Al47 2.872572 1_545
Al18 Al23 2.911699 1_445
Al18 Tb1 3.458515 1_555
Al19 V12 2.621434 1_555
Al19 V8 2.661573 1_565
Al19 Al62 2.740275 1_555
Al19 Al73 2.740275 1_455
Al19 Al47 2.779681 1_555
Al19 Al40 2.865944 1_455
Al19 Al36 2.865944 1_565
Al19 Al50 2.872572 1_455
Al19 Al42 2.872572 1_565
Al19 Al22 2.911699 1_565
Al19 Tb2 3.458515 1_555
Al20 V15 2.621434 1_555
Al20 V9 2.661573 1_665
Al20 Al57 2.740275 1_555
Al20 Al61 2.740275 1_555
Al20 Al53 2.779681 1_554
Al20 Al39 2.865944 1_655
Al20 Al37 2.865944 1_565
Al20 Al49 2.872572 1_655
Al20 Al45 2.872572 1_565
Al20 Tb10 3.458515 1_555
Al21 V14 2.621434 1_555
Al21 V9 2.661573 1_556
Al21 Al60 2.740275 1_555
Al21 Al58 2.740275 1_555
Al21 Al52 2.779681 1_556
Al21 Al38 2.865944 1_555
Al21 Al36 2.865944 1_555
Al21 Al46 2.872572 1_555
Al21 Al48 2.872572 1_555
Al21 Tb11 3.458515 1_555
Al22 V14 2.621434 1_555
Al22 V8 2.661573 1_555
Al22 Al69 2.740275 1_555
Al22 Al54 2.740275 1_555
Al22 Al51 2.779681 1_555
Al22 Al38 2.865944 1_555
Al22 Al36 2.865944 1_555
Al22 Al42 2.872572 1_555
Al22 Al44 2.872572 1_555
Al22 Tb8 3.458515 1_555
Al23 V15 2.621434 1_555
Al23 V8 2.661573 1_665
Al23 Al68 2.740275 1_555
Al23 Al55 2.740275 1_555
Al23 Al50 2.779681 1_555
Al23 Al39 2.865944 1_655
Al23 Al37 2.865944 1_565
Al23 Al47 2.872572 1_655
Al23 Al43 2.872572 1_565
Al23 Tb9 3.458515 1_555
Al24 Al32 2.746020 1_555
Al24 Al26 2.746020 1_555
Al24 V0 2.777542 1_555
Al24 V6 2.777542 1_555
Al24 Al51 2.795328 1_555
Al24 Al44 2.795329 1_555
Al24 Al71 3.036717 1_555
Al24 Al54 3.036717 1_555
Al24 Tb8 3.112016 1_555
Al24 Tb5 3.112016 1_555
Al24 Tb2 3.430473 1_555
Al24 Tb9 3.430473 1_555
Al25 Al33 2.746020 1_555
Al25 Al29 2.746020 1_555
Al25 V7 2.777542 1_555
Al25 V1 2.777542 1_555
Al25 Al50 2.795328 1_555
Al25 Al47 2.795329 1_655
Al25 Al73 3.036717 1_555
Al25 Al55 3.036717 1_555
Al25 Tb9 3.112016 1_555
Al25 Tb2 3.112016 1_655
Al25 Tb5 3.430473 1_655
Al25 Tb8 3.430473 1_555
Al26 Al32 2.746020 1_555
Al26 V0 2.777542 1_555
Al26 V6 2.777542 1_555
Al26 Al50 2.795328 1_555
Al26 Al43 2.795329 1_565
Al26 Al56 3.036717 1_555
Al26 Al68 3.036717 1_555
Al26 Tb9 3.112016 1_555
Al26 Tb0 3.112016 1_565
Al26 Tb1 3.430473 1_565
Al26 Tb8 3.430473 1_555
Al27 Al34 2.746020 1_555
Al27 Al28 2.746020 1_555
Al27 V2 2.777542 1_555
Al27 V3 2.777542 1_554
Al27 Al53 2.795328 1_554
Al27 Al49 2.795329 1_655
Al27 Al64 3.036717 1_554
Al27 Al57 3.036717 1_555
Al27 Tb10 3.112016 1_555
Al27 Tb4 3.112016 1_654
Al27 Tb7 3.430473 1_655
Al27 Tb11 3.430473 1_554
Al28 Al34 2.746020 1_555
Al28 V2 2.777542 1_555
Al28 V3 2.777542 1_554
Al28 Al52 2.795328 1_555
Al28 Al48 2.795329 1_554
Al28 Al63 3.036717 1_555
Al28 Al58 3.036717 1_554
Al28 Tb11 3.112016 1_554
Al28 Tb3 3.112016 1_555
Al28 Tb6 3.430473 1_554
Al28 Tb10 3.430473 1_555
Al29 Al33 2.746020 1_555
Al29 V7 2.777542 1_555
Al29 V1 2.777542 1_555
Al29 Al51 2.795328 1_555
Al29 Al42 2.795329 1_555
Al29 Al59 3.036717 1_555
Al29 Al69 3.036717 1_555
Al29 Tb8 3.112016 1_555
Al29 Tb1 3.112016 1_555
Al29 Tb0 3.430473 1_555
Al29 Tb9 3.430473 1_555
Al30 Al35 2.746020 1_555
Al30 Al31 2.746020 1_555
Al30 V5 2.777542 1_555
Al30 V4 2.777542 1_554
Al30 Al52 2.795328 1_555
Al30 Al46 2.795329 1_554
Al30 Al67 3.036717 1_555
Al30 Al60 3.036717 1_554
Al30 Tb11 3.112016 1_554
Al30 Tb7 3.112016 1_555
Al30 Tb4 3.430473 1_554
Al30 Tb10 3.430473 1_555
Al31 Al35 2.746020 1_555
Al31 V5 2.777542 1_555
Al31 V4 2.777542 1_554
Al31 Al53 2.795328 1_554
Al31 Al45 2.795329 1_565
Al31 Al66 3.036717 1_554
Al31 Al61 3.036717 1_555
Al31 Tb10 3.112016 1_555
Al31 Tb6 3.112016 1_564
Al31 Tb3 3.430473 1_565
Al31 Tb11 3.430473 1_554
Al32 V0 2.777537 1_555
Al32 V6 2.777537 1_555
Al32 Al42 2.795328 1_565
Al32 Al47 2.795328 1_555
Al32 Al62 3.036717 1_555
Al32 Al76 3.036717 1_555
Al32 Tb2 3.112016 1_555
Al32 Tb1 3.112016 1_565
Al32 Tb0 3.430473 1_565
Al32 Tb5 3.430473 1_555
Al33 V7 2.777537 1_555
Al33 V1 2.777537 1_555
Al33 Al44 2.795328 1_655
Al33 Al43 2.795328 1_555
Al33 Al77 3.036717 1_555
Al33 Al65 3.036717 1_555
Al33 Tb0 3.112016 1_555
Al33 Tb5 3.112016 1_655
Al33 Tb2 3.430473 1_655
Al33 Tb1 3.430473 1_555
Al34 V2 2.777537 1_555
Al34 V3 2.777537 1_554
Al34 Al45 2.795328 1_555
Al34 Al46 2.795328 1_654
Al34 Al74 3.036717 1_554
Al34 Al70 3.036717 1_555
Al34 Tb7 3.112016 1_655
Al34 Tb6 3.112016 1_554
Al34 Tb3 3.430473 1_555
Al34 Tb4 3.430473 1_654
Al35 V5 2.777537 1_555
Al35 V4 2.777537 1_554
Al35 Al49 2.795328 1_555
Al35 Al48 2.795328 1_564
Al35 Al72 3.036717 1_554
Al35 Al75 3.036717 1_555
Al35 Tb4 3.112016 1_554
Al35 Tb3 3.112016 1_565
Al35 Tb7 3.430473 1_555
Al35 Tb6 3.430473 1_564
Al36 V14 2.516442 1_555
Al36 V12 2.516442 1_545
Al36 Al72 2.829377 1_545
Al36 Al62 2.829377 1_545
Al36 Al69 2.829377 1_555
Al36 Al58 2.829377 1_555
Al36 Al38 2.898087 1_555
Al36 Al40 2.898087 1_445
Al37 V15 2.516442 1_545
Al37 V13 2.516442 1_655
Al37 Al70 2.829377 1_555
Al37 Al65 2.829377 1_555
Al37 Al61 2.829377 1_545
Al37 Al68 2.829377 1_545
Al37 Al39 2.898087 1_645
Al37 Al41 2.898087 1_655
Al38 V14 2.516442 1_555
Al38 V10 2.516442 1_455
Al38 Al77 2.829377 1_455
Al38 Al74 2.829377 1_455
Al38 Al60 2.829377 1_555
Al38 Al54 2.829377 1_555
Al38 Al40 2.898087 1_445
Al39 V15 2.516442 1_455
Al39 V11 2.516442 1_565
Al39 Al75 2.829377 1_555
Al39 Al76 2.829377 1_555
Al39 Al57 2.829377 1_455
Al39 Al55 2.829377 1_455
Al39 Al41 2.898087 1_565
Al40 V12 2.516442 1_655
Al40 V10 2.516442 1_565
Al40 Al73 2.829377 1_555
Al40 Al66 2.829377 1_555
Al40 Al64 2.829377 1_555
Al40 Al56 2.829377 1_555
Al41 V11 2.516442 1_555
Al41 V13 2.516442 1_555
Al41 Al63 2.829377 1_555
Al41 Al67 2.829377 1_555
Al41 Al59 2.829377 1_555
Al41 Al71 2.829377 1_555
Al42 V8 2.804243 1_555
Al42 Al62 2.899823 1_545
Al42 Al69 2.899823 1_555
Al42 Al51 2.934123 1_555
Al42 Al47 2.934123 1_545
Al42 Tb1 3.252571 1_555
Al42 Tb0 3.359065 1_555
Al43 V8 2.804243 1_655
Al43 Al65 2.899823 1_555
Al43 Al68 2.899823 1_545
Al43 Al50 2.934123 1_545
Al43 Al44 2.934123 1_655
Al43 Tb0 3.252571 1_555
Al43 Tb1 3.359065 1_555
Al44 V8 2.804243 1_555
Al44 Al77 2.899823 1_455
Al44 Al54 2.899823 1_555
Al44 Al51 2.934123 1_555
Al44 Tb5 3.252571 1_555
Al44 Tb2 3.359065 1_555
Al45 V9 2.804243 1_655
Al45 Al70 2.899823 1_555
Al45 Al61 2.899823 1_545
Al45 Al53 2.934123 1_544
Al45 Al46 2.934123 1_654
Al45 Tb6 3.252571 1_554
Al45 Tb3 3.359065 1_555
Al46 V9 2.804243 1_556
Al46 Al74 2.899823 1_455
Al46 Al60 2.899823 1_555
Al46 Al52 2.934123 1_556
Al46 Tb7 3.252571 1_556
Al46 Tb4 3.359065 1_555
Al47 V8 2.804243 1_565
Al47 Al76 2.899823 1_555
Al47 Al55 2.899823 1_455
Al47 Al50 2.934123 1_455
Al47 Tb2 3.252571 1_555
Al47 Tb5 3.359065 1_555
Al48 V9 2.804243 1_556
Al48 Al72 2.899823 1_545
Al48 Al58 2.899823 1_555
Al48 Al52 2.934123 1_556
Al48 Al49 2.934123 1_546
Al48 Tb3 3.252571 1_556
Al48 Tb6 3.359065 1_555
Al49 V9 2.804243 1_565
Al49 Al75 2.899823 1_555
Al49 Al57 2.899823 1_455
Al49 Al53 2.934123 1_454
Al49 Tb4 3.252571 1_554
Al49 Tb7 3.359065 1_555
Al50 V8 2.804243 1_665
Al50 Al56 2.899823 1_555
Al50 Al73 2.899823 1_555
Al50 Tb9 3.252571 1_555
Al50 Tb8 3.359065 1_555
Al51 V8 2.804243 1_555
Al51 Al71 2.899823 1_555
Al51 Al59 2.899823 1_555
Al51 Tb8 3.252571 1_555
Al51 Tb9 3.359065 1_555
Al52 V9 2.804243 1_555
Al52 Al63 2.899823 1_555
Al52 Al67 2.899823 1_555
Al52 Tb11 3.252571 1_554
Al52 Tb10 3.359065 1_555
Al53 V9 2.804243 1_666
Al53 Al66 2.899823 1_555
Al53 Al64 2.899823 1_555
Al53 Tb10 3.252571 1_556
Al53 Tb11 3.359065 1_555
Al54 V0 2.666481 1_555
Al54 V14 2.714323 1_555
Al54 Tb2 3.079172 1_555
Al54 Al60 3.087322 1_555
Al54 Al77 3.104742 1_455
Al54 Tb8 3.220160 1_555
Al55 V1 2.666481 1_555
Al55 V15 2.714323 1_555
Al55 Tb5 3.079172 1_655
Al55 Al57 3.087322 1_555
Al55 Al76 3.104742 1_655
Al55 Tb9 3.220160 1_555
Al56 V0 2.666483 1_555
Al56 V10 2.714323 1_565
Al56 Al6 2.737322 1_555
Al56 Tb8 3.079173 1_555
Al56 Al66 3.087322 1_555
Al56 Al73 3.104742 1_555
Al56 Tb0 3.220160 1_565
Al57 V2 2.666481 1_555
Al57 V15 2.714323 1_555
Al57 Tb7 3.079172 1_655
Al57 Al75 3.104742 1_655
Al57 Tb10 3.220160 1_555
Al58 V3 2.666481 1_555
Al58 V14 2.714323 1_555
Al58 Al7 2.737322 1_555
Al58 Tb6 3.079172 1_555
Al58 Al69 3.087322 1_555
Al58 Al72 3.104742 1_545
Al58 Tb11 3.220160 1_555
Al59 V1 2.666483 1_555
Al59 V11 2.714323 1_555
Al59 Al8 2.737322 1_555
Al59 Tb9 3.079173 1_555
Al59 Al63 3.087322 1_555
Al59 Al71 3.104742 1_555
Al59 Tb1 3.220160 1_555
Al60 V4 2.666481 1_555
Al60 V14 2.714323 1_555
Al60 Tb4 3.079172 1_555
Al60 Al74 3.104742 1_455
Al60 Tb11 3.220160 1_555
Al61 V5 2.666481 1_555
Al61 V15 2.714323 1_555
Al61 Al9 2.737322 1_555
Al61 Tb3 3.079172 1_565
Al61 Al68 3.087322 1_555
Al61 Al70 3.104742 1_565
Al61 Tb10 3.220160 1_555
Al62 V0 2.666473 1_555
Al62 V12 2.714323 1_555
Al62 Tb0 3.079173 1_565
Al62 Al72 3.087322 1_555
Al62 Al69 3.104742 1_565
Al62 Tb2 3.220160 1_555
Al63 V2 2.666483 1_555
Al63 V11 2.714323 1_555
Al63 Al8 2.737322 1_555
Al63 Tb10 3.079173 1_555
Al63 Al67 3.104742 1_555
Al63 Tb3 3.220160 1_555
Al64 V3 2.666483 1_555
Al64 V12 2.714323 1_655
Al64 Al7 2.799590 1_555
Al64 Tb11 3.079173 1_555
Al64 Al73 3.087322 1_555
Al64 Al66 3.104742 1_555
Al64 Tb4 3.220160 1_655
Al65 V1 2.666473 1_555
Al65 V13 2.714323 1_655
Al65 Al8 2.799590 1_555
Al65 Tb1 3.079173 1_555
Al65 Al70 3.087322 1_555
Al65 Al68 3.104742 1_545
Al65 Tb5 3.220160 1_655
Al66 V4 2.666483 1_555
Al66 V10 2.714323 1_565
Al66 Tb11 3.079173 1_555
Al66 Tb6 3.220160 1_565
Al67 V5 2.666483 1_555
Al67 V13 2.714323 1_555
Al67 Al9 2.799590 1_555
Al67 Tb10 3.079173 1_555
Al67 Al71 3.087322 1_555
Al67 Tb7 3.220160 1_555
Al68 V6 2.666481 1_555
Al68 V15 2.714323 1_555
Al68 Al9 2.737322 1_555
Al68 Tb1 3.079172 1_565
Al68 Tb9 3.220160 1_555
Al69 V7 2.666481 1_555
Al69 V14 2.714323 1_555
Al69 Al7 2.737322 1_555
Al69 Tb0 3.079172 1_555
Al69 Tb8 3.220160 1_555
Al70 V2 2.666473 1_555
Al70 V13 2.714323 1_655
Al70 Al8 2.799590 1_555
Al70 Tb3 3.079173 1_555
Al70 Tb7 3.220160 1_655
Al71 V6 2.666483 1_555
Al71 V13 2.714323 1_555
Al71 Al9 2.799590 1_555
Al71 Tb9 3.079173 1_555
Al71 Tb5 3.220160 1_555
Al72 V4 2.666473 1_555
Al72 V12 2.714323 1_555
Al72 Tb6 3.079173 1_565
Al72 Tb4 3.220160 1_555
Al73 V7 2.666483 1_555
Al73 V12 2.714323 1_655
Al73 Tb8 3.079173 1_555
Al73 Tb2 3.220160 1_655
Al74 V3 2.666473 1_555
Al74 V10 2.714323 1_555
Al74 Tb4 3.079173 1_655
Al74 Al77 3.087322 1_555
Al74 Tb6 3.220160 1_555
Al75 V5 2.666473 1_555
Al75 V11 2.714323 1_565
Al75 Tb7 3.079173 1_555
Al75 Al76 3.087322 1_555
Al75 Tb3 3.220160 1_565
Al76 V6 2.666473 1_555
Al76 V11 2.714323 1_565
Al76 Tb5 3.079173 1_555
Al76 Tb1 3.220160 1_565
Al77 V7 2.666473 1_555
Al77 V10 2.714323 1_555
Al77 Tb2 3.079173 1_655
Al77 Tb0 3.220160 1_555
