# generated using pymatgen
data_Y(CrS2)2
_symmetry_space_group_name_H-M   'P 1'
_cell_length_a   7.29428429
_cell_length_b   7.29428429
_cell_length_c   7.29428429
_cell_angle_alpha   121.18637700
_cell_angle_beta   116.62194572
_cell_angle_gamma   91.95272273
_symmetry_Int_Tables_number   1
_chemical_formula_structural   Y(CrS2)2
_chemical_formula_sum   'Y2 Cr4 S8'
_cell_volume   278.27061743
_cell_formula_units_Z   2
loop_
 _symmetry_equiv_pos_site_id
 _symmetry_equiv_pos_as_xyz
  1  'x, y, z'
loop_
 _atom_site_type_symbol
 _atom_site_label
 _atom_site_symmetry_multiplicity
 _atom_site_fract_x
 _atom_site_fract_y
 _atom_site_fract_z
 _atom_site_occupancy
  Y  Y0  1  0.50000000  0.00000000  0.50000000  1
  Y  Y1  1  0.00000000  0.00000000  0.00000000  1
  Cr  Cr0  1  0.50000000  0.50000000  0.50000000  1
  Cr  Cr1  1  0.50000000  0.50000000  0.00000000  1
  Cr  Cr2  1  0.50000000  0.00000000  0.00000000  1
  Cr  Cr3  1  0.00000000  0.50000000  0.50000000  1
  S  S0  1  0.73013300  0.26395000  0.46618300  1
  S  S1  1  0.74258000  0.72424700  0.48166700  1
  S  S2  1  0.29776600  0.26395000  0.03381700  1
  S  S3  1  0.25742000  0.73908700  0.98166700  1
  S  S4  1  0.70223300  0.73605000  0.96618300  1
  S  S5  1  0.25742000  0.27575300  0.51833300  1
  S  S6  1  0.74258000  0.26091300  0.01833300  1
  S  S7  1  0.26986700  0.73605000  0.53381700  1
loop_
_geom_bond_atom_site_label_1
_geom_bond_atom_site_label_2
_geom_bond_distance
_geom_bond_site_symmetry_2
Cr0 S2 2.443683 1_555
Cr0 S0 2.443684 1_555
Cr0 S4 2.443684 1_555
Cr0 S7 2.443684 1_555
Cr0 S5 2.462877 1_555
Cr0 S1 2.462877 1_555
Cr1 S4 2.407160 1_554
Cr1 S2 2.407165 1_555
Cr1 S1 2.535749 1_555
Cr1 S3 2.535749 1_554
Cr1 S6 2.535749 1_555
Cr1 S5 2.535749 1_554
Cr2 S0 2.443684 1_555
Cr2 S4 2.443684 1_544
Cr2 S7 2.443684 1_544
Cr2 S2 2.443689 1_555
Cr2 S6 2.462877 1_555
Cr2 S3 2.462877 1_544
Cr3 S7 2.407160 1_555
Cr3 S0 2.407160 1_455
Cr3 S3 2.535749 1_555
Cr3 S6 2.535749 1_455
Cr3 S1 2.535749 1_455
Cr3 S5 2.535749 1_555
S0 Y0 2.688550 1_555
S1 Y0 2.714901 1_565
S1 Y1 2.714901 1_666
S2 Y1 2.688545 1_555
S3 Y0 2.714901 1_566
S3 Y1 2.714901 1_566
S4 Y1 2.688550 1_666
S5 Y0 2.714901 1_555
S5 Y1 2.714901 1_555
S6 Y0 2.714901 1_554
S6 Y1 2.714901 1_655
S7 Y0 2.688550 1_565
