# generated using pymatgen
data_CaB3(CO)6
_symmetry_space_group_name_H-M   'P 1'
_cell_length_a   6.04667336
_cell_length_b   6.88301949
_cell_length_c   24.82506511
_cell_angle_alpha   87.37361967
_cell_angle_beta   95.94141912
_cell_angle_gamma   103.96112019
_symmetry_Int_Tables_number   1
_chemical_formula_structural   CaB3(CO)6
_chemical_formula_sum   'Ca1 B3 C6 O6'
_cell_volume   997.06356787
_cell_formula_units_Z   1
loop_
 _symmetry_equiv_pos_site_id
 _symmetry_equiv_pos_as_xyz
  1  'x, y, z'
loop_
 _atom_site_type_symbol
 _atom_site_label
 _atom_site_symmetry_multiplicity
 _atom_site_fract_x
 _atom_site_fract_y
 _atom_site_fract_z
 _atom_site_occupancy
  Ca  Ca0  1  0.00000000  0.00000000  0.00000000  1
  B  B0  1  0.00000000  0.00000000  0.50000000  1
  B  B1  1  0.50000000  0.50000000  0.00000000  1
  B  B2  1  0.00000000  0.50000000  0.00000000  1
  C  C0  1  0.90788500  0.01477300  0.74272000  1
  C  C1  1  0.09211500  0.98522700  0.25728000  1
  C  C2  1  0.64540200  0.69653400  0.98408600  1
  C  C3  1  0.35459800  0.30346500  0.01591400  1
  C  C4  1  0.16872900  0.38948400  0.00417900  1
  C  C5  1  0.83127100  0.61051600  0.99582100  1
  O  O0  1  0.98096300  0.18055600  0.75685000  1
  O  O1  1  0.01903700  0.81944400  0.24315000  1
  O  O2  1  0.83494700  0.84864400  0.72862300  1
  O  O3  1  0.16505300  0.15135600  0.27137700  1
  O  O4  1  0.63537600  0.87706100  0.96874900  1
  O  O5  1  0.36462400  0.12293900  0.03125100  1
loop_
_geom_bond_atom_site_label_1
_geom_bond_atom_site_label_2
_geom_bond_distance
_geom_bond_site_symmetry_2
Ca0 O5 2.232650 1_555
Ca0 O4 2.232650 1_444
B1 C2 1.485947 1_554
B1 C3 1.485952 1_555
B1 C5 1.975428 1_554
B1 C4 1.975428 1_555
B2 C5 1.405578 1_454
B2 C4 1.405578 1_555
C0 O0 1.175447 1_555
C0 O2 1.177235 1_545
C1 O1 1.175447 1_555
C1 O3 1.177235 1_565
C2 O4 1.296470 1_555
C2 C5 1.391411 1_555
C3 O5 1.296463 1_555
C3 C4 1.391415 1_555
C4 Ca0 2.631029 1_555
C5 Ca0 2.631029 1_666
