# generated using pymatgen
data_LuCuSb2
_symmetry_space_group_name_H-M   'P 1'
_cell_length_a   4.26136600
_cell_length_b   4.26136600
_cell_length_c   9.73237300
_cell_angle_alpha   90.00000000
_cell_angle_beta   90.00000000
_cell_angle_gamma   90.00000000
_symmetry_Int_Tables_number   1
_chemical_formula_structural   LuCuSb2
_chemical_formula_sum   'Lu2 Cu2 Sb4'
_cell_volume   176.73249889
_cell_formula_units_Z   2
loop_
 _symmetry_equiv_pos_site_id
 _symmetry_equiv_pos_as_xyz
  1  'x, y, z'
loop_
 _atom_site_type_symbol
 _atom_site_label
 _atom_site_symmetry_multiplicity
 _atom_site_fract_x
 _atom_site_fract_y
 _atom_site_fract_z
 _atom_site_occupancy
  Lu  Lu0  1  0.00000000  0.50000000  0.75233300  1
  Lu  Lu1  1  0.50000000  0.00000000  0.24766700  1
  Cu  Cu0  1  0.50000000  0.50000000  0.50000000  1
  Cu  Cu1  1  0.00000000  0.00000000  0.50000000  1
  Sb  Sb0  1  0.50000000  0.50000000  0.00000000  1
  Sb  Sb1  1  0.00000000  0.00000000  0.00000000  1
  Sb  Sb2  1  0.00000000  0.50000000  0.33381300  1
  Sb  Sb3  1  0.50000000  0.00000000  0.66618700  1
loop_
_geom_bond_atom_site_label_1
_geom_bond_atom_site_label_2
_geom_bond_distance
_geom_bond_site_symmetry_2
Lu0 Sb3 3.127706 1_555
Lu0 Sb3 3.127706 1_565
Lu0 Sb3 3.127706 1_455
Lu0 Sb3 3.127706 1_465
Lu0 Sb0 3.217107 1_456
Lu0 Sb1 3.217107 1_566
Lu0 Sb0 3.217107 1_556
Lu0 Sb1 3.217107 1_556
Lu1 Sb2 3.127706 1_645
Lu1 Sb2 3.127706 1_545
Lu1 Sb2 3.127706 1_555
Lu1 Sb2 3.127706 1_655
Lu1 Sb0 3.217107 1_545
Lu1 Sb1 3.217107 1_655
Lu1 Sb1 3.217107 1_555
Lu1 Sb0 3.217107 1_555
Cu0 Sb3 2.675028 1_565
Cu0 Sb3 2.675028 1_555
Cu0 Sb2 2.675028 1_655
Cu0 Sb2 2.675028 1_555
Cu0 Cu1 3.013241 1_565
Cu0 Cu1 3.013241 1_655
Cu0 Cu1 3.013241 1_665
Cu0 Cu1 3.013241 1_555
Cu0 Lu0 3.251270 1_555
Cu0 Lu0 3.251270 1_655
Cu0 Lu1 3.251270 1_565
Cu0 Lu1 3.251270 1_555
Cu1 Sb3 2.675028 1_555
Cu1 Sb3 2.675028 1_455
Cu1 Sb2 2.675028 1_545
Cu1 Sb2 2.675028 1_555
Cu1 Lu0 3.251270 1_545
Cu1 Lu0 3.251270 1_555
Cu1 Lu1 3.251270 1_455
Cu1 Lu1 3.251270 1_555
Sb0 Sb1 3.013241 1_655
Sb0 Sb1 3.013241 1_565
Sb0 Sb1 3.013241 1_555
Sb0 Sb1 3.013241 1_665
