# generated using pymatgen
data_BaMn2Ru4O11
_symmetry_space_group_name_H-M   'P 1'
_cell_length_a   6.03449696
_cell_length_b   6.03449696
_cell_length_c   13.58710995
_cell_angle_alpha   89.97304490
_cell_angle_beta   89.97304490
_cell_angle_gamma   119.65503834
_symmetry_Int_Tables_number   1
_chemical_formula_structural   BaMn2Ru4O11
_chemical_formula_sum   'Ba2 Mn4 Ru8 O22'
_cell_volume   429.97067883
_cell_formula_units_Z   2
loop_
 _symmetry_equiv_pos_site_id
 _symmetry_equiv_pos_as_xyz
  1  'x, y, z'
loop_
 _atom_site_type_symbol
 _atom_site_label
 _atom_site_symmetry_multiplicity
 _atom_site_fract_x
 _atom_site_fract_y
 _atom_site_fract_z
 _atom_site_occupancy
  Ba  Ba0  1  0.33244200  0.66755800  0.75000000  1
  Ba  Ba1  1  0.66755800  0.33244200  0.25000000  1
  Mn  Mn0  1  0.33433300  0.66566700  0.25000000  1
  Mn  Mn1  1  0.66566700  0.33433300  0.75000000  1
  Mn  Mn2  1  0.00000000  0.50000000  0.00000000  1
  Mn  Mn3  1  0.50000000  0.00000000  0.50000000  1
  Ru  Ru0  1  0.50000000  0.00000000  0.00000000  1
  Ru  Ru1  1  0.50000000  0.50000000  0.00000000  1
  Ru  Ru2  1  0.00000000  0.50000000  0.50000000  1
  Ru  Ru3  1  0.50000000  0.50000000  0.50000000  1
  Ru  Ru4  1  0.00673700  0.00469500  0.85141800  1
  Ru  Ru5  1  0.99326300  0.99530500  0.14858200  1
  Ru  Ru6  1  0.00469500  0.00673700  0.35141800  1
  Ru  Ru7  1  0.99530500  0.99326300  0.64858200  1
  O  O0  1  0.28646100  0.14227400  0.74749800  1
  O  O1  1  0.85772600  0.71353900  0.75250200  1
  O  O2  1  0.85531300  0.14468700  0.75000000  1
  O  O3  1  0.71353900  0.85772600  0.25250200  1
  O  O4  1  0.14227400  0.28646100  0.24749800  1
  O  O5  1  0.14468700  0.85531300  0.25000000  1
  O  O6  1  0.32448100  0.64973800  0.41446900  1
  O  O7  1  0.67551900  0.35026200  0.58553100  1
  O  O8  1  0.64973800  0.32448100  0.91446900  1
  O  O9  1  0.35026200  0.67551900  0.08553100  1
  O  O10  1  0.66641500  0.83421700  0.92136000  1
  O  O11  1  0.17832500  0.34239200  0.91963900  1
  O  O12  1  0.17895100  0.83864700  0.92010500  1
  O  O13  1  0.33358500  0.16578300  0.07864000  1
  O  O14  1  0.82167500  0.65760800  0.08036100  1
  O  O15  1  0.82104900  0.16135300  0.07989500  1
  O  O16  1  0.34239200  0.17832500  0.41963900  1
  O  O17  1  0.83421700  0.66641500  0.42136000  1
  O  O18  1  0.83864700  0.17895100  0.42010500  1
  O  O19  1  0.65760800  0.82167500  0.58036100  1
  O  O20  1  0.16578300  0.33358500  0.57864000  1
  O  O21  1  0.16135300  0.82104900  0.57989500  1
loop_
_geom_bond_atom_site_label_1
_geom_bond_atom_site_label_2
_geom_bond_distance
_geom_bond_site_symmetry_2
Ba0 O12 2.865690 1_555
Ba0 O21 2.865690 1_555
Ba0 O11 2.866303 1_555
Ba0 O19 2.866303 1_555
Ba0 O20 2.914613 1_555
Ba0 O10 2.914613 1_555
Ba0 O1 3.011806 1_455
Ba0 O0 3.011806 1_565
Ba0 O0 3.042317 1_555
Ba0 O1 3.042317 1_555
Ba0 O2 3.042340 1_565
Ba0 O2 3.042340 1_455
Ba1 O15 2.865690 1_555
Ba1 O18 2.865690 1_555
Ba1 O16 2.866303 1_555
Ba1 O14 2.866303 1_555
Ba1 O17 2.914613 1_555
Ba1 O13 2.914613 1_555
Ba1 O3 3.011806 1_545
Ba1 O4 3.011806 1_655
Ba1 O4 3.042317 1_555
Ba1 O3 3.042317 1_555
Ba1 O5 3.042340 1_655
Ba1 O5 3.042340 1_545
Mn0 O5 1.978736 1_555
Mn0 O3 1.989092 1_555
Mn0 O4 1.989092 1_555
Mn0 O9 2.236178 1_555
Mn0 O6 2.236178 1_555
Mn1 O2 1.978736 1_555
Mn1 O1 1.989092 1_555
Mn1 O0 1.989092 1_555
Mn1 O7 2.236178 1_555
Mn1 O8 2.236178 1_555
Mn2 O11 2.065766 1_554
Mn2 O14 2.065766 1_455
Mn2 O12 2.081767 1_554
Mn2 O15 2.081767 1_455
Mn2 O9 2.174404 1_555
Mn2 O8 2.174404 1_454
Mn3 O16 2.065766 1_555
Mn3 O19 2.065766 1_545
Mn3 O21 2.081767 1_545
Mn3 O18 2.081767 1_555
Mn3 O7 2.174404 1_555
Mn3 O6 2.174404 1_545
O0 Ru7 2.035145 1_445
O0 Ru4 2.035225 1_555
O1 Ru4 2.035145 1_665
O1 Ru7 2.035225 1_555
O2 Ru7 2.052172 1_545
O2 Ru4 2.052172 1_655
O3 Ru6 2.035145 1_665
O3 Ru5 2.035225 1_555
O4 Ru5 2.035145 1_445
O4 Ru6 2.035225 1_555
O5 Ru5 2.052172 1_455
O5 Ru6 2.052172 1_565
O6 Ru3 2.058172 1_555
O6 Ru2 2.060855 1_555
O7 Ru3 2.058172 1_555
O7 Ru2 2.060855 1_655
O8 Ru1 2.058172 1_556
O8 Ru0 2.060855 1_556
O9 Ru1 2.058172 1_555
O9 Ru0 2.060855 1_565
O10 Ru4 2.021282 1_665
O10 Ru0 2.035961 1_566
O10 Ru1 2.051954 1_556
O11 Ru4 1.999689 1_555
O11 Ru1 2.010190 1_556
O12 Ru4 1.996364 1_565
O12 Ru0 2.004035 1_566
O13 Ru5 2.021282 1_445
O13 Ru0 2.035961 1_555
O13 Ru1 2.051954 1_555
O14 Ru5 1.999689 1_555
O14 Ru1 2.010190 1_555
O15 Ru5 1.996364 1_545
O15 Ru0 2.004035 1_555
O16 Ru6 1.999689 1_555
O16 Ru3 2.010190 1_555
O17 Ru6 2.021282 1_665
O17 Ru2 2.035961 1_655
O17 Ru3 2.051954 1_555
O18 Ru6 1.996364 1_655
O18 Ru2 2.004035 1_655
O19 Ru7 1.999689 1_555
O19 Ru3 2.010190 1_555
O20 Ru7 2.021282 1_445
O20 Ru2 2.035961 1_555
O20 Ru3 2.051954 1_555
O21 Ru7 1.996364 1_455
O21 Ru2 2.004035 1_555
