# generated using pymatgen
data_RbLaZr6FeCl18
_symmetry_space_group_name_H-M   'P 1'
_cell_length_a   9.87871959
_cell_length_b   9.87871959
_cell_length_c   18.76453300
_cell_angle_alpha   90.00000000
_cell_angle_beta   90.00000000
_cell_angle_gamma   119.99999723
_symmetry_Int_Tables_number   1
_chemical_formula_structural   RbLaZr6FeCl18
_chemical_formula_sum   'Rb2 La2 Zr12 Fe2 Cl36'
_cell_volume   1585.87780147
_cell_formula_units_Z   2
loop_
 _symmetry_equiv_pos_site_id
 _symmetry_equiv_pos_as_xyz
  1  'x, y, z'
loop_
 _atom_site_type_symbol
 _atom_site_label
 _atom_site_symmetry_multiplicity
 _atom_site_fract_x
 _atom_site_fract_y
 _atom_site_fract_z
 _atom_site_occupancy
  Rb  Rb0  1  0.33333300  0.66666700  0.75000000  1
  Rb  Rb1  1  0.66666700  0.33333300  0.25000000  1
  La  La0  1  0.66666700  0.33333300  0.75000000  1
  La  La1  1  0.33333300  0.66666700  0.25000000  1
  Zr  Zr0  1  0.82206100  0.04057800  0.57470300  1
  Zr  Zr1  1  0.17793900  0.95942200  0.42529700  1
  Zr  Zr2  1  0.95942200  0.78148300  0.57470300  1
  Zr  Zr3  1  0.82206100  0.78148300  0.92529700  1
  Zr  Zr4  1  0.04057800  0.21851700  0.42529700  1
  Zr  Zr5  1  0.17793900  0.21851700  0.07470300  1
  Zr  Zr6  1  0.21851700  0.17793900  0.57470300  1
  Zr  Zr7  1  0.95942200  0.17793900  0.92529700  1
  Zr  Zr8  1  0.78148300  0.82206100  0.42529700  1
  Zr  Zr9  1  0.04057800  0.82206100  0.07470300  1
  Zr  Zr10  1  0.21851700  0.04057800  0.92529700  1
  Zr  Zr11  1  0.78148300  0.95942200  0.07470300  1
  Fe  Fe0  1  0.00000000  0.00000000  0.50000000  1
  Fe  Fe1  1  0.00000000  0.00000000  0.00000000  1
  Cl  Cl0  1  0.27069000  0.41734000  0.50081000  1
  Cl  Cl1  1  0.72931000  0.58266000  0.49919000  1
  Cl  Cl2  1  0.58266000  0.85335000  0.50081000  1
  Cl  Cl3  1  0.27069000  0.85335000  0.99919000  1
  Cl  Cl4  1  0.41734000  0.14665000  0.49919000  1
  Cl  Cl5  1  0.72931000  0.14665000  0.00081000  1
  Cl  Cl6  1  0.14665000  0.72931000  0.50081000  1
  Cl  Cl7  1  0.58266000  0.72931000  0.99919000  1
  Cl  Cl8  1  0.85335000  0.27069000  0.49919000  1
  Cl  Cl9  1  0.41734000  0.27069000  0.00081000  1
  Cl  Cl10  1  0.14665000  0.41734000  0.99919000  1
  Cl  Cl11  1  0.85335000  0.58266000  0.00081000  1
  Cl  Cl12  1  0.04241200  0.23055600  0.65798600  1
  Cl  Cl13  1  0.95758800  0.76944400  0.34201400  1
  Cl  Cl14  1  0.76944400  0.81185600  0.65798600  1
  Cl  Cl15  1  0.04241200  0.81185600  0.84201400  1
  Cl  Cl16  1  0.23055600  0.18814400  0.34201400  1
  Cl  Cl17  1  0.95758800  0.18814400  0.15798600  1
  Cl  Cl18  1  0.18814400  0.95758800  0.65798600  1
  Cl  Cl19  1  0.76944400  0.95758800  0.84201400  1
  Cl  Cl20  1  0.81185600  0.04241200  0.34201400  1
  Cl  Cl21  1  0.23055600  0.04241200  0.15798600  1
  Cl  Cl22  1  0.18814400  0.23055600  0.84201400  1
  Cl  Cl23  1  0.81185600  0.76944400  0.15798600  1
  Cl  Cl24  1  0.62120100  0.07840100  0.66282600  1
  Cl  Cl25  1  0.37879900  0.92159900  0.33717400  1
  Cl  Cl26  1  0.92159900  0.54280000  0.66282600  1
  Cl  Cl27  1  0.62120100  0.54280000  0.83717400  1
  Cl  Cl28  1  0.07840100  0.45720000  0.33717400  1
  Cl  Cl29  1  0.37879900  0.45720000  0.16282600  1
  Cl  Cl30  1  0.45720000  0.37879900  0.66282600  1
  Cl  Cl31  1  0.92159900  0.37879900  0.83717400  1
  Cl  Cl32  1  0.54280000  0.62120100  0.33717400  1
  Cl  Cl33  1  0.07840100  0.62120100  0.16282600  1
  Cl  Cl34  1  0.45720000  0.07840100  0.83717400  1
  Cl  Cl35  1  0.54280000  0.92159900  0.16282600  1
loop_
_geom_bond_atom_site_label_1
_geom_bond_atom_site_label_2
_geom_bond_distance
_geom_bond_site_symmetry_2
Fe0 Zr0 2.433139 1_455
Fe0 Zr1 2.433139 1_545
Fe0 Zr2 2.433139 1_445
Fe0 Zr4 2.433139 1_555
Fe0 Zr6 2.433139 1_555
Fe0 Zr8 2.433139 1_445
Fe1 Zr7 2.433139 1_454
Fe1 Zr9 2.433139 1_545
Fe1 Zr10 2.433139 1_554
Fe1 Zr11 2.433139 1_445
Fe1 Zr3 2.433139 1_444
Fe1 Zr5 2.433139 1_555
Cl0 Zr6 2.561719 1_555
Cl0 Zr4 2.562847 1_555
Cl1 Zr8 2.561719 1_555
Cl1 Zr2 2.562847 1_555
Cl2 Zr0 2.561719 1_565
Cl2 Zr8 2.562847 1_555
Cl3 Zr10 2.561719 1_565
Cl3 Zr9 2.562847 1_556
Cl4 Zr1 2.561719 1_545
Cl4 Zr6 2.562847 1_555
Cl5 Zr11 2.561719 1_545
Cl5 Zr7 2.562847 1_554
Cl6 Zr2 2.561719 1_455
Cl6 Zr1 2.562847 1_555
Cl7 Zr3 2.561719 1_555
Cl7 Zr11 2.562847 1_556
Cl8 Zr4 2.561719 1_655
Cl8 Zr0 2.562847 1_555
Cl9 Zr5 2.561719 1_555
Cl9 Zr10 2.562847 1_554
Cl10 Zr7 2.561719 1_455
Cl10 Zr5 2.562847 1_556
Cl11 Zr9 2.561719 1_655
Cl11 Zr3 2.562847 1_554
Cl12 Zr0 2.572455 1_455
Cl12 Zr6 2.577444 1_555
Cl13 Zr1 2.572455 1_655
Cl13 Zr8 2.577444 1_555
Cl14 Zr2 2.572455 1_555
Cl14 Zr0 2.577444 1_565
Cl15 Zr3 2.572455 1_455
Cl15 Zr10 2.577444 1_565
Cl16 Zr4 2.572455 1_555
Cl16 Zr1 2.577444 1_545
Cl17 Zr5 2.572455 1_655
Cl17 Zr11 2.577444 1_545
Cl18 Zr6 2.572455 1_565
Cl18 Zr2 2.577444 1_455
Cl19 Zr7 2.572455 1_565
Cl19 Zr3 2.577444 1_555
Cl20 Zr8 2.572455 1_545
Cl20 Zr4 2.577444 1_655
Cl21 Zr9 2.572455 1_545
Cl21 Zr5 2.577444 1_555
Cl22 Zr10 2.572455 1_555
Cl22 Zr7 2.577444 1_455
Cl23 Zr11 2.572455 1_555
Cl23 Zr9 2.577444 1_655
Cl24 Zr0 2.748193 1_555
Cl24 La0 2.844068 1_555
Cl24 Rb0 3.967344 1_545
Cl25 Zr1 2.748193 1_555
Cl25 La1 2.844068 1_555
Cl25 Rb1 3.967344 1_565
Cl26 Zr2 2.748193 1_555
Cl26 La0 2.844071 1_555
Cl26 Rb0 3.967342 1_655
Cl27 Zr3 2.748193 1_555
Cl27 La0 2.844076 1_555
Cl27 Rb0 3.967350 1_555
Cl28 Zr4 2.748193 1_555
Cl28 La1 2.844071 1_555
Cl28 Rb1 3.967342 1_455
Cl29 Zr5 2.748193 1_555
Cl29 La1 2.844076 1_555
Cl29 Rb1 3.967350 1_555
Cl30 Zr6 2.748193 1_555
Cl30 La0 2.844076 1_555
Cl30 Rb0 3.967350 1_555
Cl31 Zr7 2.748193 1_555
Cl31 La0 2.844068 1_555
Cl31 Rb0 3.967344 1_655
Cl32 Zr8 2.748193 1_555
Cl32 La1 2.844076 1_555
Cl32 Rb1 3.967350 1_555
Cl33 Zr9 2.748193 1_555
Cl33 La1 2.844068 1_555
Cl33 Rb1 3.967344 1_455
Cl34 Zr10 2.748193 1_555
Cl34 La0 2.844071 1_555
Cl34 Rb0 3.967342 1_545
Cl35 Zr11 2.748193 1_555
Cl35 La1 2.844071 1_555
Cl35 Rb1 3.967342 1_565
