# generated using pymatgen
data_FeSnO3
_symmetry_space_group_name_H-M   'P 1'
_cell_length_a   5.33729204
_cell_length_b   9.08480017
_cell_length_c   5.47216676
_cell_angle_alpha   74.37808331
_cell_angle_beta   68.38294472
_cell_angle_gamma   90.25759005
_symmetry_Int_Tables_number   1
_chemical_formula_structural   FeSnO3
_chemical_formula_sum   'Fe4 Sn4 O12'
_cell_volume   235.96267209
_cell_formula_units_Z   4
loop_
 _symmetry_equiv_pos_site_id
 _symmetry_equiv_pos_as_xyz
  1  'x, y, z'
loop_
 _atom_site_type_symbol
 _atom_site_label
 _atom_site_symmetry_multiplicity
 _atom_site_fract_x
 _atom_site_fract_y
 _atom_site_fract_z
 _atom_site_occupancy
  Fe  Fe0  1  0.41042451  0.81099914  0.07185298  1
  Fe  Fe1  1  0.08951582  0.68897740  0.92817809  1
  Fe  Fe2  1  0.91043321  0.31101626  0.07184231  1
  Fe  Fe3  1  0.58955112  0.18899909  0.92814954  1
  Sn  Sn0  1  0.76786813  0.92586889  0.45734053  1
  Sn  Sn1  1  0.26788050  0.42587613  0.45732265  1
  Sn  Sn2  1  0.73213278  0.57412464  0.54267632  1
  Sn  Sn3  1  0.23212384  0.07414103  0.54265895  1
  O  O0  1  0.03113606  0.12055371  0.26924602  1
  O  O1  1  0.53113780  0.62053717  0.26927686  1
  O  O2  1  0.46888726  0.37945798  0.73071541  1
  O  O3  1  0.96888207  0.87943871  0.73075345  1
  O  O4  1  0.01314963  0.47831356  0.25024964  1
  O  O5  1  0.51314469  0.97831326  0.25026815  1
  O  O6  1  0.48686173  0.02169752  0.74969315  1
  O  O7  1  0.98685163  0.52168213  0.74975619  1
  O  O8  1  0.00605671  0.22430130  0.73053025  1
  O  O9  1  0.50601952  0.72429713  0.73054793  1
  O  O10  1  0.49398462  0.27571178  0.26945841  1
  O  O11  1  0.99395137  0.77569214  0.26948217  1
loop_
_geom_bond_atom_site_label_1
_geom_bond_atom_site_label_2
_geom_bond_distance
_geom_bond_site_symmetry_2
Fe0 O1 2.022942 1_555
Fe0 O11 2.061313 1_455
Fe0 O9 2.112528 1_554
Fe0 O6 2.141010 1_564
Fe0 O5 2.179533 1_555
Fe1 O3 2.022719 1_455
Fe1 O9 2.061458 1_555
Fe1 O11 2.112607 1_456
Fe1 O4 2.140596 1_556
Fe1 O7 2.179297 1_455
Fe2 O0 2.022870 1_655
Fe2 O10 2.061190 1_555
Fe2 O8 2.112622 1_654
Fe2 O7 2.140616 1_554
Fe2 O4 2.179369 1_655
Fe3 O2 2.022809 1_555
Fe3 O8 2.061461 1_655
Fe3 O10 2.112618 1_556
Fe3 O5 2.140837 1_546
Fe3 O6 2.179537 1_555
O0 Sn0 2.023266 1_445
O0 Sn3 2.100926 1_555
O1 Sn1 2.023075 1_555
O1 Sn2 2.100894 1_555
O2 Sn2 2.023080 1_555
O2 Sn1 2.100912 1_555
O3 Sn3 2.023313 1_665
O3 Sn0 2.101036 1_555
O4 Sn1 2.051727 1_555
O4 Sn2 2.135746 1_455
O5 Sn0 2.051696 1_555
O5 Sn3 2.135730 1_565
O6 Sn3 2.051608 1_555
O6 Sn0 2.135576 1_545
O7 Sn2 2.051703 1_555
O7 Sn1 2.135767 1_655
O8 Sn3 2.056674 1_555
O8 Sn1 2.122409 1_555
O9 Sn2 2.056863 1_555
O9 Sn0 2.122442 1_555
O10 Sn1 2.056766 1_555
O10 Sn3 2.122453 1_555
O11 Sn0 2.056796 1_555
O11 Sn2 2.122336 1_555
