# generated using pymatgen
data_Mg2CoIrO6
_symmetry_space_group_name_H-M   'P 1'
_cell_length_a   5.24761300
_cell_length_b   5.03898700
_cell_length_c   8.93020188
_cell_angle_alpha   55.76322242
_cell_angle_beta   90.00000000
_cell_angle_gamma   90.00000000
_symmetry_Int_Tables_number   1
_chemical_formula_structural   Mg2CoIrO6
_chemical_formula_sum   'Mg4 Co2 Ir2 O12'
_cell_volume   195.22010970
_cell_formula_units_Z   2
loop_
 _symmetry_equiv_pos_site_id
 _symmetry_equiv_pos_as_xyz
  1  'x, y, z'
loop_
 _atom_site_type_symbol
 _atom_site_label
 _atom_site_symmetry_multiplicity
 _atom_site_fract_x
 _atom_site_fract_y
 _atom_site_fract_z
 _atom_site_occupancy
  Mg  Mg0  1  0.93590600  0.23504700  0.75243400  1
  Mg  Mg1  1  0.43590600  0.76495300  0.74756600  1
  Mg  Mg2  1  0.56409400  0.23504700  0.25243400  1
  Mg  Mg3  1  0.06409400  0.76495300  0.24756600  1
  Co  Co0  1  0.50000000  0.00000000  0.00000000  1
  Co  Co1  1  0.00000000  0.00000000  0.50000000  1
  Ir  Ir0  1  0.50000000  0.50000000  0.50000000  1
  Ir  Ir1  1  0.00000000  0.50000000  0.00000000  1
  O  O0  1  0.43306200  0.62062600  0.24660500  1
  O  O1  1  0.18856000  0.89104000  0.93208800  1
  O  O2  1  0.18204800  0.24561300  0.57066000  1
  O  O3  1  0.68204800  0.75438700  0.92934000  1
  O  O4  1  0.68856000  0.10896000  0.56791200  1
  O  O5  1  0.93306200  0.37937400  0.25339500  1
  O  O6  1  0.06693800  0.62062600  0.74660500  1
  O  O7  1  0.31144000  0.89104000  0.43208800  1
  O  O8  1  0.31795200  0.24561300  0.07066000  1
  O  O9  1  0.81144000  0.10896000  0.06791200  1
  O  O10  1  0.81795200  0.75438700  0.42934000  1
  O  O11  1  0.56693800  0.37937400  0.75339500  1
loop_
_geom_bond_atom_site_label_1
_geom_bond_atom_site_label_2
_geom_bond_distance
_geom_bond_site_symmetry_2
Mg0 O6 2.033882 1_655
Mg0 O1 2.051165 1_645
Mg0 O2 2.051584 1_655
Mg0 O11 2.069996 1_555
Mg0 O3 2.414780 1_545
Mg0 O4 2.445765 1_555
Mg0 O9 2.598699 1_556
Mg0 O10 2.657113 1_555
Mg1 O11 2.033882 1_555
Mg1 O4 2.051165 1_565
Mg1 O3 2.051584 1_555
Mg1 O6 2.069996 1_555
Mg1 O2 2.414780 1_565
Mg1 O1 2.445765 1_555
Mg1 O7 2.598699 1_555
Mg1 O8 2.657113 1_556
Mg2 O0 2.033882 1_555
Mg2 O7 2.051165 1_545
Mg2 O8 2.051584 1_555
Mg2 O5 2.069996 1_555
Mg2 O10 2.414780 1_545
Mg2 O9 2.445765 1_555
Mg2 O4 2.598699 1_555
Mg2 O3 2.657113 1_554
Mg3 O5 2.033882 1_455
Mg3 O9 2.051165 1_465
Mg3 O10 2.051584 1_455
Mg3 O0 2.069996 1_555
Mg3 O8 2.414780 1_565
Mg3 O7 2.445765 1_555
Mg3 O1 2.598699 1_554
Mg3 O2 2.657113 1_555
Co0 O9 1.927414 1_555
Co0 O1 1.927414 1_544
Co0 O8 1.929072 1_555
Co0 O3 1.929072 1_544
Co0 O0 1.972445 1_545
Co0 O11 1.972445 1_554
Co1 O4 1.927414 1_455
Co1 O7 1.927414 1_545
Co1 O2 1.929072 1_555
Co1 O10 1.929072 1_445
Co1 O6 1.972445 1_545
Co1 O5 1.972445 1_455
Ir0 O7 1.971012 1_555
Ir0 O4 1.971012 1_555
Ir0 O10 1.978641 1_555
Ir0 O2 1.978641 1_555
Ir0 O11 2.016366 1_555
Ir0 O0 2.016366 1_555
Ir1 O1 1.971012 1_554
Ir1 O9 1.971012 1_455
Ir1 O3 1.978641 1_454
Ir1 O8 1.978641 1_555
Ir1 O5 2.016366 1_455
Ir1 O6 2.016366 1_554
