# generated using pymatgen
data_Li9Mn2Co5O16
_symmetry_space_group_name_H-M   'P 1'
_cell_length_a   10.45707608
_cell_length_b   10.45707608
_cell_length_c   10.00009231
_cell_angle_alpha   73.40288117
_cell_angle_beta   73.40288117
_cell_angle_gamma   16.27988789
_symmetry_Int_Tables_number   1
_chemical_formula_structural   Li9Mn2Co5O16
_chemical_formula_sum   'Li9 Mn2 Co5 O16'
_cell_volume   293.50600128
_cell_formula_units_Z   1
loop_
 _symmetry_equiv_pos_site_id
 _symmetry_equiv_pos_as_xyz
  1  'x, y, z'
loop_
 _atom_site_type_symbol
 _atom_site_label
 _atom_site_symmetry_multiplicity
 _atom_site_fract_x
 _atom_site_fract_y
 _atom_site_fract_z
 _atom_site_occupancy
  Li  Li0  1  0.43339400  0.43339400  0.78457500  1
  Li  Li1  1  0.31344400  0.31344400  0.46121200  1
  Li  Li2  1  0.18566100  0.18566100  0.06656400  1
  Li  Li3  1  0.80892400  0.80892400  0.92725500  1
  Li  Li4  1  0.68777400  0.68777400  0.56778400  1
  Li  Li5  1  0.56355600  0.56355600  0.19444600  1
  Li  Li6  1  0.06503900  0.06503900  0.67021700  1
  Li  Li7  1  0.93687400  0.93687400  0.33331800  1
  Li  Li8  1  0.87438200  0.87438200  0.62424200  1
  Mn  Mn0  1  0.00272800  0.00272800  0.99558500  1
  Mn  Mn1  1  0.37541200  0.37541200  0.12439400  1
  Co  Co0  1  0.74540100  0.74540100  0.25623000  1
  Co  Co1  1  0.63331900  0.63331900  0.86924500  1
  Co  Co2  1  0.49146400  0.49146400  0.50861000  1
  Co  Co3  1  0.25857000  0.25857000  0.73967200  1
  Co  Co4  1  0.11833700  0.11833700  0.38005300  1
  O  O0  1  0.52829200  0.52829200  0.86536400  1
  O  O1  1  0.41212200  0.41212200  0.46556700  1
  O  O2  1  0.28677300  0.28677300  0.10807500  1
  O  O3  1  0.90667600  0.90667600  0.98811100  1
  O  O4  1  0.77826300  0.77826300  0.60139600  1
  O  O5  1  0.65743300  0.65743300  0.22681400  1
  O  O6  1  0.15507200  0.15507200  0.73013300  1
  O  O7  1  0.03452700  0.03452700  0.34481300  1
  O  O8  1  0.33634700  0.33634700  0.78689700  1
  O  O9  1  0.22090700  0.22090700  0.38911600  1
  O  O10  1  0.08788500  0.08788500  0.02229900  1
  O  O11  1  0.71339700  0.71339700  0.90971000  1
  O  O12  1  0.59474400  0.59474400  0.52110200  1
  O  O13  1  0.46998000  0.46998000  0.13167800  1
  O  O14  1  0.97186900  0.97186900  0.64891800  1
  O  O15  1  0.85143300  0.85143300  0.25660400  1
loop_
_geom_bond_atom_site_label_1
_geom_bond_atom_site_label_2
_geom_bond_distance
_geom_bond_site_symmetry_2
Li0 O8 2.002631 1_555
Li0 O14 2.010843 1_545
Li0 O14 2.010843 1_455
Li0 O0 2.329983 1_555
Li0 O3 2.447709 1_545
Li0 O3 2.447709 1_455
Li1 O4 2.024532 1_545
Li1 O4 2.024532 1_455
Li1 O1 2.055964 1_555
Li1 O9 2.233233 1_555
Li1 O15 2.463470 1_455
Li1 O15 2.463470 1_545
Li2 O11 2.112482 1_544
Li2 O11 2.112482 1_454
Li2 O5 2.135743 1_545
Li2 O5 2.135743 1_455
Li2 O10 2.193364 1_555
Li2 O2 2.248553 1_555
Li3 O8 2.006191 1_655
Li3 O8 2.006191 1_565
Li3 O11 2.035309 1_555
Li3 O3 2.275278 1_555
Li3 O2 2.278964 1_656
Li3 O2 2.278964 1_566
Li4 O4 1.996530 1_555
Li4 O12 2.108658 1_555
Li4 O6 2.156872 1_565
Li4 O6 2.156872 1_655
Li4 O9 2.268879 1_565
Li4 O9 2.268879 1_655
Li5 O5 2.060416 1_555
Li5 O7 2.071958 1_655
Li5 O7 2.071958 1_565
Li5 O13 2.202060 1_555
Li5 O10 2.215647 1_655
Li5 O10 2.215647 1_565
Li6 O14 2.000818 1_445
Li6 O12 2.065147 1_455
Li6 O12 2.065147 1_545
Li6 O6 2.116127 1_555
Li6 O0 2.392192 1_545
Li6 O0 2.392192 1_455
Li7 O1 1.952635 1_565
Li7 O1 1.952635 1_655
Li7 O7 2.057868 1_665
Li7 O15 2.121494 1_555
Li7 O13 2.435244 1_565
Li7 O13 2.435244 1_655
Li8 O4 2.067521 1_555
Li8 O14 2.102835 1_555
Li8 O1 2.145951 1_565
Li8 O1 2.145951 1_655
Li8 O8 2.172303 1_655
Li8 O8 2.172303 1_565
Mn0 O10 1.857818 1_556
Mn0 O0 1.941759 1_455
Mn0 O0 1.941759 1_545
Mn0 O13 1.992893 1_546
Mn0 O13 1.992893 1_456
Mn0 O3 2.011447 1_445
Mn1 O2 1.888696 1_555
Mn1 O15 1.951392 1_455
Mn1 O15 1.951392 1_545
Mn1 O13 1.980130 1_555
Mn1 O3 1.989849 1_454
Mn1 O3 1.989849 1_544
Co0 O5 1.926817 1_555
Co0 O9 1.956128 1_565
Co0 O9 1.956128 1_655
Co0 O2 2.094904 1_655
Co0 O2 2.094904 1_565
Co0 O15 2.196310 1_555
Co1 O11 1.816453 1_555
Co1 O6 1.992182 1_565
Co1 O6 1.992182 1_655
Co1 O10 2.142155 1_656
Co1 O10 2.142155 1_566
Co1 O0 2.185935 1_555
Co2 O1 1.814282 1_555
Co2 O14 1.999258 1_545
Co2 O14 1.999258 1_455
Co2 O12 2.177585 1_555
Co2 O7 2.197128 1_655
Co2 O7 2.197128 1_565
Co3 O8 1.804103 1_555
Co3 O4 1.986255 1_455
Co3 O4 1.986255 1_545
Co3 O6 2.172211 1_555
Co3 O11 2.245116 1_545
Co3 O11 2.245116 1_455
Co4 O7 1.867574 1_555
Co4 O12 2.005687 1_455
Co4 O12 2.005687 1_545
Co4 O5 2.116575 1_545
Co4 O5 2.116575 1_455
Co4 O9 2.151454 1_555
