# generated using pymatgen
data_Li5Fe2P2(CO7)2
_symmetry_space_group_name_H-M   'P 1'
_cell_length_a   6.39859400
_cell_length_b   9.47318864
_cell_length_c   10.25995137
_cell_angle_alpha   62.60241699
_cell_angle_beta   86.13212033
_cell_angle_gamma   83.81864204
_symmetry_Int_Tables_number   1
_chemical_formula_structural   Li5Fe2P2(CO7)2
_chemical_formula_sum   'Li10 Fe4 P4 C4 O28'
_cell_volume   548.82827076
_cell_formula_units_Z   2
loop_
 _symmetry_equiv_pos_site_id
 _symmetry_equiv_pos_as_xyz
  1  'x, y, z'
loop_
 _atom_site_type_symbol
 _atom_site_label
 _atom_site_symmetry_multiplicity
 _atom_site_fract_x
 _atom_site_fract_y
 _atom_site_fract_z
 _atom_site_occupancy
  Li  Li0  1  0.25700000  0.89569500  0.69979500  1
  Li  Li1  1  0.52258500  0.76149100  0.54880600  1
  Li  Li2  1  0.05371400  0.74892100  0.51317600  1
  Li  Li3  1  0.94628600  0.25107900  0.48682400  1
  Li  Li4  1  0.47741500  0.23850900  0.45119400  1
  Li  Li5  1  0.50168400  0.76168600  0.06022200  1
  Li  Li6  1  0.74300000  0.10430500  0.30020500  1
  Li  Li7  1  0.04234100  0.74389700  0.01585800  1
  Li  Li8  1  0.95765900  0.25610300  0.98414200  1
  Li  Li9  1  0.49831600  0.23831400  0.93977800  1
  Fe  Fe0  1  0.24637800  0.34333000  0.66892600  1
  Fe  Fe1  1  0.75362200  0.65667000  0.33107400  1
  Fe  Fe2  1  0.24358800  0.33694500  0.17938700  1
  Fe  Fe3  1  0.75641200  0.66305500  0.82061300  1
  P  P0  1  0.74374200  0.41322200  0.68010000  1
  P  P1  1  0.25625800  0.58677800  0.31990000  1
  P  P2  1  0.74020600  0.42389000  0.18122000  1
  P  P3  1  0.25979400  0.57611000  0.81878000  1
  C  C0  1  0.75700000  0.95337600  0.61386900  1
  C  C1  1  0.75315000  0.94924800  0.14205300  1
  C  C2  1  0.24300000  0.04662400  0.38613100  1
  C  C3  1  0.24685000  0.05075200  0.85794700  1
  O  O0  1  0.73567700  0.92498000  0.74769200  1
  O  O1  1  0.44246300  0.68610200  0.76461000  1
  O  O2  1  0.79260200  0.83154300  0.58296100  1
  O  O3  1  0.20110900  0.54627200  0.68680500  1
  O  O4  1  0.25750600  0.90268100  0.49849500  1
  O  O5  1  0.55507800  0.30954700  0.71951300  1
  O  O6  1  0.68476100  0.57752100  0.54395200  1
  O  O7  1  0.26947200  0.09627300  0.71651900  1
  O  O8  1  0.94007300  0.33203700  0.63506700  1
  O  O9  1  0.73052800  0.90372700  0.28348100  1
  O  O10  1  0.31523900  0.42247900  0.45604800  1
  O  O11  1  0.05992700  0.66796300  0.36493300  1
  O  O12  1  0.44492200  0.69045300  0.28048700  1
  O  O13  1  0.74249400  0.09731900  0.50150500  1
  O  O14  1  0.79889100  0.45372800  0.31319500  1
  O  O15  1  0.20739800  0.16845700  0.41703900  1
  O  O16  1  0.78369000  0.83024200  0.10749200  1
  O  O17  1  0.20874000  0.56698100  0.18405800  1
  O  O18  1  0.25599600  0.90460500  0.95076700  1
  O  O19  1  0.55753700  0.31389800  0.23539000  1
  O  O20  1  0.68389800  0.58478900  0.04796700  1
  O  O21  1  0.26432300  0.07502000  0.25230800  1
  O  O22  1  0.92661100  0.32402500  0.14929600  1
  O  O23  1  0.31610200  0.41521100  0.95203300  1
  O  O24  1  0.07338900  0.67597500  0.85070400  1
  O  O25  1  0.74400400  0.09539500  0.04923300  1
  O  O26  1  0.79126000  0.43301900  0.81594200  1
  O  O27  1  0.21631000  0.16975800  0.89250800  1
loop_
_geom_bond_atom_site_label_1
_geom_bond_atom_site_label_2
_geom_bond_distance
_geom_bond_site_symmetry_2
Li0 O7 1.995195 1_565
Li0 O4 2.035515 1_555
Li0 O1 2.043683 1_555
Li0 O24 2.329213 1_555
Li1 O6 1.949368 1_555
Li1 O4 1.981525 1_555
Li1 O2 2.022585 1_555
Li1 O1 2.036099 1_555
Li2 O11 1.990455 1_555
Li2 O2 1.997350 1_455
Li2 O4 2.006327 1_555
Li2 O3 2.106586 1_555
Li3 O8 1.990455 1_555
Li3 O15 1.997350 1_655
Li3 O13 2.006327 1_555
Li3 O14 2.106586 1_555
Li4 O10 1.949368 1_555
Li4 O13 1.981525 1_555
Li4 O15 2.022585 1_555
Li4 O19 2.036099 1_555
Li5 O20 1.984132 1_555
Li5 O18 1.986472 1_554
Li5 O12 2.057429 1_555
Li5 O16 2.138530 1_555
Li6 O9 1.995195 1_545
Li6 O13 2.035515 1_555
Li6 O19 2.043683 1_555
Li6 O22 2.329213 1_555
Li7 O18 2.005497 1_554
Li7 O17 2.030368 1_555
Li7 O24 2.062811 1_554
Li7 O16 2.120919 1_455
Li8 O25 2.005497 1_556
Li8 O26 2.030368 1_555
Li8 O22 2.062811 1_556
Li8 O27 2.120919 1_655
Li9 O23 1.984132 1_555
Li9 O25 1.986472 1_556
Li9 O5 2.057429 1_555
Li9 O27 2.138530 1_555
Fe0 O10 1.990190 1_555
Fe0 O3 2.002763 1_555
Fe0 O5 2.030445 1_555
Fe0 O8 2.035837 1_455
Fe0 O27 2.130743 1_555
Fe0 O7 2.149723 1_555
Fe1 O6 1.990190 1_555
Fe1 O14 2.002763 1_555
Fe1 O12 2.030445 1_555
Fe1 O11 2.035837 1_655
Fe1 O16 2.130743 1_555
Fe1 O9 2.149723 1_555
Fe2 O19 2.087832 1_555
Fe2 O22 2.096815 1_455
Fe2 O23 2.131336 1_554
Fe2 O17 2.188801 1_555
Fe2 O21 2.228910 1_555
Fe2 O15 2.228947 1_555
Fe3 O1 2.087832 1_555
Fe3 O24 2.096815 1_655
Fe3 O20 2.131336 1_556
Fe3 O26 2.188801 1_555
Fe3 O0 2.228910 1_555
Fe3 O2 2.228947 1_555
C0 O0 1.272348 1_555
C0 O13 1.318137 1_565
C0 O2 1.324757 1_555
C1 O25 1.266403 1_565
C1 O9 1.312124 1_555
C1 O16 1.321361 1_555
C2 O21 1.272348 1_555
C2 O4 1.318137 1_545
C2 O15 1.324757 1_555
C3 O18 1.266403 1_545
C3 O7 1.312124 1_555
C3 O27 1.321361 1_555
O1 P3 1.549974 1_555
O3 P3 1.580527 1_555
O5 P0 1.552211 1_555
O6 P0 1.568401 1_555
O8 P0 1.556846 1_555
O10 P1 1.568401 1_555
O11 P1 1.556846 1_555
O12 P1 1.552211 1_555
O14 P2 1.580527 1_555
O17 P1 1.542761 1_555
O19 P2 1.549974 1_555
O20 P2 1.533811 1_555
O22 P2 1.553819 1_555
O23 P3 1.533811 1_555
O24 P3 1.553819 1_555
O26 P0 1.542761 1_555
