# generated using pymatgen
data_Li(CoO2)2
_symmetry_space_group_name_H-M   'P 1'
_cell_length_a   8.18372300
_cell_length_b   8.25456205
_cell_length_c   8.26349432
_cell_angle_alpha   89.61033484
_cell_angle_beta   89.75773923
_cell_angle_gamma   89.59911323
_symmetry_Int_Tables_number   1
_chemical_formula_structural   Li(CoO2)2
_chemical_formula_sum   'Li8 Co16 O32'
_cell_volume   558.19278772
_cell_formula_units_Z   8
loop_
 _symmetry_equiv_pos_site_id
 _symmetry_equiv_pos_as_xyz
  1  'x, y, z'
loop_
 _atom_site_type_symbol
 _atom_site_label
 _atom_site_symmetry_multiplicity
 _atom_site_fract_x
 _atom_site_fract_y
 _atom_site_fract_z
 _atom_site_occupancy
  Li  Li0  1  0.99886000  0.99967800  0.99488800  1
  Li  Li1  1  0.24893100  0.25076800  0.75421200  1
  Li  Li2  1  0.25249300  0.74910700  0.25176200  1
  Li  Li3  1  0.49596600  0.50139500  0.00087100  1
  Li  Li4  1  0.50060500  0.99642700  0.49713800  1
  Li  Li5  1  0.74989900  0.75331900  0.75239300  1
  Li  Li6  1  0.75177000  0.25201200  0.25309800  1
  Li  Li7  1  0.99747800  0.49749300  0.49604400  1
  Co  Co0  1  0.12609200  0.62294900  0.87291400  1
  Co  Co1  1  0.12220800  0.87023600  0.62661700  1
  Co  Co2  1  0.13210400  0.37623300  0.11885300  1
  Co  Co3  1  0.12731200  0.12333400  0.37455300  1
  Co  Co4  1  0.37209800  0.62590200  0.62374600  1
  Co  Co5  1  0.37876800  0.87463900  0.87672600  1
  Co  Co6  1  0.37367900  0.37713100  0.37363000  1
  Co  Co7  1  0.37492400  0.12381000  0.12443300  1
  Co  Co8  1  0.62585100  0.37640300  0.62570500  1
  Co  Co9  1  0.62663000  0.13127000  0.87740100  1
  Co  Co10  1  0.61913900  0.62957500  0.37478000  1
  Co  Co11  1  0.61963000  0.87517700  0.13084000  1
  Co  Co12  1  0.87682300  0.37450900  0.87375700  1
  Co  Co13  1  0.87809600  0.12073700  0.62757000  1
  Co  Co14  1  0.87445600  0.62627500  0.12296400  1
  Co  Co15  1  0.87727500  0.87367600  0.37434100  1
  O  O0  1  0.12661100  0.39670400  0.89213800  1
  O  O1  1  0.12187400  0.60907900  0.10574100  1
  O  O2  1  0.11850600  0.87924200  0.39993300  1
  O  O3  1  0.13179700  0.85187700  0.85621500  1
  O  O4  1  0.10960600  0.10312400  0.62116300  1
  O  O5  1  0.13701900  0.63700600  0.63902300  1
  O  O6  1  0.13693100  0.37094600  0.34798200  1
  O  O7  1  0.14473900  0.14258100  0.12837300  1
  O  O8  1  0.35576200  0.63024100  0.85201100  1
  O  O9  1  0.35373700  0.85452500  0.63033800  1
  O  O10  1  0.36527300  0.13323000  0.35455200  1
  O  O11  1  0.39071000  0.62610600  0.39646200  1
  O  O12  1  0.35969400  0.35562800  0.12856600  1
  O  O13  1  0.38271500  0.39835400  0.61746600  1
  O  O14  1  0.37973400  0.11254000  0.89744500  1
  O  O15  1  0.39026400  0.89153400  0.12018000  1
  O  O16  1  0.60658400  0.62016100  0.60737000  1
  O  O17  1  0.61134100  0.40226100  0.37918900  1
  O  O18  1  0.60346400  0.10741800  0.12466700  1
  O  O19  1  0.64778000  0.13235700  0.63115100  1
  O  O20  1  0.61431300  0.88522600  0.89977100  1
  O  O21  1  0.63570200  0.36371800  0.87020600  1
  O  O22  1  0.62716000  0.64469900  0.14226900  1
  O  O23  1  0.62668700  0.85721700  0.35677100  1
  O  O24  1  0.86827500  0.35325400  0.63611100  1
  O  O25  1  0.87084700  0.13301500  0.85187200  1
  O  O26  1  0.84965500  0.87048600  0.13323500  1
  O  O27  1  0.90254100  0.38062300  0.11251300  1
  O  O28  1  0.84982500  0.63502800  0.36425700  1
  O  O29  1  0.89802700  0.61936000  0.88548900  1
  O  O30  1  0.89512000  0.88890700  0.62175500  1
  O  O31  1  0.88662600  0.11163800  0.39640500  1
loop_
_geom_bond_atom_site_label_1
_geom_bond_atom_site_label_2
_geom_bond_distance
_geom_bond_site_symmetry_2
Li0 O25 1.918917 1_565
Li0 O26 1.981170 1_556
Li0 O3 1.993763 1_655
Li0 O7 2.020387 1_666
Li1 O0 1.935046 1_555
Li1 O14 1.955494 1_555
Li1 O13 1.987267 1_555
Li1 O4 2.010579 1_555
Li2 O11 1.928457 1_555
Li2 O15 1.956142 1_555
Li2 O2 1.960993 1_555
Li2 O1 1.995456 1_555
Li3 O21 1.937318 1_554
Li3 O12 1.948463 1_555
Li3 O8 1.984414 1_554
Li3 O22 1.991093 1_555
Li4 O23 1.929238 1_555
Li4 O10 1.966096 1_565
Li4 O19 1.995774 1_565
Li4 O9 2.004788 1_555
Li5 O30 1.954935 1_555
Li5 O29 1.969232 1_555
Li5 O20 1.972219 1_555
Li5 O16 2.016861 1_555
Li6 O17 1.982952 1_555
Li6 O31 1.984312 1_555
Li6 O27 1.997127 1_555
Li6 O18 2.018011 1_555
Li7 O24 1.965658 1_555
Li7 O6 1.969639 1_655
Li7 O28 1.977392 1_555
Li7 O5 2.018560 1_655
Co0 O29 1.869303 1_455
Co0 O0 1.873197 1_555
Co0 O8 1.888090 1_555
Co0 O3 1.894683 1_555
Co0 O1 1.926769 1_556
Co0 O5 1.937174 1_555
Co1 O30 1.864310 1_455
Co1 O2 1.874536 1_555
Co1 O9 1.898661 1_555
Co1 O3 1.904202 1_555
Co1 O4 1.924664 1_565
Co1 O5 1.930232 1_555
Co2 O12 1.871109 1_555
Co2 O27 1.879721 1_455
Co2 O0 1.880617 1_554
Co2 O6 1.894185 1_555
Co2 O1 1.925613 1_555
Co2 O7 1.931828 1_555
Co3 O10 1.955941 1_555
Co3 O31 1.980175 1_455
Co3 O2 2.026092 1_545
Co3 O7 2.043882 1_555
Co3 O4 2.048150 1_555
Co3 O6 2.056223 1_555
Co4 O13 1.880769 1_555
Co4 O11 1.883674 1_555
Co4 O8 1.890999 1_555
Co4 O9 1.893242 1_555
Co4 O16 1.923439 1_555
Co4 O5 1.929006 1_555
Co5 O20 1.940455 1_555
Co5 O14 1.972451 1_565
Co5 O15 2.020189 1_556
Co5 O3 2.039042 1_555
Co5 O8 2.039191 1_555
Co5 O9 2.055123 1_555
Co6 O6 1.950989 1_555
Co6 O17 1.958198 1_555
Co6 O10 2.022200 1_555
Co6 O13 2.025432 1_555
Co6 O12 2.037819 1_555
Co6 O11 2.070819 1_555
Co7 O18 1.874260 1_555
Co7 O14 1.878884 1_554
Co7 O7 1.889213 1_555
Co7 O10 1.904986 1_555
Co7 O12 1.917267 1_555
Co7 O15 1.921116 1_545
Co8 O24 1.993942 1_555
Co8 O13 1.998133 1_555
Co8 O19 2.021432 1_555
Co8 O16 2.021891 1_555
Co8 O21 2.024350 1_555
Co8 O17 2.050645 1_555
Co9 O21 1.921218 1_555
Co9 O25 2.008961 1_555
Co9 O14 2.033486 1_555
Co9 O20 2.041282 1_545
Co9 O19 2.041468 1_555
Co9 O18 2.059485 1_556
Co10 O11 1.877611 1_555
Co10 O17 1.878009 1_555
Co10 O23 1.885382 1_555
Co10 O28 1.890341 1_555
Co10 O16 1.925387 1_555
Co10 O22 1.925429 1_555
Co11 O23 1.872953 1_555
Co11 O26 1.882773 1_555
Co11 O15 1.883365 1_555
Co11 O22 1.904775 1_555
Co11 O20 1.911341 1_554
Co11 O18 1.921030 1_565
Co12 O24 1.974374 1_555
Co12 O21 1.976250 1_555
Co12 O27 1.986058 1_556
Co12 O25 2.003794 1_555
Co12 O29 2.032787 1_555
Co12 O0 2.060004 1_655
Co13 O25 1.857650 1_555
Co13 O19 1.886728 1_555
Co13 O4 1.899711 1_655
Co13 O31 1.913177 1_555
Co13 O30 1.918661 1_545
Co13 O24 1.922209 1_555
Co14 O29 1.972193 1_554
Co14 O28 2.004979 1_555
Co14 O26 2.026950 1_555
Co14 O1 2.033233 1_655
Co14 O22 2.034120 1_555
Co14 O27 2.041506 1_555
Co15 O31 1.975995 1_565
Co15 O28 1.986614 1_555
Co15 O2 1.987235 1_655
Co15 O26 2.006480 1_555
Co15 O30 2.055094 1_555
Co15 O23 2.061982 1_555
