# generated using pymatgen
data_K2Nb2As2O11
_symmetry_space_group_name_H-M   'P 1'
_cell_length_a   10.52112835
_cell_length_b   10.01505432
_cell_length_c   10.36661248
_cell_angle_alpha   83.00976495
_cell_angle_beta   90.00000000
_cell_angle_gamma   90.00000000
_symmetry_Int_Tables_number   1
_chemical_formula_structural   K2Nb2As2O11
_chemical_formula_sum   'K8 Nb8 As8 O44'
_cell_volume   1084.20719227
_cell_formula_units_Z   4
loop_
 _symmetry_equiv_pos_site_id
 _symmetry_equiv_pos_as_xyz
  1  'x, y, z'
loop_
 _atom_site_type_symbol
 _atom_site_label
 _atom_site_symmetry_multiplicity
 _atom_site_fract_x
 _atom_site_fract_y
 _atom_site_fract_z
 _atom_site_occupancy
  K  K0  1  0.21416010  0.73843251  0.53462766  1
  K  K1  1  0.71416010  0.26156749  0.46537234  1
  K  K2  1  0.79805048  0.26083311  0.93180670  1
  K  K3  1  0.29805048  0.73916689  0.06819330  1
  K  K4  1  0.99907406  0.49707464  0.24941927  1
  K  K5  1  0.49907406  0.50292536  0.75058073  1
  K  K6  1  0.06965429  0.98660182  0.75613092  1
  K  K7  1  0.56965429  0.01339818  0.24386908  1
  Nb  Nb0  1  0.09304695  0.14384601  0.38368287  1
  Nb  Nb1  1  0.59304695  0.85615399  0.61631713  1
  Nb  Nb2  1  0.90610300  0.85552191  0.11490853  1
  Nb  Nb3  1  0.40610300  0.14447809  0.88509147  1
  Nb  Nb4  1  0.31831298  0.43549634  0.39664747  1
  Nb  Nb5  1  0.81831298  0.56450366  0.60335253  1
  Nb  Nb6  1  0.68258814  0.56080516  0.10355191  1
  Nb  Nb7  1  0.18258814  0.43919484  0.89644809  1
  As  As0  1  0.38563564  0.11079030  0.55946052  1
  As  As1  1  0.88563564  0.88920970  0.44053948  1
  As  As2  1  0.60950448  0.88619349  0.94165132  1
  As  As3  1  0.10950448  0.11380651  0.05834868  1
  As  As4  1  0.07897730  0.36793656  0.60610710  1
  As  As5  1  0.57897730  0.63206344  0.39389290  1
  As  As6  1  0.92173237  0.63421602  0.89387890  1
  As  As7  1  0.42173237  0.36578398  0.10612110  1
  O  O0  1  0.19042055  0.31185951  0.35057821  1
  O  O1  1  0.69042055  0.68814049  0.64942179  1
  O  O2  1  0.81052469  0.68664524  0.14740430  1
  O  O3  1  0.31052469  0.31335476  0.85259570  1
  O  O4  1  0.94113880  0.20916556  0.33952707  1
  O  O5  1  0.44113880  0.79083444  0.66047293  1
  O  O6  1  0.05717090  0.79223939  0.16438277  1
  O  O7  1  0.55717090  0.20776061  0.83561723  1
  O  O8  1  0.34758334  0.07175314  0.72153538  1
  O  O9  1  0.84758334  0.92824686  0.27846462  1
  O  O10  1  0.64650017  0.92713565  0.78053109  1
  O  O11  1  0.14650017  0.07286435  0.21946891  1
  O  O12  1  0.21589515  0.45226149  0.56400257  1
  O  O13  1  0.71589515  0.54773851  0.43599743  1
  O  O14  1  0.78573559  0.54762468  0.93567817  1
  O  O15  1  0.28573559  0.45237532  0.06432183  1
  O  O16  1  0.44449570  0.36533610  0.26809352  1
  O  O17  1  0.94449570  0.63466390  0.73190648  1
  O  O18  1  0.55676265  0.63370854  0.23157494  1
  O  O19  1  0.05676265  0.36629146  0.76842506  1
  O  O20  1  0.26042876  0.58694287  0.30826644  1
  O  O21  1  0.76042876  0.41305713  0.69173356  1
  O  O22  1  0.73916755  0.41187539  0.19599139  1
  O  O23  1  0.23916755  0.58812461  0.80400861  1
  O  O24  1  0.41448913  0.27594079  0.52908924  1
  O  O25  1  0.91448913  0.72405921  0.47091076  1
  O  O26  1  0.58155439  0.72089262  0.97163323  1
  O  O27  1  0.08155439  0.27910738  0.02836677  1
  O  O28  1  0.27109387  0.04460307  0.47419449  1
  O  O29  1  0.77109387  0.95539693  0.52580551  1
  O  O30  1  0.71938565  0.95083368  0.03439078  1
  O  O31  1  0.21938565  0.04916632  0.96560922  1
  O  O32  1  0.07947100  0.20543573  0.57756015  1
  O  O33  1  0.57947100  0.79456427  0.42243985  1
  O  O34  1  0.92165007  0.79728311  0.92157392  1
  O  O35  1  0.42165007  0.20271689  0.07842608  1
  O  O36  1  0.02861938  0.96095184  0.47436210  1
  O  O37  1  0.52861938  0.03904816  0.52563790  1
  O  O38  1  0.96740729  0.03952236  0.02475400  1
  O  O39  1  0.46740729  0.96047764  0.97524600  1
  O  O40  1  0.46312119  0.54405443  0.48003157  1
  O  O41  1  0.96312119  0.45594557  0.51996843  1
  O  O42  1  0.53844340  0.45266483  0.02009992  1
  O  O43  1  0.03844340  0.54733517  0.97990008  1
loop_
_geom_bond_atom_site_label_1
_geom_bond_atom_site_label_2
_geom_bond_distance
_geom_bond_site_symmetry_2
K0 O5 2.801234 1_555
K0 O12 2.845118 1_555
K0 O36 2.971283 1_555
K0 O20 2.985277 1_555
K0 O23 3.018363 1_555
K0 O28 3.112235 1_565
K0 O25 3.228125 1_455
K1 O4 2.801234 1_555
K1 O13 2.845118 1_555
K1 O37 2.971283 1_555
K1 O21 2.985277 1_555
K1 O22 3.018363 1_555
K1 O29 3.112235 1_545
K1 O24 3.228125 1_555
K2 O21 2.784102 1_555
K2 O7 2.797973 1_555
K2 O14 2.880309 1_555
K2 O38 2.914809 1_556
K2 O27 3.158650 1_656
K2 O30 3.263620 1_546
K2 O19 3.310247 1_655
K2 O22 3.343784 1_556
K3 O20 2.784102 1_555
K3 O6 2.797973 1_555
K3 O15 2.880309 1_555
K3 O39 2.914809 1_554
K3 O26 3.158650 1_554
K3 O31 3.263620 1_564
K3 O18 3.310247 1_555
K3 O23 3.343784 1_554
K4 O43 2.808748 1_654
K4 O41 2.810299 1_555
K4 O0 2.849552 1_655
K4 O2 2.858235 1_555
K4 O22 2.937247 1_555
K4 O20 2.979424 1_655
K4 O4 2.983734 1_555
K4 O6 3.042191 1_655
K5 O42 2.808748 1_556
K5 O40 2.810299 1_555
K5 O1 2.849552 1_555
K5 O3 2.858235 1_555
K5 O23 2.937247 1_555
K5 O21 2.979424 1_555
K5 O5 2.983734 1_555
K5 O7 3.042191 1_555
K6 O32 2.693190 1_565
K6 O31 2.814475 1_565
K6 O34 2.858277 1_455
K6 O36 2.994527 1_555
K6 O8 3.054825 1_565
K6 O38 3.090631 1_466
K7 O33 2.693190 1_545
K7 O30 2.814475 1_545
K7 O35 2.858277 1_555
K7 O37 2.994527 1_555
K7 O9 3.054825 1_545
K7 O39 3.090631 1_544
Nb0 O4 1.766064 1_455
Nb0 O0 1.964215 1_555
Nb0 O11 2.003538 1_555
Nb0 O36 2.068612 1_545
Nb0 O32 2.177642 1_555
Nb0 O28 2.269444 1_555
Nb1 O5 1.766064 1_555
Nb1 O1 1.964215 1_555
Nb1 O10 2.003538 1_555
Nb1 O37 2.068612 1_565
Nb1 O33 2.177642 1_555
Nb1 O29 2.269444 1_555
Nb2 O6 1.764032 1_655
Nb2 O2 1.961261 1_555
Nb2 O9 2.021124 1_555
Nb2 O38 2.065455 1_565
Nb2 O34 2.160649 1_554
Nb2 O30 2.296329 1_555
Nb3 O7 1.764032 1_555
Nb3 O3 1.961261 1_555
Nb3 O8 2.021124 1_555
Nb3 O39 2.065455 1_545
Nb3 O35 2.160649 1_556
Nb3 O31 2.296329 1_555
Nb4 O20 1.781181 1_555
Nb4 O0 1.927641 1_555
Nb4 O16 2.064011 1_555
Nb4 O12 2.066424 1_555
Nb4 O40 2.116408 1_555
Nb4 O24 2.220004 1_555
Nb5 O21 1.781181 1_555
Nb5 O1 1.927641 1_555
Nb5 O17 2.064011 1_555
Nb5 O13 2.066424 1_555
Nb5 O41 2.116408 1_555
Nb5 O25 2.220004 1_555
Nb6 O22 1.774672 1_555
Nb6 O2 1.935529 1_555
Nb6 O14 2.068729 1_554
Nb6 O18 2.069500 1_555
Nb6 O42 2.109361 1_555
Nb6 O26 2.244323 1_554
Nb7 O23 1.774672 1_555
Nb7 O3 1.935529 1_555
Nb7 O15 2.068729 1_556
Nb7 O19 2.069500 1_555
Nb7 O43 2.109361 1_555
Nb7 O27 2.244323 1_556
As0 O24 1.673386 1_555
As0 O28 1.677978 1_555
As0 O37 1.721503 1_555
As0 O8 1.725169 1_555
As1 O25 1.673386 1_555
As1 O29 1.677978 1_555
As1 O36 1.721503 1_655
As1 O9 1.725169 1_555
As2 O26 1.672874 1_555
As2 O30 1.682667 1_556
As2 O10 1.715442 1_555
As2 O39 1.724216 1_555
As3 O27 1.672874 1_555
As3 O31 1.682667 1_554
As3 O11 1.715442 1_555
As3 O38 1.724216 1_455
As4 O32 1.689213 1_555
As4 O41 1.693669 1_455
As4 O19 1.696935 1_555
As4 O12 1.699745 1_555
As5 O33 1.689213 1_555
As5 O40 1.693669 1_555
As5 O18 1.696935 1_555
As5 O13 1.699745 1_555
As6 O34 1.692233 1_555
As6 O43 1.694483 1_655
As6 O17 1.695565 1_555
As6 O14 1.701666 1_555
As7 O35 1.692233 1_555
As7 O42 1.694483 1_555
As7 O16 1.695565 1_555
As7 O15 1.701666 1_555
