# generated using pymatgen
data_CaSnS3
_symmetry_space_group_name_H-M   'P 1'
_cell_length_a   14.57263500
_cell_length_b   14.57263500
_cell_length_c   13.17206200
_cell_angle_alpha   90.00000000
_cell_angle_beta   90.00000000
_cell_angle_gamma   90.00000000
_symmetry_Int_Tables_number   1
_chemical_formula_structural   CaSnS3
_chemical_formula_sum   'Ca20 Sn20 S60'
_cell_volume   2797.24135821
_cell_formula_units_Z   20
loop_
 _symmetry_equiv_pos_site_id
 _symmetry_equiv_pos_as_xyz
  1  'x, y, z'
loop_
 _atom_site_type_symbol
 _atom_site_label
 _atom_site_symmetry_multiplicity
 _atom_site_fract_x
 _atom_site_fract_y
 _atom_site_fract_z
 _atom_site_occupancy
  Ca  Ca0  1  0.26719900  0.75378700  0.44604600  1
  Ca  Ca1  1  0.73280100  0.24621300  0.94604600  1
  Ca  Ca2  1  0.24621300  0.26719900  0.19604600  1
  Ca  Ca3  1  0.75378700  0.73280100  0.69604600  1
  Ca  Ca4  1  0.28719200  0.26974800  0.70854000  1
  Ca  Ca5  1  0.71280800  0.73025200  0.20854000  1
  Ca  Ca6  1  0.73025200  0.28719200  0.45854000  1
  Ca  Ca7  1  0.26974800  0.71280800  0.95854000  1
  Ca  Ca8  1  0.55640300  0.83689100  0.48859900  1
  Ca  Ca9  1  0.44359700  0.16310900  0.98859900  1
  Ca  Ca10  1  0.16310900  0.55640300  0.23859900  1
  Ca  Ca11  1  0.83689100  0.44359700  0.73859900  1
  Ca  Ca12  1  0.34068800  0.96616400  0.69479900  1
  Ca  Ca13  1  0.65931200  0.03383600  0.19479900  1
  Ca  Ca14  1  0.03383600  0.34068800  0.44479900  1
  Ca  Ca15  1  0.96616400  0.65931200  0.94479900  1
  Ca  Ca16  1  0.12285100  0.53794200  0.70297100  1
  Ca  Ca17  1  0.87714900  0.46205800  0.20297100  1
  Ca  Ca18  1  0.46205800  0.12285100  0.45297100  1
  Ca  Ca19  1  0.53794200  0.87714900  0.95297100  1
  Sn  Sn0  1  0.43621300  0.73001800  0.75575700  1
  Sn  Sn1  1  0.56378700  0.26998200  0.25575700  1
  Sn  Sn2  1  0.26998200  0.43621300  0.50575700  1
  Sn  Sn3  1  0.73001800  0.56378700  0.00575700  1
  Sn  Sn4  1  0.09286900  0.80457400  0.22630200  1
  Sn  Sn5  1  0.90713100  0.19542600  0.72630200  1
  Sn  Sn6  1  0.19542600  0.09286900  0.97630200  1
  Sn  Sn7  1  0.80457400  0.90713100  0.47630200  1
  Sn  Sn8  1  0.93687400  0.62931200  0.45157600  1
  Sn  Sn9  1  0.06312600  0.37068800  0.95157600  1
  Sn  Sn10  1  0.37068800  0.93687400  0.20157600  1
  Sn  Sn11  1  0.62931200  0.06312600  0.70157600  1
  Sn  Sn12  1  0.07306600  0.87534600  0.81208800  1
  Sn  Sn13  1  0.92693400  0.12465400  0.31208800  1
  Sn  Sn14  1  0.12465400  0.07306600  0.56208800  1
  Sn  Sn15  1  0.87534600  0.92693400  0.06208800  1
  Sn  Sn16  1  0.43863900  0.64264000  0.19386300  1
  Sn  Sn17  1  0.56136100  0.35736000  0.69386300  1
  Sn  Sn18  1  0.35736000  0.43863900  0.94386300  1
  Sn  Sn19  1  0.64264000  0.56136100  0.44386300  1
  S  S0  1  0.00432900  0.50679900  0.34886200  1
  S  S1  1  0.99567100  0.49320100  0.84886200  1
  S  S2  1  0.49320100  0.00432900  0.09886200  1
  S  S3  1  0.50679900  0.99567100  0.59886200  1
  S  S4  1  0.94335600  0.56928100  0.62096000  1
  S  S5  1  0.05664400  0.43071900  0.12096000  1
  S  S6  1  0.43071900  0.94335600  0.37096000  1
  S  S7  1  0.56928100  0.05664400  0.87096000  1
  S  S8  1  0.11458800  0.69832000  0.09142100  1
  S  S9  1  0.88541200  0.30168000  0.59142100  1
  S  S10  1  0.30168000  0.11458800  0.84142100  1
  S  S11  1  0.69832000  0.88541200  0.34142100  1
  S  S12  1  0.08373800  0.71971700  0.38553600  1
  S  S13  1  0.91626200  0.28028300  0.88553600  1
  S  S14  1  0.28028300  0.08373800  0.13553600  1
  S  S15  1  0.71971700  0.91626200  0.63553600  1
  S  S16  1  0.94140600  0.87561100  0.22424000  1
  S  S17  1  0.05859400  0.12438900  0.72424000  1
  S  S18  1  0.12438900  0.94140600  0.97424000  1
  S  S19  1  0.87561100  0.05859400  0.47424000  1
  S  S20  1  0.24369100  0.59111200  0.55591400  1
  S  S21  1  0.75630900  0.40888800  0.05591400  1
  S  S22  1  0.40888800  0.24369100  0.30591400  1
  S  S23  1  0.59111200  0.75630900  0.80591400  1
  S  S24  1  0.36207400  0.85129000  0.85975200  1
  S  S25  1  0.63792600  0.14871000  0.35975200  1
  S  S26  1  0.14871000  0.36207400  0.60975200  1
  S  S27  1  0.85129000  0.63792600  0.10975200  1
  S  S28  1  0.38897200  0.79736200  0.59505700  1
  S  S29  1  0.61102800  0.20263800  0.09505700  1
  S  S30  1  0.20263800  0.38897200  0.34505700  1
  S  S31  1  0.79736200  0.61102800  0.84505700  1
  S  S32  1  0.35446200  0.59018700  0.80961200  1
  S  S33  1  0.64553800  0.40981300  0.30961200  1
  S  S34  1  0.40981300  0.35446200  0.55961200  1
  S  S35  1  0.59018700  0.64553800  0.05961200  1
  S  S36  1  0.11679600  0.71682500  0.81561400  1
  S  S37  1  0.88320400  0.28317500  0.31561400  1
  S  S38  1  0.28317500  0.11679600  0.56561400  1
  S  S39  1  0.71682500  0.88320400  0.06561400  1
  S  S40  1  0.89317100  0.78091800  0.54456800  1
  S  S41  1  0.10682900  0.21908200  0.04456800  1
  S  S42  1  0.21908200  0.89317100  0.29456800  1
  S  S43  1  0.78091800  0.10682900  0.79456800  1
  S  S44  1  0.14091200  0.91161500  0.63638400  1
  S  S45  1  0.85908800  0.08838500  0.13638400  1
  S  S46  1  0.08838500  0.14091200  0.38638400  1
  S  S47  1  0.91161500  0.85908800  0.88638400  1
  S  S48  1  0.40391400  0.78894700  0.10463400  1
  S  S49  1  0.59608600  0.21105300  0.60463400  1
  S  S50  1  0.21105300  0.40391400  0.85463400  1
  S  S51  1  0.78894700  0.59608600  0.35463400  1
  S  S52  1  0.55776700  0.67596400  0.32776700  1
  S  S53  1  0.44223300  0.32403600  0.82776700  1
  S  S54  1  0.32403600  0.55776700  0.07776700  1
  S  S55  1  0.67596400  0.44223300  0.57776700  1
  S  S56  1  0.32604000  0.61596300  0.32471800  1
  S  S57  1  0.67396000  0.38403700  0.82471800  1
  S  S58  1  0.38403700  0.32604000  0.07471800  1
  S  S59  1  0.61596300  0.67396000  0.57471800  1
loop_
_geom_bond_atom_site_label_1
_geom_bond_atom_site_label_2
_geom_bond_distance
_geom_bond_site_symmetry_2
Ca0 S56 2.706143 1_555
Ca0 S28 2.721173 1_555
Ca0 S20 2.798476 1_555
Ca0 S12 2.833626 1_555
Ca0 S42 2.932327 1_555
Ca1 S57 2.706143 1_555
Ca1 S29 2.721173 1_556
Ca1 S21 2.798476 1_556
Ca1 S13 2.833626 1_555
Ca1 S43 2.932327 1_555
Ca2 S58 2.706143 1_555
Ca2 S30 2.721173 1_555
Ca2 S22 2.798476 1_555
Ca2 S14 2.833626 1_555
Ca2 S41 2.932327 1_555
Ca3 S59 2.706143 1_555
Ca3 S31 2.721173 1_555
Ca3 S23 2.798476 1_555
Ca3 S15 2.833626 1_555
Ca3 S40 2.932327 1_555
Ca4 S26 2.752442 1_555
Ca4 S53 2.863026 1_555
Ca4 S10 2.867178 1_555
Ca4 S38 2.918181 1_555
Ca4 S34 2.926650 1_555
Ca4 S50 2.959201 1_555
Ca5 S27 2.752442 1_555
Ca5 S52 2.863026 1_555
Ca5 S11 2.867178 1_555
Ca5 S39 2.918181 1_555
Ca5 S35 2.926650 1_555
Ca5 S51 2.959201 1_555
Ca6 S25 2.752442 1_555
Ca6 S55 2.863026 1_555
Ca6 S9 2.867178 1_555
Ca6 S37 2.918181 1_555
Ca6 S33 2.926650 1_555
Ca6 S49 2.959201 1_555
Ca7 S24 2.752442 1_555
Ca7 S54 2.863026 1_556
Ca7 S8 2.867178 1_556
Ca7 S36 2.918181 1_555
Ca7 S32 2.926650 1_555
Ca7 S48 2.959201 1_556
Ca8 S59 2.770844 1_555
Ca8 S3 2.825922 1_555
Ca8 S6 2.857051 1_555
Ca8 S28 2.872517 1_555
Ca8 S11 2.921529 1_555
Ca8 S52 3.160384 1_555
Ca8 S15 3.278390 1_555
Ca9 S58 2.770844 1_556
Ca9 S2 2.825922 1_556
Ca9 S7 2.857051 1_555
Ca9 S29 2.872517 1_556
Ca9 S10 2.921529 1_555
Ca9 S53 3.160384 1_555
Ca9 S14 3.278390 1_556
Ca10 S56 2.770844 1_555
Ca10 S0 2.825922 1_555
Ca10 S5 2.857051 1_555
Ca10 S30 2.872517 1_555
Ca10 S8 2.921529 1_555
Ca10 S54 3.160384 1_555
Ca10 S12 3.278390 1_555
Ca11 S57 2.770844 1_555
Ca11 S1 2.825922 1_555
Ca11 S4 2.857051 1_555
Ca11 S31 2.872517 1_555
Ca11 S9 2.921529 1_555
Ca11 S55 3.160384 1_555
Ca11 S13 3.278390 1_555
Ca12 S24 2.760506 1_555
Ca12 S3 2.764321 1_555
Ca12 S28 2.876150 1_555
Ca12 S38 2.901117 1_565
Ca12 S10 2.954889 1_565
Ca12 S44 3.114386 1_555
Ca13 S25 2.760506 1_555
Ca13 S2 2.764321 1_555
Ca13 S29 2.876150 1_555
Ca13 S39 2.901117 1_545
Ca13 S11 2.954889 1_545
Ca13 S45 3.114386 1_555
Ca14 S26 2.760506 1_555
Ca14 S0 2.764321 1_555
Ca14 S30 2.876150 1_555
Ca14 S37 2.901117 1_455
Ca14 S9 2.954889 1_455
Ca14 S46 3.114386 1_555
Ca15 S27 2.760506 1_556
Ca15 S1 2.764321 1_555
Ca15 S31 2.876150 1_555
Ca15 S36 2.901117 1_655
Ca15 S8 2.954889 1_656
Ca15 S47 3.114386 1_555
Ca16 S20 2.730104 1_555
Ca16 S1 2.748248 1_455
Ca16 S4 2.866615 1_455
Ca16 S26 2.866699 1_555
Ca16 S36 3.000777 1_555
Ca16 S50 3.075339 1_555
Ca17 S21 2.730104 1_555
Ca17 S0 2.748248 1_655
Ca17 S5 2.866615 1_655
Ca17 S27 2.866699 1_555
Ca17 S37 3.000777 1_555
Ca17 S51 3.075339 1_555
Ca18 S22 2.730104 1_555
Ca18 S3 2.748248 1_545
Ca18 S6 2.866615 1_545
Ca18 S25 2.866699 1_555
Ca18 S38 3.000777 1_555
Ca18 S49 3.075339 1_555
Ca19 S23 2.730104 1_555
Ca19 S2 2.748248 1_566
Ca19 S7 2.866615 1_565
Ca19 S24 2.866699 1_555
Ca19 S39 3.000777 1_556
Ca19 S48 3.075339 1_556
S0 Sn8 2.446262 1_455
S1 Sn9 2.446262 1_655
S2 Sn10 2.446262 1_545
S3 Sn11 2.446262 1_565
S4 Sn8 2.398371 1_555
S5 Sn9 2.398371 1_554
S6 Sn10 2.398371 1_555
S7 Sn11 2.398371 1_555
S8 Sn4 2.377865 1_555
S9 Sn5 2.377865 1_555
S10 Sn6 2.377865 1_555
S11 Sn7 2.377865 1_555
S12 Sn4 2.438466 1_555
S12 Sn8 2.659470 1_455
S13 Sn5 2.438466 1_555
S13 Sn9 2.659470 1_655
S14 Sn6 2.438466 1_554
S14 Sn10 2.659470 1_545
S15 Sn7 2.438466 1_555
S15 Sn11 2.659470 1_565
S16 Sn4 2.438066 1_655
S16 Sn15 2.459282 1_555
S17 Sn5 2.438066 1_455
S17 Sn14 2.459282 1_555
S18 Sn6 2.438066 1_565
S18 Sn12 2.459282 1_555
S19 Sn7 2.438066 1_545
S19 Sn13 2.459282 1_555
S20 Sn2 2.382985 1_555
S21 Sn3 2.382985 1_555
S22 Sn1 2.382985 1_555
S23 Sn0 2.382985 1_555
S24 Sn0 2.483320 1_555
S25 Sn1 2.483320 1_555
S26 Sn2 2.483320 1_555
S27 Sn3 2.483320 1_555
S28 Sn0 2.432626 1_555
S29 Sn1 2.432626 1_555
S30 Sn2 2.432626 1_555
S31 Sn3 2.432626 1_556
S32 Sn0 2.464697 1_555
S32 Sn18 2.829515 1_555
S33 Sn1 2.464697 1_555
S33 Sn19 2.829515 1_555
S34 Sn2 2.464697 1_555
S34 Sn17 2.829515 1_555
S35 Sn3 2.464697 1_555
S35 Sn16 2.829515 1_555
S36 Sn12 2.396805 1_555
S37 Sn13 2.396805 1_555
S38 Sn14 2.396805 1_555
S39 Sn15 2.396805 1_555
S40 Sn7 2.420402 1_555
S40 Sn8 2.605182 1_555
S41 Sn6 2.420402 1_554
S41 Sn9 2.605182 1_554
S42 Sn4 2.420402 1_555
S42 Sn10 2.605182 1_555
S43 Sn5 2.420402 1_555
S43 Sn11 2.605182 1_555
S44 Sn14 2.559172 1_565
S44 Sn12 2.571622 1_555
S45 Sn15 2.559172 1_545
S45 Sn13 2.571622 1_555
S46 Sn13 2.559172 1_455
S46 Sn14 2.571622 1_555
S47 Sn12 2.559172 1_655
S47 Sn15 2.571622 1_556
S48 Sn16 2.486610 1_555
S48 Sn10 2.551855 1_555
S49 Sn17 2.486610 1_555
S49 Sn11 2.551855 1_555
S50 Sn18 2.486610 1_555
S50 Sn9 2.551855 1_555
S51 Sn19 2.486610 1_555
S51 Sn8 2.551855 1_555
S52 Sn16 2.522006 1_555
S52 Sn19 2.580190 1_555
S53 Sn17 2.522006 1_555
S53 Sn18 2.580190 1_555
S54 Sn18 2.522006 1_554
S54 Sn16 2.580190 1_555
S55 Sn19 2.522006 1_555
S55 Sn17 2.580190 1_555
S56 Sn16 2.411320 1_555
S57 Sn17 2.411320 1_555
S58 Sn18 2.411320 1_554
S59 Sn19 2.411320 1_555
