# generated using pymatgen
data_HW3
_symmetry_space_group_name_H-M   'P 1'
_cell_length_a   5.50953400
_cell_length_b   5.50953451
_cell_length_c   4.38237700
_cell_angle_alpha   90.00000000
_cell_angle_beta   90.00000000
_cell_angle_gamma   119.99999692
_symmetry_Int_Tables_number   1
_chemical_formula_structural   HW3
_chemical_formula_sum   'H2 W6'
_cell_volume   115.20468911
_cell_formula_units_Z   2
loop_
 _symmetry_equiv_pos_site_id
 _symmetry_equiv_pos_as_xyz
  1  'x, y, z'
loop_
 _atom_site_type_symbol
 _atom_site_label
 _atom_site_symmetry_multiplicity
 _atom_site_fract_x
 _atom_site_fract_y
 _atom_site_fract_z
 _atom_site_occupancy
  H  H0  1  0.33333300  0.66666600  0.75000000  1
  H  H1  1  0.66666700  0.33333400  0.25000100  1
  W  W0  1  0.16516500  0.33033000  0.25000100  1
  W  W1  1  0.66967000  0.83483400  0.25000100  1
  W  W2  1  0.16516500  0.83483400  0.25000100  1
  W  W3  1  0.83483400  0.66966800  0.75000000  1
  W  W4  1  0.33033200  0.16516700  0.75000000  1
  W  W5  1  0.83483600  0.16516700  0.75000000  1
loop_
_geom_bond_atom_site_label_1
_geom_bond_atom_site_label_2
_geom_bond_distance
_geom_bond_site_symmetry_2
H0 W2 2.715998 1_555
H0 W0 2.715998 1_555
H0 W1 2.716001 1_555
H0 W2 2.716005 1_556
H0 W0 2.716005 1_556
H0 W1 2.716008 1_556
H0 W5 2.754793 1_455
H0 W4 2.754796 1_555
H0 W3 2.754804 1_555
H0 W3 2.754804 1_455
H0 W4 2.754813 1_565
H0 W5 2.754816 1_565
H1 W3 2.715993 1_555
H1 W4 2.715995 1_555
H1 W5 2.715998 1_555
H1 W3 2.716000 1_554
H1 W4 2.716003 1_554
H1 W5 2.716005 1_554
H1 W1 2.754796 1_555
H1 W2 2.754799 1_655
H1 W0 2.754804 1_555
H1 W0 2.754804 1_655
H1 W2 2.754810 1_545
H1 W1 2.754813 1_545
W0 W5 2.699162 1_455
W0 W4 2.699165 1_555
W0 W5 2.699169 1_454
W0 W4 2.699172 1_554
W0 W1 2.729950 1_445
W0 W2 2.729952 1_545
W0 W2 2.779582 1_555
W0 W1 2.779585 1_555
W1 W3 2.699165 1_555
W1 W3 2.699172 1_554
W1 W5 2.699173 1_565
W1 W5 2.699180 1_564
W1 W2 2.729947 1_655
W1 W2 2.779587 1_555
W2 W3 2.699168 1_455
W2 W4 2.699173 1_565
W2 W3 2.699175 1_454
W2 W4 2.699180 1_564
W3 W5 2.729963 1_565
W3 W4 2.729966 1_665
W3 W4 2.779568 1_555
W3 W5 2.779571 1_555
W4 W5 2.729952 1_455
W4 W5 2.779582 1_555
