# generated using pymatgen
data_CsLu(MoO4)2
_symmetry_space_group_name_H-M   'P 1'
_cell_length_a   5.05129100
_cell_length_b   8.00096400
_cell_length_c   9.66121100
_cell_angle_alpha   90.00000000
_cell_angle_beta   90.00000000
_cell_angle_gamma   90.00000000
_symmetry_Int_Tables_number   1
_chemical_formula_structural   CsLu(MoO4)2
_chemical_formula_sum   'Cs2 Lu2 Mo4 O16'
_cell_volume   390.45975012
_cell_formula_units_Z   2
loop_
 _symmetry_equiv_pos_site_id
 _symmetry_equiv_pos_as_xyz
  1  'x, y, z'
loop_
 _atom_site_type_symbol
 _atom_site_label
 _atom_site_symmetry_multiplicity
 _atom_site_fract_x
 _atom_site_fract_y
 _atom_site_fract_z
 _atom_site_occupancy
  Cs  Cs0  1  0.00000000  0.25000000  0.50000000  1
  Cs  Cs1  1  0.00000000  0.75000000  0.50000000  1
  Lu  Lu0  1  0.00000000  0.25000000  0.00000000  1
  Lu  Lu1  1  0.00000000  0.75000000  0.00000000  1
  Mo  Mo0  1  0.52322300  0.00000000  0.19104000  1
  Mo  Mo1  1  0.47677700  0.00000000  0.80896000  1
  Mo  Mo2  1  0.47677700  0.50000000  0.19104000  1
  Mo  Mo3  1  0.52322300  0.50000000  0.80896000  1
  O  O0  1  0.24311100  0.00000000  0.06410100  1
  O  O1  1  0.75688900  0.00000000  0.93589900  1
  O  O2  1  0.75688900  0.50000000  0.06410100  1
  O  O3  1  0.24311100  0.50000000  0.93589900  1
  O  O4  1  0.25616900  0.32184400  0.18046100  1
  O  O5  1  0.74383100  0.67815600  0.81953900  1
  O  O6  1  0.74383100  0.32184400  0.81953900  1
  O  O7  1  0.74383100  0.17815600  0.18046100  1
  O  O8  1  0.25616900  0.67815600  0.18046100  1
  O  O9  1  0.25616900  0.82184400  0.81953900  1
  O  O10  1  0.25616900  0.17815600  0.81953900  1
  O  O11  1  0.74383100  0.82184400  0.18046100  1
  O  O12  1  0.39268800  0.00000000  0.35870500  1
  O  O13  1  0.60731200  0.00000000  0.64129500  1
  O  O14  1  0.60731200  0.50000000  0.35870500  1
  O  O15  1  0.39268800  0.50000000  0.64129500  1
loop_
_geom_bond_atom_site_label_1
_geom_bond_atom_site_label_2
_geom_bond_distance
_geom_bond_site_symmetry_2
Cs0 O15 3.130336 1_555
Cs0 O13 3.130336 1_455
Cs0 O12 3.130336 1_555
Cs0 O14 3.130336 1_455
Cs0 O6 3.396352 1_455
Cs0 O10 3.396352 1_555
Cs0 O4 3.396352 1_555
Cs0 O7 3.396352 1_455
Cs1 O15 3.130336 1_555
Cs1 O12 3.130336 1_565
Cs1 O13 3.130336 1_465
Cs1 O14 3.130336 1_455
Cs1 O9 3.396352 1_555
Cs1 O5 3.396352 1_455
Cs1 O11 3.396352 1_455
Cs1 O8 3.396352 1_555
Lu0 O4 2.245998 1_555
Lu0 O7 2.245998 1_455
Lu0 O6 2.245998 1_454
Lu0 O10 2.245998 1_554
Lu0 O0 2.427454 1_555
Lu0 O2 2.427454 1_455
Lu0 O3 2.427454 1_554
Lu0 O1 2.427454 1_454
Lu1 O11 2.245998 1_455
Lu1 O8 2.245998 1_555
Lu1 O9 2.245998 1_554
Lu1 O5 2.245998 1_454
Lu1 O0 2.427454 1_565
Lu1 O2 2.427454 1_455
Lu1 O3 2.427454 1_554
Lu1 O1 2.427454 1_464
Mo0 O12 1.748906 1_555
Mo0 O7 1.812196 1_555
Mo0 O11 1.812196 1_545
Mo0 O0 1.872442 1_555
Mo1 O13 1.748906 1_555
Mo1 O10 1.812196 1_555
Mo1 O9 1.812196 1_545
Mo1 O1 1.872442 1_555
Mo2 O14 1.748906 1_555
Mo2 O8 1.812196 1_555
Mo2 O4 1.812196 1_555
Mo2 O2 1.872442 1_555
Mo3 O15 1.748906 1_555
Mo3 O5 1.812196 1_555
Mo3 O6 1.812196 1_555
Mo3 O3 1.872442 1_555
