# generated using pymatgen
data_MgGa
_symmetry_space_group_name_H-M   'P 1'
_cell_length_a   7.73504753
_cell_length_b   7.73504753
_cell_length_c   4.71361254
_cell_angle_alpha   90.00000000
_cell_angle_beta   90.00000000
_cell_angle_gamma   156.36700809
_symmetry_Int_Tables_number   1
_chemical_formula_structural   MgGa
_chemical_formula_sum   'Mg3 Ga3'
_cell_volume   113.05521119
_cell_formula_units_Z   3
loop_
 _symmetry_equiv_pos_site_id
 _symmetry_equiv_pos_as_xyz
  1  'x, y, z'
loop_
 _atom_site_type_symbol
 _atom_site_label
 _atom_site_symmetry_multiplicity
 _atom_site_fract_x
 _atom_site_fract_y
 _atom_site_fract_z
 _atom_site_occupancy
  Mg  Mg0  1  0.32122209  0.67877791  0.00000000  1
  Mg  Mg1  1  0.12481251  0.87518749  0.50000000  1
  Mg  Mg2  1  0.44748787  0.55251213  0.50000000  1
  Ga  Ga0  1  0.99615359  0.00384641  -0.00000000  1
  Ga  Ga1  1  0.65987952  0.34012048  0.00000000  1
  Ga  Ga2  1  0.78377541  0.21622459  0.50000000  1
loop_
_geom_bond_atom_site_label_1
_geom_bond_atom_site_label_2
_geom_bond_distance
_geom_bond_site_symmetry_2
Ga0 Mg2 2.933687 1_544
Ga0 Mg2 2.933687 1_654
Ga0 Mg2 2.933687 1_545
Ga0 Mg2 2.933687 1_655
Ga0 Ga1 2.941987 1_545
Ga0 Ga1 2.941987 1_655
Ga0 Mg1 3.057772 1_645
Ga0 Mg1 3.057772 1_644
Ga0 Mg0 3.086325 1_545
Ga0 Mg0 3.086325 1_655
Ga1 Mg1 2.888848 1_654
Ga1 Mg1 2.888848 1_655
Ga1 Mg1 2.888848 1_545
Ga1 Mg1 2.888848 1_544
Ga1 Mg0 2.911639 1_545
Ga1 Mg0 2.911639 1_655
Ga2 Mg1 2.881471 1_545
Ga2 Mg1 2.881471 1_655
Ga2 Mg0 2.895687 1_545
Ga2 Mg0 2.895687 1_546
Ga2 Mg0 2.895687 1_655
Ga2 Mg0 2.895687 1_656
Ga2 Mg2 2.941815 1_545
Ga2 Mg2 2.941815 1_655
