# generated using pymatgen
data_Yb3(SiNi3)2
_symmetry_space_group_name_H-M   'P 1'
_cell_length_a   7.53329518
_cell_length_b   7.53329518
_cell_length_c   7.53329518
_cell_angle_alpha   109.47122063
_cell_angle_beta   109.47122063
_cell_angle_gamma   109.47122063
_symmetry_Int_Tables_number   1
_chemical_formula_structural   Yb3(SiNi3)2
_chemical_formula_sum   'Yb6 Si4 Ni12'
_cell_volume   329.10392655
_cell_formula_units_Z   2
loop_
 _symmetry_equiv_pos_site_id
 _symmetry_equiv_pos_as_xyz
  1  'x, y, z'
loop_
 _atom_site_type_symbol
 _atom_site_label
 _atom_site_symmetry_multiplicity
 _atom_site_fract_x
 _atom_site_fract_y
 _atom_site_fract_z
 _atom_site_occupancy
  Yb  Yb0  1  0.70138100  0.70138100  0.00000000  1
  Yb  Yb1  1  0.29861900  0.00000000  0.29861900  1
  Yb  Yb2  1  0.00000000  0.29861900  0.29861900  1
  Yb  Yb3  1  0.29861900  0.29861900  0.00000000  1
  Yb  Yb4  1  0.70138100  0.00000000  0.70138100  1
  Yb  Yb5  1  0.00000000  0.70138100  0.70138100  1
  Si  Si0  1  0.00000000  0.00000000  0.50000000  1
  Si  Si1  1  0.00000000  0.50000000  0.00000000  1
  Si  Si2  1  0.50000000  0.00000000  0.00000000  1
  Si  Si3  1  0.50000000  0.50000000  0.50000000  1
  Ni  Ni0  1  0.32639900  0.32639900  0.65279800  1
  Ni  Ni1  1  0.67360100  0.00000000  0.32639900  1
  Ni  Ni2  1  0.00000000  0.67360100  0.32639900  1
  Ni  Ni3  1  0.67360100  0.32639900  0.00000000  1
  Ni  Ni4  1  0.32639900  0.65279800  0.32639900  1
  Ni  Ni5  1  0.00000000  0.32639900  0.67360100  1
  Ni  Ni6  1  0.32639900  0.67360100  0.00000000  1
  Ni  Ni7  1  0.32639900  0.00000000  0.67360100  1
  Ni  Ni8  1  0.65279800  0.32639900  0.32639900  1
  Ni  Ni9  1  0.67360100  0.67360100  0.34720200  1
  Ni  Ni10  1  0.67360100  0.34720200  0.67360100  1
  Ni  Ni11  1  0.34720200  0.67360100  0.67360100  1
loop_
_geom_bond_atom_site_label_1
_geom_bond_atom_site_label_2
_geom_bond_distance
_geom_bond_site_symmetry_2
Si0 Yb1 3.104398 1_555
Si0 Yb5 3.104398 1_545
Si0 Yb2 3.104398 1_555
Si0 Yb4 3.104398 1_455
Si0 Yb3 3.104398 1_556
Si0 Yb0 3.104398 1_445
Si1 Yb1 3.104398 1_565
Si1 Yb5 3.104398 1_554
Si1 Yb0 3.104398 1_455
Si1 Yb2 3.104398 1_555
Si1 Yb3 3.104398 1_555
Si1 Yb4 3.104398 1_454
Si2 Yb1 3.104398 1_555
Si2 Yb0 3.104398 1_545
Si2 Yb3 3.104398 1_555
Si2 Yb5 3.104398 1_544
Si2 Yb2 3.104398 1_655
Si2 Yb4 3.104398 1_554
Si3 Yb1 3.104398 1_555
Si3 Yb2 3.104398 1_555
Si3 Yb3 3.104398 1_555
Si3 Yb0 3.104398 1_556
Si3 Yb5 3.104398 1_655
Si3 Yb4 3.104398 1_565
Ni0 Si3 2.369076 1_555
Ni0 Si0 2.369076 1_555
Ni0 Ni11 2.515441 1_555
Ni0 Ni5 2.515441 1_555
Ni0 Ni7 2.515441 1_555
Ni0 Ni10 2.515441 1_555
Ni0 Yb3 2.762148 1_556
Ni0 Yb0 2.762148 1_556
Ni0 Yb1 2.849512 1_555
Ni0 Yb2 2.849512 1_555
Ni1 Si0 2.369076 1_655
Ni1 Si2 2.369076 1_555
Ni1 Ni8 2.515441 1_555
Ni1 Ni9 2.515441 1_545
Ni1 Ni5 2.515441 1_655
Ni1 Ni6 2.515441 1_545
Ni1 Yb1 2.762148 1_555
Ni1 Yb4 2.762148 1_555
Ni1 Yb0 2.849512 1_545
Ni1 Yb2 2.849512 1_655
Ni2 Si0 2.369076 1_565
Ni2 Si1 2.369076 1_555
Ni2 Ni3 2.515441 1_455
Ni2 Ni7 2.515441 1_565
Ni2 Ni4 2.515441 1_555
Ni2 Ni9 2.515441 1_455
Ni2 Yb2 2.762148 1_555
Ni2 Yb5 2.762148 1_555
Ni2 Yb0 2.849512 1_455
Ni2 Yb1 2.849512 1_565
Ni3 Si1 2.369076 1_655
Ni3 Si2 2.369076 1_555
Ni3 Ni8 2.515441 1_555
Ni3 Ni7 2.515441 1_554
Ni3 Yb3 2.762148 1_555
Ni3 Yb0 2.762148 1_555
Ni3 Yb2 2.849512 1_655
Ni3 Yb4 2.849512 1_554
Ni4 Si3 2.369076 1_555
Ni4 Si1 2.369076 1_555
Ni4 Ni9 2.515441 1_555
Ni4 Ni6 2.515441 1_555
Ni4 Yb1 2.762148 1_565
Ni4 Yb4 2.762148 1_565
Ni4 Yb3 2.849512 1_555
Ni4 Yb2 2.849512 1_555
Ni5 Si0 2.369076 1_555
Ni5 Si1 2.369076 1_556
Ni5 Ni6 2.515441 1_556
Ni5 Yb2 2.762148 1_555
Ni5 Yb5 2.762148 1_555
Ni5 Yb3 2.849512 1_556
Ni5 Yb4 2.849512 1_455
Ni6 Si2 2.369076 1_565
Ni6 Si1 2.369076 1_555
Ni6 Yb3 2.762148 1_555
Ni6 Yb0 2.762148 1_555
Ni6 Yb1 2.849512 1_565
Ni6 Yb5 2.849512 1_554
Ni7 Si0 2.369076 1_555
Ni7 Si2 2.369076 1_556
Ni7 Yb1 2.762148 1_555
Ni7 Yb4 2.762148 1_555
Ni7 Yb3 2.849512 1_556
Ni7 Yb5 2.849512 1_545
Ni8 Si3 2.369076 1_555
Ni8 Si2 2.369076 1_555
Ni8 Ni9 2.515441 1_555
Ni8 Yb2 2.762148 1_655
Ni8 Yb5 2.762148 1_655
Ni8 Yb3 2.849512 1_555
Ni8 Yb1 2.849512 1_555
Ni9 Si3 2.369076 1_555
Ni9 Si0 2.369076 1_665
Ni9 Yb3 2.762148 1_555
Ni9 Yb0 2.762148 1_555
Ni9 Yb5 2.849512 1_655
Ni9 Yb4 2.849512 1_565
Ni10 Si3 2.369076 1_555
Ni10 Si1 2.369076 1_656
Ni10 Ni8 2.515441 1_555
Ni10 Ni3 2.515441 1_556
Ni10 Ni5 2.515441 1_655
Ni10 Yb1 2.762148 1_555
Ni10 Yb4 2.762148 1_555
Ni10 Yb0 2.849512 1_556
Ni10 Yb5 2.849512 1_655
Ni11 Si3 2.369076 1_555
Ni11 Si2 2.369076 1_566
Ni11 Ni6 2.515441 1_556
Ni11 Ni7 2.515441 1_565
Ni11 Ni4 2.515441 1_555
Ni11 Yb2 2.762148 1_555
Ni11 Yb5 2.762148 1_555
Ni11 Yb4 2.849512 1_565
Ni11 Yb0 2.849512 1_556
