# generated using pymatgen
data_YMg6Ni
_symmetry_space_group_name_H-M   'P 1'
_cell_length_a   4.91627900
_cell_length_b   5.91270400
_cell_length_c   12.17262200
_cell_angle_alpha   90.00000000
_cell_angle_beta   90.00000000
_cell_angle_gamma   90.00000000
_symmetry_Int_Tables_number   1
_chemical_formula_structural   YMg6Ni
_chemical_formula_sum   'Y2 Mg12 Ni2'
_cell_volume   353.83989314
_cell_formula_units_Z   2
loop_
 _symmetry_equiv_pos_site_id
 _symmetry_equiv_pos_as_xyz
  1  'x, y, z'
loop_
 _atom_site_type_symbol
 _atom_site_label
 _atom_site_symmetry_multiplicity
 _atom_site_fract_x
 _atom_site_fract_y
 _atom_site_fract_z
 _atom_site_occupancy
  Y  Y0  1  0.50000000  0.00000000  0.18939800  1
  Y  Y1  1  0.50000000  0.50000000  0.68939800  1
  Mg  Mg0  1  0.50000000  0.24732900  0.43779300  1
  Mg  Mg1  1  0.50000000  0.75267100  0.43779300  1
  Mg  Mg2  1  0.00000000  0.74392200  0.07973300  1
  Mg  Mg3  1  0.00000000  0.25607800  0.07973300  1
  Mg  Mg4  1  0.00000000  0.00000000  0.34748900  1
  Mg  Mg5  1  0.00000000  0.50000000  0.29577400  1
  Mg  Mg6  1  0.50000000  0.74732900  0.93779300  1
  Mg  Mg7  1  0.50000000  0.25267100  0.93779300  1
  Mg  Mg8  1  0.00000000  0.24392200  0.57973300  1
  Mg  Mg9  1  0.00000000  0.75607800  0.57973300  1
  Mg  Mg10  1  0.00000000  0.50000000  0.84748900  1
  Mg  Mg11  1  0.00000000  0.00000000  0.79577400  1
  Ni  Ni0  1  0.50000000  0.50000000  0.13228300  1
  Ni  Ni1  1  0.50000000  0.00000000  0.63228300  1
loop_
_geom_bond_atom_site_label_1
_geom_bond_atom_site_label_2
_geom_bond_distance
_geom_bond_site_symmetry_2
Mg0 Ni1 2.782696 1_555
Mg0 Mg4 3.064202 1_555
Mg0 Mg4 3.064202 1_655
Mg0 Mg5 3.356031 1_655
Mg0 Mg5 3.356031 1_555
Mg0 Y0 3.358695 1_555
Mg0 Y1 3.407643 1_555
Mg1 Ni1 2.782696 1_565
Mg1 Mg4 3.064202 1_565
Mg1 Mg4 3.064202 1_665
Mg1 Mg5 3.356031 1_655
Mg1 Mg5 3.356031 1_555
Mg1 Y0 3.358695 1_565
Mg1 Y1 3.407643 1_555
Mg2 Ni0 2.920904 1_555
Mg2 Ni0 2.920904 1_455
Mg2 Mg5 2.999304 1_555
Mg2 Y0 3.180719 1_465
Mg2 Y0 3.180719 1_565
Mg3 Ni0 2.920904 1_555
Mg3 Ni0 2.920904 1_455
Mg3 Mg5 2.999304 1_555
Mg3 Y0 3.180719 1_455
Mg3 Y0 3.180719 1_555
Mg4 Mg5 3.022631 1_555
Mg4 Mg5 3.022631 1_545
Mg4 Y0 3.121810 1_455
Mg4 Y0 3.121810 1_555
Mg4 Mg8 3.173655 1_555
Mg4 Mg9 3.173655 1_545
Mg5 Ni0 3.162753 1_555
Mg5 Ni0 3.162753 1_455
Mg6 Ni0 2.782696 1_556
Mg6 Y1 3.358695 1_555
Mg6 Y0 3.407643 1_566
Mg7 Ni0 2.782696 1_556
Mg7 Y1 3.358695 1_555
Mg7 Y0 3.407643 1_556
Mg8 Ni1 2.920904 1_555
Mg8 Ni1 2.920904 1_455
Mg8 Y1 3.180719 1_455
Mg8 Y1 3.180719 1_555
Mg9 Ni1 2.920904 1_465
Mg9 Ni1 2.920904 1_565
Mg9 Y1 3.180719 1_455
Mg9 Y1 3.180719 1_555
Mg10 Mg11 3.022631 1_555
Mg10 Mg11 3.022631 1_565
Mg10 Mg6 3.064202 1_455
Mg10 Mg7 3.064202 1_455
Mg10 Mg7 3.064202 1_555
Mg10 Mg6 3.064202 1_555
Mg10 Y1 3.121810 1_555
Mg10 Y1 3.121810 1_455
Mg10 Mg2 3.173655 1_556
Mg10 Mg3 3.173655 1_556
Mg11 Mg8 2.999304 1_555
Mg11 Mg9 2.999304 1_545
Mg11 Ni1 3.162753 1_555
Mg11 Ni1 3.162753 1_455
Mg11 Mg6 3.356031 1_545
Mg11 Mg7 3.356031 1_455
Mg11 Mg7 3.356031 1_555
Mg11 Mg6 3.356031 1_445
Ni0 Y0 3.037001 1_555
Ni0 Y0 3.037001 1_565
Ni1 Y1 3.037001 1_545
Ni1 Y1 3.037001 1_555
