# generated using pymatgen
data_EuMg
_symmetry_space_group_name_H-M   'P 1'
_cell_length_a   4.10527800
_cell_length_b   5.85050500
_cell_length_c   5.85326500
_cell_angle_alpha   90.00000000
_cell_angle_beta   90.00000000
_cell_angle_gamma   90.00000000
_symmetry_Int_Tables_number   1
_chemical_formula_structural   EuMg
_chemical_formula_sum   'Eu2 Mg2'
_cell_volume   140.58342298
_cell_formula_units_Z   2
loop_
 _symmetry_equiv_pos_site_id
 _symmetry_equiv_pos_as_xyz
  1  'x, y, z'
loop_
 _atom_site_type_symbol
 _atom_site_label
 _atom_site_symmetry_multiplicity
 _atom_site_fract_x
 _atom_site_fract_y
 _atom_site_fract_z
 _atom_site_occupancy
  Eu  Eu0  1  0.00000000  0.75000000  0.73209000  1
  Eu  Eu1  1  0.00000000  0.25000000  0.26791000  1
  Mg  Mg0  1  0.50000000  0.75000000  0.22611000  1
  Mg  Mg1  1  0.50000000  0.25000000  0.77389000  1
loop_
_geom_bond_atom_site_label_1
_geom_bond_atom_site_label_2
_geom_bond_distance
_geom_bond_site_symmetry_2
Eu0 Mg0 3.546104 1_456
Eu0 Mg0 3.546104 1_556
Eu0 Mg1 3.581940 1_555
Eu0 Mg1 3.581940 1_465
Eu0 Mg1 3.581940 1_565
Eu0 Mg1 3.581940 1_455
Eu0 Mg0 3.603416 1_455
Eu0 Mg0 3.603416 1_555
Eu1 Mg1 3.546104 1_554
Eu1 Mg1 3.546104 1_454
Eu1 Mg0 3.581940 1_455
Eu1 Mg0 3.581940 1_445
Eu1 Mg0 3.581940 1_555
Eu1 Mg0 3.581940 1_545
Eu1 Mg1 3.603416 1_555
Eu1 Mg1 3.603416 1_455
