# generated using pymatgen
data_RbTlCl2
_symmetry_space_group_name_H-M   'P 1'
_cell_length_a   9.23209995
_cell_length_b   9.23209995
_cell_length_c   9.23258136
_cell_angle_alpha   119.99827519
_cell_angle_beta   119.99827519
_cell_angle_gamma   90.00000000
_symmetry_Int_Tables_number   1
_chemical_formula_structural   RbTlCl2
_chemical_formula_sum   'Rb4 Tl4 Cl8'
_cell_volume   556.45722272
_cell_formula_units_Z   4
loop_
 _symmetry_equiv_pos_site_id
 _symmetry_equiv_pos_as_xyz
  1  'x, y, z'
loop_
 _atom_site_type_symbol
 _atom_site_label
 _atom_site_symmetry_multiplicity
 _atom_site_fract_x
 _atom_site_fract_y
 _atom_site_fract_z
 _atom_site_occupancy
  Rb  Rb0  1  0.62500000  0.87500000  0.25000000  1
  Rb  Rb1  1  0.62500000  0.37500000  0.25000000  1
  Rb  Rb2  1  0.62500000  0.37500000  0.75000000  1
  Rb  Rb3  1  0.12500000  0.37500000  0.75000000  1
  Tl  Tl0  1  0.12500000  0.37500000  0.25000000  1
  Tl  Tl1  1  0.12500000  0.87500000  0.25000000  1
  Tl  Tl2  1  0.12500000  0.87500000  0.75000000  1
  Tl  Tl3  1  0.62500000  0.87500000  0.75000000  1
  Cl  Cl0  1  0.36946152  0.12371288  0.24676815  1
  Cl  Cl1  1  0.87730663  0.12305528  0.24676815  1
  Cl  Cl2  1  0.37305528  0.11946152  0.74676815  1
  Cl  Cl3  1  0.88053848  0.62628712  0.25323185  1
  Cl  Cl4  1  0.37371288  0.62730663  0.74676815  1
  Cl  Cl5  1  0.37269337  0.62694472  0.25323185  1
  Cl  Cl6  1  0.87694472  0.63053848  0.75323185  1
  Cl  Cl7  1  0.87628712  0.12269337  0.75323185  1
loop_
_geom_bond_atom_site_label_1
_geom_bond_atom_site_label_2
_geom_bond_distance
_geom_bond_site_symmetry_2
Cl0 Tl0 3.236441 1_555
Cl0 Tl1 3.240767 1_545
Cl0 Tl2 3.243484 1_544
Cl0 Rb2 3.285682 1_555
Cl0 Rb1 3.287685 1_555
Cl0 Rb0 3.291945 1_545
Cl1 Tl1 3.236441 1_645
Cl1 Tl0 3.240767 1_655
Cl1 Tl3 3.243484 1_544
Cl1 Rb3 3.285682 1_655
Cl1 Rb0 3.287685 1_545
Cl1 Rb1 3.291945 1_555
Cl2 Tl2 3.236441 1_545
Cl2 Tl3 3.240767 1_545
Cl2 Tl1 3.243484 1_545
Cl2 Rb1 3.285682 1_556
Cl2 Rb3 3.287685 1_555
Cl2 Rb2 3.291945 1_555
Cl3 Tl0 3.236441 1_655
Cl3 Tl1 3.240767 1_655
Cl3 Tl2 3.243484 1_655
Cl3 Rb2 3.285682 1_554
Cl3 Rb1 3.287685 1_555
Cl3 Rb0 3.291945 1_555
Cl4 Tl3 3.236441 1_555
Cl4 Tl2 3.240767 1_555
Cl4 Tl0 3.243484 1_555
Cl4 Rb0 3.285682 1_556
Cl4 Rb2 3.287685 1_555
Cl4 Rb3 3.291945 1_555
Cl5 Tl1 3.236441 1_555
Cl5 Tl0 3.240767 1_555
Cl5 Tl3 3.243484 1_555
Cl5 Rb3 3.285682 1_554
Cl5 Rb0 3.287685 1_555
Cl5 Rb1 3.291945 1_555
Cl6 Tl2 3.236441 1_655
Cl6 Tl3 3.240767 1_555
Cl6 Tl1 3.243484 1_656
Cl6 Rb1 3.285682 1_555
Cl6 Rb3 3.287685 1_655
Cl6 Rb2 3.291945 1_555
Cl7 Tl3 3.236441 1_545
Cl7 Tl2 3.240767 1_645
Cl7 Tl0 3.243484 1_656
Cl7 Rb0 3.285682 1_545
Cl7 Rb2 3.287685 1_555
Cl7 Rb3 3.291945 1_655
