# generated using pymatgen
data_Rb2Mg2(WO4)3
_symmetry_space_group_name_H-M   'P 1'
_cell_length_a   11.05989415
_cell_length_b   11.05989415
_cell_length_c   11.05989415
_cell_angle_alpha   90.00000000
_cell_angle_beta   90.00000000
_cell_angle_gamma   90.00000000
_symmetry_Int_Tables_number   1
_chemical_formula_structural   Rb2Mg2(WO4)3
_chemical_formula_sum   'Rb8 Mg8 W12 O48'
_cell_volume   1352.86017251
_cell_formula_units_Z   4
loop_
 _symmetry_equiv_pos_site_id
 _symmetry_equiv_pos_as_xyz
  1  'x, y, z'
loop_
 _atom_site_type_symbol
 _atom_site_label
 _atom_site_symmetry_multiplicity
 _atom_site_fract_x
 _atom_site_fract_y
 _atom_site_fract_z
 _atom_site_occupancy
  Rb  Rb0  1  0.29576219  0.20423781  0.79576219  1
  Rb  Rb1  1  0.20423781  0.79576219  0.29576219  1
  Rb  Rb2  1  0.70423781  0.70423781  0.70423781  1
  Rb  Rb3  1  0.79576219  0.29576219  0.20423781  1
  Rb  Rb4  1  0.42926482  0.57073518  0.07073518  1
  Rb  Rb5  1  0.92926482  0.92926482  0.92926482  1
  Rb  Rb6  1  0.07073518  0.42926482  0.57073518  1
  Rb  Rb7  1  0.57073518  0.07073518  0.42926482  1
  Mg  Mg0  1  0.36372926  0.86372926  0.63627074  1
  Mg  Mg1  1  0.86372926  0.63627074  0.36372926  1
  Mg  Mg2  1  0.63627074  0.36372926  0.86372926  1
  Mg  Mg3  1  0.13627074  0.13627074  0.13627074  1
  Mg  Mg4  1  0.41264493  0.41264493  0.41264493  1
  Mg  Mg5  1  0.58735507  0.91264493  0.08735507  1
  Mg  Mg6  1  0.91264493  0.08735507  0.58735507  1
  Mg  Mg7  1  0.08735507  0.58735507  0.91264493  1
  W  W0  1  0.44934553  0.22382806  0.12707284  1
  W  W1  1  0.87292716  0.94934553  0.27617194  1
  W  W2  1  0.72382806  0.37292716  0.55065447  1
  W  W3  1  0.94934553  0.27617194  0.87292716  1
  W  W4  1  0.37292716  0.55065447  0.72382806  1
  W  W5  1  0.22382806  0.12707284  0.44934553  1
  W  W6  1  0.55065447  0.72382806  0.37292716  1
  W  W7  1  0.12707284  0.44934553  0.22382806  1
  W  W8  1  0.27617194  0.87292716  0.94934553  1
  W  W9  1  0.05065447  0.77617194  0.62707284  1
  W  W10  1  0.62707284  0.05065447  0.77617194  1
  W  W11  1  0.77617194  0.62707284  0.05065447  1
  O  O0  1  0.50242972  0.07031462  0.14660126  1
  O  O1  1  0.85339874  0.00242972  0.42968538  1
  O  O2  1  0.57031462  0.35339874  0.49757028  1
  O  O3  1  0.00242972  0.42968538  0.85339874  1
  O  O4  1  0.35339874  0.49757028  0.57031462  1
  O  O5  1  0.07031462  0.14660126  0.50242972  1
  O  O6  1  0.49757028  0.57031462  0.35339874  1
  O  O7  1  0.14660126  0.50242972  0.07031462  1
  O  O8  1  0.42968538  0.85339874  0.00242972  1
  O  O9  1  0.99757028  0.92968538  0.64660126  1
  O  O10  1  0.64660126  0.99757028  0.92968538  1
  O  O11  1  0.92968538  0.64660126  0.99757028  1
  O  O12  1  0.29267138  0.22941698  0.07785754  1
  O  O13  1  0.92214246  0.79267138  0.27058302  1
  O  O14  1  0.72941698  0.42214246  0.70732862  1
  O  O15  1  0.79267138  0.27058302  0.92214246  1
  O  O16  1  0.42214246  0.70732862  0.72941698  1
  O  O17  1  0.22941698  0.07785754  0.29267138  1
  O  O18  1  0.70732862  0.72941698  0.42214246  1
  O  O19  1  0.07785754  0.29267138  0.22941698  1
  O  O20  1  0.27058302  0.92214246  0.79267138  1
  O  O21  1  0.20732862  0.77058302  0.57785754  1
  O  O22  1  0.57785754  0.20732862  0.77058302  1
  O  O23  1  0.77058302  0.57785754  0.20732862  1
  O  O24  1  0.53918785  0.30408003  0.01562729  1
  O  O25  1  0.98437271  0.03918785  0.19591997  1
  O  O26  1  0.80408003  0.48437271  0.46081215  1
  O  O27  1  0.03918785  0.19591997  0.98437271  1
  O  O28  1  0.48437271  0.46081215  0.80408003  1
  O  O29  1  0.30408003  0.01562729  0.53918785  1
  O  O30  1  0.46081215  0.80408003  0.48437271  1
  O  O31  1  0.01562729  0.53918785  0.30408003  1
  O  O32  1  0.19591997  0.98437271  0.03918785  1
  O  O33  1  0.96081215  0.69591997  0.51562729  1
  O  O34  1  0.51562729  0.96081215  0.69591997  1
  O  O35  1  0.69591997  0.51562729  0.96081215  1
  O  O36  1  0.47122922  0.30216368  0.26953253  1
  O  O37  1  0.73046747  0.97122922  0.19783632  1
  O  O38  1  0.80216368  0.23046747  0.52877078  1
  O  O39  1  0.97122922  0.19783632  0.73046747  1
  O  O40  1  0.23046747  0.52877078  0.80216368  1
  O  O41  1  0.30216368  0.26953253  0.47122922  1
  O  O42  1  0.52877078  0.80216368  0.23046747  1
  O  O43  1  0.26953253  0.47122922  0.30216368  1
  O  O44  1  0.19783632  0.73046747  0.97122922  1
  O  O45  1  0.02877078  0.69783632  0.76953253  1
  O  O46  1  0.76953253  0.02877078  0.69783632  1
  O  O47  1  0.69783632  0.76953253  0.02877078  1
loop_
_geom_bond_atom_site_label_1
_geom_bond_atom_site_label_2
_geom_bond_distance
_geom_bond_site_symmetry_2
Mg0 O29 2.100103 1_565
Mg0 O34 2.100103 1_555
Mg0 O30 2.100103 1_555
Mg0 O21 2.114422 1_555
Mg0 O20 2.114422 1_555
Mg0 O16 2.114422 1_555
Mg1 O33 2.100103 1_555
Mg1 O31 2.100103 1_655
Mg1 O26 2.100103 1_555
Mg1 O23 2.114422 1_555
Mg1 O13 2.114422 1_555
Mg1 O18 2.114422 1_555
Mg2 O24 2.100103 1_556
Mg2 O35 2.100103 1_555
Mg2 O28 2.100103 1_555
Mg2 O22 2.114422 1_555
Mg2 O15 2.114422 1_555
Mg2 O14 2.114422 1_555
Mg3 O32 2.100103 1_545
Mg3 O27 2.100103 1_554
Mg3 O25 2.100103 1_455
Mg3 O17 2.114422 1_555
Mg3 O12 2.114422 1_555
Mg3 O19 2.114422 1_555
Mg4 O2 2.086254 1_555
Mg4 O6 2.086254 1_555
Mg4 O4 2.086254 1_555
Mg4 O41 2.101944 1_555
Mg4 O36 2.101944 1_555
Mg4 O43 2.101944 1_555
Mg5 O10 2.086254 1_554
Mg5 O8 2.086254 1_555
Mg5 O0 2.086254 1_565
Mg5 O42 2.101944 1_555
Mg5 O47 2.101944 1_555
Mg5 O37 2.101944 1_555
Mg6 O1 2.086254 1_555
Mg6 O9 2.086254 1_545
Mg6 O5 2.086254 1_655
Mg6 O38 2.101944 1_555
Mg6 O46 2.101944 1_555
Mg6 O39 2.101944 1_555
Mg7 O3 2.086254 1_555
Mg7 O7 2.086254 1_556
Mg7 O11 2.086254 1_455
Mg7 O40 2.101944 1_555
Mg7 O45 2.101944 1_555
Mg7 O44 2.101944 1_555
O0 W0 1.809423 1_555
O0 Rb7 3.216215 1_555
O1 W1 1.809423 1_545
O1 Rb7 3.216215 1_555
O2 W2 1.809423 1_555
O2 Rb7 3.216215 1_555
O3 W3 1.809423 1_455
O3 Rb6 3.216215 1_555
O4 W4 1.809423 1_555
O4 Rb6 3.216215 1_555
O5 W5 1.809423 1_555
O5 Rb6 3.216215 1_555
O6 W6 1.809423 1_555
O6 Rb4 3.216215 1_555
O7 W7 1.809423 1_555
O7 Rb4 3.216215 1_555
O8 W8 1.809423 1_554
O8 Rb4 3.216215 1_555
O9 W9 1.809423 1_655
O9 Rb5 3.216215 1_555
O10 W10 1.809423 1_565
O10 Rb5 3.216215 1_555
O11 W11 1.809423 1_556
O11 Rb5 3.216215 1_555
O12 W0 1.817332 1_555
O12 Rb0 3.132535 1_554
O13 W1 1.817332 1_555
O13 Rb1 3.132535 1_655
O14 W2 1.817332 1_555
O14 Rb2 3.132535 1_555
O15 W3 1.817332 1_555
O15 Rb3 3.132535 1_556
O16 W4 1.817332 1_555
O16 Rb2 3.132535 1_555
O17 W5 1.817332 1_555
O17 Rb1 3.132535 1_545
O18 W6 1.817332 1_555
O18 Rb2 3.132535 1_555
O19 W7 1.817332 1_555
O19 Rb3 3.132535 1_455
O20 W8 1.817332 1_555
O20 Rb0 3.132535 1_565
O21 W9 1.817332 1_555
O21 Rb1 3.132535 1_555
O22 W10 1.817332 1_555
O22 Rb0 3.132535 1_555
O23 W11 1.817332 1_555
O23 Rb3 3.132535 1_555
O24 W0 1.815041 1_555
O24 Rb4 3.247636 1_555
O25 W1 1.815041 1_545
O25 Rb5 3.247636 1_544
O26 W2 1.815041 1_555
O26 Rb6 3.247636 1_655
O27 W3 1.815041 1_455
O27 Rb5 3.247636 1_445
O28 W4 1.815041 1_555
O28 Rb4 3.247636 1_556
O29 W5 1.815041 1_555
O29 Rb7 3.247636 1_555
O30 W6 1.815041 1_555
O30 Rb7 3.247636 1_565
O31 W7 1.815041 1_555
O31 Rb6 3.247636 1_555
O32 W8 1.815041 1_554
O32 Rb5 3.247636 1_454
O33 W9 1.815041 1_655
O33 Rb6 3.247636 1_655
O34 W10 1.815041 1_565
O34 Rb7 3.247636 1_565
O35 W11 1.815041 1_556
O35 Rb4 3.247636 1_556
O36 W0 1.814299 1_555
O36 Rb7 3.299020 1_555
O37 W1 1.814299 1_555
O37 Rb7 3.299020 1_565
O38 W2 1.814299 1_555
O38 Rb7 3.299020 1_555
O39 W3 1.814299 1_555
O39 Rb6 3.299020 1_655
O40 W4 1.814299 1_555
O40 Rb6 3.299020 1_555
O41 W5 1.814299 1_555
O41 Rb6 3.299020 1_555
O42 W6 1.814299 1_555
O42 Rb4 3.299020 1_555
O43 W7 1.814299 1_555
O43 Rb4 3.299020 1_555
O44 W8 1.814299 1_555
O44 Rb4 3.299020 1_556
O45 W9 1.814299 1_555
O45 Rb5 3.299020 1_455
O46 W10 1.814299 1_555
O46 Rb5 3.299020 1_545
O47 W11 1.814299 1_555
O47 Rb5 3.299020 1_554
