# generated using pymatgen
data_K3Na(RuO4)2
_symmetry_space_group_name_H-M   'P 1'
_cell_length_a   5.91138314
_cell_length_b   5.91138314
_cell_length_c   15.14742181
_cell_angle_alpha   88.70379455
_cell_angle_beta   88.70379455
_cell_angle_gamma   60.37631872
_symmetry_Int_Tables_number   1
_chemical_formula_structural   K3Na(RuO4)2
_chemical_formula_sum   'K6 Na2 Ru4 O16'
_cell_volume   459.97390890
_cell_formula_units_Z   2
loop_
 _symmetry_equiv_pos_site_id
 _symmetry_equiv_pos_as_xyz
  1  'x, y, z'
loop_
 _atom_site_type_symbol
 _atom_site_label
 _atom_site_symmetry_multiplicity
 _atom_site_fract_x
 _atom_site_fract_y
 _atom_site_fract_z
 _atom_site_occupancy
  K  K0  1  0.29777382  0.35884436  0.91935404  1
  K  K1  1  0.64115564  0.70222618  0.58064596  1
  K  K2  1  0.93252152  0.06747848  0.75000000  1
  K  K3  1  0.06747848  0.93252152  0.25000000  1
  K  K4  1  0.35884436  0.29777382  0.41935404  1
  K  K5  1  0.70222618  0.64115564  0.08064596  1
  Na  Na0  1  -0.00000000  0.00000000  0.50000000  1
  Na  Na1  1  -0.00000000  0.00000000  0.00000000  1
  Ru  Ru0  1  0.63868162  0.69001571  0.85711044  1
  Ru  Ru1  1  0.30998429  0.36131838  0.64288956  1
  Ru  Ru2  1  0.36131838  0.30998429  0.14288956  1
  Ru  Ru3  1  0.69001571  0.63868162  0.35711044  1
  O  O0  1  0.38779789  0.77541226  0.41770790  1
  O  O1  1  0.22458774  0.61220211  0.08229210  1
  O  O2  1  0.61220211  0.22458774  0.58229210  1
  O  O3  1  0.77541226  0.38779789  0.91770790  1
  O  O4  1  0.83912599  0.29892156  0.37717526  1
  O  O5  1  0.70107844  0.16087401  0.12282474  1
  O  O6  1  0.16087401  0.70107844  0.62282474  1
  O  O7  1  0.29892156  0.83912599  0.87717526  1
  O  O8  1  0.86015421  0.77062678  0.41268002  1
  O  O9  1  0.22937322  0.13984579  0.08731998  1
  O  O10  1  0.13984579  0.22937322  0.58731998  1
  O  O11  1  0.77062678  0.86015421  0.91268002  1
  O  O12  1  0.74800643  0.61363654  0.74719457  1
  O  O13  1  0.38636346  0.25199357  0.75280543  1
  O  O14  1  0.25199357  0.38636346  0.25280543  1
  O  O15  1  0.61363654  0.74800643  0.24719457  1
loop_
_geom_bond_atom_site_label_1
_geom_bond_atom_site_label_2
_geom_bond_distance
_geom_bond_site_symmetry_2
K0 O13 2.592866 1_555
K0 O1 2.828444 1_556
K0 O11 2.892804 1_545
K0 O7 2.899254 1_555
K0 O3 2.911436 1_555
K0 O9 2.938466 1_556
K0 O3 3.007611 1_455
K0 O11 3.061708 1_455
K0 O7 3.148807 1_545
K1 O12 2.592866 1_555
K1 O0 2.828444 1_555
K1 O10 2.892804 1_655
K1 O6 2.899254 1_555
K1 O2 2.911436 1_555
K1 O8 2.938466 1_555
K1 O2 3.007611 1_565
K1 O10 3.061708 1_565
K1 O6 3.148807 1_655
K2 O7 2.721224 1_645
K2 O6 2.721224 1_645
K2 O12 2.851240 1_555
K2 O13 2.851240 1_555
K2 O2 3.045273 1_555
K2 O3 3.045273 1_555
K2 O11 3.066973 1_545
K2 O10 3.066973 1_655
K2 O12 3.359954 1_545
K2 O13 3.359954 1_655
K3 O4 2.721224 1_465
K3 O5 2.721224 1_465
K3 O14 2.851240 1_555
K3 O15 2.851240 1_555
K3 O1 3.045273 1_555
K3 O0 3.045273 1_555
K3 O8 3.066973 1_455
K3 O9 3.066973 1_565
K3 O15 3.359954 1_455
K3 O14 3.359954 1_565
K4 O14 2.592866 1_555
K4 O2 2.828444 1_555
K4 O8 2.892804 1_455
K4 O4 2.899254 1_555
K4 O0 2.911436 1_555
K4 O10 2.938466 1_555
K4 O0 3.007611 1_545
K4 O8 3.061708 1_545
K4 O4 3.148807 1_455
K5 O15 2.592866 1_555
K5 O3 2.828444 1_554
K5 O9 2.892804 1_565
K5 O5 2.899254 1_555
K5 O1 2.911436 1_555
K5 O11 2.938466 1_554
K5 O1 3.007611 1_655
K5 O9 3.061708 1_655
K5 O5 3.148807 1_565
Na0 O2 2.346994 1_455
Na0 O0 2.346994 1_545
Na0 O10 2.347362 1_555
Na0 O8 2.347362 1_445
Na0 O4 2.399629 1_455
Na0 O6 2.399629 1_545
Na1 O3 2.346994 1_454
Na1 O1 2.346994 1_545
Na1 O11 2.347362 1_444
Na1 O9 2.347362 1_555
Na1 O7 2.399629 1_544
Na1 O5 2.399629 1_455
O0 Ru3 1.794253 1_555
O1 Ru2 1.794253 1_555
O2 Ru1 1.794253 1_555
O3 Ru0 1.794253 1_555
O4 Ru3 1.771310 1_555
O5 Ru2 1.771310 1_555
O6 Ru1 1.771310 1_555
O7 Ru0 1.771310 1_555
O8 Ru3 1.780999 1_555
O9 Ru2 1.780999 1_555
O10 Ru1 1.780999 1_555
O11 Ru0 1.780999 1_555
O12 Ru0 1.757956 1_555
O13 Ru1 1.757956 1_555
O14 Ru2 1.757956 1_555
O15 Ru3 1.757956 1_555
