# generated using pymatgen
data_AlSiNi6
_symmetry_space_group_name_H-M   'P 1'
_cell_length_a   3.49686026
_cell_length_b   3.49686026
_cell_length_c   6.98085045
_cell_angle_alpha   90.00000000
_cell_angle_beta   90.00000000
_cell_angle_gamma   90.00000000
_symmetry_Int_Tables_number   1
_chemical_formula_structural   AlSiNi6
_chemical_formula_sum   'Al1 Si1 Ni6'
_cell_volume   85.36206044
_cell_formula_units_Z   1
loop_
 _symmetry_equiv_pos_site_id
 _symmetry_equiv_pos_as_xyz
  1  'x, y, z'
loop_
 _atom_site_type_symbol
 _atom_site_label
 _atom_site_symmetry_multiplicity
 _atom_site_fract_x
 _atom_site_fract_y
 _atom_site_fract_z
 _atom_site_occupancy
  Al  Al0  1  -0.00000000  0.00000000  0.00000000  1
  Si  Si0  1  -0.00000000  0.00000000  0.50000000  1
  Ni  Ni0  1  0.50000000  0.50000000  0.00000000  1
  Ni  Ni1  1  0.50000000  0.50000000  0.50000000  1
  Ni  Ni2  1  0.50000000  -0.00000000  0.25699113  1
  Ni  Ni3  1  0.50000000  0.00000000  0.74300887  1
  Ni  Ni4  1  0.00000000  0.50000000  0.25699113  1
  Ni  Ni5  1  -0.00000000  0.50000000  0.74300887  1
loop_
_geom_bond_atom_site_label_1
_geom_bond_atom_site_label_2
_geom_bond_distance
_geom_bond_site_symmetry_2
Al0 Ni0 2.472654 1_455
Al0 Ni0 2.472654 1_555
Al0 Ni0 2.472654 1_445
Al0 Ni0 2.472654 1_545
Al0 Ni3 2.505096 1_454
Al0 Ni5 2.505096 1_554
Al0 Ni5 2.505096 1_544
Al0 Ni3 2.505096 1_554
Al0 Ni4 2.505096 1_555
Al0 Ni4 2.505096 1_545
Al0 Ni2 2.505096 1_455
Al0 Ni2 2.505096 1_555
Ni0 Ni5 2.505096 1_654
Ni0 Ni3 2.505096 1_564
Ni0 Ni5 2.505096 1_554
Ni0 Ni3 2.505096 1_554
Ni0 Ni4 2.505096 1_555
Ni0 Ni2 2.505096 1_555
Ni0 Ni4 2.505096 1_655
Ni0 Ni2 2.505096 1_565
Ni1 Ni2 2.436147 1_555
Ni1 Ni4 2.436147 1_655
Ni1 Ni2 2.436147 1_565
Ni1 Ni4 2.436147 1_555
Ni1 Ni3 2.436147 1_555
Ni1 Ni5 2.436147 1_655
Ni1 Ni3 2.436147 1_565
Ni1 Ni5 2.436147 1_555
Ni1 Si0 2.472654 1_665
Ni1 Si0 2.472654 1_565
Ni1 Si0 2.472654 1_555
Ni1 Si0 2.472654 1_655
Ni2 Si0 2.436147 1_655
Ni2 Si0 2.436147 1_555
Ni2 Ni4 2.472654 1_545
Ni2 Ni4 2.472654 1_555
Ni2 Ni4 2.472654 1_655
Ni2 Ni4 2.472654 1_645
Ni3 Si0 2.436147 1_655
Ni3 Si0 2.436147 1_555
Ni3 Ni5 2.472654 1_555
Ni3 Ni5 2.472654 1_645
Ni3 Ni5 2.472654 1_545
Ni3 Ni5 2.472654 1_655
Ni4 Si0 2.436147 1_565
Ni4 Si0 2.436147 1_555
Ni5 Si0 2.436147 1_565
Ni5 Si0 2.436147 1_555
