# generated using pymatgen
data_Al2ZnSe4
_symmetry_space_group_name_H-M   'P 1'
_cell_length_a   3.86988600
_cell_length_b   6.51716800
_cell_length_c   6.98723556
_cell_angle_alpha   89.66905177
_cell_angle_beta   90.00000000
_cell_angle_gamma   90.00000000
_symmetry_Int_Tables_number   1
_chemical_formula_structural   Al2ZnSe4
_chemical_formula_sum   'Al2 Zn1 Se4'
_cell_volume   176.22001262
_cell_formula_units_Z   1
loop_
 _symmetry_equiv_pos_site_id
 _symmetry_equiv_pos_as_xyz
  1  'x, y, z'
loop_
 _atom_site_type_symbol
 _atom_site_label
 _atom_site_symmetry_multiplicity
 _atom_site_fract_x
 _atom_site_fract_y
 _atom_site_fract_z
 _atom_site_occupancy
  Al  Al0  1  0.50000000  0.52111500  0.16976000  1
  Al  Al1  1  0.50000000  0.97158500  0.84872800  1
  Zn  Zn0  1  0.00000000  0.51123900  0.65593800  1
  Se  Se0  1  0.00000000  0.89044100  0.64960300  1
  Se  Se1  1  0.50000000  0.87947200  0.17039600  1
  Se  Se2  1  0.50000000  0.36268800  0.84329200  1
  Se  Se3  1  0.00000000  0.36345900  0.32893400  1
loop_
_geom_bond_atom_site_label_1
_geom_bond_atom_site_label_2
_geom_bond_distance
_geom_bond_site_symmetry_2
Al0 Se1 2.335503 1_555
Al0 Se3 2.454273 1_555
Al0 Se3 2.454273 1_655
Al0 Se2 2.509325 1_554
Al1 Se1 2.323007 1_556
Al1 Se0 2.442943 1_555
Al1 Se0 2.442943 1_655
Al1 Se2 2.548948 1_565
Se0 Zn0 2.471464 1_555
Se2 Zn0 2.525936 1_655
Se2 Zn0 2.525936 1_555
Se3 Zn0 2.484664 1_555
