# generated using pymatgen
data_Sr8Co3N8
_symmetry_space_group_name_H-M   'P 1'
_cell_length_a   9.73236097
_cell_length_b   9.73236097
_cell_length_c   7.46021313
_cell_angle_alpha   74.80167635
_cell_angle_beta   74.80167635
_cell_angle_gamma   31.83507668
_symmetry_Int_Tables_number   1
_chemical_formula_structural   Sr8Co3N8
_chemical_formula_sum   'Sr8 Co3 N8'
_cell_volume   358.60902929
_cell_formula_units_Z   1
loop_
 _symmetry_equiv_pos_site_id
 _symmetry_equiv_pos_as_xyz
  1  'x, y, z'
loop_
 _atom_site_type_symbol
 _atom_site_label
 _atom_site_symmetry_multiplicity
 _atom_site_fract_x
 _atom_site_fract_y
 _atom_site_fract_z
 _atom_site_occupancy
  Sr  Sr0  1  0.97046600  0.97046600  0.26455200  1
  Sr  Sr1  1  0.02953400  0.02953400  0.73544800  1
  Sr  Sr2  1  0.66699100  0.66699100  0.52714700  1
  Sr  Sr3  1  0.33300900  0.33300900  0.47285300  1
  Sr  Sr4  1  0.59578500  0.59578500  0.04048700  1
  Sr  Sr5  1  0.40421500  0.40421500  0.95951300  1
  Sr  Sr6  1  0.20037300  0.20037300  0.19008500  1
  Sr  Sr7  1  0.79962700  0.79962700  0.80991500  1
  Co  Co0  1  0.50000000  0.50000000  0.50000000  1
  Co  Co1  1  0.81319700  0.81319700  0.20586000  1
  Co  Co2  1  0.18680300  0.18680300  0.79414000  1
  N  N0  1  0.89369800  0.89369800  0.01148900  1
  N  N1  1  0.10630200  0.10630200  0.98851100  1
  N  N2  1  0.82291800  0.82291800  0.43183300  1
  N  N3  1  0.17708200  0.17708200  0.56816700  1
  N  N4  1  0.72426300  0.72426300  0.16687700  1
  N  N5  1  0.27573700  0.27573700  0.83312300  1
  N  N6  1  0.47420300  0.47420300  0.28521800  1
  N  N7  1  0.52579700  0.52579700  0.71478200  1
loop_
_geom_bond_atom_site_label_1
_geom_bond_atom_site_label_2
_geom_bond_distance
_geom_bond_site_symmetry_2
Co0 N7 1.795120 1_555
Co0 N6 1.795120 1_555
Co1 N2 1.744220 1_555
Co1 N4 1.766287 1_555
Co1 N0 1.783792 1_555
Co2 N3 1.744220 1_555
Co2 N5 1.766287 1_555
Co2 N1 1.783792 1_555
N0 Sr7 2.608779 1_554
N0 Sr0 2.666122 1_555
N0 Sr5 2.696622 1_654
N0 Sr5 2.696622 1_564
N0 Sr1 2.801951 1_664
N1 Sr6 2.608779 1_556
N1 Sr1 2.666122 1_555
N1 Sr4 2.696622 1_456
N1 Sr4 2.696622 1_546
N1 Sr0 2.801951 1_446
N2 Sr3 2.699097 1_565
N2 Sr3 2.699097 1_655
N2 Sr0 2.702970 1_555
N2 Sr7 2.734089 1_555
N2 Sr2 2.809428 1_555
N3 Sr2 2.699097 1_455
N3 Sr2 2.699097 1_545
N3 Sr1 2.702970 1_555
N3 Sr6 2.734089 1_555
N3 Sr3 2.809428 1_555
N4 Sr2 2.608061 1_555
N4 Sr7 2.652063 1_554
N4 Sr6 2.704074 1_655
N4 Sr6 2.704074 1_565
N4 Sr4 2.812285 1_555
N5 Sr3 2.608061 1_555
N5 Sr6 2.652063 1_556
N5 Sr7 2.704074 1_455
N5 Sr7 2.704074 1_545
N5 Sr5 2.812285 1_555
N6 Sr4 2.499449 1_555
N6 Sr3 2.631992 1_555
N6 Sr0 2.675598 1_545
N6 Sr0 2.675598 1_455
N6 Sr5 3.058744 1_554
N7 Sr5 2.499449 1_555
N7 Sr2 2.631992 1_555
N7 Sr1 2.675598 1_655
N7 Sr1 2.675598 1_565
N7 Sr4 3.058744 1_556
