# generated using pymatgen
data_BaMn9V6O26
_symmetry_space_group_name_H-M   'P 1'
_cell_length_a   12.95174075
_cell_length_b   12.95174075
_cell_length_c   12.95174075
_cell_angle_alpha   90.00000000
_cell_angle_beta   90.00000000
_cell_angle_gamma   90.00000000
_symmetry_Int_Tables_number   1
_chemical_formula_structural   BaMn9V6O26
_chemical_formula_sum   'Ba4 Mn36 V24 O104'
_cell_volume   2172.62327711
_cell_formula_units_Z   4
loop_
 _symmetry_equiv_pos_site_id
 _symmetry_equiv_pos_as_xyz
  1  'x, y, z'
loop_
 _atom_site_type_symbol
 _atom_site_label
 _atom_site_symmetry_multiplicity
 _atom_site_fract_x
 _atom_site_fract_y
 _atom_site_fract_z
 _atom_site_occupancy
  Ba  Ba0  1  -0.00000000  0.50000000  0.50000000  1
  Ba  Ba1  1  -0.00000000  0.00000000  0.00000000  1
  Ba  Ba2  1  0.50000000  0.50000000  0.00000000  1
  Ba  Ba3  1  0.50000000  0.00000000  0.50000000  1
  Mn  Mn0  1  0.32120558  0.82120558  0.67879442  1
  Mn  Mn1  1  0.67879442  0.32120558  0.82120558  1
  Mn  Mn2  1  0.17879442  0.17879442  0.17879442  1
  Mn  Mn3  1  0.82120558  0.67879442  0.32120558  1
  Mn  Mn4  1  0.67879442  0.17879442  0.32120558  1
  Mn  Mn5  1  0.32120558  0.67879442  0.17879442  1
  Mn  Mn6  1  0.82120558  0.82120558  0.82120558  1
  Mn  Mn7  1  0.17879442  0.32120558  0.67879442  1
  Mn  Mn8  1  0.50000000  0.00000000  0.00000000  1
  Mn  Mn9  1  0.50000000  0.50000000  0.50000000  1
  Mn  Mn10  1  -0.00000000  0.00000000  0.50000000  1
  Mn  Mn11  1  -0.00000000  0.50000000  0.00000000  1
  Mn  Mn12  1  0.30912556  0.00080241  0.83960190  1
  Mn  Mn13  1  0.69087444  0.50080241  0.66039810  1
  Mn  Mn14  1  0.19087444  0.99919759  0.33960190  1
  Mn  Mn15  1  0.80912556  0.49919759  0.16039810  1
  Mn  Mn16  1  0.83960190  0.30912556  0.00080241  1
  Mn  Mn17  1  0.66039810  0.69087444  0.50080241  1
  Mn  Mn18  1  0.33960190  0.19087444  0.99919759  1
  Mn  Mn19  1  0.16039810  0.80912556  0.49919759  1
  Mn  Mn20  1  0.00080241  0.83960190  0.30912556  1
  Mn  Mn21  1  0.50080241  0.66039810  0.69087444  1
  Mn  Mn22  1  0.99919759  0.33960190  0.19087444  1
  Mn  Mn23  1  0.49919759  0.16039810  0.80912556  1
  Mn  Mn24  1  0.69087444  0.99919759  0.16039810  1
  Mn  Mn25  1  0.30912556  0.49919759  0.33960190  1
  Mn  Mn26  1  0.80912556  0.00080241  0.66039810  1
  Mn  Mn27  1  0.19087444  0.50080241  0.83960190  1
  Mn  Mn28  1  0.16039810  0.69087444  0.99919759  1
  Mn  Mn29  1  0.33960190  0.30912556  0.49919759  1
  Mn  Mn30  1  0.66039810  0.80912556  0.00080241  1
  Mn  Mn31  1  0.83960190  0.19087444  0.50080241  1
  Mn  Mn32  1  0.99919759  0.16039810  0.69087444  1
  Mn  Mn33  1  0.49919759  0.33960190  0.30912556  1
  Mn  Mn34  1  0.00080241  0.66039810  0.80912556  1
  Mn  Mn35  1  0.50080241  0.83960190  0.19087444  1
  V  V0  1  0.07491578  0.90606155  0.74520043  1
  V  V1  1  0.92508422  0.40606155  0.75479957  1
  V  V2  1  0.42508422  0.09393845  0.24520043  1
  V  V3  1  0.57491578  0.59393845  0.25479957  1
  V  V4  1  0.74520043  0.07491578  0.90606155  1
  V  V5  1  0.75479957  0.92508422  0.40606155  1
  V  V6  1  0.24520043  0.42508422  0.09393845  1
  V  V7  1  0.25479957  0.57491578  0.59393845  1
  V  V8  1  0.90606155  0.74520043  0.07491578  1
  V  V9  1  0.40606155  0.75479957  0.92508422  1
  V  V10  1  0.09393845  0.24520043  0.42508422  1
  V  V11  1  0.59393845  0.25479957  0.57491578  1
  V  V12  1  0.92508422  0.09393845  0.25479957  1
  V  V13  1  0.07491578  0.59393845  0.24520043  1
  V  V14  1  0.57491578  0.90606155  0.75479957  1
  V  V15  1  0.42508422  0.40606155  0.74520043  1
  V  V16  1  0.25479957  0.92508422  0.09393845  1
  V  V17  1  0.24520043  0.07491578  0.59393845  1
  V  V18  1  0.75479957  0.57491578  0.90606155  1
  V  V19  1  0.74520043  0.42508422  0.40606155  1
  V  V20  1  0.09393845  0.25479957  0.92508422  1
  V  V21  1  0.59393845  0.24520043  0.07491578  1
  V  V22  1  0.90606155  0.75479957  0.57491578  1
  V  V23  1  0.40606155  0.74520043  0.42508422  1
  O  O0  1  0.14527489  0.97833114  0.83021487  1
  O  O1  1  0.85472511  0.47833114  0.66978513  1
  O  O2  1  0.35472511  0.02166886  0.33021487  1
  O  O3  1  0.64527489  0.52166886  0.16978513  1
  O  O4  1  0.83021487  0.14527489  0.97833114  1
  O  O5  1  0.66978513  0.85472511  0.47833114  1
  O  O6  1  0.33021487  0.35472511  0.02166886  1
  O  O7  1  0.16978513  0.64527489  0.52166886  1
  O  O8  1  0.97833114  0.83021487  0.14527489  1
  O  O9  1  0.47833114  0.66978513  0.85472511  1
  O  O10  1  0.02166886  0.33021487  0.35472511  1
  O  O11  1  0.52166886  0.16978513  0.64527489  1
  O  O12  1  0.85472511  0.02166886  0.16978513  1
  O  O13  1  0.14527489  0.52166886  0.33021487  1
  O  O14  1  0.64527489  0.97833114  0.66978513  1
  O  O15  1  0.35472511  0.47833114  0.83021487  1
  O  O16  1  0.16978513  0.85472511  0.02166886  1
  O  O17  1  0.33021487  0.14527489  0.52166886  1
  O  O18  1  0.66978513  0.64527489  0.97833114  1
  O  O19  1  0.83021487  0.35472511  0.47833114  1
  O  O20  1  0.02166886  0.16978513  0.85472511  1
  O  O21  1  0.52166886  0.33021487  0.14527489  1
  O  O22  1  0.97833114  0.66978513  0.64527489  1
  O  O23  1  0.47833114  0.83021487  0.35472511  1
  O  O24  1  0.32020005  0.99201426  0.67295293  1
  O  O25  1  0.67979995  0.49201426  0.82704707  1
  O  O26  1  0.17979995  0.00798574  0.17295293  1
  O  O27  1  0.82020005  0.50798574  0.32704707  1
  O  O28  1  0.67295293  0.32020005  0.99201426  1
  O  O29  1  0.82704707  0.67979995  0.49201426  1
  O  O30  1  0.17295293  0.17979995  0.00798574  1
  O  O31  1  0.32704707  0.82020005  0.50798574  1
  O  O32  1  0.99201426  0.67295293  0.32020005  1
  O  O33  1  0.49201426  0.82704707  0.67979995  1
  O  O34  1  0.00798574  0.17295293  0.17979995  1
  O  O35  1  0.50798574  0.32704707  0.82020005  1
  O  O36  1  0.67979995  0.00798574  0.32704707  1
  O  O37  1  0.32020005  0.50798574  0.17295293  1
  O  O38  1  0.82020005  0.99201426  0.82704707  1
  O  O39  1  0.17979995  0.49201426  0.67295293  1
  O  O40  1  0.32704707  0.67979995  0.00798574  1
  O  O41  1  0.17295293  0.32020005  0.50798574  1
  O  O42  1  0.82704707  0.82020005  0.99201426  1
  O  O43  1  0.67295293  0.17979995  0.49201426  1
  O  O44  1  0.00798574  0.32704707  0.67979995  1
  O  O45  1  0.50798574  0.17295293  0.32020005  1
  O  O46  1  0.99201426  0.82704707  0.82020005  1
  O  O47  1  0.49201426  0.67295293  0.17979995  1
  O  O48  1  0.35132857  0.14867143  0.85132857  1
  O  O49  1  0.64867143  0.64867143  0.64867143  1
  O  O50  1  0.14867143  0.85132857  0.35132857  1
  O  O51  1  0.85132857  0.35132857  0.14867143  1
  O  O52  1  0.64867143  0.85132857  0.14867143  1
  O  O53  1  0.35132857  0.35132857  0.35132857  1
  O  O54  1  0.85132857  0.14867143  0.64867143  1
  O  O55  1  0.14867143  0.64867143  0.85132857  1
  O  O56  1  0.49933213  0.99394747  0.83096568  1
  O  O57  1  0.50066787  0.49394747  0.66903432  1
  O  O58  1  0.00066787  0.00605253  0.33096568  1
  O  O59  1  0.99933213  0.50605253  0.16903432  1
  O  O60  1  0.83096568  0.49933213  0.99394747  1
  O  O61  1  0.66903432  0.50066787  0.49394747  1
  O  O62  1  0.33096568  0.00066787  0.00605253  1
  O  O63  1  0.16903432  0.99933213  0.50605253  1
  O  O64  1  0.99394747  0.83096568  0.49933213  1
  O  O65  1  0.49394747  0.66903432  0.50066787  1
  O  O66  1  0.00605253  0.33096568  0.00066787  1
  O  O67  1  0.50605253  0.16903432  0.99933213  1
  O  O68  1  0.50066787  0.00605253  0.16903432  1
  O  O69  1  0.49933213  0.50605253  0.33096568  1
  O  O70  1  0.99933213  0.99394747  0.66903432  1
  O  O71  1  0.00066787  0.49394747  0.83096568  1
  O  O72  1  0.16903432  0.50066787  0.00605253  1
  O  O73  1  0.33096568  0.49933213  0.50605253  1
  O  O74  1  0.66903432  0.99933213  0.99394747  1
  O  O75  1  0.83096568  0.00066787  0.49394747  1
  O  O76  1  0.00605253  0.16903432  0.50066787  1
  O  O77  1  0.50605253  0.33096568  0.49933213  1
  O  O78  1  0.99394747  0.66903432  0.99933213  1
  O  O79  1  0.49394747  0.83096568  0.00066787  1
  O  O80  1  0.33429843  0.83590143  0.84359845  1
  O  O81  1  0.66570157  0.33590143  0.65640155  1
  O  O82  1  0.16570157  0.16409857  0.34359845  1
  O  O83  1  0.83429843  0.66409857  0.15640155  1
  O  O84  1  0.84359845  0.33429843  0.83590143  1
  O  O85  1  0.65640155  0.66570157  0.33590143  1
  O  O86  1  0.34359845  0.16570157  0.16409857  1
  O  O87  1  0.15640155  0.83429843  0.66409857  1
  O  O88  1  0.83590143  0.84359845  0.33429843  1
  O  O89  1  0.33590143  0.65640155  0.66570157  1
  O  O90  1  0.16409857  0.34359845  0.16570157  1
  O  O91  1  0.66409857  0.15640155  0.83429843  1
  O  O92  1  0.66570157  0.16409857  0.15640155  1
  O  O93  1  0.33429843  0.66409857  0.34359845  1
  O  O94  1  0.83429843  0.83590143  0.65640155  1
  O  O95  1  0.16570157  0.33590143  0.84359845  1
  O  O96  1  0.15640155  0.66570157  0.16409857  1
  O  O97  1  0.34359845  0.33429843  0.66409857  1
  O  O98  1  0.65640155  0.83429843  0.83590143  1
  O  O99  1  0.84359845  0.16570157  0.33590143  1
  O  O100  1  0.16409857  0.15640155  0.66570157  1
  O  O101  1  0.66409857  0.34359845  0.33429843  1
  O  O102  1  0.83590143  0.65640155  0.83429843  1
  O  O103  1  0.33590143  0.84359845  0.16570157  1
loop_
_geom_bond_atom_site_label_1
_geom_bond_atom_site_label_2
_geom_bond_distance
_geom_bond_site_symmetry_2
Ba0 O19 2.907697 1_455
Ba0 O13 2.907697 1_555
Ba0 O1 2.907697 1_455
Ba0 O10 2.907697 1_555
Ba0 O7 2.907697 1_555
Ba0 O22 2.907697 1_455
Ba0 O27 3.232867 1_455
Ba0 O41 3.232867 1_555
Ba0 O39 3.232867 1_555
Ba0 O32 3.232867 1_455
Ba0 O29 3.232867 1_455
Ba0 O44 3.232867 1_555
Ba1 O4 2.907697 1_454
Ba1 O8 2.907697 1_445
Ba1 O20 2.907697 1_554
Ba1 O12 2.907697 1_455
Ba1 O0 2.907697 1_544
Ba1 O16 2.907697 1_545
Ba1 O38 3.232867 1_444
Ba1 O42 3.232867 1_444
Ba1 O46 3.232867 1_444
Ba1 O34 3.232867 1_555
Ba1 O26 3.232867 1_555
Ba1 O30 3.232867 1_555
Ba2 O6 2.907697 1_555
Ba2 O15 2.907697 1_554
Ba2 O21 2.907697 1_555
Ba2 O9 2.907697 1_554
Ba2 O3 2.907697 1_555
Ba2 O18 2.907697 1_554
Ba2 O35 3.232867 1_554
Ba2 O28 3.232867 1_554
Ba2 O40 3.232867 1_555
Ba2 O37 3.232867 1_555
Ba2 O25 3.232867 1_554
Ba2 O47 3.232867 1_555
Ba3 O2 2.907697 1_555
Ba3 O17 2.907697 1_555
Ba3 O23 2.907697 1_545
Ba3 O5 2.907697 1_545
Ba3 O11 2.907697 1_555
Ba3 O14 2.907697 1_545
Ba3 O31 3.232867 1_545
Ba3 O43 3.232867 1_555
Ba3 O33 3.232867 1_545
Ba3 O45 3.232867 1_555
Ba3 O36 3.232867 1_555
Ba3 O24 3.232867 1_545
Mn0 O80 2.149667 1_555
Mn0 O87 2.149667 1_555
Mn0 O89 2.149667 1_555
Mn0 O24 2.213601 1_555
Mn0 O31 2.213601 1_555
Mn0 O33 2.213601 1_555
Mn1 O81 2.149667 1_555
Mn1 O84 2.149667 1_555
Mn1 O91 2.149667 1_555
Mn1 O25 2.213601 1_555
Mn1 O28 2.213601 1_555
Mn1 O35 2.213601 1_555
Mn2 O82 2.149667 1_555
Mn2 O86 2.149667 1_555
Mn2 O90 2.149667 1_555
Mn2 O34 2.213601 1_555
Mn2 O26 2.213601 1_555
Mn2 O30 2.213601 1_555
Mn3 O83 2.149667 1_555
Mn3 O85 2.149667 1_555
Mn3 O88 2.149667 1_555
Mn3 O27 2.213601 1_555
Mn3 O32 2.213601 1_555
Mn3 O29 2.213601 1_555
Mn4 O101 2.149667 1_555
Mn4 O92 2.149667 1_555
Mn4 O99 2.149667 1_555
Mn4 O43 2.213601 1_555
Mn4 O36 2.213601 1_555
Mn4 O45 2.213601 1_555
Mn5 O103 2.149667 1_555
Mn5 O96 2.149667 1_555
Mn5 O93 2.149667 1_555
Mn5 O40 2.213601 1_555
Mn5 O37 2.213601 1_555
Mn5 O47 2.213601 1_555
Mn6 O98 2.149667 1_555
Mn6 O102 2.149667 1_555
Mn6 O94 2.149667 1_555
Mn6 O46 2.213601 1_555
Mn6 O38 2.213601 1_555
Mn6 O42 2.213601 1_555
Mn7 O95 2.149667 1_555
Mn7 O100 2.149667 1_555
Mn7 O97 2.149667 1_555
Mn7 O39 2.213601 1_555
Mn7 O44 2.213601 1_555
Mn7 O41 2.213601 1_555
Mn8 O56 2.190709 1_544
Mn8 O79 2.190709 1_545
Mn8 O74 2.190709 1_544
Mn8 O68 2.190709 1_555
Mn8 O62 2.190709 1_555
Mn8 O67 2.190709 1_554
Mn9 O57 2.190709 1_555
Mn9 O61 2.190709 1_555
Mn9 O65 2.190709 1_555
Mn9 O69 2.190709 1_555
Mn9 O77 2.190709 1_555
Mn9 O73 2.190709 1_555
Mn10 O64 2.190709 1_445
Mn10 O70 2.190709 1_445
Mn10 O75 2.190709 1_455
Mn10 O76 2.190709 1_555
Mn10 O58 2.190709 1_555
Mn10 O63 2.190709 1_545
Mn11 O71 2.190709 1_554
Mn11 O60 2.190709 1_454
Mn11 O78 2.190709 1_454
Mn11 O66 2.190709 1_555
Mn11 O59 2.190709 1_455
Mn11 O72 2.190709 1_555
Mn12 O48 1.997419 1_555
Mn12 O0 2.145463 1_545
Mn12 O80 2.161117 1_545
Mn12 O24 2.166147 1_545
Mn12 O62 2.174305 1_556
Mn12 O56 2.467642 1_545
Mn13 O49 1.997419 1_555
Mn13 O1 2.145463 1_555
Mn13 O81 2.161117 1_555
Mn13 O25 2.166147 1_555
Mn13 O61 2.174305 1_555
Mn13 O57 2.467642 1_555
Mn14 O50 1.997419 1_555
Mn14 O2 2.145463 1_565
Mn14 O82 2.161117 1_565
Mn14 O26 2.166147 1_565
Mn14 O63 2.174305 1_555
Mn14 O58 2.467642 1_565
Mn15 O51 1.997419 1_555
Mn15 O3 2.145463 1_555
Mn15 O83 2.161117 1_555
Mn15 O27 2.166147 1_555
Mn15 O60 2.174305 1_554
Mn15 O59 2.467642 1_555
Mn16 O51 1.997419 1_555
Mn16 O4 2.145463 1_554
Mn16 O84 2.161117 1_554
Mn16 O28 2.166147 1_554
Mn16 O66 2.174305 1_655
Mn16 O60 2.467642 1_554
Mn17 O49 1.997419 1_555
Mn17 O5 2.145463 1_555
Mn17 O85 2.161117 1_555
Mn17 O29 2.166147 1_555
Mn17 O65 2.174305 1_555
Mn17 O61 2.467642 1_555
Mn18 O48 1.997419 1_555
Mn18 O6 2.145463 1_556
Mn18 O86 2.161117 1_556
Mn18 O30 2.166147 1_556
Mn18 O67 2.174305 1_555
Mn18 O62 2.467642 1_556
Mn19 O50 1.997419 1_555
Mn19 O7 2.145463 1_555
Mn19 O87 2.161117 1_555
Mn19 O31 2.166147 1_555
Mn19 O64 2.174305 1_455
Mn19 O63 2.467642 1_555
Mn20 O50 1.997419 1_555
Mn20 O8 2.145463 1_455
Mn20 O88 2.161117 1_455
Mn20 O32 2.166147 1_455
Mn20 O58 2.174305 1_565
Mn20 O64 2.467642 1_455
Mn21 O49 1.997419 1_555
Mn21 O9 2.145463 1_555
Mn21 O89 2.161117 1_555
Mn21 O33 2.166147 1_555
Mn21 O57 2.174305 1_555
Mn21 O65 2.467642 1_555
Mn22 O51 1.997419 1_555
Mn22 O10 2.145463 1_655
Mn22 O90 2.161117 1_655
Mn22 O34 2.166147 1_655
Mn22 O59 2.174305 1_555
Mn22 O66 2.467642 1_655
Mn23 O48 1.997419 1_555
Mn23 O11 2.145463 1_555
Mn23 O91 2.161117 1_555
Mn23 O35 2.166147 1_555
Mn23 O56 2.174305 1_545
Mn23 O67 2.467642 1_555
Mn24 O52 1.997419 1_555
Mn24 O12 2.145463 1_565
Mn24 O92 2.161117 1_565
Mn24 O36 2.166147 1_565
Mn24 O74 2.174305 1_554
Mn24 O68 2.467642 1_565
Mn25 O53 1.997419 1_555
Mn25 O13 2.145463 1_555
Mn25 O93 2.161117 1_555
Mn25 O37 2.166147 1_555
Mn25 O73 2.174305 1_555
Mn25 O69 2.467642 1_555
Mn26 O54 1.997419 1_555
Mn26 O14 2.145463 1_545
Mn26 O94 2.161117 1_545
Mn26 O38 2.166147 1_545
Mn26 O75 2.174305 1_555
Mn26 O70 2.467642 1_545
Mn27 O55 1.997419 1_555
Mn27 O15 2.145463 1_555
Mn27 O95 2.161117 1_555
Mn27 O39 2.166147 1_555
Mn27 O72 2.174305 1_556
Mn27 O71 2.467642 1_555
Mn28 O55 1.997419 1_555
Mn28 O16 2.145463 1_556
Mn28 O96 2.161117 1_556
Mn28 O40 2.166147 1_556
Mn28 O78 2.174305 1_455
Mn28 O72 2.467642 1_556
Mn29 O53 1.997419 1_555
Mn29 O17 2.145463 1_555
Mn29 O97 2.161117 1_555
Mn29 O41 2.166147 1_555
Mn29 O77 2.174305 1_555
Mn29 O73 2.467642 1_555
Mn30 O52 1.997419 1_555
Mn30 O18 2.145463 1_554
Mn30 O98 2.161117 1_554
Mn30 O42 2.166147 1_554
Mn30 O79 2.174305 1_555
Mn30 O74 2.467642 1_554
Mn31 O54 1.997419 1_555
Mn31 O19 2.145463 1_555
Mn31 O99 2.161117 1_555
Mn31 O43 2.166147 1_555
Mn31 O76 2.174305 1_655
Mn31 O75 2.467642 1_555
Mn32 O54 1.997419 1_555
Mn32 O20 2.145463 1_655
Mn32 O100 2.161117 1_655
Mn32 O44 2.166147 1_655
Mn32 O70 2.174305 1_545
Mn32 O76 2.467642 1_655
Mn33 O53 1.997419 1_555
Mn33 O21 2.145463 1_555
Mn33 O101 2.161117 1_555
Mn33 O45 2.166147 1_555
Mn33 O69 2.174305 1_555
Mn33 O77 2.467642 1_555
Mn34 O55 1.997419 1_555
Mn34 O22 2.145463 1_455
Mn34 O102 2.161117 1_455
Mn34 O46 2.166147 1_455
Mn34 O71 2.174305 1_555
Mn34 O78 2.467642 1_455
Mn35 O52 1.997419 1_555
Mn35 O23 2.145463 1_555
Mn35 O103 2.161117 1_555
Mn35 O47 2.166147 1_555
Mn35 O68 2.174305 1_565
Mn35 O79 2.467642 1_555
O0 V0 1.708489 1_555
O1 V1 1.708489 1_555
O2 V2 1.708489 1_555
O3 V3 1.708489 1_555
O4 V4 1.708489 1_555
O5 V5 1.708489 1_555
O6 V6 1.708489 1_555
O7 V7 1.708489 1_555
O8 V8 1.708489 1_555
O9 V9 1.708489 1_555
O10 V10 1.708489 1_555
O11 V11 1.708489 1_555
O12 V12 1.708489 1_555
O13 V13 1.708489 1_555
O14 V14 1.708489 1_555
O15 V15 1.708489 1_555
O16 V16 1.708489 1_555
O17 V17 1.708489 1_555
O18 V18 1.708489 1_555
O19 V19 1.708489 1_555
O20 V20 1.708489 1_555
O21 V21 1.708489 1_555
O22 V22 1.708489 1_555
O23 V23 1.708489 1_555
O24 V17 1.773059 1_565
O25 V18 1.773059 1_555
O26 V16 1.773059 1_545
O27 V19 1.773059 1_555
O28 V21 1.773059 1_556
O29 V22 1.773059 1_555
O30 V20 1.773059 1_554
O31 V23 1.773059 1_555
O32 V13 1.773059 1_655
O33 V14 1.773059 1_555
O34 V12 1.773059 1_455
O35 V15 1.773059 1_555
O36 V5 1.773059 1_545
O37 V6 1.773059 1_555
O38 V4 1.773059 1_565
O39 V7 1.773059 1_555
O40 V9 1.773059 1_554
O41 V10 1.773059 1_555
O42 V8 1.773059 1_556
O43 V11 1.773059 1_555
O44 V1 1.773059 1_455
O45 V2 1.773059 1_555
O46 V0 1.773059 1_655
O47 V3 1.773059 1_555
O56 V14 1.796426 1_555
O57 V15 1.796426 1_555
O58 V12 1.796426 1_455
O59 V13 1.796426 1_655
O60 V18 1.796426 1_555
O61 V19 1.796426 1_555
O62 V16 1.796426 1_545
O63 V17 1.796426 1_565
O64 V22 1.796426 1_555
O65 V23 1.796426 1_555
O66 V20 1.796426 1_554
O67 V21 1.796426 1_556
O68 V2 1.796426 1_555
O69 V3 1.796426 1_555
O70 V0 1.796426 1_655
O71 V1 1.796426 1_455
O72 V6 1.796426 1_555
O73 V7 1.796426 1_555
O74 V4 1.796426 1_565
O75 V5 1.796426 1_545
O76 V10 1.796426 1_555
O77 V11 1.796426 1_555
O78 V8 1.796426 1_556
O79 V9 1.796426 1_554
O80 V9 1.755302 1_555
O81 V11 1.755302 1_555
O82 V10 1.755302 1_555
O83 V8 1.755302 1_555
O84 V1 1.755302 1_555
O85 V3 1.755302 1_555
O86 V2 1.755302 1_555
O87 V0 1.755302 1_555
O88 V5 1.755302 1_555
O89 V7 1.755302 1_555
O90 V6 1.755302 1_555
O91 V4 1.755302 1_555
O92 V21 1.755302 1_555
O93 V23 1.755302 1_555
O94 V22 1.755302 1_555
O95 V20 1.755302 1_555
O96 V13 1.755302 1_555
O97 V15 1.755302 1_555
O98 V14 1.755302 1_555
O99 V12 1.755302 1_555
O100 V17 1.755302 1_555
O101 V19 1.755302 1_555
O102 V18 1.755302 1_555
O103 V16 1.755302 1_555
