# generated using pymatgen
data_Tm(VFe5)2
_symmetry_space_group_name_H-M   'P 1'
_cell_length_a   4.69147700
_cell_length_b   6.41300674
_cell_length_c   6.41300674
_cell_angle_alpha   97.68154896
_cell_angle_beta   111.45548171
_cell_angle_gamma   68.54451829
_symmetry_Int_Tables_number   1
_chemical_formula_structural   Tm(VFe5)2
_chemical_formula_sum   'Tm1 V2 Fe10'
_cell_volume   167.12996627
_cell_formula_units_Z   1
loop_
 _symmetry_equiv_pos_site_id
 _symmetry_equiv_pos_as_xyz
  1  'x, y, z'
loop_
 _atom_site_type_symbol
 _atom_site_label
 _atom_site_symmetry_multiplicity
 _atom_site_fract_x
 _atom_site_fract_y
 _atom_site_fract_z
 _atom_site_occupancy
  Tm  Tm0  1  0.00000000  0.00000000  0.00000000  1
  V  V0  1  0.00000000  0.35735800  0.35735800  1
  V  V1  1  0.00000000  0.64264200  0.64264200  1
  Fe  Fe0  1  0.72667900  0.77332100  0.22667900  1
  Fe  Fe1  1  0.27332100  0.22667900  0.77332100  1
  Fe  Fe2  1  0.50000000  0.77923100  0.77923100  1
  Fe  Fe3  1  0.50000000  0.22076900  0.22076900  1
  Fe  Fe4  1  0.50000000  0.00000000  0.50000000  1
  Fe  Fe5  1  0.00000000  0.00000000  0.50000000  1
  Fe  Fe6  1  0.50000000  0.50000000  0.00000000  1
  Fe  Fe7  1  0.00000000  0.50000000  0.00000000  1
  Fe  Fe8  1  0.64046000  0.35954000  0.64046000  1
  Fe  Fe9  1  0.35954000  0.64046000  0.35954000  1
loop_
_geom_bond_atom_site_label_1
_geom_bond_atom_site_label_2
_geom_bond_distance
_geom_bond_site_symmetry_2
Tm0 V1 3.016634 1_544
Tm0 V0 3.016634 1_555
V0 V1 2.408222 1_555
Fe0 Fe4 2.422403 1_565
Fe0 Fe6 2.422403 1_555
Fe0 Fe7 2.422403 1_655
Fe0 Fe5 2.422403 1_665
Fe0 Fe9 2.599997 1_555
Fe0 Fe9 2.599997 1_655
Fe0 V0 2.602243 1_655
Fe0 V1 2.602243 1_655
Fe0 Fe2 2.670865 1_554
Fe0 Fe3 2.670865 1_565
Fe0 Tm0 3.027034 1_665
Fe0 Tm0 3.027034 1_565
Fe1 Fe6 2.422403 1_556
Fe1 Fe4 2.422403 1_555
Fe1 Fe5 2.422403 1_555
Fe1 Fe7 2.422403 1_556
Fe1 Fe8 2.599997 1_555
Fe1 Fe8 2.599997 1_455
Fe1 V0 2.602243 1_555
Fe1 V1 2.602243 1_555
Fe1 Fe3 2.670865 1_556
Fe1 Fe2 2.670865 1_545
Fe1 Tm0 3.027034 1_556
Fe1 Tm0 3.027034 1_656
Fe2 Fe4 2.426701 1_565
Fe2 Fe6 2.426701 1_556
Fe2 Fe7 2.426701 1_656
Fe2 Fe5 2.426701 1_565
Fe2 V1 2.613796 1_655
Fe2 V1 2.613796 1_555
Fe2 Fe9 2.638465 1_555
Fe2 Fe8 2.638465 1_555
Fe2 Tm0 2.995925 1_566
Fe2 Tm0 2.995925 1_666
Fe3 Fe4 2.426701 1_555
Fe3 Fe6 2.426701 1_555
Fe3 Fe5 2.426701 1_655
Fe3 Fe7 2.426701 1_555
Fe3 V0 2.613796 1_555
Fe3 V0 2.613796 1_655
Fe3 Fe9 2.638465 1_555
Fe3 Fe8 2.638465 1_555
Fe3 Tm0 2.995925 1_655
Fe3 Tm0 2.995925 1_555
Fe4 Fe5 2.345738 1_555
Fe4 Fe5 2.345738 1_655
Fe4 V1 2.578624 1_645
Fe4 V0 2.578624 1_555
Fe4 Fe9 2.585359 1_545
Fe4 Fe8 2.585359 1_555
Fe4 Tm0 3.206504 1_656
Fe4 Tm0 3.206504 1_555
Fe5 V1 2.578624 1_545
Fe5 V0 2.578624 1_555
Fe5 Fe9 2.585359 1_545
Fe5 Fe8 2.585359 1_455
Fe5 Tm0 3.206503 1_555
Fe5 Tm0 3.206503 1_556
Fe6 Fe7 2.345738 1_655
Fe6 Fe7 2.345738 1_555
Fe6 V1 2.578624 1_554
Fe6 V0 2.578624 1_655
Fe6 Fe9 2.585359 1_555
Fe6 Fe8 2.585359 1_554
Fe6 Tm0 3.206504 1_565
Fe6 Tm0 3.206504 1_655
Fe7 V1 2.578624 1_554
Fe7 V0 2.578624 1_555
Fe7 Fe8 2.585359 1_454
Fe7 Fe9 2.585359 1_555
Fe7 Tm0 3.206503 1_555
Fe7 Tm0 3.206503 1_565
Fe8 Fe9 2.371037 1_555
Fe8 V1 2.890990 1_655
Fe8 V0 2.890990 1_655
Fe8 V0 2.890991 1_555
Fe8 V1 2.890991 1_555
Fe8 Tm0 3.034610 1_656
Fe9 V1 2.890990 1_555
Fe9 V0 2.890990 1_555
Fe9 V1 2.890991 1_655
Fe9 V0 2.890991 1_655
Fe9 Tm0 3.034610 1_565
