# generated using pymatgen
data_Ba2CaEu2Ti3(CuO7)2
_symmetry_space_group_name_H-M   'P 1'
_cell_length_a   3.91348900
_cell_length_b   3.91348900
_cell_length_c   19.90957300
_cell_angle_alpha   90.00000000
_cell_angle_beta   90.00000000
_cell_angle_gamma   90.00000000
_symmetry_Int_Tables_number   1
_chemical_formula_structural   Ba2CaEu2Ti3(CuO7)2
_chemical_formula_sum   'Ba2 Ca1 Eu2 Ti3 Cu2 O14'
_cell_volume   304.92299773
_cell_formula_units_Z   1
loop_
 _symmetry_equiv_pos_site_id
 _symmetry_equiv_pos_as_xyz
  1  'x, y, z'
loop_
 _atom_site_type_symbol
 _atom_site_label
 _atom_site_symmetry_multiplicity
 _atom_site_fract_x
 _atom_site_fract_y
 _atom_site_fract_z
 _atom_site_occupancy
  Ba  Ba0  1  0.50000000  0.50000000  0.80832500  1
  Ba  Ba1  1  0.50000000  0.50000000  0.18940100  1
  Ca  Ca0  1  0.50000000  0.50000000  0.60666700  1
  Eu  Eu0  1  0.50000000  0.50000000  0.99963700  1
  Eu  Eu1  1  0.50000000  0.50000000  0.40151400  1
  Ti  Ti0  1  0.00000000  0.00000000  0.69978700  1
  Ti  Ti1  1  0.00000000  0.00000000  0.30038200  1
  Ti  Ti2  1  0.00000000  0.00000000  0.50272800  1
  Cu  Cu0  1  0.00000000  0.00000000  0.91215300  1
  Cu  Cu1  1  0.00000000  0.00000000  0.08704300  1
  O  O0  1  0.50000000  0.00000000  0.92394300  1
  O  O1  1  0.00000000  0.50000000  0.92394300  1
  O  O2  1  0.50000000  0.00000000  0.07630200  1
  O  O3  1  0.00000000  0.50000000  0.07630200  1
  O  O4  1  0.00000000  0.00000000  0.79440600  1
  O  O5  1  0.00000000  0.00000000  0.20570100  1
  O  O6  1  0.00000000  0.00000000  0.59614000  1
  O  O7  1  0.00000000  0.00000000  0.40221200  1
  O  O8  1  0.50000000  0.00000000  0.69126300  1
  O  O9  1  0.00000000  0.50000000  0.69126300  1
  O  O10  1  0.50000000  0.00000000  0.30891100  1
  O  O11  1  0.00000000  0.50000000  0.30891100  1
  O  O12  1  0.50000000  0.00000000  0.49653200  1
  O  O13  1  0.00000000  0.50000000  0.49653200  1
loop_
_geom_bond_atom_site_label_1
_geom_bond_atom_site_label_2
_geom_bond_distance
_geom_bond_site_symmetry_2
Ba0 O4 2.781096 1_655
Ba0 O4 2.781096 1_555
Ba0 O4 2.781096 1_565
Ba0 O4 2.781096 1_665
Ba0 O0 3.021194 1_555
Ba0 O1 3.021194 1_555
Ba0 O1 3.021194 1_655
Ba0 O0 3.021194 1_565
Ba0 O8 3.043156 1_565
Ba0 O9 3.043156 1_655
Ba0 O8 3.043156 1_555
Ba0 O9 3.043156 1_555
Ba1 O5 2.786219 1_555
Ba1 O5 2.786219 1_655
Ba1 O5 2.786219 1_665
Ba1 O5 2.786219 1_565
Ba1 O3 2.983159 1_555
Ba1 O2 2.983159 1_555
Ba1 O2 2.983159 1_565
Ba1 O3 2.983159 1_655
Ba1 O10 3.080643 1_555
Ba1 O10 3.080643 1_565
Ba1 O11 3.080643 1_555
Ba1 O11 3.080643 1_655
Ca0 O8 2.581785 1_565
Ca0 O8 2.581785 1_555
Ca0 O9 2.581785 1_655
Ca0 O9 2.581785 1_555
Ca0 O6 2.775180 1_655
Ca0 O6 2.775180 1_665
Ca0 O6 2.775180 1_555
Ca0 O6 2.775180 1_565
Ca0 O13 2.938871 1_555
Ca0 O12 2.938871 1_565
Ca0 O13 2.938871 1_655
Ca0 O12 2.938871 1_555
Eu0 O0 2.469819 1_555
Eu0 O1 2.469819 1_555
Eu0 O1 2.469819 1_655
Eu0 O0 2.469819 1_565
Eu0 O2 2.481662 1_556
Eu0 O3 2.481662 1_556
Eu0 O3 2.481662 1_656
Eu0 O2 2.481662 1_566
Eu1 O10 2.688499 1_565
Eu1 O11 2.688499 1_555
Eu1 O11 2.688499 1_655
Eu1 O10 2.688499 1_555
Eu1 O12 2.721697 1_565
Eu1 O13 2.721697 1_655
Eu1 O12 2.721697 1_555
Eu1 O13 2.721697 1_555
Eu1 O7 2.767290 1_655
Eu1 O7 2.767290 1_555
Eu1 O7 2.767290 1_565
Eu1 O7 2.767290 1_665
Cu0 O0 1.970774 1_555
Cu0 O1 1.970774 1_555
Cu0 O1 1.970774 1_545
Cu0 O0 1.970774 1_455
Cu0 O4 2.344292 1_555
Cu1 O3 1.968395 1_545
Cu1 O2 1.968395 1_455
Cu1 O2 1.968395 1_555
Cu1 O3 1.968395 1_555
Cu1 O5 2.362430 1_555
O4 Ti0 1.883824 1_555
O5 Ti1 1.885058 1_555
O6 Ti2 1.859793 1_555
O6 Ti0 2.063568 1_555
O7 Ti2 2.001231 1_555
O7 Ti1 2.027392 1_555
O8 Ti0 1.964090 1_655
O8 Ti0 1.964090 1_555
O9 Ti0 1.964090 1_565
O9 Ti0 1.964090 1_555
O10 Ti1 1.964099 1_555
O10 Ti1 1.964099 1_655
O11 Ti1 1.964099 1_555
O11 Ti1 1.964099 1_565
O12 Ti2 1.960629 1_655
O12 Ti2 1.960629 1_555
O13 Ti2 1.960629 1_565
O13 Ti2 1.960629 1_555
