# generated using pymatgen
data_Zn(SbO2)2
_symmetry_space_group_name_H-M   'P 1'
_cell_length_a   6.68492387
_cell_length_b   6.68492387
_cell_length_c   6.68492387
_cell_angle_alpha   60.00000000
_cell_angle_beta   60.00000000
_cell_angle_gamma   60.00000000
_symmetry_Int_Tables_number   1
_chemical_formula_structural   Zn(SbO2)2
_chemical_formula_sum   'Zn2 Sb4 O8'
_cell_volume   211.23914420
_cell_formula_units_Z   2
loop_
 _symmetry_equiv_pos_site_id
 _symmetry_equiv_pos_as_xyz
  1  'x, y, z'
loop_
 _atom_site_type_symbol
 _atom_site_label
 _atom_site_symmetry_multiplicity
 _atom_site_fract_x
 _atom_site_fract_y
 _atom_site_fract_z
 _atom_site_occupancy
  Zn  Zn0  1  0.75000000  0.75000000  0.75000000  1
  Zn  Zn1  1  0.50000000  0.50000000  0.50000000  1
  Sb  Sb0  1  0.12500000  0.12500000  0.62500000  1
  Sb  Sb1  1  0.62500000  0.12500000  0.12500000  1
  Sb  Sb2  1  0.12500000  0.12500000  0.12500000  1
  Sb  Sb3  1  0.12500000  0.62500000  0.12500000  1
  O  O0  1  0.87763100  0.37412300  0.37412300  1
  O  O1  1  0.37412300  0.37412300  0.87763100  1
  O  O2  1  0.37412300  0.37412300  0.37412300  1
  O  O3  1  0.37236900  0.87587700  0.87587700  1
  O  O4  1  0.87587700  0.37236900  0.87587700  1
  O  O5  1  0.87587700  0.87587700  0.37236900  1
  O  O6  1  0.37412300  0.87763100  0.37412300  1
  O  O7  1  0.87587700  0.87587700  0.87587700  1
loop_
_geom_bond_atom_site_label_1
_geom_bond_atom_site_label_2
_geom_bond_distance
_geom_bond_site_symmetry_2
O0 Zn1 2.061192 1_555
O0 Sb2 2.355216 1_655
O0 Sb3 2.355216 1_655
O0 Sb0 2.355216 1_655
O1 Zn1 2.061192 1_555
O1 Sb2 2.355216 1_556
O1 Sb1 2.355216 1_556
O1 Sb3 2.355216 1_556
O2 Zn1 2.061192 1_555
O2 Sb1 2.355216 1_555
O2 Sb0 2.355216 1_555
O2 Sb3 2.355216 1_555
O3 Zn0 2.061192 1_555
O3 Sb3 2.355216 1_556
O3 Sb0 2.355216 1_565
O3 Sb2 2.355216 1_566
O4 Zn0 2.061192 1_555
O4 Sb1 2.355216 1_556
O4 Sb0 2.355216 1_655
O4 Sb2 2.355216 1_656
O5 Zn0 2.061192 1_555
O5 Sb3 2.355216 1_655
O5 Sb1 2.355216 1_565
O5 Sb2 2.355216 1_665
O6 Zn1 2.061192 1_555
O6 Sb2 2.355216 1_565
O6 Sb0 2.355216 1_565
O6 Sb1 2.355216 1_565
O7 Zn0 2.061192 1_555
O7 Sb1 2.355216 1_566
O7 Sb3 2.355216 1_656
O7 Sb0 2.355216 1_665
