# generated using pymatgen
data_Ca(C4N3)2
_symmetry_space_group_name_H-M   'P 1'
_cell_length_a   5.68887300
_cell_length_b   8.06940800
_cell_length_c   11.26608400
_cell_angle_alpha   90.00000000
_cell_angle_beta   90.00000000
_cell_angle_gamma   90.00000000
_symmetry_Int_Tables_number   1
_chemical_formula_structural   Ca(C4N3)2
_chemical_formula_sum   'Ca2 C16 N12'
_cell_volume   517.17901908
_cell_formula_units_Z   2
loop_
 _symmetry_equiv_pos_site_id
 _symmetry_equiv_pos_as_xyz
  1  'x, y, z'
loop_
 _atom_site_type_symbol
 _atom_site_label
 _atom_site_symmetry_multiplicity
 _atom_site_fract_x
 _atom_site_fract_y
 _atom_site_fract_z
 _atom_site_occupancy
  Ca  Ca0  1  0.00000000  0.50000000  0.50000000  1
  Ca  Ca1  1  0.00000000  0.00000000  0.00000000  1
  C  C0  1  0.58627000  0.00000000  0.65983700  1
  C  C1  1  0.58627000  0.50000000  0.84016300  1
  C  C2  1  0.41373000  0.00000000  0.34016300  1
  C  C3  1  0.41373000  0.50000000  0.15983700  1
  C  C4  1  0.68516300  0.14862200  0.61913300  1
  C  C5  1  0.68516300  0.35137800  0.88086700  1
  C  C6  1  0.31483700  0.14862200  0.38086700  1
  C  C7  1  0.68516300  0.64862200  0.88086700  1
  C  C8  1  0.31483700  0.85137800  0.38086700  1
  C  C9  1  0.31483700  0.64862200  0.11913300  1
  C  C10  1  0.68516300  0.85137800  0.61913300  1
  C  C11  1  0.31483700  0.35137800  0.11913300  1
  C  C12  1  0.40360600  0.00000000  0.74356500  1
  C  C13  1  0.40360600  0.50000000  0.75643500  1
  C  C14  1  0.59639400  0.00000000  0.25643500  1
  C  C15  1  0.59639400  0.50000000  0.24356500  1
  N  N0  1  0.77209500  0.27027100  0.58313100  1
  N  N1  1  0.77209500  0.22972900  0.91686900  1
  N  N2  1  0.22790500  0.27027100  0.41686900  1
  N  N3  1  0.77209500  0.77027100  0.91686900  1
  N  N4  1  0.22790500  0.72972900  0.41686900  1
  N  N5  1  0.22790500  0.77027100  0.08313100  1
  N  N6  1  0.77209500  0.72972900  0.58313100  1
  N  N7  1  0.22790500  0.22972900  0.08313100  1
  N  N8  1  0.25318700  0.00000000  0.81480600  1
  N  N9  1  0.25318700  0.50000000  0.68519400  1
  N  N10  1  0.74681300  0.00000000  0.18519400  1
  N  N11  1  0.74681300  0.50000000  0.31480600  1
loop_
_geom_bond_atom_site_label_1
_geom_bond_atom_site_label_2
_geom_bond_distance
_geom_bond_site_symmetry_2
Ca0 N6 2.448389 1_455
Ca0 N4 2.448389 1_555
Ca0 N2 2.448389 1_555
Ca0 N0 2.448389 1_455
Ca0 N9 2.535294 1_555
Ca0 N11 2.535294 1_455
Ca1 N7 2.448389 1_555
Ca1 N1 2.448389 1_454
Ca1 N5 2.448389 1_545
Ca1 N3 2.448389 1_444
Ca1 N10 2.535294 1_455
Ca1 N8 2.535294 1_554
C0 C4 1.401820 1_555
C0 C10 1.401820 1_545
C0 C12 1.403434 1_555
C1 C7 1.401820 1_555
C1 C5 1.401820 1_555
C1 C13 1.403434 1_555
C2 C6 1.401820 1_555
C2 C8 1.401820 1_545
C3 C9 1.401820 1_555
C4 N0 1.171621 1_555
C5 N1 1.171621 1_555
C6 N2 1.171621 1_555
C7 N3 1.171621 1_555
C8 N4 1.171621 1_555
C9 N5 1.171621 1_555
C10 N6 1.171621 1_555
C11 N7 1.171621 1_555
C11 C3 1.401820 1_555
C12 N8 1.173212 1_555
C13 N9 1.173212 1_555
C14 N10 1.173212 1_555
C14 C2 1.403434 1_555
C15 N11 1.173212 1_555
C15 C3 1.403434 1_555
