# generated using pymatgen
data_ReN2
_symmetry_space_group_name_H-M   'P 1'
_cell_length_a   2.86538143
_cell_length_b   2.86538143
_cell_length_c   9.29214230
_cell_angle_alpha   78.81854017
_cell_angle_beta   78.81854017
_cell_angle_gamma   60.13360629
_symmetry_Int_Tables_number   1
_chemical_formula_structural   ReN2
_chemical_formula_sum   'Re2 N4'
_cell_volume   64.47764979
_cell_formula_units_Z   2
loop_
 _symmetry_equiv_pos_site_id
 _symmetry_equiv_pos_as_xyz
  1  'x, y, z'
loop_
 _atom_site_type_symbol
 _atom_site_label
 _atom_site_symmetry_multiplicity
 _atom_site_fract_x
 _atom_site_fract_y
 _atom_site_fract_z
 _atom_site_occupancy
  Re  Re0  1  0.06144900  0.06144900  0.93940700  1
  Re  Re1  1  0.24537400  0.24537400  0.50162100  1
  N  N0  1  0.45380500  0.45380500  0.79769300  1
  N  N1  1  0.51867200  0.51867200  0.64329200  1
  N  N2  1  0.63492700  0.63492700  0.36927100  1
  N  N3  1  0.33977300  0.33977300  0.07171500  1
loop_
_geom_bond_atom_site_label_1
_geom_bond_atom_site_label_2
_geom_bond_distance
_geom_bond_site_symmetry_2
N0 N1 1.398237 1_555
N0 Re0 2.091030 1_555
N0 Re0 2.096426 1_565
N0 Re0 2.096426 1_655
N1 Re1 2.090427 1_555
N1 Re1 2.096370 1_655
N1 Re1 2.096370 1_565
N2 Re1 2.043354 1_565
N2 Re1 2.043354 1_655
N2 Re1 2.044614 1_555
N3 Re0 2.043382 1_654
N3 Re0 2.043382 1_564
N3 Re0 2.043887 1_554
