# generated using pymatgen
data_SrLiGe2
_symmetry_space_group_name_H-M   'P 1'
_cell_length_a   4.46120037
_cell_length_b   7.17007629
_cell_length_c   11.55843703
_cell_angle_alpha   90.00000000
_cell_angle_beta   90.00000000
_cell_angle_gamma   90.00000000
_symmetry_Int_Tables_number   1
_chemical_formula_structural   SrLiGe2
_chemical_formula_sum   'Sr4 Li4 Ge8'
_cell_volume   369.72142434
_cell_formula_units_Z   4
loop_
 _symmetry_equiv_pos_site_id
 _symmetry_equiv_pos_as_xyz
  1  'x, y, z'
loop_
 _atom_site_type_symbol
 _atom_site_label
 _atom_site_symmetry_multiplicity
 _atom_site_fract_x
 _atom_site_fract_y
 _atom_site_fract_z
 _atom_site_occupancy
  Sr  Sr0  1  0.25000000  0.63739680  0.64429092  1
  Sr  Sr1  1  0.75000000  0.36260320  0.35570908  1
  Sr  Sr2  1  0.25000000  0.13739680  0.85570908  1
  Sr  Sr3  1  0.75000000  0.86260320  0.14429092  1
  Li  Li0  1  0.25000000  0.62409883  0.94030257  1
  Li  Li1  1  0.75000000  0.37590117  0.05969743  1
  Li  Li2  1  0.25000000  0.12409883  0.55969743  1
  Li  Li3  1  0.75000000  0.87590117  0.44030257  1
  Ge  Ge0  1  0.75000000  0.96465336  0.66159009  1
  Ge  Ge1  1  0.25000000  0.03534664  0.33840991  1
  Ge  Ge2  1  0.75000000  0.46465336  0.83840991  1
  Ge  Ge3  1  0.25000000  0.53534664  0.16159009  1
  Ge  Ge4  1  0.75000000  0.80773744  0.85546931  1
  Ge  Ge5  1  0.25000000  0.19226256  0.14453169  1
  Ge  Ge6  1  0.75000000  0.30773744  0.64453069  1
  Ge  Ge7  1  0.25000000  0.69226256  0.35546931  1
loop_
_geom_bond_atom_site_label_1
_geom_bond_atom_site_label_2
_geom_bond_distance
_geom_bond_site_symmetry_2
Ge0 Ge6 2.467829 1_565
Ge0 Ge4 2.507521 1_555
Ge0 Li3 2.635712 1_555
Ge0 Li2 2.769403 1_565
Ge0 Li2 2.769403 1_665
Ge0 Sr0 3.243672 1_555
Ge0 Sr0 3.243672 1_655
Ge0 Sr2 3.397633 1_565
Ge0 Sr2 3.397633 1_665
Ge1 Ge7 2.467829 1_545
Ge1 Ge5 2.507511 1_555
Ge1 Li2 2.635712 1_555
Ge1 Li3 2.769403 1_445
Ge1 Li3 2.769403 1_545
Ge1 Sr1 3.243672 1_455
Ge1 Sr1 3.243672 1_555
Ge1 Sr3 3.397633 1_545
Ge1 Sr3 3.397633 1_445
Ge2 Ge4 2.467829 1_555
Ge2 Ge6 2.507521 1_555
Ge2 Li1 2.635712 1_556
Ge2 Li0 2.769403 1_555
Ge2 Li0 2.769403 1_655
Ge2 Sr2 3.243672 1_555
Ge2 Sr2 3.243672 1_655
Ge2 Sr0 3.397633 1_555
Ge2 Sr0 3.397633 1_655
Ge3 Ge5 2.467828 1_555
Ge3 Ge7 2.507521 1_555
Ge3 Li0 2.635712 1_554
Ge3 Li1 2.769403 1_555
Ge3 Li1 2.769403 1_455
Ge3 Sr3 3.243672 1_555
Ge3 Sr3 3.243672 1_455
Ge3 Sr1 3.397633 1_455
Ge3 Sr1 3.397633 1_555
Ge4 Li0 2.769610 1_655
Ge4 Li0 2.769610 1_555
Ge4 Sr2 3.250012 1_565
Ge4 Sr2 3.250012 1_665
Ge4 Sr3 3.361425 1_556
Ge4 Sr0 3.524945 1_655
Ge4 Sr0 3.524945 1_555
Ge5 Li1 2.769615 1_555
Ge5 Li1 2.769615 1_455
Ge5 Sr3 3.250012 1_545
Ge5 Sr3 3.250012 1_445
Ge5 Sr2 3.361437 1_554
Ge5 Sr1 3.524937 1_555
Ge5 Sr1 3.524937 1_455
Ge6 Li2 2.769610 1_555
Ge6 Li2 2.769610 1_655
Ge6 Sr0 3.250012 1_655
Ge6 Sr0 3.250012 1_555
Ge6 Sr1 3.361425 1_555
Ge6 Sr2 3.524945 1_555
Ge6 Sr2 3.524945 1_655
Ge7 Li3 2.769610 1_555
Ge7 Li3 2.769610 1_455
Ge7 Sr1 3.250012 1_455
Ge7 Sr1 3.250012 1_555
Ge7 Sr0 3.361425 1_555
Ge7 Sr3 3.524945 1_455
Ge7 Sr3 3.524945 1_555
