# generated using pymatgen
data_NbCu3(TeSe)2
_symmetry_space_group_name_H-M   'P 1'
_cell_length_a   5.85784740
_cell_length_b   5.85784740
_cell_length_c   5.83873300
_cell_angle_alpha   90.00000000
_cell_angle_beta   90.00000000
_cell_angle_gamma   91.08876236
_symmetry_Int_Tables_number   1
_chemical_formula_structural   NbCu3(TeSe)2
_chemical_formula_sum   'Nb1 Cu3 Te2 Se2'
_cell_volume   200.31630864
_cell_formula_units_Z   1
loop_
 _symmetry_equiv_pos_site_id
 _symmetry_equiv_pos_as_xyz
  1  'x, y, z'
loop_
 _atom_site_type_symbol
 _atom_site_label
 _atom_site_symmetry_multiplicity
 _atom_site_fract_x
 _atom_site_fract_y
 _atom_site_fract_z
 _atom_site_occupancy
  Nb  Nb0  1  0.00000000  0.00000000  0.99682400  1
  Cu  Cu0  1  0.00000000  0.50000000  0.98686000  1
  Cu  Cu1  1  0.50000000  0.00000000  0.98686000  1
  Cu  Cu2  1  0.00000000  0.00000000  0.50533700  1
  Te  Te0  1  0.73442900  0.73442900  0.25965600  1
  Te  Te1  1  0.26557100  0.26557100  0.25965600  1
  Se  Se0  1  0.75873300  0.24126700  0.75240300  1
  Se  Se1  1  0.24126700  0.75873300  0.75240300  1
loop_
_geom_bond_atom_site_label_1
_geom_bond_atom_site_label_2
_geom_bond_distance
_geom_bond_site_symmetry_2
Nb0 Se1 2.471318 1_545
Nb0 Se0 2.471318 1_455
Nb0 Te1 2.665200 1_556
Nb0 Te0 2.665200 1_446
Cu0 Se1 2.467205 1_555
Cu0 Se0 2.467205 1_455
Cu0 Te1 2.631365 1_556
Cu0 Te0 2.631365 1_456
Cu0 Nb0 2.929501 1_555
Cu0 Nb0 2.929501 1_565
Cu1 Se0 2.467205 1_555
Cu1 Se1 2.467205 1_545
Cu1 Te1 2.631365 1_556
Cu1 Te0 2.631365 1_546
Cu1 Nb0 2.929501 1_555
Cu1 Nb0 2.929501 1_655
Cu2 Se0 2.480268 1_455
Cu2 Se1 2.480268 1_545
Cu2 Te0 2.608825 1_445
Cu2 Te1 2.608825 1_555
Cu2 Nb0 2.869661 1_555
Cu2 Nb0 2.969072 1_554
