# generated using pymatgen
data_Nd2Mn3FeGe4
_symmetry_space_group_name_H-M   'P 1'
_cell_length_a   4.02397200
_cell_length_b   4.02397200
_cell_length_c   10.82745100
_cell_angle_alpha   90.00000000
_cell_angle_beta   90.00000000
_cell_angle_gamma   90.00000000
_symmetry_Int_Tables_number   1
_chemical_formula_structural   Nd2Mn3FeGe4
_chemical_formula_sum   'Nd2 Mn3 Fe1 Ge4'
_cell_volume   175.32188331
_cell_formula_units_Z   1
loop_
 _symmetry_equiv_pos_site_id
 _symmetry_equiv_pos_as_xyz
  1  'x, y, z'
loop_
 _atom_site_type_symbol
 _atom_site_label
 _atom_site_symmetry_multiplicity
 _atom_site_fract_x
 _atom_site_fract_y
 _atom_site_fract_z
 _atom_site_occupancy
  Nd  Nd0  1  0.50000000  0.00000000  0.75258000  1
  Nd  Nd1  1  0.00000000  0.50000000  0.24742000  1
  Mn  Mn0  1  0.00000000  0.00000000  0.50000000  1
  Mn  Mn1  1  0.00000000  0.00000000  0.00000000  1
  Mn  Mn2  1  0.50000000  0.50000000  0.50000000  1
  Fe  Fe0  1  0.50000000  0.50000000  0.00000000  1
  Ge  Ge0  1  0.00000000  0.50000000  0.87792700  1
  Ge  Ge1  1  0.50000000  0.00000000  0.37344500  1
  Ge  Ge2  1  0.50000000  0.00000000  0.12207300  1
  Ge  Ge3  1  0.00000000  0.50000000  0.62655500  1
loop_
_geom_bond_atom_site_label_1
_geom_bond_atom_site_label_2
_geom_bond_distance
_geom_bond_site_symmetry_2
Mn0 Nd1 3.395174 1_555
Mn0 Nd1 3.395174 1_545
Mn0 Nd0 3.395174 1_455
Mn0 Nd0 3.395174 1_555
Mn1 Nd0 3.350335 1_554
Mn1 Nd0 3.350335 1_454
Mn1 Nd1 3.350335 1_555
Mn1 Nd1 3.350335 1_545
Mn2 Nd1 3.395174 1_555
Mn2 Nd0 3.395174 1_565
Mn2 Nd0 3.395174 1_555
Mn2 Nd1 3.395174 1_655
Fe0 Ge2 2.407298 1_565
Fe0 Ge0 2.407298 1_654
Fe0 Ge2 2.407298 1_555
Fe0 Ge0 2.407298 1_554
Fe0 Nd0 3.350335 1_564
Fe0 Nd0 3.350335 1_554
Fe0 Nd1 3.350335 1_655
Fe0 Nd1 3.350335 1_555
Ge0 Mn1 2.407298 1_556
Ge0 Mn1 2.407298 1_566
Ge0 Ge3 2.721718 1_555
Ge0 Nd0 3.152481 1_465
Ge0 Nd0 3.152481 1_565
Ge0 Nd0 3.152481 1_455
Ge0 Nd0 3.152481 1_555
Ge1 Mn0 2.434281 1_555
Ge1 Mn2 2.434281 1_545
Ge1 Mn0 2.434281 1_655
Ge1 Mn2 2.434281 1_555
Ge1 Ge2 2.721718 1_555
Ge1 Nd1 3.155648 1_555
Ge1 Nd1 3.155648 1_545
Ge1 Nd1 3.155648 1_655
Ge1 Nd1 3.155648 1_645
Ge2 Mn1 2.407298 1_655
Ge2 Mn1 2.407298 1_555
Ge2 Nd1 3.152481 1_645
Ge2 Nd1 3.152481 1_555
Ge2 Nd1 3.152481 1_545
Ge2 Nd1 3.152481 1_655
Ge3 Mn0 2.434281 1_555
Ge3 Mn0 2.434281 1_565
Ge3 Mn2 2.434281 1_555
Ge3 Mn2 2.434281 1_455
Ge3 Nd0 3.155648 1_565
Ge3 Nd0 3.155648 1_455
Ge3 Nd0 3.155648 1_555
Ge3 Nd0 3.155648 1_465
