# generated using pymatgen
data_SmEuMn4O12
_symmetry_space_group_name_H-M   'P 1'
_cell_length_a   5.56594085
_cell_length_b   5.56594085
_cell_length_c   7.85969103
_cell_angle_alpha   90.00000000
_cell_angle_beta   90.00000000
_cell_angle_gamma   90.00000000
_symmetry_Int_Tables_number   1
_chemical_formula_structural   SmEuMn4O12
_chemical_formula_sum   'Sm1 Eu1 Mn4 O12'
_cell_volume   243.49085091
_cell_formula_units_Z   1
loop_
 _symmetry_equiv_pos_site_id
 _symmetry_equiv_pos_as_xyz
  1  'x, y, z'
loop_
 _atom_site_type_symbol
 _atom_site_label
 _atom_site_symmetry_multiplicity
 _atom_site_fract_x
 _atom_site_fract_y
 _atom_site_fract_z
 _atom_site_occupancy
  Sm  Sm0  1  0.00000000  -0.00000000  0.50000000  1
  Eu  Eu0  1  0.50000000  0.50000000  -0.00000000  1
  Mn  Mn0  1  0.00000000  0.50000000  0.75016575  1
  Mn  Mn1  1  0.00000000  0.50000000  0.24983425  1
  Mn  Mn2  1  0.50000000  -0.00000000  0.75016575  1
  Mn  Mn3  1  0.50000000  -0.00000000  0.24983425  1
  O  O0  1  0.24864283  0.24864283  0.74891906  1
  O  O1  1  0.24864283  0.24864283  0.25108094  1
  O  O2  1  0.75135717  0.75135717  0.74891906  1
  O  O3  1  0.75135717  0.75135717  0.25108094  1
  O  O4  1  0.75135717  0.24864283  0.74891906  1
  O  O5  1  0.75135717  0.24864283  0.25108094  1
  O  O6  1  0.24864283  0.75135717  0.74891906  1
  O  O7  1  0.24864283  0.75135717  0.25108094  1
  O  O8  1  0.00000000  0.50000000  0.50000000  1
  O  O9  1  0.00000000  0.50000000  -0.00000000  1
  O  O10  1  0.50000000  -0.00000000  0.50000000  1
  O  O11  1  0.50000000  -0.00000000  -0.00000000  1
loop_
_geom_bond_atom_site_label_1
_geom_bond_atom_site_label_2
_geom_bond_distance
_geom_bond_site_symmetry_2
Eu0 O11 2.782970 1_555
Eu0 O11 2.782970 1_565
Eu0 O9 2.782970 1_555
Eu0 O9 2.782970 1_655
Eu0 O0 2.794459 1_554
Eu0 O7 2.794459 1_555
Eu0 O4 2.794459 1_554
Eu0 O6 2.794459 1_554
Eu0 O3 2.794459 1_555
Eu0 O1 2.794459 1_555
Eu0 O5 2.794459 1_555
Eu0 O2 2.794459 1_554
Mn0 O9 1.963620 1_556
Mn0 O8 1.966226 1_555
Mn0 O2 1.967911 1_455
Mn0 O4 1.967911 1_455
Mn0 O6 1.967911 1_555
Mn0 O0 1.967911 1_555
Mn1 O9 1.963620 1_555
Mn1 O8 1.966226 1_555
Mn1 O3 1.967911 1_455
Mn1 O5 1.967911 1_455
Mn1 O7 1.967911 1_555
Mn1 O1 1.967911 1_555
Mn2 O11 1.963620 1_556
Mn2 O10 1.966226 1_555
Mn2 O2 1.967911 1_545
Mn2 O6 1.967911 1_545
Mn2 O4 1.967911 1_555
Mn2 O0 1.967911 1_555
Mn3 O11 1.963620 1_555
Mn3 O10 1.966226 1_555
Mn3 O3 1.967911 1_545
Mn3 O7 1.967911 1_545
Mn3 O1 1.967911 1_555
Mn3 O5 1.967911 1_555
O0 Sm0 2.767334 1_555
O1 Sm0 2.767334 1_555
O2 Sm0 2.767334 1_665
O3 Sm0 2.767334 1_665
O4 Sm0 2.767334 1_655
O5 Sm0 2.767334 1_655
O6 Sm0 2.767334 1_565
O7 Sm0 2.767334 1_565
O8 Sm0 2.782970 1_555
O8 Sm0 2.782970 1_565
O10 Sm0 2.782970 1_655
O10 Sm0 2.782970 1_555
