# generated using pymatgen
data_SmMn2
_symmetry_space_group_name_H-M   'P 1'
_cell_length_a   5.17951037
_cell_length_b   5.17951037
_cell_length_c   8.97106700
_cell_angle_alpha   90.00000000
_cell_angle_beta   90.00000000
_cell_angle_gamma   115.12859401
_symmetry_Int_Tables_number   1
_chemical_formula_structural   SmMn2
_chemical_formula_sum   'Sm4 Mn8'
_cell_volume   217.89204316
_cell_formula_units_Z   4
loop_
 _symmetry_equiv_pos_site_id
 _symmetry_equiv_pos_as_xyz
  1  'x, y, z'
loop_
 _atom_site_type_symbol
 _atom_site_label
 _atom_site_symmetry_multiplicity
 _atom_site_fract_x
 _atom_site_fract_y
 _atom_site_fract_z
 _atom_site_occupancy
  Sm  Sm0  1  0.66539100  0.33460900  0.56354300  1
  Sm  Sm1  1  0.33460900  0.66539100  0.43645700  1
  Sm  Sm2  1  0.33460900  0.66539100  0.06354300  1
  Sm  Sm3  1  0.66539100  0.33460900  0.93645700  1
  Mn  Mn0  1  0.00000000  0.00000000  0.50000000  1
  Mn  Mn1  1  0.00000000  0.00000000  0.00000000  1
  Mn  Mn2  1  0.15137000  0.33543200  0.75000000  1
  Mn  Mn3  1  0.15852800  0.84147200  0.75000000  1
  Mn  Mn4  1  0.66456800  0.84863000  0.75000000  1
  Mn  Mn5  1  0.84863000  0.66456800  0.25000000  1
  Mn  Mn6  1  0.84147200  0.15852800  0.25000000  1
  Mn  Mn7  1  0.33543200  0.15137000  0.25000000  1
loop_
_geom_bond_atom_site_label_1
_geom_bond_atom_site_label_2
_geom_bond_distance
_geom_bond_site_symmetry_2
Sm0 Sm1 3.108624 1_555
Sm0 Sm3 3.345436 1_555
Sm0 Sm1 3.347562 1_655
Sm0 Sm1 3.347562 1_545
Sm1 Sm2 3.345436 1_555
Sm2 Sm3 3.108624 1_554
Sm2 Sm3 3.347562 1_564
Sm2 Sm3 3.347562 1_454
Mn0 Mn3 2.636476 1_545
Mn0 Mn6 2.636476 1_455
Mn0 Mn5 2.739761 1_445
Mn0 Mn4 2.739761 1_445
Mn0 Mn7 2.739761 1_555
Mn0 Mn2 2.739761 1_555
Mn0 Sm0 2.980491 1_455
Mn0 Sm1 2.980491 1_545
Mn0 Sm1 3.183303 1_555
Mn0 Sm0 3.183303 1_555
Mn0 Sm1 3.183303 1_445
Mn0 Sm0 3.183303 1_445
Mn1 Mn3 2.636476 1_544
Mn1 Mn6 2.636476 1_455
Mn1 Mn5 2.739761 1_445
Mn1 Mn4 2.739761 1_444
Mn1 Mn7 2.739761 1_555
Mn1 Mn2 2.739761 1_554
Mn1 Sm3 2.980491 1_454
Mn1 Sm2 2.980491 1_545
Mn1 Sm2 3.183303 1_555
Mn1 Sm3 3.183303 1_554
Mn1 Sm2 3.183303 1_445
Mn1 Sm3 3.183303 1_444
Mn2 Mn3 2.574434 1_545
Mn2 Mn3 2.605512 1_555
Mn2 Mn4 2.704716 1_445
Mn2 Mn4 2.851374 1_555
Mn2 Sm3 3.020737 1_455
Mn2 Sm0 3.020737 1_455
Mn2 Sm3 3.145774 1_555
Mn2 Sm0 3.145774 1_555
Mn2 Sm2 3.218056 1_556
Mn2 Sm1 3.218056 1_555
Mn3 Mn4 2.574434 1_455
Mn3 Mn4 2.605512 1_555
Mn3 Sm2 3.206539 1_556
Mn3 Sm1 3.206539 1_555
Mn3 Sm0 3.243319 1_565
Mn3 Sm3 3.243319 1_565
Mn3 Sm3 3.243319 1_455
Mn3 Sm0 3.243319 1_455
Mn4 Sm0 3.020737 1_565
Mn4 Sm3 3.020737 1_565
Mn4 Sm3 3.145774 1_555
Mn4 Sm0 3.145774 1_555
Mn4 Sm2 3.218056 1_556
Mn4 Sm1 3.218056 1_555
Mn5 Mn6 2.574434 1_565
Mn5 Mn6 2.605512 1_555
Mn5 Mn7 2.704716 1_665
Mn5 Mn7 2.851374 1_555
Mn5 Sm2 3.020737 1_655
Mn5 Sm1 3.020737 1_655
Mn5 Sm2 3.145774 1_555
Mn5 Sm1 3.145774 1_555
Mn5 Sm3 3.218056 1_554
Mn5 Sm0 3.218056 1_555
Mn6 Mn7 2.574434 1_655
Mn6 Mn7 2.605512 1_555
Mn6 Sm3 3.206539 1_554
Mn6 Sm0 3.206539 1_555
Mn6 Sm2 3.243319 1_655
Mn6 Sm1 3.243319 1_655
Mn6 Sm1 3.243319 1_545
Mn6 Sm2 3.243319 1_545
Mn7 Sm1 3.020737 1_545
Mn7 Sm2 3.020737 1_545
Mn7 Sm2 3.145774 1_555
Mn7 Sm1 3.145774 1_555
Mn7 Sm3 3.218056 1_554
Mn7 Sm0 3.218056 1_555
