# generated using pymatgen
data_TaSiRu
_symmetry_space_group_name_H-M   'P 1'
_cell_length_a   7.39614141
_cell_length_b   7.39614141
_cell_length_c   7.39614141
_cell_angle_alpha   128.10809356
_cell_angle_beta   121.14894170
_cell_angle_gamma   82.27540367
_symmetry_Int_Tables_number   1
_chemical_formula_structural   TaSiRu
_chemical_formula_sum   'Ta6 Si6 Ru6'
_cell_volume   261.99110450
_cell_formula_units_Z   6
loop_
 _symmetry_equiv_pos_site_id
 _symmetry_equiv_pos_as_xyz
  1  'x, y, z'
loop_
 _atom_site_type_symbol
 _atom_site_label
 _atom_site_symmetry_multiplicity
 _atom_site_fract_x
 _atom_site_fract_y
 _atom_site_fract_z
 _atom_site_occupancy
  Ta  Ta0  1  0.94622833  0.90418798  0.45796065  1
  Ta  Ta1  1  0.05377167  0.51173232  0.95796065  1
  Ta  Ta2  1  0.53082943  0.50306459  0.47223416  1
  Ta  Ta3  1  0.46917057  0.94140473  0.97223416  1
  Ta  Ta4  1  0.74904735  0.08243857  0.83339121  1
  Ta  Ta5  1  0.25095265  0.08434386  0.33339121  1
  Si  Si0  1  0.72141373  0.47112777  0.24971304  1
  Si  Si1  1  0.27858627  0.52829930  0.74971304  1
  Si  Si2  1  0.67029285  0.17037462  0.50703557  1
  Si  Si3  1  0.32970715  0.83674371  0.50008177  1
  Si  Si4  1  0.16333906  0.17037462  0.00008177  1
  Si  Si5  1  0.83666094  0.83674371  0.00703557  1
  Ru  Ru0  1  0.50000000  0.75059422  0.25059422  1
  Ru  Ru1  1  -0.00000000  0.75059422  0.75059422  1
  Ru  Ru2  1  0.90884277  0.25475930  0.41197185  1
  Ru  Ru3  1  0.09115723  0.50312908  0.34591653  1
  Ru  Ru4  1  0.34278745  0.25475930  0.84591653  1
  Ru  Ru5  1  0.65721255  0.50312908  0.91197185  1
loop_
_geom_bond_atom_site_label_1
_geom_bond_atom_site_label_2
_geom_bond_distance
_geom_bond_site_symmetry_2
Si0 Ta2 2.565549 1_555
Si0 Ta4 2.711953 1_554
Si0 Ta0 2.844151 1_555
Si1 Ta3 2.565549 1_555
Si1 Ta5 2.711951 1_555
Si1 Ta1 2.844164 1_555
Si2 Ta4 2.640062 1_555
Si2 Ta0 2.641410 1_545
Si2 Ta2 2.647577 1_555
Si2 Ta3 2.654911 1_544
Si2 Ta5 2.659824 1_555
Si2 Ta1 2.699567 1_655
Si3 Ta5 2.640055 1_565
Si3 Ta1 2.641406 1_554
Si3 Ta3 2.647573 1_555
Si3 Ta2 2.654911 1_555
Si3 Ta4 2.659822 1_565
Si3 Ta0 2.699565 1_455
Si4 Ta4 2.640062 1_454
Si4 Ta0 2.641405 1_444
Si4 Ta2 2.647571 1_555
Si4 Ta3 2.654911 1_544
Si4 Ta5 2.659824 1_555
Si4 Ta1 2.699567 1_554
Si5 Ta5 2.640060 1_665
Si5 Ta1 2.641411 1_654
Si5 Ta3 2.647568 1_554
Si5 Ta2 2.654911 1_554
Si5 Ta4 2.659817 1_564
Si5 Ta0 2.699574 1_555
Ru0 Si0 2.457368 1_555
Ru0 Si1 2.457373 1_554
Ru0 Si3 2.476831 1_555
Ru0 Si2 2.476833 1_565
Ru0 Ru5 2.785164 1_554
Ru0 Ru4 2.785164 1_554
Ru0 Ta5 2.817812 1_565
Ru0 Ta4 2.817812 1_565
Ru0 Ta0 2.855867 1_555
Ru0 Ta1 2.855868 1_554
Ru0 Ta2 3.048984 1_555
Ru0 Ta3 3.048990 1_554
Ru1 Si0 2.457373 1_455
Ru1 Si1 2.457373 1_555
Ru1 Si5 2.476831 1_456
Ru1 Si4 2.476833 1_566
Ru1 Ru2 2.785164 1_455
Ru1 Ru3 2.785164 1_555
Ru1 Ta5 2.817812 1_566
Ru1 Ta4 2.817812 1_465
Ru1 Ta0 2.855862 1_455
Ru1 Ta1 2.855868 1_555
Ru1 Ta2 3.048988 1_455
Ru1 Ta3 3.048990 1_555
Ru2 Si0 2.444558 1_555
Ru2 Si1 2.448240 1_655
Ru2 Si2 2.473423 1_555
Ru2 Si5 2.484763 1_545
Ru2 Ta1 2.768532 1_655
Ru2 Ta0 2.777354 1_545
Ru2 Ta5 2.844059 1_655
Ru2 Ta3 2.881784 1_544
Ru3 Si1 2.444552 1_555
Ru3 Si0 2.448240 1_455
Ru3 Si3 2.473429 1_555
Ru3 Si4 2.484767 1_555
Ru3 Ta0 2.768526 1_455
Ru3 Ta1 2.777346 1_554
Ru3 Ta4 2.844059 1_454
Ru3 Ta2 2.881784 1_555
Ru4 Si0 2.444552 1_556
Ru4 Si1 2.448240 1_555
Ru4 Si4 2.473423 1_556
Ru4 Si3 2.484762 1_545
Ru4 Ta1 2.768532 1_555
Ru4 Ta0 2.777350 1_445
Ru4 Ta5 2.844059 1_555
Ru4 Ta3 2.881784 1_545
Ru5 Si1 2.444552 1_555
Ru5 Si0 2.448235 1_556
Ru5 Si5 2.473430 1_556
Ru5 Si2 2.484766 1_555
Ru5 Ta0 2.768530 1_556
Ru5 Ta1 2.777346 1_655
Ru5 Ta4 2.844059 1_555
Ru5 Ta2 2.881789 1_555
