# generated using pymatgen
data_Ce3Hg
_symmetry_space_group_name_H-M   'P 1'
_cell_length_a   5.94026538
_cell_length_b   5.94026538
_cell_length_c   5.94026538
_cell_angle_alpha   132.71365678
_cell_angle_beta   132.71365678
_cell_angle_gamma   69.10419227
_symmetry_Int_Tables_number   1
_chemical_formula_structural   Ce3Hg
_chemical_formula_sum   'Ce3 Hg1'
_cell_volume   111.06408487
_cell_formula_units_Z   1
loop_
 _symmetry_equiv_pos_site_id
 _symmetry_equiv_pos_as_xyz
  1  'x, y, z'
loop_
 _atom_site_type_symbol
 _atom_site_label
 _atom_site_symmetry_multiplicity
 _atom_site_fract_x
 _atom_site_fract_y
 _atom_site_fract_z
 _atom_site_occupancy
  Ce  Ce0  1  0.75000000  0.25000000  0.50000000  1
  Ce  Ce1  1  0.25000000  0.75000000  0.50000000  1
  Ce  Ce2  1  0.50000000  0.50000000  0.00000000  1
  Hg  Hg0  1  0.00000000  -0.00000000  0.00000000  1
loop_
_geom_bond_atom_site_label_1
_geom_bond_atom_site_label_2
_geom_bond_distance
_geom_bond_site_symmetry_2
Ce0 Ce1 3.369053 1_544
Ce0 Ce1 3.369053 1_555
Ce0 Ce1 3.369053 1_656
Ce0 Ce1 3.369053 1_645
Ce0 Ce2 3.414574 1_656
Ce0 Hg0 3.414574 1_555
Ce0 Hg0 3.414574 1_656
Ce0 Ce2 3.414574 1_555
Ce0 Hg0 3.414574 1_655
Ce0 Hg0 3.414574 1_666
Ce0 Ce2 3.414574 1_545
Ce0 Ce2 3.414574 1_556
Ce1 Hg0 3.414574 1_555
Ce1 Ce2 3.414574 1_555
Ce1 Hg0 3.414574 1_566
Ce1 Ce2 3.414574 1_566
Ce1 Hg0 3.414574 1_565
Ce1 Hg0 3.414574 1_666
Ce1 Ce2 3.414574 1_455
Ce1 Ce2 3.414574 1_556
Ce2 Hg0 3.369053 1_554
Ce2 Hg0 3.369053 1_655
Ce2 Hg0 3.369053 1_565
Ce2 Hg0 3.369053 1_666
