# generated using pymatgen
data_Rb2V2Si8O21
_symmetry_space_group_name_H-M   'P 1'
_cell_length_a   8.86337500
_cell_length_b   10.43768600
_cell_length_c   11.25094300
_cell_angle_alpha   90.00000000
_cell_angle_beta   90.00000000
_cell_angle_gamma   90.00000000
_symmetry_Int_Tables_number   1
_chemical_formula_structural   Rb2V2Si8O21
_chemical_formula_sum   'Rb4 V4 Si16 O42'
_cell_volume   1040.85989782
_cell_formula_units_Z   2
loop_
 _symmetry_equiv_pos_site_id
 _symmetry_equiv_pos_as_xyz
  1  'x, y, z'
loop_
 _atom_site_type_symbol
 _atom_site_label
 _atom_site_symmetry_multiplicity
 _atom_site_fract_x
 _atom_site_fract_y
 _atom_site_fract_z
 _atom_site_occupancy
  Rb  Rb0  1  0.33792300  0.39480400  0.50000000  1
  Rb  Rb1  1  0.83792300  0.60519600  0.50000000  1
  Rb  Rb2  1  0.06165200  0.88981900  0.00000000  1
  Rb  Rb3  1  0.56165200  0.11018100  0.00000000  1
  V  V0  1  0.04594400  0.54015600  0.00000000  1
  V  V1  1  0.54594400  0.45984400  0.00000000  1
  V  V2  1  0.12449000  0.24111000  0.00000000  1
  V  V3  1  0.62449000  0.75889000  0.00000000  1
  Si  Si0  1  0.17363700  0.63851500  0.26105800  1
  Si  Si1  1  0.17363700  0.63851500  0.73894200  1
  Si  Si2  1  0.67363700  0.36148500  0.73894200  1
  Si  Si3  1  0.67363700  0.36148500  0.26105800  1
  Si  Si4  1  0.21016800  0.13341500  0.25788700  1
  Si  Si5  1  0.21016800  0.13341500  0.74211300  1
  Si  Si6  1  0.71016800  0.86658500  0.74211300  1
  Si  Si7  1  0.71016800  0.86658500  0.25788700  1
  Si  Si8  1  0.03770300  0.89851400  0.36332300  1
  Si  Si9  1  0.03770300  0.89851400  0.63667700  1
  Si  Si10  1  0.53770300  0.10148600  0.63667700  1
  Si  Si11  1  0.53770300  0.10148600  0.36332300  1
  Si  Si12  1  0.03206600  0.37954300  0.25583000  1
  Si  Si13  1  0.03206600  0.37954300  0.74417000  1
  Si  Si14  1  0.53206600  0.62045700  0.74417000  1
  Si  Si15  1  0.53206600  0.62045700  0.25583000  1
  O  O0  1  0.96980000  0.15479200  0.00000000  1
  O  O1  1  0.46980000  0.84520800  0.00000000  1
  O  O2  1  0.35425500  0.62715400  0.29008400  1
  O  O3  1  0.35425500  0.62715400  0.70991600  1
  O  O4  1  0.85425500  0.37284600  0.70991600  1
  O  O5  1  0.85425500  0.37284600  0.29008400  1
  O  O6  1  0.25195600  0.15795100  0.12136400  1
  O  O7  1  0.25195600  0.15795100  0.87863600  1
  O  O8  1  0.75195600  0.84204900  0.87863600  1
  O  O9  1  0.75195600  0.84204900  0.12136400  1
  O  O10  1  0.10723400  0.00297100  0.27186000  1
  O  O11  1  0.10723400  0.00297100  0.72814000  1
  O  O12  1  0.60723400  0.99702900  0.72814000  1
  O  O13  1  0.60723400  0.99702900  0.27186000  1
  O  O14  1  0.11133600  0.75737600  0.34256600  1
  O  O15  1  0.11133600  0.75737600  0.65743400  1
  O  O16  1  0.61133600  0.24262400  0.65743400  1
  O  O17  1  0.61133600  0.24262400  0.34256600  1
  O  O18  1  0.06655600  0.38776400  0.11399400  1
  O  O19  1  0.06655600  0.38776400  0.88600600  1
  O  O20  1  0.56655600  0.61223600  0.88600600  1
  O  O21  1  0.56655600  0.61223600  0.11399400  1
  O  O22  1  0.06960300  0.94221000  0.50000000  1
  O  O23  1  0.56960300  0.05779000  0.50000000  1
  O  O24  1  0.11738500  0.25633700  0.31577800  1
  O  O25  1  0.11738500  0.25633700  0.68422200  1
  O  O26  1  0.61738500  0.74366300  0.68422200  1
  O  O27  1  0.61738500  0.74366300  0.31577800  1
  O  O28  1  0.13211000  0.65171000  0.12366200  1
  O  O29  1  0.13211000  0.65171000  0.87633800  1
  O  O30  1  0.63211000  0.34829000  0.87633800  1
  O  O31  1  0.63211000  0.34829000  0.12366200  1
  O  O32  1  0.86434600  0.57468100  0.00000000  1
  O  O33  1  0.36434600  0.42531900  0.00000000  1
  O  O34  1  0.09746500  0.50870500  0.32351400  1
  O  O35  1  0.09746500  0.50870500  0.67648600  1
  O  O36  1  0.59746500  0.49129500  0.67648600  1
  O  O37  1  0.59746500  0.49129500  0.32351400  1
  O  O38  1  0.35677600  0.11450200  0.34477500  1
  O  O39  1  0.35677600  0.11450200  0.65522500  1
  O  O40  1  0.85677600  0.88549800  0.65522500  1
  O  O41  1  0.85677600  0.88549800  0.34477500  1
loop_
_geom_bond_atom_site_label_1
_geom_bond_atom_site_label_2
_geom_bond_distance
_geom_bond_site_symmetry_2
O0 V2 1.640603 1_655
O0 Rb2 2.883039 1_645
O1 V3 1.640603 1_555
O1 Rb3 2.883039 1_565
O2 Si15 1.623947 1_555
O2 Si0 1.638152 1_555
O2 Rb0 3.388275 1_555
O3 Si14 1.623947 1_555
O3 Si1 1.638152 1_555
O3 Rb0 3.388275 1_555
O4 Si13 1.623947 1_655
O4 Si2 1.638152 1_555
O4 Rb1 3.388275 1_555
O5 Si12 1.623947 1_655
O5 Si3 1.638152 1_555
O5 Rb1 3.388275 1_555
O6 Si4 1.600658 1_555
O6 V2 1.973394 1_555
O6 Rb3 3.106099 1_555
O7 Si5 1.600658 1_555
O7 V2 1.973394 1_556
O7 Rb3 3.106099 1_556
O8 Si6 1.600658 1_555
O8 V3 1.973394 1_556
O8 Rb2 3.106099 1_656
O9 Si7 1.600658 1_555
O9 V3 1.973394 1_555
O9 Rb2 3.106099 1_655
O10 Si8 1.620946 1_545
O10 Si4 1.646468 1_555
O10 Rb2 3.303577 1_545
O11 Si9 1.620946 1_545
O11 Si5 1.646468 1_555
O11 Rb2 3.303577 1_546
O12 Si10 1.620946 1_565
O12 Si6 1.646468 1_555
O12 Rb3 3.303577 1_566
O13 Si11 1.620946 1_565
O13 Si7 1.646468 1_555
O13 Rb3 3.303577 1_565
O14 Si8 1.628084 1_555
O14 Si0 1.638615 1_555
O14 Rb1 3.396050 1_455
O15 Si9 1.628084 1_555
O15 Si1 1.638615 1_555
O15 Rb1 3.396050 1_455
O16 Si10 1.628084 1_555
O16 Si2 1.638615 1_555
O16 Rb0 3.396050 1_555
O17 Si11 1.628084 1_555
O17 Si3 1.638615 1_555
O17 Rb0 3.396050 1_555
O18 Si12 1.627070 1_555
O18 V0 2.051428 1_555
O18 V2 2.061968 1_555
O19 Si13 1.627070 1_555
O19 V0 2.051428 1_556
O19 V2 2.061968 1_556
O20 Si14 1.627070 1_555
O20 V1 2.051428 1_556
O20 V3 2.061968 1_556
O21 Si15 1.627070 1_555
O21 V1 2.051428 1_555
O21 V3 2.061968 1_555
O22 Si9 1.628686 1_555
O22 Si8 1.628686 1_555
O23 Si10 1.628686 1_555
O23 Si11 1.628686 1_555
O24 Si12 1.637233 1_555
O24 Si4 1.657307 1_555
O24 Rb0 3.194633 1_555
O25 Si13 1.637233 1_555
O25 Si5 1.657307 1_555
O25 Rb0 3.194633 1_555
O26 Si14 1.637233 1_555
O26 Si6 1.657307 1_555
O26 Rb1 3.194633 1_555
O27 Si15 1.637233 1_555
O27 Si7 1.657307 1_555
O27 Rb1 3.194633 1_555
O28 Si0 1.595007 1_555
O28 V0 1.968444 1_555
O28 Rb2 2.915905 1_555
O29 Si1 1.595007 1_555
O29 V0 1.968444 1_556
O29 Rb2 2.915905 1_556
O30 Si2 1.595007 1_555
O30 V1 1.968444 1_556
O30 Rb3 2.915905 1_556
O31 Si3 1.595007 1_555
O31 V1 1.968444 1_555
O31 Rb3 2.915905 1_555
O32 V0 1.649418 1_655
O33 V1 1.649418 1_555
O34 Si12 1.653303 1_555
O34 Si0 1.668947 1_555
O34 Rb0 3.146180 1_555
O34 Rb1 3.201406 1_455
O35 Si13 1.653303 1_555
O35 Si1 1.668947 1_555
O35 Rb0 3.146180 1_555
O35 Rb1 3.201406 1_455
O36 Si14 1.653303 1_555
O36 Si2 1.668947 1_555
O36 Rb1 3.146180 1_555
O36 Rb0 3.201406 1_555
O37 Si15 1.653303 1_555
O37 Si3 1.668947 1_555
O37 Rb1 3.146180 1_555
O37 Rb0 3.201406 1_555
O38 Si11 1.622842 1_555
O38 Si4 1.638037 1_555
O38 Rb0 3.411404 1_555
O39 Si10 1.622842 1_555
O39 Si5 1.638037 1_555
O39 Rb0 3.411404 1_555
O40 Si9 1.622842 1_655
O40 Si6 1.638037 1_555
O40 Rb1 3.411404 1_555
O41 Si8 1.622842 1_655
O41 Si7 1.638037 1_555
O41 Rb1 3.411404 1_555
