# generated using pymatgen
data_Tm3Ga2
_symmetry_space_group_name_H-M   'P 1'
_cell_length_a   10.85494833
_cell_length_b   10.85494833
_cell_length_c   10.85494833
_cell_angle_alpha   95.81615265
_cell_angle_beta   116.70080925
_cell_angle_gamma   116.70080925
_symmetry_Int_Tables_number   1
_chemical_formula_structural   Tm3Ga2
_chemical_formula_sum   'Tm24 Ga16'
_cell_volume   944.24981514
_cell_formula_units_Z   8
loop_
 _symmetry_equiv_pos_site_id
 _symmetry_equiv_pos_as_xyz
  1  'x, y, z'
loop_
 _atom_site_type_symbol
 _atom_site_label
 _atom_site_symmetry_multiplicity
 _atom_site_fract_x
 _atom_site_fract_y
 _atom_site_fract_z
 _atom_site_occupancy
  Tm  Tm0  1  0.50000000  0.85403312  0.35403312  1
  Tm  Tm1  1  0.50000000  0.35403312  0.85403312  1
  Tm  Tm2  1  0.50000000  0.14596688  0.64596688  1
  Tm  Tm3  1  0.50000000  0.64596688  0.14596688  1
  Tm  Tm4  1  0.16207200  0.33103600  0.83103600  1
  Tm  Tm5  1  0.83792800  0.66896400  0.16896400  1
  Tm  Tm6  1  0.50000000  0.16896400  0.33103600  1
  Tm  Tm7  1  0.50000000  0.83103600  0.66896400  1
  Tm  Tm8  1  0.72988789  0.56901360  0.43318560  1
  Tm  Tm9  1  0.27011211  0.70329671  0.83912471  1
  Tm  Tm10  1  0.86417200  0.20329671  0.93318560  1
  Tm  Tm11  1  0.13582800  0.06901360  0.33912471  1
  Tm  Tm12  1  0.86417200  0.43318560  0.70329671  1
  Tm  Tm13  1  0.13582800  0.83912471  0.56901360  1
  Tm  Tm14  1  0.72988789  0.93318560  0.06901360  1
  Tm  Tm15  1  0.27011211  0.33912471  0.20329671  1
  Tm  Tm16  1  0.27011211  0.43098640  0.56681440  1
  Tm  Tm17  1  0.72988789  0.29670329  0.16087529  1
  Tm  Tm18  1  0.13582800  0.79670329  0.06681440  1
  Tm  Tm19  1  0.86417200  0.93098640  0.66087529  1
  Tm  Tm20  1  0.13582800  0.56681440  0.29670329  1
  Tm  Tm21  1  0.86417200  0.16087529  0.43098640  1
  Tm  Tm22  1  0.27011211  0.06681440  0.93098640  1
  Tm  Tm23  1  0.72988789  0.66087529  0.79670329  1
  Ga  Ga0  1  0.00000000  0.75000000  0.75000000  1
  Ga  Ga1  1  -0.00000000  0.25000000  0.25000000  1
  Ga  Ga2  1  0.00000000  0.50000000  0.50000000  1
  Ga  Ga3  1  0.00000000  -0.00000000  -0.00000000  1
  Ga  Ga4  1  0.26346863  0.88173331  0.38173331  1
  Ga  Ga5  1  0.73653137  0.11826669  0.61826669  1
  Ga  Ga6  1  0.50000000  0.61826669  0.88173331  1
  Ga  Ga7  1  0.50000000  0.38173331  0.11826669  1
  Ga  Ga8  1  0.14521396  0.12183033  0.62183033  1
  Ga  Ga9  1  0.85478604  0.47661637  0.97661637  1
  Ga  Ga10  1  0.50000000  0.97661637  0.12183033  1
  Ga  Ga11  1  0.50000000  0.62183033  0.47661637  1
  Ga  Ga12  1  0.85478604  0.87816967  0.37816967  1
  Ga  Ga13  1  0.14521396  0.52338363  0.02338363  1
  Ga  Ga14  1  0.50000000  0.02338363  0.87816967  1
  Ga  Ga15  1  0.50000000  0.37816967  0.52338363  1
loop_
_geom_bond_atom_site_label_1
_geom_bond_atom_site_label_2
_geom_bond_distance
_geom_bond_site_symmetry_2
Tm0 Tm3 3.027909 1_555
Tm0 Tm6 3.452798 1_565
Tm0 Tm7 3.452798 1_555
Tm1 Tm2 3.027909 1_555
Tm1 Tm5 3.452798 1_556
Tm1 Tm4 3.452798 1_555
Tm2 Tm7 3.452798 1_545
Tm2 Tm6 3.452798 1_555
Tm3 Tm4 3.452798 1_554
Tm3 Tm5 3.452798 1_555
Tm4 Tm9 3.645341 1_555
Tm5 Tm8 3.645349 1_555
Tm6 Tm8 3.621231 1_555
Tm7 Tm9 3.621223 1_555
Tm10 Tm4 3.621231 1_655
Tm10 Tm7 3.645343 1_545
Tm11 Tm5 3.621231 1_445
Tm11 Tm6 3.645343 1_555
Tm12 Tm4 3.621231 1_655
Tm12 Tm6 3.645343 1_555
Tm13 Tm5 3.621231 1_455
Tm13 Tm7 3.645343 1_555
Tm14 Tm7 3.621231 1_554
Tm14 Tm5 3.645349 1_555
Tm15 Tm6 3.621223 1_555
Tm15 Tm4 3.645341 1_554
Tm16 Tm7 3.621231 1_555
Tm16 Tm4 3.645349 1_555
Tm17 Tm6 3.621223 1_555
Tm17 Tm5 3.645341 1_555
Tm18 Tm5 3.621231 1_455
Tm18 Tm6 3.645343 1_565
Tm19 Tm4 3.621231 1_665
Tm19 Tm7 3.645343 1_555
Tm20 Tm5 3.621231 1_455
Tm20 Tm7 3.645343 1_555
Tm21 Tm4 3.621231 1_655
Tm21 Tm6 3.645343 1_555
Tm22 Tm6 3.621231 1_556
Tm22 Tm4 3.645349 1_555
Tm23 Tm7 3.621223 1_555
Tm23 Tm5 3.645341 1_556
Ga0 Tm12 2.945488 1_455
Ga0 Tm18 2.945488 1_556
Ga0 Tm13 2.945488 1_555
Ga0 Tm19 2.945488 1_455
Ga0 Tm22 2.945490 1_565
Ga0 Tm8 2.945490 1_455
Ga0 Tm9 2.945498 1_555
Ga0 Tm23 2.945498 1_455
Ga1 Tm20 2.945488 1_555
Ga1 Tm10 2.945488 1_454
Ga1 Tm11 2.945488 1_555
Ga1 Tm21 2.945488 1_455
Ga1 Tm16 2.945490 1_555
Ga1 Tm14 2.945490 1_445
Ga1 Tm15 2.945498 1_555
Ga1 Tm17 2.945498 1_455
Ga2 Tm21 3.139604 1_455
Ga2 Tm20 3.139604 1_555
Ga2 Tm13 3.139604 1_555
Ga2 Tm12 3.139604 1_455
Ga2 Tm17 3.139605 1_455
Ga2 Tm9 3.139605 1_555
Ga2 Tm8 3.139614 1_455
Ga2 Tm16 3.139614 1_555
Ga3 Tm19 3.139604 1_444
Ga3 Tm18 3.139604 1_545
Ga3 Tm11 3.139604 1_555
Ga3 Tm10 3.139604 1_454
Ga3 Tm23 3.139605 1_444
Ga3 Tm15 3.139605 1_555
Ga3 Tm14 3.139614 1_445
Ga3 Tm22 3.139614 1_554
Ga4 Tm0 2.853472 1_555
Ga4 Tm2 2.853494 1_565
Ga4 Tm18 2.900375 1_555
Ga4 Tm20 2.900375 1_555
Ga4 Tm11 2.900395 1_565
Ga4 Tm13 2.900395 1_555
Ga4 Tm6 3.322608 1_565
Ga4 Tm7 3.322608 1_555
Ga4 Tm5 3.427787 1_455
Ga5 Tm2 2.853472 1_555
Ga5 Tm0 2.853494 1_545
Ga5 Tm10 2.900375 1_555
Ga5 Tm12 2.900375 1_555
Ga5 Tm21 2.900395 1_555
Ga5 Tm19 2.900395 1_545
Ga5 Tm7 3.322608 1_545
Ga5 Tm6 3.322608 1_555
Ga5 Tm4 3.427787 1_655
Ga6 Tm1 2.853494 1_555
Ga6 Tm3 2.853494 1_556
Ga6 Tm23 2.900369 1_555
Ga6 Tm9 2.900369 1_555
Ga6 Tm14 2.900379 1_556
Ga6 Tm16 2.900379 1_555
Ga6 Tm5 3.322618 1_556
Ga6 Tm4 3.322618 1_555
Ga6 Tm7 3.427771 1_555
Ga7 Tm1 2.853494 1_554
Ga7 Tm3 2.853494 1_555
Ga7 Tm17 2.900369 1_555
Ga7 Tm15 2.900369 1_555
Ga7 Tm22 2.900379 1_554
Ga7 Tm8 2.900379 1_555
Ga7 Tm4 3.322618 1_554
Ga7 Tm5 3.322618 1_555
Ga7 Tm6 3.427771 1_555
Ga8 Tm4 2.924981 1_555
Ga8 Tm1 2.967071 1_555
Ga8 Tm11 3.011028 1_555
Ga8 Tm13 3.011028 1_545
Ga8 Tm21 3.072201 1_455
Ga8 Tm19 3.072201 1_445
Ga8 Tm22 3.240632 1_555
Ga8 Tm16 3.240632 1_555
Ga8 Tm2 3.625116 1_555
Ga9 Tm5 2.924981 1_556
Ga9 Tm1 2.967071 1_555
Ga9 Tm12 3.011028 1_555
Ga9 Tm10 3.011028 1_555
Ga9 Tm18 3.072201 1_656
Ga9 Tm20 3.072201 1_656
Ga9 Tm17 3.240637 1_556
Ga9 Tm23 3.240637 1_555
Ga9 Tm2 3.625116 1_555
Ga10 Ga14 2.743259 1_564
Ga10 Tm6 2.924981 1_565
Ga10 Tm0 2.967071 1_555
Ga10 Tm14 3.011017 1_555
Ga10 Tm9 3.011029 1_554
Ga10 Tm22 3.072194 1_564
Ga10 Tm17 3.072198 1_565
Ga10 Tm21 3.240632 1_565
Ga10 Tm18 3.240632 1_555
Ga10 Tm3 3.625116 1_555
Ga11 Ga15 2.743259 1_555
Ga11 Tm7 2.924981 1_555
Ga11 Tm0 2.967071 1_555
Ga11 Tm8 3.011017 1_555
Ga11 Tm15 3.011029 1_555
Ga11 Tm16 3.072194 1_555
Ga11 Tm23 3.072198 1_555
Ga11 Tm19 3.240632 1_555
Ga11 Tm20 3.240632 1_555
Ga11 Tm3 3.625116 1_555
Ga12 Ga8 2.743259 1_665
Ga12 Tm5 2.924981 1_555
Ga12 Tm3 2.967071 1_555
Ga12 Tm21 3.011028 1_565
Ga12 Tm19 3.011028 1_555
Ga12 Tm11 3.072201 1_665
Ga12 Tm13 3.072201 1_655
Ga12 Tm14 3.240632 1_555
Ga12 Tm8 3.240632 1_555
Ga12 Tm0 3.625116 1_555
Ga13 Ga9 2.743259 1_454
Ga13 Tm4 2.924981 1_554
Ga13 Tm3 2.967071 1_555
Ga13 Tm20 3.011028 1_555
Ga13 Tm18 3.011028 1_555
Ga13 Tm12 3.072201 1_454
Ga13 Tm10 3.072201 1_454
Ga13 Tm15 3.240637 1_555
Ga13 Tm9 3.240637 1_554
Ga13 Tm0 3.625116 1_555
Ga14 Tm7 2.924981 1_545
Ga14 Tm2 2.967071 1_555
Ga14 Tm22 3.011017 1_555
Ga14 Tm17 3.011029 1_556
Ga14 Tm14 3.072194 1_546
Ga14 Tm9 3.072198 1_545
Ga14 Tm10 3.240632 1_555
Ga14 Tm13 3.240632 1_545
Ga14 Tm1 3.625116 1_555
Ga15 Tm6 2.924981 1_555
Ga15 Tm2 2.967071 1_555
Ga15 Tm16 3.011017 1_555
Ga15 Tm23 3.011029 1_555
Ga15 Tm8 3.072194 1_555
Ga15 Tm15 3.072198 1_555
Ga15 Tm12 3.240632 1_555
Ga15 Tm11 3.240632 1_555
Ga15 Tm1 3.625116 1_555
