# generated using pymatgen
data_Li5Fe2(IrO5)2
_symmetry_space_group_name_H-M   'P 1'
_cell_length_a   8.05595478
_cell_length_b   8.05595478
_cell_length_c   5.16522079
_cell_angle_alpha   83.90910303
_cell_angle_beta   83.90910303
_cell_angle_gamma   142.71289191
_symmetry_Int_Tables_number   1
_chemical_formula_structural   Li5Fe2(IrO5)2
_chemical_formula_sum   'Li5 Fe2 Ir2 O10'
_cell_volume   191.56371401
_cell_formula_units_Z   1
loop_
 _symmetry_equiv_pos_site_id
 _symmetry_equiv_pos_as_xyz
  1  'x, y, z'
loop_
 _atom_site_type_symbol
 _atom_site_label
 _atom_site_symmetry_multiplicity
 _atom_site_fract_x
 _atom_site_fract_y
 _atom_site_fract_z
 _atom_site_occupancy
  Li  Li0  1  0.69836900  0.30163100  0.50000000  1
  Li  Li1  1  0.99753200  0.00246800  0.00000000  1
  Li  Li2  1  0.59724200  0.40275800  0.00000000  1
  Li  Li3  1  0.20448800  0.79551200  0.00000000  1
  Li  Li4  1  0.80147900  0.19852100  0.00000000  1
  Fe  Fe0  1  0.89791000  0.10209000  0.50000000  1
  Fe  Fe1  1  0.50045800  0.49954200  0.50000000  1
  Ir  Ir0  1  0.30121400  0.69878600  0.50000000  1
  Ir  Ir1  1  0.10081500  0.89918500  0.50000000  1
  O  O0  1  0.84711000  0.65698300  0.27129800  1
  O  O1  1  0.42439000  0.02111800  0.27071600  1
  O  O2  1  0.05025700  0.44889400  0.28067200  1
  O  O3  1  0.64626100  0.84674200  0.27804100  1
  O  O4  1  0.23858600  0.23237500  0.27585800  1
  O  O5  1  0.55110600  0.94974300  0.71932800  1
  O  O6  1  0.15325800  0.35373900  0.72195900  1
  O  O7  1  0.76762500  0.76141400  0.72414200  1
  O  O8  1  0.34301700  0.15289000  0.72870200  1
  O  O9  1  0.97888200  0.57561000  0.72928400  1
loop_
_geom_bond_atom_site_label_1
_geom_bond_atom_site_label_2
_geom_bond_distance
_geom_bond_site_symmetry_2
Li0 O2 2.099719 1_655
Li0 O5 2.099719 1_545
Li0 O8 2.133083 1_555
Li0 O0 2.133083 1_555
Li0 O1 2.137028 1_555
Li0 O9 2.137028 1_555
Li1 O0 2.150280 1_545
Li1 O8 2.150280 1_654
Li1 O4 2.157726 1_655
Li1 O7 2.157726 1_544
Li1 O6 2.179566 1_654
Li1 O3 2.179566 1_545
Li2 O7 2.159435 1_554
Li2 O4 2.159435 1_555
Li2 O0 2.204030 1_555
Li2 O8 2.204030 1_554
Li2 O1 2.282298 1_555
Li2 O9 2.282298 1_554
Li3 O9 2.082910 1_454
Li3 O1 2.082910 1_565
Li3 O2 2.163495 1_555
Li3 O5 2.163495 1_554
Li3 O0 2.279770 1_455
Li3 O8 2.279770 1_564
Li4 O3 2.184885 1_545
Li4 O6 2.184885 1_654
Li4 O2 2.234151 1_655
Li4 O5 2.234151 1_544
Li4 O9 2.234336 1_554
Li4 O1 2.234336 1_555
Fe0 O3 2.003419 1_545
Fe0 O6 2.003419 1_655
Fe0 O2 2.042641 1_655
Fe0 O5 2.042641 1_545
Fe0 O7 2.111494 1_545
Fe0 O4 2.111494 1_655
Fe1 O8 2.036847 1_555
Fe1 O0 2.036847 1_555
Fe1 O4 2.060428 1_555
Fe1 O7 2.060428 1_555
Fe1 O3 2.079285 1_555
Fe1 O6 2.079285 1_555
Ir0 O5 1.979192 1_555
Ir0 O2 1.979192 1_555
Ir0 O9 2.031736 1_455
Ir0 O1 2.031736 1_565
Ir0 O6 2.055103 1_555
Ir0 O3 2.055103 1_555
Ir1 O8 2.008905 1_565
Ir1 O0 2.008905 1_455
Ir1 O7 2.025930 1_455
Ir1 O4 2.025930 1_565
Ir1 O1 2.045973 1_565
Ir1 O9 2.045973 1_455
