# generated using pymatgen
data_Li7Mn2(CoO4)3
_symmetry_space_group_name_H-M   'P 1'
_cell_length_a   5.80282105
_cell_length_b   9.78108555
_cell_length_c   8.81792667
_cell_angle_alpha   114.46645101
_cell_angle_beta   108.65599691
_cell_angle_gamma   88.37532514
_symmetry_Int_Tables_number   1
_chemical_formula_structural   Li7Mn2(CoO4)3
_chemical_formula_sum   'Li14 Mn4 Co6 O24'
_cell_volume   428.45101123
_cell_formula_units_Z   2
loop_
 _symmetry_equiv_pos_site_id
 _symmetry_equiv_pos_as_xyz
  1  'x, y, z'
loop_
 _atom_site_type_symbol
 _atom_site_label
 _atom_site_symmetry_multiplicity
 _atom_site_fract_x
 _atom_site_fract_y
 _atom_site_fract_z
 _atom_site_occupancy
  Li  Li0  1  0.91797500  0.66686100  0.83555400  1
  Li  Li1  1  0.41533900  0.66649600  0.83112800  1
  Li  Li2  1  0.66661100  0.16667900  0.83333100  1
  Li  Li3  1  0.16661800  0.16668300  0.83333300  1
  Li  Li4  1  0.41707500  0.16667000  0.33337600  1
  Li  Li5  1  0.91623600  0.16670000  0.33334100  1
  Li  Li6  1  0.59462100  0.33332900  0.19329100  1
  Li  Li7  1  0.09518900  0.33046000  0.19177700  1
  Li  Li8  1  0.23815300  0.00285900  0.47491100  1
  Li  Li9  1  0.73871400  0.99997100  0.47337100  1
  Li  Li10  1  0.84619400  0.84140700  0.17035300  1
  Li  Li11  1  0.34525100  0.84069000  0.17054500  1
  Li  Li12  1  0.98810600  0.49266900  0.49616000  1
  Li  Li13  1  0.48717400  0.49195600  0.49635100  1
  Mn  Mn0  1  0.01226300  0.00317600  0.01303800  1
  Mn  Mn1  1  0.51221900  0.00338100  0.01288600  1
  Mn  Mn2  1  0.82111700  0.32993900  0.65377100  1
  Mn  Mn3  1  0.32107200  0.33013500  0.65359800  1
  Co  Co0  1  0.16669000  0.66665600  0.33333500  1
  Co  Co1  1  0.74325600  0.49623500  0.00104100  1
  Co  Co2  1  0.24246300  0.49543800  0.00052200  1
  Co  Co3  1  0.09088600  0.83789700  0.66612400  1
  Co  Co4  1  0.59008600  0.83709900  0.66562300  1
  Co  Co5  1  0.66668400  0.66666500  0.33334100  1
  O  O0  1  0.78634000  0.14881900  0.07475200  1
  O  O1  1  0.28607100  0.14865700  0.07466300  1
  O  O2  1  0.54696700  0.18449200  0.59187500  1
  O  O3  1  0.04724400  0.18466000  0.59196800  1
  O  O4  1  0.54452500  0.65098700  0.08636900  1
  O  O5  1  0.04042500  0.65114300  0.07665700  1
  O  O6  1  0.29291000  0.68217700  0.59001000  1
  O  O7  1  0.78882600  0.68234800  0.58031400  1
  O  O8  1  0.21515300  0.33642000  0.43809300  1
  O  O9  1  0.71556800  0.33664800  0.43860100  1
  O  O10  1  0.11817900  0.99694400  0.22855900  1
  O  O11  1  0.61777400  0.99673000  0.22808700  1
  O  O12  1  0.96914400  0.82469300  0.41438800  1
  O  O13  1  0.46974400  0.82234200  0.41411600  1
  O  O14  1  0.86361900  0.51099700  0.25257100  1
  O  O15  1  0.36421000  0.50863600  0.25228400  1
  O  O16  1  0.60896300  0.48261600  0.74424100  1
  O  O17  1  0.10919600  0.48265600  0.74417300  1
  O  O18  1  0.72437200  0.85070000  0.92241800  1
  O  O19  1  0.22414800  0.85065600  0.92248200  1
  O  O20  1  0.89584500  0.99216700  0.76245200  1
  O  O21  1  0.39540900  0.99272000  0.76239000  1
  O  O22  1  0.93790300  0.34059700  0.90425100  1
  O  O23  1  0.43747200  0.34114600  0.90418300  1
loop_
_geom_bond_atom_site_label_1
_geom_bond_atom_site_label_2
_geom_bond_distance
_geom_bond_site_symmetry_2
Li0 O5 2.084848 1_656
Li0 O18 2.092194 1_555
Li0 O17 2.093531 1_655
Li0 O7 2.201597 1_555
Li0 O19 2.268104 1_655
Li0 O16 2.273521 1_555
Li1 O6 2.084795 1_555
Li1 O16 2.092585 1_555
Li1 O19 2.093072 1_555
Li1 O4 2.201711 1_556
Li1 O17 2.268222 1_555
Li1 O18 2.273384 1_555
Li2 O0 2.097631 1_556
Li2 O2 2.097693 1_555
Li2 O21 2.098441 1_545
Li2 O22 2.098562 1_555
Li2 O23 2.142444 1_555
Li2 O20 2.143153 1_545
Li3 O1 2.097671 1_556
Li3 O3 2.097723 1_555
Li3 O20 2.100769 1_445
Li3 O23 2.100795 1_555
Li3 O22 2.137279 1_455
Li3 O21 2.137935 1_545
Li4 O11 2.070006 1_545
Li4 O8 2.072257 1_555
Li4 O2 2.091273 1_555
Li4 O1 2.092479 1_555
Li4 O9 2.117198 1_555
Li4 O10 2.117830 1_545
Li5 O9 2.069855 1_555
Li5 O10 2.072544 1_645
Li5 O0 2.091813 1_555
Li5 O3 2.091952 1_655
Li5 O11 2.116985 1_545
Li5 O8 2.117965 1_655
Li6 O9 2.035827 1_555
Li6 O15 2.138823 1_555
Li6 O14 2.146872 1_555
Li6 O0 2.157502 1_555
Li6 O1 2.232202 1_555
Li6 O23 2.450859 1_554
Li7 O8 2.033631 1_555
Li7 O1 2.134126 1_555
Li7 O15 2.147098 1_555
Li7 O14 2.180249 1_455
Li7 O0 2.216314 1_455
Li7 O22 2.448195 1_454
Li8 O10 2.034110 1_545
Li8 O3 2.134062 1_555
Li8 O12 2.146935 1_445
Li8 O13 2.180197 1_545
Li8 O2 2.216193 1_555
Li8 O21 2.447810 1_545
Li9 O11 2.035926 1_555
Li9 O12 2.138695 1_555
Li9 O13 2.146556 1_555
Li9 O2 2.157580 1_565
Li9 O3 2.232263 1_665
Li9 O20 2.450575 1_555
Li10 O11 2.000252 1_555
Li10 O10 2.009960 1_655
Li10 O18 2.111864 1_554
Li10 O12 2.113978 1_555
Li10 O5 2.149290 1_655
Li10 O4 2.301029 1_555
Li11 O10 2.000791 1_555
Li11 O11 2.017360 1_555
Li11 O19 2.115978 1_554
Li11 O13 2.118102 1_555
Li11 O4 2.148866 1_555
Li11 O5 2.286731 1_555
Li12 O8 2.000726 1_655
Li12 O9 2.017251 1_555
Li12 O17 2.115775 1_655
Li12 O14 2.118154 1_555
Li12 O7 2.148691 1_555
Li12 O6 2.286458 1_655
Li13 O9 2.000071 1_555
Li13 O8 2.009963 1_555
Li13 O16 2.111701 1_555
Li13 O15 2.114082 1_555
Li13 O6 2.149056 1_555
Li13 O7 2.300818 1_555
Mn0 O10 1.827491 1_545
Mn0 O0 1.937155 1_455
Mn0 O1 1.944201 1_555
Mn0 O19 1.977945 1_544
Mn0 O18 1.988385 1_444
Mn0 O20 2.050011 1_444
Mn1 O11 1.826682 1_545
Mn1 O1 1.936087 1_555
Mn1 O0 1.944687 1_555
Mn1 O18 1.979752 1_544
Mn1 O19 1.990970 1_544
Mn1 O21 2.050538 1_544
Mn2 O9 1.826682 1_555
Mn2 O3 1.936058 1_655
Mn2 O2 1.944794 1_555
Mn2 O16 1.979739 1_555
Mn2 O17 1.990960 1_655
Mn2 O22 2.050417 1_555
Mn3 O8 1.827593 1_555
Mn3 O2 1.937049 1_555
Mn3 O3 1.944237 1_555
Mn3 O17 1.977962 1_555
Mn3 O16 1.988379 1_555
Mn3 O23 2.049997 1_555
Co0 O15 1.929259 1_555
Co0 O12 1.929472 1_455
Co0 O6 2.084066 1_555
Co0 O5 2.084122 1_555
Co0 O14 2.090584 1_455
Co0 O13 2.090637 1_555
Co1 O4 1.923510 1_555
Co1 O22 1.940277 1_554
Co1 O14 2.043878 1_555
Co1 O23 2.070986 1_554
Co1 O5 2.071149 1_655
Co1 O16 2.092795 1_554
Co2 O5 1.923546 1_555
Co2 O23 1.932861 1_554
Co2 O15 2.051496 1_555
Co2 O22 2.065127 1_454
Co2 O4 2.075692 1_555
Co2 O17 2.091984 1_554
Co3 O6 1.923542 1_555
Co3 O20 1.932837 1_455
Co3 O12 2.051257 1_455
Co3 O21 2.064871 1_555
Co3 O7 2.075752 1_455
Co3 O19 2.092142 1_555
Co4 O7 1.923498 1_555
Co4 O21 1.940240 1_555
Co4 O13 2.043705 1_555
Co4 O20 2.070800 1_555
Co4 O6 2.071271 1_555
Co4 O18 2.092819 1_555
Co5 O14 1.911888 1_555
Co5 O13 1.911974 1_555
Co5 O7 2.002645 1_555
Co5 O4 2.002655 1_555
Co5 O12 2.101592 1_555
Co5 O15 2.101638 1_555
