# generated using pymatgen
data_Rb2Ti(SiO3)3
_symmetry_space_group_name_H-M   'P 1'
_cell_length_a   7.00224830
_cell_length_b   7.00224830
_cell_length_c   10.10434400
_cell_angle_alpha   90.00000000
_cell_angle_beta   90.00000000
_cell_angle_gamma   120.00000285
_symmetry_Int_Tables_number   1
_chemical_formula_structural   Rb2Ti(SiO3)3
_chemical_formula_sum   'Rb4 Ti2 Si6 O18'
_cell_volume   429.05577938
_cell_formula_units_Z   2
loop_
 _symmetry_equiv_pos_site_id
 _symmetry_equiv_pos_as_xyz
  1  'x, y, z'
loop_
 _atom_site_type_symbol
 _atom_site_label
 _atom_site_symmetry_multiplicity
 _atom_site_fract_x
 _atom_site_fract_y
 _atom_site_fract_z
 _atom_site_occupancy
  Rb  Rb0  1  0.33333300  0.66666700  0.43999500  1
  Rb  Rb1  1  0.66666700  0.33333300  0.93999500  1
  Rb  Rb2  1  0.66666700  0.33333300  0.56000500  1
  Rb  Rb3  1  0.33333300  0.66666700  0.06000500  1
  Ti  Ti0  1  0.00000000  0.00000000  0.50000000  1
  Ti  Ti1  1  0.00000000  0.00000000  0.00000000  1
  Si  Si0  1  0.62109800  0.76163500  0.75000000  1
  Si  Si1  1  0.85946300  0.62109800  0.25000000  1
  Si  Si2  1  0.76163500  0.14053700  0.25000000  1
  Si  Si3  1  0.23836500  0.85946300  0.75000000  1
  Si  Si4  1  0.14053700  0.37890200  0.75000000  1
  Si  Si5  1  0.37890200  0.23836500  0.25000000  1
  O  O0  1  0.24751400  0.20764700  0.38703200  1
  O  O1  1  0.03986700  0.24751400  0.88703200  1
  O  O2  1  0.20764700  0.96013300  0.88703200  1
  O  O3  1  0.79235300  0.03986700  0.38703200  1
  O  O4  1  0.96013300  0.75248600  0.38703200  1
  O  O5  1  0.75248600  0.79235300  0.88703200  1
  O  O6  1  0.75248600  0.79235300  0.61296800  1
  O  O7  1  0.96013300  0.75248600  0.11296800  1
  O  O8  1  0.79235300  0.03986700  0.11296800  1
  O  O9  1  0.20764700  0.96013300  0.61296800  1
  O  O10  1  0.03986700  0.24751400  0.61296800  1
  O  O11  1  0.24751400  0.20764700  0.11296800  1
  O  O12  1  0.49882800  0.08445200  0.25000000  1
  O  O13  1  0.41437700  0.49882800  0.75000000  1
  O  O14  1  0.08445200  0.58562300  0.75000000  1
  O  O15  1  0.91554800  0.41437700  0.25000000  1
  O  O16  1  0.58562300  0.50117200  0.25000000  1
  O  O17  1  0.50117200  0.91554800  0.75000000  1
loop_
_geom_bond_atom_site_label_1
_geom_bond_atom_site_label_2
_geom_bond_distance
_geom_bond_site_symmetry_2
O0 Si5 1.616158 1_555
O0 Ti0 1.975064 1_555
O0 Rb0 3.007811 1_555
O0 Rb2 3.140147 1_555
O1 Si4 1.616158 1_555
O1 Ti1 1.975064 1_556
O1 Rb1 3.007804 1_455
O1 Rb3 3.140146 1_556
O2 Si3 1.616158 1_555
O2 Ti1 1.975064 1_566
O2 Rb1 3.007808 1_565
O2 Rb3 3.140141 1_556
O3 Si2 1.616158 1_555
O3 Ti0 1.975064 1_655
O3 Rb0 3.007808 1_545
O3 Rb2 3.140141 1_555
O4 Si1 1.616158 1_555
O4 Ti0 1.975064 1_665
O4 Rb0 3.007804 1_655
O4 Rb2 3.140146 1_555
O5 Si0 1.616158 1_555
O5 Ti1 1.975064 1_666
O5 Rb1 3.007811 1_555
O5 Rb3 3.140147 1_556
O6 Si0 1.616158 1_555
O6 Ti0 1.975064 1_665
O6 Rb2 3.007811 1_555
O6 Rb0 3.140147 1_555
O7 Si1 1.616158 1_555
O7 Ti1 1.975064 1_665
O7 Rb3 3.007804 1_655
O7 Rb1 3.140146 1_554
O8 Si2 1.616158 1_555
O8 Ti1 1.975064 1_655
O8 Rb3 3.007808 1_545
O8 Rb1 3.140141 1_554
O9 Si3 1.616158 1_555
O9 Ti0 1.975064 1_565
O9 Rb2 3.007808 1_565
O9 Rb0 3.140141 1_555
O10 Si4 1.616158 1_555
O10 Ti0 1.975064 1_555
O10 Rb2 3.007804 1_455
O10 Rb0 3.140146 1_555
O11 Si5 1.616158 1_555
O11 Ti1 1.975064 1_555
O11 Rb3 3.007811 1_555
O11 Rb1 3.140147 1_554
O12 Si5 1.664852 1_555
O12 Si2 1.678693 1_555
O12 Rb3 3.193196 1_545
O12 Rb0 3.193196 1_545
O13 Si4 1.664858 1_555
O13 Si0 1.678691 1_555
O13 Rb2 3.193196 1_555
O13 Rb1 3.193196 1_555
O14 Si3 1.664858 1_555
O14 Si4 1.678687 1_555
O14 Rb1 3.193196 1_455
O14 Rb2 3.193196 1_455
O15 Si2 1.664858 1_555
O15 Si1 1.678687 1_555
O15 Rb3 3.193196 1_655
O15 Rb0 3.193196 1_655
O16 Si1 1.664858 1_555
O16 Si5 1.678691 1_555
O16 Rb3 3.193196 1_555
O16 Rb0 3.193196 1_555
O17 Si0 1.664852 1_555
O17 Si3 1.678693 1_555
O17 Rb2 3.193196 1_565
O17 Rb1 3.193196 1_565
