# generated using pymatgen
data_K2ZrF6
_symmetry_space_group_name_H-M   'P 1'
_cell_length_a   6.56015907
_cell_length_b   6.58094830
_cell_length_c   6.88266948
_cell_angle_alpha   90.00000000
_cell_angle_beta   90.00000000
_cell_angle_gamma   119.89556101
_symmetry_Int_Tables_number   1
_chemical_formula_structural   K2ZrF6
_chemical_formula_sum   'K4 Zr2 F12'
_cell_volume   257.60037097
_cell_formula_units_Z   2
loop_
 _symmetry_equiv_pos_site_id
 _symmetry_equiv_pos_as_xyz
  1  'x, y, z'
loop_
 _atom_site_type_symbol
 _atom_site_label
 _atom_site_symmetry_multiplicity
 _atom_site_fract_x
 _atom_site_fract_y
 _atom_site_fract_z
 _atom_site_occupancy
  K  K0  1  0.34469906  0.68939912  0.49993193  1
  K  K1  1  0.65530094  0.31060088  0.50006807  1
  K  K2  1  0.65530094  0.31060088  -0.00006807  1
  K  K3  1  0.34469906  0.68939912  0.00006807  1
  Zr  Zr0  1  0.94830250  0.89660501  0.25000000  1
  Zr  Zr1  1  0.05169750  0.10339499  0.75000000  1
  F  F0  1  0.10071390  0.20142880  0.04760061  1
  F  F1  1  0.89928610  0.79857120  0.95239939  1
  F  F2  1  0.89928610  0.79857120  0.54760061  1
  F  F3  1  0.10071390  0.20142880  0.45239939  1
  F  F4  1  0.39074408  0.39924950  0.75000000  1
  F  F5  1  0.99149457  0.60075050  0.25000000  1
  F  F6  1  0.69729497  0.98174171  0.75000000  1
  F  F7  1  0.71555426  0.01825829  0.25000000  1
  F  F8  1  0.30270503  0.01825829  0.25000000  1
  F  F9  1  0.28444574  0.98174171  0.75000000  1
  F  F10  1  0.00850543  0.39924950  0.75000000  1
  F  F11  1  0.60925592  0.60075050  0.25000000  1
loop_
_geom_bond_atom_site_label_1
_geom_bond_atom_site_label_2
_geom_bond_distance
_geom_bond_site_symmetry_2
F0 Zr1 2.123277 1_554
F0 Zr0 2.228238 1_445
F0 K3 2.803152 1_555
F1 Zr0 2.123277 1_556
F1 Zr1 2.228238 1_665
F1 K2 2.803152 1_556
F2 Zr0 2.123277 1_555
F2 Zr1 2.228238 1_665
F2 K1 2.803152 1_555
F3 Zr1 2.123277 1_555
F3 Zr0 2.228238 1_445
F3 K0 2.803152 1_555
F4 Zr1 2.102627 1_555
F4 K3 2.697136 1_556
F4 K0 2.697136 1_555
F4 K1 2.705700 1_555
F4 K2 2.705700 1_556
F5 Zr0 2.102627 1_555
F5 K2 2.697133 1_555
F5 K1 2.697133 1_555
F5 K3 2.705695 1_655
F5 K0 2.705695 1_655
F6 Zr1 2.047152 1_665
F6 K3 2.752810 1_556
F6 K0 2.752810 1_555
F6 K1 2.883243 1_565
F6 K2 2.883243 1_566
F7 Zr0 2.047146 1_545
F7 K1 2.752810 1_555
F7 K2 2.752810 1_555
F7 K0 2.883249 1_545
F7 K3 2.883249 1_545
F8 Zr0 2.047152 1_445
F8 K1 2.752810 1_555
F8 K2 2.752810 1_555
F8 K3 2.883243 1_545
F8 K0 2.883243 1_545
F9 Zr1 2.047146 1_565
F9 K0 2.752810 1_555
F9 K3 2.752810 1_556
F9 K1 2.883249 1_565
F9 K2 2.883249 1_566
F10 Zr1 2.102627 1_555
F10 K3 2.697133 1_556
F10 K0 2.697133 1_555
F10 K1 2.705695 1_455
F10 K2 2.705695 1_456
F11 Zr0 2.102627 1_555
F11 K2 2.697136 1_555
F11 K1 2.697136 1_555
F11 K3 2.705700 1_555
F11 K0 2.705700 1_555
