# generated using pymatgen
data_BaAgSF
_symmetry_space_group_name_H-M   'P 1'
_cell_length_a   4.30442900
_cell_length_b   4.30442900
_cell_length_c   9.41990900
_cell_angle_alpha   90.00000000
_cell_angle_beta   90.00000000
_cell_angle_gamma   90.00000000
_symmetry_Int_Tables_number   1
_chemical_formula_structural   BaAgSF
_chemical_formula_sum   'Ba2 Ag2 S2 F2'
_cell_volume   174.53310087
_cell_formula_units_Z   2
loop_
 _symmetry_equiv_pos_site_id
 _symmetry_equiv_pos_as_xyz
  1  'x, y, z'
loop_
 _atom_site_type_symbol
 _atom_site_label
 _atom_site_symmetry_multiplicity
 _atom_site_fract_x
 _atom_site_fract_y
 _atom_site_fract_z
 _atom_site_occupancy
  Ba  Ba0  1  0.00000000  0.50000000  0.83279900  1
  Ba  Ba1  1  0.50000000  0.00000000  0.16720100  1
  Ag  Ag0  1  0.50000000  0.50000000  0.50000000  1
  Ag  Ag1  1  0.00000000  0.00000000  0.50000000  1
  S  S0  1  0.00000000  0.50000000  0.32441600  1
  S  S1  1  0.50000000  0.00000000  0.67558400  1
  F  F0  1  0.50000000  0.50000000  0.00000000  1
  F  F1  1  0.00000000  0.00000000  0.00000000  1
loop_
_geom_bond_atom_site_label_1
_geom_bond_atom_site_label_2
_geom_bond_distance
_geom_bond_site_symmetry_2
Ba0 F1 2.666966 1_566
Ba0 F1 2.666966 1_556
Ba0 F0 2.666966 1_556
Ba0 F0 2.666966 1_456
Ba0 S1 3.384859 1_465
Ba0 S1 3.384859 1_455
Ba0 S1 3.384859 1_565
Ba0 S1 3.384859 1_555
Ba1 F0 2.666966 1_545
Ba1 F0 2.666966 1_555
Ba1 F1 2.666966 1_555
Ba1 F1 2.666966 1_655
Ba1 S0 3.384859 1_545
Ba1 S0 3.384859 1_655
Ba1 S0 3.384859 1_645
Ba1 S0 3.384859 1_555
Ag0 S1 2.714350 1_565
Ag0 S1 2.714350 1_555
Ag0 S0 2.714350 1_655
Ag0 S0 2.714350 1_555
Ag1 S1 2.714350 1_455
Ag1 S1 2.714350 1_555
Ag1 S0 2.714350 1_555
Ag1 S0 2.714350 1_545
