# generated using pymatgen
data_Yb(MgSb)2
_symmetry_space_group_name_H-M   'P 1'
_cell_length_a   4.68340500
_cell_length_b   4.68340500
_cell_length_c   7.54904100
_cell_angle_alpha   90.00000000
_cell_angle_beta   90.00000000
_cell_angle_gamma   120.00001419
_symmetry_Int_Tables_number   1
_chemical_formula_structural   Yb(MgSb)2
_chemical_formula_sum   'Yb1 Mg2 Sb2'
_cell_volume   143.39888849
_cell_formula_units_Z   1
loop_
 _symmetry_equiv_pos_site_id
 _symmetry_equiv_pos_as_xyz
  1  'x, y, z'
loop_
 _atom_site_type_symbol
 _atom_site_label
 _atom_site_symmetry_multiplicity
 _atom_site_fract_x
 _atom_site_fract_y
 _atom_site_fract_z
 _atom_site_occupancy
  Yb  Yb0  1  0.00000000  0.00000000  0.00000000  1
  Mg  Mg0  1  0.33333300  0.66666700  0.36830000  1
  Mg  Mg1  1  0.66666700  0.33333300  0.63170000  1
  Sb  Sb0  1  0.33333300  0.66666700  0.75821200  1
  Sb  Sb1  1  0.66666700  0.33333300  0.24178800  1
loop_
_geom_bond_atom_site_label_1
_geom_bond_atom_site_label_2
_geom_bond_distance
_geom_bond_site_symmetry_2
Mg0 Sb1 2.867668 1_455
Mg0 Sb1 2.867668 1_565
Mg0 Sb1 2.867676 1_555
Mg0 Sb0 2.943462 1_555
Mg1 Sb0 2.867668 1_545
Mg1 Sb0 2.867668 1_655
Mg1 Sb0 2.867676 1_555
Mg1 Sb1 2.943462 1_555
Sb0 Yb0 3.262363 1_566
Sb0 Yb0 3.262366 1_666
Sb0 Yb0 3.262366 1_556
Sb1 Yb0 3.262363 1_655
Sb1 Yb0 3.262366 1_555
Sb1 Yb0 3.262366 1_665
