# generated using pymatgen
data_Ca16Mn14Al2O41
_symmetry_space_group_name_H-M   'P 1'
_cell_length_a   10.92954177
_cell_length_b   15.41426188
_cell_length_c   10.95144977
_cell_angle_alpha   90.10429838
_cell_angle_beta   92.04605290
_cell_angle_gamma   89.99644409
_symmetry_Int_Tables_number   1
_chemical_formula_structural   Ca16Mn14Al2O41
_chemical_formula_sum   'Ca32 Mn28 Al4 O82'
_cell_volume   1843.82038441
_cell_formula_units_Z   2
loop_
 _symmetry_equiv_pos_site_id
 _symmetry_equiv_pos_as_xyz
  1  'x, y, z'
loop_
 _atom_site_type_symbol
 _atom_site_label
 _atom_site_symmetry_multiplicity
 _atom_site_fract_x
 _atom_site_fract_y
 _atom_site_fract_z
 _atom_site_occupancy
  Ca  Ca0  1  0.99112881  0.11890064  0.52856121  1
  Ca  Ca1  1  0.01318531  0.11623893  0.98438567  1
  Ca  Ca2  1  0.00856551  0.61148100  0.50916869  1
  Ca  Ca3  1  0.99679526  0.60989401  0.01539320  1
  Ca  Ca4  1  0.53453986  0.13066605  0.50105413  1
  Ca  Ca5  1  0.53128858  0.12219219  0.99273990  1
  Ca  Ca6  1  0.53620921  0.63092069  0.47401289  1
  Ca  Ca7  1  0.54722615  0.63125904  0.97792809  1
  Ca  Ca8  1  0.50522637  0.35640046  0.99730761  1
  Ca  Ca9  1  0.50875926  0.35834835  0.48463769  1
  Ca  Ca10  1  0.50396836  0.89032371  0.98361670  1
  Ca  Ca11  1  0.48713302  0.88693078  0.50510343  1
  Ca  Ca12  1  0.96449610  0.38003958  0.00285090  1
  Ca  Ca13  1  0.95746677  0.38972876  0.52090009  1
  Ca  Ca14  1  0.97670319  0.88080493  0.98783402  1
  Ca  Ca15  1  0.95844556  0.86869695  0.52895384  1
  Ca  Ca16  1  0.23911481  0.37695881  0.25788101  1
  Ca  Ca17  1  0.22751958  0.38920769  0.76903163  1
  Ca  Ca18  1  0.25657071  0.89222422  0.25946275  1
  Ca  Ca19  1  0.24331950  0.89169292  0.76364990  1
  Ca  Ca20  1  0.73556206  0.36614348  0.24536899  1
  Ca  Ca21  1  0.74719041  0.36051354  0.75455869  1
  Ca  Ca22  1  0.75207604  0.88387643  0.24979102  1
  Ca  Ca23  1  0.72819222  0.88414505  0.75652742  1
  Ca  Ca24  1  0.27581411  0.13326389  0.22810130  1
  Ca  Ca25  1  0.26327123  0.12023858  0.75756355  1
  Ca  Ca26  1  0.22787211  0.61816132  0.24649171  1
  Ca  Ca27  1  0.22723673  0.61537795  0.73900262  1
  Ca  Ca28  1  0.73669443  0.12727592  0.24617161  1
  Ca  Ca29  1  0.76772754  0.11727954  0.75896411  1
  Ca  Ca30  1  0.78560498  0.62209706  0.25568811  1
  Ca  Ca31  1  0.77759826  0.62298817  0.75371952  1
  Mn  Mn0  1  0.02465904  0.98831380  0.25555627  1
  Mn  Mn1  1  0.99784290  0.99713337  0.75132134  1
  Mn  Mn2  1  0.99494970  0.49253037  0.26353130  1
  Mn  Mn3  1  0.99151538  0.49774807  0.75760802  1
  Mn  Mn4  1  0.48845455  0.00495878  0.74610174  1
  Mn  Mn5  1  0.50822989  0.49059311  0.22884140  1
  Mn  Mn6  1  0.50861736  0.48764559  0.72647524  1
  Mn  Mn7  1  0.25247394  0.00299114  0.00415924  1
  Mn  Mn8  1  0.23946579  0.49713292  0.01866316  1
  Mn  Mn9  1  0.24435577  0.49681247  0.51570363  1
  Mn  Mn10  1  0.75462978  0.00027154  0.00484345  1
  Mn  Mn11  1  0.73288470  0.99723824  0.50740378  1
  Mn  Mn12  1  0.74397008  0.49946211  0.99792352  1
  Mn  Mn13  1  0.73901872  0.50152670  0.49432816  1
  Mn  Mn14  1  0.24149181  0.24200713  0.46764292  1
  Mn  Mn15  1  0.26753904  0.73539908  0.95548181  1
  Mn  Mn16  1  0.26486953  0.74851944  0.45482583  1
  Mn  Mn17  1  0.76235348  0.24546026  0.00563262  1
  Mn  Mn18  1  0.75646030  0.24687464  0.50020866  1
  Mn  Mn19  1  0.76004802  0.75068805  0.00657520  1
  Mn  Mn20  1  0.74914492  0.74845218  0.50447113  1
  Mn  Mn21  1  0.00506500  0.25012998  0.76437779  1
  Mn  Mn22  1  0.99525011  0.75496487  0.26848822  1
  Mn  Mn23  1  0.99183836  0.75059312  0.76257864  1
  Mn  Mn24  1  0.50038454  0.24454104  0.24662833  1
  Mn  Mn25  1  0.51165159  0.24470680  0.75629658  1
  Mn  Mn26  1  0.51958285  0.76206702  0.25188473  1
  Mn  Mn27  1  0.51122068  0.75011021  0.74615762  1
  Al  Al0  1  0.51147940  0.99951803  0.23063452  1
  Al  Al1  1  0.22115846  0.00115340  0.51818377  1
  Al  Al2  1  0.27596978  0.25088697  0.97984577  1
  Al  Al3  1  0.98267425  0.26489061  0.28011063  1
  O  O0  1  0.62190210  0.26208986  0.11710839  1
  O  O1  1  0.61158043  0.26416998  0.61243904  1
  O  O2  1  0.58508842  0.76509181  0.09379890  1
  O  O3  1  0.57887621  0.75986493  0.58081030  1
  O  O4  1  0.39906998  0.22047857  0.38655875  1
  O  O5  1  0.41009611  0.22756525  0.89514129  1
  O  O6  1  0.40309800  0.69975990  0.33993255  1
  O  O7  1  0.39759204  0.68414853  0.84924242  1
  O  O8  1  0.89462659  0.21453741  0.39263766  1
  O  O9  1  0.90427815  0.23566575  0.90984280  1
  O  O10  1  0.90792730  0.73170441  0.42798719  1
  O  O11  1  0.91654882  0.73609989  0.92594984  1
  O  O12  1  0.13592304  0.23218335  0.29836644  1
  O  O13  1  0.17302273  0.24792977  0.82824186  1
  O  O14  1  0.16685574  0.75628632  0.28916917  1
  O  O15  1  0.16547437  0.74892966  0.80412013  1
  O  O16  1  0.64233142  0.22962206  0.36341457  1
  O  O17  1  0.66185869  0.22781827  0.86185814  1
  O  O18  1  0.66075747  0.72430075  0.34529610  1
  O  O19  1  0.66033685  0.73127006  0.85639200  1
  O  O20  1  0.36086615  0.26626572  0.13874027  1
  O  O21  1  0.88527019  0.26425998  0.14745072  1
  O  O22  1  0.87627523  0.26940111  0.63153950  1
  O  O23  1  0.85611651  0.77498621  0.15762320  1
  O  O24  1  0.84123781  0.77246107  0.65740217  1
  O  O25  1  0.34528593  0.49987984  0.16940980  1
  O  O26  1  0.34533001  0.49897790  0.66851764  1
  O  O27  1  0.35811965  0.99662631  0.15078658  1
  O  O28  1  0.34327974  0.99489313  0.63538835  1
  O  O29  1  0.85205621  0.47882968  0.15398507  1
  O  O30  1  0.83747810  0.48006672  0.64748098  1
  O  O31  1  0.86892993  0.00648242  0.18830167  1
  O  O32  1  0.85201764  0.98026261  0.64404227  1
  O  O33  1  0.16840210  0.01948243  0.35636591  1
  O  O34  1  0.14595261  0.01146169  0.85379802  1
  O  O35  1  0.15372203  0.50933424  0.36482766  1
  O  O36  1  0.14833603  0.51180330  0.86811564  1
  O  O37  1  0.61961811  0.01944856  0.36707871  1
  O  O38  1  0.63075642  0.01522727  0.85328357  1
  O  O39  1  0.63436466  0.52999509  0.33881478  1
  O  O40  1  0.63010073  0.52910922  0.83562493  1
  O  O41  1  0.38944988  0.02084097  0.89652884  1
  O  O42  1  0.89404039  0.01084946  0.89342245  1
  O  O43  1  0.88898976  0.51894363  0.40132120  1
  O  O44  1  0.89035928  0.51324271  0.89721792  1
  O  O45  1  0.09598399  0.46851802  0.12636539  1
  O  O46  1  0.09534306  0.48285921  0.62085504  1
  O  O47  1  0.10919840  0.97782080  0.10201026  1
  O  O48  1  0.08609186  0.97896132  0.59976692  1
  O  O49  1  0.58276938  0.49397497  0.07527893  1
  O  O50  1  0.57744447  0.49332907  0.56813515  1
  O  O51  1  0.61781857  0.97888720  0.11483543  1
  O  O52  1  0.59326007  0.98672623  0.61529869  1
  O  O53  1  0.99890217  0.37597027  0.31643620  1
  O  O54  1  0.00416902  0.37273934  0.78776707  1
  O  O55  1  0.98903990  0.87867067  0.32081013  1
  O  O56  1  0.00970373  0.87450034  0.77942298  1
  O  O57  1  0.50832492  0.37024026  0.27964438  1
  O  O58  1  0.49563739  0.36981719  0.78233101  1
  O  O59  1  0.47716934  0.88501973  0.28688679  1
  O  O60  1  0.47996473  0.87728197  0.76980390  1
  O  O61  1  0.50182573  0.12179253  0.21032201  1
  O  O62  1  0.47592398  0.13066438  0.70288880  1
  O  O63  1  0.99296578  0.12451376  0.73408829  1
  O  O64  1  0.00291951  0.62619784  0.22755558  1
  O  O65  1  0.99569741  0.62854263  0.72128915  1
  O  O66  1  0.21135136  0.14884583  0.02928927  1
  O  O67  1  0.20499745  0.13039137  0.54689536  1
  O  O68  1  0.22346782  0.62851646  0.03385448  1
  O  O69  1  0.23201278  0.63142683  0.52916788  1
  O  O70  1  0.75170090  0.12248006  0.03615167  1
  O  O71  1  0.75537034  0.11917111  0.53748970  1
  O  O72  1  0.75429184  0.62619177  0.04121729  1
  O  O73  1  0.74042745  0.62614332  0.54189180  1
  O  O74  1  0.28336695  0.37320218  0.48362596  1
  O  O75  1  0.27558033  0.37554057  0.97741314  1
  O  O76  1  0.27165264  0.87855170  0.47810519  1
  O  O77  1  0.29015072  0.85376934  0.97973384  1
  O  O78  1  0.74539630  0.37547439  0.46077068  1
  O  O79  1  0.74853056  0.37284645  0.97011981  1
  O  O80  1  0.75092757  0.87665964  0.46209446  1
  O  O81  1  0.76097726  0.87602778  0.97171997  1
loop_
_geom_bond_atom_site_label_1
_geom_bond_atom_site_label_2
_geom_bond_distance
_geom_bond_site_symmetry_2
Ca0 O63 2.251698 1_555
Ca0 O8 2.323171 1_555
Ca0 O67 2.345621 1_655
Ca0 O48 2.507251 1_645
Ca0 O71 2.582076 1_555
Ca0 O32 2.936909 1_545
Ca1 O66 2.260220 1_556
Ca1 O42 2.286666 1_455
Ca1 O9 2.325489 1_455
Ca1 O34 2.626560 1_555
Ca1 O47 2.688134 1_546
Ca1 O63 2.745333 1_455
Ca1 O70 2.934914 1_456
Ca2 O43 2.240860 1_455
Ca2 O10 2.317405 1_455
Ca2 O65 2.346593 1_455
Ca2 O69 2.463407 1_555
Ca2 O46 2.500416 1_555
Ca2 O35 2.768487 1_555
Ca3 O44 2.265703 1_554
Ca3 O64 2.335165 1_655
Ca3 O11 2.336357 1_554
Ca3 O68 2.495001 1_655
Ca3 O72 2.687223 1_555
Ca3 O45 2.704890 1_655
Ca3 O36 2.795064 1_654
Ca4 O62 2.323216 1_555
Ca4 O4 2.356805 1_555
Ca4 O71 2.438729 1_555
Ca4 O37 2.458539 1_555
Ca4 O16 2.474288 1_555
Ca4 O1 2.519824 1_555
Ca4 O52 2.617745 1_545
Ca5 O5 2.332398 1_555
Ca5 O41 2.414894 1_555
Ca5 O61 2.415885 1_556
Ca5 O70 2.438763 1_556
Ca5 O38 2.518336 1_555
Ca5 O17 2.626161 1_555
Ca5 O0 2.716488 1_556
Ca5 O51 2.735311 1_546
Ca6 O6 2.291633 1_555
Ca6 O73 2.328434 1_555
Ca6 O3 2.342772 1_555
Ca6 O50 2.395493 1_555
Ca6 O39 2.422420 1_555
Ca6 O18 2.461009 1_555
Ca7 O7 2.272626 1_555
Ca7 O72 2.344449 1_556
Ca7 O49 2.396686 1_556
Ca7 O19 2.408647 1_555
Ca7 O40 2.412482 1_555
Ca7 O2 2.447501 1_556
Ca8 O0 2.312588 1_556
Ca8 O58 2.362342 1_555
Ca8 O49 2.426181 1_556
Ca8 O5 2.487128 1_555
Ca8 O75 2.528900 1_555
Ca8 O20 2.646021 1_556
Ca8 O79 2.698365 1_555
Ca9 O57 2.252614 1_555
Ca9 O1 2.285628 1_555
Ca9 O50 2.381800 1_555
Ca9 O74 2.473671 1_555
Ca9 O78 2.622163 1_555
Ca9 O4 2.647134 1_555
Ca9 O16 2.821218 1_555
Ca10 O51 2.311368 1_556
Ca10 O60 2.355116 1_555
Ca10 O77 2.402813 1_555
Ca10 O2 2.429041 1_556
Ca10 O41 2.538718 1_565
Ca10 O38 2.795691 1_565
Ca10 O81 2.825227 1_555
Ca10 O27 2.962221 1_556
Ca11 O52 2.249793 1_555
Ca11 O3 2.339948 1_555
Ca11 O76 2.366597 1_555
Ca11 O59 2.388509 1_555
Ca11 O28 2.725509 1_555
Ca11 O60 2.906785 1_555
Ca12 O45 2.368483 1_655
Ca12 O79 2.377344 1_554
Ca12 O54 2.412659 1_654
Ca12 O44 2.480338 1_554
Ca12 O9 2.523330 1_554
Ca12 O21 2.559473 1_555
Ca12 O29 2.589285 1_555
Ca13 O53 2.309685 1_555
Ca13 O46 2.325212 1_655
Ca13 O30 2.388115 1_555
Ca13 O78 2.396832 1_555
Ca13 O22 2.404347 1_555
Ca13 O43 2.486260 1_555
Ca13 O54 2.960886 1_655
Ca14 O56 2.325267 1_655
Ca14 O81 2.359233 1_555
Ca14 O47 2.400206 1_656
Ca14 O11 2.414466 1_555
Ca14 O42 2.417456 1_565
Ca14 O23 2.835730 1_556
Ca15 O48 2.314041 1_655
Ca15 O55 2.321026 1_555
Ca15 O80 2.361583 1_555
Ca15 O10 2.436097 1_555
Ca15 O24 2.440660 1_555
Ca15 O32 2.448581 1_555
Ca15 O56 2.781239 1_655
Ca16 O25 2.441832 1_555
Ca16 O74 2.502870 1_555
Ca16 O45 2.521842 1_555
Ca16 O35 2.544690 1_555
Ca16 O12 2.547212 1_555
Ca16 O20 2.549514 1_555
Ca16 O53 2.724795 1_455
Ca16 O57 2.945317 1_555
Ca17 O75 2.333309 1_555
Ca17 O13 2.355945 1_555
Ca17 O36 2.357306 1_555
Ca17 O26 2.416789 1_555
Ca17 O54 2.470148 1_555
Ca17 O46 2.577796 1_555
Ca17 O58 2.944044 1_555
Ca18 O27 2.310764 1_555
Ca18 O14 2.341676 1_555
Ca18 O76 2.403879 1_555
Ca18 O59 2.421578 1_555
Ca18 O33 2.442922 1_565
Ca18 O47 2.668005 1_555
Ca19 O34 2.362951 1_565
Ca19 O15 2.406994 1_555
Ca19 O28 2.411446 1_555
Ca19 O77 2.474310 1_555
Ca19 O56 2.578996 1_555
Ca19 O60 2.594419 1_555
Ca19 O48 2.787816 1_555
Ca19 O41 2.907812 1_565
Ca20 O78 2.361694 1_555
Ca20 O29 2.395277 1_555
Ca20 O0 2.440528 1_555
Ca20 O57 2.525788 1_555
Ca20 O21 2.532271 1_555
Ca20 O16 2.691131 1_555
Ca21 O79 2.367528 1_555
Ca21 O30 2.415704 1_555
Ca21 O22 2.430335 1_555
Ca21 O17 2.553730 1_555
Ca21 O1 2.579102 1_555
Ca21 O58 2.780567 1_555
Ca21 O54 2.825459 1_655
Ca22 O23 2.281370 1_555
Ca22 O80 2.328374 1_555
Ca22 O31 2.392194 1_565
Ca22 O51 2.516967 1_555
Ca22 O18 2.867861 1_555
Ca23 O81 2.374598 1_555
Ca23 O32 2.381199 1_555
Ca23 O24 2.399450 1_555
Ca23 O38 2.532182 1_565
Ca23 O52 2.629261 1_555
Ca23 O19 2.714131 1_555
Ca23 O60 2.724156 1_555
Ca24 O66 2.277492 1_555
Ca24 O12 2.309586 1_555
Ca24 O27 2.451475 1_545
Ca24 O20 2.469282 1_555
Ca24 O61 2.491033 1_555
Ca24 O4 2.541307 1_555
Ca24 O33 2.560140 1_555
Ca25 O13 2.344111 1_555
Ca25 O67 2.376832 1_555
Ca25 O34 2.381056 1_555
Ca25 O62 2.426110 1_555
Ca25 O28 2.522275 1_545
Ca25 O41 2.534513 1_555
Ca25 O5 2.720431 1_555
Ca25 O63 2.957062 1_455
Ca26 O14 2.283567 1_555
Ca26 O35 2.287646 1_555
Ca26 O68 2.333221 1_555
Ca26 O25 2.398959 1_555
Ca26 O64 2.463099 1_555
Ca26 O6 2.480446 1_555
Ca27 O15 2.287121 1_555
Ca27 O69 2.314160 1_555
Ca27 O36 2.321061 1_555
Ca27 O26 2.355167 1_555
Ca27 O7 2.425491 1_555
Ca27 O65 2.539265 1_455
Ca27 O46 2.789672 1_555
Ca28 O16 2.299576 1_555
Ca28 O70 2.312744 1_555
Ca28 O31 2.453176 1_555
Ca28 O37 2.506468 1_555
Ca28 O61 2.584328 1_555
Ca28 O8 2.675131 1_555
Ca28 O0 2.788179 1_555
Ca28 O21 2.897992 1_555
Ca28 O51 2.973810 1_545
Ca29 O17 2.365944 1_555
Ca29 O71 2.424632 1_555
Ca29 O38 2.428827 1_555
Ca29 O63 2.488956 1_555
Ca29 O42 2.574669 1_555
Ca29 O32 2.639348 1_545
Ca30 O18 2.323046 1_555
Ca30 O72 2.362404 1_555
Ca30 O39 2.385177 1_555
Ca30 O64 2.406779 1_655
Ca30 O43 2.495797 1_555
Ca30 O29 2.587178 1_555
Ca30 O23 2.714726 1_555
Ca30 O10 2.830347 1_555
Ca31 O73 2.341387 1_555
Ca31 O40 2.367631 1_555
Ca31 O19 2.405927 1_555
Ca31 O65 2.424087 1_555
Ca31 O30 2.584602 1_555
Ca31 O44 2.592551 1_555
Ca31 O24 2.639383 1_555
Ca31 O11 2.947493 1_555
Mn0 O31 1.851772 1_465
Mn0 O55 1.882264 1_455
Mn0 O33 1.947348 1_565
Mn0 O47 1.953828 1_555
Mn1 O56 1.919370 1_655
Mn1 O34 1.948873 1_665
Mn1 O32 1.962999 1_555
Mn1 O48 1.968777 1_655
Mn1 O42 1.969381 1_565
Mn1 O63 1.973401 1_565
Mn2 O53 1.888818 1_555
Mn2 O45 1.931129 1_655
Mn2 O29 1.946351 1_555
Mn2 O43 1.976490 1_555
Mn2 O35 2.042199 1_655
Mn2 O64 2.100816 1_655
Mn3 O46 1.924428 1_655
Mn3 O44 1.932962 1_555
Mn3 O54 1.959655 1_655
Mn3 O30 2.053552 1_555
Mn3 O65 2.056498 1_555
Mn3 O36 2.073707 1_655
Mn4 O52 1.886470 1_545
Mn4 O38 1.921142 1_555
Mn4 O28 1.968180 1_545
Mn4 O60 1.988162 1_545
Mn4 O62 1.998979 1_555
Mn4 O41 2.017552 1_555
Mn5 O25 1.879699 1_555
Mn5 O49 1.895469 1_555
Mn5 O39 1.897047 1_555
Mn5 O57 1.937742 1_555
Mn6 O40 1.866622 1_555
Mn6 O26 1.880920 1_555
Mn6 O50 1.916820 1_555
Mn6 O58 1.924395 1_555
Mn7 O27 1.946680 1_545
Mn7 O41 1.957947 1_554
Mn7 O47 1.967854 1_545
Mn7 O34 1.986928 1_554
Mn7 O66 2.310583 1_555
Mn7 O77 2.353145 1_544
Mn8 O36 1.909318 1_554
Mn8 O75 1.970348 1_554
Mn8 O25 1.981994 1_555
Mn8 O68 2.039709 1_555
Mn8 O45 2.044269 1_555
Mn9 O35 1.906019 1_555
Mn9 O26 1.971723 1_555
Mn9 O74 1.985891 1_555
Mn9 O46 2.039531 1_555
Mn9 O69 2.084648 1_555
Mn10 O70 1.914560 1_555
Mn10 O81 1.950220 1_544
Mn10 O51 1.981323 1_545
Mn10 O42 1.992658 1_554
Mn10 O38 2.117065 1_554
Mn10 O31 2.329484 1_555
Mn11 O71 1.921853 1_565
Mn11 O80 1.934734 1_555
Mn11 O32 1.966034 1_555
Mn11 O37 1.969109 1_565
Mn11 O52 1.969951 1_555
Mn12 O79 1.975649 1_555
Mn12 O49 1.983884 1_556
Mn12 O44 1.987017 1_555
Mn12 O72 2.011543 1_556
Mn12 O29 2.067723 1_556
Mn12 O40 2.182159 1_555
Mn13 O50 1.972345 1_555
Mn13 O78 1.978482 1_555
Mn13 O43 1.979016 1_555
Mn13 O30 1.988390 1_555
Mn13 O73 1.989248 1_555
Mn13 O39 2.065184 1_555
Mn14 O67 1.975518 1_555
Mn14 O4 1.993208 1_555
Mn14 O74 2.079136 1_555
Mn14 O12 2.153404 1_555
Mn15 O77 1.858588 1_555
Mn15 O68 1.928150 1_556
Mn15 O15 1.976060 1_555
Mn15 O7 2.028003 1_555
Mn16 O69 2.018852 1_555
Mn16 O76 2.021070 1_555
Mn16 O14 2.077295 1_555
Mn16 O6 2.136041 1_555
Mn17 O17 1.906439 1_554
Mn17 O9 1.909187 1_554
Mn17 O70 1.929731 1_555
Mn17 O79 2.007041 1_554
Mn17 O0 2.011263 1_555
Mn17 O21 2.037240 1_555
Mn18 O16 1.932902 1_555
Mn18 O22 1.941074 1_555
Mn18 O8 2.010338 1_555
Mn18 O71 2.011201 1_555
Mn18 O78 2.032220 1_555
Mn18 O1 2.055925 1_555
Mn19 O72 1.958287 1_555
Mn19 O19 1.962810 1_554
Mn19 O23 1.962875 1_555
Mn19 O11 1.965455 1_554
Mn19 O81 1.970145 1_554
Mn19 O2 2.178984 1_555
Mn20 O73 1.933133 1_555
Mn20 O24 1.957676 1_555
Mn20 O10 1.970499 1_555
Mn20 O18 1.996994 1_555
Mn20 O80 2.031060 1_555
Mn20 O3 2.074505 1_555
Mn21 O54 1.906821 1_555
Mn21 O13 1.941267 1_555
Mn21 O63 1.967554 1_455
Mn21 O9 1.981811 1_455
Mn21 O22 2.010292 1_455
Mn22 O14 1.881258 1_655
Mn22 O23 1.936816 1_555
Mn22 O55 1.991917 1_555
Mn22 O64 2.036424 1_655
Mn22 O10 2.052294 1_555
Mn23 O56 1.927748 1_655
Mn23 O65 1.934905 1_555
Mn23 O15 1.935850 1_655
Mn23 O24 2.003899 1_555
Mn23 O11 2.008658 1_555
Mn24 O20 1.925127 1_555
Mn24 O61 1.932874 1_555
Mn24 O4 1.958417 1_555
Mn24 O57 1.971709 1_555
Mn24 O16 1.988693 1_555
Mn24 O0 1.996249 1_555
Mn25 O62 1.888056 1_555
Mn25 O5 1.932848 1_555
Mn25 O58 1.957676 1_555
Mn25 O1 1.972187 1_555
Mn25 O17 1.991208 1_555
Mn26 O6 1.887913 1_555
Mn26 O2 1.897590 1_555
Mn26 O18 1.911939 1_555
Mn26 O59 1.990889 1_555
Mn27 O3 1.986195 1_555
Mn27 O7 1.988730 1_555
Mn27 O60 2.007675 1_555
Mn27 O19 2.014600 1_555
Al0 O51 1.778738 1_555
Al0 O27 1.863154 1_555
Al0 O37 1.896409 1_565
Al0 O61 1.900738 1_565
Al0 O59 1.911952 1_555
Al1 O48 1.786013 1_545
Al1 O28 1.821111 1_545
Al1 O33 1.865908 1_555
Al1 O76 2.020586 1_545
Al1 O67 2.024896 1_555
Al2 O5 1.798483 1_555
Al2 O66 1.815630 1_556
Al2 O75 1.921679 1_555
Al2 O20 1.956635 1_556
Al2 O13 1.972549 1_555
Al3 O12 1.753830 1_655
Al3 O53 1.764625 1_555
Al3 O21 1.770204 1_555
Al3 O8 1.770701 1_555
