# generated using pymatgen
data_Ti3Cu2NiS8
_symmetry_space_group_name_H-M   'P 1'
_cell_length_a   7.10662975
_cell_length_b   7.10662975
_cell_length_c   7.10663002
_cell_angle_alpha   58.93774646
_cell_angle_beta   58.93774646
_cell_angle_gamma   58.93774358
_symmetry_Int_Tables_number   1
_chemical_formula_structural   Ti3Cu2NiS8
_chemical_formula_sum   'Ti3 Cu2 Ni1 S8'
_cell_volume   247.63920747
_cell_formula_units_Z   1
loop_
 _symmetry_equiv_pos_site_id
 _symmetry_equiv_pos_as_xyz
  1  'x, y, z'
loop_
 _atom_site_type_symbol
 _atom_site_label
 _atom_site_symmetry_multiplicity
 _atom_site_fract_x
 _atom_site_fract_y
 _atom_site_fract_z
 _atom_site_occupancy
  Ti  Ti0  1  0.00000000  0.50000000  0.50000000  1
  Ti  Ti1  1  0.50000000  0.50000000  0.00000000  1
  Ti  Ti2  1  0.50000000  0.00000000  0.50000000  1
  Cu  Cu0  1  0.12426400  0.12426400  0.12426400  1
  Cu  Cu1  1  0.87573600  0.87573600  0.87573600  1
  Ni  Ni0  1  0.50000000  0.50000000  0.50000000  1
  S  S0  1  0.74622400  0.74622400  0.74622400  1
  S  S1  1  0.27129000  0.74001800  0.74001800  1
  S  S2  1  0.74001800  0.74001800  0.27129000  1
  S  S3  1  0.74001800  0.27129000  0.74001800  1
  S  S4  1  0.25377600  0.25377600  0.25377600  1
  S  S5  1  0.72871000  0.25998200  0.25998200  1
  S  S6  1  0.25998200  0.25998200  0.72871000  1
  S  S7  1  0.25998200  0.72871000  0.25998200  1
loop_
_geom_bond_atom_site_label_1
_geom_bond_atom_site_label_2
_geom_bond_distance
_geom_bond_site_symmetry_2
Cu0 S5 2.264247 1_455
Cu0 S7 2.264247 1_545
Cu0 S6 2.264247 1_554
Cu0 S4 2.272425 1_555
Cu1 S1 2.264247 1_655
Cu1 S3 2.264247 1_565
Cu1 S2 2.264247 1_556
Cu1 S0 2.272425 1_555
Ni0 S3 2.396090 1_555
Ni0 S1 2.396090 1_555
Ni0 S7 2.396090 1_555
Ni0 S5 2.396090 1_555
Ni0 S2 2.396090 1_555
Ni0 S6 2.396090 1_555
S0 Ti2 2.454150 1_565
S0 Ti0 2.454150 1_655
S0 Ti1 2.454150 1_556
S1 Ti1 2.439407 1_556
S1 Ti2 2.439407 1_565
S2 Ti2 2.439407 1_565
S2 Ti0 2.439407 1_655
S3 Ti1 2.439407 1_556
S3 Ti0 2.439407 1_655
S4 Ti2 2.454150 1_555
S4 Ti0 2.454150 1_555
S4 Ti1 2.454150 1_555
S5 Ti1 2.439407 1_555
S5 Ti2 2.439407 1_555
S6 Ti2 2.439407 1_555
S6 Ti0 2.439407 1_555
S7 Ti1 2.439407 1_555
S7 Ti0 2.439407 1_555
