# generated using pymatgen
data_Sr2Co(CO)2
_symmetry_space_group_name_H-M   'P 1'
_cell_length_a   3.89658000
_cell_length_b   3.89658000
_cell_length_c   7.08212600
_cell_angle_alpha   90.00000000
_cell_angle_beta   90.00000000
_cell_angle_gamma   90.00000000
_symmetry_Int_Tables_number   1
_chemical_formula_structural   Sr2Co(CO)2
_chemical_formula_sum   'Sr2 Co1 C2 O2'
_cell_volume   107.53029650
_cell_formula_units_Z   1
loop_
 _symmetry_equiv_pos_site_id
 _symmetry_equiv_pos_as_xyz
  1  'x, y, z'
loop_
 _atom_site_type_symbol
 _atom_site_label
 _atom_site_symmetry_multiplicity
 _atom_site_fract_x
 _atom_site_fract_y
 _atom_site_fract_z
 _atom_site_occupancy
  Sr  Sr0  1  0.50000000  0.50000000  0.73365100  1
  Sr  Sr1  1  0.50000000  0.50000000  0.26634900  1
  Co  Co0  1  0.00000000  0.00000000  0.50000000  1
  C  C0  1  0.00000000  0.00000000  0.91075700  1
  C  C1  1  0.00000000  0.00000000  0.08924300  1
  O  O0  1  0.00000000  0.50000000  0.50000000  1
  O  O1  1  0.50000000  0.00000000  0.50000000  1
loop_
_geom_bond_atom_site_label_1
_geom_bond_atom_site_label_2
_geom_bond_distance
_geom_bond_site_symmetry_2
Co0 O1 1.948290 1_555
Co0 O0 1.948290 1_545
Co0 O1 1.948290 1_455
Co0 O0 1.948290 1_555
C0 C1 1.264060 1_556
C0 Sr0 3.027359 1_455
C0 Sr0 3.027359 1_555
C0 Sr0 3.027359 1_445
C0 Sr0 3.027359 1_545
C1 Sr1 3.027359 1_545
C1 Sr1 3.027359 1_455
C1 Sr1 3.027359 1_555
C1 Sr1 3.027359 1_445
O0 Sr1 2.556172 1_455
O0 Sr1 2.556172 1_555
O0 Sr0 2.556172 1_455
O0 Sr0 2.556172 1_555
O1 Sr1 2.556172 1_545
O1 Sr1 2.556172 1_555
O1 Sr0 2.556172 1_545
O1 Sr0 2.556172 1_555
