# generated using pymatgen
data_Y5Al3C4
_symmetry_space_group_name_H-M   'P 1'
_cell_length_a   10.91899200
_cell_length_b   10.91899200
_cell_length_c   3.52354900
_cell_angle_alpha   90.00000000
_cell_angle_beta   90.00000000
_cell_angle_gamma   90.00000000
_symmetry_Int_Tables_number   1
_chemical_formula_structural   Y5Al3C4
_chemical_formula_sum   'Y10 Al6 C8'
_cell_volume   420.09296711
_cell_formula_units_Z   2
loop_
 _symmetry_equiv_pos_site_id
 _symmetry_equiv_pos_as_xyz
  1  'x, y, z'
loop_
 _atom_site_type_symbol
 _atom_site_label
 _atom_site_symmetry_multiplicity
 _atom_site_fract_x
 _atom_site_fract_y
 _atom_site_fract_z
 _atom_site_occupancy
  Y  Y0  1  0.55081900  0.72951600  0.50000000  1
  Y  Y1  1  0.44918100  0.27048400  0.50000000  1
  Y  Y2  1  0.05081900  0.77048400  0.50000000  1
  Y  Y3  1  0.94918100  0.22951600  0.50000000  1
  Y  Y4  1  0.27048400  0.55081900  0.50000000  1
  Y  Y5  1  0.72951600  0.44918100  0.50000000  1
  Y  Y6  1  0.22951600  0.05081900  0.50000000  1
  Y  Y7  1  0.77048400  0.94918100  0.50000000  1
  Y  Y8  1  0.50000000  0.00000000  0.00000000  1
  Y  Y9  1  0.00000000  0.50000000  0.00000000  1
  Al  Al0  1  0.70378000  0.20378000  0.00000000  1
  Al  Al1  1  0.29622000  0.79622000  0.00000000  1
  Al  Al2  1  0.20378000  0.29622000  0.00000000  1
  Al  Al3  1  0.79622000  0.70378000  0.00000000  1
  Al  Al4  1  0.50000000  0.50000000  0.00000000  1
  Al  Al5  1  0.00000000  0.00000000  0.00000000  1
  C  C0  1  0.63289200  0.13289200  0.50000000  1
  C  C1  1  0.36710800  0.86710800  0.50000000  1
  C  C2  1  0.13289200  0.36710800  0.50000000  1
  C  C3  1  0.86710800  0.63289200  0.50000000  1
  C  C4  1  0.16239700  0.66239700  0.00000000  1
  C  C5  1  0.83760300  0.33760300  0.00000000  1
  C  C6  1  0.66239700  0.83760300  0.00000000  1
  C  C7  1  0.33760300  0.16239700  0.00000000  1
loop_
_geom_bond_atom_site_label_1
_geom_bond_atom_site_label_2
_geom_bond_distance
_geom_bond_site_symmetry_2
Al0 C5 2.066466 1_555
Al0 C0 2.074146 1_554
Al0 C0 2.074146 1_555
Al1 C4 2.066466 1_555
Al1 C1 2.074146 1_555
Al1 C1 2.074146 1_554
Al2 C7 2.066466 1_555
Al2 C2 2.074146 1_555
Al2 C2 2.074146 1_554
Al3 C6 2.066466 1_555
Al3 C3 2.074146 1_555
Al3 C3 2.074146 1_554
Al4 Y0 3.113231 1_554
Al4 Y0 3.113231 1_555
Al4 Y5 3.113231 1_555
Al4 Y5 3.113231 1_554
Al4 Y1 3.113231 1_555
Al4 Y1 3.113231 1_554
Al4 Y4 3.113231 1_554
Al4 Y4 3.113231 1_555
Al5 Y6 3.113231 1_554
Al5 Y2 3.113231 1_544
Al5 Y2 3.113231 1_545
Al5 Y6 3.113231 1_555
Al5 Y3 3.113231 1_455
Al5 Y3 3.113231 1_454
Al5 Y7 3.113231 1_445
Al5 Y7 3.113231 1_444
C0 Y7 2.506171 1_545
C0 Y1 2.506171 1_555
C0 Y8 2.704611 1_556
C0 Y8 2.704611 1_555
C1 Y6 2.506171 1_565
C1 Y0 2.506171 1_555
C1 Y8 2.704611 1_565
C1 Y8 2.704611 1_566
C2 Y3 2.506171 1_455
C2 Y4 2.506171 1_555
C2 Y9 2.704611 1_555
C2 Y9 2.704611 1_556
C3 Y2 2.506171 1_655
C3 Y5 2.506171 1_555
C3 Y9 2.704611 1_655
C3 Y9 2.704611 1_656
C4 Y2 2.445614 1_554
C4 Y2 2.445614 1_555
C4 Y4 2.445614 1_554
C4 Y4 2.445614 1_555
C4 Y9 2.507700 1_555
C5 Y3 2.445614 1_555
C5 Y3 2.445614 1_554
C5 Y5 2.445614 1_554
C5 Y5 2.445614 1_555
C5 Y9 2.507700 1_655
C6 Y7 2.445614 1_555
C6 Y7 2.445614 1_554
C6 Y0 2.445614 1_554
C6 Y0 2.445614 1_555
C6 Y8 2.507700 1_565
C7 Y6 2.445614 1_555
C7 Y6 2.445614 1_554
C7 Y1 2.445614 1_555
C7 Y1 2.445614 1_554
C7 Y8 2.507700 1_555
