# generated using pymatgen
data_Dy2Ni2Sn
_symmetry_space_group_name_H-M   'P 1'
_cell_length_a   7.33168167
_cell_length_b   7.33168167
_cell_length_c   3.62508537
_cell_angle_alpha   90.00000000
_cell_angle_beta   90.00000000
_cell_angle_gamma   90.00000000
_symmetry_Int_Tables_number   1
_chemical_formula_structural   Dy2Ni2Sn
_chemical_formula_sum   'Dy4 Ni4 Sn2'
_cell_volume   194.86122984
_cell_formula_units_Z   2
loop_
 _symmetry_equiv_pos_site_id
 _symmetry_equiv_pos_as_xyz
  1  'x, y, z'
loop_
 _atom_site_type_symbol
 _atom_site_label
 _atom_site_symmetry_multiplicity
 _atom_site_fract_x
 _atom_site_fract_y
 _atom_site_fract_z
 _atom_site_occupancy
  Dy  Dy0  1  0.67591438  0.17591438  0.50000000  1
  Dy  Dy1  1  0.32408562  0.82408562  0.50000000  1
  Dy  Dy2  1  0.17591438  0.32408562  0.50000000  1
  Dy  Dy3  1  0.82408562  0.67591438  0.50000000  1
  Ni  Ni0  1  0.88135003  0.38135003  0.00000000  1
  Ni  Ni1  1  0.11864997  0.61864997  -0.00000000  1
  Ni  Ni2  1  0.38135003  0.11864997  0.00000000  1
  Ni  Ni3  1  0.61864997  0.88135003  -0.00000000  1
  Sn  Sn0  1  0.50000000  0.50000000  0.00000000  1
  Sn  Sn1  1  0.00000000  0.00000000  0.00000000  1
loop_
_geom_bond_atom_site_label_1
_geom_bond_atom_site_label_2
_geom_bond_distance
_geom_bond_site_symmetry_2
Dy0 Ni0 2.796877 1_555
Dy0 Ni0 2.796877 1_556
Dy0 Ni2 2.850557 1_555
Dy0 Ni3 2.850557 1_546
Dy0 Ni3 2.850557 1_545
Dy0 Ni2 2.850557 1_556
Dy0 Sn1 3.254931 1_655
Dy0 Sn1 3.254931 1_656
Dy0 Sn0 3.254931 1_556
Dy0 Sn0 3.254931 1_555
Dy1 Ni1 2.796877 1_555
Dy1 Ni1 2.796877 1_556
Dy1 Ni2 2.850557 1_565
Dy1 Ni2 2.850557 1_566
Dy1 Ni3 2.850557 1_556
Dy1 Ni3 2.850557 1_555
Dy1 Sn0 3.254931 1_555
Dy1 Sn0 3.254931 1_556
Dy1 Sn1 3.254931 1_566
Dy1 Sn1 3.254931 1_565
Dy2 Ni2 2.796877 1_556
Dy2 Ni2 2.796877 1_555
Dy2 Ni1 2.850557 1_555
Dy2 Ni1 2.850557 1_556
Dy2 Ni0 2.850557 1_455
Dy2 Ni0 2.850557 1_456
Dy2 Sn0 3.254931 1_555
Dy2 Sn0 3.254931 1_556
Dy2 Sn1 3.254931 1_555
Dy2 Sn1 3.254931 1_556
Dy3 Ni3 2.796877 1_556
Dy3 Ni3 2.796877 1_555
Dy3 Ni1 2.850557 1_655
Dy3 Ni1 2.850557 1_656
Dy3 Ni0 2.850557 1_555
Dy3 Ni0 2.850557 1_556
Dy3 Sn1 3.254931 1_665
Dy3 Sn0 3.254931 1_556
Dy3 Sn0 3.254931 1_555
Dy3 Sn1 3.254931 1_666
Ni0 Ni1 2.460460 1_655
Ni0 Sn1 2.928139 1_655
Ni0 Sn0 2.928139 1_555
Ni1 Sn1 2.928139 1_565
Ni1 Sn0 2.928139 1_555
Ni2 Ni3 2.460460 1_545
Ni2 Sn1 2.928139 1_555
Ni2 Sn0 2.928139 1_555
Ni3 Sn1 2.928139 1_665
Ni3 Sn0 2.928139 1_555
