# generated using pymatgen
data_CsLaMg6O8
_symmetry_space_group_name_H-M   'P 1'
_cell_length_a   9.25680950
_cell_length_b   4.85135922
_cell_length_c   4.85135922
_cell_angle_alpha   90.00000000
_cell_angle_beta   90.00000000
_cell_angle_gamma   90.00000000
_symmetry_Int_Tables_number   1
_chemical_formula_structural   CsLaMg6O8
_chemical_formula_sum   'Cs1 La1 Mg6 O8'
_cell_volume   217.86536436
_cell_formula_units_Z   1
loop_
 _symmetry_equiv_pos_site_id
 _symmetry_equiv_pos_as_xyz
  1  'x, y, z'
loop_
 _atom_site_type_symbol
 _atom_site_label
 _atom_site_symmetry_multiplicity
 _atom_site_fract_x
 _atom_site_fract_y
 _atom_site_fract_z
 _atom_site_occupancy
  Cs  Cs0  1  0.00000000  0.50000000  0.50000000  1
  La  La0  1  0.00000000  0.00000000  -0.00000000  1
  Mg  Mg0  1  0.50000000  0.00000000  -0.00000000  1
  Mg  Mg1  1  0.50000000  0.50000000  0.50000000  1
  Mg  Mg2  1  0.28264320  -0.00000000  0.50000000  1
  Mg  Mg3  1  0.71735680  0.00000000  0.50000000  1
  Mg  Mg4  1  0.28264320  0.50000000  0.00000000  1
  Mg  Mg5  1  0.71735680  0.50000000  -0.00000000  1
  O  O0  1  0.27315127  0.00000000  0.00000000  1
  O  O1  1  0.72684873  -0.00000000  -0.00000000  1
  O  O2  1  0.29233288  0.50000000  0.50000000  1
  O  O3  1  0.70766712  0.50000000  0.50000000  1
  O  O4  1  0.00000000  0.00000000  0.50000000  1
  O  O5  1  0.50000000  0.00000000  0.50000000  1
  O  O6  1  0.00000000  0.50000000  -0.00000000  1
  O  O7  1  0.50000000  0.50000000  -0.00000000  1
loop_
_geom_bond_atom_site_label_1
_geom_bond_atom_site_label_2
_geom_bond_distance
_geom_bond_site_symmetry_2
Cs0 O4 2.425680 1_555
Cs0 O4 2.425680 1_565
Cs0 O6 2.425680 1_556
Cs0 O6 2.425680 1_555
Cs0 O2 2.706070 1_555
Cs0 O3 2.706070 1_455
La0 O4 2.425680 1_555
La0 O4 2.425680 1_554
La0 O6 2.425680 1_545
La0 O6 2.425680 1_555
La0 O1 2.528509 1_455
La0 O0 2.528509 1_555
Mg0 O0 2.099895 1_555
Mg0 O1 2.099895 1_555
Mg0 O7 2.425680 1_555
Mg0 O5 2.425680 1_554
Mg0 O7 2.425680 1_545
Mg0 O5 2.425680 1_555
Mg1 O2 1.922335 1_555
Mg1 O3 1.922335 1_555
Mg1 O7 2.425680 1_555
Mg1 O7 2.425680 1_556
Mg1 O5 2.425680 1_555
Mg1 O5 2.425680 1_565
Mg2 O5 2.012030 1_555
Mg2 O0 2.427270 1_555
Mg2 O0 2.427270 1_556
Mg2 O2 2.427337 1_555
Mg2 O2 2.427337 1_545
Mg2 O4 2.616374 1_555
Mg3 O5 2.012030 1_555
Mg3 O1 2.427270 1_555
Mg3 O1 2.427270 1_556
Mg3 O3 2.427337 1_555
Mg3 O3 2.427337 1_545
Mg3 O4 2.616374 1_655
Mg4 O7 2.012030 1_555
Mg4 O0 2.427270 1_555
Mg4 O0 2.427270 1_565
Mg4 O2 2.427337 1_555
Mg4 O2 2.427337 1_554
Mg4 O6 2.616374 1_555
Mg5 O7 2.012030 1_555
Mg5 O1 2.427270 1_555
Mg5 O1 2.427270 1_565
Mg5 O3 2.427337 1_555
Mg5 O3 2.427337 1_554
Mg5 O6 2.616374 1_655
