# generated using pymatgen
data_KNa2Sb
_symmetry_space_group_name_H-M   'P 1'
_cell_length_a   5.44800052
_cell_length_b   5.44799995
_cell_length_c   5.44800000
_cell_angle_alpha   59.99999967
_cell_angle_beta   60.00000316
_cell_angle_gamma   59.99999161
_symmetry_Int_Tables_number   1
_chemical_formula_structural   KNa2Sb
_chemical_formula_sum   'K1 Na2 Sb1'
_cell_volume   114.33950763
_cell_formula_units_Z   1
loop_
 _symmetry_equiv_pos_site_id
 _symmetry_equiv_pos_as_xyz
  1  'x, y, z'
loop_
 _atom_site_type_symbol
 _atom_site_label
 _atom_site_symmetry_multiplicity
 _atom_site_fract_x
 _atom_site_fract_y
 _atom_site_fract_z
 _atom_site_occupancy
  K  K0  1  0.50000000  0.50000000  0.50000000  1
  Na  Na0  1  0.25000000  0.25000000  0.25000000  1
  Na  Na1  1  0.75000000  0.75000000  0.75000000  1
  Sb  Sb0  1  0.00000000  0.00000000  0.00000000  1
loop_
_geom_bond_atom_site_label_1
_geom_bond_atom_site_label_2
_geom_bond_distance
_geom_bond_site_symmetry_2
K0 Na1 3.336205 1_545
K0 Na0 3.336205 1_565
K0 Na1 3.336205 1_555
K0 Na1 3.336205 1_554
K0 Na0 3.336205 1_556
K0 Na0 3.336205 1_555
K0 Na1 3.336205 1_455
K0 Na0 3.336205 1_655
K0 Sb0 3.852318 1_565
K0 Sb0 3.852318 1_656
K0 Sb0 3.852318 1_655
K0 Sb0 3.852318 1_566
K0 Sb0 3.852318 1_556
K0 Sb0 3.852318 1_665
Na0 Sb0 3.336205 1_565
Na0 Sb0 3.336205 1_556
Na0 Sb0 3.336205 1_555
Na0 Sb0 3.336205 1_655
Na1 Sb0 3.336205 1_656
Na1 Sb0 3.336205 1_665
Na1 Sb0 3.336205 1_666
Na1 Sb0 3.336205 1_566
