# generated using pymatgen
data_Dy2NiRuO6
_symmetry_space_group_name_H-M   'P 1'
_cell_length_a   5.75981800
_cell_length_b   5.29566900
_cell_length_c   9.24175941
_cell_angle_alpha   55.02535340
_cell_angle_beta   90.00000000
_cell_angle_gamma   90.00000000
_symmetry_Int_Tables_number   1
_chemical_formula_structural   Dy2NiRuO6
_chemical_formula_sum   'Dy4 Ni2 Ru2 O12'
_cell_volume   230.98472973
_cell_formula_units_Z   2
loop_
 _symmetry_equiv_pos_site_id
 _symmetry_equiv_pos_as_xyz
  1  'x, y, z'
loop_
 _atom_site_type_symbol
 _atom_site_label
 _atom_site_symmetry_multiplicity
 _atom_site_fract_x
 _atom_site_fract_y
 _atom_site_fract_z
 _atom_site_occupancy
  Dy  Dy0  1  0.42185600  0.22501500  0.74774000  1
  Dy  Dy1  1  0.57814400  0.77498500  0.25226000  1
  Dy  Dy2  1  0.92185600  0.77498500  0.75226000  1
  Dy  Dy3  1  0.07814400  0.22501500  0.24774000  1
  Ni  Ni0  1  0.00000000  0.50000000  0.50000000  1
  Ni  Ni1  1  0.50000000  0.50000000  0.00000000  1
  Ru  Ru0  1  0.00000000  0.00000000  0.00000000  1
  Ru  Ru1  1  0.50000000  0.00000000  0.50000000  1
  O  O0  1  0.04483400  0.37005000  0.75419900  1
  O  O1  1  0.95516600  0.62995000  0.24580100  1
  O  O2  1  0.54483400  0.62995000  0.74580100  1
  O  O3  1  0.45516600  0.37005000  0.25419900  1
  O  O4  1  0.69674900  0.88206200  0.93546700  1
  O  O5  1  0.30325100  0.11793800  0.06453300  1
  O  O6  1  0.19674900  0.11793800  0.56453300  1
  O  O7  1  0.80325100  0.88206200  0.43546700  1
  O  O8  1  0.18965700  0.74308100  0.94359900  1
  O  O9  1  0.81034300  0.25691900  0.05640100  1
  O  O10  1  0.68965700  0.25691900  0.55640100  1
  O  O11  1  0.31034300  0.74308100  0.44359900  1
loop_
_geom_bond_atom_site_label_1
_geom_bond_atom_site_label_2
_geom_bond_distance
_geom_bond_site_symmetry_2
Dy0 O2 2.248657 1_555
Dy0 O10 2.278643 1_555
Dy0 O4 2.281026 1_545
Dy0 O0 2.315553 1_555
Dy0 O6 2.443379 1_555
Dy0 O8 2.506505 1_545
Dy0 O11 2.645627 1_555
Dy0 O5 2.730669 1_556
Dy1 O3 2.248657 1_555
Dy1 O11 2.278643 1_555
Dy1 O5 2.281026 1_565
Dy1 O1 2.315553 1_555
Dy1 O7 2.443379 1_555
Dy1 O9 2.506505 1_565
Dy1 O10 2.645627 1_555
Dy1 O4 2.730669 1_554
Dy2 O0 2.248657 1_655
Dy2 O8 2.278643 1_655
Dy2 O6 2.281026 1_665
Dy2 O2 2.315553 1_555
Dy2 O4 2.443379 1_555
Dy2 O10 2.506505 1_565
Dy2 O9 2.645627 1_556
Dy2 O7 2.730669 1_555
Dy3 O1 2.248657 1_455
Dy3 O9 2.278643 1_455
Dy3 O7 2.281026 1_445
Dy3 O3 2.315553 1_555
Dy3 O5 2.443379 1_555
Dy3 O11 2.506505 1_545
Dy3 O8 2.645627 1_554
Dy3 O6 2.730669 1_555
Ni0 O0 2.050807 1_555
Ni0 O1 2.050807 1_455
Ni0 O6 2.085711 1_555
Ni0 O7 2.085711 1_455
Ni0 O11 2.086807 1_555
Ni0 O10 2.086807 1_455
Ni1 O3 2.050807 1_555
Ni1 O2 2.050807 1_554
Ni1 O4 2.085711 1_554
Ni1 O5 2.085711 1_555
Ni1 O9 2.086807 1_555
Ni1 O8 2.086807 1_554
O0 Ru0 1.990930 1_556
O1 Ru0 1.990930 1_665
O2 Ru1 1.990930 1_565
O3 Ru1 1.990930 1_555
O4 Ru0 2.055153 1_666
O5 Ru0 2.055153 1_555
O6 Ru1 2.055153 1_555
O7 Ru1 2.055153 1_565
O8 Ru0 2.032033 1_566
O9 Ru0 2.032033 1_655
O10 Ru1 2.032033 1_555
O11 Ru1 2.032033 1_565
