# generated using pymatgen
data_Sc3(MnNi2)2
_symmetry_space_group_name_H-M   'P 1'
_cell_length_a   4.91727388
_cell_length_b   4.84608337
_cell_length_c   12.24479315
_cell_angle_alpha   90.81293851
_cell_angle_beta   89.33172362
_cell_angle_gamma   118.32219274
_symmetry_Int_Tables_number   1
_chemical_formula_structural   Sc3(MnNi2)2
_chemical_formula_sum   'Sc6 Mn4 Ni8'
_cell_volume   256.82882813
_cell_formula_units_Z   2
loop_
 _symmetry_equiv_pos_site_id
 _symmetry_equiv_pos_as_xyz
  1  'x, y, z'
loop_
 _atom_site_type_symbol
 _atom_site_label
 _atom_site_symmetry_multiplicity
 _atom_site_fract_x
 _atom_site_fract_y
 _atom_site_fract_z
 _atom_site_occupancy
  Sc  Sc0  1  0.33452300  0.66276200  0.91612700  1
  Sc  Sc1  1  0.00420000  0.00551200  0.24946600  1
  Sc  Sc2  1  0.66891700  0.33289700  0.58282000  1
  Sc  Sc3  1  0.33108300  0.66710300  0.66718000  1
  Sc  Sc4  1  0.99580000  0.99448800  0.00053400  1
  Sc  Sc5  1  0.66547700  0.33723800  0.33387300  1
  Mn  Mn0  1  0.50000000  0.50000000  0.12500000  1
  Mn  Mn1  1  0.16710800  0.83305900  0.45861900  1
  Mn  Mn2  1  0.83289200  0.16694100  0.79138100  1
  Mn  Mn3  1  0.50000000  0.00000000  0.12500000  1
  Ni  Ni0  1  0.16654400  0.33297800  0.45919700  1
  Ni  Ni1  1  0.83345600  0.66702200  0.79080300  1
  Ni  Ni2  1  0.33800900  0.67372600  0.29130800  1
  Ni  Ni3  1  0.00000000  0.00000000  0.62500000  1
  Ni  Ni4  1  0.66199100  0.32627400  0.95869200  1
  Ni  Ni5  1  0.00000000  0.50000000  0.12500000  1
  Ni  Ni6  1  0.66616400  0.83259900  0.45883500  1
  Ni  Ni7  1  0.33383600  0.16740100  0.79116500  1
loop_
_geom_bond_atom_site_label_1
_geom_bond_atom_site_label_2
_geom_bond_distance
_geom_bond_site_symmetry_2
Sc0 Sc4 2.979938 1_456
Sc0 Sc4 3.044177 1_446
Sc0 Sc3 3.048975 1_555
Sc0 Sc4 3.049131 1_556
Sc1 Sc5 2.979938 1_455
Sc1 Sc5 3.044177 1_445
Sc1 Sc4 3.048249 1_445
Sc1 Sc5 3.049131 1_555
Sc2 Sc3 2.985827 1_555
Sc2 Sc3 3.034087 1_545
Sc2 Sc5 3.048975 1_555
Sc2 Sc3 3.052733 1_655
Mn0 Mn3 2.423042 1_565
Mn0 Mn3 2.423042 1_555
Mn0 Ni4 2.457653 1_554
Mn0 Ni2 2.457653 1_555
Mn0 Ni5 2.458637 1_655
Mn0 Ni5 2.458637 1_555
Mn0 Sc1 2.912465 1_555
Mn0 Sc4 2.912465 1_555
Mn0 Sc0 2.922391 1_554
Mn0 Sc5 2.922391 1_555
Mn0 Sc4 2.947897 1_445
Mn0 Sc1 2.947897 1_665
Mn1 Ni0 2.422230 1_555
Mn1 Ni0 2.423876 1_565
Mn1 Ni3 2.454642 1_565
Mn1 Ni6 2.455086 1_555
Mn1 Ni2 2.455645 1_555
Mn1 Ni6 2.462193 1_455
Mn1 Sc3 2.922391 1_555
Mn1 Sc5 2.924211 1_455
Mn1 Sc2 2.927910 1_455
Mn1 Sc2 2.929267 1_565
Mn1 Sc1 2.939873 1_565
Mn1 Sc5 2.940349 1_565
Mn2 Ni1 2.422230 1_555
Mn2 Ni1 2.423876 1_545
Mn2 Ni3 2.454642 1_655
Mn2 Ni7 2.455086 1_555
Mn2 Ni4 2.455645 1_555
Mn2 Ni7 2.462193 1_655
Mn2 Sc2 2.922391 1_555
Mn2 Sc0 2.924211 1_655
Mn2 Sc3 2.927910 1_655
Mn2 Sc3 2.929267 1_545
Mn2 Sc4 2.939873 1_546
Mn2 Sc0 2.940349 1_545
Mn3 Ni2 2.477894 1_545
Mn3 Ni4 2.477894 1_554
Mn3 Ni5 2.502662 1_655
Mn3 Ni5 2.502662 1_545
Mn3 Sc1 2.870750 1_555
Mn3 Sc4 2.870750 1_545
Mn3 Sc1 2.914532 1_655
Mn3 Sc4 2.914532 1_445
Mn3 Sc0 2.922751 1_544
Mn3 Sc5 2.922751 1_555
Ni0 Ni3 2.489295 1_555
Ni0 Ni6 2.500776 1_555
Ni0 Ni6 2.504555 1_445
Ni0 Ni2 2.529556 1_555
Ni0 Sc2 2.862125 1_455
Ni0 Sc5 2.870446 1_555
Ni0 Sc3 2.906910 1_555
Ni0 Sc1 2.912206 1_555
Ni0 Sc2 2.912384 1_555
Ni0 Sc5 2.926329 1_455
Ni1 Ni3 2.489295 1_665
Ni1 Ni7 2.500776 1_555
Ni1 Ni7 2.504555 1_665
Ni1 Ni4 2.529556 1_555
Ni1 Sc3 2.862125 1_655
Ni1 Sc0 2.870446 1_555
Ni1 Sc2 2.906910 1_555
Ni1 Sc4 2.912206 1_556
Ni1 Sc3 2.912384 1_555
Ni1 Sc0 2.926329 1_655
Ni2 Ni6 2.501622 1_555
Ni2 Ni5 2.514126 1_555
Ni2 Sc5 2.838790 1_555
Ni2 Sc1 2.844157 1_565
Ni2 Sc5 2.874497 1_565
Ni2 Sc1 2.893428 1_555
Ni2 Sc1 2.926663 1_665
Ni2 Sc5 2.955364 1_455
Ni3 Ni7 2.502028 1_555
Ni3 Ni6 2.502028 1_445
Ni3 Sc2 2.838157 1_455
Ni3 Sc3 2.838157 1_545
Ni3 Sc2 2.889069 1_445
Ni3 Sc3 2.889069 1_555
Ni3 Sc2 2.938962 1_555
Ni3 Sc3 2.938962 1_445
Ni4 Ni7 2.501622 1_555
Ni4 Ni5 2.514126 1_656
Ni4 Sc0 2.838790 1_555
Ni4 Sc4 2.844157 1_546
Ni4 Sc0 2.874497 1_545
Ni4 Sc4 2.893428 1_556
Ni4 Sc4 2.926663 1_446
Ni4 Sc0 2.955364 1_655
Ni5 Sc4 2.858542 1_445
Ni5 Sc1 2.858542 1_565
Ni5 Sc1 2.866516 1_555
Ni5 Sc4 2.866516 1_455
Ni5 Sc5 2.932119 1_455
Ni5 Sc0 2.932119 1_554
Ni6 Sc5 2.827049 1_555
Ni6 Sc2 2.836908 1_565
Ni6 Sc2 2.881851 1_555
Ni6 Sc5 2.904487 1_565
Ni6 Sc3 2.927889 1_555
Ni6 Sc1 2.945761 1_665
Ni7 Sc0 2.827049 1_555
Ni7 Sc3 2.836908 1_545
Ni7 Sc3 2.881851 1_555
Ni7 Sc0 2.904487 1_545
Ni7 Sc2 2.927889 1_555
Ni7 Sc4 2.945761 1_446
