# generated using pymatgen
data_SrCa3Ag4
_symmetry_space_group_name_H-M   'P 1'
_cell_length_a   4.13115500
_cell_length_b   4.82290300
_cell_length_c   11.49853500
_cell_angle_alpha   90.00000000
_cell_angle_beta   90.00000000
_cell_angle_gamma   90.00000000
_symmetry_Int_Tables_number   1
_chemical_formula_structural   SrCa3Ag4
_chemical_formula_sum   'Sr1 Ca3 Ag4'
_cell_volume   229.09864930
_cell_formula_units_Z   1
loop_
 _symmetry_equiv_pos_site_id
 _symmetry_equiv_pos_as_xyz
  1  'x, y, z'
loop_
 _atom_site_type_symbol
 _atom_site_label
 _atom_site_symmetry_multiplicity
 _atom_site_fract_x
 _atom_site_fract_y
 _atom_site_fract_z
 _atom_site_occupancy
  Sr  Sr0  1  0.50000000  0.75000000  0.35553900  1
  Ca  Ca0  1  0.00000000  0.75000000  0.86086200  1
  Ca  Ca1  1  0.00000000  0.25000000  0.13214600  1
  Ca  Ca2  1  0.50000000  0.25000000  0.64507900  1
  Ag  Ag0  1  0.50000000  0.75000000  0.06703100  1
  Ag  Ag1  1  0.00000000  0.75000000  0.58235800  1
  Ag  Ag2  1  0.00000000  0.25000000  0.43210100  1
  Ag  Ag3  1  0.50000000  0.25000000  0.92488400  1
loop_
_geom_bond_atom_site_label_1
_geom_bond_atom_site_label_2
_geom_bond_distance
_geom_bond_site_symmetry_2
Ag0 Ag3 2.913182 1_564
Ag0 Ag3 2.913182 1_554
Ag0 Ca0 3.144289 1_654
Ag0 Ca0 3.144289 1_554
Ag0 Ca1 3.262254 1_565
Ag0 Ca1 3.262254 1_655
Ag0 Ca1 3.262254 1_665
Ag0 Ca1 3.262254 1_555
Ag0 Sr0 3.317419 1_555
Ag1 Ag2 2.966508 1_565
Ag1 Ag2 2.966508 1_555
Ag1 Ca0 3.202388 1_555
Ag1 Ca2 3.256046 1_465
Ag1 Ca2 3.256046 1_565
Ag1 Ca2 3.256046 1_455
Ag1 Ca2 3.256046 1_555
Ag1 Sr0 3.326969 1_455
Ag1 Sr0 3.326969 1_555
Ag2 Ca2 3.203731 1_455
Ag2 Ca2 3.203731 1_555
Ag2 Sr0 3.294955 1_545
Ag2 Sr0 3.294955 1_455
Ag2 Sr0 3.294955 1_555
Ag2 Sr0 3.294955 1_445
Ag2 Ca1 3.449043 1_555
Ag3 Ca1 3.153775 1_656
Ag3 Ca1 3.153775 1_556
Ag3 Ca2 3.217348 1_555
Ag3 Ca0 3.259392 1_645
Ag3 Ca0 3.259392 1_545
Ag3 Ca0 3.259392 1_555
Ag3 Ca0 3.259392 1_655
