# generated using pymatgen
data_K8Mg(SiO3)8
_symmetry_space_group_name_H-M   'P 1'
_cell_length_a   7.60017984
_cell_length_b   8.15250418
_cell_length_c   11.07160259
_cell_angle_alpha   94.93983002
_cell_angle_beta   88.67563292
_cell_angle_gamma   97.76020431
_symmetry_Int_Tables_number   1
_chemical_formula_structural   K8Mg(SiO3)8
_chemical_formula_sum   'K8 Mg1 Si8 O24'
_cell_volume   677.14897527
_cell_formula_units_Z   1
loop_
 _symmetry_equiv_pos_site_id
 _symmetry_equiv_pos_as_xyz
  1  'x, y, z'
loop_
 _atom_site_type_symbol
 _atom_site_label
 _atom_site_symmetry_multiplicity
 _atom_site_fract_x
 _atom_site_fract_y
 _atom_site_fract_z
 _atom_site_occupancy
  K  K0  1  0.01637824  0.00249837  0.74439158  1
  K  K1  1  0.57680287  0.42626056  0.80498881  1
  K  K2  1  0.97925992  0.01254332  0.25804740  1
  K  K3  1  0.46296011  0.50508359  0.23097684  1
  K  K4  1  0.67384597  0.16835633  0.53771953  1
  K  K5  1  0.19586137  0.66908189  0.98323921  1
  K  K6  1  0.26443704  0.86447076  0.43989038  1
  K  K7  1  0.84769104  0.31829612  0.02105597  1
  Mg  Mg0  1  0.40706807  0.65995138  0.60819394  1
  Si  Si0  1  0.98742835  0.55344085  0.67716521  1
  Si  Si1  1  0.52848949  0.97337260  0.80939074  1
  Si  Si2  1  0.00595283  0.48174177  0.32074231  1
  Si  Si3  1  0.50115708  0.99737509  0.17974665  1
  Si  Si4  1  0.78041808  0.70784554  0.49481465  1
  Si  Si5  1  0.30749731  0.17103945  0.99532958  1
  Si  Si6  1  0.19216845  0.33806534  0.52510268  1
  Si  Si7  1  0.70007001  0.78526686  0.99625830  1
  O  O0  1  0.94316775  0.52284292  0.81944964  1
  O  O1  1  0.47896147  0.89154344  0.67451372  1
  O  O2  1  0.08576819  0.52265199  0.18781100  1
  O  O3  1  0.54335671  0.06315912  0.31988388  1
  O  O4  1  0.80338987  0.60163807  0.61533136  1
  O  O5  1  0.35072304  0.05049034  0.87301233  1
  O  O6  1  0.17197362  0.46023147  0.41074784  1
  O  O7  1  0.67579917  0.92501470  0.11240068  1
  O  O8  1  0.01220867  0.36335769  0.61357243  1
  O  O9  1  0.55597387  0.81475002  0.89231601  1
  O  O10  1  0.90684823  0.63677654  0.38339461  1
  O  O11  1  0.45425282  0.14816221  0.09982504  1
  O  O12  1  0.15469724  0.68833733  0.64755698  1
  O  O13  1  0.69383217  0.11964079  0.81131844  1
  O  O14  1  0.86944866  0.31502606  0.28565455  1
  O  O15  1  0.33351164  0.85537518  0.19820699  1
  O  O16  1  0.84657171  0.90603406  0.51755231  1
  O  O17  1  0.32284132  0.36617731  0.97246691  1
  O  O18  1  0.17460409  0.14586506  0.47459237  1
  O  O19  1  0.65994910  0.59519161  0.03201767  1
  O  O20  1  0.57059422  0.68041164  0.46277538  1
  O  O21  1  0.10121819  0.12551758  0.03451930  1
  O  O22  1  0.37266152  0.41296209  0.59807635  1
  O  O23  1  0.90682750  0.81248595  0.94904544  1
loop_
_geom_bond_atom_site_label_1
_geom_bond_atom_site_label_2
_geom_bond_distance
_geom_bond_site_symmetry_2
K0 O13 2.810140 1_455
K0 O16 2.850808 1_445
K0 O23 2.897568 1_445
K0 O5 2.905319 1_555
K0 O12 3.002734 1_545
K1 O17 2.671953 1_555
K1 O13 2.770938 1_555
K1 O22 2.782633 1_555
K1 O0 2.793838 1_555
K1 O19 2.802912 1_556
K1 O4 3.017289 1_555
K1 O9 3.254495 1_555
K2 O14 2.699123 1_555
K2 O21 2.808578 1_655
K2 O7 2.821005 1_545
K2 O18 2.900609 1_655
K2 O15 3.167425 1_645
K2 O16 3.175705 1_545
K3 O19 2.731785 1_555
K3 O20 2.906562 1_555
K3 O2 2.941605 1_555
K3 O6 2.947820 1_555
K3 O11 3.131228 1_555
K3 O17 3.140897 1_554
K3 O15 3.195085 1_555
K4 O16 2.647465 1_545
K4 O3 2.657151 1_555
K4 O8 2.934563 1_655
K4 O1 3.026989 1_545
K4 O13 3.098625 1_555
K4 O22 3.255070 1_555
K4 O14 3.366157 1_555
K5 O23 2.672802 1_455
K5 O2 2.713566 1_556
K5 O0 2.751099 1_455
K5 O17 2.762466 1_555
K5 O15 2.851168 1_556
K5 O9 3.019136 1_555
K6 O18 2.477007 1_565
K6 O15 2.711556 1_555
K6 O3 2.862866 1_565
K6 O12 2.863627 1_555
K6 Mg0 2.922998 1_555
K6 O20 2.960691 1_555
K6 O1 3.074845 1_555
K6 O10 3.120793 1_455
K6 O6 3.265059 1_555
K6 O16 3.324814 1_455
K7 O21 2.660154 1_655
K7 O19 2.821555 1_555
K7 O2 2.875563 1_655
K7 O13 2.889463 1_554
K7 O0 2.920447 1_554
K7 O14 2.940618 1_555
K7 O11 3.254752 1_555
Mg0 O1 1.975765 1_555
Mg0 O22 1.988907 1_555
Mg0 O12 1.996576 1_555
Mg0 O20 2.015532 1_555
O0 Si0 1.636314 1_555
O1 Si1 1.613473 1_555
O2 Si2 1.622938 1_555
O3 Si3 1.622043 1_545
O4 Si4 1.676646 1_555
O4 Si0 1.678843 1_555
O5 Si5 1.656859 1_555
O5 Si1 1.681047 1_545
O6 Si2 1.662485 1_555
O6 Si6 1.698796 1_555
O7 Si3 1.660022 1_555
O7 Si7 1.667034 1_554
O8 Si0 1.678511 1_455
O8 Si6 1.688807 1_555
O9 Si7 1.660868 1_555
O9 Si1 1.686757 1_555
O10 Si2 1.651649 1_655
O10 Si4 1.659288 1_555
O11 Si3 1.655739 1_545
O11 Si5 1.664425 1_554
O12 Si0 1.611924 1_455
O13 Si1 1.610501 1_545
O14 Si2 1.619082 1_655
O15 Si3 1.623495 1_555
O16 Si4 1.625784 1_555
O17 Si5 1.620617 1_555
O18 Si6 1.606807 1_555
O19 Si7 1.619700 1_554
O20 Si4 1.623294 1_555
O21 Si5 1.619574 1_554
O22 Si6 1.627096 1_555
O23 Si7 1.636948 1_555
