# generated using pymatgen
data_Co3B7IO13
_symmetry_space_group_name_H-M   'P 1'
_cell_length_a   8.43575300
_cell_length_b   9.38006500
_cell_length_c   12.94477400
_cell_angle_alpha   90.00000000
_cell_angle_beta   90.00000000
_cell_angle_gamma   90.00000000
_symmetry_Int_Tables_number   1
_chemical_formula_structural   Co3B7IO13
_chemical_formula_sum   'Co12 B28 I4 O52'
_cell_volume   1024.29293099
_cell_formula_units_Z   4
loop_
 _symmetry_equiv_pos_site_id
 _symmetry_equiv_pos_as_xyz
  1  'x, y, z'
loop_
 _atom_site_type_symbol
 _atom_site_label
 _atom_site_symmetry_multiplicity
 _atom_site_fract_x
 _atom_site_fract_y
 _atom_site_fract_z
 _atom_site_occupancy
  Co  Co0  1  0.14590100  0.74883400  0.25708500  1
  Co  Co1  1  0.14590100  0.75116600  0.75708500  1
  Co  Co2  1  0.85409900  0.25116600  0.75708500  1
  Co  Co3  1  0.20938200  0.31119900  0.77921900  1
  Co  Co4  1  0.79061800  0.68880100  0.27921900  1
  Co  Co5  1  0.49924700  0.96234700  0.48390600  1
  Co  Co6  1  0.85409900  0.24883400  0.25708500  1
  Co  Co7  1  0.20938200  0.18880100  0.27921900  1
  Co  Co8  1  0.50075300  0.46234700  0.48390600  1
  Co  Co9  1  0.50075300  0.03765300  0.98390600  1
  Co  Co10  1  0.79061800  0.81119900  0.77921900  1
  Co  Co11  1  0.49924700  0.53765300  0.98390600  1
  B  B0  1  0.17793400  0.51948200  0.44092900  1
  B  B1  1  0.22116800  0.75758700  0.53381800  1
  B  B2  1  0.97019300  0.51521500  0.77313600  1
  B  B3  1  0.97342800  0.87241700  0.58617200  1
  B  B4  1  0.02657200  0.37241700  0.58617200  1
  B  B5  1  0.02980700  0.48478500  0.27313600  1
  B  B6  1  0.46140300  0.78868600  0.12653100  1
  B  B7  1  0.72972900  0.72781900  0.01322500  1
  B  B8  1  0.14948900  0.49657900  0.94214000  1
  B  B9  1  0.17793400  0.98051800  0.94092900  1
  B  B10  1  0.72972900  0.77218100  0.51322500  1
  B  B11  1  0.77883200  0.25758700  0.53381800  1
  B  B12  1  0.77883200  0.24241300  0.03381800  1
  B  B13  1  0.85051100  0.50342100  0.44214000  1
  B  B14  1  0.82206600  0.48051800  0.94092900  1
  B  B15  1  0.27027100  0.27218100  0.51322500  1
  B  B16  1  0.97342800  0.62758300  0.08617200  1
  B  B17  1  0.14948900  0.00342100  0.44214000  1
  B  B18  1  0.97019300  0.98478500  0.27313600  1
  B  B19  1  0.46140300  0.71131400  0.62653100  1
  B  B20  1  0.22116800  0.74241300  0.03381800  1
  B  B21  1  0.53859700  0.28868600  0.12653100  1
  B  B22  1  0.82206600  0.01948200  0.44092900  1
  B  B23  1  0.53859700  0.21131400  0.62653100  1
  B  B24  1  0.02657200  0.12758300  0.08617200  1
  B  B25  1  0.02980700  0.01521500  0.77313600  1
  B  B26  1  0.85051100  0.99657900  0.94214000  1
  B  B27  1  0.27027100  0.22781900  0.01322500  1
  I  I0  1  0.55391800  0.95501000  0.22664100  1
  I  I1  1  0.44608200  0.04499000  0.72664100  1
  I  I2  1  0.44608200  0.45501000  0.22664100  1
  I  I3  1  0.55391800  0.54499000  0.72664100  1
  O  O0  1  0.86021200  0.43187100  0.83873200  1
  O  O1  1  0.94011200  0.83525900  0.26718400  1
  O  O2  1  0.22471100  0.35360300  0.95245400  1
  O  O3  1  0.55298800  0.74030400  0.04842400  1
  O  O4  1  0.28202800  0.62430100  0.48948300  1
  O  O5  1  0.93794100  0.24994200  0.05555200  1
  O  O6  1  0.44701200  0.24030400  0.04842400  1
  O  O7  1  0.68635800  0.24311000  0.14467100  1
  O  O8  1  0.03787400  0.93469700  0.67837200  1
  O  O9  1  0.13756200  0.99026600  0.32463900  1
  O  O10  1  0.71466700  0.60968000  0.93700000  1
  O  O11  1  0.26821500  0.60403000  0.98165700  1
  O  O12  1  0.06205900  0.75005800  0.55555200  1
  O  O13  1  0.80930400  0.82632400  0.60377200  1
  O  O14  1  0.96212600  0.06530300  0.17837200  1
  O  O15  1  0.05988800  0.33525900  0.26718400  1
  O  O16  1  0.93794100  0.25005800  0.55555200  1
  O  O17  1  0.03787400  0.56530300  0.17837200  1
  O  O18  1  0.01665200  0.47848000  0.49135800  1
  O  O19  1  0.73178500  0.10403000  0.98165700  1
  O  O20  1  0.26821500  0.89597000  0.48165700  1
  O  O21  1  0.77528900  0.85360300  0.95245400  1
  O  O22  1  0.13978800  0.56812900  0.33873200  1
  O  O23  1  0.31364200  0.74311000  0.14467100  1
  O  O24  1  0.28533300  0.39032000  0.43700000  1
  O  O25  1  0.13978800  0.93187100  0.83873200  1
  O  O26  1  0.71797200  0.37569900  0.98948300  1
  O  O27  1  0.31364200  0.75689000  0.64467100  1
  O  O28  1  0.13756200  0.50973400  0.82463900  1
  O  O29  1  0.01665200  0.02152000  0.99135800  1
  O  O30  1  0.98334800  0.97848000  0.49135800  1
  O  O31  1  0.96212600  0.43469700  0.67837200  1
  O  O32  1  0.06205900  0.74994200  0.05555200  1
  O  O33  1  0.71797200  0.12430100  0.48948300  1
  O  O34  1  0.22471100  0.14639700  0.45245400  1
  O  O35  1  0.71466700  0.89032000  0.43700000  1
  O  O36  1  0.73178500  0.39597000  0.48165700  1
  O  O37  1  0.77528900  0.64639700  0.45245400  1
  O  O38  1  0.44701200  0.25969600  0.54842400  1
  O  O39  1  0.86243800  0.00973400  0.82463900  1
  O  O40  1  0.28202800  0.87569900  0.98948300  1
  O  O41  1  0.28533300  0.10968000  0.93700000  1
  O  O42  1  0.94011200  0.66474100  0.76718400  1
  O  O43  1  0.98334800  0.52152000  0.99135800  1
  O  O44  1  0.55298800  0.75969600  0.54842400  1
  O  O45  1  0.05988800  0.16474100  0.76718400  1
  O  O46  1  0.86021200  0.06812900  0.33873200  1
  O  O47  1  0.86243800  0.49026600  0.32463900  1
  O  O48  1  0.19069600  0.32632400  0.60377200  1
  O  O49  1  0.68635800  0.25689000  0.64467100  1
  O  O50  1  0.80930400  0.67367600  0.10377200  1
  O  O51  1  0.19069600  0.17367600  0.10377200  1
loop_
_geom_bond_atom_site_label_1
_geom_bond_atom_site_label_2
_geom_bond_distance
_geom_bond_site_symmetry_2
Co0 O1 1.920397 1_455
Co0 O22 1.998202 1_555
Co0 O23 2.030443 1_555
Co0 O17 2.198255 1_555
Co0 O9 2.428637 1_555
Co1 O42 1.920397 1_455
Co1 O25 1.998202 1_555
Co1 O27 2.030443 1_555
Co1 O8 2.198255 1_555
Co1 O28 2.428637 1_555
Co2 O45 1.920397 1_655
Co2 O0 1.998202 1_555
Co2 O49 2.030443 1_555
Co2 O31 2.198255 1_555
Co2 O39 2.428637 1_555
Co3 O45 1.871341 1_555
Co3 O28 2.044701 1_555
Co3 O48 2.281002 1_555
Co3 O2 2.281158 1_555
Co4 O1 1.871341 1_555
Co4 O47 2.044701 1_555
Co4 O50 2.281002 1_555
Co4 O37 2.281158 1_555
Co5 O35 2.031615 1_555
Co5 O20 2.046174 1_555
Co5 O44 2.125177 1_555
Co5 O33 2.391114 1_565
Co6 O15 1.920397 1_655
Co6 O46 1.998202 1_555
Co6 O7 2.030443 1_555
Co6 O14 2.198255 1_555
Co6 O47 2.428637 1_555
Co7 O15 1.871341 1_555
Co7 O9 2.044701 1_545
Co7 O51 2.281002 1_555
Co7 O34 2.281158 1_555
Co8 O24 2.031615 1_555
Co8 O36 2.046174 1_555
Co8 O38 2.125177 1_555
Co8 O4 2.391114 1_555
Co9 O41 2.031615 1_555
Co9 O19 2.046174 1_555
Co9 O6 2.125177 1_556
Co9 O40 2.391114 1_545
Co10 O42 1.871341 1_555
Co10 O39 2.044701 1_565
Co10 O13 2.281002 1_555
Co10 O21 2.281158 1_555
Co11 O10 2.031615 1_555
Co11 O11 2.046174 1_555
Co11 O3 2.125177 1_556
Co11 O26 2.391114 1_555
B0 O22 1.435925 1_555
B0 O4 1.460417 1_555
B0 O24 1.513689 1_555
B0 O18 1.557277 1_555
B1 O12 1.373191 1_555
B1 O4 1.468341 1_555
B1 O20 1.516026 1_555
B1 O27 1.633313 1_555
B2 O42 1.427415 1_555
B2 O31 1.442166 1_555
B2 O0 1.480859 1_555
B2 O28 1.562223 1_655
B3 O12 1.425978 1_655
B3 O8 1.435721 1_655
B3 O13 1.468231 1_555
B3 O30 1.582139 1_555
B4 O16 1.425978 1_455
B4 O31 1.435721 1_455
B4 O48 1.468231 1_555
B4 O18 1.582139 1_555
B5 O15 1.427415 1_555
B5 O17 1.442166 1_555
B5 O22 1.480859 1_555
B5 O47 1.562223 1_455
B6 O23 1.338507 1_555
B6 O3 1.350973 1_555
B6 I0 2.173118 1_555
B7 O50 1.443045 1_555
B7 O21 1.469228 1_554
B7 O10 1.489212 1_554
B7 O3 1.563406 1_555
B8 O2 1.489664 1_555
B8 O11 1.510171 1_555
B8 O28 1.529334 1_555
B8 O43 1.557215 1_455
B9 O25 1.435925 1_555
B9 O40 1.460417 1_555
B9 O41 1.513689 1_565
B9 O29 1.557277 1_565
B10 O13 1.443045 1_555
B10 O37 1.469228 1_555
B10 O35 1.489212 1_555
B10 O44 1.563406 1_555
B11 O16 1.373191 1_555
B11 O33 1.468341 1_555
B11 O36 1.516026 1_555
B11 O49 1.633313 1_555
B12 O5 1.373191 1_555
B12 O26 1.468341 1_554
B12 O19 1.516026 1_554
B12 O7 1.633313 1_555
B13 O37 1.489664 1_555
B13 O36 1.510171 1_555
B13 O47 1.529334 1_555
B13 O18 1.557215 1_655
B14 O0 1.435925 1_555
B14 O26 1.460417 1_555
B14 O10 1.513689 1_555
B14 O43 1.557277 1_555
B15 O48 1.443045 1_555
B15 O34 1.469228 1_555
B15 O24 1.489212 1_555
B15 O38 1.563406 1_555
B16 O32 1.425978 1_655
B16 O17 1.435721 1_655
B16 O50 1.468231 1_555
B16 O43 1.582139 1_554
B17 O34 1.489664 1_555
B17 O20 1.510171 1_545
B17 O9 1.529334 1_545
B17 O30 1.557215 1_445
B18 O1 1.427415 1_555
B18 O14 1.442166 1_565
B18 O46 1.480859 1_565
B18 O9 1.562223 1_655
B19 O27 1.338507 1_555
B19 O44 1.350973 1_555
B19 I3 2.173118 1_555
B20 O32 1.373191 1_555
B20 O40 1.468341 1_554
B20 O11 1.516026 1_554
B20 O23 1.633313 1_555
B21 O7 1.338507 1_555
B21 O6 1.350973 1_555
B21 I2 2.173118 1_555
B22 O46 1.435925 1_555
B22 O33 1.460417 1_555
B22 O35 1.513689 1_545
B22 O30 1.557277 1_545
B23 O49 1.338507 1_555
B23 O38 1.350973 1_555
B23 I1 2.173118 1_555
B24 O5 1.425978 1_455
B24 O14 1.435721 1_455
B24 O51 1.468231 1_555
B24 O29 1.582139 1_554
B25 O45 1.427415 1_555
B25 O8 1.442166 1_545
B25 O25 1.480859 1_545
B25 O39 1.562223 1_455
B26 O21 1.489664 1_555
B26 O19 1.510171 1_565
B26 O39 1.529334 1_565
B26 O29 1.557215 1_665
B27 O51 1.443045 1_555
B27 O2 1.469228 1_554
B27 O41 1.489212 1_554
B27 O6 1.563406 1_555
