# generated using pymatgen
data_Sr2Ca6TiMn7O24
_symmetry_space_group_name_H-M   'P 1'
_cell_length_a   7.66056582
_cell_length_b   7.66056582
_cell_length_c   7.65752900
_cell_angle_alpha   90.00000000
_cell_angle_beta   90.00000000
_cell_angle_gamma   90.01353901
_symmetry_Int_Tables_number   1
_chemical_formula_structural   Sr2Ca6TiMn7O24
_chemical_formula_sum   'Sr2 Ca6 Ti1 Mn7 O24'
_cell_volume   449.37647653
_cell_formula_units_Z   1
loop_
 _symmetry_equiv_pos_site_id
 _symmetry_equiv_pos_as_xyz
  1  'x, y, z'
loop_
 _atom_site_type_symbol
 _atom_site_label
 _atom_site_symmetry_multiplicity
 _atom_site_fract_x
 _atom_site_fract_y
 _atom_site_fract_z
 _atom_site_occupancy
  Sr  Sr0  1  0.75149000  0.24850900  0.74883700  1
  Sr  Sr1  1  0.75149000  0.24850900  0.25116300  1
  Ca  Ca0  1  0.24756000  0.24723500  0.74719100  1
  Ca  Ca1  1  0.24703200  0.75296800  0.74724800  1
  Ca  Ca2  1  0.75276500  0.75244000  0.74719100  1
  Ca  Ca3  1  0.24756000  0.24723500  0.25280900  1
  Ca  Ca4  1  0.24703200  0.75296800  0.25275200  1
  Ca  Ca5  1  0.75276500  0.75244000  0.25280900  1
  Ti  Ti0  1  0.49662400  0.50337600  0.00000000  1
  Mn  Mn0  1  0.00111300  0.99888700  0.00000000  1
  Mn  Mn1  1  0.49843600  0.99970200  0.00000000  1
  Mn  Mn2  1  0.00029800  0.50156400  0.00000000  1
  Mn  Mn3  1  0.00130800  0.99869200  0.50000000  1
  Mn  Mn4  1  0.49856100  0.99887100  0.50000000  1
  Mn  Mn5  1  0.00112900  0.50143900  0.50000000  1
  Mn  Mn6  1  0.49840000  0.50160000  0.50000000  1
  O  O0  1  0.00417500  0.99582500  0.74998800  1
  O  O1  1  0.49588700  0.99570800  0.74981800  1
  O  O2  1  0.00429200  0.50411300  0.74981800  1
  O  O3  1  0.49725900  0.50274100  0.74717600  1
  O  O4  1  0.00417500  0.99582500  0.25001200  1
  O  O5  1  0.49588700  0.99570800  0.25018200  1
  O  O6  1  0.00429200  0.50411300  0.25018200  1
  O  O7  1  0.49725900  0.50274100  0.25282400  1
  O  O8  1  0.00743600  0.24982700  0.00000000  1
  O  O9  1  0.49613500  0.24710600  0.00000000  1
  O  O10  1  0.00116200  0.75017100  0.00000000  1
  O  O11  1  0.49798800  0.75277600  0.00000000  1
  O  O12  1  0.00692500  0.24998100  0.50000000  1
  O  O13  1  0.49295900  0.24976400  0.50000000  1
  O  O14  1  0.00163700  0.74994200  0.50000000  1
  O  O15  1  0.49865800  0.75012200  0.50000000  1
  O  O16  1  0.24982900  0.99883800  0.00000000  1
  O  O17  1  0.75017300  0.99256400  0.00000000  1
  O  O18  1  0.24722400  0.50201200  0.00000000  1
  O  O19  1  0.75289400  0.50386500  0.00000000  1
  O  O20  1  0.25005800  0.99836300  0.50000000  1
  O  O21  1  0.75001900  0.99307500  0.50000000  1
  O  O22  1  0.24987800  0.50134200  0.50000000  1
  O  O23  1  0.75023600  0.50704100  0.50000000  1
loop_
_geom_bond_atom_site_label_1
_geom_bond_atom_site_label_2
_geom_bond_distance
_geom_bond_site_symmetry_2
Ca0 O12 2.642262 1_555
Ca0 O13 2.667832 1_555
Ca0 O8 2.670543 1_556
Ca0 O0 2.680346 1_545
Ca0 O20 2.686651 1_545
Ca0 O1 2.708078 1_545
Ca0 O2 2.710607 1_555
Ca0 O16 2.714568 1_546
Ca0 O22 2.715240 1_555
Ca0 O9 2.715466 1_556
Ca0 O3 2.736471 1_555
Ca0 O18 2.748993 1_556
Ca1 O0 2.631429 1_555
Ca1 O1 2.662855 1_555
Ca1 O2 2.662855 1_555
Ca1 O14 2.668150 1_555
Ca1 O20 2.668150 1_555
Ca1 O16 2.700743 1_556
Ca1 O10 2.700743 1_556
Ca1 O22 2.701989 1_555
Ca1 O15 2.701989 1_555
Ca1 O3 2.711199 1_555
Ca1 O11 2.727978 1_556
Ca1 O18 2.727978 1_556
Ca2 O21 2.642262 1_555
Ca2 O23 2.667832 1_555
Ca2 O17 2.670543 1_556
Ca2 O0 2.680346 1_655
Ca2 O14 2.686651 1_655
Ca2 O2 2.708078 1_655
Ca2 O1 2.710607 1_555
Ca2 O10 2.714568 1_656
Ca2 O15 2.715240 1_555
Ca2 O19 2.715466 1_556
Ca2 O3 2.736471 1_555
Ca2 O11 2.748993 1_556
Ca3 O12 2.642262 1_555
Ca3 O13 2.667832 1_555
Ca3 O8 2.670543 1_555
Ca3 O4 2.680346 1_545
Ca3 O20 2.686651 1_545
Ca3 O5 2.708078 1_545
Ca3 O6 2.710607 1_555
Ca3 O16 2.714568 1_545
Ca3 O22 2.715240 1_555
Ca3 O9 2.715466 1_555
Ca3 O7 2.736471 1_555
Ca3 O18 2.748993 1_555
Ca4 O4 2.631429 1_555
Ca4 O5 2.662855 1_555
Ca4 O6 2.662855 1_555
Ca4 O14 2.668150 1_555
Ca4 O20 2.668150 1_555
Ca4 O16 2.700743 1_555
Ca4 O10 2.700743 1_555
Ca4 O15 2.701989 1_555
Ca4 O22 2.701989 1_555
Ca4 O7 2.711199 1_555
Ca4 O11 2.727978 1_555
Ca4 O18 2.727978 1_555
Ca5 O21 2.642262 1_555
Ca5 O23 2.667832 1_555
Ca5 O17 2.670543 1_555
Ca5 O4 2.680346 1_655
Ca5 O14 2.686651 1_655
Ca5 O6 2.708078 1_655
Ca5 O5 2.710607 1_555
Ca5 O10 2.714568 1_655
Ca5 O15 2.715240 1_555
Ca5 O19 2.715466 1_555
Ca5 O7 2.736471 1_555
Ca5 O11 2.748993 1_555
Mn0 O16 1.905305 1_555
Mn0 O10 1.905305 1_555
Mn0 O0 1.914762 1_554
Mn0 O4 1.914762 1_555
Mn0 O17 1.922941 1_455
Mn0 O8 1.922941 1_565
Mn1 O11 1.891595 1_555
Mn1 O9 1.895341 1_565
Mn1 O16 1.904480 1_555
Mn1 O5 1.916120 1_555
Mn1 O1 1.916120 1_554
Mn1 O17 1.929236 1_555
Mn2 O18 1.891595 1_555
Mn2 O19 1.895341 1_455
Mn2 O10 1.904480 1_555
Mn2 O2 1.916120 1_554
Mn2 O6 1.916120 1_555
Mn2 O8 1.929236 1_555
Mn3 O14 1.905568 1_555
Mn3 O20 1.905568 1_555
Mn3 O0 1.914542 1_555
Mn3 O4 1.914542 1_555
Mn3 O21 1.925487 1_455
Mn3 O12 1.925487 1_565
Mn4 O20 1.903677 1_555
Mn4 O15 1.905558 1_555
Mn4 O1 1.913252 1_555
Mn4 O5 1.913252 1_555
Mn4 O13 1.922472 1_565
Mn4 O21 1.926833 1_555
Mn5 O14 1.903677 1_555
Mn5 O22 1.905558 1_555
Mn5 O2 1.913252 1_555
Mn5 O6 1.913252 1_555
Mn5 O23 1.922472 1_455
Mn5 O12 1.926833 1_555
Mn6 O3 1.892798 1_555
Mn6 O7 1.892798 1_555
Mn6 O15 1.903820 1_555
Mn6 O22 1.903820 1_555
Mn6 O23 1.929647 1_555
Mn6 O13 1.929647 1_555
O0 Sr0 2.737840 1_465
O1 Sr0 2.753669 1_565
O2 Sr0 2.753680 1_455
O3 Ti0 1.936019 1_556
O3 Sr0 2.754616 1_555
O4 Sr1 2.737840 1_465
O5 Sr1 2.753669 1_565
O6 Sr1 2.753680 1_455
O7 Ti0 1.936019 1_555
O7 Sr1 2.754616 1_555
O8 Sr1 2.746532 1_455
O8 Sr0 2.746532 1_454
O9 Ti0 1.963176 1_555
O9 Sr1 2.743304 1_555
O9 Sr0 2.743304 1_554
O11 Ti0 1.910571 1_555
O12 Sr0 2.731288 1_455
O12 Sr1 2.731288 1_455
O13 Sr0 2.748326 1_555
O13 Sr1 2.748326 1_555
O17 Sr1 2.746527 1_565
O17 Sr0 2.746527 1_564
O18 Ti0 1.910571 1_555
O19 Ti0 1.963176 1_555
O19 Sr1 2.743310 1_555
O19 Sr0 2.743310 1_554
O21 Sr0 2.731282 1_565
O21 Sr1 2.731282 1_565
O23 Sr0 2.748332 1_555
O23 Sr1 2.748332 1_555
