# generated using pymatgen
data_La13(B2O13)2
_symmetry_space_group_name_H-M   'P 1'
_cell_length_a   12.95964300
_cell_length_b   6.93503200
_cell_length_c   14.73342334
_cell_angle_alpha   80.46333000
_cell_angle_beta   90.00000000
_cell_angle_gamma   90.00000000
_symmetry_Int_Tables_number   1
_chemical_formula_structural   La13(B2O13)2
_chemical_formula_sum   'La26 B8 O52'
_cell_volume   1305.87396481
_cell_formula_units_Z   2
loop_
 _symmetry_equiv_pos_site_id
 _symmetry_equiv_pos_as_xyz
  1  'x, y, z'
loop_
 _atom_site_type_symbol
 _atom_site_label
 _atom_site_symmetry_multiplicity
 _atom_site_fract_x
 _atom_site_fract_y
 _atom_site_fract_z
 _atom_site_occupancy
  La  La0  1  0.50000000  0.00000000  0.50000000  1
  La  La1  1  0.00000000  0.00000000  0.00000000  1
  La  La2  1  0.60973400  0.48629200  0.58861500  1
  La  La3  1  0.10973400  0.51370800  0.91138500  1
  La  La4  1  0.39026600  0.51370800  0.41138500  1
  La  La5  1  0.89026600  0.48629200  0.08861500  1
  La  La6  1  0.69322400  0.85226000  0.97042800  1
  La  La7  1  0.19322400  0.14774000  0.52957200  1
  La  La8  1  0.30677600  0.14774000  0.02957200  1
  La  La9  1  0.80677600  0.85226000  0.47042800  1
  La  La10  1  0.88795900  0.32482500  0.55815300  1
  La  La11  1  0.38795900  0.67517500  0.94184700  1
  La  La12  1  0.11204100  0.67517500  0.44184700  1
  La  La13  1  0.61204100  0.32482500  0.05815300  1
  La  La14  1  0.80106800  0.37678200  0.84062600  1
  La  La15  1  0.30106800  0.62321800  0.65937400  1
  La  La16  1  0.19893200  0.62321800  0.15937400  1
  La  La17  1  0.69893200  0.37678200  0.34062600  1
  La  La18  1  0.99861000  0.77107900  0.66776000  1
  La  La19  1  0.49861000  0.22892100  0.83224000  1
  La  La20  1  0.00139000  0.22892100  0.33224000  1
  La  La21  1  0.50139000  0.77107900  0.16776000  1
  La  La22  1  0.71190000  0.94607500  0.70091200  1
  La  La23  1  0.21190000  0.05392500  0.79908800  1
  La  La24  1  0.28810000  0.05392500  0.29908800  1
  La  La25  1  0.78810000  0.94607500  0.20091200  1
  B  B0  1  0.90479600  0.86324000  0.83765800  1
  B  B1  1  0.40479600  0.13676000  0.66234200  1
  B  B2  1  0.09520400  0.13676000  0.16234200  1
  B  B3  1  0.59520400  0.86324000  0.33765800  1
  B  B4  1  0.55077800  0.67512500  0.79006400  1
  B  B5  1  0.05077800  0.32487500  0.70993600  1
  B  B6  1  0.44922200  0.32487500  0.20993600  1
  B  B7  1  0.94922200  0.67512500  0.29006400  1
  O  O0  1  0.35279600  0.99012800  0.62844800  1
  O  O1  1  0.85279600  0.00987200  0.87155200  1
  O  O2  1  0.64720400  0.00987200  0.37155200  1
  O  O3  1  0.14720400  0.99012800  0.12844800  1
  O  O4  1  0.01134200  0.84114000  0.84726300  1
  O  O5  1  0.51134200  0.15886000  0.65273700  1
  O  O6  1  0.98865800  0.15886000  0.15273700  1
  O  O7  1  0.48865800  0.84114000  0.34726300  1
  O  O8  1  0.84963200  0.73771600  0.79072300  1
  O  O9  1  0.34963200  0.26228400  0.70927700  1
  O  O10  1  0.15036800  0.26228400  0.20927700  1
  O  O11  1  0.65036800  0.73771600  0.29072300  1
  O  O12  1  0.63295400  0.57863200  0.75722000  1
  O  O13  1  0.13295400  0.42136800  0.74278000  1
  O  O14  1  0.36704600  0.42136800  0.24278000  1
  O  O15  1  0.86704600  0.57863200  0.25722000  1
  O  O16  1  0.95283200  0.40460400  0.71331000  1
  O  O17  1  0.45283200  0.59539600  0.78669000  1
  O  O18  1  0.04716800  0.59539600  0.28669000  1
  O  O19  1  0.54716800  0.40460400  0.21331000  1
  O  O20  1  0.56898000  0.84533900  0.82697300  1
  O  O21  1  0.06898000  0.15466100  0.67302700  1
  O  O22  1  0.43102000  0.15466100  0.17302700  1
  O  O23  1  0.93102000  0.84533900  0.32697300  1
  O  O24  1  0.65438000  0.83765800  0.57013800  1
  O  O25  1  0.15438000  0.16234200  0.92986200  1
  O  O26  1  0.34562000  0.16234200  0.42986200  1
  O  O27  1  0.84562000  0.83765800  0.07013800  1
  O  O28  1  0.44634800  0.65466800  0.54829600  1
  O  O29  1  0.94634800  0.34533200  0.95170400  1
  O  O30  1  0.55365200  0.34533200  0.45170400  1
  O  O31  1  0.05365200  0.65466800  0.04829600  1
  O  O32  1  0.73813100  0.27840800  0.67973000  1
  O  O33  1  0.23813100  0.72159200  0.82027000  1
  O  O34  1  0.26186900  0.72159200  0.32027000  1
  O  O35  1  0.76186900  0.27840800  0.17973000  1
  O  O36  1  0.86142500  0.97476900  0.60609500  1
  O  O37  1  0.36142500  0.02523100  0.89390500  1
  O  O38  1  0.13857500  0.02523100  0.39390500  1
  O  O39  1  0.63857500  0.97476900  0.10609500  1
  O  O40  1  0.75094900  0.51715400  0.98207300  1
  O  O41  1  0.25094900  0.48284600  0.51792700  1
  O  O42  1  0.24905100  0.48284600  0.01792700  1
  O  O43  1  0.74905100  0.51715400  0.48207300  1
  O  O44  1  0.15617800  0.80885400  0.58992900  1
  O  O45  1  0.65617800  0.19114600  0.91007100  1
  O  O46  1  0.84382200  0.19114600  0.41007100  1
  O  O47  1  0.34382200  0.80885400  0.08992900  1
  O  O48  1  0.95381500  0.66531700  0.53307900  1
  O  O49  1  0.45381500  0.33468300  0.96692100  1
  O  O50  1  0.04618500  0.33468300  0.46692100  1
  O  O51  1  0.54618500  0.66531700  0.03307900  1
loop_
_geom_bond_atom_site_label_1
_geom_bond_atom_site_label_2
_geom_bond_distance
_geom_bond_site_symmetry_2
La0 O24 2.439820 1_545
La0 O26 2.439820 1_555
La0 O28 2.482056 1_545
La0 O30 2.482056 1_555
La0 O5 2.668496 1_555
La0 O7 2.668496 1_545
La0 O0 2.680036 1_545
La0 O2 2.680036 1_555
La1 O27 2.439820 1_445
La1 O25 2.439820 1_554
La1 O31 2.482056 1_545
La1 O29 2.482056 1_454
La1 O6 2.668496 1_455
La1 O4 2.668496 1_544
La1 O3 2.680036 1_545
La1 O1 2.680036 1_454
La2 O43 2.378730 1_555
La2 O28 2.443363 1_555
La2 O32 2.451145 1_555
La2 O24 2.475227 1_555
La2 O30 2.491233 1_555
La2 O5 2.638927 1_555
La2 O12 2.683032 1_555
La3 O42 2.378730 1_556
La3 O29 2.443363 1_455
La3 O33 2.451145 1_555
La3 O25 2.475227 1_555
La3 O31 2.491233 1_556
La3 O4 2.638927 1_555
La3 O13 2.683032 1_555
La4 O41 2.378730 1_555
La4 O30 2.443363 1_555
La4 O34 2.451145 1_555
La4 O26 2.475227 1_555
La4 O28 2.491233 1_555
La4 O7 2.638927 1_555
La4 O14 2.683032 1_555
La5 O40 2.378730 1_554
La5 O31 2.443363 1_655
La5 O35 2.451145 1_555
La5 O27 2.475227 1_555
La5 O29 2.491233 1_554
La5 O6 2.638927 1_555
La5 O15 2.683032 1_555
La6 O51 2.401565 1_556
La6 O39 2.404474 1_556
La6 O45 2.419121 1_565
La6 O40 2.420290 1_555
La6 O27 2.453516 1_556
La6 O1 2.658183 1_565
La6 O20 2.663787 1_555
La7 O50 2.401565 1_555
La7 O38 2.404474 1_555
La7 O44 2.419121 1_545
La7 O41 2.420290 1_555
La7 O26 2.453516 1_555
La7 O0 2.658183 1_545
La7 O21 2.663787 1_555
La8 O49 2.401565 1_554
La8 O37 2.404474 1_554
La8 O47 2.419121 1_545
La8 O42 2.420290 1_555
La8 O25 2.453516 1_554
La8 O3 2.658183 1_545
La8 O22 2.663787 1_555
La9 O48 2.401565 1_555
La9 O36 2.404474 1_555
La9 O46 2.419121 1_565
La9 O43 2.420290 1_555
La9 O24 2.453516 1_555
La9 O2 2.658183 1_565
La9 O23 2.663787 1_555
La10 O43 2.404331 1_555
La10 O36 2.437716 1_545
La10 O50 2.446580 1_655
La10 O48 2.480258 1_555
La10 O46 2.572335 1_555
La10 O16 2.580270 1_555
La10 O32 2.625145 1_555
La11 O42 2.404331 1_556
La11 O37 2.437716 1_565
La11 O51 2.446580 1_556
La11 O49 2.480258 1_555
La11 O47 2.572335 1_556
La11 O17 2.580270 1_555
La11 O33 2.625145 1_555
La12 O41 2.404331 1_555
La12 O38 2.437716 1_565
La12 O48 2.446580 1_455
La12 O50 2.480258 1_555
La12 O44 2.572335 1_555
La12 O18 2.580270 1_555
La12 O34 2.625145 1_555
La13 O40 2.404331 1_554
La13 O39 2.437716 1_545
La13 O49 2.446580 1_554
La13 O51 2.480258 1_555
La13 O45 2.572335 1_554
La13 O19 2.580270 1_555
La13 O35 2.625145 1_555
La14 O45 2.406993 1_555
La14 O29 2.480417 1_555
La14 O40 2.526824 1_555
La14 O8 2.567552 1_555
La14 O1 2.597592 1_555
La14 O32 2.699277 1_555
La14 O16 2.702639 1_555
La14 O12 2.765203 1_555
La15 O44 2.406993 1_555
La15 O28 2.480417 1_555
La15 O41 2.526824 1_555
La15 O9 2.567552 1_555
La15 O0 2.597592 1_555
La15 O33 2.699277 1_555
La15 O17 2.702639 1_555
La15 O13 2.765203 1_555
La16 O47 2.406993 1_555
La16 O31 2.480417 1_555
La16 O42 2.526824 1_555
La16 O10 2.567552 1_555
La16 O3 2.597592 1_555
La16 O34 2.699277 1_555
La16 O18 2.702639 1_555
La16 O14 2.765203 1_555
La17 O46 2.406993 1_555
La17 O30 2.480417 1_555
La17 O43 2.526824 1_555
La17 O11 2.567552 1_555
La17 O2 2.597592 1_555
La17 O35 2.699277 1_555
La17 O19 2.702639 1_555
La17 O15 2.765203 1_555
La18 O48 2.301030 1_555
La18 O44 2.335361 1_655
La18 O36 2.357206 1_555
La18 O16 2.587756 1_555
La18 O8 2.631422 1_555
La18 O4 2.771912 1_655
La18 O21 2.825337 1_665
La18 O13 3.040817 1_655
La19 O49 2.301030 1_555
La19 O45 2.335361 1_555
La19 O37 2.357206 1_555
La19 O17 2.587756 1_555
La19 O9 2.631422 1_555
La19 O5 2.771912 1_555
La19 O20 2.825337 1_545
La19 O12 3.040817 1_555
La20 O50 2.301030 1_555
La20 O46 2.335361 1_455
La20 O38 2.357206 1_555
La20 O18 2.587756 1_555
La20 O10 2.631422 1_555
La20 O6 2.771912 1_455
La20 O23 2.825337 1_445
La20 O15 3.040817 1_455
La21 O51 2.301030 1_555
La21 O47 2.335361 1_555
La21 O39 2.357206 1_555
La21 O19 2.587756 1_555
La21 O11 2.631422 1_555
La21 O7 2.771912 1_555
La21 O22 2.825337 1_565
La21 O14 3.040817 1_555
La22 O32 2.299228 1_565
La22 O24 2.305078 1_555
La22 O36 2.377828 1_555
La22 O8 2.528119 1_555
La22 O20 2.634070 1_555
La22 O12 2.743716 1_555
La22 O5 3.014957 1_565
La22 O1 3.196751 1_565
La23 O33 2.299228 1_545
La23 O25 2.305078 1_555
La23 O37 2.377828 1_555
La23 O9 2.528119 1_555
La23 O21 2.634070 1_555
La23 O13 2.743716 1_555
La23 O4 3.014957 1_545
La23 O0 3.196751 1_545
La24 O34 2.299228 1_545
La24 O26 2.305078 1_555
La24 O38 2.377828 1_555
La24 O10 2.528119 1_555
La24 O22 2.634070 1_555
La24 O14 2.743716 1_555
La24 O7 3.014957 1_545
La24 O3 3.196751 1_545
La25 O35 2.299228 1_565
La25 O27 2.305078 1_555
La25 O39 2.377828 1_555
La25 O11 2.528119 1_555
La25 O23 2.634070 1_555
La25 O15 2.743716 1_555
La25 O6 3.014957 1_565
La25 O2 3.196751 1_565
B0 O1 1.380531 1_565
B0 O4 1.393891 1_655
B0 O8 1.395185 1_555
B1 O0 1.380531 1_545
B1 O5 1.393891 1_555
B1 O9 1.395185 1_555
B2 O3 1.380531 1_545
B2 O6 1.393891 1_455
B2 O10 1.395185 1_555
B3 O2 1.380531 1_565
B3 O7 1.393891 1_555
B3 O11 1.395185 1_555
B4 O12 1.386879 1_555
B4 O17 1.388719 1_555
B4 O20 1.399107 1_555
B5 O13 1.386879 1_555
B5 O16 1.388719 1_455
B5 O21 1.399107 1_555
B6 O14 1.386879 1_555
B6 O19 1.388719 1_555
B6 O22 1.399107 1_555
B7 O15 1.386879 1_555
B7 O18 1.388719 1_655
B7 O23 1.399107 1_555
