# generated using pymatgen
data_MgV(SiO3)2
_symmetry_space_group_name_H-M   'P 1'
_cell_length_a   6.78723336
_cell_length_b   10.86000440
_cell_length_c   6.79258687
_cell_angle_alpha   75.35709726
_cell_angle_beta   85.71350046
_cell_angle_gamma   75.00265726
_symmetry_Int_Tables_number   1
_chemical_formula_structural   MgV(SiO3)2
_chemical_formula_sum   'Mg4 V4 Si8 O24'
_cell_volume   467.89192211
_cell_formula_units_Z   4
loop_
 _symmetry_equiv_pos_site_id
 _symmetry_equiv_pos_as_xyz
  1  'x, y, z'
loop_
 _atom_site_type_symbol
 _atom_site_label
 _atom_site_symmetry_multiplicity
 _atom_site_fract_x
 _atom_site_fract_y
 _atom_site_fract_z
 _atom_site_occupancy
  Mg  Mg0  1  0.75528900  0.37439800  0.24297500  1
  Mg  Mg1  1  0.75523700  0.87434200  0.24305100  1
  Mg  Mg2  1  0.24471100  0.12560100  0.75701200  1
  Mg  Mg3  1  0.24476400  0.62565400  0.75695900  1
  V  V0  1  0.90364400  0.62365900  0.09491900  1
  V  V1  1  0.09634100  0.87635200  0.90509900  1
  V  V2  1  0.90330400  0.12367000  0.09507800  1
  V  V3  1  0.09670100  0.37632700  0.90491000  1
  Si  Si0  1  0.38605700  0.10992100  0.21281600  1
  Si  Si1  1  0.38612500  0.60996300  0.21277300  1
  Si  Si2  1  0.78737400  0.14005100  0.61183400  1
  Si  Si3  1  0.78750200  0.64003000  0.61186900  1
  Si  Si4  1  0.21262600  0.35995000  0.38815300  1
  Si  Si5  1  0.21249900  0.85996800  0.38814200  1
  Si  Si6  1  0.61393900  0.39007800  0.78717800  1
  Si  Si7  1  0.61388100  0.89003800  0.78723200  1
  O  O0  1  0.36437100  0.22289400  0.34252200  1
  O  O1  1  0.36431900  0.72291300  0.34255400  1
  O  O2  1  0.65857600  0.02675500  0.63624400  1
  O  O3  1  0.65863500  0.52677500  0.63620000  1
  O  O4  1  0.63563300  0.27710900  0.65746500  1
  O  O5  1  0.63568500  0.77708900  0.65745000  1
  O  O6  1  0.34142200  0.47324700  0.36375500  1
  O  O7  1  0.34135600  0.97322900  0.36380700  1
  O  O8  1  0.61962600  0.06466400  0.13860300  1
  O  O9  1  0.61972400  0.56470200  0.13865000  1
  O  O10  1  0.85918300  0.18429200  0.37804300  1
  O  O11  1  0.85933900  0.68424400  0.37808000  1
  O  O12  1  0.38037100  0.43533000  0.86140200  1
  O  O13  1  0.38028200  0.93530000  0.86135500  1
  O  O14  1  0.14081300  0.31570800  0.62194400  1
  O  O15  1  0.14066800  0.81575300  0.62193200  1
  O  O16  1  0.03136500  0.41657900  0.21702400  1
  O  O17  1  0.03124300  0.91667300  0.21699500  1
  O  O18  1  0.78682500  0.33195400  0.96685900  1
  O  O19  1  0.78675800  0.83189900  0.96692900  1
  O  O20  1  0.21317300  0.16804300  0.03313400  1
  O  O21  1  0.21324800  0.66810200  0.03307600  1
  O  O22  1  0.96863500  0.08342000  0.78296500  1
  O  O23  1  0.96875500  0.58332400  0.78301700  1
loop_
_geom_bond_atom_site_label_1
_geom_bond_atom_site_label_2
_geom_bond_distance
_geom_bond_site_symmetry_2
Mg0 O10 1.996733 1_555
Mg0 O9 1.998218 1_555
Mg0 O18 2.025328 1_554
Mg0 O16 2.026340 1_655
Mg1 O11 1.996772 1_555
Mg1 O8 1.998555 1_565
Mg1 O19 2.025366 1_554
Mg1 O17 2.026571 1_655
Mg2 O14 1.996746 1_555
Mg2 O13 1.998216 1_545
Mg2 O20 2.025358 1_556
Mg2 O22 2.026339 1_455
Mg3 O15 1.996773 1_555
Mg3 O12 1.998562 1_555
Mg3 O21 2.025357 1_556
Mg3 O23 2.026585 1_455
O0 Si0 1.654330 1_555
O0 Si4 1.662643 1_555
O1 Si1 1.654365 1_555
O1 Si5 1.662718 1_555
O2 Si2 1.654514 1_555
O2 Si7 1.662848 1_545
O3 Si3 1.654536 1_555
O3 Si6 1.662655 1_555
O4 Si6 1.654320 1_555
O4 Si2 1.662650 1_555
O5 Si7 1.654362 1_555
O5 Si3 1.662727 1_555
O6 Si4 1.654524 1_555
O6 Si1 1.662844 1_555
O7 Si5 1.654540 1_555
O7 Si0 1.662658 1_565
O8 Si0 1.615972 1_555
O8 V2 2.159360 1_555
O9 Si1 1.615964 1_555
O9 V0 2.160665 1_555
O10 Si2 1.615551 1_555
O10 V2 2.160818 1_555
O11 Si3 1.615560 1_555
O11 V0 2.161884 1_555
O12 Si6 1.615983 1_555
O12 V3 2.159292 1_555
O13 Si7 1.615966 1_555
O13 V1 2.160753 1_555
O14 Si4 1.615561 1_555
O14 V3 2.160809 1_555
O15 Si5 1.615555 1_555
O15 V1 2.161997 1_555
O16 Si4 1.644299 1_555
O16 V0 2.156934 1_455
O16 V3 2.260551 1_554
O17 Si5 1.644358 1_555
O17 V2 2.156221 1_465
O17 V1 2.259274 1_554
O18 Si6 1.645056 1_555
O18 V2 2.163660 1_556
O18 V3 2.263286 1_655
O19 Si7 1.645092 1_555
O19 V0 2.163344 1_556
O19 V1 2.261659 1_655
O20 Si0 1.645051 1_555
O20 V3 2.163659 1_554
O20 V2 2.263237 1_455
O21 Si1 1.645092 1_555
O21 V1 2.163439 1_554
O21 V0 2.261758 1_455
O22 Si2 1.644308 1_555
O22 V1 2.156838 1_645
O22 V2 2.260533 1_556
O23 Si3 1.644349 1_555
O23 V3 2.156205 1_655
O23 V0 2.259378 1_556
