# generated using pymatgen
data_Ba3BN3
_symmetry_space_group_name_H-M   'P 1'
_cell_length_a   8.50935700
_cell_length_b   8.50922398
_cell_length_c   5.21503900
_cell_angle_alpha   90.00000000
_cell_angle_beta   90.00000000
_cell_angle_gamma   119.99872252
_symmetry_Int_Tables_number   1
_chemical_formula_structural   Ba3BN3
_chemical_formula_sum   'Ba6 B2 N6'
_cell_volume   327.02464483
_cell_formula_units_Z   2
loop_
 _symmetry_equiv_pos_site_id
 _symmetry_equiv_pos_as_xyz
  1  'x, y, z'
loop_
 _atom_site_type_symbol
 _atom_site_label
 _atom_site_symmetry_multiplicity
 _atom_site_fract_x
 _atom_site_fract_y
 _atom_site_fract_z
 _atom_site_occupancy
  Ba  Ba0  1  0.96449300  0.63850000  0.25000000  1
  Ba  Ba1  1  0.67400200  0.03550900  0.25000000  1
  Ba  Ba2  1  0.36150700  0.32599400  0.25000000  1
  Ba  Ba3  1  0.03550700  0.36150000  0.75000000  1
  Ba  Ba4  1  0.32599800  0.96449100  0.75000000  1
  Ba  Ba5  1  0.63849300  0.67400600  0.75000000  1
  B  B0  1  0.66666600  0.33332500  0.75000000  1
  B  B1  1  0.33333400  0.66667500  0.25000000  1
  N  N0  1  0.83933800  0.51783300  0.75000000  1
  N  N1  1  0.67849800  0.16065800  0.75000000  1
  N  N2  1  0.48216600  0.32150400  0.75000000  1
  N  N3  1  0.16066200  0.48216700  0.25000000  1
  N  N4  1  0.32150200  0.83934200  0.25000000  1
  N  N5  1  0.51783400  0.67849600  0.25000000  1
loop_
_geom_bond_atom_site_label_1
_geom_bond_atom_site_label_2
_geom_bond_distance
_geom_bond_site_symmetry_2
Ba0 N3 2.603189 1_655
Ba0 N4 2.637807 1_655
Ba0 N0 2.809657 1_555
Ba0 N0 2.809657 1_554
Ba1 N4 2.603243 1_545
Ba1 N5 2.637788 1_545
Ba1 N1 2.809615 1_554
Ba1 N1 2.809615 1_555
Ba2 N5 2.603214 1_555
Ba2 N3 2.637802 1_555
Ba2 N2 2.809630 1_554
Ba2 N2 2.809630 1_555
Ba3 N0 2.603189 1_455
Ba3 N1 2.637807 1_455
Ba3 N3 2.809657 1_556
Ba3 N3 2.809657 1_555
Ba4 N1 2.603243 1_565
Ba4 N2 2.637788 1_565
Ba4 N4 2.809615 1_556
Ba4 N4 2.809615 1_555
Ba5 N2 2.603214 1_555
Ba5 N0 2.637802 1_555
Ba5 N5 2.809630 1_555
Ba5 N5 2.809630 1_556
B0 N1 1.522101 1_555
B0 N2 1.522179 1_555
B0 N0 1.522203 1_555
B1 N4 1.522101 1_555
B1 N5 1.522179 1_555
B1 N3 1.522203 1_555
