# generated using pymatgen
data_SrLaCoO4
_symmetry_space_group_name_H-M   'P 1'
_cell_length_a   5.43127590
_cell_length_b   5.44331651
_cell_length_c   12.87153416
_cell_angle_alpha   89.98811480
_cell_angle_beta   90.01205776
_cell_angle_gamma   90.00166944
_symmetry_Int_Tables_number   1
_chemical_formula_structural   SrLaCoO4
_chemical_formula_sum   'Sr4 La4 Co4 O16'
_cell_volume   380.53599864
_cell_formula_units_Z   4
loop_
 _symmetry_equiv_pos_site_id
 _symmetry_equiv_pos_as_xyz
  1  'x, y, z'
loop_
 _atom_site_type_symbol
 _atom_site_label
 _atom_site_symmetry_multiplicity
 _atom_site_fract_x
 _atom_site_fract_y
 _atom_site_fract_z
 _atom_site_occupancy
  Sr  Sr0  1  0.00013400  0.49996300  0.14451300  1
  Sr  Sr1  1  0.49994900  0.50005800  0.64472300  1
  Sr  Sr2  1  0.99998100  0.99996900  0.35555900  1
  Sr  Sr3  1  0.49994600  0.00011000  0.85544800  1
  La  La0  1  0.49998900  0.99965800  0.14054000  1
  La  La1  1  0.99995700  0.00009200  0.64057300  1
  La  La2  1  0.50010100  0.50000500  0.35930700  1
  La  La3  1  0.99997700  0.49988700  0.85937600  1
  Co  Co0  1  0.50000200  0.50000500  0.99416400  1
  Co  Co1  1  0.50000900  0.99997700  0.50614100  1
  Co  Co2  1  0.00003600  0.50003200  0.49409700  1
  Co  Co3  1  0.99998100  0.99995800  0.00613200  1
  O  O0  1  0.50009300  0.99989400  0.32078800  1
  O  O1  1  0.99991200  0.00049500  0.82070100  1
  O  O2  1  0.49993800  0.50029400  0.17877500  1
  O  O3  1  0.00002400  0.50013600  0.67908500  1
  O  O4  1  0.99985600  0.49996500  0.33560500  1
  O  O5  1  0.49991000  0.50002000  0.83577200  1
  O  O6  1  0.00020100  0.99964700  0.16444000  1
  O  O7  1  0.50001000  0.00009100  0.66439000  1
  O  O8  1  0.24176700  0.24148300  0.99787100  1
  O  O9  1  0.75874700  0.25800000  0.50223800  1
  O  O10  1  0.75829200  0.75838100  0.99767600  1
  O  O11  1  0.24130500  0.74202900  0.50217100  1
  O  O12  1  0.25802500  0.74147000  0.00199900  1
  O  O13  1  0.74147200  0.75827900  0.49783600  1
  O  O14  1  0.74184800  0.25833500  0.00235500  1
  O  O15  1  0.25853600  0.24177000  0.49772700  1
loop_
_geom_bond_atom_site_label_1
_geom_bond_atom_site_label_2
_geom_bond_distance
_geom_bond_site_symmetry_2
La0 O0 2.320069 1_555
La0 O14 2.621380 1_565
La0 O12 2.623370 1_555
La0 O8 2.658934 1_564
La0 O10 2.660211 1_554
La0 O6 2.731927 1_555
La0 O6 2.734086 1_655
La0 O2 2.762289 1_555
La0 O2 2.769303 1_565
La1 O1 2.318525 1_555
La1 O9 2.618346 1_555
La1 O11 2.620531 1_645
La1 O13 2.660596 1_545
La1 O15 2.661503 1_655
La1 O7 2.732665 1_555
La1 O7 2.733109 1_655
La1 O3 2.766096 1_645
La1 O3 2.766770 1_655
La2 O2 2.323724 1_555
La2 O15 2.621343 1_555
La2 O13 2.621905 1_555
La2 O9 2.662962 1_555
La2 O11 2.663634 1_555
La2 O4 2.731462 1_555
La2 O4 2.733980 1_455
La2 O0 2.765753 1_555
La2 O0 2.767145 1_545
La3 O3 2.320622 1_655
La3 O10 2.621814 1_555
La3 O8 2.622769 1_655
La3 O12 2.657712 1_656
La3 O14 2.661058 1_556
La3 O5 2.732282 1_655
La3 O5 2.732879 1_555
La3 O1 2.763656 1_555
La3 O1 2.769964 1_565
Co0 O12 1.861502 1_556
Co0 O14 1.861981 1_556
Co0 O10 1.986938 1_555
Co0 O8 1.987349 1_555
Co0 O5 2.038748 1_555
Co0 O2 2.376228 1_556
Co1 O13 1.860768 1_555
Co1 O15 1.861189 1_565
Co1 O11 1.987022 1_555
Co1 O9 1.987420 1_565
Co1 O7 2.036908 1_565
Co1 O0 2.385778 1_555
Co2 O11 1.860923 1_555
Co2 O9 1.861183 1_455
Co2 O15 1.987384 1_555
Co2 O13 1.987633 1_455
Co2 O4 2.040035 1_455
Co2 O3 2.381080 1_555
Co3 O10 1.861195 1_554
Co3 O8 1.861222 1_664
Co3 O14 1.986464 1_565
Co3 O12 1.986699 1_655
Co3 O6 2.037667 1_655
Co3 O1 2.386783 1_564
O0 Sr2 2.751578 1_555
O0 Sr2 2.752964 1_455
O1 Sr3 2.752132 1_555
O1 Sr3 2.752311 1_655
O2 Sr0 2.750071 1_555
O2 Sr0 2.752356 1_655
O3 Sr1 2.751110 1_555
O3 Sr1 2.751730 1_455
O4 Sr0 2.459648 1_655
O4 Sr2 2.733675 1_545
O4 Sr2 2.733825 1_555
O5 Sr1 2.459094 1_555
O5 Sr3 2.732876 1_555
O5 Sr3 2.733956 1_565
O6 Sr2 2.459996 1_455
O6 Sr0 2.732058 1_555
O6 Sr0 2.735377 1_565
O7 Sr3 2.459210 1_555
O7 Sr1 2.733174 1_555
O7 Sr1 2.733637 1_545
O8 Sr3 2.656192 1_555
O8 Sr0 2.695716 1_556
O9 Sr1 2.660365 1_555
O9 Sr2 2.693719 1_545
O10 Sr3 2.655115 1_565
O10 Sr0 2.697054 1_656
O11 Sr1 2.659498 1_555
O11 Sr2 2.692299 1_455
O12 Sr0 2.656119 1_555
O12 Sr3 2.695664 1_564
O13 Sr2 2.656280 1_555
O13 Sr1 2.696451 1_555
O14 Sr0 2.654385 1_655
O14 Sr3 2.697666 1_554
O15 Sr2 2.655713 1_445
O15 Sr1 2.697356 1_555
