# generated using pymatgen
data_FeHO2
_symmetry_space_group_name_H-M   'P 1'
_cell_length_a   6.16233300
_cell_length_b   9.22455535
_cell_length_c   11.34466466
_cell_angle_alpha   84.07353373
_cell_angle_beta   89.91111186
_cell_angle_gamma   89.83694894
_symmetry_Int_Tables_number   1
_chemical_formula_structural   FeHO2
_chemical_formula_sum   'Fe16 H16 O32'
_cell_volume   641.43511490
_cell_formula_units_Z   16
loop_
 _symmetry_equiv_pos_site_id
 _symmetry_equiv_pos_as_xyz
  1  'x, y, z'
loop_
 _atom_site_type_symbol
 _atom_site_label
 _atom_site_symmetry_multiplicity
 _atom_site_fract_x
 _atom_site_fract_y
 _atom_site_fract_z
 _atom_site_occupancy
  Fe  Fe0  1  0.01210600  0.31293900  0.11792800  1
  Fe  Fe1  1  0.99884500  0.17672800  0.62588500  1
  Fe  Fe2  1  0.75092900  0.82674000  0.60930900  1
  Fe  Fe3  1  0.75034500  0.69088000  0.12183700  1
  Fe  Fe4  1  0.99961000  0.70330400  0.85219600  1
  Fe  Fe5  1  0.00956600  0.84142200  0.32883900  1
  Fe  Fe6  1  0.75041300  0.21277900  0.35276100  1
  Fe  Fe7  1  0.75436500  0.32191800  0.84197600  1
  Fe  Fe8  1  0.49241400  0.31163900  0.11637400  1
  Fe  Fe9  1  0.50416000  0.19629000  0.62684200  1
  Fe  Fe10  1  0.26068900  0.82784600  0.60723300  1
  Fe  Fe11  1  0.25868200  0.70572900  0.12544700  1
  Fe  Fe12  1  0.50662600  0.70754900  0.83671800  1
  Fe  Fe13  1  0.49083200  0.84983800  0.33533100  1
  Fe  Fe14  1  0.25803300  0.21648500  0.35353200  1
  Fe  Fe15  1  0.25345600  0.35735600  0.83625300  1
  H  H0  1  0.00477000  0.02322300  0.46145700  1
  H  H1  1  0.97857600  0.46245200  0.66686800  1
  H  H2  1  0.73996000  0.52487400  0.95742000  1
  H  H3  1  0.86094400  0.92558500  0.11227400  1
  H  H4  1  0.02725200  0.63105400  0.56611100  1
  H  H5  1  0.01821900  0.54090800  0.28541900  1
  H  H6  1  0.73665700  0.07303500  0.16442200  1
  H  H7  1  0.73937700  0.44838500  0.20323300  1
  H  H8  1  0.75081500  0.02746200  0.78775800  1
  H  H9  1  0.51699200  0.49108100  0.67486600  1
  H  H10  1  0.20958700  0.94692300  0.79815500  1
  H  H11  1  0.50467100  0.01714100  0.48890100  1
  H  H12  1  0.49813200  0.55136500  0.29056000  1
  H  H13  1  0.25674700  0.05744800  0.16742800  1
  H  H14  1  0.25486400  0.50515100  0.00175400  1
  H  H15  1  0.33790600  0.10181700  0.84054800  1
  O  O0  1  0.00398000  0.34255600  0.29367900  1
  O  O1  1  0.00579900  0.05750400  0.37181300  1
  O  O2  1  0.99808700  0.36759100  0.71295800  1
  O  O3  1  0.00515200  0.29411300  0.94697500  1
  O  O4  1  0.76302000  0.83592900  0.79304800  1
  O  O5  1  0.75321200  0.54703900  0.87113200  1
  O  O6  1  0.78092100  0.89090900  0.18455800  1
  O  O7  1  0.75339000  0.80283500  0.43168700  1
  O  O8  1  0.00435400  0.67660900  0.63921800  1
  O  O9  1  0.00726300  0.97221300  0.59512900  1
  O  O10  1  0.00790600  0.64450500  0.24936200  1
  O  O11  1  0.00176000  0.73845600  0.01773900  1
  O  O12  1  0.75039800  0.18016400  0.16225000  1
  O  O13  1  0.75229600  0.46462900  0.11534100  1
  O  O14  1  0.75106000  0.13434300  0.75766500  1
  O  O15  1  0.75468300  0.24115900  0.52275400  1
  O  O16  1  0.50470500  0.34754800  0.29352600  1
  O  O17  1  0.50324000  0.06070500  0.37079900  1
  O  O18  1  0.51155700  0.38732500  0.71163600  1
  O  O19  1  0.50142200  0.29099700  0.94569700  1
  O  O20  1  0.24028200  0.84342100  0.79339600  1
  O  O21  1  0.24955700  0.56255900  0.86409500  1
  O  O22  1  0.25770200  0.88832400  0.20583200  1
  O  O23  1  0.25054800  0.79028100  0.44028000  1
  O  O24  1  0.50304500  0.69039000  0.65978700  1
  O  O25  1  0.50381600  0.98203000  0.58540800  1
  O  O26  1  0.50923600  0.65275900  0.25052400  1
  O  O27  1  0.50701300  0.73071500  0.01346400  1
  O  O28  1  0.25365900  0.17019100  0.16373500  1
  O  O29  1  0.25439300  0.46999700  0.09057500  1
  O  O30  1  0.27297300  0.14984500  0.76815800  1
  O  O31  1  0.25099400  0.23940700  0.52619000  1
loop_
_geom_bond_atom_site_label_1
_geom_bond_atom_site_label_2
_geom_bond_distance
_geom_bond_site_symmetry_2
Fe0 O3 1.965486 1_554
Fe0 O28 2.017334 1_555
Fe0 O0 2.040743 1_555
Fe0 O12 2.058007 1_455
Fe0 O29 2.083873 1_555
Fe0 O13 2.121569 1_455
Fe1 O9 1.954191 1_645
Fe1 O15 1.960290 1_555
Fe1 O31 1.972935 1_655
Fe1 O2 2.105870 1_555
Fe1 O14 2.143602 1_555
Fe1 O30 2.333167 1_655
Fe2 O24 2.025534 1_555
Fe2 O7 2.049628 1_555
Fe2 O9 2.070874 1_655
Fe2 O25 2.086403 1_555
Fe2 O8 2.089073 1_655
Fe2 O4 2.096355 1_555
Fe3 O27 1.950476 1_555
Fe3 O11 1.969459 1_655
Fe3 O6 2.054266 1_555
Fe3 O26 2.086339 1_555
Fe3 O13 2.095956 1_555
Fe3 O10 2.161160 1_655
Fe4 O11 1.938601 1_656
Fe4 O4 1.973816 1_555
Fe4 O21 2.007310 1_655
Fe4 O20 2.035918 1_655
Fe4 O5 2.092127 1_555
Fe4 O8 2.453966 1_655
Fe5 O7 1.972789 1_455
Fe5 O23 1.976067 1_555
Fe5 O22 2.084499 1_555
Fe5 O1 2.100400 1_565
Fe5 O10 2.109734 1_555
Fe5 O6 2.173017 1_455
Fe6 O15 1.973030 1_555
Fe6 O16 2.027220 1_555
Fe6 O0 2.041003 1_655
Fe6 O17 2.069228 1_555
Fe6 O1 2.121174 1_655
Fe6 O12 2.212677 1_555
Fe7 O3 1.952798 1_655
Fe7 O19 1.955267 1_555
Fe7 O14 2.061848 1_555
Fe7 O2 2.108306 1_555
Fe7 O5 2.136269 1_555
Fe7 O18 2.146340 1_555
Fe8 O19 1.965766 1_554
Fe8 O28 2.004885 1_555
Fe8 O12 2.032340 1_555
Fe8 O29 2.066832 1_555
Fe8 O16 2.071850 1_555
Fe8 O13 2.136804 1_555
Fe9 O31 1.950422 1_555
Fe9 O15 1.961145 1_555
Fe9 O25 2.078269 1_545
Fe9 O18 2.093679 1_555
Fe9 O30 2.153585 1_555
Fe9 O14 2.161259 1_555
Fe10 O23 1.961463 1_555
Fe10 O24 2.007377 1_555
Fe10 O9 2.045066 1_555
Fe10 O25 2.065703 1_555
Fe10 O8 2.116456 1_555
Fe10 O20 2.135076 1_555
Fe11 O27 1.986048 1_555
Fe11 O22 1.996461 1_555
Fe11 O11 2.004484 1_555
Fe11 O26 2.120247 1_555
Fe11 O10 2.125462 1_555
Fe11 O29 2.250281 1_555
Fe12 O4 2.007811 1_555
Fe12 O24 2.029840 1_555
Fe12 O27 2.038307 1_556
Fe12 O21 2.078353 1_555
Fe12 O20 2.090433 1_555
Fe12 O5 2.126824 1_555
Fe13 O23 1.943185 1_555
Fe13 O7 1.975947 1_555
Fe13 O17 2.028286 1_565
Fe13 O22 2.060143 1_555
Fe13 O26 2.145505 1_555
Fe13 O6 2.474953 1_555
Fe14 O31 1.992108 1_555
Fe14 O16 2.018171 1_555
Fe14 O0 2.023451 1_555
Fe14 O17 2.077749 1_555
Fe14 O1 2.135155 1_555
Fe14 O28 2.238172 1_555
Fe15 O21 1.951057 1_555
Fe15 O19 2.023571 1_555
Fe15 O3 2.026631 1_555
Fe15 O2 2.102507 1_455
Fe15 O18 2.125936 1_555
Fe15 O30 2.139898 1_555
H0 O1 1.033378 1_555
H0 O9 1.540775 1_545
H1 O2 0.979122 1_555
H2 O5 0.982472 1_555
H3 O6 0.981545 1_555
H4 O8 0.977564 1_555
H5 O10 1.001806 1_555
H6 O12 0.989845 1_555
H7 O13 0.995981 1_555
H8 O14 1.009510 1_555
H8 O4 1.763016 1_545
H9 O18 1.004425 1_555
H10 O20 0.979717 1_555
H11 O25 1.109219 1_545
H11 O17 1.358505 1_555
H12 O26 0.999165 1_555
H13 O28 1.036638 1_555
H13 O22 1.575861 1_545
H14 O29 1.026174 1_555
H14 O21 1.596771 1_554
H15 O30 0.977601 1_555
