# generated using pymatgen
data_RbAgF3
_symmetry_space_group_name_H-M   'P 1'
_cell_length_a   4.35220889
_cell_length_b   6.14536768
_cell_length_c   6.14490424
_cell_angle_alpha   119.94665361
_cell_angle_beta   90.06301513
_cell_angle_gamma   44.90681261
_symmetry_Int_Tables_number   1
_chemical_formula_structural   RbAgF3
_chemical_formula_sum   'Rb1 Ag1 F3'
_cell_volume   82.16833244
_cell_formula_units_Z   1
loop_
 _symmetry_equiv_pos_site_id
 _symmetry_equiv_pos_as_xyz
  1  'x, y, z'
loop_
 _atom_site_type_symbol
 _atom_site_label
 _atom_site_symmetry_multiplicity
 _atom_site_fract_x
 _atom_site_fract_y
 _atom_site_fract_z
 _atom_site_occupancy
  Rb  Rb0  1  0.49692821  0.50153320  0.00153420  1
  Ag  Ag0  1  0.99881006  0.50059914  0.50059552  1
  F  F0  1  0.49867731  0.00057675  0.00057890  1
  F  F1  1  0.49865435  0.50076565  0.50076673  1
  F  F2  1  0.49992808  0.00002926  0.50002765  1
loop_
_geom_bond_atom_site_label_1
_geom_bond_atom_site_label_2
_geom_bond_distance
_geom_bond_site_symmetry_2
Ag0 F2 2.169173 1_565
Ag0 F2 2.169190 1_655
Ag0 F0 2.175833 1_566
Ag0 F0 2.175976 1_655
Ag0 F1 2.176059 1_555
Ag0 F1 2.176150 1_655
F0 Rb0 3.070035 1_645
F0 Rb0 3.070243 1_555
F0 Rb0 3.074937 1_455
F0 Rb0 3.075132 1_545
F1 Rb0 3.070065 1_645
F1 Rb0 3.070086 1_555
F1 Rb0 3.074805 1_466
F1 Rb0 3.074826 1_556
F2 Rb0 3.070377 1_645
F2 Rb0 3.075027 1_545
F2 Rb0 3.075091 1_556
F2 Rb0 3.088870 1_456
