# generated using pymatgen
data_CeGa2Ni3
_symmetry_space_group_name_H-M   'P 1'
_cell_length_a   8.82086956
_cell_length_b   8.82086956
_cell_length_c   4.14369200
_cell_angle_alpha   90.00000000
_cell_angle_beta   90.00000000
_cell_angle_gamma   119.99999673
_symmetry_Int_Tables_number   1
_chemical_formula_structural   CeGa2Ni3
_chemical_formula_sum   'Ce3 Ga6 Ni9'
_cell_volume   279.21639345
_cell_formula_units_Z   3
loop_
 _symmetry_equiv_pos_site_id
 _symmetry_equiv_pos_as_xyz
  1  'x, y, z'
loop_
 _atom_site_type_symbol
 _atom_site_label
 _atom_site_symmetry_multiplicity
 _atom_site_fract_x
 _atom_site_fract_y
 _atom_site_fract_z
 _atom_site_occupancy
  Ce  Ce0  1  0.66666700  0.33333300  0.50000000  1
  Ce  Ce1  1  0.33333300  0.66666700  0.50000000  1
  Ce  Ce2  1  0.00000000  0.00000000  0.00000000  1
  Ga  Ga0  1  0.49025900  0.49025900  0.00000000  1
  Ga  Ga1  1  0.50974100  0.00000000  0.00000000  1
  Ga  Ga2  1  0.00000000  0.50974100  0.00000000  1
  Ga  Ga3  1  0.72153900  0.72153900  0.50000000  1
  Ga  Ga4  1  0.27846100  0.00000000  0.50000000  1
  Ga  Ga5  1  0.00000000  0.27846100  0.50000000  1
  Ni  Ni0  1  0.82260200  0.18782600  0.00000000  1
  Ni  Ni1  1  0.81217400  0.63477600  0.00000000  1
  Ni  Ni2  1  0.36522400  0.17739800  0.00000000  1
  Ni  Ni3  1  0.18782600  0.82260200  0.00000000  1
  Ni  Ni4  1  0.63477600  0.81217400  0.00000000  1
  Ni  Ni5  1  0.17739800  0.36522400  0.00000000  1
  Ni  Ni6  1  0.29118700  0.29118700  0.50000000  1
  Ni  Ni7  1  0.70881300  0.00000000  0.50000000  1
  Ni  Ni8  1  0.00000000  0.70881300  0.50000000  1
loop_
_geom_bond_atom_site_label_1
_geom_bond_atom_site_label_2
_geom_bond_distance
_geom_bond_site_symmetry_2
Ce0 Ni0 3.097950 1_556
Ce0 Ni0 3.097950 1_555
Ce0 Ni2 3.097956 1_556
Ce0 Ni2 3.097956 1_555
Ce0 Ni1 3.097956 1_556
Ce0 Ni1 3.097956 1_555
Ce0 Ni7 3.142704 1_555
Ce0 Ni8 3.142710 1_655
Ce0 Ni6 3.142713 1_555
Ce0 Ga5 3.209784 1_655
Ce0 Ga4 3.209790 1_555
Ce0 Ga3 3.209793 1_555
Ce0 Ga1 3.283884 1_555
Ce0 Ga1 3.283884 1_556
Ce0 Ga2 3.283884 1_655
Ce0 Ga2 3.283884 1_656
Ce0 Ga0 3.283890 1_556
Ce0 Ga0 3.283890 1_555
Ce1 Ni3 3.097950 1_556
Ce1 Ni3 3.097950 1_555
Ce1 Ni5 3.097956 1_556
Ce1 Ni5 3.097956 1_555
Ce1 Ni4 3.097956 1_555
Ce1 Ni4 3.097956 1_556
Ce1 Ni8 3.142704 1_555
Ce1 Ni7 3.142710 1_565
Ce1 Ni6 3.142713 1_555
Ce1 Ga4 3.209784 1_565
Ce1 Ga5 3.209790 1_555
Ce1 Ga3 3.209793 1_555
Ce1 Ga2 3.283884 1_556
Ce1 Ga2 3.283884 1_555
Ce1 Ga1 3.283884 1_566
Ce1 Ga1 3.283884 1_565
Ce1 Ga0 3.283890 1_556
Ce1 Ga0 3.283890 1_555
Ce2 Ni3 2.790361 1_545
Ce2 Ni0 2.790361 1_455
Ce2 Ni2 2.790361 1_555
Ce2 Ni5 2.790361 1_555
Ce2 Ni4 2.790361 1_445
Ce2 Ni1 2.790361 1_445
Ga0 Ni2 2.405967 1_555
Ga0 Ni5 2.405967 1_555
Ga0 Ni1 2.463412 1_555
Ga0 Ni4 2.463412 1_555
Ga0 Ni6 2.715887 1_555
Ga0 Ni6 2.715887 1_554
Ga0 Ga3 2.907665 1_555
Ga0 Ga3 2.907665 1_554
Ga1 Ni4 2.405967 1_545
Ga1 Ni0 2.405967 1_555
Ga1 Ni2 2.463412 1_555
Ga1 Ni3 2.463412 1_545
Ga1 Ni7 2.715887 1_554
Ga1 Ni7 2.715887 1_555
Ga1 Ga4 2.907665 1_554
Ga1 Ga4 2.907665 1_555
Ga2 Ni1 2.405967 1_455
Ga2 Ni3 2.405967 1_555
Ga2 Ni5 2.463412 1_555
Ga2 Ni0 2.463412 1_455
Ga2 Ni8 2.715887 1_555
Ga2 Ni8 2.715887 1_554
Ga2 Ga5 2.907665 1_554
Ga2 Ga5 2.907665 1_555
Ga3 Ni4 2.475742 1_556
Ga3 Ni1 2.475742 1_555
Ga3 Ni1 2.475742 1_556
Ga3 Ni4 2.475742 1_555
Ga3 Ni7 2.514275 1_565
Ga3 Ni8 2.514275 1_655
Ga4 Ni2 2.475742 1_555
Ga4 Ni2 2.475742 1_556
Ga4 Ni3 2.475742 1_545
Ga4 Ni3 2.475742 1_546
Ga4 Ni6 2.514275 1_555
Ga4 Ni8 2.514276 1_545
Ga5 Ni5 2.475742 1_555
Ga5 Ni5 2.475742 1_556
Ga5 Ni0 2.475742 1_455
Ga5 Ni0 2.475742 1_456
Ga5 Ni6 2.514275 1_555
Ga5 Ni7 2.514276 1_455
Ni0 Ni7 2.526261 1_554
Ni0 Ni7 2.526261 1_555
Ni0 Ni5 2.710321 1_655
Ni0 Ni4 2.869642 1_545
Ni1 Ni8 2.526261 1_654
Ni1 Ni8 2.526261 1_655
Ni1 Ni4 2.710321 1_555
Ni1 Ni3 2.869642 1_655
Ni2 Ni6 2.526261 1_555
Ni2 Ni6 2.526261 1_554
Ni2 Ni3 2.710321 1_545
Ni2 Ni5 2.869642 1_555
Ni3 Ni8 2.526261 1_555
Ni3 Ni8 2.526261 1_554
Ni4 Ni7 2.526261 1_565
Ni4 Ni7 2.526261 1_564
Ni5 Ni6 2.526261 1_555
Ni5 Ni6 2.526261 1_554
