# generated using pymatgen
data_Li2FeCoO4
_symmetry_space_group_name_H-M   'P 1'
_cell_length_a   5.18588502
_cell_length_b   5.18588502
_cell_length_c   5.18588502
_cell_angle_alpha   133.67236398
_cell_angle_beta   133.67236398
_cell_angle_gamma   67.60019497
_symmetry_Int_Tables_number   1
_chemical_formula_structural   Li2FeCoO4
_chemical_formula_sum   'Li2 Fe1 Co1 O4'
_cell_volume   71.73061253
_cell_formula_units_Z   1
loop_
 _symmetry_equiv_pos_site_id
 _symmetry_equiv_pos_as_xyz
  1  'x, y, z'
loop_
 _atom_site_type_symbol
 _atom_site_label
 _atom_site_symmetry_multiplicity
 _atom_site_fract_x
 _atom_site_fract_y
 _atom_site_fract_z
 _atom_site_occupancy
  Li  Li0  1  0.25000000  0.75000000  0.50000000  1
  Li  Li1  1  0.50000000  0.50000000  0.00000000  1
  Fe  Fe0  1  0.00000000  0.00000000  0.00000000  1
  Co  Co0  1  0.75000000  0.25000000  0.50000000  1
  O  O0  1  0.52349400  0.02349400  0.50000000  1
  O  O1  1  0.23460300  0.23460300  0.00000000  1
  O  O2  1  0.97650600  0.47650600  0.50000000  1
  O  O3  1  0.76539700  0.76539700  0.00000000  1
loop_
_geom_bond_atom_site_label_1
_geom_bond_atom_site_label_2
_geom_bond_distance
_geom_bond_site_symmetry_2
Li0 O3 2.044239 1_556
Li0 O3 2.044239 1_455
Li0 O1 2.044239 1_555
Li0 O1 2.044239 1_566
Li0 O0 2.357182 1_565
Li0 O2 2.357182 1_455
Li1 O0 2.049952 1_565
Li1 O2 2.049952 1_555
Li1 O2 2.049952 1_454
Li1 O0 2.049952 1_554
Li1 O3 2.287396 1_555
Li1 O1 2.287396 1_555
Fe0 O1 2.021989 1_555
Fe0 O3 2.021989 1_445
Fe0 O0 2.049952 1_454
Fe0 O2 2.049952 1_455
Fe0 O2 2.049952 1_444
Fe0 O0 2.049952 1_555
Co0 O2 1.952203 1_555
Co0 O0 1.952203 1_555
Co0 O3 2.044239 1_556
Co0 O3 2.044239 1_545
Co0 O1 2.044239 1_555
Co0 O1 2.044239 1_656
