# generated using pymatgen
data_K2RbNdV2O8
_symmetry_space_group_name_H-M   'P 1'
_cell_length_a   6.15227437
_cell_length_b   6.15227437
_cell_length_c   7.96911800
_cell_angle_alpha   90.00000000
_cell_angle_beta   90.00000000
_cell_angle_gamma   120.00000396
_symmetry_Int_Tables_number   1
_chemical_formula_structural   K2RbNdV2O8
_chemical_formula_sum   'K2 Rb1 Nd1 V2 O8'
_cell_volume   261.22351088
_cell_formula_units_Z   1
loop_
 _symmetry_equiv_pos_site_id
 _symmetry_equiv_pos_as_xyz
  1  'x, y, z'
loop_
 _atom_site_type_symbol
 _atom_site_label
 _atom_site_symmetry_multiplicity
 _atom_site_fract_x
 _atom_site_fract_y
 _atom_site_fract_z
 _atom_site_occupancy
  K  K0  1  0.33333300  0.66666700  0.70360700  1
  K  K1  1  0.66666700  0.33333300  0.29639300  1
  Rb  Rb0  1  0.00000000  0.00000000  0.00000000  1
  Nd  Nd0  1  0.00000000  0.00000000  0.50000000  1
  V  V0  1  0.33333300  0.66666700  0.24869400  1
  V  V1  1  0.66666700  0.33333300  0.75130600  1
  O  O0  1  0.33333300  0.66666700  0.03767100  1
  O  O1  1  0.66666700  0.33333300  0.96232900  1
  O  O2  1  0.17762500  0.82237500  0.32518600  1
  O  O3  1  0.82237500  0.17762500  0.67481400  1
  O  O4  1  0.17762500  0.35525000  0.32518600  1
  O  O5  1  0.82237500  0.64475000  0.67481400  1
  O  O6  1  0.64475000  0.82237500  0.32518600  1
  O  O7  1  0.35525000  0.17762500  0.67481400  1
loop_
_geom_bond_atom_site_label_1
_geom_bond_atom_site_label_2
_geom_bond_distance
_geom_bond_site_symmetry_2
K0 O0 2.662195 1_556
K0 O7 3.086889 1_565
K0 O5 3.086889 1_455
K0 O3 3.086892 1_455
K0 O3 3.086892 1_565
K0 O7 3.086896 1_555
K0 O5 3.086896 1_555
K1 O1 2.662195 1_554
K1 O4 3.086889 1_655
K1 O6 3.086889 1_545
K1 O2 3.086892 1_655
K1 O2 3.086892 1_545
K1 O6 3.086896 1_555
K1 O4 3.086896 1_555
Nd0 O6 2.350188 1_445
Nd0 O5 2.350188 1_445
Nd0 O7 2.350188 1_555
Nd0 O4 2.350188 1_555
Nd0 O2 2.350188 1_545
Nd0 O3 2.350188 1_455
O0 V0 1.681667 1_555
O1 V1 1.681667 1_555
O2 V0 1.767663 1_555
O2 Rb0 3.209083 1_565
O3 V1 1.767663 1_555
O3 Rb0 3.209083 1_656
O4 V0 1.767668 1_555
O4 Rb0 3.209083 1_555
O5 V1 1.767668 1_555
O5 Rb0 3.209083 1_666
O6 V0 1.767668 1_555
O6 Rb0 3.209083 1_665
O7 V1 1.767668 1_555
O7 Rb0 3.209083 1_556
