# generated using pymatgen
data_BaNd4(CoO3)5
_symmetry_space_group_name_H-M   'P 1'
_cell_length_a   9.41574973
_cell_length_b   9.41574973
_cell_length_c   13.42850984
_cell_angle_alpha   63.62204851
_cell_angle_beta   63.62204851
_cell_angle_gamma   34.09159206
_symmetry_Int_Tables_number   1
_chemical_formula_structural   BaNd4(CoO3)5
_chemical_formula_sum   'Ba2 Nd8 Co10 O30'
_cell_volume   590.87902614
_cell_formula_units_Z   2
loop_
 _symmetry_equiv_pos_site_id
 _symmetry_equiv_pos_as_xyz
  1  'x, y, z'
loop_
 _atom_site_type_symbol
 _atom_site_label
 _atom_site_symmetry_multiplicity
 _atom_site_fract_x
 _atom_site_fract_y
 _atom_site_fract_z
 _atom_site_occupancy
  Ba  Ba0  1  0.49227500  0.50772500  0.75000000  1
  Ba  Ba1  1  0.50772500  0.49227500  0.25000000  1
  Nd  Nd0  1  0.28918600  0.30526400  0.55312500  1
  Nd  Nd1  1  0.09486100  0.10236200  0.35725900  1
  Nd  Nd2  1  0.89763800  0.90513900  0.14274100  1
  Nd  Nd3  1  0.69473600  0.71081400  0.94687500  1
  Nd  Nd4  1  0.71081400  0.69473600  0.44687500  1
  Nd  Nd5  1  0.30526400  0.28918600  0.05312500  1
  Nd  Nd6  1  0.10236200  0.09486100  0.85725900  1
  Nd  Nd7  1  0.90513900  0.89763800  0.64274100  1
  Co  Co0  1  0.29264400  0.30647400  0.80176000  1
  Co  Co1  1  0.09545700  0.10516500  0.59970100  1
  Co  Co2  1  0.90454300  0.89483500  0.40029900  1
  Co  Co3  1  0.70735600  0.69352600  0.19824000  1
  Co  Co4  1  0.50000000  0.50000000  0.00000000  1
  Co  Co5  1  0.89483500  0.90454300  0.90029900  1
  Co  Co6  1  0.69352500  0.70735600  0.69824000  1
  Co  Co7  1  0.50000000  0.50000000  0.50000000  1
  Co  Co8  1  0.30647500  0.29264400  0.30176000  1
  Co  Co9  1  0.10516500  0.09545700  0.09970100  1
  O  O0  1  0.81958800  0.25028200  0.06085000  1
  O  O1  1  0.57988600  0.08269200  0.88139900  1
  O  O2  1  0.37683000  0.91306900  0.66967000  1
  O  O3  1  0.19268200  0.66719600  0.47639900  1
  O  O4  1  0.99384400  0.46919400  0.28310600  1
  O  O5  1  0.33280400  0.80731800  0.02360100  1
  O  O6  1  0.08693100  0.62317000  0.83033000  1
  O  O7  1  0.91730800  0.42011400  0.61860100  1
  O  O8  1  0.74971800  0.18041200  0.43915000  1
  O  O9  1  0.53080600  0.00615600  0.21689400  1
  O  O10  1  0.18041200  0.74971800  0.93915000  1
  O  O11  1  0.00615600  0.53080600  0.71689400  1
  O  O12  1  0.80731800  0.33280400  0.52360100  1
  O  O13  1  0.62317000  0.08693100  0.33033000  1
  O  O14  1  0.42011400  0.91730800  0.11860100  1
  O  O15  1  0.66719600  0.19268200  0.97639900  1
  O  O16  1  0.46919400  0.99384400  0.78310600  1
  O  O17  1  0.25028200  0.81958800  0.56085000  1
  O  O18  1  0.08269200  0.57988600  0.38139900  1
  O  O19  1  0.91306900  0.37683000  0.16967000  1
  O  O20  1  0.47283700  0.31968300  0.64721100  1
  O  O21  1  0.27978700  0.11537100  0.44951000  1
  O  O22  1  0.03714200  0.96285800  0.25000000  1
  O  O23  1  0.88462900  0.72021300  0.05049000  1
  O  O24  1  0.68031700  0.52716300  0.85278900  1
  O  O25  1  0.72021300  0.88462900  0.55049000  1
  O  O26  1  0.52716300  0.68031700  0.35278900  1
  O  O27  1  0.31968300  0.47283700  0.14721100  1
  O  O28  1  0.11537100  0.27978700  0.94951000  1
  O  O29  1  0.96285800  0.03714200  0.75000000  1
loop_
_geom_bond_atom_site_label_1
_geom_bond_atom_site_label_2
_geom_bond_distance
_geom_bond_site_symmetry_2
Ba0 O29 2.597708 1_555
Ba0 O2 2.724699 1_555
Ba0 O6 2.724699 1_555
Ba0 O17 2.774762 1_555
Ba0 O10 2.774762 1_555
Ba0 O20 2.829561 1_555
Ba0 O24 2.829561 1_555
Ba0 O29 2.922482 1_465
Ba0 O15 3.016388 1_555
Ba0 O12 3.016388 1_555
Ba0 O7 3.059522 1_555
Ba0 O1 3.059522 1_555
Ba1 O22 2.597708 1_555
Ba1 O13 2.724699 1_555
Ba1 O19 2.724699 1_555
Ba1 O8 2.774762 1_555
Ba1 O0 2.774762 1_555
Ba1 O26 2.829561 1_555
Ba1 O27 2.829561 1_555
Ba1 O22 2.922482 1_645
Ba1 O5 3.016388 1_555
Ba1 O3 3.016388 1_555
Ba1 O14 3.059522 1_555
Ba1 O18 3.059522 1_555
Nd0 O25 2.352141 1_545
Nd0 O11 2.452920 1_555
Nd0 O7 2.457786 1_455
Nd0 O3 2.466544 1_555
Nd0 O18 2.478472 1_555
Nd0 O20 2.662228 1_555
Nd0 O21 2.778994 1_555
Nd0 O2 2.780637 1_545
Nd1 O26 2.359558 1_545
Nd1 O8 2.428451 1_455
Nd1 O4 2.484034 1_455
Nd1 O12 2.496120 1_455
Nd1 O19 2.583456 1_455
Nd1 O21 2.643144 1_555
Nd1 O17 2.708953 1_545
Nd1 O22 2.766644 1_545
Nd2 O27 2.359558 1_655
Nd2 O0 2.428451 1_565
Nd2 O9 2.484034 1_565
Nd2 O15 2.496120 1_564
Nd2 O13 2.583456 1_565
Nd2 O23 2.643144 1_555
Nd2 O10 2.708953 1_654
Nd2 O22 2.766644 1_655
Nd3 O28 2.352141 1_655
Nd3 O16 2.452920 1_555
Nd3 O1 2.457786 1_565
Nd3 O5 2.466544 1_556
Nd3 O14 2.478472 1_556
Nd3 O24 2.662228 1_555
Nd3 O23 2.778994 1_556
Nd3 O6 2.780637 1_655
Nd4 O21 2.352141 1_565
Nd4 O4 2.452920 1_555
Nd4 O18 2.457786 1_655
Nd4 O12 2.466544 1_555
Nd4 O7 2.478472 1_555
Nd4 O26 2.662228 1_555
Nd4 O25 2.778994 1_555
Nd4 O13 2.780637 1_565
Nd5 O23 2.352141 1_455
Nd5 O9 2.452920 1_555
Nd5 O14 2.457786 1_545
Nd5 O15 2.466544 1_554
Nd5 O1 2.478472 1_554
Nd5 O27 2.662228 1_555
Nd5 O28 2.778994 1_554
Nd5 O19 2.780637 1_455
Nd6 O24 2.359558 1_455
Nd6 O10 2.428451 1_545
Nd6 O16 2.484034 1_545
Nd6 O5 2.496120 1_546
Nd6 O2 2.583456 1_545
Nd6 O28 2.643144 1_555
Nd6 O0 2.708953 1_456
Nd6 O29 2.766644 1_455
Nd7 O20 2.359558 1_565
Nd7 O17 2.428451 1_655
Nd7 O11 2.484034 1_655
Nd7 O3 2.496120 1_655
Nd7 O6 2.583456 1_655
Nd7 O25 2.643144 1_555
Nd7 O8 2.708953 1_565
Nd7 O29 2.766644 1_565
Co0 O6 1.892266 1_555
Co0 O16 1.916139 1_545
Co0 O1 2.006812 1_555
Co0 O28 2.023534 1_555
Co0 O11 2.047516 1_555
Co0 O20 2.047567 1_555
Co1 O17 1.925075 1_545
Co1 O7 1.929711 1_455
Co1 O12 1.970994 1_455
Co1 O2 1.984518 1_545
Co1 O29 1.994798 1_455
Co1 O21 2.020597 1_555
Co2 O8 1.925075 1_565
Co2 O18 1.929711 1_655
Co2 O3 1.970994 1_655
Co2 O13 1.984518 1_565
Co2 O22 1.994798 1_655
Co2 O25 2.020597 1_555
Co3 O19 1.892266 1_555
Co3 O9 1.916139 1_565
Co3 O14 2.006812 1_555
Co3 O23 2.023534 1_555
Co3 O4 2.047516 1_555
Co3 O26 2.047567 1_555
Co4 O15 1.943819 1_554
Co4 O5 1.943819 1_555
Co4 O10 2.002520 1_554
Co4 O0 2.002520 1_555
Co4 O24 2.035549 1_554
Co4 O27 2.035549 1_555
Co5 O10 1.925075 1_655
Co5 O1 1.929711 1_565
Co5 O15 1.970994 1_565
Co5 O6 1.984518 1_655
Co5 O29 1.994798 1_565
Co5 O23 2.020597 1_556
Co6 O2 1.892258 1_555
Co6 O11 1.916147 1_655
Co6 O7 2.006809 1_555
Co6 O25 2.023537 1_555
Co6 O16 2.047519 1_555
Co6 O24 2.047564 1_555
Co7 O3 1.943819 1_555
Co7 O12 1.943819 1_555
Co7 O17 2.002520 1_555
Co7 O8 2.002520 1_555
Co7 O20 2.035549 1_555
Co7 O26 2.035549 1_555
Co8 O13 1.892258 1_555
Co8 O4 1.916147 1_455
Co8 O18 2.006809 1_555
Co8 O21 2.023537 1_555
Co8 O9 2.047519 1_555
Co8 O27 2.047564 1_555
Co9 O0 1.925075 1_455
Co9 O14 1.929711 1_545
Co9 O5 1.970994 1_545
Co9 O19 1.984518 1_455
Co9 O22 1.994798 1_545
Co9 O28 2.020597 1_554
