# generated using pymatgen
data_Li7H5N4
_symmetry_space_group_name_H-M   'P 1'
_cell_length_a   7.05971844
_cell_length_b   7.05878066
_cell_length_c   10.39773116
_cell_angle_alpha   90.00000000
_cell_angle_beta   90.00000000
_cell_angle_gamma   90.00000000
_symmetry_Int_Tables_number   1
_chemical_formula_structural   Li7H5N4
_chemical_formula_sum   'Li28 H20 N16'
_cell_volume   518.15017838
_cell_formula_units_Z   4
loop_
 _symmetry_equiv_pos_site_id
 _symmetry_equiv_pos_as_xyz
  1  'x, y, z'
loop_
 _atom_site_type_symbol
 _atom_site_label
 _atom_site_symmetry_multiplicity
 _atom_site_fract_x
 _atom_site_fract_y
 _atom_site_fract_z
 _atom_site_occupancy
  Li  Li0  1  0.40453545  0.50759508  0.39242089  1
  Li  Li1  1  0.90453545  0.49240492  0.60757911  1
  Li  Li2  1  0.90453545  0.99240492  0.89242089  1
  Li  Li3  1  0.40453545  0.00759508  0.10757911  1
  Li  Li4  1  0.36033809  0.44737534  0.85408321  1
  Li  Li5  1  0.86033809  0.55262466  0.14591679  1
  Li  Li6  1  0.86033809  0.05262466  0.35408321  1
  Li  Li7  1  0.36033809  0.94737534  0.64591679  1
  Li  Li8  1  0.32855030  0.50232902  0.61393429  1
  Li  Li9  1  0.82855030  0.49767098  0.38606571  1
  Li  Li10  1  0.82855030  0.99767098  0.11393429  1
  Li  Li11  1  0.32855030  0.00232902  0.88606571  1
  Li  Li12  1  0.09836955  0.75363002  0.63049342  1
  Li  Li13  1  0.59836955  0.24636998  0.36950658  1
  Li  Li14  1  0.59836955  0.74636998  0.13049342  1
  Li  Li15  1  0.09836955  0.25363002  0.86950658  1
  Li  Li16  1  0.15265066  0.73435911  0.85514022  1
  Li  Li17  1  0.65265066  0.26564089  0.14485978  1
  Li  Li18  1  0.65265066  0.76564089  0.35514022  1
  Li  Li19  1  0.15265066  0.23435911  0.64485978  1
  Li  Li20  1  0.11331265  0.69882606  0.40830407  1
  Li  Li21  1  0.61331265  0.30117394  0.59169593  1
  Li  Li22  1  0.61331265  0.80117394  0.90830407  1
  Li  Li23  1  0.11331265  0.19882606  0.09169593  1
  Li  Li24  1  0.12134539  0.79477932  0.08692957  1
  Li  Li25  1  0.62134539  0.20522068  0.91307043  1
  Li  Li26  1  0.62134539  0.70522068  0.58692957  1
  Li  Li27  1  0.12134539  0.29477932  0.41307043  1
  H  H0  1  0.21130041  0.51664833  0.20660156  1
  H  H1  1  0.71130041  0.48335167  0.79339844  1
  H  H2  1  0.71130041  0.98335167  0.70660156  1
  H  H3  1  0.21130041  0.01664833  0.29339844  1
  H  H4  1  0.50118072  0.49661233  0.20557499  1
  H  H5  1  0.00118072  0.50338767  0.79442501  1
  H  H6  1  0.00118072  0.00338767  0.70557499  1
  H  H7  1  0.50118072  0.99661233  0.29442501  1
  H  H8  1  0.86543114  0.86864884  0.52346284  1
  H  H9  1  0.36543114  0.13135116  0.47653716  1
  H  H10  1  0.36543114  0.63135116  0.02346284  1
  H  H11  1  0.86543114  0.36864884  0.97653716  1
  H  H12  1  0.87496525  0.65362384  0.95252002  1
  H  H13  1  0.37496525  0.34637616  0.04747998  1
  H  H14  1  0.37496525  0.84637616  0.45252002  1
  H  H15  1  0.87496525  0.15362384  0.54747998  1
  H  H16  1  0.54093606  0.62543201  0.76119595  1
  H  H17  1  0.04093606  0.37456799  0.23880405  1
  H  H18  1  0.04093606  0.87456799  0.26119595  1
  H  H19  1  0.54093606  0.12543201  0.73880405  1
  N  N0  1  0.59824724  0.49845108  0.73276152  1
  N  N1  1  0.09824724  0.50154892  0.26723848  1
  N  N2  1  0.09824724  0.00154892  0.23276152  1
  N  N3  1  0.59824724  0.99845108  0.76723848  1
  N  N4  1  0.12464815  0.49167358  0.74203056  1
  N  N5  1  0.62464815  0.50832642  0.25796944  1
  N  N6  1  0.62464815  0.00832642  0.24203056  1
  N  N7  1  0.12464815  0.99167358  0.75796944  1
  N  N8  1  0.35661055  0.73235964  0.51314928  1
  N  N9  1  0.85661055  0.26764036  0.48685072  1
  N  N10  1  0.85661055  0.76764036  0.01314928  1
  N  N11  1  0.35661055  0.23235964  0.98685072  1
  N  N12  1  0.36557639  0.77052139  0.99366401  1
  N  N13  1  0.86557639  0.22947861  0.00633599  1
  N  N14  1  0.86557639  0.72947861  0.49366401  1
  N  N15  1  0.36557639  0.27052139  0.50633599  1
loop_
_geom_bond_atom_site_label_1
_geom_bond_atom_site_label_2
_geom_bond_distance
_geom_bond_site_symmetry_2
Li0 N8 2.051204 1_555
Li0 N15 2.068581 1_555
Li0 N5 2.090242 1_555
Li1 N9 2.051204 1_555
Li1 N14 2.068581 1_555
Li1 N4 2.090242 1_655
Li2 N10 2.051204 1_556
Li2 N13 2.068581 1_566
Li2 N7 2.090242 1_655
Li3 N11 2.051204 1_554
Li3 N12 2.068581 1_544
Li3 N6 2.090242 1_555
Li4 N11 2.051824 1_555
Li4 N4 2.055188 1_555
Li4 N0 2.131256 1_555
Li5 N10 2.051824 1_555
Li5 N5 2.055188 1_555
Li5 N1 2.131256 1_655
Li6 N9 2.051824 1_555
Li6 N6 2.055188 1_555
Li6 N2 2.131256 1_655
Li7 N8 2.051824 1_555
Li7 N7 2.055188 1_555
Li7 N3 2.131256 1_555
Li8 N8 1.942660 1_555
Li8 N4 1.962595 1_555
Li8 N15 1.999350 1_555
Li9 N9 1.942660 1_555
Li9 N5 1.962595 1_555
Li9 N14 1.999350 1_555
Li10 N10 1.942660 1_555
Li10 N6 1.962595 1_565
Li10 N13 1.999350 1_565
Li11 N11 1.942660 1_555
Li11 N7 1.962595 1_545
Li11 N12 1.999350 1_545
Li12 N7 2.148177 1_555
Li12 N14 2.180395 1_455
Li12 N4 2.190558 1_555
Li12 N8 2.198851 1_555
Li13 N6 2.148177 1_555
Li13 N15 2.180395 1_555
Li13 N5 2.190558 1_555
Li13 N9 2.198851 1_555
Li14 N5 2.148177 1_555
Li14 N12 2.180395 1_554
Li14 N6 2.190558 1_565
Li14 N10 2.198851 1_555
Li15 N4 2.148177 1_555
Li15 N13 2.180395 1_456
Li15 N7 2.190558 1_545
Li15 N11 2.198851 1_555
Li16 N4 2.087305 1_555
Li16 N7 2.087808 1_555
Li16 N12 2.097454 1_555
Li17 N5 2.087305 1_555
Li17 N6 2.087808 1_555
Li17 N13 2.097454 1_555
Li18 N6 2.087305 1_565
Li18 N5 2.087808 1_555
Li18 N14 2.097454 1_555
Li19 N7 2.087305 1_545
Li19 N4 2.087808 1_555
Li19 N15 2.097454 1_555
Li20 N14 1.973165 1_455
Li20 N1 2.025305 1_555
Li20 N8 2.048087 1_555
Li21 N15 1.973165 1_555
Li21 N0 2.025305 1_555
Li21 N9 2.048087 1_555
Li22 N12 1.973165 1_555
Li22 N3 2.025305 1_555
Li22 N10 2.048087 1_556
Li23 N13 1.973165 1_455
Li23 N2 2.025305 1_555
Li23 N11 2.048087 1_554
Li24 N12 1.985600 1_554
Li24 N10 2.029335 1_455
Li24 N2 2.110943 1_565
Li25 N13 1.985600 1_556
Li25 N11 2.029335 1_555
Li25 N3 2.110943 1_545
Li26 N14 1.985600 1_555
Li26 N8 2.029335 1_555
Li26 N0 2.110943 1_555
Li27 N15 1.985600 1_555
Li27 N9 2.029335 1_455
Li27 N1 2.110943 1_555
H0 N1 1.022680 1_555
H1 N0 1.022680 1_555
H2 N3 1.022680 1_555
H3 N2 1.022680 1_555
H4 N5 1.031209 1_555
H4 Li14 2.046544 1_555
H4 Li17 2.049426 1_555
H4 Li0 2.060557 1_555
H5 N4 1.031209 1_555
H5 Li15 2.046544 1_555
H5 Li16 2.049426 1_555
H5 Li1 2.060557 1_455
H6 N7 1.031209 1_545
H6 Li12 2.046544 1_545
H6 Li19 2.049426 1_555
H6 Li2 2.060557 1_445
H7 N6 1.031209 1_565
H7 Li13 2.046544 1_565
H7 Li18 2.049426 1_555
H7 Li3 2.060557 1_565
H8 N14 1.030076 1_555
H8 Li12 2.145221 1_655
H8 Li26 2.176148 1_555
H8 Li6 2.188486 1_565
H9 N15 1.030076 1_555
H9 Li13 2.145221 1_555
H9 Li27 2.176148 1_555
H9 Li7 2.188486 1_545
H10 N12 1.030076 1_554
H10 Li14 2.145221 1_555
H10 Li24 2.176148 1_555
H10 Li4 2.188486 1_554
H11 N13 1.030076 1_556
H11 Li15 2.145221 1_655
H11 Li25 2.176148 1_555
H11 Li5 2.188486 1_556
H12 N10 1.030502 1_556
H12 Li5 2.136025 1_556
H12 Li16 2.278834 1_655
H13 N11 1.030502 1_554
H13 Li4 2.136025 1_554
H13 Li17 2.278834 1_555
H14 N8 1.030502 1_555
H14 Li7 2.136025 1_555
H14 Li18 2.278834 1_555
H15 N9 1.030502 1_555
H15 Li6 2.136025 1_555
H15 Li19 2.278834 1_655
H16 N0 1.026899 1_555
H16 Li26 1.980582 1_555
H16 Li4 2.034222 1_555
H16 Li22 2.034607 1_555
H17 N1 1.026899 1_555
H17 Li27 1.980582 1_555
H17 Li5 2.034222 1_455
H17 Li23 2.034607 1_555
H18 N2 1.026899 1_565
H18 Li24 1.980582 1_555
H18 Li6 2.034222 1_465
H18 Li20 2.034607 1_555
H19 N3 1.026899 1_545
H19 Li25 1.980582 1_555
H19 Li7 2.034222 1_545
H19 Li21 2.034607 1_555
