# generated using pymatgen
data_Ba2AlNi3O8
_symmetry_space_group_name_H-M   'P 1'
_cell_length_a   3.79461900
_cell_length_b   3.79461900
_cell_length_c   11.88644800
_cell_angle_alpha   90.00000000
_cell_angle_beta   90.00000000
_cell_angle_gamma   90.00000000
_symmetry_Int_Tables_number   1
_chemical_formula_structural   Ba2AlNi3O8
_chemical_formula_sum   'Ba2 Al1 Ni3 O8'
_cell_volume   171.15454987
_cell_formula_units_Z   1
loop_
 _symmetry_equiv_pos_site_id
 _symmetry_equiv_pos_as_xyz
  1  'x, y, z'
loop_
 _atom_site_type_symbol
 _atom_site_label
 _atom_site_symmetry_multiplicity
 _atom_site_fract_x
 _atom_site_fract_y
 _atom_site_fract_z
 _atom_site_occupancy
  Ba  Ba0  1  0.50000000  0.50000000  0.17390800  1
  Ba  Ba1  1  0.50000000  0.50000000  0.82609100  1
  Al  Al0  1  0.50000000  0.50000000  0.50000000  1
  Ni  Ni0  1  0.00000000  0.00000000  0.35672100  1
  Ni  Ni1  1  0.00000000  0.00000000  0.00000000  1
  Ni  Ni2  1  0.00000000  0.00000000  0.64327900  1
  O  O0  1  0.00000000  0.50000000  0.39885300  1
  O  O1  1  0.50000000  0.00000000  0.39885300  1
  O  O2  1  0.50000000  0.00000000  0.00000000  1
  O  O3  1  0.00000000  0.00000000  0.19214700  1
  O  O4  1  0.00000000  0.50000000  0.60114700  1
  O  O5  1  0.50000000  0.00000000  0.60114700  1
  O  O6  1  0.00000000  0.00000000  0.80785300  1
  O  O7  1  0.00000000  0.50000000  0.00000000  1
loop_
_geom_bond_atom_site_label_1
_geom_bond_atom_site_label_2
_geom_bond_distance
_geom_bond_site_symmetry_2
Ba0 O3 2.691945 1_665
Ba0 O3 2.691945 1_555
Ba0 O3 2.691945 1_565
Ba0 O3 2.691945 1_655
Ba0 O2 2.805866 1_565
Ba0 O7 2.805866 1_555
Ba0 O7 2.805866 1_655
Ba0 O2 2.805866 1_555
Ba0 O0 3.278563 1_655
Ba0 O1 3.278563 1_555
Ba0 O0 3.278563 1_555
Ba0 O1 3.278563 1_565
Ba1 O6 2.691944 1_655
Ba1 O6 2.691944 1_665
Ba1 O6 2.691944 1_555
Ba1 O6 2.691944 1_565
Ba1 O7 2.805875 1_556
Ba1 O2 2.805875 1_566
Ba1 O7 2.805875 1_656
Ba1 O2 2.805875 1_556
Ba1 O4 3.278553 1_555
Ba1 O5 3.278553 1_555
Ba1 O5 3.278553 1_565
Ba1 O4 3.278553 1_655
Al0 O1 2.246165 1_555
Al0 O4 2.246165 1_555
Al0 O0 2.246165 1_555
Al0 O5 2.246165 1_555
Al0 O1 2.246165 1_565
Al0 O4 2.246165 1_655
Al0 O5 2.246165 1_565
Al0 O0 2.246165 1_655
Ni0 O3 1.956200 1_555
Ni0 O1 1.962290 1_455
Ni0 O1 1.962290 1_555
Ni0 O0 1.962290 1_555
Ni0 O0 1.962290 1_545
Ni1 O7 1.897309 1_545
Ni1 O7 1.897309 1_555
Ni1 O2 1.897309 1_455
Ni1 O2 1.897309 1_555
Ni1 O6 2.283945 1_554
Ni1 O3 2.283945 1_555
Ni2 O6 1.956200 1_555
Ni2 O4 1.962290 1_555
Ni2 O5 1.962290 1_455
Ni2 O5 1.962290 1_555
Ni2 O4 1.962290 1_545
