# generated using pymatgen
data_Li7Mn2(CoO4)3
_symmetry_space_group_name_H-M   'P 1'
_cell_length_a   5.03167600
_cell_length_b   5.11507011
_cell_length_c   8.84613639
_cell_angle_alpha   91.21951350
_cell_angle_beta   91.49792761
_cell_angle_gamma   108.51284500
_symmetry_Int_Tables_number   1
_chemical_formula_structural   Li7Mn2(CoO4)3
_chemical_formula_sum   'Li7 Mn2 Co3 O12'
_cell_volume   215.71575007
_cell_formula_units_Z   1
loop_
 _symmetry_equiv_pos_site_id
 _symmetry_equiv_pos_as_xyz
  1  'x, y, z'
loop_
 _atom_site_type_symbol
 _atom_site_label
 _atom_site_symmetry_multiplicity
 _atom_site_fract_x
 _atom_site_fract_y
 _atom_site_fract_z
 _atom_site_occupancy
  Li  Li0  1  0.99900900  0.49924800  0.17479800  1
  Li  Li1  1  0.50505300  0.50805100  0.34717900  1
  Li  Li2  1  0.98963100  0.49343300  0.50703200  1
  Li  Li3  1  0.51260100  0.50518300  0.65032100  1
  Li  Li4  1  0.00259100  0.50306400  0.82446200  1
  Li  Li5  1  0.49404400  0.49792000  0.99759200  1
  Li  Li6  1  0.50915500  0.00171300  0.49862400  1
  Mn  Mn0  1  0.99011400  0.98878000  0.99961900  1
  Mn  Mn1  1  0.49850000  0.99925200  0.17075300  1
  Co  Co0  1  0.02081800  0.01595700  0.35064500  1
  Co  Co1  1  0.99598300  0.99845900  0.66534500  1
  Co  Co2  1  0.49801800  0.99591900  0.82016800  1
  O  O0  1  0.24128300  0.77139000  0.00667200  1
  O  O1  1  0.75747200  0.78648400  0.16057800  1
  O  O2  1  0.27071500  0.77959100  0.31614000  1
  O  O3  1  0.78332100  0.77104700  0.50490900  1
  O  O4  1  0.24739100  0.77630100  0.67544500  1
  O  O5  1  0.75026400  0.75522600  0.84597200  1
  O  O6  1  0.74040900  0.23595900  0.31663300  1
  O  O7  1  0.24289500  0.25714300  0.49262600  1
  O  O8  1  0.75884000  0.22306400  0.67386100  1
  O  O9  1  0.21370700  0.21064500  0.84218500  1
  O  O10  1  0.73225500  0.20627400  0.00292300  1
  O  O11  1  0.24593000  0.21989800  0.15551700  1
loop_
_geom_bond_atom_site_label_1
_geom_bond_atom_site_label_2
_geom_bond_distance
_geom_bond_site_symmetry_2
Li0 O2 2.019415 1_655
Li0 O6 2.031140 1_555
Li0 O0 2.177397 1_655
Li0 O11 2.177736 1_655
Li0 O1 2.187534 1_555
Li0 O10 2.208621 1_555
Li1 O7 2.031392 1_555
Li1 O3 2.082984 1_555
Li1 O2 2.105751 1_555
Li1 O6 2.111830 1_555
Li1 O11 2.303194 1_555
Li1 O1 2.329652 1_555
Li2 O3 2.007644 1_555
Li2 O7 2.020155 1_655
Li2 O8 2.143756 1_555
Li2 O4 2.147246 1_655
Li2 O6 2.211390 1_555
Li2 O2 2.431006 1_655
Li3 O7 2.032156 1_555
Li3 O3 2.085485 1_555
Li3 O8 2.189885 1_555
Li3 O5 2.210807 1_555
Li3 O4 2.220566 1_555
Li3 O9 2.493136 1_555
Li4 O8 2.012018 1_455
Li4 O4 2.068424 1_555
Li4 O5 2.086607 1_455
Li4 O9 2.097739 1_555
Li4 O0 2.163822 1_556
Li4 O10 2.355866 1_456
Li5 O5 2.069125 1_555
Li5 O9 2.129610 1_555
Li5 O11 2.140314 1_556
Li5 O1 2.140426 1_556
Li5 O0 2.170473 1_556
Li5 O10 2.190850 1_556
Li6 O8 2.045361 1_555
Li6 O2 2.071528 1_545
Li6 O3 2.081021 1_545
Li6 O7 2.148387 1_555
Li6 O6 2.162433 1_555
Li6 O4 2.175075 1_545
Mn0 O5 1.913268 1_555
Mn0 O0 1.931010 1_656
Mn0 O11 1.956470 1_666
Mn0 O9 1.957446 1_665
Mn0 O10 1.959371 1_566
Mn0 O1 1.961895 1_556
Mn1 O6 1.878395 1_565
Mn1 O2 1.884397 1_555
Mn1 O1 1.947578 1_555
Mn1 O11 1.953295 1_565
Mn1 O0 2.003035 1_555
Mn1 O10 2.018959 1_565
Co0 O7 1.825745 1_555
Co0 O3 2.016678 1_445
Co0 O2 2.026261 1_545
Co0 O6 2.085209 1_455
Co0 O1 2.184570 1_445
Co0 O11 2.186145 1_555
Co1 O3 1.890036 1_555
Co1 O8 1.902874 1_565
Co1 O4 1.952123 1_655
Co1 O9 1.976965 1_665
Co1 O7 2.184070 1_665
Co1 O5 2.200169 1_555
Co2 O4 1.856346 1_555
Co2 O8 1.982888 1_565
Co2 O5 2.041547 1_555
Co2 O10 2.044871 1_566
Co2 O9 2.072206 1_565
Co2 O0 2.227034 1_556
