# generated using pymatgen
data_CsTi8F33
_symmetry_space_group_name_H-M   'P 1'
_cell_length_a   8.93400004
_cell_length_b   8.93400004
_cell_length_c   19.58664600
_cell_angle_alpha   90.00000000
_cell_angle_beta   90.00000000
_cell_angle_gamma   120.00000027
_symmetry_Int_Tables_number   1
_chemical_formula_structural   CsTi8F33
_chemical_formula_sum   'Cs2 Ti16 F66'
_cell_volume   1353.88758092
_cell_formula_units_Z   2
loop_
 _symmetry_equiv_pos_site_id
 _symmetry_equiv_pos_as_xyz
  1  'x, y, z'
loop_
 _atom_site_type_symbol
 _atom_site_label
 _atom_site_symmetry_multiplicity
 _atom_site_fract_x
 _atom_site_fract_y
 _atom_site_fract_z
 _atom_site_occupancy
  Cs  Cs0  1  0.33333300  0.66666700  0.43503200  1
  Cs  Cs1  1  0.66666700  0.33333300  0.93503200  1
  Ti  Ti0  1  0.66666700  0.33333300  0.37235900  1
  Ti  Ti1  1  0.33333300  0.66666700  0.87235900  1
  Ti  Ti2  1  0.66732100  0.99235900  0.25054800  1
  Ti  Ti3  1  0.32503800  0.33267900  0.25054800  1
  Ti  Ti4  1  0.00764100  0.67496200  0.25054800  1
  Ti  Ti5  1  0.67496200  0.00764100  0.75054800  1
  Ti  Ti6  1  0.99235900  0.66732100  0.75054800  1
  Ti  Ti7  1  0.33267900  0.32503800  0.75054800  1
  Ti  Ti8  1  0.33598600  0.99256700  0.62220600  1
  Ti  Ti9  1  0.65658100  0.66401400  0.62220600  1
  Ti  Ti10  1  0.00743300  0.34341900  0.62220600  1
  Ti  Ti11  1  0.34341900  0.00743300  0.12220600  1
  Ti  Ti12  1  0.99256700  0.33598600  0.12220600  1
  Ti  Ti13  1  0.66401400  0.65658100  0.12220600  1
  Ti  Ti14  1  0.00000000  0.00000000  0.50222800  1
  Ti  Ti15  1  0.00000000  0.00000000  0.00222800  1
  F  F0  1  0.72865200  0.19979700  0.30069100  1
  F  F1  1  0.47114500  0.27134800  0.30069100  1
  F  F2  1  0.80020300  0.52885500  0.30069100  1
  F  F3  1  0.52885500  0.80020300  0.80069100  1
  F  F4  1  0.19979700  0.72865200  0.80069100  1
  F  F5  1  0.27134800  0.47114500  0.80069100  1
  F  F6  1  0.53117300  0.06558300  0.18479200  1
  F  F7  1  0.53441100  0.46882700  0.18479200  1
  F  F8  1  0.93441700  0.46558900  0.18479200  1
  F  F9  1  0.46558900  0.93441700  0.68479200  1
  F  F10  1  0.06558300  0.53117300  0.68479200  1
  F  F11  1  0.46882700  0.53441100  0.68479200  1
  F  F12  1  0.86468500  0.13959700  0.19033800  1
  F  F13  1  0.27491200  0.13531500  0.19033800  1
  F  F14  1  0.86040300  0.72508800  0.19033800  1
  F  F15  1  0.72508800  0.86040300  0.69033800  1
  F  F16  1  0.13959700  0.86468500  0.69033800  1
  F  F17  1  0.13531500  0.27491200  0.69033800  1
  F  F18  1  0.19603600  0.06564800  0.57386200  1
  F  F19  1  0.86961300  0.80396400  0.57386200  1
  F  F20  1  0.93435200  0.13038700  0.57386200  1
  F  F21  1  0.13038700  0.93435200  0.07386200  1
  F  F22  1  0.06564800  0.19603600  0.07386200  1
  F  F23  1  0.80396400  0.86961300  0.07386200  1
  F  F24  1  0.61007300  0.80745800  0.18464500  1
  F  F25  1  0.19738500  0.38992700  0.18464500  1
  F  F26  1  0.19254200  0.80261500  0.18464500  1
  F  F27  1  0.80261500  0.19254200  0.68464500  1
  F  F28  1  0.80745800  0.61007300  0.68464500  1
  F  F29  1  0.38992700  0.19738500  0.68464500  1
  F  F30  1  0.46706600  0.87913200  0.29546200  1
  F  F31  1  0.41206600  0.53293400  0.29546200  1
  F  F32  1  0.12086800  0.58793400  0.29546200  1
  F  F33  1  0.58793400  0.12086800  0.79546200  1
  F  F34  1  0.87913200  0.46706600  0.79546200  1
  F  F35  1  0.53293400  0.41206600  0.79546200  1
  F  F36  1  0.52226800  0.11280600  0.57200900  1
  F  F37  1  0.59053800  0.47773200  0.57200900  1
  F  F38  1  0.88719400  0.40946200  0.57200900  1
  F  F39  1  0.40946200  0.88719400  0.07200900  1
  F  F40  1  0.11280600  0.52226800  0.07200900  1
  F  F41  1  0.47773200  0.59053800  0.07200900  1
  F  F42  1  0.86746900  0.40632100  0.41453500  1
  F  F43  1  0.53885200  0.13253100  0.41453500  1
  F  F44  1  0.59367900  0.46114800  0.41453500  1
  F  F45  1  0.46114800  0.59367900  0.91453500  1
  F  F46  1  0.40632100  0.86746900  0.91453500  1
  F  F47  1  0.13253100  0.53885200  0.91453500  1
  F  F48  1  0.24421100  0.79711100  0.57442300  1
  F  F49  1  0.55290000  0.75578900  0.57442300  1
  F  F50  1  0.20288900  0.44710000  0.57442300  1
  F  F51  1  0.44710000  0.20288900  0.07442300  1
  F  F52  1  0.79711100  0.24421100  0.07442300  1
  F  F53  1  0.75578900  0.55290000  0.07442300  1
  F  F54  1  0.78534700  0.92609900  0.30158000  1
  F  F55  1  0.14075200  0.21465300  0.30158000  1
  F  F56  1  0.07390100  0.85924800  0.30158000  1
  F  F57  1  0.85924800  0.07390100  0.80158000  1
  F  F58  1  0.92609900  0.78534700  0.80158000  1
  F  F59  1  0.21465300  0.14075200  0.80158000  1
  F  F60  1  0.12857900  0.20049600  0.45995200  1
  F  F61  1  0.07191800  0.87142100  0.45995200  1
  F  F62  1  0.79950400  0.92808200  0.45995200  1
  F  F63  1  0.92808200  0.79950400  0.95995200  1
  F  F64  1  0.20049600  0.12857900  0.95995200  1
  F  F65  1  0.87142100  0.07191800  0.95995200  1
loop_
_geom_bond_atom_site_label_1
_geom_bond_atom_site_label_2
_geom_bond_distance
_geom_bond_site_symmetry_2
Cs0 F32 3.199341 1_555
Cs0 F30 3.199342 1_555
Cs0 F31 3.199346 1_555
Cs0 F48 3.220868 1_555
Cs0 F50 3.220872 1_555
Cs0 F49 3.220872 1_555
Cs0 F43 3.634972 1_565
Cs0 F42 3.634972 1_455
Cs0 F44 3.634980 1_555
Cs0 F61 3.648450 1_555
Cs0 F62 3.648464 1_555
Cs0 F60 3.648465 1_555
Cs1 F33 3.199341 1_555
Cs1 F34 3.199342 1_555
Cs1 F35 3.199346 1_555
Cs1 F52 3.220868 1_556
Cs1 F51 3.220872 1_556
Cs1 F53 3.220872 1_556
Cs1 F47 3.634972 1_655
Cs1 F46 3.634972 1_545
Cs1 F45 3.634980 1_555
Cs1 F65 3.648450 1_555
Cs1 F63 3.648464 1_555
Cs1 F64 3.648465 1_555
F0 Ti2 1.919349 1_545
F0 Ti0 2.088318 1_555
F1 Ti3 1.919349 1_555
F1 Ti0 2.088324 1_555
F2 Ti4 1.919349 1_655
F2 Ti0 2.088323 1_555
F3 Ti5 1.919349 1_565
F3 Ti1 2.088323 1_555
F4 Ti6 1.919349 1_455
F4 Ti1 2.088318 1_555
F5 Ti7 1.919349 1_555
F5 Ti1 2.088324 1_555
F6 Ti11 1.927388 1_555
F6 Ti2 2.088529 1_545
F7 Ti13 1.927387 1_555
F7 Ti3 2.088535 1_555
F8 Ti12 1.927382 1_555
F8 Ti4 2.088536 1_655
F9 Ti8 1.927382 1_555
F9 Ti5 2.088536 1_565
F10 Ti10 1.927388 1_555
F10 Ti6 2.088529 1_455
F11 Ti9 1.927387 1_555
F11 Ti7 2.088535 1_555
F12 Ti2 1.977561 1_545
F12 Ti12 2.039603 1_555
F13 Ti3 1.977561 1_555
F13 Ti11 2.039603 1_555
F14 Ti4 1.977561 1_655
F14 Ti13 2.039603 1_555
F15 Ti5 1.977561 1_565
F15 Ti9 2.039603 1_555
F16 Ti6 1.977561 1_455
F16 Ti8 2.039603 1_555
F17 Ti7 1.977561 1_555
F17 Ti10 2.039603 1_555
F18 Ti8 1.924193 1_545
F18 Ti14 2.086325 1_555
F19 Ti9 1.924199 1_555
F19 Ti14 2.086324 1_665
F20 Ti10 1.924200 1_655
F20 Ti14 2.086319 1_655
F21 Ti11 1.924200 1_565
F21 Ti15 2.086319 1_565
F22 Ti12 1.924193 1_455
F22 Ti15 2.086325 1_555
F23 Ti13 1.924199 1_555
F23 Ti15 2.086324 1_665
F24 Ti2 1.952362 1_555
F24 Ti13 2.048024 1_555
F25 Ti3 1.952362 1_555
F25 Ti12 2.048024 1_455
F26 Ti4 1.952362 1_555
F26 Ti11 2.048024 1_565
F27 Ti5 1.952362 1_555
F27 Ti10 2.048024 1_655
F28 Ti6 1.952362 1_555
F28 Ti9 2.048024 1_555
F29 Ti7 1.952362 1_555
F29 Ti8 2.048024 1_545
F30 Ti2 1.785552 1_555
F31 Ti3 1.785552 1_555
F32 Ti4 1.785552 1_555
F33 Ti5 1.785552 1_555
F34 Ti6 1.785552 1_555
F35 Ti7 1.785552 1_555
F36 Ti8 1.761407 1_545
F37 Ti9 1.761407 1_555
F38 Ti10 1.761407 1_655
F39 Ti11 1.761407 1_565
F40 Ti12 1.761407 1_455
F41 Ti13 1.761407 1_555
F42 Ti0 1.776550 1_555
F43 Ti0 1.776552 1_555
F44 Ti0 1.776558 1_555
F45 Ti1 1.776558 1_555
F46 Ti1 1.776550 1_555
F47 Ti1 1.776552 1_555
F48 Ti8 1.779234 1_555
F49 Ti9 1.779234 1_555
F50 Ti10 1.779234 1_555
F51 Ti11 1.779234 1_555
F52 Ti12 1.779234 1_555
F53 Ti13 1.779234 1_555
F54 Ti2 1.756578 1_555
F55 Ti3 1.756578 1_555
F56 Ti4 1.756578 1_555
F57 Ti5 1.756578 1_555
F58 Ti6 1.756578 1_555
F59 Ti7 1.756578 1_555
F60 Ti14 1.776543 1_555
F61 Ti14 1.776549 1_565
F62 Ti14 1.776542 1_665
F63 Ti15 1.776542 1_666
F64 Ti15 1.776543 1_556
F65 Ti15 1.776549 1_656
