# generated using pymatgen
data_Si2SnO6
_symmetry_space_group_name_H-M   'P 1'
_cell_length_a   6.59332422
_cell_length_b   6.59332422
_cell_length_c   5.35620423
_cell_angle_alpha   75.78551778
_cell_angle_beta   75.78551778
_cell_angle_gamma   85.27606664
_symmetry_Int_Tables_number   1
_chemical_formula_structural   Si2SnO6
_chemical_formula_sum   'Si4 Sn2 O12'
_cell_volume   218.74462120
_cell_formula_units_Z   2
loop_
 _symmetry_equiv_pos_site_id
 _symmetry_equiv_pos_as_xyz
  1  'x, y, z'
loop_
 _atom_site_type_symbol
 _atom_site_label
 _atom_site_symmetry_multiplicity
 _atom_site_fract_x
 _atom_site_fract_y
 _atom_site_fract_z
 _atom_site_occupancy
  Si  Si0  1  0.78175277  0.61450312  0.26042951  1
  Si  Si1  1  0.38549688  0.21824723  0.23957049  1
  Si  Si2  1  0.61450312  0.78175277  0.76042951  1
  Si  Si3  1  0.21824723  0.38549688  0.73957049  1
  Sn  Sn0  1  0.89156508  0.10843492  0.25000000  1
  Sn  Sn1  1  0.10843492  0.89156508  0.75000000  1
  O  O0  1  0.65066364  0.63586522  0.03599146  1
  O  O1  1  0.36413478  0.34933636  0.46400854  1
  O  O2  1  0.34933636  0.36413478  0.96400854  1
  O  O3  1  0.63586522  0.65066364  0.53599146  1
  O  O4  1  0.90190685  0.39283929  0.30258983  1
  O  O5  1  0.60716071  0.09809315  0.19741017  1
  O  O6  1  0.09809315  0.60716071  0.69741017  1
  O  O7  1  0.39283929  0.90190685  0.80258983  1
  O  O8  1  0.81184651  0.94901540  0.64593360  1
  O  O9  1  0.05098460  0.18815349  0.85406640  1
  O  O10  1  0.94901540  0.81184651  0.14593360  1
  O  O11  1  0.18815349  0.05098460  0.35406640  1
loop_
_geom_bond_atom_site_label_1
_geom_bond_atom_site_label_2
_geom_bond_distance
_geom_bond_site_symmetry_2
O0 Si2 1.611943 1_554
O0 Si0 1.618354 1_555
O1 Si3 1.611943 1_555
O1 Si1 1.618354 1_555
O2 Si1 1.611943 1_556
O2 Si3 1.618354 1_555
O3 Si0 1.611943 1_555
O3 Si2 1.618354 1_555
O4 Si0 1.596764 1_555
O4 Sn0 1.972347 1_555
O5 Si1 1.596764 1_555
O5 Sn0 1.972347 1_555
O6 Si3 1.596764 1_555
O6 Sn1 1.972347 1_555
O7 Si2 1.596764 1_555
O7 Sn1 1.972347 1_555
O8 Si2 1.672607 1_555
O8 Sn0 2.080224 1_565
O8 Sn1 2.141910 1_655
O9 Si3 1.672607 1_555
O9 Sn0 2.080224 1_456
O9 Sn1 2.141910 1_545
O10 Si0 1.672607 1_555
O10 Sn1 2.080224 1_654
O10 Sn0 2.141910 1_565
O11 Si1 1.672607 1_555
O11 Sn1 2.080224 1_545
O11 Sn0 2.141910 1_455
