# generated using pymatgen
data_Mn(BO2)2
_symmetry_space_group_name_H-M   'P 1'
_cell_length_a   7.54833000
_cell_length_b   7.17947800
_cell_length_c   8.88755351
_cell_angle_alpha   85.92865357
_cell_angle_beta   90.00000000
_cell_angle_gamma   90.00000000
_symmetry_Int_Tables_number   1
_chemical_formula_structural   Mn(BO2)2
_chemical_formula_sum   'Mn8 B16 O32'
_cell_volume   480.42833234
_cell_formula_units_Z   8
loop_
 _symmetry_equiv_pos_site_id
 _symmetry_equiv_pos_as_xyz
  1  'x, y, z'
loop_
 _atom_site_type_symbol
 _atom_site_label
 _atom_site_symmetry_multiplicity
 _atom_site_fract_x
 _atom_site_fract_y
 _atom_site_fract_z
 _atom_site_occupancy
  Mn  Mn0  1  0.71294700  0.00344800  0.62581700  1
  Mn  Mn1  1  0.21294700  0.99655200  0.87418300  1
  Mn  Mn2  1  0.28705300  0.99655200  0.37418300  1
  Mn  Mn3  1  0.78705300  0.00344800  0.12581700  1
  Mn  Mn4  1  0.75556600  0.53164100  0.64430200  1
  Mn  Mn5  1  0.25556600  0.46835900  0.85569800  1
  Mn  Mn6  1  0.24443400  0.46835900  0.35569800  1
  Mn  Mn7  1  0.74443400  0.53164100  0.14430200  1
  B  B0  1  0.60082800  0.30169900  0.37987200  1
  B  B1  1  0.10082800  0.69830100  0.12012800  1
  B  B2  1  0.39917200  0.69830100  0.62012800  1
  B  B3  1  0.89917200  0.30169900  0.87987200  1
  B  B4  1  0.40238400  0.31182600  0.61572900  1
  B  B5  1  0.90238400  0.68817400  0.88427100  1
  B  B6  1  0.59761600  0.68817400  0.38427100  1
  B  B7  1  0.09761600  0.31182600  0.11572900  1
  B  B8  1  0.93631500  0.79392400  0.36864300  1
  B  B9  1  0.43631500  0.20607600  0.13135700  1
  B  B10  1  0.06368500  0.20607600  0.63135700  1
  B  B11  1  0.56368500  0.79392400  0.86864300  1
  B  B12  1  0.93254100  0.18222200  0.36211300  1
  B  B13  1  0.43254100  0.81777800  0.13788700  1
  B  B14  1  0.06745900  0.81777800  0.63788700  1
  B  B15  1  0.56745900  0.18222200  0.86211300  1
  O  O0  1  0.74826800  0.77796700  0.80719800  1
  O  O1  1  0.24826800  0.22203300  0.69280200  1
  O  O2  1  0.25173200  0.22203300  0.19280200  1
  O  O3  1  0.75173200  0.77796700  0.30719800  1
  O  O4  1  0.55796500  0.76989100  0.53134700  1
  O  O5  1  0.05796500  0.23010900  0.96865300  1
  O  O6  1  0.44203500  0.23010900  0.46865300  1
  O  O7  1  0.94203500  0.76989100  0.03134700  1
  O  O8  1  0.65702700  0.48890200  0.42156800  1
  O  O9  1  0.15702700  0.51109800  0.07843200  1
  O  O10  1  0.34297300  0.51109800  0.57843200  1
  O  O11  1  0.84297300  0.48890200  0.92156800  1
  O  O12  1  0.50390100  0.98968500  0.82793700  1
  O  O13  1  0.00390100  0.01031500  0.67206300  1
  O  O14  1  0.49609900  0.01031500  0.17206300  1
  O  O15  1  0.99609900  0.98968500  0.32793700  1
  O  O16  1  0.74831700  0.16774500  0.41724100  1
  O  O17  1  0.24831700  0.83225500  0.08275900  1
  O  O18  1  0.25168300  0.83225500  0.58275900  1
  O  O19  1  0.75168300  0.16774500  0.91724100  1
  O  O20  1  0.94333000  0.32408900  0.71671300  1
  O  O21  1  0.44333000  0.67591100  0.78328700  1
  O  O22  1  0.05667000  0.67591100  0.28328700  1
  O  O23  1  0.55667000  0.32408900  0.21671300  1
  O  O24  1  0.56169000  0.29680700  0.71406900  1
  O  O25  1  0.06169000  0.70319300  0.78593100  1
  O  O26  1  0.43831000  0.70319300  0.28593100  1
  O  O27  1  0.93831000  0.29680700  0.21406900  1
  O  O28  1  0.94160900  0.73996500  0.53079400  1
  O  O29  1  0.44160900  0.26003500  0.96920600  1
  O  O30  1  0.05839100  0.26003500  0.46920600  1
  O  O31  1  0.55839100  0.73996500  0.03079400  1
loop_
_geom_bond_atom_site_label_1
_geom_bond_atom_site_label_2
_geom_bond_distance
_geom_bond_site_symmetry_2
Mn0 O16 2.142075 1_555
Mn0 O0 2.218064 1_545
Mn0 O13 2.235533 1_655
Mn0 O4 2.255024 1_545
Mn0 O12 2.387752 1_545
Mn0 O24 2.566956 1_555
Mn0 O28 2.738177 1_545
Mn1 O17 2.142075 1_556
Mn1 O1 2.218064 1_565
Mn1 O12 2.235533 1_555
Mn1 O5 2.255024 1_565
Mn1 O13 2.387752 1_565
Mn1 O25 2.566956 1_555
Mn1 O29 2.738177 1_565
Mn2 O18 2.142075 1_555
Mn2 O2 2.218064 1_565
Mn2 O15 2.235533 1_455
Mn2 O6 2.255024 1_565
Mn2 O14 2.387752 1_565
Mn2 O26 2.566956 1_555
Mn2 O30 2.738177 1_565
Mn3 O19 2.142075 1_554
Mn3 O3 2.218064 1_545
Mn3 O14 2.235533 1_555
Mn3 O7 2.255024 1_545
Mn3 O15 2.387752 1_545
Mn3 O27 2.566956 1_555
Mn3 O31 2.738177 1_545
Mn4 O20 2.123014 1_555
Mn4 O8 2.156921 1_555
Mn4 O28 2.238869 1_555
Mn4 O24 2.284782 1_555
Mn4 O0 2.364346 1_555
Mn4 O4 2.431987 1_555
Mn4 O11 2.548422 1_555
Mn5 O21 2.123014 1_555
Mn5 O9 2.156921 1_556
Mn5 O29 2.238869 1_555
Mn5 O25 2.284782 1_555
Mn5 O1 2.364346 1_555
Mn5 O5 2.431987 1_555
Mn5 O10 2.548422 1_555
Mn6 O22 2.123014 1_555
Mn6 O10 2.156921 1_555
Mn6 O30 2.238869 1_555
Mn6 O26 2.284782 1_555
Mn6 O2 2.364346 1_555
Mn6 O6 2.431987 1_555
Mn6 O9 2.548422 1_555
Mn7 O23 2.123014 1_555
Mn7 O11 2.156921 1_554
Mn7 O31 2.238869 1_555
Mn7 O27 2.284782 1_555
Mn7 O3 2.364346 1_555
Mn7 O7 2.431987 1_555
Mn7 O8 2.548422 1_555
B0 O8 1.481348 1_555
B0 O23 1.485458 1_555
B0 O16 1.493078 1_555
B0 O6 1.505282 1_555
B1 O9 1.481348 1_555
B1 O22 1.485458 1_555
B1 O17 1.493078 1_555
B1 O7 1.505282 1_455
B2 O10 1.481348 1_555
B2 O21 1.485458 1_555
B2 O18 1.493078 1_555
B2 O4 1.505282 1_555
B3 O11 1.481348 1_555
B3 O20 1.485458 1_555
B3 O19 1.493078 1_555
B3 O5 1.505282 1_655
B4 O1 1.474928 1_555
B4 O24 1.485973 1_555
B4 O6 1.500435 1_555
B4 O10 1.513427 1_555
B5 O0 1.474928 1_555
B5 O25 1.485973 1_655
B5 O7 1.500435 1_556
B5 O11 1.513427 1_555
B6 O3 1.474928 1_555
B6 O26 1.485973 1_555
B6 O4 1.500435 1_555
B6 O8 1.513427 1_555
B7 O2 1.474928 1_555
B7 O27 1.485973 1_455
B7 O5 1.500435 1_554
B7 O9 1.513427 1_555
B8 O28 1.466029 1_555
B8 O22 1.486592 1_655
B8 O15 1.495877 1_555
B8 O3 1.503827 1_555
B9 O29 1.466029 1_554
B9 O23 1.486592 1_555
B9 O14 1.495877 1_555
B9 O2 1.503827 1_555
B10 O30 1.466029 1_555
B10 O20 1.486592 1_455
B10 O13 1.495877 1_555
B10 O1 1.503827 1_555
B11 O31 1.466029 1_556
B11 O21 1.486592 1_555
B11 O12 1.495877 1_555
B11 O0 1.503827 1_555
B12 O16 1.475584 1_555
B12 O30 1.481868 1_655
B12 O27 1.502053 1_555
B12 O15 1.514213 1_545
B13 O17 1.475584 1_555
B13 O31 1.481868 1_555
B13 O26 1.502053 1_555
B13 O14 1.514213 1_565
B14 O18 1.475584 1_555
B14 O28 1.481868 1_455
B14 O25 1.502053 1_555
B14 O13 1.514213 1_565
B15 O19 1.475584 1_555
B15 O29 1.481868 1_555
B15 O24 1.502053 1_555
B15 O12 1.514213 1_545
