# generated using pymatgen
data_VBi
_symmetry_space_group_name_H-M   'P 1'
_cell_length_a   3.49139900
_cell_length_b   7.30047900
_cell_length_c   6.68397400
_cell_angle_alpha   90.00000000
_cell_angle_beta   90.00000000
_cell_angle_gamma   90.00000000
_symmetry_Int_Tables_number   1
_chemical_formula_structural   VBi
_chemical_formula_sum   'V4 Bi4'
_cell_volume   170.36704516
_cell_formula_units_Z   4
loop_
 _symmetry_equiv_pos_site_id
 _symmetry_equiv_pos_as_xyz
  1  'x, y, z'
loop_
 _atom_site_type_symbol
 _atom_site_label
 _atom_site_symmetry_multiplicity
 _atom_site_fract_x
 _atom_site_fract_y
 _atom_site_fract_z
 _atom_site_occupancy
  V  V0  1  0.25863300  0.00115700  0.14597800  1
  V  V1  1  0.75863300  0.99884300  0.85402200  1
  V  V2  1  0.75863300  0.49884300  0.64597800  1
  V  V3  1  0.25863300  0.50115700  0.35402200  1
  Bi  Bi0  1  0.25866700  0.18747300  0.57837100  1
  Bi  Bi1  1  0.75866700  0.81252700  0.42162900  1
  Bi  Bi2  1  0.75866700  0.31252700  0.07837100  1
  Bi  Bi3  1  0.25866700  0.68747300  0.92162900  1
loop_
_geom_bond_atom_site_label_1
_geom_bond_atom_site_label_2
_geom_bond_distance
_geom_bond_site_symmetry_2
V0 V1 2.618361 1_544
V0 V1 2.618361 1_444
V2 V3 2.618361 1_555
V2 V3 2.618361 1_655
Bi0 V3 2.737321 1_555
Bi0 V1 2.887564 1_545
Bi0 V1 2.887708 1_445
Bi0 V2 2.901459 1_555
Bi0 V2 2.901602 1_455
Bi0 V0 3.194187 1_555
Bi1 V2 2.737321 1_555
Bi1 V0 2.887564 1_665
Bi1 V0 2.887708 1_565
Bi1 V3 2.901459 1_655
Bi1 V3 2.901602 1_555
Bi1 V1 3.194187 1_555
Bi2 V1 2.737321 1_544
Bi2 V3 2.887564 1_655
Bi2 V3 2.887708 1_555
Bi2 V0 2.901459 1_655
Bi2 V0 2.901602 1_555
Bi2 V2 3.194187 1_554
Bi3 V0 2.737321 1_566
Bi3 V2 2.887564 1_555
Bi3 V2 2.887708 1_455
Bi3 V1 2.901459 1_555
Bi3 V1 2.901602 1_455
Bi3 V3 3.194187 1_556
