# generated using pymatgen
data_Ti4Te3N2
_symmetry_space_group_name_H-M   'P 1'
_cell_length_a   6.74883100
_cell_length_b   10.74133400
_cell_length_c   9.79697500
_cell_angle_alpha   90.00000000
_cell_angle_beta   90.00000000
_cell_angle_gamma   90.00000000
_symmetry_Int_Tables_number   1
_chemical_formula_structural   Ti4Te3N2
_chemical_formula_sum   'Ti16 Te12 N8'
_cell_volume   710.19690260
_cell_formula_units_Z   4
loop_
 _symmetry_equiv_pos_site_id
 _symmetry_equiv_pos_as_xyz
  1  'x, y, z'
loop_
 _atom_site_type_symbol
 _atom_site_label
 _atom_site_symmetry_multiplicity
 _atom_site_fract_x
 _atom_site_fract_y
 _atom_site_fract_z
 _atom_site_occupancy
  Ti  Ti0  1  0.59116900  0.25000000  0.90202100  1
  Ti  Ti1  1  0.09116900  0.25000000  0.59797900  1
  Ti  Ti2  1  0.40883100  0.75000000  0.09797900  1
  Ti  Ti3  1  0.90883100  0.75000000  0.40202100  1
  Ti  Ti4  1  0.79261500  0.25000000  0.40562600  1
  Ti  Ti5  1  0.29261500  0.25000000  0.09437400  1
  Ti  Ti6  1  0.20738500  0.75000000  0.59437400  1
  Ti  Ti7  1  0.70738500  0.75000000  0.90562600  1
  Ti  Ti8  1  0.69078400  0.48855200  0.05558400  1
  Ti  Ti9  1  0.19078400  0.01144800  0.44441600  1
  Ti  Ti10  1  0.30921600  0.98855200  0.94441600  1
  Ti  Ti11  1  0.80921600  0.51144800  0.55558400  1
  Ti  Ti12  1  0.30921600  0.51144800  0.94441600  1
  Ti  Ti13  1  0.80921600  0.98855200  0.55558400  1
  Ti  Ti14  1  0.69078400  0.01144800  0.05558400  1
  Ti  Ti15  1  0.19078400  0.48855200  0.44441600  1
  Te  Te0  1  0.88082800  0.25000000  0.12978900  1
  Te  Te1  1  0.38082800  0.25000000  0.37021100  1
  Te  Te2  1  0.11917200  0.75000000  0.87021100  1
  Te  Te3  1  0.61917200  0.75000000  0.62978900  1
  Te  Te4  1  0.57876800  0.57320000  0.31907400  1
  Te  Te5  1  0.07876800  0.92680000  0.18092600  1
  Te  Te6  1  0.42123200  0.07320000  0.68092600  1
  Te  Te7  1  0.92123200  0.42680000  0.81907400  1
  Te  Te8  1  0.42123200  0.42680000  0.68092600  1
  Te  Te9  1  0.92123200  0.07320000  0.81907400  1
  Te  Te10  1  0.57876800  0.92680000  0.31907400  1
  Te  Te11  1  0.07876800  0.57320000  0.18092600  1
  N  N0  1  0.53801700  0.62081300  0.96396300  1
  N  N1  1  0.03801700  0.87918700  0.53603700  1
  N  N2  1  0.46198300  0.12081300  0.03603700  1
  N  N3  1  0.96198300  0.37918700  0.46396300  1
  N  N4  1  0.46198300  0.37918700  0.03603700  1
  N  N5  1  0.96198300  0.12081300  0.46396300  1
  N  N6  1  0.53801700  0.87918700  0.96396300  1
  N  N7  1  0.03801700  0.62081300  0.53603700  1
loop_
_geom_bond_atom_site_label_1
_geom_bond_atom_site_label_2
_geom_bond_distance
_geom_bond_site_symmetry_2
Te0 Ti4 2.767168 1_555
Te0 Ti5 2.800656 1_655
Te0 Ti14 2.956219 1_555
Te0 Ti8 2.956219 1_555
Te0 Ti0 2.966612 1_554
Te1 Ti5 2.767168 1_555
Te1 Ti4 2.800656 1_555
Te1 Ti9 2.956219 1_555
Te1 Ti15 2.956219 1_555
Te1 Ti1 2.966612 1_555
Te2 Ti6 2.767168 1_555
Te2 Ti7 2.800656 1_455
Te2 Ti12 2.956219 1_555
Te2 Ti10 2.956219 1_555
Te2 Ti2 2.966612 1_556
Te3 Ti7 2.767168 1_555
Te3 Ti6 2.800656 1_555
Te3 Ti11 2.956219 1_555
Te3 Ti13 2.956219 1_555
Te3 Ti3 2.966612 1_555
Te4 Ti8 2.839341 1_555
Te4 Ti11 2.868389 1_555
Te4 Ti15 3.031640 1_555
Te4 Ti3 3.037887 1_555
Te4 Ti2 3.100582 1_555
Te5 Ti9 2.839341 1_565
Te5 Ti10 2.868389 1_554
Te5 Ti14 3.031640 1_465
Te5 Ti2 3.037887 1_555
Te5 Ti3 3.100582 1_455
Te6 Ti10 2.839341 1_545
Te6 Ti9 2.868389 1_555
Te6 Ti13 3.031640 1_545
Te6 Ti1 3.037887 1_555
Te6 Ti0 3.100582 1_555
Te7 Ti11 2.839341 1_555
Te7 Ti8 2.868389 1_556
Te7 Ti12 3.031640 1_655
Te7 Ti0 3.037887 1_555
Te7 Ti1 3.100582 1_655
Te8 Ti12 2.839341 1_555
Te8 Ti15 2.868389 1_555
Te8 Ti11 3.031640 1_555
Te8 Ti1 3.037887 1_555
Te8 Ti0 3.100582 1_555
Te9 Ti13 2.839341 1_545
Te9 Ti14 2.868389 1_556
Te9 Ti10 3.031640 1_645
Te9 Ti0 3.037887 1_555
Te9 Ti1 3.100582 1_655
Te10 Ti14 2.839341 1_565
Te10 Ti13 2.868389 1_555
Te10 Ti9 3.031640 1_565
Te10 Ti3 3.037887 1_555
Te10 Ti2 3.100582 1_555
Te11 Ti15 2.839341 1_555
Te11 Ti12 2.868389 1_554
Te11 Ti8 3.031640 1_455
Te11 Ti2 3.037887 1_555
Te11 Ti3 3.100582 1_455
N0 Ti7 1.886457 1_555
N0 Ti12 1.949620 1_555
N0 Ti8 1.971531 1_556
N0 Ti2 2.099885 1_556
N1 Ti6 1.886457 1_555
N1 Ti13 1.949620 1_455
N1 Ti9 1.971531 1_565
N1 Ti3 2.099885 1_455
N2 Ti5 1.886457 1_555
N2 Ti14 1.949620 1_555
N2 Ti10 1.971531 1_544
N2 Ti0 2.099885 1_554
N3 Ti4 1.886457 1_555
N3 Ti15 1.949620 1_655
N3 Ti11 1.971531 1_555
N3 Ti1 2.099885 1_655
N4 Ti5 1.886457 1_555
N4 Ti8 1.949620 1_555
N4 Ti12 1.971531 1_554
N4 Ti0 2.099885 1_554
N5 Ti4 1.886457 1_555
N5 Ti9 1.949620 1_655
N5 Ti13 1.971531 1_545
N5 Ti1 2.099885 1_655
N6 Ti7 1.886457 1_555
N6 Ti10 1.949620 1_555
N6 Ti14 1.971531 1_566
N6 Ti2 2.099885 1_556
N7 Ti6 1.886457 1_555
N7 Ti11 1.949620 1_455
N7 Ti15 1.971531 1_555
N7 Ti3 2.099885 1_455
