# generated using pymatgen
data_NiW3N
_symmetry_space_group_name_H-M   'P 1'
_cell_length_a   5.25321100
_cell_length_b   6.17400600
_cell_length_c   7.93979700
_cell_angle_alpha   90.00000000
_cell_angle_beta   90.00000000
_cell_angle_gamma   90.00000000
_symmetry_Int_Tables_number   1
_chemical_formula_structural   NiW3N
_chemical_formula_sum   'Ni4 W12 N4'
_cell_volume   257.51426452
_cell_formula_units_Z   4
loop_
 _symmetry_equiv_pos_site_id
 _symmetry_equiv_pos_as_xyz
  1  'x, y, z'
loop_
 _atom_site_type_symbol
 _atom_site_label
 _atom_site_symmetry_multiplicity
 _atom_site_fract_x
 _atom_site_fract_y
 _atom_site_fract_z
 _atom_site_occupancy
  Ni  Ni0  1  0.05902900  0.38955700  0.25000000  1
  Ni  Ni1  1  0.94097100  0.61044300  0.75000000  1
  Ni  Ni2  1  0.55902900  0.11044300  0.75000000  1
  Ni  Ni3  1  0.44097000  0.88955700  0.25000000  1
  W  W0  1  0.35250600  0.18915600  0.04889800  1
  W  W1  1  0.64749400  0.81084400  0.95110200  1
  W  W2  1  0.85250600  0.31084400  0.95110200  1
  W  W3  1  0.64749400  0.81084400  0.54889800  1
  W  W4  1  0.14749400  0.68915600  0.04889800  1
  W  W5  1  0.35250600  0.18915600  0.45110200  1
  W  W6  1  0.14749400  0.68915600  0.45110200  1
  W  W7  1  0.85250600  0.31084400  0.54889800  1
  W  W8  1  0.61809800  0.51245100  0.25000000  1
  W  W9  1  0.38190200  0.48754900  0.75000000  1
  W  W10  1  0.11809800  0.98754900  0.75000000  1
  W  W11  1  0.88190200  0.01245100  0.25000000  1
  N  N0  1  0.00000000  0.00000000  0.00000000  1
  N  N1  1  0.50000000  0.50000000  0.00000000  1
  N  N2  1  0.00000000  0.00000000  0.50000000  1
  N  N3  1  0.50000000  0.50000000  0.50000000  1
loop_
_geom_bond_atom_site_label_1
_geom_bond_atom_site_label_2
_geom_bond_distance
_geom_bond_site_symmetry_2
Ni0 W8 2.437409 1_455
Ni0 W6 2.487355 1_555
Ni0 W4 2.487355 1_555
Ni0 W11 2.507304 1_455
Ni0 W5 2.541095 1_555
Ni0 W0 2.541095 1_555
Ni0 W2 2.654285 1_454
Ni0 W7 2.654285 1_455
Ni0 W8 3.033335 1_555
Ni1 W9 2.437409 1_655
Ni1 W2 2.487355 1_555
Ni1 W7 2.487355 1_555
Ni1 W10 2.507304 1_655
Ni1 W3 2.541095 1_555
Ni1 W1 2.541095 1_555
Ni1 W4 2.654285 1_656
Ni1 W6 2.654285 1_655
Ni1 W9 3.033335 1_555
Ni2 W10 2.437409 1_545
Ni2 W3 2.487355 1_545
Ni2 W1 2.487355 1_545
Ni2 W9 2.507304 1_555
Ni2 W2 2.541095 1_555
Ni2 W7 2.541095 1_555
Ni2 W0 2.654285 1_556
Ni2 W5 2.654285 1_555
Ni2 W10 3.033335 1_645
Ni3 W11 2.437414 1_565
Ni3 W0 2.487354 1_565
Ni3 W5 2.487354 1_565
Ni3 W8 2.507306 1_555
Ni3 W4 2.541092 1_555
Ni3 W6 2.541092 1_555
Ni3 W3 2.654287 1_555
Ni3 W1 2.654287 1_554
Ni3 W11 3.033330 1_465
N0 W11 2.081063 1_455
N0 W10 2.081063 1_544
N0 W2 2.105759 1_454
N0 W4 2.105759 1_545
N0 W0 2.223449 1_555
N0 W1 2.223449 1_444
N1 W8 2.081063 1_555
N1 W9 2.081063 1_554
N1 W1 2.105759 1_554
N1 W0 2.105759 1_555
N1 W4 2.223449 1_555
N1 W2 2.223449 1_554
N2 W11 2.081063 1_455
N2 W10 2.081063 1_545
N2 W6 2.105759 1_545
N2 W7 2.105759 1_455
N2 W5 2.223449 1_555
N2 W3 2.223449 1_445
N3 W8 2.081063 1_555
N3 W9 2.081063 1_555
N3 W5 2.105759 1_555
N3 W3 2.105759 1_555
N3 W6 2.223449 1_555
N3 W7 2.223449 1_555
