# generated using pymatgen
data_LiIrO2
_symmetry_space_group_name_H-M   'P 1'
_cell_length_a   5.53393156
_cell_length_b   5.53393156
_cell_length_c   4.96333645
_cell_angle_alpha   79.32477473
_cell_angle_beta   79.32477473
_cell_angle_gamma   120.02765729
_symmetry_Int_Tables_number   1
_chemical_formula_structural   LiIrO2
_chemical_formula_sum   'Li3 Ir3 O6'
_cell_volume   122.22565809
_cell_formula_units_Z   3
loop_
 _symmetry_equiv_pos_site_id
 _symmetry_equiv_pos_as_xyz
  1  'x, y, z'
loop_
 _atom_site_type_symbol
 _atom_site_label
 _atom_site_symmetry_multiplicity
 _atom_site_fract_x
 _atom_site_fract_y
 _atom_site_fract_z
 _atom_site_occupancy
  Li  Li0  1  0.00000000  0.00000000  0.50000000  1
  Li  Li1  1  0.67703200  0.32296800  0.50000000  1
  Li  Li2  1  0.32296800  0.67703200  0.50000000  1
  Ir  Ir0  1  0.83372700  0.16627300  0.00000000  1
  Ir  Ir1  1  0.16627300  0.83372700  0.00000000  1
  Ir  Ir2  1  0.50000000  0.50000000  0.00000000  1
  O  O0  1  0.42715300  0.09450800  0.21773700  1
  O  O1  1  0.57284700  0.90549200  0.78226300  1
  O  O2  1  0.90549200  0.57284700  0.78226300  1
  O  O3  1  0.09450800  0.42715300  0.21773700  1
  O  O4  1  0.76198300  0.76198300  0.21579400  1
  O  O5  1  0.23801700  0.23801700  0.78420600  1
loop_
_geom_bond_atom_site_label_1
_geom_bond_atom_site_label_2
_geom_bond_distance
_geom_bond_site_symmetry_2
Li0 O3 2.255718 1_555
Li0 O0 2.255718 1_555
Li0 O1 2.255718 1_445
Li0 O2 2.255718 1_445
Li0 O5 2.258325 1_555
Li0 O4 2.258325 1_445
Li1 O1 2.191129 1_545
Li1 O3 2.191129 1_655
Li1 O0 2.257763 1_555
Li1 O2 2.257763 1_555
Li1 O4 2.335543 1_555
Li1 O5 2.335543 1_555
Li2 O2 2.191129 1_455
Li2 O0 2.191129 1_565
Li2 O3 2.257763 1_555
Li2 O1 2.257763 1_555
Li2 O5 2.335543 1_555
Li2 O4 2.335543 1_555
Ir0 O5 2.091894 1_654
Ir0 O4 2.091894 1_545
Ir0 O1 2.098921 1_544
Ir0 O3 2.098921 1_655
Ir0 O0 2.105654 1_555
Ir0 O2 2.105654 1_554
Ir1 O5 2.091894 1_564
Ir1 O4 2.091894 1_455
Ir1 O0 2.098921 1_565
Ir1 O2 2.098921 1_454
Ir1 O3 2.105654 1_555
Ir1 O1 2.105654 1_554
Ir2 O4 2.097118 1_555
Ir2 O5 2.097118 1_554
Ir2 O1 2.097759 1_554
Ir2 O2 2.097759 1_554
Ir2 O3 2.097759 1_555
Ir2 O0 2.097759 1_555
