# generated using pymatgen
data_Ca4Mn3CrO11
_symmetry_space_group_name_H-M   'P 1'
_cell_length_a   7.67124200
_cell_length_b   7.66045900
_cell_length_c   7.65270500
_cell_angle_alpha   90.00000000
_cell_angle_beta   90.00000000
_cell_angle_gamma   90.00000000
_symmetry_Int_Tables_number   1
_chemical_formula_structural   Ca4Mn3CrO11
_chemical_formula_sum   'Ca8 Mn6 Cr2 O22'
_cell_volume   449.71300633
_cell_formula_units_Z   2
loop_
 _symmetry_equiv_pos_site_id
 _symmetry_equiv_pos_as_xyz
  1  'x, y, z'
loop_
 _atom_site_type_symbol
 _atom_site_label
 _atom_site_symmetry_multiplicity
 _atom_site_fract_x
 _atom_site_fract_y
 _atom_site_fract_z
 _atom_site_occupancy
  Ca  Ca0  1  0.25191500  0.25035800  0.25130800  1
  Ca  Ca1  1  0.24977200  0.24923200  0.74428300  1
  Ca  Ca2  1  0.25191500  0.74964200  0.25130800  1
  Ca  Ca3  1  0.24977200  0.75076800  0.74428300  1
  Ca  Ca4  1  0.74808500  0.25035800  0.25130800  1
  Ca  Ca5  1  0.75022800  0.24923200  0.74428300  1
  Ca  Ca6  1  0.74808500  0.74964200  0.25130800  1
  Ca  Ca7  1  0.75022800  0.75076800  0.74428300  1
  Mn  Mn0  1  0.00000000  0.00000000  0.50052000  1
  Mn  Mn1  1  0.00000000  0.50000000  0.00607100  1
  Mn  Mn2  1  0.00000000  0.50000000  0.49101900  1
  Mn  Mn3  1  0.50000000  0.00000000  0.49057000  1
  Mn  Mn4  1  0.50000000  0.50000000  0.99297100  1
  Mn  Mn5  1  0.50000000  0.50000000  0.50485700  1
  Cr  Cr0  1  0.00000000  0.00000000  0.99377500  1
  Cr  Cr1  1  0.50000000  0.00000000  0.00412600  1
  O  O0  1  0.00000000  0.00000000  0.75530100  1
  O  O1  1  0.00000000  0.50000000  0.24912000  1
  O  O2  1  0.00000000  0.50000000  0.74971200  1
  O  O3  1  0.50000000  0.00000000  0.25497500  1
  O  O4  1  0.50000000  0.00000000  0.74374500  1
  O  O5  1  0.50000000  0.50000000  0.75037200  1
  O  O6  1  0.24016600  0.00000000  0.02566100  1
  O  O7  1  0.24687400  0.00000000  0.47919300  1
  O  O8  1  0.25367100  0.50000000  0.02139100  1
  O  O9  1  0.25412800  0.50000000  0.47762600  1
  O  O10  1  0.75983400  0.00000000  0.02566100  1
  O  O11  1  0.75312600  0.00000000  0.47919300  1
  O  O12  1  0.74632900  0.50000000  0.02139100  1
  O  O13  1  0.74587200  0.50000000  0.47762600  1
  O  O14  1  0.00000000  0.24443300  0.02608200  1
  O  O15  1  0.00000000  0.24713400  0.47909700  1
  O  O16  1  0.00000000  0.75556700  0.02608200  1
  O  O17  1  0.00000000  0.75286600  0.47909700  1
  O  O18  1  0.50000000  0.25867200  0.02825200  1
  O  O19  1  0.50000000  0.25459300  0.47794800  1
  O  O20  1  0.50000000  0.74132800  0.02825200  1
  O  O21  1  0.50000000  0.74540700  0.47794800  1
loop_
_geom_bond_atom_site_label_1
_geom_bond_atom_site_label_2
_geom_bond_distance
_geom_bond_site_symmetry_2
Ca0 O18 2.557285 1_555
Ca0 O19 2.575091 1_555
Ca0 O9 2.580134 1_555
Ca0 O6 2.582280 1_555
Ca0 O14 2.589860 1_555
Ca0 O7 2.592487 1_555
Ca0 O8 2.598681 1_555
Ca0 O15 2.602676 1_555
Ca0 O3 2.702005 1_555
Ca0 O1 2.718825 1_555
Ca1 O0 2.706209 1_555
Ca1 O4 2.707377 1_555
Ca1 O2 2.713531 1_555
Ca1 O5 2.716084 1_555
Ca1 O7 2.785876 1_555
Ca1 O15 2.791053 1_555
Ca1 O19 2.800105 1_555
Ca1 O9 2.802783 1_555
Ca1 O8 2.861500 1_556
Ca1 O6 2.878769 1_556
Ca1 O14 2.885003 1_556
Ca1 O18 2.900420 1_556
Ca2 O20 2.557285 1_555
Ca2 O21 2.575091 1_555
Ca2 O9 2.580134 1_555
Ca2 O6 2.582280 1_565
Ca2 O16 2.589860 1_555
Ca2 O7 2.592487 1_565
Ca2 O8 2.598681 1_555
Ca2 O17 2.602676 1_555
Ca2 O3 2.702005 1_565
Ca2 O1 2.718825 1_555
Ca3 O0 2.706209 1_565
Ca3 O4 2.707377 1_565
Ca3 O2 2.713531 1_555
Ca3 O5 2.716084 1_555
Ca3 O7 2.785876 1_565
Ca3 O17 2.791053 1_555
Ca3 O21 2.800105 1_555
Ca3 O9 2.802783 1_555
Ca3 O8 2.861500 1_556
Ca3 O6 2.878769 1_566
Ca3 O16 2.885003 1_556
Ca3 O20 2.900420 1_556
Ca4 O18 2.557285 1_555
Ca4 O19 2.575091 1_555
Ca4 O13 2.580134 1_555
Ca4 O10 2.582280 1_555
Ca4 O14 2.589860 1_655
Ca4 O11 2.592487 1_555
Ca4 O12 2.598681 1_555
Ca4 O15 2.602676 1_655
Ca4 O3 2.702005 1_555
Ca4 O1 2.718825 1_655
Ca5 O0 2.706209 1_655
Ca5 O4 2.707377 1_555
Ca5 O2 2.713531 1_655
Ca5 O5 2.716084 1_555
Ca5 O11 2.785876 1_555
Ca5 O15 2.791053 1_655
Ca5 O19 2.800105 1_555
Ca5 O13 2.802783 1_555
Ca5 O12 2.861500 1_556
Ca5 O10 2.878769 1_556
Ca5 O14 2.885003 1_656
Ca5 O18 2.900420 1_556
Ca6 O20 2.557285 1_555
Ca6 O21 2.575091 1_555
Ca6 O13 2.580134 1_555
Ca6 O10 2.582280 1_565
Ca6 O16 2.589860 1_655
Ca6 O11 2.592487 1_565
Ca6 O12 2.598681 1_555
Ca6 O17 2.602676 1_655
Ca6 O3 2.702005 1_565
Ca6 O1 2.718825 1_655
Ca7 O0 2.706209 1_665
Ca7 O4 2.707377 1_565
Ca7 O2 2.713531 1_655
Ca7 O5 2.716084 1_555
Ca7 O11 2.785876 1_565
Ca7 O17 2.791053 1_655
Ca7 O21 2.800105 1_555
Ca7 O13 2.802783 1_555
Ca7 O12 2.861500 1_556
Ca7 O10 2.878769 1_566
Ca7 O16 2.885003 1_656
Ca7 O20 2.900420 1_556
Mn0 O17 1.900245 1_545
Mn0 O15 1.900245 1_555
Mn0 O7 1.900850 1_555
Mn0 O11 1.900850 1_455
Mn0 O0 1.949764 1_555
Mn1 O1 1.859982 1_555
Mn1 O12 1.949500 1_455
Mn1 O8 1.949500 1_555
Mn1 O2 1.961840 1_554
Mn1 O14 1.963741 1_555
Mn1 O16 1.963741 1_555
Mn2 O1 1.851182 1_555
Mn2 O15 1.939217 1_555
Mn2 O17 1.939217 1_555
Mn2 O13 1.952170 1_455
Mn2 O9 1.952170 1_555
Mn2 O2 1.979701 1_555
Mn3 O3 1.802939 1_555
Mn3 O4 1.937474 1_555
Mn3 O7 1.943742 1_555
Mn3 O11 1.943742 1_555
Mn3 O21 1.952690 1_545
Mn3 O19 1.952690 1_555
Mn4 O5 1.856539 1_555
Mn4 O20 1.868295 1_556
Mn4 O18 1.868295 1_556
Mn4 O12 1.902124 1_556
Mn4 O8 1.902124 1_556
Mn5 O5 1.878854 1_555
Mn5 O19 1.891175 1_555
Mn5 O21 1.891175 1_555
Mn5 O9 1.897621 1_555
Mn5 O13 1.897621 1_555
Cr0 O0 1.824971 1_555
Cr0 O6 1.858461 1_556
Cr0 O10 1.858461 1_456
Cr0 O14 1.888721 1_556
Cr0 O16 1.888721 1_546
Cr1 O3 1.919673 1_555
Cr1 O20 1.990129 1_545
Cr1 O18 1.990129 1_555
Cr1 O4 1.992619 1_554
Cr1 O6 2.000051 1_555
Cr1 O10 2.000051 1_555
