# generated using pymatgen
data_Mg6Si5
_symmetry_space_group_name_H-M   'P 1'
_cell_length_a   5.03016000
_cell_length_b   5.97421777
_cell_length_c   14.00632174
_cell_angle_alpha   89.27613106
_cell_angle_beta   99.37686819
_cell_angle_gamma   97.38594875
_symmetry_Int_Tables_number   1
_chemical_formula_structural   Mg6Si5
_chemical_formula_sum   'Mg12 Si10'
_cell_volume   411.82302968
_cell_formula_units_Z   2
loop_
 _symmetry_equiv_pos_site_id
 _symmetry_equiv_pos_as_xyz
  1  'x, y, z'
loop_
 _atom_site_type_symbol
 _atom_site_label
 _atom_site_symmetry_multiplicity
 _atom_site_fract_x
 _atom_site_fract_y
 _atom_site_fract_z
 _atom_site_occupancy
  Mg  Mg0  1  0.17235500  0.83714200  0.00986100  1
  Mg  Mg1  1  0.75003200  0.88148100  0.48785400  1
  Mg  Mg2  1  0.16681200  0.37020200  0.36167900  1
  Mg  Mg3  1  0.92757000  0.18419800  0.65345400  1
  Mg  Mg4  1  0.07009000  0.45527000  0.82934100  1
  Mg  Mg5  1  0.74326200  0.89707000  0.14456300  1
  Mg  Mg6  1  0.18302700  0.86894900  0.36336600  1
  Mg  Mg7  1  0.25088400  0.60282100  0.57531200  1
  Mg  Mg8  1  0.62467400  0.63552200  0.92354400  1
  Mg  Mg9  1  0.72965300  0.39898500  0.15052600  1
  Mg  Mg10  1  0.16326300  0.33696200  0.03488800  1
  Mg  Mg11  1  0.59707300  0.13509900  0.92009800  1
  Si  Si0  1  0.33272200  0.08528000  0.55274000  1
  Si  Si1  1  0.65499200  0.39690700  0.48953200  1
  Si  Si2  1  0.28472200  0.07398600  0.19489400  1
  Si  Si3  1  0.44957100  0.92272200  0.73510300  1
  Si  Si4  1  0.80562100  0.67701200  0.67443000  1
  Si  Si5  1  0.66994200  0.61582300  0.32189000  1
  Si  Si6  1  0.27195000  0.64718200  0.19493600  1
  Si  Si7  1  0.49808500  0.36501000  0.73554500  1
  Si  Si8  1  0.00753200  0.92846000  0.81803400  1
  Si  Si9  1  0.64960000  0.18758700  0.33200100  1
loop_
_geom_bond_atom_site_label_1
_geom_bond_atom_site_label_2
_geom_bond_distance
_geom_bond_site_symmetry_2
Mg0 Si8 2.749044 1_554
Mg0 Si6 2.811969 1_555
Mg0 Si2 2.906517 1_565
Mg1 Si5 2.776394 1_555
Mg1 Si0 2.832212 1_565
Mg1 Si9 2.853420 1_565
Mg1 Si4 2.858050 1_555
Mg1 Si1 2.873317 1_555
Mg1 Mg3 2.909262 1_565
Mg1 Si0 3.023523 1_665
Mg1 Si1 3.177256 1_565
Mg1 Mg7 3.232973 1_555
Mg1 Mg7 3.261963 1_655
Mg2 Si9 2.657248 1_455
Mg2 Si1 2.781349 1_555
Mg2 Si9 2.877887 1_555
Mg2 Si5 2.890158 1_555
Mg2 Si6 2.924387 1_555
Mg2 Si5 3.029670 1_455
Mg2 Si2 3.125118 1_555
Mg2 Si0 3.205873 1_555
Mg2 Mg7 3.256550 1_555
Mg3 Si8 2.752582 1_645
Mg3 Si0 2.785672 1_655
Mg3 Si1 2.848618 1_555
Mg3 Mg4 2.903849 1_655
Mg3 Si7 2.932049 1_555
Mg3 Si7 2.980550 1_655
Mg3 Si4 3.033496 1_545
Mg3 Si3 3.068291 1_545
Mg3 Si0 3.079498 1_555
Mg3 Mg7 3.092355 1_655
Mg3 Si4 3.110580 1_555
Mg3 Si3 3.267038 1_645
Mg4 Si4 2.769898 1_455
Mg4 Si7 2.808840 1_555
Mg4 Si8 2.883896 1_555
Mg4 Si7 2.946636 1_455
Mg4 Si8 3.125889 1_545
Mg5 Si2 2.772233 1_665
Mg5 Si6 2.820556 1_555
Mg5 Si2 2.847735 1_565
Mg5 Si5 3.026826 1_555
Mg5 Si6 3.190855 1_655
Mg6 Si2 2.736676 1_565
Mg6 Si5 2.795628 1_455
Mg6 Si6 2.845322 1_555
Mg6 Si0 2.908317 1_565
Mg6 Si9 2.913936 1_565
Mg6 Si5 3.171956 1_555
Mg6 Mg7 3.338696 1_555
Mg7 Si7 2.840025 1_555
Mg7 Si0 2.879492 1_565
Mg7 Si4 2.888846 1_555
Mg7 Si4 2.902451 1_455
Mg7 Si3 2.923785 1_555
Mg7 Si1 2.926586 1_555
Mg7 Si1 3.139625 1_455
Mg7 Si0 3.197441 1_555
Mg8 Si8 2.991827 1_655
Mg8 Si7 3.040958 1_555
Mg8 Si3 3.194151 1_555
Mg9 Si5 2.818287 1_555
Mg9 Si9 2.887829 1_555
Mg9 Si6 2.908115 1_655
Mg9 Si2 2.910412 1_555
Mg9 Si6 3.042023 1_555
Mg10 Si2 2.752401 1_555
Mg10 Si6 2.864255 1_555
Mg11 Si3 2.844063 1_545
Mg11 Si7 2.912561 1_555
Mg11 Si8 3.080935 1_645
Mg11 Si8 3.175478 1_545
Si0 Si1 2.554944 1_555
Si0 Si3 2.721693 1_545
Si1 Si9 2.544479 1_555
Si1 Si5 2.680321 1_555
Si2 Si9 2.466015 1_555
Si2 Si6 2.542355 1_545
Si3 Si7 2.622138 1_565
Si3 Si8 2.675196 1_555
Si3 Si4 2.699633 1_555
Si3 Si8 2.853339 1_655
Si4 Si7 2.500000 1_555
Si4 Si8 2.520347 1_655
Si5 Si6 2.476456 1_555
Si5 Si9 2.550308 1_555
