# generated using pymatgen
data_TiCrCuS4
_symmetry_space_group_name_H-M   'P 1'
_cell_length_a   6.35191069
_cell_length_b   7.30547474
_cell_length_c   12.18590214
_cell_angle_alpha   81.56414697
_cell_angle_beta   85.24882418
_cell_angle_gamma   90.11859904
_symmetry_Int_Tables_number   1
_chemical_formula_structural   TiCrCuS4
_chemical_formula_sum   'Ti4 Cr4 Cu4 S16'
_cell_volume   557.37318504
_cell_formula_units_Z   4
loop_
 _symmetry_equiv_pos_site_id
 _symmetry_equiv_pos_as_xyz
  1  'x, y, z'
loop_
 _atom_site_type_symbol
 _atom_site_label
 _atom_site_symmetry_multiplicity
 _atom_site_fract_x
 _atom_site_fract_y
 _atom_site_fract_z
 _atom_site_occupancy
  Ti  Ti0  1  0.14063700  0.70172200  0.70316800  1
  Ti  Ti1  1  0.85675200  0.29607600  0.29893700  1
  Ti  Ti2  1  0.77605900  0.11025900  0.99938400  1
  Ti  Ti3  1  0.36629200  0.55903900  0.29455400  1
  Cr  Cr0  1  0.24221800  0.88187000  0.99919800  1
  Cr  Cr1  1  0.63129000  0.44086200  0.70688900  1
  Cr  Cr2  1  0.37506900  0.04762500  0.29216800  1
  Cr  Cr3  1  0.63306700  0.95535700  0.70357000  1
  Cu  Cu0  1  0.12656100  0.19972300  0.70316700  1
  Cu  Cu1  1  0.87076700  0.80198500  0.29535000  1
  Cu  Cu2  1  0.25441900  0.37380000  0.99483900  1
  Cu  Cu3  1  0.74600900  0.62751800  0.00150300  1
  S  S0  1  0.10425800  0.65456600  0.89255300  1
  S  S1  1  0.88907800  0.34779500  0.11040000  1
  S  S2  1  0.10081900  0.14708700  0.89345300  1
  S  S3  1  0.90448600  0.84824900  0.10499800  1
  S  S4  1  0.18850500  0.78437400  0.36851100  1
  S  S5  1  0.80539500  0.21931000  0.63486000  1
  S  S6  1  0.19090400  0.28060900  0.36678400  1
  S  S7  1  0.80473500  0.71289200  0.63701000  1
  S  S8  1  0.31429600  0.97229000  0.63262600  1
  S  S9  1  0.68779700  0.02781100  0.37163800  1
  S  S10  1  0.31514900  0.46197500  0.63477400  1
  S  S11  1  0.68852300  0.53797000  0.36958200  1
  S  S12  1  0.39917700  0.09632300  0.10327200  1
  S  S13  1  0.58707800  0.90614100  0.89155200  1
  S  S14  1  0.39243800  0.60813500  0.10456500  1
  S  S15  1  0.60822100  0.39864000  0.89069400  1
loop_
_geom_bond_atom_site_label_1
_geom_bond_atom_site_label_2
_geom_bond_distance
_geom_bond_site_symmetry_2
Cr0 S2 2.384868 1_565
Cr0 S3 2.402362 1_456
Cr0 S12 2.417202 1_566
Cr0 S13 2.450445 1_555
Cr0 S14 2.452682 1_556
Cr0 S0 2.455618 1_555
Cr1 S15 2.208209 1_555
Cr1 S5 2.208292 1_555
Cr1 S10 2.254410 1_555
Cr1 S7 2.286324 1_555
Cr2 S12 2.269300 1_555
Cr2 S9 2.276703 1_555
Cr2 S4 2.291589 1_545
Cr2 S6 2.319119 1_555
Cr3 S5 2.232331 1_565
Cr3 S13 2.260334 1_555
Cr3 S8 2.263220 1_555
Cr3 S7 2.295101 1_555
Cu0 S5 2.263309 1_455
Cu0 S10 2.270849 1_555
Cu0 S8 2.275735 1_545
Cu0 S2 2.286215 1_555
Cu1 S4 2.269401 1_655
Cu1 S11 2.276792 1_555
Cu1 S9 2.283776 1_565
Cu1 S3 2.286498 1_555
Cu2 S2 2.452516 1_555
Cu2 S12 2.474606 1_556
Cu2 S0 2.474961 1_555
Cu2 S15 2.480375 1_555
Cu2 S14 2.519271 1_556
Cu2 S1 2.604368 1_456
Cu3 S3 2.450402 1_555
Cu3 S14 2.473954 1_555
Cu3 S1 2.484864 1_555
Cu3 S15 2.497457 1_554
Cu3 S13 2.527819 1_554
Cu3 S0 2.529940 1_654
S0 Ti0 2.275126 1_555
S1 Ti1 2.265001 1_555
S1 Ti2 2.490249 1_554
S2 Ti2 2.334252 1_455
S3 Ti2 2.333074 1_564
S4 Ti3 2.252067 1_555
S6 Ti3 2.335836 1_555
S6 Ti1 2.337870 1_455
S7 Ti0 2.339938 1_655
S8 Ti0 2.279937 1_555
S9 Ti1 2.258716 1_555
S10 Ti0 2.296581 1_555
S11 Ti1 2.303814 1_555
S11 Ti3 2.306283 1_555
S12 Ti2 2.608262 1_554
S13 Ti2 2.493998 1_565
S14 Ti3 2.282266 1_555
S15 Ti2 2.598799 1_555
