# generated using pymatgen
data_Cs3Ho2Br9
_symmetry_space_group_name_H-M   'P 1'
_cell_length_a   10.24875413
_cell_length_b   10.24875413
_cell_length_c   10.24875397
_cell_angle_alpha   83.64170339
_cell_angle_beta   83.64170339
_cell_angle_gamma   83.64172021
_symmetry_Int_Tables_number   1
_chemical_formula_structural   Cs3Ho2Br9
_chemical_formula_sum   'Cs6 Ho4 Br18'
_cell_volume   1057.99697587
_cell_formula_units_Z   2
loop_
 _symmetry_equiv_pos_site_id
 _symmetry_equiv_pos_as_xyz
  1  'x, y, z'
loop_
 _atom_site_type_symbol
 _atom_site_label
 _atom_site_symmetry_multiplicity
 _atom_site_fract_x
 _atom_site_fract_y
 _atom_site_fract_z
 _atom_site_occupancy
  Cs  Cs0  1  0.58855020  0.91144980  0.25000000  1
  Cs  Cs1  1  0.25000000  0.58855020  0.91144980  1
  Cs  Cs2  1  0.91144980  0.25000000  0.58855020  1
  Cs  Cs3  1  0.75000000  0.41144980  0.08855020  1
  Cs  Cs4  1  0.08855020  0.75000000  0.41144980  1
  Cs  Cs5  1  0.41144980  0.08855020  0.75000000  1
  Ho  Ho0  1  0.84839878  0.84839878  0.84839878  1
  Ho  Ho1  1  0.34839878  0.34839878  0.34839878  1
  Ho  Ho2  1  0.15160122  0.15160122  0.15160122  1
  Ho  Ho3  1  0.65160122  0.65160122  0.65160122  1
  Br  Br0  1  0.09325670  0.40674330  0.25000000  1
  Br  Br1  1  0.25000000  0.09325670  0.40674330  1
  Br  Br2  1  0.40674330  0.25000000  0.09325670  1
  Br  Br3  1  0.75000000  0.90674330  0.59325670  1
  Br  Br4  1  0.59325670  0.75000000  0.90674330  1
  Br  Br5  1  0.90674330  0.59325670  0.75000000  1
  Br  Br6  1  0.23480346  0.41756458  0.58335918  1
  Br  Br7  1  0.58335918  0.23480346  0.41756458  1
  Br  Br8  1  0.41756458  0.58335918  0.23480346  1
  Br  Br9  1  0.08335918  0.91756458  0.73480346  1
  Br  Br10  1  0.73480346  0.08335918  0.91756458  1
  Br  Br11  1  0.91756458  0.73480346  0.08335918  1
  Br  Br12  1  0.76519654  0.58243542  0.41664082  1
  Br  Br13  1  0.41664082  0.76519654  0.58243542  1
  Br  Br14  1  0.58243542  0.41664082  0.76519654  1
  Br  Br15  1  0.91664082  0.08243542  0.26519654  1
  Br  Br16  1  0.26519654  0.91664082  0.08243542  1
  Br  Br17  1  0.08243542  0.26519654  0.91664082  1
loop_
_geom_bond_atom_site_label_1
_geom_bond_atom_site_label_2
_geom_bond_distance
_geom_bond_site_symmetry_2
Br0 Ho2 2.883815 1_555
Br0 Ho1 2.883815 1_555
Br0 Cs2 4.010967 1_455
Br0 Cs1 4.010967 1_554
Br0 Cs3 4.043546 1_455
Br0 Cs4 4.043546 1_555
Br1 Ho1 2.883815 1_555
Br1 Ho2 2.883815 1_555
Br1 Cs2 4.010968 1_455
Br1 Cs0 4.010968 1_545
Br1 Cs4 4.043545 1_545
Br1 Cs5 4.043546 1_555
Br2 Ho2 2.883815 1_555
Br2 Ho1 2.883815 1_555
Br2 Cs1 4.010968 1_554
Br2 Cs0 4.010968 1_545
Br2 Cs3 4.043545 1_555
Br2 Cs5 4.043546 1_554
Br3 Ho3 2.883815 1_555
Br3 Ho0 2.883815 1_555
Br3 Cs4 4.010968 1_655
Br3 Cs5 4.010968 1_565
Br3 Cs2 4.043545 1_565
Br3 Cs0 4.043546 1_555
Br4 Ho0 2.883815 1_555
Br4 Ho3 2.883815 1_555
Br4 Cs3 4.010968 1_556
Br4 Cs5 4.010968 1_565
Br4 Cs1 4.043545 1_555
Br4 Cs0 4.043546 1_556
Br5 Ho3 2.883815 1_555
Br5 Ho0 2.883815 1_555
Br5 Cs3 4.010967 1_556
Br5 Cs4 4.010967 1_655
Br5 Cs2 4.043546 1_555
Br5 Cs1 4.043546 1_655
Br6 Ho1 2.689039 1_555
Br6 Cs4 3.883699 1_555
Br6 Cs2 3.890464 1_455
Br6 Cs5 3.952445 1_555
Br6 Cs1 3.985378 1_555
Br7 Ho1 2.689039 1_555
Br7 Cs5 3.883698 1_555
Br7 Cs0 3.890465 1_545
Br7 Cs3 3.952444 1_555
Br7 Cs2 3.985378 1_555
Br8 Ho1 2.689039 1_555
Br8 Cs3 3.883699 1_555
Br8 Cs1 3.890465 1_554
Br8 Cs4 3.952445 1_555
Br8 Cs0 3.985377 1_555
Br9 Ho0 2.689039 1_455
Br9 Cs2 3.883699 1_465
Br9 Cs4 3.890465 1_555
Br9 Cs1 3.952445 1_555
Br9 Cs5 3.985377 1_565
Br10 Ho0 2.689039 1_545
Br10 Cs0 3.883698 1_546
Br10 Cs5 3.890465 1_555
Br10 Cs2 3.952444 1_555
Br10 Cs3 3.985378 1_556
Br11 Ho0 2.689039 1_554
Br11 Cs1 3.883699 1_654
Br11 Cs3 3.890464 1_555
Br11 Cs0 3.952445 1_555
Br11 Cs4 3.985378 1_655
Br12 Ho3 2.689039 1_555
Br12 Cs2 3.883699 1_555
Br12 Cs4 3.890464 1_655
Br12 Cs0 3.952445 1_555
Br12 Cs3 3.985378 1_555
Br13 Ho3 2.689039 1_555
Br13 Cs0 3.883698 1_555
Br13 Cs5 3.890465 1_565
Br13 Cs1 3.952444 1_555
Br13 Cs4 3.985378 1_555
Br14 Ho3 2.689039 1_555
Br14 Cs1 3.883699 1_555
Br14 Cs3 3.890465 1_556
Br14 Cs2 3.952445 1_555
Br14 Cs5 3.985377 1_555
Br15 Ho2 2.689039 1_655
Br15 Cs4 3.883699 1_645
Br15 Cs2 3.890465 1_555
Br15 Cs3 3.952445 1_555
Br15 Cs0 3.985377 1_545
Br16 Ho2 2.689039 1_565
Br16 Cs5 3.883698 1_564
Br16 Cs0 3.890465 1_555
Br16 Cs4 3.952444 1_555
Br16 Cs1 3.985378 1_554
Br17 Ho2 2.689039 1_556
Br17 Cs3 3.883699 1_456
Br17 Cs1 3.890464 1_555
Br17 Cs5 3.952445 1_555
Br17 Cs2 3.985378 1_455
