# generated using pymatgen
data_NaMg6BO7
_symmetry_space_group_name_H-M   'P 1'
_cell_length_a   8.90778424
_cell_length_b   4.23142219
_cell_length_c   4.23142219
_cell_angle_alpha   90.00000000
_cell_angle_beta   90.00000000
_cell_angle_gamma   90.00000000
_symmetry_Int_Tables_number   1
_chemical_formula_structural   NaMg6BO7
_chemical_formula_sum   'Na1 Mg6 B1 O7'
_cell_volume   159.49328668
_cell_formula_units_Z   1
loop_
 _symmetry_equiv_pos_site_id
 _symmetry_equiv_pos_as_xyz
  1  'x, y, z'
loop_
 _atom_site_type_symbol
 _atom_site_label
 _atom_site_symmetry_multiplicity
 _atom_site_fract_x
 _atom_site_fract_y
 _atom_site_fract_z
 _atom_site_occupancy
  Na  Na0  1  -0.00596466  -0.00000000  0.00000000  1
  Mg  Mg0  1  0.51480130  0.00000000  0.00000000  1
  Mg  Mg1  1  0.48508988  0.50000000  0.50000000  1
  Mg  Mg2  1  0.22515411  0.00000000  0.50000000  1
  Mg  Mg3  1  0.76053266  0.00000000  0.50000000  1
  Mg  Mg4  1  0.22515411  0.50000000  0.00000000  1
  Mg  Mg5  1  0.76053266  0.50000000  -0.00000000  1
  B  B0  1  0.95384515  0.50000000  0.50000000  1
  O  O0  1  0.74238022  0.00000000  -0.00000000  1
  O  O1  1  0.26215003  0.50000000  0.50000000  1
  O  O2  1  0.79802917  0.50000000  0.50000000  1
  O  O3  1  -0.00431242  0.00000000  0.50000000  1
  O  O4  1  0.51846011  -0.00000000  0.50000000  1
  O  O5  1  -0.00431242  0.50000000  -0.00000000  1
  O  O6  1  0.51846011  0.50000000  0.00000000  1
loop_
_geom_bond_atom_site_label_1
_geom_bond_atom_site_label_2
_geom_bond_distance
_geom_bond_site_symmetry_2
Na0 O5 2.115762 1_555
Na0 O3 2.115762 1_555
Na0 O3 2.115762 1_554
Na0 O5 2.115762 1_545
Na0 O0 2.241690 1_455
Mg0 O0 2.027224 1_555
Mg0 O6 2.115962 1_545
Mg0 O6 2.115962 1_555
Mg0 O4 2.115962 1_555
Mg0 O4 2.115962 1_554
Mg1 O1 1.985900 1_555
Mg1 O4 2.136491 1_555
Mg1 O4 2.136491 1_565
Mg1 O6 2.136491 1_556
Mg1 O6 2.136491 1_555
Mg2 O3 2.044038 1_555
Mg2 O1 2.141223 1_545
Mg2 O1 2.141223 1_555
Mg2 O4 2.612707 1_555
Mg3 O3 2.094709 1_655
Mg3 O0 2.121881 1_555
Mg3 O0 2.121881 1_556
Mg3 O2 2.141914 1_545
Mg3 O2 2.141914 1_555
Mg3 O4 2.156330 1_555
Mg4 O5 2.044038 1_555
Mg4 O1 2.141223 1_555
Mg4 O1 2.141223 1_554
Mg4 O6 2.612707 1_555
Mg5 O5 2.094709 1_655
Mg5 O0 2.121881 1_555
Mg5 O0 2.121881 1_565
Mg5 O2 2.141914 1_554
Mg5 O2 2.141914 1_555
Mg5 O6 2.156330 1_555
B0 O2 1.387975 1_555
B0 O5 2.148291 1_655
B0 O5 2.148291 1_656
B0 O3 2.148291 1_655
B0 O3 2.148291 1_665
