# generated using pymatgen
data_Na2Zn3SiAs4
_symmetry_space_group_name_H-M   'P 1'
_cell_length_a   8.52800447
_cell_length_b   8.52800447
_cell_length_c   7.12865940
_cell_angle_alpha   65.38518368
_cell_angle_beta   65.38518368
_cell_angle_gamma   27.70359990
_symmetry_Int_Tables_number   1
_chemical_formula_structural   Na2Zn3SiAs4
_chemical_formula_sum   'Na2 Zn3 Si1 As4'
_cell_volume   217.71889988
_cell_formula_units_Z   1
loop_
 _symmetry_equiv_pos_site_id
 _symmetry_equiv_pos_as_xyz
  1  'x, y, z'
loop_
 _atom_site_type_symbol
 _atom_site_label
 _atom_site_symmetry_multiplicity
 _atom_site_fract_x
 _atom_site_fract_y
 _atom_site_fract_z
 _atom_site_occupancy
  Na  Na0  1  0.49349900  0.49349900  0.50506000  1
  Na  Na1  1  0.99482800  0.99482800  0.00564600  1
  Zn  Zn0  1  0.19535200  0.19535200  0.48181800  1
  Zn  Zn1  1  0.32192900  0.32192900  0.02771700  1
  Zn  Zn2  1  0.81556300  0.81556300  0.50281300  1
  Si  Si0  1  0.68897600  0.68897600  0.96430300  1
  As  As0  1  0.37131000  0.37131000  0.30028400  1
  As  As1  1  0.84992600  0.84992600  0.81229600  1
  As  As2  1  0.62928800  0.62928800  0.70955400  1
  As  As3  1  0.13446800  0.13446800  0.19051000  1
loop_
_geom_bond_atom_site_label_1
_geom_bond_atom_site_label_2
_geom_bond_distance
_geom_bond_site_symmetry_2
As0 Zn1 2.409849 1_555
As0 Zn2 2.441655 1_455
As0 Zn2 2.441655 1_545
As0 Zn0 2.632486 1_555
As0 Na0 2.959662 1_555
As0 Na1 3.012958 1_545
As0 Na1 3.012958 1_455
As1 Si0 2.408358 1_555
As1 Zn1 2.476063 1_566
As1 Zn1 2.476063 1_656
As1 Zn2 2.503653 1_555
As1 Na0 3.185982 1_655
As1 Na0 3.185982 1_565
As1 Na1 3.239667 1_556
As2 Si0 2.411434 1_555
As2 Zn0 2.545027 1_565
As2 Zn0 2.545027 1_655
As2 Zn2 2.790506 1_555
As2 Na1 3.090199 1_456
As2 Na1 3.090199 1_546
As2 Na0 3.161341 1_555
As3 Si0 2.516901 1_454
As3 Si0 2.516901 1_544
As3 Zn0 2.669336 1_555
As3 Zn1 2.809411 1_555
As3 Na1 3.114269 1_445
As3 Na0 3.186691 1_545
As3 Na0 3.186691 1_455
