# generated using pymatgen
data_CePN(O2F)2
_symmetry_space_group_name_H-M   'P 1'
_cell_length_a   5.89263000
_cell_length_b   6.74505998
_cell_length_c   7.38462390
_cell_angle_alpha   113.19252401
_cell_angle_beta   90.00000000
_cell_angle_gamma   90.00000000
_symmetry_Int_Tables_number   1
_chemical_formula_structural   CePN(O2F)2
_chemical_formula_sum   'Ce2 P2 N2 O8 F4'
_cell_volume   269.79078848
_cell_formula_units_Z   2
loop_
 _symmetry_equiv_pos_site_id
 _symmetry_equiv_pos_as_xyz
  1  'x, y, z'
loop_
 _atom_site_type_symbol
 _atom_site_label
 _atom_site_symmetry_multiplicity
 _atom_site_fract_x
 _atom_site_fract_y
 _atom_site_fract_z
 _atom_site_occupancy
  Ce  Ce0  1  0.75000000  0.88177000  0.31564400  1
  Ce  Ce1  1  0.25000000  0.11823000  0.68435600  1
  P  P0  1  0.75000000  0.26988400  0.03955400  1
  P  P1  1  0.25000000  0.73011600  0.96044600  1
  N  N0  1  0.75000000  0.56179900  0.67992700  1
  N  N1  1  0.25000000  0.43820100  0.32007300  1
  O  O0  1  0.75000000  0.49834300  0.20487800  1
  O  O1  1  0.25000000  0.50165700  0.79512200  1
  O  O2  1  0.46425400  0.76125600  0.08958700  1
  O  O3  1  0.96425400  0.23874400  0.91041300  1
  O  O4  1  0.53574600  0.23874400  0.91041300  1
  O  O5  1  0.03574600  0.76125600  0.08958700  1
  O  O6  1  0.75000000  0.10065300  0.13061700  1
  O  O7  1  0.25000000  0.89934700  0.86938300  1
  F  F0  1  0.50074600  0.83406000  0.53357300  1
  F  F1  1  0.00074600  0.16594000  0.46642700  1
  F  F2  1  0.49925400  0.16594000  0.46642700  1
  F  F3  1  0.99925400  0.83406000  0.53357300  1
loop_
_geom_bond_atom_site_label_1
_geom_bond_atom_site_label_2
_geom_bond_distance
_geom_bond_site_symmetry_2
Ce0 O2 2.283383 1_555
Ce0 O5 2.283383 1_655
Ce0 F0 2.293176 1_555
Ce0 F3 2.293176 1_555
Ce0 F1 2.327202 1_665
Ce0 F2 2.327202 1_565
Ce0 O6 2.373921 1_565
Ce0 O0 2.385680 1_555
Ce1 O3 2.283383 1_455
Ce1 O4 2.283383 1_555
Ce1 F2 2.293176 1_555
Ce1 F1 2.293176 1_555
Ce1 F3 2.327202 1_445
Ce1 F0 2.327202 1_545
Ce1 O7 2.373921 1_545
Ce1 O1 2.385680 1_555
O0 P0 1.543788 1_555
O1 P1 1.543788 1_555
O2 P1 1.545886 1_554
O3 P0 1.545886 1_556
O4 P0 1.545886 1_556
O5 P1 1.545886 1_554
O6 P0 1.536154 1_555
O7 P1 1.536154 1_555
