# generated using pymatgen
data_Tm4MgNi
_symmetry_space_group_name_H-M   'P 1'
_cell_length_a   9.45631047
_cell_length_b   9.45628599
_cell_length_c   9.45628715
_cell_angle_alpha   60.00123976
_cell_angle_beta   60.00138617
_cell_angle_gamma   60.00137563
_symmetry_Int_Tables_number   1
_chemical_formula_structural   Tm4MgNi
_chemical_formula_sum   'Tm16 Mg4 Ni4'
_cell_volume   597.94482027
_cell_formula_units_Z   4
loop_
 _symmetry_equiv_pos_site_id
 _symmetry_equiv_pos_as_xyz
  1  'x, y, z'
loop_
 _atom_site_type_symbol
 _atom_site_label
 _atom_site_symmetry_multiplicity
 _atom_site_fract_x
 _atom_site_fract_y
 _atom_site_fract_z
 _atom_site_occupancy
  Tm  Tm0  1  0.59549876  0.59550265  0.59550069  1
  Tm  Tm1  1  0.59549910  0.59550050  0.21350155  1
  Tm  Tm2  1  0.59549909  0.21349958  0.59550021  1
  Tm  Tm3  1  0.21349671  0.59550158  0.59550189  1
  Tm  Tm4  1  0.06286136  0.43714330  0.43713645  1
  Tm  Tm5  1  0.43714201  0.06285472  0.06286200  1
  Tm  Tm6  1  0.43714481  0.06285278  0.43714285  1
  Tm  Tm7  1  0.06286082  0.43714287  0.06286052  1
  Tm  Tm8  1  0.43713712  0.43714282  0.06286113  1
  Tm  Tm9  1  0.06286196  0.06285307  0.43714176  1
  Tm  Tm10  1  0.18632217  0.81367744  0.81367929  1
  Tm  Tm11  1  0.81368053  0.18631638  0.18632608  1
  Tm  Tm12  1  0.81367962  0.18631593  0.81367798  1
  Tm  Tm13  1  0.18632132  0.81367932  0.18631961  1
  Tm  Tm14  1  0.81368260  0.81367861  0.18631903  1
  Tm  Tm15  1  0.18632881  0.18631652  0.81367791  1
  Mg  Mg0  1  0.82892079  0.82891979  0.82892110  1
  Mg  Mg1  1  0.82893982  0.82893971  0.51319323  1
  Mg  Mg2  1  0.82893522  0.51320714  0.82893637  1
  Mg  Mg3  1  0.51319645  0.82893815  0.82893944  1
  Ni  Ni0  1  0.39184278  0.39184791  0.39184553  1
  Ni  Ni1  1  0.39183248  0.39184421  0.82448186  1
  Ni  Ni2  1  0.39183430  0.82448501  0.39184026  1
  Ni  Ni3  1  0.82448237  0.39184101  0.39183525  1
loop_
_geom_bond_atom_site_label_1
_geom_bond_atom_site_label_2
_geom_bond_distance
_geom_bond_site_symmetry_2
Tm0 Tm10 3.431592 1_555
Tm0 Tm14 3.431627 1_555
Tm0 Tm12 3.431646 1_555
Tm1 Tm14 3.431536 1_555
Tm1 Tm13 3.431593 1_555
Tm1 Tm11 3.431616 1_555
Tm10 Tm3 3.431506 1_555
Tm10 Tm13 3.523799 1_556
Tm10 Tm15 3.523807 1_565
Tm10 Tm14 3.523866 1_456
Tm10 Tm12 3.523873 1_465
Tm10 Tm7 3.550998 1_556
Tm10 Tm9 3.551016 1_565
Tm10 Tm8 3.551028 1_556
Tm10 Tm6 3.551040 1_565
Tm11 Tm2 3.431560 1_555
Tm11 Tm14 3.523793 1_545
Tm11 Tm13 3.523858 1_645
Tm11 Tm12 3.523874 1_554
Tm11 Tm15 3.523947 1_654
Tm11 Tm9 3.550966 1_655
Tm11 Tm6 3.551027 1_555
Tm11 Tm7 3.551035 1_655
Tm11 Tm8 3.551094 1_555
Tm12 Tm2 3.431504 1_555
Tm12 Tm14 3.523849 1_546
Tm12 Tm15 3.523889 1_655
Tm12 Tm9 3.551024 1_655
Tm12 Tm5 3.551031 1_556
Tm12 Tm4 3.551109 1_655
Tm12 Tm8 3.551124 1_556
Tm13 Tm3 3.431596 1_555
Tm13 Tm14 3.523794 1_455
Tm13 Tm15 3.523851 1_564
Tm13 Tm9 3.550968 1_565
Tm13 Tm5 3.550977 1_565
Tm13 Tm4 3.551003 1_555
Tm13 Tm8 3.551006 1_555
Tm14 Tm7 3.550999 1_655
Tm14 Tm4 3.551027 1_655
Tm14 Tm5 3.551034 1_565
Tm14 Tm6 3.551053 1_565
Tm15 Tm2 3.431535 1_555
Tm15 Tm3 3.431595 1_555
Tm15 Tm5 3.550972 1_556
Tm15 Tm6 3.551020 1_555
Tm15 Tm7 3.551044 1_556
Tm15 Tm4 3.551081 1_555
Mg0 Mg2 2.985329 1_555
Mg0 Mg3 2.985414 1_555
Mg0 Mg1 2.985429 1_555
Mg0 Tm12 3.241926 1_565
Mg0 Tm14 3.241965 1_556
Mg0 Tm10 3.241985 1_655
Mg0 Tm3 3.433333 1_655
Mg0 Tm1 3.433357 1_556
Mg0 Tm2 3.433360 1_565
Mg0 Tm9 3.466378 1_665
Mg0 Tm7 3.466388 1_656
Mg0 Tm5 3.466391 1_566
Mg1 Mg2 2.985764 1_555
Mg1 Mg3 2.985840 1_555
Mg1 Tm11 3.241689 1_565
Mg1 Tm14 3.241735 1_555
Mg1 Tm13 3.241754 1_655
Mg1 Tm3 3.433348 1_655
Mg1 Tm2 3.433360 1_565
Mg1 Tm0 3.433400 1_555
Mg1 Tm9 3.466168 1_665
Mg1 Tm6 3.466309 1_565
Mg1 Tm4 3.466340 1_655
Mg2 Mg3 2.985745 1_555
Mg2 Tm11 3.241858 1_556
Mg2 Tm12 3.241873 1_555
Mg2 Tm15 3.241888 1_655
Mg2 Tm3 3.433327 1_655
Mg2 Tm1 3.433347 1_556
Mg2 Tm0 3.433399 1_555
Mg2 Tm7 3.466231 1_656
Mg2 Tm8 3.466390 1_556
Mg2 Tm4 3.466397 1_655
Mg3 Tm15 3.241710 1_565
Mg3 Tm13 3.241752 1_556
Mg3 Tm10 3.241756 1_555
Mg3 Tm2 3.433349 1_565
Mg3 Tm1 3.433354 1_556
Mg3 Tm0 3.433388 1_555
Mg3 Tm5 3.466184 1_566
Mg3 Tm6 3.466315 1_565
Mg3 Tm8 3.466336 1_556
Ni0 Tm1 2.734033 1_555
Ni0 Tm3 2.734040 1_555
Ni0 Tm2 2.734043 1_555
Ni0 Tm4 2.750197 1_555
Ni0 Tm8 2.750206 1_555
Ni0 Tm6 2.750273 1_555
Ni0 Tm13 3.426181 1_555
Ni0 Tm15 3.426182 1_555
Ni0 Tm11 3.426238 1_555
Ni1 Tm3 2.734093 1_555
Ni1 Tm0 2.734158 1_555
Ni1 Tm2 2.734164 1_555
Ni1 Tm8 2.750112 1_556
Ni1 Tm7 2.750121 1_556
Ni1 Tm5 2.750222 1_556
Ni1 Tm15 3.426074 1_555
Ni1 Tm10 3.426129 1_555
Ni1 Tm12 3.426249 1_555
Ni2 Tm3 2.734129 1_555
Ni2 Tm1 2.734147 1_555
Ni2 Tm0 2.734159 1_555
Ni2 Tm6 2.750066 1_565
Ni2 Tm9 2.750091 1_565
Ni2 Tm5 2.750122 1_565
Ni2 Tm13 3.426102 1_555
Ni2 Tm10 3.426165 1_555
Ni2 Tm14 3.426252 1_555
Ni3 Tm1 2.734106 1_555
Ni3 Tm2 2.734154 1_555
Ni3 Tm0 2.734178 1_555
Ni3 Tm4 2.750115 1_655
Ni3 Tm7 2.750134 1_655
Ni3 Tm9 2.750217 1_655
Ni3 Tm11 3.426080 1_555
Ni3 Tm14 3.426167 1_555
Ni3 Tm12 3.426202 1_555
