# generated using pymatgen
data_NaSi2O5
_symmetry_space_group_name_H-M   'P 1'
_cell_length_a   8.70578425
_cell_length_b   8.70578425
_cell_length_c   8.70578425
_cell_angle_alpha   106.97649844
_cell_angle_beta   106.97649844
_cell_angle_gamma   114.58489998
_symmetry_Int_Tables_number   1
_chemical_formula_structural   NaSi2O5
_chemical_formula_sum   'Na4 Si8 O20'
_cell_volume   504.86550533
_cell_formula_units_Z   4
loop_
 _symmetry_equiv_pos_site_id
 _symmetry_equiv_pos_as_xyz
  1  'x, y, z'
loop_
 _atom_site_type_symbol
 _atom_site_label
 _atom_site_symmetry_multiplicity
 _atom_site_fract_x
 _atom_site_fract_y
 _atom_site_fract_z
 _atom_site_occupancy
  Na  Na0  1  0.52163000  0.26006400  0.54507100  1
  Na  Na1  1  0.71499300  0.97655900  0.45492900  1
  Na  Na2  1  0.73993600  0.28500700  0.26156500  1
  Na  Na3  1  0.02344100  0.47837000  0.73843500  1
  Si  Si0  1  0.09667000  0.16250600  0.31360700  1
  Si  Si1  1  0.84889900  0.78306300  0.68639300  1
  Si  Si2  1  0.83749400  0.15110100  0.93416400  1
  Si  Si3  1  0.21693700  0.90333000  0.06583600  1
  Si  Si4  1  0.39599200  0.60407000  0.50160300  1
  Si  Si5  1  0.10246700  0.89438900  0.49839700  1
  Si  Si6  1  0.39593000  0.89753300  0.79192200  1
  Si  Si7  1  0.10561100  0.60400800  0.20807800  1
  O  O0  1  0.34912600  0.68686300  0.66451500  1
  O  O1  1  0.02234800  0.68461100  0.33548500  1
  O  O2  1  0.31313700  0.97765200  0.66226300  1
  O  O3  1  0.31538900  0.65087400  0.33773700  1
  O  O4  1  0.62289900  0.71935500  0.57169000  1
  O  O5  1  0.14766500  0.05120900  0.42831000  1
  O  O6  1  0.28064500  0.85233500  0.90354400  1
  O  O7  1  0.94879100  0.37710100  0.09645600  1
  O  O8  1  0.80613200  0.55579400  0.60158000  1
  O  O9  1  0.95421400  0.20455200  0.39842000  1
  O  O10  1  0.44420600  0.04578600  0.25033800  1
  O  O11  1  0.79544800  0.19386800  0.74966200  1
  O  O12  1  0.30506300  0.37871200  0.43617900  1
  O  O13  1  0.94253300  0.86888400  0.56382100  1
  O  O14  1  0.62128800  0.05746700  0.92635100  1
  O  O15  1  0.13111600  0.69493700  0.07364900  1
  O  O16  1  0.97194200  0.80040400  0.88577600  1
  O  O17  1  0.91462700  0.08616500  0.11422400  1
  O  O18  1  0.19959600  0.08537300  0.17153800  1
  O  O19  1  0.91383500  0.02805800  0.82846200  1
loop_
_geom_bond_atom_site_label_1
_geom_bond_atom_site_label_2
_geom_bond_distance
_geom_bond_site_symmetry_2
Na0 O10 2.380474 1_555
Na0 O8 2.499575 1_555
Na0 O12 2.582408 1_555
Na0 O5 2.645975 1_555
Na0 O11 2.906905 1_555
Na1 O11 2.380474 1_565
Na1 O9 2.499575 1_565
Na1 O13 2.582408 1_555
Na1 O4 2.645975 1_555
Na1 O10 2.906905 1_565
Na2 O9 2.380477 1_555
Na2 O10 2.499580 1_555
Na2 O14 2.582401 1_554
Na2 O7 2.645968 1_555
Na2 O8 2.906911 1_555
Na3 O8 2.380477 1_455
Na3 O11 2.499571 1_455
Na3 O15 2.582401 1_556
Na3 O6 2.645975 1_555
Na3 O9 2.906911 1_455
O0 Si4 1.638034 1_555
O0 Si6 1.639009 1_555
O1 Si5 1.638034 1_555
O1 Si7 1.639009 1_555
O2 Si6 1.638034 1_555
O2 Si5 1.639009 1_555
O3 Si7 1.638034 1_555
O3 Si4 1.639009 1_555
O4 Si4 1.603330 1_555
O4 Si1 1.672462 1_555
O5 Si5 1.603330 1_545
O5 Si0 1.672462 1_555
O6 Si6 1.603330 1_555
O6 Si3 1.672462 1_556
O7 Si7 1.603330 1_655
O7 Si2 1.672462 1_554
O8 Si1 1.723916 1_555
O9 Si0 1.723916 1_655
O10 Si3 1.723916 1_545
O11 Si2 1.723916 1_555
O12 Si4 1.609987 1_555
O12 Si0 1.681702 1_555
O13 Si5 1.609987 1_655
O13 Si1 1.681702 1_555
O14 Si6 1.609987 1_545
O14 Si2 1.681702 1_555
O15 Si7 1.609987 1_555
O15 Si3 1.681702 1_555
O16 Si1 1.676250 1_555
O16 Si3 1.856451 1_656
O17 Si0 1.676252 1_655
O17 Si2 1.856455 1_554
O18 Si3 1.676257 1_545
O18 Si0 1.856448 1_555
O19 Si2 1.676257 1_555
O19 Si1 1.856448 1_545
