# generated using pymatgen
data_Na2ZnSe2
_symmetry_space_group_name_H-M   'P 1'
_cell_length_a   6.08404811
_cell_length_b   6.60503888
_cell_length_c   7.38047738
_cell_angle_alpha   116.58128459
_cell_angle_beta   114.34133467
_cell_angle_gamma   89.99999555
_symmetry_Int_Tables_number   1
_chemical_formula_structural   Na2ZnSe2
_chemical_formula_sum   'Na4 Zn2 Se4'
_cell_volume   235.38785719
_cell_formula_units_Z   2
loop_
 _symmetry_equiv_pos_site_id
 _symmetry_equiv_pos_as_xyz
  1  'x, y, z'
loop_
 _atom_site_type_symbol
 _atom_site_label
 _atom_site_symmetry_multiplicity
 _atom_site_fract_x
 _atom_site_fract_y
 _atom_site_fract_z
 _atom_site_occupancy
  Na  Na0  1  0.13869023  0.47929635  0.27737945  1
  Na  Na1  1  0.86130977  0.52070365  0.72262055  1
  Na  Na2  1  0.36130977  0.20191790  0.72262055  1
  Na  Na3  1  0.63869023  0.79808210  0.27737945  1
  Zn  Zn0  1  0.25000000  -0.00000000  -0.00000000  1
  Zn  Zn1  1  0.75000000  -0.00000000  -0.00000000  1
  Se  Se0  1  0.61471735  0.32994594  0.22943670  1
  Se  Se1  1  0.38528265  0.67005406  0.77056330  1
  Se  Se2  1  0.88528265  0.10051024  0.77056330  1
  Se  Se3  1  0.11471735  0.89948976  0.22943670  1
loop_
_geom_bond_atom_site_label_1
_geom_bond_atom_site_label_2
_geom_bond_distance
_geom_bond_site_symmetry_2
Na0 Se1 2.912294 1_555
Na0 Se3 2.947136 1_555
Na0 Se2 3.082042 1_454
Na0 Zn0 3.164580 1_555
Na0 Zn1 3.164583 1_455
Na0 Se0 3.165205 1_555
Na0 Se0 3.165223 1_455
Na1 Se0 2.912294 1_555
Na1 Se2 2.947136 1_555
Na1 Se3 3.082042 1_656
Na1 Zn1 3.164580 1_566
Na1 Zn0 3.164583 1_666
Na1 Se1 3.165205 1_555
Na1 Se1 3.165223 1_655
Na2 Se3 2.912295 1_545
Na2 Se1 2.947136 1_555
Na2 Se0 3.082045 1_556
Na2 Zn0 3.164585 1_556
Na2 Zn1 3.164588 1_556
Na2 Se2 3.165205 1_455
Na2 Se2 3.165223 1_555
Na3 Se2 2.912295 1_565
Na3 Se0 2.947136 1_555
Na3 Se1 3.082045 1_554
Na3 Zn1 3.164585 1_565
Na3 Zn0 3.164588 1_565
Na3 Se3 3.165205 1_655
Na3 Se3 3.165223 1_555
Se0 Zn0 2.478010 1_555
Se0 Zn1 2.478018 1_555
Se1 Zn1 2.478010 1_566
Se1 Zn0 2.478018 1_566
Se2 Zn0 2.478014 1_656
Se2 Zn1 2.478022 1_556
Se3 Zn1 2.478014 1_465
Se3 Zn0 2.478022 1_565
