# generated using pymatgen
data_K2P4PtBrO11
_symmetry_space_group_name_H-M   'P 1'
_cell_length_a   11.60327402
_cell_length_b   10.32972996
_cell_length_c   10.19120762
_cell_angle_alpha   68.86131905
_cell_angle_beta   56.13352788
_cell_angle_gamma   55.00515306
_symmetry_Int_Tables_number   1
_chemical_formula_structural   K2P4PtBrO11
_chemical_formula_sum   'K4 P8 Pt2 Br2 O22'
_cell_volume   829.37406098
_cell_formula_units_Z   2
loop_
 _symmetry_equiv_pos_site_id
 _symmetry_equiv_pos_as_xyz
  1  'x, y, z'
loop_
 _atom_site_type_symbol
 _atom_site_label
 _atom_site_symmetry_multiplicity
 _atom_site_fract_x
 _atom_site_fract_y
 _atom_site_fract_z
 _atom_site_occupancy
  K  K0  1  0.20468500  0.29531500  0.29531500  1
  K  K1  1  0.70468500  0.79531500  0.79531500  1
  K  K2  1  0.69213500  0.72194500  0.30786500  1
  K  K3  1  0.27805500  0.30786500  0.72194500  1
  P  P0  1  0.20375300  0.02621400  0.61204000  1
  P  P1  1  0.55510100  0.14061500  0.29506200  1
  P  P2  1  0.85938500  0.44489900  0.99077800  1
  P  P3  1  0.97378600  0.79624700  0.84200700  1
  P  P4  1  0.70493800  0.99077800  0.44489900  1
  P  P5  1  0.38796000  0.84200700  0.79624700  1
  P  P6  1  0.15799300  0.61204000  0.02621400  1
  P  P7  1  0.00922200  0.29506200  0.14061500  1
  Pt  Pt0  1  0.99054000  0.00946000  0.85053600  1
  Pt  Pt1  1  0.14946400  0.85053600  0.00946000  1
  Br  Br0  1  0.75911700  0.24088300  0.83881200  1
  Br  Br1  1  0.16118800  0.83881200  0.24088300  1
  O  O0  1  0.21233700  0.98809300  0.47871000  1
  O  O1  1  0.48825100  0.31568600  0.25863900  1
  O  O2  1  0.18128600  0.18064500  0.62222500  1
  O  O3  1  0.51539300  0.05442700  0.24871500  1
  O  O4  1  0.94557300  0.48460700  0.81853500  1
  O  O5  1  0.81935500  0.81871400  0.98415600  1
  O  O6  1  0.01190700  0.78766300  0.67914100  1
  O  O7  1  0.68431400  0.51174900  0.06257600  1
  O  O8  1  0.74136100  0.06257600  0.51174900  1
  O  O9  1  0.52129000  0.67914100  0.78766300  1
  O  O10  1  0.75128500  0.81853500  0.48460700  1
  O  O11  1  0.37777500  0.98415600  0.81871400  1
  O  O12  1  0.01584400  0.62222500  0.18064500  1
  O  O13  1  0.18146500  0.24871500  0.05442700  1
  O  O14  1  0.93742400  0.25863900  0.31568600  1
  O  O15  1  0.32085900  0.47871000  0.98809300  1
  O  O16  1  0.51534600  0.09804000  0.48465400  1
  O  O17  1  0.90196000  0.48465400  0.09804000  1
  O  O18  1  0.34804500  0.87105200  0.65195500  1
  O  O19  1  0.74545400  0.04047700  0.25454600  1
  O  O20  1  0.95952300  0.25454600  0.04047700  1
  O  O21  1  0.12894800  0.65195500  0.87105200  1
loop_
_geom_bond_atom_site_label_1
_geom_bond_atom_site_label_2
_geom_bond_distance
_geom_bond_site_symmetry_2
K0 O13 2.840649 1_555
K0 O3 2.840649 1_555
K0 O12 3.015101 1_555
K0 O2 3.015101 1_555
K0 O15 3.025899 1_554
K0 O0 3.025902 1_545
K0 O14 3.221301 1_455
K0 O1 3.221301 1_555
K1 O10 2.840649 1_555
K1 O4 2.840649 1_555
K1 O11 3.015101 1_555
K1 O5 3.015101 1_555
K1 O9 3.025893 1_555
K1 O6 3.025904 1_655
K1 O7 3.221301 1_556
K1 O8 3.221301 1_565
K2 O17 2.764299 1_555
K2 O5 2.819233 1_554
K2 O12 2.819233 1_655
K2 O3 2.858391 1_565
K2 O10 2.858391 1_555
K3 O16 2.764299 1_555
K3 O2 2.819233 1_555
K3 O11 2.819233 1_545
K3 O13 2.858391 1_556
K3 O4 2.858391 1_455
P0 Pt0 2.354583 1_455
P3 Pt0 2.354583 1_565
P5 Pt1 2.354583 1_556
P6 Pt1 2.354583 1_555
Pt0 Pt1 2.580187 1_646
Br0 Pt0 2.393382 1_555
Br1 Pt1 2.393382 1_555
O0 P0 1.483710 1_565
O1 P1 1.495881 1_555
O2 P0 1.495248 1_555
O3 P1 1.498118 1_555
O4 P2 1.498118 1_555
O5 P3 1.495248 1_555
O6 P3 1.483700 1_455
O7 P2 1.495881 1_554
O8 P4 1.495881 1_545
O9 P5 1.483704 1_555
O10 P4 1.498118 1_555
O11 P5 1.495248 1_555
O12 P6 1.495248 1_555
O13 P7 1.498118 1_555
O14 P7 1.495881 1_655
O15 P6 1.483703 1_556
O16 P4 1.663112 1_545
O16 P1 1.663112 1_555
O17 P2 1.663112 1_554
O17 P7 1.663112 1_655
O18 P0 1.657823 1_565
O18 P5 1.657823 1_555
O19 P4 1.670320 1_545
O19 P1 1.670320 1_555
O20 P2 1.670320 1_554
O20 P7 1.670320 1_655
O21 P6 1.657823 1_556
O21 P3 1.657823 1_455
