# generated using pymatgen
data_Ce2(CoCu)5
_symmetry_space_group_name_H-M   'P 1'
_cell_length_a   4.10087400
_cell_length_b   4.87938357
_cell_length_c   8.45977383
_cell_angle_alpha   89.99999773
_cell_angle_beta   90.00000000
_cell_angle_gamma   90.00000000
_symmetry_Int_Tables_number   1
_chemical_formula_structural   Ce2(CoCu)5
_chemical_formula_sum   'Ce2 Co5 Cu5'
_cell_volume   169.27785123
_cell_formula_units_Z   1
loop_
 _symmetry_equiv_pos_site_id
 _symmetry_equiv_pos_as_xyz
  1  'x, y, z'
loop_
 _atom_site_type_symbol
 _atom_site_label
 _atom_site_symmetry_multiplicity
 _atom_site_fract_x
 _atom_site_fract_y
 _atom_site_fract_z
 _atom_site_occupancy
  Ce  Ce0  1  0.00000000  0.99999500  0.00000000  1
  Ce  Ce1  1  0.00000000  0.49998000  0.50000000  1
  Co  Co0  1  0.00000000  0.99998600  0.34842100  1
  Co  Co1  1  0.00000000  0.49997800  0.83737000  1
  Co  Co2  1  0.00000000  0.49997800  0.16263000  1
  Co  Co3  1  0.00000000  0.99998600  0.65157900  1
  Co  Co4  1  0.50000000  0.99997800  0.50000000  1
  Cu  Cu0  1  0.50000000  0.49998200  0.00000000  1
  Cu  Cu1  1  0.50000000  0.24978200  0.25177000  1
  Cu  Cu2  1  0.50000000  0.75018600  0.74822800  1
  Cu  Cu3  1  0.50000000  0.75018600  0.25177200  1
  Cu  Cu4  1  0.50000000  0.24978200  0.74823000  1
loop_
_geom_bond_atom_site_label_1
_geom_bond_atom_site_label_2
_geom_bond_distance
_geom_bond_site_symmetry_2
Ce0 Co1 2.800813 1_564
Ce0 Co2 2.800813 1_565
Ce0 Co2 2.800957 1_555
Ce0 Co1 2.800957 1_554
Ce0 Co0 2.947563 1_555
Ce0 Co3 2.947563 1_554
Ce0 Cu0 3.186860 1_465
Ce0 Cu0 3.186860 1_565
Ce0 Cu0 3.186957 1_455
Ce0 Cu0 3.186957 1_555
Ce0 Cu4 3.197863 1_464
Ce0 Cu4 3.197863 1_564
Ce0 Cu1 3.197863 1_565
Ce0 Cu1 3.197863 1_465
Ce0 Cu3 3.197915 1_555
Ce0 Cu3 3.197915 1_455
Ce0 Cu2 3.197915 1_454
Ce0 Cu2 3.197915 1_554
Ce1 Co3 2.756140 1_545
Ce1 Co0 2.756140 1_545
Ce1 Co0 2.756192 1_555
Ce1 Co3 2.756192 1_555
Ce1 Co1 2.854074 1_555
Ce1 Co2 2.854074 1_555
Co0 Co4 2.418398 1_455
Co0 Co4 2.418398 1_555
Co0 Cu1 2.521593 1_565
Co0 Cu1 2.521593 1_465
Co0 Cu3 2.521597 1_555
Co0 Cu3 2.521597 1_455
Co0 Co3 2.564648 1_555
Co0 Co2 2.902120 1_565
Co0 Co2 2.902186 1_555
Co1 Cu0 2.469241 1_456
Co1 Cu0 2.469241 1_556
Co1 Cu4 2.502663 1_455
Co1 Cu4 2.502663 1_555
Co1 Cu2 2.502697 1_555
Co1 Cu2 2.502697 1_455
Co1 Co2 2.751626 1_556
Co1 Co3 2.902121 1_545
Co1 Co3 2.902186 1_555
Co2 Cu0 2.469241 1_555
Co2 Cu0 2.469241 1_455
Co2 Cu1 2.502663 1_455
Co2 Cu1 2.502663 1_555
Co2 Cu3 2.502697 1_555
Co2 Cu3 2.502697 1_455
Co3 Co4 2.418398 1_455
Co3 Co4 2.418398 1_555
Co3 Cu4 2.521593 1_565
Co3 Cu4 2.521593 1_465
Co3 Cu2 2.521597 1_555
Co3 Cu2 2.521597 1_455
Co4 Cu2 2.428034 1_555
Co4 Cu3 2.428034 1_555
Co4 Cu1 2.428078 1_565
Co4 Cu4 2.428078 1_565
Cu0 Cu1 2.454985 1_555
Cu0 Cu4 2.454985 1_554
Cu0 Cu2 2.455010 1_554
Cu0 Cu3 2.455010 1_555
Cu1 Cu3 2.437721 1_545
Cu1 Cu3 2.441663 1_555
Cu2 Cu4 2.437721 1_565
Cu2 Cu4 2.441663 1_555
