# generated using pymatgen
data_DyMnO3
_symmetry_space_group_name_H-M   'P 1'
_cell_length_a   3.40013600
_cell_length_b   6.00860500
_cell_length_c   12.99438000
_cell_angle_alpha   90.00000000
_cell_angle_beta   90.00000000
_cell_angle_gamma   90.00000000
_symmetry_Int_Tables_number   1
_chemical_formula_structural   DyMnO3
_chemical_formula_sum   'Dy4 Mn4 O12'
_cell_volume   265.47614720
_cell_formula_units_Z   4
loop_
 _symmetry_equiv_pos_site_id
 _symmetry_equiv_pos_as_xyz
  1  'x, y, z'
loop_
 _atom_site_type_symbol
 _atom_site_label
 _atom_site_symmetry_multiplicity
 _atom_site_fract_x
 _atom_site_fract_y
 _atom_site_fract_z
 _atom_site_occupancy
  Dy  Dy0  1  0.75517700  0.69163300  0.25000000  1
  Dy  Dy1  1  0.74482300  0.19163300  0.25000000  1
  Dy  Dy2  1  0.24482300  0.30836700  0.75000000  1
  Dy  Dy3  1  0.25517700  0.80836700  0.75000000  1
  Mn  Mn0  1  0.50000000  0.50000000  0.00000000  1
  Mn  Mn1  1  0.00000000  0.00000000  0.50000000  1
  Mn  Mn2  1  0.50000000  0.50000000  0.50000000  1
  Mn  Mn3  1  0.00000000  0.00000000  0.00000000  1
  O  O0  1  0.24498900  0.95049900  0.25000000  1
  O  O1  1  0.25501100  0.45049900  0.25000000  1
  O  O2  1  0.75501100  0.04950100  0.75000000  1
  O  O3  1  0.74498900  0.54950100  0.75000000  1
  O  O4  1  0.75997100  0.74517400  0.07805500  1
  O  O5  1  0.74002900  0.24517400  0.42194500  1
  O  O6  1  0.24002900  0.25482600  0.57805500  1
  O  O7  1  0.25997100  0.75482600  0.92194500  1
  O  O8  1  0.24002900  0.25482600  0.92194500  1
  O  O9  1  0.25997100  0.75482600  0.57805500  1
  O  O10  1  0.75997100  0.74517400  0.42194500  1
  O  O11  1  0.74002900  0.24517400  0.07805500  1
loop_
_geom_bond_atom_site_label_1
_geom_bond_atom_site_label_2
_geom_bond_distance
_geom_bond_site_symmetry_2
Dy0 O1 2.233285 1_655
Dy0 O1 2.234144 1_555
Dy0 O4 2.257419 1_555
Dy0 O10 2.257419 1_555
Dy0 O0 2.278813 1_655
Dy0 O0 2.329926 1_555
Dy1 O0 2.233285 1_545
Dy1 O0 2.234144 1_645
Dy1 O11 2.257419 1_555
Dy1 O5 2.257419 1_555
Dy1 O1 2.278813 1_555
Dy1 O1 2.329926 1_655
Dy2 O3 2.233285 1_455
Dy2 O3 2.234144 1_555
Dy2 O8 2.257419 1_555
Dy2 O6 2.257419 1_555
Dy2 O2 2.278813 1_455
Dy2 O2 2.329926 1_555
Dy3 O2 2.233285 1_565
Dy3 O2 2.234144 1_465
Dy3 O9 2.257419 1_555
Dy3 O7 2.257419 1_555
Dy3 O3 2.278813 1_555
Dy3 O3 2.329926 1_455
Mn0 O8 1.995065 1_554
Mn0 O4 1.995065 1_555
Mn0 O7 2.009787 1_554
Mn0 O11 2.009787 1_555
Mn1 O9 1.995065 1_545
Mn1 O5 1.995065 1_455
Mn1 O10 2.009787 1_445
Mn1 O6 2.009787 1_555
Mn2 O10 1.995065 1_555
Mn2 O6 1.995065 1_555
Mn2 O5 2.009787 1_555
Mn2 O9 2.009787 1_555
Mn3 O7 1.995065 1_544
Mn3 O11 1.995065 1_455
Mn3 O8 2.009787 1_554
Mn3 O4 2.009787 1_445
