# generated using pymatgen
data_Ba2CaFe2CoF14
_symmetry_space_group_name_H-M   'P 1'
_cell_length_a   7.47302068
_cell_length_b   7.47302068
_cell_length_c   15.07457118
_cell_angle_alpha   88.80510106
_cell_angle_beta   88.80510106
_cell_angle_gamma   42.62974234
_symmetry_Int_Tables_number   1
_chemical_formula_structural   Ba2CaFe2CoF14
_chemical_formula_sum   'Ba4 Ca2 Fe4 Co2 F28'
_cell_volume   570.01021314
_cell_formula_units_Z   2
loop_
 _symmetry_equiv_pos_site_id
 _symmetry_equiv_pos_as_xyz
  1  'x, y, z'
loop_
 _atom_site_type_symbol
 _atom_site_label
 _atom_site_symmetry_multiplicity
 _atom_site_fract_x
 _atom_site_fract_y
 _atom_site_fract_z
 _atom_site_occupancy
  Ba  Ba0  1  0.64451800  0.73853500  0.88015700  1
  Ba  Ba1  1  0.35548200  0.26146500  0.11984300  1
  Ba  Ba2  1  0.26146500  0.35548200  0.61984300  1
  Ba  Ba3  1  0.73853500  0.64451800  0.38015700  1
  Ca  Ca0  1  0.94163000  0.05837000  0.75000000  1
  Ca  Ca1  1  0.05837000  0.94163000  0.25000000  1
  Fe  Fe0  1  0.61135600  0.62425500  0.62327600  1
  Fe  Fe1  1  0.38864400  0.37574500  0.37672400  1
  Fe  Fe2  1  0.37574500  0.38864400  0.87672400  1
  Fe  Fe3  1  0.62425500  0.61135600  0.12327600  1
  Co  Co0  1  0.00000000  0.00000000  0.50000000  1
  Co  Co1  1  0.00000000  0.00000000  0.00000000  1
  F  F0  1  0.33948000  0.91140100  0.70294500  1
  F  F1  1  0.66052000  0.08859900  0.29705500  1
  F  F2  1  0.08859900  0.66052000  0.79705500  1
  F  F3  1  0.91140100  0.33948000  0.20294500  1
  F  F4  1  0.39498000  0.76931200  0.51592100  1
  F  F5  1  0.60502000  0.23068800  0.48407900  1
  F  F6  1  0.23068800  0.60502000  0.98407900  1
  F  F7  1  0.76931200  0.39498000  0.01592100  1
  F  F8  1  0.69356600  0.80676500  0.58587500  1
  F  F9  1  0.30643400  0.19323500  0.41412500  1
  F  F10  1  0.19323500  0.30643400  0.91412500  1
  F  F11  1  0.80676500  0.69356600  0.08587500  1
  F  F12  1  0.86221800  0.02583400  0.11879800  1
  F  F13  1  0.13778200  0.97416600  0.88120200  1
  F  F14  1  0.97416600  0.13778200  0.38120200  1
  F  F15  1  0.02583400  0.86221800  0.61879800  1
  F  F16  1  0.57744900  0.40058700  0.65821300  1
  F  F17  1  0.42255100  0.59941300  0.34178700  1
  F  F18  1  0.59941300  0.42255100  0.84178700  1
  F  F19  1  0.40058700  0.57744900  0.15821300  1
  F  F20  1  0.54737800  0.12897700  0.77836700  1
  F  F21  1  0.45262200  0.87102300  0.22163300  1
  F  F22  1  0.87102300  0.45262200  0.72163300  1
  F  F23  1  0.12897700  0.54737800  0.27836700  1
  F  F24  1  0.67092900  0.07929100  0.95201400  1
  F  F25  1  0.32907100  0.92070900  0.04798600  1
  F  F26  1  0.92070900  0.32907100  0.54798600  1
  F  F27  1  0.07929100  0.67092900  0.45201400  1
loop_
_geom_bond_atom_site_label_1
_geom_bond_atom_site_label_2
_geom_bond_distance
_geom_bond_site_symmetry_2
Ba0 F18 2.694530 1_555
Ba0 F13 2.761824 1_555
Ba0 F22 2.804165 1_555
Ba0 F7 2.826123 1_556
Ba0 F10 2.835198 1_655
Ba0 F20 2.852698 1_565
Ba0 F24 2.925812 1_565
Ba0 F10 2.933344 1_565
Ba0 F25 2.997266 1_556
Ba0 F0 3.127035 1_555
Ba0 F2 3.151596 1_655
Ba0 F11 3.273179 1_556
Ba1 F19 2.694530 1_555
Ba1 F12 2.761824 1_555
Ba1 F23 2.804165 1_555
Ba1 F6 2.826123 1_554
Ba1 F11 2.835198 1_455
Ba1 F21 2.852698 1_545
Ba1 F25 2.925812 1_545
Ba1 F11 2.933344 1_545
Ba1 F24 2.997266 1_554
Ba1 F1 3.127035 1_555
Ba1 F3 3.151596 1_455
Ba1 F10 3.273179 1_554
Ba2 F16 2.694530 1_555
Ba2 F15 2.761824 1_555
Ba2 F20 2.804165 1_555
Ba2 F5 2.826123 1_555
Ba2 F8 2.835198 1_545
Ba2 F22 2.852698 1_455
Ba2 F26 2.925812 1_455
Ba2 F8 2.933344 1_455
Ba2 F27 2.997266 1_555
Ba2 F2 3.127035 1_555
Ba2 F0 3.151596 1_545
Ba2 F9 3.273179 1_555
Ba3 F17 2.694530 1_555
Ba3 F14 2.761824 1_555
Ba3 F21 2.804165 1_555
Ba3 F4 2.826123 1_555
Ba3 F9 2.835198 1_565
Ba3 F23 2.852698 1_655
Ba3 F27 2.925812 1_655
Ba3 F9 2.933344 1_655
Ba3 F26 2.997266 1_555
Ba3 F3 3.127035 1_555
Ba3 F1 3.151596 1_565
Ba3 F8 3.273179 1_555
Ca0 F13 2.273353 1_645
Ca0 F15 2.273353 1_645
Ca0 F18 2.372622 1_555
Ca0 F16 2.372622 1_555
Ca0 F0 2.385059 1_645
Ca0 F2 2.385059 1_645
Ca0 F22 2.609787 1_555
Ca0 F20 2.609787 1_555
Ca1 F14 2.273353 1_465
Ca1 F12 2.273353 1_465
Ca1 F17 2.372622 1_555
Ca1 F19 2.372622 1_555
Ca1 F3 2.385059 1_465
Ca1 F1 2.385059 1_465
Ca1 F21 2.609787 1_555
Ca1 F23 2.609787 1_555
Co0 F14 1.987341 1_455
Co0 F15 1.987341 1_545
Co0 F4 2.065578 1_545
Co0 F5 2.065578 1_455
Co0 F26 2.198621 1_455
Co0 F27 2.198621 1_545
Co1 F12 1.987341 1_455
Co1 F13 1.987341 1_544
Co1 F7 2.065578 1_455
Co1 F6 2.065578 1_544
Co1 F25 2.198621 1_545
Co1 F24 2.198621 1_454
F0 Fe0 1.940430 1_555
F1 Fe1 1.940430 1_555
F2 Fe2 1.940430 1_555
F3 Fe3 1.940430 1_555
F4 Fe0 1.966064 1_555
F5 Fe1 1.966064 1_555
F6 Fe2 1.966064 1_555
F7 Fe3 1.966064 1_555
F8 Fe0 1.934428 1_555
F9 Fe1 1.934428 1_555
F10 Fe2 1.934428 1_555
F11 Fe3 1.934428 1_555
F16 Fe0 1.927784 1_555
F17 Fe1 1.927784 1_555
F18 Fe2 1.927784 1_555
F19 Fe3 1.927784 1_555
F20 Fe2 1.996815 1_555
F21 Fe3 1.996815 1_555
F22 Fe0 1.996815 1_555
F23 Fe1 1.996815 1_555
F24 Fe2 1.997385 1_555
F25 Fe3 1.997385 1_555
F26 Fe0 1.997385 1_555
F27 Fe1 1.997385 1_555
