# generated using pymatgen
data_Ge7O23
_symmetry_space_group_name_H-M   'P 1'
_cell_length_a   7.73032800
_cell_length_b   7.73032800
_cell_length_c   7.73032800
_cell_angle_alpha   90.00000000
_cell_angle_beta   90.00000000
_cell_angle_gamma   90.00000000
_symmetry_Int_Tables_number   1
_chemical_formula_structural   Ge7O23
_chemical_formula_sum   'Ge7 O23'
_cell_volume   461.94871635
_cell_formula_units_Z   1
loop_
 _symmetry_equiv_pos_site_id
 _symmetry_equiv_pos_as_xyz
  1  'x, y, z'
loop_
 _atom_site_type_symbol
 _atom_site_label
 _atom_site_symmetry_multiplicity
 _atom_site_fract_x
 _atom_site_fract_y
 _atom_site_fract_z
 _atom_site_occupancy
  Ge  Ge0  1  0.85553900  0.85553900  0.14446100  1
  Ge  Ge1  1  0.85553900  0.14446100  0.85553900  1
  Ge  Ge2  1  0.14446100  0.85553900  0.85553900  1
  Ge  Ge3  1  0.14446100  0.14446100  0.14446100  1
  Ge  Ge4  1  0.00000000  0.00000000  0.50000000  1
  Ge  Ge5  1  0.00000000  0.50000000  0.00000000  1
  Ge  Ge6  1  0.50000000  0.00000000  0.00000000  1
  O  O0  1  0.11502400  0.88497600  0.11502400  1
  O  O1  1  0.88497600  0.88497600  0.88497600  1
  O  O2  1  0.88497600  0.11502400  0.11502400  1
  O  O3  1  0.11502400  0.11502400  0.88497600  1
  O  O4  1  0.86254800  0.86254800  0.38059500  1
  O  O5  1  0.86254800  0.61940500  0.13745200  1
  O  O6  1  0.61940500  0.86254800  0.13745200  1
  O  O7  1  0.86254800  0.13745200  0.61940500  1
  O  O8  1  0.86254800  0.38059500  0.86254800  1
  O  O9  1  0.61940500  0.13745200  0.86254800  1
  O  O10  1  0.13745200  0.86254800  0.61940500  1
  O  O11  1  0.13745200  0.61940500  0.86254800  1
  O  O12  1  0.38059500  0.86254800  0.86254800  1
  O  O13  1  0.13745200  0.13745200  0.38059500  1
  O  O14  1  0.13745200  0.38059500  0.13745200  1
  O  O15  1  0.38059500  0.13745200  0.13745200  1
  O  O16  1  0.50000000  0.00000000  0.50000000  1
  O  O17  1  0.00000000  0.50000000  0.50000000  1
  O  O18  1  0.50000000  0.50000000  0.00000000  1
  O  O19  1  0.33724300  0.66275700  0.33724300  1
  O  O20  1  0.66275700  0.66275700  0.66275700  1
  O  O21  1  0.66275700  0.33724300  0.33724300  1
  O  O22  1  0.33724300  0.33724300  0.66275700  1
loop_
_geom_bond_atom_site_label_1
_geom_bond_atom_site_label_2
_geom_bond_distance
_geom_bond_site_symmetry_2
Ge0 O4 1.827001 1_555
Ge0 O5 1.827001 1_555
Ge0 O6 1.827001 1_555
Ge0 O1 2.031555 1_554
Ge0 O2 2.031555 1_565
Ge0 O0 2.031555 1_655
Ge1 O8 1.827001 1_555
Ge1 O9 1.827001 1_555
Ge1 O7 1.827001 1_555
Ge1 O1 2.031555 1_545
Ge1 O2 2.031555 1_556
Ge1 O3 2.031555 1_655
Ge2 O12 1.827001 1_555
Ge2 O10 1.827001 1_555
Ge2 O11 1.827001 1_555
Ge2 O1 2.031555 1_455
Ge2 O0 2.031555 1_556
Ge2 O3 2.031555 1_565
Ge3 O15 1.827001 1_555
Ge3 O14 1.827001 1_555
Ge3 O13 1.827001 1_555
Ge3 O2 2.031555 1_455
Ge3 O0 2.031555 1_545
Ge3 O3 2.031555 1_554
Ge4 O10 1.763526 1_545
Ge4 O7 1.763526 1_455
Ge4 O13 1.763526 1_555
Ge4 O4 1.763526 1_445
Ge5 O11 1.763526 1_554
Ge5 O5 1.763526 1_455
Ge5 O14 1.763526 1_555
Ge5 O8 1.763526 1_454
Ge6 O9 1.763526 1_554
Ge6 O6 1.763526 1_545
Ge6 O15 1.763526 1_555
Ge6 O12 1.763526 1_544
