# generated using pymatgen
data_Mg3Si4
_symmetry_space_group_name_H-M   'P 1'
_cell_length_a   5.04450300
_cell_length_b   7.35325489
_cell_length_c   7.91655425
_cell_angle_alpha   74.21862641
_cell_angle_beta   71.62100249
_cell_angle_gamma   83.72573839
_symmetry_Int_Tables_number   1
_chemical_formula_structural   Mg3Si4
_chemical_formula_sum   'Mg6 Si8'
_cell_volume   268.08079750
_cell_formula_units_Z   2
loop_
 _symmetry_equiv_pos_site_id
 _symmetry_equiv_pos_as_xyz
  1  'x, y, z'
loop_
 _atom_site_type_symbol
 _atom_site_label
 _atom_site_symmetry_multiplicity
 _atom_site_fract_x
 _atom_site_fract_y
 _atom_site_fract_z
 _atom_site_occupancy
  Mg  Mg0  1  0.70591200  0.97459500  0.58134700  1
  Mg  Mg1  1  0.32773400  0.71457200  0.51471200  1
  Mg  Mg2  1  0.55398300  0.68834000  0.12524400  1
  Mg  Mg3  1  0.78774500  0.27573800  0.07980400  1
  Mg  Mg4  1  0.91176700  0.37899100  0.60359600  1
  Mg  Mg5  1  0.09381700  0.93515000  0.85791100  1
  Si  Si0  1  0.09940500  0.56070800  0.05864700  1
  Si  Si1  1  0.17000600  0.01181200  0.21223300  1
  Si  Si2  1  0.32724700  0.35132700  0.77152200  1
  Si  Si3  1  0.52970400  0.62106100  0.80697700  1
  Si  Si4  1  0.95249100  0.70427600  0.31812600  1
  Si  Si5  1  0.50545200  0.35911300  0.42875300  1
  Si  Si6  1  0.23814100  0.09613600  0.46646700  1
  Si  Si7  1  0.54321500  0.07462800  0.92801400  1
loop_
_geom_bond_atom_site_label_1
_geom_bond_atom_site_label_2
_geom_bond_distance
_geom_bond_site_symmetry_2
Mg0 Si6 2.716019 1_665
Mg0 Si6 2.764800 1_565
Mg0 Si3 2.777915 1_555
Mg0 Si7 2.879608 1_565
Mg0 Si5 2.960389 1_565
Mg0 Si1 3.079867 1_665
Mg0 Si4 3.149374 1_555
Mg1 Si3 2.707809 1_555
Mg1 Si6 2.733331 1_565
Mg1 Si4 2.822054 1_455
Mg1 Si5 2.858187 1_555
Mg1 Si2 2.883097 1_555
Mg1 Si1 3.019743 1_565
Mg1 Si4 3.046185 1_555
Mg2 Si3 2.737493 1_554
Mg2 Si0 2.742055 1_655
Mg2 Si0 2.814087 1_555
Mg2 Si7 2.848952 1_564
Mg2 Si5 2.878973 1_555
Mg2 Si4 2.910510 1_555
Mg2 Si4 2.941057 1_455
Mg2 Si1 2.987724 1_565
Mg3 Si0 2.693294 1_655
Mg3 Si7 2.729925 1_554
Mg3 Si1 2.816743 1_655
Mg3 Si5 2.878312 1_555
Mg3 Si2 3.012666 1_654
Mg4 Si6 2.750950 1_655
Mg4 Si2 2.778159 1_655
Mg4 Si4 2.783001 1_555
Mg4 Si2 2.831098 1_555
Mg4 Si5 2.846563 1_555
Mg4 Si5 2.882128 1_655
Mg4 Si3 2.885741 1_555
Mg4 Si7 3.135819 1_555
Mg5 Si0 2.781815 1_556
Mg5 Si7 2.790946 1_465
Mg5 Si7 2.847860 1_565
Mg5 Si6 2.881800 1_565
Mg5 Si3 3.028042 1_555
Mg5 Si1 3.149736 1_566
Si0 Si3 2.424993 1_554
Si0 Si4 2.435555 1_455
Si1 Si6 2.390609 1_555
Si1 Si7 2.402895 1_554
Si1 Si4 2.439623 1_445
Si2 Si7 2.420127 1_555
Si2 Si3 2.445840 1_555
Si2 Si5 2.561880 1_555
Si5 Si6 2.376726 1_555
