# generated using pymatgen
data_HoZnSi
_symmetry_space_group_name_H-M   'P 1'
_cell_length_a   4.06504880
_cell_length_b   4.06504880
_cell_length_c   4.02446334
_cell_angle_alpha   90.00000000
_cell_angle_beta   90.00000000
_cell_angle_gamma   120.00003020
_symmetry_Int_Tables_number   1
_chemical_formula_structural   HoZnSi
_chemical_formula_sum   'Ho1 Zn1 Si1'
_cell_volume   57.59303978
_cell_formula_units_Z   1
loop_
 _symmetry_equiv_pos_site_id
 _symmetry_equiv_pos_as_xyz
  1  'x, y, z'
loop_
 _atom_site_type_symbol
 _atom_site_label
 _atom_site_symmetry_multiplicity
 _atom_site_fract_x
 _atom_site_fract_y
 _atom_site_fract_z
 _atom_site_occupancy
  Ho  Ho0  1  0.00000000  0.00000000  0.00000000  1
  Zn  Zn0  1  0.66666700  0.33333300  0.50000000  1
  Si  Si0  1  0.33333300  0.66666700  0.50000000  1
loop_
_geom_bond_atom_site_label_1
_geom_bond_atom_site_label_2
_geom_bond_distance
_geom_bond_site_symmetry_2
Ho0 Si0 3.091484 1_545
Ho0 Zn0 3.091484 1_454
Ho0 Zn0 3.091484 1_455
Ho0 Si0 3.091484 1_544
Ho0 Si0 3.091486 1_555
Ho0 Zn0 3.091486 1_444
Ho0 Si0 3.091486 1_554
Ho0 Zn0 3.091486 1_554
Ho0 Si0 3.091486 1_444
Ho0 Si0 3.091486 1_445
Ho0 Zn0 3.091486 1_555
Ho0 Zn0 3.091486 1_445
Si0 Zn0 2.346954 1_455
Si0 Zn0 2.346954 1_565
Si0 Zn0 2.346962 1_555
