# generated using pymatgen
data_Nb4Fe4Si7
_symmetry_space_group_name_H-M   'P 1'
_cell_length_a   9.24821574
_cell_length_b   9.24821574
_cell_length_c   9.24821574
_cell_angle_alpha   94.19738585
_cell_angle_beta   94.19738585
_cell_angle_gamma   148.60701845
_symmetry_Int_Tables_number   1
_chemical_formula_structural   Nb4Fe4Si7
_chemical_formula_sum   'Nb8 Fe8 Si14'
_cell_volume   396.66800034
_cell_formula_units_Z   2
loop_
 _symmetry_equiv_pos_site_id
 _symmetry_equiv_pos_as_xyz
  1  'x, y, z'
loop_
 _atom_site_type_symbol
 _atom_site_label
 _atom_site_symmetry_multiplicity
 _atom_site_fract_x
 _atom_site_fract_y
 _atom_site_fract_z
 _atom_site_occupancy
  Nb  Nb0  1  0.13512300  0.13512300  0.27024500  1
  Nb  Nb1  1  0.86487700  0.86487700  0.72975500  1
  Nb  Nb2  1  0.86487700  0.13512300  0.00000000  1
  Nb  Nb3  1  0.13512300  0.86487700  0.00000000  1
  Nb  Nb4  1  0.50000000  0.69220200  0.19220200  1
  Nb  Nb5  1  0.50000000  0.30779800  0.80779800  1
  Nb  Nb6  1  0.30779800  0.50000000  0.80779800  1
  Nb  Nb7  1  0.69220200  0.50000000  0.19220200  1
  Fe  Fe0  1  0.39947900  0.89947900  0.79895800  1
  Fe  Fe1  1  0.10052100  0.60052100  0.20104200  1
  Fe  Fe2  1  0.10052100  0.89947900  0.50000000  1
  Fe  Fe3  1  0.39947900  0.60052100  0.50000000  1
  Fe  Fe4  1  0.60052100  0.39947900  0.50000000  1
  Fe  Fe5  1  0.89947900  0.10052100  0.50000000  1
  Fe  Fe6  1  0.89947900  0.39947900  0.79895800  1
  Fe  Fe7  1  0.60052100  0.10052100  0.20104200  1
  Si  Si0  1  0.29084900  0.29084900  0.58169900  1
  Si  Si1  1  0.70915100  0.70915100  0.41830100  1
  Si  Si2  1  0.70915100  0.29084900  0.00000000  1
  Si  Si3  1  0.29084900  0.70915100  0.00000000  1
  Si  Si4  1  0.00000000  0.29708600  0.29708600  1
  Si  Si5  1  0.00000000  0.70291400  0.70291400  1
  Si  Si6  1  0.70291400  0.00000000  0.70291400  1
  Si  Si7  1  0.29708600  0.00000000  0.29708600  1
  Si  Si8  1  0.50000000  0.90572000  0.40572000  1
  Si  Si9  1  0.50000000  0.09428000  0.59428000  1
  Si  Si10  1  0.09428000  0.50000000  0.59428000  1
  Si  Si11  1  0.90572000  0.50000000  0.40572000  1
  Si  Si12  1  0.75064100  0.75064100  0.00000000  1
  Si  Si13  1  0.24935900  0.24935900  0.00000000  1
loop_
_geom_bond_atom_site_label_1
_geom_bond_atom_site_label_2
_geom_bond_distance
_geom_bond_site_symmetry_2
Nb0 Si4 2.655829 1_555
Nb0 Si7 2.655829 1_555
Nb0 Si13 2.710395 1_555
Nb0 Si12 2.710397 1_445
Nb0 Si0 2.772979 1_555
Nb0 Si1 2.828032 1_445
Nb0 Si1 2.828032 1_555
Nb1 Si6 2.655829 1_565
Nb1 Si5 2.655829 1_655
Nb1 Si12 2.710395 1_556
Nb1 Si13 2.710397 1_666
Nb1 Si1 2.772979 1_555
Nb1 Si0 2.828032 1_665
Nb1 Si0 2.828032 1_555
Nb2 Si4 2.655829 1_655
Nb2 Si6 2.655829 1_554
Nb2 Si12 2.710404 1_545
Nb2 Si13 2.710404 1_655
Nb2 Si2 2.772961 1_555
Nb2 Si3 2.828032 1_655
Nb2 Si3 2.828032 1_545
Nb3 Si7 2.655829 1_565
Nb3 Si5 2.655829 1_554
Nb3 Si12 2.710404 1_455
Nb3 Si13 2.710404 1_565
Nb3 Si3 2.772961 1_555
Nb3 Si2 2.828032 1_565
Nb3 Si2 2.828032 1_455
Nb4 Si1 2.642091 1_555
Nb4 Si3 2.642098 1_555
Nb4 Si8 2.688451 1_555
Nb4 Si12 2.725756 1_555
Nb4 Si13 2.725756 1_555
Nb4 Si4 2.829163 1_665
Nb4 Si4 2.829163 1_555
Nb5 Si0 2.642091 1_555
Nb5 Si2 2.642098 1_556
Nb5 Si9 2.688451 1_555
Nb5 Si13 2.725756 1_556
Nb5 Si12 2.725756 1_556
Nb5 Si5 2.829163 1_545
Nb5 Si5 2.829163 1_655
Nb6 Si0 2.642091 1_555
Nb6 Si3 2.642098 1_556
Nb6 Si10 2.688451 1_555
Nb6 Si13 2.725756 1_556
Nb6 Si12 2.725756 1_556
Nb6 Si6 2.829163 1_455
Nb6 Si6 2.829163 1_565
Nb7 Si1 2.642091 1_555
Nb7 Si2 2.642098 1_555
Nb7 Si11 2.688451 1_555
Nb7 Si12 2.725756 1_555
Nb7 Si13 2.725756 1_555
Nb7 Si7 2.829163 1_665
Nb7 Si7 2.829163 1_555
Fe0 Si3 2.301743 1_556
Fe0 Si2 2.301743 1_566
Fe0 Si6 2.357985 1_565
Fe0 Si5 2.357985 1_555
Fe0 Si10 2.364418 1_555
Fe0 Si9 2.364418 1_565
Fe1 Si3 2.301743 1_555
Fe1 Si2 2.301743 1_455
Fe1 Si7 2.357985 1_565
Fe1 Si4 2.357985 1_555
Fe1 Si11 2.364418 1_455
Fe1 Si8 2.364418 1_555
Fe2 Si1 2.301745 1_455
Fe2 Si0 2.301745 1_565
Fe2 Si5 2.357985 1_555
Fe2 Si7 2.357985 1_565
Fe2 Si11 2.364418 1_455
Fe2 Si9 2.364418 1_565
Fe3 Si1 2.301747 1_555
Fe3 Si0 2.301747 1_555
Fe3 Si6 2.357985 1_565
Fe3 Si4 2.357985 1_555
Fe3 Si10 2.364418 1_555
Fe3 Si8 2.364418 1_555
Fe4 Si1 2.301747 1_555
Fe4 Si0 2.301747 1_555
Fe4 Si5 2.357985 1_655
Fe4 Si7 2.357985 1_555
Fe4 Si9 2.364418 1_555
Fe4 Si11 2.364418 1_555
Fe5 Si1 2.301745 1_545
Fe5 Si0 2.301745 1_655
Fe5 Si6 2.357985 1_555
Fe5 Si4 2.357985 1_655
Fe5 Si8 2.364418 1_545
Fe5 Si10 2.364418 1_655
Fe6 Si2 2.301743 1_556
Fe6 Si3 2.301743 1_656
Fe6 Si5 2.357985 1_655
Fe6 Si6 2.357985 1_555
Fe6 Si9 2.364418 1_555
Fe6 Si10 2.364418 1_655
Fe7 Si2 2.301743 1_555
Fe7 Si3 2.301743 1_545
Fe7 Si4 2.357985 1_655
Fe7 Si7 2.357985 1_555
Fe7 Si11 2.364418 1_555
Fe7 Si8 2.364418 1_545
Si8 Si9 2.374200 1_565
Si10 Si11 2.374200 1_455
Si12 Si13 2.495611 1_665
Si12 Si13 2.508441 1_555
