# generated using pymatgen
data_TeH18C9S6N3Cl
_symmetry_space_group_name_H-M   'P 1'
_cell_length_a   9.45401600
_cell_length_b   14.61423500
_cell_length_c   15.63395500
_cell_angle_alpha   90.00000000
_cell_angle_beta   90.00000000
_cell_angle_gamma   90.00000000
_symmetry_Int_Tables_number   1
_chemical_formula_structural   TeH18C9S6N3Cl
_chemical_formula_sum   'Te4 H72 C36 S24 N12 Cl4'
_cell_volume   2160.03743152
_cell_formula_units_Z   4
loop_
 _symmetry_equiv_pos_site_id
 _symmetry_equiv_pos_as_xyz
  1  'x, y, z'
loop_
 _atom_site_type_symbol
 _atom_site_label
 _atom_site_symmetry_multiplicity
 _atom_site_fract_x
 _atom_site_fract_y
 _atom_site_fract_z
 _atom_site_occupancy
  Te  Te0  1  0.66575900  0.99705200  0.02834400  1
  Te  Te1  1  0.33424100  0.49705200  0.97165600  1
  Te  Te2  1  0.83424100  0.49705200  0.52834400  1
  Te  Te3  1  0.16575900  0.99705200  0.47165600  1
  H  H0  1  0.98419500  0.66848500  0.19425300  1
  H  H1  1  0.01580500  0.16848500  0.80574700  1
  H  H2  1  0.51580500  0.16848500  0.69425300  1
  H  H3  1  0.48419500  0.66848500  0.30574700  1
  H  H4  1  0.85328800  0.74833300  0.23075400  1
  H  H5  1  0.14671200  0.24833300  0.76924600  1
  H  H6  1  0.64671200  0.24833300  0.73075400  1
  H  H7  1  0.35328800  0.74833300  0.26924600  1
  H  H8  1  0.03339800  0.75763300  0.26612900  1
  H  H9  1  0.96660200  0.25763300  0.73387100  1
  H  H10  1  0.46660200  0.25763300  0.76612900  1
  H  H11  1  0.53339800  0.75763300  0.23387100  1
  H  H12  1  0.13611900  0.76717100  0.03620000  1
  H  H13  1  0.86388100  0.26717100  0.96380000  1
  H  H14  1  0.36388100  0.26717100  0.53620000  1
  H  H15  1  0.63611900  0.76717100  0.46380000  1
  H  H16  1  0.19958100  0.85211600  0.10935700  1
  H  H17  1  0.80041900  0.35211600  0.89064300  1
  H  H18  1  0.30041900  0.35211600  0.60935700  1
  H  H19  1  0.69958100  0.85211600  0.39064300  1
  H  H20  1  0.19197600  0.73495900  0.14063400  1
  H  H21  1  0.80802400  0.23495900  0.85936600  1
  H  H22  1  0.30802400  0.23495900  0.64063400  1
  H  H23  1  0.69197600  0.73495900  0.35936600  1
  H  H24  1  0.05739800  0.11966200  0.00358000  1
  H  H25  1  0.94260200  0.61966200  0.99642000  1
  H  H26  1  0.44260200  0.61966200  0.50358000  1
  H  H27  1  0.55739800  0.11966200  0.49642000  1
  H  H28  1  0.11002600  0.21630200  0.06497500  1
  H  H29  1  0.88997400  0.71630200  0.93502500  1
  H  H30  1  0.38997400  0.71630200  0.56497500  1
  H  H31  1  0.61002600  0.21630200  0.43502500  1
  H  H32  1  0.21569400  0.18214100  0.97577900  1
  H  H33  1  0.78430600  0.68214100  0.02422100  1
  H  H34  1  0.28430600  0.68214100  0.47577900  1
  H  H35  1  0.71569400  0.18214100  0.52422100  1
  H  H36  1  0.22916200  0.03599000  0.20695200  1
  H  H37  1  0.77083800  0.53599000  0.79304800  1
  H  H38  1  0.27083800  0.53599000  0.70695200  1
  H  H39  1  0.72916200  0.03599000  0.29304800  1
  H  H40  1  0.12044900  0.13515200  0.19598600  1
  H  H41  1  0.87955100  0.63515200  0.80401400  1
  H  H42  1  0.37955100  0.63515200  0.69598600  1
  H  H43  1  0.62044900  0.13515200  0.30401400  1
  H  H44  1  0.06522500  0.03037400  0.14839300  1
  H  H45  1  0.93477500  0.53037400  0.85160700  1
  H  H46  1  0.43477500  0.53037400  0.64839300  1
  H  H47  1  0.56522500  0.03037400  0.35160700  1
  H  H48  1  0.77732700  0.93233600  0.68601200  1
  H  H49  1  0.22267300  0.43233600  0.31398800  1
  H  H50  1  0.72267300  0.43233600  0.18601200  1
  H  H51  1  0.27732700  0.93233600  0.81398800  1
  H  H52  1  0.62055100  0.99983100  0.67941600  1
  H  H53  1  0.37944900  0.49983100  0.32058400  1
  H  H54  1  0.87944900  0.49983100  0.17941600  1
  H  H55  1  0.12055100  0.99983100  0.82058400  1
  H  H56  1  0.62568100  0.88895500  0.63139200  1
  H  H57  1  0.37431900  0.38895500  0.36860800  1
  H  H58  1  0.87431900  0.38895500  0.13139200  1
  H  H59  1  0.12568100  0.88895500  0.86860800  1
  H  H60  1  0.51127300  0.78896500  0.68771000  1
  H  H61  1  0.48872700  0.28896500  0.31229000  1
  H  H62  1  0.98872700  0.28896500  0.18771000  1
  H  H63  1  0.01127300  0.78896500  0.81229000  1
  H  H64  1  0.56852600  0.74547200  0.78853700  1
  H  H65  1  0.43147400  0.24547200  0.21146300  1
  H  H66  1  0.93147400  0.24547200  0.28853700  1
  H  H67  1  0.06852600  0.74547200  0.71146300  1
  H  H68  1  0.41475100  0.81537400  0.78300400  1
  H  H69  1  0.58524900  0.31537400  0.21699600  1
  H  H70  1  0.08524900  0.31537400  0.28300400  1
  H  H71  1  0.91475100  0.81537400  0.71699600  1
  C  C0  1  0.96411500  0.74015800  0.21197100  1
  C  C1  1  0.03588500  0.24015800  0.78802900  1
  C  C2  1  0.53588500  0.24015800  0.71197100  1
  C  C3  1  0.46411500  0.74015800  0.28802900  1
  C  C4  1  0.13861700  0.78841100  0.10358700  1
  C  C5  1  0.86138300  0.28841100  0.89641300  1
  C  C6  1  0.36138300  0.28841100  0.60358700  1
  C  C7  1  0.63861700  0.78841100  0.39641300  1
  C  C8  1  0.14956200  0.15746800  0.02827000  1
  C  C9  1  0.85043800  0.65746800  0.97173000  1
  C  C10  1  0.35043800  0.65746800  0.52827000  1
  C  C11  1  0.64956200  0.15746800  0.47173000  1
  C  C12  1  0.15780600  0.07280600  0.16395000  1
  C  C13  1  0.84219400  0.57280600  0.83605000  1
  C  C14  1  0.34219400  0.57280600  0.66395000  1
  C  C15  1  0.65780600  0.07280600  0.33605000  1
  C  C16  1  0.66114100  0.92968500  0.68600400  1
  C  C17  1  0.33885900  0.42968500  0.31399600  1
  C  C18  1  0.83885900  0.42968500  0.18600400  1
  C  C19  1  0.16114100  0.92968500  0.81399600  1
  C  C20  1  0.52066300  0.80445200  0.75584200  1
  C  C21  1  0.47933700  0.30445200  0.24415800  1
  C  C22  1  0.97933700  0.30445200  0.25584200  1
  C  C23  1  0.02066300  0.80445200  0.74415800  1
  C  C24  1  0.90298800  0.85912200  0.10541200  1
  C  C25  1  0.09701200  0.35912200  0.89458800  1
  C  C26  1  0.59701200  0.35912200  0.60541200  1
  C  C27  1  0.40298800  0.85912200  0.39458800  1
  C  C28  1  0.35919900  0.06608300  0.06413700  1
  C  C29  1  0.64080100  0.56608300  0.93586300  1
  C  C30  1  0.14080100  0.56608300  0.56413700  1
  C  C31  1  0.85919900  0.06608300  0.43586300  1
  C  C32  1  0.63423000  0.92345200  0.84150800  1
  C  C33  1  0.36577000  0.42345200  0.15849200  1
  C  C34  1  0.86577000  0.42345200  0.34150800  1
  C  C35  1  0.13423000  0.92345200  0.65849200  1
  S  S0  1  0.73723000  0.87362300  0.15114200  1
  S  S1  1  0.26277000  0.37362300  0.84885800  1
  S  S2  1  0.76277000  0.37362300  0.65114200  1
  S  S3  1  0.23723000  0.87362300  0.34885800  1
  S  S4  1  0.94437800  0.92161200  0.01626300  1
  S  S5  1  0.05562200  0.42161200  0.98373700  1
  S  S6  1  0.55562200  0.42161200  0.51626300  1
  S  S7  1  0.44437800  0.92161200  0.48373700  1
  S  S8  1  0.44558900  0.99044200  0.13196000  1
  S  S9  1  0.55441100  0.49044200  0.86804000  1
  S  S10  1  0.05441100  0.49044200  0.63196000  1
  S  S11  1  0.94558900  0.99044200  0.36804000  1
  S  S12  1  0.44337400  0.09662800  0.97127200  1
  S  S13  1  0.55662600  0.59662800  0.02872800  1
  S  S14  1  0.05662600  0.59662800  0.47127200  1
  S  S15  1  0.94337400  0.09662800  0.52872800  1
  S  S16  1  0.57140800  0.86555800  0.93090800  1
  S  S17  1  0.42859200  0.36555800  0.06909200  1
  S  S18  1  0.92859200  0.36555800  0.43090800  1
  S  S19  1  0.07140800  0.86555800  0.56909200  1
  S  S20  1  0.72639200  0.02369100  0.85164500  1
  S  S21  1  0.27360800  0.52369100  0.14835500  1
  S  S22  1  0.77360800  0.52369100  0.35164500  1
  S  S23  1  0.22639200  0.02369100  0.64835500  1
  N  N0  1  0.99566000  0.79925300  0.13884600  1
  N  N1  1  0.00434000  0.29925300  0.86115400  1
  N  N2  1  0.50434000  0.29925300  0.63884600  1
  N  N3  1  0.49566000  0.79925300  0.36115400  1
  N  N4  1  0.23090400  0.09824800  0.08505900  1
  N  N5  1  0.76909600  0.59824800  0.91494100  1
  N  N6  1  0.26909600  0.59824800  0.58505900  1
  N  N7  1  0.73090400  0.09824800  0.41494100  1
  N  N8  1  0.60773300  0.88695500  0.76439400  1
  N  N9  1  0.39226700  0.38695500  0.23560600  1
  N  N10  1  0.89226700  0.38695500  0.26439400  1
  N  N11  1  0.10773300  0.88695500  0.73560600  1
  Cl  Cl0  1  0.75549500  0.14584700  0.10322100  1
  Cl  Cl1  1  0.24450500  0.64584700  0.89677900  1
  Cl  Cl2  1  0.74450500  0.64584700  0.60322100  1
  Cl  Cl3  1  0.25549500  0.14584700  0.39677900  1
loop_
_geom_bond_atom_site_label_1
_geom_bond_atom_site_label_2
_geom_bond_distance
_geom_bond_site_symmetry_2
C0 H4 1.094672 1_555
C0 H0 1.099960 1_555
C0 H8 1.100526 1_655
C0 N0 1.463480 1_555
C1 H5 1.094672 1_555
C1 H1 1.099960 1_555
C1 H9 1.100526 1_455
C1 N1 1.463480 1_555
C2 H6 1.094672 1_555
C2 H2 1.099960 1_555
C2 H10 1.100526 1_555
C2 N2 1.463480 1_555
C3 H7 1.094672 1_555
C3 H3 1.099960 1_555
C3 H11 1.100526 1_555
C3 N3 1.463480 1_555
C4 H20 1.095514 1_555
C4 H12 1.098556 1_555
C4 H16 1.098673 1_555
C4 N0 1.468186 1_455
C5 H21 1.095514 1_555
C5 H13 1.098556 1_555
C5 H17 1.098673 1_555
C5 N1 1.468186 1_655
C6 H22 1.095514 1_555
C6 H14 1.098556 1_555
C6 H18 1.098673 1_555
C6 N2 1.468186 1_555
C7 H23 1.095514 1_555
C7 H15 1.098556 1_555
C7 H19 1.098673 1_555
C7 N3 1.468186 1_555
C8 H32 1.092868 1_554
C8 H28 1.099220 1_555
C8 H24 1.101571 1_555
C8 N4 1.458986 1_555
C9 H33 1.092868 1_556
C9 H29 1.099220 1_555
C9 H25 1.101571 1_555
C9 N5 1.458986 1_555
C10 H34 1.092868 1_555
C10 H30 1.099220 1_555
C10 H26 1.101571 1_555
C10 N6 1.458986 1_555
C11 H35 1.092868 1_555
C11 H31 1.099220 1_555
C11 H27 1.101571 1_555
C11 N7 1.458986 1_555
C12 H36 1.093868 1_555
C12 H40 1.098069 1_555
C12 H44 1.099898 1_555
C12 N4 1.461864 1_555
C13 H37 1.093868 1_555
C13 H41 1.098069 1_555
C13 H45 1.099898 1_555
C13 N5 1.461864 1_555
C14 H38 1.093868 1_555
C14 H42 1.098069 1_555
C14 H46 1.099898 1_555
C14 N6 1.461864 1_555
C15 H39 1.093868 1_555
C15 H43 1.098069 1_555
C15 H47 1.099898 1_555
C15 N7 1.461864 1_555
C16 H56 1.093467 1_555
C16 H48 1.099107 1_555
C16 H52 1.099434 1_555
C16 N8 1.465218 1_555
C17 H57 1.093467 1_555
C17 H49 1.099107 1_555
C17 H53 1.099434 1_555
C17 N9 1.465218 1_555
C18 H58 1.093467 1_555
C18 H50 1.099107 1_555
C18 H54 1.099434 1_555
C18 N10 1.465218 1_555
C19 H59 1.093467 1_555
C19 H51 1.099107 1_555
C19 H55 1.099434 1_555
C19 N11 1.465218 1_555
C20 H60 1.092565 1_555
C20 H68 1.099270 1_555
C20 H64 1.099538 1_555
C20 N8 1.466024 1_555
C21 H61 1.092565 1_555
C21 H69 1.099270 1_555
C21 H65 1.099538 1_555
C21 N9 1.466024 1_555
C22 H62 1.092565 1_555
C22 H70 1.099270 1_655
C22 H66 1.099538 1_555
C22 N10 1.466024 1_555
C23 H63 1.092565 1_555
C23 H71 1.099270 1_455
C23 H67 1.099538 1_555
C23 N11 1.466024 1_555
C24 N0 1.343998 1_555
C24 S4 1.711629 1_555
C24 S0 1.735450 1_555
C25 N1 1.343998 1_555
C25 S5 1.711629 1_555
C25 S1 1.735450 1_555
C26 N2 1.343998 1_555
C26 S6 1.711629 1_555
C26 S2 1.735450 1_555
C27 N3 1.343998 1_555
C27 S7 1.711629 1_555
C27 S3 1.735450 1_555
C28 N4 1.341300 1_555
C28 S12 1.714763 1_554
C28 S8 1.735904 1_545
C29 N5 1.341300 1_555
C29 S13 1.714763 1_556
C29 S9 1.735904 1_555
C30 N6 1.341300 1_555
C30 S14 1.714763 1_555
C30 S10 1.735904 1_555
C31 N7 1.341300 1_555
C31 S15 1.714763 1_555
C31 S11 1.735904 1_545
C32 N8 1.341904 1_555
C32 S20 1.711801 1_565
C32 S16 1.738414 1_555
C33 N9 1.341904 1_555
C33 S21 1.711801 1_555
C33 S17 1.738414 1_555
C34 N10 1.341904 1_555
C34 S22 1.711801 1_555
C34 S18 1.738414 1_555
C35 N11 1.341904 1_555
C35 S23 1.711801 1_565
C35 S19 1.738414 1_555
S0 Te0 2.719563 1_555
S1 Te1 2.719563 1_555
S2 Te2 2.719563 1_555
S3 Te3 2.719563 1_555
S4 Te0 2.861729 1_555
S5 Te1 2.861729 1_555
S6 Te2 2.861729 1_555
S7 Te3 2.861729 1_555
S8 Te0 2.639337 1_555
S9 Te1 2.639337 1_555
S10 Te2 2.639337 1_455
S11 Te3 2.639337 1_655
S12 Te0 2.708142 1_546
S13 Te1 2.708142 1_554
S14 Te2 2.708142 1_455
S15 Te3 2.708142 1_645
S16 Te0 2.609406 1_556
S17 Te1 2.609406 1_554
S18 Te2 2.609406 1_555
S19 Te3 2.609406 1_555
S20 Te0 2.848083 1_546
S21 Te1 2.848083 1_554
S22 Te2 2.848083 1_555
S23 Te3 2.848083 1_545
Cl0 Te0 2.611253 1_545
Cl1 Te1 2.611253 1_555
Cl2 Te2 2.611253 1_555
Cl3 Te3 2.611253 1_545
