# generated using pymatgen
data_Ca2WN2
_symmetry_space_group_name_H-M   'P 1'
_cell_length_a   5.32221500
_cell_length_b   6.25091700
_cell_length_c   6.58862429
_cell_angle_alpha   89.42309695
_cell_angle_beta   110.97406247
_cell_angle_gamma   115.06167088
_symmetry_Int_Tables_number   1
_chemical_formula_structural   Ca2WN2
_chemical_formula_sum   'Ca4 W2 N4'
_cell_volume   182.78765557
_cell_formula_units_Z   2
loop_
 _symmetry_equiv_pos_site_id
 _symmetry_equiv_pos_as_xyz
  1  'x, y, z'
loop_
 _atom_site_type_symbol
 _atom_site_label
 _atom_site_symmetry_multiplicity
 _atom_site_fract_x
 _atom_site_fract_y
 _atom_site_fract_z
 _atom_site_occupancy
  Ca  Ca0  1  0.08043900  0.41947700  0.77892500  1
  Ca  Ca1  1  0.91956100  0.58052300  0.22107500  1
  Ca  Ca2  1  0.29631200  0.21361700  0.33454000  1
  Ca  Ca3  1  0.70368800  0.78638300  0.66546000  1
  W  W0  1  0.40953600  0.06681400  0.81041800  1
  W  W1  1  0.59046400  0.93318600  0.18958200  1
  N  N0  1  0.58410500  0.38964600  0.77219000  1
  N  N1  1  0.41589500  0.61035400  0.22781000  1
  N  N2  1  0.17844800  0.79188300  0.60328200  1
  N  N3  1  0.82155200  0.20811700  0.39671800  1
loop_
_geom_bond_atom_site_label_1
_geom_bond_atom_site_label_2
_geom_bond_distance
_geom_bond_site_symmetry_2
Ca0 N3 2.454847 1_455
Ca0 N2 2.525768 1_555
Ca0 N0 2.552198 1_455
Ca0 N0 2.780513 1_555
Ca0 N1 2.800791 1_556
Ca1 N2 2.454847 1_655
Ca1 N3 2.525768 1_555
Ca1 N1 2.552198 1_655
Ca1 N1 2.780513 1_555
Ca1 N0 2.800791 1_554
Ca2 N1 2.449065 1_555
Ca2 N3 2.687148 1_455
Ca2 N3 2.691616 1_555
Ca2 N0 2.710293 1_555
Ca3 N0 2.449065 1_555
Ca3 N2 2.687148 1_655
Ca3 N2 2.691616 1_555
Ca3 N1 2.710293 1_555
N0 W0 1.888877 1_555
N1 W1 1.888877 1_555
N2 W0 1.839455 1_565
N3 W1 1.839455 1_545
