# generated using pymatgen
data_LiMg2
_symmetry_space_group_name_H-M   'P 1'
_cell_length_a   5.40758100
_cell_length_b   5.40758100
_cell_length_c   5.98507491
_cell_angle_alpha   62.24603800
_cell_angle_beta   62.24603800
_cell_angle_gamma   59.92145140
_symmetry_Int_Tables_number   1
_chemical_formula_structural   LiMg2
_chemical_formula_sum   'Li2 Mg4'
_cell_volume   127.70982508
_cell_formula_units_Z   2
loop_
 _symmetry_equiv_pos_site_id
 _symmetry_equiv_pos_as_xyz
  1  'x, y, z'
loop_
 _atom_site_type_symbol
 _atom_site_label
 _atom_site_symmetry_multiplicity
 _atom_site_fract_x
 _atom_site_fract_y
 _atom_site_fract_z
 _atom_site_occupancy
  Li  Li0  1  0.08760179  0.91239821  0.25000000  1
  Li  Li1  1  0.91239821  0.08760179  0.75000000  1
  Mg  Mg0  1  0.24403730  0.41854861  0.75027141  1
  Mg  Mg1  1  0.58145139  0.75596270  0.74972859  1
  Mg  Mg2  1  0.41854861  0.24403730  0.25027141  1
  Mg  Mg3  1  0.75596270  0.58145139  0.24972859  1
loop_
_geom_bond_atom_site_label_1
_geom_bond_atom_site_label_2
_geom_bond_distance
_geom_bond_site_symmetry_2
Li0 Mg0 3.075678 1_555
Li0 Mg1 3.075678 1_554
Li0 Mg0 3.081029 1_564
Li0 Mg1 3.081029 1_455
Li0 Mg2 3.105059 1_565
Li0 Mg3 3.105059 1_455
Li0 Mg3 3.127157 1_555
Li0 Mg2 3.127157 1_555
Li0 Mg2 3.130385 1_465
Li0 Mg3 3.130385 1_465
Li0 Li1 3.138593 1_465
Li0 Li1 3.138593 1_464
Li1 Mg2 3.075678 1_556
Li1 Mg3 3.075678 1_555
Li1 Mg2 3.081029 1_655
Li1 Mg3 3.081029 1_546
Li1 Mg0 3.105059 1_655
Li1 Mg1 3.105059 1_545
Li1 Mg1 3.127157 1_555
Li1 Mg0 3.127157 1_555
Li1 Mg0 3.130385 1_645
Li1 Mg1 3.130385 1_645
Mg0 Mg3 3.074371 1_456
Mg0 Mg1 3.101493 1_455
Mg0 Mg1 3.101493 1_545
Mg0 Mg3 3.110753 1_555
Mg0 Mg2 3.137468 1_555
Mg0 Mg2 3.137468 1_556
Mg0 Mg1 3.159794 1_555
Mg1 Mg2 3.074371 1_565
Mg1 Mg2 3.110753 1_556
Mg1 Mg3 3.137468 1_556
Mg1 Mg3 3.137468 1_555
Mg2 Mg3 3.101493 1_545
Mg2 Mg3 3.101493 1_455
Mg2 Mg3 3.159794 1_555
