# generated using pymatgen
data_Si3B3W10
_symmetry_space_group_name_H-M   'P 1'
_cell_length_a   7.11198791
_cell_length_b   7.06084790
_cell_length_c   6.19023943
_cell_angle_alpha   64.52874202
_cell_angle_beta   63.67711411
_cell_angle_gamma   51.79414387
_symmetry_Int_Tables_number   1
_chemical_formula_structural   Si3B3W10
_chemical_formula_sum   'Si3 B3 W10'
_cell_volume   213.51432275
_cell_formula_units_Z   1
loop_
 _symmetry_equiv_pos_site_id
 _symmetry_equiv_pos_as_xyz
  1  'x, y, z'
loop_
 _atom_site_type_symbol
 _atom_site_label
 _atom_site_symmetry_multiplicity
 _atom_site_fract_x
 _atom_site_fract_y
 _atom_site_fract_z
 _atom_site_occupancy
  Si  Si0  1  0.63001800  0.36998200  0.63001800  1
  Si  Si1  1  0.24588500  0.25411500  0.24588500  1
  Si  Si2  1  0.74588500  0.75411500  0.74588500  1
  B  B0  1  0.87696900  0.12303100  0.12680000  1
  B  B1  1  0.12680000  0.87320000  0.87696900  1
  B  B2  1  0.36808200  0.63191800  0.36808200  1
  W  W0  1  0.52297100  0.19181700  0.46539500  1
  W  W1  1  0.18018300  0.53460500  0.80818300  1
  W  W2  1  0.01786500  0.69952800  0.30047200  1
  W  W3  1  0.70792400  0.00147100  0.99852900  1
  W  W4  1  0.46539500  0.81981700  0.52297100  1
  W  W5  1  0.80818300  0.47702900  0.18018300  1
  W  W6  1  0.99852900  0.29207600  0.70792400  1
  W  W7  1  0.30047200  0.98213500  0.01786500  1
  W  W8  1  0.49505200  0.50494800  0.00978700  1
  W  W9  1  0.00978700  0.99021300  0.49505200  1
loop_
_geom_bond_atom_site_label_1
_geom_bond_atom_site_label_2
_geom_bond_distance
_geom_bond_site_symmetry_2
Si0 W8 2.479972 1_556
Si0 W9 2.479972 1_645
Si0 W0 2.485159 1_555
Si0 W4 2.485159 1_555
Si0 W5 2.485159 1_555
Si0 W1 2.485159 1_555
Si0 W6 2.552139 1_555
Si0 W3 2.552139 1_555
Si1 W0 2.590692 1_555
Si1 W4 2.590692 1_545
Si1 W2 2.598903 1_555
Si1 W7 2.598903 1_545
Si1 W1 2.616217 1_554
Si1 W5 2.616217 1_455
Si1 W6 2.638337 1_455
Si1 W3 2.638337 1_554
Si1 W8 2.787835 1_555
Si1 W9 2.787835 1_545
Si2 W1 2.590692 1_655
Si2 W5 2.590692 1_556
Si2 W7 2.598903 1_556
Si2 W2 2.598903 1_655
Si2 W0 2.616217 1_565
Si2 W4 2.616217 1_555
Si2 W3 2.638337 1_565
Si2 W6 2.638337 1_555
Si2 W9 2.787835 1_655
Si2 W8 2.787835 1_556
B0 B1 2.166318 1_644
B0 W3 2.349858 1_554
B0 W6 2.349858 1_554
B0 W7 2.363371 1_645
B0 W2 2.363371 1_645
B0 W0 2.377113 1_555
B0 W5 2.377113 1_555
B0 W9 2.437889 1_645
B0 W8 2.485697 1_555
B1 W6 2.349858 1_465
B1 W3 2.349858 1_465
B1 W7 2.363371 1_556
B1 W2 2.363371 1_556
B1 W4 2.377113 1_555
B1 W1 2.377113 1_555
B1 W8 2.437889 1_556
B1 W9 2.485697 1_555
B2 Si0 2.314657 1_555
B2 W8 2.339024 1_555
B2 W9 2.339024 1_555
B2 W2 2.426657 1_555
B2 W7 2.426657 1_555
B2 W0 2.444773 1_555
B2 W1 2.444773 1_555
B2 W5 2.444773 1_555
B2 W4 2.444773 1_555
