# generated using pymatgen
data_ScAgGe
_symmetry_space_group_name_H-M   'P 1'
_cell_length_a   6.88397233
_cell_length_b   6.88397233
_cell_length_c   4.03863109
_cell_angle_alpha   90.00000000
_cell_angle_beta   90.00000000
_cell_angle_gamma   119.99999316
_symmetry_Int_Tables_number   1
_chemical_formula_structural   ScAgGe
_chemical_formula_sum   'Sc3 Ag3 Ge3'
_cell_volume   165.74600819
_cell_formula_units_Z   3
loop_
 _symmetry_equiv_pos_site_id
 _symmetry_equiv_pos_as_xyz
  1  'x, y, z'
loop_
 _atom_site_type_symbol
 _atom_site_label
 _atom_site_symmetry_multiplicity
 _atom_site_fract_x
 _atom_site_fract_y
 _atom_site_fract_z
 _atom_site_occupancy
  Sc  Sc0  1  0.41737324  0.41737324  0.00000000  1
  Sc  Sc1  1  0.58262676  0.00000000  0.00000000  1
  Sc  Sc2  1  0.00000000  0.58262676  -0.00000000  1
  Ag  Ag0  1  0.74656247  0.74656247  0.50000000  1
  Ag  Ag1  1  0.25343753  0.00000000  0.50000000  1
  Ag  Ag2  1  0.00000000  0.25343753  0.50000000  1
  Ge  Ge0  1  0.66666700  0.33333300  0.50000000  1
  Ge  Ge1  1  0.33333300  0.66666700  0.50000000  1
  Ge  Ge2  1  -0.00000000  0.00000000  -0.00000000  1
loop_
_geom_bond_atom_site_label_1
_geom_bond_atom_site_label_2
_geom_bond_distance
_geom_bond_site_symmetry_2
Ag0 Ge0 2.613433 1_555
Ag0 Ge1 2.613433 1_555
Ag0 Ge2 2.668607 1_665
Ag0 Ge2 2.668607 1_666
Ag0 Ag1 3.021835 1_665
Ag0 Ag2 3.021835 1_665
Ag0 Sc0 3.035289 1_556
Ag0 Sc0 3.035289 1_555
Ag0 Sc2 3.219307 1_655
Ag0 Sc1 3.219307 1_565
Ag0 Sc2 3.219307 1_656
Ag0 Sc1 3.219307 1_566
Ag1 Ge1 2.613426 1_545
Ag1 Ge0 2.613431 1_555
Ag1 Ge2 2.668607 1_555
Ag1 Ge2 2.668607 1_556
Ag1 Ag2 3.021834 1_555
Ag1 Sc1 3.035289 1_555
Ag1 Sc1 3.035289 1_556
Ag1 Sc0 3.219307 1_556
Ag1 Sc0 3.219307 1_555
Ag1 Sc2 3.219307 1_546
Ag1 Sc2 3.219307 1_545
Ag2 Ge0 2.613426 1_455
Ag2 Ge1 2.613431 1_555
Ag2 Ge2 2.668607 1_555
Ag2 Ge2 2.668607 1_556
Ag2 Sc2 3.035289 1_556
Ag2 Sc2 3.035289 1_555
Ag2 Sc0 3.219307 1_555
Ag2 Sc0 3.219307 1_556
Ag2 Sc1 3.219307 1_456
Ag2 Sc1 3.219307 1_455
Ge0 Sc1 2.889679 1_555
Ge0 Sc1 2.889679 1_556
Ge0 Sc2 2.889681 1_655
Ge0 Sc2 2.889681 1_656
Ge0 Sc0 2.889684 1_555
Ge0 Sc0 2.889684 1_556
Ge1 Sc2 2.889679 1_556
Ge1 Sc2 2.889679 1_555
Ge1 Sc1 2.889681 1_566
Ge1 Sc1 2.889681 1_565
Ge1 Sc0 2.889684 1_555
Ge1 Sc0 2.889684 1_556
Ge2 Sc1 2.873186 1_455
Ge2 Sc2 2.873186 1_545
Ge2 Sc0 2.873186 1_555
