# generated using pymatgen
data_NdSbSe
_symmetry_space_group_name_H-M   'P 1'
_cell_length_a   4.21639574
_cell_length_b   4.22560286
_cell_length_c   18.33838904
_cell_angle_alpha   90.00000000
_cell_angle_beta   90.00000000
_cell_angle_gamma   90.00000000
_symmetry_Int_Tables_number   1
_chemical_formula_structural   NdSbSe
_chemical_formula_sum   'Nd4 Sb4 Se4'
_cell_volume   326.73166471
_cell_formula_units_Z   4
loop_
 _symmetry_equiv_pos_site_id
 _symmetry_equiv_pos_as_xyz
  1  'x, y, z'
loop_
 _atom_site_type_symbol
 _atom_site_label
 _atom_site_symmetry_multiplicity
 _atom_site_fract_x
 _atom_site_fract_y
 _atom_site_fract_z
 _atom_site_occupancy
  Nd  Nd0  1  0.75000000  0.23441948  0.85206102  1
  Nd  Nd1  1  0.75000000  0.26558052  0.35206102  1
  Nd  Nd2  1  0.25000000  0.76558052  0.14793898  1
  Nd  Nd3  1  0.25000000  0.73441948  0.64793898  1
  Sb  Sb0  1  0.25000000  0.23383814  0.50067160  1
  Sb  Sb1  1  0.25000000  0.26616186  0.00067160  1
  Sb  Sb2  1  0.75000000  0.76616186  0.49932840  1
  Sb  Sb3  1  0.75000000  0.73383814  0.99932840  1
  Se  Se0  1  0.75000000  0.23601904  0.68660183  1
  Se  Se1  1  0.75000000  0.26398096  0.18660183  1
  Se  Se2  1  0.25000000  0.76398096  0.31339817  1
  Se  Se3  1  0.25000000  0.73601904  0.81339817  1
loop_
_geom_bond_atom_site_label_1
_geom_bond_atom_site_label_2
_geom_bond_distance
_geom_bond_site_symmetry_2
Nd0 Se0 3.034263 1_555
Nd0 Se3 3.063105 1_645
Nd0 Se3 3.063105 1_545
Nd0 Se3 3.072415 1_555
Nd0 Se3 3.072415 1_655
Nd0 Sb3 3.427397 1_555
Nd0 Sb3 3.430424 1_545
Nd0 Sb1 3.448135 1_556
Nd0 Sb1 3.448135 1_656
Nd1 Se1 3.034263 1_555
Nd1 Se2 3.063105 1_555
Nd1 Se2 3.063105 1_655
Nd1 Se2 3.072415 1_645
Nd1 Se2 3.072415 1_545
Nd1 Sb2 3.427397 1_545
Nd1 Sb2 3.430424 1_555
Nd1 Sb0 3.448135 1_655
Nd1 Sb0 3.448135 1_555
Nd2 Se2 3.034263 1_555
Nd2 Se1 3.063105 1_465
Nd2 Se1 3.063105 1_565
Nd2 Se1 3.072415 1_555
Nd2 Se1 3.072415 1_455
Nd2 Sb1 3.427397 1_555
Nd2 Sb1 3.430424 1_565
Nd2 Sb3 3.448135 1_454
Nd2 Sb3 3.448135 1_554
Nd3 Se3 3.034263 1_555
Nd3 Se0 3.063105 1_455
Nd3 Se0 3.063105 1_555
Nd3 Se0 3.072415 1_465
Nd3 Se0 3.072415 1_565
Nd3 Sb0 3.427397 1_565
Nd3 Sb0 3.430424 1_555
Nd3 Sb2 3.448135 1_455
Nd3 Sb2 3.448135 1_555
Sb0 Sb2 2.889728 1_545
Sb0 Sb2 2.889728 1_445
Sb0 Sb2 3.082994 1_455
Sb0 Sb2 3.082994 1_555
Sb1 Sb3 2.889728 1_454
Sb1 Sb3 2.889728 1_554
Sb1 Sb3 3.082994 1_444
Sb1 Sb3 3.082994 1_544
