# generated using pymatgen
data_Ca3(IrN2)2
_symmetry_space_group_name_H-M   'P 1'
_cell_length_a   6.05480100
_cell_length_b   9.38029700
_cell_length_c   9.47002600
_cell_angle_alpha   90.00000000
_cell_angle_beta   90.00000000
_cell_angle_gamma   90.00000000
_symmetry_Int_Tables_number   1
_chemical_formula_structural   Ca3(IrN2)2
_chemical_formula_sum   'Ca12 Ir8 N16'
_cell_volume   537.85800247
_cell_formula_units_Z   4
loop_
 _symmetry_equiv_pos_site_id
 _symmetry_equiv_pos_as_xyz
  1  'x, y, z'
loop_
 _atom_site_type_symbol
 _atom_site_label
 _atom_site_symmetry_multiplicity
 _atom_site_fract_x
 _atom_site_fract_y
 _atom_site_fract_z
 _atom_site_occupancy
  Ca  Ca0  1  0.62742800  0.16261500  0.43182700  1
  Ca  Ca1  1  0.87257200  0.83738500  0.43182700  1
  Ca  Ca2  1  0.62742800  0.33738500  0.06817300  1
  Ca  Ca3  1  0.87257200  0.66261500  0.06817300  1
  Ca  Ca4  1  0.37257200  0.83738500  0.56817300  1
  Ca  Ca5  1  0.12742800  0.16261500  0.56817300  1
  Ca  Ca6  1  0.37257200  0.66261500  0.93182700  1
  Ca  Ca7  1  0.12742800  0.33738500  0.93182700  1
  Ca  Ca8  1  0.75000000  0.50000000  0.38765200  1
  Ca  Ca9  1  0.75000000  0.00000000  0.11234800  1
  Ca  Ca10  1  0.25000000  0.50000000  0.61234800  1
  Ca  Ca11  1  0.25000000  0.00000000  0.88765200  1
  Ir  Ir0  1  0.75000000  0.50000000  0.70893300  1
  Ir  Ir1  1  0.75000000  0.00000000  0.79106700  1
  Ir  Ir2  1  0.25000000  0.50000000  0.29106700  1
  Ir  Ir3  1  0.25000000  0.00000000  0.20893300  1
  Ir  Ir4  1  0.56243900  0.25000000  0.75000000  1
  Ir  Ir5  1  0.93756100  0.75000000  0.75000000  1
  Ir  Ir6  1  0.43756100  0.75000000  0.25000000  1
  Ir  Ir7  1  0.06243900  0.25000000  0.25000000  1
  N  N0  1  0.90100700  0.36184900  0.59828300  1
  N  N1  1  0.59899300  0.63815100  0.59828300  1
  N  N2  1  0.90100700  0.13815100  0.90171700  1
  N  N3  1  0.59899300  0.86184900  0.90171700  1
  N  N4  1  0.09899300  0.63815100  0.40171700  1
  N  N5  1  0.40100700  0.36184900  0.40171700  1
  N  N6  1  0.09899300  0.86184900  0.09828300  1
  N  N7  1  0.40100700  0.13815100  0.09828300  1
  N  N8  1  0.49090600  0.43255300  0.84123700  1
  N  N9  1  0.00909400  0.56744700  0.84123700  1
  N  N10  1  0.49090600  0.06744700  0.65876300  1
  N  N11  1  0.00909400  0.93255300  0.65876300  1
  N  N12  1  0.50909400  0.56744700  0.15876300  1
  N  N13  1  0.99090600  0.43255300  0.15876300  1
  N  N14  1  0.50909400  0.93255300  0.34123700  1
  N  N15  1  0.99090600  0.06744700  0.34123700  1
loop_
_geom_bond_atom_site_label_1
_geom_bond_atom_site_label_2
_geom_bond_distance
_geom_bond_site_symmetry_2
Ca0 N5 2.335264 1_555
Ca0 N14 2.430331 1_545
Ca0 N10 2.469574 1_555
Ca0 N15 2.525145 1_555
Ca0 N0 2.953206 1_555
Ca1 N4 2.335264 1_655
Ca1 N15 2.430331 1_565
Ca1 N11 2.469574 1_655
Ca1 N14 2.525145 1_555
Ca1 N1 2.953206 1_555
Ca2 N7 2.335264 1_555
Ca2 N12 2.430331 1_555
Ca2 N8 2.469574 1_554
Ca2 N13 2.525145 1_555
Ca2 N2 2.953206 1_554
Ca3 N6 2.335264 1_655
Ca3 N13 2.430331 1_555
Ca3 N9 2.469574 1_654
Ca3 N12 2.525145 1_555
Ca3 N3 2.953206 1_554
Ca4 N1 2.335264 1_555
Ca4 N10 2.430331 1_565
Ca4 N14 2.469574 1_555
Ca4 N11 2.525145 1_555
Ca4 N4 2.953206 1_555
Ca5 N0 2.335264 1_455
Ca5 N11 2.430331 1_545
Ca5 N15 2.469574 1_455
Ca5 N10 2.525145 1_555
Ca5 N5 2.953206 1_555
Ca6 N3 2.335264 1_555
Ca6 N8 2.430331 1_555
Ca6 N12 2.469574 1_556
Ca6 N9 2.525145 1_555
Ca6 N6 2.953206 1_556
Ca7 N2 2.335264 1_455
Ca7 N9 2.430331 1_555
Ca7 N13 2.469574 1_456
Ca7 N8 2.525145 1_555
Ca7 N7 2.953206 1_556
Ca8 N5 2.482380 1_555
Ca8 N4 2.482380 1_655
Ca8 N0 2.548348 1_555
Ca8 N1 2.548348 1_555
Ca8 N13 2.688182 1_555
Ca8 N12 2.688182 1_555
Ca9 N7 2.482380 1_555
Ca9 N6 2.482380 1_645
Ca9 N2 2.548348 1_554
Ca9 N3 2.548348 1_544
Ca9 N15 2.688182 1_555
Ca9 N14 2.688182 1_545
Ca10 N1 2.482380 1_555
Ca10 N0 2.482380 1_455
Ca10 N4 2.548348 1_555
Ca10 N5 2.548348 1_555
Ca10 N8 2.688182 1_555
Ca10 N9 2.688182 1_555
Ca11 N3 2.482380 1_545
Ca11 N2 2.482380 1_455
Ca11 N7 2.548348 1_556
Ca11 N6 2.548348 1_546
Ca11 N11 2.688182 1_545
Ca11 N10 2.688182 1_555
Ir0 N0 1.900877 1_555
Ir0 N1 1.900877 1_555
Ir0 N9 2.105019 1_655
Ir0 N8 2.105019 1_555
Ir1 N2 1.900877 1_555
Ir1 N3 1.900877 1_545
Ir1 N10 2.105019 1_555
Ir1 N11 2.105019 1_645
Ir2 N4 1.900877 1_555
Ir2 N5 1.900877 1_555
Ir2 N13 2.105019 1_455
Ir2 N12 2.105019 1_555
Ir3 N7 1.900877 1_555
Ir3 N6 1.900877 1_545
Ir3 N14 2.105019 1_545
Ir3 N15 2.105019 1_455
Ir4 N8 1.966325 1_555
Ir4 N10 1.966325 1_555
Ir4 N2 2.714297 1_555
Ir4 N0 2.714297 1_555
Ir5 N9 1.966325 1_655
Ir5 N11 1.966325 1_655
Ir5 N3 2.714297 1_555
Ir5 N1 2.714297 1_555
Ir6 N14 1.966325 1_555
Ir6 N12 1.966325 1_555
Ir6 N4 2.714297 1_555
Ir6 N6 2.714297 1_555
Ir7 N13 1.966325 1_455
Ir7 N15 1.966325 1_455
Ir7 N7 2.714297 1_555
Ir7 N5 2.714297 1_555
