# generated using pymatgen
data_Tl2Fe2(SO4)3
_symmetry_space_group_name_H-M   'P 1'
_cell_length_a   10.25802500
_cell_length_b   10.25802500
_cell_length_c   10.25802500
_cell_angle_alpha   90.00000000
_cell_angle_beta   90.00000000
_cell_angle_gamma   90.00000000
_symmetry_Int_Tables_number   1
_chemical_formula_structural   Tl2Fe2(SO4)3
_chemical_formula_sum   'Tl8 Fe8 S12 O48'
_cell_volume   1079.42198552
_cell_formula_units_Z   4
loop_
 _symmetry_equiv_pos_site_id
 _symmetry_equiv_pos_as_xyz
  1  'x, y, z'
loop_
 _atom_site_type_symbol
 _atom_site_label
 _atom_site_symmetry_multiplicity
 _atom_site_fract_x
 _atom_site_fract_y
 _atom_site_fract_z
 _atom_site_occupancy
  Tl  Tl0  1  0.04823700  0.04823700  0.04823700  1
  Tl  Tl1  1  0.45176300  0.95176300  0.54823700  1
  Tl  Tl2  1  0.95176300  0.54823700  0.45176300  1
  Tl  Tl3  1  0.54823700  0.45176300  0.95176300  1
  Tl  Tl4  1  0.81682900  0.81682900  0.81682900  1
  Tl  Tl5  1  0.68317100  0.18317100  0.31682900  1
  Tl  Tl6  1  0.18317100  0.31682900  0.68317100  1
  Tl  Tl7  1  0.31682900  0.68317100  0.18317100  1
  Fe  Fe0  1  0.33522100  0.33522100  0.33522100  1
  Fe  Fe1  1  0.16477900  0.66477900  0.83522100  1
  Fe  Fe2  1  0.66477900  0.83522100  0.16477900  1
  Fe  Fe3  1  0.83522100  0.16477900  0.66477900  1
  Fe  Fe4  1  0.59830700  0.59830700  0.59830700  1
  Fe  Fe5  1  0.90169300  0.40169300  0.09830700  1
  Fe  Fe6  1  0.40169300  0.09830700  0.90169300  1
  Fe  Fe7  1  0.09830700  0.90169300  0.40169300  1
  S  S0  1  0.01812100  0.21610300  0.37589800  1
  S  S1  1  0.48188000  0.78389700  0.87589800  1
  S  S2  1  0.98188000  0.71610300  0.12410200  1
  S  S3  1  0.37589800  0.01812100  0.21610300  1
  S  S4  1  0.51812000  0.28389700  0.62410200  1
  S  S5  1  0.87589800  0.48188000  0.78389700  1
  S  S6  1  0.12410200  0.98188000  0.71610300  1
  S  S7  1  0.62410200  0.51812000  0.28389700  1
  S  S8  1  0.21610300  0.37589800  0.01812100  1
  S  S9  1  0.71610300  0.12410200  0.98188000  1
  S  S10  1  0.28389700  0.62410200  0.51812000  1
  S  S11  1  0.78389700  0.87589800  0.48188000  1
  O  O0  1  0.00947800  0.07815800  0.32963800  1
  O  O1  1  0.49052200  0.92184200  0.82963800  1
  O  O2  1  0.99052200  0.57815800  0.17036200  1
  O  O3  1  0.32963800  0.00947800  0.07815800  1
  O  O4  1  0.50947800  0.42184200  0.67036200  1
  O  O5  1  0.82963800  0.49052200  0.92184200  1
  O  O6  1  0.17036200  0.99052200  0.57815800  1
  O  O7  1  0.67036200  0.50947800  0.42184200  1
  O  O8  1  0.07815800  0.32963800  0.00947800  1
  O  O9  1  0.57815800  0.17036200  0.99052200  1
  O  O10  1  0.42184200  0.67036200  0.50947800  1
  O  O11  1  0.92184200  0.82963800  0.49052200  1
  O  O12  1  0.26545400  0.50155800  0.44211400  1
  O  O13  1  0.23454600  0.49844200  0.94211400  1
  O  O14  1  0.73454600  0.00155800  0.05788600  1
  O  O15  1  0.44211400  0.26545400  0.50155800  1
  O  O16  1  0.76545400  0.99844200  0.55788600  1
  O  O17  1  0.94211400  0.23454600  0.49844200  1
  O  O18  1  0.05788600  0.73454600  0.00155800  1
  O  O19  1  0.55788600  0.76545400  0.99844200  1
  O  O20  1  0.50155800  0.44211400  0.26545400  1
  O  O21  1  0.00155800  0.05788600  0.73454600  1
  O  O22  1  0.99844200  0.55788600  0.76545400  1
  O  O23  1  0.49844200  0.94211400  0.23454600  1
  O  O24  1  0.04062900  0.80230800  0.22466100  1
  O  O25  1  0.45937100  0.19769200  0.72466100  1
  O  O26  1  0.95937100  0.30230800  0.27533900  1
  O  O27  1  0.22466100  0.04062900  0.80230800  1
  O  O28  1  0.54062900  0.69769200  0.77533900  1
  O  O29  1  0.72466100  0.45937100  0.19769200  1
  O  O30  1  0.27533900  0.95937100  0.30230800  1
  O  O31  1  0.77533900  0.54062900  0.69769200  1
  O  O32  1  0.80230800  0.22466100  0.04062900  1
  O  O33  1  0.30230800  0.27533900  0.95937100  1
  O  O34  1  0.69769200  0.77533900  0.54062900  1
  O  O35  1  0.19769200  0.72466100  0.45937100  1
  O  O36  1  0.15571800  0.25260200  0.40215300  1
  O  O37  1  0.34428200  0.74739800  0.90215300  1
  O  O38  1  0.84428200  0.75260200  0.09784700  1
  O  O39  1  0.40215300  0.15571800  0.25260200  1
  O  O40  1  0.65571800  0.24739800  0.59784700  1
  O  O41  1  0.90215300  0.34428200  0.74739800  1
  O  O42  1  0.09784700  0.84428200  0.75260200  1
  O  O43  1  0.59784700  0.65571800  0.24739800  1
  O  O44  1  0.25260200  0.40215300  0.15571800  1
  O  O45  1  0.75260200  0.09784700  0.84428200  1
  O  O46  1  0.24739800  0.59784700  0.65571800  1
  O  O47  1  0.74739800  0.90215300  0.34428200  1
loop_
_geom_bond_atom_site_label_1
_geom_bond_atom_site_label_2
_geom_bond_distance
_geom_bond_site_symmetry_2
Fe0 O44 2.140148 1_555
Fe0 O39 2.140148 1_555
Fe0 O36 2.140148 1_555
Fe0 O15 2.150801 1_555
Fe0 O12 2.150801 1_555
Fe0 O20 2.150801 1_555
Fe1 O42 2.140148 1_555
Fe1 O46 2.140148 1_555
Fe1 O37 2.140148 1_555
Fe1 O22 2.150801 1_455
Fe1 O18 2.150801 1_556
Fe1 O13 2.150801 1_555
Fe2 O38 2.140148 1_555
Fe2 O43 2.140148 1_555
Fe2 O47 2.140148 1_555
Fe2 O14 2.150801 1_565
Fe2 O19 2.150801 1_554
Fe2 O23 2.150801 1_555
Fe3 O41 2.140148 1_555
Fe3 O45 2.140148 1_555
Fe3 O40 2.140148 1_555
Fe3 O16 2.150801 1_545
Fe3 O21 2.150801 1_655
Fe3 O17 2.150801 1_555
Fe4 O10 2.157173 1_555
Fe4 O7 2.157173 1_555
Fe4 O4 2.157173 1_555
Fe4 O31 2.165013 1_555
Fe4 O34 2.165013 1_555
Fe4 O28 2.165013 1_555
Fe5 O2 2.157173 1_555
Fe5 O5 2.157173 1_554
Fe5 O8 2.157173 1_655
Fe5 O29 2.165013 1_555
Fe5 O32 2.165013 1_555
Fe5 O26 2.165013 1_555
Fe6 O9 2.157173 1_555
Fe6 O1 2.157173 1_545
Fe6 O3 2.157173 1_556
Fe6 O25 2.165013 1_555
Fe6 O27 2.165013 1_555
Fe6 O33 2.165013 1_555
Fe7 O6 2.157173 1_555
Fe7 O11 2.157173 1_455
Fe7 O0 2.157173 1_565
Fe7 O35 2.165013 1_555
Fe7 O24 2.165013 1_555
Fe7 O30 2.165013 1_555
O0 S0 1.495123 1_555
O1 S1 1.495122 1_555
O2 S2 1.495122 1_555
O3 S3 1.495123 1_555
O4 S4 1.495122 1_555
O5 S5 1.495122 1_555
O6 S6 1.495122 1_555
O7 S7 1.495122 1_555
O8 S8 1.495123 1_555
O9 S9 1.495122 1_555
O10 S10 1.495122 1_555
O11 S11 1.495122 1_555
O12 S10 1.491267 1_555
O13 S8 1.491273 1_556
O14 S9 1.491267 1_554
O15 S4 1.491267 1_555
O16 S11 1.491267 1_555
O17 S0 1.491273 1_655
O18 S2 1.491267 1_455
O19 S1 1.491267 1_555
O20 S7 1.491267 1_555
O21 S6 1.491267 1_545
O22 S5 1.491267 1_555
O23 S3 1.491273 1_565
O24 S2 1.486347 1_455
O25 S4 1.486347 1_555
O26 S0 1.486351 1_655
O27 S6 1.486347 1_545
O28 S1 1.486347 1_555
O29 S7 1.486347 1_555
O30 S3 1.486351 1_565
O31 S5 1.486347 1_555
O32 S9 1.486347 1_554
O33 S8 1.486351 1_556
O34 S11 1.486347 1_555
O35 S10 1.486347 1_555
O36 S0 1.484916 1_555
O37 S1 1.484925 1_555
O38 S2 1.484925 1_555
O39 S3 1.484916 1_555
O40 S4 1.484925 1_555
O41 S5 1.484925 1_555
O42 S6 1.484925 1_555
O43 S7 1.484925 1_555
O44 S8 1.484916 1_555
O45 S9 1.484925 1_555
O46 S10 1.484925 1_555
O47 S11 1.484925 1_555
