# generated using pymatgen
data_La2TiMnO6
_symmetry_space_group_name_H-M   'P 1'
_cell_length_a   5.63715075
_cell_length_b   9.88224932
_cell_length_c   9.88213646
_cell_angle_alpha   71.34205467
_cell_angle_beta   89.86768489
_cell_angle_gamma   89.86745712
_symmetry_Int_Tables_number   1
_chemical_formula_structural   La2TiMnO6
_chemical_formula_sum   'La8 Ti4 Mn4 O24'
_cell_volume   521.57733802
_cell_formula_units_Z   4
loop_
 _symmetry_equiv_pos_site_id
 _symmetry_equiv_pos_as_xyz
  1  'x, y, z'
loop_
 _atom_site_type_symbol
 _atom_site_label
 _atom_site_symmetry_multiplicity
 _atom_site_fract_x
 _atom_site_fract_y
 _atom_site_fract_z
 _atom_site_occupancy
  La  La0  1  0.48894800  0.39852700  0.85203400  1
  La  La1  1  0.48895200  0.89852600  0.35202200  1
  La  La2  1  0.01105000  0.14797000  0.10148500  1
  La  La3  1  0.01105500  0.64797900  0.60148300  1
  La  La4  1  0.51104900  0.60147600  0.14797100  1
  La  La5  1  0.51104600  0.10147600  0.64798300  1
  La  La6  1  0.98894400  0.85203300  0.89851700  1
  La  La7  1  0.98895700  0.35202200  0.39852500  1
  Ti  Ti0  1  0.99999800  0.49999900  0.00000100  1
  Ti  Ti1  1  0.00000000  0.00000000  0.49999700  1
  Ti  Ti2  1  0.49999600  0.00000000  0.00000000  1
  Ti  Ti3  1  0.50000200  0.50000000  0.49999800  1
  Mn  Mn0  1  0.00000200  0.75000200  0.25000000  1
  Mn  Mn1  1  0.49999900  0.75000000  0.74999800  1
  Mn  Mn2  1  0.99999900  0.25000100  0.74999800  1
  Mn  Mn3  1  0.50000900  0.24999900  0.25000100  1
  O  O0  1  0.59599100  0.60340100  0.63370300  1
  O  O1  1  0.59598700  0.10340300  0.13370100  1
  O  O2  1  0.90401200  0.36630100  0.89658800  1
  O  O3  1  0.90401200  0.86630300  0.39658900  1
  O  O4  1  0.40401500  0.39659800  0.36629500  1
  O  O5  1  0.40400900  0.89659600  0.86630000  1
  O  O6  1  0.09598700  0.63369800  0.10341000  1
  O  O7  1  0.09599300  0.13369800  0.60341300  1
  O  O8  1  0.69072500  0.83195900  0.11506400  1
  O  O9  1  0.69072900  0.33196000  0.61506200  1
  O  O10  1  0.80927200  0.38493800  0.16803700  1
  O  O11  1  0.80927900  0.88493600  0.66804100  1
  O  O12  1  0.30927100  0.16803900  0.88493700  1
  O  O13  1  0.30928100  0.66804100  0.38493500  1
  O  O14  1  0.19071800  0.61506200  0.83196100  1
  O  O15  1  0.19072300  0.11506000  0.33195800  1
  O  O16  1  0.28159800  0.37864700  0.07212000  1
  O  O17  1  0.28160600  0.87864800  0.57211700  1
  O  O18  1  0.21839900  0.42788100  0.62135700  1
  O  O19  1  0.21839700  0.92788100  0.12135400  1
  O  O20  1  0.71839600  0.62135300  0.92788100  1
  O  O21  1  0.71839700  0.12135300  0.42787700  1
  O  O22  1  0.78160300  0.57211800  0.37864300  1
  O  O23  1  0.78159900  0.07211800  0.87864400  1
loop_
_geom_bond_atom_site_label_1
_geom_bond_atom_site_label_2
_geom_bond_distance
_geom_bond_site_symmetry_2
La0 O2 2.383575 1_555
La0 O16 2.418893 1_556
La0 O12 2.419712 1_555
La0 O0 2.514555 1_555
La0 O14 2.675434 1_555
La0 O18 2.682826 1_555
La0 O20 2.856109 1_555
La0 O9 2.860151 1_555
La1 O3 2.383570 1_555
La1 O17 2.418964 1_555
La1 O13 2.419654 1_555
La1 O1 2.514501 1_565
La1 O15 2.675439 1_565
La1 O19 2.682771 1_555
La1 O21 2.856150 1_565
La1 O8 2.860010 1_555
La2 O1 2.383585 1_455
La2 O19 2.418951 1_545
La2 O15 2.419529 1_555
La2 O2 2.514668 1_454
La2 O12 2.675496 1_554
La2 O16 2.682833 1_555
La2 O23 2.856249 1_454
La2 O10 2.860054 1_455
La3 O0 2.383609 1_455
La3 O18 2.419010 1_555
La3 O14 2.419538 1_555
La3 O3 2.514617 1_455
La3 O13 2.675526 1_555
La3 O17 2.682776 1_555
La3 O22 2.856288 1_455
La3 O11 2.859981 1_455
La4 O6 2.383572 1_555
La4 O20 2.418926 1_554
La4 O8 2.419658 1_555
La4 O4 2.514523 1_555
La4 O10 2.675445 1_555
La4 O22 2.682795 1_555
La4 O16 2.856162 1_555
La4 O13 2.860042 1_555
La5 O7 2.383535 1_555
La5 O21 2.419074 1_555
La5 O9 2.419660 1_555
La5 O5 2.514496 1_545
La5 O11 2.675510 1_545
La5 O23 2.682703 1_555
La5 O17 2.856201 1_545
La5 O12 2.859959 1_555
La6 O5 2.383591 1_655
La6 O23 2.418903 1_565
La6 O11 2.419548 1_555
La6 O6 2.514677 1_656
La6 O8 2.675472 1_556
La6 O20 2.682858 1_555
La6 O19 2.856200 1_656
La6 O14 2.860091 1_655
La7 O4 2.383580 1_655
La7 O22 2.419004 1_555
La7 O10 2.419681 1_555
La7 O7 2.514577 1_655
La7 O9 2.675449 1_555
La7 O21 2.682828 1_555
La7 O18 2.856185 1_655
La7 O15 2.860047 1_655
Mn0 O3 2.184257 1_455
Mn0 O6 2.184280 1_555
Mn0 O8 2.187887 1_455
Mn0 O13 2.187898 1_555
Mn0 O19 2.189703 1_555
Mn0 O22 2.189737 1_455
Mn1 O0 2.184301 1_555
Mn1 O5 2.184325 1_555
Mn1 O11 2.187913 1_555
Mn1 O14 2.187937 1_555
Mn1 O17 2.189701 1_555
Mn1 O20 2.189723 1_555
Mn2 O7 2.184244 1_655
Mn2 O2 2.184253 1_555
Mn2 O9 2.187859 1_555
Mn2 O12 2.187888 1_655
Mn2 O18 2.189709 1_655
Mn2 O23 2.189744 1_555
Mn3 O1 2.184294 1_555
Mn3 O4 2.184297 1_555
Mn3 O10 2.187863 1_555
Mn3 O15 2.187955 1_555
Mn3 O21 2.189648 1_555
Mn3 O16 2.189758 1_555
O0 Ti3 1.988084 1_555
O1 Ti2 1.988069 1_555
O2 Ti0 1.988113 1_556
O3 Ti1 1.988071 1_665
O4 Ti3 1.988072 1_555
O5 Ti2 1.988061 1_566
O6 Ti0 1.988097 1_455
O7 Ti1 1.988145 1_555
O8 Ti2 1.998953 1_565
O9 Ti3 1.998941 1_555
O10 Ti0 1.998901 1_555
O11 Ti1 1.998946 1_665
O12 Ti2 1.998925 1_556
O13 Ti3 1.998926 1_555
O14 Ti0 1.998914 1_456
O15 Ti1 1.998908 1_555
O16 Ti0 1.978775 1_455
O17 Ti1 1.978804 1_565
O18 Ti3 1.978824 1_555
O19 Ti2 1.978781 1_565
O20 Ti0 1.978796 1_556
O21 Ti1 1.978795 1_655
O22 Ti3 1.978794 1_555
O23 Ti2 1.978807 1_556
