# generated using pymatgen
data_NiP
_symmetry_space_group_name_H-M   'P 1'
_cell_length_a   12.30685970
_cell_length_b   12.30685970
_cell_length_c   4.88308674
_cell_angle_alpha   90.00000000
_cell_angle_beta   90.00000000
_cell_angle_gamma   152.08176787
_symmetry_Int_Tables_number   1
_chemical_formula_structural   NiP
_chemical_formula_sum   'Ni14 P14'
_cell_volume   346.28251576
_cell_formula_units_Z   14
loop_
 _symmetry_equiv_pos_site_id
 _symmetry_equiv_pos_as_xyz
  1  'x, y, z'
loop_
 _atom_site_type_symbol
 _atom_site_label
 _atom_site_symmetry_multiplicity
 _atom_site_fract_x
 _atom_site_fract_y
 _atom_site_fract_z
 _atom_site_occupancy
  Ni  Ni0  1  0.50880652  0.38427011  0.42532380  1
  Ni  Ni1  1  0.38427011  0.50880652  0.42532380  1
  Ni  Ni2  1  0.49119348  0.61572989  0.92532380  1
  Ni  Ni3  1  0.61572989  0.49119348  0.92532380  1
  Ni  Ni4  1  0.79542224  0.09225469  0.41148497  1
  Ni  Ni5  1  0.09225469  0.79542224  0.41148497  1
  Ni  Ni6  1  0.20457776  0.90774531  0.91148497  1
  Ni  Ni7  1  0.90774531  0.20457776  0.91148497  1
  Ni  Ni8  1  0.35179508  0.76458701  0.37922410  1
  Ni  Ni9  1  0.76458701  0.35179508  0.37922410  1
  Ni  Ni10  1  0.64820492  0.23541299  0.87922410  1
  Ni  Ni11  1  0.23541299  0.64820492  0.87922410  1
  Ni  Ni12  1  0.95048590  0.95048590  0.89745169  1
  Ni  Ni13  1  0.04951410  0.04951410  0.39745169  1
  P  P0  1  0.25388311  0.11705056  0.09593077  1
  P  P1  1  0.11705056  0.25388311  0.09593077  1
  P  P2  1  0.74611689  0.88294944  0.59593077  1
  P  P3  1  0.88294944  0.74611689  0.59593077  1
  P  P4  1  0.54742482  0.83858939  0.06791662  1
  P  P5  1  0.83858939  0.54742482  0.06791662  1
  P  P6  1  0.45257518  0.16141061  0.56791662  1
  P  P7  1  0.16141061  0.45257518  0.56791662  1
  P  P8  1  0.40369443  0.98253475  0.22230024  1
  P  P9  1  0.98253475  0.40369443  0.22230024  1
  P  P10  1  0.59630557  0.01746525  0.72230024  1
  P  P11  1  0.01746525  0.59630557  0.72230024  1
  P  P12  1  0.68742551  0.68742551  0.23448730  1
  P  P13  1  0.31257449  0.31257449  0.73448730  1
loop_
_geom_bond_atom_site_label_1
_geom_bond_atom_site_label_2
_geom_bond_distance
_geom_bond_site_symmetry_2
Ni0 P0 2.238657 1_555
Ni0 P13 2.263654 1_555
Ni0 P12 2.264159 1_555
Ni0 P6 2.265363 1_555
Ni0 P3 2.343029 1_555
Ni1 P1 2.238657 1_555
Ni1 P13 2.263654 1_555
Ni1 P12 2.264159 1_555
Ni1 P7 2.265363 1_555
Ni1 P2 2.343029 1_555
Ni2 P2 2.238657 1_555
Ni2 P12 2.263654 1_556
Ni2 P13 2.264159 1_555
Ni2 P4 2.265363 1_556
Ni2 P1 2.343029 1_556
Ni3 P3 2.238657 1_555
Ni3 P12 2.263654 1_556
Ni3 P13 2.264159 1_555
Ni3 P5 2.265363 1_556
Ni3 P0 2.343029 1_556
Ni4 P4 2.244384 1_545
Ni4 P2 2.247746 1_545
Ni4 P10 2.273691 1_555
Ni4 P7 2.288556 1_655
Ni4 P9 2.291067 1_555
Ni5 P5 2.244384 1_455
Ni5 P3 2.247746 1_455
Ni5 P11 2.273691 1_555
Ni5 P6 2.288556 1_565
Ni5 P8 2.291067 1_555
Ni6 P6 2.244384 1_565
Ni6 P0 2.247746 1_566
Ni6 P8 2.273691 1_556
Ni6 P5 2.288556 1_456
Ni6 P11 2.291067 1_555
Ni7 P7 2.244384 1_655
Ni7 P1 2.247746 1_656
Ni7 P9 2.273691 1_556
Ni7 P4 2.288556 1_546
Ni7 P10 2.291067 1_555
Ni8 P10 2.235391 1_565
Ni8 P4 2.249839 1_555
Ni8 P8 2.272000 1_555
Ni8 P7 2.276783 1_555
Ni8 P9 2.301286 1_455
Ni9 P11 2.235391 1_655
Ni9 P5 2.249839 1_555
Ni9 P9 2.272000 1_555
Ni9 P6 2.276783 1_555
Ni9 P8 2.301286 1_545
Ni10 P8 2.235391 1_546
Ni10 P6 2.249839 1_555
Ni10 P10 2.272000 1_555
Ni10 P5 2.276783 1_556
Ni10 P11 2.301286 1_655
Ni11 P9 2.235391 1_456
Ni11 P7 2.249839 1_555
Ni11 P11 2.272000 1_555
Ni11 P4 2.276783 1_556
Ni11 P10 2.301286 1_565
Ni12 P12 2.268968 1_556
Ni12 P13 2.292468 1_665
Ni12 P2 2.343118 1_555
Ni12 P3 2.343118 1_555
Ni12 P1 2.357268 1_666
Ni12 P0 2.357268 1_666
Ni13 P13 2.268968 1_555
Ni13 P12 2.292468 1_445
Ni13 P1 2.343118 1_555
Ni13 P0 2.343118 1_555
Ni13 P2 2.357268 1_445
Ni13 P3 2.357268 1_445
