# generated using pymatgen
data_LiFeF3
_symmetry_space_group_name_H-M   'P 1'
_cell_length_a   4.92742600
_cell_length_b   6.44686700
_cell_length_c   7.37394400
_cell_angle_alpha   90.00000000
_cell_angle_beta   90.00000000
_cell_angle_gamma   90.00000000
_symmetry_Int_Tables_number   1
_chemical_formula_structural   LiFeF3
_chemical_formula_sum   'Li4 Fe4 F12'
_cell_volume   234.24409767
_cell_formula_units_Z   4
loop_
 _symmetry_equiv_pos_site_id
 _symmetry_equiv_pos_as_xyz
  1  'x, y, z'
loop_
 _atom_site_type_symbol
 _atom_site_label
 _atom_site_symmetry_multiplicity
 _atom_site_fract_x
 _atom_site_fract_y
 _atom_site_fract_z
 _atom_site_occupancy
  Li  Li0  1  0.46759800  0.75000000  0.75494400  1
  Li  Li1  1  0.53240200  0.75000000  0.25494400  1
  Li  Li2  1  0.46759800  0.25000000  0.74505600  1
  Li  Li3  1  0.53240200  0.25000000  0.24505600  1
  Fe  Fe0  1  0.00000000  0.50000000  0.00000000  1
  Fe  Fe1  1  0.00000000  0.50000000  0.50000000  1
  Fe  Fe2  1  0.00000000  0.00000000  0.00000000  1
  Fe  Fe3  1  0.00000000  0.00000000  0.50000000  1
  F  F0  1  0.24350100  0.75000000  0.43233000  1
  F  F1  1  0.24350100  0.25000000  0.06767000  1
  F  F2  1  0.23243700  0.00000000  0.75000000  1
  F  F3  1  0.23243700  0.50000000  0.75000000  1
  F  F4  1  0.25150300  0.75000000  0.06620400  1
  F  F5  1  0.25150300  0.25000000  0.43379600  1
  F  F6  1  0.74849700  0.75000000  0.56620400  1
  F  F7  1  0.74849700  0.25000000  0.93379600  1
  F  F8  1  0.76756300  0.50000000  0.25000000  1
  F  F9  1  0.76756300  0.00000000  0.25000000  1
  F  F10  1  0.75649900  0.75000000  0.93233000  1
  F  F11  1  0.75649900  0.25000000  0.56767000  1
loop_
_geom_bond_atom_site_label_1
_geom_bond_atom_site_label_2
_geom_bond_distance
_geom_bond_site_symmetry_2
F0 Li1 1.933240 1_555
F0 Fe3 2.070320 1_565
F0 Fe1 2.070320 1_555
F1 Li3 1.933240 1_555
F1 Fe0 2.070320 1_555
F1 Fe2 2.070320 1_555
F2 Li0 1.985355 1_545
F2 Li2 1.985355 1_555
F2 Fe2 2.170297 1_556
F2 Fe3 2.170297 1_555
F3 Li0 1.985355 1_555
F3 Li2 1.985355 1_555
F3 Fe1 2.170297 1_555
F3 Fe0 2.170297 1_556
F4 Li1 1.962842 1_555
F4 Fe2 2.090867 1_565
F4 Fe0 2.090867 1_555
F5 Li3 1.962842 1_555
F5 Fe1 2.090867 1_555
F5 Fe3 2.090867 1_555
F6 Li0 1.962842 1_555
F6 Fe3 2.090867 1_665
F6 Fe1 2.090867 1_655
F7 Li2 1.962842 1_555
F7 Fe2 2.090867 1_656
F7 Fe0 2.090867 1_656
F8 Li3 1.985355 1_555
F8 Li1 1.985355 1_555
F8 Fe1 2.170297 1_655
F8 Fe0 2.170297 1_655
F9 Li3 1.985355 1_555
F9 Li1 1.985355 1_545
F9 Fe2 2.170297 1_655
F9 Fe3 2.170297 1_655
F10 Li0 1.933240 1_555
F10 Fe0 2.070320 1_656
F10 Fe2 2.070320 1_666
F11 Li2 1.933240 1_555
F11 Fe1 2.070320 1_655
F11 Fe3 2.070320 1_655
