# generated using pymatgen
data_YbCrMo6(H17O19)2
_symmetry_space_group_name_H-M   'P 1'
_cell_length_a   11.37568369
_cell_length_b   11.57655557
_cell_length_c   14.31416791
_cell_angle_alpha   76.76028168
_cell_angle_beta   85.92711843
_cell_angle_gamma   90.74665615
_symmetry_Int_Tables_number   1
_chemical_formula_structural   YbCrMo6(H17O19)2
_chemical_formula_sum   'Yb2 Cr2 Mo12 H68 O76'
_cell_volume   1829.47894994
_cell_formula_units_Z   2
loop_
 _symmetry_equiv_pos_site_id
 _symmetry_equiv_pos_as_xyz
  1  'x, y, z'
loop_
 _atom_site_type_symbol
 _atom_site_label
 _atom_site_symmetry_multiplicity
 _atom_site_fract_x
 _atom_site_fract_y
 _atom_site_fract_z
 _atom_site_occupancy
  Yb  Yb0  1  0.71413975  0.25189557  0.95203071  1
  Yb  Yb1  1  0.28586025  0.74810443  0.04796929  1
  Cr  Cr0  1  -0.00000000  0.00000000  0.50000000  1
  Cr  Cr1  1  0.50000000  0.50000000  0.50000000  1
  Mo  Mo0  1  0.22159603  0.86602532  0.63011569  1
  Mo  Mo1  1  0.77840397  0.13397468  0.36988431  1
  Mo  Mo2  1  0.74377380  0.05664057  0.61461132  1
  Mo  Mo3  1  0.25622620  0.94335943  0.38538868  1
  Mo  Mo4  1  0.96326956  0.92396277  0.74556190  1
  Mo  Mo5  1  0.03673044  0.07603723  0.25443810  1
  Mo  Mo6  1  0.49051791  0.42682057  0.74773383  1
  Mo  Mo7  1  0.50948209  0.57317943  0.25226617  1
  Mo  Mo8  1  0.25178544  0.36619907  0.63378383  1
  Mo  Mo9  1  0.74821456  0.63380093  0.36621617  1
  Mo  Mo10  1  0.73291437  0.56999209  0.61341852  1
  Mo  Mo11  1  0.26708563  0.43000791  0.38658148  1
  H  H0  1  0.84866391  0.83349908  0.59889429  1
  H  H1  1  0.15133609  0.16650092  0.40110571  1
  H  H2  1  0.63069748  0.33571930  0.59499513  1
  H  H3  1  0.36930252  0.66428070  0.40500487  1
  H  H4  1  0.35930480  0.60399479  0.60911401  1
  H  H5  1  0.64069520  0.39600521  0.39088599  1
  H  H6  1  0.56654915  0.72033427  0.49388945  1
  H  H7  1  0.43345085  0.27966573  0.50611055  1
  H  H8  1  0.49463988  0.05048735  0.73772583  1
  H  H9  1  0.50536012  0.94951265  0.26227417  1
  H  H10  1  0.41689831  0.03180818  0.83499702  1
  H  H11  1  0.58310169  0.96819182  0.16500298  1
  H  H12  1  0.66370597  0.40047208  0.10835537  1
  H  H13  1  0.33629403  0.59952792  0.89164463  1
  H  H14  1  0.78355173  0.34560076  0.12729901  1
  H  H15  1  0.21644827  0.65439924  0.87270099  1
  H  H16  1  0.90751580  0.29337242  0.78557091  1
  H  H17  1  0.09248420  0.70662758  0.21442909  1
  H  H18  1  0.84090327  0.18037905  0.77255979  1
  H  H19  1  0.15909673  0.81962095  0.22744021  1
  H  H20  1  0.93010082  0.21767679  0.50107411  1
  H  H21  1  0.06989918  0.78232321  0.49892589  1
  H  H22  1  0.71250769  0.08609440  0.15980209  1
  H  H23  1  0.28749231  0.91390560  0.84019791  1
  H  H24  1  0.77307984  0.01727357  0.09031603  1
  H  H25  1  0.22692016  0.98272643  0.90968397  1
  H  H26  1  0.25237852  0.20342480  0.05517520  1
  H  H27  1  0.74762148  0.79657520  0.94482480  1
  H  H28  1  0.27635628  0.07385684  0.05230939  1
  H  H29  1  0.72364372  0.92614316  0.94769061  1
  H  H30  1  0.60612087  0.03513767  0.96614515  1
  H  H31  1  0.39387913  0.96486233  0.03385485  1
  H  H32  1  0.59553305  0.07597387  0.85552170  1
  H  H33  1  0.40446695  0.92402613  0.14447830  1
  H  H34  1  0.94002088  0.23444184  0.05920818  1
  H  H35  1  0.05997912  0.76555816  0.94079182  1
  H  H36  1  0.97645018  0.21263640  0.95614583  1
  H  H37  1  0.02354982  0.78736360  0.04385417  1
  H  H38  1  0.15851198  0.17531681  0.92860811  1
  H  H39  1  0.84148802  0.82468319  0.07139189  1
  H  H40  1  0.07610120  0.11667618  0.86548737  1
  H  H41  1  0.92389880  0.88332382  0.13451263  1
  H  H42  1  0.79519169  0.50991720  0.92465221  1
  H  H43  1  0.20480831  0.49008280  0.07534779  1
  H  H44  1  0.78921726  0.48019263  0.82206630  1
  H  H45  1  0.21078274  0.51980737  0.17793370  1
  H  H46  1  0.53650931  0.13061924  0.48307428  1
  H  H47  1  0.46349069  0.86938076  0.51692572  1
  H  H48  1  0.40098131  0.09375980  0.50666956  1
  H  H49  1  0.59901869  0.90624020  0.49333044  1
  H  H50  1  0.53981307  0.27355297  0.20072445  1
  H  H51  1  0.46018693  0.72644703  0.79927555  1
  H  H52  1  0.43215933  0.18422000  0.23731643  1
  H  H53  1  0.56784067  0.81578000  0.76268357  1
  H  H54  1  0.03819779  0.37382542  0.50607130  1
  H  H55  1  0.96180221  0.62617458  0.49392870  1
  H  H56  1  0.90313553  0.40548626  0.49732834  1
  H  H57  1  0.09686447  0.59451374  0.50267166  1
  H  H58  1  0.48782195  0.24418764  0.07601748  1
  H  H59  1  0.51217805  0.75581236  0.92398252  1
  H  H60  1  0.44730554  0.23889603  0.97350939  1
  H  H61  1  0.55269446  0.76110397  0.02649061  1
  H  H62  1  0.12175464  0.11011823  0.60584327  1
  H  H63  1  0.87824536  0.88988177  0.39415673  1
  H  H64  1  0.01679386  0.58861832  0.84165831  1
  H  H65  1  0.98320614  0.41138168  0.15834169  1
  H  H66  1  0.11673249  0.51310072  0.80965130  1
  H  H67  1  0.88326751  0.48689928  0.19034870  1
  O  O0  1  0.58585133  0.32884756  0.81286063  1
  O  O1  1  0.41414867  0.67115244  0.18713937  1
  O  O2  1  0.78203133  0.71745546  0.59888934  1
  O  O3  1  0.21796867  0.28254454  0.40111066  1
  O  O4  1  0.86026487  0.05956479  0.70784919  1
  O  O5  1  0.13973513  0.94043521  0.29215081  1
  O  O6  1  0.15796920  0.42495151  0.71041237  1
  O  O7  1  0.84203080  0.57504849  0.28958763  1
  O  O8  1  0.19059085  0.22810654  0.62909779  1
  O  O9  1  0.80940915  0.77189346  0.37090221  1
  O  O10  1  0.04739738  0.98451153  0.82069997  1
  O  O11  1  0.95260262  0.01548847  0.17930003  1
  O  O12  1  0.63788397  0.95627434  0.68261273  1
  O  O13  1  0.36211603  0.04372566  0.31738727  1
  O  O14  1  0.68940877  0.19801794  0.60870432  1
  O  O15  1  0.31059123  0.80198206  0.39129568  1
  O  O16  1  0.88319689  0.91428655  0.60216001  1
  O  O17  1  0.11680311  0.08571345  0.39783999  1
  O  O18  1  0.59819504  0.41480603  0.59819667  1
  O  O19  1  0.40180496  0.58519397  0.40180333  1
  O  O20  1  0.39191183  0.52463377  0.60877270  1
  O  O21  1  0.60808817  0.47536623  0.39122730  1
  O  O22  1  0.40249745  0.47929442  0.83217489  1
  O  O23  1  0.59750255  0.52070558  0.16782511  1
  O  O24  1  0.29998804  0.96746680  0.51190431  1
  O  O25  1  0.70001196  0.03253320  0.48809569  1
  O  O26  1  0.59788906  0.63691932  0.49253354  1
  O  O27  1  0.40211094  0.36308068  0.50746646  1
  O  O28  1  0.08465684  0.03093527  0.60391450  1
  O  O29  1  0.91534316  0.96906473  0.39608550  1
  O  O30  1  0.29862999  0.91931473  0.71303591  1
  O  O31  1  0.70137001  0.08068527  0.28696409  1
  O  O32  1  0.48377375  0.07925335  0.79657166  1
  O  O33  1  0.51622625  0.92074665  0.20342834  1
  O  O34  1  0.70658244  0.32821315  0.10410801  1
  O  O35  1  0.29341756  0.67178685  0.89589199  1
  O  O36  1  0.84095342  0.23936096  0.81230164  1
  O  O37  1  0.15904658  0.76063904  0.18769836  1
  O  O38  1  0.38144060  0.31646637  0.71138363  1
  O  O39  1  0.61855940  0.68353363  0.28861637  1
  O  O40  1  0.89860316  0.13332880  0.49939985  1
  O  O41  1  0.10139684  0.86667120  0.50060015  1
  O  O42  1  0.59519140  0.56685236  0.69873334  1
  O  O43  1  0.40480860  0.43314764  0.30126666  1
  O  O44  1  0.28399321  0.73089730  0.62403121  1
  O  O45  1  0.71600679  0.26910270  0.37596879  1
  O  O46  1  0.70389312  0.06434412  0.09751467  1
  O  O47  1  0.29610688  0.93565588  0.90248533  1
  O  O48  1  0.82700376  0.48685072  0.69148431  1
  O  O49  1  0.17299624  0.51314928  0.30851569  1
  O  O50  1  0.86956327  0.81811429  0.82145935  1
  O  O51  1  0.13043673  0.18188571  0.17854065  1
  O  O52  1  0.27229710  0.15415393  0.00959166  1
  O  O53  1  0.72770290  0.84584607  0.99040834  1
  O  O54  1  0.19684632  0.45959339  0.50894577  1
  O  O55  1  0.80315368  0.54040661  0.49105423  1
  O  O56  1  0.65457507  0.06971471  0.90722184  1
  O  O57  1  0.34542493  0.93028529  0.09277816  1
  O  O58  1  0.07546827  0.81513621  0.70537637  1
  O  O59  1  0.92453173  0.18486379  0.29462363  1
  O  O60  1  0.90750614  0.22973223  0.99935295  1
  O  O61  1  0.09249386  0.77026777  0.00064705  1
  O  O62  1  0.08916581  0.18842501  0.88959186  1
  O  O63  1  0.91083419  0.81157499  0.11040814  1
  O  O64  1  0.76458282  0.45358508  0.89109916  1
  O  O65  1  0.23541718  0.54641492  0.10890084  1
  O  O66  1  0.46292839  0.15106565  0.51401151  1
  O  O67  1  0.53707161  0.84893435  0.48598849  1
  O  O68  1  0.46053707  0.25316986  0.18654288  1
  O  O69  1  0.53946293  0.74683014  0.81345712  1
  O  O70  1  0.95785888  0.33972265  0.51345796  1
  O  O71  1  0.04214112  0.66027735  0.48654204  1
  O  O72  1  0.51714319  0.24539802  0.00783960  1
  O  O73  1  0.48285681  0.75460198  0.99216040  1
  O  O74  1  0.09459450  0.55999398  0.85719262  1
  O  O75  1  0.90540550  0.44000602  0.14280738  1
loop_
_geom_bond_atom_site_label_1
_geom_bond_atom_site_label_2
_geom_bond_distance
_geom_bond_site_symmetry_2
Cr0 O29 1.925273 1_445
Cr0 O28 1.925273 1_555
Cr0 O41 1.937687 1_545
Cr0 O40 1.937687 1_455
Cr0 O16 1.978254 1_445
Cr0 O17 1.978254 1_555
Cr1 O26 1.903502 1_555
Cr1 O27 1.903502 1_555
Cr1 O18 1.952676 1_555
Cr1 O19 1.952676 1_555
Cr1 O21 1.989466 1_555
Cr1 O20 1.989466 1_555
Mo0 O30 1.739647 1_555
Mo0 O44 1.743866 1_555
Mo0 O58 1.923608 1_555
Mo0 O24 1.971213 1_555
Mo0 O41 2.379217 1_555
Mo0 O28 2.458554 1_565
Mo1 O31 1.739647 1_555
Mo1 O45 1.743866 1_555
Mo1 O59 1.923608 1_555
Mo1 O25 1.971213 1_555
Mo1 O40 2.379217 1_555
Mo1 O29 2.458554 1_545
Mo2 O12 1.739939 1_545
Mo2 O14 1.743187 1_555
Mo2 O4 1.951713 1_555
Mo2 O25 1.990290 1_555
Mo2 O16 2.329286 1_545
Mo2 O40 2.342228 1_555
Mo3 O13 1.739939 1_565
Mo3 O15 1.743187 1_555
Mo3 O5 1.951713 1_555
Mo3 O24 1.990290 1_555
Mo3 O17 2.329286 1_565
Mo3 O41 2.342228 1_555
Mo4 O50 1.734867 1_555
Mo4 O10 1.742995 1_655
Mo4 O58 1.953629 1_655
Mo4 O4 1.969346 1_565
Mo4 O16 2.328949 1_555
Mo4 O28 2.441102 1_665
Mo5 O51 1.734867 1_555
Mo5 O11 1.742995 1_455
Mo5 O59 1.953629 1_455
Mo5 O5 1.969346 1_545
Mo5 O17 2.328949 1_555
Mo5 O29 2.441102 1_445
Mo6 O22 1.735749 1_555
Mo6 O0 1.738652 1_555
Mo6 O38 1.948674 1_555
Mo6 O42 1.961622 1_555
Mo6 O20 2.411505 1_555
Mo6 O18 2.422774 1_555
Mo7 O23 1.735749 1_555
Mo7 O1 1.738652 1_555
Mo7 O39 1.948674 1_555
Mo7 O43 1.961622 1_555
Mo7 O21 2.411505 1_555
Mo7 O19 2.422774 1_555
Mo8 O6 1.731780 1_555
Mo8 O8 1.752564 1_555
Mo8 O38 1.924213 1_555
Mo8 O54 2.010978 1_555
Mo8 O20 2.361165 1_555
Mo8 O27 2.405661 1_555
Mo9 O7 1.731780 1_555
Mo9 O9 1.752564 1_555
Mo9 O39 1.924213 1_555
Mo9 O55 2.010978 1_555
Mo9 O21 2.361165 1_555
Mo9 O26 2.405661 1_555
Mo10 O48 1.739190 1_555
Mo10 O2 1.750915 1_555
Mo10 O42 1.911441 1_555
Mo10 O55 1.976551 1_555
Mo10 O26 2.397551 1_555
Mo10 O18 2.403865 1_555
Mo11 O49 1.739190 1_555
Mo11 O3 1.750915 1_555
Mo11 O43 1.911441 1_555
Mo11 O54 1.976551 1_555
Mo11 O27 2.397551 1_555
Mo11 O19 2.403865 1_555
H0 O16 1.021880 1_555
H0 O2 1.533867 1_555
H1 O17 1.021880 1_555
H1 O3 1.533867 1_555
H2 O18 1.001337 1_555
H2 O14 1.711382 1_555
H3 O19 1.001337 1_555
H3 O15 1.711382 1_555
H4 O20 0.996168 1_555
H5 O21 0.996168 1_555
H6 O26 1.037568 1_555
H6 O67 1.510919 1_555
H7 O27 1.037568 1_555
H7 O66 1.510919 1_555
H8 O32 0.974917 1_555
H9 O33 0.974917 1_555
H10 O32 0.987039 1_555
H11 O33 0.987039 1_555
H12 O34 0.985424 1_555
H13 O35 0.985424 1_555
H14 O34 0.992297 1_555
H15 O35 0.992297 1_555
H16 O36 0.973459 1_555
H17 O37 0.973459 1_555
H18 O36 0.983767 1_555
H19 O37 0.983767 1_555
H20 O40 1.041754 1_555
H20 O70 1.496121 1_555
H21 O41 1.041754 1_555
H21 O71 1.496121 1_555
H22 O46 0.991232 1_555
H23 O47 0.991232 1_555
H24 O46 0.975894 1_555
H25 O47 0.975894 1_555
H26 O52 0.977378 1_555
H27 O53 0.977378 1_555
H28 O52 0.992415 1_555
H29 O53 0.992415 1_555
H30 O56 0.974167 1_555
H31 O57 0.974167 1_555
H32 O56 1.025345 1_555
H32 O32 1.571226 1_555
H33 O57 1.025345 1_555
H33 O33 1.571226 1_555
H34 O60 0.969401 1_554
H35 O61 0.969401 1_556
H36 O60 1.013899 1_555
H36 O62 1.608840 1_655
H37 O61 1.013899 1_555
H37 O63 1.608840 1_455
H38 O62 0.992027 1_555
H39 O63 0.992027 1_555
H40 O62 0.983046 1_555
H41 O63 0.983046 1_555
H42 O64 0.968758 1_555
H43 O65 0.968758 1_555
H44 O64 0.984298 1_555
H45 O65 0.984298 1_555
H46 O66 0.976361 1_555
H47 O67 0.976361 1_555
H48 O66 0.988944 1_555
H49 O67 0.988944 1_555
H50 O68 0.975994 1_555
H51 O69 0.975994 1_555
H52 O68 0.981723 1_555
H53 O69 0.981723 1_555
H54 O70 0.979807 1_455
H55 O71 0.979807 1_655
H56 O70 0.986250 1_555
H57 O71 0.986250 1_555
H58 O72 1.005597 1_555
H58 O68 1.617580 1_555
H59 O73 1.005597 1_555
H59 O69 1.617580 1_555
H60 O72 0.974239 1_556
H61 O73 0.974239 1_554
H62 O28 1.011088 1_555
H62 O8 1.675432 1_555
H63 O29 1.011088 1_555
H63 O9 1.675432 1_555
H64 O74 0.971796 1_555
H65 O75 0.971796 1_555
H66 O74 0.984711 1_555
H67 O75 0.984711 1_555
O0 Yb0 2.554565 1_555
O1 Yb1 2.554565 1_555
O34 Yb0 2.526463 1_554
O35 Yb1 2.526463 1_556
O36 Yb0 2.414763 1_555
O37 Yb1 2.414763 1_555
O46 Yb0 2.636717 1_554
O47 Yb1 2.636717 1_556
O56 Yb0 2.441850 1_555
O57 Yb1 2.441850 1_555
O60 Yb0 2.347339 1_555
O61 Yb1 2.347339 1_555
O64 Yb0 2.345803 1_555
O65 Yb1 2.345803 1_555
O72 Yb0 2.319388 1_554
O73 Yb1 2.319388 1_556
