# generated using pymatgen
data_Bi4BPO10
_symmetry_space_group_name_H-M   'P 1'
_cell_length_a   5.59864200
_cell_length_b   14.45066000
_cell_length_c   22.64914200
_cell_angle_alpha   90.00000000
_cell_angle_beta   90.00000000
_cell_angle_gamma   90.00000000
_symmetry_Int_Tables_number   1
_chemical_formula_structural   Bi4BPO10
_chemical_formula_sum   'Bi32 B8 P8 O80'
_cell_volume   1832.40781519
_cell_formula_units_Z   8
loop_
 _symmetry_equiv_pos_site_id
 _symmetry_equiv_pos_as_xyz
  1  'x, y, z'
loop_
 _atom_site_type_symbol
 _atom_site_label
 _atom_site_symmetry_multiplicity
 _atom_site_fract_x
 _atom_site_fract_y
 _atom_site_fract_z
 _atom_site_occupancy
  Bi  Bi0  1  0.07169200  0.78613800  0.30844600  1
  Bi  Bi1  1  0.42830800  0.21386200  0.80844600  1
  Bi  Bi2  1  0.57169200  0.71386200  0.69155400  1
  Bi  Bi3  1  0.92830800  0.28613800  0.19155400  1
  Bi  Bi4  1  0.92830800  0.21386200  0.69155400  1
  Bi  Bi5  1  0.57169200  0.78613800  0.19155400  1
  Bi  Bi6  1  0.42830800  0.28613800  0.30844600  1
  Bi  Bi7  1  0.07169200  0.71386200  0.80844600  1
  Bi  Bi8  1  0.56669700  0.76244900  0.41572600  1
  Bi  Bi9  1  0.93330300  0.23755100  0.91572600  1
  Bi  Bi10  1  0.06669700  0.73755100  0.58427400  1
  Bi  Bi11  1  0.43330300  0.26244900  0.08427400  1
  Bi  Bi12  1  0.43330300  0.23755100  0.58427400  1
  Bi  Bi13  1  0.06669700  0.76244900  0.08427400  1
  Bi  Bi14  1  0.93330300  0.26244900  0.41572600  1
  Bi  Bi15  1  0.56669700  0.73755100  0.91572600  1
  Bi  Bi16  1  0.45204700  0.45594600  0.42591100  1
  Bi  Bi17  1  0.04795300  0.54405400  0.92591100  1
  Bi  Bi18  1  0.95204700  0.04405400  0.57408900  1
  Bi  Bi19  1  0.54795300  0.95594600  0.07408900  1
  Bi  Bi20  1  0.54795300  0.54405400  0.57408900  1
  Bi  Bi21  1  0.95204700  0.45594600  0.07408900  1
  Bi  Bi22  1  0.04795300  0.95594600  0.42591100  1
  Bi  Bi23  1  0.45204700  0.04405400  0.92591100  1
  Bi  Bi24  1  0.92661200  0.47445100  0.30603400  1
  Bi  Bi25  1  0.57338800  0.52554900  0.80603400  1
  Bi  Bi26  1  0.42661200  0.02554900  0.69396600  1
  Bi  Bi27  1  0.07338800  0.97445100  0.19396600  1
  Bi  Bi28  1  0.07338800  0.52554900  0.69396600  1
  Bi  Bi29  1  0.42661200  0.47445100  0.19396600  1
  Bi  Bi30  1  0.57338800  0.97445100  0.30603400  1
  Bi  Bi31  1  0.92661200  0.02554900  0.80603400  1
  B  B0  1  0.42955600  0.60654900  0.31357300  1
  B  B1  1  0.07044400  0.39345100  0.81357300  1
  B  B2  1  0.92955600  0.89345100  0.68642700  1
  B  B3  1  0.57044400  0.10654900  0.18642700  1
  B  B4  1  0.57044400  0.39345100  0.68642700  1
  B  B5  1  0.92955600  0.60654900  0.18642700  1
  B  B6  1  0.07044400  0.10654900  0.31357300  1
  B  B7  1  0.42955600  0.89345100  0.81357300  1
  P  P0  1  0.99982300  0.62144100  0.45242900  1
  P  P1  1  0.50017700  0.37855900  0.95242900  1
  P  P2  1  0.49982300  0.87855900  0.54757100  1
  P  P3  1  0.00017700  0.12144100  0.04757100  1
  P  P4  1  0.00017700  0.37855900  0.54757100  1
  P  P5  1  0.49982300  0.62144100  0.04757100  1
  P  P6  1  0.50017700  0.12144100  0.45242900  1
  P  P7  1  0.99982300  0.87855900  0.95242900  1
  O  O0  1  0.22202200  0.36624200  0.37404500  1
  O  O1  1  0.27797800  0.63375800  0.87404500  1
  O  O2  1  0.72202200  0.13375800  0.62595500  1
  O  O3  1  0.77797800  0.86624200  0.12595500  1
  O  O4  1  0.77797800  0.63375800  0.62595500  1
  O  O5  1  0.72202200  0.36624200  0.12595500  1
  O  O6  1  0.27797800  0.86624200  0.37404500  1
  O  O7  1  0.22202200  0.13375800  0.87404500  1
  O  O8  1  0.71660400  0.36459700  0.36957600  1
  O  O9  1  0.78339600  0.63540300  0.86957600  1
  O  O10  1  0.21660400  0.13540300  0.63042400  1
  O  O11  1  0.28339600  0.86459700  0.13042400  1
  O  O12  1  0.28339600  0.63540300  0.63042400  1
  O  O13  1  0.21660400  0.36459700  0.13042400  1
  O  O14  1  0.78339600  0.86459700  0.36957600  1
  O  O15  1  0.71660400  0.13540300  0.86957600  1
  O  O16  1  0.31230900  0.87866600  0.25136600  1
  O  O17  1  0.18769100  0.12133400  0.75136600  1
  O  O18  1  0.81230900  0.62133400  0.74863400  1
  O  O19  1  0.68769100  0.37866600  0.24863400  1
  O  O20  1  0.68769100  0.12133400  0.74863400  1
  O  O21  1  0.81230900  0.87866600  0.24863400  1
  O  O22  1  0.18769100  0.37866600  0.25136600  1
  O  O23  1  0.31230900  0.62133400  0.75136600  1
  O  O24  1  0.75438800  0.60782600  0.48282400  1
  O  O25  1  0.74561200  0.39217400  0.98282400  1
  O  O26  1  0.25438800  0.89217400  0.51717600  1
  O  O27  1  0.24561200  0.10782600  0.01717600  1
  O  O28  1  0.24561200  0.39217400  0.51717600  1
  O  O29  1  0.25438800  0.60782600  0.01717600  1
  O  O30  1  0.74561200  0.10782600  0.48282400  1
  O  O31  1  0.75438800  0.89217400  0.98282400  1
  O  O32  1  0.95950300  0.70337700  0.40733100  1
  O  O33  1  0.54049700  0.29662300  0.90733100  1
  O  O34  1  0.45950300  0.79662300  0.59266900  1
  O  O35  1  0.04049700  0.20337700  0.09266900  1
  O  O36  1  0.04049700  0.29662300  0.59266900  1
  O  O37  1  0.45950300  0.70337700  0.09266900  1
  O  O38  1  0.54049700  0.20337700  0.40733100  1
  O  O39  1  0.95950300  0.79662300  0.90733100  1
  O  O40  1  0.08279800  0.53510400  0.41690600  1
  O  O41  1  0.41720200  0.46489600  0.91690600  1
  O  O42  1  0.58279800  0.96489600  0.58309400  1
  O  O43  1  0.91720200  0.03510400  0.08309400  1
  O  O44  1  0.91720200  0.46489600  0.58309400  1
  O  O45  1  0.58279800  0.53510400  0.08309400  1
  O  O46  1  0.41720200  0.03510400  0.41690600  1
  O  O47  1  0.08279800  0.96489600  0.91690600  1
  O  O48  1  0.19789700  0.64831700  0.49756600  1
  O  O49  1  0.30210300  0.35168300  0.99756600  1
  O  O50  1  0.69789700  0.85168300  0.50243400  1
  O  O51  1  0.80210300  0.14831700  0.00243400  1
  O  O52  1  0.80210300  0.35168300  0.50243400  1
  O  O53  1  0.69789700  0.64831700  0.00243400  1
  O  O54  1  0.30210300  0.14831700  0.49756600  1
  O  O55  1  0.19789700  0.85168300  0.99756600  1
  O  O56  1  0.27874400  0.57420700  0.27044500  1
  O  O57  1  0.22125600  0.42579300  0.77044500  1
  O  O58  1  0.77874400  0.92579300  0.72955500  1
  O  O59  1  0.72125600  0.07420700  0.22955500  1
  O  O60  1  0.72125600  0.42579300  0.72955500  1
  O  O61  1  0.77874400  0.57420700  0.22955500  1
  O  O62  1  0.22125600  0.07420700  0.27044500  1
  O  O63  1  0.27874400  0.92579300  0.77044500  1
  O  O64  1  0.45084300  0.70191600  0.32340400  1
  O  O65  1  0.04915700  0.29808400  0.82340400  1
  O  O66  1  0.95084300  0.79808400  0.67659600  1
  O  O67  1  0.54915700  0.20191600  0.17659600  1
  O  O68  1  0.54915700  0.29808400  0.67659600  1
  O  O69  1  0.95084300  0.70191600  0.17659600  1
  O  O70  1  0.04915700  0.20191600  0.32340400  1
  O  O71  1  0.45084300  0.79808400  0.82340400  1
  O  O72  1  0.55887300  0.54611900  0.34976400  1
  O  O73  1  0.94112700  0.45388100  0.84976400  1
  O  O74  1  0.05887300  0.95388100  0.65023600  1
  O  O75  1  0.44112700  0.04611900  0.15023600  1
  O  O76  1  0.44112700  0.45388100  0.65023600  1
  O  O77  1  0.05887300  0.54611900  0.15023600  1
  O  O78  1  0.94112700  0.04611900  0.34976400  1
  O  O79  1  0.55887300  0.95388100  0.84976400  1
loop_
_geom_bond_atom_site_label_1
_geom_bond_atom_site_label_2
_geom_bond_distance
_geom_bond_site_symmetry_2
Bi0 O6 2.209358 1_555
Bi0 O16 2.296504 1_555
Bi0 O21 2.394131 1_455
Bi0 O14 2.409903 1_455
Bi0 O64 2.470224 1_555
Bi0 O32 2.615510 1_455
Bi1 O7 2.209358 1_555
Bi1 O17 2.296504 1_555
Bi1 O20 2.394131 1_555
Bi1 O15 2.409903 1_555
Bi1 O65 2.470224 1_555
Bi1 O33 2.615510 1_555
Bi2 O4 2.209358 1_555
Bi2 O18 2.296504 1_555
Bi2 O23 2.394131 1_555
Bi2 O12 2.409903 1_555
Bi2 O66 2.470224 1_555
Bi2 O34 2.615510 1_555
Bi3 O5 2.209358 1_555
Bi3 O19 2.296504 1_555
Bi3 O22 2.394131 1_655
Bi3 O13 2.409903 1_655
Bi3 O67 2.470224 1_555
Bi3 O35 2.615510 1_655
Bi4 O2 2.209358 1_555
Bi4 O20 2.296504 1_555
Bi4 O17 2.394131 1_655
Bi4 O10 2.409903 1_655
Bi4 O68 2.470224 1_555
Bi4 O36 2.615510 1_655
Bi5 O3 2.209358 1_555
Bi5 O21 2.296504 1_555
Bi5 O16 2.394131 1_555
Bi5 O11 2.409903 1_555
Bi5 O69 2.470224 1_555
Bi5 O37 2.615510 1_555
Bi6 O0 2.209358 1_555
Bi6 O22 2.296504 1_555
Bi6 O19 2.394131 1_555
Bi6 O8 2.409903 1_555
Bi6 O70 2.470224 1_555
Bi6 O38 2.615510 1_555
Bi7 O1 2.209358 1_555
Bi7 O23 2.296504 1_555
Bi7 O18 2.394131 1_455
Bi7 O9 2.409903 1_455
Bi7 O71 2.470224 1_555
Bi7 O39 2.615510 1_455
Bi8 O14 2.177925 1_555
Bi8 O64 2.357589 1_555
Bi8 O32 2.366692 1_555
Bi8 O6 2.398687 1_555
Bi8 O50 2.461522 1_555
Bi9 O15 2.177925 1_555
Bi9 O65 2.357589 1_655
Bi9 O33 2.366692 1_555
Bi9 O7 2.398687 1_655
Bi9 O51 2.461522 1_556
Bi10 O12 2.177925 1_555
Bi10 O66 2.357589 1_455
Bi10 O34 2.366692 1_555
Bi10 O4 2.398687 1_455
Bi10 O48 2.461522 1_555
Bi11 O13 2.177925 1_555
Bi11 O67 2.357589 1_555
Bi11 O35 2.366692 1_555
Bi11 O5 2.398687 1_555
Bi11 O49 2.461522 1_554
Bi12 O10 2.177925 1_555
Bi12 O68 2.357589 1_555
Bi12 O36 2.366692 1_555
Bi12 O2 2.398687 1_555
Bi12 O54 2.461522 1_555
Bi13 O11 2.177925 1_555
Bi13 O69 2.357589 1_455
Bi13 O37 2.366692 1_555
Bi13 O3 2.398687 1_455
Bi13 O55 2.461522 1_554
Bi14 O8 2.177925 1_555
Bi14 O70 2.357589 1_655
Bi14 O38 2.366692 1_555
Bi14 O0 2.398687 1_655
Bi14 O52 2.461522 1_555
Bi15 O9 2.177925 1_555
Bi15 O71 2.357589 1_555
Bi15 O39 2.366692 1_555
Bi15 O1 2.398687 1_555
Bi15 O53 2.461522 1_556
Bi16 O0 2.172283 1_555
Bi16 O72 2.242795 1_555
Bi16 O8 2.358897 1_555
Bi16 O40 2.371449 1_555
Bi16 O28 2.541223 1_555
Bi17 O1 2.172283 1_555
Bi17 O73 2.242795 1_455
Bi17 O9 2.358897 1_455
Bi17 O41 2.371449 1_555
Bi17 O29 2.541223 1_556
Bi18 O2 2.172283 1_555
Bi18 O74 2.242795 1_645
Bi18 O10 2.358897 1_655
Bi18 O42 2.371449 1_545
Bi18 O30 2.541223 1_555
Bi19 O3 2.172283 1_555
Bi19 O75 2.242795 1_565
Bi19 O11 2.358897 1_555
Bi19 O43 2.371449 1_565
Bi19 O31 2.541223 1_554
Bi20 O4 2.172283 1_555
Bi20 O76 2.242795 1_555
Bi20 O12 2.358897 1_555
Bi20 O44 2.371449 1_555
Bi20 O24 2.541223 1_555
Bi21 O5 2.172283 1_555
Bi21 O77 2.242795 1_655
Bi21 O13 2.358897 1_655
Bi21 O45 2.371449 1_555
Bi21 O25 2.541223 1_554
Bi22 O6 2.172283 1_555
Bi22 O78 2.242795 1_465
Bi22 O14 2.358897 1_455
Bi22 O46 2.371449 1_565
Bi22 O26 2.541223 1_555
Bi23 O7 2.172283 1_555
Bi23 O79 2.242795 1_545
Bi23 O15 2.358897 1_555
Bi23 O47 2.371449 1_545
Bi23 O27 2.541223 1_556
Bi24 O19 2.322781 1_555
Bi24 O22 2.363370 1_655
Bi24 O61 2.400802 1_555
Bi24 O8 2.444108 1_555
Bi24 O72 2.508460 1_555
Bi24 O56 2.571853 1_655
Bi24 O0 2.748327 1_655
Bi24 O40 2.799775 1_655
Bi25 O18 2.322781 1_555
Bi25 O23 2.363370 1_555
Bi25 O60 2.400802 1_555
Bi25 O9 2.444108 1_555
Bi25 O73 2.508460 1_555
Bi25 O57 2.571853 1_555
Bi25 O1 2.748327 1_555
Bi25 O41 2.799775 1_555
Bi26 O17 2.322781 1_555
Bi26 O20 2.363370 1_555
Bi26 O63 2.400802 1_545
Bi26 O10 2.444108 1_555
Bi26 O74 2.508460 1_545
Bi26 O58 2.571853 1_545
Bi26 O2 2.748327 1_555
Bi26 O42 2.799775 1_545
Bi27 O16 2.322781 1_555
Bi27 O21 2.363370 1_455
Bi27 O62 2.400802 1_565
Bi27 O11 2.444108 1_555
Bi27 O75 2.508460 1_565
Bi27 O59 2.571853 1_465
Bi27 O3 2.748327 1_455
Bi27 O43 2.799775 1_465
Bi28 O23 2.322781 1_555
Bi28 O18 2.363370 1_455
Bi28 O57 2.400802 1_555
Bi28 O12 2.444108 1_555
Bi28 O76 2.508460 1_555
Bi28 O60 2.571853 1_455
Bi28 O4 2.748327 1_455
Bi28 O44 2.799775 1_455
Bi29 O22 2.322781 1_555
Bi29 O19 2.363370 1_555
Bi29 O56 2.400802 1_555
Bi29 O13 2.444108 1_555
Bi29 O77 2.508460 1_555
Bi29 O61 2.571853 1_555
Bi29 O5 2.748327 1_555
Bi29 O45 2.799775 1_555
Bi30 O21 2.322781 1_555
Bi30 O16 2.363370 1_555
Bi30 O59 2.400802 1_565
Bi30 O14 2.444108 1_555
Bi30 O78 2.508460 1_565
Bi30 O62 2.571853 1_565
Bi30 O6 2.748327 1_555
Bi30 O46 2.799775 1_565
Bi31 O20 2.322781 1_555
Bi31 O17 2.363370 1_655
Bi31 O58 2.400802 1_545
Bi31 O15 2.444108 1_555
Bi31 O79 2.508460 1_545
Bi31 O63 2.571853 1_645
Bi31 O7 2.748327 1_655
Bi31 O47 2.799775 1_645
B0 O56 1.373137 1_555
B0 O72 1.399517 1_555
B0 O64 1.401066 1_555
B1 O57 1.373137 1_555
B1 O73 1.399517 1_455
B1 O65 1.401066 1_555
B2 O58 1.373137 1_555
B2 O74 1.399517 1_655
B2 O66 1.401066 1_555
B3 O59 1.373137 1_555
B3 O75 1.399517 1_555
B3 O67 1.401066 1_555
B4 O60 1.373137 1_555
B4 O76 1.399517 1_555
B4 O68 1.401066 1_555
B5 O61 1.373137 1_555
B5 O77 1.399517 1_655
B5 O69 1.401066 1_555
B6 O62 1.373137 1_555
B6 O78 1.399517 1_455
B6 O70 1.401066 1_555
B7 O63 1.373137 1_555
B7 O79 1.399517 1_555
B7 O71 1.401066 1_555
O24 P0 1.549448 1_555
O25 P1 1.549448 1_555
O26 P2 1.549448 1_555
O27 P3 1.549448 1_555
O28 P4 1.549448 1_555
O29 P5 1.549448 1_555
O30 P6 1.549448 1_555
O31 P7 1.549448 1_555
O32 P0 1.579938 1_555
O33 P1 1.579938 1_555
O34 P2 1.579938 1_555
O35 P3 1.579938 1_555
O36 P4 1.579938 1_555
O37 P5 1.579938 1_555
O38 P6 1.579938 1_555
O39 P7 1.579938 1_555
O40 P0 1.555539 1_455
O41 P1 1.555539 1_555
O42 P2 1.555539 1_555
O43 P3 1.555539 1_655
O44 P4 1.555539 1_655
O45 P5 1.555539 1_555
O46 P6 1.555539 1_555
O47 P7 1.555539 1_455
O48 P0 1.557473 1_455
O49 P1 1.557473 1_555
O50 P2 1.557473 1_555
O51 P3 1.557473 1_655
O52 P4 1.557473 1_655
O53 P5 1.557473 1_555
O54 P6 1.557473 1_555
O55 P7 1.557473 1_455
