# generated using pymatgen
data_Ba2MgMo4(Se2O11)2
_symmetry_space_group_name_H-M   'P 1'
_cell_length_a   7.97484725
_cell_length_b   8.35720026
_cell_length_c   9.04405081
_cell_angle_alpha   117.51801551
_cell_angle_beta   88.29691127
_cell_angle_gamma   93.68811943
_symmetry_Int_Tables_number   1
_chemical_formula_structural   Ba2MgMo4(Se2O11)2
_chemical_formula_sum   'Ba2 Mg1 Mo4 Se4 O22'
_cell_volume   533.46216161
_cell_formula_units_Z   1
loop_
 _symmetry_equiv_pos_site_id
 _symmetry_equiv_pos_as_xyz
  1  'x, y, z'
loop_
 _atom_site_type_symbol
 _atom_site_label
 _atom_site_symmetry_multiplicity
 _atom_site_fract_x
 _atom_site_fract_y
 _atom_site_fract_z
 _atom_site_occupancy
  Ba  Ba0  1  0.69311800  0.17142300  0.00000000  1
  Ba  Ba1  1  0.14462500  0.79396100  0.00000000  1
  Mg  Mg0  1  0.39322200  0.44561200  0.00000000  1
  Mo  Mo0  1  0.65107400  0.84932100  0.21650400  1
  Mo  Mo1  1  0.16623000  0.15202900  0.78362500  1
  Mo  Mo2  1  0.65107400  0.63281800  0.78349600  1
  Mo  Mo3  1  0.16623000  0.36840400  0.21637500  1
  Se  Se0  1  0.81687900  0.31076500  0.43012900  1
  Se  Se1  1  0.31238200  0.13827100  0.41390500  1
  Se  Se2  1  0.81687900  0.88063400  0.56987100  1
  Se  Se3  1  0.31238200  0.72436500  0.58609500  1
  O  O0  1  0.17193500  0.55018700  0.16124400  1
  O  O1  1  0.60022700  0.84561000  0.00000000  1
  O  O2  1  0.38734200  0.93662200  0.26980800  1
  O  O3  1  0.68100300  0.85143400  0.70948200  1
  O  O4  1  0.38734200  0.66681400  0.73019200  1
  O  O5  1  0.86831100  0.82344900  0.18422600  1
  O  O6  1  0.38291700  0.31355400  0.16207300  1
  O  O7  1  0.90170300  0.37938400  0.28738700  1
  O  O8  1  0.19273500  0.05433600  0.53204000  1
  O  O9  1  0.90170300  0.09199700  0.71261300  1
  O  O10  1  0.55923700  0.46280400  0.83610700  1
  O  O11  1  0.67020000  0.47482100  0.52692800  1
  O  O12  1  0.68100300  0.14195200  0.29051800  1
  O  O13  1  0.55923700  0.62669600  0.16389300  1
  O  O14  1  0.38291700  0.15148100  0.83792700  1
  O  O15  1  0.06992300  0.17510400  0.00000000  1
  O  O16  1  0.15156000  0.14820600  0.29299300  1
  O  O17  1  0.15156000  0.85521300  0.70700700  1
  O  O18  1  0.67020000  0.94789200  0.47307200  1
  O  O19  1  0.86831100  0.63922400  0.81577400  1
  O  O20  1  0.19273500  0.52229500  0.46796000  1
  O  O21  1  0.17193500  0.38894400  0.83875600  1
loop_
_geom_bond_atom_site_label_1
_geom_bond_atom_site_label_2
_geom_bond_distance
_geom_bond_site_symmetry_2
Ba0 O12 2.748340 1_555
Ba0 O3 2.748340 1_544
Ba0 O1 2.775495 1_545
Ba0 O6 2.869287 1_555
Ba0 O14 2.869287 1_554
Ba0 O9 2.872975 1_554
Ba0 O7 2.872975 1_555
Ba0 O15 3.003140 1_655
Ba1 O19 2.676691 1_454
Ba1 O5 2.676692 1_455
Ba1 O4 2.901382 1_554
Ba1 O2 2.901382 1_555
Ba1 O17 2.920247 1_554
Ba1 O16 2.920247 1_565
Ba1 O21 3.024196 1_554
Ba1 O0 3.024204 1_555
Ba1 O15 3.277971 1_565
Mg0 O13 2.006544 1_555
Mg0 O10 2.006547 1_554
Mg0 O6 2.202122 1_555
Mg0 O14 2.202122 1_554
Mg0 O0 2.207364 1_555
Mg0 O21 2.207365 1_554
Mo0 O5 1.758719 1_555
Mo0 O13 1.803249 1_555
Mo0 O1 1.997224 1_555
Mo0 O18 2.079599 1_555
Mo0 O12 2.215306 1_565
Mo0 O2 2.236154 1_555
Mo1 O21 1.802327 1_555
Mo1 O14 1.811324 1_555
Mo1 O15 2.009365 1_556
Mo1 O8 2.040948 1_555
Mo1 O9 2.181984 1_455
Mo1 O17 2.241905 1_545
Mo2 O19 1.758719 1_555
Mo2 O10 1.803249 1_555
Mo2 O1 1.997220 1_556
Mo2 O11 2.079599 1_555
Mo2 O3 2.215298 1_555
Mo2 O4 2.236152 1_555
Mo3 O0 1.802319 1_555
Mo3 O6 1.811324 1_555
Mo3 O15 2.009365 1_555
Mo3 O20 2.040948 1_555
Mo3 O7 2.181984 1_455
Mo3 O16 2.241905 1_555
O2 Se1 1.717436 1_565
O3 Se2 1.731294 1_555
O4 Se3 1.717431 1_555
O7 Se0 1.742220 1_555
O8 Se1 1.757793 1_555
O9 Se2 1.742231 1_545
O11 Se0 1.746658 1_555
O12 Se0 1.731302 1_555
O16 Se1 1.740276 1_555
O17 Se3 1.740279 1_555
O18 Se2 1.746663 1_555
O20 Se3 1.757793 1_555
