# generated using pymatgen
data_SrLa(FeO3)2
_symmetry_space_group_name_H-M   'P 1'
_cell_length_a   5.49124261
_cell_length_b   7.96900161
_cell_length_c   5.54964383
_cell_angle_alpha   89.26945850
_cell_angle_beta   89.97568490
_cell_angle_gamma   90.72094660
_symmetry_Int_Tables_number   1
_chemical_formula_structural   SrLa(FeO3)2
_chemical_formula_sum   'Sr2 La2 Fe4 O12'
_cell_volume   242.81186186
_cell_formula_units_Z   2
loop_
 _symmetry_equiv_pos_site_id
 _symmetry_equiv_pos_as_xyz
  1  'x, y, z'
loop_
 _atom_site_type_symbol
 _atom_site_label
 _atom_site_symmetry_multiplicity
 _atom_site_fract_x
 _atom_site_fract_y
 _atom_site_fract_z
 _atom_site_occupancy
  Sr  Sr0  1  0.49956900  0.25076400  0.00099300  1
  Sr  Sr1  1  0.99956800  0.75073300  0.50094700  1
  La  La0  1  0.50071200  0.74902700  0.00171000  1
  La  La1  1  0.00076800  0.24907800  0.50163900  1
  Fe  Fe0  1  0.50021800  0.00034100  0.50036900  1
  Fe  Fe1  1  0.99970800  0.99981900  0.00068600  1
  Fe  Fe2  1  0.00022200  0.50035000  0.00032700  1
  Fe  Fe3  1  0.49973500  0.49983300  0.50073600  1
  O  O0  1  0.22376200  0.52335200  0.73295700  1
  O  O1  1  0.72372300  0.02334800  0.23294500  1
  O  O2  1  0.26728400  0.47676400  0.22262300  1
  O  O3  1  0.76729600  0.97670400  0.72260600  1
  O  O4  1  0.00018800  0.75640100  0.04471800  1
  O  O5  1  0.50012900  0.25640600  0.54476800  1
  O  O6  1  0.72442400  0.53062800  0.78513200  1
  O  O7  1  0.22438000  0.03066100  0.28515700  1
  O  O8  1  0.00019800  0.24362800  0.93651200  1
  O  O9  1  0.50017600  0.74363100  0.43653800  1
  O  O10  1  0.78396000  0.46930700  0.27429500  1
  O  O11  1  0.28398100  0.96922300  0.77434300  1
loop_
_geom_bond_atom_site_label_1
_geom_bond_atom_site_label_2
_geom_bond_distance
_geom_bond_site_symmetry_2
La0 O9 2.412975 1_555
La0 O11 2.466786 1_554
La0 O6 2.467530 1_554
La0 O4 2.753166 1_655
La0 O4 2.760169 1_555
La0 O3 2.773731 1_554
La0 O2 2.777477 1_555
La0 O0 2.788030 1_554
La0 O1 2.816173 1_565
La1 O8 2.413227 1_555
La1 O7 2.467091 1_555
La1 O10 2.467117 1_455
La1 O5 2.752592 1_555
La1 O5 2.760843 1_455
La1 O2 2.773315 1_555
La1 O3 2.778396 1_445
La1 O1 2.788415 1_455
La1 O0 2.816057 1_555
Fe0 O3 1.926149 1_545
Fe0 O1 1.930896 1_555
Fe0 O11 1.940276 1_545
Fe0 O7 1.944874 1_555
Fe0 O5 2.058527 1_555
Fe0 O9 2.080609 1_545
Fe1 O4 1.952071 1_655
Fe1 O8 1.970783 1_664
Fe1 O1 2.001239 1_565
Fe1 O3 2.011792 1_554
Fe1 O7 2.019590 1_665
Fe1 O11 2.022319 1_654
Fe2 O2 1.926251 1_555
Fe2 O0 1.930785 1_554
Fe2 O10 1.940268 1_455
Fe2 O6 1.944602 1_454
Fe2 O4 2.058407 1_555
Fe2 O8 2.080688 1_554
Fe3 O5 1.952135 1_555
Fe3 O9 1.970722 1_555
Fe3 O0 2.001045 1_555
Fe3 O2 2.012034 1_555
Fe3 O6 2.019275 1_555
Fe3 O10 2.022377 1_555
O0 Sr1 2.540628 1_455
O0 Sr0 3.037671 1_556
O1 Sr0 2.540558 1_555
O1 Sr1 3.037840 1_545
O2 Sr0 2.548794 1_555
O2 Sr1 3.078704 1_455
O3 Sr1 2.548671 1_555
O3 Sr0 3.079435 1_566
O4 Sr1 2.531736 1_455
O4 Sr1 3.018652 1_454
O5 Sr0 2.531712 1_556
O5 Sr0 3.018668 1_555
O6 Sr1 2.776223 1_555
O6 Sr0 2.791940 1_556
O7 Sr0 2.776280 1_555
O7 Sr1 2.792075 1_445
O8 Sr0 2.765537 1_556
O8 Sr0 2.773503 1_456
O9 Sr1 2.765597 1_555
O9 Sr1 2.773328 1_455
O10 Sr0 2.788053 1_555
O10 Sr1 2.831946 1_555
O11 Sr1 2.788144 1_455
O11 Sr0 2.832622 1_566
