# generated using pymatgen
data_K3In(PO4)2
_symmetry_space_group_name_H-M   'P 1'
_cell_length_a   9.65571812
_cell_length_b   9.68555497
_cell_length_c   9.76572485
_cell_angle_alpha   89.51139161
_cell_angle_beta   88.94482968
_cell_angle_gamma   70.93177396
_symmetry_Int_Tables_number   1
_chemical_formula_structural   K3In(PO4)2
_chemical_formula_sum   'K12 In4 P8 O32'
_cell_volume   863.03824453
_cell_formula_units_Z   4
loop_
 _symmetry_equiv_pos_site_id
 _symmetry_equiv_pos_as_xyz
  1  'x, y, z'
loop_
 _atom_site_type_symbol
 _atom_site_label
 _atom_site_symmetry_multiplicity
 _atom_site_fract_x
 _atom_site_fract_y
 _atom_site_fract_z
 _atom_site_occupancy
  K  K0  1  0.61206687  0.38161927  0.74334591  1
  K  K1  1  0.39607853  0.60591499  0.24988803  1
  K  K2  1  0.11806833  0.87824300  0.73784525  1
  K  K3  1  0.86295133  0.12212685  0.27152183  1
  K  K4  1  0.36342467  0.14673734  0.70613670  1
  K  K5  1  0.87796548  0.59946666  0.81647950  1
  K  K6  1  0.61554447  0.86395938  0.29198614  1
  K  K7  1  0.13023001  0.38463821  0.18742742  1
  K  K8  1  0.72463098  0.90819532  0.61370615  1
  K  K9  1  0.19354445  0.99106801  0.40354225  1
  K  K10  1  0.01996360  0.81058331  0.09600379  1
  K  K11  1  0.97445761  0.18239261  0.90281179  1
  In  In0  1  0.23797131  0.51693904  0.57810750  1
  In  In1  1  0.48064308  0.76297617  0.91949765  1
  In  In2  1  0.76965304  0.48779955  0.41878559  1
  In  In3  1  0.51701052  0.23232079  0.08113016  1
  P  P0  1  0.00779801  0.30178833  0.56863704  1
  P  P1  1  0.70258916  0.98754403  0.93323621  1
  P  P2  1  0.99784279  0.70356576  0.43259126  1
  P  P3  1  0.29341623  0.00835775  0.06632486  1
  P  P4  1  0.46101130  0.73647083  0.57682577  1
  P  P5  1  0.26833266  0.54136057  0.92365706  1
  P  P6  1  0.54331176  0.26593856  0.42121677  1
  P  P7  1  0.73392393  0.45557874  0.07490443  1
  O  O0  1  0.13307122  0.35796041  0.60875593  1
  O  O1  1  0.65290217  0.85689761  0.89321985  1
  O  O2  1  0.86101963  0.66225942  0.39717160  1
  O  O3  1  0.34508509  0.13780946  0.10325457  1
  O  O4  1  0.42975342  0.89938785  0.55975689  1
  O  O5  1  0.10867461  0.56817244  0.95679305  1
  O  O6  1  0.59322965  0.10206825  0.43845191  1
  O  O7  1  0.89380318  0.42439987  0.03905026  1
  O  O8  1  0.04182958  0.14757871  0.62464878  1
  O  O9  1  0.85668504  0.95890785  0.87475911  1
  O  O10  1  0.97810645  0.85558520  0.37679452  1
  O  O11  1  0.13847977  0.03657171  0.12341391  1
  O  O12  1  0.53052227  0.68260467  0.71645259  1
  O  O13  1  0.31484226  0.47521364  0.78049401  1
  O  O14  1  0.46773100  0.31356252  0.28243486  1
  O  O15  1  0.69263940  0.52934100  0.21587334  1
  O  O16  1  0.31617959  0.70226887  0.55914917  1
  O  O17  1  0.29439549  0.69097660  0.93469973  1
  O  O18  1  0.67807637  0.31697931  0.43323382  1
  O  O19  1  0.70321106  0.30776192  0.07054557  1
  O  O20  1  0.56882392  0.65293987  0.46409367  1
  O  O21  1  0.36609322  0.43659514  0.02922900  1
  O  O22  1  0.43282283  0.34417800  0.53493976  1
  O  O23  1  0.63552057  0.55854118  0.96798937  1
  O  O24  1  0.85983101  0.40955444  0.62479710  1
  O  O25  1  0.59177422  0.13169765  0.87627441  1
  O  O26  1  0.13990488  0.58867955  0.37417977  1
  O  O27  1  0.40251239  0.86340438  0.12466500  1
  O  O28  1  0.98769551  0.30787371  0.40971215  1
  O  O29  1  0.69621961  0.00990168  0.09113020  1
  O  O30  1  0.01723529  0.69508473  0.59129960  1
  O  O31  1  0.30129919  0.98385631  0.90833145  1
loop_
_geom_bond_atom_site_label_1
_geom_bond_atom_site_label_2
_geom_bond_distance
_geom_bond_site_symmetry_2
K0 O24 2.729906 1_555
K0 O13 2.730787 1_555
K0 O12 2.771675 1_555
K0 O22 2.796700 1_555
K0 O25 2.798206 1_555
K0 O23 2.852441 1_555
K1 O14 2.703766 1_555
K1 O15 2.727933 1_555
K1 O27 2.786650 1_555
K1 O26 2.788430 1_555
K1 O21 2.794700 1_555
K1 O20 2.829607 1_555
K1 O16 3.174794 1_555
K1 O17 3.264447 1_554
K2 O8 2.700946 1_565
K2 O30 2.714078 1_555
K2 O9 2.715342 1_455
K2 O16 2.721594 1_555
K2 O17 2.815602 1_555
K2 O31 2.875503 1_555
K3 O18 2.643497 1_555
K3 O10 2.660679 1_545
K3 O19 2.775460 1_555
K3 O28 2.832984 1_555
K3 O29 2.856086 1_555
K3 O11 2.880074 1_655
K3 O6 3.105926 1_555
K4 O0 2.666178 1_555
K4 O4 2.686130 1_545
K4 O31 2.696141 1_545
K4 O25 2.750326 1_555
K4 O22 2.764525 1_555
K4 O13 3.149740 1_555
K5 O5 2.568295 1_655
K5 O24 2.683168 1_555
K5 O7 2.720818 1_556
K5 O1 2.816488 1_555
K5 O30 2.858656 1_655
K5 O23 2.880149 1_555
K6 O27 2.651857 1_555
K6 O29 2.658620 1_565
K6 O6 2.670427 1_565
K6 O2 2.742194 1_555
K6 O20 2.778786 1_555
K6 O4 3.100710 1_555
K6 O15 3.170935 1_555
K7 O7 2.645245 1_455
K7 O3 2.724893 1_555
K7 O26 2.725587 1_555
K7 O28 2.773123 1_455
K7 O5 2.825497 1_554
K7 O21 2.903910 1_555
K8 O6 2.556065 1_565
K8 O1 2.882643 1_555
K8 O30 2.909517 1_655
K9 O4 2.664481 1_555
K9 O8 2.755851 1_565
K9 O11 2.800116 1_565
K9 O10 2.815466 1_455
K9 O16 3.060264 1_555
K9 O28 3.063231 1_465
K10 O5 2.606146 1_554
K10 O10 2.781554 1_455
K10 O9 2.794695 1_454
K10 O11 2.798220 1_565
K10 O17 2.952413 1_554
K10 O29 3.092212 1_465
K11 O7 2.587115 1_556
K11 O9 2.771915 1_545
K11 O8 2.779077 1_655
K11 O11 2.785041 1_656
K11 O19 2.969037 1_556
K11 O31 3.114417 1_645
In0 O22 2.107897 1_555
In0 O13 2.113060 1_555
In0 O0 2.118140 1_555
In0 O16 2.168297 1_555
In0 O26 2.227436 1_555
In0 O30 2.264348 1_555
In1 O23 2.111077 1_555
In1 O12 2.125075 1_555
In1 O17 2.133128 1_555
In1 O1 2.151466 1_555
In1 O27 2.242282 1_556
In1 O31 2.273727 1_555
In2 O20 2.113837 1_555
In2 O18 2.118118 1_555
In2 O15 2.118188 1_555
In2 O2 2.153866 1_555
In2 O24 2.233251 1_555
In2 O28 2.252959 1_555
In3 O21 2.102662 1_555
In3 O14 2.111298 1_555
In3 O3 2.148663 1_555
In3 O19 2.151107 1_555
In3 O25 2.234635 1_554
In3 O29 2.282893 1_555
O0 P0 1.537439 1_555
O1 P1 1.547929 1_555
O2 P2 1.545839 1_555
O3 P3 1.540799 1_555
O4 P4 1.514916 1_555
O5 P5 1.506721 1_555
O6 P6 1.509423 1_555
O7 P7 1.508061 1_555
O8 P0 1.519883 1_555
O9 P1 1.522721 1_555
O10 P2 1.519202 1_555
O11 P3 1.525893 1_555
O12 P4 1.541019 1_555
O13 P5 1.539791 1_555
O14 P6 1.545324 1_555
O15 P7 1.541103 1_555
O16 P4 1.551697 1_555
O17 P5 1.554617 1_555
O18 P6 1.542186 1_555
O19 P7 1.555121 1_555
O20 P4 1.540435 1_555
O21 P5 1.541355 1_554
O22 P6 1.545415 1_555
O23 P7 1.545030 1_556
O24 P0 1.561424 1_655
O25 P1 1.560860 1_545
O26 P2 1.558805 1_455
O27 P3 1.564445 1_565
O28 P0 1.565876 1_655
O29 P1 1.556208 1_544
O30 P2 1.562841 1_455
O31 P3 1.559753 1_566
