# generated using pymatgen
data_Te2MoWS2
_symmetry_space_group_name_H-M   'P 1'
_cell_length_a   3.35895357
_cell_length_b   3.35895357
_cell_length_c   38.34067200
_cell_angle_alpha   90.00000000
_cell_angle_beta   90.00000000
_cell_angle_gamma   119.99999157
_symmetry_Int_Tables_number   1
_chemical_formula_structural   Te2MoWS2
_chemical_formula_sum   'Te4 Mo2 W2 S4'
_cell_volume   374.62641050
_cell_formula_units_Z   2
loop_
 _symmetry_equiv_pos_site_id
 _symmetry_equiv_pos_as_xyz
  1  'x, y, z'
loop_
 _atom_site_type_symbol
 _atom_site_label
 _atom_site_symmetry_multiplicity
 _atom_site_fract_x
 _atom_site_fract_y
 _atom_site_fract_z
 _atom_site_occupancy
  Te  Te0  1  0.00000000  0.00000000  0.33113600  1
  Te  Te1  1  0.00000000  0.00000000  0.70716000  1
  Te  Te2  1  0.00000000  0.00000000  0.23248600  1
  Te  Te3  1  0.00000000  0.00000000  0.60789600  1
  Mo  Mo0  1  0.00000000  0.00000000  0.46965900  1
  Mo  Mo1  1  0.33333300  0.66666700  0.28179600  1
  W  W0  1  0.00000000  0.00000000  0.09390900  1
  W  W1  1  0.33333300  0.66666700  0.65755200  1
  S  S0  1  0.33333300  0.66666700  0.05428800  1
  S  S1  1  0.33333300  0.66666700  0.43020200  1
  S  S2  1  0.33333300  0.66666700  0.13354500  1
  S  S3  1  0.33333300  0.66666700  0.50911700  1
loop_
_geom_bond_atom_site_label_1
_geom_bond_atom_site_label_2
_geom_bond_distance
_geom_bond_site_symmetry_2
Te1 W1 2.716334 1_545
Te1 W1 2.716336 1_555
Te1 W1 2.716336 1_445
Te3 W1 2.717623 1_545
Te3 W1 2.717625 1_555
Te3 W1 2.717625 1_445
Mo0 S1 2.459560 1_545
Mo0 S1 2.459563 1_445
Mo0 S1 2.459563 1_555
Mo0 S3 2.459584 1_545
Mo0 S3 2.459586 1_555
Mo0 S3 2.459586 1_445
Mo1 Te2 2.708346 1_565
Mo1 Te2 2.708348 1_665
Mo1 Te2 2.708348 1_555
Mo1 Te0 2.709149 1_565
Mo1 Te0 2.709151 1_665
Mo1 Te0 2.709151 1_555
S0 W0 2.463433 1_565
S0 W0 2.463435 1_665
S0 W0 2.463435 1_555
S2 W0 2.463787 1_565
S2 W0 2.463790 1_665
S2 W0 2.463790 1_555
