# generated using pymatgen
data_TaMnGe
_symmetry_space_group_name_H-M   'P 1'
_cell_length_a   7.81635862
_cell_length_b   7.81635862
_cell_length_c   7.81635862
_cell_angle_alpha   127.03500691
_cell_angle_beta   126.86137166
_cell_angle_gamma   78.33530835
_symmetry_Int_Tables_number   1
_chemical_formula_structural   TaMnGe
_chemical_formula_sum   'Ta6 Mn6 Ge6'
_cell_volume   295.38246724
_cell_formula_units_Z   6
loop_
 _symmetry_equiv_pos_site_id
 _symmetry_equiv_pos_as_xyz
  1  'x, y, z'
loop_
 _atom_site_type_symbol
 _atom_site_label
 _atom_site_symmetry_multiplicity
 _atom_site_fract_x
 _atom_site_fract_y
 _atom_site_fract_z
 _atom_site_occupancy
  Ta  Ta0  1  0.91412900  0.23930700  0.41903300  1
  Ta  Ta1  1  0.08587100  0.50490400  0.32517800  1
  Ta  Ta2  1  0.32027400  0.23930700  0.82517800  1
  Ta  Ta3  1  0.67972600  0.50490400  0.91903300  1
  Ta  Ta4  1  0.50000000  0.76136500  0.26136500  1
  Ta  Ta5  1  0.00000000  0.76136500  0.76136500  1
  Mn  Mn0  1  0.93029700  0.87408600  0.44378900  1
  Mn  Mn1  1  0.06970300  0.51349200  0.94378900  1
  Mn  Mn2  1  0.54364300  0.51025600  0.46661300  1
  Mn  Mn3  1  0.45635700  0.92296900  0.96661300  1
  Mn  Mn4  1  0.73747800  0.09801300  0.86053500  1
  Mn  Mn5  1  0.26252200  0.12305700  0.36053500  1
  Ge  Ge0  1  0.66534200  0.17125100  0.50367500  1
  Ge  Ge1  1  0.33465800  0.83833400  0.50590900  1
  Ge  Ge2  1  0.16757500  0.17125100  0.00590900  1
  Ge  Ge3  1  0.83242500  0.83833400  0.00367500  1
  Ge  Ge4  1  0.71364400  0.45754600  0.24390200  1
  Ge  Ge5  1  0.28635600  0.53025800  0.74390200  1
loop_
_geom_bond_atom_site_label_1
_geom_bond_atom_site_label_2
_geom_bond_distance
_geom_bond_site_symmetry_2
Mn0 Ta3 2.715920 1_554
Mn0 Ta1 2.715920 1_655
Mn0 Ta5 2.837735 1_655
Mn0 Ta4 2.837735 1_555
Mn0 Ta2 2.948374 1_665
Mn0 Ta0 2.948374 1_565
Mn1 Ta2 2.715920 1_555
Mn1 Ta0 2.715920 1_455
Mn1 Ta4 2.837735 1_556
Mn1 Ta5 2.837735 1_555
Mn1 Ta1 2.948374 1_556
Mn1 Ta3 2.948374 1_455
Ge0 Ta3 2.614515 1_555
Ge0 Ta0 2.624490 1_555
Ge0 Ta4 2.636270 1_545
Ge0 Mn5 2.655700 1_555
Ge0 Mn3 2.701471 1_544
Ge0 Mn2 2.754080 1_555
Ge0 Mn0 2.794892 1_545
Ge0 Mn1 2.875503 1_655
Ge0 Mn4 2.886540 1_555
Ge1 Ta2 2.614510 1_565
Ge1 Ta1 2.624497 1_555
Ge1 Ta4 2.636268 1_555
Ge1 Mn4 2.655697 1_565
Ge1 Mn2 2.701477 1_555
Ge1 Mn3 2.754088 1_555
Ge1 Mn1 2.794893 1_554
Ge1 Mn0 2.875503 1_455
Ge1 Mn5 2.886532 1_565
Ge2 Ta1 2.614510 1_555
Ge2 Ta2 2.624497 1_554
Ge2 Ta5 2.636268 1_544
Ge2 Mn5 2.655697 1_555
Ge2 Mn3 2.701481 1_544
Ge2 Mn2 2.754084 1_555
Ge2 Mn0 2.794893 1_444
Ge2 Mn1 2.875503 1_554
Ge2 Mn4 2.886532 1_454
Ge3 Ta0 2.614513 1_565
Ge3 Ta3 2.624502 1_554
Ge3 Ta5 2.636261 1_654
Ge3 Mn4 2.655691 1_564
Ge3 Mn2 2.701474 1_554
Ge3 Mn3 2.754087 1_554
Ge3 Mn1 2.794893 1_654
Ge3 Mn0 2.875511 1_555
Ge3 Mn5 2.886531 1_665
Ge4 Ta2 2.529366 1_554
Ge4 Ta0 2.529366 1_555
Ge4 Mn2 2.579857 1_555
Ge4 Ta4 2.593483 1_555
Ge4 Ta5 2.593483 1_655
Ge4 Ta3 2.634432 1_554
Ge4 Ta1 2.634432 1_655
Ge4 Mn4 2.688022 1_554
Ge4 Mn0 2.972656 1_555
Ge5 Ta1 2.529366 1_555
Ge5 Ta3 2.529366 1_555
Ge5 Mn3 2.579850 1_555
Ge5 Ta5 2.593483 1_555
Ge5 Ta4 2.593483 1_556
Ge5 Ta2 2.634432 1_555
Ge5 Ta0 2.634432 1_455
Ge5 Mn5 2.688022 1_555
Ge5 Mn1 2.972656 1_555
