# generated using pymatgen
data_Cr(FeO2)3
_symmetry_space_group_name_H-M   'P 1'
_cell_length_a   9.89420268
_cell_length_b   9.75812442
_cell_length_c   10.41023344
_cell_angle_alpha   97.09655927
_cell_angle_beta   92.28434856
_cell_angle_gamma   92.56407816
_symmetry_Int_Tables_number   1
_chemical_formula_structural   Cr(FeO2)3
_chemical_formula_sum   'Cr8 Fe24 O48'
_cell_volume   995.35315364
_cell_formula_units_Z   8
loop_
 _symmetry_equiv_pos_site_id
 _symmetry_equiv_pos_as_xyz
  1  'x, y, z'
loop_
 _atom_site_type_symbol
 _atom_site_label
 _atom_site_symmetry_multiplicity
 _atom_site_fract_x
 _atom_site_fract_y
 _atom_site_fract_z
 _atom_site_occupancy
  Cr  Cr0  1  0.67379200  0.84950200  0.59721200  1
  Cr  Cr1  1  0.33425200  0.08762400  0.94374900  1
  Cr  Cr2  1  0.86866900  0.13115900  0.30893700  1
  Cr  Cr3  1  0.39534800  0.28992900  0.70214700  1
  Cr  Cr4  1  0.59345600  0.44872000  0.57121800  1
  Cr  Cr5  1  0.20456000  0.38789800  0.10211100  1
  Cr  Cr6  1  0.10728000  0.19297900  0.60564400  1
  Cr  Cr7  1  0.07288600  0.16490600  0.87417900  1
  Fe  Fe0  1  0.96211800  0.78111100  0.34908000  1
  Fe  Fe1  1  0.15825800  0.54943500  0.62207000  1
  Fe  Fe2  1  0.61383400  0.04704600  0.83497800  1
  Fe  Fe3  1  0.85965400  0.55224500  0.78933800  1
  Fe  Fe4  1  0.75993200  0.61001300  0.42490700  1
  Fe  Fe5  1  0.40786700  0.64993200  0.43465100  1
  Fe  Fe6  1  0.48476900  0.11608500  0.43515700  1
  Fe  Fe7  1  0.12113100  0.75088500  0.86484700  1
  Fe  Fe8  1  0.73249800  0.80808000  0.87047500  1
  Fe  Fe9  1  0.86114100  0.33816300  0.05771700  1
  Fe  Fe10  1  0.60729300  0.38062600  0.28287100  1
  Fe  Fe11  1  0.24338600  0.94435500  0.45688200  1
  Fe  Fe12  1  0.28561700  0.35909200  0.44081700  1
  Fe  Fe13  1  0.61141600  0.83882300  0.30384900  1
  Fe  Fe14  1  0.44670100  0.60525400  0.93724300  1
  Fe  Fe15  1  0.78071900  0.21436000  0.63614600  1
  Fe  Fe16  1  0.18319000  0.98478800  0.17901100  1
  Fe  Fe17  1  0.24161200  0.68776300  0.18719300  1
  Fe  Fe18  1  0.04676900  0.44191700  0.33266400  1
  Fe  Fe19  1  0.51391900  0.34588800  0.97521700  1
  Fe  Fe20  1  0.89975400  0.91728700  0.08234000  1
  Fe  Fe21  1  0.75541700  0.61943600  0.09350500  1
  Fe  Fe22  1  0.34700700  0.82432300  0.72125700  1
  Fe  Fe23  1  0.62339200  0.09833800  0.12166300  1
  O  O0  1  0.55962400  0.25288000  0.58807900  1
  O  O1  1  0.79592400  0.81339400  0.44083700  1
  O  O2  1  0.09825200  0.53471300  0.18256500  1
  O  O3  1  0.15010200  0.81562200  0.32208200  1
  O  O4  1  0.74318000  0.99408900  0.21901800  1
  O  O5  1  0.56246700  0.18697600  0.28773000  1
  O  O6  1  0.00397500  0.02338600  0.24520900  1
  O  O7  1  0.95368300  0.59929000  0.41280900  1
  O  O8  1  0.33830000  0.26802900  0.02238900  1
  O  O9  1  0.75296000  0.03802100  0.97056500  1
  O  O10  1  0.46317300  0.43952600  0.40166700  1
  O  O11  1  0.08768600  0.34812900  0.50963300  1
  O  O12  1  0.42515000  0.72734300  0.27675200  1
  O  O13  1  0.47008200  0.16681300  0.82548700  1
  O  O14  1  0.36084700  0.82509600  0.53882800  1
  O  O15  1  0.96036600  0.20476200  0.72427400  1
  O  O16  1  0.30866200  0.18130300  0.53484600  1
  O  O17  1  0.20486400  0.32073900  0.25936700  1
  O  O18  1  0.77459000  0.70596700  0.71132000  1
  O  O19  1  0.18728500  0.80925900  0.06440000  1
  O  O20  1  0.75782200  0.41071200  0.68554500  1
  O  O21  1  0.32253800  0.70030200  0.85098800  1
  O  O22  1  0.67217200  0.57121000  0.24743100  1
  O  O23  1  0.20652400  0.23577500  0.76266400  1
  O  O24  1  0.49097100  0.44713600  0.82548100  1
  O  O25  1  0.81496600  0.49308200  0.95872600  1
  O  O26  1  0.15476500  0.74731700  0.67364700  1
  O  O27  1  0.90363800  0.29686500  0.24352200  1
  O  O28  1  0.84928500  0.15365800  0.47296800  1
  O  O29  1  0.59133500  0.65607000  0.52622700  1
  O  O30  1  0.05423900  0.32094800  0.99765800  1
  O  O31  1  0.25132300  0.96757200  0.81451800  1
  O  O32  1  0.72340000  0.41544500  0.43845500  1
  O  O33  1  0.92922600  0.80653800  0.91512800  1
  O  O34  1  0.22209700  0.55694300  0.43569400  1
  O  O35  1  0.57828700  0.96070800  0.46752100  1
  O  O36  1  0.32283700  0.03086300  0.31379100  1
  O  O37  1  0.15418100  0.07426400  0.02163400  1
  O  O38  1  0.05080600  0.55565000  0.78311200  1
  O  O39  1  0.55942000  0.85879700  0.76222000  1
  O  O40  1  0.47681900  0.01056200  0.01515400  1
  O  O41  1  0.88495700  0.74856900  0.17675100  1
  O  O42  1  0.72904300  0.03966000  0.69256600  1
  O  O43  1  0.33132900  0.45112300  0.62367800  1
  O  O44  1  0.65692500  0.30147600  0.09568500  1
  O  O45  1  0.08957400  0.01652100  0.54105200  1
  O  O46  1  0.32829900  0.53368200  0.07068500  1
  O  O47  1  0.62345900  0.70802200  0.98999600  1
loop_
_geom_bond_atom_site_label_1
_geom_bond_atom_site_label_2
_geom_bond_distance
_geom_bond_site_symmetry_2
Cr0 O42 2.034274 1_565
Cr0 O29 2.060092 1_555
Cr0 O35 2.060425 1_555
Cr0 O1 2.070658 1_555
Cr0 O39 2.089301 1_555
Cr0 O18 2.192974 1_555
Cr1 O40 1.804778 1_556
Cr1 O31 1.814416 1_545
Cr1 O8 1.845495 1_556
Cr1 O37 1.992284 1_556
Cr1 O13 2.047682 1_555
Cr2 O28 1.714097 1_555
Cr2 O6 1.833779 1_655
Cr2 O27 1.854420 1_555
Cr2 O4 1.912138 1_545
Cr3 O43 1.976883 1_555
Cr3 O13 2.005909 1_555
Cr3 O24 2.045375 1_555
Cr3 O16 2.058142 1_555
Cr3 O23 2.062596 1_555
Cr3 O0 2.069547 1_555
Cr4 O32 1.933065 1_555
Cr4 O0 1.955819 1_555
Cr4 O20 2.051233 1_555
Cr4 O29 2.133286 1_555
Cr4 O10 2.134079 1_555
Cr5 O17 1.836943 1_555
Cr5 O30 1.851998 1_554
Cr5 O46 1.902828 1_555
Cr5 O2 1.941357 1_555
Cr5 O8 1.947853 1_555
Cr6 O45 1.767855 1_555
Cr6 O23 1.864741 1_555
Cr6 O11 1.927018 1_555
Cr6 O15 1.942750 1_455
Cr6 O16 2.154746 1_555
Cr7 O30 1.888220 1_555
Cr7 O23 1.952731 1_555
Cr7 O15 1.968805 1_455
Cr7 O37 2.021476 1_556
Fe0 O41 1.905371 1_555
Fe0 O3 1.913332 1_655
Fe0 O1 1.952636 1_555
Fe0 O7 1.969013 1_555
Fe1 O26 1.941484 1_555
Fe1 O43 2.000399 1_555
Fe1 O38 2.016756 1_555
Fe1 O34 2.073030 1_555
Fe1 O11 2.227189 1_555
Fe2 O13 1.888028 1_555
Fe2 O42 1.902149 1_555
Fe2 O39 1.942469 1_545
Fe2 O9 1.944634 1_555
Fe2 O40 2.409816 1_556
Fe3 O20 1.873518 1_555
Fe3 O38 1.893935 1_655
Fe3 O25 1.982200 1_555
Fe3 O18 1.994395 1_555
Fe4 O7 1.932791 1_555
Fe4 O32 1.940134 1_555
Fe4 O1 1.985890 1_555
Fe4 O22 1.995166 1_555
Fe4 O29 2.046313 1_555
Fe5 O12 1.902489 1_555
Fe5 O14 1.991870 1_555
Fe5 O29 2.011426 1_555
Fe5 O34 2.014125 1_555
Fe5 O10 2.138726 1_555
Fe6 O35 1.869594 1_545
Fe6 O5 1.932300 1_555
Fe6 O0 2.038921 1_555
Fe6 O36 2.077182 1_555
Fe6 O16 2.144361 1_555
Fe7 O26 2.027439 1_555
Fe7 O38 2.066718 1_555
Fe7 O33 2.067705 1_455
Fe7 O21 2.080597 1_555
Fe7 O19 2.152747 1_556
Fe7 O31 2.547272 1_555
Fe8 O18 1.896223 1_555
Fe8 O33 1.984254 1_555
Fe8 O47 1.994570 1_555
Fe8 O39 2.123042 1_555
Fe8 O9 2.350776 1_565
Fe9 O25 1.991274 1_554
Fe9 O30 2.041402 1_654
Fe9 O27 2.055125 1_555
Fe9 O44 2.097841 1_555
Fe10 O5 1.928861 1_555
Fe10 O32 1.933713 1_555
Fe10 O10 1.982770 1_555
Fe10 O22 2.021985 1_555
Fe10 O44 2.091235 1_555
Fe11 O45 1.905106 1_565
Fe11 O14 1.928726 1_555
Fe11 O3 1.938193 1_555
Fe11 O36 1.973366 1_565
Fe11 O16 2.404766 1_565
Fe12 O10 1.970064 1_555
Fe12 O17 2.006187 1_555
Fe12 O43 2.026688 1_555
Fe12 O34 2.063151 1_555
Fe12 O16 2.111208 1_555
Fe12 O11 2.114687 1_555
Fe13 O35 2.000969 1_555
Fe13 O12 2.088730 1_555
Fe13 O4 2.240694 1_555
Fe13 O1 2.312653 1_555
Fe13 O22 2.704693 1_555
Fe14 O21 1.842691 1_555
Fe14 O24 1.893068 1_555
Fe14 O47 1.999066 1_555
Fe14 O46 2.021433 1_556
Fe15 O28 1.891020 1_555
Fe15 O42 1.925071 1_555
Fe15 O20 1.947206 1_555
Fe15 O15 1.978879 1_555
Fe15 O0 2.282515 1_555
Fe16 O36 1.927147 1_565
Fe16 O6 1.963162 1_565
Fe16 O19 1.965734 1_555
Fe16 O37 1.966526 1_565
Fe16 O3 2.376647 1_555
Fe17 O19 1.924910 1_555
Fe17 O12 2.007345 1_555
Fe17 O2 2.007982 1_555
Fe17 O3 2.029245 1_555
Fe17 O46 2.053066 1_555
Fe18 O7 1.942643 1_455
Fe18 O2 1.973025 1_555
Fe18 O27 2.064338 1_455
Fe18 O17 2.113047 1_555
Fe18 O11 2.187646 1_555
Fe18 O34 2.190789 1_555
Fe19 O44 1.952001 1_556
Fe19 O24 1.957007 1_555
Fe19 O8 1.969711 1_556
Fe19 O13 2.208296 1_555
Fe20 O33 1.971520 1_554
Fe20 O41 2.021797 1_555
Fe20 O6 2.083590 1_665
Fe20 O4 2.236567 1_555
Fe20 O9 2.282230 1_564
Fe21 O41 1.865135 1_555
Fe21 O25 1.881347 1_554
Fe21 O22 1.929872 1_555
Fe21 O47 1.957546 1_554
Fe22 O31 1.910281 1_555
Fe22 O14 1.910412 1_555
Fe22 O21 1.936711 1_555
Fe22 O26 2.033017 1_555
Fe22 O39 2.131157 1_555
Fe23 O40 1.895312 1_555
Fe23 O4 1.932248 1_545
Fe23 O5 1.964814 1_555
Fe23 O44 2.047749 1_555
Fe23 O9 2.112725 1_554
