# generated using pymatgen
data_LiGd(WO4)2
_symmetry_space_group_name_H-M   'P 1'
_cell_length_a   5.89820200
_cell_length_b   5.16100800
_cell_length_c   11.03609147
_cell_angle_alpha   66.93328721
_cell_angle_beta   90.00000000
_cell_angle_gamma   90.00000000
_symmetry_Int_Tables_number   1
_chemical_formula_structural   LiGd(WO4)2
_chemical_formula_sum   'Li2 Gd2 W4 O16'
_cell_volume   309.08686885
_cell_formula_units_Z   2
loop_
 _symmetry_equiv_pos_site_id
 _symmetry_equiv_pos_as_xyz
  1  'x, y, z'
loop_
 _atom_site_type_symbol
 _atom_site_label
 _atom_site_symmetry_multiplicity
 _atom_site_fract_x
 _atom_site_fract_y
 _atom_site_fract_z
 _atom_site_occupancy
  Li  Li0  1  0.68994900  0.00000000  0.75000000  1
  Li  Li1  1  0.31005100  0.00000000  0.25000000  1
  Gd  Gd0  1  0.30409000  0.50000000  0.75000000  1
  Gd  Gd1  1  0.69591000  0.50000000  0.25000000  1
  W  W0  1  0.82636800  0.73667300  0.51373000  1
  W  W1  1  0.17363200  0.26332700  0.48627000  1
  W  W2  1  0.82636800  0.26332700  0.98627000  1
  W  W3  1  0.17363200  0.73667300  0.01373000  1
  O  O0  1  0.89383000  0.85538600  0.09576400  1
  O  O1  1  0.10617000  0.14461400  0.90423600  1
  O  O2  1  0.89383000  0.14461400  0.40423600  1
  O  O3  1  0.10617000  0.85538600  0.59576400  1
  O  O4  1  0.37230700  0.72328600  0.88842700  1
  O  O5  1  0.62769300  0.27671400  0.11157300  1
  O  O6  1  0.37230700  0.27671400  0.61157300  1
  O  O7  1  0.62769300  0.72328600  0.38842700  1
  O  O8  1  0.91301700  0.64479500  0.88886500  1
  O  O9  1  0.08698300  0.35520500  0.11113500  1
  O  O10  1  0.91301700  0.35520500  0.61113500  1
  O  O11  1  0.08698300  0.64479500  0.38886500  1
  O  O12  1  0.62800300  0.76969800  0.63386400  1
  O  O13  1  0.37199700  0.23030200  0.36613600  1
  O  O14  1  0.62800300  0.23030200  0.86613600  1
  O  O15  1  0.37199700  0.76969800  0.13386400  1
loop_
_geom_bond_atom_site_label_1
_geom_bond_atom_site_label_2
_geom_bond_distance
_geom_bond_site_symmetry_2
Li0 O12 2.093493 1_545
Li0 O14 2.093493 1_555
Li0 O8 2.288861 1_545
Li0 O10 2.288861 1_555
Li0 O4 2.484719 1_545
Li0 O6 2.484719 1_555
Li1 O15 2.093493 1_545
Li1 O13 2.093493 1_555
Li1 O9 2.288861 1_555
Li1 O11 2.288861 1_545
Li1 O5 2.484719 1_555
Li1 O7 2.484719 1_545
Gd0 O3 2.275475 1_555
Gd0 O1 2.275475 1_555
Gd0 O4 2.281062 1_555
Gd0 O6 2.281062 1_555
Gd0 O14 2.414999 1_555
Gd0 O12 2.414999 1_555
Gd1 O0 2.275475 1_555
Gd1 O2 2.275475 1_555
Gd1 O5 2.281062 1_555
Gd1 O7 2.281062 1_555
Gd1 O15 2.414999 1_555
Gd1 O13 2.414999 1_555
O0 W2 2.014347 1_564
O0 W3 2.086442 1_655
O1 W3 2.014347 1_546
O1 W2 2.086442 1_455
O2 W0 2.014347 1_545
O2 W1 2.086442 1_655
O3 W1 2.014347 1_565
O3 W0 2.086442 1_455
O4 W3 1.834422 1_556
O5 W2 1.834422 1_554
O6 W1 1.834422 1_555
O7 W0 1.834422 1_555
O8 W2 1.906405 1_555
O8 W3 2.235775 1_656
O9 W3 1.906405 1_555
O9 W2 2.235775 1_454
O10 W0 1.906405 1_555
O10 W1 2.235775 1_655
O11 W1 1.906405 1_555
O11 W0 2.235775 1_455
O12 W0 1.825593 1_555
O13 W1 1.825593 1_555
O14 W2 1.825593 1_555
O15 W3 1.825593 1_555
