# generated using pymatgen
data_Lu(Mo3S4)2
_symmetry_space_group_name_H-M   'P 1'
_cell_length_a   6.47657473
_cell_length_b   6.47657473
_cell_length_c   6.47657463
_cell_angle_alpha   89.81593682
_cell_angle_beta   89.81593682
_cell_angle_gamma   89.81593799
_symmetry_Int_Tables_number   1
_chemical_formula_structural   Lu(Mo3S4)2
_chemical_formula_sum   'Lu1 Mo6 S8'
_cell_volume   271.66233350
_cell_formula_units_Z   1
loop_
 _symmetry_equiv_pos_site_id
 _symmetry_equiv_pos_as_xyz
  1  'x, y, z'
loop_
 _atom_site_type_symbol
 _atom_site_label
 _atom_site_symmetry_multiplicity
 _atom_site_fract_x
 _atom_site_fract_y
 _atom_site_fract_z
 _atom_site_occupancy
  Lu  Lu0  1  0.00000000  0.00000000  0.00000000  1
  Mo  Mo0  1  0.77690900  0.58127000  0.44070400  1
  Mo  Mo1  1  0.44070400  0.77690900  0.58127000  1
  Mo  Mo2  1  0.58127000  0.44070400  0.77690900  1
  Mo  Mo3  1  0.22309100  0.41873000  0.55929600  1
  Mo  Mo4  1  0.55929600  0.22309100  0.41873000  1
  Mo  Mo5  1  0.41873000  0.55929600  0.22309100  1
  S  S0  1  0.76509900  0.76509900  0.76509900  1
  S  S1  1  0.23490100  0.23490100  0.23490100  1
  S  S2  1  0.24832400  0.63277800  0.87240600  1
  S  S3  1  0.87240600  0.24832400  0.63277800  1
  S  S4  1  0.63277800  0.87240600  0.24832400  1
  S  S5  1  0.75167600  0.36722200  0.12759400  1
  S  S6  1  0.12759400  0.75167600  0.36722200  1
  S  S7  1  0.36722200  0.12759400  0.75167600  1
loop_
_geom_bond_atom_site_label_1
_geom_bond_atom_site_label_2
_geom_bond_distance
_geom_bond_site_symmetry_2
Lu0 S1 2.643514 1_555
Lu0 S0 2.643514 1_444
Lu0 S7 2.984209 1_554
Lu0 S4 2.984209 1_445
Lu0 S6 2.984209 1_545
Lu0 S3 2.984209 1_454
Lu0 S5 2.984209 1_455
Lu0 S2 2.984209 1_544
Mo0 S0 2.419062 1_555
Mo0 S4 2.441357 1_555
Mo0 S5 2.466267 1_555
Mo0 S3 2.561056 1_555
Mo0 S6 2.570765 1_655
Mo1 S0 2.419062 1_555
Mo1 S2 2.441357 1_555
Mo1 S6 2.466267 1_555
Mo1 S4 2.561056 1_555
Mo1 S7 2.570765 1_565
Mo2 S0 2.419062 1_555
Mo2 S3 2.441357 1_555
Mo2 S7 2.466267 1_555
Mo2 S2 2.561056 1_555
Mo2 S5 2.570765 1_556
Mo3 S1 2.419062 1_555
Mo3 S7 2.441357 1_555
Mo3 S2 2.466267 1_555
Mo3 S6 2.561056 1_555
Mo3 S3 2.570765 1_455
Mo4 S1 2.419062 1_555
Mo4 S5 2.441357 1_555
Mo4 S3 2.466267 1_555
Mo4 S7 2.561056 1_555
Mo4 S4 2.570765 1_545
Mo5 S1 2.419062 1_555
Mo5 S6 2.441357 1_555
Mo5 S4 2.466267 1_555
Mo5 S5 2.561056 1_555
Mo5 S2 2.570765 1_554
