# generated using pymatgen
data_PrPt5
_symmetry_space_group_name_H-M   'P 1'
_cell_length_a   5.40388624
_cell_length_b   5.40388593
_cell_length_c   4.40080896
_cell_angle_alpha   90.00000000
_cell_angle_beta   90.00000000
_cell_angle_gamma   120.00000187
_symmetry_Int_Tables_number   1
_chemical_formula_structural   PrPt5
_chemical_formula_sum   'Pr1 Pt5'
_cell_volume   111.29496337
_cell_formula_units_Z   1
loop_
 _symmetry_equiv_pos_site_id
 _symmetry_equiv_pos_as_xyz
  1  'x, y, z'
loop_
 _atom_site_type_symbol
 _atom_site_label
 _atom_site_symmetry_multiplicity
 _atom_site_fract_x
 _atom_site_fract_y
 _atom_site_fract_z
 _atom_site_occupancy
  Pr  Pr0  1  0.00000000  0.00000000  0.00000000  1
  Pt  Pt0  1  0.33333300  0.66666700  0.00000000  1
  Pt  Pt1  1  0.66666700  0.33333300  -0.00000000  1
  Pt  Pt2  1  0.50000000  0.00000000  0.50000000  1
  Pt  Pt3  1  0.50000000  0.50000000  0.50000000  1
  Pt  Pt4  1  0.00000000  0.50000000  0.50000000  1
loop_
_geom_bond_atom_site_label_1
_geom_bond_atom_site_label_2
_geom_bond_distance
_geom_bond_site_symmetry_2
Pr0 Pt1 3.119932 1_455
Pr0 Pt0 3.119932 1_545
Pr0 Pt0 3.119936 1_555
Pr0 Pt1 3.119936 1_445
Pr0 Pt0 3.119937 1_445
Pr0 Pt1 3.119937 1_555
Pr0 Pt4 3.484577 1_544
Pr0 Pt3 3.484577 1_555
Pr0 Pt3 3.484577 1_444
Pr0 Pt3 3.484577 1_554
Pr0 Pt4 3.484577 1_554
Pr0 Pt3 3.484577 1_445
Pr0 Pt4 3.484577 1_555
Pr0 Pt4 3.484577 1_545
Pr0 Pt2 3.484577 1_454
Pr0 Pt2 3.484577 1_554
Pr0 Pt2 3.484577 1_455
Pr0 Pt2 3.484577 1_555
Pt0 Pt2 2.697271 1_564
Pt0 Pt2 2.697271 1_565
Pt0 Pt4 2.697272 1_554
Pt0 Pt4 2.697272 1_555
Pt0 Pt3 2.697274 1_555
Pt0 Pt3 2.697274 1_554
Pt0 Pt1 3.119932 1_565
Pt0 Pt1 3.119932 1_455
Pt0 Pt1 3.119941 1_555
Pt1 Pt2 2.697271 1_554
Pt1 Pt2 2.697271 1_555
Pt1 Pt4 2.697272 1_655
Pt1 Pt4 2.697272 1_654
Pt1 Pt3 2.697274 1_555
Pt1 Pt3 2.697274 1_554
Pt2 Pt3 2.701943 1_555
Pt2 Pt4 2.701943 1_545
Pt2 Pt3 2.701943 1_545
Pt2 Pt4 2.701943 1_655
Pt3 Pt4 2.701943 1_555
Pt3 Pt4 2.701943 1_655
