# generated using pymatgen
data_Rb2GeB4O9
_symmetry_space_group_name_H-M   'P 1'
_cell_length_a   10.06679800
_cell_length_b   6.72935500
_cell_length_c   13.46842072
_cell_angle_alpha   89.64486262
_cell_angle_beta   90.00000000
_cell_angle_gamma   90.00000000
_symmetry_Int_Tables_number   1
_chemical_formula_structural   Rb2GeB4O9
_chemical_formula_sum   'Rb8 Ge4 B16 O36'
_cell_volume   912.37447218
_cell_formula_units_Z   4
loop_
 _symmetry_equiv_pos_site_id
 _symmetry_equiv_pos_as_xyz
  1  'x, y, z'
loop_
 _atom_site_type_symbol
 _atom_site_label
 _atom_site_symmetry_multiplicity
 _atom_site_fract_x
 _atom_site_fract_y
 _atom_site_fract_z
 _atom_site_occupancy
  Rb  Rb0  1  0.62635900  0.21861500  0.11711700  1
  Rb  Rb1  1  0.12635900  0.78138500  0.88288300  1
  Rb  Rb2  1  0.34141900  0.74375300  0.11948000  1
  Rb  Rb3  1  0.84141900  0.25624700  0.88052000  1
  Rb  Rb4  1  0.84703000  0.22920500  0.36539600  1
  Rb  Rb5  1  0.34703000  0.77079500  0.63460400  1
  Rb  Rb6  1  0.56762600  0.29277600  0.62714500  1
  Rb  Rb7  1  0.06762600  0.70722400  0.37285500  1
  Ge  Ge0  1  0.85186400  0.74352900  0.13054900  1
  Ge  Ge1  1  0.35186400  0.25647100  0.86945100  1
  Ge  Ge2  1  0.34213500  0.24570200  0.38359600  1
  Ge  Ge3  1  0.84213500  0.75429800  0.61640400  1
  B  B0  1  0.01625900  0.40237600  0.16007900  1
  B  B1  1  0.51625900  0.59762400  0.83992100  1
  B  B2  1  0.67717100  0.66146200  0.45568500  1
  B  B3  1  0.17717100  0.33853800  0.54431500  1
  B  B4  1  0.01828400  0.07204200  0.09411900  1
  B  B5  1  0.51828400  0.92795800  0.90588100  1
  B  B6  1  0.67713200  0.80544400  0.29324500  1
  B  B7  1  0.17713200  0.19455600  0.70675500  1
  B  B8  1  0.53989700  0.50891700  0.32657600  1
  B  B9  1  0.03989700  0.49108300  0.67342400  1
  B  B10  1  0.15639200  0.33340000  0.01555400  1
  B  B11  1  0.65639200  0.66660000  0.98444600  1
  B  B12  1  0.03854300  0.04334500  0.57707800  1
  B  B13  1  0.53854300  0.95665500  0.42292200  1
  B  B14  1  0.15083000  0.14152600  0.24368100  1
  B  B15  1  0.65083000  0.85847400  0.75631900  1
  O  O0  1  0.24722400  0.07565800  0.31139700  1
  O  O1  1  0.74722400  0.92434200  0.68860300  1
  O  O2  1  0.75565800  0.59585800  0.04688200  1
  O  O3  1  0.25565800  0.40414200  0.95311800  1
  O  O4  1  0.25653400  0.41342400  0.45944400  1
  O  O5  1  0.75653400  0.58657600  0.54055600  1
  O  O6  1  0.43978100  0.08396800  0.45886100  1
  O  O7  1  0.93978100  0.91603200  0.54113900  1
  O  O8  1  0.94301600  0.90553300  0.05253300  1
  O  O9  1  0.44301600  0.09446700  0.94746700  1
  O  O10  1  0.43512000  0.38707500  0.29523900  1
  O  O11  1  0.93512000  0.61292500  0.70476100  1
  O  O12  1  0.75520200  0.88853500  0.21171500  1
  O  O13  1  0.25520200  0.11146500  0.78828500  1
  O  O14  1  0.93872400  0.56567400  0.20143500  1
  O  O15  1  0.43872400  0.43432600  0.79856500  1
  O  O16  1  0.93551500  0.23648200  0.12623400  1
  O  O17  1  0.43551500  0.76351800  0.87376600  1
  O  O18  1  0.75862200  0.73478000  0.37513300  1
  O  O19  1  0.25862200  0.26522000  0.62486700  1
  O  O20  1  0.59217700  0.48865300  0.42064300  1
  O  O21  1  0.09217700  0.51134700  0.57935700  1
  O  O22  1  0.58720400  0.97372100  0.32821600  1
  O  O23  1  0.08720400  0.02627900  0.67178400  1
  O  O24  1  0.58204400  0.81899300  0.49117300  1
  O  O25  1  0.08204400  0.18100700  0.50882700  1
  O  O26  1  0.10636500  0.33370300  0.24536900  1
  O  O27  1  0.60636500  0.66629700  0.75463100  1
  O  O28  1  0.10509700  0.99950200  0.17950900  1
  O  O29  1  0.60509700  0.00049800  0.82049100  1
  O  O30  1  0.58502700  0.64233600  0.25714100  1
  O  O31  1  0.08502700  0.35766400  0.74285900  1
  O  O32  1  0.10622600  0.47451200  0.07878400  1
  O  O33  1  0.60622600  0.52548800  0.92121600  1
  O  O34  1  0.11246200  0.14020500  0.01248800  1
  O  O35  1  0.61246200  0.85979500  0.98751200  1
loop_
_geom_bond_atom_site_label_1
_geom_bond_atom_site_label_2
_geom_bond_distance
_geom_bond_site_symmetry_2
Ge0 O14 1.759079 1_555
Ge0 O12 1.762759 1_555
Ge0 O8 1.766461 1_555
Ge0 O2 1.791415 1_555
Ge1 O15 1.759079 1_555
Ge1 O13 1.762759 1_555
Ge1 O9 1.766461 1_555
Ge1 O3 1.791415 1_555
Ge2 O4 1.753372 1_555
Ge2 O6 1.778962 1_555
Ge2 O0 1.783716 1_555
Ge2 O10 1.784212 1_555
Ge3 O5 1.753372 1_555
Ge3 O7 1.778962 1_555
Ge3 O1 1.783716 1_555
Ge3 O11 1.784212 1_555
B0 O16 1.456384 1_455
B0 O14 1.461035 1_455
B0 O32 1.499382 1_555
B0 O26 1.532753 1_555
B1 O17 1.456384 1_555
B1 O15 1.461035 1_555
B1 O33 1.499382 1_555
B1 O27 1.532753 1_555
B2 O18 1.444346 1_555
B2 O5 1.480449 1_555
B2 O24 1.508493 1_555
B2 O20 1.521168 1_555
B3 O19 1.444346 1_555
B3 O4 1.480449 1_555
B3 O25 1.508493 1_555
B3 O21 1.521168 1_555
B4 O16 1.453198 1_455
B4 O8 1.466672 1_445
B4 O34 1.520446 1_555
B4 O28 1.522412 1_545
B5 O17 1.453198 1_555
B5 O9 1.466672 1_565
B5 O35 1.520446 1_555
B5 O29 1.522412 1_565
B6 O18 1.452232 1_555
B6 O12 1.458931 1_555
B6 O30 1.519054 1_555
B6 O22 1.526539 1_555
B7 O19 1.452232 1_555
B7 O13 1.458931 1_555
B7 O31 1.519054 1_555
B7 O23 1.526539 1_555
B8 O30 1.369906 1_555
B8 O20 1.377882 1_555
B8 O10 1.402579 1_555
B9 O31 1.369906 1_555
B9 O21 1.377882 1_555
B9 O11 1.402579 1_455
B10 O34 1.374098 1_555
B10 O32 1.375509 1_555
B10 O3 1.388300 1_554
B11 O35 1.374098 1_555
B11 O33 1.375509 1_555
B11 O2 1.388300 1_556
B12 O23 1.370525 1_555
B12 O25 1.372726 1_555
B12 O7 1.400678 1_445
B13 O22 1.370525 1_555
B13 O24 1.372726 1_555
B13 O6 1.400678 1_565
B14 O26 1.368825 1_555
B14 O28 1.372086 1_545
B14 O0 1.401745 1_555
B15 O27 1.368825 1_555
B15 O29 1.372086 1_565
B15 O1 1.401745 1_555
O0 Rb7 3.174199 1_545
O1 Rb6 3.174199 1_565
O2 Rb0 3.000632 1_555
O3 Rb1 3.000632 1_555
O4 Rb7 2.976038 1_555
O4 Rb5 3.499883 1_555
O5 Rb6 2.976038 1_555
O5 Rb4 3.499883 1_555
O6 Rb6 2.967720 1_555
O6 Rb5 3.294529 1_545
O7 Rb7 2.967720 1_655
O7 Rb4 3.294529 1_565
O8 Rb1 3.057612 1_654
O9 Rb0 3.057612 1_556
O10 Rb0 3.283350 1_555
O11 Rb1 3.283350 1_655
O12 Rb0 2.864325 1_565
O12 Rb4 3.233127 1_565
O13 Rb1 2.864325 1_545
O13 Rb5 3.233127 1_545
O14 Rb7 2.819361 1_655
O14 Rb4 3.285320 1_555
O15 Rb6 2.819361 1_555
O15 Rb5 3.285320 1_555
O16 Rb0 3.116982 1_555
O16 Rb4 3.342096 1_555
O17 Rb1 3.116982 1_555
O17 Rb5 3.342096 1_555
O18 Rb7 3.116365 1_655
O18 Rb4 3.445848 1_565
O18 Rb4 3.519904 1_555
O19 Rb6 3.116365 1_555
O19 Rb5 3.445848 1_545
O19 Rb5 3.519904 1_555
O20 Rb6 3.080337 1_555
O20 Rb4 3.193755 1_555
O21 Rb7 3.080337 1_555
O21 Rb5 3.193755 1_555
O22 Rb4 3.171541 1_565
O22 Rb0 3.301020 1_565
O23 Rb5 3.171541 1_545
O23 Rb1 3.301020 1_545
O24 Rb5 3.070249 1_555
O25 Rb4 3.070249 1_455
O26 Rb7 3.077622 1_555
O26 Rb4 3.147909 1_455
O27 Rb6 3.077622 1_555
O27 Rb5 3.147909 1_555
O28 Rb2 3.048362 1_555
O28 Rb7 3.275427 1_555
O29 Rb3 3.048362 1_555
O29 Rb6 3.275427 1_555
O30 Rb2 3.146699 1_555
O30 Rb0 3.453508 1_555
O31 Rb3 3.146699 1_455
O31 Rb1 3.453508 1_555
O32 Rb2 3.033339 1_555
O32 Rb1 3.346574 1_554
O33 Rb3 3.033339 1_555
O33 Rb0 3.346574 1_556
O34 Rb1 2.991534 1_544
O35 Rb0 2.991534 1_566
