# generated using pymatgen
data_Sr4LiY2(RuO6)2
_symmetry_space_group_name_H-M   'P 1'
_cell_length_a   5.74076268
_cell_length_b   6.04833214
_cell_length_c   8.30546935
_cell_angle_alpha   88.42662389
_cell_angle_beta   91.30025529
_cell_angle_gamma   90.87975680
_symmetry_Int_Tables_number   1
_chemical_formula_structural   Sr4LiY2(RuO6)2
_chemical_formula_sum   'Sr4 Li1 Y2 Ru2 O12'
_cell_volume   288.16856939
_cell_formula_units_Z   1
loop_
 _symmetry_equiv_pos_site_id
 _symmetry_equiv_pos_as_xyz
  1  'x, y, z'
loop_
 _atom_site_type_symbol
 _atom_site_label
 _atom_site_symmetry_multiplicity
 _atom_site_fract_x
 _atom_site_fract_y
 _atom_site_fract_z
 _atom_site_occupancy
  Sr  Sr0  1  0.51748700  0.55279900  0.25698800  1
  Sr  Sr1  1  0.98859500  0.05867100  0.24705600  1
  Sr  Sr2  1  0.03689400  0.90359100  0.71818100  1
  Sr  Sr3  1  0.45709100  0.44770700  0.75240300  1
  Li  Li0  1  0.85101500  0.21249400  0.85595100  1
  Y  Y0  1  0.51020800  0.99930600  0.49782400  1
  Y  Y1  1  0.99758400  0.53722500  0.01571800  1
  Ru  Ru0  1  0.48830500  0.00903300  0.00031500  1
  Ru  Ru1  1  0.00234800  0.48831700  0.49977700  1
  O  O0  1  0.92078700  0.49710700  0.74128600  1
  O  O1  1  0.59910800  0.04109200  0.76576700  1
  O  O2  1  0.08387400  0.48305500  0.26824900  1
  O  O3  1  0.41804800  0.97902600  0.23219800  1
  O  O4  1  0.81029800  0.76617100  0.45964700  1
  O  O5  1  0.68562600  0.29133800  0.04002500  1
  O  O6  1  0.19864200  0.21732300  0.53949800  1
  O  O7  1  0.30731700  0.73407300  0.94958600  1
  O  O8  1  0.19479900  0.19284900  0.95211900  1
  O  O9  1  0.28353900  0.69165600  0.53970000  1
  O  O10  1  0.77142300  0.82027600  0.04392400  1
  O  O11  1  0.73118100  0.29564100  0.45191300  1
loop_
_geom_bond_atom_site_label_1
_geom_bond_atom_site_label_2
_geom_bond_distance
_geom_bond_site_symmetry_2
Li0 O5 1.893671 1_556
Li0 O1 1.916907 1_555
Li0 O0 1.984149 1_555
Li0 O8 2.116022 1_655
O0 Ru1 2.072370 1_655
O0 Y1 2.330209 1_556
O0 Sr2 2.540698 1_655
O0 Sr3 2.677516 1_555
O0 Sr3 3.096870 1_655
O1 Ru0 2.066094 1_556
O1 Y0 2.291744 1_545
O1 Sr3 2.601509 1_555
O1 Sr2 2.700271 1_645
O2 Ru1 1.990591 1_555
O2 Y1 2.161451 1_455
O2 Sr0 2.521767 1_555
O2 Sr1 2.626030 1_455
O3 Ru0 1.979521 1_565
O3 Y0 2.263172 1_555
O3 Sr1 2.525660 1_465
O3 Sr0 2.650447 1_555
O4 Ru1 2.039692 1_655
O4 Y0 2.276104 1_555
O4 Sr2 2.632813 1_655
O4 Sr1 2.673945 1_565
O4 Sr0 2.692300 1_555
O5 Ru0 2.064459 1_555
O5 Y1 2.319032 1_555
O5 Sr0 2.638554 1_555
O5 Sr1 2.787224 1_555
O5 Sr3 2.845008 1_554
O6 Ru1 2.018753 1_555
O6 Y0 2.276704 1_545
O6 Sr2 2.553256 1_545
O6 Sr3 2.687485 1_555
O6 Sr1 2.869452 1_455
O7 Ru0 1.997083 1_566
O7 Y1 2.196423 1_456
O7 Sr3 2.585864 1_555
O7 Sr2 2.638249 1_555
O7 Sr0 2.987197 1_556
O8 Ru0 2.058595 1_556
O8 Y1 2.461557 1_456
O8 Sr3 2.701201 1_555
O8 Sr2 2.777720 1_545
O8 Sr1 2.837842 1_456
O9 Ru1 2.040943 1_555
O9 Y0 2.277572 1_555
O9 Sr2 2.469972 1_555
O9 Sr3 2.472388 1_555
O9 Sr0 2.882451 1_555
O10 Ru0 2.020837 1_565
O10 Y1 2.185301 1_555
O10 Sr1 2.542174 1_565
O10 Sr0 2.785911 1_555
O11 Ru1 1.970049 1_655
O11 Y0 2.209454 1_545
O11 Sr0 2.524938 1_555
O11 Sr1 2.728729 1_555
O11 Sr3 3.146279 1_555
