# generated using pymatgen
data_Al2O3
_symmetry_space_group_name_H-M   'P 1'
_cell_length_a   10.37837606
_cell_length_b   10.48744904
_cell_length_c   10.62521615
_cell_angle_alpha   97.18970491
_cell_angle_beta   96.39884141
_cell_angle_gamma   88.45060315
_symmetry_Int_Tables_number   1
_chemical_formula_structural   Al2O3
_chemical_formula_sum   'Al40 O60'
_cell_volume   1140.13546047
_cell_formula_units_Z   20
loop_
 _symmetry_equiv_pos_site_id
 _symmetry_equiv_pos_as_xyz
  1  'x, y, z'
loop_
 _atom_site_type_symbol
 _atom_site_label
 _atom_site_symmetry_multiplicity
 _atom_site_fract_x
 _atom_site_fract_y
 _atom_site_fract_z
 _atom_site_occupancy
  Al  Al0  1  0.67577600  0.39038500  0.68185400  1
  Al  Al1  1  0.73140600  0.69723400  0.66403400  1
  Al  Al2  1  0.20911500  0.66580700  0.66217400  1
  Al  Al3  1  0.61971100  0.46207700  0.96387900  1
  Al  Al4  1  0.82085700  0.74141700  0.38820800  1
  Al  Al5  1  0.23410600  0.42422600  0.47596300  1
  Al  Al6  1  0.43169200  0.43192500  0.25056700  1
  Al  Al7  1  0.88772100  0.16649200  0.14562900  1
  Al  Al8  1  0.39340700  0.63662700  0.05249800  1
  Al  Al9  1  0.91314100  0.08934900  0.83381800  1
  Al  Al10  1  0.49945800  0.56451800  0.47681900  1
  Al  Al11  1  0.38403800  0.90023700  0.81809900  1
  Al  Al12  1  0.56574400  0.19919700  0.22310200  1
  Al  Al13  1  0.95260200  0.84391900  0.67668100  1
  Al  Al14  1  0.66433200  0.86325200  0.88056300  1
  Al  Al15  1  0.13071500  0.81879900  0.90539100  1
  Al  Al16  1  0.16545900  0.18517500  0.45478800  1
  Al  Al17  1  0.08457400  0.35981000  0.78430200  1
  Al  Al18  1  0.19949300  0.92720300  0.55251900  1
  Al  Al19  1  0.50353100  0.87359100  0.56234000  1
  Al  Al20  1  0.61963400  0.09351000  0.70306000  1
  Al  Al21  1  0.11219600  0.67533400  0.10281100  1
  Al  Al22  1  0.88394200  0.43049900  0.54756800  1
  Al  Al23  1  0.97794700  0.98906900  0.39346600  1
  Al  Al24  1  0.29423700  0.89155300  0.29744200  1
  Al  Al25  1  0.86628600  0.15421100  0.56385700  1
  Al  Al26  1  0.90553100  0.92385800  0.07136900  1
  Al  Al27  1  0.74781400  0.44276300  0.25392700  1
  Al  Al28  1  0.60933200  0.16833800  0.98815300  1
  Al  Al29  1  0.48527700  0.61601900  0.75530200  1
  Al  Al30  1  0.65906300  0.98516100  0.39303200  1
  Al  Al31  1  0.48069100  0.93350700  0.11510300  1
  Al  Al32  1  0.59749600  0.68847000  0.23240500  1
  Al  Al33  1  0.38819500  0.36235300  0.69148900  1
  Al  Al34  1  0.32276600  0.13551400  0.10901600  1
  Al  Al35  1  0.17282700  0.07461400  0.83430500  1
  Al  Al36  1  0.34585200  0.34861800  0.96195500  1
  Al  Al37  1  0.03127500  0.41653700  0.28914800  1
  Al  Al38  1  0.92754300  0.43798700  0.03959500  1
  Al  Al39  1  0.10582600  0.69938800  0.37436400  1
  O  O0  1  0.16950200  0.00741400  0.39878500  1
  O  O1  1  0.37047800  0.46124400  0.40329500  1
  O  O2  1  0.03395600  0.41531600  0.63593800  1
  O  O3  1  0.79982300  0.84350900  0.75937500  1
  O  O4  1  0.77855400  0.30044900  0.56837500  1
  O  O5  1  0.80252000  0.10447000  0.69812700  1
  O  O6  1  0.88299900  0.41289000  0.37114300  1
  O  O7  1  0.00943200  0.16456300  0.49117200  1
  O  O8  1  0.39465900  0.26052100  0.21771300  1
  O  O9  1  0.11101800  0.53840400  0.40366500  1
  O  O10  1  0.26467300  0.34816200  0.80525400  1
  O  O11  1  0.02173100  0.93976300  0.56624100  1
  O  O12  1  0.59672100  0.00705200  0.53965100  1
  O  O13  1  0.02201700  0.44246700  0.91739200  1
  O  O14  1  0.28214600  0.51547600  0.62974100  1
  O  O15  1  0.66791500  0.06737900  0.86927900  1
  O  O16  1  0.36330900  0.88520700  0.45832700  1
  O  O17  1  0.25210900  0.19796500  0.97303900  1
  O  O18  1  0.72314500  0.41526100  0.84575900  1
  O  O19  1  0.18652100  0.75337400  0.52769200  1
  O  O20  1  0.56270800  0.04152200  0.26872300  1
  O  O21  1  0.04253600  0.19100100  0.79377300  1
  O  O22  1  0.02700200  0.80705800  0.03121800  1
  O  O23  1  0.02826200  0.95700800  0.81932900  1
  O  O24  1  0.54449200  0.25485700  0.69423400  1
  O  O25  1  0.67351900  0.82313800  0.33829600  1
  O  O26  1  0.56914300  0.71421900  0.55474800  1
  O  O27  1  0.76900500  0.53096900  0.62730700  1
  O  O28  1  0.19517300  0.74938700  0.25388400  1
  O  O29  1  0.31394900  0.99367100  0.17944100  1
  O  O30  1  0.75082800  0.86931800  0.03443200  1
  O  O31  1  0.50781700  0.59062900  0.31491900  1
  O  O32  1  0.60542200  0.36416600  0.28448400  1
  O  O33  1  0.08127300  0.73024100  0.74913300  1
  O  O34  1  0.85279700  0.73619500  0.55215600  1
  O  O35  1  0.97106100  0.31109900  0.14715500  1
  O  O36  1  0.96456100  0.80141400  0.34166200  1
  O  O37  1  0.52460500  0.48474900  0.62461600  1
  O  O38  1  0.34648400  0.47793300  0.09745900  1
  O  O39  1  0.75349000  0.61015300  0.28693500  1
  O  O40  1  0.50116800  0.86638400  0.95202900  1
  O  O41  1  0.76455400  0.43883100  0.08614600  1
  O  O42  1  0.56643700  0.60382200  0.06966400  1
  O  O43  1  0.91333100  0.07717900  0.99814100  1
  O  O44  1  0.26504400  0.00420900  0.70479800  1
  O  O45  1  0.23286100  0.68697700  0.99235500  1
  O  O46  1  0.44531400  0.78541500  0.18020800  1
  O  O47  1  0.81378700  0.03962800  0.42926600  1
  O  O48  1  0.52229600  0.31593300  0.98319000  1
  O  O49  1  0.71518800  0.18630500  0.13711300  1
  O  O50  1  0.25345800  0.94089700  0.92059000  1
  O  O51  1  0.35586200  0.73538900  0.74653000  1
  O  O52  1  0.45784900  0.50051000  0.85647700  1
  O  O53  1  0.51197600  0.93746700  0.72521000  1
  O  O54  1  0.28927500  0.27425500  0.55337600  1
  O  O55  1  0.02362600  0.55299000  0.16096200  1
  O  O56  1  0.48535000  0.09526600  0.05903800  1
  O  O57  1  0.63144300  0.69766000  0.79884200  1
  O  O58  1  0.14858300  0.30481900  0.35078800  1
  O  O59  1  0.94388500  0.02815100  0.22346400  1
loop_
_geom_bond_atom_site_label_1
_geom_bond_atom_site_label_2
_geom_bond_distance
_geom_bond_site_symmetry_2
Al0 O18 1.745002 1_555
Al0 O4 1.851706 1_555
Al0 O37 1.914350 1_555
Al0 O27 1.965166 1_555
Al0 O24 2.021247 1_555
Al1 O27 1.780969 1_555
Al1 O3 1.842088 1_555
Al1 O57 1.859401 1_555
Al1 O34 1.910618 1_555
Al1 O26 1.953385 1_555
Al2 O14 1.742546 1_555
Al2 O33 1.771777 1_555
Al2 O19 1.783887 1_555
Al2 O51 1.802082 1_555
Al3 O18 1.756737 1_555
Al3 O42 1.858682 1_556
Al3 O48 1.903180 1_555
Al3 O41 1.905522 1_556
Al3 O52 1.984413 1_555
Al4 O34 1.744011 1_555
Al4 O39 1.747961 1_555
Al4 O36 1.777039 1_555
Al4 O25 1.793363 1_555
Al5 O1 1.760208 1_555
Al5 O14 1.812988 1_555
Al5 O58 1.872168 1_555
Al5 O9 1.893314 1_555
Al5 O54 1.910046 1_555
Al6 O1 1.796069 1_555
Al6 O8 1.830654 1_555
Al6 O38 1.874586 1_555
Al6 O31 1.878236 1_555
Al6 O32 1.932813 1_555
Al7 O35 1.763513 1_555
Al7 O43 1.765142 1_554
Al7 O49 1.790566 1_555
Al7 O59 1.809922 1_555
Al8 O45 1.806375 1_554
Al8 O42 1.812653 1_555
Al8 O38 1.878815 1_555
Al8 O46 1.979620 1_555
Al8 O52 2.517472 1_554
Al9 O5 1.760760 1_555
Al9 O43 1.766266 1_555
Al9 O23 1.809789 1_645
Al9 O21 1.854528 1_655
Al10 O31 1.787215 1_555
Al10 O1 1.791293 1_555
Al10 O26 1.809978 1_555
Al10 O37 1.860034 1_555
Al11 O51 1.816960 1_555
Al11 O53 1.818288 1_555
Al11 O40 1.829302 1_555
Al11 O50 1.840051 1_555
Al11 O44 2.021814 1_565
Al12 O20 1.782481 1_555
Al12 O32 1.812296 1_555
Al12 O8 1.869332 1_555
Al12 O49 1.879414 1_555
Al12 O56 2.042638 1_555
Al13 O11 1.850392 1_655
Al13 O34 1.866413 1_555
Al13 O3 1.896839 1_555
Al13 O23 1.911958 1_655
Al13 O33 1.926582 1_655
Al14 O30 1.769939 1_556
Al14 O57 1.864112 1_555
Al14 O40 1.929396 1_555
Al14 O3 1.999839 1_555
Al14 O15 2.160603 1_565
Al14 O53 2.346049 1_555
Al15 O50 1.810828 1_555
Al15 O22 1.824905 1_556
Al15 O33 1.825456 1_555
Al15 O45 1.977632 1_555
Al15 O23 2.024699 1_555
Al16 O7 1.731391 1_555
Al16 O58 1.765847 1_555
Al16 O54 1.772355 1_555
Al16 O0 1.885461 1_555
Al17 O13 1.743570 1_555
Al17 O2 1.768740 1_555
Al17 O21 1.852256 1_555
Al17 O10 1.860070 1_555
Al18 O44 1.786123 1_565
Al18 O19 1.815518 1_555
Al18 O11 1.866601 1_555
Al18 O0 1.920717 1_565
Al18 O16 2.077144 1_555
Al19 O16 1.737721 1_555
Al19 O53 1.769283 1_555
Al19 O12 1.778262 1_565
Al19 O26 1.783463 1_555
Al20 O15 1.833522 1_555
Al20 O12 1.849013 1_555
Al20 O24 1.852643 1_555
Al20 O5 1.911562 1_555
Al20 O53 2.058103 1_545
Al21 O55 1.806048 1_555
Al21 O22 1.820958 1_555
Al21 O45 1.825460 1_554
Al21 O28 1.826849 1_555
Al22 O2 1.740431 1_655
Al22 O27 1.784603 1_555
Al22 O4 1.820831 1_555
Al22 O6 1.859438 1_555
Al23 O47 1.836735 1_565
Al23 O59 1.894957 1_565
Al23 O11 1.970506 1_655
Al23 O36 1.980398 1_555
Al23 O0 1.996344 1_665
Al23 O7 2.012598 1_665
Al24 O29 1.779299 1_555
Al24 O16 1.786965 1_555
Al24 O28 1.816123 1_555
Al24 O0 2.051806 1_565
Al24 O46 2.289748 1_555
Al25 O4 1.760473 1_555
Al25 O7 1.760894 1_655
Al25 O5 1.777867 1_555
Al25 O47 1.793755 1_555
Al26 O30 1.706475 1_555
Al26 O22 1.782504 1_655
Al26 O59 1.845016 1_565
Al26 O43 1.879272 1_564
Al27 O39 1.747887 1_555
Al27 O32 1.791242 1_555
Al27 O41 1.805598 1_555
Al27 O6 1.817172 1_555
Al28 O15 1.699311 1_555
Al28 O48 1.774514 1_555
Al28 O56 1.795559 1_556
Al28 O49 1.815617 1_556
Al29 O57 1.750131 1_555
Al29 O52 1.765494 1_555
Al29 O51 1.813904 1_555
Al29 O37 1.899323 1_555
Al30 O47 1.705817 1_565
Al30 O20 1.721331 1_565
Al30 O25 1.733884 1_555
Al30 O12 1.739357 1_565
Al31 O40 1.819786 1_554
Al31 O46 1.838979 1_555
Al31 O56 1.870540 1_565
Al31 O20 1.987874 1_565
Al31 O29 1.989164 1_555
Al32 O31 1.773836 1_555
Al32 O25 1.829671 1_555
Al32 O42 1.840917 1_555
Al32 O39 1.862654 1_555
Al32 O46 1.922198 1_555
Al33 O54 1.853970 1_555
Al33 O10 1.878153 1_555
Al33 O24 1.949826 1_555
Al33 O14 2.056165 1_555
Al33 O37 2.169698 1_555
Al33 O52 2.198509 1_555
Al34 O17 1.740355 1_554
Al34 O29 1.755681 1_545
Al34 O8 1.758161 1_555
Al34 O56 1.847278 1_555
Al35 O44 1.831844 1_555
Al35 O21 1.848332 1_555
Al35 O50 1.895974 1_545
Al35 O23 1.948164 1_545
Al35 O17 1.957887 1_555
Al36 O10 1.779763 1_555
Al36 O48 1.847980 1_555
Al36 O38 1.849814 1_556
Al36 O17 1.900509 1_555
Al36 O52 2.445805 1_555
Al37 O58 1.794745 1_555
Al37 O9 1.800668 1_555
Al37 O35 1.816340 1_455
Al37 O6 1.854438 1_455
Al37 O55 2.089707 1_555
Al38 O13 1.717854 1_654
Al38 O41 1.814025 1_555
Al38 O55 1.871114 1_655
Al38 O35 1.874582 1_555
Al39 O9 1.753036 1_555
Al39 O19 1.779518 1_555
Al39 O28 1.797894 1_555
Al39 O36 1.819272 1_455
