# generated using pymatgen
data_CeYMg6
_symmetry_space_group_name_H-M   'P 1'
_cell_length_a   6.66613291
_cell_length_b   6.66613212
_cell_length_c   5.24942424
_cell_angle_alpha   90.00000000
_cell_angle_beta   90.00000000
_cell_angle_gamma   118.06783166
_symmetry_Int_Tables_number   1
_chemical_formula_structural   CeYMg6
_chemical_formula_sum   'Ce1 Y1 Mg6'
_cell_volume   205.83570591
_cell_formula_units_Z   1
loop_
 _symmetry_equiv_pos_site_id
 _symmetry_equiv_pos_as_xyz
  1  'x, y, z'
loop_
 _atom_site_type_symbol
 _atom_site_label
 _atom_site_symmetry_multiplicity
 _atom_site_fract_x
 _atom_site_fract_y
 _atom_site_fract_z
 _atom_site_occupancy
  Ce  Ce0  1  0.34084400  0.15915600  0.75000000  1
  Y  Y0  1  0.16337452  0.33662548  0.25000000  1
  Mg  Mg0  1  0.15402104  0.82978759  0.25000000  1
  Mg  Mg1  1  0.67021241  0.34597896  0.25000000  1
  Mg  Mg2  1  0.65684440  0.84315560  0.25000000  1
  Mg  Mg3  1  0.33471782  0.66110086  0.75000000  1
  Mg  Mg4  1  0.83889914  0.16528218  0.75000000  1
  Mg  Mg5  1  0.84108666  0.65891334  0.75000000  1
loop_
_geom_bond_atom_site_label_1
_geom_bond_atom_site_label_2
_geom_bond_distance
_geom_bond_site_symmetry_2
Ce0 Mg0 3.269200 1_545
Ce0 Mg0 3.269200 1_546
Ce0 Mg1 3.269200 1_556
Ce0 Mg1 3.269200 1_555
Ce0 Mg3 3.301083 1_545
Ce0 Mg4 3.301084 1_555
Ce0 Y0 3.317424 1_556
Ce0 Y0 3.317424 1_555
Ce0 Mg3 3.365439 1_555
Ce0 Mg4 3.365439 1_455
Ce0 Mg5 3.429930 1_445
Ce0 Mg5 3.429930 1_555
Mg0 Mg5 3.209703 1_455
Mg0 Mg5 3.209703 1_454
Mg0 Mg3 3.298356 1_555
Mg0 Mg3 3.298356 1_554
Mg0 Mg2 3.310892 1_555
Mg0 Y0 3.317277 1_555
Mg0 Mg1 3.318859 1_455
Mg0 Y0 3.349763 1_565
Mg0 Mg2 3.357096 1_455
Mg1 Mg5 3.209703 1_554
Mg1 Mg5 3.209703 1_555
Mg1 Mg4 3.298356 1_554
Mg1 Mg4 3.298356 1_555
Mg1 Mg2 3.310892 1_545
Mg1 Y0 3.317278 1_655
Mg1 Y0 3.349763 1_555
Mg1 Mg2 3.357095 1_555
Mg2 Mg4 3.243557 1_565
Mg2 Mg4 3.243557 1_564
Mg2 Mg3 3.243557 1_555
Mg2 Mg3 3.243557 1_554
Mg2 Mg5 3.365333 1_555
Mg2 Mg5 3.365333 1_554
Mg2 Y0 3.430741 1_555
Mg2 Y0 3.430741 1_665
Mg3 Y0 3.247675 1_556
Mg3 Y0 3.247675 1_555
Mg3 Mg5 3.283775 1_455
Mg3 Mg5 3.382408 1_555
Mg3 Mg4 3.401246 1_455
Mg3 Mg4 3.458612 1_565
Mg4 Y0 3.247675 1_655
Mg4 Y0 3.247675 1_656
Mg4 Mg5 3.283775 1_555
Mg4 Mg5 3.382407 1_545
