# generated using pymatgen
data_KV3CdCu4O13
_symmetry_space_group_name_H-M   'P 1'
_cell_length_a   6.17188271
_cell_length_b   8.38471506
_cell_length_c   10.73736645
_cell_angle_alpha   97.52486345
_cell_angle_beta   90.00000000
_cell_angle_gamma   90.00000000
_symmetry_Int_Tables_number   1
_chemical_formula_structural   KV3CdCu4O13
_chemical_formula_sum   'K2 V6 Cd2 Cu8 O26'
_cell_volume   550.86789342
_cell_formula_units_Z   2
loop_
 _symmetry_equiv_pos_site_id
 _symmetry_equiv_pos_as_xyz
  1  'x, y, z'
loop_
 _atom_site_type_symbol
 _atom_site_label
 _atom_site_symmetry_multiplicity
 _atom_site_fract_x
 _atom_site_fract_y
 _atom_site_fract_z
 _atom_site_occupancy
  K  K0  1  0.75000000  0.51276705  0.89382319  1
  K  K1  1  0.25000000  0.48723295  0.10617681  1
  V  V0  1  0.75000000  0.46726389  0.29353377  1
  V  V1  1  0.25000000  0.53273611  0.70646623  1
  V  V2  1  0.75000000  0.14278694  0.00654771  1
  V  V3  1  0.25000000  0.85721306  0.99345229  1
  V  V4  1  0.75000000  0.18127857  0.61832872  1
  V  V5  1  0.25000000  0.81872143  0.38167128  1
  Cd  Cd0  1  0.75000000  0.80595089  0.13528608  1
  Cd  Cd1  1  0.25000000  0.19404911  0.86471392  1
  Cu  Cu0  1  0.75000000  0.60822744  0.60412650  1
  Cu  Cu1  1  0.25000000  0.39177256  0.39587350  1
  Cu  Cu2  1  0.99768857  0.88994930  0.72264243  1
  Cu  Cu3  1  0.00231143  0.11005070  0.27735757  1
  Cu  Cu4  1  0.49768857  0.11005070  0.27735757  1
  Cu  Cu5  1  0.50231143  0.88994930  0.72264243  1
  Cu  Cu6  1  0.75000000  0.85772578  0.43778179  1
  Cu  Cu7  1  0.25000000  0.14227422  0.56221821  1
  O  O0  1  0.75000000  0.98132054  0.89530565  1
  O  O1  1  0.25000000  0.01867946  0.10469435  1
  O  O2  1  0.75000000  0.62331480  0.41880026  1
  O  O3  1  0.25000000  0.37668520  0.58119974  1
  O  O4  1  0.75000000  0.54907076  0.15981618  1
  O  O5  1  0.25000000  0.45092924  0.84018382  1
  O  O6  1  0.75000000  0.84150957  0.61685392  1
  O  O7  1  0.25000000  0.15849043  0.38314608  1
  O  O8  1  0.75000000  0.38158402  0.61758180  1
  O  O9  1  0.25000000  0.61841598  0.38241820  1
  O  O10  1  0.75000000  0.07591010  0.16738637  1
  O  O11  1  0.25000000  0.92408990  0.83261363  1
  O  O12  1  0.47920565  0.65358484  0.70770125  1
  O  O13  1  0.52079435  0.34641516  0.29229875  1
  O  O14  1  0.97920565  0.34641516  0.29229875  1
  O  O15  1  0.02079435  0.65358484  0.70770125  1
  O  O16  1  0.75000000  0.08966190  0.46463979  1
  O  O17  1  0.25000000  0.91033810  0.53536021  1
  O  O18  1  0.96893483  0.25917070  0.98817486  1
  O  O19  1  0.03106517  0.74082930  0.01182514  1
  O  O20  1  0.46893483  0.74082930  0.01182514  1
  O  O21  1  0.53106517  0.25917070  0.98817486  1
  O  O22  1  0.00920013  0.87585773  0.30838698  1
  O  O23  1  0.99079987  0.12414227  0.69161302  1
  O  O24  1  0.50920013  0.12414227  0.69161302  1
  O  O25  1  0.49079987  0.87585773  0.30838698  1
loop_
_geom_bond_atom_site_label_1
_geom_bond_atom_site_label_2
_geom_bond_distance
_geom_bond_site_symmetry_2
K0 O19 2.763445 1_656
K0 O20 2.763445 1_556
K0 O18 2.817391 1_555
K0 O21 2.817391 1_555
K0 O4 2.832324 1_556
K0 O12 2.966349 1_555
K0 O15 2.966349 1_655
K0 O8 3.025415 1_555
K0 O5 3.169443 1_655
K0 O5 3.169443 1_555
K1 O21 2.763445 1_554
K1 O18 2.763445 1_454
K1 O19 2.817391 1_555
K1 O20 2.817391 1_555
K1 O5 2.832324 1_554
K1 O13 2.966349 1_555
K1 O14 2.966349 1_455
K1 O9 3.025415 1_555
K1 O4 3.169443 1_455
K1 O4 3.169443 1_555
Cd0 O4 2.203883 1_555
Cd0 O20 2.207960 1_555
Cd0 O19 2.207960 1_655
Cd0 O10 2.244556 1_565
Cd0 O25 2.464145 1_555
Cd0 O22 2.464145 1_655
Cd1 O5 2.203883 1_555
Cd1 O18 2.207960 1_455
Cd1 O21 2.207960 1_555
Cd1 O11 2.244556 1_545
Cd1 O23 2.464145 1_455
Cd1 O24 2.464145 1_555
Cu0 O8 1.924597 1_555
Cu0 O6 1.942837 1_555
Cu0 O2 2.010398 1_555
Cu0 O12 2.015924 1_555
Cu0 O15 2.015924 1_655
Cu1 O9 1.924597 1_555
Cu1 O7 1.942837 1_555
Cu1 O3 2.010398 1_555
Cu1 O13 2.015924 1_555
Cu1 O14 2.015924 1_455
Cu2 O6 1.916067 1_555
Cu2 O11 1.952611 1_655
Cu2 O15 1.972441 1_655
Cu2 O23 2.034712 1_565
Cu2 O0 2.447243 1_555
Cu2 O17 2.566718 1_655
Cu3 O7 1.916067 1_555
Cu3 O10 1.952611 1_455
Cu3 O14 1.972441 1_455
Cu3 O22 2.034712 1_545
Cu3 O1 2.447243 1_555
Cu3 O16 2.566718 1_455
Cu4 O7 1.916067 1_555
Cu4 O10 1.952611 1_555
Cu4 O13 1.972441 1_555
Cu4 O25 2.034712 1_545
Cu4 O1 2.447243 1_555
Cu4 O16 2.566718 1_555
Cu5 O6 1.916067 1_555
Cu5 O11 1.952611 1_555
Cu5 O12 1.972441 1_555
Cu5 O24 2.034712 1_565
Cu5 O0 2.447243 1_555
Cu5 O17 2.566718 1_555
Cu6 O16 1.928265 1_565
Cu6 O6 1.945245 1_555
Cu6 O2 1.949279 1_555
Cu6 O25 2.137280 1_555
Cu6 O22 2.137280 1_655
Cu7 O17 1.928265 1_545
Cu7 O7 1.945245 1_555
Cu7 O3 1.949279 1_555
Cu7 O23 2.137280 1_455
Cu7 O24 2.137280 1_555
O0 V2 1.684064 1_566
O1 V3 1.684064 1_544
O2 V0 1.749341 1_555
O3 V1 1.749341 1_555
O4 V0 1.670295 1_555
O5 V1 1.670295 1_555
O8 V4 1.680573 1_555
O9 V5 1.680573 1_555
O10 V2 1.884288 1_555
O11 V3 1.884288 1_555
O12 V1 1.739131 1_555
O13 V0 1.739131 1_555
O14 V0 1.739131 1_555
O15 V1 1.739131 1_555
O16 V4 1.726641 1_555
O17 V5 1.726641 1_555
O18 V2 1.693358 1_556
O19 V3 1.693358 1_554
O20 V3 1.693358 1_554
O21 V2 1.693358 1_556
O22 V5 1.776564 1_555
O23 V4 1.776564 1_555
O24 V4 1.776564 1_555
O25 V5 1.776564 1_555
