# generated using pymatgen
data_FeO
_symmetry_space_group_name_H-M   'P 1'
_cell_length_a   10.50191222
_cell_length_b   11.03702151
_cell_length_c   9.92796715
_cell_angle_alpha   91.34188559
_cell_angle_beta   91.75438687
_cell_angle_gamma   89.83269059
_symmetry_Int_Tables_number   1
_chemical_formula_structural   FeO
_chemical_formula_sum   'Fe40 O40'
_cell_volume   1149.89134846
_cell_formula_units_Z   40
loop_
 _symmetry_equiv_pos_site_id
 _symmetry_equiv_pos_as_xyz
  1  'x, y, z'
loop_
 _atom_site_type_symbol
 _atom_site_label
 _atom_site_symmetry_multiplicity
 _atom_site_fract_x
 _atom_site_fract_y
 _atom_site_fract_z
 _atom_site_occupancy
  Fe  Fe0  1  0.18453900  0.62977700  0.71425700  1
  Fe  Fe1  1  0.20391500  0.82362000  0.03967600  1
  Fe  Fe2  1  0.77173100  0.09314500  0.64690100  1
  Fe  Fe3  1  0.04374400  0.91323400  0.78696300  1
  Fe  Fe4  1  0.00835100  0.90643700  0.21408900  1
  Fe  Fe5  1  0.01183100  0.05215000  0.54455100  1
  Fe  Fe6  1  0.12564100  0.62237000  0.21473200  1
  Fe  Fe7  1  0.78576000  0.90733500  0.41165000  1
  Fe  Fe8  1  0.21993500  0.40036400  0.09986100  1
  Fe  Fe9  1  0.32032500  0.39186800  0.68657900  1
  Fe  Fe10  1  0.71788600  0.56137900  0.94916900  1
  Fe  Fe11  1  0.53482600  0.53863300  0.64532600  1
  Fe  Fe12  1  0.32792500  0.90915700  0.80793700  1
  Fe  Fe13  1  0.53648200  0.07976600  0.42929300  1
  Fe  Fe14  1  0.90745600  0.26596600  0.43175400  1
  Fe  Fe15  1  0.95160000  0.34593000  0.04452700  1
  Fe  Fe16  1  0.80845900  0.38762300  0.71874900  1
  Fe  Fe17  1  0.48921000  0.94879300  0.03243800  1
  Fe  Fe18  1  0.49250500  0.18220200  0.77375200  1
  Fe  Fe19  1  0.37765500  0.59049300  0.35292100  1
  Fe  Fe20  1  0.70933600  0.79339800  0.13153700  1
  Fe  Fe21  1  0.50309300  0.83697800  0.56878000  1
  Fe  Fe22  1  0.75536100  0.82937900  0.79988300  1
  Fe  Fe23  1  0.07485900  0.28573100  0.75673700  1
  Fe  Fe24  1  0.96371300  0.49655700  0.52525900  1
  Fe  Fe25  1  0.97930600  0.74440700  0.44643300  1
  Fe  Fe26  1  0.75801300  0.65104800  0.59515300  1
  Fe  Fe27  1  0.24109000  0.14606300  0.94548300  1
  Fe  Fe28  1  0.44758700  0.66455400  0.07939400  1
  Fe  Fe29  1  0.77473800  0.11283200  0.24447300  1
  Fe  Fe30  1  0.98657500  0.67350600  0.98460200  1
  Fe  Fe31  1  0.48230300  0.33407900  0.46296300  1
  Fe  Fe32  1  0.71365900  0.23740700  0.96516100  1
  Fe  Fe33  1  0.18605700  0.37127800  0.44642800  1
  Fe  Fe34  1  0.47466800  0.40980200  0.93570800  1
  Fe  Fe35  1  0.70172400  0.54237300  0.31751600  1
  Fe  Fe36  1  0.20326300  0.11592400  0.28124400  1
  Fe  Fe37  1  0.36974800  0.87115300  0.28258500  1
  Fe  Fe38  1  0.46357500  0.19541800  0.18099200  1
  Fe  Fe39  1  0.27410200  0.09497200  0.60615600  1
  O  O0  1  0.12253700  0.41609100  0.62752400  1
  O  O1  1  0.51838100  0.37012800  0.75388800  1
  O  O2  1  0.07519600  0.63951200  0.54911600  1
  O  O3  1  0.79215400  0.70574700  0.41433200  1
  O  O4  1  0.54851700  0.86871200  0.18953100  1
  O  O5  1  0.42326100  0.06283000  0.90557500  1
  O  O6  1  0.99792200  0.91218600  0.42219200  1
  O  O7  1  0.61455700  0.75509200  0.69081100  1
  O  O8  1  0.63767700  0.61178000  0.12975900  1
  O  O9  1  0.82744900  0.09899500  0.44990200  1
  O  O10  1  0.53596200  0.49747400  0.43113600  1
  O  O11  1  0.87425500  0.93195600  0.70484700  1
  O  O12  1  0.09854200  0.19577100  0.42538000  1
  O  O13  1  0.38804900  0.80295200  0.96041800  1
  O  O14  1  0.36308000  0.93732000  0.62028800  1
  O  O15  1  0.23184400  0.46780000  0.29318800  1
  O  O16  1  0.84110600  0.42953900  0.39490100  1
  O  O17  1  0.61191600  0.19532300  0.31456100  1
  O  O18  1  0.90720000  0.24571700  0.65746800  1
  O  O19  1  0.68336500  0.14098400  0.80922300  1
  O  O20  1  0.80732300  0.73307000  0.96152900  1
  O  O21  1  0.18738000  0.94039700  0.20521400  1
  O  O22  1  0.84567300  0.20114200  0.09565600  1
  O  O23  1  0.27972400  0.23329700  0.14247300  1
  O  O24  1  0.35472500  0.49696200  0.03919200  1
  O  O25  1  0.63058500  0.95466500  0.51753500  1
  O  O26  1  0.43731500  0.74764100  0.42441200  1
  O  O27  1  0.45760800  0.18432700  0.55845600  1
  O  O28  1  0.39278600  0.05761800  0.31104600  1
  O  O29  1  0.82288900  0.92928400  0.20666800  1
  O  O30  1  0.11552300  0.29988400  0.95841900  1
  O  O31  1  0.35497300  0.56780500  0.70103200  1
  O  O32  1  0.10989600  0.73695800  0.85708100  1
  O  O33  1  0.72138700  0.54363500  0.74018700  1
  O  O34  1  0.26629300  0.22464700  0.74538300  1
  O  O35  1  0.17039500  0.97790700  0.91034500  1
  O  O36  1  0.55281800  0.27712200  0.03584000  1
  O  O37  1  0.04198200  0.51138900  0.08518400  1
  O  O38  1  0.79274000  0.39254900  0.93276200  1
  O  O39  1  0.28773400  0.70523300  0.20344100  1
loop_
_geom_bond_atom_site_label_1
_geom_bond_atom_site_label_2
_geom_bond_distance
_geom_bond_site_symmetry_2
Fe0 O31 1.921403 1_555
Fe0 O2 1.977479 1_555
Fe0 O32 2.002137 1_555
Fe0 O0 2.570464 1_555
Fe1 O21 2.075872 1_555
Fe1 O13 2.119625 1_554
Fe1 O35 2.177970 1_554
Fe1 O32 2.233995 1_554
Fe1 O39 2.265108 1_555
Fe2 O19 1.945731 1_555
Fe2 O9 2.061049 1_555
Fe2 O11 2.157327 1_545
Fe2 O18 2.206189 1_555
Fe2 O25 2.446938 1_545
Fe3 O35 1.908902 1_555
Fe3 O11 1.947425 1_455
Fe3 O32 2.185949 1_555
Fe4 O21 1.923281 1_555
Fe4 O29 1.962597 1_455
Fe4 O6 2.071767 1_455
Fe5 O6 1.945750 1_445
Fe5 O9 2.192100 1_455
Fe5 O12 2.214490 1_555
Fe5 O11 2.575026 1_445
Fe5 O18 2.641572 1_455
Fe6 O39 1.942252 1_555
Fe6 O37 1.946733 1_555
Fe6 O15 2.181516 1_555
Fe7 O25 2.026786 1_555
Fe7 O29 2.103427 1_555
Fe7 O9 2.183629 1_565
Fe7 O3 2.226506 1_555
Fe7 O6 2.228101 1_555
Fe8 O24 1.895880 1_555
Fe8 O23 1.996694 1_555
Fe8 O15 2.042653 1_555
Fe8 O30 2.060097 1_554
Fe8 O37 2.234660 1_555
Fe9 O31 1.977761 1_555
Fe9 O34 2.036173 1_555
Fe9 O0 2.158544 1_555
Fe9 O1 2.179420 1_555
Fe10 O38 2.025280 1_555
Fe10 O8 2.067965 1_556
Fe10 O33 2.080855 1_555
Fe10 O20 2.116737 1_555
Fe11 O31 2.007278 1_555
Fe11 O33 2.147989 1_555
Fe11 O10 2.164408 1_555
Fe11 O1 2.181162 1_555
Fe11 O7 2.559426 1_555
Fe12 O14 1.942549 1_555
Fe12 O13 2.021049 1_555
Fe12 O35 2.099026 1_555
Fe12 O5 2.166165 1_565
Fe13 O28 1.896177 1_555
Fe13 O25 1.909521 1_545
Fe13 O27 1.911137 1_555
Fe13 O17 1.918563 1_555
Fe14 O16 1.971471 1_555
Fe14 O9 2.041678 1_555
Fe14 O12 2.151221 1_655
Fe14 O18 2.257284 1_555
Fe15 O30 2.004327 1_654
Fe15 O22 2.032689 1_555
Fe15 O38 2.046380 1_554
Fe15 O37 2.085888 1_655
Fe16 O33 1.957547 1_555
Fe16 O18 1.970535 1_555
Fe16 O38 2.135563 1_555
Fe17 O4 1.898260 1_555
Fe17 O5 1.914652 1_564
Fe17 O13 2.034809 1_554
Fe18 O5 2.030286 1_555
Fe18 O19 2.075458 1_555
Fe18 O1 2.107259 1_555
Fe18 O27 2.158216 1_555
Fe18 O34 2.429249 1_555
Fe19 O26 1.956037 1_555
Fe19 O10 2.090289 1_555
Fe19 O15 2.109313 1_555
Fe19 O39 2.166357 1_555
Fe20 O4 1.975803 1_555
Fe20 O29 2.032583 1_555
Fe20 O20 2.097805 1_554
Fe20 O8 2.142685 1_555
Fe21 O26 1.838717 1_555
Fe21 O7 1.900824 1_555
Fe21 O14 1.913138 1_555
Fe21 O25 1.954868 1_555
Fe22 O11 1.965052 1_555
Fe22 O7 1.974558 1_555
Fe22 O20 2.006490 1_555
Fe23 O0 2.023965 1_555
Fe23 O18 2.035790 1_455
Fe23 O30 2.036991 1_555
Fe23 O34 2.124014 1_555
Fe24 O16 1.933566 1_555
Fe24 O2 1.972964 1_655
Fe24 O0 2.128731 1_655
Fe25 O2 1.838286 1_655
Fe25 O6 1.884436 1_555
Fe25 O3 2.026528 1_555
Fe26 O33 1.934741 1_555
Fe26 O3 1.951192 1_555
Fe26 O7 2.125262 1_555
Fe27 O35 2.019724 1_545
Fe27 O30 2.150535 1_555
Fe27 O5 2.163355 1_555
Fe27 O23 2.186759 1_556
Fe27 O34 2.209770 1_555
Fe28 O13 2.037923 1_554
Fe28 O24 2.117533 1_555
Fe28 O8 2.126092 1_555
Fe28 O39 2.152392 1_555
Fe29 O22 1.956245 1_555
Fe29 O17 2.066664 1_555
Fe29 O9 2.105767 1_555
Fe29 O29 2.114371 1_545
Fe30 O32 1.979340 1_655
Fe30 O20 2.000461 1_555
Fe30 O37 2.139934 1_656
Fe31 O10 1.926955 1_555
Fe31 O27 1.946487 1_555
Fe31 O17 2.524642 1_555
Fe32 O19 1.877551 1_555
Fe32 O36 1.895139 1_556
Fe32 O22 1.916201 1_556
Fe32 O38 1.943102 1_555
Fe33 O15 1.950474 1_555
Fe33 O0 1.987961 1_555
Fe33 O12 2.149489 1_555
Fe34 O24 1.895648 1_556
Fe34 O1 1.916619 1_555
Fe34 O36 1.953839 1_556
Fe35 O16 2.061334 1_555
Fe35 O8 2.121557 1_555
Fe35 O10 2.167924 1_555
Fe35 O3 2.224885 1_555
Fe36 O12 2.016301 1_555
Fe36 O21 2.067942 1_545
Fe36 O23 2.092480 1_555
Fe36 O28 2.104413 1_555
Fe37 O28 2.084539 1_565
Fe37 O26 2.089862 1_555
Fe37 O4 2.117459 1_555
Fe37 O39 2.147821 1_555
Fe37 O21 2.184266 1_555
Fe38 O36 1.979074 1_555
Fe38 O23 2.001631 1_555
Fe38 O17 2.014687 1_555
Fe38 O28 2.165708 1_555
Fe39 O34 1.969599 1_555
Fe39 O14 1.978485 1_545
Fe39 O27 2.236000 1_555
