# generated using pymatgen
data_LaHg2
_symmetry_space_group_name_H-M   'P 1'
_cell_length_a   11.14113530
_cell_length_b   11.14113530
_cell_length_c   7.18893800
_cell_angle_alpha   90.00000000
_cell_angle_beta   90.00000000
_cell_angle_gamma   119.99999587
_symmetry_Int_Tables_number   1
_chemical_formula_structural   LaHg2
_chemical_formula_sum   'La8 Hg16'
_cell_volume   772.77717311
_cell_formula_units_Z   8
loop_
 _symmetry_equiv_pos_site_id
 _symmetry_equiv_pos_as_xyz
  1  'x, y, z'
loop_
 _atom_site_type_symbol
 _atom_site_label
 _atom_site_symmetry_multiplicity
 _atom_site_fract_x
 _atom_site_fract_y
 _atom_site_fract_z
 _atom_site_occupancy
  La  La0_0  1  0.00000000  0.00000000  0.00000000  1
  La  La0_1  1  0.00000000  0.00000000  0.50000000  1
  La  La0_2  1  0.00000000  0.50000000  0.00000000  1
  La  La0_3  1  0.00000000  0.50000000  0.50000000  1
  La  La0_4  1  0.50000000  0.00000000  0.00000000  1
  La  La0_5  1  0.50000000  0.00000000  0.50000000  1
  La  La0_6  1  0.50000000  0.50000000  0.00000000  1
  La  La0_7  1  0.50000000  0.50000000  0.50000000  1
  Hg  Hg0_0  1  0.33333350  0.16666650  0.47243450  1
  Hg  Hg0_1  1  0.33333350  0.16666650  0.97243450  1
  Hg  Hg0_2  1  0.33333350  0.66666650  0.47243450  1
  Hg  Hg0_3  1  0.33333350  0.66666650  0.97243450  1
  Hg  Hg0_4  1  0.83333350  0.16666650  0.47243450  1
  Hg  Hg0_5  1  0.83333350  0.16666650  0.97243450  1
  Hg  Hg0_6  1  0.83333350  0.66666650  0.47243450  1
  Hg  Hg0_7  1  0.83333350  0.66666650  0.97243450  1
  Hg  Hg1_0  1  0.16666650  0.33333350  0.02756550  1
  Hg  Hg1_1  1  0.16666650  0.33333350  0.52756550  1
  Hg  Hg1_2  1  0.16666650  0.83333350  0.02756550  1
  Hg  Hg1_3  1  0.16666650  0.83333350  0.52756550  1
  Hg  Hg1_4  1  0.66666650  0.33333350  0.02756550  1
  Hg  Hg1_5  1  0.66666650  0.33333350  0.52756550  1
  Hg  Hg1_6  1  0.66666650  0.83333350  0.02756550  1
  Hg  Hg1_7  1  0.66666650  0.83333350  0.52756550  1
loop_
_geom_bond_atom_site_label_1
_geom_bond_atom_site_label_2
_geom_bond_distance
_geom_bond_site_symmetry_2
La0_0 La0_1 3.594469 1_554
La0_0 La0_1 3.594469 1_555
La0_2 La0_3 3.594469 1_554
La0_2 La0_3 3.594469 1_555
La0_4 La0_5 3.594469 1_555
La0_4 La0_5 3.594469 1_554
La0_6 La0_7 3.594469 1_555
La0_6 La0_7 3.594469 1_554
Hg0_0 La0_5 3.222265 1_555
Hg0_0 La0_1 3.222270 1_555
Hg0_0 La0_7 3.222270 1_555
Hg0_0 Hg1_5 3.240494 1_555
Hg0_0 Hg1_3 3.240494 1_545
Hg0_0 Hg1_1 3.240503 1_555
Hg0_1 La0_4 3.222265 1_556
Hg0_1 La0_0 3.222270 1_556
Hg0_1 La0_6 3.222270 1_556
Hg0_1 Hg1_4 3.240494 1_556
Hg0_1 Hg1_2 3.240494 1_546
Hg0_1 Hg1_0 3.240503 1_556
Hg0_2 La0_7 3.222265 1_555
Hg0_2 La0_5 3.222270 1_565
Hg0_2 La0_3 3.222270 1_555
Hg0_2 Hg1_7 3.240494 1_555
Hg0_2 Hg1_1 3.240494 1_555
Hg0_2 Hg1_3 3.240503 1_555
Hg0_3 La0_6 3.222265 1_556
Hg0_3 La0_4 3.222270 1_566
Hg0_3 La0_2 3.222270 1_556
Hg0_3 Hg1_6 3.240494 1_556
Hg0_3 Hg1_0 3.240494 1_556
Hg0_3 Hg1_2 3.240503 1_556
Hg0_4 La0_1 3.222265 1_655
Hg0_4 La0_5 3.222270 1_555
Hg0_4 La0_3 3.222270 1_655
Hg0_4 Hg1_7 3.240494 1_545
Hg0_4 Hg1_1 3.240494 1_655
Hg0_4 Hg1_5 3.240503 1_555
Hg0_5 La0_0 3.222265 1_656
Hg0_5 La0_2 3.222270 1_656
Hg0_5 La0_4 3.222270 1_556
Hg0_5 Hg1_6 3.240494 1_546
Hg0_5 Hg1_0 3.240494 1_656
Hg0_5 Hg1_4 3.240503 1_556
Hg0_6 La0_3 3.222265 1_655
Hg0_6 La0_7 3.222270 1_555
Hg0_6 La0_1 3.222270 1_665
Hg0_6 Hg1_5 3.240494 1_555
Hg0_6 Hg1_3 3.240494 1_655
Hg0_6 Hg1_7 3.240503 1_555
Hg0_7 La0_2 3.222265 1_656
Hg0_7 La0_6 3.222270 1_556
Hg0_7 La0_0 3.222270 1_666
Hg0_7 Hg1_4 3.240494 1_556
Hg0_7 Hg1_2 3.240494 1_656
Hg0_7 Hg1_6 3.240503 1_556
Hg1_0 La0_2 3.222265 1_555
Hg1_0 La0_0 3.222270 1_555
Hg1_0 La0_6 3.222270 1_555
Hg1_1 La0_3 3.222265 1_555
Hg1_1 La0_1 3.222270 1_555
Hg1_1 La0_7 3.222270 1_555
Hg1_2 La0_0 3.222265 1_565
Hg1_2 La0_2 3.222270 1_555
Hg1_2 La0_4 3.222270 1_565
Hg1_3 La0_1 3.222265 1_565
Hg1_3 La0_5 3.222270 1_565
Hg1_3 La0_3 3.222270 1_555
Hg1_4 La0_6 3.222265 1_555
Hg1_4 La0_4 3.222270 1_555
Hg1_4 La0_2 3.222270 1_655
Hg1_5 La0_7 3.222265 1_555
Hg1_5 La0_5 3.222270 1_555
Hg1_5 La0_3 3.222270 1_655
Hg1_6 La0_4 3.222265 1_565
Hg1_6 La0_6 3.222270 1_555
Hg1_6 La0_0 3.222270 1_665
Hg1_7 La0_5 3.222265 1_565
Hg1_7 La0_7 3.222270 1_555
Hg1_7 La0_1 3.222270 1_665
