# generated using pymatgen
data_Mo3W(SeS)4
_symmetry_space_group_name_H-M   'P 1'
_cell_length_a   3.25335022
_cell_length_b   3.25335022
_cell_length_c   37.09793900
_cell_angle_alpha   90.00000000
_cell_angle_beta   90.00000000
_cell_angle_gamma   120.00000445
_symmetry_Int_Tables_number   1
_chemical_formula_structural   Mo3W(SeS)4
_chemical_formula_sum   'Mo3 W1 Se4 S4'
_cell_volume   340.04941263
_cell_formula_units_Z   1
loop_
 _symmetry_equiv_pos_site_id
 _symmetry_equiv_pos_as_xyz
  1  'x, y, z'
loop_
 _atom_site_type_symbol
 _atom_site_label
 _atom_site_symmetry_multiplicity
 _atom_site_fract_x
 _atom_site_fract_y
 _atom_site_fract_z
 _atom_site_occupancy
  Mo  Mo0  1  0.33333300  0.66666700  0.09391500  1
  Mo  Mo1  1  0.33333300  0.66666700  0.46965900  1
  Mo  Mo2  1  0.66666700  0.33333300  0.28180300  1
  W  W0  1  0.66666700  0.33333300  0.65754500  1
  Se  Se0  1  0.66666700  0.33333300  0.04815400  1
  Se  Se1  1  0.66666700  0.33333300  0.42389100  1
  Se  Se2  1  0.66666700  0.33333300  0.13970000  1
  Se  Se3  1  0.66666700  0.33333300  0.51542100  1
  S  S0  1  0.33333300  0.66666700  0.32345500  1
  S  S1  1  0.33333300  0.66666700  0.69933900  1
  S  S2  1  0.33333300  0.66666700  0.24012600  1
  S  S3  1  0.33333300  0.66666700  0.61573900  1
loop_
_geom_bond_atom_site_label_1
_geom_bond_atom_site_label_2
_geom_bond_distance
_geom_bond_site_symmetry_2
Mo0 Se0 2.531811 1_455
Mo0 Se0 2.531811 1_565
Mo0 Se0 2.531815 1_555
Mo0 Se2 2.532408 1_455
Mo0 Se2 2.532408 1_565
Mo0 Se2 2.532412 1_555
Mo1 Se3 2.531836 1_455
Mo1 Se3 2.531836 1_565
Mo1 Se3 2.531840 1_555
Mo1 Se1 2.531985 1_455
Mo1 Se1 2.531985 1_565
Mo1 Se1 2.531989 1_555
Mo2 S0 2.432230 1_545
Mo2 S0 2.432230 1_655
Mo2 S0 2.432234 1_555
Mo2 S2 2.432819 1_545
Mo2 S2 2.432819 1_655
Mo2 S2 2.432824 1_555
S1 W0 2.435580 1_455
S1 W0 2.435580 1_565
S1 W0 2.435584 1_555
S3 W0 2.435863 1_455
S3 W0 2.435863 1_565
S3 W0 2.435868 1_555
