# generated using pymatgen
data_PrBi
_symmetry_space_group_name_H-M   'P 1'
_cell_length_a   8.55550800
_cell_length_b   8.55550800
_cell_length_c   6.95803800
_cell_angle_alpha   90.00000000
_cell_angle_beta   90.00000000
_cell_angle_gamma   90.00000000
_symmetry_Int_Tables_number   1
_chemical_formula_structural   PrBi
_chemical_formula_sum   'Pr8 Bi8'
_cell_volume   509.30553932
_cell_formula_units_Z   8
loop_
 _symmetry_equiv_pos_site_id
 _symmetry_equiv_pos_as_xyz
  1  'x, y, z'
loop_
 _atom_site_type_symbol
 _atom_site_label
 _atom_site_symmetry_multiplicity
 _atom_site_fract_x
 _atom_site_fract_y
 _atom_site_fract_z
 _atom_site_occupancy
  Pr  Pr0_0  1  0.25000000  0.25000000  0.25000000  1
  Pr  Pr0_1  1  0.25000000  0.25000000  0.75000000  1
  Pr  Pr0_2  1  0.25000000  0.75000000  0.25000000  1
  Pr  Pr0_3  1  0.25000000  0.75000000  0.75000000  1
  Pr  Pr0_4  1  0.75000000  0.25000000  0.25000000  1
  Pr  Pr0_5  1  0.75000000  0.25000000  0.75000000  1
  Pr  Pr0_6  1  0.75000000  0.75000000  0.25000000  1
  Pr  Pr0_7  1  0.75000000  0.75000000  0.75000000  1
  Bi  Bi0_0  1  0.00000000  0.00000000  0.00000000  1
  Bi  Bi0_1  1  0.00000000  0.00000000  0.50000000  1
  Bi  Bi0_2  1  0.00000000  0.50000000  0.00000000  1
  Bi  Bi0_3  1  0.00000000  0.50000000  0.50000000  1
  Bi  Bi0_4  1  0.50000000  0.00000000  0.00000000  1
  Bi  Bi0_5  1  0.50000000  0.00000000  0.50000000  1
  Bi  Bi0_6  1  0.50000000  0.50000000  0.00000000  1
  Bi  Bi0_7  1  0.50000000  0.50000000  0.50000000  1
loop_
_geom_bond_atom_site_label_1
_geom_bond_atom_site_label_2
_geom_bond_distance
_geom_bond_site_symmetry_2
Pr0_0 Pr0_1 3.479019 1_555
Pr0_0 Pr0_1 3.479019 1_554
Pr0_2 Pr0_3 3.479019 1_555
Pr0_2 Pr0_3 3.479019 1_554
Pr0_4 Pr0_5 3.479019 1_555
Pr0_4 Pr0_5 3.479019 1_554
Pr0_6 Pr0_7 3.479019 1_555
Pr0_6 Pr0_7 3.479019 1_554
Bi0_0 Bi0_1 3.479019 1_554
Bi0_0 Bi0_1 3.479019 1_555
Bi0_0 Pr0_2 3.489338 1_545
Bi0_0 Pr0_0 3.489338 1_555
Bi0_0 Pr0_6 3.489338 1_445
Bi0_0 Pr0_4 3.489338 1_455
Bi0_0 Pr0_5 3.489338 1_454
Bi0_0 Pr0_1 3.489338 1_554
Bi0_0 Pr0_7 3.489338 1_444
Bi0_0 Pr0_3 3.489338 1_544
Bi0_1 Pr0_7 3.489338 1_445
Bi0_1 Pr0_1 3.489338 1_555
Bi0_1 Pr0_3 3.489338 1_545
Bi0_1 Pr0_5 3.489338 1_455
Bi0_1 Pr0_2 3.489338 1_545
Bi0_1 Pr0_0 3.489338 1_555
Bi0_1 Pr0_6 3.489338 1_445
Bi0_1 Pr0_4 3.489338 1_455
Bi0_2 Bi0_3 3.479019 1_554
Bi0_2 Bi0_3 3.479019 1_555
Bi0_2 Pr0_2 3.489338 1_555
Bi0_2 Pr0_0 3.489338 1_555
Bi0_2 Pr0_6 3.489338 1_455
Bi0_2 Pr0_4 3.489338 1_455
Bi0_2 Pr0_5 3.489338 1_454
Bi0_2 Pr0_7 3.489338 1_454
Bi0_2 Pr0_1 3.489338 1_554
Bi0_2 Pr0_3 3.489338 1_554
Bi0_3 Pr0_1 3.489338 1_555
Bi0_3 Pr0_7 3.489338 1_455
Bi0_3 Pr0_3 3.489338 1_555
Bi0_3 Pr0_5 3.489338 1_455
Bi0_3 Pr0_0 3.489338 1_555
Bi0_3 Pr0_2 3.489338 1_555
Bi0_3 Pr0_6 3.489338 1_455
Bi0_3 Pr0_4 3.489338 1_455
Bi0_4 Bi0_5 3.479019 1_554
Bi0_4 Bi0_5 3.479019 1_555
Bi0_4 Pr0_2 3.489338 1_545
Bi0_4 Pr0_0 3.489338 1_555
Bi0_4 Pr0_4 3.489338 1_555
Bi0_4 Pr0_6 3.489338 1_545
Bi0_4 Pr0_3 3.489338 1_544
Bi0_4 Pr0_1 3.489338 1_554
Bi0_4 Pr0_5 3.489338 1_554
Bi0_4 Pr0_7 3.489338 1_544
Bi0_5 Pr0_1 3.489338 1_555
Bi0_5 Pr0_7 3.489338 1_545
Bi0_5 Pr0_3 3.489338 1_545
Bi0_5 Pr0_5 3.489338 1_555
Bi0_5 Pr0_2 3.489338 1_545
Bi0_5 Pr0_0 3.489338 1_555
Bi0_5 Pr0_4 3.489338 1_555
Bi0_5 Pr0_6 3.489338 1_545
Bi0_6 Bi0_7 3.479019 1_554
Bi0_6 Bi0_7 3.479019 1_555
Bi0_6 Pr0_0 3.489338 1_555
Bi0_6 Pr0_2 3.489338 1_555
Bi0_6 Pr0_4 3.489338 1_555
Bi0_6 Pr0_6 3.489338 1_555
Bi0_6 Pr0_1 3.489338 1_554
Bi0_6 Pr0_5 3.489338 1_554
Bi0_6 Pr0_7 3.489338 1_554
Bi0_6 Pr0_3 3.489338 1_554
Bi0_7 Pr0_7 3.489338 1_555
Bi0_7 Pr0_1 3.489338 1_555
Bi0_7 Pr0_3 3.489338 1_555
Bi0_7 Pr0_5 3.489338 1_555
Bi0_7 Pr0_0 3.489338 1_555
Bi0_7 Pr0_2 3.489338 1_555
Bi0_7 Pr0_4 3.489338 1_555
Bi0_7 Pr0_6 3.489338 1_555
