# generated using pymatgen
data_Sc(TiGa2)2
_symmetry_space_group_name_H-M   'P 1'
_cell_length_a   5.38260290
_cell_length_b   5.38260290
_cell_length_c   5.38260290
_cell_angle_alpha   104.61305180
_cell_angle_beta   104.61305180
_cell_angle_gamma   119.69747675
_symmetry_Int_Tables_number   1
_chemical_formula_structural   Sc(TiGa2)2
_chemical_formula_sum   'Sc1 Ti2 Ga4'
_cell_volume   117.13593999
_cell_formula_units_Z   1
loop_
 _symmetry_equiv_pos_site_id
 _symmetry_equiv_pos_as_xyz
  1  'x, y, z'
loop_
 _atom_site_type_symbol
 _atom_site_label
 _atom_site_symmetry_multiplicity
 _atom_site_fract_x
 _atom_site_fract_y
 _atom_site_fract_z
 _atom_site_occupancy
  Sc  Sc0  1  0.00000000  -0.00000000  0.00000000  1
  Ti  Ti0  1  0.75000000  0.25000000  0.50000000  1
  Ti  Ti1  1  0.25000000  0.75000000  0.50000000  1
  Ga  Ga0  1  0.69909129  0.69909129  0.39818358  1
  Ga  Ga1  1  0.30090871  0.30090871  0.60181642  1
  Ga  Ga2  1  0.30090871  0.69909129  0.00000000  1
  Ga  Ga3  1  0.69909129  0.30090871  -0.00000000  1
loop_
_geom_bond_atom_site_label_1
_geom_bond_atom_site_label_2
_geom_bond_distance
_geom_bond_site_symmetry_2
Ti0 Ti1 2.703598 1_545
Ti0 Ti1 2.703598 1_655
Ga0 Ga3 2.620938 1_555
Ga0 Ga2 2.620938 1_555
Ga0 Ti0 2.732703 1_555
Ga0 Ti1 2.732703 1_555
Ga0 Ti1 2.732706 1_655
Ga0 Ti0 2.732706 1_565
Ga0 Sc0 2.801064 1_666
Ga0 Ga1 2.864908 1_555
Ga0 Ga1 2.864918 1_665
Ga0 Sc0 3.277819 1_555
Ga0 Sc0 3.277823 1_665
Ga1 Ga3 2.620938 1_556
Ga1 Ga2 2.620938 1_556
Ga1 Ti0 2.732703 1_555
Ga1 Ti1 2.732703 1_555
Ga1 Ti1 2.732706 1_545
Ga1 Ti0 2.732706 1_455
Ga1 Sc0 2.801064 1_555
Ga1 Sc0 3.277819 1_666
Ga1 Sc0 3.277823 1_556
Ga2 Ti1 2.732705 1_555
Ga2 Ti0 2.732705 1_565
Ga2 Ti1 2.732705 1_554
Ga2 Ti0 2.732705 1_454
Ga2 Sc0 2.801069 1_565
Ga2 Ga3 2.864916 1_565
Ga2 Ga3 2.864916 1_455
Ga2 Sc0 3.277819 1_665
Ga2 Sc0 3.277819 1_555
Ga3 Ti0 2.732705 1_554
Ga3 Ti1 2.732705 1_655
Ga3 Ti0 2.732705 1_555
Ga3 Ti1 2.732705 1_544
Ga3 Sc0 2.801069 1_655
Ga3 Sc0 3.277819 1_555
Ga3 Sc0 3.277819 1_665
