# generated using pymatgen
data_SrMg14Al
_symmetry_space_group_name_H-M   'P 1'
_cell_length_a   6.50747009
_cell_length_b   6.49310333
_cell_length_c   10.52493336
_cell_angle_alpha   90.00000000
_cell_angle_beta   90.00000000
_cell_angle_gamma   119.92700117
_symmetry_Int_Tables_number   1
_chemical_formula_structural   SrMg14Al
_chemical_formula_sum   'Sr1 Mg14 Al1'
_cell_volume   385.41931193
_cell_formula_units_Z   1
loop_
 _symmetry_equiv_pos_site_id
 _symmetry_equiv_pos_as_xyz
  1  'x, y, z'
loop_
 _atom_site_type_symbol
 _atom_site_label
 _atom_site_symmetry_multiplicity
 _atom_site_fract_x
 _atom_site_fract_y
 _atom_site_fract_z
 _atom_site_occupancy
  Sr  Sr0  1  0.16377835  0.83188868  0.12500000  1
  Mg  Mg0  1  0.16212570  0.33106235  0.62500000  1
  Mg  Mg1  1  0.16877105  0.83438502  0.62500000  1
  Mg  Mg2  1  0.65851955  0.33897617  0.12500000  1
  Mg  Mg3  1  0.66745256  0.32913395  0.62500000  1
  Mg  Mg4  1  0.65851955  0.81954238  0.12500000  1
  Mg  Mg5  1  0.66745256  0.83831761  0.62500000  1
  Mg  Mg6  1  0.33500130  0.17595868  0.38381384  1
  Mg  Mg7  1  0.33500130  0.17595868  0.86618616  1
  Mg  Mg8  1  0.33500130  0.65904361  0.38381384  1
  Mg  Mg9  1  0.33500130  0.65904361  0.86618616  1
  Mg  Mg10  1  0.83712234  0.16856167  0.36514451  1
  Mg  Mg11  1  0.83712234  0.16856167  0.88485549  1
  Mg  Mg12  1  0.82454278  0.66227189  0.38876377  1
  Mg  Mg13  1  0.82454278  0.66227189  0.86123623  1
  Al  Al0  1  0.19004527  0.34502214  0.12500000  1
loop_
_geom_bond_atom_site_label_1
_geom_bond_atom_site_label_2
_geom_bond_distance
_geom_bond_site_symmetry_2
Mg0 Mg6 3.139130 1_555
Mg0 Mg7 3.139130 1_555
Mg0 Mg8 3.139137 1_555
Mg0 Mg9 3.139137 1_555
Mg0 Mg5 3.212842 1_445
Mg0 Mg3 3.212842 1_455
Mg0 Mg1 3.246768 1_555
Mg0 Mg1 3.246768 1_545
Mg0 Mg11 3.292371 1_455
Mg0 Mg10 3.292371 1_455
Mg0 Mg5 3.294664 1_555
Mg0 Mg3 3.294664 1_555
Mg1 Mg12 3.154514 1_455
Mg1 Mg13 3.154514 1_455
Mg1 Mg8 3.184185 1_555
Mg1 Mg9 3.184185 1_555
Mg1 Mg6 3.184192 1_565
Mg1 Mg7 3.184192 1_565
Mg1 Mg3 3.232491 1_565
Mg1 Mg5 3.232492 1_555
Mg1 Mg3 3.275129 1_455
Mg1 Mg5 3.275129 1_455
Mg2 Sr0 3.248705 1_655
Mg2 Sr0 3.260248 1_545
Mg2 Mg7 3.278611 1_554
Mg2 Mg6 3.278611 1_555
Mg3 Mg6 3.156967 1_555
Mg3 Mg7 3.156967 1_555
Mg3 Mg5 3.186921 1_545
Mg3 Mg5 3.306182 1_555
Mg4 Sr0 3.248705 1_655
Mg4 Sr0 3.260248 1_555
Mg4 Mg9 3.278611 1_554
Mg4 Mg8 3.278611 1_555
Mg5 Mg8 3.156967 1_555
Mg5 Mg9 3.156967 1_555
Mg6 Mg8 3.136720 1_555
Mg6 Sr0 3.342007 1_545
Mg6 Mg8 3.356383 1_545
Mg7 Mg9 3.136720 1_555
Mg7 Sr0 3.342007 1_546
Mg7 Mg9 3.356383 1_545
Mg8 Sr0 3.342001 1_555
Mg9 Sr0 3.342001 1_556
Mg10 Mg2 3.201048 1_555
Mg10 Mg4 3.201055 1_545
Mg10 Mg8 3.222236 1_655
Mg10 Mg6 3.222237 1_655
Mg10 Mg12 3.256828 1_545
Mg10 Mg12 3.256828 1_555
Mg10 Mg8 3.297622 1_545
Mg10 Mg6 3.297622 1_555
Mg10 Mg3 3.306776 1_555
Mg10 Mg5 3.306782 1_545
Mg11 Mg2 3.201048 1_556
Mg11 Mg4 3.201055 1_546
Mg11 Mg9 3.222236 1_655
Mg11 Mg7 3.222237 1_655
Mg11 Mg13 3.256828 1_545
Mg11 Mg13 3.256828 1_555
Mg11 Mg9 3.297622 1_545
Mg11 Mg7 3.297622 1_555
Mg11 Mg3 3.306776 1_555
Mg11 Mg5 3.306782 1_545
Mg12 Mg5 3.114425 1_555
Mg12 Mg3 3.114431 1_555
Mg12 Mg6 3.175698 1_555
Mg12 Mg8 3.175698 1_555
Mg12 Mg4 3.319274 1_555
Mg12 Mg2 3.319280 1_555
Mg12 Mg6 3.332708 1_665
Mg12 Mg8 3.332708 1_655
Mg12 Sr0 3.371512 1_655
Mg13 Mg5 3.114425 1_555
Mg13 Mg3 3.114431 1_555
Mg13 Mg7 3.175698 1_555
Mg13 Mg9 3.175698 1_555
Mg13 Mg4 3.319274 1_556
Mg13 Mg2 3.319280 1_556
Mg13 Mg7 3.332708 1_665
Mg13 Mg9 3.332708 1_655
Mg13 Sr0 3.371512 1_656
Al0 Mg4 3.068356 1_555
Al0 Mg2 3.068356 1_555
Al0 Mg10 3.217141 1_455
Al0 Mg11 3.217141 1_454
Al0 Mg7 3.247805 1_554
Al0 Mg6 3.247805 1_555
Al0 Mg9 3.247811 1_554
Al0 Mg8 3.247811 1_555
Al0 Sr0 3.249930 1_545
Al0 Sr0 3.249930 1_555
