# generated using pymatgen
data_Mg14FeNiO16
_symmetry_space_group_name_H-M   'P 1'
_cell_length_a   8.53771812
_cell_length_b   8.50425845
_cell_length_c   4.27229173
_cell_angle_alpha   90.00000000
_cell_angle_beta   90.00000000
_cell_angle_gamma   90.00000000
_symmetry_Int_Tables_number   1
_chemical_formula_structural   Mg14FeNiO16
_chemical_formula_sum   'Mg14 Fe1 Ni1 O16'
_cell_volume   310.19812101
_cell_formula_units_Z   1
loop_
 _symmetry_equiv_pos_site_id
 _symmetry_equiv_pos_as_xyz
  1  'x, y, z'
loop_
 _atom_site_type_symbol
 _atom_site_label
 _atom_site_symmetry_multiplicity
 _atom_site_fract_x
 _atom_site_fract_y
 _atom_site_fract_z
 _atom_site_occupancy
  Mg  Mg0  1  0.50000000  0.00000000  0.00000000  1
  Mg  Mg1  1  0.50000000  0.50000000  0.00000000  1
  Mg  Mg2  1  0.00000000  0.25132549  0.50000000  1
  Mg  Mg3  1  0.00000000  0.74867451  0.50000000  1
  Mg  Mg4  1  0.50000000  0.24979806  0.50000000  1
  Mg  Mg5  1  0.50000000  0.75020194  0.50000000  1
  Mg  Mg6  1  0.24942525  0.00000000  0.50000000  1
  Mg  Mg7  1  0.24906757  0.50000000  0.50000000  1
  Mg  Mg8  1  0.75057475  0.00000000  0.50000000  1
  Mg  Mg9  1  0.75093243  0.50000000  0.50000000  1
  Mg  Mg10  1  0.25071676  0.25046343  0.00000000  1
  Mg  Mg11  1  0.25071676  0.74953657  0.00000000  1
  Mg  Mg12  1  0.74928324  0.25046343  0.00000000  1
  Mg  Mg13  1  0.74928324  0.74953657  0.00000000  1
  Fe  Fe0  1  0.00000000  0.00000000  0.00000000  1
  Ni  Ni0  1  0.00000000  0.50000000  0.00000000  1
  O  O0  1  0.25626942  0.00000000  0.00000000  1
  O  O1  1  0.25034812  0.50000000  0.00000000  1
  O  O2  1  0.74373058  0.00000000  0.00000000  1
  O  O3  1  0.74965188  0.50000000  0.00000000  1
  O  O4  1  0.24891524  0.25046034  0.50000000  1
  O  O5  1  0.24891524  0.74953966  0.50000000  1
  O  O6  1  0.75108476  0.25046034  0.50000000  1
  O  O7  1  0.75108476  0.74953966  0.50000000  1
  O  O8  1  0.00000000  0.00000000  0.50000000  1
  O  O9  1  0.00000000  0.50000000  0.50000000  1
  O  O10  1  0.50000000  0.00000000  0.50000000  1
  O  O11  1  0.50000000  0.50000000  0.50000000  1
  O  O12  1  0.00000000  0.25144250  0.00000000  1
  O  O13  1  0.00000000  0.74855750  0.00000000  1
  O  O14  1  0.50000000  0.25121421  0.00000000  1
  O  O15  1  0.50000000  0.74878579  0.00000000  1
loop_
_geom_bond_atom_site_label_1
_geom_bond_atom_site_label_2
_geom_bond_distance
_geom_bond_site_symmetry_2
Mg0 O0 2.080903 1_555
Mg0 O2 2.080903 1_555
Mg0 O10 2.136146 1_555
Mg0 O10 2.136146 1_554
Mg0 O14 2.136391 1_555
Mg0 O15 2.136391 1_545
Mg1 O14 2.115739 1_555
Mg1 O15 2.115739 1_555
Mg1 O1 2.131457 1_555
Mg1 O3 2.131457 1_555
Mg1 O11 2.136146 1_554
Mg1 O11 2.136146 1_555
Mg2 O9 2.114792 1_555
Mg2 O6 2.125181 1_455
Mg2 O4 2.125181 1_555
Mg2 O12 2.136146 1_556
Mg2 O12 2.136146 1_555
Mg2 O8 2.137337 1_555
Mg3 O9 2.114792 1_555
Mg3 O7 2.125181 1_455
Mg3 O5 2.125181 1_555
Mg3 O13 2.136146 1_556
Mg3 O13 2.136146 1_555
Mg3 O8 2.137337 1_565
Mg4 O10 2.124347 1_555
Mg4 O11 2.127782 1_555
Mg4 O14 2.136180 1_556
Mg4 O14 2.136180 1_555
Mg4 O6 2.143698 1_555
Mg4 O4 2.143698 1_555
Mg5 O10 2.124347 1_565
Mg5 O11 2.127782 1_555
Mg5 O15 2.136180 1_556
Mg5 O15 2.136180 1_555
Mg5 O5 2.143698 1_555
Mg5 O7 2.143698 1_555
Mg6 O8 2.129522 1_555
Mg6 O5 2.129984 1_545
Mg6 O4 2.129984 1_555
Mg6 O0 2.136945 1_555
Mg6 O0 2.136945 1_556
Mg6 O10 2.139337 1_555
Mg7 O4 2.122150 1_555
Mg7 O5 2.122150 1_555
Mg7 O9 2.126469 1_555
Mg7 O1 2.136174 1_556
Mg7 O1 2.136174 1_555
Mg7 O11 2.142390 1_555
Mg8 O8 2.129522 1_655
Mg8 O7 2.129984 1_545
Mg8 O6 2.129984 1_555
Mg8 O2 2.136945 1_556
Mg8 O2 2.136945 1_555
Mg8 O10 2.139337 1_555
Mg9 O6 2.122150 1_555
Mg9 O7 2.122150 1_555
Mg9 O9 2.126469 1_655
Mg9 O3 2.136174 1_556
Mg9 O3 2.136174 1_555
Mg9 O11 2.142390 1_555
Mg10 O1 2.122126 1_555
Mg10 O14 2.128320 1_555
Mg10 O0 2.130533 1_555
Mg10 O4 2.136201 1_554
Mg10 O4 2.136201 1_555
Mg10 O12 2.140565 1_555
Mg11 O1 2.122126 1_555
Mg11 O15 2.128320 1_555
Mg11 O0 2.130533 1_565
Mg11 O5 2.136201 1_555
Mg11 O5 2.136201 1_554
Mg11 O13 2.140565 1_555
Mg12 O3 2.122126 1_555
Mg12 O14 2.128320 1_555
Mg12 O2 2.130533 1_555
Mg12 O6 2.136201 1_555
Mg12 O6 2.136201 1_554
Mg12 O12 2.140565 1_655
Mg13 O3 2.122126 1_555
Mg13 O15 2.128320 1_555
Mg13 O2 2.130533 1_565
Mg13 O7 2.136201 1_555
Mg13 O7 2.136201 1_554
Mg13 O13 2.140565 1_655
Fe0 O8 2.136146 1_554
Fe0 O8 2.136146 1_555
Fe0 O13 2.138332 1_545
Fe0 O12 2.138332 1_555
Fe0 O2 2.187956 1_455
Fe0 O0 2.187956 1_555
Ni0 O12 2.113797 1_555
Ni0 O13 2.113797 1_555
Ni0 O9 2.136146 1_554
Ni0 O9 2.136146 1_555
Ni0 O3 2.137402 1_455
Ni0 O1 2.137402 1_555
