# generated using pymatgen
data_La2Te6WO18
_symmetry_space_group_name_H-M   'P 1'
_cell_length_a   6.92132811
_cell_length_b   6.92132811
_cell_length_c   20.55502300
_cell_angle_alpha   90.00000000
_cell_angle_beta   90.00000000
_cell_angle_gamma   120.00000103
_symmetry_Int_Tables_number   1
_chemical_formula_structural   La2Te6WO18
_chemical_formula_sum   'La4 Te12 W2 O36'
_cell_volume   852.76127338
_cell_formula_units_Z   2
loop_
 _symmetry_equiv_pos_site_id
 _symmetry_equiv_pos_as_xyz
  1  'x, y, z'
loop_
 _atom_site_type_symbol
 _atom_site_label
 _atom_site_symmetry_multiplicity
 _atom_site_fract_x
 _atom_site_fract_y
 _atom_site_fract_z
 _atom_site_occupancy
  La  La0  1  0.66666700  0.33333300  0.25506600  1
  La  La1  1  0.66666700  0.33333300  0.75506600  1
  La  La2  1  0.33333300  0.66666700  0.74429600  1
  La  La3  1  0.33333300  0.66666700  0.24429600  1
  Te  Te0  1  0.62993300  0.62997600  0.08595100  1
  Te  Te1  1  0.00004300  0.37006700  0.08595100  1
  Te  Te2  1  0.37002400  0.99995700  0.08595100  1
  Te  Te3  1  0.62993300  0.99995700  0.58595100  1
  Te  Te4  1  0.37002400  0.37006700  0.58595100  1
  Te  Te5  1  0.00004300  0.62997600  0.58595100  1
  Te  Te6  1  0.37585500  0.37532900  0.91356000  1
  Te  Te7  1  0.99947500  0.62414500  0.91356000  1
  Te  Te8  1  0.62467100  0.00052500  0.91356000  1
  Te  Te9  1  0.37585500  0.00052500  0.41356000  1
  Te  Te10  1  0.62467100  0.62414500  0.41356000  1
  Te  Te11  1  0.99947500  0.37532900  0.41356000  1
  W  W0  1  0.00000000  0.00000000  0.22176700  1
  W  W1  1  0.00000000  0.00000000  0.72176700  1
  O  O0  1  0.42330100  0.32567300  0.06061700  1
  O  O1  1  0.90237100  0.57669900  0.06061700  1
  O  O2  1  0.67432700  0.09762900  0.06061700  1
  O  O3  1  0.42330100  0.09762900  0.56061700  1
  O  O4  1  0.67432700  0.57669900  0.56061700  1
  O  O5  1  0.90237100  0.32567300  0.56061700  1
  O  O6  1  0.58043200  0.67718100  0.93913700  1
  O  O7  1  0.09674900  0.41956800  0.93913700  1
  O  O8  1  0.32281900  0.90325100  0.93913700  1
  O  O9  1  0.58043200  0.90325100  0.43913700  1
  O  O10  1  0.32281900  0.41956800  0.43913700  1
  O  O11  1  0.09674900  0.67718100  0.43913700  1
  O  O12  1  0.33333300  0.66666700  0.09925800  1
  O  O13  1  0.33333300  0.66666700  0.59925800  1
  O  O14  1  0.66666700  0.33333300  0.90256000  1
  O  O15  1  0.66666700  0.33333300  0.40256000  1
  O  O16  1  0.24800900  0.24946200  0.25127100  1
  O  O17  1  0.00145300  0.75199100  0.25127100  1
  O  O18  1  0.75053800  0.99854700  0.25127100  1
  O  O19  1  0.24800900  0.99854700  0.75127100  1
  O  O20  1  0.75053800  0.75199100  0.75127100  1
  O  O21  1  0.00145300  0.24946200  0.75127100  1
  O  O22  1  0.60586800  0.57339400  0.17670600  1
  O  O23  1  0.96752600  0.39413200  0.17670600  1
  O  O24  1  0.42660600  0.03247400  0.17670600  1
  O  O25  1  0.60586800  0.03247400  0.67670600  1
  O  O26  1  0.42660600  0.39413200  0.67670600  1
  O  O27  1  0.96752600  0.57339400  0.67670600  1
  O  O28  1  0.39713300  0.42924900  0.82389700  1
  O  O29  1  0.03211600  0.60286700  0.82389700  1
  O  O30  1  0.57075100  0.96788400  0.82389700  1
  O  O31  1  0.39713300  0.96788400  0.32389700  1
  O  O32  1  0.57075100  0.60286700  0.32389700  1
  O  O33  1  0.03211600  0.42924900  0.32389700  1
  O  O34  1  0.00000000  0.00000000  0.13293500  1
  O  O35  1  0.00000000  0.00000000  0.63293500  1
loop_
_geom_bond_atom_site_label_1
_geom_bond_atom_site_label_2
_geom_bond_distance
_geom_bond_site_symmetry_2
La0 O23 2.496256 1_555
La0 O24 2.496258 1_555
La0 O22 2.496261 1_555
La0 O18 2.656581 1_545
La0 O17 2.656585 1_655
La0 O16 2.656588 1_555
La0 O33 2.676021 1_655
La0 O31 2.676023 1_545
La0 O32 2.676027 1_555
La0 O15 3.031743 1_555
La1 O25 2.496256 1_555
La1 O27 2.496258 1_555
La1 O26 2.496261 1_555
La1 O21 2.656581 1_655
La1 O19 2.656585 1_545
La1 O20 2.656588 1_555
La1 O30 2.676021 1_545
La1 O29 2.676023 1_655
La1 O28 2.676027 1_555
La1 O14 3.031743 1_555
La2 O29 2.509584 1_555
La2 O30 2.509585 1_555
La2 O28 2.509589 1_555
La2 O19 2.646183 1_555
La2 O21 2.646188 1_555
La2 O20 2.646190 1_555
La2 O27 2.668861 1_455
La2 O25 2.668862 1_565
La2 O26 2.668867 1_555
La2 O13 2.981259 1_555
La3 O31 2.509584 1_555
La3 O33 2.509585 1_555
La3 O32 2.509589 1_555
La3 O17 2.646183 1_555
La3 O18 2.646188 1_555
La3 O16 2.646190 1_555
La3 O24 2.668861 1_565
La3 O23 2.668862 1_455
La3 O22 2.668867 1_555
La3 O12 2.981259 1_555
O0 Te0 1.934000 1_555
O0 Te2 2.158265 1_545
O1 Te1 1.934005 1_655
O1 Te0 2.158258 1_555
O2 Te2 1.933999 1_545
O2 Te1 2.158263 1_655
O3 Te3 1.934005 1_545
O3 Te4 2.158258 1_555
O4 Te4 1.934000 1_555
O4 Te5 2.158265 1_655
O5 Te5 1.933999 1_655
O5 Te3 2.158263 1_545
O6 Te6 1.920393 1_555
O6 Te8 2.166428 1_565
O7 Te7 1.920388 1_455
O7 Te6 2.166435 1_555
O8 Te8 1.920394 1_565
O8 Te7 2.166431 1_455
O9 Te9 1.920388 1_565
O9 Te10 2.166435 1_555
O10 Te10 1.920393 1_555
O10 Te11 2.166428 1_455
O11 Te11 1.920394 1_455
O11 Te9 2.166431 1_565
O12 Te2 2.207909 1_555
O12 Te1 2.207912 1_555
O12 Te0 2.207916 1_555
O13 Te5 2.207909 1_555
O13 Te3 2.207912 1_555
O13 Te4 2.207916 1_555
O14 Te7 2.184503 1_555
O14 Te8 2.184503 1_555
O14 Te6 2.184503 1_555
O15 Te9 2.184503 1_555
O15 Te11 2.184503 1_555
O15 Te10 2.184503 1_555
O16 W0 1.825295 1_555
O17 W0 1.825295 1_565
O18 W0 1.825295 1_665
O19 W1 1.825295 1_565
O20 W1 1.825295 1_665
O21 W1 1.825295 1_555
O22 Te0 1.896276 1_555
O23 Te1 1.896276 1_655
O24 Te2 1.896276 1_545
O25 Te3 1.896276 1_545
O26 Te4 1.896276 1_555
O27 Te5 1.896276 1_655
O28 Te6 1.871562 1_555
O29 Te7 1.871561 1_455
O30 Te8 1.871562 1_565
O31 Te9 1.871561 1_565
O32 Te10 1.871562 1_555
O33 Te11 1.871562 1_455
O34 W0 1.825944 1_555
O35 W1 1.825944 1_555
