# generated using pymatgen
data_YbP3(HO)6
_symmetry_space_group_name_H-M   'P 1'
_cell_length_a   8.02201260
_cell_length_b   8.02201260
_cell_length_c   12.63868421
_cell_angle_alpha   59.61803790
_cell_angle_beta   59.61803790
_cell_angle_gamma   42.97085454
_symmetry_Int_Tables_number   1
_chemical_formula_structural   YbP3(HO)6
_chemical_formula_sum   'Yb2 P6 H12 O12'
_cell_volume   465.34804535
_cell_formula_units_Z   2
loop_
 _symmetry_equiv_pos_site_id
 _symmetry_equiv_pos_as_xyz
  1  'x, y, z'
loop_
 _atom_site_type_symbol
 _atom_site_label
 _atom_site_symmetry_multiplicity
 _atom_site_fract_x
 _atom_site_fract_y
 _atom_site_fract_z
 _atom_site_occupancy
  Yb  Yb0  1  0.50000000  0.50000000  0.00000000  1
  Yb  Yb1  1  0.50000000  0.50000000  0.50000000  1
  P  P0  1  0.82259100  0.82259100  0.08747800  1
  P  P1  1  0.17740900  0.17740900  0.91252200  1
  P  P2  1  0.90713700  0.90713700  0.71420700  1
  P  P3  1  0.09286300  0.09286300  0.28579300  1
  P  P4  1  0.65829600  0.65829600  0.64549500  1
  P  P5  1  0.34170400  0.34170400  0.35450500  1
  H  H0  1  0.72083700  0.72083700  0.10211200  1
  H  H1  1  0.27916300  0.27916300  0.89788800  1
  H  H2  1  0.79625100  0.79625100  0.21439300  1
  H  H3  1  0.20374900  0.20374900  0.78560700  1
  H  H4  1  0.98921600  0.98921600  0.73941500  1
  H  H5  1  0.01078400  0.01078400  0.26058500  1
  H  H6  1  0.81176500  0.81176500  0.83696300  1
  H  H7  1  0.18823500  0.18823500  0.16303700  1
  H  H8  1  0.53584600  0.91800000  0.61869900  1
  H  H9  1  0.91800000  0.53584600  0.61869900  1
  H  H10  1  0.46415400  0.08200000  0.38130100  1
  H  H11  1  0.08200000  0.46415400  0.38130100  1
  O  O0  1  0.10229400  0.65186200  0.02870500  1
  O  O1  1  0.65186200  0.10229400  0.02870500  1
  O  O2  1  0.89770600  0.34813800  0.97129500  1
  O  O3  1  0.34813800  0.89770600  0.97129500  1
  O  O4  1  0.68725100  0.13606800  0.65190800  1
  O  O5  1  0.13606800  0.68725100  0.65190800  1
  O  O6  1  0.31274900  0.86393200  0.34809200  1
  O  O7  1  0.86393200  0.31274900  0.34809200  1
  O  O8  1  0.57299700  0.57299700  0.78501500  1
  O  O9  1  0.42700300  0.42700300  0.21498500  1
  O  O10  1  0.63184900  0.63184900  0.54502300  1
  O  O11  1  0.36815100  0.36815100  0.45497700  1
loop_
_geom_bond_atom_site_label_1
_geom_bond_atom_site_label_2
_geom_bond_distance
_geom_bond_site_symmetry_2
H0 P0 1.427041 1_555
H1 P1 1.427041 1_555
H2 P0 1.428949 1_555
H3 P1 1.428949 1_555
H4 P2 1.423875 1_555
H5 P3 1.423875 1_555
H6 P2 1.425830 1_555
H7 P3 1.425830 1_555
H8 P4 1.431068 1_555
H9 P4 1.431068 1_555
H10 P5 1.431068 1_555
H11 P5 1.431068 1_555
O0 P0 1.519256 1_455
O0 Yb0 2.320108 1_555
O1 P0 1.519256 1_545
O1 Yb0 2.320108 1_555
O2 P1 1.519256 1_655
O2 Yb0 2.320108 1_556
O3 P1 1.519256 1_565
O3 Yb0 2.320108 1_556
O4 P2 1.518458 1_545
O4 Yb1 2.301219 1_555
O5 P2 1.518458 1_455
O5 Yb1 2.301219 1_555
O6 P3 1.518458 1_565
O6 Yb1 2.301219 1_555
O7 P3 1.518458 1_655
O7 Yb1 2.301219 1_555
O8 P4 1.513284 1_555
O8 Yb0 2.313337 1_556
O9 P5 1.513284 1_555
O9 Yb0 2.313337 1_555
O10 P4 1.520983 1_555
O10 Yb1 2.327221 1_555
O11 P5 1.520983 1_555
O11 Yb1 2.327221 1_555
