# generated using pymatgen
data_Sr2Mg
_symmetry_space_group_name_H-M   'P 1'
_cell_length_a   7.54447467
_cell_length_b   7.54447467
_cell_length_c   6.09681900
_cell_angle_alpha   90.00000000
_cell_angle_beta   90.00000000
_cell_angle_gamma   132.30617792
_symmetry_Int_Tables_number   1
_chemical_formula_structural   Sr2Mg
_chemical_formula_sum   'Sr4 Mg2'
_cell_volume   256.64562049
_cell_formula_units_Z   2
loop_
 _symmetry_equiv_pos_site_id
 _symmetry_equiv_pos_as_xyz
  1  'x, y, z'
loop_
 _atom_site_type_symbol
 _atom_site_label
 _atom_site_symmetry_multiplicity
 _atom_site_fract_x
 _atom_site_fract_y
 _atom_site_fract_z
 _atom_site_occupancy
  Sr  Sr0  1  0.10370200  0.38977000  0.75000000  1
  Sr  Sr1  1  0.38977000  0.10370200  0.75000000  1
  Sr  Sr2  1  0.61023000  0.89629800  0.25000000  1
  Sr  Sr3  1  0.89629800  0.61023000  0.25000000  1
  Mg  Mg0  1  0.73480900  0.73480900  0.75000000  1
  Mg  Mg1  1  0.26519100  0.26519100  0.25000000  1
loop_
_geom_bond_atom_site_label_1
_geom_bond_atom_site_label_2
_geom_bond_distance
_geom_bond_site_symmetry_2
Sr0 Sr1 3.947964 1_555
Sr0 Sr3 4.243964 1_455
Sr0 Sr3 4.243964 1_456
Sr0 Sr1 4.245055 1_455
Sr0 Sr1 4.245055 1_565
Sr0 Sr2 4.284285 1_446
Sr0 Sr2 4.284285 1_445
Sr0 Sr2 4.340619 1_556
Sr0 Sr2 4.340619 1_555
Sr1 Sr2 4.243964 1_546
Sr1 Sr2 4.243964 1_545
Sr1 Sr3 4.284285 1_445
Sr1 Sr3 4.284285 1_446
Sr1 Sr3 4.340619 1_555
Sr1 Sr3 4.340619 1_556
Sr2 Sr3 3.947964 1_555
Sr2 Sr3 4.245055 1_455
Sr2 Sr3 4.245055 1_565
Mg0 Sr0 3.572350 1_555
Mg0 Sr1 3.572350 1_555
Mg0 Sr2 3.633467 1_556
Mg0 Sr2 3.633467 1_555
Mg0 Sr3 3.633467 1_555
Mg0 Sr3 3.633467 1_556
Mg0 Sr0 3.694510 1_665
Mg0 Sr1 3.694510 1_665
Mg1 Sr3 3.572350 1_555
Mg1 Sr2 3.572350 1_555
Mg1 Sr0 3.633467 1_555
Mg1 Sr0 3.633467 1_554
Mg1 Sr1 3.633467 1_554
Mg1 Sr1 3.633467 1_555
Mg1 Sr3 3.694510 1_445
Mg1 Sr2 3.694510 1_445
