# generated using pymatgen
data_Ba2ScAlO5
_symmetry_space_group_name_H-M   'P 1'
_cell_length_a   5.88229345
_cell_length_b   5.88229345
_cell_length_c   14.61090713
_cell_angle_alpha   89.99331355
_cell_angle_beta   89.99331355
_cell_angle_gamma   59.30015131
_symmetry_Int_Tables_number   1
_chemical_formula_structural   Ba2ScAlO5
_chemical_formula_sum   'Ba6 Sc3 Al3 O15'
_cell_volume   434.70543758
_cell_formula_units_Z   3
loop_
 _symmetry_equiv_pos_site_id
 _symmetry_equiv_pos_as_xyz
  1  'x, y, z'
loop_
 _atom_site_type_symbol
 _atom_site_label
 _atom_site_symmetry_multiplicity
 _atom_site_fract_x
 _atom_site_fract_y
 _atom_site_fract_z
 _atom_site_occupancy
  Ba  Ba0  1  0.00363500  0.00363500  0.75450400  1
  Ba  Ba1  1  0.98455900  0.98455900  0.25276900  1
  Ba  Ba2  1  0.66790600  0.66790600  0.09972800  1
  Ba  Ba3  1  0.33118500  0.33118500  0.93386800  1
  Ba  Ba4  1  0.33447500  0.33447500  0.55987000  1
  Ba  Ba5  1  0.66718800  0.66718800  0.40287600  1
  Sc  Sc0  1  0.99830800  0.99830800  0.49117300  1
  Sc  Sc1  1  0.00164300  0.00164300  0.01183500  1
  Sc  Sc2  1  0.66120500  0.66120500  0.63949200  1
  Al  Al0  1  0.31269100  0.31269100  0.34509700  1
  Al  Al1  1  0.31152200  0.31152200  0.15334200  1
  Al  Al2  1  0.64579500  0.64579500  0.87107100  1
  O  O0  1  0.84955200  0.33220800  0.57546700  1
  O  O1  1  0.84719600  0.84719600  0.60231500  1
  O  O2  1  0.33220800  0.84955200  0.57546700  1
  O  O3  1  0.17705100  0.64170600  0.41023800  1
  O  O4  1  0.16065200  0.16065200  0.40742200  1
  O  O5  1  0.64170600  0.17705100  0.41023800  1
  O  O6  1  0.16913200  0.63823400  0.08613100  1
  O  O7  1  0.15758100  0.15758100  0.09369300  1
  O  O8  1  0.63823400  0.16913200  0.08613100  1
  O  O9  1  0.83656200  0.33531000  0.92537300  1
  O  O10  1  0.81938300  0.81938300  0.87670700  1
  O  O11  1  0.33531000  0.83656200  0.92537300  1
  O  O12  1  0.56901300  0.56901300  0.76203300  1
  O  O13  1  0.49612800  0.07018000  0.24889400  1
  O  O14  1  0.07018000  0.49612800  0.24889400  1
loop_
_geom_bond_atom_site_label_1
_geom_bond_atom_site_label_2
_geom_bond_distance
_geom_bond_site_symmetry_2
Ba0 O10 2.595358 1_445
Ba0 O1 2.739289 1_445
Ba0 O12 2.987794 1_455
Ba0 O12 2.987794 1_545
Ba0 O9 3.007955 1_455
Ba0 O11 3.007955 1_545
Ba0 O0 3.100100 1_455
Ba0 O2 3.100100 1_545
Ba1 O14 2.652176 1_655
Ba1 O13 2.652176 1_565
Ba1 O3 2.882838 1_655
Ba1 O5 2.882838 1_565
Ba1 O4 2.889365 1_665
Ba1 O7 2.920683 1_665
Ba1 O6 2.999822 1_655
Ba1 O8 2.999822 1_565
Ba1 O13 3.295395 1_665
Ba1 O14 3.295395 1_665
Ba2 O6 2.870047 1_655
Ba2 O8 2.870047 1_565
Ba2 O7 2.913229 1_655
Ba2 O7 2.913229 1_565
Ba2 O14 2.988247 1_655
Ba2 O13 2.988247 1_565
Ba2 O8 3.033304 1_555
Ba2 O6 3.033304 1_555
Ba2 O9 3.052906 1_554
Ba2 O11 3.052906 1_554
Ba3 O6 2.713410 1_556
Ba3 O8 2.713410 1_556
Ba3 O9 2.899877 1_455
Ba3 O11 2.899877 1_545
Ba3 O7 2.932995 1_556
Ba3 O9 2.987801 1_555
Ba3 O11 2.987801 1_555
Ba3 O10 3.029866 1_545
Ba3 O10 3.029866 1_455
Ba4 O5 2.682171 1_555
Ba4 O3 2.682171 1_555
Ba4 O4 2.849704 1_555
Ba4 O0 2.868331 1_455
Ba4 O2 2.868331 1_545
Ba4 O1 2.978174 1_455
Ba4 O1 2.978174 1_545
Ba4 O2 3.031651 1_555
Ba4 O0 3.031651 1_555
Ba5 O4 2.911505 1_655
Ba5 O4 2.911505 1_565
Ba5 O5 2.927467 1_565
Ba5 O3 2.927467 1_655
Ba5 O5 2.964400 1_555
Ba5 O3 2.964400 1_555
Ba5 O2 3.038684 1_555
Ba5 O0 3.038684 1_555
Ba5 O13 3.042571 1_565
Ba5 O14 3.042571 1_655
Al0 O4 1.801455 1_555
Al0 O13 1.898268 1_555
Al0 O14 1.898268 1_555
Al0 O5 1.926557 1_555
Al0 O3 1.926557 1_555
Al1 O7 1.799207 1_555
Al1 O13 1.889305 1_555
Al1 O14 1.889305 1_555
Al1 O6 1.927540 1_555
Al1 O8 1.927540 1_555
Al2 O11 1.769610 1_555
Al2 O9 1.769610 1_555
Al2 O12 1.776153 1_555
Al2 O10 1.776713 1_555
O0 Sc2 1.912764 1_555
O0 Sc0 2.094198 1_545
O1 Sc2 1.977592 1_555
O1 Sc0 2.241280 1_555
O2 Sc2 1.912764 1_555
O2 Sc0 2.094198 1_455
O3 Sc0 2.156907 1_455
O4 Sc0 2.062010 1_445
O5 Sc0 2.156907 1_545
O6 Sc1 2.137272 1_565
O7 Sc1 1.993209 1_555
O8 Sc1 2.137272 1_655
O9 Sc1 2.108259 1_656
O10 Sc1 2.715048 1_666
O11 Sc1 2.108259 1_566
O12 Sc2 2.023283 1_555
