# generated using pymatgen
data_LaMg
_symmetry_space_group_name_H-M   'P 1'
_cell_length_a   3.80145904
_cell_length_b   5.61547331
_cell_length_c   5.78901109
_cell_angle_alpha   90.00000000
_cell_angle_beta   90.00000000
_cell_angle_gamma   90.00000000
_symmetry_Int_Tables_number   1
_chemical_formula_structural   LaMg
_chemical_formula_sum   'La2 Mg2'
_cell_volume   123.57797214
_cell_formula_units_Z   2
loop_
 _symmetry_equiv_pos_site_id
 _symmetry_equiv_pos_as_xyz
  1  'x, y, z'
loop_
 _atom_site_type_symbol
 _atom_site_label
 _atom_site_symmetry_multiplicity
 _atom_site_fract_x
 _atom_site_fract_y
 _atom_site_fract_z
 _atom_site_occupancy
  La  La0  1  0.00000000  0.75000000  0.20689652  1
  La  La1  1  0.00000000  0.25000000  0.79310348  1
  Mg  Mg0  1  0.50000000  0.25000000  0.30675905  1
  Mg  Mg1  1  0.50000000  0.75000000  0.69324095  1
loop_
_geom_bond_atom_site_label_1
_geom_bond_atom_site_label_2
_geom_bond_distance
_geom_bond_site_symmetry_2
La0 Mg1 3.396991 1_455
La0 Mg1 3.396991 1_555
La0 Mg0 3.439530 1_465
La0 Mg0 3.439530 1_455
La0 Mg0 3.439530 1_555
La0 Mg0 3.439530 1_565
La0 Mg1 3.529139 1_554
La0 Mg1 3.529139 1_454
La1 Mg0 3.396991 1_555
La1 Mg0 3.396991 1_455
La1 Mg1 3.439530 1_545
La1 Mg1 3.439530 1_445
La1 Mg1 3.439530 1_555
La1 Mg1 3.439530 1_455
La1 Mg0 3.529139 1_556
La1 Mg0 3.529139 1_456
