# generated using pymatgen
data_Li9Mn2Co5O16
_symmetry_space_group_name_H-M   'P 1'
_cell_length_a   5.14441155
_cell_length_b   10.06751240
_cell_length_c   5.93830496
_cell_angle_alpha   87.80948295
_cell_angle_beta   71.11925673
_cell_angle_gamma   79.16834078
_symmetry_Int_Tables_number   1
_chemical_formula_structural   Li9Mn2Co5O16
_chemical_formula_sum   'Li9 Mn2 Co5 O16'
_cell_volume   285.73600326
_cell_formula_units_Z   1
loop_
 _symmetry_equiv_pos_site_id
 _symmetry_equiv_pos_as_xyz
  1  'x, y, z'
loop_
 _atom_site_type_symbol
 _atom_site_label
 _atom_site_symmetry_multiplicity
 _atom_site_fract_x
 _atom_site_fract_y
 _atom_site_fract_z
 _atom_site_occupancy
  Li  Li0  1  0.99828400  0.00291000  0.50046200  1
  Li  Li1  1  0.99710600  0.25869600  0.25468600  1
  Li  Li2  1  0.50949400  0.87240500  0.62586100  1
  Li  Li3  1  0.49212300  0.12466500  0.37850900  1
  Li  Li4  1  0.00333400  0.73969800  0.74496800  1
  Li  Li5  1  0.50065800  0.62163400  0.86203800  1
  Li  Li6  1  0.00324100  0.49763300  0.00191500  1
  Li  Li7  1  0.49720300  0.38104300  0.13295900  1
  Li  Li8  1  0.99992900  0.50079800  0.49907300  1
  Mn  Mn0  1  0.99916100  0.00148800  0.00003700  1
  Mn  Mn1  1  0.00088700  0.74524600  0.25350900  1
  Co  Co0  1  0.00027200  0.25161600  0.74884200  1
  Co  Co1  1  0.49988200  0.87597400  0.12347000  1
  Co  Co2  1  0.49878700  0.12505300  0.87730000  1
  Co  Co3  1  0.50341200  0.37929600  0.62008100  1
  Co  Co4  1  0.49719600  0.62109400  0.37645100  1
  O  O0  1  0.77195800  0.93297800  0.29940600  1
  O  O1  1  0.77300800  0.18458700  0.04268700  1
  O  O2  1  0.25463100  0.80238700  0.40600500  1
  O  O3  1  0.28112400  0.05693000  0.17303900  1
  O  O4  1  0.76424700  0.69350700  0.54304600  1
  O  O5  1  0.27695300  0.56248400  0.66905500  1
  O  O6  1  0.75471000  0.41664000  0.80308000  1
  O  O7  1  0.24530700  0.29857800  0.91666200  1
  O  O8  1  0.22705600  0.07132100  0.70257700  1
  O  O9  1  0.24355700  0.30723500  0.47056100  1
  O  O10  1  0.71646000  0.94461400  0.83009300  1
  O  O11  1  0.75562800  0.19140500  0.59431300  1
  O  O12  1  0.22542300  0.81894700  0.95175000  1
  O  O13  1  0.74654500  0.69794600  0.09276800  1
  O  O14  1  0.24066800  0.57555600  0.18407100  1
  O  O15  1  0.72175600  0.44563700  0.32072600  1
loop_
_geom_bond_atom_site_label_1
_geom_bond_atom_site_label_2
_geom_bond_distance
_geom_bond_site_symmetry_2
Li0 O11 2.051906 1_555
Li0 O0 2.132792 1_545
Li0 O3 2.139852 1_655
Li0 O8 2.140560 1_655
Li0 O10 2.161781 1_545
Li0 O2 2.176323 1_645
Li1 O7 2.071972 1_654
Li1 O15 2.096965 1_555
Li1 O11 2.158712 1_555
Li1 O1 2.192026 1_555
Li1 O9 2.195953 1_655
Li1 O3 2.235471 1_655
Li2 O4 1.991645 1_555
Li2 O10 2.080142 1_555
Li2 O0 2.116163 1_555
Li2 O12 2.134484 1_555
Li2 O8 2.208343 1_565
Li2 O2 2.333670 1_555
Li3 O9 2.013290 1_555
Li3 O3 2.081101 1_555
Li3 O8 2.085452 1_555
Li3 O0 2.145862 1_545
Li3 O1 2.190775 1_555
Li3 O11 2.337472 1_555
Li4 O5 2.018548 1_555
Li4 O4 2.092591 1_455
Li4 O13 2.136346 1_456
Li4 O2 2.155603 1_555
Li4 O12 2.185221 1_555
Li4 O10 2.267611 1_455
Li5 O5 2.038533 1_555
Li5 O14 2.042331 1_556
Li5 O4 2.133581 1_555
Li5 O12 2.184080 1_555
Li5 O6 2.198912 1_555
Li5 O13 2.373825 1_556
Li6 O15 2.095230 1_455
Li6 O7 2.134151 1_554
Li6 O14 2.134821 1_555
Li6 O13 2.173240 1_455
Li6 O5 2.182101 1_554
Li6 O6 2.266312 1_454
Li7 O6 2.041069 1_554
Li7 O15 2.042556 1_555
Li7 O14 2.117415 1_555
Li7 O1 2.178616 1_555
Li7 O9 2.198057 1_555
Li7 O7 2.362495 1_554
Li8 O4 2.062021 1_555
Li8 O14 2.083908 1_655
Li8 O9 2.089699 1_655
Li8 O6 2.092650 1_555
Li8 O5 2.178790 1_655
Li8 O15 2.191447 1_555
Mn0 O12 1.958225 1_644
Mn0 O1 1.963310 1_555
Mn0 O8 1.965584 1_654
Mn0 O0 1.966397 1_545
Mn0 O10 2.183666 1_544
Mn0 O3 2.187145 1_655
Mn1 O4 1.877425 1_455
Mn1 O14 1.882217 1_555
Mn1 O13 1.981702 1_455
Mn1 O2 1.985465 1_555
Mn1 O12 1.994171 1_554
Mn1 O0 2.007089 1_455
Co0 O6 1.857023 1_455
Co0 O9 1.861413 1_555
Co0 O1 1.937333 1_456
Co0 O8 1.940626 1_555
Co0 O11 1.967273 1_455
Co0 O7 1.969451 1_555
Co1 O10 1.922269 1_554
Co1 O3 1.930813 1_565
Co1 O2 1.960074 1_555
Co1 O13 1.968814 1_555
Co1 O12 2.155052 1_554
Co1 O0 2.161967 1_555
Co2 O10 1.924496 1_545
Co2 O3 1.931902 1_556
Co2 O7 1.945430 1_555
Co2 O11 1.955732 1_555
Co2 O1 2.138538 1_556
Co2 O8 2.142214 1_555
Co3 O15 1.940812 1_555
Co3 O5 1.963987 1_555
Co3 O6 2.028963 1_555
Co3 O11 2.063063 1_555
Co3 O9 2.069696 1_555
Co3 O7 2.075538 1_555
Co4 O5 1.884094 1_555
Co4 O15 1.895941 1_555
Co4 O2 1.986435 1_555
Co4 O13 1.989167 1_555
Co4 O14 2.121324 1_555
Co4 O4 2.169959 1_555
