# generated using pymatgen
data_LiFeBO3
_symmetry_space_group_name_H-M   'P 1'
_cell_length_a   6.30174886
_cell_length_b   8.19861247
_cell_length_c   8.78650536
_cell_angle_alpha   62.07418447
_cell_angle_beta   68.94574707
_cell_angle_gamma   89.76279365
_symmetry_Int_Tables_number   1
_chemical_formula_structural   LiFeBO3
_chemical_formula_sum   'Li6 Fe6 B6 O18'
_cell_volume   366.83315032
_cell_formula_units_Z   6
loop_
 _symmetry_equiv_pos_site_id
 _symmetry_equiv_pos_as_xyz
  1  'x, y, z'
loop_
 _atom_site_type_symbol
 _atom_site_label
 _atom_site_symmetry_multiplicity
 _atom_site_fract_x
 _atom_site_fract_y
 _atom_site_fract_z
 _atom_site_occupancy
  Li  Li0  1  0.90153700  0.28120000  0.70230500  1
  Li  Li1  1  0.39748400  0.28170700  0.70160900  1
  Li  Li2  1  0.10966300  0.01625300  0.28118300  1
  Li  Li3  1  0.60865100  0.01645500  0.28159300  1
  Li  Li4  1  0.23884500  0.70164000  0.01692400  1
  Li  Li5  1  0.74423500  0.70268400  0.01618000  1
  Fe  Fe0  1  0.50595000  0.37632400  0.98974300  1
  Fe  Fe1  1  0.80885800  0.63158500  0.38231800  1
  Fe  Fe2  1  0.18147400  0.98979500  0.63425200  1
  Fe  Fe3  1  0.00398400  0.36879600  0.99272300  1
  Fe  Fe4  1  0.31534800  0.63816800  0.36891400  1
  Fe  Fe5  1  0.68059500  0.99281000  0.63730100  1
  B  B0  1  0.08438800  0.33320200  0.33324700  1
  B  B1  1  0.58384200  0.33433100  0.33236400  1
  B  B2  1  0.99981600  0.99748200  0.00116600  1
  B  B3  1  0.50029400  0.00139500  0.99932200  1
  B  B4  1  0.41571200  0.66696900  0.66677000  1
  B  B5  1  0.91650800  0.66648500  0.66660800  1
  O  O0  1  0.59948600  0.11009800  0.80363100  1
  O  O1  1  0.09985200  0.10737700  0.80547600  1
  O  O2  1  0.94490300  0.08567000  0.10941300  1
  O  O3  1  0.44516400  0.08780100  0.10793100  1
  O  O4  1  0.95543500  0.80253100  0.08821600  1
  O  O5  1  0.45653100  0.80567100  0.08540600  1
  O  O6  1  0.03178600  0.13752900  0.44053700  1
  O  O7  1  0.53206100  0.13932200  0.43914000  1
  O  O8  1  0.04078400  0.43989600  0.42182500  1
  O  O9  1  0.53925900  0.44125200  0.42083500  1
  O  O10  1  0.17981900  0.42137700  0.13829400  1
  O  O11  1  0.68023200  0.42289700  0.13687400  1
  O  O12  1  0.35893300  0.47184700  0.78251000  1
  O  O13  1  0.86078500  0.47140900  0.78193400  1
  O  O14  1  0.37516100  0.78328800  0.74552500  1
  O  O15  1  0.87439700  0.78229900  0.74563800  1
  O  O16  1  0.51392200  0.74629800  0.47134300  1
  O  O17  1  0.01430300  0.74615900  0.47095300  1
loop_
_geom_bond_atom_site_label_1
_geom_bond_atom_site_label_2
_geom_bond_distance
_geom_bond_site_symmetry_2
Li0 O13 1.968988 1_555
Li0 O8 1.997151 1_655
Li0 O1 2.000931 1_655
Li0 O0 2.004570 1_555
Li1 O12 1.976141 1_555
Li1 O1 1.991010 1_555
Li1 O9 1.999712 1_555
Li1 O0 2.006804 1_555
Li2 O17 1.969159 1_545
Li2 O3 1.998210 1_555
Li2 O6 1.999041 1_555
Li2 O2 1.999064 1_455
Li3 O16 1.969480 1_545
Li3 O7 1.996491 1_555
Li3 O2 2.000836 1_555
Li3 O3 2.005097 1_555
Li4 O14 1.977455 1_554
Li4 O4 1.983828 1_455
Li4 O10 1.995557 1_555
Li4 O5 2.013661 1_555
Li5 O15 1.974766 1_554
Li5 O4 1.985375 1_555
Li5 O11 1.992723 1_555
Li5 O5 2.011473 1_555
Fe0 O3 2.059489 1_556
Fe0 O11 2.123497 1_556
Fe0 O10 2.140517 1_556
Fe0 O12 2.158141 1_555
Fe0 O13 2.165491 1_555
Fe1 O4 2.097281 1_555
Fe1 O9 2.133115 1_555
Fe1 O8 2.135649 1_655
Fe1 O16 2.140286 1_555
Fe1 O17 2.141209 1_655
Fe2 O1 2.062915 1_565
Fe2 O6 2.113544 1_565
Fe2 O14 2.145233 1_555
Fe2 O7 2.157654 1_565
Fe2 O15 2.168772 1_455
Fe3 O2 2.020318 1_456
Fe3 O10 2.142054 1_556
Fe3 O11 2.150685 1_456
Fe3 O13 2.165063 1_455
Fe3 O12 2.171210 1_555
Fe4 O5 2.023925 1_555
Fe4 O9 2.135259 1_555
Fe4 O8 2.142370 1_555
Fe4 O17 2.166625 1_555
Fe4 O16 2.174282 1_555
Fe5 O0 2.024184 1_565
Fe5 O7 2.133844 1_565
Fe5 O6 2.155435 1_665
Fe5 O15 2.157643 1_555
Fe5 O14 2.177633 1_555
B0 O10 1.386378 1_555
B0 O8 1.388685 1_555
B0 O6 1.391232 1_555
B1 O7 1.386449 1_555
B1 O9 1.389586 1_555
B1 O11 1.390102 1_555
B2 O4 1.386660 1_555
B2 O1 1.393007 1_664
B2 O2 1.397384 1_565
B3 O3 1.387868 1_556
B3 O0 1.392305 1_555
B3 O5 1.392857 1_546
B4 O12 1.393144 1_555
B4 O14 1.393784 1_555
B4 O16 1.395798 1_555
B5 O15 1.391860 1_555
B5 O13 1.392494 1_555
B5 O17 1.397197 1_655
