# generated using pymatgen
data_K2AlAgBr6
_symmetry_space_group_name_H-M   'P 1'
_cell_length_a   7.61110365
_cell_length_b   7.61110365
_cell_length_c   7.61110365
_cell_angle_alpha   60.00000000
_cell_angle_beta   60.00000000
_cell_angle_gamma   60.00000000
_symmetry_Int_Tables_number   1
_chemical_formula_structural   K2AlAgBr6
_chemical_formula_sum   'K2 Al1 Ag1 Br6'
_cell_volume   311.76539655
_cell_formula_units_Z   1
loop_
 _symmetry_equiv_pos_site_id
 _symmetry_equiv_pos_as_xyz
  1  'x, y, z'
loop_
 _atom_site_type_symbol
 _atom_site_label
 _atom_site_symmetry_multiplicity
 _atom_site_fract_x
 _atom_site_fract_y
 _atom_site_fract_z
 _atom_site_occupancy
  K  K0  1  0.75000000  0.75000000  0.75000000  1
  K  K1  1  0.25000000  0.25000000  0.25000000  1
  Al  Al0  1  0.00000000  0.00000000  0.00000000  1
  Ag  Ag0  1  0.50000000  0.50000000  0.50000000  1
  Br  Br0  1  0.76461300  0.23538700  0.23538700  1
  Br  Br1  1  0.23538700  0.23538700  0.76461300  1
  Br  Br2  1  0.23538700  0.76461300  0.76461300  1
  Br  Br3  1  0.23538700  0.76461300  0.23538700  1
  Br  Br4  1  0.76461300  0.23538700  0.76461300  1
  Br  Br5  1  0.76461300  0.76461300  0.23538700  1
loop_
_geom_bond_atom_site_label_1
_geom_bond_atom_site_label_2
_geom_bond_distance
_geom_bond_site_symmetry_2
Al0 Br0 2.533641 1_455
Al0 Br5 2.533641 1_445
Al0 Br3 2.533641 1_545
Al0 Br4 2.533641 1_454
Al0 Br1 2.533641 1_554
Al0 Br2 2.533641 1_544
Ag0 Br0 2.848222 1_555
Ag0 Br1 2.848222 1_555
Ag0 Br3 2.848222 1_555
Ag0 Br4 2.848222 1_555
Ag0 Br5 2.848222 1_555
Ag0 Br2 2.848222 1_555
Br0 K1 3.808801 1_555
Br0 K0 3.808801 1_545
Br0 K1 3.808801 1_655
Br0 K0 3.808801 1_554
Br1 K0 3.808801 1_545
Br1 K1 3.808801 1_555
Br1 K1 3.808801 1_556
Br1 K0 3.808801 1_455
Br2 K1 3.808801 1_556
Br2 K1 3.808801 1_565
Br2 K0 3.808801 1_455
Br2 K0 3.808801 1_555
Br3 K1 3.808801 1_555
Br3 K1 3.808801 1_565
Br3 K0 3.808801 1_554
Br3 K0 3.808801 1_455
Br4 K0 3.808801 1_545
Br4 K1 3.808801 1_556
Br4 K1 3.808801 1_655
Br4 K0 3.808801 1_555
Br5 K1 3.808801 1_565
Br5 K1 3.808801 1_655
Br5 K0 3.808801 1_554
Br5 K0 3.808801 1_555
