# generated using pymatgen
data_Sr2NdCu2(BiO4)2
_symmetry_space_group_name_H-M   'P 1'
_cell_length_a   15.63934730
_cell_length_b   15.63934730
_cell_length_c   15.63934730
_cell_angle_alpha   165.94915021
_cell_angle_beta   165.94915021
_cell_angle_gamma   19.92134126
_symmetry_Int_Tables_number   1
_chemical_formula_structural   Sr2NdCu2(BiO4)2
_chemical_formula_sum   'Sr2 Nd1 Cu2 Bi2 O8'
_cell_volume   225.44577148
_cell_formula_units_Z   1
loop_
 _symmetry_equiv_pos_site_id
 _symmetry_equiv_pos_as_xyz
  1  'x, y, z'
loop_
 _atom_site_type_symbol
 _atom_site_label
 _atom_site_symmetry_multiplicity
 _atom_site_fract_x
 _atom_site_fract_y
 _atom_site_fract_z
 _atom_site_occupancy
  Sr  Sr0  1  0.11512000  0.11512000  0.00000000  1
  Sr  Sr1  1  0.88488000  0.88488000  0.00000000  1
  Nd  Nd0  1  0.00000000  0.00000000  0.00000000  1
  Cu  Cu0  1  0.44543100  0.44543100  0.00000000  1
  Cu  Cu1  1  0.55456900  0.55456900  0.00000000  1
  Bi  Bi0  1  0.29580400  0.29580400  0.00000000  1
  Bi  Bi1  1  0.70419600  0.70419600  0.00000000  1
  O  O0  1  0.55170500  0.05170500  0.50000000  1
  O  O1  1  0.44829500  0.94829500  0.50000000  1
  O  O2  1  0.05170500  0.55170500  0.50000000  1
  O  O3  1  0.94829500  0.44829500  0.50000000  1
  O  O4  1  0.20251300  0.20251300  0.00000000  1
  O  O5  1  0.79748700  0.79748700  0.00000000  1
  O  O6  1  0.36461200  0.36461200  0.00000000  1
  O  O7  1  0.63538800  0.63538800  0.00000000  1
loop_
_geom_bond_atom_site_label_1
_geom_bond_atom_site_label_2
_geom_bond_distance
_geom_bond_site_symmetry_2
Nd0 O3 2.489230 1_444
Nd0 O3 2.489230 1_455
Nd0 O1 2.489230 1_444
Nd0 O2 2.489230 1_555
Nd0 O0 2.489230 1_555
Nd0 O2 2.489230 1_544
Nd0 O1 2.489230 1_545
Nd0 O0 2.489230 1_454
Cu0 O1 1.914879 1_544
Cu0 O3 1.914879 1_454
Cu0 O3 1.914879 1_555
Cu0 O1 1.914879 1_555
Cu0 O6 2.489809 1_555
Cu1 O0 1.914879 1_554
Cu1 O0 1.914879 1_565
Cu1 O2 1.914879 1_655
Cu1 O2 1.914879 1_554
Cu1 O7 2.489809 1_555
Bi0 O6 2.119783 1_555
Bi0 O5 2.705668 1_545
Bi0 O5 2.705668 1_455
Bi0 O5 2.705668 1_556
Bi0 O5 2.705668 1_444
Bi0 O4 2.874037 1_555
Bi1 O7 2.119783 1_555
Bi1 O4 2.705668 1_655
Bi1 O4 2.705668 1_554
Bi1 O4 2.705668 1_565
Bi1 O4 2.705668 1_666
Bi1 O5 2.874037 1_555
O0 Sr0 2.734170 1_555
O0 Sr0 2.734170 1_656
O1 Sr1 2.734170 1_556
O1 Sr1 2.734170 1_455
O2 Sr0 2.734170 1_555
O2 Sr0 2.734170 1_566
O3 Sr1 2.734170 1_556
O3 Sr1 2.734170 1_545
O4 Sr0 2.692336 1_555
O5 Sr1 2.692336 1_555
O6 Sr1 2.776298 1_556
O6 Sr1 2.776298 1_545
O6 Sr1 2.776298 1_444
O6 Sr1 2.776298 1_455
O7 Sr0 2.776298 1_565
O7 Sr0 2.776298 1_666
O7 Sr0 2.776298 1_554
O7 Sr0 2.776298 1_655
