# generated using pymatgen
data_Mg14MnW
_symmetry_space_group_name_H-M   'P 1'
_cell_length_a   6.27557816
_cell_length_b   6.14682835
_cell_length_c   9.98280230
_cell_angle_alpha   90.00000000
_cell_angle_beta   90.00000000
_cell_angle_gamma   119.32363035
_symmetry_Int_Tables_number   1
_chemical_formula_structural   Mg14MnW
_chemical_formula_sum   'Mg14 Mn1 W1'
_cell_volume   335.74358204
_cell_formula_units_Z   1
loop_
 _symmetry_equiv_pos_site_id
 _symmetry_equiv_pos_as_xyz
  1  'x, y, z'
loop_
 _atom_site_type_symbol
 _atom_site_label
 _atom_site_symmetry_multiplicity
 _atom_site_fract_x
 _atom_site_fract_y
 _atom_site_fract_z
 _atom_site_occupancy
  Mg  Mg0  1  0.16836010  0.33417955  0.62500000  1
  Mg  Mg1  1  0.16726940  0.83363420  0.62500000  1
  Mg  Mg2  1  0.66427200  0.33261612  0.12500000  1
  Mg  Mg3  1  0.66413042  0.33222437  0.62500000  1
  Mg  Mg4  1  0.66427200  0.83165488  0.12500000  1
  Mg  Mg5  1  0.66413042  0.83190506  0.62500000  1
  Mg  Mg6  1  0.32665791  0.15988896  0.36022366  1
  Mg  Mg7  1  0.32665791  0.15988896  0.88977634  1
  Mg  Mg8  1  0.32665791  0.66676995  0.36022366  1
  Mg  Mg9  1  0.32665791  0.66676995  0.88977634  1
  Mg  Mg10  1  0.84447427  0.17223763  0.36960090  1
  Mg  Mg11  1  0.84447427  0.17223763  0.88039910  1
  Mg  Mg12  1  0.84647760  0.67323930  0.36706292  1
  Mg  Mg13  1  0.84647760  0.67323930  0.88293708  1
  Mn  Mn0  1  0.16423755  0.33211828  0.12500000  1
  W  W0  1  0.15479273  0.82739586  0.12500000  1
loop_
_geom_bond_atom_site_label_1
_geom_bond_atom_site_label_2
_geom_bond_distance
_geom_bond_site_symmetry_2
Mg0 Mg1 3.073420 1_545
Mg0 Mg1 3.073420 1_555
Mg0 Mg10 3.104981 1_455
Mg0 Mg11 3.104981 1_455
Mg0 Mg5 3.117149 1_555
Mg0 Mg3 3.117149 1_555
Mg0 Mg5 3.158464 1_445
Mg0 Mg3 3.158464 1_455
Mg0 Mg6 3.188043 1_555
Mg0 Mg7 3.188043 1_555
Mg0 Mg8 3.188049 1_555
Mg0 Mg9 3.188049 1_555
Mg1 Mg12 3.116252 1_455
Mg1 Mg13 3.116252 1_455
Mg1 Mg3 3.123309 1_565
Mg1 Mg5 3.123309 1_555
Mg1 Mg3 3.152296 1_455
Mg1 Mg5 3.152296 1_455
Mg1 Mg8 3.169227 1_555
Mg1 Mg9 3.169227 1_555
Mg1 Mg6 3.169233 1_565
Mg1 Mg7 3.169233 1_565
Mg2 Mg7 2.987792 1_554
Mg2 Mg6 2.987792 1_555
Mg2 Mg4 3.067506 1_555
Mg2 Mg4 3.079323 1_545
Mg2 W0 3.091206 1_655
Mg2 Mn0 3.136508 1_555
Mg2 Mn0 3.139073 1_655
Mg2 W0 3.184537 1_545
Mg3 Mg5 3.071451 1_555
Mg3 Mg5 3.075377 1_545
Mg3 Mg6 3.224361 1_555
Mg3 Mg7 3.224361 1_555
Mg4 Mg9 2.987792 1_554
Mg4 Mg8 2.987792 1_555
Mg4 W0 3.091207 1_655
Mg4 Mn0 3.136507 1_555
Mg4 Mn0 3.139072 1_665
Mg4 W0 3.184538 1_555
Mg5 Mg8 3.224361 1_555
Mg5 Mg9 3.224361 1_555
Mg6 W0 2.948764 1_545
Mg6 Mn0 2.954767 1_555
Mg6 Mg8 3.031118 1_545
Mg6 Mg8 3.115710 1_555
Mg7 W0 2.948764 1_546
Mg7 Mn0 2.954767 1_556
Mg7 Mg9 3.031118 1_545
Mg7 Mg9 3.115710 1_555
Mg8 W0 2.948758 1_555
Mg8 Mn0 2.954773 1_555
Mg9 W0 2.948758 1_556
Mg9 Mn0 2.954773 1_556
Mg10 Mn0 3.003900 1_655
Mg10 Mg2 3.050423 1_555
Mg10 Mg4 3.050429 1_545
Mg10 Mg8 3.065299 1_655
Mg10 Mg6 3.065300 1_655
Mg10 Mg12 3.073538 1_545
Mg10 Mg12 3.073538 1_555
Mg10 Mg3 3.136653 1_555
Mg10 Mg5 3.136658 1_545
Mg10 Mg8 3.214468 1_545
Mg10 Mg6 3.214468 1_555
Mg11 Mn0 3.003900 1_656
Mg11 Mg2 3.050423 1_556
Mg11 Mg4 3.050429 1_546
Mg11 Mg9 3.065299 1_655
Mg11 Mg7 3.065300 1_655
Mg11 Mg13 3.073538 1_545
Mg11 Mg13 3.073538 1_555
Mg11 Mg3 3.136653 1_555
Mg11 Mg5 3.136658 1_545
Mg11 Mg9 3.214468 1_545
Mg11 Mg7 3.214468 1_555
Mg12 W0 2.947044 1_655
Mg12 Mg4 3.030769 1_555
Mg12 Mg2 3.030776 1_555
Mg12 Mg6 3.033850 1_665
Mg12 Mg8 3.033851 1_655
Mg12 Mg5 3.159770 1_555
Mg12 Mg3 3.159776 1_555
Mg12 Mg6 3.243598 1_555
Mg12 Mg8 3.243598 1_555
Mg13 W0 2.947044 1_656
Mg13 Mg4 3.030769 1_556
Mg13 Mg2 3.030776 1_556
Mg13 Mg7 3.033850 1_665
Mg13 Mg9 3.033851 1_655
Mg13 Mg5 3.159770 1_555
Mg13 Mg3 3.159776 1_555
Mg13 Mg7 3.243598 1_555
Mg13 Mg9 3.243598 1_555
Mn0 W0 3.073849 1_555
Mn0 W0 3.073849 1_545
