# generated using pymatgen
data_B(HC)2
_symmetry_space_group_name_H-M   'P 1'
_cell_length_a   5.32892700
_cell_length_b   9.12325561
_cell_length_c   11.01664717
_cell_angle_alpha   110.00208067
_cell_angle_beta   97.45305335
_cell_angle_gamma   99.62849844
_symmetry_Int_Tables_number   1
_chemical_formula_structural   B(HC)2
_chemical_formula_sum   'B6 H12 C12'
_cell_volume   485.99600098
_cell_formula_units_Z   6
loop_
 _symmetry_equiv_pos_site_id
 _symmetry_equiv_pos_as_xyz
  1  'x, y, z'
loop_
 _atom_site_type_symbol
 _atom_site_label
 _atom_site_symmetry_multiplicity
 _atom_site_fract_x
 _atom_site_fract_y
 _atom_site_fract_z
 _atom_site_occupancy
  B  B0  1  0.49897400  0.03686100  0.26182000  1
  B  B1  1  0.50102600  0.96313900  0.73818000  1
  B  B2  1  0.12683100  0.32701900  0.58568000  1
  B  B3  1  0.87316900  0.67298100  0.41432000  1
  B  B4  1  0.14230100  0.34087700  0.10679200  1
  B  B5  1  0.85769900  0.65912300  0.89320800  1
  H  H0  1  0.95725300  0.26305000  0.01041300  1
  H  H1  1  0.04274700  0.73695000  0.98958700  1
  H  H2  1  0.66218700  0.05762200  0.71270600  1
  H  H3  1  0.33781300  0.94237800  0.28729400  1
  H  H4  1  0.42261100  0.06709000  0.82326200  1
  H  H5  1  0.57738900  0.93291000  0.17673800  1
  H  H6  1  0.30812200  0.39333600  0.54859800  1
  H  H7  1  0.69187800  0.60666400  0.45140200  1
  H  H8  1  0.25104800  0.24238400  0.62719600  1
  H  H9  1  0.74895200  0.75761600  0.37280400  1
  H  H10  1  0.28141600  0.40732000  0.05006900  1
  H  H11  1  0.71858400  0.59268000  0.94993100  1
  C  C0  1  0.72866800  0.13010700  0.37563900  1
  C  C1  1  0.27133200  0.86989300  0.62436100  1
  C  C2  1  0.04531900  0.44302500  0.70153400  1
  C  C3  1  0.95468100  0.55697500  0.29846600  1
  C  C4  1  0.37047400  0.13415600  0.19511400  1
  C  C5  1  0.62952600  0.86584400  0.80488600  1
  C  C6  1  0.08819500  0.78468900  0.52974800  1
  C  C7  1  0.91180500  0.21531100  0.47025200  1
  C  C8  1  0.26445500  0.22281700  0.15010000  1
  C  C9  1  0.73554500  0.77718300  0.84990000  1
  C  C10  1  0.03411500  0.45920900  0.20918900  1
  C  C11  1  0.96588500  0.54079100  0.79081100  1
loop_
_geom_bond_atom_site_label_1
_geom_bond_atom_site_label_2
_geom_bond_distance
_geom_bond_site_symmetry_2
B0 H3 1.240858 1_545
B0 H5 1.256441 1_545
B0 C4 1.521808 1_555
B0 C0 1.522487 1_555
B1 H2 1.240858 1_565
B1 H4 1.256441 1_565
B1 C5 1.521808 1_555
B1 C1 1.522487 1_555
B2 H6 1.241859 1_555
B2 H8 1.256024 1_555
B2 C2 1.520298 1_555
B2 C7 1.520998 1_455
B3 H7 1.241859 1_555
B3 H9 1.256024 1_555
B3 C3 1.520298 1_555
B3 C6 1.520998 1_655
B4 H10 1.239563 1_555
B4 H0 1.257906 1_455
B4 C10 1.521243 1_555
B4 C8 1.522177 1_555
B5 H11 1.239563 1_555
B5 H1 1.257906 1_655
B5 C11 1.521243 1_555
B5 C9 1.522177 1_555
C0 C7 1.253456 1_555
C1 C6 1.253456 1_555
C4 C8 1.254588 1_555
C5 C9 1.254588 1_555
C10 C3 1.255489 1_455
C11 C2 1.255489 1_655
