# generated using pymatgen
data_Na4Eu(SiTe3)2
_symmetry_space_group_name_H-M   'P 1'
_cell_length_a   7.72061593
_cell_length_b   7.72061593
_cell_length_c   8.51669282
_cell_angle_alpha   81.26596297
_cell_angle_beta   81.26596297
_cell_angle_gamma   119.89827411
_symmetry_Int_Tables_number   1
_chemical_formula_structural   Na4Eu(SiTe3)2
_chemical_formula_sum   'Na4 Eu1 Si2 Te6'
_cell_volume   419.37742239
_cell_formula_units_Z   1
loop_
 _symmetry_equiv_pos_site_id
 _symmetry_equiv_pos_as_xyz
  1  'x, y, z'
loop_
 _atom_site_type_symbol
 _atom_site_label
 _atom_site_symmetry_multiplicity
 _atom_site_fract_x
 _atom_site_fract_y
 _atom_site_fract_z
 _atom_site_occupancy
  Na  Na0  1  0.66803500  0.33196500  0.00000000  1
  Na  Na1  1  0.33181500  0.66818500  0.00000000  1
  Na  Na2  1  0.00011200  0.99988800  0.00000000  1
  Na  Na3  1  0.83349700  0.16650300  0.50000000  1
  Eu  Eu0  1  0.16650000  0.83350000  0.50000000  1
  Si  Si0  1  0.54753000  0.54744400  0.35428600  1
  Si  Si1  1  0.45255600  0.45247000  0.64571400  1
  Te  Te0  1  0.26753500  0.26695100  0.25833600  1
  Te  Te1  1  0.73304900  0.73246500  0.74166400  1
  Te  Te2  1  0.89379700  0.58108800  0.25647800  1
  Te  Te3  1  0.57966000  0.89299900  0.25616100  1
  Te  Te4  1  0.10700100  0.42034000  0.74383900  1
  Te  Te5  1  0.41891200  0.10620300  0.74352200  1
loop_
_geom_bond_atom_site_label_1
_geom_bond_atom_site_label_2
_geom_bond_distance
_geom_bond_site_symmetry_2
Na0 Te2 3.255597 1_555
Na0 Te5 3.255597 1_554
Na0 Te0 3.271854 1_555
Na0 Te1 3.271854 1_554
Na0 Te4 3.421726 1_654
Na0 Te3 3.421726 1_545
Na1 Te4 3.246616 1_554
Na1 Te3 3.246616 1_555
Na1 Te1 3.278584 1_554
Na1 Te0 3.278584 1_555
Na1 Te5 3.421021 1_564
Na1 Te2 3.421021 1_455
Na2 Te5 3.250324 1_564
Na2 Te2 3.250324 1_455
Na2 Te4 3.257287 1_564
Na2 Te3 3.257287 1_455
Na2 Te0 3.445035 1_565
Na2 Te1 3.445035 1_454
Na3 Te1 3.301037 1_545
Na3 Te0 3.301037 1_655
Na3 Te5 3.311910 1_555
Na3 Te2 3.311910 1_555
Na3 Te4 3.324840 1_655
Na3 Te3 3.324840 1_545
Eu0 Te0 3.295744 1_565
Eu0 Te1 3.295744 1_455
Eu0 Te3 3.307043 1_555
Eu0 Te4 3.307043 1_555
Eu0 Te2 3.315914 1_455
Eu0 Te5 3.315914 1_565
Si0 Si1 2.365214 1_555
Si0 Te0 2.537228 1_555
Si0 Te2 2.544424 1_555
Si0 Te3 2.545146 1_555
Si1 Te1 2.537228 1_555
Si1 Te5 2.544424 1_555
Si1 Te4 2.545146 1_555
