# generated using pymatgen
data_Ti24Pb19
_symmetry_space_group_name_H-M   'P 1'
_cell_length_a   5.81415783
_cell_length_b   9.45487506
_cell_length_c   16.35614657
_cell_angle_alpha   89.97941648
_cell_angle_beta   89.95030988
_cell_angle_gamma   90.03564826
_symmetry_Int_Tables_number   1
_chemical_formula_structural   Ti24Pb19
_chemical_formula_sum   'Ti24 Pb19'
_cell_volume   899.13174109
_cell_formula_units_Z   1
loop_
 _symmetry_equiv_pos_site_id
 _symmetry_equiv_pos_as_xyz
  1  'x, y, z'
loop_
 _atom_site_type_symbol
 _atom_site_label
 _atom_site_symmetry_multiplicity
 _atom_site_fract_x
 _atom_site_fract_y
 _atom_site_fract_z
 _atom_site_occupancy
  Ti  Ti0  1  0.50000000  0.50000000  0.00000000  1
  Ti  Ti1  1  0.50000000  0.00000000  0.50000000  1
  Ti  Ti2  1  0.49974200  0.24941500  0.24935500  1
  Ti  Ti3  1  0.50025800  0.75058500  0.75064500  1
  Ti  Ti4  1  0.49990900  0.75044200  0.24947300  1
  Ti  Ti5  1  0.50009100  0.24955800  0.75052700  1
  Ti  Ti6  1  0.00000000  0.50000000  0.00000000  1
  Ti  Ti7  1  0.00000000  0.00000000  0.50000000  1
  Ti  Ti8  1  0.99972600  0.24976000  0.24976100  1
  Ti  Ti9  1  0.00027400  0.75024000  0.75023900  1
  Ti  Ti10  1  0.99975100  0.75016700  0.24975600  1
  Ti  Ti11  1  0.00024900  0.24983300  0.75024400  1
  Ti  Ti12  1  0.24932600  0.50007400  0.34253900  1
  Ti  Ti13  1  0.24697700  0.99993500  0.84238100  1
  Ti  Ti14  1  0.24791000  0.76406600  0.07881700  1
  Ti  Ti15  1  0.25045600  0.26299900  0.57889800  1
  Ti  Ti16  1  0.24784400  0.23609300  0.07888500  1
  Ti  Ti17  1  0.25046200  0.73716400  0.57882900  1
  Ti  Ti18  1  0.75302300  0.00006500  0.15761900  1
  Ti  Ti19  1  0.75067400  0.49992600  0.65746100  1
  Ti  Ti20  1  0.74954400  0.73700100  0.42110200  1
  Ti  Ti21  1  0.75209000  0.23593400  0.92118300  1
  Ti  Ti22  1  0.74953800  0.26283600  0.42117100  1
  Ti  Ti23  1  0.75215600  0.76390700  0.92111500  1
  Pb  Pb0  1  0.25091400  0.49992200  0.16644900  1
  Pb  Pb1  1  0.24989700  0.00000000  0.66690700  1
  Pb  Pb2  1  0.75010300  0.00000000  0.33309300  1
  Pb  Pb3  1  0.74908600  0.50007800  0.83355100  1
  Pb  Pb4  1  0.74896700  0.70178300  0.09946000  1
  Pb  Pb5  1  0.74998000  0.19688100  0.60100600  1
  Pb  Pb6  1  0.74936700  0.29863300  0.09962500  1
  Pb  Pb7  1  0.75024900  0.80297500  0.60102500  1
  Pb  Pb8  1  0.74977500  0.49986800  0.29786500  1
  Pb  Pb9  1  0.74911000  0.99996900  0.80082500  1
  Pb  Pb10  1  0.25002000  0.80311900  0.39899400  1
  Pb  Pb11  1  0.25103300  0.29821700  0.90054000  1
  Pb  Pb12  1  0.24975100  0.19702500  0.39897500  1
  Pb  Pb13  1  0.25063300  0.70136700  0.90037500  1
  Pb  Pb14  1  0.25089000  0.00003100  0.19917500  1
  Pb  Pb15  1  0.25022500  0.50013200  0.70213500  1
  Pb  Pb16  1  0.50000000  0.50000000  0.50000000  1
  Pb  Pb17  1  0.00000000  0.00000000  0.00000000  1
  Pb  Pb18  1  0.00000000  0.50000000  0.50000000  1
loop_
_geom_bond_atom_site_label_1
_geom_bond_atom_site_label_2
_geom_bond_distance
_geom_bond_site_symmetry_2
Pb0 Ti16 2.876887 1_555
Pb0 Ti14 2.879148 1_555
Pb0 Ti12 2.880162 1_555
Pb0 Ti0 3.082584 1_555
Pb0 Ti6 3.089815 1_555
Pb0 Ti2 3.089825 1_555
Pb0 Ti4 3.090590 1_555
Pb0 Ti8 3.094204 1_455
Pb0 Ti10 3.096836 1_455
Pb1 Ti13 2.870114 1_545
Pb1 Ti15 2.872775 1_555
Pb1 Ti17 2.872906 1_545
Pb1 Ti9 3.087165 1_545
Pb1 Ti11 3.089927 1_555
Pb1 Ti5 3.091212 1_555
Pb1 Ti1 3.091972 1_555
Pb1 Ti3 3.092124 1_545
Pb1 Ti7 3.093634 1_555
Pb2 Ti18 2.870114 1_555
Pb2 Ti20 2.872775 1_545
Pb2 Ti22 2.872906 1_555
Pb2 Ti8 3.087165 1_555
Pb2 Ti10 3.089927 1_545
Pb2 Ti4 3.091212 1_545
Pb2 Ti1 3.091972 1_555
Pb2 Ti2 3.092124 1_555
Pb2 Ti7 3.093634 1_655
Pb3 Ti23 2.876887 1_555
Pb3 Ti21 2.879148 1_555
Pb3 Ti19 2.880162 1_555
Pb3 Ti0 3.082584 1_556
Pb3 Ti6 3.089815 1_656
Pb3 Ti3 3.089825 1_555
Pb3 Ti5 3.090590 1_555
Pb3 Ti9 3.094204 1_655
Pb3 Ti11 3.096836 1_655
Pb4 Ti4 2.885194 1_555
Pb4 Ti0 2.895596 1_555
Pb4 Ti10 2.895613 1_555
Pb4 Ti6 2.901396 1_655
Pb4 Ti23 2.975419 1_554
Pb4 Ti18 2.976737 1_565
Pb4 Ti14 2.978628 1_655
Pb4 Ti14 2.991881 1_555
Pb5 Ti7 2.882531 1_655
Pb5 Ti1 2.882691 1_555
Pb5 Ti11 2.886588 1_655
Pb5 Ti5 2.887121 1_555
Pb5 Ti15 2.993409 1_555
Pb5 Ti15 2.997417 1_655
Pb5 Ti22 3.006569 1_555
Pb5 Ti19 3.010685 1_555
Pb6 Ti2 2.883193 1_555
Pb6 Ti8 2.892887 1_555
Pb6 Ti0 2.896107 1_555
Pb6 Ti6 2.897194 1_655
Pb6 Ti16 2.977414 1_655
Pb6 Ti18 2.977800 1_555
Pb6 Ti21 2.978458 1_554
Pb6 Ti16 2.994512 1_555
Pb7 Ti7 2.880866 1_665
Pb7 Ti1 2.884939 1_565
Pb7 Ti9 2.885195 1_655
Pb7 Ti3 2.887710 1_555
Pb7 Ti17 2.993765 1_555
Pb7 Ti17 2.996309 1_655
Pb7 Ti20 3.008454 1_555
Pb7 Ti19 3.009996 1_555
Pb8 Ti10 2.885218 1_555
Pb8 Ti8 2.885589 1_555
Pb8 Ti2 2.889529 1_555
Pb8 Ti4 2.890463 1_555
Pb8 Ti12 2.995585 1_655
Pb8 Ti12 2.999422 1_555
Pb8 Ti22 3.014438 1_555
Pb8 Ti20 3.015472 1_555
Pb9 Ti3 2.885467 1_555
Pb9 Ti5 2.889077 1_565
Pb9 Ti11 2.896517 1_665
Pb9 Ti9 2.897539 1_655
Pb9 Ti13 2.973980 1_655
Pb9 Ti23 2.974860 1_555
Pb9 Ti21 2.975949 1_565
Pb9 Ti13 2.996983 1_555
Pb10 Ti7 2.882531 1_565
Pb10 Ti1 2.882691 1_565
Pb10 Ti10 2.886588 1_455
Pb10 Ti4 2.887121 1_555
Pb10 Ti20 2.993409 1_555
Pb10 Ti20 2.997417 1_455
Pb10 Ti17 3.006569 1_555
Pb10 Ti12 3.010685 1_555
Pb11 Ti5 2.885194 1_555
Pb11 Ti0 2.895596 1_556
Pb11 Ti11 2.895613 1_555
Pb11 Ti6 2.901396 1_556
Pb11 Ti16 2.975419 1_556
Pb11 Ti13 2.976737 1_545
Pb11 Ti21 2.978628 1_455
Pb11 Ti21 2.991881 1_555
Pb12 Ti7 2.880866 1_555
Pb12 Ti1 2.884939 1_555
Pb12 Ti8 2.885195 1_455
Pb12 Ti2 2.887710 1_555
Pb12 Ti22 2.993765 1_555
Pb12 Ti22 2.996309 1_455
Pb12 Ti15 3.008454 1_555
Pb12 Ti12 3.009996 1_555
Pb13 Ti3 2.883193 1_555
Pb13 Ti9 2.892887 1_555
Pb13 Ti0 2.896107 1_556
Pb13 Ti6 2.897194 1_556
Pb13 Ti23 2.977414 1_455
Pb13 Ti13 2.977800 1_555
Pb13 Ti14 2.978458 1_556
Pb13 Ti23 2.994512 1_555
Pb14 Ti2 2.885467 1_555
Pb14 Ti4 2.889077 1_545
Pb14 Ti10 2.896517 1_445
Pb14 Ti8 2.897539 1_455
Pb14 Ti18 2.973980 1_455
Pb14 Ti16 2.974860 1_555
Pb14 Ti14 2.975949 1_545
Pb14 Ti18 2.996983 1_555
Pb15 Ti11 2.885218 1_555
Pb15 Ti9 2.885589 1_555
Pb15 Ti3 2.889529 1_555
Pb15 Ti5 2.890463 1_555
Pb15 Ti19 2.995585 1_455
Pb15 Ti19 2.999422 1_555
Pb15 Ti17 3.014438 1_555
Pb15 Ti15 3.015472 1_555
Pb16 Ti19 2.960349 1_555
Pb16 Ti12 2.960349 1_555
Pb16 Ti20 2.963488 1_555
Pb16 Ti15 2.963488 1_555
Pb16 Ti22 2.966212 1_555
Pb16 Ti17 2.966212 1_555
Pb17 Ti13 2.949891 1_544
Pb17 Ti18 2.949891 1_455
Pb17 Ti14 2.953098 1_545
Pb17 Ti21 2.953098 1_454
Pb17 Ti23 2.953877 1_444
Pb17 Ti16 2.953877 1_555
Pb18 Ti19 2.954301 1_455
Pb18 Ti12 2.954301 1_555
Pb18 Ti20 2.968550 1_455
Pb18 Ti15 2.968550 1_555
Pb18 Ti22 2.968572 1_455
Pb18 Ti17 2.968572 1_555
