# generated using pymatgen
data_LaCo(BO2)5
_symmetry_space_group_name_H-M   'P 1'
_cell_length_a   7.67706300
_cell_length_b   8.89029500
_cell_length_c   12.77161983
_cell_angle_alpha   48.40406843
_cell_angle_beta   90.00000000
_cell_angle_gamma   90.00000000
_symmetry_Int_Tables_number   1
_chemical_formula_structural   LaCo(BO2)5
_chemical_formula_sum   'La4 Co4 B20 O40'
_cell_volume   651.88199874
_cell_formula_units_Z   4
loop_
 _symmetry_equiv_pos_site_id
 _symmetry_equiv_pos_as_xyz
  1  'x, y, z'
loop_
 _atom_site_type_symbol
 _atom_site_label
 _atom_site_symmetry_multiplicity
 _atom_site_fract_x
 _atom_site_fract_y
 _atom_site_fract_z
 _atom_site_occupancy
  La  La0  1  0.31456100  0.94368600  0.73664300  1
  La  La1  1  0.81456100  0.05631400  0.76335700  1
  La  La2  1  0.68543900  0.05631400  0.26335700  1
  La  La3  1  0.18543900  0.94368600  0.23664300  1
  Co  Co0  1  0.09026000  0.47584200  0.62496000  1
  Co  Co1  1  0.59026000  0.52415800  0.87504000  1
  Co  Co2  1  0.90974000  0.52415800  0.37504000  1
  Co  Co3  1  0.40974000  0.47584200  0.12496000  1
  B  B0  1  0.18338900  0.50808000  0.91702700  1
  B  B1  1  0.68338900  0.49192000  0.58297300  1
  B  B2  1  0.81661100  0.49192000  0.08297300  1
  B  B3  1  0.31661100  0.50808000  0.41702700  1
  B  B4  1  0.90657400  0.84226000  0.50592900  1
  B  B5  1  0.40657400  0.15774000  0.99407100  1
  B  B6  1  0.09342600  0.15774000  0.49407100  1
  B  B7  1  0.59342600  0.84226000  0.00592900  1
  B  B8  1  0.96457800  0.26686400  0.94839800  1
  B  B9  1  0.46457800  0.73313600  0.55160200  1
  B  B10  1  0.03542200  0.73313600  0.05160200  1
  B  B11  1  0.53542200  0.26686400  0.44839800  1
  B  B12  1  0.17346900  0.09639400  0.89031300  1
  B  B13  1  0.67346900  0.90360600  0.60968700  1
  B  B14  1  0.82653100  0.90360600  0.10968700  1
  B  B15  1  0.32653100  0.09639400  0.39031300  1
  B  B16  1  0.91848600  0.64127800  0.76615200  1
  B  B17  1  0.41848600  0.35872200  0.73384800  1
  B  B18  1  0.08151400  0.35872200  0.23384800  1
  B  B19  1  0.58151400  0.64127800  0.26615200  1
  O  O0  1  0.03964000  0.11604200  0.61231900  1
  O  O1  1  0.53964000  0.88395800  0.88768100  1
  O  O2  1  0.96036000  0.88395800  0.38768100  1
  O  O3  1  0.46036000  0.11604200  0.11231900  1
  O  O4  1  0.84445400  0.44219300  0.56432900  1
  O  O5  1  0.34445400  0.55780700  0.93567100  1
  O  O6  1  0.15554600  0.55780700  0.43567100  1
  O  O7  1  0.65554600  0.44219300  0.06432900  1
  O  O8  1  0.12416700  0.31500400  0.99225700  1
  O  O9  1  0.62416700  0.68499600  0.50774300  1
  O  O10  1  0.87583300  0.68499600  0.00774300  1
  O  O11  1  0.37583300  0.31500400  0.49225700  1
  O  O12  1  0.28036800  0.03183400  0.00897000  1
  O  O13  1  0.78036800  0.96816600  0.49103000  1
  O  O14  1  0.71963200  0.96816600  0.99103000  1
  O  O15  1  0.21963200  0.03183400  0.50897000  1
  O  O16  1  0.10968900  0.91709400  0.91450900  1
  O  O17  1  0.60968900  0.08290600  0.58549100  1
  O  O18  1  0.89031100  0.08290600  0.08549100  1
  O  O19  1  0.39031100  0.91709400  0.41450900  1
  O  O20  1  0.02166700  0.22705100  0.85699800  1
  O  O21  1  0.52166700  0.77294900  0.64300200  1
  O  O22  1  0.97833300  0.77294900  0.14300200  1
  O  O23  1  0.47833300  0.22705100  0.35699800  1
  O  O24  1  0.84665100  0.43839200  0.87135500  1
  O  O25  1  0.34665100  0.56160800  0.62864500  1
  O  O26  1  0.15334900  0.56160800  0.12864500  1
  O  O27  1  0.65334900  0.43839200  0.37135500  1
  O  O28  1  0.08144300  0.67034400  0.81287400  1
  O  O29  1  0.58144300  0.32965600  0.68712600  1
  O  O30  1  0.91855700  0.32965600  0.18712600  1
  O  O31  1  0.41855700  0.67034400  0.31287400  1
  O  O32  1  0.96534900  0.67766800  0.63691700  1
  O  O33  1  0.46534900  0.32233200  0.86308300  1
  O  O34  1  0.03465100  0.32233200  0.36308300  1
  O  O35  1  0.53465100  0.67766800  0.13691700  1
  O  O36  1  0.77976400  0.78035600  0.74103800  1
  O  O37  1  0.27976400  0.21964400  0.75896200  1
  O  O38  1  0.22023600  0.21964400  0.25896200  1
  O  O39  1  0.72023600  0.78035600  0.24103800  1
loop_
_geom_bond_atom_site_label_1
_geom_bond_atom_site_label_2
_geom_bond_distance
_geom_bond_site_symmetry_2
La0 O1 2.372507 1_555
La0 O0 2.468452 1_565
La0 O15 2.564125 1_565
La0 O5 2.589324 1_555
La0 O28 2.629596 1_555
La0 O16 2.641386 1_555
La0 O37 2.664594 1_565
La0 O11 2.679589 1_565
La0 O17 2.686934 1_565
La0 O21 2.944929 1_555
La1 O0 2.372507 1_655
La1 O1 2.468452 1_545
La1 O14 2.564125 1_545
La1 O4 2.589324 1_555
La1 O29 2.629596 1_555
La1 O17 2.641386 1_555
La1 O36 2.664594 1_545
La1 O10 2.679589 1_546
La1 O16 2.686934 1_645
La1 O20 2.944929 1_655
La2 O3 2.372507 1_555
La2 O2 2.468452 1_545
La2 O13 2.564125 1_545
La2 O7 2.589324 1_555
La2 O30 2.629596 1_555
La2 O18 2.641386 1_555
La2 O39 2.664594 1_545
La2 O9 2.679589 1_545
La2 O19 2.686934 1_545
La2 O23 2.944929 1_555
La3 O2 2.372507 1_455
La3 O3 2.468452 1_565
La3 O12 2.564125 1_565
La3 O6 2.589324 1_555
La3 O31 2.629596 1_555
La3 O19 2.641386 1_555
La3 O38 2.664594 1_565
La3 O8 2.679589 1_564
La3 O18 2.686934 1_465
La3 O22 2.944929 1_455
Co0 O6 2.070660 1_555
Co0 O25 2.122632 1_555
Co0 O32 2.127487 1_455
Co0 O4 2.134880 1_455
Co0 O37 2.248927 1_555
Co0 O20 2.291019 1_555
Co1 O7 2.070660 1_556
Co1 O24 2.122632 1_555
Co1 O33 2.127487 1_555
Co1 O5 2.134880 1_555
Co1 O36 2.248927 1_555
Co1 O21 2.291019 1_555
Co2 O4 2.070660 1_555
Co2 O27 2.122632 1_555
Co2 O34 2.127487 1_655
Co2 O6 2.134880 1_655
Co2 O39 2.248927 1_555
Co2 O22 2.291019 1_555
Co3 O5 2.070660 1_554
Co3 O26 2.122632 1_555
Co3 O35 2.127487 1_555
Co3 O7 2.134880 1_555
Co3 O38 2.248927 1_555
Co3 O23 2.291019 1_555
B0 O8 1.373493 1_555
B0 O28 1.383893 1_555
B0 O5 1.385949 1_555
B1 O9 1.373493 1_555
B1 O29 1.383893 1_555
B1 O4 1.385949 1_555
B2 O10 1.373493 1_555
B2 O30 1.383893 1_555
B2 O7 1.385949 1_555
B3 O11 1.373493 1_555
B3 O31 1.383893 1_555
B3 O6 1.385949 1_555
B4 O2 1.358436 1_555
B4 O32 1.375935 1_555
B4 O13 1.394662 1_555
B5 O3 1.358436 1_556
B5 O33 1.375935 1_555
B5 O12 1.394662 1_556
B6 O0 1.358436 1_555
B6 O34 1.375935 1_555
B6 O15 1.394662 1_555
B7 O1 1.358436 1_554
B7 O35 1.375935 1_555
B7 O14 1.394662 1_554
B8 O24 1.456359 1_555
B8 O20 1.492852 1_655
B8 O18 1.504460 1_556
B8 O8 1.521937 1_655
B9 O25 1.456359 1_555
B9 O21 1.492852 1_555
B9 O19 1.504460 1_555
B9 O9 1.521937 1_555
B10 O26 1.456359 1_555
B10 O22 1.492852 1_455
B10 O16 1.504460 1_554
B10 O10 1.521937 1_455
B11 O27 1.456359 1_555
B11 O23 1.492852 1_555
B11 O17 1.504460 1_555
B11 O11 1.521937 1_555
B12 O12 1.464452 1_556
B12 O16 1.490685 1_545
B12 O20 1.494064 1_555
B12 O37 1.496714 1_555
B13 O13 1.464452 1_555
B13 O17 1.490685 1_565
B13 O21 1.494064 1_555
B13 O36 1.496714 1_555
B14 O14 1.464452 1_554
B14 O18 1.490685 1_565
B14 O22 1.494064 1_555
B14 O39 1.496714 1_555
B15 O15 1.464452 1_555
B15 O19 1.490685 1_545
B15 O23 1.494064 1_555
B15 O38 1.496714 1_555
B16 O24 1.464593 1_555
B16 O28 1.480761 1_655
B16 O36 1.496424 1_555
B16 O32 1.499798 1_555
B17 O25 1.464593 1_555
B17 O29 1.480761 1_555
B17 O37 1.496424 1_555
B17 O33 1.499798 1_555
B18 O26 1.464593 1_555
B18 O30 1.480761 1_455
B18 O38 1.496424 1_555
B18 O34 1.499798 1_555
B19 O27 1.464593 1_555
B19 O31 1.480761 1_555
B19 O39 1.496424 1_555
B19 O35 1.499798 1_555
