# generated using pymatgen
data_SrLaEuNbO6
_symmetry_space_group_name_H-M   'P 1'
_cell_length_a   5.97050990
_cell_length_b   5.97050990
_cell_length_c   8.74648244
_cell_angle_alpha   90.00000000
_cell_angle_beta   90.00000000
_cell_angle_gamma   90.00000000
_symmetry_Int_Tables_number   1
_chemical_formula_structural   SrLaEuNbO6
_chemical_formula_sum   'Sr2 La2 Eu2 Nb2 O12'
_cell_volume   311.78575866
_cell_formula_units_Z   2
loop_
 _symmetry_equiv_pos_site_id
 _symmetry_equiv_pos_as_xyz
  1  'x, y, z'
loop_
 _atom_site_type_symbol
 _atom_site_label
 _atom_site_symmetry_multiplicity
 _atom_site_fract_x
 _atom_site_fract_y
 _atom_site_fract_z
 _atom_site_occupancy
  Sr  Sr0  1  0.50000000  0.50000000  -0.00000000  1
  Sr  Sr1  1  0.00000000  0.00000000  -0.00000000  1
  La  La0  1  0.50000000  -0.00000000  0.74985231  1
  La  La1  1  -0.00000000  0.50000000  0.25014769  1
  Eu  Eu0  1  0.50000000  0.50000000  0.50000000  1
  Eu  Eu1  1  -0.00000000  0.00000000  0.50000000  1
  Nb  Nb0  1  0.50000000  -0.00000000  0.25141762  1
  Nb  Nb1  1  -0.00000000  0.50000000  0.74858238  1
  O  O0  1  0.50000000  -0.00000000  0.01821516  1
  O  O1  1  0.00000000  0.50000000  0.98178484  1
  O  O2  1  0.50000000  0.00000000  0.48387473  1
  O  O3  1  -0.00000000  0.50000000  0.51612527  1
  O  O4  1  0.69492757  0.64973104  0.74736556  1
  O  O5  1  0.30507243  0.35026896  0.74736556  1
  O  O6  1  0.85026896  0.19492757  0.74736556  1
  O  O7  1  0.14973104  0.80507243  0.74736556  1
  O  O8  1  0.80507243  0.14973104  0.25263444  1
  O  O9  1  0.19492757  0.85026896  0.25263444  1
  O  O10  1  0.64973104  0.69492757  0.25263444  1
  O  O11  1  0.35026896  0.30507243  0.25263444  1
loop_
_geom_bond_atom_site_label_1
_geom_bond_atom_site_label_2
_geom_bond_distance
_geom_bond_site_symmetry_2
La0 O2 2.326368 1_555
La0 O0 2.347231 1_556
La0 O5 2.393410 1_555
La0 O7 2.393410 1_545
La0 O4 2.393410 1_545
La0 O6 2.393410 1_555
La1 O3 2.326368 1_555
La1 O1 2.347231 1_554
La1 O9 2.393410 1_555
La1 O8 2.393410 1_455
La1 O11 2.393410 1_555
La1 O10 2.393410 1_455
Eu0 O5 2.614331 1_555
Eu0 O11 2.614331 1_555
Eu0 O4 2.614331 1_555
Eu0 O10 2.614331 1_555
Eu0 O2 2.988585 1_555
Eu0 O3 2.988585 1_555
Eu0 O3 2.988585 1_655
Eu0 O2 2.988585 1_565
Eu1 O7 2.614331 1_545
Eu1 O8 2.614331 1_455
Eu1 O9 2.614331 1_545
Eu1 O6 2.614331 1_455
Eu1 O2 2.988585 1_555
Eu1 O3 2.988585 1_555
Eu1 O3 2.988585 1_545
Eu1 O2 2.988585 1_455
Nb0 O11 2.029023 1_555
Nb0 O10 2.029023 1_545
Nb0 O8 2.029023 1_555
Nb0 O9 2.029023 1_545
Nb0 O2 2.033182 1_555
Nb0 O0 2.039701 1_555
Nb1 O4 2.029023 1_455
Nb1 O5 2.029023 1_555
Nb1 O6 2.029023 1_455
Nb1 O7 2.029023 1_555
Nb1 O3 2.033182 1_555
Nb1 O1 2.039701 1_555
O0 Sr1 2.989503 1_655
O0 Sr1 2.989503 1_555
O0 Sr0 2.989503 1_545
O0 Sr0 2.989503 1_555
O1 Sr0 2.989503 1_556
O1 Sr1 2.989503 1_556
O1 Sr1 2.989503 1_566
O1 Sr0 2.989503 1_456
O4 Sr0 2.652595 1_556
O5 Sr0 2.652595 1_556
O6 Sr1 2.652595 1_656
O7 Sr1 2.652595 1_566
O8 Sr1 2.652595 1_655
O9 Sr1 2.652595 1_565
O10 Sr0 2.652595 1_555
O11 Sr0 2.652595 1_555
