# generated using pymatgen
data_Li3MnV(PO4)3
_symmetry_space_group_name_H-M   'P 1'
_cell_length_a   8.68169500
_cell_length_b   8.77245995
_cell_length_c   15.09810246
_cell_angle_alpha   73.13820374
_cell_angle_beta   73.86486743
_cell_angle_gamma   61.53641856
_symmetry_Int_Tables_number   1
_chemical_formula_structural   Li3MnV(PO4)3
_chemical_formula_sum   'Li12 Mn4 V4 P12 O48'
_cell_volume   953.99067862
_cell_formula_units_Z   4
loop_
 _symmetry_equiv_pos_site_id
 _symmetry_equiv_pos_as_xyz
  1  'x, y, z'
loop_
 _atom_site_type_symbol
 _atom_site_label
 _atom_site_symmetry_multiplicity
 _atom_site_fract_x
 _atom_site_fract_y
 _atom_site_fract_z
 _atom_site_occupancy
  Li  Li0  1  0.29532700  0.43880300  0.31804600  1
  Li  Li1  1  0.18613500  0.15931600  0.55273400  1
  Li  Li2  1  0.68706900  0.66319800  0.05096400  1
  Li  Li3  1  0.17555600  0.06973400  0.17961200  1
  Li  Li4  1  0.21166500  0.85113500  0.82757300  1
  Li  Li5  1  0.71288900  0.34938000  0.32885500  1
  Li  Li6  1  0.27016400  0.57912800  0.63359800  1
  Li  Li7  1  0.77263300  0.07973700  0.13041800  1
  Li  Li8  1  0.81160900  0.92553300  0.82130800  1
  Li  Li9  1  0.68737800  0.55706600  0.68809600  1
  Li  Li10  1  0.36002400  0.20143000  0.97689400  1
  Li  Li11  1  0.86388700  0.69865100  0.48107500  1
  Mn  Mn0  1  0.28852500  0.77907700  0.07500500  1
  Mn  Mn1  1  0.03005400  0.53388200  0.82153300  1
  Mn  Mn2  1  0.78717100  0.27797200  0.57290100  1
  Mn  Mn3  1  0.47604400  0.96153600  0.67611700  1
  V  V0  1  0.53311300  0.03810600  0.32027500  1
  V  V1  1  0.21802200  0.71710000  0.42534600  1
  V  V2  1  0.97219700  0.46173800  0.17929900  1
  V  V3  1  0.71483000  0.21660900  0.92351200  1
  P  P0  1  0.01198700  0.21712700  0.73512800  1
  P  P1  1  0.51387700  0.72150400  0.23612700  1
  P  P2  1  0.01910100  0.23783300  0.02093100  1
  P  P3  1  0.09656600  0.16407400  0.37547500  1
  P  P4  1  0.40434500  0.32623700  0.12547500  1
  P  P5  1  0.47646100  0.28032000  0.47504900  1
  P  P6  1  0.52140200  0.73890900  0.52488500  1
  P  P7  1  0.59398900  0.66291800  0.87683400  1
  P  P8  1  0.90809000  0.81944000  0.62863500  1
  P  P9  1  0.97738900  0.77897500  0.97912200  1
  P  P10  1  0.48750400  0.26923400  0.76005700  1
  P  P11  1  0.98727700  0.77671400  0.26232900  1
  O  O0  1  0.02217200  0.60219500  0.23921200  1
  O  O1  1  0.46048900  0.78558700  0.13628700  1
  O  O2  1  0.39396600  0.64053400  0.30861200  1
  O  O3  1  0.00401400  0.21538000  0.47311700  1
  O  O4  1  0.29938700  0.45046800  0.46526500  1
  O  O5  1  0.36058500  0.51301200  0.12989700  1
  O  O6  1  0.23443600  0.29440200  0.14704500  1
  O  O7  1  0.26524000  0.19765500  0.35257400  1
  O  O8  1  0.20238200  0.06748300  0.72783300  1
  O  O9  1  0.70343800  0.56859900  0.22858600  1
  O  O10  1  0.20146400  0.07852700  0.03538500  1
  O  O11  1  0.14460700  0.97196200  0.37478200  1
  O  O12  1  0.10775400  0.85916000  0.18855600  1
  O  O13  1  0.02090000  0.74862700  0.53689900  1
  O  O14  1  0.12562300  0.81278500  0.99624200  1
  O  O15  1  0.42526600  0.14720000  0.55321100  1
  O  O16  1  0.50506500  0.26529500  0.03039900  1
  O  O17  1  0.02938300  0.70490000  0.70601800  1
  O  O18  1  0.04802000  0.72651700  0.88005600  1
  O  O19  1  0.62487500  0.31489700  0.49162700  1
  O  O20  1  0.93104200  0.63988900  0.05620800  1
  O  O21  1  0.02995800  0.72448200  0.36311400  1
  O  O22  1  0.53181800  0.20284300  0.19811800  1
  O  O23  1  0.55169300  0.22206300  0.37673800  1
  O  O24  1  0.52339000  0.09289100  0.73770500  1
  O  O25  1  0.49497400  0.88376300  0.26367500  1
  O  O26  1  0.43050700  0.81878700  0.61740000  1
  O  O27  1  0.93252100  0.31298400  0.11333300  1
  O  O28  1  0.95890800  0.27747800  0.63492100  1
  O  O29  1  0.46670900  0.77744300  0.80509000  1
  O  O30  1  0.06912900  0.36996200  0.93832900  1
  O  O31  1  0.38396100  0.68722200  0.51113100  1
  O  O32  1  0.97096000  0.27958600  0.30169400  1
  O  O33  1  0.56591100  0.87235800  0.44226700  1
  O  O34  1  0.88264600  0.18795100  0.00452500  1
  O  O35  1  0.89434000  0.13323800  0.80810000  1
  O  O36  1  0.50507900  0.70680000  0.97674000  1
  O  O37  1  0.79788600  0.94786900  0.97409300  1
  O  O38  1  0.86435200  0.00883600  0.62640100  1
  O  O39  1  0.29737600  0.41414800  0.75658300  1
  O  O40  1  0.79723800  0.92247100  0.25817800  1
  O  O41  1  0.74112100  0.78547600  0.64719600  1
  O  O42  1  0.76112800  0.69926800  0.85538600  1
  O  O43  1  0.70197100  0.57918200  0.54045900  1
  O  O44  1  0.64985800  0.47011300  0.87162300  1
  O  O45  1  0.60712800  0.35233800  0.68664800  1
  O  O46  1  0.53350900  0.21553900  0.86036400  1
  O  O47  1  0.98653400  0.38625000  0.75816300  1
loop_
_geom_bond_atom_site_label_1
_geom_bond_atom_site_label_2
_geom_bond_distance
_geom_bond_site_symmetry_2
Li0 O7 2.150913 1_555
Li0 O2 2.261837 1_555
Li0 O4 2.265208 1_555
Li0 O23 2.332180 1_555
Li0 O0 2.536534 1_555
Li0 O21 2.581818 1_555
Li0 O5 2.683009 1_555
Li1 O28 1.985527 1_455
Li1 O15 2.029512 1_555
Li1 O3 2.039351 1_555
Li1 O8 2.553676 1_555
Li2 O36 2.014416 1_554
Li2 O1 2.015563 1_555
Li2 O20 2.050709 1_555
Li3 O10 2.108353 1_555
Li3 O12 2.150499 1_545
Li3 O6 2.155439 1_555
Li3 O27 2.376940 1_455
Li4 O29 1.944485 1_555
Li4 O8 2.034664 1_565
Li4 O18 2.047834 1_555
Li4 O14 2.416917 1_555
Li5 O32 1.972374 1_555
Li5 O23 2.046382 1_555
Li5 O9 2.055849 1_555
Li5 O19 2.336718 1_555
Li6 O39 1.989265 1_555
Li6 O17 2.003403 1_555
Li6 O31 2.038285 1_555
Li6 O13 2.540668 1_555
Li7 O22 1.970401 1_555
Li7 O40 2.018421 1_545
Li7 O34 2.057835 1_555
Li8 O42 2.123212 1_555
Li8 O18 2.178349 1_655
Li8 O35 2.198338 1_565
Li8 O37 2.336869 1_555
Li9 O41 2.151070 1_555
Li9 O43 2.153576 1_555
Li9 O45 2.221559 1_555
Li10 O46 1.989410 1_555
Li10 O10 2.005973 1_556
Li10 O16 2.013067 1_556
Li10 O30 2.379426 1_555
Li11 O21 1.987985 1_655
Li11 O43 2.009208 1_555
Li11 O13 2.045314 1_655
Li11 O33 2.434039 1_555
Li11 O41 2.618281 1_555
Mn0 O14 1.958022 1_554
Mn0 O1 1.991953 1_555
Mn0 O36 1.999224 1_554
Mn0 O12 2.011979 1_555
Mn0 O5 2.073677 1_555
Mn0 O10 2.297148 1_565
Mn1 O30 1.920650 1_555
Mn1 O17 1.942142 1_555
Mn1 O47 2.030175 1_455
Mn1 O42 2.086935 1_455
Mn1 O39 2.111879 1_555
Mn1 O18 2.203367 1_555
Mn2 O28 1.966540 1_555
Mn2 O19 1.972634 1_555
Mn2 O45 2.001028 1_555
Mn2 O3 2.008345 1_655
Mn2 O38 2.088587 1_555
Mn2 O43 2.314429 1_555
Mn3 O24 1.909693 1_565
Mn3 O26 1.954758 1_555
Mn3 O15 2.075439 1_565
Mn3 O41 2.077708 1_555
Mn3 O8 2.098394 1_565
Mn3 O29 2.149212 1_555
O0 P11 1.538362 1_455
O0 V2 1.974588 1_455
O1 P1 1.565712 1_555
O2 P1 1.551327 1_555
O2 V1 2.025618 1_555
O3 P3 1.550264 1_555
O4 P5 1.556957 1_555
O4 V1 2.043800 1_555
O5 P4 1.513081 1_555
O6 P4 1.559767 1_555
O6 V2 2.046493 1_455
O7 P3 1.556091 1_555
O7 V0 2.065948 1_555
O8 P0 1.543379 1_555
O9 P1 1.549464 1_555
O9 V2 2.057049 1_555
O10 P2 1.553489 1_555
O11 P3 1.533650 1_565
O11 V1 1.977284 1_555
O12 P11 1.569694 1_455
O13 P8 1.558425 1_455
O13 V1 2.014679 1_555
O14 P9 1.550531 1_455
O15 P5 1.535464 1_555
O16 P4 1.553364 1_555
O16 V3 2.031795 1_554
O17 P8 1.574072 1_455
O18 P9 1.563805 1_455
O19 P5 1.552637 1_555
O20 P9 1.545651 1_554
O20 V2 2.043465 1_555
O21 P11 1.552345 1_455
O21 V1 2.066238 1_555
O22 P4 1.563135 1_555
O22 V0 1.984934 1_555
O23 P5 1.572898 1_555
O23 V0 2.116505 1_555
O24 P10 1.545660 1_555
O25 P1 1.519497 1_555
O25 V0 1.982159 1_565
O26 P6 1.578886 1_555
O27 P2 1.557009 1_655
O27 V2 2.046109 1_555
O28 P0 1.572225 1_655
O29 P7 1.542546 1_555
O30 P2 1.558105 1_556
O31 P6 1.542902 1_555
O31 V1 2.074091 1_555
O32 P3 1.556879 1_655
O32 V2 2.064126 1_555
O33 P6 1.546574 1_555
O33 V0 1.982642 1_565
O34 P2 1.541547 1_655
O34 V3 2.035893 1_554
O35 P0 1.555400 1_655
O35 V3 2.035557 1_555
O36 P7 1.557477 1_555
O37 P9 1.558575 1_555
O37 V3 2.074185 1_565
O38 P8 1.509650 1_545
O39 P10 1.533849 1_555
O40 P11 1.536564 1_555
O40 V0 2.075021 1_565
O41 P8 1.551140 1_555
O42 P7 1.559511 1_555
O43 P6 1.547939 1_555
O44 P7 1.541493 1_555
O44 V3 1.979054 1_555
O45 P10 1.565769 1_555
O46 P10 1.554981 1_555
O46 V3 2.059263 1_555
O47 P0 1.521528 1_655
