# generated using pymatgen
data_EuWO2
_symmetry_space_group_name_H-M   'P 1'
_cell_length_a   7.70912902
_cell_length_b   7.70912902
_cell_length_c   7.70912902
_cell_angle_alpha   129.99528804
_cell_angle_beta   129.99528804
_cell_angle_gamma   73.41429767
_symmetry_Int_Tables_number   1
_chemical_formula_structural   EuWO2
_chemical_formula_sum   'Eu4 W4 O8'
_cell_volume   262.45902192
_cell_formula_units_Z   4
loop_
 _symmetry_equiv_pos_site_id
 _symmetry_equiv_pos_as_xyz
  1  'x, y, z'
loop_
 _atom_site_type_symbol
 _atom_site_label
 _atom_site_symmetry_multiplicity
 _atom_site_fract_x
 _atom_site_fract_y
 _atom_site_fract_z
 _atom_site_occupancy
  Eu  Eu0  1  0.87500000  0.62500000  0.25000000  1
  Eu  Eu1  1  0.37500000  0.62500000  0.75000000  1
  Eu  Eu2  1  0.37500000  0.62500000  0.25000000  1
  Eu  Eu3  1  0.37500000  0.12500000  0.75000000  1
  W  W0  1  0.37500000  0.12500000  0.25000000  1
  W  W1  1  0.87500000  0.12500000  0.75000000  1
  W  W2  1  0.87500000  0.12500000  0.25000000  1
  W  W3  1  0.87500000  0.62500000  0.75000000  1
  O  O0  1  0.17235000  0.38682500  0.21447500  1
  O  O1  1  0.17235000  0.95787500  0.78552500  1
  O  O2  1  0.13682500  0.42235000  0.71447500  1
  O  O3  1  0.57765000  0.86317500  0.28552500  1
  O  O4  1  0.70787500  0.42235000  0.28552500  1
  O  O5  1  0.57765000  0.29212500  0.71447500  1
  O  O6  1  0.61317500  0.82765000  0.78552500  1
  O  O7  1  0.04212500  0.82765000  0.21447500  1
loop_
_geom_bond_atom_site_label_1
_geom_bond_atom_site_label_2
_geom_bond_distance
_geom_bond_site_symmetry_2
Eu0 O7 2.515598 1_655
Eu0 O4 2.515598 1_555
Eu0 O5 2.541405 1_554
Eu0 O3 2.541405 1_555
Eu0 O0 2.541405 1_655
Eu0 O1 2.541405 1_655
Eu1 O2 2.515598 1_555
Eu1 O6 2.515598 1_555
Eu1 O5 2.541405 1_555
Eu1 O3 2.541405 1_556
Eu1 O0 2.541405 1_555
Eu1 O1 2.541405 1_555
Eu2 O3 2.515598 1_555
Eu2 O0 2.515598 1_555
Eu2 O2 2.541405 1_554
Eu2 O6 2.541405 1_555
Eu2 O4 2.541405 1_555
Eu2 O7 2.541405 1_555
Eu3 O5 2.515598 1_555
Eu3 O1 2.515598 1_545
Eu3 O6 2.541405 1_545
Eu3 O2 2.541405 1_555
Eu3 O7 2.541405 1_545
Eu3 O4 2.541405 1_556
O0 W0 2.224888 1_555
O0 W1 2.224888 1_454
O1 W1 2.224888 1_465
O1 W0 2.224888 1_566
O2 W3 2.224888 1_455
O2 W2 2.224888 1_455
O3 W0 2.224888 1_565
O3 W1 2.224888 1_565
O4 W2 2.224888 1_555
O4 W3 2.224888 1_555
O5 W1 2.224888 1_555
O5 W0 2.224888 1_555
O6 W2 2.224888 1_566
O6 W3 2.224888 1_555
O7 W3 2.224888 1_454
O7 W2 2.224888 1_465
