# generated using pymatgen
data_AlCr4CuSe8
_symmetry_space_group_name_H-M   'P 1'
_cell_length_a   7.41503793
_cell_length_b   7.41503793
_cell_length_c   7.41503793
_cell_angle_alpha   60.00000000
_cell_angle_beta   60.00000000
_cell_angle_gamma   60.00000000
_symmetry_Int_Tables_number   1
_chemical_formula_structural   AlCr4CuSe8
_chemical_formula_sum   'Al1 Cr4 Cu1 Se8'
_cell_volume   288.28704869
_cell_formula_units_Z   1
loop_
 _symmetry_equiv_pos_site_id
 _symmetry_equiv_pos_as_xyz
  1  'x, y, z'
loop_
 _atom_site_type_symbol
 _atom_site_label
 _atom_site_symmetry_multiplicity
 _atom_site_fract_x
 _atom_site_fract_y
 _atom_site_fract_z
 _atom_site_occupancy
  Al  Al0  1  0.50000000  0.50000000  0.50000000  1
  Cr  Cr0  1  0.63653440  0.12115553  0.12115553  1
  Cr  Cr1  1  0.12115553  0.63653440  0.12115553  1
  Cr  Cr2  1  0.12115553  0.12115553  0.63653440  1
  Cr  Cr3  1  0.12115553  0.12115553  0.12115553  1
  Cu  Cu0  1  0.75000000  0.75000000  0.75000000  1
  Se  Se0  1  0.35139029  0.88286990  0.88286990  1
  Se  Se1  1  0.88286990  0.35139029  0.88286990  1
  Se  Se2  1  0.88286990  0.88286990  0.35139029  1
  Se  Se3  1  0.88286990  0.88286990  0.88286990  1
  Se  Se4  1  0.89793668  0.36735477  0.36735477  1
  Se  Se5  1  0.36735477  0.89793668  0.36735477  1
  Se  Se6  1  0.36735477  0.36735477  0.89793668  1
  Se  Se7  1  0.36735477  0.36735477  0.36735477  1
loop_
_geom_bond_atom_site_label_1
_geom_bond_atom_site_label_2
_geom_bond_distance
_geom_bond_site_symmetry_2
Al0 Se7 2.409243 1_555
Al0 Se5 2.409249 1_555
Al0 Se4 2.409249 1_555
Al0 Se6 2.409249 1_555
Cr0 Se1 2.499477 1_554
Cr0 Se2 2.499477 1_545
Cr0 Se3 2.499483 1_544
Cr0 Se6 2.587373 1_554
Cr0 Se5 2.587373 1_545
Cr0 Se7 2.587373 1_555
Cr1 Se0 2.499477 1_554
Cr1 Se2 2.499477 1_455
Cr1 Se3 2.499483 1_454
Cr1 Se6 2.587373 1_554
Cr1 Se4 2.587373 1_455
Cr1 Se7 2.587373 1_555
Cr2 Se0 2.499477 1_545
Cr2 Se1 2.499477 1_455
Cr2 Se3 2.499483 1_445
Cr2 Se5 2.587373 1_545
Cr2 Se4 2.587373 1_455
Cr2 Se7 2.587373 1_555
Cr3 Se2 2.499483 1_445
Cr3 Se1 2.499483 1_454
Cr3 Se0 2.499483 1_544
Cr3 Se5 2.587373 1_545
Cr3 Se4 2.587373 1_455
Cr3 Se6 2.587373 1_554
Cu0 Se3 2.413324 1_555
Cu0 Se1 2.413324 1_555
Cu0 Se0 2.413324 1_555
Cu0 Se2 2.413324 1_555
