# generated using pymatgen
data_Nd4Zr3TiO14
_symmetry_space_group_name_H-M   'P 1'
_cell_length_a   7.56359049
_cell_length_b   7.56359049
_cell_length_c   7.56359100
_cell_angle_alpha   60.00817282
_cell_angle_beta   60.00817282
_cell_angle_gamma   60.00816571
_symmetry_Int_Tables_number   1
_chemical_formula_structural   Nd4Zr3TiO14
_chemical_formula_sum   'Nd4 Zr3 Ti1 O14'
_cell_volume   306.01977513
_cell_formula_units_Z   1
loop_
 _symmetry_equiv_pos_site_id
 _symmetry_equiv_pos_as_xyz
  1  'x, y, z'
loop_
 _atom_site_type_symbol
 _atom_site_label
 _atom_site_symmetry_multiplicity
 _atom_site_fract_x
 _atom_site_fract_y
 _atom_site_fract_z
 _atom_site_occupancy
  Nd  Nd0  1  0.50000000  0.50000000  0.50000000  1
  Nd  Nd1  1  0.00000000  0.50000000  0.50000000  1
  Nd  Nd2  1  0.50000000  0.50000000  0.00000000  1
  Nd  Nd3  1  0.50000000  0.00000000  0.50000000  1
  Zr  Zr0  1  0.50000000  0.00000000  0.00000000  1
  Zr  Zr1  1  0.00000000  0.00000000  0.50000000  1
  Zr  Zr2  1  0.00000000  0.50000000  0.00000000  1
  Ti  Ti0  1  0.00000000  0.00000000  0.00000000  1
  O  O0  1  0.37402100  0.37402100  0.37402100  1
  O  O1  1  0.62597900  0.62597900  0.62597900  1
  O  O2  1  0.91604600  0.33886500  0.33886500  1
  O  O3  1  0.31784300  0.92365000  0.92365000  1
  O  O4  1  0.33886500  0.33886500  0.91604600  1
  O  O5  1  0.92365000  0.92365000  0.31784300  1
  O  O6  1  0.92365000  0.31784300  0.92365000  1
  O  O7  1  0.33886500  0.91604600  0.33886500  1
  O  O8  1  0.08395400  0.66113500  0.66113500  1
  O  O9  1  0.68215700  0.07635000  0.07635000  1
  O  O10  1  0.66113500  0.66113500  0.08395400  1
  O  O11  1  0.07635000  0.07635000  0.68215700  1
  O  O12  1  0.07635000  0.68215700  0.07635000  1
  O  O13  1  0.66113500  0.08395400  0.66113500  1
loop_
_geom_bond_atom_site_label_1
_geom_bond_atom_site_label_2
_geom_bond_distance
_geom_bond_site_symmetry_2
Nd0 O1 2.333861 1_555
Nd0 O0 2.333861 1_555
Nd0 O7 2.586430 1_555
Nd0 O2 2.586430 1_555
Nd0 O13 2.586430 1_555
Nd0 O8 2.586430 1_555
Nd0 O4 2.586431 1_555
Nd0 O10 2.586431 1_555
Nd1 O0 2.310124 1_555
Nd1 O1 2.310124 1_455
Nd1 O8 2.531086 1_555
Nd1 O2 2.531086 1_455
Nd1 O11 2.651625 1_555
Nd1 O5 2.651625 1_455
Nd1 O12 2.651625 1_555
Nd1 O6 2.651625 1_455
Nd2 O0 2.310124 1_555
Nd2 O1 2.310124 1_554
Nd2 O10 2.531086 1_555
Nd2 O4 2.531086 1_554
Nd2 O12 2.651625 1_555
Nd2 O9 2.651625 1_555
Nd2 O3 2.651625 1_554
Nd2 O6 2.651625 1_554
Nd3 O0 2.310124 1_555
Nd3 O1 2.310124 1_545
Nd3 O13 2.531086 1_555
Nd3 O7 2.531086 1_545
Nd3 O11 2.651625 1_555
Nd3 O5 2.651625 1_545
Nd3 O9 2.651625 1_555
Nd3 O3 2.651625 1_545
O2 Zr1 2.116931 1_655
O2 Zr2 2.116931 1_655
O3 Ti0 2.000967 1_566
O3 Zr0 2.118834 1_566
O4 Zr2 2.116931 1_556
O4 Zr0 2.116931 1_556
O5 Ti0 2.000968 1_665
O5 Zr1 2.118834 1_665
O6 Ti0 2.000967 1_656
O6 Zr2 2.118834 1_656
O7 Zr1 2.116931 1_565
O7 Zr0 2.116931 1_565
O8 Zr1 2.116931 1_565
O8 Zr2 2.116931 1_556
O9 Ti0 2.000967 1_655
O9 Zr0 2.118834 1_555
O10 Zr0 2.116931 1_565
O10 Zr2 2.116931 1_655
O11 Ti0 2.000968 1_556
O11 Zr1 2.118834 1_555
O12 Ti0 2.000967 1_565
O12 Zr2 2.118834 1_555
O13 Zr1 2.116931 1_655
O13 Zr0 2.116931 1_556
