# generated using pymatgen
data_U2H12C2Se3(N3O8)2
_symmetry_space_group_name_H-M   'P 1'
_cell_length_a   9.88121800
_cell_length_b   10.30508700
_cell_length_c   10.31388891
_cell_angle_alpha   89.70478393
_cell_angle_beta   90.00000000
_cell_angle_gamma   90.00000000
_symmetry_Int_Tables_number   1
_chemical_formula_structural   U2H12C2Se3(N3O8)2
_chemical_formula_sum   'U4 H24 C4 Se6 N12 O32'
_cell_volume   1050.21647721
_cell_formula_units_Z   2
loop_
 _symmetry_equiv_pos_site_id
 _symmetry_equiv_pos_as_xyz
  1  'x, y, z'
loop_
 _atom_site_type_symbol
 _atom_site_label
 _atom_site_symmetry_multiplicity
 _atom_site_fract_x
 _atom_site_fract_y
 _atom_site_fract_z
 _atom_site_occupancy
  U  U0  1  0.20264200  0.29804300  0.19546300  1
  U  U1  1  0.20264200  0.70195700  0.80453700  1
  U  U2  1  0.43690200  0.80855700  0.29837900  1
  U  U3  1  0.43690200  0.19144300  0.70162100  1
  H  H0  1  0.63823600  0.11259000  0.98594900  1
  H  H1  1  0.63823600  0.88741000  0.01405100  1
  H  H2  1  0.79004900  0.19815700  0.98980100  1
  H  H3  1  0.79004900  0.80184300  0.01019900  1
  H  H4  1  0.99716100  0.08453700  0.99644400  1
  H  H5  1  0.99716100  0.91546300  0.00355600  1
  H  H6  1  0.78742200  0.61972400  0.34238100  1
  H  H7  1  0.78742200  0.38027600  0.65761900  1
  H  H8  1  0.63527600  0.56942300  0.41047500  1
  H  H9  1  0.63527600  0.43057700  0.58952500  1
  H  H10  1  0.99340800  0.54973500  0.43154300  1
  H  H11  1  0.99340800  0.45026500  0.56845700  1
  H  H12  1  0.90963700  0.12379500  0.65359400  1
  H  H13  1  0.90963700  0.87620500  0.34640600  1
  H  H14  1  0.75506200  0.07192500  0.58856600  1
  H  H15  1  0.75506200  0.92807500  0.41143400  1
  H  H16  1  0.11432500  0.94845600  0.43430300  1
  H  H17  1  0.11432500  0.05154400  0.56569700  1
  H  H18  1  0.52232300  0.43954800  0.05832600  1
  H  H19  1  0.52232300  0.56045200  0.94167400  1
  H  H20  1  0.72890900  0.36675400  0.14697500  1
  H  H21  1  0.72890900  0.63324600  0.85302500  1
  H  H22  1  0.88129100  0.42992800  0.08992000  1
  H  H23  1  0.88129100  0.57007200  0.91008000  1
  C  C0  1  0.80905700  0.00000000  0.00000000  1
  C  C1  1  0.80589300  0.50000000  0.50000000  1
  C  C2  1  0.92519300  0.00000000  0.50000000  1
  C  C3  1  0.71154400  0.50000000  0.00000000  1
  Se  Se0  1  0.32316000  0.50000000  0.50000000  1
  Se  Se1  1  0.52128300  0.16373200  0.34481700  1
  Se  Se2  1  0.52128300  0.83626800  0.65518300  1
  Se  Se3  1  0.11478200  0.34367900  0.83786000  1
  Se  Se4  1  0.11478200  0.65632100  0.16214000  1
  Se  Se5  1  0.32638400  0.00000000  0.00000000  1
  N  N0  1  0.74083600  0.11189100  0.99338800  1
  N  N1  1  0.74083600  0.88810900  0.00661200  1
  N  N2  1  0.94403500  0.00000000  0.00000000  1
  N  N3  1  0.73786900  0.56178600  0.40626000  1
  N  N4  1  0.73786900  0.43821400  0.59374000  1
  N  N5  1  0.94074100  0.50000000  0.50000000  1
  N  N6  1  0.85767000  0.06716600  0.59006400  1
  N  N7  1  0.85767000  0.93283400  0.40993600  1
  N  N8  1  0.05989900  0.00000000  0.50000000  1
  N  N9  1  0.57745600  0.50000000  0.00000000  1
  N  N10  1  0.78029200  0.41521700  0.07531200  1
  N  N11  1  0.78029200  0.58478300  0.92468800  1
  O  O0  1  0.05111700  0.23153200  0.26536800  1
  O  O1  1  0.05111700  0.76846800  0.73463200  1
  O  O2  1  0.58760200  0.73343200  0.23330800  1
  O  O3  1  0.58760200  0.26656800  0.76669200  1
  O  O4  1  0.34920300  0.36643800  0.11648500  1
  O  O5  1  0.34920300  0.63356200  0.88351500  1
  O  O6  1  0.42745200  0.89407100  0.07742600  1
  O  O7  1  0.42745200  0.10592900  0.92257400  1
  O  O8  1  0.28211600  0.32808400  0.81114400  1
  O  O9  1  0.28211600  0.67191600  0.18885600  1
  O  O10  1  0.28826800  0.88575800  0.36291400  1
  O  O11  1  0.28826800  0.11424200  0.63708600  1
  O  O12  1  0.07967200  0.28183400  0.98616000  1
  O  O13  1  0.07967200  0.71816600  0.01384000  1
  O  O14  1  0.07769100  0.49619600  0.15932900  1
  O  O15  1  0.07769100  0.50380400  0.84067100  1
  O  O16  1  0.42643100  0.60728600  0.42792000  1
  O  O17  1  0.42643100  0.39271400  0.57208000  1
  O  O18  1  0.22082800  0.43025500  0.39208700  1
  O  O19  1  0.22082800  0.56974500  0.60791300  1
  O  O20  1  0.55280600  0.01339700  0.28840500  1
  O  O21  1  0.55280600  0.98660300  0.71159500  1
  O  O22  1  0.35282800  0.19043500  0.33165400  1
  O  O23  1  0.35282800  0.80956500  0.66834600  1
  O  O24  1  0.22787200  0.07885300  0.10471400  1
  O  O25  1  0.22787200  0.92114700  0.89528600  1
  O  O26  1  0.61248400  0.27258800  0.26897800  1
  O  O27  1  0.61248400  0.72741200  0.73102200  1
  O  O28  1  0.55798300  0.16153100  0.50470500  1
  O  O29  1  0.55798300  0.83846900  0.49529500  1
  O  O30  1  0.01909300  0.27451100  0.72709500  1
  O  O31  1  0.01909300  0.72548900  0.27290500  1
loop_
_geom_bond_atom_site_label_1
_geom_bond_atom_site_label_2
_geom_bond_distance
_geom_bond_site_symmetry_2
H0 N0 1.016735 1_555
H1 N1 1.016735 1_555
H2 N0 1.013797 1_555
H3 N1 1.013797 1_555
H4 N2 1.017600 1_556
H5 N2 1.017600 1_565
H6 N3 1.013038 1_555
H7 N4 1.013038 1_555
H8 N3 1.017740 1_555
H9 N4 1.017740 1_555
H10 N5 1.014051 1_555
H11 N5 1.014051 1_555
H12 N6 1.018583 1_555
H13 N7 1.018583 1_555
H14 N6 1.015191 1_555
H15 N7 1.015191 1_555
H16 N8 1.016956 1_565
H17 N8 1.016956 1_555
H18 N9 1.021221 1_555
H19 N9 1.021221 1_556
H20 N10 1.024550 1_555
H21 N11 1.024550 1_555
H22 N10 1.020739 1_555
H23 N11 1.020739 1_555
C0 N2 1.333747 1_555
C0 N1 1.337077 1_545
C0 N0 1.337077 1_554
C1 N5 1.332462 1_555
C1 N3 1.336265 1_555
C1 N4 1.336265 1_555
C2 N8 1.331059 1_655
C2 N7 1.339306 1_545
C2 N6 1.339306 1_555
C3 N9 1.324953 1_555
C3 N10 1.349509 1_555
C3 N11 1.349509 1_554
O0 U0 1.796184 1_555
O1 U1 1.796184 1_555
O2 U2 1.809014 1_555
O3 U3 1.809014 1_555
O4 U0 1.803236 1_555
O5 U1 1.803236 1_555
O6 Se5 1.678594 1_565
O6 U2 2.440882 1_555
O7 Se5 1.678594 1_556
O7 U3 2.440882 1_555
O8 Se3 1.684088 1_555
O8 U3 2.369480 1_555
O9 Se4 1.684088 1_555
O9 U2 2.369480 1_555
O10 U2 1.799568 1_555
O11 U3 1.799568 1_555
O12 Se3 1.689974 1_555
O12 U0 2.483581 1_556
O13 Se4 1.689974 1_555
O13 U1 2.483581 1_554
O14 Se4 1.690709 1_555
O14 U0 2.413535 1_555
O15 Se3 1.690709 1_555
O15 U1 2.413535 1_555
O16 Se0 1.675664 1_555
O16 U2 2.463572 1_555
O17 Se0 1.675664 1_555
O17 U3 2.463572 1_555
O18 Se0 1.669144 1_555
O18 U0 2.455538 1_555
O19 Se0 1.669144 1_555
O19 U1 2.455538 1_555
O20 Se1 1.686684 1_555
O20 U2 2.403304 1_545
O21 Se2 1.686684 1_555
O21 U3 2.403304 1_565
O22 Se1 1.692473 1_555
O22 U0 2.321425 1_555
O23 Se2 1.692473 1_555
O23 U1 2.321425 1_555
O24 Se5 1.668324 1_555
O24 U0 2.462121 1_555
O25 Se5 1.668324 1_566
O25 U1 2.462121 1_555
O26 Se1 1.635016 1_555
O27 Se2 1.635016 1_555
O28 Se1 1.688508 1_555
O28 U3 2.378601 1_555
O29 Se2 1.688508 1_555
O29 U2 2.378601 1_555
O30 Se3 1.647903 1_555
O31 Se4 1.647903 1_555
