# generated using pymatgen
data_Zn(CuO2)2
_symmetry_space_group_name_H-M   'P 1'
_cell_length_a   5.05380544
_cell_length_b   5.05380544
_cell_length_c   9.42533800
_cell_angle_alpha   90.00000000
_cell_angle_beta   90.00000000
_cell_angle_gamma   146.20946301
_symmetry_Int_Tables_number   1
_chemical_formula_structural   Zn(CuO2)2
_chemical_formula_sum   'Zn2 Cu4 O8'
_cell_volume   133.88515976
_cell_formula_units_Z   2
loop_
 _symmetry_equiv_pos_site_id
 _symmetry_equiv_pos_as_xyz
  1  'x, y, z'
loop_
 _atom_site_type_symbol
 _atom_site_label
 _atom_site_symmetry_multiplicity
 _atom_site_fract_x
 _atom_site_fract_y
 _atom_site_fract_z
 _atom_site_occupancy
  Zn  Zn0  1  0.60921600  0.39078400  0.75000000  1
  Zn  Zn1  1  0.39078400  0.60921600  0.25000000  1
  Cu  Cu0  1  0.13156500  0.86843500  0.06963000  1
  Cu  Cu1  1  0.86843500  0.13156500  0.93037000  1
  Cu  Cu2  1  0.13156500  0.86843500  0.43037000  1
  Cu  Cu3  1  0.86843500  0.13156500  0.56963000  1
  O  O0  1  0.77803300  0.22196700  0.38757900  1
  O  O1  1  0.22196700  0.77803300  0.61242100  1
  O  O2  1  0.22196700  0.77803300  0.88757900  1
  O  O3  1  0.77803300  0.22196700  0.11242100  1
  O  O4  1  0.04068600  0.95931400  0.25000000  1
  O  O5  1  0.95931400  0.04068600  0.75000000  1
  O  O6  1  0.50000000  0.50000000  0.00000000  1
  O  O7  1  0.50000000  0.50000000  0.50000000  1
loop_
_geom_bond_atom_site_label_1
_geom_bond_atom_site_label_2
_geom_bond_distance
_geom_bond_site_symmetry_2
Cu0 O4 1.913810 1_555
Cu0 O2 1.925799 1_554
Cu0 O6 2.051091 1_455
Cu0 O6 2.051091 1_565
Cu0 O3 2.080023 1_455
Cu0 O3 2.080023 1_565
Cu1 O5 1.913810 1_555
Cu1 O3 1.925799 1_556
Cu1 O6 2.051091 1_546
Cu1 O6 2.051091 1_656
Cu1 O2 2.080023 1_545
Cu1 O2 2.080023 1_655
Cu2 O4 1.913810 1_555
Cu2 O1 1.925799 1_555
Cu2 O7 2.051091 1_455
Cu2 O7 2.051091 1_565
Cu2 O0 2.080023 1_455
Cu2 O0 2.080023 1_565
Cu3 O5 1.913810 1_555
Cu3 O0 1.925799 1_555
Cu3 O7 2.051091 1_655
Cu3 O7 2.051091 1_545
Cu3 O1 2.080023 1_545
Cu3 O1 2.080023 1_655
O0 Zn1 2.242282 1_655
O0 Zn1 2.242282 1_545
O1 Zn0 2.242282 1_565
O1 Zn0 2.242282 1_455
O2 Zn0 2.242282 1_565
O2 Zn0 2.242282 1_455
O3 Zn1 2.242282 1_655
O3 Zn1 2.242282 1_545
O4 Zn1 2.063739 1_565
O4 Zn1 2.063739 1_455
O5 Zn0 2.063739 1_655
O5 Zn0 2.063739 1_545
