# generated using pymatgen
data_HoTmO3
_symmetry_space_group_name_H-M   'P 1'
_cell_length_a   5.60680300
_cell_length_b   5.87771100
_cell_length_c   8.33322100
_cell_angle_alpha   90.00000000
_cell_angle_beta   90.00000000
_cell_angle_gamma   90.00000000
_symmetry_Int_Tables_number   1
_chemical_formula_structural   HoTmO3
_chemical_formula_sum   'Ho4 Tm4 O12'
_cell_volume   274.62269527
_cell_formula_units_Z   4
loop_
 _symmetry_equiv_pos_site_id
 _symmetry_equiv_pos_as_xyz
  1  'x, y, z'
loop_
 _atom_site_type_symbol
 _atom_site_label
 _atom_site_symmetry_multiplicity
 _atom_site_fract_x
 _atom_site_fract_y
 _atom_site_fract_z
 _atom_site_occupancy
  Ho  Ho0  1  0.01814700  0.94631400  0.75000000  1
  Ho  Ho1  1  0.48185300  0.44631400  0.75000000  1
  Ho  Ho2  1  0.51814700  0.55368600  0.25000000  1
  Ho  Ho3  1  0.98185300  0.05368600  0.25000000  1
  Tm  Tm0  1  0.00000000  0.50000000  0.00000000  1
  Tm  Tm1  1  0.00000000  0.50000000  0.50000000  1
  Tm  Tm2  1  0.50000000  0.00000000  0.00000000  1
  Tm  Tm3  1  0.50000000  0.00000000  0.50000000  1
  O  O0  1  0.14873200  0.42241800  0.25000000  1
  O  O1  1  0.18251100  0.18583500  0.57825900  1
  O  O2  1  0.18251100  0.18583500  0.92174100  1
  O  O3  1  0.31748900  0.68583500  0.92174100  1
  O  O4  1  0.31748900  0.68583500  0.57825900  1
  O  O5  1  0.35126800  0.92241900  0.25000000  1
  O  O6  1  0.64873200  0.07758200  0.75000000  1
  O  O7  1  0.68251100  0.31416500  0.07825900  1
  O  O8  1  0.68251100  0.31416500  0.42174100  1
  O  O9  1  0.81748900  0.81416500  0.07825900  1
  O  O10  1  0.81748900  0.81416500  0.42174100  1
  O  O11  1  0.85126800  0.57758100  0.75000000  1
loop_
_geom_bond_atom_site_label_1
_geom_bond_atom_site_label_2
_geom_bond_distance
_geom_bond_site_symmetry_2
Ho0 O2 2.208953 1_565
Ho0 O1 2.208953 1_565
Ho0 O6 2.210276 1_465
Ho0 O11 2.360650 1_455
Ho0 O3 2.684976 1_555
Ho0 O4 2.684976 1_555
Ho0 O10 3.058066 1_455
Ho0 O9 3.058066 1_456
Ho1 O4 2.208953 1_555
Ho1 O3 2.208953 1_555
Ho1 O11 2.210274 1_555
Ho1 O6 2.360645 1_555
Ho1 O2 2.684976 1_555
Ho1 O1 2.684976 1_555
Ho1 O8 3.058066 1_555
Ho1 O7 3.058066 1_556
Ho2 O8 2.208953 1_555
Ho2 O7 2.208953 1_555
Ho2 O0 2.210276 1_555
Ho2 O5 2.360650 1_555
Ho2 O10 2.684976 1_555
Ho2 O9 2.684976 1_555
Ho2 O3 3.058066 1_554
Ho2 O4 3.058066 1_555
Ho3 O10 2.208953 1_545
Ho3 O9 2.208953 1_545
Ho3 O5 2.210274 1_645
Ho3 O0 2.360645 1_655
Ho3 O7 2.684976 1_555
Ho3 O8 2.684976 1_555
Ho3 O2 3.058066 1_654
Ho3 O1 3.058066 1_655
O0 Tm1 2.289871 1_555
O0 Tm0 2.289871 1_555
O1 Tm3 2.187952 1_555
O1 Tm1 2.209587 1_555
O2 Tm2 2.187952 1_556
O2 Tm0 2.209587 1_556
O3 Tm0 2.187952 1_556
O3 Tm2 2.209587 1_566
O4 Tm1 2.187952 1_555
O4 Tm3 2.209587 1_565
O5 Tm2 2.289870 1_565
O5 Tm3 2.289870 1_565
O6 Tm2 2.289871 1_556
O6 Tm3 2.289871 1_555
O7 Tm0 2.187952 1_655
O7 Tm2 2.209587 1_555
O8 Tm1 2.187952 1_655
O8 Tm3 2.209587 1_555
O9 Tm2 2.187952 1_565
O9 Tm0 2.209587 1_655
O10 Tm3 2.187952 1_565
O10 Tm1 2.209587 1_655
O11 Tm0 2.289870 1_656
O11 Tm1 2.289870 1_655
