# generated using pymatgen
data_Li6Zn3(PS4)4
_symmetry_space_group_name_H-M   'P 1'
_cell_length_a   9.30573804
_cell_length_b   11.60056549
_cell_length_c   23.15904896
_cell_angle_alpha   90.08348657
_cell_angle_beta   89.96613852
_cell_angle_gamma   89.99442243
_symmetry_Int_Tables_number   1
_chemical_formula_structural   Li6Zn3(PS4)4
_chemical_formula_sum   'Li24 Zn12 P16 S64'
_cell_volume   2500.05846565
_cell_formula_units_Z   4
loop_
 _symmetry_equiv_pos_site_id
 _symmetry_equiv_pos_as_xyz
  1  'x, y, z'
loop_
 _atom_site_type_symbol
 _atom_site_label
 _atom_site_symmetry_multiplicity
 _atom_site_fract_x
 _atom_site_fract_y
 _atom_site_fract_z
 _atom_site_occupancy
  Li  Li0  1  0.74894425  0.49762863  0.62747530  1
  Li  Li1  1  0.75188291  0.50524491  0.87422697  1
  Li  Li2  1  0.74735742  0.99433292  0.87958947  1
  Li  Li3  1  0.24516870  0.25194384  0.74700470  1
  Li  Li4  1  0.50178888  0.50012864  0.24943307  1
  Li  Li5  1  0.50569601  0.99817456  0.25100012  1
  Li  Li6  1  0.49701058  0.50050208  0.49650644  1
  Li  Li7  1  0.50214436  0.00222824  0.50048314  1
  Li  Li8  1  0.00100218  0.75111617  0.37451828  1
  Li  Li9  1  0.00406568  0.25234288  0.37305118  1
  Li  Li10  1  0.49431642  0.50353711  0.75101822  1
  Li  Li11  1  0.49803572  0.00016843  0.74681247  1
  Li  Li12  1  0.00166945  0.75370508  0.62390875  1
  Li  Li13  1  0.00130893  0.24836103  0.62266871  1
  Li  Li14  1  0.49016388  0.49787115  0.00371291  1
  Li  Li15  1  0.49482365  0.99710156  0.00108943  1
  Li  Li16  1  0.01724151  0.74788507  0.87573259  1
  Li  Li17  1  0.00208182  0.24787382  0.87774315  1
  Li  Li18  1  0.00295999  0.75086347  0.12613799  1
  Li  Li19  1  0.00290220  0.24883356  0.12504187  1
  Li  Li20  1  0.50021314  0.24771704  0.62272785  1
  Li  Li21  1  0.48315477  0.75148274  0.87508989  1
  Li  Li22  1  0.00644064  0.50179594  0.74961981  1
  Li  Li23  1  0.00731011  0.00119547  0.00270802  1
  Zn  Zn0  1  0.49828006  0.24891894  0.12660499  1
  Zn  Zn1  1  0.49898827  0.75035942  0.12414035  1
  Zn  Zn2  1  0.49968411  0.24994527  0.37491815  1
  Zn  Zn3  1  0.49921669  0.74912098  0.37391899  1
  Zn  Zn4  1  0.99816608  0.50001005  0.24979942  1
  Zn  Zn5  1  0.99990259  0.99899245  0.24943904  1
  Zn  Zn6  1  0.49171808  0.75053182  0.62625353  1
  Zn  Zn7  1  0.00570363  0.50044679  0.49866485  1
  Zn  Zn8  1  0.99931940  0.00001669  0.49910101  1
  Zn  Zn9  1  0.49263148  0.24969928  0.87659485  1
  Zn  Zn10  1  0.99844319  0.99942973  0.74901778  1
  Zn  Zn11  1  0.00391541  0.50003178  0.00076021  1
  P  P0  1  0.75061137  0.25013566  0.25000506  1
  P  P1  1  0.75013147  0.74971728  0.25002656  1
  P  P2  1  0.74891264  0.24646982  0.49943447  1
  P  P3  1  0.75163385  0.74909477  0.50015266  1
  P  P4  1  0.25021856  0.50070733  0.37439056  1
  P  P5  1  0.25042444  0.00025951  0.37527773  1
  P  P6  1  0.75259356  0.25406418  0.75336470  1
  P  P7  1  0.74721220  0.74601071  0.74776476  1
  P  P8  1  0.25347370  0.49615400  0.62222077  1
  P  P9  1  0.24604134  0.99977207  0.62707201  1
  P  P10  1  0.74821436  0.25154561  0.99771736  1
  P  P11  1  0.75028727  0.75276908  0.00166080  1
  P  P12  1  0.24720485  0.49998865  0.87730198  1
  P  P13  1  0.25232897  0.00037549  0.87123382  1
  P  P14  1  0.24953264  0.49928352  0.12576690  1
  P  P15  1  0.25186330  0.00417834  0.12668641  1
  S  S0  1  0.86324878  0.36066639  0.05033326  1
  S  S1  1  0.87146685  0.85458699  0.05208427  1
  S  S2  1  0.86396122  0.36213575  0.30233934  1
  S  S3  1  0.86326813  0.86176598  0.30242962  1
  S  S4  1  0.36511553  0.61093749  0.17722857  1
  S  S5  1  0.37393329  0.10904900  0.18002378  1
  S  S6  1  0.86874270  0.36196140  0.55141092  1
  S  S7  1  0.86359770  0.86127281  0.55218426  1
  S  S8  1  0.36201485  0.61352355  0.42671554  1
  S  S9  1  0.36449344  0.11183931  0.42756631  1
  S  S10  1  0.87562082  0.35804102  0.80484490  1
  S  S11  1  0.86939597  0.85603733  0.80104536  1
  S  S12  1  0.36131250  0.60923128  0.67707791  1
  S  S13  1  0.36541276  0.10972221  0.67723497  1
  S  S14  1  0.37506007  0.59865849  0.92719373  1
  S  S15  1  0.36151204  0.11158902  0.92648444  1
  S  S16  1  0.63683186  0.64479000  0.30607799  1
  S  S17  1  0.63685349  0.14633474  0.30616968  1
  S  S18  1  0.62911116  0.64530063  0.55580657  1
  S  S19  1  0.64179806  0.14359771  0.55444913  1
  S  S20  1  0.13724347  0.89510022  0.43123812  1
  S  S21  1  0.13806351  0.39516324  0.43026738  1
  S  S22  1  0.62964692  0.64704288  0.80360710  1
  S  S23  1  0.62714940  0.14583986  0.80535104  1
  S  S24  1  0.13125852  0.89335597  0.68128736  1
  S  S25  1  0.13073791  0.39425483  0.67655855  1
  S  S26  1  0.63029471  0.64497709  0.05371367  1
  S  S27  1  0.62898707  0.15003730  0.05231287  1
  S  S28  1  0.12903853  0.90418705  0.92440054  1
  S  S29  1  0.13184593  0.39166383  0.93110866  1
  S  S30  1  0.13933805  0.89663846  0.18230486  1
  S  S31  1  0.13410673  0.39580844  0.18138249  1
  S  S32  1  0.86465560  0.13859304  0.19791588  1
  S  S33  1  0.86442480  0.63836685  0.19788026  1
  S  S34  1  0.87503772  0.14389977  0.44715615  1
  S  S35  1  0.86398885  0.63739337  0.44790663  1
  S  S36  1  0.36552650  0.38933972  0.32263837  1
  S  S37  1  0.36530679  0.88900486  0.32310893  1
  S  S38  1  0.86533022  0.14400820  0.69961291  1
  S  S39  1  0.87287404  0.64330599  0.69643277  1
  S  S40  1  0.37491933  0.39464769  0.57102889  1
  S  S41  1  0.36303633  0.89081033  0.57432276  1
  S  S42  1  0.86584084  0.14133412  0.94723328  1
  S  S43  1  0.87040982  0.63979863  0.94761738  1
  S  S44  1  0.36461262  0.38642219  0.82232214  1
  S  S45  1  0.37174167  0.89874092  0.81934993  1
  S  S46  1  0.36106539  0.38521537  0.07423402  1
  S  S47  1  0.36313812  0.88957732  0.07412749  1
  S  S48  1  0.63787385  0.35464695  0.19398999  1
  S  S49  1  0.63541796  0.85276501  0.19438320  1
  S  S50  1  0.63788535  0.35344003  0.44386131  1
  S  S51  1  0.63238881  0.85100507  0.44581709  1
  S  S52  1  0.13450615  0.60412089  0.31910839  1
  S  S53  1  0.13554036  0.10319608  0.31954458  1
  S  S54  1  0.62732351  0.35303936  0.69967573  1
  S  S55  1  0.63224238  0.85359591  0.69436003  1
  S  S56  1  0.12938506  0.60329866  0.57074066  1
  S  S57  1  0.13320811  0.10218106  0.57021837  1
  S  S58  1  0.62622314  0.35937742  0.94385257  1
  S  S59  1  0.62956269  0.85176377  0.94584155  1
  S  S60  1  0.13625320  0.60101482  0.82196502  1
  S  S61  1  0.12718874  0.10937114  0.81752647  1
  S  S62  1  0.13690077  0.60417050  0.06983237  1
  S  S63  1  0.14138563  0.10738512  0.07257463  1
loop_
_geom_bond_atom_site_label_1
_geom_bond_atom_site_label_2
_geom_bond_distance
_geom_bond_site_symmetry_2
Li0 S39 2.594411 1_555
Li0 S6 2.610005 1_555
Li0 S54 2.626119 1_555
Li0 S18 2.634983 1_555
Li1 S43 2.556679 1_555
Li1 S22 2.585384 1_555
Li1 S10 2.610223 1_555
Li1 S58 2.614746 1_555
Li2 S59 2.509353 1_555
Li2 S42 2.563682 1_565
Li2 S11 2.676006 1_555
Li2 S23 2.703150 1_565
Li3 S25 2.555505 1_555
Li3 S13 2.564103 1_555
Li3 S61 2.571834 1_555
Li3 S44 2.589663 1_555
Li4 S4 2.464677 1_555
Li4 S48 2.468188 1_555
Li4 S16 2.472308 1_555
Li4 S36 2.477508 1_555
Li5 S5 2.422375 1_565
Li5 S49 2.452173 1_555
Li5 S17 2.464151 1_565
Li5 S37 2.470487 1_555
Li6 S40 2.404475 1_555
Li6 S8 2.432652 1_555
Li6 S50 2.471257 1_555
Li6 S18 2.492876 1_555
Li7 S19 2.436547 1_555
Li7 S9 2.473420 1_555
Li7 S51 2.478016 1_545
Li7 S41 2.504947 1_545
Li8 S3 2.467008 1_455
Li8 S52 2.467646 1_555
Li8 S20 2.473610 1_555
Li8 S35 2.501804 1_455
Li9 S34 2.444124 1_455
Li9 S2 2.451961 1_455
Li9 S53 2.453058 1_555
Li9 S21 2.460007 1_555
Li10 S22 2.415981 1_555
Li10 S12 2.444555 1_555
Li10 S54 2.446551 1_555
Li10 S44 2.456422 1_555
Li11 S45 2.364618 1_545
Li11 S13 2.396403 1_555
Li11 S55 2.432740 1_545
Li11 S23 2.476453 1_555
Li12 S24 2.416722 1_555
Li12 S39 2.429375 1_455
Li12 S56 2.442251 1_555
Li12 S7 2.444462 1_455
Li13 S57 2.418578 1_555
Li13 S25 2.422532 1_555
Li13 S6 2.447509 1_455
Li13 S38 2.499182 1_455
Li14 S14 2.379650 1_554
Li14 S46 2.413032 1_555
Li14 S26 2.439264 1_555
Li14 S58 2.469243 1_554
Li15 S47 2.433657 1_555
Li15 S59 2.458297 1_554
Li15 S27 2.471766 1_565
Li15 S15 2.509387 1_564
Li16 S28 2.374060 1_555
Li16 S60 2.381545 1_555
Li16 S43 2.492868 1_455
Li16 S11 2.543140 1_455
Li17 S42 2.393427 1_455
Li17 S29 2.400862 1_555
Li17 S61 2.423405 1_555
Li17 S10 2.424195 1_455
Li18 S1 2.427878 1_455
Li18 S33 2.475822 1_455
Li18 S62 2.478102 1_555
Li18 S30 2.481592 1_555
Li19 S63 2.412797 1_555
Li19 S31 2.469013 1_555
Li19 S32 2.478480 1_455
Li19 S0 2.524747 1_455
Li20 S19 2.384723 1_555
Li20 S40 2.388603 1_555
Li20 S13 2.394593 1_555
Li20 S54 2.462526 1_555
Li21 S14 2.369818 1_555
Li21 S45 2.380583 1_555
Li21 S59 2.427291 1_555
Li21 S22 2.461301 1_555
Li22 S60 2.363942 1_555
Li22 S25 2.397597 1_555
Li22 S39 2.400889 1_455
Li22 S10 2.429718 1_455
Li23 S63 2.385185 1_555
Li23 S1 2.408840 1_445
Li23 S28 2.414508 1_544
Li23 S42 2.456461 1_454
P0 S32 2.061438 1_555
P0 S48 2.063814 1_555
P0 S17 2.065349 1_555
P0 S2 2.065638 1_555
P1 S49 2.057919 1_555
P1 S33 2.062009 1_555
P1 S3 2.065914 1_555
P1 S16 2.069187 1_555
P2 S19 2.011013 1_555
P2 S34 2.062284 1_555
P2 S50 2.066338 1_555
P2 S6 2.117681 1_555
P3 S51 2.053823 1_555
P3 S7 2.056267 1_555
P3 S35 2.056686 1_555
P3 S18 2.100965 1_555
P4 S52 2.060006 1_555
P4 S36 2.061707 1_555
P4 S8 2.064143 1_555
P4 S21 2.065480 1_555
P5 S53 2.059299 1_555
P5 S37 2.064449 1_545
P5 S9 2.065392 1_555
P5 S20 2.068890 1_545
P6 S10 2.045656 1_555
P6 S54 2.056414 1_555
P6 S38 2.067315 1_555
P6 S23 2.095574 1_555
P7 S22 2.047049 1_555
P7 S39 2.047964 1_555
P7 S55 2.058580 1_555
P7 S11 2.107568 1_555
P8 S40 2.015795 1_555
P8 S25 2.070828 1_555
P8 S56 2.074944 1_555
P8 S12 2.082952 1_555
P9 S13 2.051320 1_565
P9 S24 2.060228 1_555
P9 S57 2.062384 1_565
P9 S41 2.066176 1_555
P10 S42 2.047817 1_555
P10 S27 2.054072 1_556
P10 S0 2.056811 1_556
P10 S58 2.101331 1_555
P11 S1 2.007036 1_555
P11 S59 2.063450 1_554
P11 S26 2.065612 1_555
P11 S43 2.127622 1_554
P12 S14 2.014659 1_555
P12 S60 2.021782 1_555
P12 S29 2.070642 1_555
P12 S44 2.131611 1_555
P13 S45 2.015624 1_545
P13 S28 2.019920 1_545
P13 S15 2.081108 1_555
P13 S61 2.123187 1_555
P14 S46 2.060637 1_555
P14 S4 2.062095 1_555
P14 S31 2.063178 1_555
P14 S62 2.064709 1_555
P15 S63 2.016550 1_555
P15 S5 2.072142 1_555
P15 S47 2.077207 1_545
P15 S30 2.077322 1_545
S0 Zn11 2.376841 1_655
S2 Zn4 2.366989 1_555
S3 Zn5 2.379312 1_555
S4 Zn1 2.384084 1_555
S5 Zn0 2.346639 1_555
S6 Zn7 2.387831 1_655
S7 Zn8 2.387741 1_565
S8 Zn3 2.367207 1_555
S9 Zn2 2.374943 1_555
S11 Zn10 2.380220 1_555
S12 Zn6 2.355685 1_555
S15 Zn9 2.322661 1_555
S16 Zn3 2.359030 1_555
S17 Zn2 2.366575 1_555
S18 Zn6 2.403758 1_555
S20 Zn8 2.364410 1_465
S21 Zn7 2.347270 1_555
S23 Zn9 2.394234 1_555
S24 Zn10 2.343914 1_455
S26 Zn1 2.374720 1_555
S27 Zn0 2.397288 1_555
S29 Zn11 2.364559 1_556
S30 Zn5 2.345782 1_455
S31 Zn4 2.358768 1_455
S32 Zn5 2.374323 1_545
S33 Zn4 2.361732 1_555
S34 Zn8 2.361749 1_555
S35 Zn7 2.377322 1_655
S36 Zn2 2.376230 1_555
S37 Zn3 2.361706 1_555
S38 Zn10 2.379784 1_545
S41 Zn6 2.352770 1_555
S43 Zn11 2.386269 1_656
S44 Zn9 2.349859 1_555
S46 Zn0 2.368210 1_555
S47 Zn1 2.356850 1_555
S48 Zn0 2.371559 1_555
S49 Zn1 2.380447 1_555
S50 Zn2 2.375259 1_555
S51 Zn3 2.387931 1_555
S52 Zn4 2.375260 1_455
S53 Zn5 2.384832 1_445
S55 Zn6 2.371616 1_555
S56 Zn7 2.351861 1_555
S57 Zn8 2.380469 1_455
S58 Zn9 2.363748 1_555
S61 Zn10 2.361337 1_445
S62 Zn11 2.355157 1_555
