# generated using pymatgen
data_TmZr6(PO4)9
_symmetry_space_group_name_H-M   'P 1'
_cell_length_a   8.94228031
_cell_length_b   8.94228031
_cell_length_c   22.88307900
_cell_angle_alpha   90.00000000
_cell_angle_beta   90.00000000
_cell_angle_gamma   120.00000226
_symmetry_Int_Tables_number   1
_chemical_formula_structural   TmZr6(PO4)9
_chemical_formula_sum   'Tm2 Zr12 P18 O72'
_cell_volume   1584.68023083
_cell_formula_units_Z   2
loop_
 _symmetry_equiv_pos_site_id
 _symmetry_equiv_pos_as_xyz
  1  'x, y, z'
loop_
 _atom_site_type_symbol
 _atom_site_label
 _atom_site_symmetry_multiplicity
 _atom_site_fract_x
 _atom_site_fract_y
 _atom_site_fract_z
 _atom_site_occupancy
  Tm  Tm0  1  0.00000000  0.00000000  0.50000000  1
  Tm  Tm1  1  0.00000000  0.00000000  0.00000000  1
  Zr  Zr0  1  0.33333300  0.66666700  0.52834900  1
  Zr  Zr1  1  0.66666700  0.33333300  0.47165100  1
  Zr  Zr2  1  0.66666700  0.33333300  0.97165100  1
  Zr  Zr3  1  0.33333300  0.66666700  0.02834900  1
  Zr  Zr4  1  0.00000000  0.00000000  0.64896300  1
  Zr  Zr5  1  0.00000000  0.00000000  0.35103700  1
  Zr  Zr6  1  0.00000000  0.00000000  0.85103700  1
  Zr  Zr7  1  0.00000000  0.00000000  0.14896300  1
  Zr  Zr8  1  0.33333300  0.66666700  0.81291800  1
  Zr  Zr9  1  0.66666700  0.33333300  0.18708200  1
  Zr  Zr10  1  0.66666700  0.33333300  0.68708200  1
  Zr  Zr11  1  0.33333300  0.66666700  0.31291800  1
  P  P0  1  0.37239000  0.31881500  0.57869700  1
  P  P1  1  0.62761000  0.68118500  0.42130300  1
  P  P2  1  0.68118500  0.05357400  0.57869700  1
  P  P3  1  0.31881500  0.37239000  0.92130300  1
  P  P4  1  0.31881500  0.94642600  0.42130300  1
  P  P5  1  0.68118500  0.62761000  0.07869700  1
  P  P6  1  0.94642600  0.62761000  0.57869700  1
  P  P7  1  0.05357400  0.68118500  0.92130300  1
  P  P8  1  0.05357400  0.37239000  0.42130300  1
  P  P9  1  0.94642600  0.31881500  0.07869700  1
  P  P10  1  0.62761000  0.94642600  0.92130300  1
  P  P11  1  0.37239000  0.05357400  0.07869700  1
  P  P12  1  0.29220300  0.00000000  0.75000000  1
  P  P13  1  0.70779700  0.00000000  0.25000000  1
  P  P14  1  0.00000000  0.29220300  0.75000000  1
  P  P15  1  0.00000000  0.70779700  0.25000000  1
  P  P16  1  0.70779700  0.70779700  0.75000000  1
  P  P17  1  0.29220300  0.29220300  0.25000000  1
  O  O0  1  0.45403800  0.28311300  0.52533000  1
  O  O1  1  0.54596200  0.71688700  0.47467000  1
  O  O2  1  0.71688700  0.17092500  0.52533000  1
  O  O3  1  0.28311300  0.45403800  0.97467000  1
  O  O4  1  0.28311300  0.82907500  0.47467000  1
  O  O5  1  0.71688700  0.54596200  0.02533000  1
  O  O6  1  0.82907500  0.54596200  0.52533000  1
  O  O7  1  0.17092500  0.71688700  0.97467000  1
  O  O8  1  0.17092500  0.45403800  0.47467000  1
  O  O9  1  0.82907500  0.28311300  0.02533000  1
  O  O10  1  0.54596200  0.82907500  0.97467000  1
  O  O11  1  0.45403800  0.17092500  0.02533000  1
  O  O12  1  0.37524800  0.49148400  0.57475500  1
  O  O13  1  0.62475200  0.50851600  0.42524500  1
  O  O14  1  0.50851600  0.88376400  0.57475500  1
  O  O15  1  0.49148400  0.37524800  0.92524500  1
  O  O16  1  0.49148400  0.11623600  0.42524500  1
  O  O17  1  0.50851600  0.62475200  0.07475500  1
  O  O18  1  0.11623600  0.62475200  0.57475500  1
  O  O19  1  0.88376400  0.50851600  0.92524500  1
  O  O20  1  0.88376400  0.37524800  0.42524500  1
  O  O21  1  0.11623600  0.49148400  0.07475500  1
  O  O22  1  0.62475200  0.11623600  0.92524500  1
  O  O23  1  0.37524800  0.88376400  0.07475500  1
  O  O24  1  0.17590200  0.16764000  0.57735700  1
  O  O25  1  0.82409800  0.83236000  0.42264300  1
  O  O26  1  0.83236000  0.00826200  0.57735700  1
  O  O27  1  0.16764000  0.17590200  0.92264300  1
  O  O28  1  0.16764000  0.99173800  0.42264300  1
  O  O29  1  0.83236000  0.82409800  0.07735700  1
  O  O30  1  0.99173800  0.82409800  0.57735700  1
  O  O31  1  0.00826200  0.83236000  0.92264300  1
  O  O32  1  0.00826200  0.17590200  0.42264300  1
  O  O33  1  0.99173800  0.16764000  0.07735700  1
  O  O34  1  0.82409800  0.99173800  0.92264300  1
  O  O35  1  0.17590200  0.00826200  0.07735700  1
  O  O36  1  0.02974500  0.20451800  0.69574700  1
  O  O37  1  0.97025500  0.79548200  0.30425300  1
  O  O38  1  0.79548200  0.82522600  0.69574700  1
  O  O39  1  0.20451800  0.02974500  0.80425300  1
  O  O40  1  0.20451800  0.17477400  0.30425300  1
  O  O41  1  0.79548200  0.97025500  0.19574700  1
  O  O42  1  0.17477400  0.97025500  0.69574700  1
  O  O43  1  0.82522600  0.79548200  0.80425300  1
  O  O44  1  0.82522600  0.02974500  0.30425300  1
  O  O45  1  0.17477400  0.20451800  0.19574700  1
  O  O46  1  0.97025500  0.17477400  0.80425300  1
  O  O47  1  0.02974500  0.82522600  0.19574700  1
  O  O48  1  0.46042100  0.31388400  0.63553300  1
  O  O49  1  0.53957900  0.68611600  0.36446700  1
  O  O50  1  0.68611600  0.14653700  0.63553300  1
  O  O51  1  0.31388400  0.46042100  0.86446700  1
  O  O52  1  0.31388400  0.85346300  0.36446700  1
  O  O53  1  0.68611600  0.53957900  0.13553300  1
  O  O54  1  0.85346300  0.53957900  0.63553300  1
  O  O55  1  0.14653700  0.68611600  0.86446700  1
  O  O56  1  0.14653700  0.46042100  0.36446700  1
  O  O57  1  0.85346300  0.31388400  0.13553300  1
  O  O58  1  0.53957900  0.85346300  0.86446700  1
  O  O59  1  0.46042100  0.14653700  0.13553300  1
  O  O60  1  0.46866000  0.15944800  0.74041100  1
  O  O61  1  0.53134000  0.84055200  0.25958900  1
  O  O62  1  0.84055200  0.30921200  0.74041100  1
  O  O63  1  0.15944800  0.46866000  0.75958900  1
  O  O64  1  0.15944800  0.69078800  0.25958900  1
  O  O65  1  0.84055200  0.53134000  0.24041100  1
  O  O66  1  0.69078800  0.53134000  0.74041100  1
  O  O67  1  0.30921200  0.84055200  0.75958900  1
  O  O68  1  0.30921200  0.46866000  0.25958900  1
  O  O69  1  0.69078800  0.15944800  0.24041100  1
  O  O70  1  0.53134000  0.69078800  0.75958900  1
  O  O71  1  0.46866000  0.30921200  0.24041100  1
loop_
_geom_bond_atom_site_label_1
_geom_bond_atom_site_label_2
_geom_bond_distance
_geom_bond_site_symmetry_2
O0 P0 1.536043 1_555
O0 Zr1 2.114685 1_555
O1 P1 1.536043 1_555
O1 Zr0 2.114685 1_555
O2 P2 1.536048 1_555
O2 Zr1 2.114678 1_555
O3 P3 1.536043 1_555
O3 Zr3 2.114685 1_556
O4 P4 1.536048 1_555
O4 Zr0 2.114678 1_555
O5 P5 1.536043 1_555
O5 Zr2 2.114685 1_554
O6 P6 1.536047 1_555
O6 Zr1 2.114683 1_555
O7 P7 1.536048 1_555
O7 Zr3 2.114678 1_556
O8 P8 1.536047 1_555
O8 Zr0 2.114683 1_555
O9 P9 1.536048 1_555
O9 Zr2 2.114678 1_554
O10 P10 1.536047 1_555
O10 Zr3 2.114683 1_556
O11 P11 1.536047 1_555
O11 Zr2 2.114683 1_554
O12 P0 1.534090 1_555
O12 Zr0 2.075895 1_555
O13 P1 1.534090 1_555
O13 Zr1 2.075895 1_555
O14 P2 1.534086 1_565
O14 Zr0 2.075890 1_555
O15 P3 1.534090 1_555
O15 Zr2 2.075895 1_555
O16 P4 1.534086 1_545
O16 Zr1 2.075890 1_555
O17 P5 1.534090 1_555
O17 Zr3 2.075895 1_555
O18 P6 1.534081 1_455
O18 Zr0 2.075887 1_555
O19 P7 1.534086 1_655
O19 Zr2 2.075890 1_555
O20 P8 1.534081 1_655
O20 Zr1 2.075887 1_555
O21 P9 1.534086 1_455
O21 Zr3 2.075890 1_555
O22 P10 1.534081 1_545
O22 Zr2 2.075887 1_555
O23 P11 1.534081 1_565
O23 Zr3 2.075887 1_555
O24 P0 1.593862 1_555
O24 Zr4 2.246856 1_555
O24 Tm0 2.344558 1_555
O25 P1 1.593862 1_555
O25 Zr5 2.246856 1_665
O25 Tm0 2.344558 1_665
O26 P2 1.593856 1_555
O26 Zr4 2.246856 1_655
O26 Tm0 2.344558 1_655
O27 P3 1.593862 1_555
O27 Zr6 2.246856 1_555
O27 Tm1 2.344558 1_556
O28 P4 1.593856 1_555
O28 Zr5 2.246856 1_565
O28 Tm0 2.344558 1_565
O29 P5 1.593862 1_555
O29 Zr7 2.246856 1_665
O29 Tm1 2.344558 1_665
O30 P6 1.593865 1_555
O30 Zr4 2.246856 1_665
O30 Tm0 2.344558 1_665
O31 P7 1.593856 1_555
O31 Zr6 2.246856 1_565
O31 Tm1 2.344558 1_566
O32 P8 1.593865 1_555
O32 Zr5 2.246856 1_555
O32 Tm0 2.344558 1_555
O33 P9 1.593856 1_555
O33 Zr7 2.246856 1_655
O33 Tm1 2.344558 1_655
O34 P10 1.593865 1_555
O34 Zr6 2.246856 1_665
O34 Tm1 2.344558 1_666
O35 P11 1.593865 1_555
O35 Zr7 2.246856 1_555
O35 Tm1 2.344558 1_555
O36 P14 1.560574 1_555
O36 Zr4 2.018692 1_555
O37 P15 1.560574 1_655
O37 Zr5 2.018692 1_665
O38 P16 1.560571 1_555
O38 Zr4 2.018695 1_665
O39 P12 1.560574 1_555
O39 Zr6 2.018692 1_555
O40 P17 1.560571 1_555
O40 Zr5 2.018695 1_555
O41 P13 1.560574 1_565
O41 Zr7 2.018692 1_665
O42 P12 1.560569 1_565
O42 Zr4 2.018699 1_565
O43 P16 1.560571 1_555
O43 Zr6 2.018695 1_665
O44 P13 1.560569 1_555
O44 Zr5 2.018699 1_655
O45 P17 1.560571 1_555
O45 Zr7 2.018695 1_555
O46 P14 1.560569 1_655
O46 Zr6 2.018699 1_655
O47 P15 1.560569 1_555
O47 Zr7 2.018699 1_565
O48 P0 1.532270 1_555
O48 Zr10 2.121891 1_555
O49 P1 1.532270 1_555
O49 Zr11 2.121891 1_555
O50 P2 1.532275 1_555
O50 Zr10 2.121884 1_555
O51 P3 1.532270 1_555
O51 Zr8 2.121891 1_555
O52 P4 1.532275 1_555
O52 Zr11 2.121884 1_555
O53 P5 1.532270 1_555
O53 Zr9 2.121891 1_555
O54 P6 1.532272 1_555
O54 Zr10 2.121888 1_555
O55 P7 1.532275 1_555
O55 Zr8 2.121884 1_555
O56 P8 1.532272 1_555
O56 Zr11 2.121888 1_555
O57 P9 1.532275 1_555
O57 Zr9 2.121884 1_555
O58 P10 1.532272 1_555
O58 Zr8 2.121888 1_555
O59 P11 1.532272 1_555
O59 Zr9 2.121888 1_555
O60 P12 1.523528 1_555
O60 Zr10 2.070977 1_555
O61 P13 1.523528 1_565
O61 Zr11 2.070977 1_555
O62 P14 1.523528 1_655
O62 Zr10 2.070973 1_555
O63 P14 1.523528 1_555
O63 Zr8 2.070977 1_555
O64 P15 1.523528 1_555
O64 Zr11 2.070973 1_555
O65 P15 1.523528 1_655
O65 Zr9 2.070977 1_555
O66 P16 1.523528 1_555
O66 Zr10 2.070980 1_555
O67 P12 1.523528 1_565
O67 Zr8 2.070973 1_555
O68 P17 1.523528 1_555
O68 Zr11 2.070980 1_555
O69 P13 1.523528 1_555
O69 Zr9 2.070973 1_555
O70 P16 1.523528 1_555
O70 Zr8 2.070980 1_555
O71 P17 1.523528 1_555
O71 Zr9 2.070980 1_555
