# generated using pymatgen
data_KSrPrNbO6
_symmetry_space_group_name_H-M   'P 1'
_cell_length_a   8.70142578
_cell_length_b   8.66260951
_cell_length_c   8.66688401
_cell_angle_alpha   90.00000000
_cell_angle_beta   90.00000000
_cell_angle_gamma   90.00000000
_symmetry_Int_Tables_number   1
_chemical_formula_structural   KSrPrNbO6
_chemical_formula_sum   'K4 Sr4 Pr4 Nb4 O24'
_cell_volume   653.28418154
_cell_formula_units_Z   4
loop_
 _symmetry_equiv_pos_site_id
 _symmetry_equiv_pos_as_xyz
  1  'x, y, z'
loop_
 _atom_site_type_symbol
 _atom_site_label
 _atom_site_symmetry_multiplicity
 _atom_site_fract_x
 _atom_site_fract_y
 _atom_site_fract_z
 _atom_site_occupancy
  K  K0  1  0.00000000  0.50000000  0.50000000  1
  K  K1  1  0.50000000  0.50000000  0.00000000  1
  K  K2  1  0.50000000  0.00000000  0.00000000  1
  K  K3  1  0.00000000  0.00000000  0.50000000  1
  Sr  Sr0  1  0.50000000  0.00000000  0.50000000  1
  Sr  Sr1  1  0.00000000  0.50000000  0.00000000  1
  Sr  Sr2  1  0.00000000  0.00000000  0.00000000  1
  Sr  Sr3  1  0.50000000  0.50000000  0.50000000  1
  Pr  Pr0  1  0.25000000  0.25000000  0.25000000  1
  Pr  Pr1  1  0.75000000  0.75000000  0.25000000  1
  Pr  Pr2  1  0.75000000  0.25000000  0.75000000  1
  Pr  Pr3  1  0.25000000  0.75000000  0.75000000  1
  Nb  Nb0  1  0.75000000  0.75000000  0.75000000  1
  Nb  Nb1  1  0.25000000  0.25000000  0.75000000  1
  Nb  Nb2  1  0.25000000  0.75000000  0.25000000  1
  Nb  Nb3  1  0.75000000  0.25000000  0.25000000  1
  O  O0  1  0.98058388  0.22490110  0.26142432  1
  O  O1  1  0.01941612  0.77509890  0.26142432  1
  O  O2  1  0.01941612  0.22490110  0.73857568  1
  O  O3  1  0.98058388  0.77509890  0.73857568  1
  O  O4  1  0.26938965  0.98018300  0.22765163  1
  O  O5  1  0.26938965  0.01981700  0.77234837  1
  O  O6  1  0.73061035  0.01981700  0.22765163  1
  O  O7  1  0.73061035  0.98018300  0.77234837  1
  O  O8  1  0.21215305  0.27205571  0.98124807  1
  O  O9  1  0.78784695  0.27205571  0.01875193  1
  O  O10  1  0.21215305  0.72794429  0.01875193  1
  O  O11  1  0.78784695  0.72794429  0.98124807  1
  O  O12  1  0.51941612  0.27509890  0.23857568  1
  O  O13  1  0.48058388  0.72490110  0.23857568  1
  O  O14  1  0.48058388  0.27509890  0.76142432  1
  O  O15  1  0.51941612  0.72490110  0.76142432  1
  O  O16  1  0.23061035  0.51981700  0.27234837  1
  O  O17  1  0.23061035  0.48018300  0.72765163  1
  O  O18  1  0.76938965  0.48018300  0.27234837  1
  O  O19  1  0.76938965  0.51981700  0.72765163  1
  O  O20  1  0.28784695  0.22794429  0.51875193  1
  O  O21  1  0.71215305  0.22794429  0.48124807  1
  O  O22  1  0.28784695  0.77205571  0.48124807  1
  O  O23  1  0.71215305  0.77205571  0.51875193  1
loop_
_geom_bond_atom_site_label_1
_geom_bond_atom_site_label_2
_geom_bond_distance
_geom_bond_site_symmetry_2
K0 O18 2.819382 1_455
K0 O19 2.819382 1_455
K0 O16 2.819382 1_555
K0 O17 2.819382 1_555
K0 O1 3.159589 1_555
K0 O3 3.159589 1_455
K0 O2 3.159589 1_555
K0 O0 3.159589 1_455
K1 O15 2.845973 1_554
K1 O12 2.845973 1_555
K1 O13 2.845973 1_555
K1 O14 2.845973 1_554
K1 O8 3.193563 1_554
K1 O9 3.193563 1_555
K1 O10 3.193563 1_555
K1 O11 3.193563 1_554
K1 O18 3.331020 1_555
K1 O16 3.331020 1_555
K1 O19 3.331020 1_554
K1 O17 3.331020 1_554
K2 O7 2.819382 1_544
K2 O6 2.819382 1_555
K2 O4 2.819382 1_545
K2 O5 2.819382 1_554
K2 O14 3.159589 1_554
K2 O15 3.159589 1_544
K2 O13 3.159589 1_545
K2 O12 3.159589 1_555
K3 O3 2.845973 1_445
K3 O1 2.845973 1_545
K3 O0 2.845973 1_455
K3 O2 2.845973 1_555
K3 O20 3.193563 1_555
K3 O23 3.193563 1_445
K3 O22 3.193563 1_545
K3 O21 3.193563 1_455
K3 O5 3.331020 1_555
K3 O4 3.331020 1_545
K3 O6 3.331020 1_455
K3 O7 3.331020 1_445
Nb0 O7 2.010463 1_555
Nb0 O19 2.010463 1_555
Nb0 O15 2.020582 1_555
Nb0 O3 2.020582 1_555
Nb0 O23 2.040043 1_555
Nb0 O11 2.040043 1_555
Nb1 O17 2.010463 1_555
Nb1 O5 2.010463 1_555
Nb1 O2 2.020582 1_555
Nb1 O14 2.020582 1_555
Nb1 O8 2.040043 1_555
Nb1 O20 2.040043 1_555
Nb2 O4 2.010463 1_555
Nb2 O16 2.010463 1_555
Nb2 O1 2.020582 1_555
Nb2 O13 2.020582 1_555
Nb2 O22 2.040043 1_555
Nb2 O10 2.040043 1_555
Nb3 O18 2.010463 1_555
Nb3 O6 2.010463 1_555
Nb3 O0 2.020582 1_555
Nb3 O12 2.020582 1_555
Nb3 O21 2.040043 1_555
Nb3 O9 2.040043 1_555
O0 Pr0 2.356446 1_655
O0 Sr2 2.992941 1_655
O1 Pr1 2.356446 1_455
O1 Sr2 2.992941 1_565
O2 Pr2 2.356446 1_455
O2 Sr2 2.992941 1_556
O3 Pr3 2.356446 1_655
O3 Sr2 2.992941 1_666
O4 Pr0 2.351392 1_565
O4 Sr2 3.068713 1_565
O4 Sr0 3.102839 1_565
O5 Pr3 2.351392 1_545
O5 Sr2 3.068713 1_556
O5 Sr0 3.102839 1_555
O6 Pr1 2.351392 1_545
O6 Sr2 3.068713 1_655
O6 Sr0 3.102839 1_555
O7 Pr2 2.351392 1_565
O7 Sr2 3.068713 1_666
O7 Sr0 3.102839 1_565
O8 Pr0 2.360154 1_556
O8 Sr1 2.708001 1_556
O8 Sr2 2.998057 1_556
O9 Pr2 2.360154 1_554
O9 Sr1 2.708001 1_655
O9 Sr2 2.998057 1_655
O10 Pr3 2.360154 1_554
O10 Sr1 2.708001 1_555
O10 Sr2 2.998057 1_565
O11 Pr1 2.360154 1_556
O11 Sr1 2.708001 1_656
O11 Sr2 2.998057 1_666
O12 Pr0 2.356446 1_555
O12 Sr3 2.992941 1_555
O13 Pr1 2.356446 1_555
O13 Sr3 2.992941 1_555
O14 Pr2 2.356446 1_555
O14 Sr3 2.992941 1_555
O15 Pr3 2.356446 1_555
O15 Sr3 2.992941 1_555
O16 Pr0 2.351392 1_555
O16 Sr3 3.068713 1_555
O16 Sr1 3.102839 1_555
O17 Pr3 2.351392 1_555
O17 Sr3 3.068713 1_555
O17 Sr1 3.102839 1_556
O18 Pr1 2.351392 1_555
O18 Sr3 3.068713 1_555
O18 Sr1 3.102839 1_655
O19 Pr2 2.351392 1_555
O19 Sr3 3.068713 1_555
O19 Sr1 3.102839 1_656
O20 Pr0 2.360154 1_555
O20 Sr0 2.708001 1_555
O20 Sr3 2.998057 1_555
O21 Pr2 2.360154 1_555
O21 Sr0 2.708001 1_555
O21 Sr3 2.998057 1_555
O22 Pr3 2.360154 1_555
O22 Sr0 2.708001 1_565
O22 Sr3 2.998057 1_555
O23 Pr1 2.360154 1_555
O23 Sr0 2.708001 1_565
O23 Sr3 2.998057 1_555
