# generated using pymatgen
data_NaMgH2C3O7
_symmetry_space_group_name_H-M   'P 1'
_cell_length_a   5.91424200
_cell_length_b   15.83023500
_cell_length_c   7.32904772
_cell_angle_alpha   90.00000000
_cell_angle_beta   102.59363790
_cell_angle_gamma   90.00000000
_symmetry_Int_Tables_number   1
_chemical_formula_structural   NaMgH2C3O7
_chemical_formula_sum   'Na4 Mg4 H8 C12 O28'
_cell_volume   669.66493065
_cell_formula_units_Z   4
loop_
 _symmetry_equiv_pos_site_id
 _symmetry_equiv_pos_as_xyz
  1  'x, y, z'
loop_
 _atom_site_type_symbol
 _atom_site_label
 _atom_site_symmetry_multiplicity
 _atom_site_fract_x
 _atom_site_fract_y
 _atom_site_fract_z
 _atom_site_occupancy
  Na  Na0  1  0.46886100  0.17911900  0.29670300  1
  Na  Na1  1  0.53113900  0.67911900  0.20329700  1
  Na  Na2  1  0.53113900  0.82088100  0.70329700  1
  Na  Na3  1  0.46886100  0.32088100  0.79670300  1
  Mg  Mg0  1  0.27700700  0.39840400  0.21753100  1
  Mg  Mg1  1  0.72299300  0.89840400  0.28246900  1
  Mg  Mg2  1  0.72299300  0.60159600  0.78246900  1
  Mg  Mg3  1  0.27700700  0.10159600  0.71753100  1
  H  H0  1  0.17428600  0.46972800  0.87654300  1
  H  H1  1  0.82571400  0.96972800  0.62345700  1
  H  H2  1  0.82571400  0.53027200  0.12345700  1
  H  H3  1  0.17428600  0.03027200  0.37654300  1
  H  H4  1  0.05051200  0.37829700  0.86457800  1
  H  H5  1  0.94948800  0.87829700  0.63542200  1
  H  H6  1  0.94948800  0.62170300  0.13542200  1
  H  H7  1  0.05051200  0.12170300  0.36457800  1
  C  C0  1  0.49668600  0.53572000  0.42755000  1
  C  C1  1  0.50331400  0.03572000  0.07245000  1
  C  C2  1  0.50331400  0.46428000  0.57245000  1
  C  C3  1  0.49668600  0.96428000  0.92755000  1
  C  C4  1  0.80409300  0.35141600  0.21558400  1
  C  C5  1  0.19590700  0.85141600  0.28441600  1
  C  C6  1  0.19590700  0.64858400  0.78441600  1
  C  C7  1  0.80409300  0.14858400  0.71558400  1
  C  C8  1  0.95234200  0.26885100  0.24932600  1
  C  C9  1  0.04765800  0.76885100  0.25067400  1
  C  C10  1  0.04765800  0.73114900  0.75067400  1
  C  C11  1  0.95234200  0.23114900  0.74932600  1
  O  O0  1  0.39113300  0.52139200  0.26036800  1
  O  O1  1  0.60886700  0.02139200  0.23963200  1
  O  O2  1  0.60886700  0.47860800  0.73963200  1
  O  O3  1  0.39113300  0.97860800  0.76036800  1
  O  O4  1  0.59907200  0.60385700  0.48778200  1
  O  O5  1  0.40092800  0.10385700  0.01221800  1
  O  O6  1  0.40092800  0.39614300  0.51221800  1
  O  O7  1  0.59907200  0.89614300  0.98778200  1
  O  O8  1  0.58649200  0.34233900  0.18714100  1
  O  O9  1  0.41350800  0.84233900  0.31285900  1
  O  O10  1  0.41350800  0.65766100  0.81285900  1
  O  O11  1  0.58649200  0.15766100  0.68714100  1
  O  O12  1  0.91637300  0.41996100  0.21837300  1
  O  O13  1  0.08362700  0.91996100  0.28162700  1
  O  O14  1  0.08362700  0.58003900  0.78162700  1
  O  O15  1  0.91637300  0.08003900  0.71837300  1
  O  O16  1  0.16304700  0.27657500  0.23734600  1
  O  O17  1  0.83695300  0.77657500  0.26265400  1
  O  O18  1  0.83695300  0.72342500  0.76265400  1
  O  O19  1  0.16304700  0.22342500  0.73734600  1
  O  O20  1  0.85729500  0.20180900  0.28669300  1
  O  O21  1  0.14270500  0.70180900  0.21330700  1
  O  O22  1  0.14270500  0.79819100  0.71330700  1
  O  O23  1  0.85729500  0.29819100  0.78669300  1
  O  O24  1  0.19073700  0.41159300  0.92717400  1
  O  O25  1  0.80926300  0.91159300  0.57282600  1
  O  O26  1  0.80926300  0.58840700  0.07282600  1
  O  O27  1  0.19073700  0.08840700  0.42717400  1
loop_
_geom_bond_atom_site_label_1
_geom_bond_atom_site_label_2
_geom_bond_distance
_geom_bond_site_symmetry_2
Na0 O20 2.342103 1_555
Na0 O16 2.344668 1_555
Na0 O5 2.358567 1_555
Na0 O27 2.523491 1_555
Na0 O1 2.691822 1_555
Na0 O11 2.814191 1_555
Na0 O8 2.836982 1_555
Na1 O21 2.342103 1_555
Na1 O17 2.344668 1_555
Na1 O4 2.358567 1_555
Na1 O26 2.523491 1_555
Na1 O0 2.691822 1_555
Na1 O10 2.814191 1_554
Na1 O9 2.836982 1_555
Na2 O22 2.342103 1_555
Na2 O18 2.344668 1_555
Na2 O7 2.358567 1_555
Na2 O25 2.523491 1_555
Na2 O3 2.691822 1_555
Na2 O9 2.814191 1_555
Na2 O10 2.836982 1_555
Na3 O23 2.342103 1_555
Na3 O19 2.344668 1_555
Na3 O6 2.358567 1_555
Na3 O24 2.523491 1_555
Na3 O2 2.691822 1_555
Na3 O8 2.814191 1_556
Na3 O11 2.836982 1_555
Mg0 O16 2.058509 1_555
Mg0 O0 2.062105 1_555
Mg0 O24 2.087822 1_554
Mg0 O8 2.089338 1_555
Mg0 O6 2.124334 1_555
Mg0 O12 2.161341 1_455
Mg1 O17 2.058509 1_555
Mg1 O1 2.062105 1_565
Mg1 O25 2.087822 1_555
Mg1 O9 2.089338 1_555
Mg1 O7 2.124334 1_554
Mg1 O13 2.161341 1_655
Mg2 O18 2.058509 1_555
Mg2 O2 2.062105 1_555
Mg2 O26 2.087822 1_556
Mg2 O10 2.089338 1_555
Mg2 O4 2.124334 1_555
Mg2 O14 2.161341 1_655
Mg3 O19 2.058509 1_555
Mg3 O3 2.062105 1_545
Mg3 O27 2.087822 1_555
Mg3 O11 2.089338 1_555
Mg3 O5 2.124334 1_556
Mg3 O15 2.161341 1_455
H0 O24 0.989119 1_555
H1 O25 0.989119 1_555
H2 O26 0.989119 1_555
H3 O27 0.989119 1_555
H4 O24 1.005064 1_555
H4 O23 1.719098 1_455
H5 O25 1.005064 1_555
H5 O22 1.719098 1_655
H6 O26 1.005064 1_555
H6 O21 1.719098 1_655
H7 O27 1.005064 1_555
H7 O20 1.719098 1_455
C0 O4 1.268231 1_555
C0 O0 1.268434 1_555
C1 O5 1.268231 1_555
C1 O1 1.268434 1_555
C2 O6 1.268231 1_555
C2 O2 1.268434 1_555
C3 O7 1.268231 1_555
C3 O3 1.268434 1_555
C4 O8 1.266232 1_555
C4 O12 1.269988 1_555
C5 O9 1.266232 1_555
C5 O13 1.269988 1_555
C6 O10 1.266232 1_555
C6 O14 1.269988 1_555
C7 O11 1.266232 1_555
C7 O15 1.269988 1_555
C8 O20 1.258754 1_555
C8 O16 1.274083 1_655
C9 O21 1.258754 1_555
C9 O17 1.274083 1_455
C10 O22 1.258754 1_555
C10 O18 1.274083 1_455
C11 O23 1.258754 1_555
C11 O19 1.274083 1_655
