# generated using pymatgen
data_MnV(Ni2Sn)2
_symmetry_space_group_name_H-M   'P 1'
_cell_length_a   7.42386558
_cell_length_b   7.42386558
_cell_length_c   7.42386555
_cell_angle_alpha   33.61166087
_cell_angle_beta   33.61166087
_cell_angle_gamma   33.61165429
_symmetry_Int_Tables_number   1
_chemical_formula_structural   MnV(Ni2Sn)2
_chemical_formula_sum   'Mn1 V1 Ni4 Sn2'
_cell_volume   111.68711642
_cell_formula_units_Z   1
loop_
 _symmetry_equiv_pos_site_id
 _symmetry_equiv_pos_as_xyz
  1  'x, y, z'
loop_
 _atom_site_type_symbol
 _atom_site_label
 _atom_site_symmetry_multiplicity
 _atom_site_fract_x
 _atom_site_fract_y
 _atom_site_fract_z
 _atom_site_occupancy
  Mn  Mn0  1  0.00000000  0.00000000  0.00000000  1
  V  V0  1  0.50000000  0.50000000  0.50000000  1
  Ni  Ni0  1  0.62472300  0.62472300  0.62472300  1
  Ni  Ni1  1  0.12524700  0.12524700  0.12524700  1
  Ni  Ni2  1  0.87475300  0.87475300  0.87475300  1
  Ni  Ni3  1  0.37527700  0.37527700  0.37527700  1
  Sn  Sn0  1  0.24986600  0.24986600  0.24986600  1
  Sn  Sn1  1  0.75013400  0.75013400  0.75013400  1
loop_
_geom_bond_atom_site_label_1
_geom_bond_atom_site_label_2
_geom_bond_distance
_geom_bond_site_symmetry_2
Mn0 Ni2 2.629402 1_444
Mn0 Ni1 2.629402 1_555
Mn0 Ni0 2.630287 1_544
Mn0 Ni3 2.630287 1_545
Mn0 Ni3 2.630287 1_455
Mn0 Ni0 2.630287 1_454
Mn0 Ni0 2.630287 1_445
Mn0 Ni3 2.630287 1_554
Mn0 Sn1 3.035384 1_454
Mn0 Sn0 3.035384 1_455
Mn0 Sn0 3.035384 1_545
Mn0 Sn1 3.035384 1_544
Mn0 Sn1 3.035384 1_445
Mn0 Sn0 3.035384 1_554
Ni0 V0 2.618401 1_555
Ni0 Sn0 2.627348 1_565
Ni0 Sn0 2.627348 1_655
Ni0 Sn0 2.627348 1_556
Ni0 Sn1 2.632845 1_555
Ni1 Sn0 2.616218 1_555
Ni1 V0 2.626624 1_545
Ni1 V0 2.626624 1_455
Ni1 V0 2.626625 1_554
Ni1 Sn1 2.629136 1_454
Ni1 Sn1 2.629136 1_544
Ni1 Sn1 2.629136 1_445
Ni2 Sn1 2.616218 1_555
Ni2 V0 2.626624 1_655
Ni2 V0 2.626624 1_565
Ni2 V0 2.626625 1_556
Ni2 Sn0 2.629136 1_656
Ni2 Sn0 2.629136 1_566
Ni2 Sn0 2.629136 1_665
Ni3 V0 2.618401 1_555
Ni3 Sn1 2.627348 1_455
Ni3 Sn1 2.627348 1_545
Ni3 Sn1 2.627348 1_554
Ni3 Sn0 2.632845 1_555
Sn0 V0 3.032139 1_455
Sn0 V0 3.032139 1_545
Sn0 V0 3.032140 1_554
Sn1 V0 3.032139 1_565
Sn1 V0 3.032139 1_655
Sn1 V0 3.032140 1_556
