# generated using pymatgen
data_Gd2Sc3Si4
_symmetry_space_group_name_H-M   'P 1'
_cell_length_a   6.94474100
_cell_length_b   7.27162900
_cell_length_c   13.81985100
_cell_angle_alpha   90.00000000
_cell_angle_beta   90.00000000
_cell_angle_gamma   90.00000000
_symmetry_Int_Tables_number   1
_chemical_formula_structural   Gd2Sc3Si4
_chemical_formula_sum   'Gd8 Sc12 Si16'
_cell_volume   697.89667190
_cell_formula_units_Z   4
loop_
 _symmetry_equiv_pos_site_id
 _symmetry_equiv_pos_as_xyz
  1  'x, y, z'
loop_
 _atom_site_type_symbol
 _atom_site_label
 _atom_site_symmetry_multiplicity
 _atom_site_fract_x
 _atom_site_fract_y
 _atom_site_fract_z
 _atom_site_occupancy
  Gd  Gd0  1  0.00959400  0.17375000  0.09674300  1
  Gd  Gd1  1  0.99040600  0.82625000  0.90325700  1
  Gd  Gd2  1  0.49040600  0.67375000  0.90325700  1
  Gd  Gd3  1  0.99040600  0.82625000  0.59674300  1
  Gd  Gd4  1  0.50959400  0.32625000  0.09674300  1
  Gd  Gd5  1  0.00959400  0.17375000  0.40325700  1
  Gd  Gd6  1  0.50959400  0.32625000  0.40325700  1
  Gd  Gd7  1  0.49040600  0.67375000  0.59674300  1
  Sc  Sc0  1  0.16162100  0.50496700  0.75000000  1
  Sc  Sc1  1  0.83837900  0.49503300  0.25000000  1
  Sc  Sc2  1  0.33837900  0.00496700  0.25000000  1
  Sc  Sc3  1  0.66162100  0.99503300  0.75000000  1
  Sc  Sc4  1  0.32773500  0.17533100  0.62371200  1
  Sc  Sc5  1  0.67226500  0.82466900  0.37628800  1
  Sc  Sc6  1  0.17226500  0.67533100  0.37628800  1
  Sc  Sc7  1  0.67226500  0.82466900  0.12371200  1
  Sc  Sc8  1  0.82773500  0.32466900  0.62371200  1
  Sc  Sc9  1  0.32773500  0.17533100  0.87628800  1
  Sc  Sc10  1  0.82773500  0.32466900  0.87628800  1
  Sc  Sc11  1  0.17226500  0.67533100  0.12371200  1
  Si  Si0  1  0.03347200  0.12012500  0.75000000  1
  Si  Si1  1  0.96652800  0.87987500  0.25000000  1
  Si  Si2  1  0.46652800  0.62012500  0.25000000  1
  Si  Si3  1  0.53347200  0.37987500  0.75000000  1
  Si  Si4  1  0.28556600  0.87759900  0.75000000  1
  Si  Si5  1  0.71443400  0.12240100  0.25000000  1
  Si  Si6  1  0.21443400  0.37759900  0.25000000  1
  Si  Si7  1  0.78556600  0.62240100  0.75000000  1
  Si  Si8  1  0.15475100  0.46385300  0.53872100  1
  Si  Si9  1  0.84524900  0.53614700  0.46127900  1
  Si  Si10  1  0.34524900  0.96385300  0.46127900  1
  Si  Si11  1  0.84524900  0.53614700  0.03872100  1
  Si  Si12  1  0.65475100  0.03614700  0.53872100  1
  Si  Si13  1  0.15475100  0.46385300  0.96127900  1
  Si  Si14  1  0.65475100  0.03614700  0.96127900  1
  Si  Si15  1  0.34524900  0.96385300  0.03872100  1
loop_
_geom_bond_atom_site_label_1
_geom_bond_atom_site_label_2
_geom_bond_distance
_geom_bond_site_symmetry_2
Gd0 Si15 2.899358 1_545
Gd0 Si6 2.950731 1_555
Gd0 Si5 2.971030 1_455
Gd0 Si11 2.981607 1_455
Gd0 Si13 2.995168 1_554
Gd0 Si1 3.023555 1_445
Gd0 Si14 3.252486 1_454
Gd1 Si14 2.899358 1_565
Gd1 Si7 2.950731 1_555
Gd1 Si4 2.971030 1_655
Gd1 Si13 2.981607 1_655
Gd1 Si11 2.995168 1_556
Gd1 Si0 3.023555 1_665
Gd1 Si15 3.252486 1_656
Gd2 Si13 2.899358 1_555
Gd2 Si4 2.950731 1_555
Gd2 Si7 2.971030 1_555
Gd2 Si14 2.981607 1_565
Gd2 Si15 2.995168 1_556
Gd2 Si3 3.023555 1_555
Gd2 Si11 3.252486 1_556
Gd3 Si12 2.899358 1_565
Gd3 Si7 2.950731 1_555
Gd3 Si4 2.971030 1_655
Gd3 Si8 2.981607 1_655
Gd3 Si9 2.995168 1_555
Gd3 Si0 3.023555 1_665
Gd3 Si10 3.252486 1_655
Gd4 Si11 2.899358 1_555
Gd4 Si5 2.950731 1_555
Gd4 Si6 2.971030 1_555
Gd4 Si15 2.981607 1_545
Gd4 Si14 2.995168 1_554
Gd4 Si2 3.023555 1_555
Gd4 Si13 3.252486 1_554
Gd5 Si10 2.899358 1_545
Gd5 Si6 2.950731 1_555
Gd5 Si5 2.971030 1_455
Gd5 Si9 2.981607 1_455
Gd5 Si8 2.995168 1_555
Gd5 Si1 3.023555 1_445
Gd5 Si12 3.252486 1_455
Gd6 Si9 2.899358 1_555
Gd6 Si5 2.950731 1_555
Gd6 Si6 2.971030 1_555
Gd6 Si10 2.981607 1_545
Gd6 Si12 2.995168 1_555
Gd6 Si2 3.023555 1_555
Gd6 Si8 3.252486 1_555
Gd7 Si8 2.899358 1_555
Gd7 Si4 2.950731 1_555
Gd7 Si7 2.971030 1_555
Gd7 Si12 2.981607 1_565
Gd7 Si10 2.995168 1_555
Gd7 Si3 3.023555 1_555
Gd7 Si9 3.252486 1_555
Sc0 Si3 2.737928 1_555
Sc0 Si7 2.747669 1_455
Sc0 Si4 2.843075 1_555
Sc0 Si13 2.935498 1_555
Sc0 Si8 2.935498 1_555
Sc0 Si0 2.936534 1_555
Sc1 Si2 2.737928 1_555
Sc1 Si6 2.747669 1_655
Sc1 Si5 2.843075 1_555
Sc1 Si11 2.935498 1_555
Sc1 Si9 2.935498 1_555
Sc1 Si1 2.936534 1_555
Sc2 Si1 2.737928 1_445
Sc2 Si5 2.747669 1_555
Sc2 Si6 2.843075 1_555
Sc2 Si15 2.935498 1_545
Sc2 Si10 2.935498 1_545
Sc2 Si2 2.936534 1_545
Sc3 Si0 2.737928 1_665
Sc3 Si4 2.747669 1_555
Sc3 Si7 2.843075 1_555
Sc3 Si12 2.935498 1_565
Sc3 Si14 2.935498 1_565
Sc3 Si3 2.936534 1_565
Sc4 Si8 2.687843 1_555
Sc4 Si3 2.701798 1_555
Sc4 Si0 2.717237 1_555
Sc4 Si10 2.723732 1_545
Sc4 Si12 2.749830 1_555
Sc4 Si4 2.796244 1_545
Sc5 Si9 2.687843 1_555
Sc5 Si2 2.701798 1_555
Sc5 Si1 2.717237 1_555
Sc5 Si12 2.723732 1_565
Sc5 Si10 2.749830 1_555
Sc5 Si5 2.796244 1_565
Sc6 Si10 2.687843 1_555
Sc6 Si1 2.701798 1_455
Sc6 Si2 2.717237 1_555
Sc6 Si8 2.723732 1_555
Sc6 Si9 2.749830 1_455
Sc6 Si6 2.796244 1_555
Sc7 Si11 2.687843 1_555
Sc7 Si2 2.701798 1_555
Sc7 Si1 2.717237 1_555
Sc7 Si14 2.723732 1_564
Sc7 Si15 2.749830 1_555
Sc7 Si5 2.796244 1_565
Sc8 Si12 2.687843 1_555
Sc8 Si0 2.701798 1_655
Sc8 Si3 2.717237 1_555
Sc8 Si9 2.723732 1_555
Sc8 Si8 2.749830 1_655
Sc8 Si7 2.796244 1_555
Sc9 Si13 2.687843 1_555
Sc9 Si3 2.701798 1_555
Sc9 Si0 2.717237 1_555
Sc9 Si15 2.723732 1_546
Sc9 Si14 2.749830 1_555
Sc9 Si4 2.796244 1_545
Sc10 Si14 2.687843 1_555
Sc10 Si0 2.701798 1_655
Sc10 Si3 2.717237 1_555
Sc10 Si11 2.723732 1_556
Sc10 Si13 2.749830 1_655
Sc10 Si7 2.796244 1_555
Sc11 Si15 2.687843 1_555
Sc11 Si1 2.701798 1_455
Sc11 Si2 2.717237 1_555
Sc11 Si13 2.723732 1_554
Sc11 Si11 2.749830 1_455
Sc11 Si6 2.796244 1_555
Si0 Si4 2.484992 1_545
Si1 Si5 2.484992 1_565
Si2 Si6 2.484992 1_555
Si3 Si7 2.484992 1_555
Si8 Si9 2.457993 1_455
Si10 Si12 2.457993 1_565
Si11 Si13 2.457993 1_654
Si14 Si15 2.457993 1_546
