# generated using pymatgen
data_Nd3Co6Sn5
_symmetry_space_group_name_H-M   'P 1'
_cell_length_a   8.25966009
_cell_length_b   8.25966009
_cell_length_c   8.25966009
_cell_angle_alpha   149.40530312
_cell_angle_beta   106.89264781
_cell_angle_gamma   81.29375555
_symmetry_Int_Tables_number   1
_chemical_formula_structural   Nd3Co6Sn5
_chemical_formula_sum   'Nd3 Co6 Sn5'
_cell_volume   268.71824744
_cell_formula_units_Z   1
loop_
 _symmetry_equiv_pos_site_id
 _symmetry_equiv_pos_as_xyz
  1  'x, y, z'
loop_
 _atom_site_type_symbol
 _atom_site_label
 _atom_site_symmetry_multiplicity
 _atom_site_fract_x
 _atom_site_fract_y
 _atom_site_fract_z
 _atom_site_occupancy
  Nd  Nd0  1  0.00000000  0.00000000  0.00000000  1
  Nd  Nd1  1  0.31667300  0.31667300  0.00000000  1
  Nd  Nd2  1  0.68332700  0.68332700  0.00000000  1
  Co  Co0  1  0.70016400  0.50000000  0.20016400  1
  Co  Co1  1  0.29983600  0.50000000  0.79983600  1
  Co  Co2  1  0.38120200  0.10665400  0.27454700  1
  Co  Co3  1  0.61879800  0.89334600  0.72545300  1
  Co  Co4  1  0.83210700  0.10665400  0.72545300  1
  Co  Co5  1  0.16789300  0.89334600  0.27454700  1
  Sn  Sn0  1  0.66243200  0.32429300  0.33813900  1
  Sn  Sn1  1  0.33756800  0.67570700  0.66186100  1
  Sn  Sn2  1  0.98615400  0.32429300  0.66186100  1
  Sn  Sn3  1  0.01384600  0.67570700  0.33813900  1
  Sn  Sn4  1  0.50000000  0.00000000  0.50000000  1
loop_
_geom_bond_atom_site_label_1
_geom_bond_atom_site_label_2
_geom_bond_distance
_geom_bond_site_symmetry_2
Nd0 Sn2 3.483481 1_455
Nd0 Sn2 3.483481 1_444
Nd0 Sn0 3.483481 1_455
Nd0 Sn0 3.483481 1_444
Nd0 Sn1 3.483481 1_555
Nd0 Sn1 3.483481 1_544
Nd0 Sn3 3.483481 1_544
Nd0 Sn3 3.483481 1_555
Nd1 Sn4 3.166776 1_554
Nd1 Sn4 3.166776 1_565
Nd1 Sn1 3.225884 1_555
Nd1 Sn1 3.225884 1_544
Nd1 Sn3 3.225884 1_555
Nd1 Sn3 3.225884 1_544
Nd1 Sn0 3.328153 1_555
Nd1 Sn2 3.328153 1_454
Nd2 Sn4 3.166776 1_554
Nd2 Sn4 3.166776 1_565
Nd2 Sn2 3.225884 1_565
Nd2 Sn2 3.225884 1_554
Nd2 Sn0 3.225884 1_565
Nd2 Sn0 3.225884 1_554
Nd2 Sn3 3.328153 1_655
Nd2 Sn1 3.328153 1_554
Co0 Co4 2.568564 1_554
Co0 Co4 2.568564 1_565
Co0 Co3 2.568564 1_544
Co0 Co3 2.568568 1_555
Co0 Sn3 2.587040 1_655
Co0 Sn0 2.587040 1_555
Co0 Sn4 2.937145 1_554
Co0 Sn4 2.937145 1_565
Co0 Nd2 3.026227 1_555
Co0 Nd1 3.026227 1_555
Co1 Co5 2.568564 1_545
Co1 Co5 2.568564 1_556
Co1 Co2 2.568564 1_566
Co1 Co2 2.568568 1_555
Co1 Sn2 2.587040 1_455
Co1 Sn1 2.587040 1_555
Co1 Sn4 2.937145 1_566
Co1 Sn4 2.937145 1_555
Co1 Nd2 3.026227 1_556
Co1 Nd1 3.026227 1_556
Co2 Sn4 2.589797 1_555
Co2 Sn1 2.593614 1_544
Co2 Sn1 2.593617 1_555
Co2 Co5 2.673576 1_545
Co2 Sn0 2.798675 1_555
Co2 Nd0 3.013826 1_555
Co2 Nd2 3.254561 1_545
Co2 Nd2 3.254564 1_556
Co3 Sn4 2.589797 1_565
Co3 Sn0 2.593614 1_566
Co3 Sn0 2.593617 1_555
Co3 Co4 2.673576 1_565
Co3 Sn1 2.798675 1_555
Co3 Nd0 3.013826 1_666
Co3 Nd1 3.254561 1_566
Co3 Nd1 3.254564 1_555
Co4 Sn4 2.589797 1_555
Co4 Sn3 2.593615 1_656
Co4 Sn3 2.593615 1_645
Co4 Sn2 2.798683 1_555
Co4 Nd0 3.013819 1_656
Co4 Nd2 3.254568 1_556
Co4 Nd2 3.254568 1_545
Co5 Sn4 2.589797 1_565
Co5 Sn2 2.593615 1_465
Co5 Sn2 2.593615 1_454
Co5 Sn3 2.798683 1_555
Co5 Nd0 3.013819 1_565
Co5 Nd1 3.254568 1_555
Co5 Nd1 3.254568 1_566
Sn0 Sn2 3.184940 1_555
Sn0 Sn1 3.350346 1_544
Sn0 Sn1 3.350346 1_555
Sn1 Sn3 3.184940 1_555
Sn2 Sn3 3.350346 1_645
Sn2 Sn3 3.350346 1_656
