# generated using pymatgen
data_Na2FeO3
_symmetry_space_group_name_H-M   'P 1'
_cell_length_a   5.36803014
_cell_length_b   8.49229791
_cell_length_c   6.48106264
_cell_angle_alpha   75.68573401
_cell_angle_beta   74.13504616
_cell_angle_gamma   77.88789201
_symmetry_Int_Tables_number   1
_chemical_formula_structural   Na2FeO3
_chemical_formula_sum   'Na8 Fe4 O12'
_cell_volume   272.14886986
_cell_formula_units_Z   4
loop_
 _symmetry_equiv_pos_site_id
 _symmetry_equiv_pos_as_xyz
  1  'x, y, z'
loop_
 _atom_site_type_symbol
 _atom_site_label
 _atom_site_symmetry_multiplicity
 _atom_site_fract_x
 _atom_site_fract_y
 _atom_site_fract_z
 _atom_site_occupancy
  Na  Na0  1  0.50487900  0.49832400  0.99951700  1
  Na  Na1  1  0.99510000  0.00166800  0.50048300  1
  Na  Na2  1  0.99975300  0.99957500  0.00005600  1
  Na  Na3  1  0.50024900  0.50043300  0.49994500  1
  Na  Na4  1  0.98922900  0.33017600  0.17025800  1
  Na  Na5  1  0.48333900  0.83123400  0.67123500  1
  Na  Na6  1  0.01658000  0.66881100  0.82877900  1
  Na  Na7  1  0.51085000  0.16979000  0.32971000  1
  Fe  Fe0  1  0.50019700  0.83295800  0.16641900  1
  Fe  Fe1  1  0.99982500  0.66706800  0.33360200  1
  Fe  Fe2  1  0.00071500  0.33368800  0.66666100  1
  Fe  Fe3  1  0.49924400  0.16631500  0.83332600  1
  O  O0  1  0.26518400  0.74443100  0.04815600  1
  O  O1  1  0.74136500  0.24225500  0.55441500  1
  O  O2  1  0.75863400  0.25775800  0.94555200  1
  O  O3  1  0.23479300  0.75553600  0.45187000  1
  O  O4  1  0.26015200  0.37353600  0.82860300  1
  O  O5  1  0.73576500  0.87956600  0.32495300  1
  O  O6  1  0.81487500  0.55688300  0.64497500  1
  O  O7  1  0.31426600  0.07392200  0.12608600  1
  O  O8  1  0.76434300  0.62041100  0.17511700  1
  O  O9  1  0.23982700  0.12644600  0.67133200  1
  O  O10  1  0.18572100  0.42610400  0.37390800  1
  O  O11  1  0.68511600  0.94311300  0.85504000  1
loop_
_geom_bond_atom_site_label_1
_geom_bond_atom_site_label_2
_geom_bond_distance
_geom_bond_site_symmetry_2
Na0 O2 2.253112 1_555
Na0 O0 2.258008 1_556
Na0 O6 2.447041 1_555
Na0 O4 2.456861 1_555
Na0 O8 2.523134 1_556
Na0 O10 2.575122 1_556
Na1 O1 2.253173 1_555
Na1 O3 2.258147 1_645
Na1 O11 2.447075 1_545
Na1 O9 2.456509 1_655
Na1 O5 2.522369 1_545
Na1 O7 2.575211 1_655
Na2 O2 2.298586 1_564
Na2 O9 2.303716 1_664
Na2 O7 2.317873 1_665
Na2 O5 2.322537 1_555
Na2 O11 2.323036 1_554
Na2 O0 2.331408 1_655
Na3 O1 2.298530 1_555
Na3 O4 2.303564 1_555
Na3 O10 2.317894 1_555
Na3 O8 2.322423 1_555
Na3 O6 2.322996 1_555
Na3 O3 2.331190 1_555
Na4 O10 2.274134 1_655
Na4 O4 2.283550 1_654
Na4 O2 2.404025 1_554
Na4 O1 2.492617 1_555
Na4 O8 2.510440 1_555
Na4 O7 2.510704 1_655
Na5 O5 2.270809 1_555
Na5 O11 2.278592 1_555
Na5 O0 2.406250 1_556
Na5 O3 2.462436 1_555
Na5 O9 2.572739 1_565
Na5 O6 2.629636 1_555
Na6 O8 2.270758 1_456
Na6 O6 2.278583 1_455
Na6 O3 2.406169 1_555
Na6 O0 2.462389 1_556
Na6 O4 2.573354 1_555
Na6 O11 2.629137 1_455
Na7 O7 2.274039 1_555
Na7 O9 2.283599 1_555
Na7 O1 2.403909 1_555
Na7 O2 2.492549 1_554
Na7 O5 2.510318 1_545
Na7 O10 2.511347 1_555
Fe0 O5 1.983157 1_555
Fe0 O0 1.988924 1_555
Fe0 O8 2.047228 1_555
Fe0 O3 2.057963 1_555
Fe0 O7 2.067133 1_565
Fe0 O11 2.072193 1_554
Fe1 O8 1.982734 1_555
Fe1 O3 1.988443 1_655
Fe1 O5 2.046687 1_555
Fe1 O0 2.057697 1_655
Fe1 O10 2.067073 1_655
Fe1 O6 2.072295 1_555
Fe2 O6 1.938829 1_455
Fe2 O10 1.939771 1_555
Fe2 O9 1.947513 1_555
Fe2 O2 1.965370 1_455
Fe2 O4 2.080423 1_555
Fe2 O1 2.087353 1_455
Fe3 O11 1.938931 1_545
Fe3 O7 1.939702 1_556
Fe3 O4 1.947317 1_555
Fe3 O1 1.965578 1_555
Fe3 O9 2.080655 1_555
Fe3 O2 2.087504 1_555
