# generated using pymatgen
data_Cs(V3S4)2
_symmetry_space_group_name_H-M   'P 1'
_cell_length_a   3.25949306
_cell_length_b   9.35314081
_cell_length_c   9.35772902
_cell_angle_alpha   119.89995367
_cell_angle_beta   90.01133578
_cell_angle_gamma   90.00714124
_symmetry_Int_Tables_number   1
_chemical_formula_structural   Cs(V3S4)2
_chemical_formula_sum   'Cs1 V6 S8'
_cell_volume   247.31220578
_cell_formula_units_Z   1
loop_
 _symmetry_equiv_pos_site_id
 _symmetry_equiv_pos_as_xyz
  1  'x, y, z'
loop_
 _atom_site_type_symbol
 _atom_site_label
 _atom_site_symmetry_multiplicity
 _atom_site_fract_x
 _atom_site_fract_y
 _atom_site_fract_z
 _atom_site_occupancy
  Cs  Cs0  1  0.50000000  0.00000000  0.00000000  1
  V  V0  1  0.74758200  0.37471100  0.88633800  1
  V  V1  1  0.74768400  0.11330700  0.48809700  1
  V  V2  1  0.74776600  0.51142300  0.62498800  1
  V  V3  1  0.25241800  0.62528900  0.11366200  1
  V  V4  1  0.25231600  0.88669300  0.51190300  1
  V  V5  1  0.25223400  0.48857700  0.37501200  1
  S  S0  1  0.75128200  0.66676900  0.33338500  1
  S  S1  1  0.24871800  0.33323100  0.66661500  1
  S  S2  1  0.75504900  0.05518900  0.69954900  1
  S  S3  1  0.75478900  0.30038200  0.35598500  1
  S  S4  1  0.75500400  0.64424000  0.94453000  1
  S  S5  1  0.24495100  0.94481100  0.30045100  1
  S  S6  1  0.24521100  0.69961800  0.64401500  1
  S  S7  1  0.24499600  0.35576000  0.05547000  1
loop_
_geom_bond_atom_site_label_1
_geom_bond_atom_site_label_2
_geom_bond_distance
_geom_bond_site_symmetry_2
Cs0 S2 3.210924 1_554
Cs0 S5 3.210924 1_545
Cs0 S4 3.211116 1_544
Cs0 S7 3.211116 1_555
Cs0 S3 3.216769 1_555
Cs0 S6 3.216769 1_544
S0 V5 2.494449 1_555
S0 V3 2.495065 1_555
S0 V4 2.498597 1_555
S0 V5 2.498671 1_655
S0 V3 2.500491 1_655
S0 V4 2.502226 1_655
S1 V2 2.494449 1_555
S1 V0 2.495065 1_555
S1 V1 2.498597 1_555
S1 V2 2.498671 1_455
S1 V0 2.500491 1_455
S1 V1 2.502226 1_455
S2 V1 2.298627 1_555
S2 V4 2.331726 1_645
S2 V4 2.343390 1_545
S2 V0 2.603704 1_555
S3 V2 2.297746 1_555
S3 V5 2.333618 1_655
S3 V5 2.345575 1_555
S3 V1 2.597515 1_555
S4 V0 2.298616 1_555
S4 V3 2.333183 1_656
S4 V3 2.345333 1_556
S4 V2 2.604151 1_555
S5 V4 2.298627 1_555
S5 V1 2.331726 1_465
S5 V1 2.343390 1_565
S5 V3 2.603704 1_555
S6 V5 2.297746 1_555
S6 V2 2.333618 1_455
S6 V2 2.345575 1_555
S6 V4 2.597515 1_555
S7 V3 2.298616 1_555
S7 V0 2.333183 1_454
S7 V0 2.345333 1_554
S7 V5 2.604151 1_555
