# generated using pymatgen
data_KU3AsO15
_symmetry_space_group_name_H-M   'P 1'
_cell_length_a   7.31763865
_cell_length_b   7.31763865
_cell_length_c   13.38584300
_cell_angle_alpha   90.00000000
_cell_angle_beta   90.00000000
_cell_angle_gamma   108.67211710
_symmetry_Int_Tables_number   1
_chemical_formula_structural   KU3AsO15
_chemical_formula_sum   'K2 U6 As2 O30'
_cell_volume   679.05590285
_cell_formula_units_Z   2
loop_
 _symmetry_equiv_pos_site_id
 _symmetry_equiv_pos_as_xyz
  1  'x, y, z'
loop_
 _atom_site_type_symbol
 _atom_site_label
 _atom_site_symmetry_multiplicity
 _atom_site_fract_x
 _atom_site_fract_y
 _atom_site_fract_z
 _atom_site_occupancy
  K  K0  1  0.00000000  0.00000000  0.00000000  1
  K  K1  1  0.00000000  0.00000000  0.50000000  1
  U  U0  1  0.50000000  0.00000000  0.86045800  1
  U  U1  1  0.00000000  0.50000000  0.63954200  1
  U  U2  1  0.50000000  0.00000000  0.13954200  1
  U  U3  1  0.00000000  0.50000000  0.36045800  1
  U  U4  1  0.50000000  0.50000000  0.00000000  1
  U  U5  1  0.50000000  0.50000000  0.50000000  1
  As  As0  1  0.50000000  0.50000000  0.75000000  1
  As  As1  1  0.50000000  0.50000000  0.25000000  1
  O  O0  1  0.48911300  0.16100300  0.00000000  1
  O  O1  1  0.51088700  0.83899700  0.00000000  1
  O  O2  1  0.83899700  0.51088700  0.50000000  1
  O  O3  1  0.16100300  0.48911300  0.50000000  1
  O  O4  1  0.09997300  0.76869100  0.63375600  1
  O  O5  1  0.90002700  0.23130900  0.63375600  1
  O  O6  1  0.23130900  0.90002700  0.86624400  1
  O  O7  1  0.76869100  0.09997300  0.86624400  1
  O  O8  1  0.90002700  0.23130900  0.36624400  1
  O  O9  1  0.09997300  0.76869100  0.36624400  1
  O  O10  1  0.76869100  0.09997300  0.13375600  1
  O  O11  1  0.23130900  0.90002700  0.13375600  1
  O  O12  1  0.00000000  0.00000000  0.75000000  1
  O  O13  1  0.00000000  0.00000000  0.25000000  1
  O  O14  1  0.47054400  0.31946200  0.83635900  1
  O  O15  1  0.52945600  0.68053800  0.83635900  1
  O  O16  1  0.68053800  0.52945600  0.66364100  1
  O  O17  1  0.31946200  0.47054400  0.66364100  1
  O  O18  1  0.52945600  0.68053800  0.16364100  1
  O  O19  1  0.47054400  0.31946200  0.16364100  1
  O  O20  1  0.31946200  0.47054400  0.33635900  1
  O  O21  1  0.68053800  0.52945600  0.33635900  1
  O  O22  1  0.75946600  0.57882000  0.00000000  1
  O  O23  1  0.24053400  0.42118000  0.00000000  1
  O  O24  1  0.42118000  0.24053400  0.50000000  1
  O  O25  1  0.57882000  0.75946600  0.50000000  1
  O  O26  1  0.00000000  0.50000000  0.78007500  1
  O  O27  1  0.50000000  0.00000000  0.71992500  1
  O  O28  1  0.00000000  0.50000000  0.21992500  1
  O  O29  1  0.50000000  0.00000000  0.28007500  1
loop_
_geom_bond_atom_site_label_1
_geom_bond_atom_site_label_2
_geom_bond_distance
_geom_bond_site_symmetry_2
K0 O10 2.720063 1_455
K0 O11 2.720063 1_545
K0 O7 2.720063 1_454
K0 O6 2.720063 1_544
K0 O22 3.020521 1_445
K0 O23 3.020521 1_555
K0 O13 3.346461 1_555
K0 O12 3.346461 1_554
K1 O4 2.720063 1_545
K1 O5 2.720063 1_455
K1 O9 2.720063 1_545
K1 O8 2.720063 1_455
K1 O25 3.020521 1_445
K1 O24 3.020521 1_555
K1 O13 3.346461 1_555
K1 O12 3.346461 1_555
As0 O15 1.716325 1_555
As0 O14 1.716325 1_555
As0 O16 1.716325 1_555
As0 O17 1.716325 1_555
As1 O21 1.716325 1_555
As1 O20 1.716325 1_555
As1 O18 1.716325 1_555
As1 O19 1.716325 1_555
O0 U2 2.223402 1_555
O0 U0 2.223402 1_554
O0 U4 2.456312 1_555
O1 U2 2.223402 1_565
O1 U0 2.223402 1_564
O1 U4 2.456312 1_555
O2 U1 2.223402 1_655
O2 U3 2.223402 1_655
O2 U5 2.456312 1_555
O3 U1 2.223402 1_555
O3 U3 2.223402 1_555
O3 U5 2.456312 1_555
O4 U1 1.867098 1_555
O5 U1 1.867098 1_655
O6 U0 1.867098 1_565
O7 U0 1.867098 1_555
O8 U3 1.867098 1_655
O9 U3 1.867098 1_555
O10 U2 1.867098 1_555
O11 U2 1.867098 1_565
O14 U0 2.436810 1_555
O14 U4 2.531330 1_556
O15 U0 2.436810 1_565
O15 U4 2.531330 1_556
O16 U1 2.436810 1_655
O16 U5 2.531330 1_555
O17 U1 2.436810 1_555
O17 U5 2.531330 1_555
O18 U2 2.436810 1_565
O18 U4 2.531330 1_555
O19 U2 2.436810 1_555
O19 U4 2.531330 1_555
O20 U3 2.436810 1_555
O20 U5 2.531330 1_555
O21 U3 2.436810 1_655
O21 U5 2.531330 1_555
O22 U4 1.799012 1_555
O23 U4 1.799012 1_555
O24 U5 1.799012 1_555
O25 U5 1.799012 1_555
O26 U1 1.881153 1_555
O27 U0 1.881153 1_555
O28 U3 1.881153 1_555
O29 U2 1.881153 1_555
