# generated using pymatgen
data_Ca(ZnSi)2
_symmetry_space_group_name_H-M   'P 1'
_cell_length_a   4.21241809
_cell_length_b   4.21241784
_cell_length_c   5.86301922
_cell_angle_alpha   111.05330528
_cell_angle_beta   111.05329513
_cell_angle_gamma   90.00000006
_symmetry_Int_Tables_number   1
_chemical_formula_structural   Ca(ZnSi)2
_chemical_formula_sum   'Ca1 Zn2 Si2'
_cell_volume   89.61000612
_cell_formula_units_Z   1
loop_
 _symmetry_equiv_pos_site_id
 _symmetry_equiv_pos_as_xyz
  1  'x, y, z'
loop_
 _atom_site_type_symbol
 _atom_site_label
 _atom_site_symmetry_multiplicity
 _atom_site_fract_x
 _atom_site_fract_y
 _atom_site_fract_z
 _atom_site_occupancy
  Ca  Ca0  1  -0.00000000  -0.00000000  -0.00000000  1
  Zn  Zn0  1  0.75000000  0.25000000  0.50000000  1
  Zn  Zn1  1  0.25000000  0.75000000  0.50000000  1
  Si  Si0  1  0.61579252  0.61579252  0.23158503  1
  Si  Si1  1  0.38420748  0.38420748  0.76841497  1
loop_
_geom_bond_atom_site_label_1
_geom_bond_atom_site_label_2
_geom_bond_distance
_geom_bond_site_symmetry_2
Ca0 Si0 3.199998 1_455
Ca0 Si1 3.199998 1_544
Ca0 Si0 3.199998 1_555
Ca0 Si1 3.199998 1_444
Ca0 Si1 3.199998 1_554
Ca0 Si0 3.199998 1_445
Ca0 Si0 3.199998 1_545
Ca0 Si1 3.199998 1_454
Ca0 Zn1 3.288131 1_555
Ca0 Zn0 3.288131 1_444
Ca0 Zn1 3.288131 1_544
Ca0 Zn0 3.288131 1_455
Ca0 Zn0 3.288131 1_555
Ca0 Zn1 3.288131 1_444
Ca0 Zn1 3.288131 1_545
Ca0 Zn0 3.288131 1_454
Si0 Si1 2.339021 1_554
Si0 Zn0 2.504696 1_565
Si0 Zn1 2.504696 1_555
Si0 Zn1 2.504696 1_655
Si0 Zn0 2.504696 1_555
Si1 Zn1 2.504696 1_545
Si1 Zn0 2.504696 1_555
Si1 Zn0 2.504696 1_455
Si1 Zn1 2.504696 1_555
