# generated using pymatgen
data_Nd2Pd2Pb
_symmetry_space_group_name_H-M   'P 1'
_cell_length_a   3.79600144
_cell_length_b   7.99275565
_cell_length_c   7.99275565
_cell_angle_alpha   90.00000000
_cell_angle_beta   90.00000000
_cell_angle_gamma   90.00000000
_symmetry_Int_Tables_number   1
_chemical_formula_structural   Nd2Pd2Pb
_chemical_formula_sum   'Nd4 Pd4 Pb2'
_cell_volume   242.50429837
_cell_formula_units_Z   2
loop_
 _symmetry_equiv_pos_site_id
 _symmetry_equiv_pos_as_xyz
  1  'x, y, z'
loop_
 _atom_site_type_symbol
 _atom_site_label
 _atom_site_symmetry_multiplicity
 _atom_site_fract_x
 _atom_site_fract_y
 _atom_site_fract_z
 _atom_site_occupancy
  Nd  Nd0  1  0.50000000  0.17577021  0.67577021  1
  Nd  Nd1  1  0.50000000  0.82422979  0.32422979  1
  Nd  Nd2  1  0.50000000  0.32422979  0.17577021  1
  Nd  Nd3  1  0.50000000  0.67577021  0.82422979  1
  Pd  Pd0  1  -0.00000000  0.62290006  0.12290006  1
  Pd  Pd1  1  0.00000000  0.37709994  0.87709994  1
  Pd  Pd2  1  -0.00000000  0.87709994  0.62290006  1
  Pd  Pd3  1  0.00000000  0.12290006  0.37709994  1
  Pb  Pb0  1  0.00000000  0.00000000  0.00000000  1
  Pb  Pb1  1  0.00000000  0.50000000  0.50000000  1
loop_
_geom_bond_atom_site_label_1
_geom_bond_atom_site_label_2
_geom_bond_distance
_geom_bond_site_symmetry_2
Nd0 Pd1 2.963330 1_655
Nd0 Pd1 2.963330 1_555
Nd0 Pd3 3.078911 1_555
Nd0 Pd2 3.078911 1_545
Nd0 Pd3 3.078911 1_655
Nd0 Pd2 3.078911 1_645
Nd0 Pb0 3.505986 1_656
Nd0 Pb1 3.505986 1_655
Nd0 Pb1 3.505986 1_555
Nd0 Pb0 3.505986 1_556
Nd1 Pd0 2.963330 1_655
Nd1 Pd0 2.963330 1_555
Nd1 Pd2 3.078911 1_655
Nd1 Pd2 3.078911 1_555
Nd1 Pd3 3.078911 1_565
Nd1 Pd3 3.078911 1_665
Nd1 Pb1 3.505986 1_655
Nd1 Pb1 3.505986 1_555
Nd1 Pb0 3.505986 1_665
Nd1 Pb0 3.505986 1_565
Nd2 Pd3 2.963330 1_555
Nd2 Pd3 2.963330 1_655
Nd2 Pd1 3.078911 1_554
Nd2 Pd0 3.078911 1_655
Nd2 Pd0 3.078911 1_555
Nd2 Pd1 3.078911 1_654
Nd2 Pb1 3.505986 1_655
Nd2 Pb1 3.505986 1_555
Nd2 Pb0 3.505986 1_655
Nd2 Pb0 3.505986 1_555
Nd3 Pd2 2.963330 1_655
Nd3 Pd2 2.963330 1_555
Nd3 Pd1 3.078911 1_555
Nd3 Pd1 3.078911 1_655
Nd3 Pd0 3.078911 1_656
Nd3 Pd0 3.078911 1_556
Nd3 Pb0 3.505986 1_666
Nd3 Pb0 3.505986 1_566
Nd3 Pb1 3.505986 1_655
Nd3 Pb1 3.505986 1_555
Pd0 Pd1 2.778393 1_554
Pd2 Pd3 2.778393 1_565
Pb0 Pd0 3.170101 1_545
Pb0 Pd1 3.170101 1_554
Pb0 Pd3 3.170101 1_555
Pb0 Pd2 3.170101 1_544
Pb1 Pd1 3.170101 1_555
Pb1 Pd3 3.170101 1_555
Pb1 Pd0 3.170101 1_555
Pb1 Pd2 3.170101 1_555
