# generated using pymatgen
data_Mg5Si6
_symmetry_space_group_name_H-M   'P 1'
_cell_length_a   14.57863280
_cell_length_b   14.57863280
_cell_length_c   7.10863149
_cell_angle_alpha   84.98040527
_cell_angle_beta   84.98040527
_cell_angle_gamma   15.61695837
_symmetry_Int_Tables_number   1
_chemical_formula_structural   Mg5Si6
_chemical_formula_sum   'Mg10 Si12'
_cell_volume   405.13730250
_cell_formula_units_Z   2
loop_
 _symmetry_equiv_pos_site_id
 _symmetry_equiv_pos_as_xyz
  1  'x, y, z'
loop_
 _atom_site_type_symbol
 _atom_site_label
 _atom_site_symmetry_multiplicity
 _atom_site_fract_x
 _atom_site_fract_y
 _atom_site_fract_z
 _atom_site_occupancy
  Mg  Mg0  1  0.07844800  0.07844800  0.74352700  1
  Mg  Mg1  1  0.83212800  0.83212800  0.03168700  1
  Mg  Mg2  1  0.96166300  0.96166300  0.27152300  1
  Mg  Mg3  1  0.24794200  0.24794200  0.86092300  1
  Mg  Mg4  1  0.65621800  0.65621800  0.90369000  1
  Mg  Mg5  1  0.53743200  0.53743200  0.07669400  1
  Mg  Mg6  1  0.35464400  0.35464400  0.73436000  1
  Mg  Mg7  1  0.28945300  0.28945300  0.34224600  1
  Mg  Mg8  1  0.61597000  0.61597000  0.41310200  1
  Mg  Mg9  1  0.49846000  0.49846000  0.59227300  1
  Si  Si0  1  0.04850400  0.04850400  0.37396500  1
  Si  Si1  1  0.10609900  0.10609900  0.11161300  1
  Si  Si2  1  0.79741300  0.79741300  0.64946400  1
  Si  Si3  1  0.85763500  0.85763500  0.38525900  1
  Si  Si4  1  0.40963900  0.40963900  0.42252600  1
  Si  Si5  1  0.17315700  0.17315700  0.59262000  1
  Si  Si6  1  0.73230300  0.73230300  0.16618800  1
  Si  Si7  1  0.42806400  0.42806400  0.98892300  1
  Si  Si8  1  0.98351600  0.98351600  0.89750100  1
  Si  Si9  1  0.18189200  0.18189200  0.22365700  1
  Si  Si10  1  0.72263700  0.72263700  0.53324200  1
  Si  Si11  1  0.92283400  0.92283400  0.68501800  1
loop_
_geom_bond_atom_site_label_1
_geom_bond_atom_site_label_2
_geom_bond_distance
_geom_bond_site_symmetry_2
Mg0 Si1 2.802444 1_556
Mg0 Si0 2.837452 1_555
Mg0 Si5 2.849082 1_555
Mg0 Si8 2.861473 1_445
Mg1 Si3 2.680905 1_555
Mg1 Si6 2.956777 1_555
Mg1 Si2 2.978159 1_554
Mg2 Si4 2.654970 1_565
Mg2 Si4 2.654970 1_655
Mg2 Si0 2.673180 1_665
Mg2 Si8 2.677905 1_554
Mg2 Si7 3.040590 1_654
Mg2 Si7 3.040590 1_564
Mg2 Si3 3.042179 1_555
Mg2 Si11 3.052168 1_555
Mg3 Si2 2.800977 1_455
Mg3 Si2 2.800977 1_545
Mg3 Si6 2.943300 1_546
Mg3 Si6 2.943300 1_456
Mg3 Si5 3.005389 1_555
Mg3 Si9 3.069248 1_556
Mg3 Si10 3.191260 1_455
Mg3 Si10 3.191260 1_545
Mg4 Si1 2.797471 1_656
Mg4 Si1 2.797471 1_566
Mg4 Si5 2.976776 1_565
Mg4 Si5 2.976776 1_655
Mg4 Si6 3.006153 1_556
Mg4 Si10 3.118242 1_555
Mg4 Si9 3.153502 1_656
Mg4 Si9 3.153502 1_566
Mg5 Si1 2.829537 1_655
Mg5 Si1 2.829537 1_565
Mg5 Si8 2.884761 1_454
Mg5 Si8 2.884761 1_544
Mg5 Si0 2.934342 1_565
Mg5 Si0 2.934342 1_655
Mg6 Si4 2.610664 1_555
Mg6 Si2 2.682667 1_545
Mg6 Si2 2.682667 1_455
Mg6 Si11 2.793602 1_455
Mg6 Si11 2.793602 1_545
Mg6 Si7 2.907000 1_555
Mg7 Si3 2.828811 1_545
Mg7 Si3 2.828811 1_455
Mg7 Si6 2.929132 1_455
Mg7 Si6 2.929132 1_545
Mg7 Si2 2.972221 1_545
Mg7 Si2 2.972221 1_455
Mg7 Si10 3.004824 1_455
Mg7 Si10 3.004824 1_545
Mg8 Si0 2.809703 1_655
Mg8 Si0 2.809703 1_565
Mg8 Si5 2.941586 1_565
Mg8 Si5 2.941586 1_655
Mg8 Si1 2.950518 1_565
Mg8 Si1 2.950518 1_655
Mg8 Si9 2.984967 1_655
Mg8 Si9 2.984967 1_565
Mg8 Si10 3.269321 1_555
Mg9 Si0 2.832838 1_565
Mg9 Si0 2.832838 1_655
Mg9 Si4 2.930196 1_555
Mg9 Si8 2.941403 1_455
Mg9 Si8 2.941403 1_545
Mg9 Si11 2.979238 1_455
Mg9 Si11 2.979238 1_545
Si0 Si1 2.387064 1_555
Si1 Si9 2.394990 1_555
Si2 Si3 2.444709 1_555
Si3 Si4 2.514020 1_655
Si3 Si4 2.514020 1_565
Si5 Si9 2.612655 1_555
Si6 Si9 2.470931 1_655
Si6 Si9 2.470931 1_565
Si7 Si8 2.593737 1_545
Si7 Si8 2.593737 1_455
Si10 Si2 2.379830 1_555
Si10 Si5 2.457170 1_565
Si10 Si5 2.457170 1_655
Si10 Si6 2.599514 1_555
Si11 Si8 2.412857 1_555
Si11 Si4 2.770528 1_565
Si11 Si4 2.770528 1_655
