# generated using pymatgen
data_LiMn2(PO4)2
_symmetry_space_group_name_H-M   'P 1'
_cell_length_a   7.29675600
_cell_length_b   8.47342900
_cell_length_c   14.65859364
_cell_angle_alpha   89.85239237
_cell_angle_beta   90.00000000
_cell_angle_gamma   90.00000000
_symmetry_Int_Tables_number   1
_chemical_formula_structural   LiMn2(PO4)2
_chemical_formula_sum   'Li6 Mn12 P12 O48'
_cell_volume   906.31649299
_cell_formula_units_Z   6
loop_
 _symmetry_equiv_pos_site_id
 _symmetry_equiv_pos_as_xyz
  1  'x, y, z'
loop_
 _atom_site_type_symbol
 _atom_site_label
 _atom_site_symmetry_multiplicity
 _atom_site_fract_x
 _atom_site_fract_y
 _atom_site_fract_z
 _atom_site_occupancy
  Li  Li0  1  0.83461100  0.81981900  0.65873400  1
  Li  Li1  1  0.68198200  0.82371100  0.00963200  1
  Li  Li2  1  0.82216600  0.84399400  0.33539500  1
  Li  Li3  1  0.32216600  0.15600600  0.66460500  1
  Li  Li4  1  0.18198200  0.17628900  0.99036800  1
  Li  Li5  1  0.33461100  0.18018100  0.34126600  1
  Mn  Mn0  1  0.96274500  0.48539200  0.66658700  1
  Mn  Mn1  1  0.04780300  0.49877600  0.33504000  1
  Mn  Mn2  1  0.00461300  0.51774900  0.99254500  1
  Mn  Mn3  1  0.54780300  0.50122400  0.66496000  1
  Mn  Mn4  1  0.50461300  0.48225100  0.00745500  1
  Mn  Mn5  1  0.46274500  0.51460800  0.33341300  1
  Mn  Mn6  1  0.54608600  0.99439800  0.17387500  1
  Mn  Mn7  1  0.50645800  0.97564300  0.49510600  1
  Mn  Mn8  1  0.45761400  0.98786100  0.83545900  1
  Mn  Mn9  1  0.00645800  0.02435700  0.50489400  1
  Mn  Mn10  1  0.95761400  0.01213900  0.16454100  1
  Mn  Mn11  1  0.04608600  0.00560200  0.82612500  1
  P  P0  1  0.25830700  0.30155600  0.15920900  1
  P  P1  1  0.23789600  0.33462200  0.51451700  1
  P  P2  1  0.25591200  0.36238900  0.82110500  1
  P  P3  1  0.75591200  0.63761100  0.17889500  1
  P  P4  1  0.73789600  0.66537800  0.48548300  1
  P  P5  1  0.75830700  0.69844400  0.84079100  1
  P  P6  1  0.25159800  0.80962100  0.66280000  1
  P  P7  1  0.25833200  0.83977200  0.02264700  1
  P  P8  1  0.23179700  0.85800600  0.32584000  1
  P  P9  1  0.73179700  0.14199400  0.67416000  1
  P  P10  1  0.75833200  0.16022800  0.97735300  1
  P  P11  1  0.75159800  0.19037900  0.33720000  1
  O  O0  1  0.57345900  0.28428400  0.34658500  1
  O  O1  1  0.92247300  0.28502300  0.36110900  1
  O  O2  1  0.75317500  0.31756400  0.70012200  1
  O  O3  1  0.05698600  0.32480400  0.56780500  1
  O  O4  1  0.73473800  0.32478800  0.01749900  1
  O  O5  1  0.39386300  0.36138200  0.58407900  1
  O  O6  1  0.23861600  0.34541700  0.26120300  1
  O  O7  1  0.27593400  0.36833200  0.92641400  1
  O  O8  1  0.43436400  0.42643900  0.77731700  1
  O  O9  1  0.23287500  0.46225300  0.43618600  1
  O  O10  1  0.28144600  0.44741700  0.09882700  1
  O  O11  1  0.08773900  0.45172100  0.78999200  1
  O  O12  1  0.73287500  0.53774700  0.56381400  1
  O  O13  1  0.58773900  0.54827900  0.21000800  1
  O  O14  1  0.78144600  0.55258300  0.90117300  1
  O  O15  1  0.93436400  0.57356100  0.22268300  1
  O  O16  1  0.73861600  0.65458300  0.73879700  1
  O  O17  1  0.77593400  0.63166800  0.07358600  1
  O  O18  1  0.89386300  0.63861800  0.41592100  1
  O  O19  1  0.55698600  0.67519600  0.43219500  1
  O  O20  1  0.23473800  0.67521200  0.98250100  1
  O  O21  1  0.25317500  0.68243600  0.29987800  1
  O  O22  1  0.42247300  0.71497700  0.63889100  1
  O  O23  1  0.07345900  0.71571600  0.65341500  1
  O  O24  1  0.92936200  0.80785600  0.85587900  1
  O  O25  1  0.58879900  0.78904300  0.87824300  1
  O  O26  1  0.73504600  0.82073900  0.20559300  1
  O  O27  1  0.77125200  0.82851900  0.53092400  1
  O  O28  1  0.44327900  0.84952300  0.07546400  1
  O  O29  1  0.09598100  0.87569800  0.08741300  1
  O  O30  1  0.21536700  0.88108500  0.42943800  1
  O  O31  1  0.26426100  0.86998100  0.76698500  1
  O  O32  1  0.05209300  0.92643700  0.28252200  1
  O  O33  1  0.24226000  0.96208900  0.60354100  1
  O  O34  1  0.39496000  0.96178500  0.29156100  1
  O  O35  1  0.26291200  0.96835500  0.94432000  1
  O  O36  1  0.89496000  0.03821500  0.70843900  1
  O  O37  1  0.74226000  0.03791100  0.39645900  1
  O  O38  1  0.76291200  0.03164500  0.05568000  1
  O  O39  1  0.55209300  0.07356300  0.71747800  1
  O  O40  1  0.71536700  0.11891500  0.57056200  1
  O  O41  1  0.76426100  0.13001900  0.23301500  1
  O  O42  1  0.59598100  0.12430200  0.91258700  1
  O  O43  1  0.27125200  0.17148100  0.46907600  1
  O  O44  1  0.94327900  0.15047700  0.92453600  1
  O  O45  1  0.23504600  0.17926100  0.79440700  1
  O  O46  1  0.08879900  0.21095700  0.12175700  1
  O  O47  1  0.42936200  0.19214400  0.14412100  1
loop_
_geom_bond_atom_site_label_1
_geom_bond_atom_site_label_2
_geom_bond_distance
_geom_bond_site_symmetry_2
Li0 O27 1.930937 1_555
Li0 O16 1.954444 1_555
Li0 O23 1.954983 1_655
Li0 O36 2.038702 1_565
Li1 O38 1.978589 1_565
Li1 O17 1.997237 1_555
Li1 O28 2.003466 1_555
Li1 O25 2.064197 1_554
Li2 O37 1.961803 1_565
Li2 O32 1.975009 1_655
Li2 O26 2.016232 1_555
Li2 O18 2.164458 1_555
Li3 O33 1.961803 1_545
Li3 O39 1.975009 1_555
Li3 O45 2.016232 1_555
Li3 O5 2.164458 1_555
Li4 O35 1.978589 1_545
Li4 O7 1.997237 1_555
Li4 O44 2.003466 1_455
Li4 O46 2.064197 1_556
Li5 O43 1.930937 1_555
Li5 O6 1.954444 1_555
Li5 O0 1.954983 1_555
Li5 O34 2.038702 1_545
Mn0 O11 2.045203 1_655
Mn0 O3 2.105072 1_655
Mn0 O23 2.120576 1_655
Mn0 O2 2.144469 1_555
Mn0 O12 2.297015 1_555
Mn0 O16 2.420352 1_555
Mn1 O15 1.947799 1_455
Mn1 O18 2.019578 1_455
Mn1 O9 2.028629 1_555
Mn1 O1 2.063806 1_455
Mn1 O6 2.192237 1_555
Mn1 O21 2.220142 1_555
Mn2 O14 2.128546 1_455
Mn2 O20 2.149533 1_555
Mn2 O17 2.265651 1_456
Mn2 O7 2.543313 1_555
Mn2 O4 2.584933 1_456
Mn2 O10 2.618759 1_556
Mn3 O8 1.947799 1_555
Mn3 O5 2.019578 1_555
Mn3 O12 2.028629 1_555
Mn3 O22 2.063806 1_555
Mn3 O16 2.192237 1_555
Mn3 O2 2.220142 1_555
Mn4 O10 2.128546 1_555
Mn4 O4 2.149533 1_555
Mn4 O7 2.265651 1_554
Mn4 O17 2.543313 1_555
Mn4 O20 2.584933 1_554
Mn4 O14 2.618759 1_554
Mn5 O13 2.045203 1_555
Mn5 O19 2.105072 1_555
Mn5 O0 2.120576 1_555
Mn5 O21 2.144469 1_555
Mn5 O9 2.297015 1_555
Mn5 O6 2.420352 1_555
Mn6 O47 1.928590 1_565
Mn6 O28 2.039567 1_555
Mn6 O34 2.065413 1_555
Mn6 O26 2.068573 1_555
Mn6 O41 2.147472 1_565
Mn6 O38 2.366796 1_565
Mn7 O40 2.242277 1_565
Mn7 O37 2.307786 1_565
Mn7 O27 2.357875 1_555
Mn7 O43 2.416916 1_565
Mn7 O30 2.466578 1_555
Mn7 O33 2.501028 1_555
Mn7 O19 2.734893 1_555
Mn8 O42 1.908124 1_565
Mn8 O39 1.996769 1_565
Mn8 O31 2.000210 1_555
Mn8 O25 2.035257 1_555
Mn8 O35 2.142602 1_555
Mn8 O45 2.371672 1_565
Mn9 O30 2.242277 1_545
Mn9 O33 2.307786 1_545
Mn9 O43 2.357875 1_555
Mn9 O27 2.416916 1_445
Mn9 O40 2.466578 1_455
Mn9 O37 2.501028 1_455
Mn9 O3 2.734893 1_555
Mn10 O29 1.908124 1_645
Mn10 O32 1.996769 1_645
Mn10 O41 2.000210 1_555
Mn10 O46 2.035257 1_655
Mn10 O38 2.142602 1_555
Mn10 O26 2.371672 1_545
Mn11 O24 1.928590 1_445
Mn11 O44 2.039567 1_455
Mn11 O36 2.065413 1_455
Mn11 O45 2.068573 1_555
Mn11 O31 2.147472 1_545
Mn11 O35 2.366796 1_545
O0 P11 1.530425 1_555
O1 P11 1.523814 1_555
O2 P9 1.544433 1_555
O3 P1 1.535999 1_555
O4 P10 1.524630 1_554
O5 P1 1.545160 1_555
O6 P0 1.548200 1_555
O7 P2 1.551526 1_555
O8 P2 1.549280 1_555
O9 P1 1.575735 1_555
O10 P0 1.527696 1_555
O11 P2 1.511625 1_555
O12 P4 1.575735 1_555
O13 P3 1.511625 1_555
O14 P5 1.527696 1_555
O15 P3 1.549280 1_555
O16 P5 1.548200 1_555
O17 P3 1.551526 1_555
O18 P4 1.545160 1_555
O19 P4 1.535999 1_555
O20 P7 1.524630 1_556
O21 P8 1.544433 1_555
O22 P6 1.523814 1_555
O23 P6 1.530425 1_555
O24 P5 1.570779 1_555
O25 P5 1.556510 1_555
O26 P3 1.608512 1_555
O27 P4 1.555186 1_555
O28 P7 1.558128 1_555
O29 P7 1.548819 1_555
O30 P8 1.536325 1_555
O31 P6 1.614468 1_555
O32 P8 1.567456 1_555
O33 P6 1.556436 1_555
O34 P8 1.562347 1_555
O35 P7 1.581153 1_556
O36 P9 1.562347 1_555
O37 P11 1.556436 1_555
O38 P10 1.581153 1_554
O39 P9 1.567456 1_555
O40 P9 1.536325 1_555
O41 P11 1.614468 1_555
O42 P10 1.548819 1_555
O43 P1 1.555186 1_555
O44 P10 1.558128 1_555
O45 P2 1.608512 1_555
O46 P0 1.556510 1_555
O47 P0 1.570779 1_555
