# generated using pymatgen
data_Pb3(NO4)2
_symmetry_space_group_name_H-M   'P 1'
_cell_length_a   5.88958700
_cell_length_b   7.85014300
_cell_length_c   18.92583500
_cell_angle_alpha   90.00000000
_cell_angle_beta   90.00000000
_cell_angle_gamma   90.00000000
_symmetry_Int_Tables_number   1
_chemical_formula_structural   Pb3(NO4)2
_chemical_formula_sum   'Pb12 N8 O32'
_cell_volume   875.01895102
_cell_formula_units_Z   4
loop_
 _symmetry_equiv_pos_site_id
 _symmetry_equiv_pos_as_xyz
  1  'x, y, z'
loop_
 _atom_site_type_symbol
 _atom_site_label
 _atom_site_symmetry_multiplicity
 _atom_site_fract_x
 _atom_site_fract_y
 _atom_site_fract_z
 _atom_site_occupancy
  Pb  Pb0  1  0.75000000  0.01893200  0.84291800  1
  Pb  Pb1  1  0.75000000  0.51893200  0.65708200  1
  Pb  Pb2  1  0.25000000  0.98106800  0.15708200  1
  Pb  Pb3  1  0.25000000  0.48106800  0.34291800  1
  Pb  Pb4  1  0.75000000  0.13611500  0.03196100  1
  Pb  Pb5  1  0.75000000  0.63611500  0.46803900  1
  Pb  Pb6  1  0.25000000  0.86388500  0.96803900  1
  Pb  Pb7  1  0.25000000  0.36388500  0.53196100  1
  Pb  Pb8  1  0.25000000  0.30824400  0.91578400  1
  Pb  Pb9  1  0.25000000  0.80824400  0.58421600  1
  Pb  Pb10  1  0.75000000  0.69175600  0.08421600  1
  Pb  Pb11  1  0.75000000  0.19175600  0.41578400  1
  N  N0  1  0.75000000  0.61187300  0.89423900  1
  N  N1  1  0.75000000  0.11187300  0.60576100  1
  N  N2  1  0.25000000  0.38812700  0.10576100  1
  N  N3  1  0.25000000  0.88812700  0.39423900  1
  N  N4  1  0.25000000  0.84086800  0.74948800  1
  N  N5  1  0.25000000  0.34086800  0.75051200  1
  N  N6  1  0.75000000  0.15913200  0.25051200  1
  N  N7  1  0.75000000  0.65913200  0.24948800  1
  O  O0  1  0.49910200  0.09245800  0.93247700  1
  O  O1  1  0.00089800  0.59245800  0.56752300  1
  O  O2  1  0.99910200  0.90754200  0.06752300  1
  O  O3  1  0.50089800  0.40754200  0.43247700  1
  O  O4  1  0.50089800  0.90754200  0.06752300  1
  O  O5  1  0.99910200  0.40754200  0.43247700  1
  O  O6  1  0.00089800  0.09245800  0.93247700  1
  O  O7  1  0.49910200  0.59245800  0.56752300  1
  O  O8  1  0.25000000  0.90194500  0.81138300  1
  O  O9  1  0.25000000  0.40194500  0.68861700  1
  O  O10  1  0.75000000  0.09805500  0.18861700  1
  O  O11  1  0.75000000  0.59805500  0.31138300  1
  O  O12  1  0.43675500  0.81237600  0.71774700  1
  O  O13  1  0.06324500  0.31237600  0.78225300  1
  O  O14  1  0.93675500  0.18762400  0.28225300  1
  O  O15  1  0.56324500  0.68762400  0.21774700  1
  O  O16  1  0.56324500  0.18762400  0.28225300  1
  O  O17  1  0.93675500  0.68762400  0.21774700  1
  O  O18  1  0.06324500  0.81237600  0.71774700  1
  O  O19  1  0.43675500  0.31237600  0.78225300  1
  O  O20  1  0.75000000  0.46393700  0.92003300  1
  O  O21  1  0.75000000  0.96393700  0.57996700  1
  O  O22  1  0.25000000  0.53606300  0.07996700  1
  O  O23  1  0.25000000  0.03606300  0.42003300  1
  O  O24  1  0.75000000  0.74243000  0.93693800  1
  O  O25  1  0.75000000  0.24243000  0.56306200  1
  O  O26  1  0.25000000  0.25757000  0.06306200  1
  O  O27  1  0.25000000  0.75757000  0.43693800  1
  O  O28  1  0.75000000  0.64037800  0.82916700  1
  O  O29  1  0.75000000  0.14037800  0.67083300  1
  O  O30  1  0.25000000  0.35962200  0.17083300  1
  O  O31  1  0.25000000  0.85962200  0.32916700  1
loop_
_geom_bond_atom_site_label_1
_geom_bond_atom_site_label_2
_geom_bond_distance
_geom_bond_site_symmetry_2
N0 O28 1.251706 1_555
N0 O20 1.259752 1_555
N0 O24 1.305163 1_555
N1 O29 1.251706 1_555
N1 O21 1.259752 1_545
N1 O25 1.305163 1_555
N2 O30 1.251706 1_555
N2 O22 1.259752 1_555
N2 O26 1.305163 1_555
N3 O31 1.251706 1_555
N3 O23 1.259752 1_565
N3 O27 1.305163 1_555
N4 O8 1.265740 1_555
N4 O18 1.273067 1_555
N4 O12 1.273067 1_555
N5 O9 1.265740 1_555
N5 O19 1.273067 1_555
N5 O13 1.273067 1_555
N6 O10 1.265740 1_555
N6 O14 1.273067 1_555
N6 O16 1.273067 1_555
N7 O11 1.265740 1_555
N7 O15 1.273067 1_555
N7 O17 1.273067 1_555
O0 Pb8 2.263114 1_555
O0 Pb0 2.321563 1_555
O0 Pb6 2.413506 1_545
O0 Pb4 2.417852 1_556
O1 Pb9 2.263114 1_555
O1 Pb1 2.321563 1_455
O1 Pb7 2.413506 1_555
O1 Pb5 2.417852 1_455
O2 Pb10 2.263114 1_555
O2 Pb2 2.321563 1_655
O2 Pb4 2.413506 1_565
O2 Pb6 2.417852 1_654
O3 Pb11 2.263114 1_555
O3 Pb3 2.321563 1_555
O3 Pb5 2.413506 1_555
O3 Pb7 2.417852 1_555
O4 Pb10 2.263114 1_555
O4 Pb2 2.321563 1_555
O4 Pb4 2.413506 1_565
O4 Pb6 2.417852 1_554
O5 Pb11 2.263114 1_555
O5 Pb3 2.321563 1_655
O5 Pb5 2.413506 1_555
O5 Pb7 2.417852 1_655
O6 Pb8 2.263114 1_555
O6 Pb0 2.321563 1_455
O6 Pb6 2.413506 1_545
O6 Pb4 2.417852 1_456
O7 Pb9 2.263114 1_555
O7 Pb1 2.321563 1_555
O7 Pb7 2.413506 1_555
O7 Pb5 2.417852 1_555
