# generated using pymatgen
data_Cs8Fe2O7
_symmetry_space_group_name_H-M   'P 1'
_cell_length_a   18.03418400
_cell_length_b   7.22128342
_cell_length_c   7.39003308
_cell_angle_alpha   61.03007559
_cell_angle_beta   90.00000000
_cell_angle_gamma   90.00000000
_symmetry_Int_Tables_number   1
_chemical_formula_structural   Cs8Fe2O7
_chemical_formula_sum   'Cs16 Fe4 O14'
_cell_volume   841.98201550
_cell_formula_units_Z   2
loop_
 _symmetry_equiv_pos_site_id
 _symmetry_equiv_pos_as_xyz
  1  'x, y, z'
loop_
 _atom_site_type_symbol
 _atom_site_label
 _atom_site_symmetry_multiplicity
 _atom_site_fract_x
 _atom_site_fract_y
 _atom_site_fract_z
 _atom_site_occupancy
  Cs  Cs0  1  0.99238836  0.23123251  0.22861652  1
  Cs  Cs1  1  0.49238836  0.26876749  0.77138348  1
  Cs  Cs2  1  0.00761164  0.76876749  0.77138348  1
  Cs  Cs3  1  0.50761164  0.73123251  0.22861652  1
  Cs  Cs4  1  0.19219510  0.23626298  0.21839285  1
  Cs  Cs5  1  0.69219510  0.26373702  0.78160715  1
  Cs  Cs6  1  0.80780490  0.76373702  0.78160715  1
  Cs  Cs7  1  0.30780490  0.73626298  0.21839285  1
  Cs  Cs8  1  0.78589291  0.21038964  0.24592158  1
  Cs  Cs9  1  0.28589291  0.28961036  0.75407842  1
  Cs  Cs10  1  0.21410709  0.78961036  0.75407842  1
  Cs  Cs11  1  0.71410709  0.71038964  0.24592158  1
  Cs  Cs12  1  0.91713560  0.35383297  0.63968372  1
  Cs  Cs13  1  0.41713560  0.14616703  0.36031628  1
  Cs  Cs14  1  0.08286440  0.64616703  0.36031628  1
  Cs  Cs15  1  0.58286440  0.85383297  0.63968372  1
  Fe  Fe0  1  0.59482503  0.36151946  0.13836116  1
  Fe  Fe1  1  0.09482503  0.13848054  0.86163884  1
  Fe  Fe2  1  0.40517497  0.63848054  0.86163884  1
  Fe  Fe3  1  0.90517497  0.86151946  0.13836116  1
  O  O0  1  0.50000000  0.50000000  0.00000000  1
  O  O1  1  -0.00000000  0.00000000  0.00000000  1
  O  O2  1  0.59833815  0.33815129  0.40331480  1
  O  O3  1  0.09833815  0.16184871  0.59668520  1
  O  O4  1  0.40166185  0.66184871  0.59668520  1
  O  O5  1  0.90166185  0.83815129  0.40331480  1
  O  O6  1  0.32710461  0.46022999  0.02885183  1
  O  O7  1  0.82710461  0.03977001  0.97114817  1
  O  O8  1  0.67289539  0.53977001  0.97114817  1
  O  O9  1  0.17289539  0.96022999  0.02885183  1
  O  O10  1  0.60532948  0.09498410  0.15156763  1
  O  O11  1  0.10532948  0.40501590  0.84843237  1
  O  O12  1  0.39467052  0.90501590  0.84843237  1
  O  O13  1  0.89467052  0.59498410  0.15156763  1
loop_
_geom_bond_atom_site_label_1
_geom_bond_atom_site_label_2
_geom_bond_distance
_geom_bond_site_symmetry_2
Cs0 O1 2.897276 1_655
Cs0 O5 2.975106 1_545
Cs0 O13 2.980061 1_555
Cs0 O3 3.159162 1_655
Cs0 O11 3.194001 1_654
Cs1 O0 2.897276 1_556
Cs1 O4 2.975106 1_555
Cs1 O12 2.980061 1_545
Cs1 O2 3.159162 1_555
Cs1 O10 3.194001 1_556
Cs2 O1 2.897276 1_566
Cs2 O3 2.975106 1_565
Cs2 O11 2.980061 1_555
Cs2 O5 3.159162 1_455
Cs2 O13 3.194001 1_456
Cs3 O0 2.897276 1_555
Cs3 O2 2.975106 1_555
Cs3 O10 2.980061 1_565
Cs3 O4 3.159162 1_555
Cs3 O12 3.194001 1_554
Cs4 O11 2.861212 1_554
Cs4 O6 2.881432 1_555
Cs4 O9 2.959917 1_545
Cs4 O3 3.084457 1_555
Cs5 O10 2.861212 1_556
Cs5 O7 2.881432 1_555
Cs5 O8 2.959917 1_555
Cs5 O2 3.084457 1_555
Cs6 O13 2.861212 1_556
Cs6 O8 2.881432 1_555
Cs6 O7 2.959917 1_565
Cs6 O5 3.084457 1_555
Cs7 O12 2.861212 1_554
Cs7 O9 2.881432 1_555
Cs7 O6 2.959917 1_555
Cs7 O4 3.084457 1_555
Cs8 O7 2.935518 1_554
Cs8 O8 3.042170 1_554
Cs8 O5 3.147799 1_545
Cs8 O13 3.189328 1_555
Cs8 O10 3.513859 1_555
Cs9 O6 2.935518 1_556
Cs9 O9 3.042170 1_546
Cs9 O4 3.147799 1_555
Cs9 O12 3.189328 1_545
Cs9 O11 3.513859 1_555
Cs10 O9 2.935518 1_556
Cs10 O6 3.042170 1_556
Cs10 O3 3.147799 1_565
Cs10 O11 3.189328 1_555
Cs10 O12 3.513859 1_555
Cs11 O8 2.935518 1_554
Cs11 O7 3.042170 1_564
Cs11 O2 3.147799 1_555
Cs11 O10 3.189328 1_565
Cs11 O13 3.513859 1_555
Cs12 O7 2.898006 1_555
Cs12 O1 3.043255 1_656
Cs12 O5 3.072937 1_555
Cs12 O13 3.181745 1_555
Cs13 O6 2.898006 1_555
Cs13 O0 3.043255 1_555
Cs13 O4 3.072937 1_545
Cs13 O12 3.181745 1_545
Cs14 O9 2.898006 1_555
Cs14 O1 3.043255 1_565
Cs14 O3 3.072937 1_555
Cs14 O11 3.181745 1_555
Cs15 O8 2.898006 1_555
Cs15 O0 3.043255 1_556
Cs15 O2 3.072937 1_565
Cs15 O10 3.181745 1_565
Fe0 O2 1.883148 1_555
Fe0 O10 1.888921 1_555
Fe0 O8 1.904027 1_554
Fe0 O0 1.994850 1_555
Fe1 O3 1.883148 1_555
Fe1 O11 1.888921 1_555
Fe1 O9 1.904027 1_546
Fe1 O1 1.994850 1_556
Fe2 O4 1.883148 1_555
Fe2 O12 1.888921 1_555
Fe2 O6 1.904027 1_556
Fe2 O0 1.994850 1_556
Fe3 O5 1.883148 1_555
Fe3 O13 1.888921 1_555
Fe3 O7 1.904027 1_564
Fe3 O1 1.994850 1_665
