# generated using pymatgen
data_Cs3Na2SnP3
_symmetry_space_group_name_H-M   'P 1'
_cell_length_a   10.88369198
_cell_length_b   10.88369198
_cell_length_c   16.55818300
_cell_angle_alpha   90.00000000
_cell_angle_beta   90.00000000
_cell_angle_gamma   142.91085930
_symmetry_Int_Tables_number   1
_chemical_formula_structural   Cs3Na2SnP3
_chemical_formula_sum   'Cs12 Na8 Sn4 P12'
_cell_volume   1182.83288053
_cell_formula_units_Z   4
loop_
 _symmetry_equiv_pos_site_id
 _symmetry_equiv_pos_as_xyz
  1  'x, y, z'
loop_
 _atom_site_type_symbol
 _atom_site_label
 _atom_site_symmetry_multiplicity
 _atom_site_fract_x
 _atom_site_fract_y
 _atom_site_fract_z
 _atom_site_occupancy
  Cs  Cs0  1  0.94142000  0.60725600  0.82728800  1
  Cs  Cs1  1  0.55858000  0.89274400  0.32728800  1
  Cs  Cs2  1  0.39274400  0.05858000  0.17271200  1
  Cs  Cs3  1  0.05858000  0.39274400  0.17271200  1
  Cs  Cs4  1  0.89274400  0.55858000  0.32728800  1
  Cs  Cs5  1  0.44142000  0.10725600  0.67271200  1
  Cs  Cs6  1  0.60725600  0.94142000  0.82728800  1
  Cs  Cs7  1  0.26749100  0.26749100  0.32134500  1
  Cs  Cs8  1  0.76749100  0.76749100  0.17865500  1
  Cs  Cs9  1  0.23250900  0.23250900  0.82134500  1
  Cs  Cs10  1  0.73250900  0.73250900  0.67865500  1
  Cs  Cs11  1  0.10725600  0.44142000  0.67271200  1
  Na  Na0  1  0.91939600  0.08060400  0.00000000  1
  Na  Na1  1  0.58060400  0.41939600  0.50000000  1
  Na  Na2  1  0.08060400  0.91939600  0.00000000  1
  Na  Na3  1  0.41939600  0.58060400  0.50000000  1
  Na  Na4  1  0.75409700  0.24590300  0.00000000  1
  Na  Na5  1  0.74590300  0.25409700  0.50000000  1
  Na  Na6  1  0.24590300  0.75409700  0.00000000  1
  Na  Na7  1  0.25409700  0.74590300  0.50000000  1
  Sn  Sn0  1  0.58739700  0.41260300  0.00000000  1
  Sn  Sn1  1  0.91260300  0.08739700  0.50000000  1
  Sn  Sn2  1  0.41260300  0.58739700  0.00000000  1
  Sn  Sn3  1  0.08739700  0.91260300  0.50000000  1
  P  P0  1  0.87523800  0.56109900  0.09130500  1
  P  P1  1  0.43890100  0.12476200  0.90869500  1
  P  P2  1  0.62476200  0.93890100  0.59130500  1
  P  P3  1  0.93890100  0.62476200  0.59130500  1
  P  P4  1  0.12476200  0.43890100  0.90869500  1
  P  P5  1  0.56109900  0.87523800  0.09130500  1
  P  P6  1  0.37523800  0.06109900  0.40869500  1
  P  P7  1  0.20078100  0.20078100  0.58236700  1
  P  P8  1  0.70078100  0.70078100  0.91763300  1
  P  P9  1  0.29921900  0.29921900  0.08236700  1
  P  P10  1  0.06109900  0.37523800  0.40869500  1
  P  P11  1  0.79921900  0.79921900  0.41763300  1
loop_
_geom_bond_atom_site_label_1
_geom_bond_atom_site_label_2
_geom_bond_distance
_geom_bond_site_symmetry_2
Cs0 P1 3.672196 1_555
Cs0 P1 3.768727 1_665
Cs0 P8 3.792960 1_555
Cs0 P4 3.871613 1_655
Cs0 P3 3.913253 1_555
Cs1 P10 3.672196 1_665
Cs1 P10 3.768727 1_555
Cs1 P11 3.792960 1_555
Cs1 P6 3.871613 1_565
Cs1 P5 3.913253 1_555
Cs2 P0 3.672196 1_555
Cs2 P0 3.768727 1_445
Cs2 P9 3.792960 1_555
Cs2 P5 3.871613 1_545
Cs2 P6 3.913253 1_555
Cs3 P5 3.672196 1_555
Cs3 P5 3.768727 1_445
Cs3 P9 3.792960 1_555
Cs3 P0 3.871613 1_455
Cs3 P10 3.913253 1_555
Cs4 P6 3.672196 1_665
Cs4 P6 3.768727 1_555
Cs4 P11 3.792960 1_555
Cs4 P10 3.871613 1_655
Cs4 P0 3.913253 1_555
Cs5 P3 3.672196 1_445
Cs5 P3 3.768727 1_555
Cs5 P7 3.792960 1_555
Cs5 P2 3.871613 1_545
Cs5 P1 3.913253 1_555
Cs6 P4 3.672196 1_555
Cs6 P4 3.768727 1_665
Cs6 P8 3.792960 1_555
Cs6 P1 3.871613 1_565
Cs6 P2 3.913253 1_555
Cs7 P10 3.565900 1_555
Cs7 P6 3.565900 1_555
Cs7 P11 3.612669 1_445
Cs7 P9 3.963133 1_555
Cs7 P11 4.011564 1_555
Cs8 P0 3.565900 1_555
Cs8 P5 3.565900 1_555
Cs8 P9 3.612669 1_555
Cs8 P11 3.963133 1_555
Cs8 P9 4.011564 1_665
Cs9 P4 3.565900 1_555
Cs9 P1 3.565900 1_555
Cs9 P8 3.612669 1_555
Cs9 P7 3.963133 1_555
Cs9 P8 4.011564 1_445
Cs10 P2 3.565900 1_555
Cs10 P3 3.565900 1_555
Cs10 P7 3.612669 1_665
Cs10 P8 3.963133 1_555
Cs10 P7 4.011564 1_555
Cs11 P2 3.672196 1_445
Cs11 P2 3.768727 1_555
Cs11 P7 3.792960 1_555
Cs11 P3 3.871613 1_455
Cs11 P4 3.913253 1_555
Na0 P5 2.929618 1_545
Na0 P4 2.929618 1_654
Na0 P9 2.986322 1_655
Na0 P8 2.986322 1_544
Na1 P6 2.929618 1_555
Na1 P3 2.929618 1_555
Na1 P7 2.986322 1_555
Na1 P11 2.986322 1_555
Na2 P0 2.929618 1_455
Na2 P1 2.929618 1_564
Na2 P9 2.986322 1_565
Na2 P8 2.986322 1_454
Na3 P10 2.929618 1_555
Na3 P2 2.929618 1_555
Na3 P7 2.986322 1_555
Na3 P11 2.986322 1_555
Na4 P0 2.928545 1_555
Na4 P1 2.928545 1_554
Na4 P5 3.074632 1_545
Na4 P4 3.074632 1_654
Na5 P2 2.928545 1_545
Na5 P10 2.928545 1_655
Na5 P3 3.074632 1_555
Na5 P6 3.074632 1_555
Na6 P5 2.928545 1_555
Na6 P4 2.928545 1_554
Na6 P0 3.074632 1_455
Na6 P1 3.074632 1_564
Na7 P3 2.928545 1_455
Na7 P6 2.928545 1_565
Na7 P2 3.074632 1_555
Na7 P10 3.074632 1_555
P0 Sn0 2.575709 1_555
P1 Sn0 2.575709 1_556
P2 Sn1 2.575709 1_565
P3 Sn3 2.575709 1_655
P4 Sn2 2.575709 1_556
P5 Sn2 2.575709 1_555
P6 Sn3 2.575709 1_545
P7 Sn1 2.654286 1_455
P7 Sn3 2.654286 1_545
P8 Sn0 2.654286 1_556
P8 Sn2 2.654286 1_556
P9 Sn0 2.654286 1_555
P9 Sn2 2.654286 1_555
P10 Sn1 2.575709 1_455
P11 Sn3 2.654286 1_655
P11 Sn1 2.654286 1_565
