# generated using pymatgen
data_H15PdRuN9O11
_symmetry_space_group_name_H-M   'P 1'
_cell_length_a   9.32568600
_cell_length_b   10.35899976
_cell_length_c   10.59302403
_cell_angle_alpha   100.04922298
_cell_angle_beta   114.53451280
_cell_angle_gamma   108.68118755
_symmetry_Int_Tables_number   1
_chemical_formula_structural   H15PdRuN9O11
_chemical_formula_sum   'H30 Pd2 Ru2 N18 O22'
_cell_volume   823.84439436
_cell_formula_units_Z   2
loop_
 _symmetry_equiv_pos_site_id
 _symmetry_equiv_pos_as_xyz
  1  'x, y, z'
loop_
 _atom_site_type_symbol
 _atom_site_label
 _atom_site_symmetry_multiplicity
 _atom_site_fract_x
 _atom_site_fract_y
 _atom_site_fract_z
 _atom_site_occupancy
  H  H0  1  0.26252200  0.12247700  0.75952300  1
  H  H1  1  0.73747800  0.87752300  0.24047700  1
  H  H2  1  0.27460900  0.41026500  0.95437600  1
  H  H3  1  0.72539100  0.58973500  0.04562400  1
  H  H4  1  0.32901600  0.37691700  0.82504700  1
  H  H5  1  0.67098400  0.62308300  0.17495300  1
  H  H6  1  0.21115300  0.46813500  0.81417900  1
  H  H7  1  0.78884700  0.53186500  0.18582100  1
  H  H8  1  0.01587200  0.13688700  0.96687100  1
  H  H9  1  0.98412800  0.86311300  0.03312900  1
  H  H10  1  0.04778400  0.00939800  0.87972800  1
  H  H11  1  0.95221600  0.99060200  0.12027200  1
  H  H12  1  0.21144400  0.17495300  0.98425600  1
  H  H13  1  0.78855600  0.82504700  0.01574400  1
  H  H14  1  0.67937300  0.95306400  0.58078800  1
  H  H15  1  0.32062700  0.04693600  0.41921200  1
  H  H16  1  0.78154400  0.92749500  0.48724400  1
  H  H17  1  0.21845600  0.07250500  0.51275600  1
  H  H18  1  0.82933200  0.89229400  0.64358500  1
  H  H19  1  0.17066800  0.10770600  0.35641500  1
  H  H20  1  0.04757500  0.30198900  0.52475600  1
  H  H21  1  0.95242500  0.69801100  0.47524400  1
  H  H22  1  0.91711000  0.12278300  0.43781300  1
  H  H23  1  0.08289000  0.87721700  0.56218700  1
  H  H24  1  0.83760300  0.23863300  0.47804000  1
  H  H25  1  0.16239700  0.76136700  0.52196000  1
  H  H26  1  0.05182900  0.77069000  0.80750600  1
  H  H27  1  0.94817100  0.22931000  0.19249400  1
  H  H28  1  0.86193800  0.71362900  0.78560700  1
  H  H29  1  0.13806200  0.28637100  0.21439300  1
  Pd  Pd0  1  0.50000000  0.50000000  0.50000000  1
  Pd  Pd1  1  0.50000000  0.00000000  0.00000000  1
  Ru  Ru0  1  0.00302300  0.17717300  0.71787700  1
  Ru  Ru1  1  0.99697700  0.82282700  0.28212300  1
  N  N0  1  0.88045400  0.25522700  0.76155300  1
  N  N1  1  0.11954600  0.74477300  0.23844700  1
  N  N2  1  0.56611700  0.48401100  0.70495200  1
  N  N3  1  0.43388300  0.51598900  0.29504800  1
  N  N4  1  0.33691400  0.58686500  0.51879900  1
  N  N5  1  0.66308600  0.41313500  0.48120100  1
  N  N6  1  0.56422700  0.01088800  0.83730300  1
  N  N7  1  0.43577300  0.98911200  0.16269700  1
  N  N8  1  0.40261400  0.77759400  0.92490000  1
  N  N9  1  0.59738600  0.22240600  0.07510000  1
  N  N10  1  0.23005000  0.38226900  0.84229900  1
  N  N11  1  0.76995000  0.61773100  0.15770100  1
  N  N12  1  0.07892200  0.11928200  0.91087800  1
  N  N13  1  0.92107800  0.88071800  0.08912200  1
  N  N14  1  0.79649500  0.96177100  0.59131100  1
  N  N15  1  0.20350500  0.03822900  0.40868900  1
  N  N16  1  0.94512200  0.21656900  0.51533600  1
  N  N17  1  0.05487800  0.78343100  0.48466400  1
  O  O0  1  0.14574400  0.08957400  0.67441300  1
  O  O1  1  0.85425600  0.91042600  0.32558700  1
  O  O2  1  0.81405600  0.31465700  0.80613400  1
  O  O3  1  0.18594400  0.68534300  0.19386600  1
  O  O4  1  0.70842700  0.57852800  0.81849000  1
  O  O5  1  0.29157300  0.42147200  0.18151000  1
  O  O6  1  0.46271800  0.38326500  0.71696700  1
  O  O7  1  0.53728200  0.61673500  0.28303300  1
  O  O8  1  0.37380400  0.71717800  0.53007000  1
  O  O9  1  0.62619600  0.28282200  0.46993000  1
  O  O10  1  0.20159600  0.50880500  0.51608500  1
  O  O11  1  0.79840400  0.49119500  0.48391500  1
  O  O12  1  0.47125200  0.03460700  0.72804000  1
  O  O13  1  0.52874800  0.96539300  0.27196000  1
  O  O14  1  0.69732900  0.99593800  0.85200800  1
  O  O15  1  0.30267100  0.00406200  0.14799200  1
  O  O16  1  0.50822100  0.72266900  0.96171900  1
  O  O17  1  0.49177900  0.27733100  0.03828100  1
  O  O18  1  0.24052800  0.69742500  0.84622800  1
  O  O19  1  0.75947200  0.30257500  0.15377200  1
  O  O20  1  0.95826300  0.79998600  0.79687600  1
  O  O21  1  0.04173700  0.20001400  0.20312400  1
loop_
_geom_bond_atom_site_label_1
_geom_bond_atom_site_label_2
_geom_bond_distance
_geom_bond_site_symmetry_2
H0 O0 0.977022 1_555
H1 O1 0.977022 1_555
H2 N10 1.029189 1_555
H3 N11 1.029189 1_555
H4 N10 1.028387 1_555
H5 N11 1.028387 1_555
H6 N10 1.029689 1_555
H7 N11 1.029689 1_555
H8 N12 1.025364 1_555
H9 N13 1.025364 1_555
H10 N12 1.032716 1_555
H11 N13 1.032716 1_555
H12 N12 1.026315 1_555
H13 N13 1.026315 1_555
H14 N14 1.022655 1_555
H15 N15 1.022655 1_555
H16 N14 1.031892 1_555
H17 N15 1.031892 1_555
H18 N14 1.028510 1_555
H19 N15 1.028510 1_555
H20 N16 1.026759 1_455
H21 N17 1.026759 1_655
H22 N16 1.033109 1_555
H23 N17 1.033109 1_555
H24 N16 1.031042 1_555
H25 N17 1.031042 1_555
H26 O20 0.982911 1_455
H27 O21 0.982911 1_655
H28 O20 0.990121 1_555
H29 O21 0.990121 1_555
N0 O2 1.170910 1_555
N0 Ru0 1.753586 1_655
N1 O3 1.170910 1_555
N1 Ru1 1.753586 1_455
N2 O6 1.240477 1_555
N2 O4 1.263923 1_555
N2 Pd0 2.049466 1_555
N3 O7 1.240477 1_555
N3 O5 1.263923 1_555
N3 Pd0 2.049466 1_555
N4 O10 1.247093 1_555
N4 O8 1.251804 1_555
N4 Pd0 2.056246 1_555
N5 O11 1.247093 1_555
N5 O9 1.251804 1_555
N5 Pd0 2.056246 1_555
N6 O12 1.246627 1_555
N6 O14 1.248992 1_545
N6 Pd1 2.055145 1_556
N7 O13 1.246627 1_555
N7 O15 1.248992 1_565
N7 Pd1 2.055145 1_565
N8 O16 1.250277 1_555
N8 O18 1.255855 1_555
N8 Pd1 2.045876 1_566
N9 O17 1.250277 1_555
N9 O19 1.255855 1_555
N9 Pd1 2.045876 1_555
N10 Ru0 2.134779 1_555
N11 Ru1 2.134779 1_555
N12 Ru0 2.130368 1_555
N13 Ru1 2.130368 1_555
N14 Ru0 2.131752 1_665
N15 Ru1 2.131752 1_445
N16 Ru0 2.132133 1_655
N17 Ru1 2.132133 1_455
O0 Ru0 1.985882 1_555
O1 Ru1 1.985882 1_555
