# generated using pymatgen
data_Li4MnCo2O7
_symmetry_space_group_name_H-M   'P 1'
_cell_length_a   5.13380100
_cell_length_b   6.49565708
_cell_length_c   7.73421544
_cell_angle_alpha   86.85863010
_cell_angle_beta   75.75282493
_cell_angle_gamma   83.98759229
_symmetry_Int_Tables_number   1
_chemical_formula_structural   Li4MnCo2O7
_chemical_formula_sum   'Li8 Mn2 Co4 O14'
_cell_volume   248.49553887
_cell_formula_units_Z   2
loop_
 _symmetry_equiv_pos_site_id
 _symmetry_equiv_pos_as_xyz
  1  'x, y, z'
loop_
 _atom_site_type_symbol
 _atom_site_label
 _atom_site_symmetry_multiplicity
 _atom_site_fract_x
 _atom_site_fract_y
 _atom_site_fract_z
 _atom_site_occupancy
  Li  Li0  1  0.91785100  0.15430500  0.63573300  1
  Li  Li1  1  0.64289300  0.70908200  0.22431000  1
  Li  Li2  1  0.50990000  0.99308000  0.49832300  1
  Li  Li3  1  0.21497700  0.56339700  0.07128100  1
  Li  Li4  1  0.06384400  0.85508600  0.36571000  1
  Li  Li5  1  0.78681100  0.42860500  0.92157600  1
  Li  Li6  1  0.36506900  0.29730800  0.77946000  1
  Li  Li7  1  0.71678600  0.56869200  0.57137400  1
  Mn  Mn0  1  0.00049200  0.00353300  0.00145500  1
  Mn  Mn1  1  0.57171500  0.85459700  0.85353200  1
  Co  Co0  1  0.42800600  0.14329600  0.14325400  1
  Co  Co1  1  0.13356600  0.70882700  0.71143700  1
  Co  Co2  1  0.85553900  0.28928300  0.28794600  1
  Co  Co3  1  0.28618400  0.43767600  0.43623100  1
  O  O0  1  0.26758700  0.98541000  0.76711300  1
  O  O1  1  0.96464800  0.54461600  0.31577100  1
  O  O2  1  0.82146500  0.85729100  0.62544600  1
  O  O3  1  0.55221900  0.40133700  0.18925000  1
  O  O4  1  0.36432800  0.70690500  0.47542400  1
  O  O5  1  0.08230000  0.27618000  0.04930300  1
  O  O6  1  0.65226800  0.13315200  0.90311700  1
  O  O7  1  0.61452300  0.28509000  0.50921700  1
  O  O8  1  0.34904400  0.86796300  0.10021400  1
  O  O9  1  0.17046100  0.16385800  0.37141600  1
  O  O10  1  0.88469300  0.73459600  0.94587300  1
  O  O11  1  0.77298300  0.01239100  0.24394100  1
  O  O12  1  0.45806300  0.59507600  0.82404500  1
  O  O13  1  0.05178700  0.42936700  0.67824900  1
loop_
_geom_bond_atom_site_label_1
_geom_bond_atom_site_label_2
_geom_bond_distance
_geom_bond_site_symmetry_2
Li0 O13 2.050926 1_655
Li0 O2 2.051726 1_545
Li0 O7 2.117992 1_555
Li0 O9 2.136073 1_655
Li0 O6 2.185126 1_555
Li0 O0 2.413090 1_645
Li1 O4 2.109862 1_555
Li1 O1 2.119633 1_555
Li1 O8 2.130729 1_555
Li1 O3 2.145395 1_555
Li1 O11 2.170041 1_565
Li1 O10 2.212269 1_554
Li2 O7 2.036331 1_565
Li2 O11 2.100297 1_565
Li2 O4 2.106567 1_555
Li2 O0 2.144866 1_555
Li2 O2 2.164851 1_555
Li2 O9 2.355475 1_565
Li3 O1 2.013341 1_455
Li3 O12 2.022933 1_554
Li3 O5 2.081225 1_555
Li3 O8 2.201651 1_555
Li3 O3 2.286612 1_555
Li3 O10 2.312748 1_454
Li4 O4 2.066382 1_555
Li4 O2 2.086409 1_455
Li4 O11 2.104245 1_465
Li4 O9 2.139123 1_565
Li4 O1 2.207477 1_455
Li4 O8 2.212288 1_555
Li5 O13 2.032865 1_655
Li5 O10 2.129573 1_555
Li5 O6 2.130004 1_555
Li5 O3 2.131906 1_556
Li5 O5 2.138502 1_656
Li5 O12 2.177531 1_555
Li6 O13 2.047531 1_555
Li6 O12 2.106070 1_555
Li6 O6 2.116260 1_555
Li6 O0 2.149722 1_545
Li6 O7 2.166641 1_555
Li6 O5 2.236286 1_556
Li7 O1 2.075032 1_555
Li7 O12 2.079406 1_555
Li7 O7 2.079484 1_555
Li7 O2 2.094173 1_555
Li7 O13 2.179859 1_655
Li7 O4 2.208718 1_555
Mn0 O5 1.937525 1_555
Mn0 O11 1.950472 1_455
Mn0 O0 1.986293 1_544
Mn0 O10 2.003899 1_444
Mn0 O6 2.183351 1_454
Mn0 O8 2.197674 1_545
Mn1 O12 1.883590 1_555
Mn1 O2 1.908981 1_555
Mn1 O0 1.944222 1_555
Mn1 O8 1.969321 1_556
Mn1 O6 1.975570 1_565
Mn1 O10 1.985144 1_555
Co0 O9 1.928841 1_555
Co0 O6 1.929858 1_554
Co0 O3 1.934834 1_555
Co0 O8 1.938377 1_545
Co0 O5 2.160562 1_555
Co0 O11 2.181021 1_555
Co1 O4 1.915888 1_555
Co1 O10 1.948397 1_455
Co1 O13 1.949652 1_555
Co1 O2 2.017450 1_455
Co1 O0 2.091918 1_555
Co1 O12 2.113166 1_555
Co2 O1 1.844981 1_555
Co2 O7 1.849367 1_555
Co2 O5 1.925618 1_655
Co2 O3 1.955513 1_555
Co2 O11 1.956576 1_555
Co2 O9 1.968390 1_655
Co3 O4 1.891065 1_555
Co3 O13 1.961764 1_555
Co3 O7 2.049242 1_555
Co3 O9 2.057532 1_555
Co3 O3 2.065836 1_555
Co3 O1 2.126306 1_455
