# generated using pymatgen
data_Eu3As4
_symmetry_space_group_name_H-M   'P 1'
_cell_length_a   5.80568754
_cell_length_b   7.89476700
_cell_length_c   9.17248657
_cell_angle_alpha   83.31722529
_cell_angle_beta   71.55198105
_cell_angle_gamma   68.42119865
_symmetry_Int_Tables_number   1
_chemical_formula_structural   Eu3As4
_chemical_formula_sum   'Eu6 As8'
_cell_volume   370.86036558
_cell_formula_units_Z   2
loop_
 _symmetry_equiv_pos_site_id
 _symmetry_equiv_pos_as_xyz
  1  'x, y, z'
loop_
 _atom_site_type_symbol
 _atom_site_label
 _atom_site_symmetry_multiplicity
 _atom_site_fract_x
 _atom_site_fract_y
 _atom_site_fract_z
 _atom_site_occupancy
  Eu  Eu0  1  0.74640084  0.50003305  0.50003304  1
  Eu  Eu1  1  0.99647105  0.99999895  0.00004575  1
  Eu  Eu2  1  0.44684642  0.49394899  0.16807745  1
  Eu  Eu3  1  0.10894542  0.50627027  0.83194073  1
  Eu  Eu4  1  0.69079433  0.00623058  0.66806051  1
  Eu  Eu5  1  0.36488015  0.99400159  0.33189702  1
  As  As0  1  0.86277908  0.66768524  0.16338036  1
  As  As1  1  0.69456663  0.33196636  0.83671465  1
  As  As2  1  0.28080641  0.83227508  0.66307320  1
  As  As3  1  0.77633828  0.16753870  0.33686050  1
  As  As4  1  0.32991452  0.32189893  0.50651621  1
  As  As5  1  0.15854176  0.67792198  0.49343554  1
  As  As6  1  0.40196743  0.17808127  0.00654393  1
  As  As7  1  0.58674569  0.82214902  0.99342010  1
loop_
_geom_bond_atom_site_label_1
_geom_bond_atom_site_label_2
_geom_bond_distance
_geom_bond_site_symmetry_2
As0 As7 2.487339 1_554
As0 Eu1 3.094678 1_555
As0 Eu3 3.117861 1_654
As0 Eu5 3.162783 1_555
As0 Eu2 3.168448 1_655
As0 Eu2 3.173479 1_555
As0 Eu0 3.182741 1_555
As1 As6 2.488187 1_556
As1 Eu1 3.091022 1_546
As1 Eu2 3.118835 1_556
As1 Eu4 3.161576 1_555
As1 Eu3 3.168216 1_655
As1 Eu3 3.177087 1_555
As1 Eu0 3.184330 1_555
As2 As5 2.487271 1_555
As2 Eu0 3.092330 1_555
As2 Eu5 3.116638 1_555
As2 Eu3 3.162562 1_555
As2 Eu4 3.168882 1_565
As2 Eu4 3.174408 1_465
As2 Eu1 3.185504 1_456
As3 As4 2.487904 1_555
As3 Eu0 3.094338 1_555
As3 Eu4 3.115661 1_555
As3 Eu2 3.164887 1_555
As3 Eu5 3.166531 1_645
As3 Eu5 3.174282 1_545
As3 Eu1 3.183741 1_545
As4 As5 2.616201 1_555
As4 Eu5 3.111359 1_545
As4 Eu3 3.144608 1_555
As4 Eu4 3.171860 1_555
As4 Eu0 3.171980 1_455
As4 Eu0 3.196680 1_555
As4 Eu2 3.210260 1_555
As5 Eu4 3.113545 1_465
As5 Eu2 3.142719 1_555
As5 Eu0 3.172006 1_455
As5 Eu5 3.173688 1_555
As5 Eu0 3.195210 1_555
As5 Eu3 3.209649 1_555
As6 As7 2.615549 1_544
As6 Eu3 3.112641 1_554
As6 Eu5 3.143001 1_545
As6 Eu2 3.172376 1_555
As6 Eu1 3.172572 1_445
As6 Eu1 3.195778 1_545
As6 Eu4 3.209973 1_554
As7 Eu2 3.114190 1_556
As7 Eu4 3.143034 1_565
As7 Eu3 3.171864 1_655
As7 Eu1 3.172990 1_456
As7 Eu1 3.193998 1_556
As7 Eu5 3.209804 1_556
