# generated using pymatgen
data_MgBi2
_symmetry_space_group_name_H-M   'P 1'
_cell_length_a   13.30906476
_cell_length_b   13.30906476
_cell_length_c   16.80665978
_cell_angle_alpha   71.72447819
_cell_angle_beta   71.72447819
_cell_angle_gamma   29.56233019
_symmetry_Int_Tables_number   1
_chemical_formula_structural   MgBi2
_chemical_formula_sum   'Mg16 Bi32'
_cell_volume   1389.36516331
_cell_formula_units_Z   16
loop_
 _symmetry_equiv_pos_site_id
 _symmetry_equiv_pos_as_xyz
  1  'x, y, z'
loop_
 _atom_site_type_symbol
 _atom_site_label
 _atom_site_symmetry_multiplicity
 _atom_site_fract_x
 _atom_site_fract_y
 _atom_site_fract_z
 _atom_site_occupancy
  Mg  Mg0_0  1  0.26474500  0.26474500  0.09739950  1
  Mg  Mg0_1  1  0.26474500  0.26474500  0.59739950  1
  Mg  Mg0_2  1  0.26474500  0.76474500  0.09739950  1
  Mg  Mg0_3  1  0.26474500  0.76474500  0.59739950  1
  Mg  Mg0_4  1  0.76474500  0.26474500  0.09739950  1
  Mg  Mg0_5  1  0.76474500  0.26474500  0.59739950  1
  Mg  Mg0_6  1  0.76474500  0.76474500  0.09739950  1
  Mg  Mg0_7  1  0.76474500  0.76474500  0.59739950  1
  Mg  Mg1_0  1  0.23525500  0.23525500  0.40260050  1
  Mg  Mg1_1  1  0.23525500  0.23525500  0.90260050  1
  Mg  Mg1_2  1  0.23525500  0.73525500  0.40260050  1
  Mg  Mg1_3  1  0.23525500  0.73525500  0.90260050  1
  Mg  Mg1_4  1  0.73525500  0.23525500  0.40260050  1
  Mg  Mg1_5  1  0.73525500  0.23525500  0.90260050  1
  Mg  Mg1_6  1  0.73525500  0.73525500  0.40260050  1
  Mg  Mg1_7  1  0.73525500  0.73525500  0.90260050  1
  Bi  Bi0_0  1  0.41160750  0.41160750  0.05859300  1
  Bi  Bi0_1  1  0.41160750  0.41160750  0.55859300  1
  Bi  Bi0_2  1  0.41160750  0.91160750  0.05859300  1
  Bi  Bi0_3  1  0.41160750  0.91160750  0.55859300  1
  Bi  Bi0_4  1  0.91160750  0.41160750  0.05859300  1
  Bi  Bi0_5  1  0.91160750  0.41160750  0.55859300  1
  Bi  Bi0_6  1  0.91160750  0.91160750  0.05859300  1
  Bi  Bi0_7  1  0.91160750  0.91160750  0.55859300  1
  Bi  Bi1_0  1  0.06320500  0.06320500  0.24494600  1
  Bi  Bi1_1  1  0.06320500  0.06320500  0.74494600  1
  Bi  Bi1_2  1  0.06320500  0.56320500  0.24494600  1
  Bi  Bi1_3  1  0.06320500  0.56320500  0.74494600  1
  Bi  Bi1_4  1  0.56320500  0.06320500  0.24494600  1
  Bi  Bi1_5  1  0.56320500  0.06320500  0.74494600  1
  Bi  Bi1_6  1  0.56320500  0.56320500  0.24494600  1
  Bi  Bi1_7  1  0.56320500  0.56320500  0.74494600  1
  Bi  Bi2_0  1  0.43679500  0.43679500  0.25505400  1
  Bi  Bi2_1  1  0.43679500  0.43679500  0.75505400  1
  Bi  Bi2_2  1  0.43679500  0.93679500  0.25505400  1
  Bi  Bi2_3  1  0.43679500  0.93679500  0.75505400  1
  Bi  Bi2_4  1  0.93679500  0.43679500  0.25505400  1
  Bi  Bi2_5  1  0.93679500  0.43679500  0.75505400  1
  Bi  Bi2_6  1  0.93679500  0.93679500  0.25505400  1
  Bi  Bi2_7  1  0.93679500  0.93679500  0.75505400  1
  Bi  Bi3_0  1  0.08839250  0.08839250  0.44140700  1
  Bi  Bi3_1  1  0.08839250  0.08839250  0.94140700  1
  Bi  Bi3_2  1  0.08839250  0.58839250  0.44140700  1
  Bi  Bi3_3  1  0.08839250  0.58839250  0.94140700  1
  Bi  Bi3_4  1  0.58839250  0.08839250  0.44140700  1
  Bi  Bi3_5  1  0.58839250  0.08839250  0.94140700  1
  Bi  Bi3_6  1  0.58839250  0.58839250  0.44140700  1
  Bi  Bi3_7  1  0.58839250  0.58839250  0.94140700  1
loop_
_geom_bond_atom_site_label_1
_geom_bond_atom_site_label_2
_geom_bond_distance
_geom_bond_site_symmetry_2
Mg0_0 Mg0_6 3.395514 1_545
Mg0_0 Mg0_6 3.395514 1_455
Mg0_0 Mg1_1 3.592550 1_554
Mg0_1 Mg0_7 3.395514 1_455
Mg0_1 Mg0_7 3.395514 1_545
Mg0_1 Mg1_0 3.592550 1_555
Mg0_2 Mg0_4 3.395514 1_555
Mg0_2 Mg0_4 3.395514 1_465
Mg0_2 Mg1_3 3.592550 1_554
Mg0_3 Mg0_5 3.395514 1_555
Mg0_3 Mg0_5 3.395514 1_465
Mg0_3 Mg1_2 3.592550 1_555
Mg0_4 Mg1_5 3.592550 1_554
Mg0_5 Mg1_4 3.592550 1_555
Mg0_6 Mg1_7 3.592550 1_554
Mg0_7 Mg1_6 3.592550 1_555
Mg1_0 Mg1_6 3.395514 1_455
Mg1_0 Mg1_6 3.395514 1_545
Mg1_1 Mg1_7 3.395514 1_545
Mg1_1 Mg1_7 3.395514 1_455
Mg1_2 Mg1_4 3.395514 1_555
Mg1_2 Mg1_4 3.395514 1_465
Mg1_3 Mg1_5 3.395514 1_555
Mg1_3 Mg1_5 3.395514 1_465
Bi0_0 Mg1_5 3.182022 1_554
Bi0_0 Mg1_3 3.182022 1_554
Bi0_0 Mg0_2 3.387768 1_555
Bi0_0 Mg0_4 3.387768 1_555
Bi0_0 Bi0_6 3.395514 1_455
Bi0_0 Bi0_6 3.395514 1_545
Bi0_0 Bi2_0 3.565228 1_555
Bi0_0 Bi3_5 3.566423 1_554
Bi0_0 Bi3_3 3.566423 1_554
Bi0_0 Mg0_0 3.621258 1_555
Bi0_0 Bi1_2 3.736402 1_555
Bi0_0 Bi1_4 3.736402 1_555
Bi0_1 Mg1_4 3.182022 1_555
Bi0_1 Mg1_2 3.182022 1_555
Bi0_1 Mg0_3 3.387768 1_555
Bi0_1 Mg0_5 3.387768 1_555
Bi0_1 Bi0_7 3.395514 1_455
Bi0_1 Bi0_7 3.395514 1_545
Bi0_1 Bi2_1 3.565228 1_555
Bi0_1 Bi3_4 3.566423 1_555
Bi0_1 Bi3_2 3.566423 1_555
Bi0_1 Mg0_1 3.621258 1_555
Bi0_1 Bi1_3 3.736402 1_555
Bi0_1 Bi1_5 3.736402 1_555
Bi0_2 Mg1_1 3.182022 1_564
Bi0_2 Mg1_7 3.182022 1_554
Bi0_2 Mg0_0 3.387768 1_565
Bi0_2 Mg0_6 3.387768 1_555
Bi0_2 Bi0_4 3.395514 1_465
Bi0_2 Bi0_4 3.395514 1_555
Bi0_2 Bi2_2 3.565228 1_555
Bi0_2 Bi3_1 3.566423 1_564
Bi0_2 Bi3_7 3.566423 1_554
Bi0_2 Mg0_2 3.621258 1_555
Bi0_2 Bi1_0 3.736402 1_565
Bi0_2 Bi1_6 3.736402 1_555
Bi0_3 Mg1_0 3.182022 1_565
Bi0_3 Mg1_6 3.182022 1_555
Bi0_3 Mg0_7 3.387768 1_555
Bi0_3 Mg0_1 3.387768 1_565
Bi0_3 Bi0_5 3.395514 1_555
Bi0_3 Bi0_5 3.395514 1_465
Bi0_3 Bi2_3 3.565228 1_555
Bi0_3 Bi3_6 3.566423 1_555
Bi0_3 Bi3_0 3.566423 1_565
Bi0_3 Mg0_3 3.621258 1_555
Bi0_3 Bi1_7 3.736402 1_555
Bi0_3 Bi1_1 3.736402 1_565
Bi0_4 Mg1_1 3.182022 1_654
Bi0_4 Mg1_7 3.182022 1_554
Bi0_4 Mg0_0 3.387768 1_655
Bi0_4 Mg0_6 3.387768 1_555
Bi0_4 Bi2_4 3.565228 1_555
Bi0_4 Bi3_1 3.566423 1_654
Bi0_4 Bi3_7 3.566423 1_554
Bi0_4 Mg0_4 3.621258 1_555
Bi0_4 Bi1_0 3.736402 1_655
Bi0_4 Bi1_6 3.736402 1_555
Bi0_5 Mg1_0 3.182022 1_655
Bi0_5 Mg1_6 3.182022 1_555
Bi0_5 Mg0_7 3.387768 1_555
Bi0_5 Mg0_1 3.387768 1_655
Bi0_5 Bi2_5 3.565228 1_555
Bi0_5 Bi3_6 3.566423 1_555
Bi0_5 Bi3_0 3.566423 1_655
Bi0_5 Mg0_5 3.621258 1_555
Bi0_5 Bi1_7 3.736402 1_555
Bi0_5 Bi1_1 3.736402 1_655
Bi0_6 Mg1_5 3.182022 1_564
Bi0_6 Mg1_3 3.182022 1_654
Bi0_6 Mg0_4 3.387768 1_565
Bi0_6 Mg0_2 3.387768 1_655
Bi0_6 Bi2_6 3.565228 1_555
Bi0_6 Bi3_5 3.566423 1_564
Bi0_6 Bi3_3 3.566423 1_654
Bi0_6 Mg0_6 3.621258 1_555
Bi0_6 Bi1_2 3.736402 1_655
Bi0_6 Bi1_4 3.736402 1_565
Bi0_7 Mg1_2 3.182022 1_655
Bi0_7 Mg1_4 3.182022 1_565
Bi0_7 Mg0_5 3.387768 1_565
Bi0_7 Mg0_3 3.387768 1_655
Bi0_7 Bi2_7 3.565228 1_555
Bi0_7 Bi3_2 3.566423 1_655
Bi0_7 Bi3_4 3.566423 1_565
Bi0_7 Mg0_7 3.621258 1_555
Bi0_7 Bi1_5 3.736402 1_565
Bi0_7 Bi1_3 3.736402 1_655
Bi1_0 Bi2_6 3.202386 1_445
Bi1_0 Mg1_4 3.237268 1_455
Bi1_0 Mg1_2 3.237268 1_545
Bi1_0 Bi1_6 3.395514 1_545
Bi1_0 Bi1_6 3.395514 1_455
Bi1_0 Mg0_2 3.548706 1_545
Bi1_0 Mg0_4 3.548706 1_455
Bi1_0 Bi3_0 3.565228 1_555
Bi1_0 Bi2_2 3.657823 1_545
Bi1_0 Bi2_4 3.657823 1_455
Bi1_1 Bi2_7 3.202386 1_445
Bi1_1 Mg1_5 3.237268 1_455
Bi1_1 Mg1_3 3.237268 1_545
Bi1_1 Bi1_7 3.395514 1_545
Bi1_1 Bi1_7 3.395514 1_455
Bi1_1 Mg0_3 3.548706 1_545
Bi1_1 Mg0_5 3.548706 1_455
Bi1_1 Bi3_1 3.565228 1_555
Bi1_1 Bi2_5 3.657823 1_455
Bi1_1 Bi2_3 3.657823 1_545
Bi1_2 Bi2_4 3.202386 1_455
Bi1_2 Mg1_6 3.237268 1_455
Bi1_2 Mg1_0 3.237268 1_555
Bi1_2 Bi1_4 3.395514 1_555
Bi1_2 Bi1_4 3.395514 1_465
Bi1_2 Mg0_6 3.548706 1_455
Bi1_2 Mg0_0 3.548706 1_555
Bi1_2 Bi3_2 3.565228 1_555
Bi1_2 Bi2_0 3.657823 1_555
Bi1_2 Bi2_6 3.657823 1_455
Bi1_3 Bi2_5 3.202386 1_455
Bi1_3 Mg1_7 3.237268 1_455
Bi1_3 Mg1_1 3.237268 1_555
Bi1_3 Bi1_5 3.395514 1_465
Bi1_3 Bi1_5 3.395514 1_555
Bi1_3 Mg0_1 3.548706 1_555
Bi1_3 Mg0_7 3.548706 1_455
Bi1_3 Bi3_3 3.565228 1_555
Bi1_3 Bi2_7 3.657823 1_455
Bi1_3 Bi2_1 3.657823 1_555
Bi1_4 Bi2_2 3.202386 1_545
Bi1_4 Mg1_6 3.237268 1_545
Bi1_4 Mg1_0 3.237268 1_555
Bi1_4 Mg0_6 3.548706 1_545
Bi1_4 Mg0_0 3.548706 1_555
Bi1_4 Bi3_4 3.565228 1_555
Bi1_4 Bi2_6 3.657823 1_545
Bi1_4 Bi2_0 3.657823 1_555
Bi1_5 Bi2_3 3.202386 1_545
Bi1_5 Mg1_7 3.237268 1_545
Bi1_5 Mg1_1 3.237268 1_555
Bi1_5 Mg0_1 3.548706 1_555
Bi1_5 Mg0_7 3.548706 1_545
Bi1_5 Bi3_5 3.565228 1_555
Bi1_5 Bi2_7 3.657823 1_545
Bi1_5 Bi2_1 3.657823 1_555
Bi1_6 Bi2_0 3.202386 1_555
Bi1_6 Mg1_2 3.237268 1_555
Bi1_6 Mg1_4 3.237268 1_555
Bi1_6 Mg0_2 3.548706 1_555
Bi1_6 Mg0_4 3.548706 1_555
Bi1_6 Bi3_6 3.565228 1_555
Bi1_6 Bi2_2 3.657823 1_555
Bi1_6 Bi2_4 3.657823 1_555
Bi1_7 Bi2_1 3.202386 1_555
Bi1_7 Mg1_3 3.237268 1_555
Bi1_7 Mg1_5 3.237268 1_555
Bi1_7 Mg0_5 3.548706 1_555
Bi1_7 Mg0_3 3.548706 1_555
Bi1_7 Bi3_7 3.565228 1_555
Bi1_7 Bi2_5 3.657823 1_555
Bi1_7 Bi2_3 3.657823 1_555
Bi2_0 Mg0_4 3.237268 1_555
Bi2_0 Mg0_2 3.237268 1_555
Bi2_0 Bi2_6 3.395514 1_545
Bi2_0 Bi2_6 3.395514 1_455
Bi2_0 Mg1_4 3.548706 1_555
Bi2_0 Mg1_2 3.548706 1_555
Bi2_0 Bi3_2 3.736402 1_555
Bi2_0 Bi3_4 3.736402 1_555
Bi2_1 Mg0_3 3.237268 1_555
Bi2_1 Mg0_5 3.237268 1_555
Bi2_1 Bi2_7 3.395514 1_545
Bi2_1 Bi2_7 3.395514 1_455
Bi2_1 Mg1_3 3.548706 1_555
Bi2_1 Mg1_5 3.548706 1_555
Bi2_1 Bi3_3 3.736402 1_555
Bi2_1 Bi3_5 3.736402 1_555
Bi2_2 Mg0_0 3.237268 1_565
Bi2_2 Mg0_6 3.237268 1_555
Bi2_2 Bi2_4 3.395514 1_555
Bi2_2 Bi2_4 3.395514 1_465
Bi2_2 Mg1_0 3.548706 1_565
Bi2_2 Mg1_6 3.548706 1_555
Bi2_2 Bi3_6 3.736402 1_555
Bi2_2 Bi3_0 3.736402 1_565
Bi2_3 Mg0_1 3.237268 1_565
Bi2_3 Mg0_7 3.237268 1_555
Bi2_3 Bi2_5 3.395514 1_465
Bi2_3 Bi2_5 3.395514 1_555
Bi2_3 Mg1_1 3.548706 1_565
Bi2_3 Mg1_7 3.548706 1_555
Bi2_3 Bi3_1 3.736402 1_565
Bi2_3 Bi3_7 3.736402 1_555
Bi2_4 Mg0_0 3.237268 1_655
Bi2_4 Mg0_6 3.237268 1_555
Bi2_4 Mg1_0 3.548706 1_655
Bi2_4 Mg1_6 3.548706 1_555
Bi2_4 Bi3_6 3.736402 1_555
Bi2_4 Bi3_0 3.736402 1_655
Bi2_5 Mg0_1 3.237268 1_655
Bi2_5 Mg0_7 3.237268 1_555
Bi2_5 Mg1_1 3.548706 1_655
Bi2_5 Mg1_7 3.548706 1_555
Bi2_5 Bi3_1 3.736402 1_655
Bi2_5 Bi3_7 3.736402 1_555
Bi2_6 Mg0_2 3.237268 1_655
Bi2_6 Mg0_4 3.237268 1_565
Bi2_6 Mg1_4 3.548706 1_565
Bi2_6 Mg1_2 3.548706 1_655
Bi2_6 Bi3_4 3.736402 1_565
Bi2_6 Bi3_2 3.736402 1_655
Bi2_7 Mg0_5 3.237268 1_565
Bi2_7 Mg0_3 3.237268 1_655
Bi2_7 Mg1_5 3.548706 1_565
Bi2_7 Mg1_3 3.548706 1_655
Bi2_7 Bi3_3 3.736402 1_655
Bi2_7 Bi3_5 3.736402 1_565
Bi3_0 Mg0_5 3.182022 1_455
Bi3_0 Mg0_3 3.182022 1_545
Bi3_0 Mg1_2 3.387768 1_545
Bi3_0 Mg1_4 3.387768 1_455
Bi3_0 Bi3_6 3.395514 1_545
Bi3_0 Bi3_6 3.395514 1_455
Bi3_0 Mg1_0 3.621258 1_555
Bi3_1 Mg0_4 3.182022 1_456
Bi3_1 Mg0_2 3.182022 1_546
Bi3_1 Mg1_3 3.387768 1_545
Bi3_1 Mg1_5 3.387768 1_455
Bi3_1 Bi3_7 3.395514 1_545
Bi3_1 Bi3_7 3.395514 1_455
Bi3_1 Mg1_1 3.621258 1_555
Bi3_2 Mg0_1 3.182022 1_555
Bi3_2 Mg0_7 3.182022 1_455
Bi3_2 Mg1_6 3.387768 1_455
Bi3_2 Mg1_0 3.387768 1_555
Bi3_2 Bi3_4 3.395514 1_555
Bi3_2 Bi3_4 3.395514 1_465
Bi3_2 Mg1_2 3.621258 1_555
Bi3_3 Mg0_0 3.182022 1_556
Bi3_3 Mg0_6 3.182022 1_456
Bi3_3 Mg1_7 3.387768 1_455
Bi3_3 Mg1_1 3.387768 1_555
Bi3_3 Bi3_5 3.395514 1_555
Bi3_3 Bi3_5 3.395514 1_465
Bi3_3 Mg1_3 3.621258 1_555
Bi3_4 Mg0_1 3.182022 1_555
Bi3_4 Mg0_7 3.182022 1_545
Bi3_4 Mg1_6 3.387768 1_545
Bi3_4 Mg1_0 3.387768 1_555
Bi3_4 Mg1_4 3.621258 1_555
Bi3_5 Mg0_6 3.182022 1_546
Bi3_5 Mg0_0 3.182022 1_556
Bi3_5 Mg1_7 3.387768 1_545
Bi3_5 Mg1_1 3.387768 1_555
Bi3_5 Mg1_5 3.621258 1_555
Bi3_6 Mg0_5 3.182022 1_555
Bi3_6 Mg0_3 3.182022 1_555
Bi3_6 Mg1_2 3.387768 1_555
Bi3_6 Mg1_4 3.387768 1_555
Bi3_6 Mg1_6 3.621258 1_555
Bi3_7 Mg0_4 3.182022 1_556
Bi3_7 Mg0_2 3.182022 1_556
Bi3_7 Mg1_5 3.387768 1_555
Bi3_7 Mg1_3 3.387768 1_555
Bi3_7 Mg1_7 3.621258 1_555
