# generated using pymatgen
data_BaSrPrSnO6
_symmetry_space_group_name_H-M   'P 1'
_cell_length_a   8.72808196
_cell_length_b   8.72784733
_cell_length_c   8.69772480
_cell_angle_alpha   90.00000000
_cell_angle_beta   90.00000000
_cell_angle_gamma   90.00000000
_symmetry_Int_Tables_number   1
_chemical_formula_structural   BaSrPrSnO6
_chemical_formula_sum   'Ba4 Sr4 Pr4 Sn4 O24'
_cell_volume   662.56977268
_cell_formula_units_Z   4
loop_
 _symmetry_equiv_pos_site_id
 _symmetry_equiv_pos_as_xyz
  1  'x, y, z'
loop_
 _atom_site_type_symbol
 _atom_site_label
 _atom_site_symmetry_multiplicity
 _atom_site_fract_x
 _atom_site_fract_y
 _atom_site_fract_z
 _atom_site_occupancy
  Ba  Ba0  1  -0.00000000  -0.00000000  0.00000000  1
  Ba  Ba1  1  0.50000000  0.50000000  0.50000000  1
  Ba  Ba2  1  0.50000000  0.00000000  0.00000000  1
  Ba  Ba3  1  -0.00000000  -0.00000000  0.50000000  1
  Sr  Sr0  1  -0.00000000  0.50000000  0.50000000  1
  Sr  Sr1  1  0.50000000  0.00000000  0.50000000  1
  Sr  Sr2  1  0.50000000  0.50000000  0.00000000  1
  Sr  Sr3  1  -0.00000000  0.50000000  0.00000000  1
  Pr  Pr0  1  0.74845753  0.74678553  0.74981480  1
  Pr  Pr1  1  0.25154247  0.25321447  0.74981480  1
  Pr  Pr2  1  0.25154247  0.74678553  0.25018520  1
  Pr  Pr3  1  0.74845753  0.25321447  0.25018520  1
  Sn  Sn0  1  0.25157231  0.25389262  0.25030222  1
  Sn  Sn1  1  0.74842769  0.74610738  0.25030222  1
  Sn  Sn2  1  0.74842769  0.25389262  0.74969778  1
  Sn  Sn3  1  0.25157231  0.74610738  0.74969778  1
  O  O0  1  0.01543599  0.21807170  0.28000759  1
  O  O1  1  0.98456401  0.78192830  0.28000759  1
  O  O2  1  0.98456401  0.21807170  0.71999241  1
  O  O3  1  0.01543599  0.78192830  0.71999241  1
  O  O4  1  0.27841832  0.01596925  0.21874280  1
  O  O5  1  0.27841832  0.98403075  0.78125720  1
  O  O6  1  0.72158168  0.98403075  0.21874280  1
  O  O7  1  0.72158168  0.01596925  0.78125720  1
  O  O8  1  0.20897422  0.28834276  0.01511822  1
  O  O9  1  0.79102578  0.28834276  0.98488178  1
  O  O10  1  0.20897422  0.71165724  0.98488178  1
  O  O11  1  0.79102578  0.71165724  0.01511822  1
  O  O12  1  0.48430888  0.29442089  0.21048725  1
  O  O13  1  0.51569112  0.70557911  0.21048725  1
  O  O14  1  0.51569112  0.29442089  0.78951275  1
  O  O15  1  0.48430888  0.70557911  0.78951275  1
  O  O16  1  0.20970081  0.48518142  0.29468602  1
  O  O17  1  0.20970081  0.51481858  0.70531398  1
  O  O18  1  0.79029919  0.51481858  0.29468602  1
  O  O19  1  0.79029919  0.48518142  0.70531398  1
  O  O20  1  0.29398807  0.21334178  0.48466468  1
  O  O21  1  0.70601193  0.21334178  0.51533532  1
  O  O22  1  0.29398807  0.78665822  0.51533532  1
  O  O23  1  0.70601193  0.78665822  0.48466468  1
loop_
_geom_bond_atom_site_label_1
_geom_bond_atom_site_label_2
_geom_bond_distance
_geom_bond_site_symmetry_2
Ba0 O4 3.089395 1_555
Ba0 O6 3.089395 1_445
Ba0 O5 3.089395 1_544
Ba0 O7 3.089395 1_454
Ba0 O0 3.093865 1_555
Ba0 O2 3.093865 1_454
Ba0 O3 3.093865 1_544
Ba0 O1 3.093865 1_445
Ba0 O8 3.110851 1_555
Ba0 O9 3.110851 1_454
Ba0 O11 3.110851 1_445
Ba0 O10 3.110851 1_544
Ba1 O21 3.083904 1_555
Ba1 O23 3.083904 1_555
Ba1 O20 3.083904 1_555
Ba1 O22 3.083904 1_555
Ba1 O14 3.094992 1_555
Ba1 O13 3.094992 1_555
Ba1 O12 3.094992 1_555
Ba1 O15 3.094992 1_555
Ba1 O17 3.102515 1_555
Ba1 O18 3.102515 1_555
Ba1 O19 3.102515 1_555
Ba1 O16 3.102515 1_555
Ba2 O4 2.716518 1_555
Ba2 O6 2.716518 1_545
Ba2 O7 2.716518 1_554
Ba2 O5 2.716518 1_544
Ba2 O12 3.158100 1_555
Ba2 O14 3.158100 1_554
Ba2 O13 3.158100 1_545
Ba2 O15 3.158100 1_544
Ba3 O1 2.702206 1_445
Ba3 O2 2.702206 1_455
Ba3 O3 2.702206 1_545
Ba3 O0 2.702206 1_555
Ba3 O22 3.173168 1_545
Ba3 O21 3.173168 1_455
Ba3 O20 3.173168 1_555
Ba3 O23 3.173168 1_445
O0 Sn0 2.100545 1_555
O0 Pr3 2.364580 1_455
O0 Sr0 3.119946 1_555
O1 Sn1 2.100545 1_555
O1 Pr2 2.364580 1_655
O1 Sr0 3.119946 1_655
O2 Sn2 2.100545 1_555
O2 Pr1 2.364580 1_655
O2 Sr0 3.119946 1_655
O3 Sn3 2.100545 1_555
O3 Pr0 2.364580 1_455
O3 Sr0 3.119946 1_555
O4 Sn0 2.107688 1_555
O4 Pr2 2.376861 1_545
O4 Sr1 3.121552 1_555
O5 Sn3 2.107688 1_555
O5 Pr1 2.376861 1_565
O5 Sr1 3.121552 1_565
O6 Sn1 2.107688 1_555
O6 Pr3 2.376861 1_565
O6 Sr1 3.121552 1_565
O7 Sn2 2.107688 1_555
O7 Pr0 2.376861 1_545
O7 Sr1 3.121552 1_555
O8 Sn0 2.100709 1_555
O8 Pr1 2.357279 1_554
O8 Sr3 2.599351 1_555
O8 Sr2 3.143556 1_555
O9 Sn2 2.100709 1_555
O9 Pr3 2.357279 1_556
O9 Sr3 2.599351 1_656
O9 Sr2 3.143556 1_556
O10 Sn3 2.100709 1_555
O10 Pr2 2.357279 1_556
O10 Sr3 2.599351 1_556
O10 Sr2 3.143556 1_556
O11 Sn1 2.100709 1_555
O11 Pr0 2.357279 1_554
O11 Sr3 2.599351 1_655
O11 Sr2 3.143556 1_555
O12 Sn0 2.090790 1_555
O12 Pr3 2.358801 1_555
O12 Sr2 2.567064 1_555
O13 Sn1 2.090790 1_555
O13 Pr2 2.358801 1_555
O13 Sr2 2.567064 1_555
O14 Sn2 2.090790 1_555
O14 Pr1 2.358801 1_555
O14 Sr2 2.567064 1_556
O15 Sn3 2.090790 1_555
O15 Pr0 2.358801 1_555
O15 Sr2 2.567064 1_556
O16 Sn0 2.087474 1_555
O16 Pr2 2.344434 1_555
O16 Sr0 2.560396 1_555
O16 Sr3 3.152165 1_555
O17 Sn3 2.087474 1_555
O17 Pr1 2.344434 1_555
O17 Sr0 2.560396 1_555
O17 Sr3 3.152165 1_556
O18 Sn1 2.087474 1_555
O18 Pr3 2.344434 1_555
O18 Sr0 2.560396 1_655
O18 Sr3 3.152165 1_655
O19 Sn2 2.087474 1_555
O19 Pr0 2.344434 1_555
O19 Sr0 2.560396 1_655
O19 Sr3 3.152165 1_656
O20 Sn0 2.101778 1_555
O20 Pr1 2.361551 1_555
O20 Sr1 2.591913 1_555
O21 Sn2 2.101778 1_555
O21 Pr3 2.361551 1_555
O21 Sr1 2.591913 1_555
O22 Sn3 2.101778 1_555
O22 Pr2 2.361551 1_555
O22 Sr1 2.591913 1_565
O23 Sn1 2.101778 1_555
O23 Pr0 2.361551 1_555
O23 Sr1 2.591913 1_565
