# generated using pymatgen
data_Y(FeSn)6
_symmetry_space_group_name_H-M   'P 1'
_cell_length_a   15.06791303
_cell_length_b   15.06791303
_cell_length_c   15.06791303
_cell_angle_alpha   159.34810330
_cell_angle_beta   145.27148636
_cell_angle_gamma   40.74683002
_symmetry_Int_Tables_number   1
_chemical_formula_structural   Y(FeSn)6
_chemical_formula_sum   'Y3 Fe18 Sn18'
_cell_volume   686.25134963
_cell_formula_units_Z   3
loop_
 _symmetry_equiv_pos_site_id
 _symmetry_equiv_pos_as_xyz
  1  'x, y, z'
loop_
 _atom_site_type_symbol
 _atom_site_label
 _atom_site_symmetry_multiplicity
 _atom_site_fract_x
 _atom_site_fract_y
 _atom_site_fract_z
 _atom_site_occupancy
  Y  Y0  1  0.00000000  0.00000000  0.00000000  1
  Y  Y1  1  0.16829000  0.66829000  0.50000000  1
  Y  Y2  1  0.83171000  0.33171000  0.50000000  1
  Fe  Fe0  1  0.24584100  0.50000000  0.74584100  1
  Fe  Fe1  1  0.75415900  0.50000000  0.25415900  1
  Fe  Fe2  1  0.50000000  0.00000000  0.00000000  1
  Fe  Fe3  1  0.00000000  0.00000000  0.50000000  1
  Fe  Fe4  1  0.00000000  0.50000000  0.00000000  1
  Fe  Fe5  1  0.50000000  0.50000000  0.50000000  1
  Fe  Fe6  1  0.58566000  0.83347600  0.75218400  1
  Fe  Fe7  1  0.91870800  0.16652400  0.75218400  1
  Fe  Fe8  1  0.08129200  0.83347600  0.24781600  1
  Fe  Fe9  1  0.41434000  0.16652400  0.24781600  1
  Fe  Fe10  1  0.33051300  0.83398100  0.99735200  1
  Fe  Fe11  1  0.16337100  0.16601900  0.49653200  1
  Fe  Fe12  1  0.83662900  0.33316100  0.00264800  1
  Fe  Fe13  1  0.66948700  0.66683900  0.50346800  1
  Fe  Fe14  1  0.66948700  0.16601900  0.00264800  1
  Fe  Fe15  1  0.83662900  0.83398100  0.50346800  1
  Fe  Fe16  1  0.16337100  0.66683900  0.99735200  1
  Fe  Fe17  1  0.33051300  0.33316100  0.49653200  1
  Sn  Sn0  1  0.33581400  0.00000000  0.33581400  1
  Sn  Sn1  1  0.66418600  0.00000000  0.66418600  1
  Sn  Sn2  1  0.55513600  0.55513600  0.00000000  1
  Sn  Sn3  1  0.44486400  0.44486400  0.00000000  1
  Sn  Sn4  1  0.11216900  0.11216900  0.00000000  1
  Sn  Sn5  1  0.88783100  0.88783100  0.00000000  1
  Sn  Sn6  1  0.22346600  0.22346600  0.00000000  1
  Sn  Sn7  1  0.77653400  0.77653400  0.00000000  1
  Sn  Sn8  1  0.05600900  0.55600900  0.50000000  1
  Sn  Sn9  1  0.94399100  0.44399100  0.50000000  1
  Sn  Sn10  1  0.61017200  0.11017200  0.50000000  1
  Sn  Sn11  1  0.38982800  0.88982800  0.50000000  1
  Sn  Sn12  1  0.71997200  0.21997200  0.50000000  1
  Sn  Sn13  1  0.28002800  0.78002800  0.50000000  1
  Sn  Sn14  1  0.50315200  0.66654600  0.83660500  1
  Sn  Sn15  1  0.17005900  0.33345400  0.83660500  1
  Sn  Sn16  1  0.82994100  0.66654600  0.16339500  1
  Sn  Sn17  1  0.49684800  0.33345400  0.16339500  1
loop_
_geom_bond_atom_site_label_1
_geom_bond_atom_site_label_2
_geom_bond_distance
_geom_bond_site_symmetry_2
Fe0 Sn8 2.718910 1_555
Fe0 Sn9 2.718910 1_455
Fe0 Fe16 2.720992 1_555
Fe0 Fe11 2.720992 1_555
Fe0 Fe17 2.720992 1_555
Fe0 Fe10 2.720992 1_555
Fe0 Sn3 2.766126 1_556
Fe0 Sn2 2.766126 1_556
Fe0 Sn0 2.819508 1_566
Fe0 Sn0 2.819508 1_555
Fe0 Y0 3.490506 1_566
Fe0 Y0 3.490506 1_555
Fe1 Sn8 2.718910 1_655
Fe1 Sn9 2.718910 1_555
Fe1 Fe15 2.720992 1_555
Fe1 Fe14 2.720992 1_555
Fe1 Fe12 2.720992 1_555
Fe1 Fe13 2.720992 1_555
Fe1 Sn2 2.766126 1_555
Fe1 Sn3 2.766126 1_555
Fe1 Sn1 2.819508 1_554
Fe1 Sn1 2.819508 1_565
Fe1 Y0 3.490506 1_655
Fe1 Y0 3.490506 1_666
Fe2 Fe5 2.700890 1_555
Fe2 Fe5 2.700890 1_544
Fe2 Fe9 2.717615 1_555
Fe2 Fe6 2.717615 1_544
Fe2 Sn7 2.727865 1_545
Fe2 Sn6 2.727865 1_555
Fe2 Sn13 2.756623 1_544
Fe2 Sn12 2.756623 1_555
Fe2 Sn14 2.826442 1_544
Fe2 Sn17 2.826442 1_555
Fe2 Y1 3.493976 1_544
Fe2 Y2 3.493976 1_555
Fe3 Fe4 2.700890 1_556
Fe3 Fe4 2.700890 1_545
Fe3 Fe7 2.717615 1_455
Fe3 Fe8 2.717615 1_545
Fe3 Sn7 2.727865 1_445
Fe3 Sn6 2.727865 1_556
Fe3 Sn12 2.756623 1_455
Fe3 Sn13 2.756623 1_545
Fe3 Sn16 2.826451 1_445
Fe3 Sn15 2.826451 1_555
Fe3 Y1 3.493976 1_545
Fe3 Y2 3.493976 1_455
Fe4 Fe7 2.717615 1_454
Fe4 Fe8 2.717615 1_555
Fe4 Sn7 2.727865 1_455
Fe4 Sn6 2.727865 1_555
Fe4 Sn13 2.756623 1_555
Fe4 Sn12 2.756623 1_454
Fe4 Sn16 2.826451 1_455
Fe4 Sn15 2.826451 1_554
Fe4 Y1 3.493976 1_555
Fe4 Y2 3.493976 1_454
Fe5 Fe9 2.717615 1_555
Fe5 Fe6 2.717615 1_555
Fe5 Sn7 2.727865 1_556
Fe5 Sn6 2.727865 1_555
Fe5 Sn13 2.756623 1_555
Fe5 Sn12 2.756623 1_555
Fe5 Sn14 2.826439 1_555
Fe5 Sn17 2.826439 1_555
Fe5 Y1 3.493976 1_555
Fe5 Y2 3.493976 1_555
Fe6 Sn5 2.706594 1_556
Fe6 Sn13 2.724753 1_555
Fe6 Sn7 2.748716 1_556
Fe6 Sn11 2.771057 1_555
Fe6 Sn17 2.816469 1_555
Fe6 Sn17 2.816474 1_566
Fe6 Y2 3.502141 1_555
Fe6 Y2 3.502141 1_566
Fe7 Sn4 2.706594 1_656
Fe7 Sn12 2.724753 1_555
Fe7 Sn6 2.748716 1_656
Fe7 Sn10 2.771057 1_555
Fe7 Sn16 2.816470 1_545
Fe7 Sn16 2.816470 1_556
Fe7 Y1 3.502141 1_656
Fe7 Y1 3.502141 1_645
Fe8 Sn5 2.706594 1_455
Fe8 Sn13 2.724753 1_555
Fe8 Sn7 2.748716 1_455
Fe8 Sn11 2.771057 1_555
Fe8 Sn15 2.816470 1_554
Fe8 Sn15 2.816470 1_565
Fe8 Y2 3.502141 1_454
Fe8 Y2 3.502141 1_465
Fe9 Sn4 2.706594 1_555
Fe9 Sn12 2.724753 1_555
Fe9 Sn6 2.748716 1_555
Fe9 Sn10 2.771057 1_555
Fe9 Sn14 2.816469 1_555
Fe9 Sn14 2.816474 1_544
Fe9 Y1 3.502141 1_544
Fe9 Y1 3.502141 1_555
Fe10 Fe17 2.696461 1_566
Fe10 Fe9 2.703639 1_566
Fe10 Fe17 2.705319 1_555
Fe10 Sn8 2.714533 1_555
Fe10 Sn4 2.720875 1_566
Fe10 Sn10 2.750009 1_566
Fe10 Sn2 2.766779 1_556
Fe10 Sn14 2.823982 1_555
Fe10 Sn0 2.833836 1_566
Fe10 Y0 3.510620 1_566
Fe10 Y1 3.534205 1_555
Fe11 Fe16 2.696461 1_544
Fe11 Fe8 2.703639 1_545
Fe11 Fe16 2.705319 1_555
Fe11 Sn9 2.714533 1_455
Fe11 Sn5 2.720875 1_445
Fe11 Sn11 2.750009 1_545
Fe11 Sn3 2.766779 1_556
Fe11 Sn15 2.823967 1_555
Fe11 Sn0 2.833836 1_555
Fe11 Y0 3.510620 1_555
Fe11 Y2 3.534205 1_455
Fe12 Fe15 2.696461 1_544
Fe12 Fe7 2.703639 1_554
Fe12 Fe15 2.705319 1_555
Fe12 Sn8 2.714533 1_655
Fe12 Sn4 2.720875 1_655
Fe12 Sn10 2.750009 1_554
Fe12 Sn2 2.766779 1_555
Fe12 Sn16 2.823967 1_555
Fe12 Sn1 2.833836 1_554
Fe12 Y0 3.510620 1_655
Fe12 Y1 3.534205 1_655
Fe13 Fe14 2.696461 1_566
Fe13 Fe6 2.703639 1_555
Fe13 Fe14 2.705319 1_555
Fe13 Sn9 2.714533 1_555
Fe13 Sn5 2.720875 1_556
Fe13 Sn11 2.750009 1_555
Fe13 Sn3 2.766779 1_555
Fe13 Sn17 2.823979 1_555
Fe13 Sn1 2.833836 1_565
Fe13 Y0 3.510620 1_666
Fe13 Y2 3.534205 1_555
Fe14 Fe6 2.703639 1_544
Fe14 Sn9 2.714533 1_555
Fe14 Sn5 2.720875 1_545
Fe14 Sn11 2.750009 1_544
Fe14 Sn3 2.766779 1_555
Fe14 Sn17 2.823982 1_555
Fe14 Sn1 2.833836 1_554
Fe14 Y0 3.510620 1_655
Fe14 Y2 3.534205 1_555
Fe15 Fe7 2.703639 1_565
Fe15 Sn8 2.714533 1_655
Fe15 Sn4 2.720875 1_666
Fe15 Sn10 2.750009 1_565
Fe15 Sn2 2.766779 1_555
Fe15 Sn16 2.823967 1_555
Fe15 Sn1 2.833836 1_565
Fe15 Y0 3.510620 1_666
Fe15 Y1 3.534205 1_655
Fe16 Fe8 2.703639 1_556
Fe16 Sn9 2.714533 1_455
Fe16 Sn5 2.720875 1_456
Fe16 Sn11 2.750009 1_556
Fe16 Sn3 2.766779 1_556
Fe16 Sn15 2.823967 1_555
Fe16 Sn0 2.833836 1_566
Fe16 Y0 3.510620 1_566
Fe16 Y2 3.534205 1_455
Fe17 Fe9 2.703639 1_555
Fe17 Sn8 2.714533 1_555
Fe17 Sn4 2.720875 1_555
Fe17 Sn10 2.750009 1_555
Fe17 Sn2 2.766779 1_556
Fe17 Sn14 2.823979 1_555
Fe17 Sn0 2.833836 1_555
Fe17 Y0 3.510620 1_555
Fe17 Y1 3.534205 1_555
Sn0 Sn1 2.953345 1_555
Sn0 Y0 3.020278 1_555
Sn1 Y0 3.020278 1_656
Sn4 Y1 3.131848 1_544
Sn4 Y1 3.131848 1_555
Sn4 Y0 3.168846 1_555
Sn5 Y2 3.131848 1_554
Sn5 Y2 3.131848 1_565
Sn5 Y0 3.168846 1_665
Sn6 Y1 3.118418 1_544
Sn6 Y1 3.118418 1_555
Sn7 Y2 3.118418 1_554
Sn7 Y2 3.118418 1_565
Sn8 Y0 3.130247 1_566
Sn8 Y0 3.130247 1_555
Sn8 Y1 3.172010 1_555
Sn9 Y0 3.130247 1_666
Sn9 Y0 3.130247 1_655
Sn9 Y2 3.172010 1_555
Sn12 Y2 3.156670 1_555
Sn13 Y1 3.156670 1_555
Sn14 Sn16 2.939112 1_556
Sn14 Y1 3.027797 1_555
Sn15 Sn17 2.939112 1_556
Sn15 Y2 3.027793 1_455
Sn16 Y1 3.027793 1_655
Sn17 Y2 3.027797 1_555
