# generated using pymatgen
data_Hf3In4
_symmetry_space_group_name_H-M   'P 1'
_cell_length_a   20.69789600
_cell_length_b   20.69789600
_cell_length_c   6.23290400
_cell_angle_alpha   90.00000000
_cell_angle_beta   90.00000000
_cell_angle_gamma   90.00000000
_symmetry_Int_Tables_number   1
_chemical_formula_structural   Hf3In4
_chemical_formula_sum   'Hf48 In64'
_cell_volume   2670.19414171
_cell_formula_units_Z   16
loop_
 _symmetry_equiv_pos_site_id
 _symmetry_equiv_pos_as_xyz
  1  'x, y, z'
loop_
 _atom_site_type_symbol
 _atom_site_label
 _atom_site_symmetry_multiplicity
 _atom_site_fract_x
 _atom_site_fract_y
 _atom_site_fract_z
 _atom_site_occupancy
  Hf  Hf0_0  1  0.25000000  0.00000000  0.00000000  1
  Hf  Hf0_1  1  0.25000000  0.00000000  0.50000000  1
  Hf  Hf0_2  1  0.25000000  0.50000000  0.00000000  1
  Hf  Hf0_3  1  0.25000000  0.50000000  0.50000000  1
  Hf  Hf0_4  1  0.75000000  0.00000000  0.00000000  1
  Hf  Hf0_5  1  0.75000000  0.00000000  0.50000000  1
  Hf  Hf0_6  1  0.75000000  0.50000000  0.00000000  1
  Hf  Hf0_7  1  0.75000000  0.50000000  0.50000000  1
  Hf  Hf1_0  1  0.00000000  0.25000000  0.00000000  1
  Hf  Hf1_1  1  0.00000000  0.25000000  0.50000000  1
  Hf  Hf1_2  1  0.00000000  0.75000000  0.00000000  1
  Hf  Hf1_3  1  0.00000000  0.75000000  0.50000000  1
  Hf  Hf1_4  1  0.50000000  0.25000000  0.00000000  1
  Hf  Hf1_5  1  0.50000000  0.25000000  0.50000000  1
  Hf  Hf1_6  1  0.50000000  0.75000000  0.00000000  1
  Hf  Hf1_7  1  0.50000000  0.75000000  0.50000000  1
  Hf  Hf2_0  1  0.34125750  0.09125750  0.25000000  1
  Hf  Hf2_1  1  0.34125750  0.09125750  0.75000000  1
  Hf  Hf2_2  1  0.34125750  0.59125750  0.25000000  1
  Hf  Hf2_3  1  0.34125750  0.59125750  0.75000000  1
  Hf  Hf2_4  1  0.84125750  0.09125750  0.25000000  1
  Hf  Hf2_5  1  0.84125750  0.09125750  0.75000000  1
  Hf  Hf2_6  1  0.84125750  0.59125750  0.25000000  1
  Hf  Hf2_7  1  0.84125750  0.59125750  0.75000000  1
  Hf  Hf3_0  1  0.15874250  0.40874250  0.25000000  1
  Hf  Hf3_1  1  0.15874250  0.40874250  0.75000000  1
  Hf  Hf3_2  1  0.15874250  0.90874250  0.25000000  1
  Hf  Hf3_3  1  0.15874250  0.90874250  0.75000000  1
  Hf  Hf3_4  1  0.65874250  0.40874250  0.25000000  1
  Hf  Hf3_5  1  0.65874250  0.40874250  0.75000000  1
  Hf  Hf3_6  1  0.65874250  0.90874250  0.25000000  1
  Hf  Hf3_7  1  0.65874250  0.90874250  0.75000000  1
  Hf  Hf4_0  1  0.09125750  0.15874250  0.25000000  1
  Hf  Hf4_1  1  0.09125750  0.15874250  0.75000000  1
  Hf  Hf4_2  1  0.09125750  0.65874250  0.25000000  1
  Hf  Hf4_3  1  0.09125750  0.65874250  0.75000000  1
  Hf  Hf4_4  1  0.59125750  0.15874250  0.25000000  1
  Hf  Hf4_5  1  0.59125750  0.15874250  0.75000000  1
  Hf  Hf4_6  1  0.59125750  0.65874250  0.25000000  1
  Hf  Hf4_7  1  0.59125750  0.65874250  0.75000000  1
  Hf  Hf5_0  1  0.40874250  0.34125750  0.25000000  1
  Hf  Hf5_1  1  0.40874250  0.34125750  0.75000000  1
  Hf  Hf5_2  1  0.40874250  0.84125750  0.25000000  1
  Hf  Hf5_3  1  0.40874250  0.84125750  0.75000000  1
  Hf  Hf5_4  1  0.90874250  0.34125750  0.25000000  1
  Hf  Hf5_5  1  0.90874250  0.34125750  0.75000000  1
  Hf  Hf5_6  1  0.90874250  0.84125750  0.25000000  1
  Hf  Hf5_7  1  0.90874250  0.84125750  0.75000000  1
  In  In0_0  1  0.27795750  0.35413300  0.00000000  1
  In  In0_1  1  0.27795750  0.35413300  0.50000000  1
  In  In0_2  1  0.27795750  0.85413300  0.00000000  1
  In  In0_3  1  0.27795750  0.85413300  0.50000000  1
  In  In0_4  1  0.77795750  0.35413300  0.00000000  1
  In  In0_5  1  0.77795750  0.35413300  0.50000000  1
  In  In0_6  1  0.77795750  0.85413300  0.00000000  1
  In  In0_7  1  0.77795750  0.85413300  0.50000000  1
  In  In1_0  1  0.22204250  0.14586700  0.00000000  1
  In  In1_1  1  0.22204250  0.14586700  0.50000000  1
  In  In1_2  1  0.22204250  0.64586700  0.00000000  1
  In  In1_3  1  0.22204250  0.64586700  0.50000000  1
  In  In1_4  1  0.72204250  0.14586700  0.00000000  1
  In  In1_5  1  0.72204250  0.14586700  0.50000000  1
  In  In1_6  1  0.72204250  0.64586700  0.00000000  1
  In  In1_7  1  0.72204250  0.64586700  0.50000000  1
  In  In2_0  1  0.02795750  0.39586700  0.00000000  1
  In  In2_1  1  0.02795750  0.39586700  0.50000000  1
  In  In2_2  1  0.02795750  0.89586700  0.00000000  1
  In  In2_3  1  0.02795750  0.89586700  0.50000000  1
  In  In2_4  1  0.52795750  0.39586700  0.00000000  1
  In  In2_5  1  0.52795750  0.39586700  0.50000000  1
  In  In2_6  1  0.52795750  0.89586700  0.00000000  1
  In  In2_7  1  0.52795750  0.89586700  0.50000000  1
  In  In3_0  1  0.47204250  0.10413300  0.00000000  1
  In  In3_1  1  0.47204250  0.10413300  0.50000000  1
  In  In3_2  1  0.47204250  0.60413300  0.00000000  1
  In  In3_3  1  0.47204250  0.60413300  0.50000000  1
  In  In3_4  1  0.97204250  0.10413300  0.00000000  1
  In  In3_5  1  0.97204250  0.10413300  0.50000000  1
  In  In3_6  1  0.97204250  0.60413300  0.00000000  1
  In  In3_7  1  0.97204250  0.60413300  0.50000000  1
  In  In4_0  1  0.14586700  0.27795750  0.00000000  1
  In  In4_1  1  0.14586700  0.27795750  0.50000000  1
  In  In4_2  1  0.14586700  0.77795750  0.00000000  1
  In  In4_3  1  0.14586700  0.77795750  0.50000000  1
  In  In4_4  1  0.64586700  0.27795750  0.00000000  1
  In  In4_5  1  0.64586700  0.27795750  0.50000000  1
  In  In4_6  1  0.64586700  0.77795750  0.00000000  1
  In  In4_7  1  0.64586700  0.77795750  0.50000000  1
  In  In5_0  1  0.35413300  0.22204250  0.00000000  1
  In  In5_1  1  0.35413300  0.22204250  0.50000000  1
  In  In5_2  1  0.35413300  0.72204250  0.00000000  1
  In  In5_3  1  0.35413300  0.72204250  0.50000000  1
  In  In5_4  1  0.85413300  0.22204250  0.00000000  1
  In  In5_5  1  0.85413300  0.22204250  0.50000000  1
  In  In5_6  1  0.85413300  0.72204250  0.00000000  1
  In  In5_7  1  0.85413300  0.72204250  0.50000000  1
  In  In6_0  1  0.10413300  0.02795750  0.00000000  1
  In  In6_1  1  0.10413300  0.02795750  0.50000000  1
  In  In6_2  1  0.10413300  0.52795750  0.00000000  1
  In  In6_3  1  0.10413300  0.52795750  0.50000000  1
  In  In6_4  1  0.60413300  0.02795750  0.00000000  1
  In  In6_5  1  0.60413300  0.02795750  0.50000000  1
  In  In6_6  1  0.60413300  0.52795750  0.00000000  1
  In  In6_7  1  0.60413300  0.52795750  0.50000000  1
  In  In7_0  1  0.39586700  0.47204250  0.00000000  1
  In  In7_1  1  0.39586700  0.47204250  0.50000000  1
  In  In7_2  1  0.39586700  0.97204250  0.00000000  1
  In  In7_3  1  0.39586700  0.97204250  0.50000000  1
  In  In7_4  1  0.89586700  0.47204250  0.00000000  1
  In  In7_5  1  0.89586700  0.47204250  0.50000000  1
  In  In7_6  1  0.89586700  0.97204250  0.00000000  1
  In  In7_7  1  0.89586700  0.97204250  0.50000000  1
loop_
_geom_bond_atom_site_label_1
_geom_bond_atom_site_label_2
_geom_bond_distance
_geom_bond_site_symmetry_2
Hf0_0 In7_2 3.074094 1_545
Hf0_0 In0_2 3.074094 1_545
Hf0_0 In1_0 3.074094 1_555
Hf0_0 In6_0 3.074094 1_555
Hf0_0 Hf2_1 3.092489 1_554
Hf0_0 Hf2_0 3.092489 1_555
Hf0_0 Hf3_2 3.092489 1_545
Hf0_0 Hf3_3 3.092489 1_544
Hf0_0 Hf0_1 3.116452 1_555
Hf0_0 Hf0_1 3.116452 1_554
Hf0_1 In7_3 3.074094 1_545
Hf0_1 In0_3 3.074094 1_545
Hf0_1 In1_1 3.074094 1_555
Hf0_1 In6_1 3.074094 1_555
Hf0_1 Hf2_1 3.092489 1_555
Hf0_1 Hf2_0 3.092489 1_555
Hf0_1 Hf3_2 3.092489 1_545
Hf0_1 Hf3_3 3.092489 1_545
Hf0_2 In7_0 3.074094 1_555
Hf0_2 In0_0 3.074094 1_555
Hf0_2 In1_2 3.074094 1_555
Hf0_2 In6_2 3.074094 1_555
Hf0_2 Hf2_3 3.092489 1_554
Hf0_2 Hf2_2 3.092489 1_555
Hf0_2 Hf3_0 3.092489 1_555
Hf0_2 Hf3_1 3.092489 1_554
Hf0_2 Hf0_3 3.116452 1_554
Hf0_2 Hf0_3 3.116452 1_555
Hf0_3 In7_1 3.074094 1_555
Hf0_3 In0_1 3.074094 1_555
Hf0_3 In1_3 3.074094 1_555
Hf0_3 In6_3 3.074094 1_555
Hf0_3 Hf2_3 3.092489 1_555
Hf0_3 Hf2_2 3.092489 1_555
Hf0_3 Hf3_1 3.092489 1_555
Hf0_3 Hf3_0 3.092489 1_555
Hf0_4 In7_6 3.074094 1_545
Hf0_4 In0_6 3.074094 1_545
Hf0_4 In1_4 3.074094 1_555
Hf0_4 In6_4 3.074094 1_555
Hf0_4 Hf2_5 3.092489 1_554
Hf0_4 Hf2_4 3.092489 1_555
Hf0_4 Hf3_6 3.092489 1_545
Hf0_4 Hf3_7 3.092489 1_544
Hf0_4 Hf0_5 3.116452 1_554
Hf0_4 Hf0_5 3.116452 1_555
Hf0_5 In7_7 3.074094 1_545
Hf0_5 In0_7 3.074094 1_545
Hf0_5 In1_5 3.074094 1_555
Hf0_5 In6_5 3.074094 1_555
Hf0_5 Hf2_4 3.092489 1_555
Hf0_5 Hf2_5 3.092489 1_555
Hf0_5 Hf3_6 3.092489 1_545
Hf0_5 Hf3_7 3.092489 1_545
Hf0_6 In7_4 3.074094 1_555
Hf0_6 In0_4 3.074094 1_555
Hf0_6 In1_6 3.074094 1_555
Hf0_6 In6_6 3.074094 1_555
Hf0_6 Hf2_6 3.092489 1_555
Hf0_6 Hf2_7 3.092489 1_554
Hf0_6 Hf3_5 3.092489 1_554
Hf0_6 Hf3_4 3.092489 1_555
Hf0_6 Hf0_7 3.116452 1_554
Hf0_6 Hf0_7 3.116452 1_555
Hf0_7 In7_5 3.074094 1_555
Hf0_7 In0_5 3.074094 1_555
Hf0_7 In1_7 3.074094 1_555
Hf0_7 In6_7 3.074094 1_555
Hf0_7 Hf2_6 3.092489 1_555
Hf0_7 Hf2_7 3.092489 1_555
Hf0_7 Hf3_5 3.092489 1_555
Hf0_7 Hf3_4 3.092489 1_555
Hf1_0 In2_0 3.074094 1_555
Hf1_0 In4_0 3.074094 1_555
Hf1_0 In5_4 3.074094 1_455
Hf1_0 In3_4 3.074094 1_455
Hf1_0 Hf5_4 3.092489 1_455
Hf1_0 Hf5_5 3.092489 1_454
Hf1_0 Hf4_1 3.092489 1_554
Hf1_0 Hf4_0 3.092489 1_555
Hf1_0 Hf1_1 3.116452 1_555
Hf1_0 Hf1_1 3.116452 1_554
Hf1_1 In2_1 3.074094 1_555
Hf1_1 In4_1 3.074094 1_555
Hf1_1 In5_5 3.074094 1_455
Hf1_1 In3_5 3.074094 1_455
Hf1_1 Hf5_4 3.092489 1_455
Hf1_1 Hf5_5 3.092489 1_455
Hf1_1 Hf4_1 3.092489 1_555
Hf1_1 Hf4_0 3.092489 1_555
Hf1_2 In2_2 3.074094 1_555
Hf1_2 In4_2 3.074094 1_555
Hf1_2 In5_6 3.074094 1_455
Hf1_2 In3_6 3.074094 1_455
Hf1_2 Hf5_7 3.092489 1_454
Hf1_2 Hf5_6 3.092489 1_455
Hf1_2 Hf4_2 3.092489 1_555
Hf1_2 Hf4_3 3.092489 1_554
Hf1_2 Hf1_3 3.116452 1_554
Hf1_2 Hf1_3 3.116452 1_555
Hf1_3 In2_3 3.074094 1_555
Hf1_3 In4_3 3.074094 1_555
Hf1_3 In5_7 3.074094 1_455
Hf1_3 In3_7 3.074094 1_455
Hf1_3 Hf5_7 3.092489 1_455
Hf1_3 Hf5_6 3.092489 1_455
Hf1_3 Hf4_2 3.092489 1_555
Hf1_3 Hf4_3 3.092489 1_555
Hf1_4 In2_4 3.074094 1_555
Hf1_4 In4_4 3.074094 1_555
Hf1_4 In5_0 3.074094 1_555
Hf1_4 In3_0 3.074094 1_555
Hf1_4 Hf4_5 3.092489 1_554
Hf1_4 Hf5_1 3.092489 1_554
Hf1_4 Hf4_4 3.092489 1_555
Hf1_4 Hf5_0 3.092489 1_555
Hf1_4 Hf1_5 3.116452 1_555
Hf1_4 Hf1_5 3.116452 1_554
Hf1_5 In2_5 3.074094 1_555
Hf1_5 In4_5 3.074094 1_555
Hf1_5 In5_1 3.074094 1_555
Hf1_5 In3_1 3.074094 1_555
Hf1_5 Hf4_5 3.092489 1_555
Hf1_5 Hf5_1 3.092489 1_555
Hf1_5 Hf4_4 3.092489 1_555
Hf1_5 Hf5_0 3.092489 1_555
Hf1_6 In2_6 3.074094 1_555
Hf1_6 In4_6 3.074094 1_555
Hf1_6 In5_2 3.074094 1_555
Hf1_6 In3_2 3.074094 1_555
Hf1_6 Hf5_2 3.092489 1_555
Hf1_6 Hf5_3 3.092489 1_554
Hf1_6 Hf4_6 3.092489 1_555
Hf1_6 Hf4_7 3.092489 1_554
Hf1_6 Hf1_7 3.116452 1_555
Hf1_6 Hf1_7 3.116452 1_554
Hf1_7 In2_7 3.074094 1_555
Hf1_7 In4_7 3.074094 1_555
Hf1_7 In5_3 3.074094 1_555
Hf1_7 In3_3 3.074094 1_555
Hf1_7 Hf5_2 3.092489 1_555
Hf1_7 Hf5_3 3.092489 1_555
Hf1_7 Hf4_6 3.092489 1_555
Hf1_7 Hf4_7 3.092489 1_555
Hf2_0 Hf2_1 3.116452 1_555
Hf2_0 Hf2_1 3.116452 1_554
Hf2_0 In7_2 3.129569 1_545
Hf2_0 In7_3 3.129569 1_545
Hf2_0 In1_0 3.129569 1_555
Hf2_0 In1_1 3.129569 1_555
Hf2_0 In3_0 3.134772 1_555
Hf2_0 In3_1 3.134772 1_555
Hf2_0 In5_0 3.134772 1_555
Hf2_0 In5_1 3.134772 1_555
Hf2_1 In7_2 3.129569 1_546
Hf2_1 In7_3 3.129569 1_545
Hf2_1 In1_0 3.129569 1_556
Hf2_1 In1_1 3.129569 1_555
Hf2_1 In3_0 3.134772 1_556
Hf2_1 In3_1 3.134772 1_555
Hf2_1 In5_0 3.134772 1_556
Hf2_1 In5_1 3.134772 1_555
Hf2_2 Hf2_3 3.116452 1_555
Hf2_2 Hf2_3 3.116452 1_554
Hf2_2 In7_0 3.129569 1_555
Hf2_2 In7_1 3.129569 1_555
Hf2_2 In1_2 3.129569 1_555
Hf2_2 In1_3 3.129569 1_555
Hf2_2 In3_2 3.134772 1_555
Hf2_2 In3_3 3.134772 1_555
Hf2_2 In5_3 3.134772 1_555
Hf2_2 In5_2 3.134772 1_555
Hf2_3 In7_0 3.129569 1_556
Hf2_3 In7_1 3.129569 1_555
Hf2_3 In1_2 3.129569 1_556
Hf2_3 In1_3 3.129569 1_555
Hf2_3 In3_2 3.134772 1_556
Hf2_3 In3_3 3.134772 1_555
Hf2_3 In5_3 3.134772 1_555
Hf2_3 In5_2 3.134772 1_556
Hf2_4 Hf2_5 3.116452 1_555
Hf2_4 Hf2_5 3.116452 1_554
Hf2_4 In7_6 3.129569 1_545
Hf2_4 In7_7 3.129569 1_545
Hf2_4 In1_4 3.129569 1_555
Hf2_4 In1_5 3.129569 1_555
Hf2_4 In3_4 3.134772 1_555
Hf2_4 In3_5 3.134772 1_555
Hf2_4 In5_4 3.134772 1_555
Hf2_4 In5_5 3.134772 1_555
Hf2_5 In7_6 3.129569 1_546
Hf2_5 In7_7 3.129569 1_545
Hf2_5 In1_5 3.129569 1_555
Hf2_5 In1_4 3.129569 1_556
Hf2_5 In3_5 3.134772 1_555
Hf2_5 In3_4 3.134772 1_556
Hf2_5 In5_4 3.134772 1_556
Hf2_5 In5_5 3.134772 1_555
Hf2_6 Hf2_7 3.116452 1_555
Hf2_6 Hf2_7 3.116452 1_554
Hf2_6 In7_4 3.129569 1_555
Hf2_6 In7_5 3.129569 1_555
Hf2_6 In1_6 3.129569 1_555
Hf2_6 In1_7 3.129569 1_555
Hf2_6 In3_7 3.134772 1_555
Hf2_6 In3_6 3.134772 1_555
Hf2_6 In5_7 3.134772 1_555
Hf2_6 In5_6 3.134772 1_555
Hf2_7 In7_4 3.129569 1_556
Hf2_7 In7_5 3.129569 1_555
Hf2_7 In1_6 3.129569 1_556
Hf2_7 In1_7 3.129569 1_555
Hf2_7 In3_6 3.134772 1_556
Hf2_7 In3_7 3.134772 1_555
Hf2_7 In5_7 3.134772 1_555
Hf2_7 In5_6 3.134772 1_556
Hf3_0 Hf3_1 3.116452 1_554
Hf3_0 Hf3_1 3.116452 1_555
Hf3_0 In0_0 3.129569 1_555
Hf3_0 In0_1 3.129569 1_555
Hf3_0 In6_3 3.129569 1_555
Hf3_0 In6_2 3.129569 1_555
Hf3_0 In2_1 3.134772 1_555
Hf3_0 In2_0 3.134772 1_555
Hf3_0 In4_1 3.134772 1_555
Hf3_0 In4_0 3.134772 1_555
Hf3_1 In0_0 3.129569 1_556
Hf3_1 In0_1 3.129569 1_555
Hf3_1 In6_3 3.129569 1_555
Hf3_1 In6_2 3.129569 1_556
Hf3_1 In2_1 3.134772 1_555
Hf3_1 In2_0 3.134772 1_556
Hf3_1 In4_0 3.134772 1_556
Hf3_1 In4_1 3.134772 1_555
Hf3_2 Hf3_3 3.116452 1_555
Hf3_2 Hf3_3 3.116452 1_554
Hf3_2 In0_3 3.129569 1_555
Hf3_2 In0_2 3.129569 1_555
Hf3_2 In6_1 3.129569 1_565
Hf3_2 In6_0 3.129569 1_565
Hf3_2 In2_3 3.134772 1_555
Hf3_2 In2_2 3.134772 1_555
Hf3_2 In4_3 3.134772 1_555
Hf3_2 In4_2 3.134772 1_555
Hf3_3 In0_3 3.129569 1_555
Hf3_3 In0_2 3.129569 1_556
Hf3_3 In6_1 3.129569 1_565
Hf3_3 In6_0 3.129569 1_566
Hf3_3 In2_3 3.134772 1_555
Hf3_3 In2_2 3.134772 1_556
Hf3_3 In4_2 3.134772 1_556
Hf3_3 In4_3 3.134772 1_555
Hf3_4 Hf3_5 3.116452 1_554
Hf3_4 Hf3_5 3.116452 1_555
Hf3_4 In6_7 3.129569 1_555
Hf3_4 In6_6 3.129569 1_555
Hf3_4 In0_5 3.129569 1_555
Hf3_4 In0_4 3.129569 1_555
Hf3_4 In2_4 3.134772 1_555
Hf3_4 In2_5 3.134772 1_555
Hf3_4 In4_4 3.134772 1_555
Hf3_4 In4_5 3.134772 1_555
Hf3_5 In6_7 3.129569 1_555
Hf3_5 In6_6 3.129569 1_556
Hf3_5 In0_5 3.129569 1_555
Hf3_5 In0_4 3.129569 1_556
Hf3_5 In2_5 3.134772 1_555
Hf3_5 In2_4 3.134772 1_556
Hf3_5 In4_4 3.134772 1_556
Hf3_5 In4_5 3.134772 1_555
Hf3_6 Hf3_7 3.116452 1_555
Hf3_6 Hf3_7 3.116452 1_554
Hf3_6 In6_4 3.129569 1_565
Hf3_6 In6_5 3.129569 1_565
Hf3_6 In0_6 3.129569 1_555
Hf3_6 In0_7 3.129569 1_555
Hf3_6 In2_6 3.134772 1_555
Hf3_6 In2_7 3.134772 1_555
Hf3_6 In4_6 3.134772 1_555
Hf3_6 In4_7 3.134772 1_555
Hf3_7 In6_5 3.129569 1_565
Hf3_7 In6_4 3.129569 1_566
Hf3_7 In0_6 3.129569 1_556
Hf3_7 In0_7 3.129569 1_555
Hf3_7 In2_6 3.134772 1_556
Hf3_7 In2_7 3.134772 1_555
Hf3_7 In4_7 3.134772 1_555
Hf3_7 In4_6 3.134772 1_556
Hf4_0 Hf4_1 3.116452 1_555
Hf4_0 Hf4_1 3.116452 1_554
Hf4_0 In3_5 3.129569 1_455
Hf4_0 In3_4 3.129569 1_455
Hf4_0 In4_0 3.129569 1_555
Hf4_0 In4_1 3.129569 1_555
Hf4_0 In6_0 3.134772 1_555
Hf4_0 In6_1 3.134772 1_555
Hf4_0 In1_0 3.134772 1_555
Hf4_0 In1_1 3.134772 1_555
Hf4_1 In3_5 3.129569 1_455
Hf4_1 In3_4 3.129569 1_456
Hf4_1 In4_0 3.129569 1_556
Hf4_1 In4_1 3.129569 1_555
Hf4_1 In6_1 3.134772 1_555
Hf4_1 In6_0 3.134772 1_556
Hf4_1 In1_0 3.134772 1_556
Hf4_1 In1_1 3.134772 1_555
Hf4_2 Hf4_3 3.116452 1_554
Hf4_2 Hf4_3 3.116452 1_555
Hf4_2 In3_7 3.129569 1_455
Hf4_2 In3_6 3.129569 1_455
Hf4_2 In4_3 3.129569 1_555
Hf4_2 In4_2 3.129569 1_555
Hf4_2 In6_2 3.134772 1_555
Hf4_2 In6_3 3.134772 1_555
Hf4_2 In1_3 3.134772 1_555
Hf4_2 In1_2 3.134772 1_555
Hf4_3 In3_7 3.129569 1_455
Hf4_3 In3_6 3.129569 1_456
Hf4_3 In4_2 3.129569 1_556
Hf4_3 In4_3 3.129569 1_555
Hf4_3 In6_3 3.134772 1_555
Hf4_3 In6_2 3.134772 1_556
Hf4_3 In1_3 3.134772 1_555
Hf4_3 In1_2 3.134772 1_556
Hf4_4 Hf4_5 3.116452 1_555
Hf4_4 Hf4_5 3.116452 1_554
Hf4_4 In3_1 3.129569 1_555
Hf4_4 In3_0 3.129569 1_555
Hf4_4 In4_5 3.129569 1_555
Hf4_4 In4_4 3.129569 1_555
Hf4_4 In6_5 3.134772 1_555
Hf4_4 In6_4 3.134772 1_555
Hf4_4 In1_4 3.134772 1_555
Hf4_4 In1_5 3.134772 1_555
Hf4_5 In3_1 3.129569 1_555
Hf4_5 In3_0 3.129569 1_556
Hf4_5 In4_5 3.129569 1_555
Hf4_5 In4_4 3.129569 1_556
Hf4_5 In6_4 3.134772 1_556
Hf4_5 In6_5 3.134772 1_555
Hf4_5 In1_4 3.134772 1_556
Hf4_5 In1_5 3.134772 1_555
Hf4_6 Hf4_7 3.116452 1_554
Hf4_6 Hf4_7 3.116452 1_555
Hf4_6 In3_3 3.129569 1_555
Hf4_6 In3_2 3.129569 1_555
Hf4_6 In4_6 3.129569 1_555
Hf4_6 In4_7 3.129569 1_555
Hf4_6 In6_6 3.134772 1_555
Hf4_6 In6_7 3.134772 1_555
Hf4_6 In1_7 3.134772 1_555
Hf4_6 In1_6 3.134772 1_555
Hf4_7 In3_2 3.129569 1_556
Hf4_7 In3_3 3.129569 1_555
Hf4_7 In4_7 3.129569 1_555
Hf4_7 In4_6 3.129569 1_556
Hf4_7 In6_6 3.134772 1_556
Hf4_7 In6_7 3.134772 1_555
Hf4_7 In1_6 3.134772 1_556
Hf4_7 In1_7 3.134772 1_555
Hf5_0 Hf5_1 3.116452 1_554
Hf5_0 Hf5_1 3.116452 1_555
Hf5_0 In2_5 3.129569 1_555
Hf5_0 In2_4 3.129569 1_555
Hf5_0 In5_1 3.129569 1_555
Hf5_0 In5_0 3.129569 1_555
Hf5_0 In7_1 3.134772 1_555
Hf5_0 In7_0 3.134772 1_555
Hf5_0 In0_1 3.134772 1_555
Hf5_0 In0_0 3.134772 1_555
Hf5_1 In2_5 3.129569 1_555
Hf5_1 In2_4 3.129569 1_556
Hf5_1 In5_0 3.129569 1_556
Hf5_1 In5_1 3.129569 1_555
Hf5_1 In7_0 3.134772 1_556
Hf5_1 In7_1 3.134772 1_555
Hf5_1 In0_1 3.134772 1_555
Hf5_1 In0_0 3.134772 1_556
Hf5_2 Hf5_3 3.116452 1_554
Hf5_2 Hf5_3 3.116452 1_555
Hf5_2 In2_6 3.129569 1_555
Hf5_2 In2_7 3.129569 1_555
Hf5_2 In5_2 3.129569 1_555
Hf5_2 In5_3 3.129569 1_555
Hf5_2 In7_2 3.134772 1_555
Hf5_2 In7_3 3.134772 1_555
Hf5_2 In0_2 3.134772 1_555
Hf5_2 In0_3 3.134772 1_555
Hf5_3 In2_6 3.129569 1_556
Hf5_3 In2_7 3.129569 1_555
Hf5_3 In5_3 3.129569 1_555
Hf5_3 In5_2 3.129569 1_556
Hf5_3 In7_2 3.134772 1_556
Hf5_3 In7_3 3.134772 1_555
Hf5_3 In0_2 3.134772 1_556
Hf5_3 In0_3 3.134772 1_555
Hf5_4 Hf5_5 3.116452 1_554
Hf5_4 Hf5_5 3.116452 1_555
Hf5_4 In2_0 3.129569 1_655
Hf5_4 In2_1 3.129569 1_655
Hf5_4 In5_4 3.129569 1_555
Hf5_4 In5_5 3.129569 1_555
Hf5_4 In7_4 3.134772 1_555
Hf5_4 In7_5 3.134772 1_555
Hf5_4 In0_4 3.134772 1_555
Hf5_4 In0_5 3.134772 1_555
Hf5_5 In2_0 3.129569 1_656
Hf5_5 In2_1 3.129569 1_655
Hf5_5 In5_4 3.129569 1_556
Hf5_5 In5_5 3.129569 1_555
Hf5_5 In7_4 3.134772 1_556
Hf5_5 In7_5 3.134772 1_555
Hf5_5 In0_4 3.134772 1_556
Hf5_5 In0_5 3.134772 1_555
Hf5_6 Hf5_7 3.116452 1_554
Hf5_6 Hf5_7 3.116452 1_555
Hf5_6 In2_2 3.129569 1_655
Hf5_6 In2_3 3.129569 1_655
Hf5_6 In5_7 3.129569 1_555
Hf5_6 In5_6 3.129569 1_555
Hf5_6 In7_7 3.134772 1_555
Hf5_6 In7_6 3.134772 1_555
Hf5_6 In0_7 3.134772 1_555
Hf5_6 In0_6 3.134772 1_555
Hf5_7 In2_2 3.129569 1_656
Hf5_7 In2_3 3.129569 1_655
Hf5_7 In5_7 3.129569 1_555
Hf5_7 In5_6 3.129569 1_556
Hf5_7 In7_6 3.134772 1_556
Hf5_7 In7_7 3.134772 1_555
Hf5_7 In0_7 3.134772 1_555
Hf5_7 In0_6 3.134772 1_556
