# generated using pymatgen
data_Tm2Ga2Fe15
_symmetry_space_group_name_H-M   'P 1'
_cell_length_a   8.33058490
_cell_length_b   8.52402571
_cell_length_c   8.52402571
_cell_angle_alpha   119.99665418
_cell_angle_beta   90.00000000
_cell_angle_gamma   90.00000000
_symmetry_Int_Tables_number   1
_chemical_formula_structural   Tm2Ga2Fe15
_chemical_formula_sum   'Tm4 Ga4 Fe30'
_cell_volume   524.21599627
_cell_formula_units_Z   2
loop_
 _symmetry_equiv_pos_site_id
 _symmetry_equiv_pos_as_xyz
  1  'x, y, z'
loop_
 _atom_site_type_symbol
 _atom_site_label
 _atom_site_symmetry_multiplicity
 _atom_site_fract_x
 _atom_site_fract_y
 _atom_site_fract_z
 _atom_site_occupancy
  Tm  Tm0  1  0.75000000  0.00000189  -0.00000189  1
  Tm  Tm1  1  0.25000000  -0.00000189  0.00000189  1
  Tm  Tm2  1  0.25000000  0.66666930  0.33333070  1
  Tm  Tm3  1  0.75000000  0.33333070  0.66666930  1
  Ga  Ga0  1  0.59849295  0.66667147  0.33332853  1
  Ga  Ga1  1  0.40150705  0.33332853  0.66667147  1
  Ga  Ga2  1  0.09849295  0.33332853  0.66667147  1
  Ga  Ga3  1  0.90150705  0.66667147  0.33332853  1
  Fe  Fe0  1  0.50000000  0.50000000  -0.00000000  1
  Fe  Fe1  1  0.50000000  0.50000000  0.50000000  1
  Fe  Fe2  1  0.50000000  -0.00000000  0.50000000  1
  Fe  Fe3  1  0.00000000  0.50000000  -0.00000000  1
  Fe  Fe4  1  0.00000000  0.50000000  0.50000000  1
  Fe  Fe5  1  0.00000000  -0.00000000  0.50000000  1
  Fe  Fe6  1  0.75000000  0.67001099  0.03062765  1
  Fe  Fe7  1  0.75000000  0.36063177  0.33000572  1
  Fe  Fe8  1  0.75000000  0.96937025  0.63937102  1
  Fe  Fe9  1  0.75000000  0.36062898  0.03062975  1
  Fe  Fe10  1  0.75000000  0.96937235  0.32998901  1
  Fe  Fe11  1  0.75000000  0.66999428  0.63936823  1
  Fe  Fe12  1  0.25000000  0.32998901  0.96937235  1
  Fe  Fe13  1  0.25000000  0.63936823  0.66999428  1
  Fe  Fe14  1  0.25000000  0.03062975  0.36062898  1
  Fe  Fe15  1  0.25000000  0.63937102  0.96937025  1
  Fe  Fe16  1  0.25000000  0.03062765  0.67001099  1
  Fe  Fe17  1  0.25000000  0.33000572  0.36063177  1
  Fe  Fe18  1  0.48831999  0.83497127  0.66994436  1
  Fe  Fe19  1  0.48831140  0.83498952  0.16501048  1
  Fe  Fe20  1  0.48831999  0.33005564  0.16502873  1
  Fe  Fe21  1  0.51168001  0.16502873  0.33005564  1
  Fe  Fe22  1  0.51168860  0.16501048  0.83498952  1
  Fe  Fe23  1  0.51168001  0.66994436  0.83497127  1
  Fe  Fe24  1  0.98831999  0.16502873  0.33005564  1
  Fe  Fe25  1  0.98831140  0.16501048  0.83498952  1
  Fe  Fe26  1  0.98831999  0.66994436  0.83497127  1
  Fe  Fe27  1  0.01168001  0.83497127  0.66994436  1
  Fe  Fe28  1  0.01168860  0.83498952  0.16501048  1
  Fe  Fe29  1  0.01168001  0.33005564  0.16502873  1
loop_
_geom_bond_atom_site_label_1
_geom_bond_atom_site_label_2
_geom_bond_distance
_geom_bond_site_symmetry_2
Ga0 Ga3 2.524285 1_555
Ga0 Tm2 2.903150 1_555
Ga1 Ga2 2.524285 1_555
Ga1 Tm3 2.903150 1_555
Ga2 Tm3 2.903150 1_455
Ga3 Tm2 2.903150 1_655
Fe0 Fe23 2.474740 1_554
Fe0 Fe20 2.474740 1_555
Fe0 Fe19 2.474989 1_555
Fe0 Fe22 2.474989 1_554
Fe0 Fe15 2.475293 1_554
Fe0 Fe9 2.475293 1_555
Fe0 Fe12 2.475357 1_554
Fe0 Fe6 2.475357 1_555
Fe0 Ga1 2.593912 1_554
Fe0 Ga0 2.593912 1_555
Fe0 Tm2 3.223763 1_555
Fe0 Tm3 3.223763 1_554
Fe1 Fe21 2.474852 1_555
Fe1 Fe20 2.474852 1_555
Fe1 Fe23 2.474852 1_555
Fe1 Fe18 2.474852 1_555
Fe1 Fe17 2.475311 1_555
Fe1 Fe7 2.475311 1_555
Fe1 Fe11 2.475311 1_555
Fe1 Fe13 2.475311 1_555
Fe1 Ga1 2.593895 1_555
Fe1 Ga0 2.593895 1_555
Fe1 Tm2 3.223712 1_555
Fe1 Tm3 3.223712 1_555
Fe2 Fe21 2.474740 1_555
Fe2 Fe22 2.474989 1_555
Fe2 Fe8 2.475293 1_545
Fe2 Ga0 2.593912 1_545
Fe2 Ga1 2.593912 1_555
Fe2 Tm3 3.223763 1_555
Fe2 Tm2 3.223763 1_545
Fe3 Fe9 2.475293 1_455
Fe3 Fe6 2.475357 1_455
Fe3 Ga2 2.593912 1_554
Fe3 Ga3 2.593912 1_455
Fe3 Tm2 3.223763 1_555
Fe3 Tm3 3.223763 1_454
Fe4 Fe7 2.475311 1_455
Fe4 Ga2 2.593895 1_555
Fe4 Ga3 2.593895 1_455
Fe4 Tm3 3.223712 1_455
Fe4 Tm2 3.223712 1_555
Fe5 Fe8 2.475293 1_445
Fe5 Ga3 2.593912 1_445
Fe5 Ga2 2.593912 1_555
Fe5 Tm3 3.223763 1_455
Fe5 Tm2 3.223763 1_545
Fe6 Fe9 2.637189 1_555
Fe6 Ga3 2.885280 1_555
Fe6 Ga0 2.885280 1_555
Fe6 Tm0 2.952054 1_565
Fe6 Tm3 2.993063 1_554
Fe7 Fe9 2.551877 1_555
Fe7 Ga3 2.885341 1_555
Fe7 Ga0 2.885341 1_555
Fe7 Tm0 2.952321 1_555
Fe7 Tm3 2.992869 1_555
Fe8 Ga0 2.885400 1_555
Fe8 Ga3 2.885400 1_555
Fe8 Tm0 2.952129 1_566
Fe8 Tm3 2.992867 1_565
Fe9 Ga0 2.885400 1_555
Fe9 Ga3 2.885400 1_555
Fe9 Tm0 2.952129 1_555
Fe9 Tm3 2.992867 1_554
Fe10 Fe2 2.475357 1_565
Fe10 Fe5 2.475357 1_665
Fe10 Fe19 2.536047 1_555
Fe10 Fe28 2.536047 1_655
Fe10 Fe6 2.551893 1_555
Fe10 Fe24 2.592709 1_565
Fe10 Fe21 2.592709 1_565
Fe10 Fe8 2.637189 1_555
Fe10 Ga3 2.885280 1_555
Fe10 Ga0 2.885280 1_555
Fe10 Tm0 2.952054 1_565
Fe10 Tm3 2.993063 1_565
Fe11 Fe4 2.475311 1_655
Fe11 Fe18 2.535983 1_555
Fe11 Fe27 2.535983 1_655
Fe11 Fe8 2.551877 1_555
Fe11 Fe26 2.592736 1_555
Fe11 Fe23 2.592736 1_555
Fe11 Fe7 2.637147 1_555
Fe11 Ga3 2.885341 1_555
Fe11 Ga0 2.885341 1_555
Fe11 Tm0 2.952321 1_566
Fe11 Tm3 2.992869 1_555
Fe12 Fe3 2.475357 1_556
Fe12 Fe25 2.536047 1_455
Fe12 Fe22 2.536047 1_555
Fe12 Fe16 2.551893 1_555
Fe12 Fe20 2.592709 1_556
Fe12 Fe29 2.592709 1_556
Fe12 Fe15 2.637189 1_555
Fe12 Ga2 2.885280 1_555
Fe12 Ga1 2.885280 1_555
Fe12 Tm1 2.952054 1_556
Fe12 Tm2 2.993063 1_556
Fe13 Fe4 2.475311 1_555
Fe13 Fe23 2.535983 1_555
Fe13 Fe26 2.535983 1_455
Fe13 Fe15 2.551877 1_555
Fe13 Fe18 2.592736 1_555
Fe13 Fe27 2.592736 1_555
Fe13 Fe17 2.637147 1_555
Fe13 Ga1 2.885341 1_555
Fe13 Ga2 2.885341 1_555
Fe13 Tm1 2.952321 1_566
Fe13 Tm2 2.992869 1_555
Fe14 Fe5 2.475293 1_555
Fe14 Fe2 2.475293 1_555
Fe14 Fe21 2.535954 1_555
Fe14 Fe24 2.535954 1_455
Fe14 Fe17 2.551877 1_555
Fe14 Fe19 2.592743 1_545
Fe14 Fe28 2.592743 1_545
Fe14 Fe16 2.637189 1_555
Fe14 Ga2 2.885400 1_555
Fe14 Ga1 2.885400 1_555
Fe14 Tm1 2.952129 1_555
Fe14 Tm2 2.992867 1_545
Fe15 Fe3 2.475293 1_556
Fe15 Fe23 2.535954 1_555
Fe15 Fe26 2.535954 1_455
Fe15 Fe28 2.592743 1_556
Fe15 Fe19 2.592743 1_556
Fe15 Ga2 2.885400 1_555
Fe15 Ga1 2.885400 1_555
Fe15 Tm1 2.952129 1_566
Fe15 Tm2 2.992867 1_556
Fe16 Fe5 2.475357 1_555
Fe16 Fe2 2.475357 1_555
Fe16 Fe25 2.536047 1_455
Fe16 Fe22 2.536047 1_555
Fe16 Fe18 2.592709 1_545
Fe16 Fe27 2.592709 1_545
Fe16 Ga2 2.885280 1_555
Fe16 Ga1 2.885280 1_555
Fe16 Tm1 2.952054 1_556
Fe16 Tm2 2.993063 1_545
Fe17 Fe4 2.475311 1_555
Fe17 Fe24 2.535983 1_455
Fe17 Fe21 2.535983 1_555
Fe17 Fe20 2.592736 1_555
Fe17 Fe29 2.592736 1_555
Fe17 Ga2 2.885341 1_555
Fe17 Ga1 2.885341 1_555
Fe17 Tm1 2.952321 1_555
Fe17 Tm2 2.992869 1_555
Fe18 Fe23 2.444183 1_555
Fe18 Fe22 2.444204 1_565
Fe18 Fe2 2.474740 1_565
Fe18 Fe8 2.535954 1_555
Fe18 Ga0 2.649064 1_555
Fe18 Tm1 3.143006 1_566
Fe18 Tm2 3.180674 1_555
Fe18 Tm0 3.269393 1_566
Fe19 Fe23 2.444204 1_554
Fe19 Fe21 2.444204 1_565
Fe19 Fe2 2.474989 1_565
Fe19 Fe6 2.536047 1_555
Fe19 Ga0 2.649111 1_555
Fe19 Tm1 3.142635 1_565
Fe19 Tm2 3.180686 1_555
Fe19 Tm0 3.269189 1_565
Fe20 Fe21 2.444183 1_555
Fe20 Fe22 2.444204 1_554
Fe20 Fe9 2.535954 1_555
Fe20 Fe7 2.535983 1_555
Fe20 Ga0 2.649064 1_555
Fe20 Tm1 3.143006 1_555
Fe20 Tm2 3.180674 1_555
Fe20 Tm0 3.269393 1_555
Fe21 Fe7 2.592736 1_555
Fe21 Ga1 2.649064 1_555
Fe21 Tm0 3.143006 1_555
Fe21 Tm3 3.180674 1_555
Fe21 Tm1 3.269393 1_555
Fe22 Fe9 2.592743 1_556
Fe22 Fe8 2.592743 1_545
Fe22 Ga1 2.649111 1_555
Fe22 Tm0 3.142635 1_556
Fe22 Tm3 3.180686 1_555
Fe22 Tm1 3.269189 1_556
Fe23 Fe6 2.592709 1_556
Fe23 Ga1 2.649064 1_555
Fe23 Tm0 3.143006 1_566
Fe23 Tm3 3.180674 1_555
Fe23 Tm1 3.269393 1_566
Fe24 Fe29 2.444183 1_655
Fe24 Fe28 2.444204 1_645
Fe24 Fe5 2.474740 1_655
Fe24 Fe4 2.474852 1_655
Fe24 Fe7 2.592736 1_555
Fe24 Ga2 2.649064 1_655
Fe24 Tm0 3.143006 1_555
Fe24 Tm3 3.180674 1_555
Fe24 Tm1 3.269393 1_655
Fe25 Fe27 2.444204 1_645
Fe25 Fe29 2.444204 1_656
Fe25 Fe5 2.474989 1_655
Fe25 Fe3 2.474989 1_656
Fe25 Fe9 2.592743 1_556
Fe25 Fe8 2.592743 1_545
Fe25 Ga2 2.649111 1_655
Fe25 Tm0 3.142635 1_556
Fe25 Tm3 3.180686 1_555
Fe25 Tm1 3.269189 1_656
Fe26 Fe27 2.444183 1_655
Fe26 Fe28 2.444204 1_656
Fe26 Fe3 2.474740 1_656
Fe26 Fe4 2.474852 1_655
Fe26 Fe6 2.592709 1_556
Fe26 Ga2 2.649064 1_655
Fe26 Tm0 3.143006 1_566
Fe26 Tm3 3.180674 1_555
Fe26 Tm1 3.269393 1_666
Fe27 Fe5 2.474740 1_565
Fe27 Fe4 2.474852 1_555
Fe27 Fe8 2.535954 1_455
Fe27 Ga3 2.649064 1_455
Fe27 Tm1 3.143006 1_566
Fe27 Tm2 3.180674 1_555
Fe27 Tm0 3.269393 1_466
Fe28 Fe3 2.474989 1_555
Fe28 Fe5 2.474989 1_565
Fe28 Fe6 2.536047 1_455
Fe28 Ga3 2.649111 1_455
Fe28 Tm1 3.142635 1_565
Fe28 Tm2 3.180686 1_555
Fe28 Tm0 3.269189 1_465
Fe29 Fe3 2.474740 1_555
Fe29 Fe4 2.474852 1_555
Fe29 Fe9 2.535954 1_455
Fe29 Fe7 2.535983 1_455
Fe29 Ga3 2.649064 1_455
Fe29 Tm1 3.143006 1_555
Fe29 Tm2 3.180674 1_555
Fe29 Tm0 3.269393 1_455
