# generated using pymatgen
data_Mo
_symmetry_space_group_name_H-M   'P 1'
_cell_length_a   19.60619455
_cell_length_b   6.12597200
_cell_length_c   19.29660454
_cell_angle_alpha   90.00000000
_cell_angle_beta   66.15044016
_cell_angle_gamma   90.00000000
_symmetry_Int_Tables_number   1
_chemical_formula_structural   Mo
_chemical_formula_sum   Mo128
_cell_volume   2119.75312289
_cell_formula_units_Z   128
loop_
 _symmetry_equiv_pos_site_id
 _symmetry_equiv_pos_as_xyz
  1  'x, y, z'
loop_
 _atom_site_type_symbol
 _atom_site_label
 _atom_site_symmetry_multiplicity
 _atom_site_fract_x
 _atom_site_fract_y
 _atom_site_fract_z
 _atom_site_occupancy
  Mo  Mo0_0  1  0.28815850  0.12417650  0.02692500  1
  Mo  Mo0_1  1  0.28815850  0.12417650  0.52692500  1
  Mo  Mo0_2  1  0.28815850  0.62417650  0.02692500  1
  Mo  Mo0_3  1  0.28815850  0.62417650  0.52692500  1
  Mo  Mo0_4  1  0.78815850  0.12417650  0.02692500  1
  Mo  Mo0_5  1  0.78815850  0.12417650  0.52692500  1
  Mo  Mo0_6  1  0.78815850  0.62417650  0.02692500  1
  Mo  Mo0_7  1  0.78815850  0.62417650  0.52692500  1
  Mo  Mo1_0  1  0.46184150  0.12417650  0.47307500  1
  Mo  Mo1_1  1  0.46184150  0.12417650  0.97307500  1
  Mo  Mo1_2  1  0.46184150  0.62417650  0.47307500  1
  Mo  Mo1_3  1  0.46184150  0.62417650  0.97307500  1
  Mo  Mo1_4  1  0.96184150  0.12417650  0.47307500  1
  Mo  Mo1_5  1  0.96184150  0.12417650  0.97307500  1
  Mo  Mo1_6  1  0.96184150  0.62417650  0.47307500  1
  Mo  Mo1_7  1  0.96184150  0.62417650  0.97307500  1
  Mo  Mo2_0  1  0.21184150  0.37582350  0.47307500  1
  Mo  Mo2_1  1  0.21184150  0.37582350  0.97307500  1
  Mo  Mo2_2  1  0.21184150  0.87582350  0.47307500  1
  Mo  Mo2_3  1  0.21184150  0.87582350  0.97307500  1
  Mo  Mo2_4  1  0.71184150  0.37582350  0.47307500  1
  Mo  Mo2_5  1  0.71184150  0.37582350  0.97307500  1
  Mo  Mo2_6  1  0.71184150  0.87582350  0.47307500  1
  Mo  Mo2_7  1  0.71184150  0.87582350  0.97307500  1
  Mo  Mo3_0  1  0.03815850  0.37582350  0.02692500  1
  Mo  Mo3_1  1  0.03815850  0.37582350  0.52692500  1
  Mo  Mo3_2  1  0.03815850  0.87582350  0.02692500  1
  Mo  Mo3_3  1  0.03815850  0.87582350  0.52692500  1
  Mo  Mo3_4  1  0.53815850  0.37582350  0.02692500  1
  Mo  Mo3_5  1  0.53815850  0.37582350  0.52692500  1
  Mo  Mo3_6  1  0.53815850  0.87582350  0.02692500  1
  Mo  Mo3_7  1  0.53815850  0.87582350  0.52692500  1
  Mo  Mo4_0  1  0.36465100  0.37169650  0.08754000  1
  Mo  Mo4_1  1  0.36465100  0.37169650  0.58754000  1
  Mo  Mo4_2  1  0.36465100  0.87169650  0.08754000  1
  Mo  Mo4_3  1  0.36465100  0.87169650  0.58754000  1
  Mo  Mo4_4  1  0.86465100  0.37169650  0.08754000  1
  Mo  Mo4_5  1  0.86465100  0.37169650  0.58754000  1
  Mo  Mo4_6  1  0.86465100  0.87169650  0.08754000  1
  Mo  Mo4_7  1  0.86465100  0.87169650  0.58754000  1
  Mo  Mo5_0  1  0.38534900  0.37169650  0.41246000  1
  Mo  Mo5_1  1  0.38534900  0.37169650  0.91246000  1
  Mo  Mo5_2  1  0.38534900  0.87169650  0.41246000  1
  Mo  Mo5_3  1  0.38534900  0.87169650  0.91246000  1
  Mo  Mo5_4  1  0.88534900  0.37169650  0.41246000  1
  Mo  Mo5_5  1  0.88534900  0.37169650  0.91246000  1
  Mo  Mo5_6  1  0.88534900  0.87169650  0.41246000  1
  Mo  Mo5_7  1  0.88534900  0.87169650  0.91246000  1
  Mo  Mo6_0  1  0.13534900  0.12830350  0.41246000  1
  Mo  Mo6_1  1  0.13534900  0.12830350  0.91246000  1
  Mo  Mo6_2  1  0.13534900  0.62830350  0.41246000  1
  Mo  Mo6_3  1  0.13534900  0.62830350  0.91246000  1
  Mo  Mo6_4  1  0.63534900  0.12830350  0.41246000  1
  Mo  Mo6_5  1  0.63534900  0.12830350  0.91246000  1
  Mo  Mo6_6  1  0.63534900  0.62830350  0.41246000  1
  Mo  Mo6_7  1  0.63534900  0.62830350  0.91246000  1
  Mo  Mo7_0  1  0.11465100  0.12830350  0.08754000  1
  Mo  Mo7_1  1  0.11465100  0.12830350  0.58754000  1
  Mo  Mo7_2  1  0.11465100  0.62830350  0.08754000  1
  Mo  Mo7_3  1  0.11465100  0.62830350  0.58754000  1
  Mo  Mo7_4  1  0.61465100  0.12830350  0.08754000  1
  Mo  Mo7_5  1  0.61465100  0.12830350  0.58754000  1
  Mo  Mo7_6  1  0.61465100  0.62830350  0.08754000  1
  Mo  Mo7_7  1  0.61465100  0.62830350  0.58754000  1
  Mo  Mo8_0  1  0.45389600  0.12218250  0.15152700  1
  Mo  Mo8_1  1  0.45389600  0.12218250  0.65152700  1
  Mo  Mo8_2  1  0.45389600  0.62218250  0.15152700  1
  Mo  Mo8_3  1  0.45389600  0.62218250  0.65152700  1
  Mo  Mo8_4  1  0.95389600  0.12218250  0.15152700  1
  Mo  Mo8_5  1  0.95389600  0.12218250  0.65152700  1
  Mo  Mo8_6  1  0.95389600  0.62218250  0.15152700  1
  Mo  Mo8_7  1  0.95389600  0.62218250  0.65152700  1
  Mo  Mo9_0  1  0.29610400  0.12218250  0.34847300  1
  Mo  Mo9_1  1  0.29610400  0.12218250  0.84847300  1
  Mo  Mo9_2  1  0.29610400  0.62218250  0.34847300  1
  Mo  Mo9_3  1  0.29610400  0.62218250  0.84847300  1
  Mo  Mo9_4  1  0.79610400  0.12218250  0.34847300  1
  Mo  Mo9_5  1  0.79610400  0.12218250  0.84847300  1
  Mo  Mo9_6  1  0.79610400  0.62218250  0.34847300  1
  Mo  Mo9_7  1  0.79610400  0.62218250  0.84847300  1
  Mo  Mo10_0  1  0.04610400  0.37781750  0.34847300  1
  Mo  Mo10_1  1  0.04610400  0.37781750  0.84847300  1
  Mo  Mo10_2  1  0.04610400  0.87781750  0.34847300  1
  Mo  Mo10_3  1  0.04610400  0.87781750  0.84847300  1
  Mo  Mo10_4  1  0.54610400  0.37781750  0.34847300  1
  Mo  Mo10_5  1  0.54610400  0.37781750  0.84847300  1
  Mo  Mo10_6  1  0.54610400  0.87781750  0.34847300  1
  Mo  Mo10_7  1  0.54610400  0.87781750  0.84847300  1
  Mo  Mo11_0  1  0.20389600  0.37781750  0.15152700  1
  Mo  Mo11_1  1  0.20389600  0.37781750  0.65152700  1
  Mo  Mo11_2  1  0.20389600  0.87781750  0.15152700  1
  Mo  Mo11_3  1  0.20389600  0.87781750  0.65152700  1
  Mo  Mo11_4  1  0.70389600  0.37781750  0.15152700  1
  Mo  Mo11_5  1  0.70389600  0.37781750  0.65152700  1
  Mo  Mo11_6  1  0.70389600  0.87781750  0.15152700  1
  Mo  Mo11_7  1  0.70389600  0.87781750  0.65152700  1
  Mo  Mo12_0  1  0.06308850  0.12716550  0.22849500  1
  Mo  Mo12_1  1  0.06308850  0.12716550  0.72849500  1
  Mo  Mo12_2  1  0.06308850  0.62716550  0.22849500  1
  Mo  Mo12_3  1  0.06308850  0.62716550  0.72849500  1
  Mo  Mo12_4  1  0.56308850  0.12716550  0.22849500  1
  Mo  Mo12_5  1  0.56308850  0.12716550  0.72849500  1
  Mo  Mo12_6  1  0.56308850  0.62716550  0.22849500  1
  Mo  Mo12_7  1  0.56308850  0.62716550  0.72849500  1
  Mo  Mo13_0  1  0.18691150  0.12716550  0.27150500  1
  Mo  Mo13_1  1  0.18691150  0.12716550  0.77150500  1
  Mo  Mo13_2  1  0.18691150  0.62716550  0.27150500  1
  Mo  Mo13_3  1  0.18691150  0.62716550  0.77150500  1
  Mo  Mo13_4  1  0.68691150  0.12716550  0.27150500  1
  Mo  Mo13_5  1  0.68691150  0.12716550  0.77150500  1
  Mo  Mo13_6  1  0.68691150  0.62716550  0.27150500  1
  Mo  Mo13_7  1  0.68691150  0.62716550  0.77150500  1
  Mo  Mo14_0  1  0.43691150  0.37283500  0.27150500  1
  Mo  Mo14_1  1  0.43691150  0.37283500  0.77150500  1
  Mo  Mo14_2  1  0.43691150  0.87283500  0.27150500  1
  Mo  Mo14_3  1  0.43691150  0.87283500  0.77150500  1
  Mo  Mo14_4  1  0.93691150  0.37283500  0.27150500  1
  Mo  Mo14_5  1  0.93691150  0.37283500  0.77150500  1
  Mo  Mo14_6  1  0.93691150  0.87283500  0.27150500  1
  Mo  Mo14_7  1  0.93691150  0.87283500  0.77150500  1
  Mo  Mo15_0  1  0.31308850  0.37283500  0.22849500  1
  Mo  Mo15_1  1  0.31308850  0.37283500  0.72849500  1
  Mo  Mo15_2  1  0.31308850  0.87283500  0.22849500  1
  Mo  Mo15_3  1  0.31308850  0.87283500  0.72849500  1
  Mo  Mo15_4  1  0.81308850  0.37283500  0.22849500  1
  Mo  Mo15_5  1  0.81308850  0.37283500  0.72849500  1
  Mo  Mo15_6  1  0.81308850  0.87283500  0.22849500  1
  Mo  Mo15_7  1  0.81308850  0.87283500  0.72849500  1
loop_
_geom_bond_atom_site_label_1
_geom_bond_atom_site_label_2
_geom_bond_distance
_geom_bond_site_symmetry_2
Mo0_0 Mo2_3 2.625007 1_544
Mo0_0 Mo2_1 2.636753 1_554
Mo0_0 Mo4_0 2.708324 1_555
Mo0_0 Mo5_1 2.721273 1_554
Mo0_0 Mo4_2 2.725451 1_545
Mo0_0 Mo5_3 2.738320 1_544
Mo0_0 Mo11_2 2.752429 1_545
Mo0_0 Mo11_0 2.777139 1_555
Mo0_0 Mo7_0 3.118244 1_555
Mo0_1 Mo2_2 2.625007 1_545
Mo0_1 Mo2_0 2.636753 1_555
Mo0_1 Mo4_1 2.708324 1_555
Mo0_1 Mo5_0 2.721273 1_555
Mo0_1 Mo4_3 2.725451 1_545
Mo0_1 Mo5_2 2.738320 1_545
Mo0_1 Mo11_3 2.752429 1_545
Mo0_1 Mo11_1 2.777139 1_555
Mo0_1 Mo7_1 3.118244 1_555
Mo0_2 Mo2_1 2.625007 1_554
Mo0_2 Mo2_3 2.636753 1_554
Mo0_2 Mo4_2 2.708324 1_555
Mo0_2 Mo5_3 2.721273 1_554
Mo0_2 Mo4_0 2.725451 1_555
Mo0_2 Mo5_1 2.738320 1_554
Mo0_2 Mo11_0 2.752429 1_555
Mo0_2 Mo11_2 2.777139 1_555
Mo0_2 Mo7_2 3.118244 1_555
Mo0_3 Mo2_0 2.625007 1_555
Mo0_3 Mo2_2 2.636753 1_555
Mo0_3 Mo4_3 2.708324 1_555
Mo0_3 Mo5_2 2.721273 1_555
Mo0_3 Mo4_1 2.725451 1_555
Mo0_3 Mo5_0 2.738320 1_555
Mo0_3 Mo11_1 2.752429 1_555
Mo0_3 Mo11_3 2.777139 1_555
Mo0_3 Mo7_3 3.118244 1_555
Mo0_4 Mo2_7 2.625007 1_544
Mo0_4 Mo2_5 2.636753 1_554
Mo0_4 Mo4_4 2.708324 1_555
Mo0_4 Mo5_5 2.721273 1_554
Mo0_4 Mo4_6 2.725451 1_545
Mo0_4 Mo5_7 2.738320 1_544
Mo0_4 Mo11_6 2.752429 1_545
Mo0_4 Mo11_4 2.777139 1_555
Mo0_4 Mo7_4 3.118244 1_555
Mo0_5 Mo2_6 2.625007 1_545
Mo0_5 Mo2_4 2.636753 1_555
Mo0_5 Mo4_5 2.708324 1_555
Mo0_5 Mo5_4 2.721273 1_555
Mo0_5 Mo4_7 2.725451 1_545
Mo0_5 Mo5_6 2.738320 1_545
Mo0_5 Mo11_7 2.752429 1_545
Mo0_5 Mo11_5 2.777139 1_555
Mo0_5 Mo7_5 3.118244 1_555
Mo0_6 Mo2_5 2.625007 1_554
Mo0_6 Mo2_7 2.636753 1_554
Mo0_6 Mo4_6 2.708324 1_555
Mo0_6 Mo5_7 2.721273 1_554
Mo0_6 Mo4_4 2.725451 1_555
Mo0_6 Mo5_5 2.738320 1_554
Mo0_6 Mo11_4 2.752429 1_555
Mo0_6 Mo11_6 2.777139 1_555
Mo0_6 Mo7_6 3.118244 1_555
Mo0_7 Mo2_4 2.625007 1_555
Mo0_7 Mo2_6 2.636753 1_555
Mo0_7 Mo4_7 2.708324 1_555
Mo0_7 Mo5_6 2.721273 1_555
Mo0_7 Mo4_5 2.725451 1_555
Mo0_7 Mo5_4 2.738320 1_555
Mo0_7 Mo11_5 2.752429 1_555
Mo0_7 Mo11_7 2.777139 1_555
Mo0_7 Mo7_7 3.118244 1_555
Mo1_0 Mo3_7 2.625007 1_545
Mo1_0 Mo3_5 2.636753 1_555
Mo1_0 Mo5_0 2.708324 1_555
Mo1_0 Mo4_1 2.721273 1_555
Mo1_0 Mo5_2 2.725451 1_545
Mo1_0 Mo4_3 2.738320 1_545
Mo1_0 Mo6_4 3.118244 1_555
Mo1_1 Mo3_6 2.625007 1_546
Mo1_1 Mo3_4 2.636753 1_556
Mo1_1 Mo5_1 2.708324 1_555
Mo1_1 Mo4_0 2.721273 1_556
Mo1_1 Mo5_3 2.725451 1_545
Mo1_1 Mo4_2 2.738320 1_546
Mo1_1 Mo6_5 3.118244 1_555
Mo1_2 Mo3_5 2.625007 1_555
Mo1_2 Mo3_7 2.636753 1_555
Mo1_2 Mo5_2 2.708324 1_555
Mo1_2 Mo4_3 2.721273 1_555
Mo1_2 Mo5_0 2.725451 1_555
Mo1_2 Mo4_1 2.738320 1_555
Mo1_2 Mo6_6 3.118244 1_555
Mo1_3 Mo3_4 2.625007 1_556
Mo1_3 Mo3_6 2.636753 1_556
Mo1_3 Mo5_3 2.708324 1_555
Mo1_3 Mo4_2 2.721273 1_556
Mo1_3 Mo5_1 2.725451 1_555
Mo1_3 Mo4_0 2.738320 1_556
Mo1_3 Mo6_7 3.118244 1_555
Mo1_4 Mo3_3 2.625007 1_645
Mo1_4 Mo3_1 2.636753 1_655
Mo1_4 Mo5_4 2.708324 1_555
Mo1_4 Mo4_5 2.721273 1_555
Mo1_4 Mo5_6 2.725451 1_545
Mo1_4 Mo4_7 2.738320 1_545
Mo1_4 Mo6_0 3.118244 1_655
Mo1_5 Mo3_2 2.625007 1_646
Mo1_5 Mo3_0 2.636753 1_656
Mo1_5 Mo5_5 2.708324 1_555
Mo1_5 Mo4_4 2.721273 1_556
Mo1_5 Mo5_7 2.725451 1_545
Mo1_5 Mo4_6 2.738320 1_546
Mo1_5 Mo6_1 3.118244 1_655
Mo1_6 Mo3_1 2.625007 1_655
Mo1_6 Mo3_3 2.636753 1_655
Mo1_6 Mo5_6 2.708324 1_555
Mo1_6 Mo4_7 2.721273 1_555
Mo1_6 Mo5_4 2.725451 1_555
Mo1_6 Mo4_5 2.738320 1_555
Mo1_6 Mo6_2 3.118244 1_655
Mo1_7 Mo3_0 2.625007 1_656
Mo1_7 Mo3_2 2.636753 1_656
Mo1_7 Mo5_7 2.708324 1_555
Mo1_7 Mo4_6 2.721273 1_556
Mo1_7 Mo5_5 2.725451 1_555
Mo1_7 Mo4_4 2.738320 1_556
Mo1_7 Mo6_3 3.118244 1_655
Mo2_0 Mo6_0 2.708324 1_555
Mo2_0 Mo7_1 2.721273 1_555
Mo2_0 Mo6_2 2.725451 1_555
Mo2_0 Mo7_3 2.738320 1_555
Mo2_0 Mo9_2 2.752429 1_555
Mo2_0 Mo9_0 2.777139 1_555
Mo2_0 Mo5_0 3.118244 1_555
Mo2_1 Mo6_1 2.708324 1_555
Mo2_1 Mo7_0 2.721273 1_556
Mo2_1 Mo6_3 2.725451 1_555
Mo2_1 Mo7_2 2.738320 1_556
Mo2_1 Mo9_3 2.752429 1_555
Mo2_1 Mo9_1 2.777139 1_555
Mo2_1 Mo5_1 3.118244 1_555
Mo2_2 Mo6_2 2.708324 1_555
Mo2_2 Mo7_3 2.721273 1_555
Mo2_2 Mo6_0 2.725451 1_565
Mo2_2 Mo7_1 2.738320 1_565
Mo2_2 Mo9_0 2.752429 1_565
Mo2_2 Mo9_2 2.777139 1_555
Mo2_2 Mo5_2 3.118244 1_555
Mo2_3 Mo6_3 2.708324 1_555
Mo2_3 Mo7_2 2.721273 1_556
Mo2_3 Mo6_1 2.725451 1_565
Mo2_3 Mo7_0 2.738320 1_566
Mo2_3 Mo9_1 2.752429 1_565
Mo2_3 Mo9_3 2.777139 1_555
Mo2_3 Mo5_3 3.118244 1_555
Mo2_4 Mo6_4 2.708324 1_555
Mo2_4 Mo7_5 2.721273 1_555
Mo2_4 Mo6_6 2.725451 1_555
Mo2_4 Mo7_7 2.738320 1_555
Mo2_4 Mo9_6 2.752429 1_555
Mo2_4 Mo9_4 2.777139 1_555
Mo2_4 Mo5_4 3.118244 1_555
Mo2_5 Mo6_5 2.708324 1_555
Mo2_5 Mo7_4 2.721273 1_556
Mo2_5 Mo6_7 2.725451 1_555
Mo2_5 Mo7_6 2.738320 1_556
Mo2_5 Mo9_7 2.752429 1_555
Mo2_5 Mo9_5 2.777139 1_555
Mo2_5 Mo5_5 3.118244 1_555
Mo2_6 Mo6_6 2.708324 1_555
Mo2_6 Mo7_7 2.721273 1_555
Mo2_6 Mo6_4 2.725451 1_565
Mo2_6 Mo7_5 2.738320 1_565
Mo2_6 Mo9_4 2.752429 1_565
Mo2_6 Mo9_6 2.777139 1_555
Mo2_6 Mo5_6 3.118244 1_555
Mo2_7 Mo6_7 2.708324 1_555
Mo2_7 Mo7_6 2.721273 1_556
Mo2_7 Mo6_5 2.725451 1_565
Mo2_7 Mo7_4 2.738320 1_566
Mo2_7 Mo9_5 2.752429 1_565
Mo2_7 Mo9_7 2.777139 1_555
Mo2_7 Mo5_7 3.118244 1_555
Mo3_0 Mo7_0 2.708324 1_555
Mo3_0 Mo6_1 2.721273 1_554
Mo3_0 Mo7_2 2.725451 1_555
Mo3_0 Mo6_3 2.738320 1_554
Mo3_0 Mo8_6 2.752429 1_455
Mo3_0 Mo8_4 2.777139 1_455
Mo3_0 Mo4_4 3.118244 1_455
Mo3_1 Mo7_1 2.708324 1_555
Mo3_1 Mo6_0 2.721273 1_555
Mo3_1 Mo7_3 2.725451 1_555
Mo3_1 Mo6_2 2.738320 1_555
Mo3_1 Mo8_7 2.752429 1_455
Mo3_1 Mo8_5 2.777139 1_455
Mo3_1 Mo4_5 3.118244 1_455
Mo3_2 Mo7_2 2.708324 1_555
Mo3_2 Mo6_3 2.721273 1_554
Mo3_2 Mo7_0 2.725451 1_565
Mo3_2 Mo6_1 2.738320 1_564
Mo3_2 Mo8_4 2.752429 1_465
Mo3_2 Mo8_6 2.777139 1_455
Mo3_2 Mo4_6 3.118244 1_455
Mo3_3 Mo7_3 2.708324 1_555
Mo3_3 Mo6_2 2.721273 1_555
Mo3_3 Mo7_1 2.725451 1_565
Mo3_3 Mo6_0 2.738320 1_565
Mo3_3 Mo8_5 2.752429 1_465
Mo3_3 Mo8_7 2.777139 1_455
Mo3_3 Mo4_7 3.118244 1_455
Mo3_4 Mo7_4 2.708324 1_555
Mo3_4 Mo6_5 2.721273 1_554
Mo3_4 Mo7_6 2.725451 1_555
Mo3_4 Mo6_7 2.738320 1_554
Mo3_4 Mo8_2 2.752429 1_555
Mo3_4 Mo8_0 2.777139 1_555
Mo3_4 Mo4_0 3.118244 1_555
Mo3_5 Mo7_5 2.708324 1_555
Mo3_5 Mo6_4 2.721273 1_555
Mo3_5 Mo7_7 2.725451 1_555
Mo3_5 Mo6_6 2.738320 1_555
Mo3_5 Mo8_3 2.752429 1_555
Mo3_5 Mo8_1 2.777139 1_555
Mo3_5 Mo4_1 3.118244 1_555
Mo3_6 Mo7_6 2.708324 1_555
Mo3_6 Mo6_7 2.721273 1_554
Mo3_6 Mo7_4 2.725451 1_565
Mo3_6 Mo6_5 2.738320 1_564
Mo3_6 Mo8_0 2.752429 1_565
Mo3_6 Mo8_2 2.777139 1_555
Mo3_6 Mo4_2 3.118244 1_555
Mo3_7 Mo7_7 2.708324 1_555
Mo3_7 Mo6_6 2.721273 1_555
Mo3_7 Mo7_5 2.725451 1_565
Mo3_7 Mo6_4 2.738320 1_565
Mo3_7 Mo8_1 2.752429 1_565
Mo3_7 Mo8_3 2.777139 1_555
Mo3_7 Mo4_3 3.118244 1_555
Mo4_0 Mo8_0 2.944433 1_555
Mo4_0 Mo8_2 2.947528 1_555
Mo4_0 Mo4_2 3.062986 1_545
Mo4_0 Mo4_2 3.062986 1_555
Mo4_0 Mo5_1 3.235724 1_554
Mo4_1 Mo8_1 2.944433 1_555
Mo4_1 Mo8_3 2.947528 1_555
Mo4_1 Mo4_3 3.062986 1_555
Mo4_1 Mo4_3 3.062986 1_545
Mo4_1 Mo5_0 3.235724 1_555
Mo4_2 Mo8_2 2.944433 1_555
Mo4_2 Mo8_0 2.947528 1_565
Mo4_2 Mo5_3 3.235724 1_554
Mo4_3 Mo8_3 2.944433 1_555
Mo4_3 Mo8_1 2.947528 1_565
Mo4_3 Mo5_2 3.235724 1_555
Mo4_4 Mo8_4 2.944433 1_555
Mo4_4 Mo8_6 2.947528 1_555
Mo4_4 Mo4_6 3.062986 1_545
Mo4_4 Mo4_6 3.062986 1_555
Mo4_4 Mo5_5 3.235724 1_554
Mo4_5 Mo8_5 2.944433 1_555
Mo4_5 Mo8_7 2.947528 1_555
Mo4_5 Mo4_7 3.062986 1_545
Mo4_5 Mo4_7 3.062986 1_555
Mo4_5 Mo5_4 3.235724 1_555
Mo4_6 Mo8_6 2.944433 1_555
Mo4_6 Mo8_4 2.947528 1_565
Mo4_6 Mo5_7 3.235724 1_554
Mo4_7 Mo8_7 2.944433 1_555
Mo4_7 Mo8_5 2.947528 1_565
Mo4_7 Mo5_6 3.235724 1_555
Mo5_0 Mo9_0 2.944433 1_555
Mo5_0 Mo9_2 2.947528 1_555
Mo5_0 Mo5_2 3.062986 1_545
Mo5_0 Mo5_2 3.062986 1_555
Mo5_1 Mo9_1 2.944433 1_555
Mo5_1 Mo9_3 2.947528 1_555
Mo5_1 Mo5_3 3.062986 1_545
Mo5_1 Mo5_3 3.062986 1_555
Mo5_2 Mo9_2 2.944433 1_555
Mo5_2 Mo9_0 2.947528 1_565
Mo5_3 Mo9_3 2.944433 1_555
Mo5_3 Mo9_1 2.947528 1_565
Mo5_4 Mo9_4 2.944433 1_555
Mo5_4 Mo9_6 2.947528 1_555
Mo5_4 Mo5_6 3.062986 1_545
Mo5_4 Mo5_6 3.062986 1_555
Mo5_5 Mo9_5 2.944433 1_555
Mo5_5 Mo9_7 2.947528 1_555
Mo5_5 Mo5_7 3.062986 1_545
Mo5_5 Mo5_7 3.062986 1_555
Mo5_6 Mo9_6 2.944433 1_555
Mo5_6 Mo9_4 2.947528 1_565
Mo5_7 Mo9_7 2.944433 1_555
Mo5_7 Mo9_5 2.947528 1_565
Mo6_0 Mo9_0 2.883180 1_555
Mo6_0 Mo6_2 3.062986 1_555
Mo6_0 Mo6_2 3.062986 1_545
Mo6_0 Mo7_1 3.235724 1_555
Mo6_1 Mo9_1 2.883180 1_555
Mo6_1 Mo6_3 3.062986 1_545
Mo6_1 Mo6_3 3.062986 1_555
Mo6_1 Mo7_0 3.235724 1_556
Mo6_2 Mo9_2 2.883180 1_555
Mo6_2 Mo7_3 3.235724 1_555
Mo6_3 Mo9_3 2.883180 1_555
Mo6_3 Mo7_2 3.235724 1_556
Mo6_4 Mo9_4 2.883180 1_555
Mo6_4 Mo6_6 3.062986 1_555
Mo6_4 Mo6_6 3.062986 1_545
Mo6_4 Mo7_5 3.235724 1_555
Mo6_5 Mo9_5 2.883180 1_555
Mo6_5 Mo6_7 3.062986 1_545
Mo6_5 Mo6_7 3.062986 1_555
Mo6_5 Mo7_4 3.235724 1_556
Mo6_6 Mo9_6 2.883180 1_555
Mo6_6 Mo7_7 3.235724 1_555
Mo6_7 Mo9_7 2.883180 1_555
Mo6_7 Mo7_6 3.235724 1_556
Mo7_0 Mo8_4 2.883180 1_455
Mo7_0 Mo7_2 3.062986 1_545
Mo7_0 Mo7_2 3.062986 1_555
Mo7_1 Mo8_5 2.883180 1_455
Mo7_1 Mo7_3 3.062986 1_555
Mo7_1 Mo7_3 3.062986 1_545
Mo7_2 Mo8_6 2.883180 1_455
Mo7_3 Mo8_7 2.883180 1_455
Mo7_4 Mo8_0 2.883180 1_555
Mo7_4 Mo7_6 3.062986 1_555
Mo7_4 Mo7_6 3.062986 1_545
Mo7_5 Mo8_1 2.883180 1_555
Mo7_5 Mo7_7 3.062986 1_555
Mo7_5 Mo7_7 3.062986 1_545
Mo7_6 Mo8_2 2.883180 1_555
Mo7_7 Mo8_3 2.883180 1_555
Mo8_0 Mo8_2 3.062986 1_545
Mo8_0 Mo8_2 3.062986 1_555
Mo8_1 Mo8_3 3.062986 1_555
Mo8_1 Mo8_3 3.062986 1_545
Mo8_4 Mo8_6 3.062986 1_555
Mo8_4 Mo8_6 3.062986 1_545
Mo8_5 Mo8_7 3.062986 1_545
Mo8_5 Mo8_7 3.062986 1_555
Mo9_0 Mo9_2 3.062986 1_545
Mo9_0 Mo9_2 3.062986 1_555
Mo9_1 Mo9_3 3.062986 1_545
Mo9_1 Mo9_3 3.062986 1_555
Mo9_4 Mo9_6 3.062986 1_545
Mo9_4 Mo9_6 3.062986 1_555
Mo9_5 Mo9_7 3.062986 1_555
Mo9_5 Mo9_7 3.062986 1_545
Mo10_0 Mo12_2 2.679682 1_555
Mo10_0 Mo12_0 2.684244 1_555
Mo10_0 Mo1_6 2.752429 1_455
Mo10_0 Mo1_4 2.777139 1_455
Mo10_0 Mo5_4 2.883180 1_455
Mo10_0 Mo6_0 2.944433 1_555
Mo10_0 Mo6_2 2.947528 1_555
Mo10_0 Mo13_2 2.974027 1_555
Mo10_0 Mo13_0 2.978137 1_555
Mo10_0 Mo14_4 3.059630 1_455
Mo10_0 Mo10_2 3.062986 1_555
Mo10_0 Mo10_2 3.062986 1_545
Mo10_1 Mo12_3 2.679682 1_555
Mo10_1 Mo12_1 2.684244 1_555
Mo10_1 Mo1_7 2.752429 1_455
Mo10_1 Mo1_5 2.777139 1_455
Mo10_1 Mo5_5 2.883180 1_455
Mo10_1 Mo6_1 2.944433 1_555
Mo10_1 Mo6_3 2.947528 1_555
Mo10_1 Mo13_3 2.974027 1_555
Mo10_1 Mo13_1 2.978137 1_555
Mo10_1 Mo14_5 3.059630 1_455
Mo10_1 Mo10_3 3.062986 1_555
Mo10_1 Mo10_3 3.062986 1_545
Mo10_2 Mo12_0 2.679682 1_565
Mo10_2 Mo12_2 2.684244 1_555
Mo10_2 Mo1_4 2.752429 1_465
Mo10_2 Mo1_6 2.777139 1_455
Mo10_2 Mo5_6 2.883180 1_455
Mo10_2 Mo6_2 2.944433 1_555
Mo10_2 Mo6_0 2.947528 1_565
Mo10_2 Mo13_0 2.974027 1_565
Mo10_2 Mo13_2 2.978137 1_555
Mo10_2 Mo14_6 3.059630 1_455
Mo10_3 Mo12_1 2.679682 1_565
Mo10_3 Mo12_3 2.684244 1_555
Mo10_3 Mo1_5 2.752429 1_465
Mo10_3 Mo1_7 2.777139 1_455
Mo10_3 Mo5_7 2.883180 1_455
Mo10_3 Mo6_3 2.944433 1_555
Mo10_3 Mo6_1 2.947528 1_565
Mo10_3 Mo13_1 2.974027 1_565
Mo10_3 Mo13_3 2.978137 1_555
Mo10_3 Mo14_7 3.059630 1_455
Mo10_4 Mo12_6 2.679682 1_555
Mo10_4 Mo12_4 2.684244 1_555
Mo10_4 Mo1_2 2.752429 1_555
Mo10_4 Mo1_0 2.777139 1_555
Mo10_4 Mo5_0 2.883180 1_555
Mo10_4 Mo6_4 2.944433 1_555
Mo10_4 Mo6_6 2.947528 1_555
Mo10_4 Mo13_6 2.974027 1_555
Mo10_4 Mo13_4 2.978137 1_555
Mo10_4 Mo14_0 3.059630 1_555
Mo10_4 Mo10_6 3.062986 1_555
Mo10_4 Mo10_6 3.062986 1_545
Mo10_5 Mo12_7 2.679682 1_555
Mo10_5 Mo12_5 2.684244 1_555
Mo10_5 Mo1_3 2.752429 1_555
Mo10_5 Mo1_1 2.777139 1_555
Mo10_5 Mo5_1 2.883180 1_555
Mo10_5 Mo6_5 2.944433 1_555
Mo10_5 Mo6_7 2.947528 1_555
Mo10_5 Mo13_7 2.974027 1_555
Mo10_5 Mo13_5 2.978137 1_555
Mo10_5 Mo14_1 3.059630 1_555
Mo10_5 Mo10_7 3.062986 1_555
Mo10_5 Mo10_7 3.062986 1_545
Mo10_6 Mo12_4 2.679682 1_565
Mo10_6 Mo12_6 2.684244 1_555
Mo10_6 Mo1_0 2.752429 1_565
Mo10_6 Mo1_2 2.777139 1_555
Mo10_6 Mo5_2 2.883180 1_555
Mo10_6 Mo6_6 2.944433 1_555
Mo10_6 Mo6_4 2.947528 1_565
Mo10_6 Mo13_4 2.974027 1_565
Mo10_6 Mo13_6 2.978137 1_555
Mo10_6 Mo14_2 3.059630 1_555
Mo10_7 Mo12_5 2.679682 1_565
Mo10_7 Mo12_7 2.684244 1_555
Mo10_7 Mo1_1 2.752429 1_565
Mo10_7 Mo1_3 2.777139 1_555
Mo10_7 Mo5_3 2.883180 1_555
Mo10_7 Mo6_7 2.944433 1_555
Mo10_7 Mo6_5 2.947528 1_565
Mo10_7 Mo13_5 2.974027 1_565
Mo10_7 Mo13_7 2.978137 1_555
Mo10_7 Mo14_3 3.059630 1_555
Mo11_0 Mo13_2 2.679682 1_555
Mo11_0 Mo13_0 2.684244 1_555
Mo11_0 Mo4_0 2.883180 1_555
Mo11_0 Mo7_0 2.944433 1_555
Mo11_0 Mo7_2 2.947528 1_555
Mo11_0 Mo12_2 2.974027 1_555
Mo11_0 Mo12_0 2.978137 1_555
Mo11_0 Mo15_0 3.059630 1_555
Mo11_0 Mo11_2 3.062986 1_555
Mo11_0 Mo11_2 3.062986 1_545
Mo11_1 Mo13_3 2.679682 1_555
Mo11_1 Mo13_1 2.684244 1_555
Mo11_1 Mo4_1 2.883180 1_555
Mo11_1 Mo7_1 2.944433 1_555
Mo11_1 Mo7_3 2.947528 1_555
Mo11_1 Mo12_3 2.974027 1_555
Mo11_1 Mo12_1 2.978137 1_555
Mo11_1 Mo15_1 3.059630 1_555
Mo11_1 Mo11_3 3.062986 1_555
Mo11_1 Mo11_3 3.062986 1_545
Mo11_2 Mo13_0 2.679682 1_565
Mo11_2 Mo13_2 2.684244 1_555
Mo11_2 Mo4_2 2.883180 1_555
Mo11_2 Mo7_2 2.944433 1_555
Mo11_2 Mo7_0 2.947528 1_565
Mo11_2 Mo12_0 2.974027 1_565
Mo11_2 Mo12_2 2.978137 1_555
Mo11_2 Mo15_2 3.059630 1_555
Mo11_3 Mo13_1 2.679682 1_565
Mo11_3 Mo13_3 2.684244 1_555
Mo11_3 Mo4_3 2.883180 1_555
Mo11_3 Mo7_3 2.944433 1_555
Mo11_3 Mo7_1 2.947528 1_565
Mo11_3 Mo12_1 2.974027 1_565
Mo11_3 Mo12_3 2.978137 1_555
Mo11_3 Mo15_3 3.059630 1_555
Mo11_4 Mo13_6 2.679682 1_555
Mo11_4 Mo13_4 2.684244 1_555
Mo11_4 Mo4_4 2.883180 1_555
Mo11_4 Mo7_4 2.944433 1_555
Mo11_4 Mo7_6 2.947528 1_555
Mo11_4 Mo12_6 2.974027 1_555
Mo11_4 Mo12_4 2.978137 1_555
Mo11_4 Mo15_4 3.059630 1_555
Mo11_4 Mo11_6 3.062986 1_555
Mo11_4 Mo11_6 3.062986 1_545
Mo11_5 Mo13_7 2.679682 1_555
Mo11_5 Mo13_5 2.684244 1_555
Mo11_5 Mo4_5 2.883180 1_555
Mo11_5 Mo7_5 2.944433 1_555
Mo11_5 Mo7_7 2.947528 1_555
Mo11_5 Mo12_7 2.974027 1_555
Mo11_5 Mo12_5 2.978137 1_555
Mo11_5 Mo15_5 3.059630 1_555
Mo11_5 Mo11_7 3.062986 1_555
Mo11_5 Mo11_7 3.062986 1_545
Mo11_6 Mo13_4 2.679682 1_565
Mo11_6 Mo13_6 2.684244 1_555
Mo11_6 Mo4_6 2.883180 1_555
Mo11_6 Mo7_6 2.944433 1_555
Mo11_6 Mo7_4 2.947528 1_565
Mo11_6 Mo12_4 2.974027 1_565
Mo11_6 Mo12_6 2.978137 1_555
Mo11_6 Mo15_6 3.059630 1_555
Mo11_7 Mo13_5 2.679682 1_565
Mo11_7 Mo13_7 2.684244 1_555
Mo11_7 Mo4_7 2.883180 1_555
Mo11_7 Mo7_7 2.944433 1_555
Mo11_7 Mo7_5 2.947528 1_565
Mo11_7 Mo12_5 2.974027 1_565
Mo11_7 Mo12_7 2.978137 1_555
Mo11_7 Mo15_7 3.059630 1_555
Mo12_0 Mo7_0 2.489292 1_555
Mo12_0 Mo14_4 2.722743 1_455
Mo12_0 Mo14_6 2.752425 1_445
Mo12_0 Mo13_0 2.865640 1_555
Mo12_0 Mo8_4 3.059630 1_455
Mo12_0 Mo12_2 3.062986 1_545
Mo12_0 Mo12_2 3.062986 1_555
Mo12_1 Mo7_1 2.489292 1_555
Mo12_1 Mo14_5 2.722743 1_455
Mo12_1 Mo14_7 2.752425 1_445
Mo12_1 Mo13_1 2.865640 1_555
Mo12_1 Mo8_5 3.059630 1_455
Mo12_1 Mo12_3 3.062986 1_545
Mo12_1 Mo12_3 3.062986 1_555
Mo12_2 Mo7_2 2.489292 1_555
Mo12_2 Mo14_6 2.722743 1_455
Mo12_2 Mo14_4 2.752425 1_455
Mo12_2 Mo13_2 2.865640 1_555
Mo12_2 Mo8_6 3.059630 1_455
Mo12_3 Mo7_3 2.489292 1_555
Mo12_3 Mo14_7 2.722743 1_455
Mo12_3 Mo14_5 2.752425 1_455
Mo12_3 Mo13_3 2.865640 1_555
Mo12_3 Mo8_7 3.059630 1_455
Mo12_4 Mo7_4 2.489292 1_555
Mo12_4 Mo14_0 2.722743 1_555
Mo12_4 Mo14_2 2.752425 1_545
Mo12_4 Mo13_4 2.865640 1_555
Mo12_4 Mo8_0 3.059630 1_555
Mo12_4 Mo12_6 3.062986 1_545
Mo12_4 Mo12_6 3.062986 1_555
Mo12_5 Mo7_5 2.489292 1_555
Mo12_5 Mo14_1 2.722743 1_555
Mo12_5 Mo14_3 2.752425 1_545
Mo12_5 Mo13_5 2.865640 1_555
Mo12_5 Mo8_1 3.059630 1_555
Mo12_5 Mo12_7 3.062986 1_545
Mo12_5 Mo12_7 3.062986 1_555
Mo12_6 Mo7_6 2.489292 1_555
Mo12_6 Mo14_2 2.722743 1_555
Mo12_6 Mo14_0 2.752425 1_555
Mo12_6 Mo13_6 2.865640 1_555
Mo12_6 Mo8_2 3.059630 1_555
Mo12_7 Mo7_7 2.489292 1_555
Mo12_7 Mo14_3 2.722743 1_555
Mo12_7 Mo14_1 2.752425 1_555
Mo12_7 Mo13_7 2.865640 1_555
Mo12_7 Mo8_3 3.059630 1_555
Mo13_0 Mo6_0 2.489292 1_555
Mo13_0 Mo15_0 2.722743 1_555
Mo13_0 Mo15_2 2.752425 1_545
Mo13_0 Mo9_0 3.059630 1_555
Mo13_0 Mo13_2 3.062986 1_545
Mo13_0 Mo13_2 3.062986 1_555
Mo13_1 Mo6_1 2.489292 1_555
Mo13_1 Mo15_1 2.722743 1_555
Mo13_1 Mo15_3 2.752425 1_545
Mo13_1 Mo9_1 3.059630 1_555
Mo13_1 Mo13_3 3.062986 1_545
Mo13_1 Mo13_3 3.062986 1_555
Mo13_2 Mo6_2 2.489292 1_555
Mo13_2 Mo15_2 2.722743 1_555
Mo13_2 Mo15_0 2.752425 1_555
Mo13_2 Mo9_2 3.059630 1_555
Mo13_3 Mo6_3 2.489292 1_555
Mo13_3 Mo15_3 2.722743 1_555
Mo13_3 Mo15_1 2.752425 1_555
Mo13_3 Mo9_3 3.059630 1_555
Mo13_4 Mo6_4 2.489292 1_555
Mo13_4 Mo15_4 2.722743 1_555
Mo13_4 Mo15_6 2.752425 1_545
Mo13_4 Mo9_4 3.059630 1_555
Mo13_4 Mo13_6 3.062986 1_545
Mo13_4 Mo13_6 3.062986 1_555
Mo13_5 Mo6_5 2.489292 1_555
Mo13_5 Mo15_5 2.722743 1_555
Mo13_5 Mo15_7 2.752425 1_545
Mo13_5 Mo9_5 3.059630 1_555
Mo13_5 Mo13_7 3.062986 1_545
Mo13_5 Mo13_7 3.062986 1_555
Mo13_6 Mo6_6 2.489292 1_555
Mo13_6 Mo15_6 2.722743 1_555
Mo13_6 Mo15_4 2.752425 1_555
Mo13_6 Mo9_6 3.059630 1_555
Mo13_7 Mo6_7 2.489292 1_555
Mo13_7 Mo15_7 2.722743 1_555
Mo13_7 Mo15_5 2.752425 1_555
Mo13_7 Mo9_7 3.059630 1_555
Mo14_0 Mo5_0 2.489292 1_555
Mo14_0 Mo8_2 2.679680 1_555
Mo14_0 Mo8_0 2.684245 1_555
Mo14_0 Mo15_0 2.865640 1_555
Mo14_0 Mo9_2 2.974025 1_555
Mo14_0 Mo9_0 2.978139 1_555
Mo14_0 Mo14_2 3.062986 1_545
Mo14_0 Mo14_2 3.062986 1_555
Mo14_1 Mo5_1 2.489292 1_555
Mo14_1 Mo8_3 2.679680 1_555
Mo14_1 Mo8_1 2.684245 1_555
Mo14_1 Mo15_1 2.865640 1_555
Mo14_1 Mo9_3 2.974025 1_555
Mo14_1 Mo9_1 2.978139 1_555
Mo14_1 Mo14_3 3.062986 1_545
Mo14_1 Mo14_3 3.062986 1_555
Mo14_2 Mo5_2 2.489292 1_555
Mo14_2 Mo8_0 2.679680 1_565
Mo14_2 Mo8_2 2.684245 1_555
Mo14_2 Mo15_2 2.865640 1_555
Mo14_2 Mo9_0 2.974025 1_565
Mo14_2 Mo9_2 2.978139 1_555
Mo14_3 Mo5_3 2.489292 1_555
Mo14_3 Mo8_1 2.679680 1_565
Mo14_3 Mo8_3 2.684245 1_555
Mo14_3 Mo15_3 2.865640 1_555
Mo14_3 Mo9_1 2.974025 1_565
Mo14_3 Mo9_3 2.978139 1_555
Mo14_4 Mo5_4 2.489292 1_555
Mo14_4 Mo8_6 2.679680 1_555
Mo14_4 Mo8_4 2.684245 1_555
Mo14_4 Mo15_4 2.865640 1_555
Mo14_4 Mo9_6 2.974025 1_555
Mo14_4 Mo9_4 2.978139 1_555
Mo14_4 Mo14_6 3.062986 1_555
Mo14_4 Mo14_6 3.062986 1_545
Mo14_5 Mo5_5 2.489292 1_555
Mo14_5 Mo8_7 2.679680 1_555
Mo14_5 Mo8_5 2.684245 1_555
Mo14_5 Mo15_5 2.865640 1_555
Mo14_5 Mo9_7 2.974025 1_555
Mo14_5 Mo9_5 2.978139 1_555
Mo14_5 Mo14_7 3.062986 1_555
Mo14_5 Mo14_7 3.062986 1_545
Mo14_6 Mo5_6 2.489292 1_555
Mo14_6 Mo8_4 2.679680 1_565
Mo14_6 Mo8_6 2.684245 1_555
Mo14_6 Mo15_6 2.865640 1_555
Mo14_6 Mo9_4 2.974025 1_565
Mo14_6 Mo9_6 2.978139 1_555
Mo14_7 Mo5_7 2.489292 1_555
Mo14_7 Mo8_5 2.679680 1_565
Mo14_7 Mo8_7 2.684245 1_555
Mo14_7 Mo15_7 2.865640 1_555
Mo14_7 Mo9_5 2.974025 1_565
Mo14_7 Mo9_7 2.978139 1_555
Mo15_0 Mo4_0 2.489292 1_555
Mo15_0 Mo9_2 2.679680 1_555
Mo15_0 Mo9_0 2.684245 1_555
Mo15_0 Mo8_2 2.974025 1_555
Mo15_0 Mo8_0 2.978139 1_555
Mo15_0 Mo15_2 3.062986 1_555
Mo15_0 Mo15_2 3.062986 1_545
Mo15_1 Mo4_1 2.489292 1_555
Mo15_1 Mo9_3 2.679680 1_555
Mo15_1 Mo9_1 2.684245 1_555
Mo15_1 Mo8_3 2.974025 1_555
Mo15_1 Mo8_1 2.978139 1_555
Mo15_1 Mo15_3 3.062986 1_545
Mo15_1 Mo15_3 3.062986 1_555
Mo15_2 Mo4_2 2.489292 1_555
Mo15_2 Mo9_0 2.679680 1_565
Mo15_2 Mo9_2 2.684245 1_555
Mo15_2 Mo8_0 2.974025 1_565
Mo15_2 Mo8_2 2.978139 1_555
Mo15_3 Mo4_3 2.489292 1_555
Mo15_3 Mo9_1 2.679680 1_565
Mo15_3 Mo9_3 2.684245 1_555
Mo15_3 Mo8_1 2.974025 1_565
Mo15_3 Mo8_3 2.978139 1_555
Mo15_4 Mo4_4 2.489292 1_555
Mo15_4 Mo9_6 2.679680 1_555
Mo15_4 Mo9_4 2.684245 1_555
Mo15_4 Mo8_6 2.974025 1_555
Mo15_4 Mo8_4 2.978139 1_555
Mo15_4 Mo15_6 3.062986 1_555
Mo15_4 Mo15_6 3.062986 1_545
Mo15_5 Mo4_5 2.489292 1_555
Mo15_5 Mo9_7 2.679680 1_555
Mo15_5 Mo9_5 2.684245 1_555
Mo15_5 Mo8_7 2.974025 1_555
Mo15_5 Mo8_5 2.978139 1_555
Mo15_5 Mo15_7 3.062986 1_545
Mo15_5 Mo15_7 3.062986 1_555
Mo15_6 Mo4_6 2.489292 1_555
Mo15_6 Mo9_4 2.679680 1_565
Mo15_6 Mo9_6 2.684245 1_555
Mo15_6 Mo8_4 2.974025 1_565
Mo15_6 Mo8_6 2.978139 1_555
Mo15_7 Mo4_7 2.489292 1_555
Mo15_7 Mo9_5 2.679680 1_565
Mo15_7 Mo9_7 2.684245 1_555
Mo15_7 Mo8_5 2.974025 1_565
Mo15_7 Mo8_7 2.978139 1_555
