# generated using pymatgen
data_CrMo3
_symmetry_space_group_name_H-M   'P 1'
_cell_length_a   5.85851801
_cell_length_b   5.85851800
_cell_length_c   16.80509986
_cell_angle_alpha   79.96162801
_cell_angle_beta   100.03837115
_cell_angle_gamma   119.99998868
_symmetry_Int_Tables_number   1
_chemical_formula_structural   CrMo3
_chemical_formula_sum   'Cr8 Mo24'
_cell_volume   489.29112797
_cell_formula_units_Z   8
loop_
 _symmetry_equiv_pos_site_id
 _symmetry_equiv_pos_as_xyz
  1  'x, y, z'
loop_
 _atom_site_type_symbol
 _atom_site_label
 _atom_site_symmetry_multiplicity
 _atom_site_fract_x
 _atom_site_fract_y
 _atom_site_fract_z
 _atom_site_occupancy
  Cr  Cr0_0  1  0.43822250  0.06177750  0.31466700  1
  Cr  Cr0_1  1  0.43822250  0.06177750  0.81466700  1
  Cr  Cr0_2  1  0.43822250  0.56177750  0.31466700  1
  Cr  Cr0_3  1  0.43822250  0.56177750  0.81466700  1
  Cr  Cr0_4  1  0.93822250  0.06177750  0.31466700  1
  Cr  Cr0_5  1  0.93822250  0.06177750  0.81466700  1
  Cr  Cr0_6  1  0.93822250  0.56177750  0.31466700  1
  Cr  Cr0_7  1  0.93822250  0.56177750  0.81466700  1
  Mo  Mo0_0  1  0.06552550  0.43447450  0.19657700  1
  Mo  Mo0_1  1  0.06552550  0.43447450  0.69657700  1
  Mo  Mo0_2  1  0.06552550  0.93447450  0.19657700  1
  Mo  Mo0_3  1  0.06552550  0.93447450  0.69657700  1
  Mo  Mo0_4  1  0.56552550  0.43447450  0.19657700  1
  Mo  Mo0_5  1  0.56552550  0.43447450  0.69657700  1
  Mo  Mo0_6  1  0.56552550  0.93447450  0.19657700  1
  Mo  Mo0_7  1  0.56552550  0.93447450  0.69657700  1
  Mo  Mo1_0  1  0.35337900  0.14662100  0.06013750  1
  Mo  Mo1_1  1  0.35337900  0.14662100  0.56013750  1
  Mo  Mo1_2  1  0.35337900  0.64662100  0.06013750  1
  Mo  Mo1_3  1  0.35337900  0.64662100  0.56013750  1
  Mo  Mo1_4  1  0.85337900  0.14662100  0.06013750  1
  Mo  Mo1_5  1  0.85337900  0.14662100  0.56013750  1
  Mo  Mo1_6  1  0.85337900  0.64662100  0.06013750  1
  Mo  Mo1_7  1  0.85337900  0.64662100  0.56013750  1
  Mo  Mo2_0  1  0.14287300  0.35712700  0.42861850  1
  Mo  Mo2_1  1  0.14287300  0.35712700  0.92861850  1
  Mo  Mo2_2  1  0.14287300  0.85712700  0.42861850  1
  Mo  Mo2_3  1  0.14287300  0.85712700  0.92861850  1
  Mo  Mo2_4  1  0.64287300  0.35712700  0.42861850  1
  Mo  Mo2_5  1  0.64287300  0.35712700  0.92861850  1
  Mo  Mo2_6  1  0.64287300  0.85712700  0.42861850  1
  Mo  Mo2_7  1  0.64287300  0.85712700  0.92861850  1
loop_
_geom_bond_atom_site_label_1
_geom_bond_atom_site_label_2
_geom_bond_distance
_geom_bond_site_symmetry_2
Cr0_0 Mo2_6 2.525614 1_545
Cr0_0 Mo2_2 2.525614 1_545
Cr0_0 Mo2_4 2.525614 1_555
Cr0_0 Mo0_6 2.576612 1_545
Cr0_0 Mo0_4 2.576615 1_555
Cr0_0 Mo0_2 2.576615 1_545
Cr0_1 Mo2_7 2.525614 1_545
Cr0_1 Mo2_3 2.525614 1_545
Cr0_1 Mo2_5 2.525614 1_555
Cr0_1 Mo0_7 2.576612 1_545
Cr0_1 Mo0_5 2.576615 1_555
Cr0_1 Mo0_3 2.576615 1_545
Cr0_2 Mo2_4 2.525614 1_555
Cr0_2 Mo2_0 2.525614 1_555
Cr0_2 Mo2_6 2.525614 1_555
Cr0_2 Mo0_4 2.576612 1_555
Cr0_2 Mo0_6 2.576615 1_555
Cr0_2 Mo0_0 2.576615 1_555
Cr0_3 Mo2_5 2.525614 1_555
Cr0_3 Mo2_1 2.525614 1_555
Cr0_3 Mo2_7 2.525614 1_555
Cr0_3 Mo0_5 2.576612 1_555
Cr0_3 Mo0_7 2.576615 1_555
Cr0_3 Mo0_1 2.576615 1_555
Cr0_4 Mo2_2 2.525614 1_645
Cr0_4 Mo2_6 2.525614 1_545
Cr0_4 Mo2_0 2.525614 1_655
Cr0_4 Mo0_2 2.576612 1_645
Cr0_4 Mo0_0 2.576615 1_655
Cr0_4 Mo0_6 2.576615 1_545
Cr0_5 Mo2_3 2.525614 1_645
Cr0_5 Mo2_7 2.525614 1_545
Cr0_5 Mo2_1 2.525614 1_655
Cr0_5 Mo0_3 2.576612 1_645
Cr0_5 Mo0_1 2.576615 1_655
Cr0_5 Mo0_7 2.576615 1_545
Cr0_6 Mo2_0 2.525614 1_655
Cr0_6 Mo2_4 2.525614 1_555
Cr0_6 Mo2_2 2.525614 1_655
Cr0_6 Mo0_0 2.576612 1_655
Cr0_6 Mo0_2 2.576615 1_655
Cr0_6 Mo0_4 2.576615 1_555
Cr0_7 Mo2_1 2.525614 1_655
Cr0_7 Mo2_5 2.525614 1_555
Cr0_7 Mo2_3 2.525614 1_655
Cr0_7 Mo0_1 2.576612 1_655
Cr0_7 Mo0_3 2.576615 1_655
Cr0_7 Mo0_5 2.576615 1_555
Mo0_0 Mo1_6 2.811495 1_455
Mo0_0 Mo1_2 2.811495 1_555
Mo0_0 Mo1_4 2.811495 1_455
Mo0_1 Mo1_7 2.811495 1_455
Mo0_1 Mo1_3 2.811495 1_555
Mo0_1 Mo1_5 2.811495 1_455
Mo0_2 Mo1_4 2.811495 1_465
Mo0_2 Mo1_0 2.811495 1_565
Mo0_2 Mo1_6 2.811495 1_455
Mo0_3 Mo1_5 2.811495 1_465
Mo0_3 Mo1_1 2.811495 1_565
Mo0_3 Mo1_7 2.811495 1_455
Mo0_4 Mo1_2 2.811495 1_555
Mo0_4 Mo1_6 2.811495 1_555
Mo0_4 Mo1_0 2.811495 1_555
Mo0_5 Mo1_3 2.811495 1_555
Mo0_5 Mo1_7 2.811495 1_555
Mo0_5 Mo1_1 2.811495 1_555
Mo0_6 Mo1_0 2.811495 1_565
Mo0_6 Mo1_4 2.811495 1_565
Mo0_6 Mo1_2 2.811495 1_555
Mo0_7 Mo1_1 2.811495 1_565
Mo0_7 Mo1_5 2.811495 1_565
Mo0_7 Mo1_3 2.811495 1_555
Mo1_0 Mo2_1 2.747221 1_554
Mo1_0 Mo2_5 2.747224 1_554
Mo1_0 Mo2_3 2.747224 1_544
Mo1_0 Mo1_2 2.929259 1_555
Mo1_0 Mo1_2 2.929259 1_545
Mo1_0 Mo1_4 2.929259 1_555
Mo1_0 Mo1_4 2.929259 1_455
Mo1_0 Mo1_6 2.929260 1_555
Mo1_0 Mo1_6 2.929260 1_445
Mo1_1 Mo2_0 2.747221 1_555
Mo1_1 Mo2_4 2.747224 1_555
Mo1_1 Mo2_2 2.747224 1_545
Mo1_1 Mo1_3 2.929259 1_545
Mo1_1 Mo1_3 2.929259 1_555
Mo1_1 Mo1_5 2.929259 1_555
Mo1_1 Mo1_5 2.929259 1_455
Mo1_1 Mo1_7 2.929260 1_555
Mo1_1 Mo1_7 2.929260 1_445
Mo1_2 Mo2_3 2.747221 1_554
Mo1_2 Mo2_7 2.747224 1_554
Mo1_2 Mo2_1 2.747224 1_554
Mo1_2 Mo1_6 2.929259 1_555
Mo1_2 Mo1_6 2.929259 1_455
Mo1_2 Mo1_4 2.929260 1_565
Mo1_2 Mo1_4 2.929260 1_455
Mo1_3 Mo2_2 2.747221 1_555
Mo1_3 Mo2_6 2.747224 1_555
Mo1_3 Mo2_0 2.747224 1_555
Mo1_3 Mo1_7 2.929259 1_455
Mo1_3 Mo1_7 2.929259 1_555
Mo1_3 Mo1_5 2.929260 1_565
Mo1_3 Mo1_5 2.929260 1_455
Mo1_4 Mo2_5 2.747221 1_554
Mo1_4 Mo2_1 2.747224 1_654
Mo1_4 Mo2_7 2.747224 1_544
Mo1_4 Mo1_6 2.929259 1_545
Mo1_4 Mo1_6 2.929259 1_555
Mo1_5 Mo2_4 2.747221 1_555
Mo1_5 Mo2_0 2.747224 1_655
Mo1_5 Mo2_6 2.747224 1_545
Mo1_5 Mo1_7 2.929259 1_555
Mo1_5 Mo1_7 2.929259 1_545
Mo1_6 Mo2_7 2.747221 1_554
Mo1_6 Mo2_3 2.747224 1_654
Mo1_6 Mo2_5 2.747224 1_554
Mo1_7 Mo2_6 2.747221 1_555
Mo1_7 Mo2_2 2.747224 1_655
Mo1_7 Mo2_4 2.747224 1_555
