# generated using pymatgen
data_SrLaMnNbO6
_symmetry_space_group_name_H-M   'P 1'
_cell_length_a   8.19854782
_cell_length_b   8.19848349
_cell_length_c   9.95611742
_cell_angle_alpha   66.35035041
_cell_angle_beta   66.35015409
_cell_angle_gamma   91.42024299
_symmetry_Int_Tables_number   1
_chemical_formula_structural   SrLaMnNbO6
_chemical_formula_sum   'Sr4 La4 Mn4 Nb4 O24'
_cell_volume   547.59579222
_cell_formula_units_Z   4
loop_
 _symmetry_equiv_pos_site_id
 _symmetry_equiv_pos_as_xyz
  1  'x, y, z'
loop_
 _atom_site_type_symbol
 _atom_site_label
 _atom_site_symmetry_multiplicity
 _atom_site_fract_x
 _atom_site_fract_y
 _atom_site_fract_z
 _atom_site_occupancy
  Sr  Sr0  1  0.39850900  0.85834100  0.25112000  1
  Sr  Sr1  1  0.89850400  0.35835000  0.25111000  1
  Sr  Sr2  1  0.10835100  0.14851600  0.75110800  1
  Sr  Sr3  1  0.60835100  0.64851300  0.75110800  1
  La  La0  1  0.09170600  0.64275700  0.75414500  1
  La  La1  1  0.59170300  0.14275400  0.75414100  1
  La  La2  1  0.39275000  0.34171200  0.25413300  1
  La  La3  1  0.89274800  0.84169900  0.25415200  1
  Mn  Mn0  1  0.50144200  0.99609700  0.50128700  1
  Mn  Mn1  1  0.74609300  0.75144400  0.00129000  1
  Mn  Mn2  1  0.00145400  0.49608100  0.50131100  1
  Mn  Mn3  1  0.24608500  0.25144100  0.00132400  1
  Nb  Nb0  1  0.75027800  0.24802900  0.00086000  1
  Nb  Nb1  1  0.25028100  0.74803600  0.00085900  1
  Nb  Nb2  1  0.49803300  0.50027300  0.50086100  1
  Nb  Nb3  1  0.99802600  0.00027600  0.50086400  1
  O  O0  1  0.26165900  0.98871300  0.45124200  1
  O  O1  1  0.76166100  0.48871600  0.45124000  1
  O  O2  1  0.73871700  0.51166000  0.95124100  1
  O  O3  1  0.23871500  0.01166100  0.95124300  1
  O  O4  1  0.23728200  0.52887800  0.55162900  1
  O  O5  1  0.73728500  0.02887800  0.55162600  1
  O  O6  1  0.77887700  0.98728000  0.05162800  1
  O  O7  1  0.27887600  0.48727800  0.05162700  1
  O  O8  1  0.57455700  0.76455800  0.45024300  1
  O  O9  1  0.07456300  0.26455800  0.45024300  1
  O  O10  1  0.01455500  0.32455700  0.95024100  1
  O  O11  1  0.51455700  0.82456000  0.95024200  1
  O  O12  1  0.94106900  0.74084600  0.53942800  1
  O  O13  1  0.44107300  0.24084100  0.53943200  1
  O  O14  1  0.49084000  0.19106900  0.03943300  1
  O  O15  1  0.99083800  0.69107100  0.03943600  1
  O  O16  1  0.93589000  0.90211700  0.73928100  1
  O  O17  1  0.43589300  0.40212000  0.73928100  1
  O  O18  1  0.15212500  0.68589200  0.23928100  1
  O  O19  1  0.65212200  0.18589100  0.23928000  1
  O  O20  1  0.55485900  0.58240700  0.26075600  1
  O  O21  1  0.05486000  0.08240700  0.26076000  1
  O  O22  1  0.33240800  0.80486200  0.76075700  1
  O  O23  1  0.83240500  0.30485700  0.76076000  1
loop_
_geom_bond_atom_site_label_1
_geom_bond_atom_site_label_2
_geom_bond_distance
_geom_bond_site_symmetry_2
La0 O22 2.389426 1_555
La0 O10 2.420458 1_555
La0 O4 2.448743 1_555
La0 O16 2.491803 1_455
La0 O2 2.641711 1_455
La0 O12 2.744095 1_455
La0 O15 2.818324 1_456
La0 O0 2.941300 1_555
La1 O23 2.389458 1_555
La1 O11 2.420438 1_545
La1 O5 2.448725 1_555
La1 O17 2.491820 1_555
La1 O3 2.641711 1_555
La1 O13 2.743984 1_555
La1 O14 2.818343 1_556
La1 O1 2.941320 1_555
La2 O20 2.389453 1_555
La2 O9 2.420424 1_555
La2 O7 2.448631 1_555
La2 O19 2.491925 1_555
La2 O0 2.641777 1_545
La2 O14 2.743978 1_555
La2 O13 2.818444 1_555
La2 O2 2.941306 1_554
La3 O21 2.389468 1_665
La3 O8 2.420407 1_555
La3 O6 2.448773 1_555
La3 O18 2.491882 1_655
La3 O1 2.641642 1_555
La3 O15 2.744017 1_555
La3 O12 2.818234 1_555
La3 O3 2.941386 1_664
Mn0 O8 2.192483 1_555
Mn0 O19 2.194265 1_565
Mn0 O22 2.196083 1_555
Mn0 O0 2.218271 1_555
Mn0 O5 2.218532 1_565
Mn0 O13 2.219267 1_565
Mn1 O11 2.192495 1_554
Mn1 O16 2.194281 1_554
Mn1 O20 2.196060 1_555
Mn1 O2 2.218279 1_554
Mn1 O6 2.218460 1_555
Mn1 O15 2.219302 1_555
Mn2 O9 2.192459 1_555
Mn2 O18 2.194446 1_555
Mn2 O23 2.195947 1_455
Mn2 O4 2.218309 1_555
Mn2 O1 2.218489 1_455
Mn2 O12 2.219335 1_455
Mn3 O10 2.192611 1_554
Mn3 O17 2.194534 1_554
Mn3 O21 2.195850 1_555
Mn3 O7 2.218262 1_555
Mn3 O3 2.218431 1_554
Mn3 O14 2.219217 1_555
Nb0 O19 2.004667 1_555
Nb0 O14 2.010293 1_555
Nb0 O2 2.028708 1_554
Nb0 O6 2.033090 1_545
Nb0 O10 2.035938 1_654
Nb0 O23 2.045565 1_554
Nb1 O18 2.004674 1_555
Nb1 O15 2.010325 1_455
Nb1 O3 2.028672 1_564
Nb1 O7 2.033152 1_555
Nb1 O11 2.035930 1_554
Nb1 O22 2.045588 1_554
Nb2 O17 2.004666 1_555
Nb2 O13 2.010237 1_555
Nb2 O1 2.028690 1_555
Nb2 O4 2.033131 1_555
Nb2 O8 2.035984 1_555
Nb2 O20 2.045609 1_555
Nb3 O16 2.004642 1_545
Nb3 O12 2.010240 1_545
Nb3 O0 2.028736 1_645
Nb3 O5 2.033054 1_555
Nb3 O9 2.035970 1_655
Nb3 O21 2.045587 1_655
O0 Sr0 2.519047 1_555
O1 Sr1 2.519064 1_555
O2 Sr3 2.519110 1_555
O3 Sr2 2.519115 1_555
O4 Sr2 2.823053 1_555
O4 Sr0 2.856773 1_555
O5 Sr3 2.823078 1_545
O5 Sr1 2.856843 1_555
O6 Sr0 2.823126 1_555
O6 Sr2 2.856880 1_664
O7 Sr1 2.823137 1_455
O7 Sr3 2.856879 1_554
O8 Sr0 2.780728 1_555
O8 Sr3 2.889140 1_555
O9 Sr1 2.780882 1_455
O9 Sr2 2.889117 1_555
O10 Sr2 2.780748 1_555
O10 Sr1 2.889164 1_456
O11 Sr3 2.780796 1_555
O11 Sr0 2.889199 1_556
O12 Sr3 2.541845 1_555
O13 Sr2 2.541862 1_555
O14 Sr0 2.541914 1_545
O15 Sr1 2.541835 1_555
O16 Sr2 2.505331 1_665
O17 Sr3 2.505278 1_555
O18 Sr0 2.505254 1_555
O19 Sr1 2.505234 1_555
O20 Sr0 2.615023 1_555
O21 Sr1 2.615097 1_455
O22 Sr3 2.615077 1_555
O23 Sr2 2.615060 1_655
