# generated using pymatgen
data_Cs2HgC2SI4O
_symmetry_space_group_name_H-M   'P 1'
_cell_length_a   8.48119307
_cell_length_b   12.00765383
_cell_length_c   9.99345168
_cell_angle_alpha   80.44230434
_cell_angle_beta   76.12388225
_cell_angle_gamma   74.51327071
_symmetry_Int_Tables_number   1
_chemical_formula_structural   Cs2HgC2SI4O
_chemical_formula_sum   'Cs4 Hg2 C4 S2 I8 O2'
_cell_volume   946.47559148
_cell_formula_units_Z   2
loop_
 _symmetry_equiv_pos_site_id
 _symmetry_equiv_pos_as_xyz
  1  'x, y, z'
loop_
 _atom_site_type_symbol
 _atom_site_label
 _atom_site_symmetry_multiplicity
 _atom_site_fract_x
 _atom_site_fract_y
 _atom_site_fract_z
 _atom_site_occupancy
  Cs  Cs0  1  0.17378100  0.92010400  0.69708600  1
  Cs  Cs1  1  0.82620500  0.07990100  0.30291600  1
  Cs  Cs2  1  0.70697700  0.61823400  0.26021300  1
  Cs  Cs3  1  0.29299600  0.38176800  0.73980400  1
  Hg  Hg0  1  0.62705100  0.76901300  0.82108000  1
  Hg  Hg1  1  0.37294900  0.23099000  0.17891900  1
  C  C0  1  0.70974400  0.23666800  0.91872600  1
  C  C1  1  0.29028100  0.76332100  0.08126200  1
  C  C2  1  0.57245600  0.23954100  0.99871800  1
  C  C3  1  0.42754700  0.76045900  0.00129700  1
  S  S0  1  0.91329600  0.23359000  0.85694600  1
  S  S1  1  0.08670800  0.76640700  0.14305000  1
  I  I0  1  0.96195200  0.66519700  0.85125400  1
  I  I1  1  0.03805000  0.33481000  0.14874200  1
  I  I2  1  0.07158100  0.72616500  0.41304600  1
  I  I3  1  0.92841700  0.27383200  0.58695400  1
  I  I4  1  0.61821200  0.99753900  0.68805100  1
  I  I5  1  0.38178200  0.00246600  0.31194000  1
  I  I6  1  0.54238600  0.62858300  0.64660900  1
  I  I7  1  0.45761600  0.37141300  0.35339800  1
  O  O0  1  0.01280600  0.11282900  0.88409100  1
  O  O1  1  0.98720700  0.88717100  0.11589700  1
loop_
_geom_bond_atom_site_label_1
_geom_bond_atom_site_label_2
_geom_bond_distance
_geom_bond_site_symmetry_2
Cs0 O0 3.039244 1_565
Cs0 I0 3.874662 1_455
Cs0 I5 3.913477 1_565
Cs0 I6 4.033236 1_555
Cs0 I4 4.094006 1_555
Cs0 I3 4.290514 1_465
Cs0 I2 4.322604 1_555
Cs1 O1 3.039400 1_545
Cs1 I1 3.874771 1_655
Cs1 I4 3.913366 1_545
Cs1 I7 4.033097 1_555
Cs1 I5 4.093966 1_555
Cs1 I2 4.290617 1_645
Cs1 I3 4.322572 1_555
Cs2 I6 3.788929 1_555
Cs2 I1 3.919549 1_655
Cs2 S1 3.932957 1_655
Cs2 I7 3.950922 1_555
Cs2 I0 4.164617 1_554
Cs2 I2 4.317101 1_655
Cs3 I7 3.789058 1_555
Cs3 I0 3.919436 1_455
Cs3 S0 3.932761 1_455
Cs3 I6 3.951026 1_555
Cs3 I1 4.164357 1_556
Cs3 I3 4.317044 1_455
Hg0 I4 2.833612 1_555
Hg0 I0 2.847396 1_555
Hg0 I6 2.936408 1_555
Hg1 I5 2.833572 1_555
Hg1 I1 2.847396 1_555
Hg1 I7 2.936415 1_555
C0 C2 1.239850 1_555
C0 S0 1.680818 1_555
C1 C3 1.239606 1_555
C1 S1 1.680975 1_555
C2 Hg1 2.164817 1_556
C2 Cs3 3.813340 1_555
C3 Hg0 2.164908 1_554
C3 Cs2 3.813182 1_555
I2 S1 2.638995 1_555
I3 S0 2.638964 1_555
O0 S0 1.488008 1_455
O1 S1 1.488022 1_655
