# generated using pymatgen
data_CsK3
_symmetry_space_group_name_H-M   'P 1'
_cell_length_a   9.97031655
_cell_length_b   9.97032766
_cell_length_c   8.20424923
_cell_angle_alpha   90.00000000
_cell_angle_beta   90.00000000
_cell_angle_gamma   120.00003315
_symmetry_Int_Tables_number   1
_chemical_formula_structural   CsK3
_chemical_formula_sum   'Cs2 K6'
_cell_volume   706.29756616
_cell_formula_units_Z   2
loop_
 _symmetry_equiv_pos_site_id
 _symmetry_equiv_pos_as_xyz
  1  'x, y, z'
loop_
 _atom_site_type_symbol
 _atom_site_label
 _atom_site_symmetry_multiplicity
 _atom_site_fract_x
 _atom_site_fract_y
 _atom_site_fract_z
 _atom_site_occupancy
  Cs  Cs0  1  0.33333300  0.66666700  0.75000000  1
  Cs  Cs1  1  0.66666700  0.33333300  0.25000000  1
  K  K0  1  0.16087168  0.32174536  0.25000000  1
  K  K1  1  0.67825464  0.83912832  0.25000000  1
  K  K2  1  0.16087168  0.83912832  0.25000000  1
  K  K3  1  0.83912832  0.67825464  0.75000000  1
  K  K4  1  0.32174536  0.16087168  0.75000000  1
  K  K5  1  0.83912832  0.16087168  0.75000000  1
loop_
_geom_bond_atom_site_label_1
_geom_bond_atom_site_label_2
_geom_bond_distance
_geom_bond_site_symmetry_2
Cs0 K3 4.986147 1_455
Cs0 K4 4.986153 1_565
Cs0 K5 4.986163 1_565
Cs0 K5 4.986163 1_455
Cs0 K3 4.986177 1_555
Cs0 K4 4.986183 1_555
Cs0 K1 5.069255 1_556
Cs0 K1 5.069255 1_555
Cs0 K0 5.069257 1_556
Cs0 K0 5.069257 1_555
Cs0 K2 5.069262 1_555
Cs0 K2 5.069262 1_556
Cs1 K0 4.986147 1_655
Cs1 K1 4.986153 1_545
Cs1 K2 4.986163 1_545
Cs1 K2 4.986163 1_655
Cs1 K0 4.986177 1_555
Cs1 K1 4.986183 1_555
Cs1 K4 5.069255 1_555
Cs1 K4 5.069255 1_554
Cs1 K3 5.069257 1_554
Cs1 K3 5.069257 1_555
Cs1 K5 5.069262 1_554
Cs1 K5 5.069262 1_555
K0 K1 4.811845 1_445
K0 K2 4.811850 1_545
K1 K2 4.811845 1_655
K3 K4 4.811845 1_665
K3 K5 4.811850 1_565
K4 K5 4.811845 1_455
