# generated using pymatgen
data_Tl4Bi
_symmetry_space_group_name_H-M   'P 1'
_cell_length_a   30.06229915
_cell_length_b   30.06229915
_cell_length_c   30.06229814
_cell_angle_alpha   13.36490125
_cell_angle_beta   13.36490125
_cell_angle_gamma   13.36490352
_symmetry_Int_Tables_number   1
_chemical_formula_structural   Tl4Bi
_chemical_formula_sum   'Tl32 Bi8'
_cell_volume   1262.86521127
_cell_formula_units_Z   8
loop_
 _symmetry_equiv_pos_site_id
 _symmetry_equiv_pos_as_xyz
  1  'x, y, z'
loop_
 _atom_site_type_symbol
 _atom_site_label
 _atom_site_symmetry_multiplicity
 _atom_site_fract_x
 _atom_site_fract_y
 _atom_site_fract_z
 _atom_site_occupancy
  Tl  Tl0_0  1  0.30011750  0.30011750  0.30011750  1
  Tl  Tl0_1  1  0.30011750  0.30011750  0.80011750  1
  Tl  Tl0_2  1  0.30011750  0.80011750  0.30011750  1
  Tl  Tl0_3  1  0.30011750  0.80011750  0.80011750  1
  Tl  Tl0_4  1  0.80011750  0.30011750  0.30011750  1
  Tl  Tl0_5  1  0.80011750  0.30011750  0.80011750  1
  Tl  Tl0_6  1  0.80011750  0.80011750  0.30011750  1
  Tl  Tl0_7  1  0.80011750  0.80011750  0.80011750  1
  Tl  Tl1_0  1  0.10011700  0.10011700  0.10011700  1
  Tl  Tl1_1  1  0.10011700  0.10011700  0.60011700  1
  Tl  Tl1_2  1  0.10011700  0.60011700  0.10011700  1
  Tl  Tl1_3  1  0.10011700  0.60011700  0.60011700  1
  Tl  Tl1_4  1  0.60011700  0.10011700  0.10011700  1
  Tl  Tl1_5  1  0.60011700  0.10011700  0.60011700  1
  Tl  Tl1_6  1  0.60011700  0.60011700  0.10011700  1
  Tl  Tl1_7  1  0.60011700  0.60011700  0.60011700  1
  Tl  Tl2_0  1  0.39988300  0.39988300  0.39988300  1
  Tl  Tl2_1  1  0.39988300  0.39988300  0.89988300  1
  Tl  Tl2_2  1  0.39988300  0.89988300  0.39988300  1
  Tl  Tl2_3  1  0.39988300  0.89988300  0.89988300  1
  Tl  Tl2_4  1  0.89988300  0.39988300  0.39988300  1
  Tl  Tl2_5  1  0.89988300  0.39988300  0.89988300  1
  Tl  Tl2_6  1  0.89988300  0.89988300  0.39988300  1
  Tl  Tl2_7  1  0.89988300  0.89988300  0.89988300  1
  Tl  Tl3_0  1  0.19988250  0.19988250  0.19988250  1
  Tl  Tl3_1  1  0.19988250  0.19988250  0.69988250  1
  Tl  Tl3_2  1  0.19988250  0.69988250  0.19988250  1
  Tl  Tl3_3  1  0.19988250  0.69988250  0.69988250  1
  Tl  Tl3_4  1  0.69988250  0.19988250  0.19988250  1
  Tl  Tl3_5  1  0.69988250  0.19988250  0.69988250  1
  Tl  Tl3_6  1  0.69988250  0.69988250  0.19988250  1
  Tl  Tl3_7  1  0.69988250  0.69988250  0.69988250  1
  Bi  Bi0_0  1  0.00000000  0.00000000  0.00000000  1
  Bi  Bi0_1  1  0.00000000  0.00000000  0.50000000  1
  Bi  Bi0_2  1  0.00000000  0.50000000  0.00000000  1
  Bi  Bi0_3  1  0.00000000  0.50000000  0.50000000  1
  Bi  Bi0_4  1  0.50000000  0.00000000  0.00000000  1
  Bi  Bi0_5  1  0.50000000  0.00000000  0.50000000  1
  Bi  Bi0_6  1  0.50000000  0.50000000  0.00000000  1
  Bi  Bi0_7  1  0.50000000  0.50000000  0.50000000  1
loop_
_geom_bond_atom_site_label_1
_geom_bond_atom_site_label_2
_geom_bond_distance
_geom_bond_site_symmetry_2
Tl0_0 Tl0_3 3.498245 1_545
Tl0_0 Tl0_3 3.498245 1_554
Tl0_0 Tl0_5 3.498245 1_455
Tl0_0 Tl0_5 3.498245 1_554
Tl0_0 Tl0_6 3.498246 1_455
Tl0_0 Tl0_6 3.498246 1_545
Tl0_0 Tl1_4 3.599133 1_555
Tl0_0 Tl1_2 3.599133 1_555
Tl0_0 Tl1_1 3.599133 1_555
Tl0_1 Tl0_4 3.498245 1_555
Tl0_1 Tl0_2 3.498245 1_555
Tl0_1 Tl0_4 3.498245 1_456
Tl0_1 Tl0_2 3.498245 1_546
Tl0_1 Tl0_7 3.498246 1_455
Tl0_1 Tl0_7 3.498246 1_545
Tl0_1 Tl1_5 3.599133 1_555
Tl0_1 Tl1_3 3.599133 1_555
Tl0_1 Tl1_0 3.599133 1_556
Tl0_2 Tl0_7 3.498245 1_554
Tl0_2 Tl0_7 3.498245 1_455
Tl0_2 Tl0_4 3.498246 1_555
Tl0_2 Tl0_4 3.498246 1_465
Tl0_2 Tl1_6 3.599133 1_555
Tl0_2 Tl1_0 3.599133 1_565
Tl0_2 Tl1_3 3.599133 1_555
Tl0_3 Tl0_6 3.498245 1_555
Tl0_3 Tl0_6 3.498245 1_456
Tl0_3 Tl0_5 3.498246 1_555
Tl0_3 Tl0_5 3.498246 1_465
Tl0_3 Tl1_7 3.599133 1_555
Tl0_3 Tl1_1 3.599133 1_565
Tl0_3 Tl1_2 3.599133 1_556
Tl0_4 Tl0_7 3.498245 1_554
Tl0_4 Tl0_7 3.498245 1_545
Tl0_4 Tl1_0 3.599133 1_655
Tl0_4 Tl1_6 3.599133 1_555
Tl0_4 Tl1_5 3.599133 1_555
Tl0_5 Tl0_6 3.498245 1_555
Tl0_5 Tl0_6 3.498245 1_546
Tl0_5 Tl1_1 3.599133 1_655
Tl0_5 Tl1_7 3.599133 1_555
Tl0_5 Tl1_4 3.599133 1_556
Tl0_6 Tl1_2 3.599133 1_655
Tl0_6 Tl1_4 3.599133 1_565
Tl0_6 Tl1_7 3.599133 1_555
Tl0_7 Tl1_3 3.599133 1_655
Tl0_7 Tl1_5 3.599133 1_565
Tl0_7 Tl1_6 3.599133 1_556
Tl1_0 Tl1_5 3.498245 1_455
Tl1_0 Tl1_5 3.498245 1_554
Tl1_0 Tl1_3 3.498245 1_545
Tl1_0 Tl1_3 3.498245 1_554
Tl1_0 Tl1_6 3.498246 1_545
Tl1_0 Tl1_6 3.498246 1_455
Tl1_0 Tl2_3 3.616424 1_544
Tl1_0 Tl2_5 3.616424 1_454
Tl1_0 Tl2_6 3.616424 1_445
Tl1_1 Tl1_2 3.498245 1_555
Tl1_1 Tl1_4 3.498245 1_555
Tl1_1 Tl1_2 3.498245 1_546
Tl1_1 Tl1_4 3.498245 1_456
Tl1_1 Tl1_7 3.498246 1_545
Tl1_1 Tl1_7 3.498246 1_455
Tl1_1 Tl2_2 3.616424 1_545
Tl1_1 Tl2_4 3.616424 1_455
Tl1_1 Tl2_7 3.616424 1_445
Tl1_2 Tl1_7 3.498245 1_554
Tl1_2 Tl1_7 3.498245 1_455
Tl1_2 Tl1_4 3.498246 1_555
Tl1_2 Tl1_4 3.498246 1_465
Tl1_2 Tl2_7 3.616424 1_454
Tl1_2 Tl2_1 3.616424 1_554
Tl1_2 Tl2_4 3.616424 1_455
Tl1_3 Tl1_6 3.498245 1_555
Tl1_3 Tl1_6 3.498245 1_456
Tl1_3 Tl1_5 3.498246 1_555
Tl1_3 Tl1_5 3.498246 1_465
Tl1_3 Tl2_6 3.616424 1_455
Tl1_3 Tl2_0 3.616424 1_555
Tl1_3 Tl2_5 3.616424 1_455
Tl1_4 Tl1_7 3.498245 1_554
Tl1_4 Tl1_7 3.498245 1_545
Tl1_4 Tl2_7 3.616424 1_544
Tl1_4 Tl2_1 3.616424 1_554
Tl1_4 Tl2_2 3.616424 1_545
Tl1_5 Tl1_6 3.498245 1_546
Tl1_5 Tl1_6 3.498245 1_555
Tl1_5 Tl2_6 3.616424 1_545
Tl1_5 Tl2_0 3.616424 1_555
Tl1_5 Tl2_3 3.616424 1_545
Tl1_6 Tl2_3 3.616424 1_554
Tl1_6 Tl2_5 3.616424 1_554
Tl1_6 Tl2_0 3.616424 1_555
Tl1_7 Tl2_4 3.616424 1_555
Tl1_7 Tl2_2 3.616424 1_555
Tl1_7 Tl2_1 3.616424 1_555
Tl2_0 Tl2_5 3.498245 1_455
Tl2_0 Tl2_3 3.498245 1_545
Tl2_0 Tl2_3 3.498245 1_554
Tl2_0 Tl2_5 3.498245 1_554
Tl2_0 Tl2_6 3.498246 1_455
Tl2_0 Tl2_6 3.498246 1_545
Tl2_0 Tl3_2 3.599133 1_555
Tl2_0 Tl3_4 3.599133 1_555
Tl2_0 Tl3_1 3.599133 1_555
Tl2_1 Tl2_4 3.498245 1_555
Tl2_1 Tl2_2 3.498245 1_555
Tl2_1 Tl2_4 3.498245 1_456
Tl2_1 Tl2_2 3.498245 1_546
Tl2_1 Tl2_7 3.498246 1_455
Tl2_1 Tl2_7 3.498246 1_545
Tl2_1 Tl3_3 3.599133 1_555
Tl2_1 Tl3_5 3.599133 1_555
Tl2_1 Tl3_0 3.599133 1_556
Tl2_2 Tl2_7 3.498245 1_455
Tl2_2 Tl2_7 3.498245 1_554
Tl2_2 Tl2_4 3.498246 1_555
Tl2_2 Tl2_4 3.498246 1_465
Tl2_2 Tl3_0 3.599133 1_565
Tl2_2 Tl3_6 3.599133 1_555
Tl2_2 Tl3_3 3.599133 1_555
Tl2_3 Tl2_6 3.498245 1_456
Tl2_3 Tl2_6 3.498245 1_555
Tl2_3 Tl2_5 3.498246 1_555
Tl2_3 Tl2_5 3.498246 1_465
Tl2_3 Tl3_7 3.599133 1_555
Tl2_3 Tl3_1 3.599133 1_565
Tl2_3 Tl3_2 3.599133 1_556
Tl2_4 Tl2_7 3.498245 1_545
Tl2_4 Tl2_7 3.498245 1_554
Tl2_4 Tl3_0 3.599133 1_655
Tl2_4 Tl3_6 3.599133 1_555
Tl2_4 Tl3_5 3.599133 1_555
Tl2_5 Tl2_6 3.498245 1_546
Tl2_5 Tl2_6 3.498245 1_555
Tl2_5 Tl3_7 3.599133 1_555
Tl2_5 Tl3_1 3.599133 1_655
Tl2_5 Tl3_4 3.599133 1_556
Tl2_6 Tl3_2 3.599133 1_655
Tl2_6 Tl3_4 3.599133 1_565
Tl2_6 Tl3_7 3.599133 1_555
Tl2_7 Tl3_3 3.599133 1_655
Tl2_7 Tl3_5 3.599133 1_565
Tl2_7 Tl3_6 3.599133 1_556
Tl3_0 Tl3_5 3.498245 1_455
Tl3_0 Tl3_3 3.498245 1_545
Tl3_0 Tl3_3 3.498245 1_554
Tl3_0 Tl3_5 3.498245 1_554
Tl3_0 Tl3_6 3.498246 1_545
Tl3_0 Tl3_6 3.498246 1_455
Tl3_1 Tl3_2 3.498245 1_555
Tl3_1 Tl3_4 3.498245 1_456
Tl3_1 Tl3_2 3.498245 1_546
Tl3_1 Tl3_4 3.498245 1_555
Tl3_1 Tl3_7 3.498246 1_545
Tl3_1 Tl3_7 3.498246 1_455
Tl3_2 Tl3_7 3.498245 1_554
Tl3_2 Tl3_7 3.498245 1_455
Tl3_2 Tl3_4 3.498246 1_555
Tl3_2 Tl3_4 3.498246 1_465
Tl3_3 Tl3_6 3.498245 1_555
Tl3_3 Tl3_6 3.498245 1_456
Tl3_3 Tl3_5 3.498246 1_555
Tl3_3 Tl3_5 3.498246 1_465
Tl3_4 Tl3_7 3.498245 1_545
Tl3_4 Tl3_7 3.498245 1_554
Tl3_5 Tl3_6 3.498245 1_555
Tl3_5 Tl3_6 3.498245 1_546
Bi0_0 Bi0_5 3.498245 1_455
Bi0_0 Bi0_3 3.498245 1_545
Bi0_0 Bi0_5 3.498245 1_554
Bi0_0 Bi0_3 3.498245 1_554
Bi0_0 Bi0_6 3.498246 1_545
Bi0_0 Bi0_6 3.498246 1_455
Bi0_0 Tl0_3 3.590409 1_544
Bi0_0 Tl0_5 3.590409 1_454
Bi0_0 Tl3_2 3.590409 1_545
Bi0_0 Tl3_4 3.590409 1_455
Bi0_0 Tl0_6 3.590409 1_445
Bi0_0 Tl3_1 3.590409 1_554
Bi0_1 Bi0_2 3.498245 1_546
Bi0_1 Bi0_2 3.498245 1_555
Bi0_1 Bi0_4 3.498245 1_456
Bi0_1 Bi0_4 3.498245 1_555
Bi0_1 Bi0_7 3.498246 1_545
Bi0_1 Bi0_7 3.498246 1_455
Bi0_1 Tl0_2 3.590409 1_545
Bi0_1 Tl0_4 3.590409 1_455
Bi0_1 Tl3_5 3.590409 1_455
Bi0_1 Tl3_3 3.590409 1_545
Bi0_1 Tl3_0 3.590409 1_555
Bi0_1 Tl0_7 3.590409 1_445
Bi0_2 Bi0_7 3.498245 1_554
Bi0_2 Bi0_7 3.498245 1_455
Bi0_2 Bi0_4 3.498246 1_465
Bi0_2 Bi0_4 3.498246 1_555
Bi0_2 Tl3_6 3.590409 1_455
Bi0_2 Tl0_1 3.590409 1_554
Bi0_2 Tl0_7 3.590409 1_454
Bi0_2 Tl3_0 3.590409 1_555
Bi0_2 Tl0_4 3.590409 1_455
Bi0_2 Tl3_3 3.590409 1_554
Bi0_3 Bi0_6 3.498245 1_555
Bi0_3 Bi0_6 3.498245 1_456
Bi0_3 Bi0_5 3.498246 1_555
Bi0_3 Bi0_5 3.498246 1_465
Bi0_3 Tl3_1 3.590409 1_555
Bi0_3 Tl0_0 3.590409 1_555
Bi0_3 Tl0_6 3.590409 1_455
Bi0_3 Tl3_7 3.590409 1_455
Bi0_3 Tl0_5 3.590409 1_455
Bi0_3 Tl3_2 3.590409 1_555
Bi0_4 Bi0_7 3.498245 1_554
Bi0_4 Bi0_7 3.498245 1_545
Bi0_4 Tl3_6 3.590409 1_545
Bi0_4 Tl0_1 3.590409 1_554
Bi0_4 Tl0_7 3.590409 1_544
Bi0_4 Tl3_0 3.590409 1_555
Bi0_4 Tl0_2 3.590409 1_545
Bi0_4 Tl3_5 3.590409 1_554
Bi0_5 Bi0_6 3.498245 1_555
Bi0_5 Bi0_6 3.498245 1_546
Bi0_5 Tl3_1 3.590409 1_555
Bi0_5 Tl0_0 3.590409 1_555
Bi0_5 Tl0_6 3.590409 1_545
Bi0_5 Tl3_7 3.590409 1_545
Bi0_5 Tl0_3 3.590409 1_545
Bi0_5 Tl3_4 3.590409 1_555
Bi0_6 Tl0_5 3.590409 1_554
Bi0_6 Tl0_3 3.590409 1_554
Bi0_6 Tl3_2 3.590409 1_555
Bi0_6 Tl3_4 3.590409 1_555
Bi0_6 Tl0_0 3.590409 1_555
Bi0_6 Tl3_7 3.590409 1_554
Bi0_7 Tl0_4 3.590409 1_555
Bi0_7 Tl0_2 3.590409 1_555
Bi0_7 Tl3_5 3.590409 1_555
Bi0_7 Tl3_3 3.590409 1_555
Bi0_7 Tl3_6 3.590409 1_555
Bi0_7 Tl0_1 3.590409 1_555
