# generated using pymatgen
data_Ca(WO2)2
_symmetry_space_group_name_H-M   'P 1'
_cell_length_a   6.56585600
_cell_length_b   6.66342614
_cell_length_c   16.22623040
_cell_angle_alpha   90.87882184
_cell_angle_beta   89.99685030
_cell_angle_gamma   119.28692834
_symmetry_Int_Tables_number   1
_chemical_formula_structural   Ca(WO2)2
_chemical_formula_sum   'Ca6 W12 O24'
_cell_volume   619.07921488
_cell_formula_units_Z   6
loop_
 _symmetry_equiv_pos_site_id
 _symmetry_equiv_pos_as_xyz
  1  'x, y, z'
loop_
 _atom_site_type_symbol
 _atom_site_label
 _atom_site_symmetry_multiplicity
 _atom_site_fract_x
 _atom_site_fract_y
 _atom_site_fract_z
 _atom_site_occupancy
  Ca  Ca0  1  0.16777900  0.33312000  0.04308100  1
  Ca  Ca1  1  0.49644800  0.99391800  0.37584900  1
  Ca  Ca2  1  0.50487800  0.00341200  0.00212700  1
  Ca  Ca3  1  0.83844200  0.67226600  0.71227400  1
  Ca  Ca4  1  0.16433700  0.32787000  0.28910300  1
  Ca  Ca5  1  0.49831900  0.99740300  0.62225700  1
  W  W0  1  0.16834500  0.83262300  0.16795900  1
  W  W1  1  0.66377900  0.32712600  0.16815700  1
  W  W2  1  0.49768000  0.49527700  0.50014900  1
  W  W3  1  0.66401100  0.83239000  0.16805200  1
  W  W4  1  0.83114100  0.66221800  0.33393200  1
  W  W5  1  0.99714300  0.99514600  0.50082400  1
  W  W6  1  0.83601600  0.17165800  0.83125400  1
  W  W7  1  0.99701500  0.49530200  0.50036000  1
  W  W8  1  0.33715800  0.17243000  0.83092700  1
  W  W9  1  0.16876300  0.33470900  0.66605700  1
  W  W10  1  0.33492600  0.66944100  0.83189900  1
  W  W11  1  0.86791700  0.73455400  0.97475400  1
  O  O0  1  0.34903700  0.69754000  0.09175200  1
  O  O1  1  0.50028100  0.00176900  0.23612800  1
  O  O2  1  0.34189400  0.14677200  0.09687600  1
  O  O3  1  0.80628300  0.14669200  0.09645100  1
  O  O4  1  0.54088700  0.52352200  0.24497400  1
  O  O5  1  0.68590200  0.37107900  0.42089000  1
  O  O6  1  0.98255200  0.52313500  0.24460300  1
  O  O7  1  0.82529400  0.65099100  0.09748300  1
  O  O8  1  0.68044600  0.80386400  0.42461100  1
  O  O9  1  0.83297300  0.66819000  0.56949700  1
  O  O10  1  0.97447800  0.95026800  0.24829500  1
  O  O11  1  0.12265600  0.80326000  0.42437100  1
  O  O12  1  0.87516500  0.18959600  0.57870800  1
  O  O13  1  0.03460800  0.05155300  0.75371500  1
  O  O14  1  0.31441300  0.18787300  0.57749000  1
  O  O15  1  0.16101700  0.32162000  0.43283500  1
  O  O16  1  0.17440000  0.34092100  0.89659700  1
  O  O17  1  0.02151100  0.48049500  0.75477900  1
  O  O18  1  0.30958600  0.62046700  0.57999300  1
  O  O19  1  0.46005500  0.46979200  0.75760000  1
  O  O20  1  0.17317000  0.86211400  0.89110200  1
  O  O21  1  0.49654300  0.99711900  0.76372100  1
  O  O22  1  0.67401200  0.85037900  0.89827000  1
  O  O23  1  0.62874200  0.29013100  0.90024300  1
loop_
_geom_bond_atom_site_label_1
_geom_bond_atom_site_label_2
_geom_bond_distance
_geom_bond_site_symmetry_2
Ca0 O2 2.243419 1_555
Ca0 O0 2.247332 1_555
Ca0 O3 2.252736 1_455
Ca0 O16 2.378179 1_554
Ca1 O1 2.268405 1_565
Ca1 O8 2.284086 1_555
Ca1 O11 2.288503 1_555
Ca1 O5 2.298424 1_565
Ca2 O3 2.297252 1_555
Ca2 O0 2.316543 1_545
Ca2 O2 2.318682 1_555
Ca2 O23 2.370898 1_554
Ca2 O22 2.483544 1_544
Ca2 O20 2.611045 1_544
Ca3 O17 2.254614 1_655
Ca3 O13 2.293854 1_665
Ca3 O19 2.298786 1_555
Ca3 O9 2.316549 1_555
Ca4 O6 2.277557 1_455
Ca4 O4 2.280335 1_555
Ca4 O10 2.281136 1_445
Ca4 O15 2.333149 1_555
Ca5 O14 2.263692 1_565
Ca5 O12 2.277944 1_565
Ca5 O18 2.283985 1_555
Ca5 O21 2.295482 1_555
O0 W0 2.181123 1_555
O0 W3 2.182934 1_555
O1 W3 2.190526 1_545
O1 W0 2.191473 1_545
O1 W1 2.205728 1_555
O2 W1 2.172877 1_555
O2 W0 2.179667 1_545
O3 W1 2.175400 1_555
O3 W3 2.183824 1_545
O4 W4 2.192218 1_555
O4 W3 2.213176 1_555
O4 W1 2.213660 1_555
O5 W7 2.198626 1_555
O5 W2 2.198634 1_555
O5 W4 2.222090 1_555
O6 W4 2.192769 1_555
O6 W1 2.213892 1_555
O6 W0 2.214694 1_655
O7 W11 2.058069 1_554
O7 W1 2.221173 1_555
O7 W3 2.259061 1_555
O7 W0 2.266420 1_655
O8 W2 2.198528 1_555
O8 W5 2.199235 1_555
O8 W4 2.214885 1_555
O9 W2 2.217911 1_555
O9 W7 2.218100 1_555
O9 W5 2.219645 1_555
O10 W4 2.194324 1_555
O10 W3 2.206824 1_555
O10 W0 2.208798 1_655
O11 W7 2.198428 1_455
O11 W5 2.198886 1_455
O11 W4 2.213233 1_455
O12 W9 2.189645 1_655
O12 W5 2.209592 1_545
O12 W7 2.211488 1_555
O13 W8 2.137403 1_555
O13 W9 2.194342 1_555
O13 W6 2.216665 1_455
O14 W9 2.193015 1_555
O14 W5 2.206853 1_445
O14 W2 2.210395 1_555
O15 W2 2.208440 1_555
O15 W7 2.208992 1_455
O15 W5 2.211496 1_445
O16 W8 2.162173 1_555
O16 W10 2.195003 1_555
O16 W6 2.201018 1_455
O17 W10 2.191550 1_555
O17 W9 2.197002 1_555
O17 W6 2.210020 1_455
O18 W9 2.188547 1_555
O18 W7 2.206750 1_455
O18 W2 2.207761 1_555
O19 W8 2.121524 1_555
O19 W10 2.217724 1_555
O19 W9 2.224765 1_555
O20 W8 2.066869 1_565
O20 W11 2.224919 1_455
O20 W10 2.235000 1_555
O21 W8 2.192218 1_565
O21 W10 2.219117 1_555
O21 W6 2.224073 1_565
O22 W6 2.177245 1_565
O22 W11 2.178918 1_555
O22 W10 2.214607 1_555
O23 W8 2.012359 1_555
O23 W6 2.179982 1_555
O23 W11 2.835157 1_555
