# generated using pymatgen
data_Er12Ga9Ge11
_symmetry_space_group_name_H-M   'P 1'
_cell_length_a   5.93526615
_cell_length_b   5.93526615
_cell_length_c   18.73523684
_cell_angle_alpha   90.00000000
_cell_angle_beta   90.00000000
_cell_angle_gamma   102.85557659
_symmetry_Int_Tables_number   1
_chemical_formula_structural   Er12Ga9Ge11
_chemical_formula_sum   'Er12 Ga9 Ge11'
_cell_volume   643.44998935
_cell_formula_units_Z   1
loop_
 _symmetry_equiv_pos_site_id
 _symmetry_equiv_pos_as_xyz
  1  'x, y, z'
loop_
 _atom_site_type_symbol
 _atom_site_label
 _atom_site_symmetry_multiplicity
 _atom_site_fract_x
 _atom_site_fract_y
 _atom_site_fract_z
 _atom_site_occupancy
  Er  Er0  1  0.65734698  0.65734698  0.00000000  1
  Er  Er1  1  0.65967642  0.65967642  0.50000000  1
  Er  Er2  1  0.34184824  0.34184824  0.24926792  1
  Er  Er3  1  0.34184824  0.34184824  0.75073208  1
  Er  Er4  1  0.19902249  0.80111838  0.12484613  1
  Er  Er5  1  0.19862535  0.80258188  0.62512874  1
  Er  Er6  1  0.19902249  0.80111838  0.87515387  1
  Er  Er7  1  0.19862535  0.80258188  0.37487126  1
  Er  Er8  1  0.80111838  0.19902249  0.12484613  1
  Er  Er9  1  0.80258188  0.19862535  0.62512874  1
  Er  Er10  1  0.80258188  0.19862535  0.37487126  1
  Er  Er11  1  0.80111838  0.19902249  0.87515387  1
  Ga  Ga0  1  0.31738842  0.31738842  0.90205907  1
  Ga  Ga1  1  0.32491668  0.32491668  0.39953866  1
  Ga  Ga2  1  0.67641786  0.67641786  0.34989435  1
  Ga  Ga3  1  0.67681664  0.67681664  0.85043434  1
  Ga  Ga4  1  0.31738842  0.31738842  0.09794093  1
  Ga  Ga5  1  0.32491668  0.32491668  0.60046134  1
  Ga  Ga6  1  0.67681664  0.67681664  0.14956566  1
  Ga  Ga7  1  0.67641786  0.67641786  0.65010565  1
  Ga  Ga8  1  0.04522195  0.04522195  0.00000000  1
  Ge  Ge0  1  0.49730032  0.09409564  0.00000000  1
  Ge  Ge1  1  0.49651634  0.09712368  0.50000000  1
  Ge  Ge2  1  0.90521551  0.50485979  0.24972121  1
  Ge  Ge3  1  0.90521551  0.50485979  0.75027879  1
  Ge  Ge4  1  0.50485979  0.90521551  0.24972121  1
  Ge  Ge5  1  0.50485979  0.90521551  0.75027879  1
  Ge  Ge6  1  0.09409564  0.49730032  0.00000000  1
  Ge  Ge7  1  0.09712368  0.49651634  0.50000000  1
  Ge  Ge8  1  0.04800090  0.04800090  0.50000000  1
  Ge  Ge9  1  0.95354916  0.95354916  0.25001452  1
  Ge  Ge10  1  0.95354916  0.95354916  0.74998548  1
loop_
_geom_bond_atom_site_label_1
_geom_bond_atom_site_label_2
_geom_bond_distance
_geom_bond_site_symmetry_2
Er0 Ga6 2.805851 1_555
Er0 Ga3 2.805851 1_554
Er0 Ga8 2.870772 1_665
Er0 Ge6 2.952573 1_655
Er0 Ge0 2.952573 1_565
Er0 Ga4 3.114151 1_555
Er0 Ga0 3.114151 1_554
Er0 Ge0 3.265760 1_555
Er0 Ge6 3.265760 1_555
Er1 Ga2 2.814993 1_555
Er1 Ga7 2.814993 1_555
Er1 Ge8 2.874099 1_665
Er1 Ge7 2.966101 1_655
Er1 Ge1 2.966101 1_565
Er1 Ga5 3.111480 1_555
Er1 Ga1 3.111480 1_555
Er1 Ge7 3.263009 1_555
Er1 Ge1 3.263009 1_555
Er2 Ga1 2.818145 1_555
Er2 Ga4 2.840921 1_555
Er2 Ge9 2.873945 1_445
Er2 Ge2 2.961071 1_455
Er2 Ge4 2.961071 1_545
Er2 Ga6 3.104131 1_555
Er2 Ga2 3.112233 1_555
Er2 Ge2 3.267588 1_555
Er2 Ge4 3.267588 1_555
Er3 Ga5 2.818145 1_555
Er3 Ga0 2.840921 1_555
Er3 Ge10 2.873945 1_445
Er3 Ge5 2.961071 1_545
Er3 Ge3 2.961071 1_455
Er3 Ga3 3.104131 1_555
Er3 Ga7 3.112233 1_555
Er3 Ge5 3.267588 1_555
Er3 Ge3 3.267588 1_555
Er4 Ge6 2.934420 1_555
Er4 Ge4 2.941304 1_555
Er4 Ga8 2.998652 1_565
Er4 Ge9 3.004508 1_455
Er4 Ga4 3.029693 1_565
Er4 Ga6 3.057404 1_455
Er4 Ga6 3.119574 1_555
Er4 Ga4 3.144553 1_555
Er4 Ge2 3.200295 1_455
Er4 Ge0 3.202979 1_565
Er5 Ge7 2.944780 1_555
Er5 Ge5 2.946130 1_555
Er5 Ge10 2.995103 1_455
Er5 Ge8 2.999381 1_565
Er5 Ga5 3.058199 1_565
Er5 Ga7 3.058342 1_455
Er5 Ga5 3.123893 1_555
Er5 Ga7 3.125148 1_555
Er5 Ge3 3.206796 1_455
Er5 Ge1 3.209766 1_565
Er6 Ge6 2.934420 1_556
Er6 Ge5 2.941304 1_555
Er6 Ga8 2.998652 1_566
Er6 Ge10 3.004508 1_455
Er6 Ga0 3.029693 1_565
Er6 Ga3 3.057404 1_455
Er6 Ga3 3.119574 1_555
Er6 Ga0 3.144553 1_555
Er6 Ge3 3.200295 1_455
Er6 Ge0 3.202979 1_566
Er7 Ge7 2.944780 1_555
Er7 Ge4 2.946130 1_555
Er7 Ge9 2.995103 1_455
Er7 Ge8 2.999381 1_565
Er7 Ga1 3.058199 1_565
Er7 Ga2 3.058342 1_455
Er7 Ga1 3.123893 1_555
Er7 Ga2 3.125148 1_555
Er7 Ge2 3.206796 1_455
Er7 Ge1 3.209766 1_565
Er8 Ge0 2.934420 1_555
Er8 Ge2 2.941304 1_555
Er8 Ga8 2.998652 1_655
Er8 Ge9 3.004508 1_545
Er8 Ga4 3.029693 1_655
Er8 Ga6 3.057404 1_545
Er8 Ga6 3.119574 1_555
Er8 Ga4 3.144553 1_555
Er8 Ge4 3.200295 1_545
Er8 Ge6 3.202979 1_655
Er9 Ge1 2.944780 1_555
Er9 Ge3 2.946130 1_555
Er9 Ge10 2.995103 1_545
Er9 Ge8 2.999381 1_655
Er9 Ga5 3.058199 1_655
Er9 Ga7 3.058342 1_545
Er9 Ga5 3.123893 1_555
Er9 Ga7 3.125148 1_555
Er9 Ge5 3.206796 1_545
Er9 Ge7 3.209766 1_655
Er10 Ge1 2.944780 1_555
Er10 Ge2 2.946130 1_555
Er10 Ge9 2.995103 1_545
Er10 Ge8 2.999381 1_655
Er10 Ga1 3.058199 1_655
Er10 Ga2 3.058342 1_545
Er10 Ga1 3.123893 1_555
Er10 Ga2 3.125148 1_555
Er10 Ge4 3.206796 1_545
Er10 Ge7 3.209766 1_655
Er11 Ge0 2.934420 1_556
Er11 Ge3 2.941304 1_555
Er11 Ga8 2.998652 1_656
Er11 Ge10 3.004508 1_545
Er11 Ga0 3.029693 1_655
Er11 Ga3 3.057404 1_545
Er11 Ga3 3.119574 1_555
Er11 Ga0 3.144553 1_555
Er11 Ge5 3.200295 1_545
Er11 Ge6 3.202979 1_656
Ga0 Ge0 2.625538 1_556
Ga0 Ge6 2.625538 1_556
Ga0 Ga8 2.724841 1_556
Ga0 Ga3 2.830601 1_555
Ga1 Ge7 2.649635 1_555
Ga1 Ge1 2.649635 1_555
Ga1 Ga2 2.762824 1_555
Ga1 Ge8 2.782649 1_555
Ga2 Ge2 2.649241 1_555
Ga2 Ge4 2.649241 1_555
Ga2 Ge9 2.776469 1_555
Ga3 Ge5 2.648773 1_555
Ga3 Ge3 2.648773 1_555
Ga3 Ge10 2.781492 1_555
Ga4 Ge0 2.625538 1_555
Ga4 Ge6 2.625538 1_555
Ga4 Ga8 2.724841 1_555
Ga4 Ga6 2.830601 1_555
Ga5 Ge1 2.649635 1_555
Ga5 Ge7 2.649635 1_555
Ga5 Ga7 2.762824 1_555
Ga5 Ge8 2.782649 1_555
Ga6 Ge4 2.648773 1_555
Ga6 Ge2 2.648773 1_555
Ga6 Ge9 2.781492 1_555
Ga7 Ge5 2.649241 1_555
Ga7 Ge3 2.649241 1_555
Ga7 Ge10 2.776469 1_555
Ga8 Ge0 2.633892 1_555
Ga8 Ge6 2.633892 1_555
Ge1 Ge8 2.612697 1_555
Ge2 Ge9 2.614273 1_555
Ge4 Ge9 2.614273 1_555
Ge7 Ge8 2.612697 1_555
Ge10 Ge5 2.614273 1_555
Ge10 Ge3 2.614273 1_555
