# generated using pymatgen
data_Mg6NbV
_symmetry_space_group_name_H-M   'P 1'
_cell_length_a   4.83640900
_cell_length_b   6.08306800
_cell_length_c   11.08013900
_cell_angle_alpha   90.00000000
_cell_angle_beta   90.00000000
_cell_angle_gamma   90.00000000
_symmetry_Int_Tables_number   1
_chemical_formula_structural   Mg6NbV
_chemical_formula_sum   'Mg12 Nb2 V2'
_cell_volume   325.97995885
_cell_formula_units_Z   2
loop_
 _symmetry_equiv_pos_site_id
 _symmetry_equiv_pos_as_xyz
  1  'x, y, z'
loop_
 _atom_site_type_symbol
 _atom_site_label
 _atom_site_symmetry_multiplicity
 _atom_site_fract_x
 _atom_site_fract_y
 _atom_site_fract_z
 _atom_site_occupancy
  Mg  Mg0  1  0.00000000  0.73985800  0.07994400  1
  Mg  Mg1  1  0.00000000  0.26014200  0.07994400  1
  Mg  Mg2  1  0.00000000  0.00000000  0.32943000  1
  Mg  Mg3  1  0.50000000  0.25863200  0.42276400  1
  Mg  Mg4  1  0.50000000  0.74136800  0.42276400  1
  Mg  Mg5  1  0.50000000  0.00000000  0.16757700  1
  Mg  Mg6  1  0.00000000  0.23985800  0.57994400  1
  Mg  Mg7  1  0.00000000  0.76014200  0.57994400  1
  Mg  Mg8  1  0.00000000  0.50000000  0.82943000  1
  Mg  Mg9  1  0.50000000  0.75863200  0.92276400  1
  Mg  Mg10  1  0.50000000  0.24136800  0.92276400  1
  Mg  Mg11  1  0.50000000  0.50000000  0.66757700  1
  Nb  Nb0  1  0.50000000  0.50000000  0.18968800  1
  Nb  Nb1  1  0.50000000  0.00000000  0.68968800  1
  V  V0  1  0.00000000  0.50000000  0.30788900  1
  V  V1  1  0.00000000  0.00000000  0.80788900  1
loop_
_geom_bond_atom_site_label_1
_geom_bond_atom_site_label_2
_geom_bond_distance
_geom_bond_site_symmetry_2
Mg0 V0 2.916824 1_555
Mg0 Mg1 2.918145 1_555
Mg0 Mg9 2.982255 1_554
Mg0 Mg9 2.982255 1_454
Mg0 Mg5 3.048723 1_465
Mg0 Mg5 3.048723 1_565
Mg0 Nb0 3.074933 1_455
Mg0 Nb0 3.074933 1_555
Mg0 Mg8 3.135852 1_554
Mg0 Mg1 3.164923 1_565
Mg0 Mg2 3.185241 1_565
Mg0 V1 3.404532 1_564
Mg1 V0 2.916824 1_555
Mg1 Mg10 2.982255 1_454
Mg1 Mg10 2.982255 1_554
Mg1 Mg5 3.048723 1_555
Mg1 Mg5 3.048723 1_455
Mg1 Nb0 3.074933 1_455
Mg1 Nb0 3.074933 1_555
Mg1 Mg8 3.135852 1_554
Mg1 Mg2 3.185241 1_555
Mg1 V1 3.404532 1_554
Mg2 Mg5 3.010620 1_455
Mg2 Mg5 3.010620 1_555
Mg2 V0 3.050884 1_555
Mg2 V0 3.050884 1_545
Mg2 Mg3 3.064700 1_555
Mg2 Mg4 3.064700 1_445
Mg2 Mg4 3.064700 1_545
Mg2 Mg3 3.064700 1_455
Mg2 Mg7 3.135852 1_545
Mg2 Mg6 3.135852 1_555
Mg3 Mg4 2.936516 1_555
Mg3 Nb0 2.970717 1_555
Mg3 Mg6 2.982255 1_555
Mg3 Mg6 2.982255 1_655
Mg3 V0 3.102192 1_655
Mg3 V0 3.102192 1_555
Mg3 Mg4 3.146552 1_545
Mg3 Mg5 3.235737 1_555
Mg3 Nb1 3.349975 1_555
Mg4 Nb0 2.970717 1_555
Mg4 Mg7 2.982255 1_655
Mg4 Mg7 2.982255 1_555
Mg4 V0 3.102192 1_655
Mg4 V0 3.102192 1_555
Mg4 Mg5 3.235737 1_565
Mg4 Nb1 3.349975 1_565
Mg5 Nb0 3.051385 1_545
Mg5 Nb0 3.051385 1_555
Mg5 Mg9 3.084441 1_544
Mg6 V1 2.916824 1_555
Mg6 Mg7 2.918145 1_545
Mg6 Nb1 3.074933 1_555
Mg6 Nb1 3.074933 1_455
Mg6 Mg7 3.164923 1_555
Mg6 Mg8 3.185241 1_555
Mg6 V0 3.404532 1_555
Mg7 V1 2.916824 1_565
Mg7 Nb1 3.074933 1_565
Mg7 Nb1 3.074933 1_465
Mg7 Mg8 3.185241 1_555
Mg7 V0 3.404532 1_555
Mg8 V1 3.050884 1_565
Mg8 V1 3.050884 1_555
Mg8 Mg9 3.064700 1_455
Mg8 Mg9 3.064700 1_555
Mg9 Nb1 2.970717 1_565
Mg9 V1 3.102192 1_565
Mg9 V1 3.102192 1_665
Mg9 Nb0 3.349975 1_556
Mg10 Mg9 2.936516 1_545
Mg10 Nb1 2.970717 1_555
Mg10 Mg8 3.064700 1_655
Mg10 Mg8 3.064700 1_555
Mg10 Mg5 3.084441 1_556
Mg10 V1 3.102192 1_555
Mg10 V1 3.102192 1_655
Mg10 Mg9 3.146552 1_555
Mg10 Mg11 3.235737 1_555
Mg10 Nb0 3.349975 1_556
Mg11 Mg8 3.010620 1_655
Mg11 Mg8 3.010620 1_555
Mg11 Mg7 3.048723 1_555
Mg11 Mg7 3.048723 1_655
Mg11 Mg6 3.048723 1_555
Mg11 Mg6 3.048723 1_655
Mg11 Nb1 3.051385 1_555
Mg11 Nb1 3.051385 1_565
Mg11 Mg4 3.084441 1_555
Mg11 Mg3 3.084441 1_555
Mg11 Mg9 3.235737 1_555
Nb0 V0 2.750088 1_655
Nb0 V0 2.750088 1_555
Nb1 V1 2.750088 1_555
Nb1 V1 2.750088 1_655
