# generated using pymatgen
data_Ca16Mn14Al2O45
_symmetry_space_group_name_H-M   'P 1'
_cell_length_a   10.88809927
_cell_length_b   15.14993768
_cell_length_c   10.74697207
_cell_angle_alpha   89.97608115
_cell_angle_beta   90.80254362
_cell_angle_gamma   89.96236486
_symmetry_Int_Tables_number   1
_chemical_formula_structural   Ca16Mn14Al2O45
_chemical_formula_sum   'Ca32 Mn28 Al4 O90'
_cell_volume   1772.58185884
_cell_formula_units_Z   2
loop_
 _symmetry_equiv_pos_site_id
 _symmetry_equiv_pos_as_xyz
  1  'x, y, z'
loop_
 _atom_site_type_symbol
 _atom_site_label
 _atom_site_symmetry_multiplicity
 _atom_site_fract_x
 _atom_site_fract_y
 _atom_site_fract_z
 _atom_site_occupancy
  Ca  Ca0  1  0.01333990  0.11650115  0.49561301  1
  Ca  Ca1  1  0.01815827  0.11580248  0.99695223  1
  Ca  Ca2  1  0.02152240  0.62789174  0.49763792  1
  Ca  Ca3  1  0.02212752  0.62615129  0.99458867  1
  Ca  Ca4  1  0.53436036  0.12443234  0.49604487  1
  Ca  Ca5  1  0.52618360  0.12475097  0.99507391  1
  Ca  Ca6  1  0.52742695  0.63279571  0.50822031  1
  Ca  Ca7  1  0.52568494  0.62557767  0.97923611  1
  Ca  Ca8  1  0.48428790  0.37263885  0.99487112  1
  Ca  Ca9  1  0.49107087  0.37167439  0.50640648  1
  Ca  Ca10  1  0.47891721  0.87375700  0.99976081  1
  Ca  Ca11  1  0.47904685  0.87317123  0.50909256  1
  Ca  Ca12  1  0.97145425  0.38013796  0.00211546  1
  Ca  Ca13  1  0.96429916  0.38248061  0.50042015  1
  Ca  Ca14  1  0.97783904  0.87445553  0.00531641  1
  Ca  Ca15  1  0.97380280  0.87310092  0.50435707  1
  Ca  Ca16  1  0.23418188  0.37965266  0.24735389  1
  Ca  Ca17  1  0.23202844  0.38975574  0.76576451  1
  Ca  Ca18  1  0.23149662  0.87634190  0.24491595  1
  Ca  Ca19  1  0.22863656  0.87391073  0.74837008  1
  Ca  Ca20  1  0.72973106  0.36708882  0.24067565  1
  Ca  Ca21  1  0.72835485  0.37530052  0.74812106  1
  Ca  Ca22  1  0.73015843  0.87517317  0.24524401  1
  Ca  Ca23  1  0.72702784  0.87531156  0.74348420  1
  Ca  Ca24  1  0.26252963  0.12489366  0.23838841  1
  Ca  Ca25  1  0.26763077  0.11675200  0.75925263  1
  Ca  Ca26  1  0.24581131  0.63338332  0.24514982  1
  Ca  Ca27  1  0.27033697  0.62822811  0.75434045  1
  Ca  Ca28  1  0.77306181  0.12014420  0.25693356  1
  Ca  Ca29  1  0.77652518  0.12293345  0.75571686  1
  Ca  Ca30  1  0.77977146  0.62616758  0.25650805  1
  Ca  Ca31  1  0.77462713  0.62674546  0.75367871  1
  Mn  Mn0  1  0.00381641  0.00184840  0.24945894  1
  Mn  Mn1  1  0.99732578  0.99788828  0.75026830  1
  Mn  Mn2  1  0.00079476  0.49769423  0.25017754  1
  Mn  Mn3  1  0.99644301  0.49925009  0.75025016  1
  Mn  Mn4  1  0.49755001  0.00095307  0.74568660  1
  Mn  Mn5  1  0.51007528  0.48945421  0.23951292  1
  Mn  Mn6  1  0.50037708  0.49972475  0.74813858  1
  Mn  Mn7  1  0.25111119  0.00109903  0.00255284  1
  Mn  Mn8  1  0.24977159  0.50083286  0.00314850  1
  Mn  Mn9  1  0.24030374  0.49791707  0.50785048  1
  Mn  Mn10  1  0.75026454  0.99860560  0.99698361  1
  Mn  Mn11  1  0.74808690  0.99975382  0.49786091  1
  Mn  Mn12  1  0.75185040  0.50123534  0.99781272  1
  Mn  Mn13  1  0.74675567  0.50192405  0.49981349  1
  Mn  Mn14  1  0.25074497  0.24236325  0.47194905  1
  Mn  Mn15  1  0.24976972  0.75101583  0.99922787  1
  Mn  Mn16  1  0.25132405  0.75091783  0.49833946  1
  Mn  Mn17  1  0.75604897  0.24645944  0.00598797  1
  Mn  Mn18  1  0.75085898  0.24968188  0.50262790  1
  Mn  Mn19  1  0.74982783  0.75017887  0.00025498  1
  Mn  Mn20  1  0.75040036  0.75060631  0.49834239  1
  Mn  Mn21  1  0.99802371  0.24936936  0.76099312  1
  Mn  Mn22  1  0.99960164  0.75262613  0.25038699  1
  Mn  Mn23  1  0.99971805  0.75047824  0.74968819  1
  Mn  Mn24  1  0.49887049  0.24510633  0.24956761  1
  Mn  Mn25  1  0.51366207  0.24505843  0.75377085  1
  Mn  Mn26  1  0.49880381  0.76012142  0.25369343  1
  Mn  Mn27  1  0.49960406  0.75134687  0.75036843  1
  Al  Al0  1  0.51508570  0.00062305  0.23028253  1
  Al  Al1  1  0.22884404  0.99510888  0.51390896  1
  Al  Al2  1  0.27149869  0.24659572  0.98328149  1
  Al  Al3  1  0.98216655  0.24922433  0.26996401  1
  O  O0  1  0.10561376  0.76971275  0.10476356  1
  O  O1  1  0.10603300  0.77038751  0.60337222  1
  O  O2  1  0.60150933  0.26920278  0.10733710  1
  O  O3  1  0.60467246  0.26685826  0.60390981  1
  O  O4  1  0.60130925  0.76659554  0.10467663  1
  O  O5  1  0.60398393  0.76770228  0.60377496  1
  O  O6  1  0.40767378  0.22488760  0.40099164  1
  O  O7  1  0.40024234  0.23052049  0.88554988  1
  O  O8  1  0.39298931  0.71828043  0.38883649  1
  O  O9  1  0.39428466  0.73148113  0.89548626  1
  O  O10  1  0.89484986  0.23217127  0.40737283  1
  O  O11  1  0.89999405  0.23000662  0.91046365  1
  O  O12  1  0.89482431  0.73022726  0.39431194  1
  O  O13  1  0.89470012  0.72915674  0.89607608  1
  O  O14  1  0.13509754  0.23184645  0.34123473  1
  O  O15  1  0.15585881  0.23712564  0.84608394  1
  O  O16  1  0.14197473  0.73242090  0.35763515  1
  O  O17  1  0.14570594  0.73129112  0.85291876  1
  O  O18  1  0.64982408  0.22839890  0.35028599  1
  O  O19  1  0.65745589  0.22772859  0.86139829  1
  O  O20  1  0.64268456  0.72834204  0.35302400  1
  O  O21  1  0.64465031  0.72901302  0.85405302  1
  O  O22  1  0.34776050  0.26610816  0.14425057  1
  O  O23  1  0.35345488  0.76201720  0.14765892  1
  O  O24  1  0.35596380  0.77097778  0.64412811  1
  O  O25  1  0.86806420  0.27107362  0.14790618  1
  O  O26  1  0.86182984  0.27567535  0.64466050  1
  O  O27  1  0.85401875  0.77050705  0.14742268  1
  O  O28  1  0.85487120  0.77184082  0.64493437  1
  O  O29  1  0.35557317  0.49842945  0.16317560  1
  O  O30  1  0.36035556  0.47843398  0.63797997  1
  O  O31  1  0.35662655  0.98512749  0.14739099  1
  O  O32  1  0.35607492  0.98257823  0.63170908  1
  O  O33  1  0.85223211  0.47983528  0.15037022  1
  O  O34  1  0.85055312  0.47850889  0.64628829  1
  O  O35  1  0.85760393  0.97828803  0.14459539  1
  O  O36  1  0.85263112  0.97920816  0.64593742  1
  O  O37  1  0.15361936  0.02121776  0.35998668  1
  O  O38  1  0.14273240  0.01766356  0.85532329  1
  O  O39  1  0.15556221  0.51469061  0.35306460  1
  O  O40  1  0.14883352  0.51877344  0.85378046  1
  O  O41  1  0.63701598  0.02408824  0.35747865  1
  O  O42  1  0.64311112  0.02346728  0.85137594  1
  O  O43  1  0.62501437  0.53078754  0.35583627  1
  O  O44  1  0.64710900  0.52027461  0.85019470  1
  O  O45  1  0.39254706  0.02173163  0.89432567  1
  O  O46  1  0.39456208  0.51291555  0.89812351  1
  O  O47  1  0.89371988  0.01898738  0.39137701  1
  O  O48  1  0.89287462  0.02040539  0.89325177  1
  O  O49  1  0.89675444  0.51812150  0.39615922  1
  O  O50  1  0.89742421  0.51851169  0.89966555  1
  O  O51  1  0.10530484  0.47874055  0.10578159  1
  O  O52  1  0.09678027  0.47661597  0.61033902  1
  O  O53  1  0.10670737  0.98140376  0.10529057  1
  O  O54  1  0.09783432  0.97875385  0.60858444  1
  O  O55  1  0.60433375  0.48497711  0.09472167  1
  O  O56  1  0.60209908  0.48327133  0.60121502  1
  O  O57  1  0.61010158  0.97848107  0.09830525  1
  O  O58  1  0.60297531  0.98065007  0.60176270  1
  O  O59  1  0.01704201  0.37175559  0.28169142  1
  O  O60  1  0.01596557  0.37432165  0.78782394  1
  O  O61  1  0.01272912  0.87652627  0.29012033  1
  O  O62  1  0.01033263  0.87467982  0.79180253  1
  O  O63  1  0.50043469  0.37185717  0.29487897  1
  O  O64  1  0.50144433  0.37210058  0.77813545  1
  O  O65  1  0.49736520  0.89068571  0.29482126  1
  O  O66  1  0.50889863  0.87624548  0.78677903  1
  O  O67  1  0.48296905  0.12010232  0.21864134  1
  O  O68  1  0.48252843  0.12633537  0.70369440  1
  O  O69  1  0.48689406  0.62520820  0.71769266  1
  O  O70  1  0.99322093  0.12861398  0.21251153  1
  O  O71  1  0.99477395  0.12675012  0.71014973  1
  O  O72  1  0.99884261  0.62475546  0.21279295  1
  O  O73  1  0.98998838  0.62489097  0.71096719  1
  O  O74  1  0.23311902  0.13163843  0.03046018  1
  O  O75  1  0.23684674  0.12691956  0.53835131  1
  O  O76  1  0.23845597  0.62500927  0.03373474  1
  O  O77  1  0.24445461  0.62366652  0.53668401  1
  O  O78  1  0.74130467  0.12289704  0.04461478  1
  O  O79  1  0.74497942  0.12557823  0.54205234  1
  O  O80  1  0.73876424  0.62583522  0.04109422  1
  O  O81  1  0.74373817  0.62584038  0.53821746  1
  O  O82  1  0.26590940  0.36658100  0.48086707  1
  O  O83  1  0.25318263  0.37106026  0.98117240  1
  O  O84  1  0.26324945  0.87830894  0.46063454  1
  O  O85  1  0.26274466  0.87592319  0.96394791  1
  O  O86  1  0.74957857  0.37680057  0.45739442  1
  O  O87  1  0.75709857  0.37567454  0.96352122  1
  O  O88  1  0.75645046  0.87494621  0.45906865  1
  O  O89  1  0.76053636  0.87458759  0.95790342  1
loop_
_geom_bond_atom_site_label_1
_geom_bond_atom_site_label_2
_geom_bond_distance
_geom_bond_site_symmetry_2
Ca0 O47 2.257602 1_455
Ca0 O71 2.322535 1_455
Ca0 O10 2.365586 1_455
Ca0 O75 2.475352 1_555
Ca0 O37 2.569518 1_555
Ca0 O54 2.576719 1_545
Ca0 O14 2.761525 1_555
Ca1 O48 2.270007 1_455
Ca1 O11 2.339877 1_455
Ca1 O70 2.344356 1_456
Ca1 O74 2.375382 1_556
Ca1 O53 2.528833 1_546
Ca1 O38 2.534587 1_555
Ca1 O15 2.885199 1_555
Ca2 O73 2.323392 1_455
Ca2 O12 2.343632 1_455
Ca2 O49 2.400720 1_455
Ca2 O77 2.458302 1_555
Ca2 O16 2.558848 1_555
Ca2 O1 2.602637 1_555
Ca2 O52 2.712615 1_555
Ca2 O39 2.747303 1_555
Ca3 O13 2.331467 1_455
Ca3 O50 2.347134 1_455
Ca3 O72 2.362316 1_456
Ca3 O76 2.386924 1_556
Ca3 O17 2.593053 1_555
Ca3 O40 2.626249 1_555
Ca3 O0 2.633107 1_556
Ca3 O51 2.683365 1_556
Ca4 O6 2.284477 1_555
Ca4 O68 2.309695 1_555
Ca4 O79 2.339236 1_555
Ca4 O41 2.413347 1_555
Ca4 O3 2.562253 1_555
Ca4 O58 2.562410 1_545
Ca4 O18 2.563382 1_555
Ca5 O45 2.384460 1_555
Ca5 O78 2.394870 1_556
Ca5 O7 2.404958 1_555
Ca5 O67 2.455761 1_556
Ca5 O42 2.532735 1_555
Ca5 O19 2.568903 1_555
Ca5 O2 2.625712 1_556
Ca5 O57 2.634984 1_546
Ca6 O69 2.302941 1_555
Ca6 O8 2.325837 1_555
Ca6 O81 2.374965 1_555
Ca6 O5 2.430356 1_555
Ca6 O43 2.499593 1_555
Ca6 O20 2.551675 1_555
Ca6 O56 2.600826 1_555
Ca7 O9 2.321833 1_555
Ca7 O46 2.383481 1_555
Ca7 O80 2.404433 1_556
Ca7 O21 2.448079 1_555
Ca7 O44 2.503327 1_555
Ca7 O55 2.603190 1_556
Ca7 O4 2.652030 1_556
Ca7 O69 2.836508 1_555
Ca8 O64 2.339354 1_555
Ca8 O2 2.344801 1_556
Ca8 O55 2.391995 1_556
Ca8 O83 2.518671 1_555
Ca8 O46 2.553206 1_555
Ca8 O7 2.613060 1_555
Ca8 O22 2.731228 1_556
Ca8 O29 2.989625 1_556
Ca8 O87 2.994502 1_555
Ca9 O3 2.260374 1_555
Ca9 O63 2.276992 1_555
Ca9 O56 2.308162 1_555
Ca9 O82 2.464336 1_555
Ca9 O30 2.587722 1_555
Ca9 O6 2.651272 1_555
Ca9 O86 2.871856 1_555
Ca9 O64 2.920876 1_555
Ca10 O66 2.316887 1_555
Ca10 O4 2.374119 1_556
Ca10 O57 2.375071 1_556
Ca10 O85 2.379845 1_555
Ca10 O9 2.593591 1_555
Ca10 O45 2.675678 1_565
Ca10 O31 2.682434 1_556
Ca10 O23 2.705516 1_556
Ca11 O5 2.322935 1_555
Ca11 O65 2.329239 1_555
Ca11 O58 2.330353 1_555
Ca11 O84 2.400718 1_555
Ca11 O32 2.514933 1_555
Ca11 O24 2.520785 1_555
Ca11 O8 2.833056 1_555
Ca12 O51 2.356998 1_655
Ca12 O60 2.361729 1_654
Ca12 O87 2.365783 1_554
Ca12 O50 2.495528 1_554
Ca12 O25 2.549899 1_555
Ca12 O33 2.561708 1_555
Ca12 O11 2.594525 1_554
Ca13 O52 2.338041 1_655
Ca13 O86 2.378445 1_555
Ca13 O59 2.433075 1_655
Ca13 O49 2.447895 1_555
Ca13 O34 2.482289 1_555
Ca13 O26 2.512904 1_555
Ca13 O10 2.596202 1_555
Ca14 O62 2.326636 1_654
Ca14 O0 2.355813 1_655
Ca14 O53 2.389687 1_655
Ca14 O89 2.413272 1_554
Ca14 O35 2.546169 1_555
Ca14 O27 2.586199 1_555
Ca14 O13 2.649207 1_554
Ca14 O48 2.675680 1_564
Ca15 O61 2.347471 1_655
Ca15 O1 2.362072 1_655
Ca15 O54 2.366949 1_655
Ca15 O88 2.409540 1_555
Ca15 O28 2.523533 1_555
Ca15 O36 2.587543 1_555
Ca15 O12 2.607568 1_555
Ca15 O47 2.661764 1_565
Ca16 O22 2.398610 1_555
Ca16 O59 2.401021 1_555
Ca16 O29 2.416336 1_555
Ca16 O39 2.497133 1_555
Ca16 O82 2.536071 1_555
Ca16 O51 2.544203 1_555
Ca16 O14 2.688473 1_555
Ca16 O83 2.874002 1_554
Ca16 O63 2.938871 1_555
Ca17 O83 2.340267 1_555
Ca17 O40 2.357752 1_555
Ca17 O60 2.379391 1_555
Ca17 O30 2.387008 1_555
Ca17 O52 2.572352 1_555
Ca17 O15 2.607818 1_555
Ca17 O46 2.927908 1_555
Ca17 O64 2.946562 1_555
Ca18 O84 2.339370 1_555
Ca18 O31 2.390072 1_555
Ca18 O23 2.427554 1_555
Ca18 O61 2.437657 1_555
Ca18 O53 2.563057 1_555
Ca18 O0 2.589208 1_555
Ca18 O37 2.663632 1_565
Ca18 O16 2.684275 1_555
Ca18 O65 2.944859 1_555
Ca18 O85 3.043404 1_554
Ca19 O85 2.341457 1_555
Ca19 O24 2.377173 1_555
Ca19 O62 2.428740 1_555
Ca19 O32 2.501511 1_555
Ca19 O1 2.572271 1_555
Ca19 O54 2.596756 1_555
Ca19 O17 2.602932 1_555
Ca19 O38 2.639804 1_565
Ca20 O25 2.327856 1_555
Ca20 O86 2.340758 1_555
Ca20 O33 2.382521 1_555
Ca20 O2 2.479952 1_555
Ca20 O18 2.566797 1_555
Ca20 O63 2.572568 1_555
Ca20 O55 2.729249 1_555
Ca21 O87 2.331621 1_555
Ca21 O34 2.335570 1_555
Ca21 O26 2.381210 1_555
Ca21 O64 2.496568 1_555
Ca21 O44 2.614670 1_555
Ca21 O3 2.619382 1_555
Ca21 O56 2.644263 1_555
Ca21 O19 2.665079 1_555
Ca22 O88 2.311748 1_555
Ca22 O27 2.340219 1_555
Ca22 O35 2.362086 1_555
Ca22 O57 2.566990 1_555
Ca22 O65 2.607844 1_555
Ca22 O4 2.627148 1_555
Ca22 O20 2.688615 1_555
Ca22 O41 2.758021 1_565
Ca23 O89 2.328028 1_555
Ca23 O36 2.342745 1_555
Ca23 O28 2.357204 1_555
Ca23 O66 2.426581 1_555
Ca23 O58 2.574580 1_555
Ca23 O5 2.579835 1_555
Ca23 O21 2.675679 1_555
Ca23 O42 2.691925 1_565
Ca24 O74 2.255247 1_555
Ca24 O37 2.371736 1_555
Ca24 O14 2.411174 1_555
Ca24 O67 2.413536 1_555
Ca24 O22 2.547315 1_555
Ca24 O31 2.552761 1_545
Ca24 O6 2.788214 1_555
Ca24 O70 2.942038 1_455
Ca25 O38 2.282457 1_555
Ca25 O15 2.389120 1_555
Ca25 O75 2.397787 1_555
Ca25 O68 2.427321 1_555
Ca25 O45 2.443313 1_555
Ca25 O7 2.616903 1_555
Ca25 O32 2.641001 1_545
Ca26 O16 2.242412 1_555
Ca26 O76 2.275956 1_555
Ca26 O39 2.361483 1_555
Ca26 O23 2.510957 1_555
Ca26 O29 2.532256 1_555
Ca26 O8 2.557701 1_555
Ca26 O72 2.709823 1_455
Ca27 O17 2.332517 1_555
Ca27 O77 2.353189 1_555
Ca27 O40 2.383902 1_555
Ca27 O69 2.396408 1_555
Ca27 O9 2.552768 1_555
Ca27 O24 2.642086 1_555
Ca27 O46 2.684256 1_555
Ca27 O30 2.776382 1_555
Ca28 O78 2.303397 1_555
Ca28 O41 2.350718 1_555
Ca28 O18 2.352229 1_555
Ca28 O70 2.454169 1_555
Ca28 O47 2.470723 1_555
Ca28 O35 2.637095 1_545
Ca28 O10 2.682910 1_555
Ca28 O25 2.775990 1_555
Ca29 O79 2.317356 1_555
Ca29 O42 2.341192 1_555
Ca29 O19 2.351880 1_555
Ca29 O71 2.433677 1_555
Ca29 O48 2.478980 1_555
Ca29 O36 2.616665 1_545
Ca29 O11 2.673366 1_555
Ca29 O26 2.770104 1_555
Ca30 O80 2.351569 1_555
Ca30 O20 2.396160 1_555
Ca30 O72 2.437624 1_555
Ca30 O43 2.473681 1_555
Ca30 O12 2.490076 1_555
Ca30 O49 2.548710 1_555
Ca30 O27 2.614659 1_555
Ca30 O33 2.619798 1_555
Ca31 O81 2.335234 1_555
Ca31 O21 2.368161 1_555
Ca31 O44 2.376421 1_555
Ca31 O73 2.395830 1_555
Ca31 O13 2.531201 1_555
Ca31 O50 2.621847 1_555
Ca31 O28 2.643891 1_555
Ca31 O34 2.661836 1_555
Mn0 O53 1.949386 1_545
Mn0 O61 1.950133 1_545
Mn0 O70 1.963937 1_455
Mn0 O47 1.970214 1_455
Mn0 O35 1.970449 1_445
Mn0 O37 2.025859 1_555
Mn1 O54 1.909657 1_655
Mn1 O62 1.923716 1_655
Mn1 O36 1.941824 1_555
Mn1 O48 1.954459 1_565
Mn1 O38 1.954945 1_665
Mn1 O71 1.999208 1_565
Mn2 O59 1.945163 1_555
Mn2 O33 1.947424 1_455
Mn2 O51 1.958280 1_555
Mn2 O72 1.966327 1_455
Mn2 O49 1.972325 1_455
Mn2 O39 2.019203 1_555
Mn3 O52 1.902086 1_655
Mn3 O60 1.945977 1_655
Mn3 O73 1.950543 1_555
Mn3 O34 1.954864 1_555
Mn3 O50 1.968365 1_555
Mn3 O40 2.006922 1_655
Mn4 O66 1.943519 1_545
Mn4 O68 1.958431 1_555
Mn4 O58 1.963246 1_545
Mn4 O42 1.966961 1_555
Mn4 O32 1.974516 1_545
Mn4 O45 2.002261 1_555
Mn5 O43 1.865198 1_555
Mn5 O29 1.866118 1_555
Mn5 O55 1.877222 1_555
Mn5 O63 1.881550 1_555
Mn6 O69 1.934020 1_555
Mn6 O30 1.944301 1_555
Mn6 O44 1.950426 1_555
Mn6 O56 1.957285 1_555
Mn6 O64 1.960057 1_555
Mn6 O46 2.004367 1_555
Mn7 O31 1.936639 1_545
Mn7 O85 1.945853 1_544
Mn7 O53 1.956823 1_545
Mn7 O45 1.967879 1_554
Mn7 O38 1.976367 1_554
Mn7 O74 2.010252 1_555
Mn8 O76 1.914088 1_555
Mn8 O40 1.951510 1_554
Mn8 O46 1.960321 1_554
Mn8 O51 1.962609 1_555
Mn8 O83 1.980666 1_554
Mn8 O29 2.056820 1_555
Mn9 O39 1.907724 1_555
Mn9 O30 1.923399 1_555
Mn9 O77 1.930717 1_555
Mn9 O52 1.951390 1_555
Mn9 O82 2.030487 1_555
Mn10 O57 1.911688 1_556
Mn10 O89 1.928921 1_555
Mn10 O48 1.952373 1_565
Mn10 O78 1.954285 1_566
Mn10 O42 1.974732 1_565
Mn10 O35 1.981020 1_556
Mn11 O88 1.938768 1_555
Mn11 O41 1.955099 1_565
Mn11 O79 1.965080 1_565
Mn11 O36 1.968104 1_555
Mn11 O58 1.968945 1_555
Mn11 O47 1.989977 1_565
Mn12 O50 1.934042 1_555
Mn12 O87 1.938717 1_555
Mn12 O55 1.942244 1_556
Mn12 O80 1.949932 1_556
Mn12 O44 1.961914 1_555
Mn12 O33 1.984097 1_556
Mn13 O81 1.922685 1_555
Mn13 O56 1.948481 1_555
Mn13 O86 1.950168 1_555
Mn13 O34 1.957101 1_555
Mn13 O49 2.004933 1_555
Mn13 O43 2.069701 1_555
Mn14 O14 1.880222 1_555
Mn14 O82 1.891581 1_555
Mn14 O75 1.895618 1_555
Mn14 O6 1.899263 1_555
Mn15 O85 1.935436 1_555
Mn15 O17 1.948441 1_555
Mn15 O23 1.948565 1_556
Mn15 O76 1.948832 1_556
Mn15 O9 1.963490 1_555
Mn15 O0 1.969713 1_556
Mn16 O16 1.932100 1_555
Mn16 O24 1.948357 1_555
Mn16 O77 1.972918 1_555
Mn16 O84 1.976609 1_555
Mn16 O1 1.978229 1_555
Mn16 O8 2.014680 1_555
Mn17 O19 1.897777 1_554
Mn17 O11 1.901893 1_554
Mn17 O78 1.924566 1_555
Mn17 O25 1.975280 1_555
Mn17 O87 2.009988 1_554
Mn17 O2 2.046277 1_555
Mn18 O10 1.902877 1_555
Mn18 O79 1.928439 1_555
Mn18 O3 1.958112 1_555
Mn18 O26 1.973422 1_555
Mn18 O86 1.986042 1_555
Mn18 O18 1.986218 1_555
Mn19 O80 1.938280 1_555
Mn19 O89 1.942737 1_554
Mn19 O21 1.957939 1_554
Mn19 O27 1.958031 1_555
Mn19 O13 1.972867 1_554
Mn19 O4 1.996680 1_555
Mn20 O88 1.931644 1_555
Mn20 O81 1.939619 1_555
Mn20 O28 1.957045 1_555
Mn20 O12 1.966453 1_555
Mn20 O20 1.969248 1_555
Mn20 O5 1.985629 1_555
Mn21 O60 1.924628 1_655
Mn21 O71 1.936792 1_555
Mn21 O15 1.944068 1_655
Mn21 O11 1.963091 1_555
Mn21 O26 1.966655 1_555
Mn22 O61 1.930158 1_655
Mn22 O27 1.939202 1_555
Mn22 O16 1.942740 1_655
Mn22 O12 1.964331 1_555
Mn22 O0 1.974656 1_655
Mn22 O72 1.979079 1_555
Mn23 O62 1.938641 1_655
Mn23 O17 1.947211 1_655
Mn23 O73 1.950415 1_555
Mn23 O28 1.951587 1_555
Mn23 O13 1.984264 1_555
Mn23 O1 1.988618 1_655
Mn24 O67 1.930356 1_555
Mn24 O2 1.940760 1_555
Mn24 O6 1.942501 1_555
Mn24 O18 1.971420 1_555
Mn24 O63 1.981272 1_555
Mn24 O22 2.009019 1_555
Mn25 O7 1.904819 1_555
Mn25 O68 1.906874 1_555
Mn25 O3 1.931215 1_555
Mn25 O64 1.947233 1_555
Mn25 O19 1.951031 1_555
Mn26 O23 1.937352 1_555
Mn26 O20 1.943526 1_555
Mn26 O4 1.967256 1_555
Mn26 O8 1.971208 1_555
Mn26 O65 2.027101 1_555
Mn27 O66 1.934829 1_555
Mn27 O24 1.946061 1_555
Mn27 O69 1.947796 1_555
Mn27 O21 1.949345 1_555
Mn27 O5 1.971097 1_555
Mn27 O9 1.971803 1_555
Al0 O57 1.798773 1_545
Al0 O65 1.815364 1_545
Al0 O67 1.847204 1_555
Al0 O41 1.925532 1_555
Al0 O31 1.945012 1_545
Al1 O54 1.781098 1_555
Al1 O32 1.873011 1_555
Al1 O37 1.877433 1_565
Al1 O84 1.898760 1_555
Al1 O75 2.016017 1_565
Al2 O7 1.780017 1_555
Al2 O74 1.863065 1_556
Al2 O83 1.896109 1_555
Al2 O15 1.930893 1_555
Al2 O22 1.931329 1_556
Al3 O10 1.786242 1_555
Al3 O25 1.824051 1_555
Al3 O14 1.841782 1_655
Al3 O59 1.898910 1_655
Al3 O70 1.933199 1_555
