# generated using pymatgen
data_La2FeSi3
_symmetry_space_group_name_H-M   'P 1'
_cell_length_a   4.04277178
_cell_length_b   4.04277178
_cell_length_c   8.74796900
_cell_angle_alpha   90.00000000
_cell_angle_beta   90.00000000
_cell_angle_gamma   119.99999640
_symmetry_Int_Tables_number   1
_chemical_formula_structural   La2FeSi3
_chemical_formula_sum   'La2 Fe1 Si3'
_cell_volume   123.82157784
_cell_formula_units_Z   1
loop_
 _symmetry_equiv_pos_site_id
 _symmetry_equiv_pos_as_xyz
  1  'x, y, z'
loop_
 _atom_site_type_symbol
 _atom_site_label
 _atom_site_symmetry_multiplicity
 _atom_site_fract_x
 _atom_site_fract_y
 _atom_site_fract_z
 _atom_site_occupancy
  La  La0  1  0.66666700  0.33333300  0.74289000  1
  La  La1  1  0.66666700  0.33333300  0.25711000  1
  Fe  Fe0  1  0.00000000  0.00000000  0.50000000  1
  Si  Si0  1  0.00000000  0.00000000  0.00000000  1
  Si  Si1  1  0.33333300  0.66666700  0.50000000  1
  Si  Si2  1  0.33333300  0.66666700  0.00000000  1
loop_
_geom_bond_atom_site_label_1
_geom_bond_atom_site_label_2
_geom_bond_distance
_geom_bond_site_symmetry_2
La0 Si1 3.156381 1_545
La0 Si1 3.156381 1_655
La0 Si1 3.156386 1_555
La0 Si0 3.241427 1_656
La0 Si2 3.241427 1_546
La0 Si2 3.241427 1_656
La0 Si0 3.241429 1_666
La0 Si0 3.241429 1_556
La0 Si2 3.241432 1_556
La1 Si1 3.156381 1_545
La1 Si1 3.156381 1_655
La1 Si1 3.156386 1_555
La1 Si0 3.241427 1_655
La1 Si2 3.241427 1_545
La1 Si2 3.241427 1_655
La1 Si0 3.241429 1_665
La1 Si0 3.241429 1_555
La1 Si2 3.241432 1_555
Fe0 Si1 2.334093 1_545
Fe0 Si1 2.334097 1_555
Fe0 Si1 2.334097 1_445
Fe0 La1 3.156381 1_455
Fe0 La0 3.156381 1_455
Fe0 La1 3.156384 1_555
Fe0 La1 3.156384 1_445
Fe0 La0 3.156384 1_555
Fe0 La0 3.156384 1_445
Si0 Si2 2.334093 1_545
Si0 Si2 2.334097 1_445
Si0 Si2 2.334097 1_555
