# generated using pymatgen
data_V2N3
_symmetry_space_group_name_H-M   'P 1'
_cell_length_a   2.81801785
_cell_length_b   2.81801785
_cell_length_c   6.25706500
_cell_angle_alpha   90.00000000
_cell_angle_beta   90.00000000
_cell_angle_gamma   119.99999642
_symmetry_Int_Tables_number   1
_chemical_formula_structural   V2N3
_chemical_formula_sum   'V2 N3'
_cell_volume   43.03172863
_cell_formula_units_Z   1
loop_
 _symmetry_equiv_pos_site_id
 _symmetry_equiv_pos_as_xyz
  1  'x, y, z'
loop_
 _atom_site_type_symbol
 _atom_site_label
 _atom_site_symmetry_multiplicity
 _atom_site_fract_x
 _atom_site_fract_y
 _atom_site_fract_z
 _atom_site_occupancy
  V  V0  1  0.66666700  0.33333300  0.30162900  1
  V  V1  1  0.33333300  0.66666700  0.69837100  1
  N  N0  1  0.00000000  0.00000000  0.50000000  1
  N  N1  1  0.00000000  0.00000000  0.10694100  1
  N  N2  1  0.00000000  0.00000000  0.89305900  1
loop_
_geom_bond_atom_site_label_1
_geom_bond_atom_site_label_2
_geom_bond_distance
_geom_bond_site_symmetry_2
N0 V0 2.046386 1_455
N0 V1 2.046386 1_545
N0 V1 2.046388 1_555
N0 V1 2.046388 1_445
N0 V0 2.046388 1_445
N0 V0 2.046388 1_555
N1 N2 1.338274 1_554
N1 V0 2.032491 1_455
N1 V0 2.032493 1_555
N1 V0 2.032493 1_445
N2 V1 2.032491 1_545
N2 V1 2.032493 1_445
N2 V1 2.032493 1_555
