# generated using pymatgen
data_FeCoBi2(AsO6)2
_symmetry_space_group_name_H-M   'P 1'
_cell_length_a   6.18864000
_cell_length_b   9.09961255
_cell_length_c   9.26505070
_cell_angle_alpha   71.35124147
_cell_angle_beta   82.36262224
_cell_angle_gamma   87.29427924
_symmetry_Int_Tables_number   1
_chemical_formula_structural   FeCoBi2(AsO6)2
_chemical_formula_sum   'Fe2 Co2 Bi4 As4 O24'
_cell_volume   489.96870730
_cell_formula_units_Z   2
loop_
 _symmetry_equiv_pos_site_id
 _symmetry_equiv_pos_as_xyz
  1  'x, y, z'
loop_
 _atom_site_type_symbol
 _atom_site_label
 _atom_site_symmetry_multiplicity
 _atom_site_fract_x
 _atom_site_fract_y
 _atom_site_fract_z
 _atom_site_occupancy
  Fe  Fe0  1  0.00000000  0.00000000  0.00000000  1
  Fe  Fe1  1  0.00000000  0.50000000  0.00000000  1
  Co  Co0  1  0.50000000  0.50000000  0.00000000  1
  Co  Co1  1  0.50000000  0.00000000  0.00000000  1
  Bi  Bi0  1  0.31998400  0.09243100  0.60858200  1
  Bi  Bi1  1  0.68001600  0.90756900  0.39141800  1
  Bi  Bi2  1  0.31630200  0.59299100  0.60697600  1
  Bi  Bi3  1  0.68369800  0.40700900  0.39302400  1
  As  As0  1  0.20404600  0.15897300  0.22039400  1
  As  As1  1  0.79595400  0.84102700  0.77960600  1
  As  As2  1  0.20765100  0.65751000  0.21731800  1
  As  As3  1  0.79234900  0.34249000  0.78268200  1
  O  O0  1  0.23525600  0.34141300  0.08599600  1
  O  O1  1  0.76474400  0.65858700  0.91400400  1
  O  O2  1  0.62052000  0.13312700  0.45069500  1
  O  O3  1  0.37948000  0.86687300  0.54930500  1
  O  O4  1  0.14018100  0.67368900  0.39550300  1
  O  O5  1  0.85981900  0.32631100  0.60449700  1
  O  O6  1  0.44543500  0.55509500  0.18832700  1
  O  O7  1  0.55456500  0.44490500  0.81167300  1
  O  O8  1  0.61849100  0.63282700  0.45102300  1
  O  O9  1  0.38150900  0.36717300  0.54897700  1
  O  O10  1  0.25821500  0.61195700  0.91329300  1
  O  O11  1  0.74178500  0.38804300  0.08670700  1
  O  O12  1  0.44344900  0.05874300  0.19337400  1
  O  O13  1  0.55655100  0.94125700  0.80662600  1
  O  O14  1  0.23197000  0.84083500  0.08644500  1
  O  O15  1  0.76803000  0.15916500  0.91355500  1
  O  O16  1  0.13998900  0.17853900  0.39737500  1
  O  O17  1  0.86001100  0.82146100  0.60262500  1
  O  O18  1  0.98396400  0.06997000  0.18638200  1
  O  O19  1  0.01603600  0.93003000  0.81361800  1
  O  O20  1  0.28725100  0.11314500  0.90998400  1
  O  O21  1  0.71274900  0.88685500  0.09001600  1
  O  O22  1  0.98547600  0.56803400  0.18543400  1
  O  O23  1  0.01452400  0.43196600  0.81456600  1
loop_
_geom_bond_atom_site_label_1
_geom_bond_atom_site_label_2
_geom_bond_distance
_geom_bond_site_symmetry_2
Fe0 O18 2.012173 1_455
Fe0 O19 2.012173 1_544
Fe0 O21 2.036013 1_445
Fe0 O20 2.036013 1_554
Fe0 O15 2.041446 1_454
Fe0 O14 2.041446 1_545
Fe1 O10 1.877743 1_554
Fe1 O11 1.877743 1_455
Fe1 O22 1.994235 1_455
Fe1 O23 1.994235 1_554
Fe1 O1 2.052229 1_454
Fe1 O0 2.052229 1_555
Co0 O11 1.890610 1_555
Co0 O10 1.890610 1_554
Co0 O7 1.948526 1_554
Co0 O6 1.948526 1_555
Co0 O1 2.131335 1_554
Co0 O0 2.131335 1_555
Co1 O21 1.761772 1_545
Co1 O20 1.761772 1_554
Co1 O12 2.011532 1_555
Co1 O13 2.011532 1_544
Co1 O14 2.149980 1_545
Co1 O15 2.149980 1_554
Bi0 O2 2.175240 1_555
Bi0 O16 2.280444 1_555
Bi0 O3 2.290353 1_545
Bi0 O9 2.418925 1_555
Bi0 O13 2.512406 1_545
Bi0 O19 2.616891 1_545
Bi1 O3 2.175240 1_555
Bi1 O17 2.280444 1_555
Bi1 O2 2.290353 1_565
Bi1 O8 2.418925 1_555
Bi1 O12 2.512406 1_565
Bi1 O18 2.616891 1_565
Bi2 O8 2.174252 1_555
Bi2 O4 2.266726 1_555
Bi2 O9 2.290041 1_555
Bi2 O3 2.415443 1_555
Bi2 O7 2.551116 1_555
Bi2 O23 2.614457 1_555
Bi3 O9 2.174252 1_555
Bi3 O5 2.266726 1_555
Bi3 O8 2.290041 1_555
Bi3 O2 2.415443 1_555
Bi3 O6 2.551116 1_555
Bi3 O22 2.614457 1_555
As0 O16 1.698486 1_555
As0 O0 1.728637 1_555
As0 O18 1.729665 1_455
As0 O12 1.734775 1_555
As1 O17 1.698486 1_555
As1 O1 1.728637 1_555
As1 O19 1.729665 1_655
As1 O13 1.734775 1_555
As2 O4 1.699375 1_555
As2 O14 1.719694 1_555
As2 O22 1.734410 1_455
As2 O6 1.741174 1_555
As3 O5 1.699375 1_555
As3 O15 1.719694 1_555
As3 O23 1.734410 1_655
As3 O7 1.741174 1_555
