# generated using pymatgen
data_Ta3C
_symmetry_space_group_name_H-M   'P 1'
_cell_length_a   5.44817752
_cell_length_b   5.44817752
_cell_length_c   4.70315600
_cell_angle_alpha   90.00000000
_cell_angle_beta   90.00000000
_cell_angle_gamma   119.99999419
_symmetry_Int_Tables_number   1
_chemical_formula_structural   Ta3C
_chemical_formula_sum   'Ta6 C2'
_cell_volume   120.89895344
_cell_formula_units_Z   2
loop_
 _symmetry_equiv_pos_site_id
 _symmetry_equiv_pos_as_xyz
  1  'x, y, z'
loop_
 _atom_site_type_symbol
 _atom_site_label
 _atom_site_symmetry_multiplicity
 _atom_site_fract_x
 _atom_site_fract_y
 _atom_site_fract_z
 _atom_site_occupancy
  Ta  Ta0  1  0.16738400  0.33476700  0.25000000  1
  Ta  Ta1  1  0.66523300  0.83261600  0.25000000  1
  Ta  Ta2  1  0.16738400  0.83261600  0.25000000  1
  Ta  Ta3  1  0.83261600  0.66523300  0.75000000  1
  Ta  Ta4  1  0.33476700  0.16738400  0.75000000  1
  Ta  Ta5  1  0.83261600  0.16738400  0.75000000  1
  C  C0  1  0.33333300  0.66666700  0.75000000  1
  C  C1  1  0.66666700  0.33333300  0.25000000  1
loop_
_geom_bond_atom_site_label_1
_geom_bond_atom_site_label_2
_geom_bond_distance
_geom_bond_site_symmetry_2
C0 Ta4 2.724097 1_555
C0 Ta3 2.724097 1_555
C0 Ta4 2.724097 1_565
C0 Ta3 2.724097 1_455
C0 Ta5 2.724097 1_565
C0 Ta5 2.724097 1_455
C0 Ta2 2.825282 1_555
C0 Ta2 2.825282 1_556
C0 Ta1 2.825287 1_556
C0 Ta0 2.825287 1_556
C0 Ta0 2.825287 1_555
C0 Ta1 2.825287 1_555
C1 Ta1 2.724097 1_555
C1 Ta0 2.724097 1_555
C1 Ta1 2.724097 1_545
C1 Ta0 2.724097 1_655
C1 Ta2 2.724097 1_545
C1 Ta2 2.724097 1_655
C1 Ta5 2.825282 1_555
C1 Ta5 2.825282 1_554
C1 Ta4 2.825287 1_554
C1 Ta3 2.825287 1_554
C1 Ta3 2.825287 1_555
C1 Ta4 2.825287 1_555
