# generated using pymatgen
data_RbNiC2N2Cl
_symmetry_space_group_name_H-M   'P 1'
_cell_length_a   7.63250227
_cell_length_b   7.63250227
_cell_length_c   7.63250227
_cell_angle_alpha   124.75798170
_cell_angle_beta   124.75798170
_cell_angle_gamma   81.93928212
_symmetry_Int_Tables_number   1
_chemical_formula_structural   RbNiC2N2Cl
_chemical_formula_sum   'Rb2 Ni2 C4 N4 Cl2'
_cell_volume   288.64678708
_cell_formula_units_Z   2
loop_
 _symmetry_equiv_pos_site_id
 _symmetry_equiv_pos_as_xyz
  1  'x, y, z'
loop_
 _atom_site_type_symbol
 _atom_site_label
 _atom_site_symmetry_multiplicity
 _atom_site_fract_x
 _atom_site_fract_y
 _atom_site_fract_z
 _atom_site_occupancy
  Rb  Rb0  1  0.75000000  0.25000000  0.50000000  1
  Rb  Rb1  1  0.25000000  0.75000000  0.50000000  1
  Ni  Ni0  1  0.00000000  0.00000000  0.00000000  1
  Ni  Ni1  1  0.50000000  0.50000000  0.00000000  1
  C  C0  1  0.18304600  0.18304600  0.36609100  1
  C  C1  1  0.81695400  0.81695400  0.63390900  1
  C  C2  1  0.18304600  0.81695400  0.00000000  1
  C  C3  1  0.81695400  0.18304600  0.00000000  1
  N  N0  1  0.69976700  0.69976700  0.39953400  1
  N  N1  1  0.30023300  0.30023300  0.60046600  1
  N  N2  1  0.69976700  0.30023300  0.00000000  1
  N  N3  1  0.30023300  0.69976700  0.00000000  1
  Cl  Cl0  1  0.71950200  0.71950200  0.00000000  1
  Cl  Cl1  1  0.28049800  0.28049800  0.00000000  1
loop_
_geom_bond_atom_site_label_1
_geom_bond_atom_site_label_2
_geom_bond_distance
_geom_bond_site_symmetry_2
C0 N1 1.172887 1_555
C0 Ni0 1.832036 1_555
C1 N0 1.172887 1_555
C1 Ni0 1.832036 1_666
C2 N3 1.172882 1_555
C2 Ni0 1.832041 1_565
C3 N2 1.172882 1_555
C3 Ni0 1.832041 1_655
N0 Ni1 1.999396 1_555
N1 Ni1 1.999396 1_556
N2 Ni1 1.999396 1_555
N3 Ni1 1.999396 1_555
Cl0 Ni1 2.529969 1_555
Cl0 Rb0 3.556005 1_565
Cl0 Rb1 3.556005 1_655
Cl0 Rb0 3.556005 1_554
Cl0 Rb1 3.556005 1_554
Cl1 Ni1 2.529969 1_555
Cl1 Rb1 3.556005 1_544
Cl1 Rb0 3.556005 1_555
Cl1 Rb1 3.556005 1_555
Cl1 Rb0 3.556005 1_454
