# generated using pymatgen
data_Mg30TiVO32
_symmetry_space_group_name_H-M   'P 1'
_cell_length_a   8.53337100
_cell_length_b   8.53337100
_cell_length_c   8.55771400
_cell_angle_alpha   90.00000000
_cell_angle_beta   90.00000000
_cell_angle_gamma   90.00000000
_symmetry_Int_Tables_number   1
_chemical_formula_structural   Mg30TiVO32
_chemical_formula_sum   'Mg30 Ti1 V1 O32'
_cell_volume   623.15921763
_cell_formula_units_Z   1
loop_
 _symmetry_equiv_pos_site_id
 _symmetry_equiv_pos_as_xyz
  1  'x, y, z'
loop_
 _atom_site_type_symbol
 _atom_site_label
 _atom_site_symmetry_multiplicity
 _atom_site_fract_x
 _atom_site_fract_y
 _atom_site_fract_z
 _atom_site_occupancy
  Mg  Mg0  1  0.00000000  0.50000000  0.00000000  1
  Mg  Mg1  1  0.50000000  0.00000000  0.00000000  1
  Mg  Mg2  1  0.00000000  0.00000000  0.50000000  1
  Mg  Mg3  1  0.00000000  0.50000000  0.50000000  1
  Mg  Mg4  1  0.50000000  0.00000000  0.50000000  1
  Mg  Mg5  1  0.50000000  0.50000000  0.50000000  1
  Mg  Mg6  1  0.24888200  0.24888200  0.00000000  1
  Mg  Mg7  1  0.24888200  0.75111800  0.00000000  1
  Mg  Mg8  1  0.75111800  0.24888200  0.00000000  1
  Mg  Mg9  1  0.75111800  0.75111800  0.00000000  1
  Mg  Mg10  1  0.25012700  0.25012700  0.50000000  1
  Mg  Mg11  1  0.25012700  0.74987300  0.50000000  1
  Mg  Mg12  1  0.74987300  0.25012700  0.50000000  1
  Mg  Mg13  1  0.74987300  0.74987300  0.50000000  1
  Mg  Mg14  1  0.00000000  0.25070600  0.25082500  1
  Mg  Mg15  1  0.00000000  0.74929400  0.25082500  1
  Mg  Mg16  1  0.50000000  0.25014400  0.25107200  1
  Mg  Mg17  1  0.50000000  0.74985600  0.25107200  1
  Mg  Mg18  1  0.00000000  0.25070600  0.74917500  1
  Mg  Mg19  1  0.00000000  0.74929400  0.74917500  1
  Mg  Mg20  1  0.50000000  0.25014400  0.74892800  1
  Mg  Mg21  1  0.50000000  0.74985600  0.74892800  1
  Mg  Mg22  1  0.25070600  0.00000000  0.25082500  1
  Mg  Mg23  1  0.25014400  0.50000000  0.25107200  1
  Mg  Mg24  1  0.74929400  0.00000000  0.25082500  1
  Mg  Mg25  1  0.74985600  0.50000000  0.25107200  1
  Mg  Mg26  1  0.25070600  0.00000000  0.74917500  1
  Mg  Mg27  1  0.25014400  0.50000000  0.74892800  1
  Mg  Mg28  1  0.74929400  0.00000000  0.74917500  1
  Mg  Mg29  1  0.74985600  0.50000000  0.74892800  1
  Ti  Ti0  1  0.50000000  0.50000000  0.00000000  1
  V  V0  1  0.00000000  0.00000000  0.00000000  1
  O  O0  1  0.00000000  0.00000000  0.25486900  1
  O  O1  1  0.00000000  0.50000000  0.25045000  1
  O  O2  1  0.50000000  0.00000000  0.25045000  1
  O  O3  1  0.50000000  0.50000000  0.25936900  1
  O  O4  1  0.00000000  0.00000000  0.74513100  1
  O  O5  1  0.00000000  0.50000000  0.74955000  1
  O  O6  1  0.50000000  0.00000000  0.74955000  1
  O  O7  1  0.50000000  0.50000000  0.74063100  1
  O  O8  1  0.24992700  0.24992700  0.24922600  1
  O  O9  1  0.24992700  0.75007300  0.24922600  1
  O  O10  1  0.75007300  0.24992700  0.24922600  1
  O  O11  1  0.75007300  0.75007300  0.24922600  1
  O  O12  1  0.24992700  0.24992700  0.75077400  1
  O  O13  1  0.24992700  0.75007300  0.75077400  1
  O  O14  1  0.75007300  0.24992700  0.75077400  1
  O  O15  1  0.75007300  0.75007300  0.75077400  1
  O  O16  1  0.00000000  0.25497200  0.00000000  1
  O  O17  1  0.00000000  0.74502800  0.00000000  1
  O  O18  1  0.50000000  0.24699800  0.00000000  1
  O  O19  1  0.50000000  0.75300200  0.00000000  1
  O  O20  1  0.00000000  0.25026100  0.50000000  1
  O  O21  1  0.00000000  0.74973900  0.50000000  1
  O  O22  1  0.50000000  0.24895100  0.50000000  1
  O  O23  1  0.50000000  0.75104900  0.50000000  1
  O  O24  1  0.25497200  0.00000000  0.00000000  1
  O  O25  1  0.24699800  0.50000000  0.00000000  1
  O  O26  1  0.74502800  0.00000000  0.00000000  1
  O  O27  1  0.75300200  0.50000000  0.00000000  1
  O  O28  1  0.25026100  0.00000000  0.50000000  1
  O  O29  1  0.24895100  0.50000000  0.50000000  1
  O  O30  1  0.74973900  0.00000000  0.50000000  1
  O  O31  1  0.75104900  0.50000000  0.50000000  1
loop_
_geom_bond_atom_site_label_1
_geom_bond_atom_site_label_2
_geom_bond_distance
_geom_bond_site_symmetry_2
Mg0 O17 2.090915 1_555
Mg0 O16 2.090915 1_555
Mg0 O25 2.107726 1_555
Mg0 O27 2.107726 1_455
Mg0 O5 2.143279 1_554
Mg0 O1 2.143279 1_555
Mg1 O26 2.090915 1_555
Mg1 O24 2.090915 1_555
Mg1 O18 2.107726 1_555
Mg1 O19 2.107726 1_545
Mg1 O6 2.143279 1_554
Mg1 O2 2.143279 1_555
Mg2 O0 2.097761 1_555
Mg2 O4 2.097761 1_555
Mg2 O30 2.135570 1_455
Mg2 O21 2.135570 1_545
Mg2 O28 2.135570 1_555
Mg2 O20 2.135570 1_555
Mg3 O31 2.124391 1_455
Mg3 O29 2.124391 1_555
Mg3 O20 2.131116 1_555
Mg3 O21 2.131116 1_555
Mg3 O1 2.135578 1_555
Mg3 O5 2.135578 1_555
Mg4 O23 2.124391 1_545
Mg4 O22 2.124391 1_555
Mg4 O28 2.131116 1_555
Mg4 O30 2.131116 1_555
Mg4 O2 2.135578 1_555
Mg4 O6 2.135578 1_555
Mg5 O3 2.059251 1_555
Mg5 O7 2.059251 1_555
Mg5 O31 2.142294 1_555
Mg5 O23 2.142294 1_555
Mg5 O22 2.142294 1_555
Mg5 O29 2.142294 1_555
Mg6 O24 2.124438 1_555
Mg6 O16 2.124438 1_555
Mg6 O12 2.132842 1_554
Mg6 O8 2.132842 1_555
Mg6 O25 2.142943 1_555
Mg6 O18 2.142943 1_555
Mg7 O24 2.124438 1_565
Mg7 O17 2.124438 1_555
Mg7 O13 2.132842 1_554
Mg7 O9 2.132842 1_555
Mg7 O25 2.142943 1_555
Mg7 O19 2.142943 1_555
Mg8 O26 2.124438 1_555
Mg8 O16 2.124438 1_655
Mg8 O14 2.132842 1_554
Mg8 O10 2.132842 1_555
Mg8 O18 2.142943 1_555
Mg8 O27 2.142943 1_555
Mg9 O26 2.124438 1_565
Mg9 O17 2.124438 1_655
Mg9 O15 2.132842 1_554
Mg9 O11 2.132842 1_555
Mg9 O19 2.142943 1_555
Mg9 O27 2.142943 1_555
Mg10 O22 2.132283 1_555
Mg10 O29 2.132283 1_555
Mg10 O20 2.134427 1_555
Mg10 O28 2.134427 1_555
Mg10 O8 2.146054 1_555
Mg10 O12 2.146054 1_555
Mg11 O23 2.132283 1_555
Mg11 O29 2.132283 1_555
Mg11 O28 2.134427 1_565
Mg11 O21 2.134427 1_555
Mg11 O9 2.146054 1_555
Mg11 O13 2.146054 1_555
Mg12 O22 2.132283 1_555
Mg12 O31 2.132283 1_555
Mg12 O30 2.134427 1_555
Mg12 O20 2.134427 1_655
Mg12 O14 2.146054 1_555
Mg12 O10 2.146054 1_555
Mg13 O23 2.132283 1_555
Mg13 O31 2.132283 1_555
Mg13 O21 2.134427 1_655
Mg13 O30 2.134427 1_565
Mg13 O11 2.146054 1_555
Mg13 O15 2.146054 1_555
Mg14 O1 2.127321 1_555
Mg14 O20 2.132372 1_555
Mg14 O8 2.132774 1_555
Mg14 O10 2.132774 1_455
Mg14 O0 2.139647 1_555
Mg14 O16 2.146797 1_555
Mg15 O1 2.127321 1_555
Mg15 O21 2.132372 1_555
Mg15 O11 2.132774 1_455
Mg15 O9 2.132774 1_555
Mg15 O0 2.139647 1_565
Mg15 O17 2.146797 1_555
Mg16 O22 2.130279 1_555
Mg16 O3 2.133296 1_555
Mg16 O10 2.134025 1_555
Mg16 O8 2.134025 1_555
Mg16 O2 2.134578 1_555
Mg16 O18 2.148770 1_555
Mg17 O23 2.130279 1_555
Mg17 O3 2.133296 1_555
Mg17 O9 2.134025 1_555
Mg17 O11 2.134025 1_555
Mg17 O2 2.134578 1_565
Mg17 O19 2.148770 1_555
Mg18 O5 2.127321 1_555
Mg18 O20 2.132372 1_555
Mg18 O12 2.132774 1_555
Mg18 O14 2.132774 1_455
Mg18 O4 2.139647 1_555
Mg18 O16 2.146797 1_556
Mg19 O5 2.127321 1_555
Mg19 O21 2.132372 1_555
Mg19 O15 2.132774 1_455
Mg19 O13 2.132774 1_555
Mg19 O4 2.139647 1_565
Mg19 O17 2.146797 1_556
Mg20 O22 2.130279 1_555
Mg20 O7 2.133296 1_555
Mg20 O12 2.134025 1_555
Mg20 O14 2.134025 1_555
Mg20 O6 2.134578 1_555
Mg20 O18 2.148770 1_556
Mg21 O23 2.130279 1_555
Mg21 O7 2.133296 1_555
Mg21 O15 2.134025 1_555
Mg21 O13 2.134025 1_555
Mg21 O6 2.134578 1_565
Mg21 O19 2.148770 1_556
Mg22 O2 2.127321 1_555
Mg22 O28 2.132372 1_555
Mg22 O9 2.132774 1_545
Mg22 O8 2.132774 1_555
Mg22 O0 2.139647 1_555
Mg22 O24 2.146797 1_555
Mg23 O29 2.130279 1_555
Mg23 O3 2.133296 1_555
Mg23 O9 2.134025 1_555
Mg23 O8 2.134025 1_555
Mg23 O1 2.134578 1_555
Mg23 O25 2.148770 1_555
Mg24 O2 2.127321 1_555
Mg24 O30 2.132372 1_555
Mg24 O11 2.132774 1_545
Mg24 O10 2.132774 1_555
Mg24 O0 2.139647 1_655
Mg24 O26 2.146797 1_555
Mg25 O31 2.130279 1_555
Mg25 O3 2.133296 1_555
Mg25 O10 2.134025 1_555
Mg25 O11 2.134025 1_555
Mg25 O1 2.134578 1_655
Mg25 O27 2.148770 1_555
Mg26 O6 2.127321 1_555
Mg26 O28 2.132372 1_555
Mg26 O12 2.132774 1_555
Mg26 O13 2.132774 1_545
Mg26 O4 2.139647 1_555
Mg26 O24 2.146797 1_556
Mg27 O29 2.130279 1_555
Mg27 O7 2.133296 1_555
Mg27 O13 2.134025 1_555
Mg27 O12 2.134025 1_555
Mg27 O5 2.134578 1_555
Mg27 O25 2.148770 1_556
Mg28 O6 2.127321 1_555
Mg28 O30 2.132372 1_555
Mg28 O14 2.132774 1_555
Mg28 O15 2.132774 1_545
Mg28 O4 2.139647 1_655
Mg28 O26 2.146797 1_556
Mg29 O31 2.130279 1_555
Mg29 O7 2.133296 1_555
Mg29 O15 2.134025 1_555
Mg29 O14 2.134025 1_555
Mg29 O5 2.134578 1_655
Mg29 O27 2.148770 1_556
O0 V0 2.181096 1_555
O3 Ti0 2.219606 1_555
O4 V0 2.181096 1_556
O7 Ti0 2.219606 1_556
O16 V0 2.175771 1_555
O17 V0 2.175771 1_565
O18 Ti0 2.158960 1_555
O19 Ti0 2.158960 1_555
O24 V0 2.175771 1_555
O25 Ti0 2.158960 1_555
O26 V0 2.175771 1_655
O27 Ti0 2.158960 1_555
