# generated using pymatgen
data_NaLiV4O12
_symmetry_space_group_name_H-M   'P 1'
_cell_length_a   5.28957934
_cell_length_b   5.28957934
_cell_length_c   7.48560013
_cell_angle_alpha   90.00000000
_cell_angle_beta   90.00000000
_cell_angle_gamma   89.95242959
_symmetry_Int_Tables_number   1
_chemical_formula_structural   NaLiV4O12
_chemical_formula_sum   'Na1 Li1 V4 O12'
_cell_volume   209.44439660
_cell_formula_units_Z   1
loop_
 _symmetry_equiv_pos_site_id
 _symmetry_equiv_pos_as_xyz
  1  'x, y, z'
loop_
 _atom_site_type_symbol
 _atom_site_label
 _atom_site_symmetry_multiplicity
 _atom_site_fract_x
 _atom_site_fract_y
 _atom_site_fract_z
 _atom_site_occupancy
  Na  Na0  1  0.00000000  0.00000000  0.50000000  1
  Li  Li0  1  0.50000000  0.50000000  -0.00000000  1
  V  V0  1  0.00000000  0.50000000  0.24948889  1
  V  V1  1  0.00000000  0.50000000  0.75051111  1
  V  V2  1  0.50000000  0.00000000  0.24948889  1
  V  V3  1  0.50000000  0.00000000  0.75051111  1
  O  O0  1  0.24025493  0.24025493  0.24985763  1
  O  O1  1  0.24025493  0.24025493  0.75014237  1
  O  O2  1  0.75974507  0.75974507  0.24985763  1
  O  O3  1  0.75974507  0.75974507  0.75014237  1
  O  O4  1  0.73928094  0.26071906  0.24894737  1
  O  O5  1  0.73928094  0.26071906  0.75105263  1
  O  O6  1  0.26071906  0.73928094  0.24894737  1
  O  O7  1  0.26071906  0.73928094  0.75105263  1
  O  O8  1  0.00000000  0.50000000  -0.00000000  1
  O  O9  1  0.00000000  0.50000000  0.50000000  1
  O  O10  1  0.50000000  0.00000000  -0.00000000  1
  O  O11  1  0.50000000  0.00000000  0.50000000  1
loop_
_geom_bond_atom_site_label_1
_geom_bond_atom_site_label_2
_geom_bond_distance
_geom_bond_site_symmetry_2
Na0 O0 2.595942 1_555
Na0 O2 2.595942 1_445
Na0 O3 2.595942 1_445
Na0 O1 2.595942 1_555
Na0 O11 2.644790 1_455
Na0 O9 2.644790 1_545
Na0 O11 2.644790 1_555
Na0 O9 2.644790 1_555
Na0 O6 2.707828 1_545
Na0 O5 2.707828 1_455
Na0 O7 2.707828 1_545
Na0 O4 2.707828 1_455
Li0 O6 2.583412 1_555
Li0 O7 2.583412 1_554
Li0 O4 2.583412 1_555
Li0 O5 2.583412 1_554
Li0 O8 2.644790 1_655
Li0 O10 2.644790 1_555
Li0 O10 2.644790 1_565
Li0 O8 2.644790 1_555
Li0 O0 2.697539 1_555
Li0 O1 2.697539 1_554
Li0 O2 2.697539 1_555
Li0 O3 2.697539 1_554
O0 V2 1.870796 1_555
O0 V0 1.870796 1_555
O1 V3 1.870796 1_555
O1 V1 1.870796 1_555
O2 V2 1.870796 1_565
O2 V0 1.870796 1_655
O3 V1 1.870796 1_655
O3 V3 1.870796 1_565
O4 V2 1.872645 1_555
O4 V0 1.872645 1_655
O5 V3 1.872645 1_555
O5 V1 1.872645 1_655
O6 V0 1.872645 1_555
O6 V2 1.872645 1_565
O7 V1 1.872645 1_555
O7 V3 1.872645 1_565
O8 V1 1.867574 1_554
O8 V0 1.867574 1_555
O9 V0 1.875226 1_555
O9 V1 1.875226 1_555
O10 V3 1.867574 1_554
O10 V2 1.867574 1_555
O11 V2 1.875226 1_555
O11 V3 1.875226 1_555
