# generated using pymatgen
data_Mg14TiNb
_symmetry_space_group_name_H-M   'P 1'
_cell_length_a   6.35519958
_cell_length_b   6.17275801
_cell_length_c   10.10140220
_cell_angle_alpha   90.00000000
_cell_angle_beta   90.00000000
_cell_angle_gamma   119.05482855
_symmetry_Int_Tables_number   1
_chemical_formula_structural   Mg14TiNb
_chemical_formula_sum   'Mg14 Ti1 Nb1'
_cell_volume   346.40068394
_cell_formula_units_Z   1
loop_
 _symmetry_equiv_pos_site_id
 _symmetry_equiv_pos_as_xyz
  1  'x, y, z'
loop_
 _atom_site_type_symbol
 _atom_site_label
 _atom_site_symmetry_multiplicity
 _atom_site_fract_x
 _atom_site_fract_y
 _atom_site_fract_z
 _atom_site_occupancy
  Mg  Mg0  1  0.16665842  0.33332871  0.62500000  1
  Mg  Mg1  1  0.16588266  0.83294083  0.62500000  1
  Mg  Mg2  1  0.66270722  0.33154724  0.12500000  1
  Mg  Mg3  1  0.66501802  0.33275716  0.62500000  1
  Mg  Mg4  1  0.66270722  0.83115899  0.12500000  1
  Mg  Mg5  1  0.66501802  0.83225986  0.62500000  1
  Mg  Mg6  1  0.32927063  0.16248503  0.36707254  1
  Mg  Mg7  1  0.32927063  0.16248503  0.88292746  1
  Mg  Mg8  1  0.32927063  0.66678660  0.36707254  1
  Mg  Mg9  1  0.32927063  0.66678660  0.88292746  1
  Mg  Mg10  1  0.84081781  0.17040941  0.37075539  1
  Mg  Mg11  1  0.84081781  0.17040941  0.87924461  1
  Mg  Mg12  1  0.84317644  0.67158872  0.36893183  1
  Mg  Mg13  1  0.84317644  0.67158872  0.88106817  1
  Ti  Ti0  1  0.16525496  0.33262698  0.12500000  1
  Nb  Nb0  1  0.16168245  0.83084072  0.12500000  1
loop_
_geom_bond_atom_site_label_1
_geom_bond_atom_site_label_2
_geom_bond_distance
_geom_bond_site_symmetry_2
Mg0 Mg1 3.086382 1_545
Mg0 Mg1 3.086382 1_555
Mg0 Mg10 3.142063 1_455
Mg0 Mg11 3.142063 1_455
Mg0 Mg7 3.166532 1_555
Mg0 Mg6 3.166532 1_555
Mg0 Mg8 3.166538 1_555
Mg0 Mg9 3.166538 1_555
Mg0 Mg5 3.168889 1_555
Mg0 Mg3 3.168890 1_555
Mg0 Mg5 3.186313 1_445
Mg0 Mg3 3.186313 1_455
Mg1 Mg12 3.147186 1_455
Mg1 Mg13 3.147186 1_455
Mg1 Mg8 3.154802 1_555
Mg1 Mg9 3.154802 1_555
Mg1 Mg6 3.154808 1_565
Mg1 Mg7 3.154808 1_565
Mg1 Mg3 3.174148 1_565
Mg1 Mg5 3.174148 1_555
Mg1 Mg3 3.181055 1_455
Mg1 Mg5 3.181055 1_455
Mg2 Mg7 3.067718 1_554
Mg2 Mg6 3.067718 1_555
Mg2 Mg4 3.083982 1_555
Mg2 Mg4 3.088776 1_545
Mg2 Ti0 3.164651 1_555
Mg2 Nb0 3.172041 1_655
Mg2 Nb0 3.183159 1_545
Mg2 Ti0 3.190560 1_655
Mg3 Mg5 3.083309 1_555
Mg3 Mg5 3.089449 1_545
Mg3 Mg6 3.204299 1_555
Mg3 Mg7 3.204299 1_555
Mg4 Mg9 3.067718 1_554
Mg4 Mg8 3.067718 1_555
Mg4 Ti0 3.164650 1_555
Mg4 Nb0 3.172042 1_655
Mg4 Nb0 3.183159 1_555
Mg4 Ti0 3.190559 1_665
Mg5 Mg8 3.204299 1_555
Mg5 Mg9 3.204299 1_555
Mg6 Nb0 3.030976 1_545
Mg6 Ti0 3.038448 1_555
Mg6 Mg8 3.059826 1_545
Mg6 Mg8 3.112932 1_555
Mg7 Nb0 3.030976 1_546
Mg7 Ti0 3.038448 1_556
Mg7 Mg9 3.059826 1_545
Mg7 Mg9 3.112932 1_555
Mg8 Nb0 3.030970 1_555
Mg8 Ti0 3.038454 1_555
Mg9 Nb0 3.030970 1_556
Mg9 Ti0 3.038454 1_556
Mg10 Ti0 3.067781 1_655
Mg10 Mg12 3.086462 1_555
Mg10 Mg12 3.086462 1_545
Mg10 Mg2 3.086562 1_555
Mg10 Mg4 3.086568 1_545
Mg10 Mg8 3.128484 1_655
Mg10 Mg6 3.128484 1_655
Mg10 Mg3 3.152107 1_555
Mg10 Mg5 3.152113 1_545
Mg10 Mg8 3.227726 1_545
Mg10 Mg6 3.227727 1_555
Mg11 Ti0 3.067781 1_656
Mg11 Mg13 3.086462 1_555
Mg11 Mg13 3.086462 1_545
Mg11 Mg2 3.086562 1_556
Mg11 Mg4 3.086568 1_546
Mg11 Mg9 3.128484 1_655
Mg11 Mg7 3.128484 1_655
Mg11 Mg3 3.152107 1_555
Mg11 Mg5 3.152113 1_545
Mg11 Mg9 3.227726 1_545
Mg11 Mg7 3.227727 1_555
Mg12 Nb0 3.033558 1_655
Mg12 Mg4 3.074810 1_555
Mg12 Mg2 3.074816 1_555
Mg12 Mg6 3.103786 1_665
Mg12 Mg8 3.103786 1_655
Mg12 Mg5 3.169704 1_555
Mg12 Mg3 3.169710 1_555
Mg12 Mg6 3.251736 1_555
Mg12 Mg8 3.251736 1_555
Mg13 Nb0 3.033558 1_656
Mg13 Mg4 3.074810 1_556
Mg13 Mg2 3.074816 1_556
Mg13 Mg7 3.103786 1_665
Mg13 Mg9 3.103786 1_655
Mg13 Mg5 3.169704 1_555
Mg13 Mg3 3.169710 1_555
Mg13 Mg7 3.251736 1_555
Mg13 Mg9 3.251736 1_555
Nb0 Ti0 3.086443 1_555
Nb0 Ti0 3.086443 1_565
