# generated using pymatgen
data_Mg6CdMo
_symmetry_space_group_name_H-M   'P 1'
_cell_length_a   4.93284800
_cell_length_b   6.19549000
_cell_length_c   10.70395200
_cell_angle_alpha   90.00000000
_cell_angle_beta   90.00000000
_cell_angle_gamma   90.00000000
_symmetry_Int_Tables_number   1
_chemical_formula_structural   Mg6CdMo
_chemical_formula_sum   'Mg12 Cd2 Mo2'
_cell_volume   327.12787057
_cell_formula_units_Z   2
loop_
 _symmetry_equiv_pos_site_id
 _symmetry_equiv_pos_as_xyz
  1  'x, y, z'
loop_
 _atom_site_type_symbol
 _atom_site_label
 _atom_site_symmetry_multiplicity
 _atom_site_fract_x
 _atom_site_fract_y
 _atom_site_fract_z
 _atom_site_occupancy
  Mg  Mg0  1  0.00000000  0.25172900  0.08253300  1
  Mg  Mg1  1  0.00000000  0.74827100  0.08253300  1
  Mg  Mg2  1  0.00000000  0.50000000  0.83453500  1
  Mg  Mg3  1  0.50000000  0.23747500  0.91170400  1
  Mg  Mg4  1  0.50000000  0.76252500  0.91170400  1
  Mg  Mg5  1  0.50000000  0.50000000  0.66693000  1
  Mg  Mg6  1  0.00000000  0.75172900  0.58253300  1
  Mg  Mg7  1  0.00000000  0.24827100  0.58253300  1
  Mg  Mg8  1  0.00000000  0.00000000  0.33453500  1
  Mg  Mg9  1  0.50000000  0.73747500  0.41170400  1
  Mg  Mg10  1  0.50000000  0.26252500  0.41170400  1
  Mg  Mg11  1  0.50000000  0.00000000  0.16693000  1
  Cd  Cd0  1  0.50000000  0.50000000  0.17289700  1
  Cd  Cd1  1  0.50000000  0.00000000  0.67289700  1
  Mo  Mo0  1  0.00000000  0.50000000  0.33716400  1
  Mo  Mo1  1  0.00000000  0.00000000  0.83716400  1
loop_
_geom_bond_atom_site_label_1
_geom_bond_atom_site_label_2
_geom_bond_distance
_geom_bond_site_symmetry_2
Mg0 Mo1 3.054566 1_554
Mg0 Mg11 3.054775 1_455
Mg0 Mg11 3.054775 1_555
Mg0 Mg2 3.067999 1_554
Mg0 Mg3 3.071583 1_554
Mg0 Mg3 3.071583 1_454
Mg0 Mg1 3.076321 1_555
Mg0 Mg8 3.115825 1_555
Mg0 Mg1 3.119169 1_545
Mg0 Mo0 3.129633 1_555
Mg1 Mo1 3.054566 1_564
Mg1 Mg11 3.054775 1_565
Mg1 Mg11 3.054775 1_465
Mg1 Mg2 3.067999 1_554
Mg1 Mg4 3.071583 1_554
Mg1 Mg4 3.071583 1_454
Mg1 Mg8 3.115825 1_565
Mg1 Mo0 3.129633 1_555
Mg2 Mg5 3.049887 1_555
Mg2 Mg5 3.049887 1_455
Mg2 Mg4 3.067728 1_455
Mg2 Mg3 3.067728 1_555
Mg2 Mg4 3.067728 1_555
Mg2 Mg3 3.067728 1_455
Mg2 Mo1 3.097873 1_565
Mg2 Mo1 3.097873 1_555
Mg2 Mg6 3.115825 1_555
Mg2 Mg7 3.115825 1_555
Mg3 Mg4 2.942548 1_545
Mg3 Mo1 2.980687 1_655
Mg3 Mo1 2.980687 1_555
Mg3 Mg5 3.083839 1_555
Mg3 Mg4 3.252942 1_555
Mg4 Mo1 2.980687 1_565
Mg4 Mo1 2.980687 1_665
Mg4 Mg5 3.083839 1_555
Mg5 Mg7 3.054775 1_555
Mg5 Mg6 3.054775 1_655
Mg5 Mg7 3.054775 1_655
Mg5 Mg6 3.054775 1_555
Mg5 Mg9 3.102913 1_555
Mg6 Mo0 3.054566 1_555
Mg6 Mg8 3.067999 1_565
Mg6 Mg9 3.071583 1_455
Mg6 Mg9 3.071583 1_555
Mg6 Mg7 3.076321 1_565
Mg6 Mg7 3.119169 1_555
Mg6 Mo1 3.129633 1_565
Mg7 Mo0 3.054566 1_555
Mg7 Mg8 3.067999 1_555
Mg7 Mo1 3.129633 1_555
Mg8 Mg9 3.067728 1_545
Mg8 Mg9 3.067728 1_445
Mg8 Mo0 3.097873 1_555
Mg8 Mo0 3.097873 1_545
Mg9 Mo0 2.980687 1_555
Mg9 Mo0 2.980687 1_655
Mg10 Mg9 2.942548 1_555
Mg10 Mo0 2.980687 1_555
Mg10 Mo0 2.980687 1_655
Mg10 Mg8 3.067728 1_555
Mg10 Mg8 3.067728 1_655
Mg10 Mg7 3.071583 1_655
Mg10 Mg7 3.071583 1_555
Mg10 Mg11 3.083839 1_555
Mg10 Mg5 3.102913 1_555
Mg10 Mg9 3.252942 1_545
Mg11 Mg8 3.049887 1_555
Mg11 Mg8 3.049887 1_655
Mg11 Mg9 3.083839 1_545
Mg11 Mg4 3.102913 1_544
Mg11 Mg3 3.102913 1_554
Cd0 Mg10 2.949355 1_555
Cd0 Mg9 2.949355 1_555
Cd0 Mo0 3.029008 1_655
Cd0 Mo0 3.029008 1_555
Cd0 Mg1 3.063456 1_555
Cd0 Mg0 3.063456 1_655
Cd0 Mg1 3.063456 1_655
Cd0 Mg0 3.063456 1_555
Cd0 Mg11 3.098403 1_565
Cd0 Mg11 3.098403 1_555
Cd0 Mg3 3.234485 1_554
Cd0 Mg4 3.234485 1_554
Cd1 Mg3 2.949355 1_555
Cd1 Mg4 2.949355 1_545
Cd1 Mo1 3.029008 1_655
Cd1 Mo1 3.029008 1_555
Cd1 Mg7 3.063456 1_655
Cd1 Mg6 3.063456 1_645
Cd1 Mg6 3.063456 1_545
Cd1 Mg7 3.063456 1_555
Cd1 Mg5 3.098403 1_555
Cd1 Mg5 3.098403 1_545
Cd1 Mg9 3.234485 1_545
Cd1 Mg10 3.234485 1_555
