# generated using pymatgen
data_Sc3As2
_symmetry_space_group_name_H-M   'P 1'
_cell_length_a   3.88300170
_cell_length_b   7.15701450
_cell_length_c   14.78704295
_cell_angle_alpha   89.99961988
_cell_angle_beta   90.00029993
_cell_angle_gamma   90.00012885
_symmetry_Int_Tables_number   1
_chemical_formula_structural   Sc3As2
_chemical_formula_sum   'Sc12 As8'
_cell_volume   410.94226667
_cell_formula_units_Z   4
loop_
 _symmetry_equiv_pos_site_id
 _symmetry_equiv_pos_as_xyz
  1  'x, y, z'
loop_
 _atom_site_type_symbol
 _atom_site_label
 _atom_site_symmetry_multiplicity
 _atom_site_fract_x
 _atom_site_fract_y
 _atom_site_fract_z
 _atom_site_occupancy
  Sc  Sc0  1  0.24999794  0.00360843  0.39626988  1
  Sc  Sc1  1  0.24999596  0.50359071  0.10376805  1
  Sc  Sc2  1  0.74999907  0.99639205  0.60373135  1
  Sc  Sc3  1  0.74999671  0.49642569  0.89623662  1
  Sc  Sc4  1  0.24999760  0.16281583  0.77535597  1
  Sc  Sc5  1  0.24999806  0.66284098  0.72458263  1
  Sc  Sc6  1  0.74999756  0.83721555  0.22463204  1
  Sc  Sc7  1  0.74999711  0.33718740  0.27543279  1
  Sc  Sc8  1  0.24999652  0.36163397  0.56905457  1
  Sc  Sc9  1  0.24999738  0.86163889  0.93092392  1
  Sc  Sc10  1  0.74999893  0.63837972  0.43094176  1
  Sc  Sc11  1  0.74999802  0.13839892  0.06908478  1
  As  As0  1  0.24999839  0.12223604  0.20609667  1
  As  As1  1  0.24999786  0.62221218  0.29392284  1
  As  As2  1  0.75001184  0.87775394  0.79390972  1
  As  As3  1  0.74999658  0.37775252  0.70606460  1
  As  As4  1  0.24999838  0.25344823  0.95622693  1
  As  As5  1  0.25003260  0.75351905  0.54378063  1
  As  As6  1  0.74999709  0.74649254  0.04375796  1
  As  As7  1  0.74999639  0.24645736  0.45622630  1
loop_
_geom_bond_atom_site_label_1
_geom_bond_atom_site_label_2
_geom_bond_distance
_geom_bond_site_symmetry_2
As0 Sc7 2.680912 1_555
As0 Sc7 2.680932 1_455
As0 Sc11 2.808460 1_455
As0 Sc11 2.808472 1_555
As0 Sc6 2.829437 1_545
As0 Sc6 2.829437 1_445
As0 Sc0 2.937466 1_555
As0 Sc1 3.120728 1_555
As1 Sc6 2.680871 1_455
As1 Sc6 2.680872 1_555
As1 Sc10 2.808539 1_555
As1 Sc10 2.808548 1_455
As1 Sc7 2.829395 1_455
As1 Sc7 2.829399 1_555
As1 Sc1 2.937203 1_555
As1 Sc0 3.121138 1_565
As2 Sc5 2.680681 1_655
As2 Sc5 2.680746 1_555
As2 Sc9 2.808431 1_655
As2 Sc9 2.808523 1_555
As2 Sc4 2.829637 1_665
As2 Sc4 2.829717 1_565
As2 Sc2 2.937561 1_555
As2 Sc3 3.120550 1_555
As3 Sc4 2.680600 1_555
As3 Sc4 2.680602 1_655
As3 Sc8 2.808427 1_555
As3 Sc8 2.808442 1_655
As3 Sc5 2.829765 1_655
As3 Sc5 2.829766 1_555
As3 Sc3 2.937554 1_555
As3 Sc2 3.120815 1_545
As4 Sc11 2.689309 1_556
As4 Sc11 2.689321 1_456
As4 Sc4 2.752086 1_555
As4 Sc3 2.753251 1_555
As4 Sc3 2.753259 1_455
As4 Sc1 2.822221 1_556
As4 Sc9 2.829039 1_545
As5 Sc10 2.689259 1_555
As5 Sc10 2.689432 1_455
As5 Sc5 2.751164 1_555
As5 Sc2 2.752504 1_555
As5 Sc2 2.752699 1_455
As5 Sc0 2.821614 1_565
As5 Sc8 2.829515 1_555
As6 Sc9 2.689304 1_554
As6 Sc9 2.689315 1_654
As6 Sc6 2.752284 1_555
As6 Sc1 2.753004 1_655
As6 Sc1 2.753011 1_555
As6 Sc3 2.821652 1_554
As6 Sc11 2.829774 1_565
As7 Sc8 2.689323 1_655
As7 Sc8 2.689337 1_555
As7 Sc7 2.751130 1_555
As7 Sc0 2.752510 1_555
As7 Sc0 2.752530 1_655
As7 Sc2 2.821440 1_545
As7 Sc10 2.829800 1_555
