# generated using pymatgen
data_NaNbO3
_symmetry_space_group_name_H-M   'P 1'
_cell_length_a   5.61367700
_cell_length_b   5.65392400
_cell_length_c   23.80524200
_cell_angle_alpha   90.00000000
_cell_angle_beta   90.00000000
_cell_angle_gamma   90.00000000
_symmetry_Int_Tables_number   1
_chemical_formula_structural   NaNbO3
_chemical_formula_sum   'Na12 Nb12 O36'
_cell_volume   755.56179165
_cell_formula_units_Z   12
loop_
 _symmetry_equiv_pos_site_id
 _symmetry_equiv_pos_as_xyz
  1  'x, y, z'
loop_
 _atom_site_type_symbol
 _atom_site_label
 _atom_site_symmetry_multiplicity
 _atom_site_fract_x
 _atom_site_fract_y
 _atom_site_fract_z
 _atom_site_occupancy
  Na  Na0  1  0.98855000  0.00527700  0.25000000  1
  Na  Na1  1  0.51145000  0.50527700  0.25000000  1
  Na  Na2  1  0.01145000  0.99472300  0.75000000  1
  Na  Na3  1  0.48855000  0.49472300  0.75000000  1
  Na  Na4  1  0.50383500  0.51734600  0.08436000  1
  Na  Na5  1  0.99616500  0.01734600  0.41564000  1
  Na  Na6  1  0.49616500  0.48265400  0.58436000  1
  Na  Na7  1  0.00383500  0.98265400  0.91564000  1
  Na  Na8  1  0.49616500  0.48265400  0.91564000  1
  Na  Na9  1  0.00383500  0.98265400  0.58436000  1
  Na  Na10  1  0.50383500  0.51734600  0.41564000  1
  Na  Na11  1  0.99616500  0.01734600  0.08436000  1
  Nb  Nb0  1  0.00000000  0.50000000  0.00000000  1
  Nb  Nb1  1  0.50000000  0.00000000  0.50000000  1
  Nb  Nb2  1  0.00000000  0.50000000  0.50000000  1
  Nb  Nb3  1  0.50000000  0.00000000  0.00000000  1
  Nb  Nb4  1  0.00587500  0.52188600  0.33326100  1
  Nb  Nb5  1  0.49412500  0.02188600  0.16673900  1
  Nb  Nb6  1  0.99412500  0.47811400  0.83326100  1
  Nb  Nb7  1  0.50587500  0.97811400  0.66673900  1
  Nb  Nb8  1  0.99412500  0.47811400  0.66673900  1
  Nb  Nb9  1  0.50587500  0.97811400  0.83326100  1
  Nb  Nb10  1  0.00587500  0.52188600  0.16673900  1
  Nb  Nb11  1  0.49412500  0.02188600  0.33326100  1
  O  O0  1  0.95018300  0.49418200  0.25000000  1
  O  O1  1  0.54981700  0.99418200  0.25000000  1
  O  O2  1  0.04981700  0.50581800  0.75000000  1
  O  O3  1  0.45018300  0.00581800  0.75000000  1
  O  O4  1  0.44744900  0.98798200  0.08370400  1
  O  O5  1  0.05255100  0.48798200  0.41629600  1
  O  O6  1  0.55255100  0.01201800  0.58370400  1
  O  O7  1  0.94744900  0.51201800  0.91629600  1
  O  O8  1  0.55255100  0.01201800  0.91629600  1
  O  O9  1  0.94744900  0.51201800  0.58370400  1
  O  O10  1  0.44744900  0.98798200  0.41629600  1
  O  O11  1  0.05255100  0.48798200  0.08370400  1
  O  O12  1  0.74448000  0.74392900  0.00951000  1
  O  O13  1  0.75552000  0.24392900  0.49049000  1
  O  O14  1  0.25552000  0.25607100  0.50951000  1
  O  O15  1  0.24448000  0.75607100  0.99049000  1
  O  O16  1  0.25552000  0.25607100  0.99049000  1
  O  O17  1  0.24448000  0.75607100  0.50951000  1
  O  O18  1  0.74448000  0.74392900  0.49049000  1
  O  O19  1  0.75552000  0.24392900  0.00951000  1
  O  O20  1  0.79251900  0.78232900  0.34121200  1
  O  O21  1  0.70748100  0.28232900  0.15878800  1
  O  O22  1  0.20748100  0.21767100  0.84121200  1
  O  O23  1  0.29251900  0.71767100  0.65878800  1
  O  O24  1  0.20748100  0.21767100  0.65878800  1
  O  O25  1  0.29251900  0.71767100  0.84121200  1
  O  O26  1  0.79251900  0.78232900  0.15878800  1
  O  O27  1  0.70748100  0.28232900  0.34121200  1
  O  O28  1  0.79436100  0.80121300  0.67501500  1
  O  O29  1  0.70563900  0.30121300  0.82498500  1
  O  O30  1  0.20563900  0.19878700  0.17501500  1
  O  O31  1  0.29436100  0.69878700  0.32498500  1
  O  O32  1  0.20563900  0.19878700  0.32498500  1
  O  O33  1  0.29436100  0.69878700  0.17501500  1
  O  O34  1  0.79436100  0.80121300  0.82498500  1
  O  O35  1  0.70563900  0.30121300  0.67501500  1
loop_
_geom_bond_atom_site_label_1
_geom_bond_atom_site_label_2
_geom_bond_distance
_geom_bond_site_symmetry_2
Na0 O32 2.422507 1_655
Na0 O30 2.422507 1_655
Na0 O1 2.463704 1_545
Na0 O20 2.741274 1_545
Na0 O26 2.741274 1_545
Na0 O0 2.772610 1_555
Na0 O0 2.897708 1_545
Na1 O31 2.422507 1_555
Na1 O33 2.422507 1_555
Na1 O0 2.463704 1_555
Na1 O27 2.741274 1_555
Na1 O21 2.741274 1_555
Na1 O1 2.772610 1_555
Na1 O1 2.897708 1_545
Na2 O34 2.422507 1_455
Na2 O28 2.422507 1_455
Na2 O3 2.463704 1_565
Na2 O22 2.741274 1_565
Na2 O24 2.741274 1_565
Na2 O2 2.772610 1_555
Na2 O2 2.897708 1_565
Na3 O29 2.422507 1_555
Na3 O35 2.422507 1_555
Na3 O2 2.463704 1_555
Na3 O25 2.741274 1_555
Na3 O23 2.741274 1_555
Na3 O3 2.772610 1_555
Na3 O3 2.897708 1_565
Na4 O21 2.492334 1_555
Na4 O11 2.538845 1_555
Na4 O12 2.577015 1_555
Na4 O33 2.663157 1_555
Na4 O4 2.679746 1_555
Na4 O19 2.749701 1_555
Na4 O26 2.830204 1_555
Na5 O20 2.492334 1_545
Na5 O10 2.538845 1_645
Na5 O13 2.577015 1_555
Na5 O32 2.663157 1_655
Na5 O5 2.679746 1_655
Na5 O18 2.749701 1_545
Na5 O27 2.830204 1_555
Na6 O23 2.492334 1_555
Na6 O9 2.538845 1_555
Na6 O14 2.577015 1_555
Na6 O35 2.663157 1_555
Na6 O6 2.679746 1_555
Na6 O17 2.749701 1_555
Na6 O24 2.830204 1_555
Na7 O22 2.492334 1_565
Na7 O8 2.538845 1_465
Na7 O15 2.577015 1_555
Na7 O34 2.663157 1_455
Na7 O7 2.679746 1_455
Na7 O16 2.749701 1_565
Na7 O25 2.830204 1_555
Na8 O25 2.492334 1_555
Na8 O7 2.538845 1_555
Na8 O16 2.577015 1_555
Na8 O29 2.663157 1_555
Na8 O8 2.679746 1_555
Na8 O15 2.749701 1_555
Na8 O22 2.830204 1_555
Na9 O24 2.492334 1_565
Na9 O6 2.538845 1_465
Na9 O17 2.577015 1_555
Na9 O28 2.663157 1_455
Na9 O9 2.679746 1_455
Na9 O14 2.749701 1_565
Na9 O23 2.830204 1_555
Na10 O27 2.492334 1_555
Na10 O5 2.538845 1_555
Na10 O18 2.577015 1_555
Na10 O31 2.663157 1_555
Na10 O10 2.679746 1_555
Na10 O13 2.749701 1_555
Na10 O20 2.830204 1_555
Na11 O26 2.492334 1_545
Na11 O4 2.538845 1_645
Na11 O19 2.577015 1_555
Na11 O30 2.663157 1_655
Na11 O11 2.679746 1_655
Na11 O12 2.749701 1_545
Na11 O21 2.830204 1_555
Nb0 O12 2.002710 1_455
Nb0 O16 2.002710 1_554
Nb0 O15 2.007726 1_554
Nb0 O19 2.007726 1_455
Nb0 O11 2.015459 1_555
Nb0 O7 2.015459 1_454
Nb1 O13 2.002710 1_555
Nb1 O17 2.002710 1_545
Nb1 O18 2.007726 1_545
Nb1 O14 2.007726 1_555
Nb1 O10 2.015459 1_545
Nb1 O6 2.015459 1_555
Nb2 O18 2.002710 1_455
Nb2 O14 2.002710 1_555
Nb2 O17 2.007726 1_555
Nb2 O13 2.007726 1_455
Nb2 O5 2.015459 1_555
Nb2 O9 2.015459 1_455
Nb3 O19 2.002710 1_555
Nb3 O15 2.002710 1_544
Nb3 O16 2.007726 1_554
Nb3 O12 2.007726 1_545
Nb3 O8 2.015459 1_554
Nb3 O4 2.015459 1_545
Nb4 O20 1.907529 1_455
Nb4 O31 1.913598 1_555
Nb4 O5 2.003152 1_555
Nb4 O0 2.012658 1_455
Nb4 O32 2.152554 1_555
Nb4 O27 2.162462 1_455
Nb5 O21 1.907529 1_555
Nb5 O30 1.913598 1_555
Nb5 O4 2.003152 1_545
Nb5 O1 2.012658 1_545
Nb5 O33 2.152554 1_545
Nb5 O26 2.162462 1_545
Nb6 O22 1.907529 1_655
Nb6 O29 1.913598 1_555
Nb6 O7 2.003152 1_555
Nb6 O2 2.012658 1_655
Nb6 O34 2.152554 1_555
Nb6 O25 2.162462 1_655
Nb7 O23 1.907529 1_555
Nb7 O28 1.913598 1_555
Nb7 O6 2.003152 1_565
Nb7 O3 2.012658 1_565
Nb7 O35 2.152554 1_565
Nb7 O24 2.162462 1_565
Nb8 O24 1.907529 1_655
Nb8 O35 1.913598 1_555
Nb8 O9 2.003152 1_555
Nb8 O2 2.012658 1_655
Nb8 O28 2.152554 1_555
Nb8 O23 2.162462 1_655
Nb9 O25 1.907529 1_555
Nb9 O34 1.913598 1_555
Nb9 O8 2.003152 1_565
Nb9 O3 2.012658 1_565
Nb9 O29 2.152554 1_565
Nb9 O22 2.162462 1_565
Nb10 O26 1.907529 1_455
Nb10 O33 1.913598 1_555
Nb10 O11 2.003152 1_555
Nb10 O0 2.012658 1_455
Nb10 O30 2.152554 1_555
Nb10 O21 2.162462 1_455
Nb11 O27 1.907529 1_555
Nb11 O32 1.913598 1_555
Nb11 O10 2.003152 1_545
Nb11 O1 2.012658 1_545
Nb11 O31 2.152554 1_545
Nb11 O20 2.162462 1_545
