# generated using pymatgen
data_Li4Mn3O7
_symmetry_space_group_name_H-M   'P 1'
_cell_length_a   5.28452300
_cell_length_b   7.67098198
_cell_length_c   7.76887498
_cell_angle_alpha   116.16715021
_cell_angle_beta   105.81373396
_cell_angle_gamma   97.35950513
_symmetry_Int_Tables_number   1
_chemical_formula_structural   Li4Mn3O7
_chemical_formula_sum   'Li8 Mn6 O14'
_cell_volume   260.47421259
_cell_formula_units_Z   2
loop_
 _symmetry_equiv_pos_site_id
 _symmetry_equiv_pos_as_xyz
  1  'x, y, z'
loop_
 _atom_site_type_symbol
 _atom_site_label
 _atom_site_symmetry_multiplicity
 _atom_site_fract_x
 _atom_site_fract_y
 _atom_site_fract_z
 _atom_site_occupancy
  Li  Li0  1  0.44982400  0.79579700  0.94097000  1
  Li  Li1  1  0.85633900  0.06823200  0.34036500  1
  Li  Li2  1  0.29710800  0.35626300  0.79384400  1
  Li  Li3  1  0.70289200  0.64373700  0.20615600  1
  Li  Li4  1  0.14366100  0.93176800  0.65963500  1
  Li  Li5  1  0.55017600  0.20420300  0.05903000  1
  Li  Li6  1  0.00000000  0.50000000  0.50000000  1
  Li  Li7  1  0.00000000  0.00000000  0.00000000  1
  Mn  Mn0  1  0.84828800  0.57531500  0.85901000  1
  Mn  Mn1  1  0.15171200  0.42468500  0.14099000  1
  Mn  Mn2  1  0.27742900  0.85926900  0.27933800  1
  Mn  Mn3  1  0.72257100  0.14073100  0.72066200  1
  Mn  Mn4  1  0.57877700  0.71618500  0.57715300  1
  Mn  Mn5  1  0.42122300  0.28381500  0.42284700  1
  O  O0  1  0.94373800  0.73672400  0.73702600  1
  O  O1  1  0.43866700  0.04520500  0.19910800  1
  O  O2  1  0.80406400  0.31786100  0.60358500  1
  O  O3  1  0.28337900  0.61378200  0.04882000  1
  O  O4  1  0.72139900  0.89225900  0.48886000  1
  O  O5  1  0.14376400  0.19342800  0.90233000  1
  O  O6  1  0.58054200  0.46821100  0.34324100  1
  O  O7  1  0.85623600  0.80657200  0.09767000  1
  O  O8  1  0.27860100  0.10774100  0.51114000  1
  O  O9  1  0.71662100  0.38621800  0.95118000  1
  O  O10  1  0.19593600  0.68213900  0.39641500  1
  O  O11  1  0.56133300  0.95479500  0.80089200  1
  O  O12  1  0.05626200  0.26327600  0.26297400  1
  O  O13  1  0.41945800  0.53178900  0.65675900  1
loop_
_geom_bond_atom_site_label_1
_geom_bond_atom_site_label_2
_geom_bond_distance
_geom_bond_site_symmetry_2
Li0 O11 2.086903 1_555
Li0 O1 2.096415 1_566
Li0 O7 2.131248 1_556
Li0 O3 2.131668 1_556
Li0 O13 2.186818 1_555
Li0 O0 2.571976 1_455
Li1 O7 2.060364 1_545
Li1 O12 2.109709 1_655
Li1 O1 2.125141 1_555
Li1 O8 2.165639 1_655
Li1 O2 2.216886 1_555
Li1 O4 2.288412 1_545
Li2 O5 1.992160 1_555
Li2 O3 2.120193 1_556
Li2 O9 2.146277 1_555
Li2 O8 2.147075 1_555
Li2 O13 2.186826 1_555
Li2 O2 2.525975 1_455
Li3 O7 1.992160 1_555
Li3 O9 2.120193 1_554
Li3 O3 2.146277 1_555
Li3 O4 2.147075 1_555
Li3 O6 2.186826 1_555
Li3 O10 2.525975 1_655
Li4 O5 2.060364 1_565
Li4 O0 2.109709 1_455
Li4 O11 2.125141 1_555
Li4 O4 2.165639 1_455
Li4 O10 2.216886 1_555
Li4 O8 2.288412 1_565
Li5 O1 2.086903 1_555
Li5 O11 2.096415 1_544
Li5 O5 2.131248 1_554
Li5 O9 2.131668 1_554
Li5 O6 2.186818 1_555
Li5 O12 2.571976 1_655
Li6 O12 2.065005 1_555
Li6 O0 2.065005 1_455
Li6 O6 2.141116 1_455
Li6 O13 2.141116 1_555
Li6 O10 2.178768 1_555
Li6 O2 2.178768 1_455
Li7 O0 2.053543 1_444
Li7 O12 2.053543 1_555
Li7 O5 2.091158 1_554
Li7 O7 2.091158 1_445
Li7 O1 2.292030 1_555
Li7 O11 2.292030 1_444
Mn0 O7 1.903676 1_556
Mn0 O0 1.954740 1_555
Mn0 O9 2.007504 1_555
Mn0 O2 2.016231 1_555
Mn0 O13 2.262434 1_555
Mn0 O3 2.267732 1_656
Mn1 O5 1.903676 1_554
Mn1 O12 1.954740 1_555
Mn1 O3 2.007504 1_555
Mn1 O10 2.016231 1_555
Mn1 O6 2.262434 1_555
Mn1 O9 2.267732 1_454
Mn2 O3 1.955963 1_555
Mn2 O8 1.959473 1_565
Mn2 O1 1.977646 1_565
Mn2 O10 2.003142 1_555
Mn2 O7 2.159562 1_455
Mn2 O4 2.370923 1_555
Mn3 O9 1.955963 1_555
Mn3 O4 1.959473 1_545
Mn3 O11 1.977646 1_545
Mn3 O2 2.003142 1_555
Mn3 O5 2.159562 1_655
Mn3 O8 2.370923 1_555
Mn4 O4 1.923783 1_555
Mn4 O11 1.924730 1_555
Mn4 O0 1.931614 1_555
Mn4 O13 1.960196 1_555
Mn4 O6 1.971242 1_555
Mn4 O10 2.031204 1_555
Mn5 O8 1.923783 1_555
Mn5 O1 1.924730 1_555
Mn5 O12 1.931614 1_555
Mn5 O6 1.960196 1_555
Mn5 O13 1.971242 1_555
Mn5 O2 2.031204 1_555
