# generated using pymatgen
data_RbHfMg30O31
_symmetry_space_group_name_H-M   'P 1'
_cell_length_a   8.65570400
_cell_length_b   8.67869700
_cell_length_c   8.68109200
_cell_angle_alpha   90.00000000
_cell_angle_beta   90.00000000
_cell_angle_gamma   90.00000000
_symmetry_Int_Tables_number   1
_chemical_formula_structural   RbHfMg30O31
_chemical_formula_sum   'Rb1 Hf1 Mg30 O31'
_cell_volume   652.12564798
_cell_formula_units_Z   1
loop_
 _symmetry_equiv_pos_site_id
 _symmetry_equiv_pos_as_xyz
  1  'x, y, z'
loop_
 _atom_site_type_symbol
 _atom_site_label
 _atom_site_symmetry_multiplicity
 _atom_site_fract_x
 _atom_site_fract_y
 _atom_site_fract_z
 _atom_site_occupancy
  Rb  Rb0  1  0.00261100  0.00000000  0.00000000  1
  Hf  Hf0  1  0.02165500  0.00000000  0.50000000  1
  Mg  Mg0  1  0.99888400  0.50000000  0.00000000  1
  Mg  Mg1  1  0.99660300  0.50000000  0.50000000  1
  Mg  Mg2  1  0.50223100  0.00000000  0.00000000  1
  Mg  Mg3  1  0.50137300  0.00000000  0.50000000  1
  Mg  Mg4  1  0.50065800  0.50000000  0.00000000  1
  Mg  Mg5  1  0.50166800  0.50000000  0.50000000  1
  Mg  Mg6  1  0.99880600  0.26057200  0.24666300  1
  Mg  Mg7  1  0.99880600  0.26057200  0.75333700  1
  Mg  Mg8  1  0.99880600  0.73942800  0.24666300  1
  Mg  Mg9  1  0.99880600  0.73942800  0.75333700  1
  Mg  Mg10  1  0.50042800  0.25216000  0.24929000  1
  Mg  Mg11  1  0.50042800  0.25216000  0.75071000  1
  Mg  Mg12  1  0.50042800  0.74784000  0.24929000  1
  Mg  Mg13  1  0.50042800  0.74784000  0.75071000  1
  Mg  Mg14  1  0.26295300  0.00000000  0.24237800  1
  Mg  Mg15  1  0.26295300  0.00000000  0.75762200  1
  Mg  Mg16  1  0.25158600  0.50000000  0.24753500  1
  Mg  Mg17  1  0.25158600  0.50000000  0.75246500  1
  Mg  Mg18  1  0.74243200  0.00000000  0.24963900  1
  Mg  Mg19  1  0.74243200  0.00000000  0.75036100  1
  Mg  Mg20  1  0.74767600  0.50000000  0.24951600  1
  Mg  Mg21  1  0.74767600  0.50000000  0.75048400  1
  Mg  Mg22  1  0.25475100  0.25655100  0.00000000  1
  Mg  Mg23  1  0.25379300  0.25820800  0.50000000  1
  Mg  Mg24  1  0.25475100  0.74344900  0.00000000  1
  Mg  Mg25  1  0.25379300  0.74179200  0.50000000  1
  Mg  Mg26  1  0.74583600  0.25374200  0.00000000  1
  Mg  Mg27  1  0.74730300  0.25145100  0.50000000  1
  Mg  Mg28  1  0.74583600  0.74625800  0.00000000  1
  Mg  Mg29  1  0.74730300  0.74854900  0.50000000  1
  O  O0  1  0.28155300  0.00000000  0.00000000  1
  O  O1  1  0.25588300  0.50000000  0.00000000  1
  O  O2  1  0.25046600  0.50000000  0.50000000  1
  O  O3  1  0.72225100  0.00000000  0.00000000  1
  O  O4  1  0.74747300  0.00000000  0.50000000  1
  O  O5  1  0.74380000  0.50000000  0.00000000  1
  O  O6  1  0.74732400  0.50000000  0.50000000  1
  O  O7  1  0.24938200  0.25243000  0.24558800  1
  O  O8  1  0.24938200  0.25243000  0.75441200  1
  O  O9  1  0.24938200  0.74757000  0.24558800  1
  O  O10  1  0.24938200  0.74757000  0.75441200  1
  O  O11  1  0.74965900  0.25001600  0.24943600  1
  O  O12  1  0.74965900  0.25001600  0.75056400  1
  O  O13  1  0.74965900  0.74998400  0.24943600  1
  O  O14  1  0.74965900  0.74998400  0.75056400  1
  O  O15  1  0.99200700  0.00000000  0.27463600  1
  O  O16  1  0.99200700  0.00000000  0.72536400  1
  O  O17  1  0.99903500  0.50000000  0.25692700  1
  O  O18  1  0.99903500  0.50000000  0.74307300  1
  O  O19  1  0.50040800  0.00000000  0.25741800  1
  O  O20  1  0.50040800  0.00000000  0.74258200  1
  O  O21  1  0.49994400  0.50000000  0.25267600  1
  O  O22  1  0.49994400  0.50000000  0.74732400  1
  O  O23  1  0.99850900  0.27953400  0.00000000  1
  O  O24  1  0.99397800  0.25594300  0.50000000  1
  O  O25  1  0.99850900  0.72046600  0.00000000  1
  O  O26  1  0.99397800  0.74405700  0.50000000  1
  O  O27  1  0.50062700  0.25587000  0.00000000  1
  O  O28  1  0.50039400  0.25214800  0.50000000  1
  O  O29  1  0.50062700  0.74413000  0.00000000  1
  O  O30  1  0.50039400  0.74785200  0.50000000  1
loop_
_geom_bond_atom_site_label_1
_geom_bond_atom_site_label_2
_geom_bond_distance
_geom_bond_site_symmetry_2
Hf0 O16 1.973165 1_455
Hf0 O15 1.973165 1_455
Hf0 O24 2.234133 1_455
Hf0 O26 2.234133 1_445
Hf0 O4 2.373238 1_455
Mg0 O25 1.913360 1_555
Mg0 O23 1.913360 1_555
Mg0 O5 2.207932 1_555
Mg0 O1 2.224507 1_655
Mg0 O17 2.230407 1_555
Mg0 O18 2.230407 1_554
Mg1 O18 2.110244 1_555
Mg1 O17 2.110244 1_555
Mg1 O26 2.118219 1_555
Mg1 O24 2.118219 1_555
Mg1 O6 2.157685 1_555
Mg1 O2 2.197363 1_655
Mg2 O3 1.904428 1_555
Mg2 O0 1.910123 1_555
Mg2 O29 2.220662 1_545
Mg2 O27 2.220662 1_555
Mg2 O19 2.234725 1_555
Mg2 O20 2.234725 1_554
Mg3 O20 2.105893 1_555
Mg3 O19 2.105893 1_555
Mg3 O4 2.130169 1_555
Mg3 O28 2.188332 1_555
Mg3 O30 2.188332 1_545
Mg4 O5 2.104565 1_555
Mg4 O1 2.118700 1_555
Mg4 O27 2.118730 1_555
Mg4 O29 2.118730 1_555
Mg4 O21 2.193512 1_555
Mg4 O22 2.193512 1_554
Mg5 O6 2.126326 1_555
Mg5 O22 2.147094 1_555
Mg5 O21 2.147094 1_555
Mg5 O30 2.151061 1_555
Mg5 O28 2.151061 1_555
Mg5 O2 2.174330 1_555
Mg6 O17 2.079834 1_555
Mg6 O23 2.147620 1_555
Mg6 O11 2.158622 1_555
Mg6 O7 2.170083 1_655
Mg6 O24 2.200006 1_555
Mg6 O15 2.275187 1_555
Mg7 O18 2.079834 1_555
Mg7 O23 2.147620 1_556
Mg7 O12 2.158622 1_555
Mg7 O8 2.170083 1_655
Mg7 O24 2.200006 1_555
Mg7 O16 2.275187 1_555
Mg8 O17 2.079834 1_555
Mg8 O25 2.147620 1_555
Mg8 O13 2.158622 1_555
Mg8 O9 2.170083 1_655
Mg8 O26 2.200006 1_555
Mg8 O15 2.275187 1_565
Mg9 O18 2.079834 1_555
Mg9 O25 2.147620 1_556
Mg9 O14 2.158622 1_555
Mg9 O10 2.170083 1_655
Mg9 O26 2.200006 1_555
Mg9 O16 2.275187 1_565
Mg10 O21 2.151133 1_555
Mg10 O11 2.157350 1_555
Mg10 O27 2.164350 1_555
Mg10 O7 2.173219 1_555
Mg10 O28 2.176437 1_555
Mg10 O19 2.189557 1_555
Mg11 O22 2.151133 1_555
Mg11 O12 2.157350 1_555
Mg11 O27 2.164350 1_556
Mg11 O8 2.173219 1_555
Mg11 O28 2.176437 1_555
Mg11 O20 2.189557 1_555
Mg12 O21 2.151133 1_555
Mg12 O13 2.157350 1_555
Mg12 O29 2.164350 1_555
Mg12 O9 2.173219 1_555
Mg12 O30 2.176437 1_555
Mg12 O19 2.189557 1_565
Mg13 O22 2.151133 1_555
Mg13 O14 2.157350 1_555
Mg13 O29 2.164350 1_556
Mg13 O10 2.173219 1_555
Mg13 O30 2.176437 1_555
Mg13 O20 2.189557 1_565
Mg14 O19 2.059483 1_555
Mg14 O0 2.110256 1_555
Mg14 O9 2.194087 1_545
Mg14 O7 2.194087 1_555
Mg14 O15 2.361888 1_455
Mg15 O20 2.059483 1_555
Mg15 O0 2.110256 1_556
Mg15 O10 2.194087 1_545
Mg15 O8 2.194087 1_555
Mg15 O16 2.361888 1_455
Mg16 O7 2.148736 1_555
Mg16 O9 2.148736 1_555
Mg16 O1 2.149196 1_555
Mg16 O21 2.150177 1_555
Mg16 O17 2.187527 1_455
Mg16 O2 2.191693 1_555
Mg17 O8 2.148736 1_555
Mg17 O10 2.148736 1_555
Mg17 O1 2.149196 1_556
Mg17 O22 2.150177 1_555
Mg17 O18 2.187527 1_455
Mg17 O2 2.191693 1_555
Mg18 O19 2.095976 1_555
Mg18 O11 2.170715 1_555
Mg18 O13 2.170715 1_545
Mg18 O15 2.171119 1_555
Mg18 O4 2.173845 1_555
Mg18 O3 2.174168 1_555
Mg19 O20 2.095976 1_555
Mg19 O12 2.170715 1_555
Mg19 O14 2.170715 1_545
Mg19 O16 2.171119 1_555
Mg19 O4 2.173845 1_555
Mg19 O3 2.174168 1_556
Mg20 O21 2.144470 1_555
Mg20 O5 2.166331 1_555
Mg20 O13 2.169603 1_555
Mg20 O11 2.169603 1_555
Mg20 O6 2.174477 1_555
Mg20 O17 2.176640 1_555
Mg21 O22 2.144470 1_555
Mg21 O5 2.166331 1_556
Mg21 O12 2.169603 1_555
Mg21 O14 2.169603 1_555
Mg21 O6 2.174477 1_555
Mg21 O18 2.176640 1_555
Mg22 O1 2.112843 1_555
Mg22 O27 2.128238 1_555
Mg22 O7 2.132778 1_555
Mg22 O8 2.132778 1_554
Mg22 O23 2.226906 1_455
Mg22 O0 2.238582 1_555
Mg23 O2 2.098637 1_555
Mg23 O28 2.135153 1_555
Mg23 O7 2.209473 1_555
Mg23 O8 2.209473 1_555
Mg23 O24 2.248968 1_455
Mg24 O1 2.112843 1_555
Mg24 O29 2.128238 1_555
Mg24 O9 2.132778 1_555
Mg24 O10 2.132778 1_554
Mg24 O25 2.226906 1_455
Mg24 O0 2.238582 1_565
Mg25 O2 2.098637 1_555
Mg25 O30 2.135153 1_555
Mg25 O9 2.209473 1_555
Mg25 O10 2.209473 1_555
Mg25 O26 2.248968 1_455
Mg26 O27 2.122537 1_555
Mg26 O5 2.137271 1_555
Mg26 O11 2.165871 1_555
Mg26 O12 2.165871 1_554
Mg26 O23 2.198488 1_555
Mg26 O3 2.211592 1_555
Mg27 O24 2.135502 1_555
Mg27 O28 2.137180 1_555
Mg27 O6 2.157081 1_555
Mg27 O12 2.175300 1_555
Mg27 O11 2.175300 1_555
Mg27 O4 2.182268 1_555
Mg28 O29 2.122537 1_555
Mg28 O5 2.137271 1_555
Mg28 O14 2.165871 1_554
Mg28 O13 2.165871 1_555
Mg28 O25 2.198488 1_555
Mg28 O3 2.211592 1_565
Mg29 O26 2.135502 1_555
Mg29 O30 2.137180 1_555
Mg29 O6 2.157081 1_555
Mg29 O13 2.175300 1_555
Mg29 O14 2.175300 1_555
Mg29 O4 2.182268 1_565
O0 Rb0 2.414439 1_555
O3 Rb0 2.426713 1_655
O15 Rb0 2.385907 1_655
O16 Rb0 2.385907 1_656
O23 Rb0 2.426251 1_655
O25 Rb0 2.426251 1_665
