# generated using pymatgen
data_ZrAlCr3
_symmetry_space_group_name_H-M   'P 1'
_cell_length_a   5.89969994
_cell_length_b   5.89969994
_cell_length_c   5.27933100
_cell_angle_alpha   90.00000000
_cell_angle_beta   90.00000000
_cell_angle_gamma   119.99999927
_symmetry_Int_Tables_number   1
_chemical_formula_structural   ZrAlCr3
_chemical_formula_sum   'Zr2 Al2 Cr6'
_cell_volume   159.13634311
_cell_formula_units_Z   2
loop_
 _symmetry_equiv_pos_site_id
 _symmetry_equiv_pos_as_xyz
  1  'x, y, z'
loop_
 _atom_site_type_symbol
 _atom_site_label
 _atom_site_symmetry_multiplicity
 _atom_site_fract_x
 _atom_site_fract_y
 _atom_site_fract_z
 _atom_site_occupancy
  Zr  Zr0  1  0.33333300  0.66666700  0.75000000  1
  Zr  Zr1  1  0.66666700  0.33333300  0.25000000  1
  Al  Al0  1  0.00000000  0.00000000  0.00000000  1
  Al  Al1  1  0.00000000  0.00000000  0.50000000  1
  Cr  Cr0  1  0.79185000  0.20815000  0.75000000  1
  Cr  Cr1  1  0.79185000  0.58370000  0.75000000  1
  Cr  Cr2  1  0.41630000  0.20815000  0.75000000  1
  Cr  Cr3  1  0.20815000  0.79185000  0.25000000  1
  Cr  Cr4  1  0.20815000  0.41630000  0.25000000  1
  Cr  Cr5  1  0.58370000  0.79185000  0.25000000  1
loop_
_geom_bond_atom_site_label_1
_geom_bond_atom_site_label_2
_geom_bond_distance
_geom_bond_site_symmetry_2
Al0 Cr0 2.503213 1_454
Al0 Cr3 2.503213 1_545
Al0 Cr4 2.503213 1_555
Al0 Cr1 2.503213 1_444
Al0 Cr2 2.503213 1_554
Al0 Cr5 2.503213 1_445
Al0 Al1 2.639665 1_554
Al0 Al1 2.639665 1_555
Al1 Cr0 2.503213 1_455
Al1 Cr3 2.503213 1_545
Al1 Cr1 2.503213 1_445
Al1 Cr4 2.503213 1_555
Al1 Cr2 2.503213 1_555
Al1 Cr5 2.503213 1_445
Cr0 Cr1 2.215632 1_555
Cr0 Cr2 2.215632 1_555
Cr0 Zr1 2.933286 1_555
Cr0 Zr1 2.933286 1_556
Cr0 Zr0 2.980152 1_655
Cr0 Zr0 2.980152 1_545
Cr1 Cr2 2.215632 1_555
Cr1 Zr1 2.933288 1_555
Cr1 Zr1 2.933288 1_556
Cr1 Zr0 2.980149 1_655
Cr1 Zr0 2.980155 1_555
Cr2 Zr1 2.933288 1_555
Cr2 Zr1 2.933288 1_556
Cr2 Zr0 2.980149 1_545
Cr2 Zr0 2.980155 1_555
Cr3 Cr5 2.215632 1_555
Cr3 Cr4 2.215632 1_555
Cr3 Zr0 2.933286 1_555
Cr3 Zr0 2.933286 1_554
Cr3 Zr1 2.980152 1_565
Cr3 Zr1 2.980152 1_455
Cr4 Cr5 2.215632 1_555
Cr4 Zr0 2.933288 1_555
Cr4 Zr0 2.933288 1_554
Cr4 Zr1 2.980149 1_455
Cr4 Zr1 2.980155 1_555
Cr5 Zr0 2.933288 1_555
Cr5 Zr0 2.933288 1_554
Cr5 Zr1 2.980149 1_565
Cr5 Zr1 2.980155 1_555
