# generated using pymatgen
data_NaMg14Al
_symmetry_space_group_name_H-M   'P 1'
_cell_length_a   6.34394805
_cell_length_b   6.34394754
_cell_length_c   10.46094485
_cell_angle_alpha   90.00000000
_cell_angle_beta   90.00000000
_cell_angle_gamma   120.00000271
_symmetry_Int_Tables_number   1
_chemical_formula_structural   NaMg14Al
_chemical_formula_sum   'Na1 Mg14 Al1'
_cell_volume   364.60341601
_cell_formula_units_Z   1
loop_
 _symmetry_equiv_pos_site_id
 _symmetry_equiv_pos_as_xyz
  1  'x, y, z'
loop_
 _atom_site_type_symbol
 _atom_site_label
 _atom_site_symmetry_multiplicity
 _atom_site_fract_x
 _atom_site_fract_y
 _atom_site_fract_z
 _atom_site_occupancy
  Na  Na0  1  0.16666700  0.33333300  0.62500000  1
  Mg  Mg0  1  0.16488601  0.83244251  0.12500000  1
  Mg  Mg1  1  0.17063816  0.83531858  0.62500000  1
  Mg  Mg2  1  0.66755749  0.33511399  0.12500000  1
  Mg  Mg3  1  0.66468142  0.32936184  0.62500000  1
  Mg  Mg4  1  0.66755749  0.83244251  0.12500000  1
  Mg  Mg5  1  0.66468142  0.83531858  0.62500000  1
  Mg  Mg6  1  0.33326515  0.16673485  0.36879824  1
  Mg  Mg7  1  0.33326515  0.16673485  0.88120176  1
  Mg  Mg8  1  0.33326515  0.66653131  0.36879824  1
  Mg  Mg9  1  0.33326515  0.66653131  0.88120176  1
  Mg  Mg10  1  0.83346869  0.16673485  0.36879824  1
  Mg  Mg11  1  0.83346869  0.16673485  0.88120176  1
  Mg  Mg12  1  0.83333300  0.66666700  0.37789158  1
  Mg  Mg13  1  0.83333300  0.66666700  0.87210842  1
  Al  Al0  1  0.16666700  0.33333300  0.12500000  1
loop_
_geom_bond_atom_site_label_1
_geom_bond_atom_site_label_2
_geom_bond_distance
_geom_bond_site_symmetry_2
Mg0 Mg9 3.142847 1_554
Mg0 Mg8 3.142847 1_555
Mg0 Mg6 3.142854 1_565
Mg0 Mg7 3.142854 1_564
Mg0 Mg2 3.155026 1_455
Mg0 Mg4 3.155026 1_455
Mg0 Mg2 3.188921 1_565
Mg0 Mg4 3.188922 1_555
Mg0 Mg12 3.211957 1_455
Mg0 Mg13 3.211957 1_454
Mg1 Mg3 3.134185 1_565
Mg1 Mg5 3.134185 1_555
Mg1 Na0 3.172049 1_555
Mg1 Na0 3.172049 1_565
Mg1 Mg12 3.180624 1_455
Mg1 Mg13 3.180624 1_455
Mg1 Mg3 3.209763 1_455
Mg1 Mg5 3.209763 1_455
Mg1 Mg9 3.240167 1_555
Mg1 Mg8 3.240167 1_555
Mg1 Mg7 3.240174 1_565
Mg1 Mg6 3.240174 1_565
Mg2 Mg6 3.142854 1_555
Mg2 Mg7 3.142854 1_554
Mg2 Mg4 3.155026 1_555
Mg2 Mg4 3.188921 1_545
Mg3 Mg5 3.134185 1_545
Mg3 Na0 3.172049 1_655
Mg3 Na0 3.172049 1_555
Mg3 Mg5 3.209763 1_555
Mg3 Mg7 3.240174 1_555
Mg3 Mg6 3.240174 1_555
Mg4 Mg8 3.142854 1_555
Mg4 Mg9 3.142854 1_554
Mg5 Na0 3.172049 1_555
Mg5 Na0 3.172049 1_665
Mg5 Mg8 3.240174 1_555
Mg5 Mg9 3.240174 1_555
Mg6 Mg8 3.170683 1_555
Mg6 Mg8 3.173265 1_545
Mg6 Na0 3.245620 1_555
Mg7 Mg9 3.170683 1_555
Mg7 Mg9 3.173265 1_545
Mg7 Na0 3.245620 1_555
Mg8 Na0 3.245627 1_555
Mg9 Na0 3.245627 1_555
Mg10 Mg2 3.142847 1_555
Mg10 Mg4 3.142854 1_545
Mg10 Mg8 3.170683 1_655
Mg10 Mg6 3.170683 1_655
Mg10 Mg8 3.173265 1_545
Mg10 Mg6 3.173265 1_555
Mg10 Mg12 3.173400 1_555
Mg10 Mg12 3.173400 1_545
Mg10 Mg3 3.240167 1_555
Mg10 Mg5 3.240174 1_545
Mg10 Na0 3.245627 1_655
Mg11 Mg2 3.142847 1_556
Mg11 Mg4 3.142854 1_546
Mg11 Mg9 3.170683 1_655
Mg11 Mg7 3.170683 1_655
Mg11 Mg9 3.173265 1_545
Mg11 Mg7 3.173265 1_555
Mg11 Mg13 3.173400 1_555
Mg11 Mg13 3.173400 1_545
Mg11 Mg3 3.240167 1_555
Mg11 Mg5 3.240174 1_545
Mg11 Na0 3.245627 1_655
Mg12 Mg6 3.173400 1_665
Mg12 Mg6 3.173400 1_555
Mg12 Mg8 3.173400 1_655
Mg12 Mg8 3.173400 1_555
Mg12 Mg5 3.180617 1_555
Mg12 Mg3 3.180624 1_555
Mg12 Mg4 3.211951 1_555
Mg12 Mg2 3.211957 1_555
Mg13 Mg7 3.173400 1_665
Mg13 Mg7 3.173400 1_555
Mg13 Mg9 3.173400 1_655
Mg13 Mg9 3.173400 1_555
Mg13 Mg5 3.180617 1_555
Mg13 Mg3 3.180624 1_555
Mg13 Mg4 3.211951 1_556
Mg13 Mg2 3.211957 1_556
Al0 Mg6 3.139329 1_555
Al0 Mg7 3.139329 1_554
Al0 Mg8 3.139335 1_555
Al0 Mg9 3.139335 1_554
Al0 Mg10 3.139335 1_455
Al0 Mg11 3.139335 1_454
Al0 Mg0 3.171989 1_545
Al0 Mg4 3.171989 1_445
Al0 Mg4 3.171989 1_555
Al0 Mg0 3.171989 1_555
Al0 Mg2 3.171989 1_555
Al0 Mg2 3.171989 1_455
