# generated using pymatgen
data_DyNiO3
_symmetry_space_group_name_H-M   'P 1'
_cell_length_a   5.15399503
_cell_length_b   5.49893767
_cell_length_c   7.39052683
_cell_angle_alpha   89.99977502
_cell_angle_beta   89.99809542
_cell_angle_gamma   90.00004845
_symmetry_Int_Tables_number   1
_chemical_formula_structural   DyNiO3
_chemical_formula_sum   'Dy4 Ni4 O12'
_cell_volume   209.45859695
_cell_formula_units_Z   4
loop_
 _symmetry_equiv_pos_site_id
 _symmetry_equiv_pos_as_xyz
  1  'x, y, z'
loop_
 _atom_site_type_symbol
 _atom_site_label
 _atom_site_symmetry_multiplicity
 _atom_site_fract_x
 _atom_site_fract_y
 _atom_site_fract_z
 _atom_site_occupancy
  Dy  Dy0  1  0.48037467  0.42646275  0.74998874  1
  Dy  Dy1  1  0.01963294  0.92645954  0.74998115  1
  Dy  Dy2  1  0.51962488  0.57353567  0.25001190  1
  Dy  Dy3  1  0.98036805  0.07354298  0.25001961  1
  Ni  Ni0  1  -0.00000617  0.49999774  0.00000155  1
  Ni  Ni1  1  0.49999320  0.00000188  0.50000100  1
  Ni  Ni2  1  -0.00000663  0.49999742  0.49999958  1
  Ni  Ni3  1  0.49999078  0.00000403  -0.00000064  1
  O  O0  1  0.69543401  0.30294556  0.45009856  1
  O  O1  1  0.80457817  0.80295239  0.04990485  1
  O  O2  1  0.30456966  0.69704871  0.54989772  1
  O  O3  1  0.19542706  0.19705324  0.95009378  1
  O  O4  1  0.19562544  0.19686706  0.54989569  1
  O  O5  1  0.30437738  0.69684837  0.95009525  1
  O  O6  1  0.80437880  0.80313724  0.45010534  1
  O  O7  1  0.69562802  0.30314749  0.04990658  1
  O  O8  1  0.09878118  0.47300574  0.24993517  1
  O  O9  1  0.40121433  0.97299673  0.25009602  1
  O  O10  1  0.59879554  0.02700405  0.74990465  1
  O  O11  1  0.90122768  0.52699439  0.75006551  1
loop_
_geom_bond_atom_site_label_1
_geom_bond_atom_site_label_2
_geom_bond_distance
_geom_bond_site_symmetry_2
Dy0 O11 2.238412 1_555
Dy0 O10 2.279816 1_555
Dy0 O5 2.284850 1_555
Dy0 O2 2.285131 1_555
Dy0 O4 2.436147 1_555
Dy0 O3 2.436221 1_555
Dy0 O0 2.569427 1_555
Dy0 O7 2.569801 1_556
Dy1 O10 2.238353 1_465
Dy1 O11 2.279828 1_455
Dy1 O4 2.284809 1_565
Dy1 O3 2.285246 1_565
Dy1 O2 2.436101 1_555
Dy1 O5 2.436266 1_555
Dy1 O6 2.569549 1_455
Dy1 O1 2.569611 1_456
Dy2 O8 2.238363 1_555
Dy2 O9 2.279815 1_555
Dy2 O7 2.284865 1_555
Dy2 O0 2.285133 1_555
Dy2 O6 2.436180 1_555
Dy2 O1 2.436268 1_555
Dy2 O2 2.569384 1_555
Dy2 O5 2.569776 1_554
Dy3 O9 2.238399 1_645
Dy3 O8 2.279826 1_655
Dy3 O6 2.284797 1_545
Dy3 O1 2.285237 1_545
Dy3 O0 2.436049 1_555
Dy3 O7 2.436228 1_555
Dy3 O4 2.569560 1_655
Dy3 O3 2.569638 1_654
Ni0 O11 1.921774 1_454
Ni0 O8 1.921784 1_555
Ni0 O7 1.941273 1_455
Ni0 O5 1.941350 1_554
Ni0 O1 1.981342 1_455
Ni0 O3 1.981348 1_554
Ni1 O9 1.921576 1_545
Ni1 O10 1.921597 1_555
Ni1 O4 1.941316 1_555
Ni1 O6 1.941390 1_545
Ni1 O2 1.981343 1_545
Ni1 O0 1.981353 1_555
Ni2 O11 1.922665 1_455
Ni2 O8 1.922682 1_555
Ni2 O0 1.942713 1_455
Ni2 O2 1.942778 1_555
Ni2 O6 1.982717 1_455
Ni2 O4 1.982722 1_555
Ni3 O9 1.922901 1_545
Ni3 O10 1.922923 1_554
Ni3 O3 1.942730 1_554
Ni3 O1 1.942836 1_545
Ni3 O5 1.982802 1_544
Ni3 O7 1.982812 1_555
