# generated using pymatgen
data_La2Ge4Pd3Pt
_symmetry_space_group_name_H-M   'P 1'
_cell_length_a   4.44684600
_cell_length_b   4.44684600
_cell_length_c   10.19751100
_cell_angle_alpha   90.00000000
_cell_angle_beta   90.00000000
_cell_angle_gamma   90.00000000
_symmetry_Int_Tables_number   1
_chemical_formula_structural   La2Ge4Pd3Pt
_chemical_formula_sum   'La2 Ge4 Pd3 Pt1'
_cell_volume   201.65006277
_cell_formula_units_Z   1
loop_
 _symmetry_equiv_pos_site_id
 _symmetry_equiv_pos_as_xyz
  1  'x, y, z'
loop_
 _atom_site_type_symbol
 _atom_site_label
 _atom_site_symmetry_multiplicity
 _atom_site_fract_x
 _atom_site_fract_y
 _atom_site_fract_z
 _atom_site_occupancy
  La  La0  1  0.50000000  0.00000000  0.74998000  1
  La  La1  1  0.00000000  0.50000000  0.25002000  1
  Ge  Ge0  1  0.00000000  0.50000000  0.87507700  1
  Ge  Ge1  1  0.50000000  0.00000000  0.37550600  1
  Ge  Ge2  1  0.50000000  0.00000000  0.12492300  1
  Ge  Ge3  1  0.00000000  0.50000000  0.62449400  1
  Pd  Pd0  1  0.00000000  0.00000000  0.50000000  1
  Pd  Pd1  1  0.00000000  0.00000000  0.00000000  1
  Pd  Pd2  1  0.50000000  0.50000000  0.50000000  1
  Pt  Pt0  1  0.50000000  0.50000000  0.00000000  1
loop_
_geom_bond_atom_site_label_1
_geom_bond_atom_site_label_2
_geom_bond_distance
_geom_bond_site_symmetry_2
La0 Pd0 3.382587 1_555
La0 Pd2 3.382587 1_555
La0 Pd0 3.382587 1_655
La0 Pd2 3.382587 1_545
La0 Pt0 3.382895 1_546
La0 Pd1 3.382895 1_656
La0 Pd1 3.382895 1_556
La0 Pt0 3.382895 1_556
La1 Pd0 3.382587 1_555
La1 Pd2 3.382587 1_555
La1 Pd0 3.382587 1_565
La1 Pd2 3.382587 1_455
La1 Pt0 3.382895 1_455
La1 Pd1 3.382895 1_565
La1 Pd1 3.382895 1_555
La1 Pt0 3.382895 1_555
Ge0 Ge3 2.555323 1_555
Ge0 Pd1 2.562507 1_566
Ge0 Pd1 2.562507 1_556
Ge0 Pt0 2.562507 1_556
Ge0 Pt0 2.562507 1_456
Ge0 La0 3.393313 1_555
Ge0 La0 3.393313 1_565
Ge0 La0 3.393313 1_465
Ge0 La0 3.393313 1_455
Ge1 Ge2 2.555323 1_555
Ge1 Pd0 2.560335 1_555
Ge1 Pd2 2.560335 1_555
Ge1 Pd0 2.560335 1_655
Ge1 Pd2 2.560335 1_545
Ge1 La1 3.394806 1_645
Ge1 La1 3.394806 1_555
Ge1 La1 3.394806 1_655
Ge1 La1 3.394806 1_545
Ge2 Pd1 2.562507 1_555
Ge2 Pt0 2.562507 1_555
Ge2 Pd1 2.562507 1_655
Ge2 Pt0 2.562507 1_545
Ge2 La1 3.393313 1_645
Ge2 La1 3.393313 1_555
Ge2 La1 3.393313 1_655
Ge2 La1 3.393313 1_545
Ge3 Pd0 2.560335 1_555
Ge3 Pd2 2.560335 1_555
Ge3 Pd0 2.560335 1_565
Ge3 Pd2 2.560335 1_455
Ge3 La0 3.394806 1_465
Ge3 La0 3.394806 1_565
Ge3 La0 3.394806 1_455
Ge3 La0 3.394806 1_555
