# generated using pymatgen
data_Mg3Fe
_symmetry_space_group_name_H-M   'P 1'
_cell_length_a   5.92968402
_cell_length_b   5.92968402
_cell_length_c   4.84427700
_cell_angle_alpha   90.00000000
_cell_angle_beta   90.00000000
_cell_angle_gamma   120.00000019
_symmetry_Int_Tables_number   1
_chemical_formula_structural   Mg3Fe
_chemical_formula_sum   'Mg6 Fe2'
_cell_volume   147.51042072
_cell_formula_units_Z   2
loop_
 _symmetry_equiv_pos_site_id
 _symmetry_equiv_pos_as_xyz
  1  'x, y, z'
loop_
 _atom_site_type_symbol
 _atom_site_label
 _atom_site_symmetry_multiplicity
 _atom_site_fract_x
 _atom_site_fract_y
 _atom_site_fract_z
 _atom_site_occupancy
  Mg  Mg0  1  0.17301500  0.34602900  0.25000000  1
  Mg  Mg1  1  0.65397100  0.82698500  0.25000000  1
  Mg  Mg2  1  0.17301500  0.82698500  0.25000000  1
  Mg  Mg3  1  0.82698500  0.17301500  0.75000000  1
  Mg  Mg4  1  0.34602900  0.17301500  0.75000000  1
  Mg  Mg5  1  0.82698500  0.65397100  0.75000000  1
  Fe  Fe0  1  0.66666700  0.33333300  0.25000000  1
  Fe  Fe1  1  0.33333300  0.66666700  0.75000000  1
loop_
_geom_bond_atom_site_label_1
_geom_bond_atom_site_label_2
_geom_bond_distance
_geom_bond_site_symmetry_2
Mg0 Mg1 2.851917 1_555
Mg0 Mg2 2.851917 1_555
Mg0 Mg4 3.004044 1_554
Mg0 Mg4 3.004044 1_555
Mg0 Mg3 3.004050 1_455
Mg0 Mg3 3.004050 1_454
Mg0 Mg1 3.077767 1_445
Mg0 Mg2 3.077767 1_545
Mg1 Mg2 2.851917 1_555
Mg1 Mg5 3.004044 1_554
Mg1 Mg5 3.004044 1_555
Mg1 Mg3 3.004050 1_565
Mg1 Mg3 3.004050 1_564
Mg1 Mg2 3.077767 1_655
Mg2 Mg4 3.004050 1_565
Mg2 Mg4 3.004050 1_564
Mg2 Mg5 3.004050 1_455
Mg2 Mg5 3.004050 1_454
Mg3 Mg5 2.851917 1_555
Mg3 Mg4 2.851917 1_555
Mg3 Mg4 3.077767 1_655
Mg3 Mg5 3.077767 1_545
Mg4 Mg5 2.851917 1_555
Mg4 Mg5 3.077767 1_445
Fe0 Mg3 2.928801 1_554
Fe0 Mg3 2.928801 1_555
Fe0 Mg5 2.928807 1_555
Fe0 Mg5 2.928807 1_554
Fe0 Mg4 2.928807 1_554
Fe0 Mg4 2.928807 1_555
Fe0 Mg2 2.965559 1_655
Fe0 Mg2 2.965559 1_545
Fe0 Mg1 2.965559 1_545
Fe0 Mg0 2.965559 1_655
Fe0 Mg1 2.965559 1_555
Fe0 Mg0 2.965559 1_555
Fe1 Mg2 2.928801 1_556
Fe1 Mg2 2.928801 1_555
Fe1 Mg1 2.928807 1_556
Fe1 Mg1 2.928807 1_555
Fe1 Mg0 2.928807 1_556
Fe1 Mg0 2.928807 1_555
Fe1 Mg3 2.965559 1_565
Fe1 Mg3 2.965559 1_455
Fe1 Mg5 2.965559 1_455
Fe1 Mg4 2.965559 1_565
Fe1 Mg5 2.965559 1_555
Fe1 Mg4 2.965559 1_555
