# generated using pymatgen
data_Nd3Ti12Bi13O48
_symmetry_space_group_name_H-M   'P 1'
_cell_length_a   5.46959500
_cell_length_b   10.89836548
_cell_length_c   16.91507155
_cell_angle_alpha   89.99711119
_cell_angle_beta   99.22869548
_cell_angle_gamma   90.02981930
_symmetry_Int_Tables_number   1
_chemical_formula_structural   Nd3Ti12Bi13O48
_chemical_formula_sum   'Nd3 Ti12 Bi13 O48'
_cell_volume   995.24989500
_cell_formula_units_Z   1
loop_
 _symmetry_equiv_pos_site_id
 _symmetry_equiv_pos_as_xyz
  1  'x, y, z'
loop_
 _atom_site_type_symbol
 _atom_site_label
 _atom_site_symmetry_multiplicity
 _atom_site_fract_x
 _atom_site_fract_y
 _atom_site_fract_z
 _atom_site_occupancy
  Nd  Nd0  1  0.99226000  0.00019200  0.87098500  1
  Nd  Nd1  1  0.49151900  0.74930900  0.87058300  1
  Nd  Nd2  1  0.48859100  0.24970700  0.87099300  1
  Ti  Ti0  1  0.94531200  0.75258000  0.74581500  1
  Ti  Ti1  1  0.94422900  0.24823300  0.74532400  1
  Ti  Ti2  1  0.43290800  0.49978200  0.74477700  1
  Ti  Ti3  1  0.44388900  0.99997800  0.74589000  1
  Ti  Ti4  1  0.05706600  0.74972100  0.00010000  1
  Ti  Ti5  1  0.05772700  0.25141800  0.99946800  1
  Ti  Ti6  1  0.55804900  0.99942800  0.99997700  1
  Ti  Ti7  1  0.55542300  0.49869200  0.00126200  1
  Ti  Ti8  1  0.19231300  0.75079700  0.25776200  1
  Ti  Ti9  1  0.19196000  0.25035400  0.25755100  1
  Ti  Ti10  1  0.69217700  0.99937800  0.25778600  1
  Ti  Ti11  1  0.69210300  0.49942300  0.25791600  1
  Bi  Bi0  1  0.81229500  0.98840600  0.57663100  1
  Bi  Bi1  1  0.81220100  0.48777200  0.57679300  1
  Bi  Bi2  1  0.31291200  0.76207700  0.57670300  1
  Bi  Bi3  1  0.31240500  0.26171700  0.57662400  1
  Bi  Bi4  1  0.24037800  0.51208200  0.42250000  1
  Bi  Bi5  1  0.24009600  0.01205800  0.42225300  1
  Bi  Bi6  1  0.74059500  0.73800100  0.42244000  1
  Bi  Bi7  1  0.74029700  0.23794900  0.42227700  1
  Bi  Bi8  1  0.08326100  0.99953400  0.13357400  1
  Bi  Bi9  1  0.08343200  0.49904100  0.13404000  1
  Bi  Bi10  1  0.58347100  0.75042000  0.13354600  1
  Bi  Bi11  1  0.58205100  0.25042600  0.13311900  1
  Bi  Bi12  1  0.95803900  0.50286000  0.86440800  1
  O  O0  1  0.20264200  0.88334900  0.78325200  1
  O  O1  1  0.20311500  0.38300700  0.78075200  1
  O  O2  1  0.70227000  0.86653800  0.78280600  1
  O  O3  1  0.70286600  0.36640100  0.78332000  1
  O  O4  1  0.41217300  0.60932700  0.22213500  1
  O  O5  1  0.41258100  0.10941900  0.22223500  1
  O  O6  1  0.91251400  0.64040900  0.22217600  1
  O  O7  1  0.91240700  0.14049400  0.22238200  1
  O  O8  1  0.36018200  0.85674600  0.98052300  1
  O  O9  1  0.36893600  0.35345100  0.98472700  1
  O  O10  1  0.86061400  0.89328500  0.98138100  1
  O  O11  1  0.85989200  0.39204400  0.98239100  1
  O  O12  1  0.23371600  0.63968900  0.75617200  1
  O  O13  1  0.22644900  0.13611000  0.75796900  1
  O  O14  1  0.73381900  0.61124800  0.75792800  1
  O  O15  1  0.72622000  0.11376300  0.75808800  1
  O  O16  1  0.53888200  0.87270700  0.49793300  1
  O  O17  1  0.53883600  0.37262600  0.49793100  1
  O  O18  1  0.03889400  0.87733500  0.49800800  1
  O  O19  1  0.03884200  0.37725400  0.49800200  1
  O  O20  1  0.50582000  0.84935800  0.25030800  1
  O  O21  1  0.50613800  0.34944100  0.24993600  1
  O  O22  1  0.00577100  0.90065500  0.25008100  1
  O  O23  1  0.00598000  0.40092000  0.24986100  1
  O  O24  1  0.02365600  0.71845400  0.88668300  1
  O  O25  1  0.03111200  0.21517400  0.88728600  1
  O  O26  1  0.54510100  0.53328200  0.88710400  1
  O  O27  1  0.52703000  0.03386900  0.88681300  1
  O  O28  1  0.24633300  0.72080600  0.36218700  1
  O  O29  1  0.24653000  0.22089600  0.36209800  1
  O  O30  1  0.74623500  0.52911600  0.36232700  1
  O  O31  1  0.74657300  0.02920800  0.36225600  1
  O  O32  1  0.89753300  0.78121500  0.64070600  1
  O  O33  1  0.89784200  0.27921900  0.64034200  1
  O  O34  1  0.39943800  0.96977800  0.64077000  1
  O  O35  1  0.39807100  0.47002800  0.63990600  1
  O  O36  1  0.04061500  0.62700200  0.50164500  1
  O  O37  1  0.04066600  0.12699000  0.50143200  1
  O  O38  1  0.54086500  0.62303700  0.50167000  1
  O  O39  1  0.54043300  0.12302900  0.50145800  1
  O  O40  1  0.31539000  0.61043800  0.01991500  1
  O  O41  1  0.30876500  0.10670400  0.01897400  1
  O  O42  1  0.81007800  0.64268400  0.02038600  1
  O  O43  1  0.80949200  0.14163200  0.01837900  1
  O  O44  1  0.16435100  0.78986600  0.11825800  1
  O  O45  1  0.16389900  0.28847600  0.11869700  1
  O  O46  1  0.66384900  0.96095200  0.11818900  1
  O  O47  1  0.66402500  0.46123000  0.11832400  1
loop_
_geom_bond_atom_site_label_1
_geom_bond_atom_site_label_2
_geom_bond_distance
_geom_bond_site_symmetry_2
Nd0 O25 2.364607 1_655
Nd0 O0 2.386922 1_645
Nd0 O10 2.406899 1_545
Nd0 O2 2.470067 1_545
Nd0 O15 2.531114 1_555
Nd0 O27 2.626971 1_555
Nd1 O26 2.383546 1_555
Nd1 O2 2.390143 1_555
Nd1 O8 2.403097 1_555
Nd1 O0 2.462965 1_555
Nd1 O12 2.506798 1_555
Nd1 O24 2.637889 1_555
Nd2 O27 2.373066 1_555
Nd2 O3 2.397083 1_555
Nd2 O9 2.410931 1_555
Nd2 O1 2.473100 1_555
Nd2 O13 2.522436 1_555
Nd2 O25 2.588228 1_555
Nd2 O25 2.960021 1_655
Bi0 O16 2.226671 1_555
Bi0 O18 2.302283 1_655
Bi0 O39 2.318654 1_565
Bi0 O37 2.442705 1_665
Bi0 O32 2.515867 1_555
Bi0 O34 2.665119 1_555
Bi1 O17 2.224478 1_555
Bi1 O19 2.301153 1_655
Bi1 O38 2.321125 1_555
Bi1 O36 2.446683 1_655
Bi1 O33 2.525921 1_555
Bi1 O35 2.661394 1_555
Bi2 O18 2.226642 1_555
Bi2 O16 2.298494 1_555
Bi2 O36 2.321326 1_555
Bi2 O38 2.443617 1_555
Bi2 O34 2.521289 1_555
Bi2 O32 2.677086 1_455
Bi3 O19 2.226320 1_555
Bi3 O17 2.300813 1_555
Bi3 O37 2.318244 1_555
Bi3 O39 2.442838 1_555
Bi3 O35 2.521436 1_555
Bi3 O33 2.669062 1_455
Bi4 O36 2.241748 1_555
Bi4 O38 2.291061 1_555
Bi4 O19 2.335589 1_555
Bi4 O17 2.436611 1_555
Bi4 O28 2.495336 1_555
Bi4 O30 2.737425 1_455
Bi5 O37 2.241147 1_555
Bi5 O39 2.290919 1_555
Bi5 O18 2.336516 1_545
Bi5 O16 2.438705 1_545
Bi5 O29 2.495578 1_555
Bi5 O31 2.733731 1_455
Bi6 O38 2.242171 1_555
Bi6 O36 2.290831 1_655
Bi6 O16 2.336003 1_555
Bi6 O18 2.435259 1_655
Bi6 O30 2.495538 1_555
Bi6 O28 2.738253 1_555
Bi7 O39 2.241771 1_555
Bi7 O37 2.291394 1_655
Bi7 O17 2.336729 1_555
Bi7 O19 2.436960 1_655
Bi7 O31 2.493743 1_555
Bi7 O29 2.735369 1_555
Bi8 O46 2.305331 1_455
Bi8 O22 2.343476 1_555
Bi8 O44 2.350151 1_555
Bi8 O7 2.437600 1_465
Bi8 O5 2.461556 1_565
Bi8 O41 2.721821 1_565
Bi8 O43 2.739254 1_465
Bi9 O47 2.303536 1_455
Bi9 O23 2.329521 1_555
Bi9 O45 2.359022 1_555
Bi9 O6 2.432894 1_455
Bi9 O4 2.456982 1_555
Bi9 O42 2.731702 1_455
Bi9 O40 2.755694 1_555
Bi10 O44 2.306020 1_555
Bi10 O20 2.348097 1_555
Bi10 O46 2.358135 1_555
Bi10 O4 2.436468 1_555
Bi10 O6 2.461845 1_555
Bi10 O40 2.695508 1_555
Bi10 O42 2.709497 1_555
Bi11 O45 2.298786 1_555
Bi11 O21 2.346306 1_555
Bi11 O47 2.361494 1_555
Bi11 O5 2.437112 1_555
Bi11 O7 2.471251 1_555
Bi11 O41 2.736378 1_555
Bi11 O43 2.737960 1_555
Bi11 O9 2.825323 1_554
Bi12 O3 2.329161 1_555
Bi12 O14 2.331568 1_555
Bi12 O26 2.374344 1_555
Bi12 O24 2.397360 1_655
Bi12 O11 2.464193 1_555
Bi12 O1 2.473012 1_655
O0 Ti3 2.005443 1_555
O0 Ti0 2.031074 1_455
O1 Ti2 1.952758 1_555
O1 Ti1 2.060910 1_455
O2 Ti0 1.992411 1_555
O2 Ti3 2.054527 1_555
O3 Ti1 2.021983 1_555
O3 Ti2 2.100405 1_555
O4 Ti11 1.962105 1_555
O4 Ti8 2.102587 1_555
O5 Ti10 1.960972 1_545
O5 Ti9 2.098907 1_555
O6 Ti8 1.963269 1_655
O6 Ti11 2.100352 1_555
O7 Ti9 1.957494 1_655
O7 Ti10 2.098623 1_545
O8 Ti6 1.892525 1_555
O8 Ti4 2.095922 1_556
O9 Ti7 1.879106 1_556
O9 Ti5 2.080933 1_555
O10 Ti4 1.896159 1_656
O10 Ti6 2.084422 1_555
O11 Ti5 1.872057 1_655
O11 Ti7 2.097298 1_556
O12 Ti2 1.902147 1_555
O12 Ti0 1.986483 1_455
O13 Ti3 1.933165 1_545
O13 Ti1 1.953908 1_455
O14 Ti0 1.956207 1_555
O14 Ti2 2.028445 1_555
O15 Ti1 1.922734 1_555
O15 Ti3 1.964904 1_545
O20 Ti10 1.919644 1_555
O20 Ti8 2.043896 1_555
O21 Ti11 1.918034 1_555
O21 Ti9 2.050558 1_555
O22 Ti8 1.919497 1_555
O22 Ti10 2.047010 1_455
O23 Ti9 1.924472 1_555
O23 Ti11 2.048245 1_455
O24 Ti4 1.928092 1_556
O24 Ti0 2.381641 1_455
O25 Ti5 1.920778 1_555
O25 Ti1 2.399154 1_455
O26 Ti7 1.959337 1_556
O26 Ti2 2.414907 1_555
O27 Ti6 1.931210 1_545
O27 Ti3 2.382766 1_545
O28 Ti8 1.773920 1_555
O29 Ti9 1.774882 1_555
O30 Ti11 1.773075 1_555
O31 Ti10 1.774326 1_545
O32 Ti0 1.782612 1_555
O33 Ti1 1.785305 1_555
O34 Ti3 1.786179 1_555
O35 Ti2 1.783188 1_555
O40 Ti7 1.854977 1_555
O40 Ti4 2.064747 1_555
O41 Ti6 1.863181 1_544
O41 Ti5 2.082902 1_554
O42 Ti4 1.857561 1_655
O42 Ti7 2.088202 1_555
O43 Ti5 1.874822 1_654
O43 Ti6 2.061720 1_544
O44 Ti4 2.038137 1_555
O44 Ti8 2.378481 1_555
O45 Ti5 2.047408 1_554
O45 Ti9 2.365803 1_555
O46 Ti6 2.034205 1_554
O46 Ti10 2.378607 1_555
O47 Ti7 2.015758 1_555
O47 Ti11 2.378207 1_555
