# generated using pymatgen
data_GaNi2
_symmetry_space_group_name_H-M   'P 1'
_cell_length_a   5.41088487
_cell_length_b   5.41088487
_cell_length_c   11.67921000
_cell_angle_alpha   90.00000000
_cell_angle_beta   90.00000000
_cell_angle_gamma   120.00001058
_symmetry_Int_Tables_number   1
_chemical_formula_structural   GaNi2
_chemical_formula_sum   'Ga8 Ni16'
_cell_volume   296.12879453
_cell_formula_units_Z   8
loop_
 _symmetry_equiv_pos_site_id
 _symmetry_equiv_pos_as_xyz
  1  'x, y, z'
loop_
 _atom_site_type_symbol
 _atom_site_label
 _atom_site_symmetry_multiplicity
 _atom_site_fract_x
 _atom_site_fract_y
 _atom_site_fract_z
 _atom_site_occupancy
  Ga  Ga0_0  1  0.00000000  0.00000000  0.00000000  1
  Ga  Ga0_1  1  0.00000000  0.00000000  0.50000000  1
  Ga  Ga0_2  1  0.00000000  0.50000000  0.00000000  1
  Ga  Ga0_3  1  0.00000000  0.50000000  0.50000000  1
  Ga  Ga0_4  1  0.50000000  0.00000000  0.00000000  1
  Ga  Ga0_5  1  0.50000000  0.00000000  0.50000000  1
  Ga  Ga0_6  1  0.50000000  0.50000000  0.00000000  1
  Ga  Ga0_7  1  0.50000000  0.50000000  0.50000000  1
  Ni  Ni0_0  1  0.33333350  0.16666650  0.33434750  1
  Ni  Ni0_1  1  0.33333350  0.16666650  0.83434750  1
  Ni  Ni0_2  1  0.33333350  0.66666650  0.33434750  1
  Ni  Ni0_3  1  0.33333350  0.66666650  0.83434750  1
  Ni  Ni0_4  1  0.83333350  0.16666650  0.33434750  1
  Ni  Ni0_5  1  0.83333350  0.16666650  0.83434750  1
  Ni  Ni0_6  1  0.83333350  0.66666650  0.33434750  1
  Ni  Ni0_7  1  0.83333350  0.66666650  0.83434750  1
  Ni  Ni1_0  1  0.16666650  0.33333350  0.16565250  1
  Ni  Ni1_1  1  0.16666650  0.33333350  0.66565250  1
  Ni  Ni1_2  1  0.16666650  0.83333350  0.16565250  1
  Ni  Ni1_3  1  0.16666650  0.83333350  0.66565250  1
  Ni  Ni1_4  1  0.66666650  0.33333350  0.16565250  1
  Ni  Ni1_5  1  0.66666650  0.33333350  0.66565250  1
  Ni  Ni1_6  1  0.66666650  0.83333350  0.16565250  1
  Ni  Ni1_7  1  0.66666650  0.83333350  0.66565250  1
loop_
_geom_bond_atom_site_label_1
_geom_bond_atom_site_label_2
_geom_bond_distance
_geom_bond_site_symmetry_2
Ga0_0 Ni1_2 2.486529 1_545
Ga0_0 Ni0_5 2.486529 1_454
Ga0_0 Ni0_7 2.486531 1_444
Ga0_0 Ni1_6 2.486531 1_445
Ga0_0 Ni1_0 2.486531 1_555
Ga0_0 Ni0_1 2.486531 1_554
Ga0_0 Ga0_6 2.705442 1_555
Ga0_0 Ga0_6 2.705442 1_445
Ga0_0 Ga0_2 2.705442 1_545
Ga0_0 Ga0_4 2.705442 1_455
Ga0_0 Ga0_2 2.705442 1_555
Ga0_0 Ga0_4 2.705442 1_555
Ga0_1 Ni0_4 2.486529 1_455
Ga0_1 Ni1_3 2.486529 1_545
Ga0_1 Ni1_7 2.486531 1_445
Ga0_1 Ni0_6 2.486531 1_445
Ga0_1 Ni1_1 2.486531 1_555
Ga0_1 Ni0_0 2.486531 1_555
Ga0_1 Ga0_7 2.705442 1_445
Ga0_1 Ga0_7 2.705442 1_555
Ga0_1 Ga0_5 2.705442 1_455
Ga0_1 Ga0_5 2.705442 1_555
Ga0_1 Ga0_3 2.705442 1_555
Ga0_1 Ga0_3 2.705442 1_545
Ga0_2 Ni1_0 2.486529 1_555
Ga0_2 Ni0_7 2.486529 1_454
Ga0_2 Ni0_5 2.486531 1_454
Ga0_2 Ni0_3 2.486531 1_554
Ga0_2 Ni1_4 2.486531 1_455
Ga0_2 Ni1_2 2.486531 1_555
Ga0_2 Ga0_4 2.705442 1_455
Ga0_2 Ga0_4 2.705442 1_565
Ga0_2 Ga0_6 2.705442 1_455
Ga0_2 Ga0_6 2.705442 1_555
Ga0_3 Ni0_6 2.486529 1_455
Ga0_3 Ni1_1 2.486529 1_555
Ga0_3 Ni1_3 2.486531 1_555
Ga0_3 Ni0_2 2.486531 1_555
Ga0_3 Ni0_4 2.486531 1_455
Ga0_3 Ni1_5 2.486531 1_455
Ga0_3 Ga0_5 2.705442 1_455
Ga0_3 Ga0_5 2.705442 1_565
Ga0_3 Ga0_7 2.705442 1_555
Ga0_3 Ga0_7 2.705442 1_455
Ga0_4 Ni0_1 2.486529 1_554
Ga0_4 Ni1_6 2.486529 1_545
Ga0_4 Ni1_4 2.486531 1_555
Ga0_4 Ni0_3 2.486531 1_544
Ga0_4 Ni0_5 2.486531 1_554
Ga0_4 Ni1_2 2.486531 1_545
Ga0_4 Ga0_6 2.705442 1_555
Ga0_4 Ga0_6 2.705442 1_545
Ga0_5 Ni0_0 2.486529 1_555
Ga0_5 Ni1_7 2.486529 1_545
Ga0_5 Ni0_2 2.486531 1_545
Ga0_5 Ni1_3 2.486531 1_545
Ga0_5 Ni1_5 2.486531 1_555
Ga0_5 Ni0_4 2.486531 1_555
Ga0_5 Ga0_7 2.705442 1_555
Ga0_5 Ga0_7 2.705442 1_545
Ga0_6 Ni0_3 2.486529 1_554
Ga0_6 Ni1_4 2.486529 1_555
Ga0_6 Ni1_0 2.486531 1_555
Ga0_6 Ni0_7 2.486531 1_554
Ga0_6 Ni0_1 2.486531 1_554
Ga0_6 Ni1_6 2.486531 1_555
Ga0_7 Ni1_5 2.486529 1_555
Ga0_7 Ni0_2 2.486529 1_555
Ga0_7 Ni1_7 2.486531 1_555
Ga0_7 Ni1_1 2.486531 1_555
Ga0_7 Ni0_6 2.486531 1_555
Ga0_7 Ni0_0 2.486531 1_555
Ni0_0 Ni1_2 2.514276 1_545
Ni0_0 Ni1_4 2.514276 1_555
Ni0_0 Ni1_0 2.514279 1_555
Ni0_0 Ni0_6 2.705442 1_445
Ni0_0 Ni0_6 2.705442 1_555
Ni0_0 Ni0_4 2.705442 1_555
Ni0_0 Ni0_2 2.705442 1_545
Ni0_0 Ni0_4 2.705442 1_455
Ni0_0 Ni0_2 2.705442 1_555
Ni0_1 Ni1_5 2.514276 1_555
Ni0_1 Ni1_3 2.514276 1_545
Ni0_1 Ni1_1 2.514279 1_555
Ni0_1 Ni0_7 2.705442 1_445
Ni0_1 Ni0_7 2.705442 1_555
Ni0_1 Ni0_5 2.705442 1_555
Ni0_1 Ni0_3 2.705442 1_545
Ni0_1 Ni0_5 2.705442 1_455
Ni0_1 Ni0_3 2.705442 1_555
Ni0_2 Ni1_0 2.514276 1_555
Ni0_2 Ni1_6 2.514276 1_555
Ni0_2 Ni1_2 2.514279 1_555
Ni0_2 Ni0_4 2.705442 1_565
Ni0_2 Ni0_4 2.705442 1_455
Ni0_2 Ni0_6 2.705442 1_555
Ni0_2 Ni0_6 2.705442 1_455
Ni0_3 Ni1_1 2.514276 1_555
Ni0_3 Ni1_7 2.514276 1_555
Ni0_3 Ni1_3 2.514279 1_555
Ni0_3 Ni0_5 2.705442 1_565
Ni0_3 Ni0_5 2.705442 1_455
Ni0_3 Ni0_7 2.705442 1_555
Ni0_3 Ni0_7 2.705442 1_455
Ni0_4 Ni1_6 2.514276 1_545
Ni0_4 Ni1_0 2.514276 1_655
Ni0_4 Ni1_4 2.514279 1_555
Ni0_4 Ni0_6 2.705442 1_545
Ni0_4 Ni0_6 2.705442 1_555
Ni0_5 Ni1_7 2.514276 1_545
Ni0_5 Ni1_1 2.514276 1_655
Ni0_5 Ni1_5 2.514279 1_555
Ni0_5 Ni0_7 2.705442 1_545
Ni0_5 Ni0_7 2.705442 1_555
Ni0_6 Ni1_2 2.514276 1_655
Ni0_6 Ni1_4 2.514276 1_555
Ni0_6 Ni1_6 2.514279 1_555
Ni0_7 Ni1_3 2.514276 1_655
Ni0_7 Ni1_5 2.514276 1_555
Ni0_7 Ni1_7 2.514279 1_555
Ni1_0 Ni1_6 2.705442 1_445
Ni1_0 Ni1_6 2.705442 1_555
Ni1_0 Ni1_2 2.705442 1_555
Ni1_0 Ni1_4 2.705442 1_455
Ni1_0 Ni1_4 2.705442 1_555
Ni1_0 Ni1_2 2.705442 1_545
Ni1_1 Ni1_7 2.705442 1_445
Ni1_1 Ni1_7 2.705442 1_555
Ni1_1 Ni1_3 2.705442 1_555
Ni1_1 Ni1_5 2.705442 1_455
Ni1_1 Ni1_5 2.705442 1_555
Ni1_1 Ni1_3 2.705442 1_545
Ni1_2 Ni1_4 2.705442 1_455
Ni1_2 Ni1_4 2.705442 1_565
Ni1_2 Ni1_6 2.705442 1_455
Ni1_2 Ni1_6 2.705442 1_555
Ni1_3 Ni1_5 2.705442 1_455
Ni1_3 Ni1_5 2.705442 1_565
Ni1_3 Ni1_7 2.705442 1_455
Ni1_3 Ni1_7 2.705442 1_555
Ni1_4 Ni1_6 2.705442 1_555
Ni1_4 Ni1_6 2.705442 1_545
Ni1_5 Ni1_7 2.705442 1_555
Ni1_5 Ni1_7 2.705442 1_545
