# generated using pymatgen
data_LaY3Ti4O12
_symmetry_space_group_name_H-M   'P 1'
_cell_length_a   7.75141300
_cell_length_b   5.39855400
_cell_length_c   5.73630600
_cell_angle_alpha   89.99905111
_cell_angle_beta   90.00000000
_cell_angle_gamma   90.00000000
_symmetry_Int_Tables_number   1
_chemical_formula_structural   LaY3Ti4O12
_chemical_formula_sum   'La1 Y3 Ti4 O12'
_cell_volume   240.04387963
_cell_formula_units_Z   1
loop_
 _symmetry_equiv_pos_site_id
 _symmetry_equiv_pos_as_xyz
  1  'x, y, z'
loop_
 _atom_site_type_symbol
 _atom_site_label
 _atom_site_symmetry_multiplicity
 _atom_site_fract_x
 _atom_site_fract_y
 _atom_site_fract_z
 _atom_site_occupancy
  La  La0  1  0.00000000  0.48276200  0.43544000  1
  Y  Y0  1  0.00000000  0.02192600  0.93013600  1
  Y  Y1  1  0.50000000  0.52084200  0.57363500  1
  Y  Y2  1  0.50000000  0.98204400  0.07129300  1
  Ti  Ti0  1  0.25361800  0.00008300  0.50122500  1
  Ti  Ti1  1  0.74745700  0.49916700  0.00025400  1
  Ti  Ti2  1  0.74638200  0.00008300  0.50122500  1
  Ti  Ti3  1  0.25254300  0.49916700  0.00025400  1
  O  O0  1  0.19850400  0.18385900  0.19122900  1
  O  O1  1  0.79719200  0.30106600  0.70692800  1
  O  O2  1  0.69153200  0.80540900  0.80125100  1
  O  O3  1  0.30909800  0.69082800  0.30337600  1
  O  O4  1  0.30846800  0.80540900  0.80125100  1
  O  O5  1  0.69090200  0.69082800  0.30337600  1
  O  O6  1  0.80149600  0.18385900  0.19122900  1
  O  O7  1  0.20280800  0.30106600  0.70692800  1
  O  O8  1  0.00000000  0.61496200  0.02332400  1
  O  O9  1  0.00000000  0.91185800  0.54070500  1
  O  O10  1  0.50000000  0.38582100  0.96017600  1
  O  O11  1  0.50000000  0.11896100  0.45676800  1
loop_
_geom_bond_atom_site_label_1
_geom_bond_atom_site_label_2
_geom_bond_distance
_geom_bond_site_symmetry_2
La0 O9 2.393914 1_555
La0 O1 2.420484 1_455
La0 O7 2.420484 1_555
La0 O8 2.469393 1_555
La0 O6 2.633232 1_455
La0 O0 2.633232 1_555
La0 O3 2.752477 1_555
La0 O5 2.752477 1_455
O0 Ti3 2.067125 1_555
O0 Ti0 2.080594 1_555
O0 Y0 2.318397 1_554
O0 Y2 2.668716 1_545
O1 Ti1 2.030663 1_556
O1 Ti2 2.046396 1_555
O1 Y0 2.526178 1_655
O1 Y1 2.701695 1_555
O2 Ti1 2.055300 1_556
O2 Ti2 2.060874 1_565
O2 Y2 2.347989 1_556
O2 Y1 2.503814 1_555
O2 Y0 2.762261 1_665
O3 Ti0 2.064070 1_565
O3 Ti3 2.070327 1_555
O3 Y1 2.331345 1_555
O3 Y2 2.536458 1_555
O4 Ti3 2.055300 1_556
O4 Ti0 2.060874 1_565
O4 Y2 2.347989 1_556
O4 Y1 2.503814 1_555
O4 Y0 2.762261 1_565
O5 Ti2 2.064070 1_565
O5 Ti1 2.070327 1_555
O5 Y1 2.331345 1_555
O5 Y2 2.536458 1_555
O6 Ti1 2.067125 1_555
O6 Ti2 2.080594 1_555
O6 Y0 2.318397 1_654
O6 Y2 2.668716 1_545
O7 Ti3 2.030663 1_556
O7 Ti0 2.046396 1_555
O7 Y0 2.526178 1_555
O7 Y1 2.701695 1_555
O8 Ti1 2.059213 1_455
O8 Ti3 2.059213 1_555
O8 Y0 2.261105 1_564
O9 Ti0 2.035409 1_565
O9 Ti2 2.035409 1_465
O9 Y0 2.311583 1_565
O10 Ti3 2.026463 1_556
O10 Ti1 2.026463 1_556
O10 Y2 2.271082 1_546
O10 Y1 2.334045 1_555
O11 Ti0 2.030829 1_555
O11 Ti2 2.030829 1_555
O11 Y1 2.270798 1_555
O11 Y2 2.331484 1_545
