# generated using pymatgen
data_LiNbO3
_symmetry_space_group_name_H-M   'P 1'
_cell_length_a   6.18667861
_cell_length_b   8.26576876
_cell_length_c   9.50933925
_cell_angle_alpha   90.00000000
_cell_angle_beta   89.94088038
_cell_angle_gamma   90.00000000
_symmetry_Int_Tables_number   1
_chemical_formula_structural   LiNbO3
_chemical_formula_sum   'Li8 Nb8 O24'
_cell_volume   486.28504938
_cell_formula_units_Z   8
loop_
 _symmetry_equiv_pos_site_id
 _symmetry_equiv_pos_as_xyz
  1  'x, y, z'
loop_
 _atom_site_type_symbol
 _atom_site_label
 _atom_site_symmetry_multiplicity
 _atom_site_fract_x
 _atom_site_fract_y
 _atom_site_fract_z
 _atom_site_occupancy
  Li  Li0  1  0.51902243  0.18462597  0.51967704  1
  Li  Li1  1  0.48097757  0.68462597  0.98032296  1
  Li  Li2  1  0.48097757  0.81537403  0.48032296  1
  Li  Li3  1  0.51902243  0.31537403  0.01967704  1
  Li  Li4  1  0.77702099  0.38299184  0.77005591  1
  Li  Li5  1  0.22297901  0.88299184  0.72994409  1
  Li  Li6  1  0.22297901  0.61700816  0.22994409  1
  Li  Li7  1  0.77702099  0.11700816  0.27005591  1
  Nb  Nb0  1  0.99747417  0.69777683  0.50153049  1
  Nb  Nb1  1  0.00252583  0.19777683  0.99846951  1
  Nb  Nb2  1  0.00252583  0.30222317  0.49846951  1
  Nb  Nb3  1  0.99747417  0.80222317  0.00153049  1
  Nb  Nb4  1  0.73371043  0.49915087  0.25723903  1
  Nb  Nb5  1  0.26628957  0.99915087  0.24276097  1
  Nb  Nb6  1  0.26628957  0.50084913  0.74276097  1
  Nb  Nb7  1  0.73371043  0.00084913  0.75723903  1
  O  O0  1  0.93209997  0.63099707  0.12533160  1
  O  O1  1  0.06790003  0.13099707  0.37466840  1
  O  O2  1  0.06790003  0.36900293  0.87466840  1
  O  O3  1  0.93209997  0.86900293  0.62533160  1
  O  O4  1  0.81681931  0.30637190  0.13504937  1
  O  O5  1  0.18318069  0.80637190  0.36495063  1
  O  O6  1  0.18318069  0.69362810  0.86495063  1
  O  O7  1  0.81681931  0.19362810  0.63504937  1
  O  O8  1  0.69570110  0.33893201  0.40247163  1
  O  O9  1  0.30429890  0.83893201  0.09752837  1
  O  O10  1  0.30429890  0.66106799  0.59752837  1
  O  O11  1  0.69570110  0.16106799  0.90247163  1
  O  O12  1  0.72575254  0.68674443  0.39563234  1
  O  O13  1  0.27424746  0.18674443  0.10436766  1
  O  O14  1  0.27424746  0.31325557  0.60436766  1
  O  O15  1  0.72575254  0.81325557  0.89563234  1
  O  O16  1  0.06338009  0.48718634  0.36905693  1
  O  O17  1  0.93661991  0.98718634  0.13094307  1
  O  O18  1  0.93661991  0.51281366  0.63094307  1
  O  O19  1  0.06338009  0.01281366  0.86905693  1
  O  O20  1  0.48421516  0.52941767  0.15795298  1
  O  O21  1  0.51578484  0.02941767  0.34204702  1
  O  O22  1  0.51578484  0.47058233  0.84204702  1
  O  O23  1  0.48421516  0.97058233  0.65795298  1
loop_
_geom_bond_atom_site_label_1
_geom_bond_atom_site_label_2
_geom_bond_distance
_geom_bond_site_symmetry_2
Li0 O8 2.015257 1_555
Li0 O14 2.017363 1_555
Li0 O21 2.121215 1_555
Li0 O7 2.146557 1_555
Li0 O23 2.214718 1_545
Li1 O9 2.015257 1_556
Li1 O15 2.017363 1_555
Li1 O20 2.121215 1_556
Li1 O6 2.146557 1_555
Li1 O22 2.214718 1_555
Li2 O10 2.015257 1_555
Li2 O12 2.017363 1_555
Li2 O23 2.121215 1_555
Li2 O5 2.146557 1_555
Li2 O21 2.214718 1_565
Li3 O11 2.015257 1_554
Li3 O13 2.017363 1_555
Li3 O22 2.121215 1_554
Li3 O4 2.146557 1_555
Li3 O20 2.214718 1_555
Li4 O22 1.898054 1_555
Li4 O18 1.968177 1_555
Li4 O7 2.039152 1_555
Li4 O2 2.060377 1_655
Li4 O11 2.280848 1_555
Li5 O23 1.898054 1_555
Li5 O19 1.968177 1_565
Li5 O6 2.039152 1_555
Li5 O3 2.060377 1_455
Li5 O10 2.280848 1_555
Li6 O20 1.898054 1_555
Li6 O16 1.968177 1_555
Li6 O5 2.039152 1_555
Li6 O0 2.060377 1_455
Li6 O9 2.280848 1_555
Li7 O21 1.898054 1_555
Li7 O17 1.968177 1_545
Li7 O4 2.039152 1_555
Li7 O1 2.060377 1_655
Li7 O8 2.280848 1_555
Nb0 O3 1.884588 1_555
Nb0 O5 1.951787 1_655
Nb0 O12 1.962612 1_555
Nb0 O18 1.998162 1_555
Nb0 O10 2.128908 1_655
Nb0 O16 2.186809 1_655
Nb1 O2 1.884588 1_555
Nb1 O4 1.951787 1_456
Nb1 O13 1.962612 1_556
Nb1 O19 1.998162 1_555
Nb1 O11 2.128908 1_455
Nb1 O17 2.186809 1_446
Nb2 O1 1.884588 1_555
Nb2 O7 1.951787 1_455
Nb2 O14 1.962612 1_555
Nb2 O16 1.998162 1_555
Nb2 O8 2.128908 1_455
Nb2 O18 2.186809 1_455
Nb3 O0 1.884588 1_555
Nb3 O6 1.951787 1_654
Nb3 O15 1.962612 1_554
Nb3 O17 1.998162 1_555
Nb3 O9 2.128908 1_655
Nb3 O19 2.186809 1_664
Nb4 O20 1.827442 1_555
Nb4 O8 1.927647 1_555
Nb4 O12 2.034354 1_555
Nb4 O4 2.037739 1_555
Nb4 O0 2.065031 1_555
Nb4 O16 2.303193 1_655
Nb5 O21 1.827442 1_565
Nb5 O9 1.927647 1_555
Nb5 O13 2.034354 1_565
Nb5 O5 2.037739 1_555
Nb5 O1 2.065031 1_565
Nb5 O17 2.303193 1_455
Nb6 O22 1.827442 1_555
Nb6 O10 1.927647 1_555
Nb6 O14 2.034354 1_555
Nb6 O6 2.037739 1_555
Nb6 O2 2.065031 1_555
Nb6 O18 2.303193 1_455
Nb7 O23 1.827442 1_545
Nb7 O11 1.927647 1_555
Nb7 O15 2.034354 1_545
Nb7 O7 2.037739 1_555
Nb7 O3 2.065031 1_545
Nb7 O19 2.303193 1_655
