# generated using pymatgen
data_Li9Mn2Co5O16
_symmetry_space_group_name_H-M   'P 1'
_cell_length_a   9.82389173
_cell_length_b   9.82389173
_cell_length_c   10.27352256
_cell_angle_alpha   84.16005699
_cell_angle_beta   84.16005699
_cell_angle_gamma   16.98632305
_symmetry_Int_Tables_number   1
_chemical_formula_structural   Li9Mn2Co5O16
_chemical_formula_sum   'Li9 Mn2 Co5 O16'
_cell_volume   288.11913935
_cell_formula_units_Z   1
loop_
 _symmetry_equiv_pos_site_id
 _symmetry_equiv_pos_as_xyz
  1  'x, y, z'
loop_
 _atom_site_type_symbol
 _atom_site_label
 _atom_site_symmetry_multiplicity
 _atom_site_fract_x
 _atom_site_fract_y
 _atom_site_fract_z
 _atom_site_occupancy
  Li  Li0  1  0.38152300  0.38152300  0.93198500  1
  Li  Li1  1  0.11588100  0.11588100  0.80244600  1
  Li  Li2  1  0.88300500  0.88300500  0.68683300  1
  Li  Li3  1  0.62221200  0.62221200  0.55757600  1
  Li  Li4  1  0.38047500  0.38047500  0.43772400  1
  Li  Li5  1  0.12258700  0.12258700  0.31903900  1
  Li  Li6  1  0.87550600  0.87550600  0.19346300  1
  Li  Li7  1  0.62049800  0.62049800  0.06462300  1
  Li  Li8  1  0.49807200  0.49807200  0.75071400  1
  Mn  Mn0  1  0.99820600  0.99820600  0.99325800  1
  Mn  Mn1  1  0.74958100  0.74958100  0.87518800  1
  Co  Co0  1  0.25002200  0.25002200  0.62205700  1
  Co  Co1  1  0.00458100  0.00458100  0.51956300  1
  Co  Co2  1  0.75074800  0.75074800  0.37494200  1
  Co  Co3  1  0.49951400  0.49951400  0.25624300  1
  Co  Co4  1  0.24908900  0.24908900  0.12829200  1
  O  O0  1  0.44360900  0.44360900  0.08631900  1
  O  O1  1  0.19283200  0.19283200  0.95263500  1
  O  O2  1  0.94196100  0.94196100  0.85934500  1
  O  O3  1  0.69867800  0.69867800  0.72007700  1
  O  O4  1  0.44134600  0.44134600  0.58568100  1
  O  O5  1  0.19238300  0.19238300  0.46138700  1
  O  O6  1  0.94197000  0.94197000  0.33683000  1
  O  O7  1  0.69376000  0.69376000  0.21246500  1
  O  O8  1  0.30659300  0.30659300  0.79753900  1
  O  O9  1  0.06246200  0.06246200  0.64577700  1
  O  O10  1  0.80549900  0.80549900  0.53738700  1
  O  O11  1  0.55686900  0.55686900  0.40499800  1
  O  O12  1  0.30935100  0.30935100  0.28466600  1
  O  O13  1  0.05520300  0.05520300  0.15075400  1
  O  O14  1  0.79981900  0.79981900  0.03223300  1
  O  O15  1  0.55616300  0.55616300  0.91796200  1
loop_
_geom_bond_atom_site_label_1
_geom_bond_atom_site_label_2
_geom_bond_distance
_geom_bond_site_symmetry_2
Li0 O2 1.964952 1_455
Li0 O2 1.964952 1_545
Li0 O0 2.088818 1_556
Li0 O8 2.107543 1_555
Li0 O14 2.313040 1_546
Li0 O14 2.313040 1_456
Li1 O9 2.002988 1_555
Li1 O15 2.139349 1_545
Li1 O15 2.139349 1_455
Li1 O1 2.256440 1_555
Li1 O3 2.264895 1_455
Li1 O3 2.264895 1_545
Li2 O4 2.056187 1_655
Li2 O4 2.056187 1_565
Li2 O2 2.207116 1_555
Li2 O10 2.258639 1_555
Li2 O8 2.292597 1_655
Li2 O8 2.292597 1_565
Li3 O9 2.014407 1_655
Li3 O9 2.014407 1_565
Li3 O11 2.116350 1_555
Li3 O5 2.159576 1_655
Li3 O5 2.159576 1_565
Li3 O3 2.346366 1_555
Li4 O4 2.019811 1_555
Li4 O6 2.086306 1_545
Li4 O6 2.086306 1_455
Li4 O12 2.197717 1_555
Li4 O10 2.229183 1_545
Li4 O10 2.229183 1_455
Li5 O11 2.069737 1_455
Li5 O11 2.069737 1_545
Li5 O5 2.094353 1_555
Li5 O7 2.214763 1_545
Li5 O7 2.214763 1_455
Li5 O13 2.273637 1_555
Li6 O6 2.056428 1_555
Li6 O12 2.094716 1_565
Li6 O12 2.094716 1_655
Li6 O0 2.183671 1_565
Li6 O0 2.183671 1_655
Li6 O14 2.325532 1_555
Li7 O15 2.054445 1_554
Li7 O13 2.065681 1_565
Li7 O13 2.065681 1_655
Li7 O7 2.186006 1_555
Li7 O1 2.252069 1_564
Li7 O1 2.252069 1_654
Li8 O2 2.071026 1_545
Li8 O2 2.071026 1_455
Li8 O4 2.115247 1_555
Li8 O9 2.134345 1_565
Li8 O9 2.134345 1_655
Li8 O15 2.150738 1_555
Mn0 O2 1.843009 1_555
Mn0 O15 1.947477 1_565
Mn0 O15 1.947477 1_655
Mn0 O0 1.983956 1_566
Mn0 O0 1.983956 1_656
Mn0 O13 2.052688 1_666
Mn1 O1 1.942612 1_565
Mn1 O1 1.942612 1_655
Mn1 O8 1.946031 1_655
Mn1 O8 1.946031 1_565
Mn1 O3 1.960135 1_555
Mn1 O14 1.969823 1_556
Co0 O10 1.957298 1_545
Co0 O10 1.957298 1_455
Co0 O3 1.976850 1_545
Co0 O3 1.976850 1_455
Co0 O5 2.087959 1_555
Co0 O8 2.205993 1_555
Co1 O9 1.801806 1_555
Co1 O4 1.976041 1_545
Co1 O4 1.976041 1_455
Co1 O11 2.068034 1_455
Co1 O11 2.068034 1_545
Co1 O6 2.339779 1_445
Co2 O5 1.993219 1_655
Co2 O5 1.993219 1_565
Co2 O12 2.011175 1_655
Co2 O12 2.011175 1_565
Co2 O10 2.069413 1_555
Co2 O7 2.095939 1_555
Co3 O6 1.962263 1_545
Co3 O6 1.962263 1_455
Co3 O11 1.981962 1_555
Co3 O13 2.051682 1_655
Co3 O13 2.051682 1_565
Co3 O0 2.148937 1_555
Co4 O7 1.953870 1_545
Co4 O7 1.953870 1_455
Co4 O14 1.962309 1_545
Co4 O14 1.962309 1_455
Co4 O12 2.083093 1_555
Co4 O1 2.204008 1_554
