# generated using pymatgen
data_Li4FeNi3O8
_symmetry_space_group_name_H-M   'P 1'
_cell_length_a   5.78690300
_cell_length_b   5.83360989
_cell_length_c   5.83615360
_cell_angle_alpha   119.27018481
_cell_angle_beta   90.94781379
_cell_angle_gamma   118.96915458
_symmetry_Int_Tables_number   1
_chemical_formula_structural   Li4FeNi3O8
_chemical_formula_sum   'Li4 Fe1 Ni3 O8'
_cell_volume   141.83480789
_cell_formula_units_Z   1
loop_
 _symmetry_equiv_pos_site_id
 _symmetry_equiv_pos_as_xyz
  1  'x, y, z'
loop_
 _atom_site_type_symbol
 _atom_site_label
 _atom_site_symmetry_multiplicity
 _atom_site_fract_x
 _atom_site_fract_y
 _atom_site_fract_z
 _atom_site_occupancy
  Li  Li0  1  0.00000000  0.50000000  0.50000000  1
  Li  Li1  1  0.50000000  0.50000000  0.50000000  1
  Li  Li2  1  0.00000000  0.00000000  0.50000000  1
  Li  Li3  1  0.50000000  0.00000000  0.50000000  1
  Fe  Fe0  1  0.50000000  0.00000000  0.00000000  1
  Ni  Ni0  1  0.50000000  0.50000000  0.00000000  1
  Ni  Ni1  1  0.00000000  0.50000000  0.00000000  1
  Ni  Ni2  1  0.00000000  0.00000000  0.00000000  1
  O  O0  1  0.51215500  0.74835900  0.76764500  1
  O  O1  1  0.96964200  0.71938300  0.77702100  1
  O  O2  1  0.00738700  0.74424200  0.21829100  1
  O  O3  1  0.46331900  0.22342000  0.76777800  1
  O  O4  1  0.53668000  0.77658000  0.23222200  1
  O  O5  1  0.99261300  0.25575800  0.78170900  1
  O  O6  1  0.03035800  0.28061700  0.22297900  1
  O  O7  1  0.48784500  0.25164100  0.23235500  1
loop_
_geom_bond_atom_site_label_1
_geom_bond_atom_site_label_2
_geom_bond_distance
_geom_bond_site_symmetry_2
Li0 O1 1.576860 1_455
Li0 O6 1.576860 1_555
Li1 O0 1.492854 1_555
Li1 O7 1.492854 1_555
Li2 O5 1.611324 1_455
Li2 O2 1.611324 1_545
Li3 O4 1.572670 1_545
Li3 O3 1.572674 1_555
Fe0 O7 1.468125 1_555
Fe0 O0 1.468125 1_544
Ni0 O3 1.416174 1_554
Ni0 O4 1.416177 1_555
Ni1 O5 1.348759 1_454
Ni1 O2 1.348759 1_555
Ni2 O6 1.426489 1_555
Ni2 O1 1.426489 1_444
