# generated using pymatgen
data_CoBi2O7
_symmetry_space_group_name_H-M   'P 1'
_cell_length_a   17.21882400
_cell_length_b   7.78139800
_cell_length_c   10.29588780
_cell_angle_alpha   68.58357687
_cell_angle_beta   90.00000000
_cell_angle_gamma   90.00000000
_symmetry_Int_Tables_number   1
_chemical_formula_structural   CoBi2O7
_chemical_formula_sum   'Co8 Bi16 O56'
_cell_volume   1284.25666588
_cell_formula_units_Z   8
loop_
 _symmetry_equiv_pos_site_id
 _symmetry_equiv_pos_as_xyz
  1  'x, y, z'
loop_
 _atom_site_type_symbol
 _atom_site_label
 _atom_site_symmetry_multiplicity
 _atom_site_fract_x
 _atom_site_fract_y
 _atom_site_fract_z
 _atom_site_occupancy
  Co  Co0  1  0.68425100  0.36481000  0.07629300  1
  Co  Co1  1  0.18425100  0.63519000  0.42370700  1
  Co  Co2  1  0.31574900  0.63519000  0.92370700  1
  Co  Co3  1  0.81574900  0.36481000  0.57629300  1
  Co  Co4  1  0.75531900  0.02009700  0.24500400  1
  Co  Co5  1  0.25531900  0.97990300  0.25499600  1
  Co  Co6  1  0.24468100  0.97990300  0.75499600  1
  Co  Co7  1  0.74468100  0.02009700  0.74500400  1
  Bi  Bi0  1  0.84779800  0.20230200  0.91991600  1
  Bi  Bi1  1  0.00109100  0.49668100  0.73386700  1
  Bi  Bi2  1  0.49890900  0.49668100  0.23386700  1
  Bi  Bi3  1  0.99890900  0.50331900  0.26613300  1
  Bi  Bi4  1  0.70376300  0.54211900  0.74806800  1
  Bi  Bi5  1  0.20376300  0.45788100  0.75193200  1
  Bi  Bi6  1  0.29623700  0.45788100  0.25193200  1
  Bi  Bi7  1  0.79623700  0.54211900  0.24806800  1
  Bi  Bi8  1  0.50109100  0.50331900  0.76613300  1
  Bi  Bi9  1  0.14016900  0.15483600  0.42890600  1
  Bi  Bi10  1  0.64016900  0.84516400  0.07109400  1
  Bi  Bi11  1  0.85983100  0.84516400  0.57109400  1
  Bi  Bi12  1  0.34779800  0.79769800  0.58008400  1
  Bi  Bi13  1  0.65220200  0.20230200  0.41991600  1
  Bi  Bi14  1  0.15220200  0.79769800  0.08008400  1
  Bi  Bi15  1  0.35983100  0.15483600  0.92890600  1
  O  O0  1  0.95884300  0.29872000  0.93548000  1
  O  O1  1  0.45884300  0.70128000  0.56452000  1
  O  O2  1  0.04115700  0.70128000  0.06452000  1
  O  O3  1  0.54115700  0.29872000  0.43548000  1
  O  O4  1  0.81060800  0.95865100  0.88773000  1
  O  O5  1  0.31060800  0.04134900  0.61227000  1
  O  O6  1  0.18939200  0.04134900  0.11227000  1
  O  O7  1  0.68939200  0.95865100  0.38773000  1
  O  O8  1  0.84033000  0.03024500  0.13312000  1
  O  O9  1  0.34033000  0.96975500  0.36688000  1
  O  O10  1  0.15967000  0.96975500  0.86688000  1
  O  O11  1  0.65967000  0.03024500  0.63312000  1
  O  O12  1  0.29184000  0.40372900  0.91914800  1
  O  O13  1  0.79184000  0.59627100  0.58085200  1
  O  O14  1  0.70816000  0.59627100  0.08085200  1
  O  O15  1  0.20816000  0.40372900  0.41914800  1
  O  O16  1  0.34762000  0.03607200  0.14823800  1
  O  O17  1  0.84762000  0.96392800  0.35176200  1
  O  O18  1  0.65238000  0.96392800  0.85176200  1
  O  O19  1  0.15238000  0.03607200  0.64823800  1
  O  O20  1  0.31478800  0.88689000  0.90285700  1
  O  O21  1  0.39481500  0.66654200  0.80254800  1
  O  O22  1  0.81478800  0.11311000  0.59714300  1
  O  O23  1  0.18521200  0.88689000  0.40285700  1
  O  O24  1  0.43538000  0.27146700  0.74622200  1
  O  O25  1  0.93538000  0.72853300  0.75377800  1
  O  O26  1  0.56462000  0.72853300  0.25377800  1
  O  O27  1  0.06462000  0.27146700  0.24622200  1
  O  O28  1  0.47227800  0.26165600  0.96457500  1
  O  O29  1  0.97227800  0.73834400  0.53542500  1
  O  O30  1  0.52772200  0.73834400  0.03542500  1
  O  O31  1  0.02772200  0.26165600  0.46457500  1
  O  O32  1  0.89564900  0.55736400  0.12998500  1
  O  O33  1  0.39564900  0.44263600  0.37001500  1
  O  O34  1  0.10435100  0.44263600  0.87001500  1
  O  O35  1  0.60435100  0.55736400  0.62998500  1
  O  O36  1  0.75035000  0.27069200  0.23563100  1
  O  O37  1  0.25035000  0.72930800  0.26436900  1
  O  O38  1  0.24965000  0.72930800  0.76436900  1
  O  O39  1  0.74965000  0.27069200  0.73563100  1
  O  O40  1  0.72907800  0.41103500  0.44367300  1
  O  O41  1  0.22907800  0.58896500  0.05632700  1
  O  O42  1  0.27092200  0.58896500  0.55632700  1
  O  O43  1  0.77092200  0.41103500  0.94367300  1
  O  O44  1  0.73261700  0.78604200  0.23951500  1
  O  O45  1  0.23261700  0.21395800  0.26048500  1
  O  O46  1  0.26738300  0.21395800  0.76048500  1
  O  O47  1  0.76738300  0.78604200  0.73951500  1
  O  O48  1  0.87838700  0.46715800  0.41447500  1
  O  O49  1  0.37838700  0.53284200  0.08552500  1
  O  O50  1  0.12161300  0.53284200  0.58552500  1
  O  O51  1  0.62161300  0.46715800  0.91447500  1
  O  O52  1  0.10518500  0.66654200  0.30254800  1
  O  O53  1  0.60518500  0.33345800  0.19745200  1
  O  O54  1  0.89481500  0.33345800  0.69745200  1
  O  O55  1  0.68521200  0.11311000  0.09714300  1
loop_
_geom_bond_atom_site_label_1
_geom_bond_atom_site_label_2
_geom_bond_distance
_geom_bond_site_symmetry_2
Co0 O53 1.801902 1_555
Co0 O14 1.864766 1_555
Co0 O55 1.890856 1_555
Co0 O51 1.898501 1_554
Co0 O36 1.909359 1_555
Co0 O43 1.965276 1_554
Co1 O52 1.801902 1_555
Co1 O15 1.864766 1_555
Co1 O23 1.890856 1_555
Co1 O50 1.898501 1_555
Co1 O37 1.909359 1_555
Co1 O42 1.965276 1_555
Co2 O21 1.801902 1_555
Co2 O12 1.864766 1_555
Co2 O20 1.890856 1_555
Co2 O49 1.898501 1_556
Co2 O38 1.909359 1_555
Co2 O41 1.965276 1_556
Co3 O54 1.801902 1_555
Co3 O13 1.864766 1_555
Co3 O22 1.890856 1_555
Co3 O48 1.898501 1_555
Co3 O39 1.909359 1_555
Co3 O40 1.965276 1_555
Co4 O7 1.778638 1_545
Co4 O8 1.846473 1_555
Co4 O55 1.869225 1_555
Co4 O44 1.883669 1_545
Co4 O17 1.890577 1_545
Co4 O36 1.918757 1_555
Co5 O6 1.778638 1_565
Co5 O9 1.846473 1_555
Co5 O23 1.869225 1_555
Co5 O45 1.883669 1_565
Co5 O16 1.890577 1_565
Co5 O37 1.918757 1_555
Co6 O5 1.778638 1_565
Co6 O10 1.846473 1_555
Co6 O20 1.869225 1_555
Co6 O46 1.883669 1_565
Co6 O19 1.890577 1_565
Co6 O38 1.918757 1_555
Co7 O4 1.778638 1_545
Co7 O11 1.846473 1_555
Co7 O22 1.869225 1_555
Co7 O47 1.883669 1_545
Co7 O18 1.890577 1_545
Co7 O39 1.918757 1_555
Bi0 O0 2.081434 1_555
Bi0 O8 2.116919 1_556
Bi0 O4 2.138533 1_545
Bi0 O43 2.177228 1_555
Bi0 O54 2.288253 1_555
Bi0 O39 2.449884 1_555
Bi1 O25 2.201643 1_455
Bi1 O34 2.207404 1_555
Bi1 O0 2.208124 1_455
Bi1 O29 2.269565 1_455
Bi1 O54 2.334566 1_455
Bi1 O50 2.530743 1_555
Bi2 O26 2.201643 1_555
Bi2 O33 2.207404 1_555
Bi2 O3 2.208124 1_555
Bi2 O30 2.269565 1_555
Bi2 O53 2.334566 1_555
Bi2 O49 2.530743 1_555
Bi3 O27 2.201643 1_655
Bi3 O32 2.207404 1_555
Bi3 O2 2.208124 1_655
Bi3 O31 2.269565 1_655
Bi3 O52 2.334566 1_655
Bi3 O48 2.530743 1_555
Bi4 O35 2.077729 1_555
Bi4 O51 2.132304 1_555
Bi4 O47 2.165264 1_555
Bi4 O13 2.216263 1_555
Bi4 O43 2.221128 1_555
Bi4 O39 2.301974 1_555
Bi5 O34 2.077729 1_555
Bi5 O50 2.132304 1_555
Bi5 O46 2.165264 1_555
Bi5 O12 2.216263 1_555
Bi5 O42 2.221128 1_555
Bi5 O38 2.301974 1_555
Bi6 O33 2.077729 1_555
Bi6 O49 2.132304 1_555
Bi6 O45 2.165264 1_555
Bi6 O15 2.216263 1_555
Bi6 O41 2.221128 1_555
Bi6 O37 2.301974 1_555
Bi7 O32 2.077729 1_555
Bi7 O48 2.132304 1_555
Bi7 O44 2.165264 1_555
Bi7 O14 2.216263 1_555
Bi7 O40 2.221128 1_555
Bi7 O36 2.301974 1_555
Bi8 O24 2.201643 1_555
Bi8 O35 2.207404 1_555
Bi8 O1 2.208124 1_555
Bi8 O28 2.269565 1_555
Bi8 O21 2.334566 1_555
Bi8 O51 2.530743 1_555
Bi9 O19 2.115124 1_555
Bi9 O31 2.190341 1_555
Bi9 O27 2.192500 1_555
Bi9 O15 2.233727 1_555
Bi9 O45 2.273751 1_555
Bi9 O23 2.330030 1_545
Bi10 O18 2.115124 1_554
Bi10 O30 2.190341 1_555
Bi10 O26 2.192500 1_555
Bi10 O14 2.233727 1_555
Bi10 O44 2.273751 1_555
Bi10 O55 2.330030 1_565
Bi11 O17 2.115124 1_555
Bi11 O29 2.190341 1_555
Bi11 O25 2.192500 1_555
Bi11 O13 2.233727 1_555
Bi11 O47 2.273751 1_555
Bi11 O22 2.330030 1_565
Bi12 O1 2.081434 1_555
Bi12 O9 2.116919 1_555
Bi12 O5 2.138533 1_565
Bi12 O42 2.177228 1_555
Bi12 O21 2.288253 1_555
Bi12 O38 2.449884 1_555
Bi13 O3 2.081434 1_555
Bi13 O11 2.116919 1_555
Bi13 O7 2.138533 1_545
Bi13 O40 2.177228 1_555
Bi13 O53 2.288253 1_555
Bi13 O36 2.449884 1_555
Bi14 O2 2.081434 1_555
Bi14 O10 2.116919 1_554
Bi14 O6 2.138533 1_565
Bi14 O41 2.177228 1_555
Bi14 O52 2.288253 1_555
Bi14 O37 2.449884 1_555
Bi15 O16 2.115124 1_556
Bi15 O28 2.190341 1_555
Bi15 O24 2.192500 1_555
Bi15 O12 2.233727 1_555
Bi15 O46 2.273751 1_555
Bi15 O20 2.330030 1_545
