# generated using pymatgen
data_Sr20P12Br(O16F)3
_symmetry_space_group_name_H-M   'P 1'
_cell_length_a   7.34727100
_cell_length_b   9.92827207
_cell_length_c   17.19897151
_cell_angle_alpha   89.98607496
_cell_angle_beta   89.99995669
_cell_angle_gamma   89.99317871
_symmetry_Int_Tables_number   1
_chemical_formula_structural   Sr20P12Br(O16F)3
_chemical_formula_sum   'Sr20 P12 Br1 O48 F3'
_cell_volume   1254.59106394
_cell_formula_units_Z   1
loop_
 _symmetry_equiv_pos_site_id
 _symmetry_equiv_pos_as_xyz
  1  'x, y, z'
loop_
 _atom_site_type_symbol
 _atom_site_label
 _atom_site_symmetry_multiplicity
 _atom_site_fract_x
 _atom_site_fract_y
 _atom_site_fract_z
 _atom_site_occupancy
  Sr  Sr0  1  0.50056800  0.50197600  0.16781900  1
  Sr  Sr1  1  0.50117900  0.99795200  0.66559100  1
  Sr  Sr2  1  0.00235200  0.99430500  0.33232500  1
  Sr  Sr3  1  0.00445100  0.50458900  0.83487200  1
  Sr  Sr4  1  0.50213600  0.99906400  0.33650300  1
  Sr  Sr5  1  0.50522500  0.50105200  0.83015500  1
  Sr  Sr6  1  0.99595700  0.50061200  0.16656700  1
  Sr  Sr7  1  0.99685900  0.99916900  0.66668400  1
  Sr  Sr8  1  0.25135700  0.61675300  0.37600800  1
  Sr  Sr9  1  0.25520400  0.12583400  0.86255000  1
  Sr  Sr10  1  0.25811000  0.73450900  0.00541600  1
  Sr  Sr11  1  0.24948200  0.25308100  0.50409200  1
  Sr  Sr12  1  0.25589800  0.14115200  0.13195200  1
  Sr  Sr13  1  0.25106100  0.62944200  0.62013100  1
  Sr  Sr14  1  0.74821600  0.88179500  0.12360800  1
  Sr  Sr15  1  0.75035800  0.38350500  0.62400400  1
  Sr  Sr16  1  0.75065100  0.74723900  0.49670700  1
  Sr  Sr17  1  0.74771000  0.24195800  0.99700300  1
  Sr  Sr18  1  0.75036000  0.37155100  0.37994600  1
  Sr  Sr19  1  0.74794300  0.87423900  0.87883200  1
  P  P0  1  0.25007500  0.28743100  0.31771200  1
  P  P1  1  0.24836200  0.78295500  0.81410200  1
  P  P2  1  0.24826800  0.82996200  0.20180600  1
  P  P3  1  0.25026800  0.33261900  0.69716200  1
  P  P4  1  0.24979400  0.88416100  0.48590800  1
  P  P5  1  0.24854400  0.38313400  0.98327300  1
  P  P6  1  0.75038400  0.21765700  0.18759100  1
  P  P7  1  0.75053700  0.71349100  0.68467900  1
  P  P8  1  0.74969500  0.67059700  0.30117500  1
  P  P9  1  0.75091500  0.17195900  0.79708800  1
  P  P10  1  0.75016000  0.60982000  0.01543000  1
  P  P11  1  0.75062200  0.11607500  0.51397000  1
  Br  Br0  1  0.07965700  0.00057400  0.99997100  1
  O  O0  1  0.42080400  0.29334300  0.37096600  1
  O  O1  1  0.41222100  0.79232500  0.87155300  1
  O  O2  1  0.41158100  0.91199800  0.16821700  1
  O  O3  1  0.42138800  0.40892100  0.66768000  1
  O  O4  1  0.42159100  0.80326500  0.46095100  1
  O  O5  1  0.41017800  0.28904500  0.96096200  1
  O  O6  1  0.92346300  0.21874400  0.13538300  1
  O  O7  1  0.92258900  0.71380500  0.63182600  1
  O  O8  1  0.92258500  0.59231500  0.32755800  1
  O  O9  1  0.92332800  0.09220100  0.82257600  1
  O  O10  1  0.92449500  0.68547700  0.04252500  1
  O  O11  1  0.92147500  0.19737200  0.54000200  1
  O  O12  1  0.58013600  0.21777100  0.13334000  1
  O  O13  1  0.58045200  0.71200900  0.63064800  1
  O  O14  1  0.57957000  0.59043400  0.32882700  1
  O  O15  1  0.58083600  0.09023700  0.82421400  1
  O  O16  1  0.58180200  0.69209400  0.04378500  1
  O  O17  1  0.57876200  0.19679200  0.53922900  1
  O  O18  1  0.07885700  0.29319100  0.37054300  1
  O  O19  1  0.07018800  0.76874300  0.86192400  1
  O  O20  1  0.06954800  0.90834100  0.18498900  1
  O  O21  1  0.07929900  0.40949200  0.66809900  1
  O  O22  1  0.07910400  0.80268500  0.45983600  1
  O  O23  1  0.06870800  0.31943400  0.95402100  1
  O  O24  1  0.25146100  0.14859300  0.27434300  1
  O  O25  1  0.26801200  0.65072300  0.76507300  1
  O  O26  1  0.26822700  0.82321100  0.29244300  1
  O  O27  1  0.25144100  0.33644100  0.78827900  1
  O  O28  1  0.24976300  0.02158200  0.44162600  1
  O  O29  1  0.27115600  0.51971000  0.93806900  1
  O  O30  1  0.74798000  0.35203100  0.23466000  1
  O  O31  1  0.74718000  0.84820100  0.73220400  1
  O  O32  1  0.74701900  0.67481200  0.21000200  1
  O  O33  1  0.74814300  0.17547700  0.70645900  1
  O  O34  1  0.74492500  0.47108400  0.05807700  1
  O  O35  1  0.75018400  0.97832100  0.55837000  1
  O  O36  1  0.24998300  0.40534600  0.25771100  1
  O  O37  1  0.24582600  0.90910500  0.75993300  1
  O  O38  1  0.24596100  0.68582900  0.16578800  1
  O  O39  1  0.24990800  0.18354600  0.66819100  1
  O  O40  1  0.24732600  0.40936600  0.07261900  1
  O  O41  1  0.24861500  0.90660100  0.57573800  1
  O  O42  1  0.74791000  0.09233200  0.24180400  1
  O  O43  1  0.75198500  0.58934200  0.73987900  1
  O  O44  1  0.74955300  0.81561500  0.33574700  1
  O  O45  1  0.74931300  0.31574300  0.83262200  1
  O  O46  1  0.75223900  0.09357800  0.42441600  1
  O  O47  1  0.74726600  0.59332100  0.92558800  1
  F  F0  1  0.25025400  0.49961500  0.50004700  1
  F  F1  1  0.65277700  0.99863600  0.00010400  1
  F  F2  1  0.75027500  0.50159000  0.49992400  1
loop_
_geom_bond_atom_site_label_1
_geom_bond_atom_site_label_2
_geom_bond_distance
_geom_bond_site_symmetry_2
Br0 Sr10 2.950388 1_546
Br0 Sr12 2.962989 1_556
Br0 Sr9 2.965674 1_555
O0 P0 1.554313 1_555
O0 Sr18 2.547575 1_555
O0 Sr11 2.643163 1_555
O0 Sr4 3.040570 1_545
O1 P1 1.560282 1_555
O1 Sr19 2.600368 1_555
O1 Sr10 2.629012 1_556
O2 P2 1.561050 1_555
O2 Sr14 2.606903 1_555
O2 Sr12 2.621487 1_565
O2 Sr4 3.093295 1_555
O3 P3 1.552978 1_555
O3 Sr15 2.543607 1_555
O3 Sr13 2.650812 1_555
O4 P4 1.556431 1_555
O4 Sr16 2.555845 1_555
O4 Sr8 2.670118 1_555
O4 Sr4 2.951034 1_555
O5 P5 1.558876 1_555
O5 Sr17 2.598551 1_555
O5 Sr9 2.605536 1_555
O6 P6 1.556758 1_555
O6 Sr12 2.561691 1_655
O6 Sr17 2.717466 1_554
O6 Sr6 2.898935 1_555
O7 P7 1.557017 1_555
O7 Sr13 2.562414 1_655
O7 Sr16 2.665732 1_555
O7 Sr7 2.947075 1_555
O8 P8 1.556639 1_555
O8 Sr8 2.566806 1_655
O8 Sr18 2.686399 1_555
O8 Sr6 2.964344 1_555
O9 P9 1.556757 1_555
O9 Sr9 2.555424 1_655
O9 Sr19 2.697984 1_545
O9 Sr7 2.887008 1_545
O10 P10 1.556422 1_555
O10 Sr10 2.579271 1_655
O10 Sr14 2.724320 1_555
O10 Sr6 2.862443 1_555
O11 P11 1.558247 1_555
O11 Sr11 2.548607 1_655
O11 Sr15 2.661527 1_555
O11 Sr7 2.987287 1_545
O12 P6 1.560529 1_555
O12 Sr12 2.500970 1_555
O12 Sr17 2.659265 1_554
O12 Sr0 2.942045 1_555
O13 P7 1.557382 1_555
O13 Sr13 2.561690 1_555
O13 Sr16 2.644350 1_555
O13 Sr1 2.959784 1_555
O14 P8 1.556292 1_555
O14 Sr8 2.557712 1_555
O14 Sr18 2.658670 1_555
O14 Sr0 2.962742 1_555
O15 P9 1.561268 1_555
O15 Sr9 2.506717 1_555
O15 Sr19 2.643310 1_545
O15 Sr1 2.937034 1_545
O16 P10 1.560482 1_555
O16 Sr10 2.503702 1_555
O16 Sr14 2.632255 1_555
O16 Sr0 2.910007 1_555
O17 P11 1.557332 1_555
O17 Sr11 2.555405 1_555
O17 Sr15 2.674626 1_555
O17 Sr1 2.990576 1_545
O18 P0 1.552877 1_555
O18 Sr18 2.540920 1_455
O18 Sr11 2.646768 1_555
O18 Sr2 3.091109 1_545
O19 P1 1.552452 1_555
O19 Sr19 2.605146 1_455
O19 Sr3 2.707146 1_555
O19 Sr10 2.848154 1_556
O20 P2 1.553413 1_555
O20 Sr14 2.599643 1_455
O20 Sr2 2.719266 1_555
O20 Sr12 2.837082 1_565
O21 P3 1.552374 1_555
O21 Sr15 2.546170 1_455
O21 Sr13 2.653611 1_555
O21 Sr3 3.069578 1_555
O22 P4 1.558402 1_555
O22 Sr16 2.555192 1_455
O22 Sr8 2.662473 1_555
O22 Sr2 2.957121 1_555
O23 P5 1.548961 1_555
O23 Sr17 2.588560 1_455
O23 Sr3 2.792754 1_555
O23 Sr9 2.836880 1_555
O24 P0 1.567487 1_555
O24 Sr12 2.450327 1_555
O24 Sr2 2.586646 1_545
O24 Sr4 2.595690 1_545
O25 P1 1.567144 1_555
O25 Sr13 2.504942 1_555
O25 Sr5 2.548964 1_555
O25 Sr3 2.701073 1_555
O26 P2 1.567163 1_555
O26 Sr8 2.506230 1_555
O26 Sr4 2.564641 1_555
O26 Sr2 2.678009 1_555
O27 P3 1.567611 1_555
O27 Sr9 2.450162 1_555
O27 Sr5 2.582204 1_555
O27 Sr3 2.592720 1_555
O28 P4 1.562369 1_545
O28 Sr11 2.537323 1_555
O28 Sr4 2.599465 1_545
O28 Sr2 2.629065 1_545
O29 P5 1.571696 1_555
O29 Sr10 2.428972 1_556
O29 Sr5 2.537080 1_555
O29 Sr3 2.648169 1_555
O30 P6 1.560773 1_555
O30 Sr18 2.506382 1_555
O30 Sr0 2.615477 1_555
O30 Sr6 2.620484 1_555
O31 P7 1.567796 1_555
O31 Sr19 2.535135 1_555
O31 Sr1 2.605458 1_555
O31 Sr7 2.623257 1_555
O32 P8 1.568753 1_555
O32 Sr14 2.535630 1_555
O32 Sr0 2.598272 1_555
O32 Sr6 2.625723 1_555
O33 P9 1.559241 1_555
O33 Sr15 2.505131 1_555
O33 Sr7 2.621287 1_545
O33 Sr1 2.625706 1_545
O34 P10 1.560851 1_555
O34 Sr17 2.505945 1_554
O34 Sr0 2.622973 1_555
O34 Sr6 2.640038 1_555
O35 P11 1.566248 1_565
O35 Sr16 2.527746 1_555
O35 Sr1 2.604964 1_555
O35 Sr7 2.607342 1_555
O36 P0 1.560406 1_555
O36 Sr0 2.588448 1_555
O36 Sr6 2.614232 1_455
O36 Sr8 2.923548 1_555
O37 P1 1.560892 1_555
O37 Sr7 2.591656 1_455
O37 Sr1 2.632585 1_555
O37 Sr9 2.784157 1_565
O38 P2 1.559554 1_555
O38 Sr6 2.599322 1_455
O38 Sr0 2.613742 1_555
O38 Sr10 2.801565 1_555
O39 P3 1.561778 1_555
O39 Sr1 2.608601 1_545
O39 Sr7 2.609425 1_445
O39 Sr11 2.905380 1_555
O40 P5 1.558661 1_554
O40 Sr6 2.615871 1_455
O40 Sr0 2.643749 1_555
O40 Sr12 2.852193 1_555
O41 P4 1.561042 1_555
O41 Sr1 2.579790 1_555
O41 Sr7 2.590953 1_455
O41 Sr13 2.855547 1_555
O42 P6 1.554780 1_555
O42 Sr4 2.602050 1_545
O42 Sr2 2.620062 1_645
O42 Sr14 2.916122 1_545
O43 P7 1.555679 1_555
O43 Sr5 2.542800 1_555
O43 Sr3 2.610945 1_655
O43 Sr15 2.854860 1_555
O44 P8 1.557861 1_555
O44 Sr2 2.569326 1_655
O44 Sr4 2.573166 1_555
O44 Sr16 2.850217 1_555
O45 P9 1.553027 1_555
O45 Sr5 2.569445 1_555
O45 Sr3 2.651731 1_655
O45 Sr17 2.920401 1_555
O46 P11 1.556446 1_555
O46 Sr4 2.558220 1_545
O46 Sr2 2.618653 1_645
O46 Sr18 2.863666 1_555
O47 P10 1.554034 1_556
O47 Sr5 2.587824 1_555
O47 Sr3 2.604085 1_655
O47 Sr19 2.902463 1_555
F0 Sr8 2.429513 1_555
F0 Sr13 2.434809 1_555
F0 Sr11 2.448635 1_555
F1 Sr17 2.515078 1_564
F1 Sr14 2.519516 1_555
F1 Sr19 2.523024 1_554
F2 Sr18 2.434371 1_555
F2 Sr15 2.434630 1_555
F2 Sr16 2.439486 1_555
