# generated using pymatgen
data_Mn3TeP2Pb3O14
_symmetry_space_group_name_H-M   'P 1'
_cell_length_a   8.50379454
_cell_length_b   8.50597619
_cell_length_c   10.65803671
_cell_angle_alpha   89.99933862
_cell_angle_beta   89.99906298
_cell_angle_gamma   119.99219563
_symmetry_Int_Tables_number   1
_chemical_formula_structural   Mn3TeP2Pb3O14
_chemical_formula_sum   'Mn6 Te2 P4 Pb6 O28'
_cell_volume   667.69621263
_cell_formula_units_Z   2
loop_
 _symmetry_equiv_pos_site_id
 _symmetry_equiv_pos_as_xyz
  1  'x, y, z'
loop_
 _atom_site_type_symbol
 _atom_site_label
 _atom_site_symmetry_multiplicity
 _atom_site_fract_x
 _atom_site_fract_y
 _atom_site_fract_z
 _atom_site_occupancy
  Mn  Mn0  1  0.25185556  0.99989223  0.74998141  1
  Mn  Mn1  1  0.00009675  0.25194443  0.25003291  1
  Mn  Mn2  1  -0.00005926  0.25183620  0.74999473  1
  Mn  Mn3  1  0.74804040  0.74807427  0.24999177  1
  Mn  Mn4  1  0.74820513  0.74808171  0.74996688  1
  Mn  Mn5  1  0.25202498  0.00011849  0.25003172  1
  Te  Te0  1  0.00005368  -0.00000117  0.00000662  1
  Te  Te1  1  0.00004447  0.00000183  0.49999492  1
  P  P0  1  0.33330242  0.66678052  0.27942757  1
  P  P1  1  0.33334807  0.66664253  0.77944907  1
  P  P2  1  0.66669474  0.33336398  0.22055332  1
  P  P3  1  0.66651825  0.33320836  0.72056911  1
  Pb  Pb0  1  0.40064411  0.40043695  0.99997920  1
  Pb  Pb1  1  0.40044844  0.40058206  0.50006269  1
  Pb  Pb2  1  0.59945243  0.99995906  0.50000813  1
  Pb  Pb3  1  0.59955994  0.00000573  -0.00000819  1
  Pb  Pb4  1  0.00019765  0.59956095  0.00000402  1
  Pb  Pb5  1  0.99980721  0.59941306  0.49994636  1
  O  O0  1  0.33334203  0.66676992  0.13665237  1
  O  O1  1  0.33335704  0.66658225  0.63667824  1
  O  O2  1  0.66675882  0.33346073  0.36332697  1
  O  O3  1  0.66657234  0.33328504  0.86334550  1
  O  O4  1  0.73851993  0.52628228  0.16554772  1
  O  O5  1  0.73837575  0.52614702  0.66555854  1
  O  O6  1  0.47374076  0.21237283  0.16552568  1
  O  O7  1  0.47358351  0.21224531  0.66553981  1
  O  O8  1  0.78768934  0.26136598  0.16559605  1
  O  O9  1  0.78757671  0.26131832  0.66556342  1
  O  O10  1  0.26133243  0.78774712  0.33447483  1
  O  O11  1  0.26137287  0.78763079  0.83450219  1
  O  O12  1  0.21224440  0.47385508  0.33441713  1
  O  O13  1  0.21227650  0.47371283  0.83442253  1
  O  O14  1  0.52626337  0.73869256  0.33443519  1
  O  O15  1  0.52634921  0.73866141  0.83441791  1
  O  O16  1  0.08874600  0.87530706  0.10341008  1
  O  O17  1  0.08875123  0.87527974  0.60328906  1
  O  O18  1  0.12465417  0.21334774  0.10333565  1
  O  O19  1  0.12460933  0.21333021  0.60331427  1
  O  O20  1  0.78660236  0.91116475  0.10329064  1
  O  O21  1  0.78666027  0.91131033  0.60332793  1
  O  O22  1  0.91126450  0.78663664  0.39664605  1
  O  O23  1  0.91134139  0.78666512  0.89668444  1
  O  O24  1  0.21348822  0.12472922  0.39668975  1
  O  O25  1  0.21345552  0.12469210  0.89661826  1
  O  O26  1  0.87535801  0.08868067  0.39666509  1
  O  O27  1  0.87547904  0.08882976  0.89673550  1
loop_
_geom_bond_atom_site_label_1
_geom_bond_atom_site_label_2
_geom_bond_distance
_geom_bond_site_symmetry_2
Mn0 O17 2.005483 1_555
Mn0 O25 2.005649 1_565
Mn0 O7 2.054929 1_565
Mn0 O11 2.055210 1_555
Mn1 O18 2.005461 1_555
Mn1 O26 2.005809 1_455
Mn1 O12 2.054755 1_555
Mn1 O8 2.055159 1_455
Mn2 O27 2.005345 1_455
Mn2 O19 2.005568 1_555
Mn2 O9 2.055048 1_455
Mn2 O13 2.055490 1_555
Mn3 O20 2.005439 1_555
Mn3 O22 2.005547 1_555
Mn3 O14 2.054907 1_555
Mn3 O4 2.054996 1_555
Mn4 O23 2.005585 1_555
Mn4 O21 2.005806 1_555
Mn4 O5 2.054819 1_555
Mn4 O15 2.055407 1_555
Mn5 O24 2.005340 1_555
Mn5 O16 2.005840 1_545
Mn5 O6 2.054828 1_555
Mn5 O10 2.054834 1_545
O0 P0 1.521703 1_555
O1 P1 1.521657 1_555
O2 P2 1.521687 1_555
O3 P3 1.521716 1_555
O4 P2 1.551587 1_555
O4 Pb4 2.658275 1_655
O5 P3 1.551719 1_555
O5 Pb5 2.657273 1_555
O6 P2 1.551530 1_555
O6 Pb0 2.655659 1_554
O7 P3 1.551386 1_555
O7 Pb1 2.657012 1_555
O8 P2 1.551374 1_555
O8 Pb3 2.657330 1_555
O9 P3 1.551369 1_555
O9 Pb2 2.656971 1_545
O10 P0 1.551476 1_555
O10 Pb5 2.657162 1_455
O11 P1 1.551690 1_555
O11 Pb4 2.655369 1_556
O12 P0 1.551519 1_555
O12 Pb1 2.657828 1_555
O13 P1 1.551496 1_555
O13 Pb0 2.658213 1_555
O14 P0 1.551448 1_555
O14 Pb2 2.656598 1_555
O15 P1 1.551464 1_555
O15 Pb3 2.657047 1_566
O16 Te0 1.925645 1_565
O16 Pb4 2.348898 1_555
O17 Te1 1.925253 1_565
O17 Pb5 2.348842 1_455
O18 Te0 1.925226 1_555
O18 Pb0 2.349476 1_554
O19 Te1 1.925027 1_555
O19 Pb1 2.348352 1_555
O20 Te0 1.925141 1_665
O20 Pb3 2.348361 1_565
O21 Te1 1.925109 1_665
O21 Pb2 2.348565 1_555
O22 Te1 1.925429 1_665
O22 Pb5 2.348189 1_555
O23 Te0 1.925112 1_666
O23 Pb4 2.349194 1_656
O24 Te1 1.925370 1_555
O24 Pb1 2.348970 1_555
O25 Te0 1.925616 1_556
O25 Pb0 2.348649 1_555
O26 Te1 1.925017 1_655
O26 Pb2 2.348877 1_545
O27 Te0 1.924812 1_656
O27 Pb3 2.348385 1_556
