# generated using pymatgen
data_La2TiCoO6
_symmetry_space_group_name_H-M   'P 1'
_cell_length_a   5.69624407
_cell_length_b   9.69693026
_cell_length_c   9.69649407
_cell_angle_alpha   70.25497700
_cell_angle_beta   90.03745550
_cell_angle_gamma   89.96435495
_symmetry_Int_Tables_number   1
_chemical_formula_structural   La2TiCoO6
_chemical_formula_sum   'La8 Ti4 Co4 O24'
_cell_volume   504.10583542
_cell_formula_units_Z   4
loop_
 _symmetry_equiv_pos_site_id
 _symmetry_equiv_pos_as_xyz
  1  'x, y, z'
loop_
 _atom_site_type_symbol
 _atom_site_label
 _atom_site_symmetry_multiplicity
 _atom_site_fract_x
 _atom_site_fract_y
 _atom_site_fract_z
 _atom_site_occupancy
  La  La0  1  0.45357400  0.12078700  0.13001800  1
  La  La1  1  0.45263400  0.61982000  0.63183600  1
  La  La2  1  0.54703800  0.87999300  0.86825200  1
  La  La3  1  0.54603500  0.37903200  0.37015500  1
  La  La4  1  0.95416700  0.87910700  0.37013700  1
  La  La5  1  0.95333300  0.38023500  0.86914200  1
  La  La6  1  0.04718100  0.11999000  0.63064200  1
  La  La7  1  0.04621500  0.62105500  0.12972600  1
  Ti  Ti0  1  0.99974800  0.00038300  0.00021300  1
  Ti  Ti1  1  0.99995600  0.49995500  0.49969000  1
  Ti  Ti2  1  0.50005700  0.99966400  0.49957300  1
  Ti  Ti3  1  0.50012800  0.49985100  0.00069600  1
  Co  Co0  1  0.99999200  0.75000700  0.75002700  1
  Co  Co1  1  0.49993900  0.75000500  0.24994600  1
  Co  Co2  1  0.99997500  0.25002500  0.25003800  1
  Co  Co3  1  0.49996700  0.24999600  0.74997800  1
  O  O0  1  0.71662000  0.92519900  0.12249100  1
  O  O1  1  0.71748500  0.42494000  0.62312900  1
  O  O2  1  0.28242900  0.07510000  0.87688300  1
  O  O3  1  0.28329500  0.57487000  0.37753500  1
  O  O4  1  0.21752900  0.07521400  0.37664700  1
  O  O5  1  0.21739100  0.57528100  0.87700100  1
  O  O6  1  0.78267000  0.92472800  0.62303600  1
  O  O7  1  0.78255000  0.42480400  0.12341800  1
  O  O8  1  0.02478100  0.66359400  0.57800200  1
  O  O9  1  0.02465000  0.16456400  0.07719500  1
  O  O10  1  0.97534000  0.33558800  0.42276700  1
  O  O11  1  0.97521200  0.83651800  0.92198600  1
  O  O12  1  0.52487900  0.83555000  0.42272400  1
  O  O13  1  0.52486100  0.33662800  0.92251600  1
  O  O14  1  0.47512500  0.16318000  0.57752500  1
  O  O15  1  0.47505300  0.66428600  0.07729400  1
  O  O16  1  0.19877800  0.88032000  0.16388300  1
  O  O17  1  0.20064500  0.38043300  0.66346300  1
  O  O18  1  0.79932000  0.11976300  0.83640800  1
  O  O19  1  0.80116000  0.61992800  0.33599400  1
  O  O20  1  0.70004300  0.11927800  0.33654100  1
  O  O21  1  0.70038400  0.61956700  0.83691000  1
  O  O22  1  0.29974500  0.88023700  0.66307000  1
  O  O23  1  0.30011700  0.38052700  0.16351400  1
loop_
_geom_bond_atom_site_label_1
_geom_bond_atom_site_label_2
_geom_bond_distance
_geom_bond_site_symmetry_2
La0 O13 2.398037 1_554
La0 O0 2.436738 1_545
La0 O20 2.440898 1_555
La0 O9 2.502441 1_555
La0 O4 2.648209 1_555
La0 O16 2.671902 1_545
La0 O23 2.786343 1_555
La0 O2 2.811314 1_554
La1 O12 2.406873 1_555
La1 O21 2.436960 1_555
La1 O1 2.441045 1_555
La1 O8 2.497944 1_555
La1 O5 2.635256 1_555
La1 O17 2.658315 1_555
La1 O22 2.782338 1_555
La1 O3 2.815025 1_555
La2 O15 2.406116 1_556
La2 O22 2.436333 1_555
La2 O2 2.441705 1_565
La2 O11 2.499297 1_555
La2 O6 2.636538 1_555
La2 O18 2.661940 1_565
La2 O21 2.783670 1_555
La2 O0 2.816061 1_556
La3 O14 2.397038 1_555
La3 O3 2.437161 1_555
La3 O23 2.440070 1_555
La3 O10 2.503939 1_555
La3 O7 2.650192 1_555
La3 O19 2.675889 1_555
La3 O20 2.787939 1_555
La3 O1 2.811442 1_555
La4 O8 2.396555 1_655
La4 O16 2.434981 1_655
La4 O4 2.440340 1_665
La4 O12 2.505082 1_555
La4 O0 2.658341 1_555
La4 O20 2.666079 1_565
La4 O19 2.783909 1_555
La4 O6 2.810524 1_555
La5 O9 2.399122 1_656
La5 O5 2.438485 1_655
La5 O17 2.441958 1_655
La5 O13 2.501729 1_555
La5 O1 2.641891 1_555
La5 O21 2.658000 1_555
La5 O18 2.791778 1_555
La5 O7 2.816890 1_556
La6 O10 2.398268 1_455
La6 O6 2.441009 1_445
La6 O18 2.444377 1_455
La6 O14 2.498018 1_555
La6 O2 2.641778 1_555
La6 O22 2.659879 1_545
La6 O17 2.790884 1_555
La6 O4 2.814409 1_555
La7 O11 2.395979 1_454
La7 O19 2.436769 1_455
La7 O7 2.441938 1_455
La7 O15 2.502041 1_555
La7 O3 2.658204 1_555
La7 O23 2.667952 1_555
La7 O16 2.783962 1_555
La7 O5 2.808997 1_554
Co0 O8 2.109264 1_655
Co0 O11 2.109300 1_555
Co0 O6 2.122498 1_555
Co0 O5 2.122731 1_655
Co0 O22 2.122793 1_655
Co0 O21 2.122928 1_555
Co1 O15 2.110390 1_555
Co1 O12 2.110426 1_555
Co1 O19 2.124988 1_555
Co1 O16 2.125803 1_555
Co1 O3 2.126639 1_555
Co1 O0 2.126701 1_555
Co2 O10 2.110062 1_555
Co2 O9 2.110448 1_655
Co2 O7 2.122066 1_555
Co2 O4 2.122648 1_655
Co2 O23 2.124975 1_655
Co2 O20 2.125073 1_555
Co3 O13 2.115240 1_555
Co3 O14 2.115644 1_555
Co3 O18 2.117826 1_555
Co3 O17 2.118759 1_555
Co3 O2 2.126147 1_555
Co3 O1 2.126192 1_555
O0 Ti0 1.989534 1_565
O1 Ti1 1.991586 1_555
O2 Ti0 1.991580 1_456
O3 Ti1 1.989515 1_455
O4 Ti2 1.988333 1_545
O5 Ti3 1.992653 1_556
O6 Ti2 1.990231 1_555
O7 Ti3 1.986104 1_555
O8 Ti1 1.982123 1_455
O9 Ti0 1.978649 1_455
O10 Ti1 1.979843 1_555
O11 Ti0 1.983506 1_566
O12 Ti2 1.977102 1_555
O13 Ti3 1.977428 1_556
O14 Ti2 1.978707 1_545
O15 Ti3 1.978529 1_555
O16 Ti0 1.976618 1_465
O17 Ti1 1.980994 1_455
O18 Ti0 1.979893 1_556
O19 Ti1 1.975731 1_555
O20 Ti2 1.976662 1_545
O21 Ti3 1.982269 1_556
O22 Ti2 1.979878 1_555
O23 Ti3 1.974605 1_555
