# generated using pymatgen
data_Ta8V(CS2)4
_symmetry_space_group_name_H-M   'P 1'
_cell_length_a   9.39611043
_cell_length_b   9.39611043
_cell_length_c   9.39611066
_cell_angle_alpha   41.33561769
_cell_angle_beta   41.33561769
_cell_angle_gamma   41.33562008
_symmetry_Int_Tables_number   1
_chemical_formula_structural   Ta8V(CS2)4
_chemical_formula_sum   'Ta8 V1 C4 S8'
_cell_volume   326.90160994
_cell_formula_units_Z   1
loop_
 _symmetry_equiv_pos_site_id
 _symmetry_equiv_pos_as_xyz
  1  'x, y, z'
loop_
 _atom_site_type_symbol
 _atom_site_label
 _atom_site_symmetry_multiplicity
 _atom_site_fract_x
 _atom_site_fract_y
 _atom_site_fract_z
 _atom_site_occupancy
  Ta  Ta0  1  0.87755600  0.87755600  0.87755600  1
  Ta  Ta1  1  0.87963700  0.37774300  0.37774300  1
  Ta  Ta2  1  0.37774300  0.87963700  0.37774300  1
  Ta  Ta3  1  0.37774300  0.37774300  0.87963700  1
  Ta  Ta4  1  0.12244400  0.12244400  0.12244400  1
  Ta  Ta5  1  0.12036300  0.62225700  0.62225700  1
  Ta  Ta6  1  0.62225700  0.12036300  0.62225700  1
  Ta  Ta7  1  0.62225700  0.62225700  0.12036300  1
  V  V0  1  0.00000000  0.00000000  0.00000000  1
  C  C0  1  0.00000000  0.50000000  0.00000000  1
  C  C1  1  0.00000000  0.00000000  0.50000000  1
  C  C2  1  0.50000000  0.50000000  0.50000000  1
  C  C3  1  0.50000000  0.00000000  0.00000000  1
  S  S0  1  0.72543100  0.72543100  0.72543100  1
  S  S1  1  0.72186800  0.22510900  0.22510900  1
  S  S2  1  0.22510900  0.72186800  0.22510900  1
  S  S3  1  0.22510900  0.22510900  0.72186800  1
  S  S4  1  0.27456900  0.27456900  0.27456900  1
  S  S5  1  0.27813200  0.77489100  0.77489100  1
  S  S6  1  0.77489100  0.27813200  0.77489100  1
  S  S7  1  0.77489100  0.77489100  0.27813200  1
loop_
_geom_bond_atom_site_label_1
_geom_bond_atom_site_label_2
_geom_bond_distance
_geom_bond_site_symmetry_2
C0 Ta0 2.227527 1_454
C0 Ta4 2.227527 1_555
C0 Ta3 2.235273 1_554
C0 Ta7 2.235273 1_455
C0 Ta1 2.235273 1_455
C0 Ta5 2.235273 1_554
C1 Ta0 2.227527 1_445
C1 Ta4 2.227527 1_555
C1 Ta1 2.235273 1_455
C1 Ta2 2.235273 1_545
C1 Ta6 2.235273 1_455
C1 Ta5 2.235273 1_545
C2 Ta1 2.244572 1_555
C2 Ta2 2.244572 1_555
C2 Ta5 2.244572 1_555
C2 Ta6 2.244572 1_555
C2 Ta3 2.244572 1_555
C2 Ta7 2.244572 1_555
C3 Ta4 2.227527 1_555
C3 Ta0 2.227527 1_544
C3 Ta3 2.235273 1_554
C3 Ta7 2.235273 1_545
C3 Ta2 2.235273 1_545
C3 Ta6 2.235273 1_554
S0 Ta6 2.501329 1_565
S0 Ta5 2.501329 1_655
S0 Ta7 2.501329 1_556
S1 V0 2.427750 1_655
S1 Ta7 2.528421 1_555
S1 Ta6 2.528421 1_555
S1 Ta4 2.553490 1_655
S2 V0 2.427750 1_565
S2 Ta7 2.528421 1_555
S2 Ta5 2.528421 1_555
S2 Ta4 2.553490 1_565
S3 V0 2.427750 1_556
S3 Ta5 2.528421 1_555
S3 Ta6 2.528421 1_555
S3 Ta4 2.553490 1_556
S4 Ta2 2.501329 1_545
S4 Ta1 2.501329 1_455
S4 Ta3 2.501329 1_554
S5 V0 2.427750 1_566
S5 Ta3 2.528421 1_555
S5 Ta2 2.528421 1_555
S5 Ta0 2.553490 1_455
S6 V0 2.427750 1_656
S6 Ta3 2.528421 1_555
S6 Ta1 2.528421 1_555
S6 Ta0 2.553490 1_545
S7 V0 2.427750 1_665
S7 Ta1 2.528421 1_555
S7 Ta2 2.528421 1_555
S7 Ta0 2.553490 1_554
