# generated using pymatgen
data_BaNaCeWO6
_symmetry_space_group_name_H-M   'P 1'
_cell_length_a   8.49633492
_cell_length_b   8.45674041
_cell_length_c   8.43377149
_cell_angle_alpha   90.00000000
_cell_angle_beta   90.00000000
_cell_angle_gamma   90.00000000
_symmetry_Int_Tables_number   1
_chemical_formula_structural   BaNaCeWO6
_chemical_formula_sum   'Ba4 Na4 Ce4 W4 O24'
_cell_volume   605.97743580
_cell_formula_units_Z   4
loop_
 _symmetry_equiv_pos_site_id
 _symmetry_equiv_pos_as_xyz
  1  'x, y, z'
loop_
 _atom_site_type_symbol
 _atom_site_label
 _atom_site_symmetry_multiplicity
 _atom_site_fract_x
 _atom_site_fract_y
 _atom_site_fract_z
 _atom_site_occupancy
  Ba  Ba0  1  0.00000000  -0.00000000  0.00000000  1
  Ba  Ba1  1  0.50000000  0.50000000  0.50000000  1
  Ba  Ba2  1  0.00000000  0.50000000  0.50000000  1
  Ba  Ba3  1  0.50000000  -0.00000000  -0.00000000  1
  Na  Na0  1  0.50000000  -0.00000000  0.50000000  1
  Na  Na1  1  0.50000000  0.50000000  0.00000000  1
  Na  Na2  1  0.00000000  0.50000000  -0.00000000  1
  Na  Na3  1  0.00000000  -0.00000000  0.50000000  1
  Ce  Ce0  1  0.75000000  0.75000000  0.75000000  1
  Ce  Ce1  1  0.25000000  0.25000000  0.75000000  1
  Ce  Ce2  1  0.25000000  0.75000000  0.25000000  1
  Ce  Ce3  1  0.75000000  0.25000000  0.25000000  1
  W  W0  1  0.25000000  0.25000000  0.25000000  1
  W  W1  1  0.75000000  0.75000000  0.25000000  1
  W  W2  1  0.75000000  0.25000000  0.75000000  1
  W  W3  1  0.25000000  0.75000000  0.75000000  1
  O  O0  1  0.01063938  0.22923299  0.28601180  1
  O  O1  1  0.98936062  0.77076701  0.28601180  1
  O  O2  1  0.98936062  0.22923299  0.71398820  1
  O  O3  1  0.01063938  0.77076701  0.71398820  1
  O  O4  1  0.26324509  0.01008068  0.21966438  1
  O  O5  1  0.26324509  0.98991932  0.78033562  1
  O  O6  1  0.73675491  0.98991932  0.21966438  1
  O  O7  1  0.73675491  0.01008068  0.78033562  1
  O  O8  1  0.21134904  0.26968301  0.02211567  1
  O  O9  1  0.78865096  0.26968301  0.97788433  1
  O  O10  1  0.21134904  0.73031699  0.97788433  1
  O  O11  1  0.78865096  0.73031699  0.02211567  1
  O  O12  1  0.48936062  0.27076701  0.21398820  1
  O  O13  1  0.51063938  0.72923299  0.21398820  1
  O  O14  1  0.51063938  0.27076701  0.78601180  1
  O  O15  1  0.48936062  0.72923299  0.78601180  1
  O  O16  1  0.23675491  0.48991932  0.28033562  1
  O  O17  1  0.23675491  0.51008068  0.71966438  1
  O  O18  1  0.76324509  0.51008068  0.28033562  1
  O  O19  1  0.76324509  0.48991932  0.71966438  1
  O  O20  1  0.28865096  0.23031699  0.47788433  1
  O  O21  1  0.71134904  0.23031699  0.52211567  1
  O  O22  1  0.28865096  0.76968301  0.52211567  1
  O  O23  1  0.71134904  0.76968301  0.47788433  1
loop_
_geom_bond_atom_site_label_1
_geom_bond_atom_site_label_2
_geom_bond_distance
_geom_bond_site_symmetry_2
Ba0 O4 2.905487 1_555
Ba0 O5 2.905487 1_544
Ba0 O7 2.905487 1_454
Ba0 O6 2.905487 1_445
Ba0 O8 2.908714 1_555
Ba0 O9 2.908714 1_454
Ba0 O11 2.908714 1_445
Ba0 O10 2.908714 1_544
Ba0 O1 3.095918 1_445
Ba0 O0 3.095918 1_555
Ba0 O2 3.095918 1_454
Ba0 O3 3.095918 1_544
Ba1 O17 2.905487 1_555
Ba1 O18 2.905487 1_555
Ba1 O16 2.905487 1_555
Ba1 O19 2.905487 1_555
Ba1 O23 2.908714 1_555
Ba1 O21 2.908714 1_555
Ba1 O22 2.908714 1_555
Ba1 O20 2.908714 1_555
Ba1 O15 3.095918 1_555
Ba1 O12 3.095918 1_555
Ba1 O13 3.095918 1_555
Ba1 O14 3.095918 1_555
Ba2 O16 2.736005 1_555
Ba2 O17 2.736005 1_555
Ba2 O18 2.736005 1_455
Ba2 O19 2.736005 1_455
Ba2 O3 2.916921 1_555
Ba2 O2 2.916921 1_455
Ba2 O1 2.916921 1_455
Ba2 O0 2.916921 1_555
Ba3 O4 2.736005 1_555
Ba3 O5 2.736005 1_544
Ba3 O7 2.736005 1_554
Ba3 O6 2.736005 1_545
Ba3 O12 2.916921 1_555
Ba3 O14 2.916921 1_554
Ba3 O13 2.916921 1_545
Ba3 O15 2.916921 1_544
Na0 O21 2.655740 1_555
Na0 O20 2.655740 1_555
Na0 O23 2.655740 1_545
Na0 O22 2.655740 1_545
Na1 O15 2.650140 1_554
Na1 O14 2.650140 1_554
Na1 O12 2.650140 1_555
Na1 O13 2.650140 1_555
Na2 O8 2.655740 1_555
Na2 O9 2.655740 1_454
Na2 O11 2.655740 1_455
Na2 O10 2.655740 1_554
Na3 O3 2.650140 1_545
Na3 O0 2.650140 1_555
Na3 O2 2.650140 1_455
Na3 O1 2.650140 1_445
Ce0 O7 2.217123 1_565
Ce0 O19 2.217123 1_555
Ce0 O15 2.242098 1_555
Ce0 O3 2.242098 1_655
Ce0 O23 2.324305 1_555
Ce0 O11 2.324305 1_556
Ce1 O5 2.217123 1_545
Ce1 O17 2.217123 1_555
Ce1 O2 2.242098 1_455
Ce1 O14 2.242098 1_555
Ce1 O20 2.324305 1_555
Ce1 O8 2.324305 1_556
Ce2 O4 2.217123 1_565
Ce2 O16 2.217123 1_555
Ce2 O1 2.242098 1_455
Ce2 O13 2.242098 1_555
Ce2 O22 2.324305 1_555
Ce2 O10 2.324305 1_554
Ce3 O6 2.217123 1_545
Ce3 O18 2.217123 1_555
Ce3 O0 2.242098 1_655
Ce3 O12 2.242098 1_555
Ce3 O21 2.324305 1_555
Ce3 O9 2.324305 1_554
O0 W0 2.063728 1_555
O1 W1 2.063728 1_555
O2 W2 2.063728 1_555
O3 W3 2.063728 1_555
O4 W0 2.048096 1_555
O5 W3 2.048096 1_555
O6 W1 2.048096 1_555
O7 W2 2.048096 1_555
O8 W0 1.956870 1_555
O9 W2 1.956870 1_555
O10 W3 1.956870 1_555
O11 W1 1.956870 1_555
O12 W0 2.063728 1_555
O13 W1 2.063728 1_555
O14 W2 2.063728 1_555
O15 W3 2.063728 1_555
O16 W0 2.048096 1_555
O17 W3 2.048096 1_555
O18 W1 2.048096 1_555
O19 W2 2.048096 1_555
O20 W0 1.956870 1_555
O21 W2 1.956870 1_555
O22 W3 1.956870 1_555
O23 W1 1.956870 1_555
