# generated using pymatgen
data_Hf6Be15Ni8
_symmetry_space_group_name_H-M   'P 1'
_cell_length_a   7.72053291
_cell_length_b   7.72053278
_cell_length_c   7.72053196
_cell_angle_alpha   59.99849163
_cell_angle_beta   59.99848878
_cell_angle_gamma   59.99849599
_symmetry_Int_Tables_number   1
_chemical_formula_structural   Hf6Be15Ni8
_chemical_formula_sum   'Hf6 Be15 Ni8'
_cell_volume   325.39579016
_cell_formula_units_Z   1
loop_
 _symmetry_equiv_pos_site_id
 _symmetry_equiv_pos_as_xyz
  1  'x, y, z'
loop_
 _atom_site_type_symbol
 _atom_site_label
 _atom_site_symmetry_multiplicity
 _atom_site_fract_x
 _atom_site_fract_y
 _atom_site_fract_z
 _atom_site_occupancy
  Hf  Hf0  1  0.71102155  0.28898058  0.28897408  1
  Hf  Hf1  1  0.28898162  0.71102315  0.71102044  1
  Hf  Hf2  1  0.28898010  0.71102143  0.28897457  1
  Hf  Hf3  1  0.71102306  0.28898257  0.71101957  1
  Hf  Hf4  1  0.28897904  0.28897999  0.71101803  1
  Hf  Hf5  1  0.71102422  0.71102379  0.28897665  1
  Be  Be0  1  0.32325575  0.32325584  0.32325569  1
  Be  Be1  1  0.67674448  0.67674418  0.67674352  1
  Be  Be2  1  0.32325779  0.32325760  0.03023248  1
  Be  Be3  1  0.32325777  0.03023162  0.32325792  1
  Be  Be4  1  0.67674191  0.67674189  0.96976911  1
  Be  Be5  1  0.67674314  0.96976729  0.67674203  1
  Be  Be6  1  0.03023164  0.32325780  0.32325793  1
  Be  Be7  1  0.96976748  0.67674249  0.67674224  1
  Be  Be8  1  0.50000063  -0.00000208  0.00000123  1
  Be  Be9  1  -0.00000072  0.49999988  0.49999935  1
  Be  Be10  1  -0.00000221  0.50000068  0.00000130  1
  Be  Be11  1  0.49999986  -0.00000054  0.49999920  1
  Be  Be12  1  0.00000137  0.00000137  0.49999864  1
  Be  Be13  1  0.50000144  0.50000133  -0.00000071  1
  Be  Be14  1  0.00000050  0.00000065  -0.00000098  1
  Ni  Ni0  1  0.12367246  0.12367234  0.12367774  1
  Ni  Ni1  1  0.87632374  0.87632420  0.87632950  1
  Ni  Ni2  1  0.12367626  0.12367626  0.62896854  1
  Ni  Ni3  1  0.12367400  0.62896943  0.12367965  1
  Ni  Ni4  1  0.87632251  0.87632185  0.37103025  1
  Ni  Ni5  1  0.87631998  0.37103132  0.87632535  1
  Ni  Ni6  1  0.62896913  0.12367406  0.12367935  1
  Ni  Ni7  1  0.37103153  0.87632005  0.87632531  1
loop_
_geom_bond_atom_site_label_1
_geom_bond_atom_site_label_2
_geom_bond_distance
_geom_bond_site_symmetry_2
Hf0 Ni5 2.627538 1_554
Hf0 Ni0 2.627547 1_655
Hf0 Ni4 2.627599 1_545
Hf0 Ni6 2.627643 1_555
Hf0 Hf2 3.258308 1_555
Hf0 Hf4 3.258324 1_555
Hf0 Hf5 3.258419 1_555
Hf0 Hf3 3.258429 1_555
Hf1 Ni2 2.627566 1_565
Hf1 Ni1 2.627591 1_455
Hf1 Ni3 2.627604 1_556
Hf1 Ni7 2.627633 1_555
Hf1 Hf3 3.258307 1_555
Hf1 Hf5 3.258324 1_555
Hf1 Hf4 3.258417 1_555
Hf1 Hf2 3.258431 1_555
Hf2 Ni7 2.627541 1_554
Hf2 Ni0 2.627547 1_565
Hf2 Ni4 2.627592 1_455
Hf2 Ni3 2.627639 1_555
Hf2 Hf4 3.258318 1_555
Hf2 Hf5 3.258423 1_555
Hf3 Ni2 2.627568 1_655
Hf3 Ni1 2.627594 1_545
Hf3 Ni6 2.627608 1_556
Hf3 Ni5 2.627632 1_555
Hf3 Hf5 3.258315 1_555
Hf3 Hf4 3.258421 1_555
Hf4 Ni0 2.627605 1_556
Hf4 Ni5 2.627606 1_455
Hf4 Ni7 2.627611 1_545
Hf4 Ni2 2.627661 1_555
Hf5 Ni1 2.627521 1_554
Hf5 Ni3 2.627542 1_655
Hf5 Ni6 2.627545 1_565
Hf5 Ni4 2.627618 1_555
Be0 Be11 2.236809 1_555
Be0 Be9 2.236810 1_555
Be0 Be13 2.236819 1_555
Be0 Be2 2.262280 1_555
Be0 Be6 2.262286 1_555
Be0 Be3 2.262287 1_555
Be0 Ni3 2.328023 1_555
Be0 Ni6 2.328024 1_555
Be0 Ni2 2.328025 1_555
Be0 Hf4 2.754629 1_555
Be0 Hf2 2.754641 1_555
Be0 Hf0 2.754642 1_555
Be1 Be13 2.236802 1_556
Be1 Be9 2.236805 1_655
Be1 Be11 2.236808 1_565
Be1 Be7 2.262282 1_555
Be1 Be5 2.262284 1_555
Be1 Be4 2.262295 1_555
Be1 Ni4 2.328014 1_555
Be1 Ni5 2.328019 1_555
Be1 Ni7 2.328021 1_555
Be1 Hf3 2.754617 1_555
Be1 Hf1 2.754623 1_555
Be1 Hf5 2.754642 1_555
Be2 Be8 2.236850 1_555
Be2 Be3 2.262263 1_555
Be2 Be6 2.262264 1_555
Be2 Ni6 2.328037 1_555
Be2 Ni3 2.328041 1_555
Be2 Ni0 2.328152 1_555
Be2 Hf1 2.754601 1_554
Be2 Hf3 2.754602 1_554
Be2 Hf4 2.754706 1_554
Be3 Be8 2.236836 1_555
Be3 Be6 2.262267 1_555
Be3 Ni6 2.328020 1_555
Be3 Ni2 2.328023 1_555
Be3 Ni0 2.328132 1_555
Be3 Hf1 2.754576 1_545
Be3 Hf5 2.754592 1_545
Be3 Hf2 2.754695 1_545
Be4 Be8 2.236828 1_566
Be4 Be7 2.262267 1_555
Be4 Be5 2.262267 1_555
Be4 Ni7 2.328019 1_555
Be4 Ni5 2.328020 1_555
Be4 Ni1 2.328126 1_555
Be4 Hf0 2.754560 1_556
Be4 Hf2 2.754563 1_556
Be4 Hf5 2.754689 1_556
Be5 Be8 2.236844 1_566
Be5 Be7 2.262254 1_555
Be5 Ni4 2.328034 1_555
Be5 Ni7 2.328040 1_555
Be5 Ni1 2.328142 1_555
Be5 Hf4 2.754597 1_565
Be5 Hf0 2.754616 1_565
Be5 Hf3 2.754717 1_565
Be6 Be9 2.236840 1_555
Be6 Ni3 2.328021 1_555
Be6 Ni2 2.328023 1_555
Be6 Ni0 2.328132 1_555
Be6 Hf3 2.754572 1_455
Be6 Hf5 2.754589 1_455
Be6 Hf0 2.754694 1_455
Be7 Be9 2.236855 1_655
Be7 Ni4 2.328033 1_555
Be7 Ni5 2.328038 1_555
Be7 Ni1 2.328146 1_555
Be7 Hf4 2.754586 1_655
Be7 Hf2 2.754612 1_655
Be7 Hf1 2.754715 1_655
Be8 Ni1 2.372335 1_544
Be8 Ni0 2.372366 1_555
Be8 Ni6 2.372403 1_555
Be8 Ni7 2.372404 1_544
Be8 Hf2 2.762538 1_545
Be8 Hf5 2.762547 1_545
Be8 Hf4 2.762586 1_554
Be8 Hf3 2.762598 1_554
Be9 Ni3 2.372312 1_555
Be9 Ni4 2.372326 1_455
Be9 Ni2 2.372337 1_555
Be9 Ni5 2.372351 1_455
Be9 Hf3 2.762541 1_455
Be9 Hf5 2.762560 1_455
Be9 Hf4 2.762571 1_555
Be9 Hf2 2.762589 1_555
Be10 Be4 2.236827 1_454
Be10 Be6 2.236836 1_555
Be10 Be7 2.236842 1_454
Be10 Be2 2.236851 1_555
Be10 Ni1 2.372337 1_454
Be10 Ni0 2.372368 1_555
Be10 Ni5 2.372406 1_454
Be10 Ni3 2.372407 1_555
Be10 Hf0 2.762534 1_455
Be10 Hf5 2.762544 1_455
Be10 Hf4 2.762582 1_554
Be10 Hf1 2.762593 1_554
Be11 Be3 2.236840 1_555
Be11 Be5 2.236858 1_545
Be11 Ni6 2.372312 1_555
Be11 Ni4 2.372330 1_545
Be11 Ni2 2.372336 1_555
Be11 Ni7 2.372352 1_545
Be11 Hf1 2.762546 1_545
Be11 Hf5 2.762562 1_545
Be11 Hf4 2.762576 1_555
Be11 Hf0 2.762591 1_555
Be12 Be3 2.236825 1_555
Be12 Be6 2.236825 1_555
Be12 Be5 2.236848 1_445
Be12 Be7 2.236851 1_445
Be12 Ni0 2.372320 1_555
Be12 Ni1 2.372383 1_445
Be12 Ni2 2.372384 1_555
Be12 Ni4 2.372429 1_445
Be12 Hf1 2.762568 1_545
Be12 Hf3 2.762569 1_455
Be12 Hf2 2.762577 1_545
Be12 Hf0 2.762579 1_455
Be13 Be4 2.236832 1_554
Be13 Be2 2.236863 1_555
Be13 Ni5 2.372305 1_554
Be13 Ni7 2.372306 1_554
Be13 Ni6 2.372359 1_555
Be13 Ni3 2.372360 1_555
Be13 Hf0 2.762547 1_555
Be13 Hf2 2.762549 1_555
Be13 Hf3 2.762569 1_554
Be13 Hf1 2.762570 1_554
Be14 Ni2 2.338853 1_554
Be14 Ni5 2.338855 1_454
Be14 Ni7 2.338857 1_544
Be14 Ni4 2.338858 1_445
Be14 Ni3 2.338858 1_545
Be14 Ni6 2.338859 1_455
Be14 Ni0 2.338873 1_555
Be14 Ni1 2.338875 1_444
Ni0 Ni4 2.700658 1_445
Ni0 Ni7 2.700681 1_544
Ni0 Ni5 2.700682 1_454
Ni1 Ni6 2.700654 1_566
Ni1 Ni3 2.700658 1_656
Ni1 Ni2 2.700681 1_665
Ni2 Ni5 2.700720 1_455
Ni2 Ni7 2.700722 1_545
Ni3 Ni4 2.700672 1_455
Ni3 Ni7 2.700700 1_554
Ni4 Ni6 2.700679 1_565
Ni5 Ni6 2.700700 1_556
