# generated using pymatgen
data_SrLaMn2O5
_symmetry_space_group_name_H-M   'P 1'
_cell_length_a   5.49510554
_cell_length_b   5.63764536
_cell_length_c   9.14175493
_cell_angle_alpha   72.16371999
_cell_angle_beta   72.58032295
_cell_angle_gamma   90.24962936
_symmetry_Int_Tables_number   1
_chemical_formula_structural   SrLaMn2O5
_chemical_formula_sum   'Sr2 La2 Mn4 O10'
_cell_volume   255.78776589
_cell_formula_units_Z   2
loop_
 _symmetry_equiv_pos_site_id
 _symmetry_equiv_pos_as_xyz
  1  'x, y, z'
loop_
 _atom_site_type_symbol
 _atom_site_label
 _atom_site_symmetry_multiplicity
 _atom_site_fract_x
 _atom_site_fract_y
 _atom_site_fract_z
 _atom_site_occupancy
  Sr  Sr0  1  0.88640300  0.37599100  0.22460700  1
  Sr  Sr1  1  0.61070600  0.10062300  0.77535400  1
  La  La0  1  0.10255500  0.63288600  0.77613600  1
  La  La1  1  0.37878900  0.90923000  0.22362900  1
  Mn  Mn0  1  0.72275200  0.69601600  0.49987400  1
  Mn  Mn1  1  0.20777900  0.30134600  0.50018500  1
  Mn  Mn2  1  0.50228400  0.50247600  0.00012900  1
  Mn  Mn3  1  0.00226800  0.00238400  0.00044800  1
  O  O0  1  0.33183600  0.66232400  0.49983400  1
  O  O1  1  0.83473900  0.35492600  0.49985200  1
  O  O2  1  0.37803600  0.29532500  0.26969200  1
  O  O3  1  0.14886200  0.06485100  0.72991600  1
  O  O4  1  0.67521200  0.67756400  0.73024100  1
  O  O5  1  0.90528000  0.90932700  0.27031500  1
  O  O6  1  0.76115600  0.25783400  0.98369500  1
  O  O7  1  0.24563100  0.74306400  0.01591500  1
  O  O8  1  0.73644100  0.74419700  0.02480000  1
  O  O9  1  0.26126900  0.26963500  0.97537800  1
loop_
_geom_bond_atom_site_label_1
_geom_bond_atom_site_label_2
_geom_bond_distance
_geom_bond_site_symmetry_2
La0 O3 2.339590 1_565
La0 O0 2.414744 1_555
La0 O4 2.506848 1_455
La0 O9 2.636988 1_555
La0 O6 2.639493 1_455
La0 O7 2.769568 1_556
La0 O8 2.784866 1_456
La0 O4 3.046268 1_555
La1 O2 2.340032 1_565
La1 O0 2.415257 1_555
La1 O5 2.507532 1_455
La1 O7 2.633311 1_555
La1 O8 2.635351 1_555
La1 O6 2.766263 1_564
La1 O9 2.785669 1_564
La1 O5 3.048236 1_555
Mn0 O5 2.009833 1_555
Mn0 O4 2.012533 1_555
Mn0 O1 2.021604 1_555
Mn0 O0 2.155801 1_555
Mn1 O3 2.041292 1_555
Mn1 O2 2.044538 1_555
Mn1 O1 2.074099 1_455
Mn1 O0 2.142155 1_555
Mn2 O7 1.965775 1_555
Mn2 O9 1.968395 1_554
Mn2 O8 1.977452 1_555
Mn2 O6 1.991089 1_554
Mn2 O4 2.249625 1_554
Mn2 O2 2.263929 1_555
Mn3 O6 1.963647 1_454
Mn3 O8 1.972380 1_445
Mn3 O9 1.980571 1_554
Mn3 O7 1.987286 1_545
Mn3 O5 2.250134 1_445
Mn3 O3 2.271673 1_554
O1 Sr0 2.411435 1_555
O1 Sr1 2.414625 1_555
O2 Sr0 2.713897 1_555
O2 Sr0 2.870149 1_455
O3 Sr1 2.707785 1_555
O3 Sr1 2.877399 1_455
O4 Sr1 2.550810 1_565
O4 Sr1 3.155273 1_555
O5 Sr0 2.542010 1_565
O5 Sr0 3.165256 1_555
O6 Sr1 2.658386 1_555
O6 Sr0 2.751372 1_556
O7 Sr0 2.666441 1_455
O7 Sr1 2.744418 1_564
O8 Sr0 2.630185 1_555
O8 Sr1 2.804212 1_564
O9 Sr1 2.630529 1_555
O9 Sr0 2.798475 1_456
