# generated using pymatgen
data_ErFeO3
_symmetry_space_group_name_H-M   'P 1'
_cell_length_a   5.23478674
_cell_length_b   5.58551303
_cell_length_c   7.59284986
_cell_angle_alpha   90.00000000
_cell_angle_beta   90.00000000
_cell_angle_gamma   90.00000000
_symmetry_Int_Tables_number   1
_chemical_formula_structural   ErFeO3
_chemical_formula_sum   'Er4 Fe4 O12'
_cell_volume   222.00710582
_cell_formula_units_Z   4
loop_
 _symmetry_equiv_pos_site_id
 _symmetry_equiv_pos_as_xyz
  1  'x, y, z'
loop_
 _atom_site_type_symbol
 _atom_site_label
 _atom_site_symmetry_multiplicity
 _atom_site_fract_x
 _atom_site_fract_y
 _atom_site_fract_z
 _atom_site_occupancy
  Er  Er0  1  0.02036860  0.92731928  0.75000000  1
  Er  Er1  1  0.52036860  0.57268072  0.25000000  1
  Er  Er2  1  0.47963140  0.42731928  0.75000000  1
  Er  Er3  1  0.97963140  0.07268072  0.25000000  1
  Fe  Fe0  1  0.00000000  0.50000000  0.50000000  1
  Fe  Fe1  1  0.50000000  -0.00000000  0.50000000  1
  Fe  Fe2  1  0.50000000  -0.00000000  -0.00000000  1
  Fe  Fe3  1  0.00000000  0.50000000  -0.00000000  1
  O  O0  1  0.68832389  0.30819830  0.43807003  1
  O  O1  1  0.18832389  0.19180170  0.56192997  1
  O  O2  1  0.81167611  0.80819830  0.06192997  1
  O  O3  1  0.31167611  0.69180170  0.93807003  1
  O  O4  1  0.31167611  0.69180170  0.56192997  1
  O  O5  1  0.81167611  0.80819830  0.43807003  1
  O  O6  1  0.18832389  0.19180170  0.93807003  1
  O  O7  1  0.68832389  0.30819830  0.06192997  1
  O  O8  1  0.12197103  0.45414172  0.25000000  1
  O  O9  1  0.62197103  0.04585828  0.75000000  1
  O  O10  1  0.37802897  0.95414172  0.25000000  1
  O  O11  1  0.87802897  0.54585828  0.75000000  1
loop_
_geom_bond_atom_site_label_1
_geom_bond_atom_site_label_2
_geom_bond_distance
_geom_bond_site_symmetry_2
Er0 O9 2.188104 1_465
Er0 O1 2.234835 1_565
Er0 O6 2.234835 1_565
Er0 O11 2.257187 1_455
Er0 O3 2.468820 1_555
Er0 O4 2.468820 1_555
Er0 O5 2.691776 1_455
Er0 O2 2.691776 1_456
Er1 O8 2.188104 1_555
Er1 O0 2.234835 1_555
Er1 O7 2.234835 1_555
Er1 O10 2.257187 1_555
Er1 O2 2.468820 1_555
Er1 O5 2.468820 1_555
Er1 O3 2.691776 1_554
Er1 O4 2.691776 1_555
Er2 O11 2.188104 1_555
Er2 O3 2.234835 1_555
Er2 O4 2.234835 1_555
Er2 O9 2.257187 1_555
Er2 O6 2.468820 1_555
Er2 O1 2.468820 1_555
Er2 O0 2.691776 1_555
Er2 O7 2.691776 1_556
Er3 O10 2.188104 1_645
Er3 O2 2.234835 1_545
Er3 O5 2.234835 1_545
Er3 O8 2.257187 1_655
Er3 O0 2.468820 1_555
Er3 O7 2.468820 1_555
Er3 O1 2.691776 1_655
Er3 O6 2.691776 1_654
Fe0 O4 2.007685 1_555
Fe0 O0 2.007685 1_455
Fe0 O11 2.019032 1_455
Fe0 O8 2.019032 1_555
Fe0 O5 2.038715 1_455
Fe0 O1 2.038715 1_555
Fe1 O5 2.007685 1_545
Fe1 O1 2.007685 1_555
Fe1 O10 2.019032 1_545
Fe1 O9 2.019032 1_555
Fe1 O0 2.038715 1_555
Fe1 O4 2.038715 1_545
Fe2 O2 2.007685 1_545
Fe2 O6 2.007685 1_554
Fe2 O9 2.019032 1_554
Fe2 O10 2.019032 1_545
Fe2 O7 2.038715 1_555
Fe2 O3 2.038715 1_544
Fe3 O3 2.007685 1_554
Fe3 O7 2.007685 1_455
Fe3 O11 2.019032 1_454
Fe3 O8 2.019032 1_555
Fe3 O6 2.038715 1_554
Fe3 O2 2.038715 1_455
