# generated using pymatgen
data_Li3MoN2
_symmetry_space_group_name_H-M   'P 1'
_cell_length_a   8.50931833
_cell_length_b   9.82571394
_cell_length_c   9.82571321
_cell_angle_alpha   89.99999865
_cell_angle_beta   125.26439006
_cell_angle_gamma   54.73561296
_symmetry_Int_Tables_number   1
_chemical_formula_structural   Li3MoN2
_chemical_formula_sum   'Li24 Mo8 N16'
_cell_volume   474.31008363
_cell_formula_units_Z   8
loop_
 _symmetry_equiv_pos_site_id
 _symmetry_equiv_pos_as_xyz
  1  'x, y, z'
loop_
 _atom_site_type_symbol
 _atom_site_label
 _atom_site_symmetry_multiplicity
 _atom_site_fract_x
 _atom_site_fract_y
 _atom_site_fract_z
 _atom_site_occupancy
  Li  Li0  1  0.22041505  0.04606862  0.99337475  1
  Li  Li1  1  0.77958495  0.76648367  0.50662525  1
  Li  Li2  1  0.77958495  0.45393138  0.77296069  1
  Li  Li3  1  0.22041505  0.73351633  0.72703931  1
  Li  Li4  1  0.23366456  0.77296069  0.27310892  1
  Li  Li5  1  0.76633544  0.72703931  0.03944436  1
  Li  Li6  1  0.23366456  0.99337475  0.46055564  1
  Li  Li7  1  0.76633544  0.50662525  0.22689108  1
  Li  Li8  1  0.68744772  0.03944436  0.73351633  1
  Li  Li9  1  0.68744772  0.27310892  0.45393138  1
  Li  Li10  1  0.31255228  0.22689108  0.76648367  1
  Li  Li11  1  0.31255228  0.46055564  0.04606862  1
  Li  Li12  1  0.77958495  0.95393138  0.00662525  1
  Li  Li13  1  0.22041505  0.23351633  0.49337475  1
  Li  Li14  1  0.22041505  0.54606862  0.22703931  1
  Li  Li15  1  0.77958495  0.26648367  0.27296069  1
  Li  Li16  1  0.76633544  0.22703931  0.72689108  1
  Li  Li17  1  0.23366456  0.27296069  0.96055564  1
  Li  Li18  1  0.76633544  0.00662525  0.53944436  1
  Li  Li19  1  0.23366456  0.49337475  0.77310892  1
  Li  Li20  1  0.31255228  0.96055564  0.26648367  1
  Li  Li21  1  0.31255228  0.72689108  0.54606862  1
  Li  Li22  1  0.68744772  0.77310892  0.23351633  1
  Li  Li23  1  0.68744772  0.53944436  0.95393138  1
  Mo  Mo0  1  0.23214437  0.00000000  0.73214437  1
  Mo  Mo1  1  0.76785563  0.73214437  0.76785563  1
  Mo  Mo2  1  0.76785563  0.50000000  0.50000000  1
  Mo  Mo3  1  0.23214437  0.76785563  0.00000000  1
  Mo  Mo4  1  0.76785563  -0.00000000  0.26785563  1
  Mo  Mo5  1  0.23214437  0.26785563  0.23214437  1
  Mo  Mo6  1  0.23214437  0.50000000  0.50000000  1
  Mo  Mo7  1  0.76785563  0.23214437  1.00000000  1
  N  N0  1  0.00000000  -0.00000000  0.50000000  1
  N  N1  1  0.00000000  0.50000000  0.00000000  1
  N  N2  1  0.00000000  0.50000000  0.50000000  1
  N  N3  1  0.00000000  -0.00000000  0.00000000  1
  N  N4  1  0.50000000  0.98003465  0.75000000  1
  N  N5  1  0.50000000  0.51996535  0.25000000  1
  N  N6  1  1.00000000  0.25000000  0.73003465  1
  N  N7  1  0.00000000  0.75000000  0.76996535  1
  N  N8  1  0.53993070  0.73003465  0.51996535  1
  N  N9  1  0.46006930  0.76996535  0.98003465  1
  N  N10  1  0.50000000  0.01996535  0.25000000  1
  N  N11  1  0.50000000  0.48003465  0.75000000  1
  N  N12  1  0.00000000  0.75000000  0.26996535  1
  N  N13  1  1.00000000  0.25000000  0.23003465  1
  N  N14  1  0.46006930  0.26996535  0.48003465  1
  N  N15  1  0.53993070  0.23003465  0.01996535  1
loop_
_geom_bond_atom_site_label_1
_geom_bond_atom_site_label_2
_geom_bond_distance
_geom_bond_site_symmetry_2
Li0 N6 2.069927 1_455
Li0 N10 2.110061 1_556
Li0 N3 2.201877 1_556
Li0 N9 2.335841 1_545
Li1 N7 2.069927 1_655
Li1 N10 2.110061 1_565
Li1 N2 2.201877 1_655
Li1 N8 2.335841 1_555
Li2 N6 2.069934 1_555
Li2 N11 2.110056 1_555
Li2 N1 2.201872 1_656
Li2 N8 2.335846 1_555
Li3 N7 2.069934 1_555
Li3 N11 2.110056 1_555
Li3 N0 2.201872 1_565
Li3 N9 2.335846 1_555
Li4 N8 2.069926 1_555
Li4 N12 2.110059 1_555
Li4 N3 2.201875 1_565
Li4 N5 2.335849 1_555
Li5 N9 2.069926 1_554
Li5 N12 2.110059 1_655
Li5 N1 2.201876 1_655
Li5 N4 2.335849 1_554
Li6 N8 2.069926 1_555
Li6 N13 2.110059 1_465
Li6 N0 2.201876 1_565
Li6 N4 2.335849 1_555
Li7 N9 2.069926 1_554
Li7 N13 2.110059 1_555
Li7 N2 2.201875 1_655
Li7 N5 2.335849 1_555
Li8 N4 2.069934 1_545
Li8 N14 2.110055 1_555
Li8 N3 2.201872 1_656
Li8 N7 2.335846 1_645
Li9 N5 2.069927 1_555
Li9 N14 2.110061 1_555
Li9 N0 2.201877 1_655
Li9 N6 2.335841 1_555
Li10 N4 2.069927 1_545
Li10 N15 2.110061 1_556
Li10 N2 2.201877 1_555
Li10 N6 2.335841 1_455
Li11 N5 2.069934 1_555
Li11 N15 2.110056 1_555
Li11 N1 2.201872 1_555
Li11 N7 2.335846 1_554
Li12 N12 2.069927 1_655
Li12 N4 2.110061 1_554
Li12 N3 2.201877 1_665
Li12 N15 2.335841 1_565
Li13 N13 2.069927 1_455
Li13 N4 2.110061 1_545
Li13 N2 2.201877 1_555
Li13 N14 2.335841 1_555
Li14 N12 2.069934 1_555
Li14 N5 2.110056 1_555
Li14 N1 2.201872 1_555
Li14 N14 2.335846 1_555
Li15 N13 2.069934 1_555
Li15 N5 2.110056 1_555
Li15 N0 2.201872 1_655
Li15 N15 2.335846 1_555
Li16 N14 2.069926 1_555
Li16 N6 2.110059 1_555
Li16 N3 2.201875 1_656
Li16 N11 2.335849 1_555
Li17 N15 2.069926 1_556
Li17 N6 2.110059 1_455
Li17 N1 2.201876 1_556
Li17 N10 2.335849 1_556
Li18 N14 2.069926 1_555
Li18 N7 2.110059 1_645
Li18 N0 2.201876 1_655
Li18 N10 2.335849 1_555
Li19 N15 2.069926 1_556
Li19 N7 2.110059 1_555
Li19 N2 2.201875 1_555
Li19 N11 2.335849 1_555
Li20 N10 2.069934 1_565
Li20 N8 2.110055 1_555
Li20 N3 2.201872 1_565
Li20 N13 2.335846 1_465
Li21 N11 2.069927 1_555
Li21 N8 2.110061 1_555
Li21 N0 2.201877 1_565
Li21 N12 2.335841 1_555
Li22 N10 2.069927 1_565
Li22 N9 2.110061 1_554
Li22 N2 2.201877 1_655
Li22 N12 2.335841 1_655
Li23 N11 2.069934 1_555
Li23 N9 2.110056 1_555
Li23 N1 2.201872 1_656
Li23 N13 2.335846 1_556
Mo0 N0 1.975390 1_555
Mo0 N9 2.070333 1_545
Mo0 N6 2.070333 1_455
Mo0 N4 2.070333 1_545
Mo1 N1 1.975390 1_656
Mo1 N8 2.070333 1_555
Mo1 N7 2.070333 1_655
Mo1 N4 2.070333 1_555
Mo2 N2 1.975390 1_655
Mo2 N6 2.070333 1_555
Mo2 N5 2.070333 1_555
Mo2 N8 2.070333 1_555
Mo3 N3 1.975390 1_565
Mo3 N5 2.070333 1_555
Mo3 N7 2.070333 1_554
Mo3 N9 2.070333 1_554
Mo4 N0 1.975390 1_655
Mo4 N15 2.070333 1_555
Mo4 N12 2.070333 1_645
Mo4 N10 2.070333 1_555
Mo5 N1 1.975390 1_555
Mo5 N14 2.070333 1_555
Mo5 N13 2.070333 1_455
Mo5 N10 2.070333 1_555
Mo6 N2 1.975390 1_555
Mo6 N12 2.070333 1_555
Mo6 N11 2.070333 1_555
Mo6 N14 2.070333 1_555
Mo7 N3 1.975390 1_656
Mo7 N11 2.070333 1_555
Mo7 N13 2.070333 1_556
Mo7 N15 2.070333 1_556
