# generated using pymatgen
data_Nd(FeO2)3
_symmetry_space_group_name_H-M   'P 1'
_cell_length_a   5.36308315
_cell_length_b   5.36308300
_cell_length_c   5.61389246
_cell_angle_alpha   61.46719821
_cell_angle_beta   118.53280349
_cell_angle_gamma   120.00000527
_symmetry_Int_Tables_number   1
_chemical_formula_structural   Nd(FeO2)3
_chemical_formula_sum   'Nd1 Fe3 O6'
_cell_volume   116.64374750
_cell_formula_units_Z   1
loop_
 _symmetry_equiv_pos_site_id
 _symmetry_equiv_pos_as_xyz
  1  'x, y, z'
loop_
 _atom_site_type_symbol
 _atom_site_label
 _atom_site_symmetry_multiplicity
 _atom_site_fract_x
 _atom_site_fract_y
 _atom_site_fract_z
 _atom_site_occupancy
  Nd  Nd0  1  0.11926000  0.88074000  0.35778100  1
  Fe  Fe0  1  0.64889700  0.35110300  0.94669100  1
  Fe  Fe1  1  0.85750800  0.14249200  0.57252400  1
  Fe  Fe2  1  0.34645200  0.65354800  0.03935700  1
  O  O0  1  0.23990200  0.04835700  0.77208500  1
  O  O1  1  0.58054000  0.76009800  0.77208500  1
  O  O2  1  0.95164300  0.41946000  0.77208500  1
  O  O3  1  0.51341500  0.32040900  0.25579700  1
  O  O4  1  0.06279200  0.48658500  0.25579700  1
  O  O5  1  0.67959100  0.93720800  0.25579700  1
loop_
_geom_bond_atom_site_label_1
_geom_bond_atom_site_label_2
_geom_bond_distance
_geom_bond_site_symmetry_2
Nd0 O5 2.288742 1_455
Nd0 O3 2.288748 1_565
Nd0 O4 2.288753 1_555
Nd0 O0 2.571865 1_565
Nd0 O2 2.571867 1_455
Nd0 O1 2.571868 1_555
Fe0 O0 2.076865 1_555
Fe0 O1 2.076865 1_555
Fe0 O2 2.076865 1_555
Fe0 O3 2.092439 1_556
Fe0 O4 2.092442 1_656
Fe0 O5 2.092443 1_546
Fe1 O1 2.003979 1_545
Fe1 O0 2.003979 1_655
Fe1 O2 2.003980 1_555
Fe1 O3 2.117283 1_555
Fe1 O4 2.117286 1_655
Fe1 O5 2.117287 1_545
Fe2 O4 1.989170 1_555
Fe2 O5 1.989172 1_555
Fe2 O3 1.989179 1_555
Fe2 O0 2.101662 1_564
Fe2 O2 2.101665 1_454
Fe2 O1 2.101667 1_554
