# generated using pymatgen
data_Cr4Cu3(PO4)6
_symmetry_space_group_name_H-M   'P 1'
_cell_length_a   6.31007100
_cell_length_b   7.94996200
_cell_length_c   9.44986192
_cell_angle_alpha   107.04186960
_cell_angle_beta   107.37912743
_cell_angle_gamma   100.21710680
_symmetry_Int_Tables_number   1
_chemical_formula_structural   Cr4Cu3(PO4)6
_chemical_formula_sum   'Cr4 Cu3 P6 O24'
_cell_volume   413.91279071
_cell_formula_units_Z   1
loop_
 _symmetry_equiv_pos_site_id
 _symmetry_equiv_pos_as_xyz
  1  'x, y, z'
loop_
 _atom_site_type_symbol
 _atom_site_label
 _atom_site_symmetry_multiplicity
 _atom_site_fract_x
 _atom_site_fract_y
 _atom_site_fract_z
 _atom_site_occupancy
  Cr  Cr0  1  0.62069100  0.54269000  0.89159200  1
  Cr  Cr1  1  0.04750300  0.71061800  0.52169100  1
  Cr  Cr2  1  0.37930900  0.45731000  0.10840800  1
  Cr  Cr3  1  0.95249700  0.28938200  0.47830900  1
  Cu  Cu0  1  0.29541100  0.82390500  0.31019100  1
  Cu  Cu1  1  0.70458900  0.17609500  0.68980900  1
  Cu  Cu2  1  0.00000000  0.00000000  0.00000000  1
  P  P0  1  0.77677700  0.85394300  0.23777400  1
  P  P1  1  0.22322300  0.14605700  0.76222600  1
  P  P2  1  0.60175700  0.76412000  0.63230100  1
  P  P3  1  0.39824300  0.23588000  0.36769900  1
  P  P4  1  0.09753800  0.60586200  0.83740300  1
  P  P5  1  0.90246200  0.39413800  0.16259700  1
  O  O0  1  0.79525600  0.05531500  0.30118900  1
  O  O1  1  0.20474400  0.94468500  0.69881100  1
  O  O2  1  0.77748200  0.79604200  0.06501900  1
  O  O3  1  0.22251800  0.20395800  0.93498100  1
  O  O4  1  0.63876000  0.25926300  0.49725400  1
  O  O5  1  0.36124000  0.74073700  0.50274600  1
  O  O6  1  0.00815400  0.18645900  0.65402700  1
  O  O7  1  0.99184600  0.81354100  0.34597300  1
  O  O8  1  0.88586800  0.47855900  0.84319700  1
  O  O9  1  0.11413200  0.52144100  0.15680300  1
  O  O10  1  0.87238700  0.19278600  0.08144300  1
  O  O11  1  0.12761300  0.80721400  0.91855700  1
  O  O12  1  0.92139100  0.44656900  0.34107700  1
  O  O13  1  0.28723200  0.03226900  0.24559500  1
  O  O14  1  0.71276800  0.96773100  0.75440500  1
  O  O15  1  0.31701000  0.55073500  0.92285600  1
  O  O16  1  0.68299000  0.44926500  0.07714400  1
  O  O17  1  0.25192600  0.29427300  0.46457400  1
  O  O18  1  0.07860900  0.55343100  0.65892300  1
  O  O19  1  0.44223700  0.35505800  0.27340900  1
  O  O20  1  0.55776300  0.64494200  0.72659100  1
  O  O21  1  0.45190200  0.26110800  0.75946600  1
  O  O22  1  0.54809800  0.73889200  0.24053400  1
  O  O23  1  0.74807400  0.70572700  0.53542600  1
loop_
_geom_bond_atom_site_label_1
_geom_bond_atom_site_label_2
_geom_bond_distance
_geom_bond_site_symmetry_2
Cr0 O20 1.933204 1_555
Cr0 O8 1.972838 1_555
Cr0 O2 2.027590 1_556
Cr0 O15 2.033222 1_555
Cr0 O16 2.058125 1_556
Cr0 O21 2.103801 1_555
Cr1 O23 1.926566 1_455
Cr1 O1 1.943179 1_555
Cr1 O5 2.019231 1_555
Cr1 O7 2.024868 1_455
Cr1 O18 2.041245 1_555
Cr1 O12 2.109234 1_455
Cr2 O19 1.933204 1_555
Cr2 O9 1.972838 1_555
Cr2 O3 2.027590 1_554
Cr2 O16 2.033222 1_555
Cr2 O15 2.058125 1_554
Cr2 O22 2.103801 1_555
Cr3 O17 1.926566 1_655
Cr3 O0 1.943179 1_555
Cr3 O4 2.019231 1_555
Cr3 O6 2.024868 1_655
Cr3 O12 2.041245 1_555
Cr3 O18 2.109234 1_655
Cu0 O13 1.929615 1_565
Cu0 O7 2.034108 1_455
Cu0 O22 2.044734 1_555
Cu0 O5 2.066835 1_555
Cu0 O9 2.276460 1_555
Cu1 O14 1.929615 1_545
Cu1 O6 2.034108 1_655
Cu1 O21 2.044734 1_555
Cu1 O4 2.066835 1_555
Cu1 O8 2.276460 1_555
Cu2 O10 1.925200 1_455
Cu2 O11 1.925200 1_544
Cu2 O3 2.295603 1_554
Cu2 O2 2.295603 1_445
Cu2 O13 2.389626 1_555
Cu2 O14 2.389626 1_444
O0 P0 1.505093 1_545
O1 P1 1.505093 1_565
O2 P0 1.562562 1_555
O3 P1 1.562562 1_555
O4 P3 1.579018 1_555
O5 P2 1.579018 1_555
O6 P1 1.583833 1_555
O7 P0 1.583833 1_555
O8 P4 1.551722 1_655
O9 P5 1.551722 1_455
O10 P5 1.507400 1_555
O11 P4 1.507400 1_555
O12 P5 1.575624 1_555
O13 P3 1.569205 1_555
O14 P2 1.569205 1_555
O15 P4 1.586424 1_555
O16 P5 1.586424 1_555
O17 P3 1.521139 1_555
O18 P4 1.575624 1_555
O19 P3 1.522485 1_555
O20 P2 1.522485 1_555
O21 P1 1.577247 1_555
O22 P0 1.577247 1_555
O23 P2 1.521139 1_555
