# generated using pymatgen
data_PdN4Cl2O
_symmetry_space_group_name_H-M   'P 1'
_cell_length_a   7.64840800
_cell_length_b   7.64840800
_cell_length_c   6.03142500
_cell_angle_alpha   90.00000000
_cell_angle_beta   90.00000000
_cell_angle_gamma   90.00000000
_symmetry_Int_Tables_number   1
_chemical_formula_structural   PdN4Cl2O
_chemical_formula_sum   'Pd2 N8 Cl4 O2'
_cell_volume   352.82717381
_cell_formula_units_Z   2
loop_
 _symmetry_equiv_pos_site_id
 _symmetry_equiv_pos_as_xyz
  1  'x, y, z'
loop_
 _atom_site_type_symbol
 _atom_site_label
 _atom_site_symmetry_multiplicity
 _atom_site_fract_x
 _atom_site_fract_y
 _atom_site_fract_z
 _atom_site_occupancy
  Pd  Pd0  1  0.50000000  0.50000000  0.00000000  1
  Pd  Pd1  1  0.00000000  0.00000000  0.00000000  1
  N  N0  1  0.72728700  0.66939500  0.00000000  1
  N  N1  1  0.27271300  0.33060500  0.00000000  1
  N  N2  1  0.22728700  0.83060500  0.00000000  1
  N  N3  1  0.77271300  0.16939500  0.00000000  1
  N  N4  1  0.33060500  0.72728700  0.00000000  1
  N  N5  1  0.66939500  0.27271300  0.00000000  1
  N  N6  1  0.16939500  0.22728700  0.00000000  1
  N  N7  1  0.83060500  0.77271300  0.00000000  1
  Cl  Cl0  1  0.80254300  0.30254300  0.50000000  1
  Cl  Cl1  1  0.19745700  0.69745700  0.50000000  1
  Cl  Cl2  1  0.30254300  0.19745700  0.50000000  1
  Cl  Cl3  1  0.69745700  0.80254300  0.50000000  1
  O  O0  1  0.50000000  0.00000000  0.00000000  1
  O  O1  1  0.00000000  0.50000000  0.00000000  1
loop_
_geom_bond_atom_site_label_1
_geom_bond_atom_site_label_2
_geom_bond_distance
_geom_bond_site_symmetry_2
N0 N7 1.117537 1_555
N0 Pd0 2.168078 1_555
N1 N6 1.117537 1_555
N1 Pd0 2.168078 1_555
N2 N4 1.117537 1_555
N2 Pd1 2.168078 1_565
N3 N5 1.117537 1_555
N3 Pd1 2.168078 1_655
N4 Pd0 2.168078 1_555
N5 Pd0 2.168078 1_555
N6 Pd1 2.168078 1_555
N7 Pd1 2.168078 1_665
