# generated using pymatgen
data_HfSc
_symmetry_space_group_name_H-M   'P 1'
_cell_length_a   6.48024080
_cell_length_b   6.48024080
_cell_length_c   10.20825862
_cell_angle_alpha   90.00000000
_cell_angle_beta   90.00000000
_cell_angle_gamma   120.00003553
_symmetry_Int_Tables_number   1
_chemical_formula_structural   HfSc
_chemical_formula_sum   'Hf8 Sc8'
_cell_volume   371.24826155
_cell_formula_units_Z   8
loop_
 _symmetry_equiv_pos_site_id
 _symmetry_equiv_pos_as_xyz
  1  'x, y, z'
loop_
 _atom_site_type_symbol
 _atom_site_label
 _atom_site_symmetry_multiplicity
 _atom_site_fract_x
 _atom_site_fract_y
 _atom_site_fract_z
 _atom_site_occupancy
  Hf  Hf0_0  1  0.33333350  0.16666650  0.25000000  1
  Hf  Hf0_1  1  0.33333350  0.16666650  0.75000000  1
  Hf  Hf0_2  1  0.33333350  0.66666650  0.25000000  1
  Hf  Hf0_3  1  0.33333350  0.66666650  0.75000000  1
  Hf  Hf0_4  1  0.83333350  0.16666650  0.25000000  1
  Hf  Hf0_5  1  0.83333350  0.16666650  0.75000000  1
  Hf  Hf0_6  1  0.83333350  0.66666650  0.25000000  1
  Hf  Hf0_7  1  0.83333350  0.66666650  0.75000000  1
  Sc  Sc0_0  1  0.16666650  0.33333350  0.00000000  1
  Sc  Sc0_1  1  0.16666650  0.33333350  0.50000000  1
  Sc  Sc0_2  1  0.16666650  0.83333350  0.00000000  1
  Sc  Sc0_3  1  0.16666650  0.83333350  0.50000000  1
  Sc  Sc0_4  1  0.66666650  0.33333350  0.00000000  1
  Sc  Sc0_5  1  0.66666650  0.33333350  0.50000000  1
  Sc  Sc0_6  1  0.66666650  0.83333350  0.00000000  1
  Sc  Sc0_7  1  0.66666650  0.83333350  0.50000000  1
loop_
_geom_bond_atom_site_label_1
_geom_bond_atom_site_label_2
_geom_bond_distance
_geom_bond_site_symmetry_2
Hf0_0 Sc0_5 3.164251 1_555
Hf0_0 Sc0_2 3.164251 1_545
Hf0_0 Sc0_3 3.164251 1_545
Hf0_0 Sc0_4 3.164251 1_555
Hf0_0 Sc0_1 3.164255 1_555
Hf0_0 Sc0_0 3.164255 1_555
Hf0_0 Hf0_6 3.240119 1_445
Hf0_0 Hf0_6 3.240119 1_555
Hf0_0 Hf0_4 3.240120 1_555
Hf0_0 Hf0_2 3.240120 1_545
Hf0_0 Hf0_2 3.240120 1_555
Hf0_0 Hf0_4 3.240120 1_455
Hf0_1 Sc0_3 3.164251 1_545
Hf0_1 Sc0_5 3.164251 1_555
Hf0_1 Sc0_2 3.164251 1_546
Hf0_1 Sc0_4 3.164251 1_556
Hf0_1 Sc0_1 3.164255 1_555
Hf0_1 Sc0_0 3.164255 1_556
Hf0_1 Hf0_7 3.240119 1_445
Hf0_1 Hf0_7 3.240119 1_555
Hf0_1 Hf0_3 3.240120 1_545
Hf0_1 Hf0_5 3.240120 1_555
Hf0_1 Hf0_3 3.240120 1_555
Hf0_1 Hf0_5 3.240120 1_455
Hf0_2 Sc0_1 3.164251 1_555
Hf0_2 Sc0_0 3.164251 1_555
Hf0_2 Sc0_6 3.164251 1_555
Hf0_2 Sc0_7 3.164251 1_555
Hf0_2 Sc0_2 3.164255 1_555
Hf0_2 Sc0_3 3.164255 1_555
Hf0_2 Hf0_4 3.240119 1_455
Hf0_2 Hf0_4 3.240119 1_565
Hf0_2 Hf0_6 3.240120 1_455
Hf0_2 Hf0_6 3.240120 1_555
Hf0_3 Sc0_1 3.164251 1_555
Hf0_3 Sc0_7 3.164251 1_555
Hf0_3 Sc0_0 3.164251 1_556
Hf0_3 Sc0_6 3.164251 1_556
Hf0_3 Sc0_3 3.164255 1_555
Hf0_3 Sc0_2 3.164255 1_556
Hf0_3 Hf0_5 3.240119 1_565
Hf0_3 Hf0_5 3.240119 1_455
Hf0_3 Hf0_7 3.240120 1_455
Hf0_3 Hf0_7 3.240120 1_555
Hf0_4 Sc0_6 3.164251 1_545
Hf0_4 Sc0_7 3.164251 1_545
Hf0_4 Sc0_0 3.164251 1_655
Hf0_4 Sc0_1 3.164251 1_655
Hf0_4 Sc0_4 3.164255 1_555
Hf0_4 Sc0_5 3.164255 1_555
Hf0_4 Hf0_6 3.240120 1_545
Hf0_4 Hf0_6 3.240120 1_555
Hf0_5 Sc0_7 3.164251 1_545
Hf0_5 Sc0_1 3.164251 1_655
Hf0_5 Sc0_6 3.164251 1_546
Hf0_5 Sc0_0 3.164251 1_656
Hf0_5 Sc0_5 3.164255 1_555
Hf0_5 Sc0_4 3.164255 1_556
Hf0_5 Hf0_7 3.240120 1_545
Hf0_5 Hf0_7 3.240120 1_555
Hf0_6 Sc0_3 3.164251 1_655
Hf0_6 Sc0_2 3.164251 1_655
Hf0_6 Sc0_5 3.164251 1_555
Hf0_6 Sc0_4 3.164251 1_555
Hf0_6 Sc0_7 3.164255 1_555
Hf0_6 Sc0_6 3.164255 1_555
Hf0_7 Sc0_3 3.164251 1_655
Hf0_7 Sc0_5 3.164251 1_555
Hf0_7 Sc0_2 3.164251 1_656
Hf0_7 Sc0_4 3.164251 1_556
Hf0_7 Sc0_7 3.164255 1_555
Hf0_7 Sc0_6 3.164255 1_556
Sc0_0 Sc0_6 3.240119 1_445
Sc0_0 Sc0_6 3.240119 1_555
Sc0_0 Sc0_4 3.240120 1_455
Sc0_0 Sc0_2 3.240120 1_555
Sc0_0 Sc0_2 3.240120 1_545
Sc0_0 Sc0_4 3.240120 1_555
Sc0_1 Sc0_7 3.240119 1_445
Sc0_1 Sc0_7 3.240119 1_555
Sc0_1 Sc0_5 3.240120 1_455
Sc0_1 Sc0_3 3.240120 1_555
Sc0_1 Sc0_5 3.240120 1_555
Sc0_1 Sc0_3 3.240120 1_545
Sc0_2 Sc0_4 3.240119 1_455
Sc0_2 Sc0_4 3.240119 1_565
Sc0_2 Sc0_6 3.240120 1_455
Sc0_2 Sc0_6 3.240120 1_555
Sc0_3 Sc0_5 3.240119 1_455
Sc0_3 Sc0_5 3.240119 1_565
Sc0_3 Sc0_7 3.240120 1_455
Sc0_3 Sc0_7 3.240120 1_555
Sc0_4 Sc0_6 3.240120 1_555
Sc0_4 Sc0_6 3.240120 1_545
Sc0_5 Sc0_7 3.240120 1_555
Sc0_5 Sc0_7 3.240120 1_545
