# generated using pymatgen
data_FeMoClO4
_symmetry_space_group_name_H-M   'P 1'
_cell_length_a   5.54171362
_cell_length_b   6.75098197
_cell_length_c   6.75053021
_cell_angle_alpha   90.06780495
_cell_angle_beta   89.99843568
_cell_angle_gamma   89.94490051
_symmetry_Int_Tables_number   1
_chemical_formula_structural   FeMoClO4
_chemical_formula_sum   'Fe2 Mo2 Cl2 O8'
_cell_volume   252.55060111
_cell_formula_units_Z   2
loop_
 _symmetry_equiv_pos_site_id
 _symmetry_equiv_pos_as_xyz
  1  'x, y, z'
loop_
 _atom_site_type_symbol
 _atom_site_label
 _atom_site_symmetry_multiplicity
 _atom_site_fract_x
 _atom_site_fract_y
 _atom_site_fract_z
 _atom_site_occupancy
  Fe  Fe0  1  0.26752500  0.24982700  0.25000700  1
  Fe  Fe1  1  0.75259400  0.75138000  0.74916500  1
  Mo  Mo0  1  0.99507300  0.25041300  0.75012300  1
  Mo  Mo1  1  0.99526700  0.74983300  0.24971700  1
  Cl  Cl0  1  0.67011400  0.24978200  0.25007400  1
  Cl  Cl1  1  0.34438100  0.74924600  0.75052800  1
  O  O0  1  0.18527300  0.96442200  0.25012600  1
  O  O1  1  0.18569500  0.53550000  0.24996400  1
  O  O2  1  0.18506500  0.25025300  0.53555600  1
  O  O3  1  0.18532300  0.24958200  0.96441700  1
  O  O4  1  0.80805300  0.74954000  0.46721700  1
  O  O5  1  0.80791000  0.03293800  0.75024500  1
  O  O6  1  0.80894400  0.74921800  0.03220300  1
  O  O7  1  0.80878300  0.46806500  0.75065800  1
loop_
_geom_bond_atom_site_label_1
_geom_bond_atom_site_label_2
_geom_bond_distance
_geom_bond_site_symmetry_2
Fe0 O0 1.980374 1_545
Fe0 O1 1.980747 1_555
Fe0 O3 1.980984 1_554
Fe0 O2 1.981019 1_555
Fe1 O5 1.925649 1_565
Fe1 O4 1.927968 1_555
Fe1 O6 1.936086 1_556
Fe1 O7 1.937578 1_555
Mo0 O3 1.790067 1_655
Mo0 O2 1.790657 1_655
Mo0 O7 1.794964 1_555
Mo0 O5 1.798401 1_555
Mo1 O1 1.790087 1_655
Mo1 O0 1.791744 1_655
Mo1 O6 1.795065 1_555
Mo1 O4 1.797787 1_555
Cl0 Fe0 2.231033 1_555
Cl1 Fe1 2.262278 1_555
