# generated using pymatgen
data_Mg3Bi
_symmetry_space_group_name_H-M   'P 1'
_cell_length_a   12.54472843
_cell_length_b   12.54472843
_cell_length_c   12.54472843
_cell_angle_alpha   149.61293048
_cell_angle_beta   125.49956764
_cell_angle_gamma   63.68379921
_symmetry_Int_Tables_number   1
_chemical_formula_structural   Mg3Bi
_chemical_formula_sum   'Mg24 Bi8'
_cell_volume   804.99695618
_cell_formula_units_Z   8
loop_
 _symmetry_equiv_pos_site_id
 _symmetry_equiv_pos_as_xyz
  1  'x, y, z'
loop_
 _atom_site_type_symbol
 _atom_site_label
 _atom_site_symmetry_multiplicity
 _atom_site_fract_x
 _atom_site_fract_y
 _atom_site_fract_z
 _atom_site_occupancy
  Mg  Mg0_0  1  0.08332850  0.25000000  0.33332850  1
  Mg  Mg0_1  1  0.08332850  0.25000000  0.83332850  1
  Mg  Mg0_2  1  0.08332850  0.75000000  0.33332850  1
  Mg  Mg0_3  1  0.08332850  0.75000000  0.83332850  1
  Mg  Mg0_4  1  0.58332850  0.25000000  0.33332850  1
  Mg  Mg0_5  1  0.58332850  0.25000000  0.83332850  1
  Mg  Mg0_6  1  0.58332850  0.75000000  0.33332850  1
  Mg  Mg0_7  1  0.58332850  0.75000000  0.83332850  1
  Mg  Mg1_0  1  0.12351250  0.12398150  0.49953100  1
  Mg  Mg1_1  1  0.12351250  0.12398150  0.99953100  1
  Mg  Mg1_2  1  0.12351250  0.62398150  0.49953100  1
  Mg  Mg1_3  1  0.12351250  0.62398150  0.99953100  1
  Mg  Mg1_4  1  0.62351250  0.12398150  0.49953100  1
  Mg  Mg1_5  1  0.62351250  0.12398150  0.99953100  1
  Mg  Mg1_6  1  0.62351250  0.62398150  0.49953100  1
  Mg  Mg1_7  1  0.62351250  0.62398150  0.99953100  1
  Mg  Mg2_0  1  0.37554950  0.37601850  0.49953100  1
  Mg  Mg2_1  1  0.37554950  0.37601850  0.99953100  1
  Mg  Mg2_2  1  0.37554950  0.87601850  0.49953100  1
  Mg  Mg2_3  1  0.37554950  0.87601850  0.99953100  1
  Mg  Mg2_4  1  0.87554950  0.37601850  0.49953100  1
  Mg  Mg2_5  1  0.87554950  0.37601850  0.99953100  1
  Mg  Mg2_6  1  0.87554950  0.87601850  0.49953100  1
  Mg  Mg2_7  1  0.87554950  0.87601850  0.99953100  1
  Bi  Bi0_0  1  0.33427700  0.00000000  0.33427700  1
  Bi  Bi0_1  1  0.33427700  0.00000000  0.83427700  1
  Bi  Bi0_2  1  0.33427700  0.50000000  0.33427700  1
  Bi  Bi0_3  1  0.33427700  0.50000000  0.83427700  1
  Bi  Bi0_4  1  0.83427700  0.00000000  0.33427700  1
  Bi  Bi0_5  1  0.83427700  0.00000000  0.83427700  1
  Bi  Bi0_6  1  0.83427700  0.50000000  0.33427700  1
  Bi  Bi0_7  1  0.83427700  0.50000000  0.83427700  1
loop_
_geom_bond_atom_site_label_1
_geom_bond_atom_site_label_2
_geom_bond_distance
_geom_bond_site_symmetry_2
Mg0_0 Mg2_7 3.257577 1_444
Mg0_0 Mg1_2 3.257577 1_555
Mg0_0 Mg2_4 3.257577 1_455
Mg0_0 Mg1_1 3.257577 1_554
Mg0_0 Mg0_3 3.287726 1_555
Mg0_0 Mg0_3 3.287726 1_544
Mg0_0 Mg1_0 3.295397 1_555
Mg0_0 Mg2_0 3.295397 1_555
Mg0_1 Mg1_3 3.257577 1_555
Mg0_1 Mg1_0 3.257577 1_555
Mg0_1 Mg2_6 3.257577 1_445
Mg0_1 Mg2_5 3.257577 1_455
Mg0_1 Mg0_2 3.287726 1_545
Mg0_1 Mg0_2 3.287726 1_556
Mg0_1 Mg2_1 3.295397 1_555
Mg0_1 Mg1_1 3.295397 1_555
Mg0_2 Mg1_0 3.257577 1_565
Mg0_2 Mg1_3 3.257577 1_554
Mg0_2 Mg2_6 3.257577 1_455
Mg0_2 Mg2_5 3.257577 1_454
Mg0_2 Mg2_2 3.295397 1_555
Mg0_2 Mg1_2 3.295397 1_555
Mg0_3 Mg2_7 3.257577 1_455
Mg0_3 Mg2_4 3.257577 1_455
Mg0_3 Mg1_2 3.257577 1_555
Mg0_3 Mg1_1 3.257577 1_565
Mg0_3 Mg1_3 3.295397 1_555
Mg0_3 Mg2_3 3.295397 1_555
Mg0_4 Mg2_0 3.257577 1_555
Mg0_4 Mg2_3 3.257577 1_544
Mg0_4 Mg1_6 3.257577 1_555
Mg0_4 Mg1_5 3.257577 1_554
Mg0_4 Mg0_7 3.287726 1_555
Mg0_4 Mg0_7 3.287726 1_544
Mg0_4 Mg1_4 3.295397 1_555
Mg0_4 Mg2_4 3.295397 1_555
Mg0_5 Mg1_7 3.257577 1_555
Mg0_5 Mg2_1 3.257577 1_555
Mg0_5 Mg1_4 3.257577 1_555
Mg0_5 Mg2_2 3.257577 1_545
Mg0_5 Mg0_6 3.287726 1_545
Mg0_5 Mg0_6 3.287726 1_556
Mg0_5 Mg2_5 3.295397 1_555
Mg0_5 Mg1_5 3.295397 1_555
Mg0_6 Mg2_1 3.257577 1_554
Mg0_6 Mg2_2 3.257577 1_555
Mg0_6 Mg1_4 3.257577 1_565
Mg0_6 Mg1_7 3.257577 1_554
Mg0_6 Mg1_6 3.295397 1_555
Mg0_6 Mg2_6 3.295397 1_555
Mg0_7 Mg1_5 3.257577 1_565
Mg0_7 Mg1_6 3.257577 1_555
Mg0_7 Mg2_3 3.257577 1_555
Mg0_7 Mg2_0 3.257577 1_555
Mg0_7 Mg2_7 3.295397 1_555
Mg0_7 Mg1_7 3.295397 1_555
Mg1_0 Mg1_3 3.287726 1_544
Mg1_0 Mg1_3 3.287726 1_555
Mg1_0 Mg2_7 3.309441 1_444
Mg1_0 Mg2_4 3.309441 1_455
Mg1_0 Mg2_1 3.309441 1_555
Mg1_0 Mg2_2 3.309441 1_545
Mg1_1 Mg1_2 3.287726 1_545
Mg1_1 Mg1_2 3.287726 1_556
Mg1_1 Mg2_6 3.309441 1_445
Mg1_1 Mg2_0 3.309441 1_556
Mg1_1 Mg2_3 3.309441 1_545
Mg1_1 Mg2_5 3.309441 1_455
Mg1_2 Mg2_6 3.309441 1_455
Mg1_2 Mg2_3 3.309441 1_555
Mg1_2 Mg2_0 3.309441 1_555
Mg1_2 Mg2_5 3.309441 1_454
Mg1_3 Mg2_4 3.309441 1_455
Mg1_3 Mg2_7 3.309441 1_455
Mg1_3 Mg2_2 3.309441 1_556
Mg1_3 Mg2_1 3.309441 1_555
Mg1_4 Mg1_7 3.287726 1_555
Mg1_4 Mg1_7 3.287726 1_544
Mg1_4 Mg2_0 3.309441 1_555
Mg1_4 Mg2_3 3.309441 1_544
Mg1_4 Mg2_5 3.309441 1_555
Mg1_4 Mg2_6 3.309441 1_545
Mg1_5 Mg1_6 3.287726 1_545
Mg1_5 Mg1_6 3.287726 1_556
Mg1_5 Mg2_1 3.309441 1_555
Mg1_5 Mg2_2 3.309441 1_545
Mg1_5 Mg2_7 3.309441 1_545
Mg1_5 Mg2_4 3.309441 1_556
Mg1_6 Mg2_2 3.309441 1_555
Mg1_6 Mg2_1 3.309441 1_554
Mg1_6 Mg2_7 3.309441 1_555
Mg1_6 Mg2_4 3.309441 1_555
Mg1_7 Mg2_5 3.309441 1_555
Mg1_7 Mg2_3 3.309441 1_555
Mg1_7 Mg2_0 3.309441 1_555
Mg1_7 Mg2_6 3.309441 1_556
Mg2_0 Mg2_3 3.287726 1_544
Mg2_0 Mg2_3 3.287726 1_555
Mg2_1 Mg2_2 3.287726 1_545
Mg2_1 Mg2_2 3.287726 1_556
Mg2_4 Mg2_7 3.287726 1_555
Mg2_4 Mg2_7 3.287726 1_544
Mg2_5 Mg2_6 3.287726 1_545
Mg2_5 Mg2_6 3.287726 1_556
Bi0_0 Mg1_4 3.253738 1_555
Bi0_0 Mg2_2 3.253738 1_545
Bi0_0 Bi0_3 3.287726 1_544
Bi0_0 Bi0_3 3.287726 1_555
Bi0_0 Mg2_3 3.296095 1_544
Bi0_0 Mg2_0 3.296095 1_555
Bi0_0 Mg1_0 3.296095 1_555
Bi0_0 Mg1_3 3.296095 1_544
Bi0_0 Mg0_5 3.299704 1_555
Bi0_0 Mg0_6 3.299704 1_545
Bi0_0 Mg0_0 3.318617 1_555
Bi0_0 Mg0_3 3.318617 1_544
Bi0_1 Mg1_5 3.253738 1_555
Bi0_1 Mg2_3 3.253738 1_545
Bi0_1 Bi0_2 3.287726 1_556
Bi0_1 Bi0_2 3.287726 1_545
Bi0_1 Mg2_2 3.296095 1_545
Bi0_1 Mg1_1 3.296095 1_555
Bi0_1 Mg1_2 3.296095 1_545
Bi0_1 Mg2_1 3.296095 1_555
Bi0_1 Mg0_4 3.299704 1_556
Bi0_1 Mg0_7 3.299704 1_545
Bi0_1 Mg0_2 3.318617 1_545
Bi0_1 Mg0_1 3.318617 1_555
Bi0_2 Mg1_6 3.253738 1_555
Bi0_2 Mg2_0 3.253738 1_555
Bi0_2 Mg2_2 3.296095 1_555
Bi0_2 Mg1_1 3.296095 1_554
Bi0_2 Mg1_2 3.296095 1_555
Bi0_2 Mg2_1 3.296095 1_554
Bi0_2 Mg0_4 3.299704 1_555
Bi0_2 Mg0_7 3.299704 1_555
Bi0_2 Mg0_2 3.318617 1_555
Bi0_2 Mg0_1 3.318617 1_554
Bi0_3 Mg1_7 3.253738 1_555
Bi0_3 Mg2_1 3.253738 1_555
Bi0_3 Mg2_3 3.296095 1_555
Bi0_3 Mg1_0 3.296095 1_555
Bi0_3 Mg2_0 3.296095 1_555
Bi0_3 Mg1_3 3.296095 1_555
Bi0_3 Mg0_5 3.299704 1_555
Bi0_3 Mg0_6 3.299704 1_556
Bi0_3 Mg0_0 3.318617 1_555
Bi0_3 Mg0_3 3.318617 1_555
Bi0_4 Mg1_0 3.253738 1_655
Bi0_4 Mg2_6 3.253738 1_545
Bi0_4 Bi0_7 3.287726 1_555
Bi0_4 Bi0_7 3.287726 1_544
Bi0_4 Mg2_4 3.296095 1_555
Bi0_4 Mg2_7 3.296095 1_544
Bi0_4 Mg1_4 3.296095 1_555
Bi0_4 Mg1_7 3.296095 1_544
Bi0_4 Mg0_1 3.299704 1_655
Bi0_4 Mg0_2 3.299704 1_645
Bi0_4 Mg0_4 3.318617 1_555
Bi0_4 Mg0_7 3.318617 1_544
Bi0_5 Mg1_1 3.253738 1_655
Bi0_5 Mg2_7 3.253738 1_545
Bi0_5 Bi0_6 3.287726 1_556
Bi0_5 Bi0_6 3.287726 1_545
Bi0_5 Mg1_5 3.296095 1_555
Bi0_5 Mg2_6 3.296095 1_545
Bi0_5 Mg2_5 3.296095 1_555
Bi0_5 Mg1_6 3.296095 1_545
Bi0_5 Mg0_0 3.299704 1_656
Bi0_5 Mg0_3 3.299704 1_645
Bi0_5 Mg0_6 3.318617 1_545
Bi0_5 Mg0_5 3.318617 1_555
Bi0_6 Mg1_2 3.253738 1_655
Bi0_6 Mg2_4 3.253738 1_555
Bi0_6 Mg1_5 3.296095 1_554
Bi0_6 Mg1_6 3.296095 1_555
Bi0_6 Mg2_6 3.296095 1_555
Bi0_6 Mg2_5 3.296095 1_554
Bi0_6 Mg0_0 3.299704 1_655
Bi0_6 Mg0_3 3.299704 1_655
Bi0_6 Mg0_6 3.318617 1_555
Bi0_6 Mg0_5 3.318617 1_554
Bi0_7 Mg1_3 3.253738 1_655
Bi0_7 Mg2_5 3.253738 1_555
Bi0_7 Mg2_4 3.296095 1_555
Bi0_7 Mg1_4 3.296095 1_555
Bi0_7 Mg2_7 3.296095 1_555
Bi0_7 Mg1_7 3.296095 1_555
Bi0_7 Mg0_1 3.299704 1_655
Bi0_7 Mg0_2 3.299704 1_656
Bi0_7 Mg0_4 3.318617 1_555
Bi0_7 Mg0_7 3.318617 1_555
