# generated using pymatgen
data_Mg3Fe4(WO4)6
_symmetry_space_group_name_H-M   'P 1'
_cell_length_a   7.13646200
_cell_length_b   8.46430028
_cell_length_c   10.32983148
_cell_angle_alpha   103.84381022
_cell_angle_beta   104.48958329
_cell_angle_gamma   101.46313512
_symmetry_Int_Tables_number   1
_chemical_formula_structural   Mg3Fe4(WO4)6
_chemical_formula_sum   'Mg3 Fe4 W6 O24'
_cell_volume   563.94801921
_cell_formula_units_Z   1
loop_
 _symmetry_equiv_pos_site_id
 _symmetry_equiv_pos_as_xyz
  1  'x, y, z'
loop_
 _atom_site_type_symbol
 _atom_site_label
 _atom_site_symmetry_multiplicity
 _atom_site_fract_x
 _atom_site_fract_y
 _atom_site_fract_z
 _atom_site_occupancy
  Mg  Mg0  1  0.00000000  0.50000000  0.50000000  1
  Mg  Mg1  1  0.27061300  0.27249700  0.78454000  1
  Mg  Mg2  1  0.72938700  0.72750300  0.21546000  1
  Fe  Fe0  1  0.38232100  0.95950900  0.60637800  1
  Fe  Fe1  1  0.61767900  0.04049100  0.39362200  1
  Fe  Fe2  1  0.04694200  0.20032000  0.01386400  1
  Fe  Fe3  1  0.95305800  0.79968000  0.98613600  1
  W  W0  1  0.77718100  0.34382100  0.73036600  1
  W  W1  1  0.22281900  0.65617900  0.26963400  1
  W  W2  1  0.90011600  0.90308300  0.66551500  1
  W  W3  1  0.40596100  0.71894800  0.87790800  1
  W  W4  1  0.09988400  0.09691700  0.33448500  1
  W  W5  1  0.59403900  0.28105200  0.12209200  1
  O  O0  1  0.89565600  0.69078100  0.56633500  1
  O  O1  1  0.10434400  0.30921900  0.43366500  1
  O  O2  1  0.28522100  0.50320700  0.76074100  1
  O  O3  1  0.71477900  0.49679300  0.23925900  1
  O  O4  1  0.79041400  0.32720800  0.55338100  1
  O  O5  1  0.20958600  0.67279200  0.44661900  1
  O  O6  1  0.67148800  0.97646600  0.58565900  1
  O  O7  1  0.32851200  0.02353400  0.41434100  1
  O  O8  1  0.64060200  0.73121800  0.01249100  1
  O  O9  1  0.35939800  0.26878200  0.98750900  1
  O  O10  1  0.47363100  0.75915400  0.26796400  1
  O  O11  1  0.52636900  0.24084600  0.73203600  1
  O  O12  1  0.14610700  0.03750200  0.65853900  1
  O  O13  1  0.06729300  0.04566000  0.14027900  1
  O  O14  1  0.93270700  0.95434000  0.85972100  1
  O  O15  1  0.55328100  0.14572400  0.22824600  1
  O  O16  1  0.44671900  0.85427600  0.77175400  1
  O  O17  1  0.17398900  0.43704100  0.17866900  1
  O  O18  1  0.82601100  0.56295900  0.82133100  1
  O  O19  1  0.98846700  0.27746800  0.82545900  1
  O  O20  1  0.01153300  0.72253200  0.17454100  1
  O  O21  1  0.23341500  0.77793800  0.96653800  1
  O  O22  1  0.76658500  0.22206200  0.03346200  1
  O  O23  1  0.85389300  0.96249800  0.34146100  1
loop_
_geom_bond_atom_site_label_1
_geom_bond_atom_site_label_2
_geom_bond_distance
_geom_bond_site_symmetry_2
Mg0 O1 1.958434 1_555
Mg0 O0 1.958434 1_455
Mg0 O5 2.146960 1_555
Mg0 O4 2.146960 1_455
Mg1 O12 1.979860 1_555
Mg1 O2 2.011561 1_555
Mg1 O9 2.042801 1_555
Mg1 O11 2.077843 1_555
Mg1 O19 2.164664 1_455
Mg2 O23 1.979860 1_555
Mg2 O3 2.011561 1_555
Mg2 O8 2.042801 1_555
Mg2 O10 2.077843 1_555
Mg2 O20 2.164664 1_655
Fe0 O12 2.072304 1_565
Fe0 O16 2.102600 1_555
Fe0 O6 2.107832 1_555
Fe0 O7 2.142949 1_565
Fe0 O11 2.300518 1_565
Fe0 O5 2.451321 1_555
Fe1 O23 2.072304 1_545
Fe1 O15 2.102600 1_555
Fe1 O7 2.107832 1_555
Fe1 O6 2.142949 1_545
Fe1 O10 2.300518 1_545
Fe1 O4 2.451321 1_555
Fe2 O13 2.058828 1_555
Fe2 O22 2.099783 1_455
Fe2 O17 2.146652 1_555
Fe2 O14 2.150383 1_444
Fe2 O19 2.167557 1_454
Fe2 O9 2.290794 1_554
Fe3 O14 2.058828 1_555
Fe3 O21 2.099783 1_655
Fe3 O18 2.146652 1_555
Fe3 O13 2.150383 1_666
Fe3 O20 2.167557 1_656
Fe3 O8 2.290794 1_556
O0 W2 1.832954 1_555
O1 W4 1.832954 1_555
O2 W3 1.826744 1_555
O3 W5 1.826744 1_555
O4 W0 1.827498 1_555
O5 W1 1.827498 1_555
O6 W2 1.924288 1_555
O7 W4 1.924288 1_555
O8 W3 1.855892 1_554
O9 W5 1.855892 1_556
O10 W1 1.834755 1_555
O11 W0 1.834755 1_555
O12 W2 1.920974 1_445
O13 W4 1.891221 1_555
O14 W2 1.891221 1_555
O15 W5 1.796488 1_555
O16 W3 1.796488 1_555
O17 W1 1.786058 1_555
O18 W0 1.786058 1_555
O19 W0 1.847522 1_555
O20 W1 1.847522 1_555
O21 W3 1.787046 1_555
O22 W5 1.787046 1_555
O23 W4 1.920974 1_665
