# generated using pymatgen
data_Tb3Ga8Ir3
_symmetry_space_group_name_H-M   'P 1'
_cell_length_a   8.19745230
_cell_length_b   8.19745230
_cell_length_c   8.19745230
_cell_angle_alpha   150.10374876
_cell_angle_beta   105.52554255
_cell_angle_gamma   82.26466566
_symmetry_Int_Tables_number   1
_chemical_formula_structural   Tb3Ga8Ir3
_chemical_formula_sum   'Tb3 Ga8 Ir3'
_cell_volume   259.04052311
_cell_formula_units_Z   1
loop_
 _symmetry_equiv_pos_site_id
 _symmetry_equiv_pos_as_xyz
  1  'x, y, z'
loop_
 _atom_site_type_symbol
 _atom_site_label
 _atom_site_symmetry_multiplicity
 _atom_site_fract_x
 _atom_site_fract_y
 _atom_site_fract_z
 _atom_site_occupancy
  Tb  Tb0  1  0.50000000  0.50000000  0.00000000  1
  Tb  Tb1  1  0.17213500  0.17213500  0.00000000  1
  Tb  Tb2  1  0.82786500  0.82786500  0.00000000  1
  Ga  Ga0  1  0.66115200  0.37577600  0.28537600  1
  Ga  Ga1  1  0.33884800  0.62422400  0.71462400  1
  Ga  Ga2  1  0.09039900  0.37577600  0.71462400  1
  Ga  Ga3  1  0.90960100  0.62422400  0.28537600  1
  Ga  Ga4  1  0.53773000  0.16673500  0.37099500  1
  Ga  Ga5  1  0.46227000  0.83326500  0.62900500  1
  Ga  Ga6  1  0.79574000  0.16673500  0.62900500  1
  Ga  Ga7  1  0.20426000  0.83326500  0.37099500  1
  Ir  Ir0  1  0.00000000  0.50000000  0.50000000  1
  Ir  Ir1  1  0.21656900  0.00000000  0.21656900  1
  Ir  Ir2  1  0.78343100  0.00000000  0.78343100  1
loop_
_geom_bond_atom_site_label_1
_geom_bond_atom_site_label_2
_geom_bond_distance
_geom_bond_site_symmetry_2
Ga0 Ir2 2.612380 1_554
Ga0 Ir2 2.612380 1_565
Ga0 Ir0 2.624271 1_655
Ga0 Ga5 2.674556 1_555
Ga0 Ga5 2.674556 1_544
Ga0 Ga4 2.717508 1_555
Ga0 Tb2 3.058558 1_545
Ga0 Tb2 3.058558 1_556
Ga0 Tb0 3.220032 1_555
Ga1 Ir1 2.612380 1_555
Ga1 Ir1 2.612380 1_566
Ga1 Ir0 2.624271 1_555
Ga1 Ga4 2.674556 1_566
Ga1 Ga4 2.674556 1_555
Ga1 Ga5 2.717508 1_555
Ga1 Tb1 3.058558 1_555
Ga1 Tb1 3.058558 1_566
Ga1 Tb0 3.220032 1_556
Ga2 Ir1 2.612382 1_566
Ga2 Ir1 2.612385 1_555
Ga2 Ir0 2.624270 1_555
Ga2 Ga7 2.674556 1_556
Ga2 Ga7 2.674559 1_545
Ga2 Ga6 2.717500 1_455
Ga2 Tb2 3.058552 1_456
Ga2 Tb2 3.058555 1_445
Ga2 Tb0 3.220039 1_556
Ga3 Ir2 2.612382 1_554
Ga3 Ir2 2.612385 1_565
Ga3 Ir0 2.624270 1_655
Ga3 Ga6 2.674556 1_554
Ga3 Ga6 2.674559 1_565
Ga3 Ga7 2.717500 1_655
Ga3 Tb1 3.058552 1_655
Ga3 Tb1 3.058555 1_666
Ga3 Tb0 3.220039 1_555
Ga4 Ga6 2.559673 1_555
Ga4 Ir1 2.566383 1_555
Ga4 Tb2 3.173012 1_545
Ga4 Tb2 3.173012 1_556
Ga4 Tb0 3.216866 1_545
Ga4 Tb0 3.216866 1_556
Ga5 Ga7 2.559673 1_555
Ga5 Ir2 2.566383 1_565
Ga5 Tb1 3.173012 1_555
Ga5 Tb1 3.173012 1_566
Ga5 Tb0 3.216866 1_555
Ga5 Tb0 3.216866 1_566
Ga6 Ir2 2.566383 1_555
Ga6 Tb2 3.173012 1_545
Ga6 Tb2 3.173012 1_556
Ga6 Tb0 3.216866 1_545
Ga6 Tb0 3.216866 1_556
Ga7 Ir1 2.566383 1_565
Ga7 Tb1 3.173012 1_555
Ga7 Tb1 3.173012 1_566
Ga7 Tb0 3.216866 1_555
Ga7 Tb0 3.216866 1_566
Ir0 Tb1 2.998213 1_555
Ir0 Tb1 2.998213 1_566
Ir0 Tb2 2.998213 1_456
Ir0 Tb2 2.998213 1_445
Ir0 Ir1 3.014514 1_566
Ir0 Ir1 3.014514 1_555
Ir0 Ir2 3.014514 1_465
Ir0 Ir2 3.014514 1_454
Ir1 Tb1 3.022328 1_555
Ir1 Tb2 3.022328 1_445
Ir2 Tb1 3.022328 1_656
Ir2 Tb2 3.022328 1_546
