# generated using pymatgen
data_K2VPCO7
_symmetry_space_group_name_H-M   'P 1'
_cell_length_a   6.76151748
_cell_length_b   11.26364836
_cell_length_c   9.79549413
_cell_angle_alpha   89.46196774
_cell_angle_beta   90.05021575
_cell_angle_gamma   89.61030481
_symmetry_Int_Tables_number   1
_chemical_formula_structural   K2VPCO7
_chemical_formula_sum   'K8 V4 P4 C4 O28'
_cell_volume   745.96804148
_cell_formula_units_Z   4
loop_
 _symmetry_equiv_pos_site_id
 _symmetry_equiv_pos_as_xyz
  1  'x, y, z'
loop_
 _atom_site_type_symbol
 _atom_site_label
 _atom_site_symmetry_multiplicity
 _atom_site_fract_x
 _atom_site_fract_y
 _atom_site_fract_z
 _atom_site_occupancy
  K  K0  1  0.47887800  0.12580200  0.23632900  1
  K  K1  1  0.47705000  0.62619800  0.23698300  1
  K  K2  1  0.02446600  0.12099000  0.23494100  1
  K  K3  1  0.02302700  0.62056700  0.23367100  1
  K  K4  1  0.52745400  0.37601700  0.76109300  1
  K  K5  1  0.51911100  0.87481200  0.76657600  1
  K  K6  1  0.98168800  0.37720700  0.76799400  1
  K  K7  1  0.97360500  0.87842800  0.76235300  1
  V  V0  1  0.74994200  0.88797300  0.36078500  1
  V  V1  1  0.24959100  0.11189500  0.63935500  1
  V  V2  1  0.74685700  0.38863600  0.36055700  1
  V  V3  1  0.25227500  0.61141600  0.63937800  1
  P  P0  1  0.24634300  0.36179500  0.43343500  1
  P  P1  1  0.25256900  0.86165000  0.43386500  1
  P  P2  1  0.74992100  0.13839700  0.56625400  1
  P  P3  1  0.75062100  0.63813300  0.56638000  1
  C  C0  1  0.74919600  0.36605800  0.10612300  1
  C  C1  1  0.74991700  0.86601700  0.10641700  1
  C  C2  1  0.25099900  0.13408500  0.89373900  1
  C  C3  1  0.25085900  0.63386000  0.89378500  1
  O  O0  1  0.25114800  0.14636800  0.02021000  1
  O  O1  1  0.25067800  0.64650800  0.02019600  1
  O  O2  1  0.75123800  0.35358500  0.97968700  1
  O  O3  1  0.74920400  0.85381100  0.97994800  1
  O  O4  1  0.74021800  0.46920700  0.16883700  1
  O  O5  1  0.74455400  0.96910200  0.16952900  1
  O  O6  1  0.24310100  0.03104500  0.83071600  1
  O  O7  1  0.25871900  0.53067700  0.83116300  1
  O  O8  1  0.75626000  0.27643400  0.19503800  1
  O  O9  1  0.75617200  0.77615300  0.19508400  1
  O  O10  1  0.25879100  0.22378500  0.80501100  1
  O  O11  1  0.24305400  0.72344700  0.80482600  1
  O  O12  1  0.75443700  0.05593200  0.43925900  1
  O  O13  1  0.74993400  0.55679300  0.43830500  1
  O  O14  1  0.24823400  0.44326600  0.56145300  1
  O  O15  1  0.25050200  0.94410100  0.56094300  1
  O  O16  1  0.24330500  0.22795900  0.47777400  1
  O  O17  1  0.25900900  0.72818700  0.47942700  1
  O  O18  1  0.74167400  0.27183300  0.52056800  1
  O  O19  1  0.74512000  0.77204100  0.52225400  1
  O  O20  1  0.05868600  0.38792100  0.34620300  1
  O  O21  1  0.06275900  0.88421300  0.34763400  1
  O  O22  1  0.43521100  0.38516100  0.34681500  1
  O  O23  1  0.43944400  0.88703000  0.34587700  1
  O  O24  1  0.56223100  0.11128900  0.65240300  1
  O  O25  1  0.56330700  0.61239600  0.65378500  1
  O  O26  1  0.93882200  0.11762500  0.65433300  1
  O  O27  1  0.93981800  0.61419500  0.65270800  1
loop_
_geom_bond_atom_site_label_1
_geom_bond_atom_site_label_2
_geom_bond_distance
_geom_bond_site_symmetry_2
K0 O8 2.567408 1_555
K0 O5 2.598270 1_545
K0 O0 2.624219 1_555
K0 O12 2.826020 1_555
K0 O23 2.900302 1_545
K0 O16 3.080176 1_555
K0 O22 3.137011 1_555
K1 O9 2.571937 1_555
K1 O4 2.592337 1_555
K1 O1 2.623918 1_555
K1 O13 2.801712 1_555
K1 O22 2.926536 1_555
K1 O17 3.027785 1_555
K1 O23 3.143721 1_555
K2 O8 2.539633 1_455
K2 O0 2.618304 1_555
K2 O5 2.642345 1_445
K2 O12 2.805921 1_455
K2 O21 2.886721 1_545
K2 O16 3.061230 1_555
K2 O20 3.217398 1_555
K3 O9 2.532393 1_455
K3 O1 2.612981 1_555
K3 O4 2.651231 1_455
K3 O13 2.817999 1_455
K3 O20 2.841940 1_555
K3 O17 3.144014 1_555
K3 O21 3.195239 1_555
K4 O10 2.540676 1_555
K4 O7 2.605585 1_555
K4 O2 2.630061 1_555
K4 O14 2.812230 1_555
K4 O25 2.865165 1_555
K4 O18 3.010134 1_555
K4 O24 3.182844 1_555
K5 O11 2.561976 1_555
K5 O3 2.612443 1_555
K5 O6 2.636758 1_565
K5 O15 2.812435 1_555
K5 O24 2.895808 1_565
K5 O19 3.072021 1_555
K5 O25 3.177483 1_555
K6 O10 2.563453 1_655
K6 O2 2.607617 1_555
K6 O7 2.634737 1_655
K6 O14 2.809153 1_655
K6 O27 2.900587 1_555
K6 O26 3.153495 1_555
K6 O18 3.160673 1_555
K7 O11 2.545864 1_655
K7 O6 2.604992 1_665
K7 O3 2.631051 1_555
K7 O15 2.818290 1_655
K7 O26 2.893301 1_565
K7 O19 3.070145 1_555
K7 O27 3.183160 1_555
C0 O2 1.247834 1_554
C0 O4 1.320392 1_555
C0 O8 1.327667 1_555
C1 O3 1.247723 1_554
C1 O5 1.320846 1_555
C1 O9 1.327980 1_555
C2 O0 1.247838 1_556
C2 O6 1.321064 1_555
C2 O10 1.327889 1_555
C3 O1 1.247755 1_556
C3 O7 1.320021 1_555
C3 O11 1.327793 1_555
O4 V2 2.078403 1_555
O5 V0 2.076885 1_555
O6 V1 2.076903 1_555
O7 V3 2.079763 1_555
O8 V2 2.065807 1_555
O9 V0 2.064083 1_555
O10 V1 2.065089 1_555
O11 V3 2.064032 1_555
O12 P2 1.559670 1_555
O12 V0 2.049119 1_545
O13 P3 1.560438 1_555
O13 V2 2.048293 1_555
O14 P0 1.560936 1_555
O14 V3 2.048996 1_555
O15 P1 1.560048 1_555
O15 V1 2.046729 1_565
O16 P0 1.565152 1_555
O16 V1 2.043591 1_555
O17 P1 1.564420 1_555
O17 V3 2.036934 1_555
O18 P2 1.564769 1_555
O18 V2 2.037352 1_555
O19 P3 1.565287 1_555
O19 V0 2.042003 1_555
O20 P0 1.554028 1_555
O20 V2 2.113209 1_455
O21 P1 1.553969 1_555
O21 V0 2.119309 1_455
O22 P0 1.556370 1_555
O22 V2 2.112029 1_555
O23 P1 1.556710 1_555
O23 V0 2.104488 1_555
O24 P2 1.555055 1_555
O24 V1 2.117630 1_555
O25 P3 1.556727 1_555
O25 V3 2.107765 1_555
O26 P2 1.555868 1_555
O26 V1 2.107107 1_655
O27 P3 1.553517 1_555
O27 V3 2.116866 1_655
