# generated using pymatgen
data_Sm4TiFe33N4
_symmetry_space_group_name_H-M   'P 1'
_cell_length_a   6.57064778
_cell_length_b   6.49241448
_cell_length_c   13.04515510
_cell_angle_alpha   83.09961338
_cell_angle_beta   83.62829562
_cell_angle_gamma   83.71178400
_symmetry_Int_Tables_number   1
_chemical_formula_structural   Sm4TiFe33N4
_chemical_formula_sum   'Sm4 Ti1 Fe33 N4'
_cell_volume   546.43843625
_cell_formula_units_Z   1
loop_
 _symmetry_equiv_pos_site_id
 _symmetry_equiv_pos_as_xyz
  1  'x, y, z'
loop_
 _atom_site_type_symbol
 _atom_site_label
 _atom_site_symmetry_multiplicity
 _atom_site_fract_x
 _atom_site_fract_y
 _atom_site_fract_z
 _atom_site_occupancy
  Sm  Sm0  1  0.65948200  0.65798200  0.32895900  1
  Sm  Sm1  1  0.65929400  0.65757800  0.82948700  1
  Sm  Sm2  1  0.34079400  0.34242600  0.17091100  1
  Sm  Sm3  1  0.34750400  0.34897300  0.67415500  1
  Ti  Ti0  1  0.09398900  0.09293300  0.54653400  1
  Fe  Fe0  1  0.28227900  0.71678600  0.00066300  1
  Fe  Fe1  1  0.28251700  0.71396100  0.49974700  1
  Fe  Fe2  1  0.71831000  0.99804500  0.14189900  1
  Fe  Fe3  1  0.71473800  0.99623900  0.64196600  1
  Fe  Fe4  1  0.99975900  0.29230900  0.35415400  1
  Fe  Fe5  1  0.99992000  0.28931800  0.85548600  1
  Fe  Fe6  1  0.28304800  0.99909400  0.35673500  1
  Fe  Fe7  1  0.28122900  0.00257300  0.85798800  1
  Fe  Fe8  1  0.00027900  0.71108500  0.14423100  1
  Fe  Fe9  1  0.99963600  0.70739000  0.64638100  1
  Fe  Fe10  1  0.71775500  0.28334100  0.99914900  1
  Fe  Fe11  1  0.71457600  0.28259500  0.49874000  1
  Fe  Fe12  1  0.34046400  0.34638500  0.42669000  1
  Fe  Fe13  1  0.33893500  0.34549200  0.92771800  1
  Fe  Fe14  1  0.33993000  0.85421800  0.17221300  1
  Fe  Fe15  1  0.34072100  0.85317800  0.67335500  1
  Fe  Fe16  1  0.85438800  0.34304400  0.17169700  1
  Fe  Fe17  1  0.85199700  0.34447700  0.67243400  1
  Fe  Fe18  1  0.66124300  0.65446800  0.07250600  1
  Fe  Fe19  1  0.66082500  0.65458600  0.57241800  1
  Fe  Fe20  1  0.66047800  0.14508600  0.32718000  1
  Fe  Fe21  1  0.66030400  0.14553900  0.82761900  1
  Fe  Fe22  1  0.14530000  0.65668900  0.32791000  1
  Fe  Fe23  1  0.14530100  0.65692400  0.82859400  1
  Fe  Fe24  1  0.99997800  0.99988200  0.25019900  1
  Fe  Fe25  1  0.99856800  0.99965100  0.75125100  1
  Fe  Fe26  1  0.99844300  0.50328100  0.49988500  1
  Fe  Fe27  1  0.00007900  0.49997800  0.99987600  1
  Fe  Fe28  1  0.50005900  0.99982200  0.99978800  1
  Fe  Fe29  1  0.50327300  0.99837000  0.49937500  1
  Fe  Fe30  1  0.90364200  0.90537600  0.45123200  1
  Fe  Fe31  1  0.90452300  0.90473700  0.95269600  1
  Fe  Fe32  1  0.09510900  0.09470700  0.04793700  1
  N  N0  1  0.49984300  0.49999100  0.00013400  1
  N  N1  1  0.50092400  0.50071300  0.49994100  1
  N  N2  1  0.50182700  0.00096700  0.24894900  1
  N  N3  1  0.49873400  0.99980800  0.75121700  1
loop_
_geom_bond_atom_site_label_1
_geom_bond_atom_site_label_2
_geom_bond_distance
_geom_bond_site_symmetry_2
Sm3 Ti0 3.193248 1_555
Fe0 N0 1.893176 1_555
Fe0 Fe28 2.447824 1_554
Fe0 Fe27 2.449308 1_554
Fe0 Fe8 2.484037 1_555
Fe0 Fe23 2.595053 1_554
Fe0 Fe32 2.728969 1_565
Fe0 Fe31 2.745755 1_454
Fe1 N1 1.881754 1_555
Fe1 Fe26 2.431645 1_455
Fe1 Fe29 2.469125 1_555
Fe1 Fe9 2.514812 1_455
Fe1 Fe22 2.588130 1_555
Fe1 Ti0 2.736086 1_565
Fe2 N2 1.879735 1_565
Fe2 Fe24 2.451652 1_555
Fe2 Fe28 2.464700 1_554
Fe2 Fe8 2.479365 1_655
Fe2 Fe31 2.735431 1_554
Fe2 Fe32 2.740056 1_665
Fe3 N3 1.896803 1_555
Fe3 Fe9 2.500676 1_555
Fe3 Ti0 2.760428 1_665
Fe4 Fe6 2.512402 1_645
Fe4 Ti0 2.783140 1_655
Fe4 Sm0 3.091307 1_555
Fe4 Sm2 3.102456 1_655
Fe5 Fe7 2.475556 1_655
Fe5 Sm1 3.105169 1_555
Fe5 Sm3 3.120265 1_655
Fe6 N2 1.895988 1_565
Fe6 Ti0 2.749308 1_565
Fe7 N3 1.881853 1_545
Fe8 Sm2 3.107323 1_555
Fe8 Sm0 3.116419 1_455
Fe9 Ti0 2.779161 1_665
Fe9 Sm3 3.096248 1_655
Fe9 Sm1 3.098113 1_555
Fe10 N0 1.894157 1_556
Fe10 Fe27 2.449123 1_655
Fe10 Fe28 2.450476 1_545
Fe10 Fe5 2.485598 1_555
Fe10 Fe16 2.599473 1_556
Fe10 Fe31 2.728975 1_545
Fe10 Fe32 2.747804 1_656
Fe11 N1 1.881841 1_555
Fe11 Fe29 2.426496 1_545
Fe11 Fe26 2.475636 1_555
Fe11 Fe4 2.507116 1_555
Fe11 Fe17 2.619770 1_555
Fe11 Ti0 2.758266 1_655
Fe12 N1 1.927106 1_555
Fe12 Fe26 2.501131 1_455
Fe12 Fe29 2.515842 1_545
Fe12 Fe22 2.557473 1_555
Fe12 Fe4 2.598532 1_455
Fe12 Ti0 2.679239 1_555
Fe13 N0 1.923040 1_556
Fe13 Fe27 2.474238 1_555
Fe13 Fe28 2.496952 1_545
Fe13 Fe23 2.559780 1_555
Fe13 Fe5 2.590229 1_455
Fe13 Fe32 2.660342 1_556
Fe14 N2 1.931051 1_565
Fe14 Fe24 2.486531 1_455
Fe14 Fe28 2.498344 1_554
Fe14 Fe22 2.561696 1_555
Fe14 Fe8 2.587285 1_555
Fe14 Fe32 2.659742 1_565
Fe15 N3 1.923240 1_555
Fe15 Fe25 2.499596 1_455
Fe15 Fe29 2.519694 1_555
Fe15 Fe23 2.556278 1_555
Fe15 Fe9 2.600427 1_455
Fe15 Ti0 2.685512 1_565
Fe16 Fe24 2.475869 1_545
Fe16 Fe27 2.483381 1_654
Fe16 Fe18 2.558654 1_555
Fe16 Fe20 2.558887 1_555
Fe16 Fe2 2.587020 1_545
Fe16 Fe4 2.633142 1_555
Fe16 Fe8 2.641342 1_655
Fe16 Fe32 2.684742 1_655
Fe16 Sm0 3.143370 1_555
Fe16 Sm2 3.194445 1_655
Fe16 Sm2 3.376242 1_555
Fe17 Fe25 2.488180 1_545
Fe17 Fe26 2.496905 1_555
Fe17 Fe19 2.551922 1_555
Fe17 Fe21 2.552458 1_555
Fe17 Fe3 2.612513 1_545
Fe17 Fe9 2.615964 1_555
Fe17 Fe5 2.647380 1_555
Fe17 Ti0 2.718236 1_655
Fe17 Sm1 3.129543 1_555
Fe17 Sm3 3.261718 1_655
Fe17 Sm3 3.309381 1_555
Fe18 N0 1.924735 1_555
Fe18 Fe27 2.476174 1_654
Fe18 Fe28 2.498124 1_554
Fe18 Fe8 2.588016 1_655
Fe18 Fe31 2.653746 1_554
Fe19 N1 1.916554 1_555
Fe19 Fe26 2.462017 1_555
Fe19 Fe29 2.482566 1_555
Fe19 Fe9 2.593821 1_555
Fe20 N2 1.919093 1_555
Fe20 Fe24 2.478502 1_545
Fe20 Fe29 2.491304 1_545
Fe20 Fe4 2.594014 1_555
Fe21 N3 1.922776 1_545
Fe21 Fe25 2.470571 1_545
Fe21 Fe28 2.496156 1_545
Fe21 Fe5 2.588631 1_555
Fe21 Fe31 2.664597 1_545
Fe22 Fe24 2.471869 1_455
Fe22 Fe26 2.479773 1_455
Fe22 Fe6 2.572866 1_555
Fe22 Fe4 2.618508 1_455
Fe22 Fe8 2.646474 1_555
Fe22 Fe30 2.685475 1_455
Fe22 Sm2 3.139044 1_555
Fe22 Sm0 3.189745 1_455
Fe22 Sm0 3.380988 1_555
Fe23 Fe25 2.470874 1_455
Fe23 Fe27 2.476694 1_555
Fe23 Fe7 2.588925 1_565
Fe23 Fe9 2.631095 1_455
Fe23 Fe5 2.637333 1_455
Fe23 Fe31 2.685562 1_455
Fe23 Sm3 3.100546 1_555
Fe23 Sm1 3.191648 1_455
Fe23 Sm1 3.379049 1_555
Fe24 Fe6 2.441492 1_655
Fe24 Fe8 2.459252 1_655
Fe24 Fe4 2.461946 1_565
Fe24 Fe30 2.642853 1_555
Fe24 Fe32 2.656978 1_665
Fe24 Sm0 3.319344 1_555
Fe24 Sm2 3.324860 1_665
Fe25 Fe7 2.444715 1_665
Fe25 Fe5 2.450845 1_565
Fe25 Fe9 2.467939 1_555
Fe25 Fe3 2.473404 1_555
Fe25 Fe31 2.645980 1_555
Fe25 Ti0 2.686021 1_665
Fe25 Sm1 3.313367 1_555
Fe25 Sm3 3.389820 1_665
Fe26 Fe9 2.454056 1_555
Fe26 Fe4 2.471795 1_555
Fe26 Fe30 2.634255 1_555
Fe26 Ti0 2.681602 1_655
Fe26 Sm0 3.318899 1_555
Fe26 Sm3 3.396913 1_655
Fe27 Fe5 2.457288 1_455
Fe27 Fe8 2.458831 1_556
Fe27 Fe31 2.648468 1_455
Fe27 Fe32 2.652681 1_556
Fe27 Sm1 3.325328 1_455
Fe27 Sm2 3.330909 1_556
Fe28 Fe7 2.462986 1_565
Fe28 Fe31 2.681537 1_555
Fe28 Fe32 2.686401 1_566
Fe28 Sm1 3.335927 1_555
Fe28 Sm2 3.345256 1_566
Fe29 Fe3 2.440106 1_555
Fe29 Fe6 2.479992 1_555
Fe29 Fe30 2.656298 1_555
Fe29 Ti0 2.710975 1_565
Fe29 Sm0 3.325158 1_555
Fe29 Sm3 3.412656 1_565
Fe30 Ti0 2.373853 1_665
Fe30 Fe4 2.778309 1_565
Fe30 Fe9 2.814861 1_555
Fe31 Fe32 2.384303 1_666
Fe31 Fe7 2.744739 1_665
Fe31 Fe8 2.764130 1_656
Fe31 Fe5 2.764223 1_565
Fe31 Sm1 3.084733 1_555
Fe32 Fe7 2.741667 1_554
Fe32 Fe8 2.753891 1_545
Fe32 Fe5 2.775552 1_454
Fe32 Sm2 3.087006 1_555
N0 Sm1 2.503979 1_554
N0 Sm2 2.504314 1_555
N1 Sm0 2.504604 1_555
N1 Sm3 2.514506 1_555
N2 Sm2 2.500696 1_555
N2 Sm0 2.509445 1_545
N3 Sm1 2.504561 1_555
N3 Sm3 2.513487 1_565
