# generated using pymatgen
data_YTe(WO4)2
_symmetry_space_group_name_H-M   'P 1'
_cell_length_a   5.13829200
_cell_length_b   6.59951937
_cell_length_c   11.00033094
_cell_angle_alpha   104.90630347
_cell_angle_beta   95.13725593
_cell_angle_gamma   90.74865386
_symmetry_Int_Tables_number   1
_chemical_formula_structural   YTe(WO4)2
_chemical_formula_sum   'Y2 Te2 W4 O16'
_cell_volume   358.77034748
_cell_formula_units_Z   2
loop_
 _symmetry_equiv_pos_site_id
 _symmetry_equiv_pos_as_xyz
  1  'x, y, z'
loop_
 _atom_site_type_symbol
 _atom_site_label
 _atom_site_symmetry_multiplicity
 _atom_site_fract_x
 _atom_site_fract_y
 _atom_site_fract_z
 _atom_site_occupancy
  Y  Y0  1  0.78290600  0.72992600  0.72523100  1
  Y  Y1  1  0.21709400  0.27007400  0.27476900  1
  Te  Te0  1  0.28803100  0.35516100  0.75072700  1
  Te  Te1  1  0.71196900  0.64483900  0.24927300  1
  W  W0  1  0.75605800  0.14839100  0.50611400  1
  W  W1  1  0.75211200  0.14999800  0.99798100  1
  W  W2  1  0.24394200  0.85160900  0.49388600  1
  W  W3  1  0.24788800  0.85000200  0.00201900  1
  O  O0  1  0.60728600  0.30546000  0.89944300  1
  O  O1  1  0.93626700  0.39893700  0.63453300  1
  O  O2  1  0.39271400  0.69454000  0.10055700  1
  O  O3  1  0.06373300  0.60106300  0.36546700  1
  O  O4  1  0.55056300  0.87176900  0.39164500  1
  O  O5  1  0.99090900  0.97596600  0.11051200  1
  O  O6  1  0.44943700  0.12823100  0.60835500  1
  O  O7  1  0.00909100  0.02403400  0.88948800  1
  O  O8  1  0.07770700  0.63231300  0.87469800  1
  O  O9  1  0.40862800  0.71256800  0.60109600  1
  O  O10  1  0.92229300  0.36768700  0.12530200  1
  O  O11  1  0.59137200  0.28743200  0.39890400  1
  O  O12  1  0.54352700  0.87204800  0.89943800  1
  O  O13  1  0.45647300  0.12795200  0.10056200  1
  O  O14  1  0.92008500  0.92509300  0.59154100  1
  O  O15  1  0.07991500  0.07490700  0.40845900  1
loop_
_geom_bond_atom_site_label_1
_geom_bond_atom_site_label_2
_geom_bond_distance
_geom_bond_site_symmetry_2
O0 W1 1.796941 1_555
O0 Te0 2.298775 1_555
O1 W0 2.027566 1_555
O1 Te0 2.184952 1_655
O1 Y0 2.335037 1_555
O2 W3 1.796941 1_555
O2 Te1 2.298775 1_555
O3 W2 2.027566 1_555
O3 Te1 2.184952 1_455
O3 Y1 2.335037 1_555
O4 W2 2.038057 1_555
O4 Te1 2.107574 1_555
O4 W0 2.135899 1_565
O5 W3 1.912962 1_655
O5 W1 2.203016 1_564
O5 Y1 2.478621 1_665
O6 W0 2.038057 1_555
O6 Te0 2.107574 1_555
O6 W2 2.135899 1_545
O7 W1 1.912962 1_455
O7 W3 2.203016 1_546
O7 Y0 2.478621 1_445
O8 W3 1.871588 1_556
O8 Te0 2.324965 1_555
O8 Y0 2.353144 1_455
O9 W2 1.829546 1_555
O9 Y0 2.240482 1_555
O10 W1 1.871588 1_554
O10 Te1 2.324965 1_555
O10 Y1 2.353144 1_655
O11 W0 1.829546 1_555
O11 Y1 2.240482 1_555
O12 W3 1.996944 1_556
O12 W1 2.099074 1_565
O12 Y0 2.364847 1_555
O13 W1 1.996944 1_554
O13 W3 2.099074 1_545
O13 Y1 2.364847 1_555
O14 W2 2.057062 1_655
O14 W0 2.090021 1_565
O14 Y0 2.335594 1_555
O15 W0 2.057062 1_455
O15 W2 2.090021 1_545
O15 Y1 2.335594 1_555
