# generated using pymatgen
data_Hf9CoRe4
_symmetry_space_group_name_H-M   'P 1'
_cell_length_a   8.56553756
_cell_length_b   8.56553756
_cell_length_c   8.47804700
_cell_angle_alpha   90.00000000
_cell_angle_beta   90.00000000
_cell_angle_gamma   119.99999662
_symmetry_Int_Tables_number   1
_chemical_formula_structural   Hf9CoRe4
_chemical_formula_sum   'Hf18 Co2 Re8'
_cell_volume   538.68603160
_cell_formula_units_Z   2
loop_
 _symmetry_equiv_pos_site_id
 _symmetry_equiv_pos_as_xyz
  1  'x, y, z'
loop_
 _atom_site_type_symbol
 _atom_site_label
 _atom_site_symmetry_multiplicity
 _atom_site_fract_x
 _atom_site_fract_y
 _atom_site_fract_z
 _atom_site_occupancy
  Hf  Hf0  1  0.19965500  0.80034500  0.44217100  1
  Hf  Hf1  1  0.19965500  0.39931100  0.44217100  1
  Hf  Hf2  1  0.60068900  0.80034500  0.44217100  1
  Hf  Hf3  1  0.80034500  0.19965500  0.55782900  1
  Hf  Hf4  1  0.80034500  0.60068900  0.55782900  1
  Hf  Hf5  1  0.39931100  0.19965500  0.55782900  1
  Hf  Hf6  1  0.80034500  0.19965500  0.94217100  1
  Hf  Hf7  1  0.80034500  0.60068900  0.94217100  1
  Hf  Hf8  1  0.39931100  0.19965500  0.94217100  1
  Hf  Hf9  1  0.19965500  0.80034500  0.05782900  1
  Hf  Hf10  1  0.19965500  0.39931100  0.05782900  1
  Hf  Hf11  1  0.60068900  0.80034500  0.05782900  1
  Hf  Hf12  1  0.54098300  0.45901700  0.25000000  1
  Hf  Hf13  1  0.54098300  0.08196600  0.25000000  1
  Hf  Hf14  1  0.91803400  0.45901700  0.25000000  1
  Hf  Hf15  1  0.45901700  0.54098300  0.75000000  1
  Hf  Hf16  1  0.45901700  0.91803400  0.75000000  1
  Hf  Hf17  1  0.08196600  0.54098300  0.75000000  1
  Co  Co0  1  0.33333300  0.66666700  0.25000000  1
  Co  Co1  1  0.66666700  0.33333300  0.75000000  1
  Re  Re0  1  0.88923800  0.11076200  0.25000000  1
  Re  Re1  1  0.88923800  0.77847700  0.25000000  1
  Re  Re2  1  0.22152300  0.11076200  0.25000000  1
  Re  Re3  1  0.11076200  0.88923800  0.75000000  1
  Re  Re4  1  0.11076200  0.22152300  0.75000000  1
  Re  Re5  1  0.77847700  0.88923800  0.75000000  1
  Re  Re6  1  0.00000000  0.00000000  0.50000000  1
  Re  Re7  1  0.00000000  0.00000000  0.00000000  1
loop_
_geom_bond_atom_site_label_1
_geom_bond_atom_site_label_2
_geom_bond_distance
_geom_bond_site_symmetry_2
Hf0 Re3 2.924083 1_555
Hf0 Re6 3.002372 1_565
Hf0 Re2 3.043212 1_565
Hf0 Re1 3.043212 1_455
Hf1 Re4 2.924090 1_555
Hf1 Re6 3.002379 1_555
Hf1 Re2 3.043212 1_555
Hf1 Re0 3.043212 1_455
Hf2 Re5 2.924090 1_555
Hf2 Re6 3.002379 1_665
Hf2 Re1 3.043212 1_555
Hf2 Re0 3.043212 1_565
Hf3 Re0 2.924083 1_555
Hf3 Re6 3.002372 1_655
Hf3 Re5 3.043212 1_545
Hf3 Re4 3.043212 1_655
Hf4 Re1 2.924090 1_555
Hf4 Re6 3.002379 1_665
Hf4 Re5 3.043212 1_555
Hf4 Re3 3.043212 1_655
Hf5 Re2 2.924090 1_555
Hf5 Re6 3.002379 1_555
Hf5 Re4 3.043212 1_555
Hf5 Re3 3.043212 1_545
Hf6 Re0 2.924083 1_556
Hf6 Re7 3.002372 1_656
Hf6 Re5 3.043212 1_545
Hf6 Re4 3.043212 1_655
Hf7 Re1 2.924090 1_556
Hf7 Re7 3.002379 1_666
Hf7 Re5 3.043212 1_555
Hf7 Re3 3.043212 1_655
Hf8 Re2 2.924090 1_556
Hf8 Re7 3.002379 1_556
Hf8 Re4 3.043212 1_555
Hf8 Re3 3.043212 1_545
Hf9 Re3 2.924083 1_554
Hf9 Re7 3.002372 1_565
Hf9 Re2 3.043212 1_565
Hf9 Re1 3.043212 1_455
Hf10 Re4 2.924090 1_554
Hf10 Re7 3.002379 1_555
Hf10 Re2 3.043212 1_555
Hf10 Re0 3.043212 1_455
Hf11 Re5 2.924090 1_554
Hf11 Re7 3.002379 1_665
Hf11 Re1 3.043212 1_555
Hf11 Re0 3.043212 1_565
Hf12 Re2 2.867635 1_555
Hf12 Re1 2.867635 1_555
Hf13 Re0 2.867632 1_555
Hf13 Re2 2.867640 1_555
Hf14 Re0 2.867632 1_555
Hf14 Re1 2.867640 1_555
Hf15 Re4 2.867635 1_555
Hf15 Re5 2.867635 1_555
Hf16 Re3 2.867632 1_555
Hf16 Re5 2.867640 1_555
Hf17 Re3 2.867632 1_555
Hf17 Re4 2.867640 1_555
Co0 Hf0 2.566641 1_555
Co0 Hf9 2.566641 1_555
Co0 Hf2 2.566641 1_555
Co0 Hf11 2.566641 1_555
Co0 Hf1 2.566641 1_555
Co0 Hf10 2.566641 1_555
Co0 Hf13 3.080677 1_565
Co0 Hf14 3.080677 1_455
Co0 Hf12 3.080684 1_555
Co1 Hf3 2.566641 1_555
Co1 Hf6 2.566641 1_555
Co1 Hf4 2.566641 1_555
Co1 Hf7 2.566641 1_555
Co1 Hf5 2.566641 1_555
Co1 Hf8 2.566641 1_555
Co1 Hf17 3.080677 1_655
Co1 Hf16 3.080677 1_545
Co1 Hf15 3.080684 1_555
Re0 Re6 2.681908 1_655
Re0 Re7 2.681908 1_655
Re0 Re2 2.846200 1_655
Re0 Re1 2.846200 1_545
Re1 Re7 2.681903 1_665
Re1 Re6 2.681903 1_665
Re1 Re2 2.846200 1_665
Re2 Re6 2.681903 1_555
Re2 Re7 2.681903 1_555
Re3 Re6 2.681908 1_565
Re3 Re7 2.681908 1_566
Re3 Re4 2.846200 1_565
Re3 Re5 2.846200 1_455
Re4 Re6 2.681903 1_555
Re4 Re7 2.681903 1_556
Re4 Re5 2.846200 1_445
Re5 Re6 2.681903 1_665
Re5 Re7 2.681903 1_666
