# generated using pymatgen
data_LiYbGe2
_symmetry_space_group_name_H-M   'P 1'
_cell_length_a   3.78184414
_cell_length_b   7.78111875
_cell_length_c   10.18335074
_cell_angle_alpha   90.00000000
_cell_angle_beta   90.00000000
_cell_angle_gamma   90.00000000
_symmetry_Int_Tables_number   1
_chemical_formula_structural   LiYbGe2
_chemical_formula_sum   'Li4 Yb4 Ge8'
_cell_volume   299.66524196
_cell_formula_units_Z   4
loop_
 _symmetry_equiv_pos_site_id
 _symmetry_equiv_pos_as_xyz
  1  'x, y, z'
loop_
 _atom_site_type_symbol
 _atom_site_label
 _atom_site_symmetry_multiplicity
 _atom_site_fract_x
 _atom_site_fract_y
 _atom_site_fract_z
 _atom_site_occupancy
  Li  Li0  1  0.25000000  0.47983709  0.39673460  1
  Li  Li1  1  0.75000000  0.52016291  0.60326540  1
  Li  Li2  1  0.25000000  0.97983709  0.10326540  1
  Li  Li3  1  0.75000000  0.02016291  0.89673460  1
  Yb  Yb0  1  0.25000000  0.13309499  0.63940547  1
  Yb  Yb1  1  0.75000000  0.86690501  0.36059453  1
  Yb  Yb2  1  0.25000000  0.63309499  0.86059453  1
  Yb  Yb3  1  0.75000000  0.36690501  0.13940547  1
  Ge  Ge0  1  0.75000000  0.35115487  0.80881839  1
  Ge  Ge1  1  0.25000000  0.64884513  0.19118161  1
  Ge  Ge2  1  0.75000000  0.85115487  0.69118161  1
  Ge  Ge3  1  0.25000000  0.14884513  0.30881839  1
  Ge  Ge4  1  0.75000000  0.26208556  0.44114089  1
  Ge  Ge5  1  0.25000000  0.73791444  0.55885911  1
  Ge  Ge6  1  0.75000000  0.76208556  0.05885911  1
  Ge  Ge7  1  0.25000000  0.23791444  0.94114089  1
loop_
_geom_bond_atom_site_label_1
_geom_bond_atom_site_label_2
_geom_bond_distance
_geom_bond_site_symmetry_2
Ge0 Li1 2.472039 1_555
Ge0 Ge7 2.483487 1_655
Ge0 Ge7 2.483487 1_555
Ge0 Li3 2.726658 1_555
Ge0 Yb2 2.943872 1_555
Ge0 Yb2 2.943872 1_655
Ge0 Yb0 3.070966 1_555
Ge0 Yb0 3.070966 1_655
Ge1 Li0 2.472039 1_555
Ge1 Ge6 2.483487 1_455
Ge1 Ge6 2.483487 1_555
Ge1 Li2 2.726658 1_555
Ge1 Yb3 2.943872 1_555
Ge1 Yb3 2.943872 1_455
Ge1 Yb1 3.070966 1_455
Ge1 Yb1 3.070966 1_555
Ge2 Li3 2.472039 1_565
Ge2 Ge5 2.483487 1_655
Ge2 Ge5 2.483487 1_555
Ge2 Li1 2.726658 1_555
Ge2 Yb0 2.943872 1_565
Ge2 Yb0 2.943872 1_665
Ge2 Yb2 3.070966 1_555
Ge2 Yb2 3.070966 1_655
Ge3 Li2 2.472039 1_545
Ge3 Ge4 2.483487 1_455
Ge3 Ge4 2.483487 1_555
Ge3 Li0 2.726658 1_555
Ge3 Yb1 2.943872 1_445
Ge3 Yb1 2.943872 1_545
Ge3 Yb3 3.070966 1_555
Ge3 Yb3 3.070966 1_455
Ge4 Li0 2.578934 1_555
Ge4 Li0 2.578934 1_655
Ge4 Li1 2.599672 1_555
Ge4 Yb0 2.942675 1_655
Ge4 Yb0 2.942675 1_555
Ge4 Yb3 3.179083 1_555
Ge4 Yb1 3.182464 1_545
Ge5 Li1 2.578934 1_455
Ge5 Li1 2.578934 1_555
Ge5 Li0 2.599672 1_555
Ge5 Yb1 2.942675 1_455
Ge5 Yb1 2.942675 1_555
Ge5 Yb2 3.179083 1_555
Ge5 Yb0 3.182464 1_565
Ge6 Li2 2.578934 1_555
Ge6 Li2 2.578934 1_655
Ge6 Li3 2.599672 1_564
Ge6 Yb2 2.942675 1_554
Ge6 Yb2 2.942675 1_654
Ge6 Yb1 3.179083 1_555
Ge6 Yb3 3.182464 1_555
Ge7 Li3 2.578934 1_455
Ge7 Li3 2.578934 1_555
Ge7 Li2 2.599672 1_546
Ge7 Yb3 2.942675 1_456
Ge7 Yb3 2.942675 1_556
Ge7 Yb0 3.179083 1_555
Ge7 Yb2 3.182464 1_555
