# generated using pymatgen
data_Cs2NaAl3F12
_symmetry_space_group_name_H-M   'P 1'
_cell_length_a   7.43163338
_cell_length_b   7.43163338
_cell_length_c   7.43163279
_cell_angle_alpha   57.46966103
_cell_angle_beta   57.46966103
_cell_angle_gamma   57.46966040
_symmetry_Int_Tables_number   1
_chemical_formula_structural   Cs2NaAl3F12
_chemical_formula_sum   'Cs2 Na1 Al3 F12'
_cell_volume   273.33416247
_cell_formula_units_Z   1
loop_
 _symmetry_equiv_pos_site_id
 _symmetry_equiv_pos_as_xyz
  1  'x, y, z'
loop_
 _atom_site_type_symbol
 _atom_site_label
 _atom_site_symmetry_multiplicity
 _atom_site_fract_x
 _atom_site_fract_y
 _atom_site_fract_z
 _atom_site_occupancy
  Cs  Cs0  1  0.62298900  0.62298900  0.62298900  1
  Cs  Cs1  1  0.37701100  0.37701100  0.37701100  1
  Na  Na0  1  0.00000000  0.00000000  0.00000000  1
  Al  Al0  1  0.50000000  0.00000000  0.00000000  1
  Al  Al1  1  0.00000000  0.00000000  0.50000000  1
  Al  Al2  1  0.00000000  0.50000000  0.00000000  1
  F  F0  1  0.08475400  0.08475400  0.61745400  1
  F  F1  1  0.61745400  0.08475400  0.08475400  1
  F  F2  1  0.08475400  0.61745400  0.08475400  1
  F  F3  1  0.91524600  0.38254600  0.91524600  1
  F  F4  1  0.91524600  0.91524600  0.38254600  1
  F  F5  1  0.38254600  0.91524600  0.91524600  1
  F  F6  1  0.92254000  0.29711300  0.29711300  1
  F  F7  1  0.29711300  0.29711300  0.92254000  1
  F  F8  1  0.29711300  0.92254000  0.29711300  1
  F  F9  1  0.70288700  0.07746000  0.70288700  1
  F  F10  1  0.07746000  0.70288700  0.70288700  1
  F  F11  1  0.70288700  0.70288700  0.07746000  1
loop_
_geom_bond_atom_site_label_1
_geom_bond_atom_site_label_2
_geom_bond_distance
_geom_bond_site_symmetry_2
Cs0 F3 3.058289 1_555
Cs0 F5 3.058289 1_555
Cs0 F4 3.058289 1_555
Cs0 F6 3.375972 1_555
Cs0 F8 3.375972 1_555
Cs0 F7 3.375972 1_555
Cs0 F11 3.513210 1_555
Cs0 F10 3.513211 1_555
Cs0 F9 3.513211 1_555
Cs0 F2 3.611108 1_655
Cs0 F1 3.611108 1_565
Cs0 F1 3.611108 1_556
Cs0 F2 3.611108 1_556
Cs0 F0 3.611108 1_565
Cs0 F0 3.611108 1_655
Cs1 F1 3.058289 1_555
Cs1 F2 3.058289 1_555
Cs1 F0 3.058289 1_555
Cs1 F10 3.375972 1_555
Cs1 F9 3.375972 1_555
Cs1 F11 3.375972 1_555
Cs1 F7 3.513210 1_555
Cs1 F6 3.513211 1_555
Cs1 F8 3.513211 1_555
Cs1 F5 3.611108 1_545
Cs1 F3 3.611108 1_455
Cs1 F3 3.611108 1_554
Cs1 F5 3.611108 1_554
Cs1 F4 3.611108 1_545
Cs1 F4 3.611108 1_455
Al0 F1 1.778939 1_555
Al0 F5 1.778939 1_544
Al0 F9 1.861747 1_554
Al0 F8 1.861747 1_545
Al0 F7 1.861747 1_554
Al0 F11 1.861747 1_545
Al1 F0 1.778939 1_555
Al1 F4 1.778939 1_445
Al1 F6 1.861747 1_455
Al1 F9 1.861747 1_455
Al1 F10 1.861747 1_545
Al1 F8 1.861747 1_545
Al2 F2 1.778939 1_555
Al2 F3 1.778939 1_454
Al2 F6 1.861747 1_455
Al2 F10 1.861747 1_554
Al2 F7 1.861747 1_554
Al2 F11 1.861747 1_455
F0 Na0 2.334687 1_556
F1 Na0 2.334687 1_655
F2 Na0 2.334687 1_565
F3 Na0 2.334687 1_656
F4 Na0 2.334687 1_665
F5 Na0 2.334687 1_566
