# generated using pymatgen
data_Mg6FeW
_symmetry_space_group_name_H-M   'P 1'
_cell_length_a   4.68448200
_cell_length_b   5.84998200
_cell_length_c   10.90667000
_cell_angle_alpha   90.00000000
_cell_angle_beta   90.00000000
_cell_angle_gamma   90.00000000
_symmetry_Int_Tables_number   1
_chemical_formula_structural   Mg6FeW
_chemical_formula_sum   'Mg12 Fe2 W2'
_cell_volume   298.88786122
_cell_formula_units_Z   2
loop_
 _symmetry_equiv_pos_site_id
 _symmetry_equiv_pos_as_xyz
  1  'x, y, z'
loop_
 _atom_site_type_symbol
 _atom_site_label
 _atom_site_symmetry_multiplicity
 _atom_site_fract_x
 _atom_site_fract_y
 _atom_site_fract_z
 _atom_site_occupancy
  Mg  Mg0  1  0.00000000  0.26204600  0.08138600  1
  Mg  Mg1  1  0.00000000  0.73795400  0.08138600  1
  Mg  Mg2  1  0.00000000  0.00000000  0.32639200  1
  Mg  Mg3  1  0.50000000  0.74198700  0.42311000  1
  Mg  Mg4  1  0.50000000  0.25801300  0.42311000  1
  Mg  Mg5  1  0.50000000  0.00000000  0.17060700  1
  Mg  Mg6  1  0.00000000  0.76204600  0.58138600  1
  Mg  Mg7  1  0.00000000  0.23795400  0.58138600  1
  Mg  Mg8  1  0.00000000  0.50000000  0.82639200  1
  Mg  Mg9  1  0.50000000  0.24198700  0.92311000  1
  Mg  Mg10  1  0.50000000  0.75801300  0.92311000  1
  Mg  Mg11  1  0.50000000  0.50000000  0.67060700  1
  Fe  Fe0  1  0.00000000  0.50000000  0.30221900  1
  Fe  Fe1  1  0.00000000  0.00000000  0.80221900  1
  W  W0  1  0.50000000  0.50000000  0.19179000  1
  W  W1  1  0.50000000  0.00000000  0.69179000  1
loop_
_geom_bond_atom_site_label_1
_geom_bond_atom_site_label_2
_geom_bond_distance
_geom_bond_site_symmetry_2
Mg0 Mg1 2.784053 1_555
Mg0 Mg9 2.912018 1_554
Mg0 Mg9 2.912018 1_454
Mg0 Mg5 2.963613 1_455
Mg0 Mg5 2.963613 1_555
Mg0 W0 2.978890 1_555
Mg0 W0 2.978890 1_455
Mg0 Mg1 3.065929 1_545
Mg0 Mg2 3.080687 1_555
Mg0 Mg8 3.110057 1_554
Mg1 Mg10 2.912018 1_554
Mg1 Mg10 2.912018 1_454
Mg1 Mg5 2.963613 1_465
Mg1 Mg5 2.963613 1_565
Mg1 W0 2.978890 1_555
Mg1 W0 2.978890 1_455
Mg1 Mg2 3.080687 1_565
Mg1 Mg8 3.110057 1_554
Mg2 Mg5 2.893617 1_455
Mg2 Mg5 2.893617 1_555
Mg2 Mg3 2.979438 1_445
Mg2 Mg4 2.979438 1_455
Mg2 Mg4 2.979438 1_555
Mg2 Mg3 2.979438 1_545
Mg2 Mg6 3.110057 1_545
Mg2 Mg7 3.110057 1_555
Mg3 Mg4 2.831239 1_555
Mg3 W0 2.892950 1_555
Mg3 Mg6 2.912018 1_555
Mg3 Mg6 2.912018 1_655
Mg3 Mg4 3.018743 1_565
Mg3 Mg5 3.140467 1_565
Mg3 W1 3.296281 1_565
Mg4 W0 2.892950 1_555
Mg4 Mg7 2.912018 1_555
Mg4 Mg7 2.912018 1_655
Mg4 Mg5 3.140467 1_555
Mg4 W1 3.296281 1_555
Mg5 W0 2.934101 1_555
Mg5 W0 2.934101 1_545
Mg5 Mg9 3.048043 1_554
Mg6 Mg7 2.784053 1_565
Mg6 W1 2.978890 1_565
Mg6 W1 2.978890 1_465
Mg6 Mg7 3.065929 1_555
Mg6 Mg8 3.080687 1_555
Mg7 W1 2.978890 1_455
Mg7 W1 2.978890 1_555
Mg7 Mg8 3.080687 1_555
Mg8 Mg9 2.979438 1_555
Mg8 Mg9 2.979438 1_455
Mg9 W1 2.892950 1_555
Mg9 W0 3.296281 1_556
Mg10 Mg9 2.831239 1_565
Mg10 W1 2.892950 1_565
Mg10 Mg8 2.979438 1_555
Mg10 Mg8 2.979438 1_655
Mg10 Mg9 3.018743 1_555
Mg10 Mg5 3.048043 1_566
Mg10 Mg11 3.140467 1_555
Mg10 W0 3.296281 1_556
Mg11 Mg8 2.893617 1_555
Mg11 Mg8 2.893617 1_655
Mg11 W1 2.934101 1_555
Mg11 W1 2.934101 1_565
Mg11 Mg6 2.963613 1_655
Mg11 Mg7 2.963613 1_555
Mg11 Mg7 2.963613 1_655
Mg11 Mg6 2.963613 1_555
Mg11 Mg4 3.048043 1_555
Mg11 Mg3 3.048043 1_555
Mg11 Mg9 3.140467 1_555
Fe0 W0 2.633762 1_555
Fe0 W0 2.633762 1_455
Fe0 Mg0 2.781881 1_555
Fe0 Mg1 2.781881 1_555
Fe0 Mg2 2.936849 1_555
Fe0 Mg2 2.936849 1_565
Fe0 Mg4 3.037855 1_455
Fe0 Mg4 3.037855 1_555
Fe0 Mg3 3.037855 1_555
Fe0 Mg3 3.037855 1_455
Fe0 Mg6 3.408912 1_555
Fe0 Mg7 3.408912 1_555
Fe1 W1 2.633762 1_555
Fe1 W1 2.633762 1_455
Fe1 Mg7 2.781881 1_555
Fe1 Mg6 2.781881 1_545
Fe1 Mg8 2.936849 1_545
Fe1 Mg8 2.936849 1_555
Fe1 Mg9 3.037855 1_455
Fe1 Mg9 3.037855 1_555
Fe1 Mg10 3.037855 1_445
Fe1 Mg10 3.037855 1_545
Fe1 Mg1 3.408912 1_546
Fe1 Mg0 3.408912 1_556
