# generated using pymatgen
data_LiCNO
_symmetry_space_group_name_H-M   'P 1'
_cell_length_a   5.12647560
_cell_length_b   5.12647560
_cell_length_c   5.12647618
_cell_angle_alpha   37.40881645
_cell_angle_beta   37.40881645
_cell_angle_gamma   37.40881010
_symmetry_Int_Tables_number   1
_chemical_formula_structural   LiCNO
_chemical_formula_sum   'Li1 C1 N1 O1'
_cell_volume   44.58434040
_cell_formula_units_Z   1
loop_
 _symmetry_equiv_pos_site_id
 _symmetry_equiv_pos_as_xyz
  1  'x, y, z'
loop_
 _atom_site_type_symbol
 _atom_site_label
 _atom_site_symmetry_multiplicity
 _atom_site_fract_x
 _atom_site_fract_y
 _atom_site_fract_z
 _atom_site_occupancy
  Li  Li0  1  0.99474100  0.99474100  0.99474100  1
  C  C0  1  0.50253800  0.50253800  0.50253800  1
  N  N0  1  0.58604000  0.58604000  0.58604000  1
  O  O0  1  0.41668100  0.41668100  0.41668100  1
loop_
_geom_bond_atom_site_label_1
_geom_bond_atom_site_label_2
_geom_bond_distance
_geom_bond_site_symmetry_2
Li0 N0 2.182409 1_655
Li0 N0 2.182409 1_565
Li0 N0 2.182410 1_556
Li0 O0 2.281660 1_566
Li0 O0 2.281660 1_656
Li0 O0 2.281660 1_665
C0 N0 1.192923 1_555
C0 O0 1.226567 1_555
