# generated using pymatgen
data_SrMg14Zn
_symmetry_space_group_name_H-M   'P 1'
_cell_length_a   6.49797712
_cell_length_b   6.49797658
_cell_length_c   10.53309316
_cell_angle_alpha   90.00000000
_cell_angle_beta   90.00000000
_cell_angle_gamma   120.00000277
_symmetry_Int_Tables_number   1
_chemical_formula_structural   SrMg14Zn
_chemical_formula_sum   'Sr1 Mg14 Zn1'
_cell_volume   385.16149532
_cell_formula_units_Z   1
loop_
 _symmetry_equiv_pos_site_id
 _symmetry_equiv_pos_as_xyz
  1  'x, y, z'
loop_
 _atom_site_type_symbol
 _atom_site_label
 _atom_site_symmetry_multiplicity
 _atom_site_fract_x
 _atom_site_fract_y
 _atom_site_fract_z
 _atom_site_occupancy
  Sr  Sr0  1  0.16666700  0.33333300  0.62500000  1
  Mg  Mg0  1  0.16187148  0.83093524  0.12500000  1
  Mg  Mg1  1  0.17991023  0.83995462  0.62500000  1
  Mg  Mg2  1  0.66906476  0.33812852  0.12500000  1
  Mg  Mg3  1  0.66004538  0.32008977  0.62500000  1
  Mg  Mg4  1  0.66906476  0.83093524  0.12500000  1
  Mg  Mg5  1  0.66004538  0.83995462  0.62500000  1
  Mg  Mg6  1  0.33389442  0.16610558  0.35805622  1
  Mg  Mg7  1  0.33389442  0.16610558  0.89194378  1
  Mg  Mg8  1  0.33389442  0.66778983  0.35805622  1
  Mg  Mg9  1  0.33389442  0.66778983  0.89194378  1
  Mg  Mg10  1  0.83221017  0.16610558  0.35805622  1
  Mg  Mg11  1  0.83221017  0.16610558  0.89194378  1
  Mg  Mg12  1  0.83333300  0.66666700  0.38137804  1
  Mg  Mg13  1  0.83333300  0.66666700  0.86862196  1
  Zn  Zn0  1  0.16666700  0.33333300  0.12500000  1
loop_
_geom_bond_atom_site_label_1
_geom_bond_atom_site_label_2
_geom_bond_distance
_geom_bond_site_symmetry_2
Mg0 Mg9 3.095865 1_554
Mg0 Mg8 3.095865 1_555
Mg0 Mg6 3.095871 1_565
Mg0 Mg7 3.095871 1_564
Mg0 Mg2 3.202247 1_455
Mg0 Mg4 3.202247 1_455
Mg0 Zn0 3.249100 1_565
Mg0 Zn0 3.249100 1_555
Mg0 Mg13 3.272704 1_454
Mg0 Mg12 3.272704 1_455
Mg0 Mg2 3.295730 1_565
Mg0 Mg4 3.295730 1_555
Mg1 Mg3 3.119907 1_565
Mg1 Mg5 3.119907 1_555
Mg1 Mg12 3.223140 1_455
Mg1 Mg13 3.223140 1_455
Mg1 Sr0 3.249843 1_565
Mg1 Sr0 3.249843 1_555
Mg1 Mg9 3.358272 1_555
Mg1 Mg8 3.358272 1_555
Mg1 Mg7 3.358278 1_565
Mg1 Mg6 3.358278 1_565
Mg1 Mg3 3.378070 1_455
Mg1 Mg5 3.378070 1_455
Mg2 Mg6 3.095871 1_555
Mg2 Mg7 3.095871 1_554
Mg2 Mg4 3.202247 1_555
Mg2 Zn0 3.249101 1_655
Mg2 Zn0 3.249101 1_555
Mg2 Mg4 3.295730 1_545
Mg3 Mg5 3.119907 1_545
Mg3 Sr0 3.249843 1_555
Mg3 Sr0 3.249843 1_655
Mg3 Mg6 3.358279 1_555
Mg3 Mg7 3.358279 1_555
Mg3 Mg5 3.378070 1_555
Mg4 Mg8 3.095872 1_555
Mg4 Mg9 3.095872 1_554
Mg4 Zn0 3.249100 1_665
Mg4 Zn0 3.249100 1_555
Mg5 Sr0 3.249843 1_555
Mg5 Sr0 3.249843 1_665
Mg5 Mg9 3.358278 1_555
Mg5 Mg8 3.358278 1_555
Mg6 Zn0 3.093286 1_555
Mg6 Mg8 3.238044 1_545
Mg6 Mg8 3.259933 1_555
Mg6 Sr0 3.383528 1_555
Mg7 Zn0 3.093286 1_556
Mg7 Mg9 3.238044 1_545
Mg7 Mg9 3.259933 1_555
Mg7 Sr0 3.383528 1_555
Mg8 Zn0 3.093292 1_555
Mg8 Sr0 3.383534 1_555
Mg9 Zn0 3.093292 1_556
Mg9 Sr0 3.383534 1_555
Mg10 Zn0 3.093292 1_655
Mg10 Mg2 3.095865 1_555
Mg10 Mg4 3.095872 1_545
Mg10 Mg8 3.238044 1_545
Mg10 Mg6 3.238044 1_555
Mg10 Mg12 3.258268 1_545
Mg10 Mg12 3.258268 1_555
Mg10 Mg8 3.259933 1_655
Mg10 Mg6 3.259933 1_655
Mg10 Mg3 3.358272 1_555
Mg10 Mg5 3.358278 1_545
Mg10 Sr0 3.383534 1_655
Mg11 Zn0 3.093292 1_656
Mg11 Mg2 3.095865 1_556
Mg11 Mg4 3.095872 1_546
Mg11 Mg9 3.238044 1_545
Mg11 Mg7 3.238044 1_555
Mg11 Mg13 3.258268 1_545
Mg11 Mg13 3.258268 1_555
Mg11 Mg9 3.259933 1_655
Mg11 Mg7 3.259933 1_655
Mg11 Mg3 3.358272 1_555
Mg11 Mg5 3.358278 1_545
Mg11 Sr0 3.383534 1_655
Mg12 Mg5 3.223133 1_555
Mg12 Mg3 3.223140 1_555
Mg12 Mg6 3.258268 1_555
Mg12 Mg6 3.258268 1_665
Mg12 Mg8 3.258268 1_555
Mg12 Mg8 3.258268 1_655
Mg12 Mg4 3.272698 1_555
Mg12 Mg2 3.272704 1_555
Mg13 Mg5 3.223133 1_555
Mg13 Mg3 3.223140 1_555
Mg13 Mg7 3.258268 1_555
Mg13 Mg7 3.258268 1_665
Mg13 Mg9 3.258268 1_555
Mg13 Mg9 3.258268 1_655
Mg13 Mg4 3.272698 1_556
Mg13 Mg2 3.272704 1_556
