# generated using pymatgen
data_Sr3NdTaAl3O12
_symmetry_space_group_name_H-M   'P 1'
_cell_length_a   5.47632400
_cell_length_b   9.50982548
_cell_length_c   9.51377750
_cell_angle_alpha   70.59646880
_cell_angle_beta   89.93570484
_cell_angle_gamma   89.90716825
_symmetry_Int_Tables_number   1
_chemical_formula_structural   Sr3NdTaAl3O12
_chemical_formula_sum   'Sr6 Nd2 Ta2 Al6 O24'
_cell_volume   467.32478707
_cell_formula_units_Z   2
loop_
 _symmetry_equiv_pos_site_id
 _symmetry_equiv_pos_as_xyz
  1  'x, y, z'
loop_
 _atom_site_type_symbol
 _atom_site_label
 _atom_site_symmetry_multiplicity
 _atom_site_fract_x
 _atom_site_fract_y
 _atom_site_fract_z
 _atom_site_occupancy
  Sr  Sr0  1  0.50210600  0.39278400  0.37729900  1
  Sr  Sr1  1  0.99834800  0.38475600  0.86563700  1
  Sr  Sr2  1  0.50063500  0.86963800  0.88885300  1
  Sr  Sr3  1  0.49896300  0.12273400  0.10521200  1
  Sr  Sr4  1  0.00133300  0.63493300  0.11717500  1
  Sr  Sr5  1  0.49803000  0.61103600  0.63240700  1
  Nd  Nd0  1  0.00004900  0.84829400  0.36563800  1
  Nd  Nd1  1  0.00047400  0.13714100  0.64800300  1
  Ta  Ta0  1  0.99827200  0.25555100  0.24074300  1
  Ta  Ta1  1  0.50042600  0.99212300  0.50664200  1
  Al  Al0  1  0.50110600  0.74621800  0.24858700  1
  Al  Al1  1  0.49912600  0.25521200  0.75095700  1
  Al  Al2  1  0.00417100  0.74855900  0.75480500  1
  Al  Al3  1  0.00027500  0.99800400  0.99926800  1
  Al  Al4  1  0.50199400  0.50619400  0.99605200  1
  Al  Al5  1  0.99997700  0.49942900  0.50411400  1
  O  O0  1  0.27357600  0.37246300  0.13670100  1
  O  O1  1  0.75826000  0.87816400  0.13777400  1
  O  O2  1  0.75733100  0.37236200  0.63018300  1
  O  O3  1  0.26900700  0.86710400  0.64650400  1
  O  O4  1  0.20416500  0.09186500  0.38380900  1
  O  O5  1  0.75524900  0.62171800  0.37333500  1
  O  O6  1  0.74947000  0.11985700  0.86532600  1
  O  O7  1  0.24022100  0.61696700  0.88054500  1
  O  O8  1  0.00135300  0.13382400  0.10830000  1
  O  O9  1  0.50096200  0.63154800  0.11989700  1
  O  O10  1  0.49585700  0.14017800  0.61196100  1
  O  O11  1  0.99969400  0.63931000  0.61403300  1
  O  O12  1  0.71086900  0.13013100  0.34899200  1
  O  O13  1  0.24121000  0.62486400  0.37150300  1
  O  O14  1  0.24456700  0.12198600  0.86299100  1
  O  O15  1  0.74137400  0.63278800  0.86508200  1
  O  O16  1  0.00102700  0.35657500  0.39388200  1
  O  O17  1  0.50354800  0.85504500  0.38854000  1
  O  O18  1  0.50099000  0.37174200  0.88059000  1
  O  O19  1  0.99992000  0.87334900  0.87930300  1
  O  O20  1  0.76130400  0.39264100  0.11746800  1
  O  O21  1  0.24842600  0.88012700  0.13526200  1
  O  O22  1  0.24633800  0.37574400  0.62876500  1
  O  O23  1  0.78999800  0.89704300  0.61786100  1
loop_
_geom_bond_atom_site_label_1
_geom_bond_atom_site_label_2
_geom_bond_distance
_geom_bond_site_symmetry_2
Nd0 O1 2.475802 1_455
Nd0 O13 2.484811 1_555
Nd0 O21 2.509842 1_555
Nd0 O5 2.519843 1_455
Nd0 O11 2.532544 1_455
Nd0 O4 2.630511 1_565
Nd0 O17 2.729827 1_455
Nd0 O17 2.768690 1_555
Nd0 O23 2.833267 1_455
Nd0 O8 2.991659 1_565
Nd0 O12 3.069425 1_465
Nd0 O3 3.109472 1_555
Nd1 O14 2.408469 1_555
Nd1 O6 2.441281 1_455
Nd1 O2 2.558195 1_455
Nd1 O22 2.593930 1_555
Nd1 O16 2.616779 1_555
Nd1 O23 2.658672 1_445
Nd1 O19 2.732697 1_445
Nd1 O10 2.733076 1_555
Nd1 O10 2.783942 1_455
Nd1 O4 2.908349 1_555
Nd1 O3 2.961332 1_545
Al0 O9 1.890836 1_555
Al0 O17 1.939011 1_555
Al0 O21 1.945315 1_555
Al0 O1 1.947448 1_555
Al0 O5 1.952457 1_555
Al0 O13 1.957022 1_555
Al1 O18 1.912422 1_555
Al1 O22 1.922188 1_555
Al1 O2 1.926592 1_555
Al1 O6 1.946121 1_555
Al1 O14 1.946727 1_555
Al1 O10 1.976624 1_555
Al2 O15 1.902180 1_455
Al2 O3 1.914716 1_555
Al2 O7 1.916161 1_555
Al2 O19 1.935351 1_455
Al2 O11 1.948928 1_455
Al2 O23 1.960275 1_455
Al3 O19 1.899179 1_455
Al3 O8 1.906461 1_566
Al3 O1 1.948053 1_456
Al3 O21 1.952608 1_556
Al3 O14 1.961220 1_565
Al3 O6 1.967421 1_465
Al4 O7 1.897858 1_555
Al4 O20 1.920135 1_556
Al4 O15 1.930070 1_555
Al4 O9 1.934572 1_556
Al4 O18 1.942886 1_555
Al4 O0 1.960437 1_556
Al5 O22 1.918778 1_655
Al5 O2 1.924345 1_555
Al5 O5 1.932339 1_555
Al5 O13 1.939403 1_655
Al5 O11 1.946130 1_555
Al5 O16 1.972818 1_655
O0 Ta0 1.939015 1_455
O0 Sr0 2.672870 1_555
O0 Sr3 2.777710 1_555
O0 Sr4 2.857967 1_555
O0 Sr1 2.956975 1_454
O1 Sr3 2.652043 1_565
O1 Sr4 2.729715 1_655
O1 Sr2 2.782222 1_554
O2 Sr1 2.637502 1_555
O2 Sr5 2.681427 1_555
O2 Sr0 2.734181 1_555
O3 Ta1 1.933940 1_555
O3 Sr2 2.639928 1_555
O3 Sr5 2.779884 1_555
O4 Ta0 2.033963 1_455
O4 Ta1 2.039697 1_545
O4 Sr3 3.031937 1_555
O5 Sr0 2.572587 1_555
O5 Sr4 2.749692 1_655
O5 Sr5 2.809953 1_555
O6 Sr3 2.669385 1_556
O6 Sr2 2.687972 1_545
O6 Sr1 2.867015 1_555
O7 Sr1 2.620906 1_455
O7 Sr4 2.656499 1_556
O7 Sr5 2.765912 1_555
O7 Sr2 2.819807 1_555
O8 Ta0 1.974098 1_455
O8 Sr1 2.713684 1_454
O8 Sr3 2.727446 1_555
O8 Sr3 2.754005 1_455
O9 Sr2 2.579023 1_554
O9 Sr0 2.730946 1_555
O9 Sr4 2.736318 1_555
O9 Sr4 2.740427 1_655
O10 Ta1 1.980957 1_545
O10 Sr0 2.681931 1_555
O10 Sr2 3.009340 1_545
O11 Sr5 2.741902 1_655
O11 Sr5 2.760518 1_555
O11 Sr1 2.782057 1_555
O12 Ta1 1.998319 1_545
O12 Ta0 2.036341 1_555
O12 Sr3 2.616361 1_555
O12 Sr0 2.838219 1_555
O13 Sr0 2.612373 1_555
O13 Sr4 2.728035 1_555
O13 Sr5 2.819029 1_555
O14 Sr3 2.696199 1_556
O14 Sr2 2.717266 1_545
O14 Sr1 2.845002 1_455
O15 Sr5 2.651521 1_555
O15 Sr2 2.681550 1_555
O15 Sr1 2.743190 1_555
O15 Sr4 2.796335 1_656
O16 Ta0 1.993984 1_455
O16 Sr0 2.751452 1_455
O16 Sr0 2.763943 1_555
O16 Sr4 3.050786 1_555
O17 Ta1 1.983732 1_555
O17 Sr5 2.681661 1_555
O17 Sr3 3.031096 1_565
O18 Sr3 2.610000 1_556
O18 Sr5 2.680246 1_555
O18 Sr1 2.728110 1_555
O18 Sr1 2.756920 1_455
O19 Sr4 2.617797 1_656
O19 Sr2 2.735549 1_555
O19 Sr2 2.743466 1_655
O20 Ta0 1.934217 1_555
O20 Sr4 2.653775 1_655
O20 Sr1 2.746453 1_554
O20 Sr0 2.849536 1_555
O20 Sr3 2.979444 1_555
O21 Sr3 2.618824 1_565
O21 Sr2 2.749711 1_554
O21 Sr4 2.752284 1_555
O22 Sr5 2.639971 1_555
O22 Sr1 2.655422 1_455
O22 Sr0 2.728973 1_555
O23 Ta1 1.953286 1_555
O23 Sr2 2.961696 1_555
O23 Sr5 3.120401 1_555
