# generated using pymatgen
data_Li6V3P8O29
_symmetry_space_group_name_H-M   'P 1'
_cell_length_a   9.79804600
_cell_length_b   9.82280160
_cell_length_c   13.98485015
_cell_angle_alpha   90.46318486
_cell_angle_beta   89.94941037
_cell_angle_gamma   119.79247443
_symmetry_Int_Tables_number   1
_chemical_formula_structural   Li6V3P8O29
_chemical_formula_sum   'Li12 V6 P16 O58'
_cell_volume   1168.02102631
_cell_formula_units_Z   2
loop_
 _symmetry_equiv_pos_site_id
 _symmetry_equiv_pos_as_xyz
  1  'x, y, z'
loop_
 _atom_site_type_symbol
 _atom_site_label
 _atom_site_symmetry_multiplicity
 _atom_site_fract_x
 _atom_site_fract_y
 _atom_site_fract_z
 _atom_site_occupancy
  Li  Li0  1  0.23708300  0.89843800  0.44466100  1
  Li  Li1  1  0.10289100  0.33401900  0.44313000  1
  Li  Li2  1  0.23253600  0.33662600  0.93700200  1
  Li  Li3  1  0.66421600  0.90139000  0.93750600  1
  Li  Li4  1  0.67273300  0.76738700  0.44341200  1
  Li  Li5  1  0.32124600  0.08818100  0.05931100  1
  Li  Li6  1  0.76506100  0.67598000  0.05646300  1
  Li  Li7  1  0.66963800  0.34282700  0.39194400  1
  Li  Li8  1  0.67612400  0.34050100  0.88653600  1
  Li  Li9  1  0.77036600  0.09302400  0.56403500  1
  Li  Li10  1  0.00429000  0.99883900  0.98782100  1
  Li  Li11  1  0.02701700  0.98447400  0.51410900  1
  V  V0  1  0.43621900  0.43526000  0.74354900  1
  V  V1  1  0.56207900  0.56311400  0.25240100  1
  V  V2  1  0.43053900  0.99744700  0.24536700  1
  V  V3  1  0.56288100  0.99957500  0.74919100  1
  V  V4  1  0.00470100  0.56510900  0.75241400  1
  V  V5  1  0.00043000  0.43516700  0.24684200  1
  P  P0  1  0.07845000  0.77247600  0.15535100  1
  P  P1  1  0.22178100  0.91222900  0.66125800  1
  P  P2  1  0.08467500  0.31099500  0.65468400  1
  P  P3  1  0.33691100  0.66379600  0.87042600  1
  P  P4  1  0.33261700  0.66743900  0.37040500  1
  P  P5  1  0.22814200  0.31449600  0.15634800  1
  P  P6  1  0.30948100  0.22064000  0.34019300  1
  P  P7  1  0.68815600  0.91293300  0.15653300  1
  P  P8  1  0.31414900  0.09554600  0.84415500  1
  P  P9  1  0.68646800  0.77444400  0.65656100  1
  P  P10  1  0.77651100  0.68636000  0.84028100  1
  P  P11  1  0.67263700  0.33453200  0.63119800  1
  P  P12  1  0.66247200  0.33241100  0.12961600  1
  P  P13  1  0.91676700  0.69331300  0.34468900  1
  P  P14  1  0.77334300  0.09310000  0.34056200  1
  P  P15  1  0.91138100  0.21900900  0.84048200  1
  O  O0  1  0.01105300  0.79361400  0.42750400  1
  O  O1  1  0.08865100  0.74405900  0.66735600  1
  O  O2  1  0.22709600  0.01376700  0.93327600  1
  O  O3  1  0.24926700  0.91518100  0.15831200  1
  O  O4  1  0.07940600  0.61794800  0.16741900  1
  O  O5  1  0.18779000  0.65789100  0.82492400  1
  O  O6  1  0.08432600  0.46590800  0.66623800  1
  O  O7  1  0.00524400  0.20463800  0.92050200  1
  O  O8  1  0.08638200  0.34111800  0.16627200  1
  O  O9  1  0.32783900  0.81210500  0.32901700  1
  O  O10  1  0.38350900  0.91903600  0.67569100  1
  O  O11  1  0.18724800  0.51368800  0.33132100  1
  O  O12  1  0.33438900  0.65254100  0.97680400  1
  O  O13  1  0.34215300  0.67164300  0.47711400  1
  O  O14  1  0.33838400  0.51610500  0.82550000  1
  O  O15  1  0.53104200  0.91418200  0.17430400  1
  O  O16  1  0.48492900  0.81441600  0.83326400  1
  O  O17  1  0.25020400  0.33462800  0.66125700  1
  O  O18  1  0.21372600  0.20018600  0.24241000  1
  O  O19  1  0.20928400  0.21383400  0.42238100  1
  O  O20  1  0.22346200  0.22981800  0.06490900  1
  O  O21  1  0.38165100  0.47042900  0.17046400  1
  O  O22  1  0.48546100  0.66878100  0.32823100  1
  O  O23  1  0.33669100  0.26213800  0.84041600  1
  O  O24  1  0.52864200  0.62247400  0.66693900  1
  O  O25  1  0.66383500  0.92041900  0.66274300  1
  O  O26  1  0.20776900  0.00602900  0.75185600  1
  O  O27  1  0.21768600  0.98949900  0.57003400  1
  O  O28  1  0.76738800  0.00163900  0.42833200  1
  O  O29  1  0.33855900  0.07826000  0.33902000  1
  O  O30  1  0.47403100  0.37124600  0.33251800  1
  O  O31  1  0.66133000  0.74513000  0.16281700  1
  O  O32  1  0.52389300  0.33416200  0.67327800  1
  O  O33  1  0.62479700  0.52461800  0.83028900  1
  O  O34  1  0.77421900  0.77745200  0.92817000  1
  O  O35  1  0.77548400  0.78667700  0.56647800  1
  O  O36  1  0.79325200  0.79220000  0.74862600  1
  O  O37  1  0.74527400  0.66153500  0.34606100  1
  O  O38  1  0.50482300  0.18512400  0.16316000  1
  O  O39  1  0.47799900  0.10903900  0.83130400  1
  O  O40  1  0.66582000  0.48426500  0.17280600  1
  O  O41  1  0.66302300  0.34159900  0.02227600  1
  O  O42  1  0.67591700  0.33682600  0.52392700  1
  O  O43  1  0.81582400  0.47686100  0.67929000  1
  O  O44  1  0.62547100  0.10945700  0.32714500  1
  O  O45  1  0.67335400  0.18322600  0.66603500  1
  O  O46  1  0.91763800  0.66077100  0.84078100  1
  O  O47  1  0.99520200  0.79255600  0.24991800  1
  O  O48  1  0.99001500  0.78525500  0.07175100  1
  O  O49  1  0.90798200  0.53085800  0.33269600  1
  O  O50  1  0.80265800  0.32672600  0.17601700  1
  O  O51  1  0.90065100  0.37075800  0.83676300  1
  O  O52  1  0.73870700  0.07866500  0.84095800  1
  O  O53  1  0.76552500  0.98777700  0.06455400  1
  O  O54  1  0.79545300  0.00688000  0.24779200  1
  O  O55  1  0.91968100  0.25958700  0.34204600  1
  O  O56  1  0.00065500  0.22132900  0.56441100  1
  O  O57  1  0.98311900  0.19813300  0.74177400  1
loop_
_geom_bond_atom_site_label_1
_geom_bond_atom_site_label_2
_geom_bond_distance
_geom_bond_site_symmetry_2
Li0 O0 1.937364 1_555
Li0 O27 2.013288 1_555
Li0 O29 2.141404 1_565
Li0 O9 2.202290 1_555
Li1 O19 1.944596 1_555
Li1 O56 2.007725 1_555
Li1 O55 2.106867 1_455
Li1 O11 2.198998 1_555
Li2 O7 1.954645 1_555
Li2 O23 2.030985 1_555
Li2 O20 2.060500 1_556
Li2 O14 2.199981 1_555
Li3 O34 1.990460 1_555
Li3 O53 2.000980 1_556
Li3 O52 2.039936 1_565
Li3 O16 2.105704 1_555
Li4 O35 1.954414 1_555
Li4 O28 2.021417 1_565
Li4 O37 2.037054 1_555
Li4 O22 2.261317 1_555
Li5 O2 1.950371 1_554
Li5 O3 2.036518 1_545
Li5 O20 2.045094 1_555
Li5 O38 2.128732 1_555
Li6 O48 1.924081 1_555
Li6 O34 2.039681 1_554
Li6 O31 2.091311 1_555
Li6 O40 2.316510 1_555
Li7 O42 1.849233 1_555
Li7 O30 2.231601 1_555
Li7 O44 2.290122 1_555
Li7 O49 2.299280 1_555
Li8 O41 1.902831 1_556
Li8 O51 2.182528 1_555
Li8 O33 2.251668 1_555
Li8 O39 2.263331 1_555
Li9 O56 1.963085 1_655
Li9 O25 2.036259 1_545
Li9 O28 2.086806 1_555
Li9 O45 2.130122 1_555
Li10 O7 2.232698 1_565
Li10 O2 2.247199 1_565
Li10 O48 2.355154 1_456
Li10 O34 2.368374 1_455
Li10 O20 2.458533 1_566
Li10 O53 2.526090 1_456
Li11 O27 2.003635 1_555
Li11 O0 2.162958 1_555
Li11 O35 2.376284 1_455
Li11 O19 2.440324 1_565
Li11 O56 2.558309 1_565
O0 P13 1.498143 1_455
O1 P1 1.516046 1_555
O1 V4 1.943366 1_555
O2 P8 1.503205 1_555
O3 P0 1.560660 1_555
O3 V2 1.962508 1_555
O4 P0 1.533251 1_555
O4 V5 1.925137 1_555
O5 P3 1.568412 1_555
O5 V4 1.854892 1_555
O6 P2 1.530628 1_555
O6 V4 1.935301 1_555
O7 P15 1.500473 1_455
O8 P5 1.541719 1_555
O8 V5 1.893910 1_555
O9 P4 1.560761 1_555
O9 V2 1.976729 1_555
O10 P1 1.565658 1_555
O10 V3 1.838368 1_555
O11 P4 1.568055 1_555
O11 V5 1.981754 1_555
O12 P3 1.491947 1_555
O13 P4 1.494268 1_555
O14 P3 1.582923 1_555
O14 V0 1.898109 1_555
O15 P7 1.565165 1_555
O15 V2 1.847101 1_555
O16 P3 1.562446 1_555
O16 V3 1.981482 1_555
O17 P2 1.522679 1_555
O17 V0 1.954067 1_555
O18 P5 1.610355 1_555
O18 P6 1.612798 1_555
O19 P6 1.491104 1_555
O20 P5 1.508041 1_555
O21 P5 1.534160 1_555
O21 V1 1.911675 1_555
O22 P4 1.603030 1_555
O22 V1 1.876323 1_555
O23 P8 1.539976 1_555
O23 V0 2.016171 1_555
O24 P9 1.532952 1_555
O24 V0 1.930024 1_555
O25 P9 1.557760 1_555
O25 V3 1.947185 1_555
O26 P1 1.606112 1_545
O26 P8 1.612142 1_555
O27 P1 1.500420 1_555
O28 P14 1.510887 1_555
O29 P6 1.559815 1_555
O29 V2 1.962073 1_545
O30 P6 1.559349 1_555
O30 V1 1.992073 1_555
O31 P7 1.538008 1_555
O31 V1 2.004535 1_555
O32 P11 1.569585 1_555
O32 V0 1.876253 1_555
O33 P10 1.550253 1_555
O33 V0 2.007740 1_555
O34 P10 1.521182 1_555
O35 P9 1.502862 1_555
O36 P9 1.612518 1_555
O36 P10 1.613209 1_555
O37 P13 1.549204 1_555
O37 V1 2.032585 1_555
O38 P12 1.577380 1_555
O38 V2 1.987317 1_545
O39 P8 1.554233 1_555
O39 V3 2.008359 1_545
O40 P12 1.589877 1_555
O40 V1 1.907485 1_555
O41 P12 1.504417 1_555
O42 P11 1.500596 1_555
O43 P11 1.553244 1_555
O43 V4 1.901810 1_655
O44 P14 1.546772 1_555
O44 V2 2.015365 1_545
O45 P11 1.571123 1_555
O45 V3 1.967138 1_545
O46 P10 1.523387 1_555
O46 V4 1.978327 1_655
O47 P13 1.603783 1_555
O47 P0 1.614617 1_655
O48 P0 1.498559 1_655
O49 P13 1.562435 1_555
O49 V5 1.992858 1_655
O50 P12 1.545711 1_555
O50 V5 1.950860 1_655
O51 P15 1.546815 1_555
O51 V4 2.043433 1_655
O52 P15 1.563757 1_555
O52 V3 1.968810 1_545
O53 P7 1.493152 1_555
O54 P7 1.613967 1_545
O54 P14 1.615997 1_555
O55 P14 1.549230 1_555
O55 V5 2.013075 1_655
O56 P2 1.520063 1_555
O57 P15 1.605801 1_555
O57 P2 1.620503 1_655
