# generated using pymatgen
data_Pr2CuSn4
_symmetry_space_group_name_H-M   'P 1'
_cell_length_a   4.44109075
_cell_length_b   4.46031257
_cell_length_c   9.47927155
_cell_angle_alpha   76.40850140
_cell_angle_beta   90.00000000
_cell_angle_gamma   90.00000000
_symmetry_Int_Tables_number   1
_chemical_formula_structural   Pr2CuSn4
_chemical_formula_sum   'Pr2 Cu1 Sn4'
_cell_volume   182.51322122
_cell_formula_units_Z   1
loop_
 _symmetry_equiv_pos_site_id
 _symmetry_equiv_pos_as_xyz
  1  'x, y, z'
loop_
 _atom_site_type_symbol
 _atom_site_label
 _atom_site_symmetry_multiplicity
 _atom_site_fract_x
 _atom_site_fract_y
 _atom_site_fract_z
 _atom_site_occupancy
  Pr  Pr0  1  0.25000000  0.89333064  0.21315101  1
  Pr  Pr1  1  0.75000000  0.10502554  0.78957169  1
  Cu  Cu0  1  0.25000000  0.67875805  0.64375975  1
  Sn  Sn0  1  0.25000000  0.25619914  0.48785273  1
  Sn  Sn1  1  0.75000000  0.75559187  0.48900400  1
  Sn  Sn2  1  0.25000000  0.54094399  0.91699255  1
  Sn  Sn3  1  0.75000000  0.44314977  0.11366827  1
loop_
_geom_bond_atom_site_label_1
_geom_bond_atom_site_label_2
_geom_bond_distance
_geom_bond_site_symmetry_2
Pr0 Sn3 3.277488 1_455
Pr0 Sn3 3.277488 1_555
Pr0 Sn3 3.278304 1_565
Pr0 Sn3 3.278304 1_465
Pr0 Sn0 3.373214 1_555
Pr0 Sn0 3.373582 1_565
Pr0 Sn1 3.375033 1_455
Pr0 Sn1 3.375033 1_555
Pr0 Sn2 3.523317 1_564
Pr0 Sn2 3.524992 1_554
Pr1 Sn2 3.357669 1_655
Pr1 Sn2 3.357669 1_555
Pr1 Sn2 3.360298 1_545
Pr1 Sn2 3.360298 1_645
Pr1 Sn1 3.554434 1_545
Pr1 Sn1 3.556975 1_555
Pr1 Sn0 3.557967 1_655
Pr1 Sn0 3.557967 1_555
Pr1 Sn3 3.727000 1_556
Pr1 Sn3 3.727067 1_546
Cu0 Sn2 2.517523 1_555
Cu0 Sn1 2.638937 1_455
Cu0 Sn1 2.638937 1_555
Cu0 Sn0 2.651170 1_565
Cu0 Sn0 2.654346 1_555
Cu0 Pr1 3.419252 1_565
Cu0 Pr1 3.419252 1_465
Cu0 Pr1 3.424542 1_455
Cu0 Pr1 3.424542 1_555
Sn0 Sn1 3.147044 1_455
Sn0 Sn1 3.147044 1_555
Sn0 Sn1 3.147249 1_545
Sn0 Sn1 3.147249 1_445
Sn2 Sn3 2.866122 1_556
Sn2 Sn3 2.866122 1_456
