# generated using pymatgen
data_Mg3Si4
_symmetry_space_group_name_H-M   'P 1'
_cell_length_a   7.12002640
_cell_length_b   7.12002640
_cell_length_c   8.45606269
_cell_angle_alpha   75.47003545
_cell_angle_beta   75.47003545
_cell_angle_gamma   37.81479057
_symmetry_Int_Tables_number   1
_chemical_formula_structural   Mg3Si4
_chemical_formula_sum   'Mg6 Si8'
_cell_volume   253.41671936
_cell_formula_units_Z   2
loop_
 _symmetry_equiv_pos_site_id
 _symmetry_equiv_pos_as_xyz
  1  'x, y, z'
loop_
 _atom_site_type_symbol
 _atom_site_label
 _atom_site_symmetry_multiplicity
 _atom_site_fract_x
 _atom_site_fract_y
 _atom_site_fract_z
 _atom_site_occupancy
  Mg  Mg0  1  0.65328400  0.65328400  0.12529000  1
  Mg  Mg1  1  0.29522500  0.29522500  0.15274000  1
  Mg  Mg2  1  0.44782200  0.44782200  0.36768800  1
  Mg  Mg3  1  0.02017500  0.02017500  0.75933500  1
  Mg  Mg4  1  0.23283800  0.23283800  0.54836200  1
  Mg  Mg5  1  0.98878900  0.98878900  0.11871900  1
  Si  Si0  1  0.87819400  0.87819400  0.58416800  1
  Si  Si1  1  0.39052200  0.39052200  0.72088100  1
  Si  Si2  1  0.06347200  0.06347200  0.40564100  1
  Si  Si3  1  0.61145300  0.61145300  0.51244600  1
  Si  Si4  1  0.79361400  0.79361400  0.34604000  1
  Si  Si5  1  0.66993800  0.66993800  0.78638200  1
  Si  Si6  1  0.21274100  0.21274100  0.88327400  1
  Si  Si7  1  0.48722700  0.48722700  0.94257700  1
loop_
_geom_bond_atom_site_label_1
_geom_bond_atom_site_label_2
_geom_bond_distance
_geom_bond_site_symmetry_2
Mg0 Si5 2.814654 1_554
Mg0 Mg2 2.975506 1_555
Mg0 Si4 2.988331 1_555
Mg0 Si7 3.037241 1_554
Mg0 Si6 3.046860 1_654
Mg0 Si6 3.046860 1_564
Mg0 Si3 3.171264 1_555
Mg1 Si7 2.722252 1_554
Mg1 Si6 2.787442 1_554
Mg1 Si4 2.824264 1_455
Mg1 Si4 2.824264 1_545
Mg1 Mg2 3.084092 1_555
Mg1 Mg4 3.225960 1_555
Mg2 Si3 2.790859 1_555
Mg2 Si2 2.849317 1_565
Mg2 Si2 2.849317 1_655
Mg2 Si1 2.879756 1_555
Mg2 Mg4 2.894005 1_555
Mg2 Si0 2.939923 1_545
Mg2 Si0 2.939923 1_455
Mg2 Mg5 3.073050 1_455
Mg2 Mg5 3.073050 1_545
Mg2 Si4 3.142296 1_545
Mg2 Si4 3.142296 1_455
Mg3 Si0 2.712054 1_445
Mg3 Si7 2.748860 1_455
Mg3 Si7 2.748860 1_545
Mg3 Si2 2.891397 1_555
Mg3 Mg4 2.946126 1_555
Mg3 Mg5 2.955100 1_446
Mg3 Si1 2.963239 1_545
Mg3 Si1 2.963239 1_455
Mg3 Si6 3.044708 1_555
Mg3 Si5 3.112981 1_455
Mg3 Si5 3.112981 1_545
Mg3 Si3 3.135608 1_545
Mg3 Si3 3.135608 1_455
Mg4 Si6 2.772554 1_555
Mg4 Si2 2.850075 1_555
Mg4 Si4 2.859623 1_455
Mg4 Si4 2.859623 1_545
Mg4 Si1 2.878260 1_555
Mg4 Si3 2.890116 1_545
Mg4 Si3 2.890116 1_455
Mg4 Si5 3.031088 1_455
Mg4 Si5 3.031088 1_545
Mg4 Si0 3.092523 1_545
Mg4 Si0 3.092523 1_455
Mg5 Si7 2.749293 1_564
Mg5 Si7 2.749293 1_654
Mg5 Si4 2.815622 1_555
Mg5 Si2 2.862439 1_665
Mg5 Si6 3.143299 1_664
Si0 Si2 2.551573 1_665
Si0 Si4 2.563188 1_555
Si0 Si1 2.605553 1_655
Si0 Si1 2.605553 1_565
Si0 Si5 2.872387 1_555
Si1 Si6 2.424338 1_555
Si1 Si7 2.550885 1_555
Si2 Si3 2.620336 1_455
Si2 Si3 2.620336 1_545
Si3 Si4 2.484097 1_555
Si3 Si5 2.637155 1_555
Si5 Si7 2.465525 1_555
Si5 Si6 2.564646 1_565
Si5 Si6 2.564646 1_655
