# generated using pymatgen
data_CsSnSe3
_symmetry_space_group_name_H-M   'P 1'
_cell_length_a   7.21448184
_cell_length_b   8.11377792
_cell_length_c   8.11715914
_cell_angle_alpha   102.65006054
_cell_angle_beta   106.49861583
_cell_angle_gamma   113.74030089
_symmetry_Int_Tables_number   1
_chemical_formula_structural   CsSnSe3
_chemical_formula_sum   'Cs2 Sn2 Se6'
_cell_volume   385.79052633
_cell_formula_units_Z   2
loop_
 _symmetry_equiv_pos_site_id
 _symmetry_equiv_pos_as_xyz
  1  'x, y, z'
loop_
 _atom_site_type_symbol
 _atom_site_label
 _atom_site_symmetry_multiplicity
 _atom_site_fract_x
 _atom_site_fract_y
 _atom_site_fract_z
 _atom_site_occupancy
  Cs  Cs0  1  0.77766100  0.15039200  0.81275400  1
  Cs  Cs1  1  0.22233900  0.84960800  0.18724600  1
  Sn  Sn0  1  0.78094700  0.57273000  0.49332200  1
  Sn  Sn1  1  0.21905200  0.42727000  0.50667800  1
  Se  Se0  1  0.33886400  0.43145500  0.23769500  1
  Se  Se1  1  0.81026100  0.86926800  0.39845400  1
  Se  Se2  1  0.66113600  0.56854500  0.76230500  1
  Se  Se3  1  0.77550000  0.27214100  0.29623600  1
  Se  Se4  1  0.22450000  0.72785900  0.70376400  1
  Se  Se5  1  0.18973900  0.13073200  0.60154600  1
loop_
_geom_bond_atom_site_label_1
_geom_bond_atom_site_label_2
_geom_bond_distance
_geom_bond_site_symmetry_2
Cs0 Se1 3.753530 1_545
Cs0 Se4 3.756645 1_545
Cs0 Se0 3.831337 1_656
Cs0 Se3 3.837568 1_556
Cs0 Se5 3.867807 1_655
Cs0 Se2 3.885237 1_555
Cs0 Se5 4.020025 1_555
Cs1 Se5 3.753530 1_565
Cs1 Se3 3.756645 1_565
Cs1 Se2 3.831337 1_454
Cs1 Se4 3.837568 1_554
Cs1 Se1 3.867807 1_455
Cs1 Se0 3.885237 1_555
Cs1 Se1 4.020025 1_555
Se0 Sn1 2.568312 1_555
Se0 Sn0 2.836792 1_555
Se1 Se5 2.437562 1_665
Se1 Sn0 2.630790 1_555
Se2 Sn0 2.568308 1_555
Se2 Sn1 2.836798 1_555
Se3 Sn0 2.585987 1_555
Se3 Sn1 2.729954 1_655
Se4 Sn1 2.585983 1_555
Se4 Sn0 2.729960 1_455
Se5 Sn1 2.630792 1_555
