# generated using pymatgen
data_Al17(Re2Si)2
_symmetry_space_group_name_H-M   'P 1'
_cell_length_a   12.92717400
_cell_length_b   12.92717400
_cell_length_c   12.92717400
_cell_angle_alpha   90.00000000
_cell_angle_beta   90.00000000
_cell_angle_gamma   90.00000000
_symmetry_Int_Tables_number   1
_chemical_formula_structural   Al17(Re2Si)2
_chemical_formula_sum   'Al102 Re24 Si12'
_cell_volume   2160.28367318
_cell_formula_units_Z   6
loop_
 _symmetry_equiv_pos_site_id
 _symmetry_equiv_pos_as_xyz
  1  'x, y, z'
loop_
 _atom_site_type_symbol
 _atom_site_label
 _atom_site_symmetry_multiplicity
 _atom_site_fract_x
 _atom_site_fract_y
 _atom_site_fract_z
 _atom_site_occupancy
  Al  Al0  1  0.16559500  0.10057500  0.00000000  1
  Al  Al1  1  0.00000000  0.16559500  0.10057500  1
  Al  Al2  1  0.10057500  0.00000000  0.16559500  1
  Al  Al3  1  0.89942500  0.00000000  0.16559500  1
  Al  Al4  1  0.00000000  0.83440500  0.89942500  1
  Al  Al5  1  0.89942500  0.00000000  0.83440500  1
  Al  Al6  1  0.00000000  0.83440500  0.10057500  1
  Al  Al7  1  0.00000000  0.16559500  0.89942500  1
  Al  Al8  1  0.10057500  0.00000000  0.83440500  1
  Al  Al9  1  0.16559500  0.89942500  0.00000000  1
  Al  Al10  1  0.83440500  0.10057500  0.00000000  1
  Al  Al11  1  0.83440500  0.89942500  0.00000000  1
  Al  Al12  1  0.33214900  0.39925800  0.50000000  1
  Al  Al13  1  0.50000000  0.33214900  0.39925800  1
  Al  Al14  1  0.39925800  0.50000000  0.33214900  1
  Al  Al15  1  0.60074200  0.50000000  0.33214900  1
  Al  Al16  1  0.50000000  0.66785100  0.60074200  1
  Al  Al17  1  0.60074200  0.50000000  0.66785100  1
  Al  Al18  1  0.50000000  0.66785100  0.39925800  1
  Al  Al19  1  0.50000000  0.33214900  0.60074200  1
  Al  Al20  1  0.39925800  0.50000000  0.66785100  1
  Al  Al21  1  0.33214900  0.60074200  0.50000000  1
  Al  Al22  1  0.66785100  0.39925800  0.50000000  1
  Al  Al23  1  0.66785100  0.60074200  0.50000000  1
  Al  Al24  1  0.36423400  0.00000000  0.00000000  1
  Al  Al25  1  0.00000000  0.36423400  0.00000000  1
  Al  Al26  1  0.00000000  0.00000000  0.36423400  1
  Al  Al27  1  0.00000000  0.63576600  0.00000000  1
  Al  Al28  1  0.00000000  0.00000000  0.63576600  1
  Al  Al29  1  0.63576600  0.00000000  0.00000000  1
  Al  Al30  1  0.11122800  0.50000000  0.50000000  1
  Al  Al31  1  0.50000000  0.11122800  0.50000000  1
  Al  Al32  1  0.50000000  0.50000000  0.11122800  1
  Al  Al33  1  0.50000000  0.88877200  0.50000000  1
  Al  Al34  1  0.50000000  0.50000000  0.88877200  1
  Al  Al35  1  0.88877200  0.50000000  0.50000000  1
  Al  Al36  1  0.12027200  0.18692100  0.30399300  1
  Al  Al37  1  0.30399300  0.12027200  0.18692100  1
  Al  Al38  1  0.18692100  0.30399300  0.12027200  1
  Al  Al39  1  0.81307900  0.69600700  0.12027200  1
  Al  Al40  1  0.30399300  0.87972800  0.81307900  1
  Al  Al41  1  0.81307900  0.30399300  0.87972800  1
  Al  Al42  1  0.69600700  0.87972800  0.18692100  1
  Al  Al43  1  0.69600700  0.12027200  0.81307900  1
  Al  Al44  1  0.18692100  0.69600700  0.87972800  1
  Al  Al45  1  0.12027200  0.81307900  0.69600700  1
  Al  Al46  1  0.87972800  0.18692100  0.69600700  1
  Al  Al47  1  0.87972800  0.81307900  0.30399300  1
  Al  Al48  1  0.87972800  0.81307900  0.69600700  1
  Al  Al49  1  0.69600700  0.87972800  0.81307900  1
  Al  Al50  1  0.81307900  0.69600700  0.87972800  1
  Al  Al51  1  0.18692100  0.30399300  0.87972800  1
  Al  Al52  1  0.69600700  0.12027200  0.18692100  1
  Al  Al53  1  0.18692100  0.69600700  0.12027200  1
  Al  Al54  1  0.30399300  0.12027200  0.81307900  1
  Al  Al55  1  0.30399300  0.87972800  0.18692100  1
  Al  Al56  1  0.81307900  0.30399300  0.12027200  1
  Al  Al57  1  0.87972800  0.18692100  0.30399300  1
  Al  Al58  1  0.12027200  0.81307900  0.30399300  1
  Al  Al59  1  0.12027200  0.18692100  0.69600700  1
  Al  Al60  1  0.39152300  0.31487400  0.19317600  1
  Al  Al61  1  0.19317600  0.39152300  0.31487400  1
  Al  Al62  1  0.31487400  0.19317600  0.39152300  1
  Al  Al63  1  0.68512600  0.80682400  0.39152300  1
  Al  Al64  1  0.19317600  0.60847700  0.68512600  1
  Al  Al65  1  0.68512600  0.19317600  0.60847700  1
  Al  Al66  1  0.80682400  0.60847700  0.31487400  1
  Al  Al67  1  0.80682400  0.39152300  0.68512600  1
  Al  Al68  1  0.31487400  0.80682400  0.60847700  1
  Al  Al69  1  0.39152300  0.68512600  0.80682400  1
  Al  Al70  1  0.60847700  0.31487400  0.80682400  1
  Al  Al71  1  0.60847700  0.68512600  0.19317600  1
  Al  Al72  1  0.60847700  0.68512600  0.80682400  1
  Al  Al73  1  0.80682400  0.60847700  0.68512600  1
  Al  Al74  1  0.68512600  0.80682400  0.60847700  1
  Al  Al75  1  0.31487400  0.19317600  0.60847700  1
  Al  Al76  1  0.80682400  0.39152300  0.31487400  1
  Al  Al77  1  0.31487400  0.80682400  0.39152300  1
  Al  Al78  1  0.19317600  0.39152300  0.68512600  1
  Al  Al79  1  0.19317600  0.60847700  0.31487400  1
  Al  Al80  1  0.68512600  0.19317600  0.39152300  1
  Al  Al81  1  0.60847700  0.31487400  0.19317600  1
  Al  Al82  1  0.39152300  0.68512600  0.19317600  1
  Al  Al83  1  0.39152300  0.31487400  0.80682400  1
  Al  Al84  1  0.87106000  0.89626700  0.50000000  1
  Al  Al85  1  0.87106000  0.10373300  0.50000000  1
  Al  Al86  1  0.12894000  0.89626700  0.50000000  1
  Al  Al87  1  0.10373300  0.50000000  0.87106000  1
  Al  Al88  1  0.50000000  0.12894000  0.89626700  1
  Al  Al89  1  0.50000000  0.87106000  0.10373300  1
  Al  Al90  1  0.89626700  0.50000000  0.87106000  1
  Al  Al91  1  0.50000000  0.87106000  0.89626700  1
  Al  Al92  1  0.89626700  0.50000000  0.12894000  1
  Al  Al93  1  0.10373300  0.50000000  0.12894000  1
  Al  Al94  1  0.50000000  0.12894000  0.10373300  1
  Al  Al95  1  0.12894000  0.10373300  0.50000000  1
  Al  Al96  1  0.68664700  0.00000000  0.50000000  1
  Al  Al97  1  0.00000000  0.50000000  0.68664700  1
  Al  Al98  1  0.50000000  0.68664700  0.00000000  1
  Al  Al99  1  0.00000000  0.50000000  0.31335300  1
  Al  Al100  1  0.50000000  0.31335300  0.00000000  1
  Al  Al101  1  0.31335300  0.00000000  0.50000000  1
  Re  Re0  1  0.16555200  0.29890900  0.50000000  1
  Re  Re1  1  0.50000000  0.16555200  0.29890900  1
  Re  Re2  1  0.29890900  0.50000000  0.16555200  1
  Re  Re3  1  0.70109100  0.50000000  0.16555200  1
  Re  Re4  1  0.50000000  0.83444800  0.70109100  1
  Re  Re5  1  0.70109100  0.50000000  0.83444800  1
  Re  Re6  1  0.50000000  0.83444800  0.29890900  1
  Re  Re7  1  0.83444800  0.70109100  0.50000000  1
  Re  Re8  1  0.83444800  0.29890900  0.50000000  1
  Re  Re9  1  0.16555200  0.70109100  0.50000000  1
  Re  Re10  1  0.29890900  0.50000000  0.83444800  1
  Re  Re11  1  0.50000000  0.16555200  0.70109100  1
  Re  Re12  1  0.67257400  0.79113400  0.00000000  1
  Re  Re13  1  0.67257400  0.20886600  0.00000000  1
  Re  Re14  1  0.32742600  0.79113400  0.00000000  1
  Re  Re15  1  0.20886600  0.00000000  0.67257400  1
  Re  Re16  1  0.00000000  0.32742600  0.79113400  1
  Re  Re17  1  0.00000000  0.67257400  0.20886600  1
  Re  Re18  1  0.79113400  0.00000000  0.67257400  1
  Re  Re19  1  0.00000000  0.67257400  0.79113400  1
  Re  Re20  1  0.79113400  0.00000000  0.32742600  1
  Re  Re21  1  0.20886600  0.00000000  0.32742600  1
  Re  Re22  1  0.00000000  0.32742600  0.20886600  1
  Re  Re23  1  0.32742600  0.20886600  0.00000000  1
  Si  Si0  1  0.00000000  0.67922300  0.40333100  1
  Si  Si1  1  0.67922300  0.59666900  0.00000000  1
  Si  Si2  1  0.67922300  0.40333100  0.00000000  1
  Si  Si3  1  0.32077700  0.59666900  0.00000000  1
  Si  Si4  1  0.40333100  0.00000000  0.67922300  1
  Si  Si5  1  0.00000000  0.32077700  0.59666900  1
  Si  Si6  1  0.59666900  0.00000000  0.67922300  1
  Si  Si7  1  0.00000000  0.67922300  0.59666900  1
  Si  Si8  1  0.59666900  0.00000000  0.32077700  1
  Si  Si9  1  0.40333100  0.00000000  0.32077700  1
  Si  Si10  1  0.00000000  0.32077700  0.40333100  1
  Si  Si11  1  0.32077700  0.40333100  0.00000000  1
loop_
_geom_bond_atom_site_label_1
_geom_bond_atom_site_label_2
_geom_bond_distance
_geom_bond_site_symmetry_2
Al0 Re23 2.517190 1_555
Al0 Al24 2.878228 1_555
Al1 Re22 2.517190 1_555
Al1 Al25 2.878228 1_555
Al2 Re21 2.517190 1_555
Al2 Al26 2.878228 1_555
Al3 Re20 2.517190 1_555
Al4 Re19 2.517190 1_555
Al5 Re18 2.517190 1_555
Al6 Re17 2.517190 1_555
Al7 Re16 2.517190 1_555
Al8 Re15 2.517190 1_555
Al9 Re14 2.517190 1_555
Al10 Re13 2.517190 1_555
Al10 Al29 2.878228 1_555
Al11 Re12 2.517190 1_555
Al11 Al29 2.878228 1_565
Al12 Re0 2.514144 1_555
Al13 Re1 2.514144 1_555
Al14 Re2 2.514144 1_555
Al15 Re3 2.514144 1_555
Al16 Re4 2.514144 1_555
Al17 Re5 2.514144 1_555
Al18 Re6 2.514144 1_555
Al19 Re11 2.514144 1_555
Al20 Re10 2.514144 1_555
Al21 Re9 2.514144 1_555
Al22 Re8 2.514144 1_555
Al23 Re7 2.514144 1_555
Al24 Re23 2.741653 1_555
Al24 Re14 2.741653 1_545
Al24 Al88 2.767094 1_554
Al24 Al94 2.767094 1_555
Al24 Al91 2.767094 1_544
Al24 Al89 2.767094 1_545
Al24 Al9 2.878228 1_545
Al24 Al54 2.977008 1_554
Al24 Al37 2.977008 1_555
Al24 Al55 2.977008 1_545
Al24 Al40 2.977008 1_544
Al25 Re16 2.741653 1_554
Al25 Re22 2.741653 1_555
Al25 Al92 2.767094 1_455
Al25 Al90 2.767094 1_454
Al25 Al93 2.767094 1_555
Al25 Al87 2.767094 1_554
Al25 Al7 2.878228 1_554
Al25 Al56 2.977008 1_455
Al25 Al38 2.977008 1_555
Al25 Al51 2.977008 1_554
Al25 Al41 2.977008 1_454
Al26 Re21 2.741653 1_555
Al26 Re20 2.741653 1_455
Al26 Al95 2.767094 1_555
Al26 Al86 2.767094 1_545
Al26 Al85 2.767094 1_455
Al26 Al84 2.767094 1_445
Al26 Al3 2.878228 1_455
Al26 Al36 2.977008 1_555
Al26 Al58 2.977008 1_545
Al26 Al57 2.977008 1_455
Al26 Al47 2.977008 1_445
Al27 Re19 2.741653 1_554
Al27 Re17 2.741653 1_555
Al27 Al92 2.767094 1_455
Al27 Al90 2.767094 1_454
Al27 Al93 2.767094 1_555
Al27 Al87 2.767094 1_554
Al27 Al4 2.878228 1_554
Al27 Al6 2.878228 1_555
Al27 Al50 2.977008 1_454
Al27 Al53 2.977008 1_555
Al27 Al44 2.977008 1_554
Al27 Al39 2.977008 1_455
Al28 Re18 2.741653 1_455
Al28 Re15 2.741653 1_555
Al28 Al86 2.767094 1_545
Al28 Al95 2.767094 1_555
Al28 Al84 2.767094 1_445
Al28 Al85 2.767094 1_455
Al28 Al8 2.878228 1_555
Al28 Al5 2.878228 1_455
Al28 Al59 2.977008 1_555
Al28 Al45 2.977008 1_545
Al28 Al46 2.977008 1_455
Al28 Al48 2.977008 1_445
Al29 Re12 2.741653 1_545
Al29 Re13 2.741653 1_555
Al29 Al88 2.767094 1_554
Al29 Al91 2.767094 1_544
Al29 Al94 2.767094 1_555
Al29 Al89 2.767094 1_545
Al29 Al43 2.977008 1_554
Al29 Al52 2.977008 1_555
Al29 Al49 2.977008 1_544
Al29 Al42 2.977008 1_545
Al30 Re0 2.692724 1_555
Al30 Re9 2.692724 1_555
Al30 Si0 2.999479 1_555
Al30 Si5 2.999479 1_555
Al30 Si10 2.999479 1_555
Al30 Si7 2.999479 1_555
Al31 Re1 2.692724 1_555
Al31 Re11 2.692724 1_555
Al31 Si6 2.999479 1_555
Al31 Si4 2.999479 1_555
Al31 Si9 2.999479 1_555
Al31 Si8 2.999479 1_555
Al32 Re2 2.692724 1_555
Al32 Re3 2.692724 1_555
Al32 Si2 2.999479 1_555
Al32 Si3 2.999479 1_555
Al32 Si1 2.999479 1_555
Al32 Si11 2.999479 1_555
Al33 Re6 2.692724 1_555
Al33 Re4 2.692724 1_555
Al33 Si9 2.999479 1_565
Al33 Si8 2.999479 1_565
Al33 Si6 2.999479 1_565
Al33 Si4 2.999479 1_565
Al34 Re10 2.692724 1_555
Al34 Re5 2.692724 1_555
Al34 Si3 2.999479 1_556
Al34 Si2 2.999479 1_556
Al34 Si1 2.999479 1_556
Al34 Si11 2.999479 1_556
Al35 Re8 2.692724 1_555
Al35 Re7 2.692724 1_555
Al35 Si5 2.999479 1_655
Al35 Si7 2.999479 1_655
Al35 Si0 2.999479 1_655
Al35 Si10 2.999479 1_655
Al36 Si10 2.657181 1_555
Al36 Re22 2.688608 1_555
Al36 Re21 2.691134 1_555
Al36 Re0 2.976349 1_555
Al37 Si9 2.657181 1_555
Al37 Re21 2.688608 1_555
Al37 Re23 2.691134 1_555
Al37 Re1 2.976349 1_555
Al38 Si11 2.657181 1_555
Al38 Re23 2.688608 1_555
Al38 Re22 2.691134 1_555
Al38 Re2 2.976349 1_555
Al39 Si1 2.657181 1_555
Al39 Re12 2.688608 1_555
Al39 Re17 2.691134 1_655
Al39 Re3 2.976349 1_555
Al40 Si4 2.657181 1_565
Al40 Re15 2.688608 1_565
Al40 Re14 2.691134 1_556
Al40 Re4 2.976349 1_555
Al41 Si2 2.657181 1_556
Al41 Re13 2.688608 1_556
Al41 Re16 2.691134 1_655
Al41 Re5 2.976349 1_555
Al42 Si8 2.657181 1_565
Al42 Re20 2.688608 1_565
Al42 Re12 2.691134 1_555
Al42 Re6 2.976349 1_555
Al43 Si6 2.657181 1_555
Al43 Re18 2.688608 1_555
Al43 Re13 2.691134 1_556
Al43 Re11 2.976349 1_555
Al44 Si3 2.657181 1_556
Al44 Re14 2.688608 1_556
Al44 Re19 2.691134 1_555
Al44 Re10 2.976349 1_555
Al45 Si7 2.657181 1_555
Al45 Re19 2.688608 1_555
Al45 Re15 2.691134 1_565
Al45 Re9 2.976349 1_555
Al46 Si5 2.657181 1_655
Al46 Re16 2.688608 1_655
Al46 Re18 2.691134 1_555
Al46 Re8 2.976349 1_555
Al47 Si0 2.657181 1_655
Al47 Re17 2.688608 1_655
Al47 Re20 2.691134 1_565
Al47 Re7 2.976349 1_555
Al48 Si7 2.657181 1_655
Al48 Re19 2.688608 1_655
Al48 Re18 2.691134 1_565
Al48 Re7 2.976349 1_555
Al49 Si6 2.657181 1_565
Al49 Re18 2.688608 1_565
Al49 Re12 2.691134 1_556
Al49 Re4 2.976349 1_555
Al50 Si1 2.657181 1_556
Al50 Re12 2.688608 1_556
Al50 Re19 2.691134 1_655
Al50 Re5 2.976349 1_555
Al51 Si11 2.657181 1_556
Al51 Re23 2.688608 1_556
Al51 Re16 2.691134 1_555
Al51 Re10 2.976349 1_555
Al52 Si8 2.657181 1_555
Al52 Re20 2.688608 1_555
Al52 Re13 2.691134 1_555
Al52 Re1 2.976349 1_555
Al53 Si3 2.657181 1_555
Al53 Re14 2.688608 1_555
Al53 Re17 2.691134 1_555
Al53 Re2 2.976349 1_555
Al54 Si4 2.657181 1_555
Al54 Re15 2.688608 1_555
Al54 Re23 2.691134 1_556
Al54 Re11 2.976349 1_555
Al55 Si9 2.657181 1_565
Al55 Re21 2.688608 1_565
Al55 Re14 2.691134 1_555
Al55 Re6 2.976349 1_555
Al56 Si2 2.657181 1_555
Al56 Re13 2.688608 1_555
Al56 Re22 2.691134 1_655
Al56 Re3 2.976349 1_555
Al57 Si10 2.657181 1_655
Al57 Re22 2.688608 1_655
Al57 Re20 2.691134 1_555
Al57 Re8 2.976349 1_555
Al58 Si0 2.657181 1_555
Al58 Re17 2.688608 1_555
Al58 Re21 2.691134 1_565
Al58 Re9 2.976349 1_555
Al59 Si5 2.657181 1_555
Al59 Re16 2.688608 1_555
Al59 Re15 2.691134 1_555
Al59 Re0 2.976349 1_555
Al60 Re2 2.699647 1_555
Al60 Re1 2.749686 1_555
Al60 Si11 2.894839 1_555
Al60 Re23 2.966585 1_555
Al61 Re0 2.699647 1_555
Al61 Re2 2.749686 1_555
Al61 Si10 2.894839 1_555
Al61 Re22 2.966585 1_555
Al62 Re1 2.699647 1_555
Al62 Re0 2.749686 1_555
Al62 Si9 2.894839 1_555
Al62 Re21 2.966585 1_555
Al63 Re6 2.699647 1_555
Al63 Re7 2.749686 1_555
Al63 Si8 2.894839 1_565
Al63 Re20 2.966585 1_565
Al64 Re9 2.699647 1_555
Al64 Re10 2.749686 1_555
Al64 Si7 2.894839 1_555
Al64 Re19 2.966585 1_555
Al65 Re11 2.699647 1_555
Al65 Re8 2.749686 1_555
Al65 Si6 2.894839 1_555
Al65 Re18 2.966585 1_555
Al66 Re7 2.699647 1_555
Al66 Re3 2.749686 1_555
Al66 Si0 2.894839 1_655
Al66 Re17 2.966585 1_655
Al67 Re8 2.699647 1_555
Al67 Re5 2.749686 1_555
Al67 Si5 2.894839 1_655
Al67 Re16 2.966585 1_655
Al68 Re4 2.699647 1_555
Al68 Re9 2.749686 1_555
Al68 Si4 2.894839 1_565
Al68 Re15 2.966585 1_565
Al69 Re10 2.699647 1_555
Al69 Re4 2.749686 1_555
Al69 Si3 2.894839 1_556
Al69 Re14 2.966585 1_556
Al70 Re5 2.699647 1_555
Al70 Re11 2.749686 1_555
Al70 Si2 2.894839 1_556
Al70 Re13 2.966585 1_556
Al71 Re3 2.699647 1_555
Al71 Re6 2.749686 1_555
Al71 Si1 2.894839 1_555
Al71 Re12 2.966585 1_555
Al72 Re5 2.699647 1_555
Al72 Re4 2.749686 1_555
Al72 Si1 2.894839 1_556
Al72 Re12 2.966585 1_556
Al73 Re7 2.699647 1_555
Al73 Re5 2.749686 1_555
Al73 Si7 2.894839 1_655
Al73 Re19 2.966585 1_655
Al74 Re4 2.699647 1_555
Al74 Re7 2.749686 1_555
Al74 Si6 2.894839 1_565
Al74 Re18 2.966585 1_565
Al75 Re11 2.699647 1_555
Al75 Re0 2.749686 1_555
Al75 Si4 2.894839 1_555
Al75 Re15 2.966585 1_555
Al76 Re8 2.699647 1_555
Al76 Re3 2.749686 1_555
Al76 Si10 2.894839 1_655
Al76 Re22 2.966585 1_655
Al77 Re6 2.699647 1_555
Al77 Re9 2.749686 1_555
Al77 Si9 2.894839 1_565
Al77 Re21 2.966585 1_565
Al78 Re0 2.699647 1_555
Al78 Re10 2.749686 1_555
Al78 Si5 2.894839 1_555
Al78 Re16 2.966585 1_555
Al79 Re9 2.699647 1_555
Al79 Re2 2.749686 1_555
Al79 Si0 2.894839 1_555
Al79 Re17 2.966585 1_555
Al80 Re1 2.699647 1_555
Al80 Re8 2.749686 1_555
Al80 Si8 2.894839 1_555
Al80 Re20 2.966585 1_555
Al81 Re3 2.699647 1_555
Al81 Re1 2.749686 1_555
Al81 Si2 2.894839 1_555
Al81 Re13 2.966585 1_555
Al82 Re2 2.699647 1_555
Al82 Re6 2.749686 1_555
Al82 Si3 2.894839 1_555
Al82 Re14 2.966585 1_555
Al83 Re10 2.699647 1_555
Al83 Re11 2.749686 1_555
Al83 Si11 2.894839 1_556
Al83 Re23 2.966585 1_556
Al84 Re7 2.567081 1_555
Al84 Re18 2.800471 1_565
Al84 Re20 2.800471 1_565
Al85 Re8 2.567081 1_555
Al85 Re20 2.800471 1_555
Al85 Re18 2.800471 1_555
Al86 Re9 2.567081 1_555
Al86 Re21 2.800471 1_565
Al86 Re15 2.800471 1_565
Al87 Re10 2.567081 1_555
Al87 Re16 2.800471 1_555
Al87 Re19 2.800471 1_555
Al88 Re11 2.567081 1_555
Al88 Re13 2.800471 1_556
Al88 Re23 2.800471 1_556
Al89 Re6 2.567081 1_555
Al89 Re14 2.800471 1_555
Al89 Re12 2.800471 1_555
Al90 Re5 2.567081 1_555
Al90 Re19 2.800471 1_655
Al90 Re16 2.800471 1_655
Al91 Re4 2.567081 1_555
Al91 Re14 2.800471 1_556
Al91 Re12 2.800471 1_556
Al92 Re3 2.567081 1_555
Al92 Re22 2.800471 1_655
Al92 Re17 2.800471 1_655
Al93 Re2 2.567081 1_555
Al93 Re17 2.800471 1_555
Al93 Re22 2.800471 1_555
Al94 Re1 2.567081 1_555
Al94 Re23 2.800471 1_555
Al94 Re13 2.800471 1_555
Al95 Re0 2.567081 1_555
Al95 Re21 2.800471 1_555
Al95 Re15 2.800471 1_555
Al96 Si8 2.592436 1_555
Al96 Si6 2.592436 1_555
Al96 Re20 2.607937 1_555
Al96 Re18 2.607937 1_555
Al97 Si7 2.592436 1_555
Al97 Si5 2.592436 1_555
Al97 Re16 2.607937 1_555
Al97 Re19 2.607937 1_555
Al98 Si1 2.592436 1_555
Al98 Si3 2.592436 1_555
Al98 Re14 2.607937 1_555
Al98 Re12 2.607937 1_555
Al99 Si0 2.592436 1_555
Al99 Si10 2.592436 1_555
Al99 Re17 2.607937 1_555
Al99 Re22 2.607937 1_555
Al100 Si2 2.592436 1_555
Al100 Si11 2.592436 1_555
Al100 Re13 2.607937 1_555
Al100 Re23 2.607937 1_555
Al101 Si4 2.592436 1_555
Al101 Si9 2.592436 1_555
Al101 Re15 2.607937 1_555
Al101 Re21 2.607937 1_555
Re0 Si5 2.494327 1_555
Re0 Si10 2.494327 1_555
Re1 Si9 2.494327 1_555
Re1 Si8 2.494327 1_555
Re2 Si11 2.494327 1_555
Re2 Si3 2.494327 1_555
Re3 Si1 2.494327 1_555
Re3 Si2 2.494327 1_555
Re4 Si6 2.494327 1_565
Re4 Si4 2.494327 1_565
Re5 Si1 2.494327 1_556
Re5 Si2 2.494327 1_556
Re6 Si8 2.494327 1_565
Re6 Si9 2.494327 1_565
Re7 Si0 2.494327 1_655
Re7 Si7 2.494327 1_655
Re8 Si10 2.494327 1_655
Re8 Si5 2.494327 1_655
Re9 Si0 2.494327 1_555
Re9 Si7 2.494327 1_555
Re10 Si11 2.494327 1_556
Re10 Si3 2.494327 1_556
Re11 Si6 2.494327 1_555
Re11 Si4 2.494327 1_555
Re12 Si1 2.515352 1_555
Re13 Si2 2.515352 1_555
Re14 Si3 2.515352 1_555
Re15 Si4 2.515352 1_555
Re16 Si5 2.515352 1_555
Re17 Si0 2.515352 1_555
Re18 Si6 2.515352 1_555
Re19 Si7 2.515352 1_555
Re20 Si8 2.515352 1_555
Re21 Si9 2.515352 1_555
Re22 Si10 2.515352 1_555
Re23 Si11 2.515352 1_555
Si0 Si7 2.499314 1_555
Si1 Si2 2.499314 1_555
Si4 Si6 2.499314 1_555
Si8 Si9 2.499314 1_555
Si10 Si5 2.499314 1_555
Si11 Si3 2.499314 1_555
