# generated using pymatgen
data_CeSi2Ir3
_symmetry_space_group_name_H-M   'P 1'
_cell_length_a   5.61847969
_cell_length_b   6.67432328
_cell_length_c   6.67432332
_cell_angle_alpha   65.01741313
_cell_angle_beta   65.10840679
_cell_angle_gamma   65.10841388
_symmetry_Int_Tables_number   1
_chemical_formula_structural   CeSi2Ir3
_chemical_formula_sum   'Ce2 Si4 Ir6'
_cell_volume   196.58891980
_cell_formula_units_Z   2
loop_
 _symmetry_equiv_pos_site_id
 _symmetry_equiv_pos_as_xyz
  1  'x, y, z'
loop_
 _atom_site_type_symbol
 _atom_site_label
 _atom_site_symmetry_multiplicity
 _atom_site_fract_x
 _atom_site_fract_y
 _atom_site_fract_z
 _atom_site_occupancy
  Ce  Ce0  1  0.96792925  0.75000000  0.75000000  1
  Ce  Ce1  1  0.03207075  0.25000000  0.25000000  1
  Si  Si0  1  0.61968718  0.57896607  0.57896607  1
  Si  Si1  1  0.72238268  0.07896607  0.07896607  1
  Si  Si2  1  0.38031282  0.42103393  0.42103393  1
  Si  Si3  1  0.27761732  0.92103393  0.92103393  1
  Ir  Ir0  1  0.50000000  0.21794690  0.78205310  1
  Ir  Ir1  1  0.50000000  0.50000000  -0.00000000  1
  Ir  Ir2  1  0.00000000  0.28205310  0.71794690  1
  Ir  Ir3  1  0.50000000  0.78205310  0.21794690  1
  Ir  Ir4  1  -0.00000000  0.71794690  0.28205310  1
  Ir  Ir5  1  0.50000000  0.00000000  0.50000000  1
loop_
_geom_bond_atom_site_label_1
_geom_bond_atom_site_label_2
_geom_bond_distance
_geom_bond_site_symmetry_2
Ce0 Ir3 3.144993 1_556
Ce0 Ir0 3.144994 1_565
Ce0 Ir4 3.144994 1_655
Ce0 Ir2 3.144994 1_655
Ce0 Si3 3.174665 1_655
Ce0 Si0 3.174675 1_655
Ce0 Ir1 3.182529 1_556
Ce0 Ir5 3.182529 1_565
Ce0 Si2 3.243003 1_655
Ce0 Si1 3.243005 1_566
Ce0 Si0 3.360885 1_555
Ce0 Si3 3.360894 1_555
Ce0 Ir5 3.486153 1_665
Ce0 Ir1 3.486154 1_656
Ce0 Ir3 3.543020 1_655
Ce0 Ir0 3.543021 1_655
Ce0 Ir2 3.543021 1_665
Ce0 Ir4 3.543021 1_656
Ce0 Ce1 3.605024 1_665
Ce0 Ce1 3.605025 1_656
Ce1 Ir0 3.144993 1_554
Ce1 Ir3 3.144994 1_545
Ce1 Ir2 3.144994 1_555
Ce1 Ir4 3.144994 1_555
Ce1 Si1 3.174665 1_455
Ce1 Si2 3.174675 1_455
Ce1 Ir1 3.182529 1_555
Ce1 Ir5 3.182529 1_555
Ce1 Si0 3.243003 1_455
Ce1 Si3 3.243005 1_544
Ce1 Si2 3.360885 1_555
Ce1 Si1 3.360894 1_555
Ce1 Ir5 3.486153 1_455
Ce1 Ir1 3.486154 1_455
Ce1 Ir0 3.543020 1_455
Ce1 Ir3 3.543021 1_455
Ce1 Ir4 3.543021 1_545
Ce1 Ir2 3.543021 1_554
Ir0 Si3 2.429949 1_545
Ir0 Si1 2.429949 1_556
Ir0 Si0 2.435849 1_555
Ir0 Si2 2.435849 1_555
Ir1 Si2 2.466435 1_555
Ir1 Si0 2.466435 1_554
Ir1 Si3 2.466437 1_554
Ir1 Si1 2.466437 1_555
Ir2 Si2 2.429941 1_555
Ir2 Si0 2.429941 1_455
Ir2 Si1 2.435843 1_456
Ir2 Si3 2.435844 1_545
Ir3 Si1 2.429949 1_565
Ir3 Si3 2.429949 1_554
Ir3 Si2 2.435849 1_555
Ir3 Si0 2.435849 1_555
Ir4 Si0 2.429941 1_455
Ir4 Si2 2.429941 1_555
Ir4 Si3 2.435843 1_554
Ir4 Si1 2.435844 1_465
Ir5 Si2 2.466435 1_555
Ir5 Si0 2.466435 1_545
Ir5 Si1 2.466437 1_555
Ir5 Si3 2.466437 1_545
