# generated using pymatgen
data_UMnSe3
_symmetry_space_group_name_H-M   'P 1'
_cell_length_a   5.81540086
_cell_length_b   5.81540086
_cell_length_c   9.16261600
_cell_angle_alpha   90.00000000
_cell_angle_beta   90.00000000
_cell_angle_gamma   140.74442646
_symmetry_Int_Tables_number   1
_chemical_formula_structural   UMnSe3
_chemical_formula_sum   'U2 Mn2 Se6'
_cell_volume   196.07941043
_cell_formula_units_Z   2
loop_
 _symmetry_equiv_pos_site_id
 _symmetry_equiv_pos_as_xyz
  1  'x, y, z'
loop_
 _atom_site_type_symbol
 _atom_site_label
 _atom_site_symmetry_multiplicity
 _atom_site_fract_x
 _atom_site_fract_y
 _atom_site_fract_z
 _atom_site_occupancy
  U  U0  1  0.78050200  0.21949800  0.25000000  1
  U  U1  1  0.21949800  0.78050200  0.75000000  1
  Mn  Mn0  1  0.00000000  0.00000000  0.50000000  1
  Mn  Mn1  1  0.00000000  0.00000000  0.00000000  1
  Se  Se0  1  0.92243000  0.07757000  0.75000000  1
  Se  Se1  1  0.07757000  0.92243000  0.25000000  1
  Se  Se2  1  0.63599200  0.36400800  0.96217200  1
  Se  Se3  1  0.36400800  0.63599200  0.03782800  1
  Se  Se4  1  0.36400800  0.63599200  0.46217200  1
  Se  Se5  1  0.63599200  0.36400800  0.53782800  1
loop_
_geom_bond_atom_site_label_1
_geom_bond_atom_site_label_2
_geom_bond_distance
_geom_bond_site_symmetry_2
Mn0 Se1 2.443199 1_545
Mn0 Se0 2.443199 1_455
Mn0 Se5 2.481037 1_445
Mn0 Se4 2.481037 1_445
Mn0 Se4 2.481037 1_555
Mn0 Se5 2.481037 1_555
Mn1 Se1 2.443199 1_545
Mn1 Se0 2.443199 1_454
Mn1 Se3 2.481037 1_445
Mn1 Se2 2.481037 1_554
Mn1 Se3 2.481037 1_555
Mn1 Se2 2.481037 1_444
Se0 U1 2.959424 1_545
Se0 U1 2.959424 1_655
Se0 U1 3.254377 1_645
Se1 U0 2.959424 1_565
Se1 U0 2.959424 1_455
Se1 U0 3.254377 1_465
Se2 U1 2.903815 1_545
Se2 U1 2.903815 1_655
Se2 U0 3.075931 1_556
Se3 U0 2.903815 1_565
Se3 U0 2.903815 1_455
Se3 U1 3.075931 1_554
Se4 U0 2.903815 1_565
Se4 U0 2.903815 1_455
Se4 U1 3.075931 1_555
Se5 U1 2.903815 1_545
Se5 U1 2.903815 1_655
Se5 U0 3.075931 1_555
