# generated using pymatgen
data_ZnCoO3
_symmetry_space_group_name_H-M   'P 1'
_cell_length_a   4.97813300
_cell_length_b   5.03293800
_cell_length_c   7.28657200
_cell_angle_alpha   90.00000000
_cell_angle_beta   90.00000000
_cell_angle_gamma   90.00000000
_symmetry_Int_Tables_number   1
_chemical_formula_structural   ZnCoO3
_chemical_formula_sum   'Zn4 Co4 O12'
_cell_volume   182.56240000
_cell_formula_units_Z   4
loop_
 _symmetry_equiv_pos_site_id
 _symmetry_equiv_pos_as_xyz
  1  'x, y, z'
loop_
 _atom_site_type_symbol
 _atom_site_label
 _atom_site_symmetry_multiplicity
 _atom_site_fract_x
 _atom_site_fract_y
 _atom_site_fract_z
 _atom_site_occupancy
  Zn  Zn0  1  0.99373400  0.55116600  0.75000000  1
  Zn  Zn1  1  0.49373400  0.94883400  0.25000000  1
  Zn  Zn2  1  0.50626600  0.05116600  0.75000000  1
  Zn  Zn3  1  0.00626600  0.44883400  0.25000000  1
  Co  Co0  1  0.50000000  0.50000000  0.50000000  1
  Co  Co1  1  0.00000000  0.00000000  0.50000000  1
  Co  Co2  1  0.00000000  0.00000000  0.00000000  1
  Co  Co3  1  0.50000000  0.50000000  0.00000000  1
  O  O0  1  0.88126400  0.05730000  0.25000000  1
  O  O1  1  0.38126400  0.44270000  0.75000000  1
  O  O2  1  0.61873600  0.55730000  0.25000000  1
  O  O3  1  0.11873600  0.94270000  0.75000000  1
  O  O4  1  0.68670600  0.81193400  0.93610800  1
  O  O5  1  0.18670600  0.68806600  0.06389200  1
  O  O6  1  0.81329400  0.31193400  0.56389200  1
  O  O7  1  0.31329400  0.18806600  0.43610800  1
  O  O8  1  0.68670600  0.81193400  0.56389200  1
  O  O9  1  0.18670600  0.68806600  0.43610800  1
  O  O10  1  0.31329400  0.18806600  0.06389200  1
  O  O11  1  0.81329400  0.31193400  0.93610800  1
loop_
_geom_bond_atom_site_label_1
_geom_bond_atom_site_label_2
_geom_bond_distance
_geom_bond_site_symmetry_2
Co0 O9 1.882833 1_555
Co0 O6 1.882833 1_555
Co0 O7 1.882907 1_555
Co0 O8 1.882907 1_555
Co0 O2 1.936732 1_555
Co0 O1 1.936732 1_555
Co1 O8 1.882833 1_445
Co1 O7 1.882833 1_555
Co1 O6 1.882907 1_455
Co1 O9 1.882907 1_545
Co1 O0 1.936732 1_455
Co1 O3 1.936732 1_545
Co2 O4 1.882833 1_444
Co2 O10 1.882833 1_555
Co2 O11 1.882907 1_454
Co2 O5 1.882907 1_545
Co2 O0 1.936732 1_455
Co2 O3 1.936732 1_544
Co3 O11 1.882833 1_554
Co3 O5 1.882833 1_555
Co3 O10 1.882907 1_555
Co3 O4 1.882907 1_554
Co3 O2 1.936732 1_555
Co3 O1 1.936732 1_554
O0 Zn1 2.004926 1_545
O0 Zn3 2.066485 1_655
O1 Zn0 2.004926 1_455
O1 Zn2 2.066485 1_555
O2 Zn3 2.004926 1_655
O2 Zn1 2.066485 1_555
O3 Zn2 2.004926 1_565
O3 Zn0 2.066485 1_455
O4 Zn2 2.023747 1_565
O5 Zn3 2.023747 1_555
O6 Zn0 2.023747 1_555
O7 Zn1 2.023747 1_545
O8 Zn2 2.023747 1_565
O9 Zn3 2.023747 1_555
O10 Zn1 2.023747 1_545
O11 Zn0 2.023747 1_555
