# generated using pymatgen
data_Ga3Pt
_symmetry_space_group_name_H-M   'P 1'
_cell_length_a   4.57869036
_cell_length_b   4.57869036
_cell_length_c   4.57869036
_cell_angle_alpha   60.00000000
_cell_angle_beta   60.00000000
_cell_angle_gamma   60.00000000
_symmetry_Int_Tables_number   1
_chemical_formula_structural   Ga3Pt
_chemical_formula_sum   'Ga3 Pt1'
_cell_volume   67.87484104
_cell_formula_units_Z   1
loop_
 _symmetry_equiv_pos_site_id
 _symmetry_equiv_pos_as_xyz
  1  'x, y, z'
loop_
 _atom_site_type_symbol
 _atom_site_label
 _atom_site_symmetry_multiplicity
 _atom_site_fract_x
 _atom_site_fract_y
 _atom_site_fract_z
 _atom_site_occupancy
  Ga  Ga0  1  0.25000000  0.25000000  0.25000000  1
  Ga  Ga1  1  0.75000000  0.75000000  0.75000000  1
  Ga  Ga2  1  0.50000000  0.50000000  0.50000000  1
  Pt  Pt0  1  0.00000000  0.00000000  0.00000000  1
loop_
_geom_bond_atom_site_label_1
_geom_bond_atom_site_label_2
_geom_bond_distance
_geom_bond_site_symmetry_2
Ga0 Ga2 2.803864 1_554
Ga0 Pt0 2.803864 1_655
Ga0 Pt0 2.803864 1_555
Ga0 Pt0 2.803864 1_556
Ga0 Pt0 2.803864 1_565
Ga0 Ga2 2.803864 1_455
Ga0 Ga2 2.803864 1_545
Ga0 Ga2 2.803864 1_555
Ga1 Ga2 2.803864 1_655
Ga1 Pt0 2.803864 1_566
Ga1 Pt0 2.803864 1_656
Ga1 Ga2 2.803864 1_556
Ga1 Ga2 2.803864 1_565
Ga1 Pt0 2.803864 1_666
Ga1 Pt0 2.803864 1_665
Ga1 Ga2 2.803864 1_555
Ga2 Pt0 3.237623 1_665
Ga2 Pt0 3.237623 1_566
Ga2 Pt0 3.237623 1_556
Ga2 Pt0 3.237623 1_655
Ga2 Pt0 3.237623 1_565
Ga2 Pt0 3.237623 1_656
