# generated using pymatgen
data_Na10NbGaAs6
_symmetry_space_group_name_H-M   'P 1'
_cell_length_a   7.55507600
_cell_length_b   8.39626400
_cell_length_c   15.94301684
_cell_angle_alpha   59.22174960
_cell_angle_beta   90.00000000
_cell_angle_gamma   90.00000000
_symmetry_Int_Tables_number   1
_chemical_formula_structural   Na10NbGaAs6
_chemical_formula_sum   'Na20 Nb2 Ga2 As12'
_cell_volume   868.89350143
_cell_formula_units_Z   2
loop_
 _symmetry_equiv_pos_site_id
 _symmetry_equiv_pos_as_xyz
  1  'x, y, z'
loop_
 _atom_site_type_symbol
 _atom_site_label
 _atom_site_symmetry_multiplicity
 _atom_site_fract_x
 _atom_site_fract_y
 _atom_site_fract_z
 _atom_site_occupancy
  Na  Na0  1  0.73604100  0.94271800  0.24471300  1
  Na  Na1  1  0.26395900  0.94271800  0.74471300  1
  Na  Na2  1  0.76967400  0.05612700  0.75833200  1
  Na  Na3  1  0.23032600  0.05612700  0.25833200  1
  Na  Na4  1  0.27108800  0.24665400  0.41908900  1
  Na  Na5  1  0.72891200  0.24665400  0.91908900  1
  Na  Na6  1  0.22272500  0.75327900  0.57932400  1
  Na  Na7  1  0.77727500  0.75327900  0.07932400  1
  Na  Na8  1  0.08961700  0.34611900  0.58244100  1
  Na  Na9  1  0.91038300  0.34611900  0.08244100  1
  Na  Na10  1  0.40762300  0.65614400  0.41828800  1
  Na  Na11  1  0.59237700  0.65614400  0.91828800  1
  Na  Na12  1  0.59632800  0.33494900  0.24237700  1
  Na  Na13  1  0.40367200  0.33494900  0.74237700  1
  Na  Na14  1  0.90725400  0.66386100  0.75959100  1
  Na  Na15  1  0.09274600  0.66386100  0.25959100  1
  Na  Na16  1  0.76760300  0.42023400  0.40898300  1
  Na  Na17  1  0.23239700  0.42023400  0.90898300  1
  Na  Na18  1  0.73803200  0.58113300  0.58916400  1
  Na  Na19  1  0.26196800  0.58113300  0.08916400  1
  Nb  Nb0  1  0.61696300  0.98828000  0.57901900  1
  Nb  Nb1  1  0.38303700  0.98828000  0.07901900  1
  Ga  Ga0  1  0.88967700  0.01210300  0.41644500  1
  Ga  Ga1  1  0.11032300  0.01210300  0.91644500  1
  As  As0  1  0.98236400  0.31644700  0.27219700  1
  As  As1  1  0.01763600  0.31644700  0.77219700  1
  As  As2  1  0.51940500  0.69057600  0.72601800  1
  As  As3  1  0.48059500  0.69057600  0.22601800  1
  As  As4  1  0.94733600  0.01889200  0.57499000  1
  As  As5  1  0.05266400  0.01889200  0.07499000  1
  As  As6  1  0.54333700  0.98004900  0.42753800  1
  As  As7  1  0.45666300  0.98004900  0.92753800  1
  As  As8  1  0.00500600  0.72550800  0.42227700  1
  As  As9  1  0.99499400  0.72550800  0.92227700  1
  As  As10  1  0.49264900  0.26692500  0.57921400  1
  As  As11  1  0.50735100  0.26692500  0.07921400  1
loop_
_geom_bond_atom_site_label_1
_geom_bond_atom_site_label_2
_geom_bond_distance
_geom_bond_site_symmetry_2
Ga0 Na0 3.288671 1_545
Ga1 Na1 3.288671 1_545
As0 Ga0 2.508914 1_555
As0 Na15 2.940177 1_655
As0 Na12 2.946307 1_555
As0 Na9 2.956144 1_555
As0 Na3 2.971567 1_655
As0 Na4 3.030114 1_655
As0 Na16 3.176905 1_555
As0 Na19 3.358501 1_655
As1 Ga1 2.508914 1_555
As1 Na14 2.940177 1_455
As1 Na13 2.946307 1_555
As1 Na8 2.956144 1_555
As1 Na2 2.971567 1_455
As1 Na5 3.030114 1_455
As1 Na17 3.176905 1_555
As1 Na18 3.358501 1_455
As2 Nb0 2.507668 1_555
As2 Na14 2.966509 1_555
As2 Na11 2.979432 1_555
As2 Na1 2.990166 1_555
As2 Na13 2.991882 1_555
As2 Na6 3.083961 1_555
As2 Na18 3.222595 1_555
As2 Na17 3.403922 1_555
As3 Nb1 2.507668 1_555
As3 Na15 2.966509 1_555
As3 Na10 2.979432 1_555
As3 Na0 2.990166 1_555
As3 Na12 2.991882 1_555
As3 Na7 3.083961 1_555
As3 Na19 3.222595 1_555
As3 Na16 3.403922 1_555
As4 Nb0 2.506646 1_545
As4 Ga0 2.594160 1_555
As4 Na14 2.942911 1_545
As4 Na8 3.008706 1_655
As4 Na6 3.024814 1_645
As4 Na4 3.309552 1_655
As4 Na16 3.328124 1_555
As4 Na2 3.373233 1_555
As4 Na1 3.417886 1_645
As5 Nb1 2.506646 1_545
As5 Ga1 2.594160 1_554
As5 Na15 2.942911 1_545
As5 Na9 3.008706 1_455
As5 Na7 3.024814 1_445
As5 Na5 3.309552 1_454
As5 Na17 3.328124 1_554
As5 Na3 3.373233 1_555
As5 Na0 3.417886 1_445
As6 Nb0 2.513472 1_555
As6 Ga0 2.627113 1_565
As6 Na12 2.958287 1_565
As6 Na10 2.979881 1_555
As6 Na4 2.991830 1_565
As6 Na6 3.260838 1_555
As6 Na18 3.345007 1_555
As6 Na3 3.393256 1_565
As6 Na0 3.413041 1_555
As7 Nb1 2.513472 1_556
As7 Ga1 2.627113 1_565
As7 Na13 2.958287 1_565
As7 Na11 2.979881 1_555
As7 Na5 2.991830 1_565
As7 Na7 3.260838 1_556
As7 Na19 3.345007 1_556
As7 Na2 3.393256 1_565
As7 Na1 3.413041 1_555
As8 Ga0 2.515804 1_465
As8 Na8 2.958281 1_555
As8 Na15 2.967930 1_555
As8 Na18 3.052232 1_455
As8 Na6 3.102667 1_555
As8 Na10 3.103820 1_555
As8 Na3 3.163841 1_565
As8 Na0 3.191469 1_455
As8 Na16 3.222994 1_455
As9 Ga1 2.515804 1_665
As9 Na9 2.958281 1_556
As9 Na14 2.967930 1_555
As9 Na19 3.052232 1_656
As9 Na7 3.102667 1_556
As9 Na11 3.103820 1_555
As9 Na2 3.163841 1_565
As9 Na1 3.191469 1_655
As9 Na17 3.222994 1_655
As10 Nb0 2.522533 1_545
As10 Na13 3.010891 1_555
As10 Na10 3.015617 1_555
As10 Na8 3.122729 1_555
As10 Na16 3.124500 1_555
As10 Na4 3.129345 1_555
As10 Na1 3.163280 1_545
As10 Na2 3.239627 1_555
As10 Na18 3.293984 1_555
As11 Nb1 2.522533 1_545
As11 Na12 3.010891 1_555
As11 Na11 3.015617 1_554
As11 Na9 3.122729 1_555
As11 Na17 3.124500 1_554
As11 Na5 3.129345 1_554
As11 Na0 3.163280 1_545
As11 Na3 3.239627 1_555
As11 Na19 3.293984 1_555
