# generated using pymatgen
data_Si5(PbN4)2
_symmetry_space_group_name_H-M   'P 1'
_cell_length_a   10.96029500
_cell_length_b   9.89265600
_cell_length_c   13.87427000
_cell_angle_alpha   90.00000000
_cell_angle_beta   90.00000000
_cell_angle_gamma   90.00000000
_symmetry_Int_Tables_number   1
_chemical_formula_structural   Si5(PbN4)2
_chemical_formula_sum   'Si40 Pb16 N64'
_cell_volume   1504.33753851
_cell_formula_units_Z   8
loop_
 _symmetry_equiv_pos_site_id
 _symmetry_equiv_pos_as_xyz
  1  'x, y, z'
loop_
 _atom_site_type_symbol
 _atom_site_label
 _atom_site_symmetry_multiplicity
 _atom_site_fract_x
 _atom_site_fract_y
 _atom_site_fract_z
 _atom_site_occupancy
  Si  Si0  1  0.39496900  0.23621100  0.83759600  1
  Si  Si1  1  0.89496900  0.26378900  0.16240400  1
  Si  Si2  1  0.60503100  0.73621100  0.66240400  1
  Si  Si3  1  0.10503100  0.76378900  0.33759600  1
  Si  Si4  1  0.60503100  0.76378900  0.16240400  1
  Si  Si5  1  0.10503100  0.73621100  0.83759600  1
  Si  Si6  1  0.39496900  0.26378900  0.33759600  1
  Si  Si7  1  0.89496900  0.23621100  0.66240400  1
  Si  Si8  1  0.16145700  0.23164000  0.72276100  1
  Si  Si9  1  0.66145700  0.26836000  0.27723900  1
  Si  Si10  1  0.83854300  0.73164000  0.77723900  1
  Si  Si11  1  0.33854300  0.76836000  0.22276100  1
  Si  Si12  1  0.83854300  0.76836000  0.27723900  1
  Si  Si13  1  0.33854300  0.73164000  0.72276100  1
  Si  Si14  1  0.16145700  0.26836000  0.22276100  1
  Si  Si15  1  0.66145700  0.23164000  0.77723900  1
  Si  Si16  1  0.25452600  0.97646000  0.83505300  1
  Si  Si17  1  0.75452600  0.52354000  0.16494700  1
  Si  Si18  1  0.74547400  0.47646000  0.66494700  1
  Si  Si19  1  0.24547400  0.02354000  0.33505300  1
  Si  Si20  1  0.74547400  0.02354000  0.16494700  1
  Si  Si21  1  0.24547400  0.47646000  0.83505300  1
  Si  Si22  1  0.25452600  0.52354000  0.33505300  1
  Si  Si23  1  0.75452600  0.97646000  0.66494700  1
  Si  Si24  1  0.97437500  0.00231600  0.79209200  1
  Si  Si25  1  0.47437500  0.49768400  0.20790800  1
  Si  Si26  1  0.02562500  0.50231600  0.70790800  1
  Si  Si27  1  0.52562500  0.99768400  0.29209200  1
  Si  Si28  1  0.02562500  0.99768400  0.20790800  1
  Si  Si29  1  0.52562500  0.50231600  0.79209200  1
  Si  Si30  1  0.97437500  0.49768400  0.29209200  1
  Si  Si31  1  0.47437500  0.00231600  0.70790800  1
  Si  Si32  1  0.81905300  0.13948700  0.96584900  1
  Si  Si33  1  0.31905300  0.36051300  0.03415100  1
  Si  Si34  1  0.18094700  0.63948700  0.53415100  1
  Si  Si35  1  0.68094700  0.86051300  0.46584900  1
  Si  Si36  1  0.18094700  0.86051300  0.03415100  1
  Si  Si37  1  0.68094700  0.63948700  0.96584900  1
  Si  Si38  1  0.81905300  0.36051300  0.46584900  1
  Si  Si39  1  0.31905300  0.13948700  0.53415100  1
  Pb  Pb0  1  0.10165300  0.16356600  0.98168200  1
  Pb  Pb1  1  0.60165300  0.33643400  0.01831800  1
  Pb  Pb2  1  0.89834700  0.66356600  0.51831800  1
  Pb  Pb3  1  0.39834700  0.83643400  0.48168200  1
  Pb  Pb4  1  0.89834700  0.83643400  0.01831800  1
  Pb  Pb5  1  0.39834700  0.66356600  0.98168200  1
  Pb  Pb6  1  0.10165300  0.33643400  0.48168200  1
  Pb  Pb7  1  0.60165300  0.16356600  0.51831800  1
  Pb  Pb8  1  0.38775100  0.07069700  0.07868400  1
  Pb  Pb9  1  0.88775100  0.42930300  0.92131600  1
  Pb  Pb10  1  0.61224900  0.57069700  0.42131600  1
  Pb  Pb11  1  0.11224900  0.92930300  0.57868400  1
  Pb  Pb12  1  0.61224900  0.92930300  0.92131600  1
  Pb  Pb13  1  0.11224900  0.57069700  0.07868400  1
  Pb  Pb14  1  0.38775100  0.42930300  0.57868400  1
  Pb  Pb15  1  0.88775100  0.07069700  0.42131600  1
  N  N0  1  0.90538100  0.25345300  0.03815700  1
  N  N1  1  0.40538100  0.24654700  0.96184300  1
  N  N2  1  0.09461900  0.75345300  0.46184300  1
  N  N3  1  0.59461900  0.74654700  0.53815700  1
  N  N4  1  0.09461900  0.74654700  0.96184300  1
  N  N5  1  0.59461900  0.75345300  0.03815700  1
  N  N6  1  0.90538100  0.24654700  0.53815700  1
  N  N7  1  0.40538100  0.25345300  0.46184300  1
  N  N8  1  0.91646500  0.03347700  0.90436500  1
  N  N9  1  0.41646500  0.46652300  0.09563500  1
  N  N10  1  0.08353500  0.53347700  0.59563500  1
  N  N11  1  0.58353500  0.96652300  0.40436500  1
  N  N12  1  0.08353500  0.96652300  0.09563500  1
  N  N13  1  0.58353500  0.53347700  0.90436500  1
  N  N14  1  0.91646500  0.46652300  0.40436500  1
  N  N15  1  0.41646500  0.03347700  0.59563500  1
  N  N16  1  0.73337400  0.24152900  0.88798200  1
  N  N17  1  0.23337400  0.25847100  0.11201800  1
  N  N18  1  0.26662600  0.74152900  0.61201800  1
  N  N19  1  0.76662600  0.75847100  0.38798200  1
  N  N20  1  0.26662600  0.75847100  0.11201800  1
  N  N21  1  0.76662600  0.74152900  0.88798200  1
  N  N22  1  0.73337400  0.25847100  0.38798200  1
  N  N23  1  0.23337400  0.24152900  0.61201800  1
  N  N24  1  0.27220000  0.95396500  0.95733800  1
  N  N25  1  0.77220000  0.54603500  0.04266200  1
  N  N26  1  0.72780000  0.45396500  0.54266200  1
  N  N27  1  0.22780000  0.04603500  0.45733800  1
  N  N28  1  0.72780000  0.04603500  0.04266200  1
  N  N29  1  0.22780000  0.45396500  0.95733800  1
  N  N30  1  0.27220000  0.54603500  0.45733800  1
  N  N31  1  0.77220000  0.95396500  0.54266200  1
  N  N32  1  0.01521000  0.14861100  0.72072800  1
  N  N33  1  0.51521000  0.35138900  0.27927200  1
  N  N34  1  0.98479000  0.64861100  0.77927200  1
  N  N35  1  0.48479000  0.85138900  0.22072800  1
  N  N36  1  0.98479000  0.85138900  0.27927200  1
  N  N37  1  0.48479000  0.64861100  0.72072800  1
  N  N38  1  0.01521000  0.35138900  0.22072800  1
  N  N39  1  0.51521000  0.14861100  0.77927200  1
  N  N40  1  0.36959500  0.89553300  0.76860000  1
  N  N41  1  0.86959500  0.60446700  0.23140000  1
  N  N42  1  0.63040500  0.39553300  0.73140000  1
  N  N43  1  0.13040500  0.10446700  0.26860000  1
  N  N44  1  0.63040500  0.10446700  0.23140000  1
  N  N45  1  0.13040500  0.39553300  0.76860000  1
  N  N46  1  0.36959500  0.60446700  0.26860000  1
  N  N47  1  0.86959500  0.89553300  0.73140000  1
  N  N48  1  0.26061500  0.14923700  0.80342800  1
  N  N49  1  0.76061500  0.35076300  0.19657200  1
  N  N50  1  0.73938500  0.64923700  0.69657200  1
  N  N51  1  0.23938500  0.85076300  0.30342800  1
  N  N52  1  0.73938500  0.85076300  0.19657200  1
  N  N53  1  0.23938500  0.64923700  0.80342800  1
  N  N54  1  0.26061500  0.35076300  0.30342800  1
  N  N55  1  0.76061500  0.14923700  0.69657200  1
  N  N56  1  0.11266800  0.90717500  0.79847000  1
  N  N57  1  0.61266800  0.59282500  0.20153000  1
  N  N58  1  0.88733200  0.40717500  0.70153000  1
  N  N59  1  0.38733200  0.09282500  0.29847000  1
  N  N60  1  0.88733200  0.09282500  0.20153000  1
  N  N61  1  0.38733200  0.40717500  0.79847000  1
  N  N62  1  0.11266800  0.59282500  0.29847000  1
  N  N63  1  0.61266800  0.90717500  0.70153000  1
loop_
_geom_bond_atom_site_label_1
_geom_bond_atom_site_label_2
_geom_bond_distance
_geom_bond_site_symmetry_2
N0 Si1 1.730633 1_555
N0 Si32 1.781235 1_554
N0 Pb9 2.385695 1_554
N0 Pb0 2.456078 1_654
N1 Si0 1.730633 1_555
N1 Si33 1.781235 1_556
N1 Pb8 2.385695 1_556
N1 Pb1 2.456078 1_556
N2 Si3 1.730633 1_555
N2 Si34 1.781235 1_555
N2 Pb11 2.385695 1_555
N2 Pb2 2.456078 1_455
N3 Si2 1.730633 1_555
N3 Si35 1.781235 1_555
N3 Pb10 2.385695 1_555
N3 Pb3 2.456078 1_555
N4 Si5 1.730633 1_555
N4 Si36 1.781235 1_556
N4 Pb13 2.385695 1_556
N4 Pb4 2.456078 1_456
N5 Si4 1.730633 1_555
N5 Si37 1.781235 1_554
N5 Pb12 2.385695 1_554
N5 Pb5 2.456078 1_554
N6 Si7 1.730633 1_555
N6 Si38 1.781235 1_555
N6 Pb15 2.385695 1_555
N6 Pb6 2.456078 1_655
N7 Si6 1.730633 1_555
N7 Si39 1.781235 1_555
N7 Pb14 2.385695 1_555
N7 Pb7 2.456078 1_555
N8 Si24 1.710068 1_555
N8 Si32 1.722617 1_555
N8 Pb4 2.517683 1_546
N8 Pb0 2.631852 1_655
N9 Si25 1.710068 1_555
N9 Si33 1.722617 1_555
N9 Pb5 2.517683 1_554
N9 Pb1 2.631852 1_555
N10 Si26 1.710068 1_555
N10 Si34 1.722617 1_555
N10 Pb6 2.517683 1_555
N10 Pb2 2.631852 1_455
N11 Si27 1.710068 1_555
N11 Si35 1.722617 1_555
N11 Pb7 2.517683 1_565
N11 Pb3 2.631852 1_555
N12 Si28 1.710068 1_555
N12 Si36 1.722617 1_555
N12 Pb0 2.517683 1_564
N12 Pb4 2.631852 1_455
N13 Si29 1.710068 1_555
N13 Si37 1.722617 1_555
N13 Pb1 2.517683 1_556
N13 Pb5 2.631852 1_555
N14 Si30 1.710068 1_555
N14 Si38 1.722617 1_555
N14 Pb2 2.517683 1_555
N14 Pb6 2.631852 1_655
N15 Si31 1.710068 1_555
N15 Si39 1.722617 1_555
N15 Pb3 2.517683 1_545
N15 Pb7 2.631852 1_555
N16 Si15 1.729637 1_555
N16 Si32 1.751577 1_555
N16 Pb1 2.497147 1_556
N16 Pb9 2.554884 1_555
N17 Si14 1.729637 1_555
N17 Si33 1.751577 1_555
N17 Pb0 2.497147 1_554
N17 Pb8 2.554884 1_555
N18 Si13 1.729637 1_555
N18 Si34 1.751577 1_555
N18 Pb3 2.497147 1_555
N18 Pb11 2.554884 1_555
N19 Si12 1.729637 1_555
N19 Si35 1.751577 1_555
N19 Pb2 2.497147 1_555
N19 Pb10 2.554884 1_555
N20 Si11 1.729637 1_555
N20 Si36 1.751577 1_555
N20 Pb5 2.497147 1_554
N20 Pb13 2.554884 1_555
N21 Si10 1.729637 1_555
N21 Si37 1.751577 1_555
N21 Pb4 2.497147 1_556
N21 Pb12 2.554884 1_555
N22 Si9 1.729637 1_555
N22 Si38 1.751577 1_555
N22 Pb7 2.497147 1_555
N22 Pb15 2.554884 1_555
N23 Si8 1.729637 1_555
N23 Si39 1.751577 1_555
N23 Pb6 2.497147 1_555
N23 Pb14 2.554884 1_555
N24 Si16 1.722077 1_555
N24 Si36 1.729383 1_556
N24 Pb8 2.402490 1_566
N24 Pb0 2.812046 1_565
N25 Si17 1.722077 1_555
N25 Si37 1.729383 1_554
N25 Pb9 2.402490 1_554
N25 Pb1 2.812046 1_555
N26 Si18 1.722077 1_555
N26 Si38 1.729383 1_555
N26 Pb10 2.402490 1_555
N26 Pb2 2.812046 1_555
N27 Si19 1.722077 1_555
N27 Si39 1.729383 1_555
N27 Pb11 2.402490 1_545
N27 Pb3 2.812046 1_545
N28 Si20 1.722077 1_555
N28 Si32 1.729383 1_554
N28 Pb12 2.402490 1_544
N28 Pb4 2.812046 1_545
N29 Si21 1.722077 1_555
N29 Si33 1.729383 1_556
N29 Pb13 2.402490 1_556
N29 Pb5 2.812046 1_555
N30 Si22 1.722077 1_555
N30 Si34 1.729383 1_555
N30 Pb14 2.402490 1_555
N30 Pb6 2.812046 1_555
N31 Si23 1.722077 1_555
N31 Si35 1.729383 1_555
N31 Pb15 2.402490 1_565
N31 Pb7 2.812046 1_565
N32 Si7 1.772738 1_455
N32 Si8 1.801327 1_555
N32 Si24 1.809746 1_455
N33 Si6 1.772738 1_555
N33 Si9 1.801327 1_555
N33 Si25 1.809746 1_555
N34 Si5 1.772738 1_655
N34 Si10 1.801327 1_555
N34 Si26 1.809746 1_655
N35 Si4 1.772738 1_555
N35 Si11 1.801327 1_555
N35 Si27 1.809746 1_555
N36 Si3 1.772738 1_655
N36 Si12 1.801327 1_555
N36 Si28 1.809746 1_655
N37 Si2 1.772738 1_555
N37 Si13 1.801327 1_555
N37 Si29 1.809746 1_555
N38 Si1 1.772738 1_455
N38 Si14 1.801327 1_555
N38 Si30 1.809746 1_455
N39 Si0 1.772738 1_555
N39 Si15 1.801327 1_555
N39 Si31 1.809746 1_555
N40 Si16 1.755447 1_555
N40 Si31 1.773088 1_565
N40 Si13 1.774553 1_555
N41 Si17 1.755447 1_555
N41 Si30 1.773088 1_555
N41 Si12 1.774553 1_555
N42 Si18 1.755447 1_555
N42 Si29 1.773088 1_555
N42 Si15 1.774553 1_555
N43 Si19 1.755447 1_555
N43 Si28 1.773088 1_545
N43 Si14 1.774553 1_555
N44 Si20 1.755447 1_555
N44 Si27 1.773088 1_545
N44 Si9 1.774553 1_555
N45 Si21 1.755447 1_555
N45 Si26 1.773088 1_555
N45 Si8 1.774553 1_555
N46 Si22 1.755447 1_555
N46 Si25 1.773088 1_555
N46 Si11 1.774553 1_555
N47 Si23 1.755447 1_555
N47 Si24 1.773088 1_565
N47 Si10 1.774553 1_555
N48 Si8 1.760188 1_555
N48 Si16 1.765905 1_545
N48 Si0 1.770157 1_555
N49 Si9 1.760188 1_555
N49 Si17 1.765905 1_555
N49 Si1 1.770157 1_555
N50 Si10 1.760188 1_555
N50 Si18 1.765905 1_555
N50 Si2 1.770157 1_555
N51 Si11 1.760188 1_555
N51 Si19 1.765905 1_565
N51 Si3 1.770157 1_555
N52 Si12 1.760188 1_555
N52 Si20 1.765905 1_565
N52 Si4 1.770157 1_555
N53 Si13 1.760188 1_555
N53 Si21 1.765905 1_555
N53 Si5 1.770157 1_555
N54 Si14 1.760188 1_555
N54 Si22 1.765905 1_555
N54 Si6 1.770157 1_555
N55 Si15 1.760188 1_555
N55 Si23 1.765905 1_545
N55 Si7 1.770157 1_555
N56 Si16 1.773367 1_555
N56 Si5 1.778241 1_555
N56 Si24 1.786372 1_465
N57 Si17 1.773367 1_555
N57 Si4 1.778241 1_555
N57 Si25 1.786372 1_555
N58 Si18 1.773367 1_555
N58 Si7 1.778241 1_555
N58 Si26 1.786372 1_655
N59 Si19 1.773367 1_555
N59 Si6 1.778241 1_555
N59 Si27 1.786372 1_545
N60 Si20 1.773367 1_555
N60 Si1 1.778241 1_555
N60 Si28 1.786372 1_645
N61 Si21 1.773367 1_555
N61 Si0 1.778241 1_555
N61 Si29 1.786372 1_555
N62 Si22 1.773367 1_555
N62 Si3 1.778241 1_555
N62 Si30 1.786372 1_455
N63 Si23 1.773367 1_555
N63 Si2 1.778241 1_555
N63 Si31 1.786372 1_565
