# generated using pymatgen
data_LiCr2(PO4)3
_symmetry_space_group_name_H-M   'P 1'
_cell_length_a   8.50593636
_cell_length_b   8.50593632
_cell_length_c   8.56145724
_cell_angle_alpha   60.12172916
_cell_angle_beta   60.12172617
_cell_angle_gamma   60.55708746
_symmetry_Int_Tables_number   1
_chemical_formula_structural   LiCr2(PO4)3
_chemical_formula_sum   'Li2 Cr4 P6 O24'
_cell_volume   440.63145717
_cell_formula_units_Z   2
loop_
 _symmetry_equiv_pos_site_id
 _symmetry_equiv_pos_as_xyz
  1  'x, y, z'
loop_
 _atom_site_type_symbol
 _atom_site_label
 _atom_site_symmetry_multiplicity
 _atom_site_fract_x
 _atom_site_fract_y
 _atom_site_fract_z
 _atom_site_occupancy
  Li  Li0  1  0.00000000  0.50000000  0.50000000  1
  Li  Li1  1  0.50000000  0.00000000  0.00000000  1
  Cr  Cr0  1  0.36343100  0.86251700  0.85268400  1
  Cr  Cr1  1  0.13748400  0.63656900  0.64731600  1
  Cr  Cr2  1  0.86251700  0.36343100  0.35268400  1
  Cr  Cr3  1  0.63656900  0.13748400  0.14731600  1
  P  P0  1  0.95953000  0.04047000  0.75000000  1
  P  P1  1  0.74748200  0.54488900  0.96382000  1
  P  P2  1  0.45511100  0.25251800  0.53618000  1
  P  P3  1  0.04047000  0.95953000  0.25000000  1
  P  P4  1  0.25251800  0.45511100  0.03618000  1
  P  P5  1  0.54488900  0.74748200  0.46382000  1
  O  O0  1  0.74109500  0.58604900  0.43940000  1
  O  O1  1  0.01036200  0.12514800  0.29831100  1
  O  O2  1  0.31660300  0.62066300  0.98089100  1
  O  O3  1  0.93494100  0.23593300  0.58412300  1
  O  O4  1  0.98963800  0.87485200  0.70168900  1
  O  O5  1  0.37933700  0.68339700  0.51910900  1
  O  O6  1  0.76406700  0.06505900  0.91587700  1
  O  O7  1  0.41395100  0.25890500  0.06060000  1
  O  O8  1  0.81298100  0.52248200  0.11434100  1
  O  O9  1  0.06505900  0.76406700  0.41587700  1
  O  O10  1  0.58604900  0.74109500  0.93940000  1
  O  O11  1  0.18701900  0.47751800  0.88565900  1
  O  O12  1  0.23593300  0.93494100  0.08412400  1
  O  O13  1  0.44341800  0.09033300  0.73398900  1
  O  O14  1  0.09033300  0.44341800  0.23398900  1
  O  O15  1  0.52248200  0.81298100  0.61434100  1
  O  O16  1  0.12514800  0.01036200  0.79831100  1
  O  O17  1  0.87485200  0.98963800  0.20168900  1
  O  O18  1  0.90966700  0.55658200  0.76601100  1
  O  O19  1  0.25890500  0.41395100  0.56060000  1
  O  O20  1  0.55658200  0.90966700  0.26601100  1
  O  O21  1  0.62066300  0.31660300  0.48089100  1
  O  O22  1  0.68339700  0.37933700  0.01910900  1
  O  O23  1  0.47751800  0.18701900  0.38565900  1
loop_
_geom_bond_atom_site_label_1
_geom_bond_atom_site_label_2
_geom_bond_distance
_geom_bond_site_symmetry_2
Li0 O19 2.197744 1_555
Li0 O0 2.197744 1_455
Li0 O14 2.234680 1_555
Li0 O18 2.234680 1_455
Li0 O3 2.254603 1_455
Li0 O9 2.254603 1_555
Li1 O7 2.197744 1_555
Li1 O10 2.197744 1_544
Li1 O20 2.234680 1_545
Li1 O13 2.234680 1_554
Li1 O12 2.254601 1_545
Li1 O6 2.254603 1_554
Cr0 O2 1.927629 1_555
Cr0 O15 1.928072 1_555
Cr0 O16 1.938333 1_565
Cr0 O13 1.973815 1_565
Cr0 O12 1.974893 1_556
Cr0 O10 1.979272 1_555
Cr1 O5 1.927621 1_555
Cr1 O11 1.928069 1_555
Cr1 O4 1.938333 1_455
Cr1 O18 1.973823 1_455
Cr1 O9 1.974890 1_555
Cr1 O19 1.979274 1_555
Cr2 O21 1.927629 1_555
Cr2 O8 1.928072 1_555
Cr2 O1 1.938333 1_655
Cr2 O14 1.973815 1_655
Cr2 O3 1.974886 1_555
Cr2 O0 1.979272 1_555
Cr3 O22 1.927621 1_555
Cr3 O23 1.928069 1_555
Cr3 O17 1.938333 1_545
Cr3 O20 1.973823 1_545
Cr3 O6 1.974890 1_554
Cr3 O7 1.979274 1_555
O0 P5 1.549173 1_555
O1 P3 1.530199 1_545
O2 P4 1.528923 1_556
O3 P0 1.557698 1_555
O4 P0 1.530199 1_565
O5 P5 1.528923 1_555
O6 P0 1.557698 1_555
O7 P4 1.549173 1_555
O8 P1 1.540660 1_554
O9 P3 1.557698 1_555
O10 P1 1.549173 1_555
O11 P4 1.540660 1_556
O12 P3 1.557694 1_555
O13 P2 1.555780 1_555
O14 P4 1.555780 1_555
O15 P5 1.540660 1_555
O16 P0 1.530199 1_455
O17 P3 1.530199 1_655
O18 P1 1.555780 1_555
O19 P2 1.549173 1_555
O20 P5 1.555780 1_555
O21 P2 1.528923 1_555
O22 P1 1.528923 1_554
O23 P2 1.540660 1_555
