# generated using pymatgen
data_BaCa2N2
_symmetry_space_group_name_H-M   'P 1'
_cell_length_a   6.54360736
_cell_length_b   7.87645075
_cell_length_c   6.87009890
_cell_angle_alpha   90.00000257
_cell_angle_beta   58.33530105
_cell_angle_gamma   52.99798273
_symmetry_Int_Tables_number   1
_chemical_formula_structural   BaCa2N2
_chemical_formula_sum   'Ba2 Ca4 N4'
_cell_volume   213.10520111
_cell_formula_units_Z   2
loop_
 _symmetry_equiv_pos_site_id
 _symmetry_equiv_pos_as_xyz
  1  'x, y, z'
loop_
 _atom_site_type_symbol
 _atom_site_label
 _atom_site_symmetry_multiplicity
 _atom_site_fract_x
 _atom_site_fract_y
 _atom_site_fract_z
 _atom_site_occupancy
  Ba  Ba0  1  0.00000000  0.00000000  0.25000000  1
  Ba  Ba1  1  0.00000000  0.00000000  0.75000000  1
  Ca  Ca0  1  0.74338800  0.50000000  0.62830600  1
  Ca  Ca1  1  0.25661200  0.50000000  0.37169400  1
  Ca  Ca2  1  0.25661200  0.24338800  0.87169400  1
  Ca  Ca3  1  0.74338800  0.75661200  0.12830600  1
  N  N0  1  0.66638500  0.50000000  0.16680800  1
  N  N1  1  0.33361500  0.50000000  0.83319200  1
  N  N2  1  0.33361500  0.16638500  0.33319200  1
  N  N3  1  0.66638500  0.83361500  0.66680800  1
loop_
_geom_bond_atom_site_label_1
_geom_bond_atom_site_label_2
_geom_bond_distance
_geom_bond_site_symmetry_2
Ba0 N1 3.400503 1_455
Ba0 N3 3.400503 1_544
Ba0 N2 3.400503 1_555
Ba0 N0 3.400504 1_455
Ba0 N2 3.400507 1_455
Ba0 N0 3.400507 1_545
Ba0 N1 3.400507 1_544
Ba0 N3 3.400507 1_445
Ba1 N0 3.400503 1_545
Ba1 N2 3.400503 1_456
Ba1 N3 3.400503 1_445
Ba1 N1 3.400504 1_545
Ba1 N3 3.400507 1_545
Ba1 N1 3.400507 1_455
Ba1 N0 3.400507 1_456
Ba1 N2 3.400507 1_555
Ca0 N1 2.282227 1_555
Ca0 N2 2.344145 1_655
Ca0 N3 2.344145 1_555
Ca1 N0 2.282227 1_555
Ca1 N3 2.344145 1_455
Ca1 N2 2.344145 1_555
Ca2 N3 2.282227 1_545
Ca2 N0 2.344145 1_456
Ca2 N1 2.344145 1_555
Ca3 N2 2.282227 1_565
Ca3 N1 2.344145 1_654
Ca3 N0 2.344145 1_555
