# generated using pymatgen
data_Rb3NaRe2O9
_symmetry_space_group_name_H-M   'P 1'
_cell_length_a   6.25424471
_cell_length_b   6.25424471
_cell_length_c   14.63328400
_cell_angle_alpha   90.00000000
_cell_angle_beta   90.00000000
_cell_angle_gamma   120.00000746
_symmetry_Int_Tables_number   1
_chemical_formula_structural   Rb3NaRe2O9
_chemical_formula_sum   'Rb6 Na2 Re4 O18'
_cell_volume   495.70367605
_cell_formula_units_Z   2
loop_
 _symmetry_equiv_pos_site_id
 _symmetry_equiv_pos_as_xyz
  1  'x, y, z'
loop_
 _atom_site_type_symbol
 _atom_site_label
 _atom_site_symmetry_multiplicity
 _atom_site_fract_x
 _atom_site_fract_y
 _atom_site_fract_z
 _atom_site_occupancy
  Rb  Rb0  1  0.33333300  0.66666700  0.10412600  1
  Rb  Rb1  1  0.66666700  0.33333300  0.89587400  1
  Rb  Rb2  1  0.66666700  0.33333300  0.60412600  1
  Rb  Rb3  1  0.33333300  0.66666700  0.39587400  1
  Rb  Rb4  1  0.00000000  0.00000000  0.25000000  1
  Rb  Rb5  1  0.00000000  0.00000000  0.75000000  1
  Na  Na0  1  0.00000000  0.00000000  0.00000000  1
  Na  Na1  1  0.00000000  0.00000000  0.50000000  1
  Re  Re0  1  0.33333300  0.66666700  0.64997200  1
  Re  Re1  1  0.66666700  0.33333300  0.35002800  1
  Re  Re2  1  0.66666700  0.33333300  0.14997200  1
  Re  Re3  1  0.33333300  0.66666700  0.85002800  1
  O  O0  1  0.53385300  0.06770600  0.25000000  1
  O  O1  1  0.46614700  0.93229400  0.75000000  1
  O  O2  1  0.93229400  0.46614700  0.25000000  1
  O  O3  1  0.06770600  0.53385300  0.75000000  1
  O  O4  1  0.53385300  0.46614700  0.25000000  1
  O  O5  1  0.46614700  0.53385300  0.75000000  1
  O  O6  1  0.18597200  0.37194500  0.59345200  1
  O  O7  1  0.81402800  0.62805500  0.40654800  1
  O  O8  1  0.62805500  0.81402800  0.59345200  1
  O  O9  1  0.81402800  0.62805500  0.09345200  1
  O  O10  1  0.37194500  0.18597200  0.40654800  1
  O  O11  1  0.18597200  0.37194500  0.90654800  1
  O  O12  1  0.18597200  0.81402800  0.59345200  1
  O  O13  1  0.37194500  0.18597200  0.09345200  1
  O  O14  1  0.81402800  0.18597200  0.40654800  1
  O  O15  1  0.62805500  0.81402800  0.90654800  1
  O  O16  1  0.81402800  0.18597200  0.09345200  1
  O  O17  1  0.18597200  0.81402800  0.90654800  1
loop_
_geom_bond_atom_site_label_1
_geom_bond_atom_site_label_2
_geom_bond_distance
_geom_bond_site_symmetry_2
Na0 O16 2.434869 1_455
Na0 O17 2.434869 1_544
Na0 O13 2.434874 1_555
Na0 O11 2.434874 1_554
Na0 O9 2.434874 1_445
Na0 O15 2.434874 1_444
Na1 O12 2.434869 1_545
Na1 O14 2.434869 1_455
Na1 O6 2.434874 1_555
Na1 O10 2.434874 1_555
Na1 O8 2.434874 1_445
Na1 O7 2.434874 1_445
O0 Re1 2.052427 1_555
O0 Re2 2.052427 1_555
O0 Rb3 3.045467 1_545
O0 Rb0 3.045467 1_545
O0 Rb4 3.148551 1_555
O0 Rb4 3.148552 1_655
O1 Re3 2.052427 1_555
O1 Re0 2.052427 1_555
O1 Rb1 3.045467 1_565
O1 Rb2 3.045467 1_565
O1 Rb5 3.148551 1_665
O1 Rb5 3.148552 1_565
O2 Re1 2.052427 1_555
O2 Re2 2.052427 1_555
O2 Rb0 3.045467 1_655
O2 Rb3 3.045467 1_655
O2 Rb4 3.148551 1_665
O2 Rb4 3.148552 1_655
O3 Re3 2.052427 1_555
O3 Re0 2.052427 1_555
O3 Rb1 3.045467 1_455
O3 Rb2 3.045467 1_455
O3 Rb5 3.148551 1_555
O3 Rb5 3.148552 1_565
O4 Re1 2.052431 1_555
O4 Re2 2.052431 1_555
O4 Rb0 3.045471 1_555
O4 Rb3 3.045471 1_555
O4 Rb4 3.148551 1_665
O4 Rb4 3.148551 1_555
O5 Re3 2.052431 1_555
O5 Re0 2.052431 1_555
O5 Rb1 3.045471 1_555
O5 Rb2 3.045471 1_555
O5 Rb5 3.148551 1_555
O5 Rb5 3.148551 1_665
O6 Re0 1.797850 1_555
O6 Rb5 3.050630 1_555
O6 Rb2 3.137991 1_455
O6 Rb2 3.138004 1_555
O6 Rb3 3.302626 1_555
O7 Re1 1.797850 1_555
O7 Rb4 3.050630 1_665
O7 Rb3 3.137991 1_655
O7 Rb3 3.138004 1_555
O7 Rb2 3.302626 1_555
O8 Re0 1.797850 1_555
O8 Rb5 3.050630 1_665
O8 Rb2 3.137991 1_565
O8 Rb2 3.138004 1_555
O8 Rb3 3.302626 1_555
O9 Re2 1.797850 1_555
O9 Rb4 3.050630 1_665
O9 Rb0 3.137991 1_655
O9 Rb0 3.138004 1_555
O9 Rb1 3.302626 1_554
O10 Re1 1.797850 1_555
O10 Rb4 3.050630 1_555
O10 Rb3 3.137991 1_545
O10 Rb3 3.138004 1_555
O10 Rb2 3.302626 1_555
O11 Re3 1.797850 1_555
O11 Rb5 3.050630 1_555
O11 Rb1 3.137991 1_455
O11 Rb1 3.138004 1_555
O11 Rb0 3.302626 1_556
O12 Re0 1.797850 1_555
O12 Rb5 3.050627 1_565
O12 Rb2 3.137997 1_455
O12 Rb2 3.137997 1_565
O12 Rb3 3.302626 1_555
O13 Re2 1.797850 1_555
O13 Rb4 3.050630 1_555
O13 Rb0 3.137991 1_545
O13 Rb0 3.138004 1_555
O13 Rb1 3.302626 1_554
O14 Re1 1.797850 1_555
O14 Rb4 3.050627 1_655
O14 Rb3 3.137997 1_545
O14 Rb3 3.137997 1_655
O14 Rb2 3.302626 1_555
O15 Re3 1.797850 1_555
O15 Rb5 3.050630 1_665
O15 Rb1 3.137991 1_565
O15 Rb1 3.138004 1_555
O15 Rb0 3.302626 1_556
O16 Re2 1.797850 1_555
O16 Rb4 3.050627 1_655
O16 Rb0 3.137997 1_545
O16 Rb0 3.137997 1_655
O16 Rb1 3.302626 1_554
O17 Re3 1.797850 1_555
O17 Rb5 3.050627 1_565
O17 Rb1 3.137997 1_455
O17 Rb1 3.137997 1_565
O17 Rb0 3.302626 1_556
