# generated using pymatgen
data_LiFe8(OF)8
_symmetry_space_group_name_H-M   'P 1'
_cell_length_a   9.67362488
_cell_length_b   9.61576326
_cell_length_c   3.08528421
_cell_angle_alpha   90.27703489
_cell_angle_beta   90.24774455
_cell_angle_gamma   88.95092787
_symmetry_Int_Tables_number   1
_chemical_formula_structural   LiFe8(OF)8
_chemical_formula_sum   'Li1 Fe8 O8 F8'
_cell_volume   286.93690244
_cell_formula_units_Z   1
loop_
 _symmetry_equiv_pos_site_id
 _symmetry_equiv_pos_as_xyz
  1  'x, y, z'
loop_
 _atom_site_type_symbol
 _atom_site_label
 _atom_site_symmetry_multiplicity
 _atom_site_fract_x
 _atom_site_fract_y
 _atom_site_fract_z
 _atom_site_occupancy
  Li  Li0  1  0.98880900  0.74858100  0.12559500  1
  Fe  Fe0  1  0.02717400  0.01355100  0.98419400  1
  Fe  Fe1  1  0.99984700  0.48856800  0.99215900  1
  Fe  Fe2  1  0.23214600  0.25706600  0.49400200  1
  Fe  Fe3  1  0.23788200  0.74151900  0.51190100  1
  Fe  Fe4  1  0.51733400  0.49111200  0.00312800  1
  Fe  Fe5  1  0.50388600  0.00534200  0.00158600  1
  Fe  Fe6  1  0.75660100  0.27461800  0.49476200  1
  Fe  Fe7  1  0.73657700  0.72084900  0.51883100  1
  O  O0  1  0.09808800  0.40345900  0.49429000  1
  O  O1  1  0.08614500  0.89584700  0.48602000  1
  O  O2  1  0.16028700  0.15356900  0.99142500  1
  O  O3  1  0.15749000  0.65426400  0.00803500  1
  O  O4  1  0.58943200  0.39271600  0.50196400  1
  O  O5  1  0.64290800  0.64639500  0.01402500  1
  O  O6  1  0.84761500  0.34871600  0.99644800  1
  O  O7  1  0.90939300  0.61327400  0.50751300  1
  F  F0  1  0.34594200  0.35388200  0.99821400  1
  F  F1  1  0.34730000  0.84921600  0.00504800  1
  F  F2  1  0.40272400  0.11462200  0.49934500  1
  F  F3  1  0.40161200  0.59670500  0.50705800  1
  F  F4  1  0.60142200  0.89433600  0.50375000  1
  F  F5  1  0.66484300  0.14936200  0.99507700  1
  F  F6  1  0.83219600  0.85114800  0.00228700  1
  F  F7  1  0.90540500  0.09822400  0.48834000  1
loop_
_geom_bond_atom_site_label_1
_geom_bond_atom_site_label_2
_geom_bond_distance
_geom_bond_site_symmetry_2
Li0 O3 1.887976 1_655
Li0 O7 1.931504 1_555
Li0 O1 2.037886 1_655
Li0 O7 2.432988 1_554
Fe0 O2 1.879977 1_555
Fe0 O1 1.983921 1_545
Fe0 O1 1.997312 1_546
Fe1 O0 1.975958 1_655
Fe1 O0 1.985961 1_656
Fe1 O6 2.012493 1_555
Fe1 O7 2.099295 1_555
Fe1 O7 2.164929 1_556
Fe1 O3 2.225784 1_656
Fe2 O0 1.896438 1_555
Fe2 O2 1.969327 1_555
Fe2 O2 1.969535 1_554
Fe3 O3 1.923134 1_556
Fe3 O3 1.930353 1_555
Fe3 O1 2.069667 1_555
Fe4 O4 1.931567 1_555
Fe4 O4 1.934811 1_554
Fe4 O5 1.942133 1_555
Fe6 O6 1.918118 1_555
Fe6 O6 1.921413 1_554
Fe6 O4 1.959086 1_555
Fe7 O5 1.927208 1_556
Fe7 O5 1.939095 1_555
Fe7 O7 1.950087 1_555
F0 Fe2 2.117586 1_556
F0 Fe2 2.123019 1_555
F0 Fe4 2.137780 1_556
F1 Fe3 2.125731 1_554
F1 Fe5 2.152202 1_565
F1 Fe3 2.169870 1_555
F2 Fe5 2.092860 1_555
F2 Fe5 2.104274 1_556
F2 Fe2 2.125194 1_555
F3 Fe3 2.089769 1_555
F3 Fe4 2.141307 1_556
F3 Fe4 2.158608 1_555
F4 Fe5 2.085328 1_566
F4 Fe5 2.096774 1_565
F4 Fe7 2.101153 1_555
F5 Fe5 2.102881 1_556
F5 Fe6 2.150500 1_556
F5 Fe6 2.165703 1_555
F6 Li0 1.832115 1_555
F6 Fe7 2.159332 1_554
F6 Fe7 2.244936 1_555
F6 Fe0 2.471629 1_664
F7 Fe0 2.086207 1_655
F7 Fe0 2.106734 1_654
F7 Fe6 2.204533 1_555
