# generated using pymatgen
data_Cu3NiP2O9
_symmetry_space_group_name_H-M   'P 1'
_cell_length_a   10.00063000
_cell_length_b   8.31630500
_cell_length_c   9.88381011
_cell_angle_alpha   53.62687786
_cell_angle_beta   90.00000000
_cell_angle_gamma   90.00000000
_symmetry_Int_Tables_number   1
_chemical_formula_structural   Cu3NiP2O9
_chemical_formula_sum   'Cu12 Ni4 P8 O36'
_cell_volume   661.86721830
_cell_formula_units_Z   4
loop_
 _symmetry_equiv_pos_site_id
 _symmetry_equiv_pos_as_xyz
  1  'x, y, z'
loop_
 _atom_site_type_symbol
 _atom_site_label
 _atom_site_symmetry_multiplicity
 _atom_site_fract_x
 _atom_site_fract_y
 _atom_site_fract_z
 _atom_site_occupancy
  Cu  Cu0  1  0.39284100  0.41777200  0.12445200  1
  Cu  Cu1  1  0.10715900  0.41777200  0.62445200  1
  Cu  Cu2  1  0.60715900  0.58222800  0.87554800  1
  Cu  Cu3  1  0.89284100  0.58222800  0.37554800  1
  Cu  Cu4  1  0.31158600  0.74049900  0.75399400  1
  Cu  Cu5  1  0.18841400  0.74049900  0.25399400  1
  Cu  Cu6  1  0.68841400  0.25950100  0.24600600  1
  Cu  Cu7  1  0.81158600  0.25950100  0.74600600  1
  Cu  Cu8  1  0.44481200  0.92165600  0.90199400  1
  Cu  Cu9  1  0.05518800  0.92165600  0.40199400  1
  Cu  Cu10  1  0.55518800  0.07834400  0.09800600  1
  Cu  Cu11  1  0.94481200  0.07834400  0.59800600  1
  Ni  Ni0  1  0.36090800  0.27069600  0.49914300  1
  Ni  Ni1  1  0.13909200  0.27069600  0.99914300  1
  Ni  Ni2  1  0.63909200  0.72930400  0.50085700  1
  Ni  Ni3  1  0.86090800  0.72930400  0.00085700  1
  P  P0  1  0.10001200  0.38693200  0.25769400  1
  P  P1  1  0.39998800  0.38693200  0.75769400  1
  P  P2  1  0.89998800  0.61306800  0.74230600  1
  P  P3  1  0.60001200  0.61306800  0.24230600  1
  P  P4  1  0.15970500  0.96678300  0.86606300  1
  P  P5  1  0.34029500  0.96678300  0.36606300  1
  P  P6  1  0.84029500  0.03321700  0.13393700  1
  P  P7  1  0.65970500  0.03321700  0.63393700  1
  O  O0  1  0.47356500  0.48462600  0.30069200  1
  O  O1  1  0.02643500  0.48462600  0.80069200  1
  O  O2  1  0.52643500  0.51537400  0.69930800  1
  O  O3  1  0.97356500  0.51537400  0.19930800  1
  O  O4  1  0.36705300  0.16294000  0.34910800  1
  O  O5  1  0.13294700  0.16294000  0.84910800  1
  O  O6  1  0.63294700  0.83706000  0.65089200  1
  O  O7  1  0.86705300  0.83706000  0.15089200  1
  O  O8  1  0.52506900  0.11367800  0.64825400  1
  O  O9  1  0.97493100  0.11367800  0.14825400  1
  O  O10  1  0.47493100  0.88632200  0.35174600  1
  O  O11  1  0.02506900  0.88632200  0.85174600  1
  O  O12  1  0.32289000  0.41160900  0.60999100  1
  O  O13  1  0.17711000  0.41160900  0.10999100  1
  O  O14  1  0.67711000  0.58839100  0.39000900  1
  O  O15  1  0.82289000  0.58839100  0.89000900  1
  O  O16  1  0.19457100  0.44601900  0.34943800  1
  O  O17  1  0.30542900  0.44601900  0.84943800  1
  O  O18  1  0.80542900  0.55398100  0.65056200  1
  O  O19  1  0.69457100  0.55398100  0.15056200  1
  O  O20  1  0.25447300  0.00633400  0.72009100  1
  O  O21  1  0.24552700  0.00633400  0.22009100  1
  O  O22  1  0.74552700  0.99366600  0.27990900  1
  O  O23  1  0.75447300  0.99366600  0.77990900  1
  O  O24  1  0.43856300  0.67790900  0.92392300  1
  O  O25  1  0.06143700  0.67790900  0.42392300  1
  O  O26  1  0.56143700  0.32209100  0.07607700  1
  O  O27  1  0.93856300  0.32209100  0.57607700  1
  O  O28  1  0.43747500  0.16334300  0.89594500  1
  O  O29  1  0.06252500  0.16334300  0.39594500  1
  O  O30  1  0.56252500  0.83665700  0.10405500  1
  O  O31  1  0.93747500  0.83665700  0.60405500  1
  O  O32  1  0.23751400  0.82133900  0.03173400  1
  O  O33  1  0.26248600  0.82133900  0.53173400  1
  O  O34  1  0.76248600  0.17866100  0.96826600  1
  O  O35  1  0.73751400  0.17866100  0.46826600  1
loop_
_geom_bond_atom_site_label_1
_geom_bond_atom_site_label_2
_geom_bond_distance
_geom_bond_site_symmetry_2
Cu0 O24 1.931810 1_554
Cu0 O4 1.976569 1_555
Cu0 O26 2.038586 1_555
Cu0 O13 2.164790 1_555
Cu0 O0 2.267997 1_555
Cu1 O25 1.931810 1_555
Cu1 O5 1.976569 1_555
Cu1 O27 2.038586 1_455
Cu1 O12 2.164790 1_555
Cu1 O1 2.267997 1_555
Cu2 O26 1.931810 1_556
Cu2 O6 1.976569 1_555
Cu2 O24 2.038586 1_555
Cu2 O15 2.164790 1_555
Cu2 O2 2.267997 1_555
Cu3 O27 1.931810 1_555
Cu3 O7 1.976569 1_555
Cu3 O25 2.038586 1_655
Cu3 O14 2.164790 1_555
Cu3 O3 2.267997 1_555
Cu4 O24 1.915051 1_555
Cu4 O33 1.940932 1_555
Cu4 O17 2.037421 1_555
Cu4 O20 2.108872 1_565
Cu5 O25 1.915051 1_555
Cu5 O32 1.940932 1_555
Cu5 O16 2.037421 1_555
Cu5 O21 2.108872 1_565
Cu6 O26 1.915051 1_555
Cu6 O35 1.940932 1_555
Cu6 O19 2.037421 1_555
Cu6 O22 2.108872 1_545
Cu7 O27 1.915051 1_555
Cu7 O34 1.940932 1_555
Cu7 O18 2.037421 1_555
Cu7 O23 2.108872 1_545
Cu8 O24 1.907565 1_555
Cu8 O28 1.976436 1_565
Cu8 O30 2.049292 1_556
Cu8 O8 2.175732 1_565
Cu8 O32 2.317169 1_556
Cu8 O20 2.418676 1_565
Cu9 O25 1.907565 1_555
Cu9 O29 1.976436 1_565
Cu9 O31 2.049292 1_455
Cu9 O9 2.175732 1_465
Cu9 O33 2.317169 1_555
Cu9 O21 2.418676 1_565
Cu10 O26 1.907565 1_555
Cu10 O30 1.976436 1_545
Cu10 O28 2.049292 1_554
Cu10 O10 2.175732 1_545
Cu10 O34 2.317169 1_554
Cu10 O22 2.418676 1_545
Cu11 O27 1.907565 1_555
Cu11 O31 1.976436 1_545
Cu11 O29 2.049292 1_655
Cu11 O11 2.175732 1_645
Cu11 O35 2.317169 1_555
Cu11 O23 2.418676 1_545
Ni0 O0 2.035398 1_555
Ni0 O12 2.059371 1_555
Ni0 O8 2.071185 1_555
Ni0 O16 2.126866 1_555
Ni0 O4 2.140571 1_555
Ni0 O20 2.245201 1_555
Ni1 O1 2.035398 1_555
Ni1 O13 2.059371 1_556
Ni1 O9 2.071185 1_456
Ni1 O17 2.126866 1_555
Ni1 O5 2.140571 1_555
Ni1 O21 2.245201 1_556
Ni2 O2 2.035398 1_555
Ni2 O14 2.059371 1_555
Ni2 O10 2.071185 1_555
Ni2 O18 2.126866 1_555
Ni2 O6 2.140571 1_555
Ni2 O22 2.245201 1_555
Ni3 O3 2.035398 1_555
Ni3 O15 2.059371 1_554
Ni3 O11 2.071185 1_654
Ni3 O19 2.126866 1_555
Ni3 O7 2.140571 1_555
Ni3 O23 2.245201 1_554
O0 P3 1.530346 1_555
O1 P2 1.530346 1_455
O2 P1 1.530346 1_555
O3 P0 1.530346 1_655
O4 P5 1.560959 1_545
O5 P4 1.560959 1_545
O6 P7 1.560959 1_565
O7 P6 1.560959 1_565
O8 P7 1.546929 1_555
O9 P6 1.546929 1_555
O10 P5 1.546929 1_555
O11 P4 1.546929 1_555
O12 P1 1.553213 1_555
O13 P0 1.553213 1_555
O14 P3 1.553213 1_555
O15 P2 1.553213 1_555
O16 P0 1.576850 1_555
O17 P1 1.576850 1_555
O18 P2 1.576850 1_555
O19 P3 1.576850 1_555
O20 P4 1.589056 1_545
O21 P5 1.589056 1_545
O22 P6 1.589056 1_565
O23 P7 1.589056 1_565
O28 P1 1.565758 1_555
O29 P0 1.565758 1_555
O30 P3 1.565758 1_555
O31 P2 1.565758 1_555
O32 P4 1.549403 1_554
O33 P5 1.549403 1_555
O34 P6 1.549403 1_556
O35 P7 1.549403 1_555
