# generated using pymatgen
data_Na2O9
_symmetry_space_group_name_H-M   'P 1'
_cell_length_a   11.25989800
_cell_length_b   5.20280400
_cell_length_c   12.77579791
_cell_angle_alpha   71.80262856
_cell_angle_beta   90.00000000
_cell_angle_gamma   90.00000000
_symmetry_Int_Tables_number   1
_chemical_formula_structural   Na2O9
_chemical_formula_sum   'Na8 O36'
_cell_volume   711.01266027
_cell_formula_units_Z   4
loop_
 _symmetry_equiv_pos_site_id
 _symmetry_equiv_pos_as_xyz
  1  'x, y, z'
loop_
 _atom_site_type_symbol
 _atom_site_label
 _atom_site_symmetry_multiplicity
 _atom_site_fract_x
 _atom_site_fract_y
 _atom_site_fract_z
 _atom_site_occupancy
  Na  Na0  1  0.11631400  0.81879500  0.59938300  1
  Na  Na1  1  0.61631400  0.18120500  0.90061700  1
  Na  Na2  1  0.88368600  0.18120500  0.40061700  1
  Na  Na3  1  0.38368600  0.81879500  0.09938300  1
  Na  Na4  1  0.67580100  0.87928800  0.66993800  1
  Na  Na5  1  0.17580100  0.12071200  0.83006200  1
  Na  Na6  1  0.32419900  0.12071200  0.33006200  1
  Na  Na7  1  0.82419900  0.87928800  0.16993800  1
  O  O0  1  0.92016300  0.96905700  0.59827400  1
  O  O1  1  0.42016300  0.03094300  0.90172600  1
  O  O2  1  0.07983700  0.03094300  0.40172600  1
  O  O3  1  0.57983700  0.96905700  0.09827400  1
  O  O4  1  0.41360300  0.01472000  0.80232200  1
  O  O5  1  0.91360300  0.98528000  0.69767800  1
  O  O6  1  0.58639700  0.98528000  0.19767800  1
  O  O7  1  0.08639700  0.01472000  0.30232200  1
  O  O8  1  0.76786400  0.74718600  0.87958200  1
  O  O9  1  0.26786400  0.25281400  0.62041800  1
  O  O10  1  0.23213600  0.25281400  0.12041800  1
  O  O11  1  0.73213600  0.74718600  0.37958200  1
  O  O12  1  0.04922600  0.32054600  0.57226100  1
  O  O13  1  0.54922600  0.67945400  0.92773900  1
  O  O14  1  0.95077400  0.67945400  0.42773900  1
  O  O15  1  0.45077400  0.32054600  0.07226100  1
  O  O16  1  0.44300600  0.99847100  0.50368400  1
  O  O17  1  0.94300600  0.00152900  0.99631600  1
  O  O18  1  0.55699400  0.00152900  0.49631600  1
  O  O19  1  0.05699400  0.99847100  0.00368400  1
  O  O20  1  0.21251800  0.69301400  0.80382600  1
  O  O21  1  0.71251800  0.30698600  0.69617400  1
  O  O22  1  0.78748200  0.30698600  0.19617400  1
  O  O23  1  0.28748200  0.69301400  0.30382600  1
  O  O24  1  0.61080000  0.43409100  0.68198400  1
  O  O25  1  0.11080000  0.56590900  0.81801600  1
  O  O26  1  0.38920000  0.56590900  0.31801600  1
  O  O27  1  0.88920000  0.43409100  0.18198400  1
  O  O28  1  0.86704900  0.66833300  0.92192400  1
  O  O29  1  0.36704900  0.33166700  0.57807600  1
  O  O30  1  0.13295100  0.33166700  0.07807600  1
  O  O31  1  0.63295100  0.66833300  0.42192400  1
  O  O32  1  0.52302500  0.70184800  0.82738900  1
  O  O33  1  0.02302500  0.29815200  0.67261100  1
  O  O34  1  0.47697500  0.29815200  0.17261100  1
  O  O35  1  0.97697500  0.70184800  0.32738900  1
loop_
_geom_bond_atom_site_label_1
_geom_bond_atom_site_label_2
_geom_bond_distance
_geom_bond_site_symmetry_2
Na0 O0 2.341487 1_455
Na0 O2 2.454157 1_565
Na0 O12 2.634484 1_565
Na0 O25 2.691023 1_555
Na0 O20 2.712238 1_555
Na0 O33 2.780905 1_555
Na0 O12 2.823421 1_555
Na0 O5 2.866450 1_455
Na0 O9 2.908996 1_565
Na1 O1 2.341487 1_555
Na1 O3 2.454157 1_546
Na1 O13 2.634484 1_545
Na1 O24 2.691023 1_555
Na1 O21 2.712238 1_555
Na1 O32 2.780905 1_555
Na1 O13 2.823421 1_555
Na1 O4 2.866450 1_555
Na1 O8 2.908996 1_545
Na2 O2 2.341487 1_655
Na2 O0 2.454157 1_545
Na2 O14 2.634484 1_545
Na2 O27 2.691023 1_555
Na2 O22 2.712238 1_555
Na2 O35 2.780905 1_555
Na2 O14 2.823421 1_555
Na2 O7 2.866450 1_655
Na2 O11 2.908996 1_545
Na3 O3 2.341487 1_555
Na3 O1 2.454157 1_564
Na3 O15 2.634484 1_565
Na3 O26 2.691023 1_555
Na3 O23 2.712238 1_555
Na3 O34 2.780905 1_555
Na3 O15 2.823421 1_555
Na3 O6 2.866450 1_555
Na3 O10 2.908996 1_565
Na4 O21 2.387629 1_565
Na4 O24 2.387854 1_555
Na4 O18 2.496635 1_565
Na4 O32 2.588051 1_555
Na4 O8 2.751521 1_555
Na4 O5 2.778750 1_555
Na4 O0 2.891370 1_555
Na5 O20 2.387629 1_545
Na5 O25 2.387854 1_555
Na5 O19 2.496635 1_546
Na5 O33 2.588051 1_555
Na5 O9 2.751521 1_555
Na5 O4 2.778750 1_555
Na5 O1 2.891370 1_555
Na6 O23 2.387629 1_545
Na6 O26 2.387854 1_555
Na6 O16 2.496635 1_545
Na6 O34 2.588051 1_555
Na6 O10 2.751521 1_555
Na6 O7 2.778750 1_555
Na6 O2 2.891370 1_555
Na7 O22 2.387629 1_565
Na7 O27 2.387854 1_555
Na7 O17 2.496635 1_564
Na7 O35 2.588051 1_555
Na7 O11 2.751521 1_555
Na7 O6 2.778750 1_555
Na7 O3 2.891370 1_555
O0 O5 1.300901 1_555
O1 O4 1.300901 1_555
O2 O7 1.300901 1_555
O3 O6 1.300901 1_555
O10 O30 1.252836 1_555
O11 O31 1.252836 1_555
O12 O33 1.284901 1_555
O13 O32 1.284901 1_555
O14 O35 1.284901 1_555
O15 O34 1.284901 1_555
O16 O18 1.286675 1_565
O17 O19 1.286675 1_646
O20 O25 1.306560 1_555
O21 O24 1.306560 1_555
O22 O27 1.306560 1_555
O23 O26 1.306560 1_555
O28 O8 1.252836 1_555
O29 O9 1.252836 1_555
O32 O4 1.986140 1_565
O33 O5 1.986140 1_445
O34 O6 1.986140 1_545
O35 O7 1.986140 1_665
