# generated using pymatgen
data_SmPa
_symmetry_space_group_name_H-M   'P 1'
_cell_length_a   6.62889125
_cell_length_b   6.62889125
_cell_length_c   11.85138000
_cell_angle_alpha   90.00000000
_cell_angle_beta   90.00000000
_cell_angle_gamma   119.99999247
_symmetry_Int_Tables_number   1
_chemical_formula_structural   SmPa
_chemical_formula_sum   'Sm8 Pa8'
_cell_volume   451.00502020
_cell_formula_units_Z   8
loop_
 _symmetry_equiv_pos_site_id
 _symmetry_equiv_pos_as_xyz
  1  'x, y, z'
loop_
 _atom_site_type_symbol
 _atom_site_label
 _atom_site_symmetry_multiplicity
 _atom_site_fract_x
 _atom_site_fract_y
 _atom_site_fract_z
 _atom_site_occupancy
  Sm  Sm0_0  1  0.16666650  0.33333350  0.00000000  1
  Sm  Sm0_1  1  0.16666650  0.33333350  0.50000000  1
  Sm  Sm0_2  1  0.16666650  0.83333350  0.00000000  1
  Sm  Sm0_3  1  0.16666650  0.83333350  0.50000000  1
  Sm  Sm0_4  1  0.66666650  0.33333350  0.00000000  1
  Sm  Sm0_5  1  0.66666650  0.33333350  0.50000000  1
  Sm  Sm0_6  1  0.66666650  0.83333350  0.00000000  1
  Sm  Sm0_7  1  0.66666650  0.83333350  0.50000000  1
  Pa  Pa0_0  1  0.33333350  0.16666650  0.25000000  1
  Pa  Pa0_1  1  0.33333350  0.16666650  0.75000000  1
  Pa  Pa0_2  1  0.33333350  0.66666650  0.25000000  1
  Pa  Pa0_3  1  0.33333350  0.66666650  0.75000000  1
  Pa  Pa0_4  1  0.83333350  0.16666650  0.25000000  1
  Pa  Pa0_5  1  0.83333350  0.16666650  0.75000000  1
  Pa  Pa0_6  1  0.83333350  0.66666650  0.25000000  1
  Pa  Pa0_7  1  0.83333350  0.66666650  0.75000000  1
loop_
_geom_bond_atom_site_label_1
_geom_bond_atom_site_label_2
_geom_bond_distance
_geom_bond_site_symmetry_2
Sm0_0 Sm0_4 3.314446 1_555
Sm0_0 Sm0_2 3.314446 1_555
Sm0_0 Sm0_4 3.314446 1_455
Sm0_0 Sm0_2 3.314446 1_545
Sm0_0 Sm0_6 3.314446 1_555
Sm0_0 Sm0_6 3.314446 1_445
Sm0_1 Sm0_5 3.314446 1_555
Sm0_1 Sm0_5 3.314446 1_455
Sm0_1 Sm0_3 3.314446 1_545
Sm0_1 Sm0_3 3.314446 1_555
Sm0_1 Sm0_7 3.314446 1_555
Sm0_1 Sm0_7 3.314446 1_445
Sm0_2 Sm0_6 3.314446 1_555
Sm0_2 Sm0_6 3.314446 1_455
Sm0_2 Sm0_4 3.314446 1_565
Sm0_2 Sm0_4 3.314446 1_455
Sm0_3 Sm0_7 3.314446 1_555
Sm0_3 Sm0_7 3.314446 1_455
Sm0_3 Sm0_5 3.314446 1_565
Sm0_3 Sm0_5 3.314446 1_455
Sm0_4 Sm0_6 3.314446 1_545
Sm0_4 Sm0_6 3.314446 1_555
Sm0_5 Sm0_7 3.314446 1_545
Sm0_5 Sm0_7 3.314446 1_555
Pa0_0 Pa0_4 3.314446 1_555
Pa0_0 Pa0_2 3.314446 1_545
Pa0_0 Pa0_4 3.314446 1_455
Pa0_0 Pa0_2 3.314446 1_555
Pa0_0 Pa0_6 3.314446 1_555
Pa0_0 Pa0_6 3.314446 1_445
Pa0_0 Sm0_5 3.527080 1_555
Pa0_0 Sm0_4 3.527080 1_555
Pa0_0 Sm0_3 3.527080 1_545
Pa0_0 Sm0_2 3.527080 1_545
Pa0_0 Sm0_0 3.527083 1_555
Pa0_0 Sm0_1 3.527083 1_555
Pa0_1 Pa0_3 3.314446 1_545
Pa0_1 Pa0_5 3.314446 1_555
Pa0_1 Pa0_3 3.314446 1_555
Pa0_1 Pa0_5 3.314446 1_455
Pa0_1 Pa0_7 3.314446 1_445
Pa0_1 Pa0_7 3.314446 1_555
Pa0_1 Sm0_5 3.527080 1_555
Pa0_1 Sm0_4 3.527080 1_556
Pa0_1 Sm0_2 3.527080 1_546
Pa0_1 Sm0_3 3.527080 1_545
Pa0_1 Sm0_1 3.527083 1_555
Pa0_1 Sm0_0 3.527083 1_556
Pa0_2 Pa0_6 3.314446 1_555
Pa0_2 Pa0_6 3.314446 1_455
Pa0_2 Pa0_4 3.314446 1_455
Pa0_2 Pa0_4 3.314446 1_565
Pa0_2 Sm0_6 3.527080 1_555
Pa0_2 Sm0_7 3.527080 1_555
Pa0_2 Sm0_1 3.527080 1_555
Pa0_2 Sm0_0 3.527080 1_555
Pa0_2 Sm0_2 3.527083 1_555
Pa0_2 Sm0_3 3.527083 1_555
Pa0_3 Pa0_7 3.314446 1_555
Pa0_3 Pa0_7 3.314446 1_455
Pa0_3 Pa0_5 3.314446 1_565
Pa0_3 Pa0_5 3.314446 1_455
Pa0_3 Sm0_6 3.527080 1_556
Pa0_3 Sm0_7 3.527080 1_555
Pa0_3 Sm0_1 3.527080 1_555
Pa0_3 Sm0_0 3.527080 1_556
Pa0_3 Sm0_2 3.527083 1_556
Pa0_3 Sm0_3 3.527083 1_555
Pa0_4 Pa0_6 3.314446 1_555
Pa0_4 Pa0_6 3.314446 1_545
Pa0_4 Sm0_7 3.527080 1_545
Pa0_4 Sm0_6 3.527080 1_545
Pa0_4 Sm0_1 3.527080 1_655
Pa0_4 Sm0_0 3.527080 1_655
Pa0_4 Sm0_4 3.527083 1_555
Pa0_4 Sm0_5 3.527083 1_555
Pa0_5 Pa0_7 3.314446 1_545
Pa0_5 Pa0_7 3.314446 1_555
Pa0_5 Sm0_7 3.527080 1_545
Pa0_5 Sm0_6 3.527080 1_546
Pa0_5 Sm0_1 3.527080 1_655
Pa0_5 Sm0_0 3.527080 1_656
Pa0_5 Sm0_4 3.527083 1_556
Pa0_5 Sm0_5 3.527083 1_555
Pa0_6 Sm0_4 3.527080 1_555
Pa0_6 Sm0_2 3.527080 1_655
Pa0_6 Sm0_5 3.527080 1_555
Pa0_6 Sm0_3 3.527080 1_655
Pa0_6 Sm0_7 3.527083 1_555
Pa0_6 Sm0_6 3.527083 1_555
Pa0_7 Sm0_4 3.527080 1_556
Pa0_7 Sm0_2 3.527080 1_656
Pa0_7 Sm0_5 3.527080 1_555
Pa0_7 Sm0_3 3.527080 1_655
Pa0_7 Sm0_7 3.527083 1_555
Pa0_7 Sm0_6 3.527083 1_556
