# generated using pymatgen
data_C3S2(OF2)2
_symmetry_space_group_name_H-M   'P 1'
_cell_length_a   24.34908100
_cell_length_b   5.42539900
_cell_length_c   7.02589531
_cell_angle_alpha   59.47779741
_cell_angle_beta   90.00000000
_cell_angle_gamma   90.00000000
_symmetry_Int_Tables_number   1
_chemical_formula_structural   C3S2(OF2)2
_chemical_formula_sum   'C12 S8 O8 F16'
_cell_volume   799.53438176
_cell_formula_units_Z   4
loop_
 _symmetry_equiv_pos_site_id
 _symmetry_equiv_pos_as_xyz
  1  'x, y, z'
loop_
 _atom_site_type_symbol
 _atom_site_label
 _atom_site_symmetry_multiplicity
 _atom_site_fract_x
 _atom_site_fract_y
 _atom_site_fract_z
 _atom_site_occupancy
  C  C0  1  0.56209300  0.00641300  0.73452400  1
  C  C1  1  0.06209300  0.99358700  0.76547600  1
  C  C2  1  0.93790700  0.00641300  0.23452400  1
  C  C3  1  0.88167100  0.97706800  0.35113700  1
  C  C4  1  0.11832900  0.02293200  0.64886300  1
  C  C5  1  0.82185600  0.68135300  0.89660800  1
  C  C6  1  0.67814400  0.68135300  0.39660800  1
  C  C7  1  0.61832900  0.97706800  0.85113700  1
  C  C8  1  0.43790700  0.99358700  0.26547600  1
  C  C9  1  0.17814400  0.31864700  0.10339200  1
  C  C10  1  0.32185600  0.31864700  0.60339200  1
  C  C11  1  0.38167100  0.02293200  0.14886300  1
  S  S0  1  0.11532700  0.86878000  0.47523100  1
  S  S1  1  0.69103600  0.02752300  0.16867400  1
  S  S2  1  0.38467300  0.86878000  0.97523100  1
  S  S3  1  0.19103600  0.97247700  0.33132600  1
  S  S4  1  0.30896400  0.97247700  0.83132600  1
  S  S5  1  0.88467300  0.13122000  0.52476900  1
  S  S6  1  0.80896400  0.02752300  0.66867400  1
  S  S7  1  0.61532700  0.13122000  0.02476900  1
  O  O0  1  0.86177300  0.53265000  0.94738100  1
  O  O1  1  0.63822700  0.53265000  0.44738100  1
  O  O2  1  0.15646800  0.14985000  0.67002700  1
  O  O3  1  0.34353200  0.14985000  0.17002700  1
  O  O4  1  0.36177300  0.46735000  0.55261900  1
  O  O5  1  0.13822700  0.46735000  0.05261900  1
  O  O6  1  0.84353200  0.85015000  0.32997300  1
  O  O7  1  0.65646800  0.85015000  0.82997300  1
  F  F0  1  0.06901900  0.98020400  0.96072800  1
  F  F1  1  0.96624300  0.24071100  0.20112100  1
  F  F2  1  0.72550700  0.59534500  0.52034800  1
  F  F3  1  0.93098100  0.01979600  0.03927200  1
  F  F4  1  0.43098100  0.98020400  0.46072800  1
  F  F5  1  0.46890400  0.22935900  0.13293700  1
  F  F6  1  0.56901900  0.01979600  0.53927200  1
  F  F7  1  0.77449300  0.59534500  0.02034800  1
  F  F8  1  0.53109600  0.77064100  0.86706300  1
  F  F9  1  0.03109600  0.22935900  0.63293700  1
  F  F10  1  0.46624300  0.75928900  0.29887900  1
  F  F11  1  0.96890400  0.77064100  0.36706300  1
  F  F12  1  0.53375700  0.24071100  0.70112100  1
  F  F13  1  0.03375700  0.75928900  0.79887900  1
  F  F14  1  0.27449300  0.40465500  0.47965200  1
  F  F15  1  0.22550700  0.40465500  0.97965200  1
loop_
_geom_bond_atom_site_label_1
_geom_bond_atom_site_label_2
_geom_bond_distance
_geom_bond_site_symmetry_2
C0 F6 1.347007 1_555
C0 F12 1.357919 1_555
C0 F8 1.364961 1_545
C1 F0 1.347007 1_555
C1 F13 1.357919 1_555
C1 F9 1.364961 1_565
C2 F3 1.347007 1_555
C2 F1 1.357919 1_555
C2 F11 1.364961 1_545
C3 O6 1.209399 1_555
C3 S5 1.797035 1_565
C4 O2 1.209399 1_555
C4 S0 1.797035 1_545
C5 O0 1.196027 1_555
C5 F7 1.375311 1_556
C5 S6 1.770710 1_565
C6 O1 1.196027 1_555
C6 F2 1.375311 1_555
C6 S1 1.770710 1_565
C7 O7 1.209399 1_555
C7 S7 1.797035 1_566
C8 F4 1.347007 1_555
C8 F10 1.357919 1_555
C8 F5 1.364961 1_565
C9 O5 1.196027 1_555
C9 F15 1.375311 1_554
C9 S3 1.770710 1_545
C10 O4 1.196027 1_555
C10 F14 1.375311 1_555
C10 S4 1.770710 1_545
C11 O3 1.209399 1_555
C11 S2 1.797035 1_544
S0 S3 2.039430 1_555
S1 S7 2.039430 1_555
S2 S4 2.039430 1_555
S5 S6 2.039430 1_555
