# generated using pymatgen
data_Pr3(Al3Os)4
_symmetry_space_group_name_H-M   'P 1'
_cell_length_a   8.87932144
_cell_length_b   8.87931144
_cell_length_c   9.68622450
_cell_angle_alpha   89.99989200
_cell_angle_beta   90.00008541
_cell_angle_gamma   120.00017493
_symmetry_Int_Tables_number   1
_chemical_formula_structural   Pr3(Al3Os)4
_chemical_formula_sum   'Pr6 Al24 Os8'
_cell_volume   661.36843511
_cell_formula_units_Z   2
loop_
 _symmetry_equiv_pos_site_id
 _symmetry_equiv_pos_as_xyz
  1  'x, y, z'
loop_
 _atom_site_type_symbol
 _atom_site_label
 _atom_site_symmetry_multiplicity
 _atom_site_fract_x
 _atom_site_fract_y
 _atom_site_fract_z
 _atom_site_occupancy
  Pr  Pr0  1  0.19277437  0.38554730  0.24989727  1
  Pr  Pr1  1  0.80722875  0.61445874  0.75010288  1
  Pr  Pr2  1  0.61445290  0.80722654  0.24989758  1
  Pr  Pr3  1  0.38554173  0.19277112  0.75010271  1
  Pr  Pr4  1  0.19277403  0.80722633  0.24989732  1
  Pr  Pr5  1  0.80722946  0.19277120  0.75010269  1
  Al  Al0  1  0.33333375  0.66666605  0.00451199  1
  Al  Al1  1  0.66666641  0.33333402  0.99549295  1
  Al  Al2  1  0.66666653  0.33333431  0.50458267  1
  Al  Al3  1  0.33333374  0.66666591  0.49541257  1
  Al  Al4  1  0.16331716  0.32663321  0.57301299  1
  Al  Al5  1  0.83668330  0.67336711  0.42698332  1
  Al  Al6  1  0.67336711  0.83668245  0.57301187  1
  Al  Al7  1  0.83667428  0.67334909  0.07301405  1
  Al  Al8  1  0.32663308  0.16331777  0.42698450  1
  Al  Al9  1  0.16332612  0.32665125  0.92698967  1
  Al  Al10  1  0.16331590  0.83668259  0.57301189  1
  Al  Al11  1  0.32665174  0.16332644  0.07301372  1
  Al  Al12  1  0.83668442  0.16331758  0.42698443  1
  Al  Al13  1  0.67334851  0.83667379  0.92699008  1
  Al  Al14  1  0.83667447  0.16332630  0.07301388  1
  Al  Al15  1  0.16332588  0.83667384  0.92698987  1
  Al  Al16  1  0.56284034  0.12568172  0.24998376  1
  Al  Al17  1  0.43715975  0.87431804  0.75001631  1
  Al  Al18  1  0.87431422  0.43715642  0.24998194  1
  Al  Al19  1  0.12568074  0.56283942  0.75001682  1
  Al  Al20  1  0.56284548  0.43715619  0.24998087  1
  Al  Al21  1  0.43715448  0.56284446  0.75001911  1
  Al  Al22  1  0.00000047  0.00000059  0.25000010  1
  Al  Al23  1  -0.00000011  -0.00000038  0.74999970  1
  Os  Os0  1  0.49999795  -0.00000397  0.00000331  1
  Os  Os1  1  0.00000317  0.50000200  0.00000279  1
  Os  Os2  1  0.49999798  -0.00000400  0.49999685  1
  Os  Os3  1  0.49999902  0.50000198  0.00000276  1
  Os  Os4  1  0.00000333  0.50000226  0.49999717  1
  Os  Os5  1  0.49999909  0.50000218  0.49999722  1
  Os  Os6  1  0.00000023  0.00000017  -0.00000160  1
  Os  Os7  1  0.00000019  -0.00000001  0.50000200  1
loop_
_geom_bond_atom_site_label_1
_geom_bond_atom_site_label_2
_geom_bond_distance
_geom_bond_site_symmetry_2
Al0 Os0 2.563578 1_565
Al0 Os3 2.563582 1_555
Al0 Os1 2.563586 1_555
Al0 Pr0 3.212858 1_555
Al0 Pr2 3.212865 1_555
Al0 Pr4 3.212875 1_555
Al1 Os3 2.563628 1_556
Al1 Os1 2.563633 1_656
Al1 Os0 2.563640 1_556
Al1 Pr1 3.212924 1_555
Al1 Pr3 3.212927 1_555
Al1 Pr5 3.212941 1_555
Al2 Os5 2.563640 1_555
Al2 Os4 2.563646 1_655
Al2 Os2 2.563655 1_555
Al2 Pr1 3.213859 1_555
Al2 Pr3 3.213860 1_555
Al2 Pr5 3.213865 1_555
Al3 Os2 2.563592 1_565
Al3 Os5 2.563592 1_555
Al3 Os4 2.563597 1_555
Al3 Pr0 3.213794 1_555
Al3 Pr2 3.213795 1_555
Al3 Pr4 3.213801 1_555
Al4 Os7 2.609373 1_555
Al4 Os5 2.684219 1_555
Al4 Os4 2.684230 1_555
Al4 Pr0 3.162389 1_555
Al4 Pr3 3.254846 1_555
Al4 Pr5 3.254853 1_455
Al5 Os7 2.609390 1_665
Al5 Os5 2.684231 1_555
Al5 Os4 2.684239 1_655
Al5 Pr1 3.162419 1_555
Al5 Pr2 3.254850 1_555
Al5 Pr4 3.254858 1_655
Al6 Os7 2.609371 1_665
Al6 Os5 2.684202 1_555
Al6 Os2 2.684227 1_565
Al6 Pr2 3.162376 1_555
Al6 Pr1 3.254842 1_555
Al6 Pr5 3.254864 1_565
Al7 Os6 2.609515 1_665
Al7 Os3 2.684155 1_555
Al7 Os1 2.684167 1_655
Al7 Pr1 3.160403 1_554
Al7 Pr4 3.253865 1_655
Al7 Pr2 3.253868 1_555
Al8 Os7 2.609389 1_555
Al8 Os5 2.684227 1_555
Al8 Os2 2.684249 1_555
Al8 Pr3 3.162407 1_555
Al8 Pr0 3.254846 1_555
Al8 Pr4 3.254867 1_545
Al9 Os6 2.609497 1_556
Al9 Os3 2.684143 1_556
Al9 Os1 2.684156 1_556
Al9 Pr0 3.160375 1_556
Al9 Pr5 3.253859 1_455
Al9 Pr3 3.253861 1_555
Al10 Os7 2.609374 1_565
Al10 Os4 2.684203 1_555
Al10 Os2 2.684219 1_565
Al10 Pr4 3.162380 1_555
Al10 Pr1 3.254851 1_455
Al10 Pr3 3.254859 1_565
Al11 Os6 2.609521 1_555
Al11 Os3 2.684153 1_555
Al11 Os0 2.684170 1_555
Al11 Pr3 3.160401 1_554
Al11 Pr0 3.253863 1_555
Al11 Pr4 3.253865 1_545
Al12 Os7 2.609396 1_655
Al12 Os4 2.684229 1_655
Al12 Os2 2.684244 1_555
Al12 Pr5 3.162409 1_555
Al12 Pr0 3.254854 1_655
Al12 Pr2 3.254860 1_545
Al13 Os6 2.609504 1_666
Al13 Os3 2.684130 1_556
Al13 Os0 2.684149 1_566
Al13 Pr2 3.160373 1_556
Al13 Pr1 3.253858 1_555
Al13 Pr5 3.253862 1_565
Al14 Os6 2.609531 1_655
Al14 Os1 2.684155 1_655
Al14 Os0 2.684163 1_555
Al14 Pr5 3.160401 1_554
Al14 Pr2 3.253862 1_545
Al14 Pr0 3.253863 1_655
Al15 Os6 2.609513 1_566
Al15 Os1 2.684131 1_556
Al15 Os0 2.684138 1_566
Al15 Pr4 3.160372 1_556
Al15 Pr3 3.253858 1_565
Al15 Pr1 3.253859 1_455
Al16 Os0 2.607128 1_555
Al16 Os2 2.607419 1_555
Al16 Pr4 3.082450 1_545
Al16 Pr2 3.082464 1_545
Al17 Os0 2.607165 1_566
Al17 Os2 2.607454 1_565
Al17 Pr5 3.082460 1_565
Al17 Pr3 3.082475 1_565
Al18 Os1 2.607125 1_655
Al18 Os4 2.607449 1_655
Al18 Pr4 3.082483 1_655
Al18 Pr0 3.082492 1_655
Al19 Os1 2.607154 1_556
Al19 Os4 2.607456 1_555
Al19 Pr5 3.082445 1_455
Al19 Pr1 3.082475 1_455
Al20 Os3 2.607124 1_555
Al20 Os5 2.607472 1_555
Al20 Pr2 3.082501 1_555
Al20 Pr0 3.082507 1_555
Al21 Os3 2.607159 1_556
Al21 Os5 2.607506 1_555
Al21 Pr3 3.082509 1_555
Al21 Pr1 3.082516 1_555
Al22 Os6 2.421573 1_555
Al22 Os7 2.421575 1_555
Al22 Pr0 2.964737 1_555
Al22 Pr2 2.964747 1_445
Al22 Pr4 2.964755 1_545
Al23 Os7 2.421534 1_555
Al23 Os6 2.421544 1_556
Al23 Pr1 2.964692 1_445
Al23 Pr3 2.964703 1_555
Al23 Pr5 2.964710 1_455
Os0 Pr4 3.400158 1_545
Os0 Pr2 3.400162 1_545
Os0 Pr3 3.400244 1_554
Os0 Pr5 3.400246 1_554
Os1 Pr4 3.400164 1_555
Os1 Pr0 3.400173 1_555
Os1 Pr5 3.400237 1_454
Os1 Pr1 3.400239 1_454
Os2 Pr4 3.401574 1_545
Os2 Pr2 3.401582 1_545
Os2 Pr5 3.401660 1_555
Os2 Pr3 3.401667 1_555
Os3 Pr0 3.400168 1_555
Os3 Pr2 3.400169 1_555
Os3 Pr1 3.400233 1_554
Os3 Pr3 3.400239 1_554
Os4 Pr4 3.401575 1_555
Os4 Pr0 3.401597 1_555
Os4 Pr5 3.401652 1_455
Os4 Pr1 3.401665 1_455
Os5 Pr2 3.401576 1_555
Os5 Pr0 3.401582 1_555
Os5 Pr1 3.401649 1_555
Os5 Pr3 3.401652 1_555
