# generated using pymatgen
data_KLi(C2N3)2
_symmetry_space_group_name_H-M   'P 1'
_cell_length_a   7.28413100
_cell_length_b   7.28413100
_cell_length_c   8.77528410
_cell_angle_alpha   114.52163517
_cell_angle_beta   114.52163517
_cell_angle_gamma   90.00000000
_symmetry_Int_Tables_number   1
_chemical_formula_structural   KLi(C2N3)2
_chemical_formula_sum   'K2 Li2 C8 N12'
_cell_volume   376.96353786
_cell_formula_units_Z   2
loop_
 _symmetry_equiv_pos_site_id
 _symmetry_equiv_pos_as_xyz
  1  'x, y, z'
loop_
 _atom_site_type_symbol
 _atom_site_label
 _atom_site_symmetry_multiplicity
 _atom_site_fract_x
 _atom_site_fract_y
 _atom_site_fract_z
 _atom_site_occupancy
  K  K0  1  0.25000000  0.25000000  0.50000000  1
  K  K1  1  0.75000000  0.75000000  0.50000000  1
  Li  Li0  1  0.25000000  0.75000000  0.50000000  1
  Li  Li1  1  0.75000000  0.25000000  0.50000000  1
  C  C0  1  0.72135400  0.61702400  0.83837800  1
  C  C1  1  0.11702400  0.22135400  0.83837800  1
  C  C2  1  0.61702400  0.11702400  0.83837800  1
  C  C3  1  0.22135400  0.72135400  0.83837800  1
  C  C4  1  0.27864600  0.38297600  0.16162200  1
  C  C5  1  0.88297600  0.77864600  0.16162200  1
  C  C6  1  0.38297600  0.88297600  0.16162200  1
  C  C7  1  0.77864600  0.27864600  0.16162200  1
  N  N0  1  0.74427300  0.75572700  0.00000000  1
  N  N1  1  0.25572700  0.24427300  0.00000000  1
  N  N2  1  0.75572700  0.25572700  0.00000000  1
  N  N3  1  0.24427300  0.74427300  0.00000000  1
  N  N4  1  0.68625400  0.49732600  0.68358000  1
  N  N5  1  0.99732600  0.18625400  0.68358000  1
  N  N6  1  0.49732600  0.99732600  0.68358000  1
  N  N7  1  0.18625400  0.68625400  0.68358000  1
  N  N8  1  0.31374600  0.50267400  0.31642000  1
  N  N9  1  0.00267400  0.81374600  0.31642000  1
  N  N10  1  0.50267400  0.00267400  0.31642000  1
  N  N11  1  0.81374600  0.31374600  0.31642000  1
loop_
_geom_bond_atom_site_label_1
_geom_bond_atom_site_label_2
_geom_bond_distance
_geom_bond_site_symmetry_2
K0 N4 3.046372 1_555
K0 N9 3.046372 1_545
K0 N7 3.046372 1_555
K0 N11 3.046372 1_455
K0 N10 3.046372 1_555
K0 N6 3.046372 1_545
K0 N8 3.046373 1_555
K0 N5 3.046373 1_455
K1 N5 3.046372 1_565
K1 N8 3.046372 1_555
K1 N7 3.046372 1_655
K1 N11 3.046372 1_555
K1 N10 3.046372 1_565
K1 N6 3.046372 1_555
K1 N9 3.046373 1_655
K1 N4 3.046373 1_555
Li0 N6 2.065977 1_555
Li0 N8 2.065977 1_555
Li0 N9 2.065977 1_555
Li0 N7 2.065977 1_555
Li1 N10 2.065977 1_555
Li1 N5 2.065977 1_555
Li1 N4 2.065977 1_555
Li1 N11 2.065977 1_555
C0 N4 1.182962 1_555
C0 N0 1.293899 1_556
C1 N5 1.182962 1_455
C1 N1 1.293899 1_556
C2 N6 1.182962 1_545
C2 N2 1.293899 1_556
C3 N7 1.182963 1_555
C3 N3 1.293899 1_556
C4 N8 1.182962 1_555
C4 N1 1.293899 1_555
C5 N9 1.182962 1_655
C5 N0 1.293899 1_555
C6 N10 1.182962 1_565
C6 N3 1.293899 1_555
C7 N11 1.182963 1_555
C7 N2 1.293899 1_555
