# generated using pymatgen
data_La3Cd
_symmetry_space_group_name_H-M   'P 1'
_cell_length_a   7.27505262
_cell_length_b   7.27504659
_cell_length_c   5.63549186
_cell_angle_alpha   90.00000000
_cell_angle_beta   90.00000000
_cell_angle_gamma   120.00003178
_symmetry_Int_Tables_number   1
_chemical_formula_structural   La3Cd
_chemical_formula_sum   'La6 Cd2'
_cell_volume   258.30584714
_cell_formula_units_Z   2
loop_
 _symmetry_equiv_pos_site_id
 _symmetry_equiv_pos_as_xyz
  1  'x, y, z'
loop_
 _atom_site_type_symbol
 _atom_site_label
 _atom_site_symmetry_multiplicity
 _atom_site_fract_x
 _atom_site_fract_y
 _atom_site_fract_z
 _atom_site_occupancy
  La  La0  1  0.17981973  0.35963946  0.25000000  1
  La  La1  1  0.64035954  0.82018027  0.25000000  1
  La  La2  1  0.17982073  0.82018027  0.25000000  1
  La  La3  1  0.82018027  0.64036054  0.75000000  1
  La  La4  1  0.35964046  0.17981973  0.75000000  1
  La  La5  1  0.82017927  0.17981973  0.75000000  1
  Cd  Cd0  1  0.33333300  0.66666700  0.75000000  1
  Cd  Cd1  1  0.66666700  0.33333300  0.25000000  1
loop_
_geom_bond_atom_site_label_1
_geom_bond_atom_site_label_2
_geom_bond_distance
_geom_bond_site_symmetry_2
La0 La1 3.350452 1_555
La0 La2 3.350452 1_555
La0 La5 3.615780 1_455
La0 La5 3.615780 1_454
La0 La4 3.615780 1_555
La0 La4 3.615780 1_554
La0 La1 3.924594 1_445
La0 La2 3.924594 1_545
La1 La2 3.350444 1_555
La1 La5 3.615775 1_564
La1 La5 3.615775 1_565
La1 La3 3.615780 1_554
La1 La3 3.615780 1_555
La1 La2 3.924609 1_655
La2 La4 3.615775 1_565
La2 La4 3.615775 1_564
La2 La3 3.615780 1_455
La2 La3 3.615780 1_454
La3 La4 3.350452 1_555
La3 La5 3.350452 1_555
La3 La4 3.924594 1_665
La3 La5 3.924594 1_565
La4 La5 3.350444 1_555
La4 La5 3.924609 1_455
Cd0 La2 3.417822 1_555
Cd0 La2 3.417822 1_556
Cd0 La1 3.417826 1_556
Cd0 La1 3.417826 1_555
Cd0 La0 3.417828 1_555
Cd0 La0 3.417828 1_556
Cd0 La4 3.641290 1_565
Cd0 La5 3.641293 1_565
Cd0 La3 3.641297 1_455
Cd0 La5 3.641301 1_455
Cd0 La3 3.641304 1_555
Cd0 La4 3.641305 1_555
Cd1 La5 3.417822 1_554
Cd1 La5 3.417822 1_555
Cd1 La4 3.417826 1_555
Cd1 La4 3.417826 1_554
Cd1 La3 3.417828 1_554
Cd1 La3 3.417828 1_555
Cd1 La1 3.641290 1_545
Cd1 La2 3.641293 1_545
Cd1 La0 3.641297 1_655
Cd1 La2 3.641301 1_655
Cd1 La0 3.641304 1_555
Cd1 La1 3.641305 1_555
