# generated using pymatgen
data_Dy5(In2Pd)2
_symmetry_space_group_name_H-M   'P 1'
_cell_length_a   3.63228250
_cell_length_b   8.03824682
_cell_length_c   18.18331966
_cell_angle_alpha   90.00000000
_cell_angle_beta   90.00000000
_cell_angle_gamma   90.00000000
_symmetry_Int_Tables_number   1
_chemical_formula_structural   Dy5(In2Pd)2
_chemical_formula_sum   'Dy10 In8 Pd4'
_cell_volume   530.90171630
_cell_formula_units_Z   2
loop_
 _symmetry_equiv_pos_site_id
 _symmetry_equiv_pos_as_xyz
  1  'x, y, z'
loop_
 _atom_site_type_symbol
 _atom_site_label
 _atom_site_symmetry_multiplicity
 _atom_site_fract_x
 _atom_site_fract_y
 _atom_site_fract_z
 _atom_site_occupancy
  Dy  Dy0  1  0.00000000  0.50000000  0.50000000  1
  Dy  Dy1  1  0.00000000  -0.00000000  0.00000000  1
  Dy  Dy2  1  0.00000000  0.74267666  0.28028630  1
  Dy  Dy3  1  0.00000000  0.25732334  0.71971370  1
  Dy  Dy4  1  0.00000000  0.75732334  0.78028630  1
  Dy  Dy5  1  0.00000000  0.24267666  0.21971370  1
  Dy  Dy6  1  0.00000000  0.61668240  0.08306150  1
  Dy  Dy7  1  0.00000000  0.38331760  0.91693850  1
  Dy  Dy8  1  -0.00000000  0.88331760  0.58306150  1
  Dy  Dy9  1  0.00000000  0.11668240  0.41693850  1
  In  In0  1  0.50000000  0.71016715  0.93120227  1
  In  In1  1  0.50000000  0.28983285  0.06879773  1
  In  In2  1  0.50000000  0.78983285  0.43120227  1
  In  In3  1  0.50000000  0.21016715  0.56879773  1
  In  In4  1  0.50000000  0.57738176  0.64987918  1
  In  In5  1  0.50000000  0.42261824  0.35012082  1
  In  In6  1  0.50000000  0.92261824  0.14987918  1
  In  In7  1  0.50000000  0.07738176  0.85012082  1
  Pd  Pd0  1  0.50000000  0.52703061  0.19553569  1
  Pd  Pd1  1  0.50000000  0.47296939  0.80446431  1
  Pd  Pd2  1  0.50000000  0.97296939  0.69553569  1
  Pd  Pd3  1  0.50000000  0.02703061  0.30446431  1
loop_
_geom_bond_atom_site_label_1
_geom_bond_atom_site_label_2
_geom_bond_distance
_geom_bond_site_symmetry_2
Dy0 In3 3.207963 1_555
Dy0 In2 3.207963 1_555
Dy0 In2 3.207963 1_455
Dy0 In3 3.207963 1_455
Dy0 In5 3.333547 1_555
Dy0 In5 3.333547 1_455
Dy0 In4 3.333547 1_455
Dy0 In4 3.333547 1_555
Dy1 In1 3.207963 1_455
Dy1 In1 3.207963 1_555
Dy1 In0 3.207963 1_444
Dy1 In0 3.207963 1_544
Dy1 In7 3.333547 1_454
Dy1 In7 3.333547 1_554
Dy1 In6 3.333547 1_445
Dy1 In6 3.333547 1_545
Dy2 Pd0 2.945832 1_455
Dy2 Pd0 2.945832 1_555
Dy2 Pd3 2.952305 1_465
Dy2 Pd3 2.952305 1_565
Dy2 In2 3.312466 1_555
Dy2 In2 3.312466 1_455
Dy2 In6 3.318620 1_455
Dy2 In6 3.318620 1_555
Dy2 In5 3.395534 1_555
Dy2 In5 3.395534 1_455
Dy3 Pd1 2.945832 1_455
Dy3 Pd1 2.945832 1_555
Dy3 Pd2 2.952305 1_445
Dy3 Pd2 2.952305 1_545
Dy3 In3 3.312466 1_455
Dy3 In3 3.312466 1_555
Dy3 In7 3.318620 1_555
Dy3 In7 3.318620 1_455
Dy3 In4 3.395534 1_455
Dy3 In4 3.395534 1_555
Dy4 Pd2 2.945832 1_455
Dy4 Pd2 2.945832 1_555
Dy4 Pd1 2.952305 1_455
Dy4 Pd1 2.952305 1_555
Dy4 In0 3.312466 1_455
Dy4 In0 3.312466 1_555
Dy4 In4 3.318620 1_555
Dy4 In4 3.318620 1_455
Dy4 In7 3.395534 1_465
Dy4 In7 3.395534 1_565
Dy5 Pd3 2.945832 1_455
Dy5 Pd3 2.945832 1_555
Dy5 Pd0 2.952305 1_455
Dy5 Pd0 2.952305 1_555
Dy5 In1 3.312466 1_555
Dy5 In1 3.312466 1_455
Dy5 In5 3.318620 1_555
Dy5 In5 3.318620 1_455
Dy5 In6 3.395534 1_545
Dy5 In6 3.395534 1_445
Dy6 Pd0 2.828489 1_555
Dy6 Pd0 2.828489 1_455
Dy6 In1 3.204423 1_555
Dy6 In1 3.204423 1_455
Dy6 In6 3.289699 1_455
Dy6 In6 3.289699 1_555
Dy6 In0 3.389374 1_554
Dy6 In0 3.389374 1_454
Dy7 Pd1 2.828489 1_455
Dy7 Pd1 2.828489 1_555
Dy7 In0 3.204423 1_455
Dy7 In0 3.204423 1_555
Dy7 In7 3.289699 1_455
Dy7 In7 3.289699 1_555
Dy7 In1 3.389374 1_556
Dy7 In1 3.389374 1_456
Dy8 Pd2 2.828489 1_455
Dy8 Pd2 2.828489 1_555
Dy8 In3 3.204423 1_465
Dy8 In3 3.204423 1_565
Dy8 In4 3.289699 1_455
Dy8 In4 3.289699 1_555
Dy8 In2 3.389374 1_555
Dy8 In2 3.389374 1_455
Dy9 Pd3 2.828489 1_455
Dy9 Pd3 2.828489 1_555
Dy9 In2 3.204423 1_445
Dy9 In2 3.204423 1_545
Dy9 In5 3.289699 1_455
Dy9 In5 3.289699 1_555
Dy9 In3 3.389374 1_455
Dy9 In3 3.389374 1_555
In0 Pd1 2.991008 1_555
In0 In7 3.299477 1_565
In1 Pd0 2.991008 1_555
In1 In6 3.299477 1_545
In2 Pd3 2.991008 1_565
In2 In5 3.299477 1_555
In3 Pd2 2.991008 1_545
In3 In4 3.299477 1_555
In4 Pd1 2.933497 1_555
In4 Pd2 3.286417 1_555
In5 Pd0 2.933497 1_555
In5 Pd3 3.286417 1_555
In6 Pd3 2.933497 1_565
In6 Pd0 3.286417 1_555
In7 Pd2 2.933497 1_545
In7 Pd1 3.286417 1_555
