# generated using pymatgen
data_Sm(FeP3)4
_symmetry_space_group_name_H-M   'P 1'
_cell_length_a   6.75129502
_cell_length_b   6.75129502
_cell_length_c   6.75129502
_cell_angle_alpha   109.47122063
_cell_angle_beta   109.47122063
_cell_angle_gamma   109.47122063
_symmetry_Int_Tables_number   1
_chemical_formula_structural   Sm(FeP3)4
_chemical_formula_sum   'Sm1 Fe4 P12'
_cell_volume   236.88598613
_cell_formula_units_Z   1
loop_
 _symmetry_equiv_pos_site_id
 _symmetry_equiv_pos_as_xyz
  1  'x, y, z'
loop_
 _atom_site_type_symbol
 _atom_site_label
 _atom_site_symmetry_multiplicity
 _atom_site_fract_x
 _atom_site_fract_y
 _atom_site_fract_z
 _atom_site_occupancy
  Sm  Sm0  1  0.00000000  0.00000000  0.00000000  1
  Fe  Fe0  1  0.00000000  0.00000000  0.50000000  1
  Fe  Fe1  1  0.50000000  0.00000000  0.00000000  1
  Fe  Fe2  1  0.00000000  0.50000000  0.00000000  1
  Fe  Fe3  1  0.50000000  0.50000000  0.50000000  1
  P  P0  1  0.35293400  0.20206600  0.84913200  1
  P  P1  1  0.64706600  0.79793400  0.15086800  1
  P  P2  1  0.64706600  0.49619800  0.84913200  1
  P  P3  1  0.35293400  0.50380200  0.15086800  1
  P  P4  1  0.20206600  0.84913200  0.35293400  1
  P  P5  1  0.79793400  0.15086800  0.64706600  1
  P  P6  1  0.49619800  0.84913200  0.64706600  1
  P  P7  1  0.50380200  0.15086800  0.35293400  1
  P  P8  1  0.84913200  0.35293400  0.20206600  1
  P  P9  1  0.15086800  0.64706600  0.79793400  1
  P  P10  1  0.84913200  0.64706600  0.49619800  1
  P  P11  1  0.15086800  0.35293400  0.50380200  1
loop_
_geom_bond_atom_site_label_1
_geom_bond_atom_site_label_2
_geom_bond_distance
_geom_bond_site_symmetry_2
Fe0 P11 2.244878 1_555
Fe0 P0 2.244878 1_555
Fe0 P1 2.244878 1_445
Fe0 P5 2.244878 1_455
Fe0 P4 2.244878 1_545
Fe0 P10 2.244878 1_445
Fe1 P7 2.244878 1_555
Fe1 P8 2.244878 1_555
Fe1 P9 2.244878 1_544
Fe1 P1 2.244878 1_545
Fe1 P0 2.244878 1_554
Fe1 P6 2.244878 1_544
Fe2 P3 2.244878 1_555
Fe2 P4 2.244878 1_555
Fe2 P5 2.244878 1_454
Fe2 P9 2.244878 1_554
Fe2 P8 2.244878 1_455
Fe2 P2 2.244878 1_454
Fe3 P6 2.244878 1_555
Fe3 P10 2.244878 1_555
Fe3 P2 2.244878 1_555
Fe3 P3 2.244878 1_555
Fe3 P11 2.244878 1_555
Fe3 P7 2.244878 1_555
P0 P2 2.292972 1_555
P0 P3 2.352251 1_556
P0 Sm0 2.992213 1_556
P1 P3 2.292972 1_555
P1 P2 2.352251 1_554
P1 Sm0 2.992213 1_665
P2 Sm0 2.992213 1_666
P3 Sm0 2.992213 1_555
P4 P6 2.292972 1_555
P4 P7 2.352251 1_565
P4 Sm0 2.992213 1_565
P5 P7 2.292972 1_555
P5 P6 2.352251 1_545
P5 Sm0 2.992213 1_656
P6 Sm0 2.992213 1_666
P7 Sm0 2.992213 1_555
P8 Sm0 2.992213 1_655
P9 Sm0 2.992213 1_566
P10 P8 2.292972 1_555
P10 P9 2.352251 1_655
P10 Sm0 2.992213 1_666
P11 P9 2.292972 1_555
P11 P8 2.352251 1_455
P11 Sm0 2.992213 1_555
