# generated using pymatgen
data_La2In11Ni15
_symmetry_space_group_name_H-M   'P 1'
_cell_length_a   8.74510154
_cell_length_b   8.74510154
_cell_length_c   7.99764125
_cell_angle_alpha   63.02035408
_cell_angle_beta   63.02035408
_cell_angle_gamma   91.10231567
_symmetry_Int_Tables_number   1
_chemical_formula_structural   La2In11Ni15
_chemical_formula_sum   'La2 In11 Ni15'
_cell_volume   465.83499526
_cell_formula_units_Z   1
loop_
 _symmetry_equiv_pos_site_id
 _symmetry_equiv_pos_as_xyz
  1  'x, y, z'
loop_
 _atom_site_type_symbol
 _atom_site_label
 _atom_site_symmetry_multiplicity
 _atom_site_fract_x
 _atom_site_fract_y
 _atom_site_fract_z
 _atom_site_occupancy
  La  La0  1  0.25114900  0.74305400  0.00553400  1
  La  La1  1  0.74305400  0.25114900  0.00553400  1
  In  In0  1  0.06559500  0.33434600  0.47069800  1
  In  In1  1  0.66811200  0.94663900  0.52038600  1
  In  In2  1  0.81796200  0.55115700  0.13605700  1
  In  In3  1  0.44709500  0.16817000  0.86441700  1
  In  In4  1  0.94663900  0.66811200  0.52038600  1
  In  In5  1  0.33434600  0.06559500  0.47069800  1
  In  In6  1  0.16817000  0.44709500  0.86441700  1
  In  In7  1  0.55115700  0.81796200  0.13605700  1
  In  In8  1  0.53945100  0.53945100  0.79964400  1
  In  In9  1  0.95628900  0.95628900  0.86800700  1
  In  In10  1  0.04537200  0.04537200  0.12983700  1
  Ni  Ni0  1  0.41591800  0.76003800  0.53700800  1
  Ni  Ni1  1  0.24313900  0.58210800  0.46090600  1
  Ni  Ni2  1  0.26108700  0.91498800  0.28677100  1
  Ni  Ni3  1  0.08531700  0.74293600  0.71330700  1
  Ni  Ni4  1  0.58210800  0.24313900  0.46090600  1
  Ni  Ni5  1  0.76003800  0.41591800  0.53700800  1
  Ni  Ni6  1  0.74293600  0.08531700  0.71330700  1
  Ni  Ni7  1  0.91498800  0.26108700  0.28677100  1
  Ni  Ni8  1  0.73817500  0.73817500  0.83604100  1
  Ni  Ni9  1  0.26304800  0.26304800  0.16265200  1
  Ni  Ni10  1  0.24444100  0.24444100  0.67736000  1
  Ni  Ni11  1  0.75942200  0.75942200  0.31607900  1
  Ni  Ni12  1  0.00066100  0.00066100  0.49898800  1
  Ni  Ni13  1  0.50045100  0.50045100  0.49366100  1
  Ni  Ni14  1  0.45388000  0.45388000  0.22756000  1
loop_
_geom_bond_atom_site_label_1
_geom_bond_atom_site_label_2
_geom_bond_distance
_geom_bond_site_symmetry_2
La0 Ni1 3.219178 1_555
La0 Ni2 3.250885 1_555
La0 Ni3 3.262321 1_554
La0 Ni0 3.275188 1_554
La0 Ni14 3.412608 1_555
La1 Ni4 3.219178 1_555
La1 Ni7 3.250885 1_555
La1 Ni6 3.262321 1_554
La1 Ni5 3.275188 1_554
La1 Ni14 3.412608 1_555
In0 Ni1 2.591854 1_555
In0 Ni7 2.624770 1_455
In0 Ni10 2.647615 1_555
In0 Ni9 2.648625 1_555
In0 Ni5 2.657289 1_455
In0 Ni6 2.726038 1_455
In0 Ni12 2.847739 1_555
In0 Ni14 2.903787 1_555
In0 In9 3.087306 1_445
In0 La0 3.388598 1_555
In0 La1 3.596083 1_456
In1 Ni4 2.606858 1_565
In1 Ni6 2.619703 1_565
In1 Ni0 2.635019 1_555
In1 Ni7 2.676481 1_565
In1 Ni11 2.698480 1_555
In1 Ni8 2.709715 1_555
In1 Ni12 2.851694 1_665
In1 In8 3.046925 1_555
In1 In10 3.078865 1_665
In1 La1 3.465654 1_565
In1 La0 3.487925 1_556
In2 Ni4 2.614194 1_555
In2 Ni7 2.616128 1_555
In2 Ni8 2.630823 1_554
In2 Ni5 2.645759 1_555
In2 Ni3 2.691095 1_654
In2 Ni11 2.720011 1_555
In2 Ni13 2.771733 1_555
In2 Ni14 2.934866 1_555
In2 In9 3.033474 1_554
In2 La1 3.382512 1_555
In2 La0 3.582550 1_655
In3 Ni6 2.590095 1_555
In3 Ni4 2.613720 1_555
In3 Ni2 2.654812 1_546
In3 Ni5 2.676267 1_555
In3 Ni9 2.707727 1_556
In3 Ni10 2.714678 1_555
In3 Ni13 2.885882 1_555
In3 In8 3.075108 1_555
In3 La1 3.438067 1_556
In3 La0 3.496329 1_546
In4 Ni1 2.606858 1_655
In4 Ni3 2.619703 1_655
In4 Ni5 2.635019 1_555
In4 Ni2 2.676481 1_655
In4 Ni11 2.698480 1_555
In4 Ni8 2.709715 1_555
In4 Ni12 2.851694 1_665
In4 In8 3.046925 1_555
In4 La0 3.465654 1_655
In4 La1 3.487925 1_556
In5 Ni4 2.591854 1_555
In5 Ni2 2.624770 1_545
In5 Ni10 2.647615 1_555
In5 Ni9 2.648625 1_555
In5 Ni0 2.657289 1_545
In5 Ni3 2.726038 1_545
In5 Ni12 2.847739 1_555
In5 Ni14 2.903787 1_555
In5 In9 3.087306 1_445
In5 La1 3.388598 1_555
In5 La0 3.596083 1_546
In6 Ni3 2.590095 1_555
In6 Ni1 2.613720 1_555
In6 Ni7 2.654812 1_456
In6 Ni0 2.676267 1_555
In6 Ni9 2.707727 1_556
In6 Ni10 2.714678 1_555
In6 Ni13 2.885882 1_555
In6 In8 3.075108 1_555
In6 La0 3.438067 1_556
In6 La1 3.496329 1_456
In7 Ni1 2.614194 1_555
In7 Ni2 2.616128 1_555
In7 Ni8 2.630823 1_554
In7 Ni0 2.645759 1_555
In7 Ni6 2.691095 1_564
In7 Ni11 2.720011 1_555
In7 Ni13 2.771733 1_555
In7 Ni14 2.934866 1_555
In7 In9 3.033474 1_554
In7 La0 3.382512 1_555
In7 La1 3.582550 1_565
In8 Ni8 2.631894 1_555
In8 Ni9 2.674796 1_556
In8 Ni13 2.780513 1_555
In8 Ni5 2.786195 1_555
In8 Ni0 2.786195 1_555
In8 Ni14 2.857139 1_556
In8 Ni11 2.952070 1_555
In8 La1 3.362195 1_556
In8 La0 3.362195 1_556
In9 Ni12 2.631960 1_665
In9 Ni3 2.682160 1_655
In9 Ni6 2.682160 1_565
In9 Ni11 2.731269 1_556
In9 Ni10 2.794289 1_665
In9 Ni8 2.843741 1_555
In9 La1 3.497651 1_566
In9 La0 3.497651 1_656
In10 Ni12 2.630845 1_555
In10 Ni7 2.714158 1_455
In10 Ni2 2.714158 1_545
In10 Ni10 2.758229 1_554
In10 Ni11 2.779455 1_445
In10 Ni9 2.843136 1_555
In10 In9 2.921600 1_444
In10 In6 3.003529 1_554
In10 In3 3.003529 1_554
In10 In4 3.078865 1_445
In10 La0 3.487252 1_545
In10 La1 3.487252 1_455
Ni0 Ni13 2.523133 1_555
Ni0 Ni3 2.542119 1_555
Ni0 Ni1 2.584168 1_555
Ni0 Ni11 2.709088 1_555
Ni0 Ni2 2.782705 1_555
Ni1 Ni13 2.463534 1_555
Ni1 Ni2 2.558132 1_555
Ni1 Ni14 2.644684 1_555
Ni1 Ni10 2.664140 1_555
Ni1 Ni3 2.842643 1_555
Ni2 Ni3 2.599928 1_555
Ni2 Ni9 2.737065 1_565
Ni3 Ni8 2.726818 1_455
Ni4 Ni7 2.558132 1_555
Ni4 Ni5 2.584168 1_555
Ni4 Ni6 2.842643 1_555
Ni5 Ni6 2.542119 1_555
Ni5 Ni7 2.782705 1_555
Ni6 Ni7 2.599928 1_555
Ni6 Ni8 2.726818 1_545
Ni7 Ni9 2.737065 1_655
Ni10 Ni13 2.453859 1_555
Ni10 Ni4 2.664140 1_555
Ni10 Ni14 2.750353 1_555
Ni11 Ni13 2.498167 1_555
Ni11 Ni5 2.709088 1_555
Ni12 Ni3 2.505221 1_545
Ni12 Ni6 2.505221 1_455
Ni12 Ni7 2.518119 1_455
Ni12 Ni2 2.518119 1_545
Ni12 Ni9 2.522421 1_555
Ni12 Ni8 2.524515 1_445
Ni13 Ni4 2.463534 1_555
Ni13 Ni5 2.523133 1_555
Ni13 Ni14 2.535227 1_555
Ni14 Ni4 2.644684 1_555
Ni14 Ni9 2.702685 1_555
Ni14 Ni8 2.793197 1_554
