# generated using pymatgen
data_Co5CuO8
_symmetry_space_group_name_H-M   'P 1'
_cell_length_a   5.84129225
_cell_length_b   10.26948207
_cell_length_c   5.86406784
_cell_angle_alpha   72.33301446
_cell_angle_beta   119.25661601
_cell_angle_gamma   90.62786668
_symmetry_Int_Tables_number   1
_chemical_formula_structural   Co5CuO8
_chemical_formula_sum   'Co10 Cu2 O16'
_cell_volume   288.40238975
_cell_formula_units_Z   2
loop_
 _symmetry_equiv_pos_site_id
 _symmetry_equiv_pos_as_xyz
  1  'x, y, z'
loop_
 _atom_site_type_symbol
 _atom_site_label
 _atom_site_symmetry_multiplicity
 _atom_site_fract_x
 _atom_site_fract_y
 _atom_site_fract_z
 _atom_site_occupancy
  Co  Co0  1  0.50151300  0.50312000  0.99691200  1
  Co  Co1  1  0.00130800  0.99534800  0.00493400  1
  Co  Co2  1  0.62348300  0.12189700  0.25307300  1
  Co  Co3  1  0.12368200  0.62966200  0.24505600  1
  Co  Co4  1  0.56249800  0.81250600  0.62499900  1
  Co  Co5  1  0.56249400  0.81249800  0.12500400  1
  Co  Co6  1  0.06250200  0.31251300  0.12498900  1
  Co  Co7  1  0.06249600  0.81249300  0.62501000  1
  Co  Co8  1  0.56250400  0.31250800  0.62499000  1
  Co  Co9  1  0.06250000  0.31251600  0.62498500  1
  Cu  Cu0  1  0.31270700  0.06179600  0.62560600  1
  Cu  Cu1  1  0.81238500  0.56306500  0.62453100  1
  O  O0  1  0.69074100  0.92095500  0.39066300  1
  O  O1  1  0.19083300  0.42852300  0.37555500  1
  O  O2  1  0.43426900  0.70405800  0.85931700  1
  O  O3  1  0.93417200  0.19649600  0.87441900  1
  O  O4  1  0.92115700  0.70037300  0.37694300  1
  O  O5  1  0.42455800  0.19171100  0.38183500  1
  O  O6  1  0.21154900  0.92395700  0.41647400  1
  O  O7  1  0.69979100  0.43688700  0.39805500  1
  O  O8  1  0.20383100  0.92460600  0.87308300  1
  O  O9  1  0.70043200  0.43327800  0.86817900  1
  O  O10  1  0.66110400  0.92322400  0.86491000  1
  O  O11  1  0.16779200  0.43538400  0.86868000  1
  O  O12  1  0.95721500  0.18964300  0.38130400  1
  O  O13  1  0.46385700  0.70179500  0.38506400  1
  O  O14  1  0.42517900  0.18813100  0.85189900  1
  O  O15  1  0.91344800  0.70105700  0.83353100  1
loop_
_geom_bond_atom_site_label_1
_geom_bond_atom_site_label_2
_geom_bond_distance
_geom_bond_site_symmetry_2
Co0 O9 1.907535 1_555
Co0 O11 1.924663 1_555
Co0 O7 1.928892 1_556
Co0 O2 1.939293 1_555
Co1 O3 1.942007 1_464
Co1 O8 1.943935 1_554
Co1 O10 1.978349 1_454
Co1 O6 1.979556 1_555
Co2 O5 1.907556 1_555
Co2 O12 1.924763 1_555
Co2 O14 1.929042 1_554
Co2 O0 1.939332 1_545
Co3 O1 1.941924 1_555
Co3 O4 1.943956 1_455
Co3 O13 1.978256 1_555
Co3 O15 1.979485 1_454
Co4 O2 1.936045 1_555
Co4 O0 1.936184 1_555
Co4 O15 1.938923 1_555
Co4 O6 1.938930 1_555
Co4 O10 1.941216 1_555
Co4 O13 1.941252 1_555
Co5 O13 1.934489 1_555
Co5 O10 1.934615 1_554
Co5 O8 1.972931 1_554
Co5 O4 1.973000 1_555
Co5 O2 2.030454 1_554
Co5 O0 2.030465 1_555
Co6 O11 1.991207 1_554
Co6 O12 1.991217 1_455
Co6 O9 2.022301 1_454
Co6 O5 2.022406 1_555
Co6 O1 2.026464 1_555
Co6 O3 2.026539 1_454
Co7 O15 1.931894 1_455
Co7 O6 1.932089 1_555
Co7 O8 1.986263 1_555
Co7 O4 1.986297 1_455
Co7 O2 2.012884 1_555
Co7 O0 2.012901 1_455
Co8 O7 2.008602 1_555
Co8 O14 2.008651 1_555
Co8 O9 2.037060 1_555
Co8 O5 2.037154 1_555
Co8 O3 2.041385 1_555
Co8 O1 2.041410 1_555
Co9 O1 2.028579 1_555
Co9 O3 2.028624 1_455
Co9 O14 2.040249 1_555
Co9 O7 2.040309 1_455
Co9 O12 2.056902 1_455
Co9 O11 2.056918 1_555
Cu0 O5 1.996622 1_555
Cu0 O14 2.012444 1_555
Cu0 O12 2.024467 1_455
Cu0 O8 2.033941 1_545
Cu0 O6 2.045459 1_545
Cu0 O10 2.048386 1_545
Cu1 O9 1.995947 1_555
Cu1 O7 2.011833 1_555
Cu1 O11 2.023359 1_655
Cu1 O4 2.034544 1_555
Cu1 O15 2.046316 1_555
Cu1 O13 2.049693 1_555
