# generated using pymatgen
data_LiB(H3N)4
_symmetry_space_group_name_H-M   'P 1'
_cell_length_a   6.58163200
_cell_length_b   7.83825900
_cell_length_c   12.08610600
_cell_angle_alpha   90.00000000
_cell_angle_beta   90.00000000
_cell_angle_gamma   90.00000000
_symmetry_Int_Tables_number   1
_chemical_formula_structural   LiB(H3N)4
_chemical_formula_sum   'Li4 B4 H48 N16'
_cell_volume   623.50451761
_cell_formula_units_Z   4
loop_
 _symmetry_equiv_pos_site_id
 _symmetry_equiv_pos_as_xyz
  1  'x, y, z'
loop_
 _atom_site_type_symbol
 _atom_site_label
 _atom_site_symmetry_multiplicity
 _atom_site_fract_x
 _atom_site_fract_y
 _atom_site_fract_z
 _atom_site_occupancy
  Li  Li0  1  0.51807400  0.26547900  0.75923000  1
  Li  Li1  1  0.48192600  0.76547900  0.24077000  1
  Li  Li2  1  0.51807400  0.76547900  0.74077000  1
  Li  Li3  1  0.48192600  0.26547900  0.25923000  1
  B  B0  1  0.20515300  0.52394900  0.00032700  1
  B  B1  1  0.79484700  0.02394900  0.99967300  1
  B  B2  1  0.20515300  0.02394900  0.49967300  1
  B  B3  1  0.79484700  0.52394900  0.50032700  1
  H  H0  1  0.09985000  0.52291100  0.08537100  1
  H  H1  1  0.90015000  0.02291100  0.91462900  1
  H  H2  1  0.09985000  0.02291100  0.41462900  1
  H  H3  1  0.90015000  0.52291100  0.58537100  1
  H  H4  1  0.30575700  0.39156500  0.99554400  1
  H  H5  1  0.69424300  0.89156500  0.00445600  1
  H  H6  1  0.30575700  0.89156500  0.50445600  1
  H  H7  1  0.69424300  0.39156500  0.49554400  1
  H  H8  1  0.31795100  0.64942100  0.00107500  1
  H  H9  1  0.68204900  0.14942100  0.99892500  1
  H  H10  1  0.31795100  0.14942100  0.49892500  1
  H  H11  1  0.68204900  0.64942100  0.50107500  1
  H  H12  1  0.09075800  0.53098700  0.91923100  1
  H  H13  1  0.90924200  0.03098700  0.08076900  1
  H  H14  1  0.09075800  0.03098700  0.58076900  1
  H  H15  1  0.90924200  0.53098700  0.41923100  1
  H  H16  1  0.84792000  0.66839100  0.84458400  1
  H  H17  1  0.15208000  0.16839100  0.15541600  1
  H  H18  1  0.84792000  0.16839100  0.65541600  1
  H  H19  1  0.15208000  0.66839100  0.34458400  1
  H  H20  1  0.80782300  0.56971800  0.72554900  1
  H  H21  1  0.19217700  0.06971800  0.27445100  1
  H  H22  1  0.80782300  0.06971800  0.77445100  1
  H  H23  1  0.19217700  0.56971800  0.22554900  1
  H  H24  1  0.58440600  0.47926200  0.91613800  1
  H  H25  1  0.41559400  0.97926200  0.08386200  1
  H  H26  1  0.58440600  0.97926200  0.58386200  1
  H  H27  1  0.41559400  0.47926200  0.41613800  1
  H  H28  1  0.81067500  0.39794200  0.89460900  1
  H  H29  1  0.18932500  0.89794200  0.10539100  1
  H  H30  1  0.81067500  0.89794200  0.60539100  1
  H  H31  1  0.18932500  0.39794200  0.39460900  1
  H  H32  1  0.17479200  0.63913500  0.65548000  1
  H  H33  1  0.82520800  0.13913500  0.34452000  1
  H  H34  1  0.17479200  0.13913500  0.84452000  1
  H  H35  1  0.82520800  0.63913500  0.15548000  1
  H  H36  1  0.23419000  0.56499600  0.77920600  1
  H  H37  1  0.76581000  0.06499600  0.22079400  1
  H  H38  1  0.23419000  0.06499600  0.72079400  1
  H  H39  1  0.76581000  0.56499600  0.27920600  1
  H  H40  1  0.45881300  0.45114400  0.59451800  1
  H  H41  1  0.54118700  0.95114400  0.40548200  1
  H  H42  1  0.45881300  0.95114400  0.90548200  1
  H  H43  1  0.54118700  0.45114400  0.09451800  1
  H  H44  1  0.23310200  0.36864100  0.61730100  1
  H  H45  1  0.76689800  0.86864100  0.38269900  1
  H  H46  1  0.23310200  0.86864100  0.88269900  1
  H  H47  1  0.76689800  0.36864100  0.11730100  1
  N  N0  1  0.68558500  0.44708900  0.85501500  1
  N  N1  1  0.31441500  0.94708900  0.14498500  1
  N  N2  1  0.68558500  0.94708900  0.64498500  1
  N  N3  1  0.31441500  0.44708900  0.35501500  1
  N  N4  1  0.74046500  0.60397500  0.79882500  1
  N  N5  1  0.25953500  0.10397500  0.20117500  1
  N  N6  1  0.74046500  0.10397500  0.70117500  1
  N  N7  1  0.25953500  0.60397500  0.29882500  1
  N  N8  1  0.35323900  0.42706000  0.65520900  1
  N  N9  1  0.64676100  0.92706000  0.34479100  1
  N  N10  1  0.35323900  0.92706000  0.84479100  1
  N  N11  1  0.64676100  0.42706000  0.15520900  1
  N  N12  1  0.29194900  0.58957600  0.70148100  1
  N  N13  1  0.70805100  0.08957600  0.29851900  1
  N  N14  1  0.29194900  0.08957600  0.79851900  1
  N  N15  1  0.70805100  0.58957600  0.20148100  1
loop_
_geom_bond_atom_site_label_1
_geom_bond_atom_site_label_2
_geom_bond_distance
_geom_bond_site_symmetry_2
Li0 N6 2.058460 1_555
Li0 N14 2.083615 1_555
Li0 N8 2.088445 1_555
Li0 N0 2.140575 1_555
Li1 N7 2.058460 1_555
Li1 N15 2.083615 1_555
Li1 N9 2.088445 1_555
Li1 N1 2.140575 1_555
Li2 N4 2.058460 1_555
Li2 N12 2.083615 1_555
Li2 N10 2.088445 1_555
Li2 N2 2.140575 1_555
Li3 N5 2.058460 1_555
Li3 N13 2.083615 1_555
Li3 N11 2.088445 1_555
Li3 N3 2.140575 1_555
B0 H8 1.232262 1_555
B0 H4 1.232277 1_554
B0 H12 1.237164 1_554
B0 H0 1.239711 1_555
B1 H9 1.232262 1_555
B1 H5 1.232277 1_546
B1 H13 1.237164 1_556
B1 H1 1.239711 1_555
B2 H10 1.232262 1_555
B2 H6 1.232277 1_545
B2 H14 1.237164 1_555
B2 H2 1.239711 1_555
B3 H11 1.232262 1_555
B3 H7 1.232277 1_555
B3 H15 1.237164 1_555
B3 H3 1.239711 1_555
H16 N4 1.030033 1_555
H17 N5 1.030033 1_555
H18 N6 1.030033 1_555
H19 N7 1.030033 1_555
H20 N4 1.026140 1_555
H21 N5 1.026140 1_555
H22 N6 1.026140 1_555
H23 N7 1.026140 1_555
H24 N0 1.026052 1_555
H25 N1 1.026052 1_555
H26 N2 1.026052 1_555
H27 N3 1.026052 1_555
H28 N0 1.027236 1_555
H29 N1 1.027236 1_555
H30 N2 1.027236 1_555
H31 N3 1.027236 1_555
H32 N12 1.026925 1_555
H33 N13 1.026925 1_555
H34 N14 1.026925 1_555
H35 N15 1.026925 1_555
H36 N12 1.031548 1_555
H37 N13 1.031548 1_555
H38 N14 1.031548 1_555
H39 N15 1.031548 1_555
H40 N8 1.027862 1_555
H41 N9 1.027862 1_555
H42 N10 1.027862 1_555
H43 N11 1.027862 1_555
H44 N8 1.022149 1_555
H45 N9 1.022149 1_555
H46 N10 1.022149 1_555
H47 N11 1.022149 1_555
