# generated using pymatgen
data_Li2V3SnO8
_symmetry_space_group_name_H-M   'P 1'
_cell_length_a   6.07516169
_cell_length_b   10.51640390
_cell_length_c   6.02705396
_cell_angle_alpha   106.56237736
_cell_angle_beta   59.73709153
_cell_angle_gamma   90.08103906
_symmetry_Int_Tables_number   1
_chemical_formula_structural   Li2V3SnO8
_chemical_formula_sum   'Li4 V6 Sn2 O16'
_cell_volume   314.04631239
_cell_formula_units_Z   2
loop_
 _symmetry_equiv_pos_site_id
 _symmetry_equiv_pos_as_xyz
  1  'x, y, z'
loop_
 _atom_site_type_symbol
 _atom_site_label
 _atom_site_symmetry_multiplicity
 _atom_site_fract_x
 _atom_site_fract_y
 _atom_site_fract_z
 _atom_site_occupancy
  Li  Li0  1  0.31110600  0.55354600  0.36640400  1
  Li  Li1  1  0.82106500  0.05383900  0.36912100  1
  Li  Li2  1  0.75695800  0.75325500  0.49744500  1
  Li  Li3  1  0.24604600  0.25305800  0.49575100  1
  V  V0  1  0.76061600  0.75041100  0.00437100  1
  V  V1  1  0.25262200  0.25081200  0.00806300  1
  V  V2  1  0.98790100  0.51625200  0.01440800  1
  V  V3  1  0.23705900  0.74966500  0.00978200  1
  V  V4  1  0.73547800  0.25057000  0.00327800  1
  V  V5  1  0.49606600  0.01542700  0.01887000  1
  Sn  Sn0  1  0.18078400  0.94393400  0.64964400  1
  Sn  Sn1  1  0.67258200  0.44404200  0.64550400  1
  O  O0  1  0.11526500  0.62401300  0.77499400  1
  O  O1  1  0.60749300  0.12475800  0.77962700  1
  O  O2  1  0.38498900  0.87707200  0.23741900  1
  O  O3  1  0.87888700  0.37708600  0.23332200  1
  O  O4  1  0.89154400  0.85603000  0.21745000  1
  O  O5  1  0.39151200  0.35522000  0.21512900  1
  O  O6  1  0.12733300  0.61775600  0.20902100  1
  O  O7  1  0.62494000  0.11503800  0.21089300  1
  O  O8  1  0.66604800  0.61525000  0.20985200  1
  O  O9  1  0.16545400  0.11764600  0.20607600  1
  O  O10  1  0.84790000  0.87352100  0.76891600  1
  O  O11  1  0.33742800  0.37523600  0.76965100  1
  O  O12  1  0.39157300  0.87402800  0.77264900  1
  O  O13  1  0.88490000  0.37425800  0.76624000  1
  O  O14  1  0.61552800  0.64398500  0.77331300  1
  O  O15  1  0.11092600  0.14428800  0.77280800  1
loop_
_geom_bond_atom_site_label_1
_geom_bond_atom_site_label_2
_geom_bond_distance
_geom_bond_site_symmetry_2
Li0 O5 1.972251 1_555
Li0 O6 2.009209 1_555
Li0 O0 2.009474 1_555
Li0 O8 2.062881 1_555
Li1 O4 1.967289 1_545
Li1 O1 2.018952 1_555
Li1 O9 2.023109 1_655
Li1 O7 2.059291 1_555
Li2 O10 2.076368 1_555
Li2 O4 2.081136 1_555
Li2 O12 2.094649 1_555
Li2 O14 2.114184 1_555
Li2 O6 2.183948 1_655
Li2 O8 2.223567 1_555
Li3 O13 2.077038 1_455
Li3 O5 2.079084 1_555
Li3 O11 2.096838 1_555
Li3 O15 2.115499 1_555
Li3 O9 2.181266 1_555
Li3 O7 2.226720 1_555
O0 V2 1.941533 1_456
O0 V0 2.068430 1_456
O0 V3 2.069438 1_556
O1 V5 1.954104 1_556
O1 V4 2.051537 1_556
O1 V1 2.067977 1_556
O2 Sn0 2.026328 1_555
O2 V5 2.121643 1_565
O2 V0 2.160065 1_555
O2 V3 2.162538 1_555
O3 Sn1 2.026089 1_555
O3 V2 2.130435 1_555
O3 V4 2.148061 1_555
O3 V1 2.153019 1_655
O4 V0 1.931199 1_555
O4 V3 1.945301 1_655
O5 V4 1.929815 1_555
O5 V1 1.937163 1_555
O6 V2 1.875596 1_455
O6 V3 1.987698 1_555
O7 V5 1.808190 1_555
O7 V4 2.053136 1_555
O8 V2 1.811006 1_555
O8 V0 2.041654 1_555
O9 V5 1.869012 1_555
O9 V1 1.994908 1_555
O10 Sn0 1.997203 1_655
O10 V0 2.063554 1_556
O10 V5 2.132361 1_566
O11 Sn1 1.999530 1_555
O11 V1 2.089540 1_556
O11 V2 2.118662 1_456
O12 Sn0 2.000059 1_555
O12 V3 2.084280 1_556
O12 V5 2.122541 1_566
O13 Sn1 1.996259 1_555
O13 V4 2.075081 1_556
O13 V2 2.127429 1_556
O14 Sn1 1.986026 1_555
O14 V0 2.077196 1_556
O14 V3 2.086679 1_556
O15 Sn0 1.990955 1_545
O15 V4 2.076029 1_456
O15 V1 2.080469 1_556
