# generated using pymatgen
data_Al12Ga(S2O33)2
_symmetry_space_group_name_H-M   'P 1'
_cell_length_a   11.00036403
_cell_length_b   11.00036403
_cell_length_c   11.00036403
_cell_angle_alpha   60.00000000
_cell_angle_beta   60.00000000
_cell_angle_gamma   60.00000000
_symmetry_Int_Tables_number   1
_chemical_formula_structural   Al12Ga(S2O33)2
_chemical_formula_sum   'Al12 Ga1 S4 O66'
_cell_volume   941.25256757
_cell_formula_units_Z   1
loop_
 _symmetry_equiv_pos_site_id
 _symmetry_equiv_pos_as_xyz
  1  'x, y, z'
loop_
 _atom_site_type_symbol
 _atom_site_label
 _atom_site_symmetry_multiplicity
 _atom_site_fract_x
 _atom_site_fract_y
 _atom_site_fract_z
 _atom_site_occupancy
  Al  Al0  1  0.70320800  0.70320800  0.42747900  1
  Al  Al1  1  0.70320800  0.70320800  0.16610600  1
  Al  Al2  1  0.42747900  0.16610600  0.70320800  1
  Al  Al3  1  0.42747900  0.70320800  0.70320800  1
  Al  Al4  1  0.16610600  0.42747900  0.70320800  1
  Al  Al5  1  0.16610600  0.70320800  0.70320800  1
  Al  Al6  1  0.70320800  0.42747900  0.16610600  1
  Al  Al7  1  0.70320800  0.16610600  0.42747900  1
  Al  Al8  1  0.70320800  0.42747900  0.70320800  1
  Al  Al9  1  0.16610600  0.70320800  0.42747900  1
  Al  Al10  1  0.42747900  0.70320800  0.16610600  1
  Al  Al11  1  0.70320800  0.16610600  0.70320800  1
  Ga  Ga0  1  0.50000000  0.50000000  0.50000000  1
  S  S0  1  0.13544600  0.13544600  0.13544600  1
  S  S1  1  0.13544600  0.13544600  0.59366300  1
  S  S2  1  0.13544600  0.59366300  0.13544600  1
  S  S3  1  0.59366300  0.13544600  0.13544600  1
  O  O0  1  0.18909400  0.18909400  0.18909400  1
  O  O1  1  0.18909400  0.18909400  0.43271800  1
  O  O2  1  0.18909400  0.43271800  0.18909400  1
  O  O3  1  0.43271800  0.18909400  0.18909400  1
  O  O4  1  0.81856700  0.81856700  0.28048800  1
  O  O5  1  0.81856700  0.81856700  0.08237800  1
  O  O6  1  0.28048800  0.08237800  0.81856700  1
  O  O7  1  0.28048800  0.81856700  0.81856700  1
  O  O8  1  0.08237800  0.28048800  0.81856700  1
  O  O9  1  0.08237800  0.81856700  0.81856700  1
  O  O10  1  0.81856700  0.28048800  0.08237800  1
  O  O11  1  0.81856700  0.08237800  0.28048800  1
  O  O12  1  0.81856700  0.28048800  0.81856700  1
  O  O13  1  0.08237800  0.81856700  0.28048800  1
  O  O14  1  0.28048800  0.81856700  0.08237800  1
  O  O15  1  0.81856700  0.08237800  0.81856700  1
  O  O16  1  0.04252400  0.04252400  0.26289400  1
  O  O17  1  0.04252400  0.04252400  0.65205800  1
  O  O18  1  0.26289400  0.65205800  0.04252400  1
  O  O19  1  0.26289400  0.04252400  0.04252400  1
  O  O20  1  0.65205800  0.26289400  0.04252400  1
  O  O21  1  0.65205800  0.04252400  0.04252400  1
  O  O22  1  0.04252400  0.26289400  0.65205800  1
  O  O23  1  0.04252400  0.65205800  0.26289400  1
  O  O24  1  0.04252400  0.26289400  0.04252400  1
  O  O25  1  0.65205800  0.04252400  0.26289400  1
  O  O26  1  0.26289400  0.04252400  0.65205800  1
  O  O27  1  0.04252400  0.65205800  0.04252400  1
  O  O28  1  0.57728700  0.57728700  0.57728700  1
  O  O29  1  0.57728700  0.57728700  0.26813800  1
  O  O30  1  0.57728700  0.26813800  0.57728700  1
  O  O31  1  0.26813800  0.57728700  0.57728700  1
  O  O32  1  0.52341200  0.97658800  0.97658800  1
  O  O33  1  0.97658800  0.52341200  0.52341200  1
  O  O34  1  0.97658800  0.52341200  0.97658800  1
  O  O35  1  0.52341200  0.97658800  0.52341200  1
  O  O36  1  0.97658800  0.97658800  0.52341200  1
  O  O37  1  0.52341200  0.52341200  0.97658800  1
  O  O38  1  0.39128000  0.39128000  0.39128000  1
  O  O39  1  0.39128000  0.39128000  0.82616100  1
  O  O40  1  0.39128000  0.82616100  0.39128000  1
  O  O41  1  0.82616100  0.39128000  0.39128000  1
  O  O42  1  0.31137400  0.31137400  0.80319200  1
  O  O43  1  0.31137400  0.31137400  0.57405900  1
  O  O44  1  0.80319200  0.57405900  0.31137400  1
  O  O45  1  0.80319200  0.31137400  0.31137400  1
  O  O46  1  0.57405900  0.80319200  0.31137400  1
  O  O47  1  0.57405900  0.31137400  0.31137400  1
  O  O48  1  0.31137400  0.80319200  0.57405900  1
  O  O49  1  0.31137400  0.57405900  0.80319200  1
  O  O50  1  0.31137400  0.80319200  0.31137400  1
  O  O51  1  0.57405900  0.31137400  0.80319200  1
  O  O52  1  0.80319200  0.31137400  0.57405900  1
  O  O53  1  0.31137400  0.57405900  0.31137400  1
  O  O54  1  0.57508800  0.57508800  0.81595700  1
  O  O55  1  0.57508800  0.57508800  0.03386700  1
  O  O56  1  0.81595700  0.03386700  0.57508800  1
  O  O57  1  0.81595700  0.57508800  0.57508800  1
  O  O58  1  0.03386700  0.81595700  0.57508800  1
  O  O59  1  0.03386700  0.57508800  0.57508800  1
  O  O60  1  0.57508800  0.81595700  0.03386700  1
  O  O61  1  0.57508800  0.03386700  0.81595700  1
  O  O62  1  0.57508800  0.81595700  0.57508800  1
  O  O63  1  0.03386700  0.57508800  0.81595700  1
  O  O64  1  0.81595700  0.57508800  0.03386700  1
  O  O65  1  0.57508800  0.03386700  0.57508800  1
loop_
_geom_bond_atom_site_label_1
_geom_bond_atom_site_label_2
_geom_bond_distance
_geom_bond_site_symmetry_2
Al0 O4 1.828047 1_555
Al0 O44 1.925221 1_555
Al0 O46 1.925221 1_555
Al0 O28 1.976481 1_555
Al0 O57 2.034359 1_555
Al0 O62 2.034359 1_555
Al1 O5 1.828045 1_555
Al1 O44 1.925205 1_555
Al1 O46 1.925205 1_555
Al1 O29 1.976484 1_555
Al1 O64 2.034368 1_555
Al1 O60 2.034368 1_555
Al2 O6 1.828053 1_555
Al2 O42 1.925204 1_555
Al2 O43 1.925218 1_555
Al2 O30 1.976467 1_555
Al2 O61 2.034359 1_555
Al2 O65 2.034367 1_555
Al3 O7 1.828047 1_555
Al3 O48 1.925221 1_555
Al3 O49 1.925221 1_555
Al3 O28 1.976481 1_555
Al3 O62 2.034359 1_555
Al3 O54 2.034359 1_555
Al4 O8 1.828053 1_555
Al4 O42 1.925204 1_555
Al4 O43 1.925218 1_555
Al4 O31 1.976467 1_555
Al4 O63 2.034359 1_555
Al4 O59 2.034367 1_555
Al5 O9 1.828045 1_555
Al5 O48 1.925205 1_555
Al5 O49 1.925205 1_555
Al5 O31 1.976484 1_555
Al5 O58 2.034368 1_555
Al5 O63 2.034368 1_555
Al6 O10 1.828053 1_555
Al6 O45 1.925204 1_555
Al6 O47 1.925218 1_555
Al6 O29 1.976467 1_555
Al6 O64 2.034359 1_555
Al6 O55 2.034367 1_555
Al7 O11 1.828053 1_555
Al7 O45 1.925204 1_555
Al7 O47 1.925218 1_555
Al7 O30 1.976467 1_555
Al7 O56 2.034359 1_555
Al7 O65 2.034367 1_555
Al8 O12 1.828047 1_555
Al8 O52 1.925221 1_555
Al8 O51 1.925221 1_555
Al8 O28 1.976481 1_555
Al8 O57 2.034359 1_555
Al8 O54 2.034359 1_555
Al9 O13 1.828053 1_555
Al9 O50 1.925204 1_555
Al9 O53 1.925218 1_555
Al9 O31 1.976467 1_555
Al9 O58 2.034359 1_555
Al9 O59 2.034367 1_555
Al10 O14 1.828053 1_555
Al10 O50 1.925204 1_555
Al10 O53 1.925218 1_555
Al10 O29 1.976467 1_555
Al10 O60 2.034359 1_555
Al10 O55 2.034367 1_555
Al11 O15 1.828045 1_555
Al11 O51 1.925205 1_555
Al11 O52 1.925205 1_555
Al11 O30 1.976484 1_555
Al11 O61 2.034368 1_555
Al11 O56 2.034368 1_555
Ga0 O28 2.082520 1_555
Ga0 O30 2.082529 1_555
Ga0 O29 2.082529 1_555
Ga0 O31 2.082529 1_555
O0 S0 1.445560 1_555
O1 S1 1.445569 1_555
O2 S2 1.445569 1_555
O3 S3 1.445569 1_555
O16 S0 1.494635 1_555
O17 S1 1.494638 1_555
O18 S2 1.494629 1_555
O19 S0 1.494635 1_555
O20 S3 1.494629 1_555
O21 S3 1.494638 1_555
O22 S1 1.494629 1_555
O23 S2 1.494629 1_555
O24 S0 1.494635 1_555
O25 S3 1.494629 1_555
O26 S1 1.494629 1_555
O27 S2 1.494638 1_555
O32 O60 1.443188 1_556
O32 O61 1.443188 1_565
O33 O59 1.443188 1_655
O33 O57 1.443188 1_555
O34 O63 1.443188 1_655
O34 O64 1.443188 1_556
O35 O65 1.443188 1_565
O35 O62 1.443188 1_555
O36 O58 1.443188 1_655
O36 O56 1.443188 1_565
O37 O55 1.443188 1_556
O37 O54 1.443188 1_555
O38 O53 1.681034 1_555
O38 O43 1.681034 1_555
O38 O47 1.681034 1_555
O39 O49 1.681030 1_555
O39 O51 1.681030 1_555
O39 O42 1.681049 1_555
O40 O46 1.681030 1_555
O40 O48 1.681030 1_555
O40 O50 1.681049 1_555
O41 O44 1.681030 1_555
O41 O52 1.681030 1_555
O41 O45 1.681049 1_555
