# generated using pymatgen
data_YbZnGa
_symmetry_space_group_name_H-M   'P 1'
_cell_length_a   5.57309846
_cell_length_b   5.57309846
_cell_length_c   6.99577633
_cell_angle_alpha   50.91838171
_cell_angle_beta   50.91838171
_cell_angle_gamma   45.50135770
_symmetry_Int_Tables_number   1
_chemical_formula_structural   YbZnGa
_chemical_formula_sum   'Yb2 Zn2 Ga2'
_cell_volume   113.11264067
_cell_formula_units_Z   2
loop_
 _symmetry_equiv_pos_site_id
 _symmetry_equiv_pos_as_xyz
  1  'x, y, z'
loop_
 _atom_site_type_symbol
 _atom_site_label
 _atom_site_symmetry_multiplicity
 _atom_site_fract_x
 _atom_site_fract_y
 _atom_site_fract_z
 _atom_site_occupancy
  Yb  Yb0  1  0.51838073  0.51838073  0.72988086  1
  Yb  Yb1  1  0.48161927  0.48161927  0.27011914  1
  Zn  Zn0  1  0.16510846  0.16510846  0.30682418  1
  Zn  Zn1  1  0.83489154  0.83489154  0.69317582  1
  Ga  Ga0  1  0.83341924  0.83341924  0.14601703  1
  Ga  Ga1  1  0.16658076  0.16658076  0.85398297  1
loop_
_geom_bond_atom_site_label_1
_geom_bond_atom_site_label_2
_geom_bond_distance
_geom_bond_site_symmetry_2
Yb0 Zn1 2.988387 1_455
Yb0 Zn1 2.988387 1_545
Yb0 Zn0 3.072151 1_556
Yb0 Zn1 3.083571 1_555
Yb0 Zn0 3.094531 1_565
Yb0 Zn0 3.094531 1_655
Yb1 Zn0 2.988387 1_565
Yb1 Zn0 2.988387 1_655
Yb1 Zn1 3.072151 1_554
Yb1 Zn0 3.083571 1_555
Yb1 Zn1 3.094531 1_545
Yb1 Zn1 3.094531 1_455
Zn0 Zn1 2.506649 1_445
Ga0 Zn0 2.498547 1_655
Ga0 Zn0 2.498547 1_565
Ga0 Ga1 2.517105 1_664
Ga0 Yb0 3.014282 1_555
Ga0 Yb0 3.027769 1_564
Ga0 Yb0 3.027769 1_654
Ga0 Yb1 3.086685 1_565
Ga0 Yb1 3.086685 1_655
Ga0 Yb1 3.088340 1_555
Ga1 Zn1 2.498547 1_455
Ga1 Zn1 2.498547 1_545
Ga1 Yb1 3.014282 1_555
Ga1 Yb1 3.027769 1_546
Ga1 Yb1 3.027769 1_456
Ga1 Yb0 3.086685 1_455
Ga1 Yb0 3.086685 1_545
Ga1 Yb0 3.088340 1_555
