# generated using pymatgen
data_Ba2ZnAu
_symmetry_space_group_name_H-M   'P 1'
_cell_length_a   13.14991142
_cell_length_b   13.14991142
_cell_length_c   13.14991142
_cell_angle_alpha   122.28889407
_cell_angle_beta   119.30897601
_cell_angle_gamma   88.64152943
_symmetry_Int_Tables_number   1
_chemical_formula_structural   Ba2ZnAu
_chemical_formula_sum   'Ba2 Zn1 Au1'
_cell_volume   1586.59581092
_cell_formula_units_Z   1
loop_
 _symmetry_equiv_pos_site_id
 _symmetry_equiv_pos_as_xyz
  1  'x, y, z'
loop_
 _atom_site_type_symbol
 _atom_site_label
 _atom_site_symmetry_multiplicity
 _atom_site_fract_x
 _atom_site_fract_y
 _atom_site_fract_z
 _atom_site_occupancy
  Ba  Ba0  1  0.00000000  0.25563800  0.25563800  1
  Ba  Ba1  1  0.00000000  0.74436200  0.74436200  1
  Zn  Zn0  1  0.00000000  0.00000000  0.00000000  1
  Au  Au0  1  0.00000000  0.50000000  0.50000000  1
loop_
_geom_bond_atom_site_label_1
_geom_bond_atom_site_label_2
_geom_bond_distance
_geom_bond_site_symmetry_2
Ba0 Zn0 3.244654 1_555
Ba1 Zn0 3.244654 1_566
Au0 Ba1 3.101534 1_555
Au0 Ba0 3.101534 1_555
