# generated using pymatgen
data_BaTbEuWO6
_symmetry_space_group_name_H-M   'P 1'
_cell_length_a   5.98374709
_cell_length_b   5.99328285
_cell_length_c   8.38064065
_cell_angle_alpha   89.94619836
_cell_angle_beta   90.24800531
_cell_angle_gamma   90.09288342
_symmetry_Int_Tables_number   1
_chemical_formula_structural   BaTbEuWO6
_chemical_formula_sum   'Ba2 Tb2 Eu2 W2 O12'
_cell_volume   300.54561442
_cell_formula_units_Z   2
loop_
 _symmetry_equiv_pos_site_id
 _symmetry_equiv_pos_as_xyz
  1  'x, y, z'
loop_
 _atom_site_type_symbol
 _atom_site_label
 _atom_site_symmetry_multiplicity
 _atom_site_fract_x
 _atom_site_fract_y
 _atom_site_fract_z
 _atom_site_occupancy
  Ba  Ba0  1  0.50656208  0.52199741  0.25134663  1
  Ba  Ba1  1  0.49343792  0.47800259  0.74865337  1
  Tb  Tb0  1  -0.00000000  0.50000000  -0.00000000  1
  Tb  Tb1  1  0.50000000  -0.00000000  0.50000000  1
  Eu  Eu0  1  0.99344169  0.03027290  0.25585871  1
  Eu  Eu1  1  0.00655831  0.96972710  0.74414129  1
  W  W0  1  0.50000000  -0.00000000  -0.00000000  1
  W  W1  1  -0.00000000  0.50000000  0.50000000  1
  O  O0  1  0.23265132  0.20486659  0.95975468  1
  O  O1  1  0.26234163  0.71288830  0.52897711  1
  O  O2  1  0.76734868  0.79513341  0.04024532  1
  O  O3  1  0.73765837  0.28711170  0.47102289  1
  O  O4  1  0.28764656  0.74332161  0.96194796  1
  O  O5  1  0.20019847  0.22602610  0.53879371  1
  O  O6  1  0.71235344  0.25667839  0.03805204  1
  O  O7  1  0.79980153  0.77397390  0.46120629  1
  O  O8  1  0.41953343  0.00440642  0.23352065  1
  O  O9  1  0.05640480  0.47436040  0.26864768  1
  O  O10  1  0.58046657  0.99559358  0.76647935  1
  O  O11  1  0.94359520  0.52563960  0.73135232  1
loop_
_geom_bond_atom_site_label_1
_geom_bond_atom_site_label_2
_geom_bond_distance
_geom_bond_site_symmetry_2
Ba0 O3 2.694941 1_555
Ba0 O6 2.696467 1_555
Ba0 O9 2.712743 1_555
Ba0 O2 2.873139 1_555
Ba0 O7 2.902134 1_555
Ba0 O8 2.942111 1_565
Ba0 O1 2.982938 1_555
Ba0 O4 3.054475 1_554
Ba0 O8 3.148222 1_555
Ba1 O1 2.694941 1_555
Ba1 O4 2.696467 1_555
Ba1 O11 2.712743 1_555
Ba1 O0 2.873139 1_555
Ba1 O5 2.902134 1_555
Ba1 O10 2.942111 1_545
Ba1 O3 2.982938 1_555
Ba1 O6 3.054475 1_556
Ba1 O10 3.148222 1_555
Eu0 O8 2.562252 1_655
Eu0 O7 2.582686 1_545
Eu0 O2 2.656861 1_545
Eu0 O9 2.689642 1_655
Eu0 O6 2.824590 1_555
Eu0 O3 2.828489 1_555
Eu0 O5 2.916269 1_655
Eu0 O0 3.053329 1_654
Eu1 O10 2.562252 1_455
Eu1 O5 2.582686 1_565
Eu1 O0 2.656861 1_565
Eu1 O11 2.689642 1_455
Eu1 O4 2.824590 1_555
Eu1 O1 2.828489 1_555
Eu1 O7 2.916269 1_455
Eu1 O2 3.053329 1_456
O0 W0 2.044852 1_556
O0 Tb0 2.278961 1_556
O1 W1 2.035168 1_555
O1 Tb1 2.244222 1_565
O2 W0 2.044852 1_565
O2 Tb0 2.278961 1_655
O3 W1 2.035168 1_655
O3 Tb1 2.244222 1_555
O4 W0 2.018386 1_566
O4 Tb0 2.277412 1_556
O5 W1 2.058866 1_555
O5 Tb1 2.274359 1_555
O6 W0 2.018386 1_555
O6 Tb0 2.277412 1_655
O7 W1 2.058866 1_655
O7 Tb1 2.274359 1_565
O8 W0 2.017643 1_555
O8 Tb1 2.282682 1_555
O9 W1 1.975646 1_555
O9 Tb0 2.280230 1_555
O10 W0 2.017643 1_566
O10 Tb1 2.282682 1_565
O11 W1 1.975646 1_655
O11 Tb0 2.280230 1_656
