# generated using pymatgen
data_MgSi2
_symmetry_space_group_name_H-M   'P 1'
_cell_length_a   11.89893882
_cell_length_b   11.89893882
_cell_length_c   5.32569960
_cell_angle_alpha   77.20395976
_cell_angle_beta   77.20395976
_cell_angle_gamma   17.45341763
_symmetry_Int_Tables_number   1
_chemical_formula_structural   MgSi2
_chemical_formula_sum   'Mg4 Si8'
_cell_volume   220.40800366
_cell_formula_units_Z   4
loop_
 _symmetry_equiv_pos_site_id
 _symmetry_equiv_pos_as_xyz
  1  'x, y, z'
loop_
 _atom_site_type_symbol
 _atom_site_label
 _atom_site_symmetry_multiplicity
 _atom_site_fract_x
 _atom_site_fract_y
 _atom_site_fract_z
 _atom_site_occupancy
  Mg  Mg0  1  0.06657200  0.06657200  0.73354500  1
  Mg  Mg1  1  0.68274300  0.68274300  0.38611300  1
  Mg  Mg2  1  0.32360600  0.32360600  0.99286600  1
  Mg  Mg3  1  0.50589900  0.50589900  0.29357000  1
  Si  Si0  1  0.74466400  0.74466400  0.84606400  1
  Si  Si1  1  0.63996500  0.63996500  0.93375300  1
  Si  Si2  1  0.91665800  0.91665800  0.64097000  1
  Si  Si3  1  0.91569000  0.91569000  0.14331000  1
  Si  Si4  1  0.10122100  0.10122100  0.20957300  1
  Si  Si5  1  0.26097000  0.26097000  0.55177900  1
  Si  Si6  1  0.36518400  0.36518400  0.43753500  1
  Si  Si7  1  0.47026300  0.47026300  0.83116100  1
loop_
_geom_bond_atom_site_label_1
_geom_bond_atom_site_label_2
_geom_bond_distance
_geom_bond_site_symmetry_2
Mg0 Si4 2.726171 1_555
Mg0 Si4 2.831502 1_556
Mg0 Si7 2.851979 1_545
Mg0 Si7 2.851979 1_455
Mg0 Si1 2.863808 1_455
Mg0 Si1 2.863808 1_545
Mg1 Si1 2.811198 1_554
Mg1 Si5 2.855015 1_565
Mg1 Si5 2.855015 1_655
Mg1 Si1 2.864203 1_555
Mg1 Si0 2.918265 1_554
Mg1 Si4 2.937398 1_565
Mg1 Si4 2.937398 1_655
Mg2 Si6 2.757303 1_556
Mg2 Si0 2.822969 1_455
Mg2 Si0 2.822969 1_545
Mg2 Si6 2.899516 1_555
Mg2 Si5 3.010901 1_556
Mg2 Si5 3.039749 1_555
Mg2 Si3 3.061145 1_456
Mg2 Si3 3.061145 1_546
Mg2 Si2 3.118327 1_455
Mg2 Si2 3.118327 1_545
Mg3 Si7 2.773521 1_554
Mg3 Si7 2.797171 1_555
Mg3 Si4 2.835008 1_655
Mg3 Si4 2.835008 1_565
Mg3 Si3 3.027070 1_545
Mg3 Si3 3.027070 1_455
Mg3 Si2 3.057485 1_545
Mg3 Si2 3.057485 1_455
Si0 Si5 2.365008 1_655
Si0 Si5 2.365008 1_565
Si0 Si1 2.401645 1_555
Si1 Si4 2.376465 1_566
Si1 Si4 2.376465 1_656
Si2 Si7 2.539183 1_655
Si2 Si7 2.539183 1_565
Si2 Si6 2.546946 1_565
Si2 Si6 2.546946 1_655
Si2 Si3 2.655582 1_555
Si2 Si3 2.670302 1_556
Si3 Si6 2.508321 1_655
Si3 Si6 2.508321 1_565
Si3 Si7 2.591198 1_564
Si3 Si7 2.591198 1_654
Si5 Si6 2.389759 1_555
