# generated using pymatgen
data_Mg30NbCuO32
_symmetry_space_group_name_H-M   'P 1'
_cell_length_a   8.56961200
_cell_length_b   8.56961200
_cell_length_c   8.56949400
_cell_angle_alpha   90.00000000
_cell_angle_beta   90.00000000
_cell_angle_gamma   90.00000000
_symmetry_Int_Tables_number   1
_chemical_formula_structural   Mg30NbCuO32
_chemical_formula_sum   'Mg30 Nb1 Cu1 O32'
_cell_volume   629.32864129
_cell_formula_units_Z   1
loop_
 _symmetry_equiv_pos_site_id
 _symmetry_equiv_pos_as_xyz
  1  'x, y, z'
loop_
 _atom_site_type_symbol
 _atom_site_label
 _atom_site_symmetry_multiplicity
 _atom_site_fract_x
 _atom_site_fract_y
 _atom_site_fract_z
 _atom_site_occupancy
  Mg  Mg0  1  0.50000000  0.00000000  0.00000000  1
  Mg  Mg1  1  0.50000000  0.00000000  0.50000000  1
  Mg  Mg2  1  0.00000000  0.50000000  0.00000000  1
  Mg  Mg3  1  0.00000000  0.50000000  0.50000000  1
  Mg  Mg4  1  0.50000000  0.50000000  0.00000000  1
  Mg  Mg5  1  0.50000000  0.50000000  0.50000000  1
  Mg  Mg6  1  0.25238900  0.00000000  0.24322900  1
  Mg  Mg7  1  0.25238900  0.00000000  0.75677100  1
  Mg  Mg8  1  0.74761100  0.00000000  0.24322900  1
  Mg  Mg9  1  0.74761100  0.00000000  0.75677100  1
  Mg  Mg10  1  0.25002000  0.50000000  0.24878100  1
  Mg  Mg11  1  0.25002000  0.50000000  0.75121900  1
  Mg  Mg12  1  0.74998000  0.50000000  0.24878100  1
  Mg  Mg13  1  0.74998000  0.50000000  0.75121900  1
  Mg  Mg14  1  0.00000000  0.25238900  0.24322900  1
  Mg  Mg15  1  0.00000000  0.25238900  0.75677100  1
  Mg  Mg16  1  0.50000000  0.25002000  0.24878100  1
  Mg  Mg17  1  0.50000000  0.25002000  0.75121900  1
  Mg  Mg18  1  0.00000000  0.74761100  0.24322900  1
  Mg  Mg19  1  0.00000000  0.74761100  0.75677100  1
  Mg  Mg20  1  0.50000000  0.74998000  0.24878100  1
  Mg  Mg21  1  0.50000000  0.74998000  0.75121900  1
  Mg  Mg22  1  0.24812600  0.24812600  0.00000000  1
  Mg  Mg23  1  0.25275700  0.25275700  0.50000000  1
  Mg  Mg24  1  0.75187400  0.24812600  0.00000000  1
  Mg  Mg25  1  0.74724300  0.25275700  0.50000000  1
  Mg  Mg26  1  0.24812600  0.75187400  0.00000000  1
  Mg  Mg27  1  0.25275700  0.74724300  0.50000000  1
  Mg  Mg28  1  0.75187400  0.75187400  0.00000000  1
  Mg  Mg29  1  0.74724300  0.74724300  0.50000000  1
  Nb  Nb0  1  0.00000000  0.00000000  0.50000000  1
  Cu  Cu0  1  0.00000000  0.00000000  0.00000000  1
  O  O0  1  0.00000000  0.26328700  0.00000000  1
  O  O1  1  0.00000000  0.25651000  0.50000000  1
  O  O2  1  0.50000000  0.25159900  0.00000000  1
  O  O3  1  0.50000000  0.25074600  0.50000000  1
  O  O4  1  0.00000000  0.73671300  0.00000000  1
  O  O5  1  0.00000000  0.74349000  0.50000000  1
  O  O6  1  0.50000000  0.74840100  0.00000000  1
  O  O7  1  0.50000000  0.74925400  0.50000000  1
  O  O8  1  0.24907400  0.24907400  0.25087500  1
  O  O9  1  0.24907400  0.24907400  0.74912500  1
  O  O10  1  0.75092600  0.24907400  0.25087500  1
  O  O11  1  0.75092600  0.24907400  0.74912500  1
  O  O12  1  0.24907400  0.75092600  0.25087500  1
  O  O13  1  0.24907400  0.75092600  0.74912500  1
  O  O14  1  0.75092600  0.75092600  0.25087500  1
  O  O15  1  0.75092600  0.75092600  0.74912500  1
  O  O16  1  0.00000000  0.00000000  0.25558700  1
  O  O17  1  0.00000000  0.00000000  0.74441300  1
  O  O18  1  0.50000000  0.00000000  0.25201600  1
  O  O19  1  0.50000000  0.00000000  0.74798400  1
  O  O20  1  0.00000000  0.50000000  0.25201600  1
  O  O21  1  0.00000000  0.50000000  0.74798400  1
  O  O22  1  0.50000000  0.50000000  0.25095900  1
  O  O23  1  0.50000000  0.50000000  0.74904100  1
  O  O24  1  0.26328700  0.00000000  0.00000000  1
  O  O25  1  0.25651000  0.00000000  0.50000000  1
  O  O26  1  0.73671300  0.00000000  0.00000000  1
  O  O27  1  0.74349000  0.00000000  0.50000000  1
  O  O28  1  0.25159900  0.50000000  0.00000000  1
  O  O29  1  0.25074600  0.50000000  0.50000000  1
  O  O30  1  0.74840100  0.50000000  0.00000000  1
  O  O31  1  0.74925400  0.50000000  0.50000000  1
loop_
_geom_bond_atom_site_label_1
_geom_bond_atom_site_label_2
_geom_bond_distance
_geom_bond_site_symmetry_2
Mg0 O26 2.028539 1_555
Mg0 O24 2.028539 1_555
Mg0 O6 2.156106 1_545
Mg0 O2 2.156106 1_555
Mg0 O18 2.159650 1_555
Mg0 O19 2.159650 1_554
Mg1 O25 2.086615 1_555
Mg1 O27 2.086615 1_555
Mg1 O18 2.125097 1_555
Mg1 O19 2.125097 1_555
Mg1 O7 2.148796 1_545
Mg1 O3 2.148796 1_555
Mg2 O4 2.028539 1_555
Mg2 O0 2.028539 1_555
Mg2 O30 2.156106 1_455
Mg2 O28 2.156106 1_555
Mg2 O21 2.159650 1_554
Mg2 O20 2.159650 1_555
Mg3 O5 2.086615 1_555
Mg3 O1 2.086615 1_555
Mg3 O20 2.125097 1_555
Mg3 O21 2.125097 1_555
Mg3 O29 2.148796 1_555
Mg3 O31 2.148796 1_455
Mg4 O30 2.128700 1_555
Mg4 O2 2.128700 1_555
Mg4 O28 2.128700 1_555
Mg4 O6 2.128700 1_555
Mg4 O22 2.150592 1_555
Mg4 O23 2.150592 1_554
Mg5 O23 2.134155 1_555
Mg5 O22 2.134155 1_555
Mg5 O7 2.136010 1_555
Mg5 O29 2.136010 1_555
Mg5 O31 2.136010 1_555
Mg5 O3 2.136010 1_555
Mg6 O24 2.086441 1_555
Mg6 O18 2.123266 1_555
Mg6 O12 2.135662 1_545
Mg6 O8 2.135662 1_555
Mg6 O16 2.165467 1_555
Mg6 O25 2.200681 1_555
Mg7 O24 2.086441 1_556
Mg7 O19 2.123266 1_555
Mg7 O9 2.135662 1_555
Mg7 O13 2.135662 1_545
Mg7 O17 2.165467 1_555
Mg7 O25 2.200681 1_555
Mg8 O26 2.086441 1_555
Mg8 O18 2.123266 1_555
Mg8 O14 2.135662 1_545
Mg8 O10 2.135662 1_555
Mg8 O16 2.165467 1_655
Mg8 O27 2.200681 1_555
Mg9 O26 2.086441 1_556
Mg9 O19 2.123266 1_555
Mg9 O15 2.135662 1_545
Mg9 O11 2.135662 1_555
Mg9 O17 2.165467 1_655
Mg9 O27 2.200681 1_555
Mg10 O28 2.131970 1_555
Mg10 O22 2.142313 1_555
Mg10 O20 2.142754 1_555
Mg10 O8 2.150429 1_555
Mg10 O12 2.150429 1_555
Mg10 O29 2.152829 1_555
Mg11 O28 2.131970 1_556
Mg11 O23 2.142313 1_555
Mg11 O21 2.142754 1_555
Mg11 O9 2.150429 1_555
Mg11 O13 2.150429 1_555
Mg11 O29 2.152829 1_555
Mg12 O30 2.131970 1_555
Mg12 O22 2.142313 1_555
Mg12 O20 2.142754 1_655
Mg12 O14 2.150429 1_555
Mg12 O10 2.150429 1_555
Mg12 O31 2.152829 1_555
Mg13 O30 2.131970 1_556
Mg13 O23 2.142313 1_555
Mg13 O21 2.142754 1_655
Mg13 O11 2.150429 1_555
Mg13 O15 2.150429 1_555
Mg13 O31 2.152829 1_555
Mg14 O0 2.086441 1_555
Mg14 O20 2.123266 1_555
Mg14 O10 2.135662 1_455
Mg14 O8 2.135662 1_555
Mg14 O16 2.165467 1_555
Mg14 O1 2.200681 1_555
Mg15 O0 2.086441 1_556
Mg15 O21 2.123266 1_555
Mg15 O9 2.135662 1_555
Mg15 O11 2.135662 1_455
Mg15 O17 2.165467 1_555
Mg15 O1 2.200681 1_555
Mg16 O2 2.131970 1_555
Mg16 O22 2.142313 1_555
Mg16 O18 2.142754 1_555
Mg16 O8 2.150429 1_555
Mg16 O10 2.150429 1_555
Mg16 O3 2.152829 1_555
Mg17 O2 2.131970 1_556
Mg17 O23 2.142313 1_555
Mg17 O19 2.142754 1_555
Mg17 O11 2.150429 1_555
Mg17 O9 2.150429 1_555
Mg17 O3 2.152829 1_555
Mg18 O4 2.086441 1_555
Mg18 O20 2.123266 1_555
Mg18 O14 2.135662 1_455
Mg18 O12 2.135662 1_555
Mg18 O16 2.165467 1_565
Mg18 O5 2.200681 1_555
Mg19 O4 2.086441 1_556
Mg19 O21 2.123266 1_555
Mg19 O13 2.135662 1_555
Mg19 O15 2.135662 1_455
Mg19 O17 2.165467 1_565
Mg19 O5 2.200681 1_555
Mg20 O6 2.131970 1_555
Mg20 O22 2.142313 1_555
Mg20 O18 2.142754 1_565
Mg20 O14 2.150429 1_555
Mg20 O12 2.150429 1_555
Mg20 O7 2.152829 1_555
Mg21 O6 2.131970 1_556
Mg21 O23 2.142313 1_555
Mg21 O19 2.142754 1_565
Mg21 O15 2.150429 1_555
Mg21 O13 2.150429 1_555
Mg21 O7 2.152829 1_555
Mg22 O24 2.130309 1_555
Mg22 O0 2.130309 1_555
Mg22 O9 2.149903 1_554
Mg22 O8 2.149903 1_555
Mg22 O2 2.158668 1_555
Mg22 O28 2.158668 1_555
Mg23 O3 2.118847 1_555
Mg23 O29 2.118847 1_555
Mg23 O8 2.135342 1_555
Mg23 O9 2.135342 1_555
Mg23 O1 2.166268 1_555
Mg23 O25 2.166268 1_555
Mg24 O0 2.130309 1_655
Mg24 O26 2.130309 1_555
Mg24 O11 2.149903 1_554
Mg24 O10 2.149903 1_555
Mg24 O30 2.158668 1_555
Mg24 O2 2.158668 1_555
Mg25 O31 2.118847 1_555
Mg25 O3 2.118847 1_555
Mg25 O10 2.135342 1_555
Mg25 O11 2.135342 1_555
Mg25 O1 2.166268 1_655
Mg25 O27 2.166268 1_555
Mg26 O24 2.130309 1_565
Mg26 O4 2.130309 1_555
Mg26 O13 2.149903 1_554
Mg26 O12 2.149903 1_555
Mg26 O6 2.158668 1_555
Mg26 O28 2.158668 1_555
Mg27 O7 2.118847 1_555
Mg27 O29 2.118847 1_555
Mg27 O12 2.135342 1_555
Mg27 O13 2.135342 1_555
Mg27 O5 2.166268 1_555
Mg27 O25 2.166268 1_565
Mg28 O26 2.130309 1_565
Mg28 O4 2.130309 1_655
Mg28 O15 2.149903 1_554
Mg28 O14 2.149903 1_555
Mg28 O30 2.158668 1_555
Mg28 O6 2.158668 1_555
Mg29 O31 2.118847 1_555
Mg29 O7 2.118847 1_555
Mg29 O14 2.135342 1_555
Mg29 O15 2.135342 1_555
Mg29 O5 2.166268 1_655
Mg29 O27 2.166268 1_565
Nb0 O16 2.094496 1_555
Nb0 O17 2.094496 1_555
Nb0 O5 2.198191 1_545
Nb0 O1 2.198191 1_555
Nb0 O27 2.198191 1_455
Nb0 O25 2.198191 1_555
Cu0 O17 2.190251 1_554
Cu0 O16 2.190251 1_555
Cu0 O0 2.256267 1_555
Cu0 O24 2.256267 1_555
Cu0 O4 2.256267 1_545
Cu0 O26 2.256267 1_455
