# generated using pymatgen
data_LiMn2Fe2(PO4)4
_symmetry_space_group_name_H-M   'P 1'
_cell_length_a   10.18700070
_cell_length_b   5.91360956
_cell_length_c   4.94073629
_cell_angle_alpha   90.03452027
_cell_angle_beta   90.02060356
_cell_angle_gamma   89.96410701
_symmetry_Int_Tables_number   1
_chemical_formula_structural   LiMn2Fe2(PO4)4
_chemical_formula_sum   'Li1 Mn2 Fe2 P4 O16'
_cell_volume   297.63943068
_cell_formula_units_Z   1
loop_
 _symmetry_equiv_pos_site_id
 _symmetry_equiv_pos_as_xyz
  1  'x, y, z'
loop_
 _atom_site_type_symbol
 _atom_site_label
 _atom_site_symmetry_multiplicity
 _atom_site_fract_x
 _atom_site_fract_y
 _atom_site_fract_z
 _atom_site_occupancy
  Li  Li0  1  0.05205800  0.75008900  0.07357500  1
  Mn  Mn0  1  0.23518400  0.74935900  0.48512400  1
  Mn  Mn1  1  0.28576800  0.24913100  0.94300800  1
  Fe  Fe0  1  0.72118600  0.74997500  0.03628000  1
  Fe  Fe1  1  0.77243700  0.25000100  0.53394700  1
  P  P0  1  0.09463000  0.24974100  0.40173700  1
  P  P1  1  0.41153300  0.75006800  0.92093400  1
  P  P2  1  0.59902100  0.24998900  0.08416100  1
  P  P3  1  0.89752600  0.74995800  0.59215400  1
  O  O0  1  0.04093800  0.74983000  0.67914600  1
  O  O1  1  0.12779100  0.25058100  0.70433600  1
  O  O2  1  0.15547500  0.03778400  0.25381300  1
  O  O3  1  0.15589100  0.46108900  0.25292000  1
  O  O4  1  0.33836500  0.55049600  0.77153700  1
  O  O5  1  0.33718300  0.95033500  0.77195300  1
  O  O6  1  0.39130200  0.75049700  0.22172200  1
  O  O7  1  0.45352700  0.24975800  0.15388600  1
  O  O8  1  0.55818700  0.75079900  0.84522500  1
  O  O9  1  0.62281600  0.25008300  0.77900300  1
  O  O10  1  0.67425100  0.04779600  0.22914300  1
  O  O11  1  0.67402500  0.45237900  0.22918000  1
  O  O12  1  0.82128500  0.54849000  0.73026700  1
  O  O13  1  0.82133600  0.95168800  0.73029400  1
  O  O14  1  0.88309800  0.74987500  0.28077100  1
  O  O15  1  0.94393800  0.25021400  0.36457900  1
loop_
_geom_bond_atom_site_label_1
_geom_bond_atom_site_label_2
_geom_bond_distance
_geom_bond_site_symmetry_2
Li0 O0 1.952018 1_554
Li0 O14 2.002936 1_455
Li0 O2 2.190230 1_565
Li0 O3 2.196287 1_555
Mn0 O6 2.055356 1_555
Mn0 O4 2.118882 1_555
Mn0 O5 2.121069 1_555
Mn0 O0 2.199064 1_555
Mn0 O3 2.207586 1_555
Mn0 O2 2.207842 1_565
Mn1 O1 1.994777 1_555
Mn1 O7 2.001206 1_556
Mn1 O5 2.026846 1_545
Mn1 O4 2.045542 1_555
Mn1 O3 2.379749 1_556
Mn1 O2 2.384892 1_556
Fe0 O8 1.909739 1_554
Fe0 O14 2.044079 1_555
Fe0 O10 2.058072 1_565
Fe0 O11 2.059051 1_555
Fe0 O12 2.177805 1_554
Fe0 O13 2.180389 1_554
Fe1 O15 1.937418 1_555
Fe1 O9 1.946898 1_555
Fe1 O13 2.074106 1_545
Fe1 O12 2.074341 1_555
Fe1 O10 2.167126 1_555
Fe1 O11 2.168936 1_555
O0 P3 1.522702 1_455
O1 P0 1.532639 1_555
O2 P0 1.577235 1_555
O3 P0 1.579418 1_555
O4 P1 1.578895 1_555
O5 P1 1.586683 1_555
O6 P1 1.500410 1_554
O7 P2 1.521778 1_555
O8 P1 1.540221 1_555
O9 P2 1.527153 1_556
O10 P2 1.590470 1_555
O11 P2 1.590393 1_555
O12 P3 1.578232 1_555
O13 P3 1.577848 1_555
O14 P3 1.545413 1_555
O15 P0 1.545974 1_655
