# generated using pymatgen
data_Sr5(CrN3)2
_symmetry_space_group_name_H-M   'P 1'
_cell_length_a   6.11570380
_cell_length_b   6.60973730
_cell_length_c   13.62294287
_cell_angle_alpha   90.00000235
_cell_angle_beta   99.69243935
_cell_angle_gamma   122.71022338
_symmetry_Int_Tables_number   1
_chemical_formula_structural   Sr5(CrN3)2
_chemical_formula_sum   'Sr10 Cr4 N12'
_cell_volume   453.98227501
_cell_formula_units_Z   2
loop_
 _symmetry_equiv_pos_site_id
 _symmetry_equiv_pos_as_xyz
  1  'x, y, z'
loop_
 _atom_site_type_symbol
 _atom_site_label
 _atom_site_symmetry_multiplicity
 _atom_site_fract_x
 _atom_site_fract_y
 _atom_site_fract_z
 _atom_site_occupancy
  Sr  Sr0  1  0.13873524  0.80680348  0.99483162  1
  Sr  Sr1  1  0.86126476  0.66806823  0.50516838  1
  Sr  Sr2  1  0.86126476  0.19319652  0.00516838  1
  Sr  Sr3  1  0.13873524  0.33193177  0.49483162  1
  Sr  Sr4  1  0.31441732  0.07322388  0.71858477  1
  Sr  Sr5  1  0.68558268  0.75880656  0.78141523  1
  Sr  Sr6  1  0.68558268  0.92677612  0.28141523  1
  Sr  Sr7  1  0.31441732  0.24119344  0.21858477  1
  Sr  Sr8  1  0.00000000  0.39195675  0.75000000  1
  Sr  Sr9  1  1.00000000  0.60804325  0.25000000  1
  Cr  Cr0  1  0.55056212  0.91449451  0.57170298  1
  Cr  Cr1  1  0.44943788  0.36393239  0.92829702  1
  Cr  Cr2  1  0.44943788  0.08550549  0.42829702  1
  Cr  Cr3  1  0.55056212  0.63606761  0.07170298  1
  N  N0  1  0.87496821  0.99516060  0.62611214  1
  N  N1  1  0.12503179  0.12019239  0.87388786  1
  N  N2  1  0.12503179  0.00483940  0.37388786  1
  N  N3  1  0.87496821  0.87980761  0.12611214  1
  N  N4  1  0.30509135  0.69938858  0.63825249  1
  N  N5  1  0.69490865  0.39429723  0.86174751  1
  N  N6  1  0.69490865  0.30061142  0.36174751  1
  N  N7  1  0.30509135  0.60570277  0.13825249  1
  N  N8  1  0.54693374  0.20142082  0.56416493  1
  N  N9  1  0.45306626  0.65448808  0.93583507  1
  N  N10  1  0.45306626  0.79857918  0.43583507  1
  N  N11  1  0.54693374  0.34551192  0.06416493  1
loop_
_geom_bond_atom_site_label_1
_geom_bond_atom_site_label_2
_geom_bond_distance
_geom_bond_site_symmetry_2
Cr0 N0 1.769574 1_555
Cr0 N4 1.802366 1_555
Cr0 N10 1.871657 1_555
Cr0 N8 1.911150 1_565
Cr1 N1 1.769575 1_555
Cr1 N5 1.802366 1_555
Cr1 N11 1.871658 1_556
Cr1 N9 1.911157 1_555
Cr2 N2 1.769574 1_555
Cr2 N6 1.802366 1_555
Cr2 N8 1.871657 1_555
Cr2 N10 1.911150 1_545
Cr3 N3 1.769575 1_555
Cr3 N7 1.802366 1_555
Cr3 N9 1.871658 1_554
Cr3 N11 1.911157 1_555
N0 Sr4 2.537192 1_665
N0 Sr5 2.669778 1_555
N0 Sr1 2.674611 1_555
N0 Sr8 2.776637 1_665
N0 Sr3 2.801100 1_665
N1 Sr5 2.537192 1_445
N1 Sr4 2.669778 1_555
N1 Sr0 2.674611 1_545
N1 Sr8 2.776637 1_555
N1 Sr2 2.801100 1_456
N2 Sr6 2.537192 1_445
N2 Sr7 2.669778 1_555
N2 Sr3 2.674611 1_555
N2 Sr9 2.776637 1_445
N2 Sr1 2.801100 1_445
N3 Sr7 2.537192 1_665
N3 Sr6 2.669778 1_555
N3 Sr2 2.674611 1_565
N3 Sr9 2.776637 1_555
N3 Sr0 2.801100 1_654
N4 Sr8 2.605138 1_555
N4 Sr5 2.618561 1_555
N4 Sr4 2.670797 1_565
N4 Sr3 2.722416 1_555
N4 Sr1 2.903962 1_455
N5 Sr8 2.605138 1_655
N5 Sr4 2.618562 1_555
N5 Sr5 2.670797 1_555
N5 Sr2 2.722416 1_556
N5 Sr0 2.903962 1_655
N6 Sr9 2.605138 1_555
N6 Sr7 2.618561 1_555
N6 Sr6 2.670797 1_545
N6 Sr1 2.722416 1_555
N6 Sr3 2.903962 1_655
N7 Sr9 2.605138 1_455
N7 Sr6 2.618562 1_555
N7 Sr7 2.670797 1_555
N7 Sr0 2.722416 1_554
N7 Sr2 2.903962 1_455
N8 Sr4 2.621152 1_555
N8 Sr1 2.822575 1_555
N8 Sr3 3.066255 1_555
N8 Sr8 3.088560 1_655
N9 Sr5 2.621152 1_555
N9 Sr0 2.822570 1_555
N9 Sr2 3.066251 1_566
N9 Sr8 3.088561 1_555
N10 Sr6 2.621152 1_555
N10 Sr3 2.822575 1_555
N10 Sr1 3.066255 1_555
N10 Sr9 3.088560 1_455
N11 Sr7 2.621152 1_555
N11 Sr2 2.822570 1_555
N11 Sr0 3.066251 1_544
N11 Sr9 3.088561 1_555
