# generated using pymatgen
data_AlCu3(NiO3)4
_symmetry_space_group_name_H-M   'P 1'
_cell_length_a   6.19183010
_cell_length_b   6.19183010
_cell_length_c   7.16722214
_cell_angle_alpha   55.12695883
_cell_angle_beta   55.12695883
_cell_angle_gamma   70.94679106
_symmetry_Int_Tables_number   1
_chemical_formula_structural   AlCu3(NiO3)4
_chemical_formula_sum   'Al1 Cu3 Ni4 O12'
_cell_volume   184.95341397
_cell_formula_units_Z   1
loop_
 _symmetry_equiv_pos_site_id
 _symmetry_equiv_pos_as_xyz
  1  'x, y, z'
loop_
 _atom_site_type_symbol
 _atom_site_label
 _atom_site_symmetry_multiplicity
 _atom_site_fract_x
 _atom_site_fract_y
 _atom_site_fract_z
 _atom_site_occupancy
  Al  Al0  1  0.00000000  0.00000000  0.50000000  1
  Cu  Cu0  1  0.00000000  0.00000000  0.00000000  1
  Cu  Cu1  1  0.50000000  0.50000000  0.50000000  1
  Cu  Cu2  1  0.50000000  0.50000000  0.00000000  1
  Ni  Ni0  1  0.00000000  0.50000000  0.00000000  1
  Ni  Ni1  1  0.00000000  0.50000000  0.50000000  1
  Ni  Ni2  1  0.50000000  0.00000000  0.00000000  1
  Ni  Ni3  1  0.50000000  0.00000000  0.50000000  1
  O  O0  1  0.69038000  0.69038000  0.98442400  1
  O  O1  1  0.30962000  0.30962000  0.01557600  1
  O  O2  1  0.29156100  0.29156100  0.36576000  1
  O  O3  1  0.53254600  0.13539500  0.66335200  1
  O  O4  1  0.83289200  0.16336100  0.20211000  1
  O  O5  1  0.16336100  0.83289200  0.20211000  1
  O  O6  1  0.13539500  0.53254600  0.66335200  1
  O  O7  1  0.16710800  0.83663900  0.79789000  1
  O  O8  1  0.70843900  0.70843900  0.63424000  1
  O  O9  1  0.46745400  0.86460500  0.33664800  1
  O  O10  1  0.83663900  0.16710800  0.79789000  1
  O  O11  1  0.86460500  0.46745400  0.33664800  1
loop_
_geom_bond_atom_site_label_1
_geom_bond_atom_site_label_2
_geom_bond_distance
_geom_bond_site_symmetry_2
Al0 O8 2.366284 1_445
Al0 O2 2.366284 1_555
Al0 O4 2.454687 1_455
Al0 O5 2.454687 1_545
Al0 O7 2.454687 1_545
Al0 O10 2.454687 1_455
Al0 O3 2.472684 1_455
Al0 O11 2.472684 1_455
Al0 O9 2.472684 1_545
Al0 O6 2.472684 1_545
Al0 O1 2.565526 1_555
Al0 O0 2.565526 1_445
Cu0 O10 1.862887 1_454
Cu0 O7 1.862887 1_544
Cu0 O5 1.862887 1_545
Cu0 O4 1.862887 1_455
Cu1 O11 1.859644 1_555
Cu1 O9 1.859644 1_555
Cu1 O3 1.859644 1_555
Cu1 O6 1.859644 1_555
Cu2 O0 1.843333 1_554
Cu2 O1 1.843333 1_555
Cu2 O8 1.885011 1_554
Cu2 O2 1.885011 1_555
Ni0 O0 1.922536 1_454
Ni0 O1 1.922536 1_555
Ni0 O4 1.937821 1_455
Ni0 O7 1.937821 1_554
Ni0 O6 1.950994 1_554
Ni0 O11 1.950994 1_455
Ni1 O6 1.901745 1_555
Ni1 O11 1.901745 1_455
Ni1 O5 1.920793 1_555
Ni1 O10 1.920793 1_455
Ni1 O2 1.939851 1_555
Ni1 O8 1.939851 1_455
Ni2 O0 1.922536 1_544
Ni2 O1 1.922536 1_555
Ni2 O5 1.937821 1_545
Ni2 O10 1.937821 1_554
Ni2 O3 1.950994 1_554
Ni2 O9 1.950994 1_545
Ni3 O3 1.901745 1_555
Ni3 O9 1.901745 1_545
Ni3 O4 1.920793 1_555
Ni3 O7 1.920793 1_545
Ni3 O2 1.939851 1_555
Ni3 O8 1.939851 1_545
