# generated using pymatgen
data_TlBiSe2
_symmetry_space_group_name_H-M   'P 1'
_cell_length_a   4.37236300
_cell_length_b   4.37236300
_cell_length_c   43.20052200
_cell_angle_alpha   90.00000000
_cell_angle_beta   90.00000000
_cell_angle_gamma   90.00000000
_symmetry_Int_Tables_number   1
_chemical_formula_structural   TlBiSe2
_chemical_formula_sum   'Tl7 Bi7 Se14'
_cell_volume   825.88849377
_cell_formula_units_Z   7
loop_
 _symmetry_equiv_pos_site_id
 _symmetry_equiv_pos_as_xyz
  1  'x, y, z'
loop_
 _atom_site_type_symbol
 _atom_site_label
 _atom_site_symmetry_multiplicity
 _atom_site_fract_x
 _atom_site_fract_y
 _atom_site_fract_z
 _atom_site_occupancy
  Tl  Tl0  1  0.50000000  0.50000000  0.79044100  1
  Tl  Tl1  1  0.00000000  0.00000000  0.86010200  1
  Tl  Tl2  1  0.50000000  0.50000000  0.92889400  1
  Tl  Tl3  1  0.00000000  0.00000000  0.00000000  1
  Tl  Tl4  1  0.50000000  0.50000000  0.07110600  1
  Tl  Tl5  1  0.00000000  0.00000000  0.13989800  1
  Tl  Tl6  1  0.50000000  0.50000000  0.20955900  1
  Bi  Bi0  1  0.00000000  0.00000000  0.28016100  1
  Bi  Bi1  1  0.50000000  0.50000000  0.35593900  1
  Bi  Bi2  1  0.00000000  0.00000000  0.42761100  1
  Bi  Bi3  1  0.50000000  0.50000000  0.50000000  1
  Bi  Bi4  1  0.00000000  0.00000000  0.57238900  1
  Bi  Bi5  1  0.50000000  0.50000000  0.64406100  1
  Bi  Bi6  1  0.00000000  0.00000000  0.71983900  1
  Se  Se0  1  0.00000000  0.00000000  0.36082700  1
  Se  Se1  1  0.50000000  0.50000000  0.43005200  1
  Se  Se2  1  0.00000000  0.00000000  0.50000000  1
  Se  Se3  1  0.50000000  0.50000000  0.56994800  1
  Se  Se4  1  0.00000000  0.00000000  0.63917300  1
  Se  Se5  1  0.50000000  0.50000000  0.70979200  1
  Se  Se6  1  0.00000000  0.00000000  0.78049200  1
  Se  Se7  1  0.50000000  0.50000000  0.85696400  1
  Se  Se8  1  0.00000000  0.00000000  0.92735100  1
  Se  Se9  1  0.50000000  0.50000000  0.00000000  1
  Se  Se10  1  0.00000000  0.00000000  0.07264900  1
  Se  Se11  1  0.50000000  0.50000000  0.14303600  1
  Se  Se12  1  0.00000000  0.00000000  0.21950800  1
  Se  Se13  1  0.50000000  0.50000000  0.29020800  1
loop_
_geom_bond_atom_site_label_1
_geom_bond_atom_site_label_2
_geom_bond_distance
_geom_bond_site_symmetry_2
Bi0 Se12 2.620241 1_555
Bi0 Se13 3.122045 1_455
Bi0 Se13 3.122045 1_445
Bi0 Se13 3.122045 1_545
Bi0 Se13 3.122045 1_555
Bi1 Se13 2.839614 1_555
Bi1 Se0 3.098930 1_655
Bi1 Se0 3.098930 1_565
Bi1 Se0 3.098930 1_555
Bi1 Se0 3.098930 1_665
Bi1 Se1 3.201720 1_555
Bi2 Se0 2.885104 1_555
Bi2 Se1 3.093525 1_555
Bi2 Se1 3.093525 1_455
Bi2 Se1 3.093525 1_545
Bi2 Se1 3.093525 1_445
Bi2 Se2 3.127243 1_555
Bi3 Se3 3.021790 1_555
Bi3 Se1 3.021790 1_555
Bi3 Se2 3.091728 1_655
Bi3 Se2 3.091728 1_565
Bi3 Se2 3.091728 1_665
Bi3 Se2 3.091728 1_555
Bi4 Se4 2.885104 1_555
Bi4 Se3 3.093525 1_445
Bi4 Se3 3.093525 1_555
Bi4 Se3 3.093525 1_455
Bi4 Se3 3.093525 1_545
Bi4 Se2 3.127243 1_555
Bi5 Se5 2.839614 1_555
Bi5 Se4 3.098930 1_555
Bi5 Se4 3.098930 1_655
Bi5 Se4 3.098930 1_665
Bi5 Se4 3.098930 1_565
Bi5 Se3 3.201720 1_555
Bi6 Se6 2.620241 1_555
Bi6 Se5 3.122045 1_445
Bi6 Se5 3.122045 1_555
Bi6 Se5 3.122045 1_545
Bi6 Se5 3.122045 1_455
Se6 Tl0 3.121459 1_445
Se6 Tl0 3.121459 1_555
Se6 Tl0 3.121459 1_545
Se6 Tl0 3.121459 1_455
Se7 Tl0 2.873828 1_555
Se7 Tl1 3.094698 1_555
Se7 Tl1 3.094698 1_565
Se7 Tl1 3.094698 1_655
Se7 Tl1 3.094698 1_665
Se7 Tl2 3.107414 1_555
Se8 Tl1 2.905192 1_555
Se8 Tl2 3.092446 1_455
Se8 Tl2 3.092446 1_545
Se8 Tl2 3.092446 1_555
Se8 Tl2 3.092446 1_445
Se8 Tl3 3.138475 1_556
Se9 Tl2 3.071816 1_554
Se9 Tl4 3.071816 1_555
Se9 Tl3 3.091728 1_555
Se9 Tl3 3.091728 1_565
Se9 Tl3 3.091728 1_655
Se9 Tl3 3.091728 1_665
Se10 Tl5 2.905192 1_555
Se10 Tl4 3.092446 1_545
Se10 Tl4 3.092446 1_555
Se10 Tl4 3.092446 1_455
Se10 Tl4 3.092446 1_445
Se10 Tl3 3.138475 1_555
Se11 Tl6 2.873828 1_555
Se11 Tl5 3.094698 1_555
Se11 Tl5 3.094698 1_655
Se11 Tl5 3.094698 1_565
Se11 Tl5 3.094698 1_665
Se11 Tl4 3.107414 1_555
Se12 Tl6 3.121459 1_445
Se12 Tl6 3.121459 1_455
Se12 Tl6 3.121459 1_555
Se12 Tl6 3.121459 1_545
