# generated using pymatgen
data_CsEuSiS4
_symmetry_space_group_name_H-M   'P 1'
_cell_length_a   6.55888637
_cell_length_b   6.85805781
_cell_length_c   17.79744618
_cell_angle_alpha   90.00000000
_cell_angle_beta   90.00000000
_cell_angle_gamma   90.00000000
_symmetry_Int_Tables_number   1
_chemical_formula_structural   CsEuSiS4
_chemical_formula_sum   'Cs4 Eu4 Si4 S16'
_cell_volume   800.55087578
_cell_formula_units_Z   4
loop_
 _symmetry_equiv_pos_site_id
 _symmetry_equiv_pos_as_xyz
  1  'x, y, z'
loop_
 _atom_site_type_symbol
 _atom_site_label
 _atom_site_symmetry_multiplicity
 _atom_site_fract_x
 _atom_site_fract_y
 _atom_site_fract_z
 _atom_site_occupancy
  Cs  Cs0  1  0.48895840  0.49242959  0.96699665  1
  Cs  Cs1  1  0.01104160  0.50757041  0.46699665  1
  Cs  Cs2  1  0.98895840  0.00757041  0.03300335  1
  Cs  Cs3  1  0.51104160  0.99242959  0.53300335  1
  Eu  Eu0  1  0.28784423  0.46786878  0.22525226  1
  Eu  Eu1  1  0.21215577  0.53213122  0.72525226  1
  Eu  Eu2  1  0.78784423  0.03213122  0.77474774  1
  Eu  Eu3  1  0.71215577  0.96786878  0.27474774  1
  Si  Si0  1  0.78484122  0.51839463  0.16535853  1
  Si  Si1  1  0.71515878  0.48160537  0.66535853  1
  Si  Si2  1  0.28484122  0.98160537  0.83464147  1
  Si  Si3  1  0.21515878  0.01839463  0.33464147  1
  S  S0  1  0.03891503  0.51520602  0.09321263  1
  S  S1  1  0.46108497  0.48479398  0.59321263  1
  S  S2  1  0.53891503  0.98479398  0.90678737  1
  S  S3  1  0.96108497  0.01520602  0.40678737  1
  S  S4  1  0.61067048  0.42873392  0.77648031  1
  S  S5  1  0.88932952  0.57126608  0.27648031  1
  S  S6  1  0.11067048  0.07126608  0.22351969  1
  S  S7  1  0.38932952  0.92873392  0.72351969  1
  S  S8  1  0.56988086  0.74345518  0.14418183  1
  S  S9  1  0.93011914  0.25654482  0.64418183  1
  S  S10  1  0.06988086  0.75654482  0.85581817  1
  S  S11  1  0.43011914  0.24345518  0.35581817  1
  S  S12  1  0.61531573  0.25545550  0.15532122  1
  S  S13  1  0.88468427  0.74454450  0.65532122  1
  S  S14  1  0.11531573  0.24454450  0.84467878  1
  S  S15  1  0.38468427  0.75545550  0.34467878  1
loop_
_geom_bond_atom_site_label_1
_geom_bond_atom_site_label_2
_geom_bond_distance
_geom_bond_site_symmetry_2
Cs0 S4 3.510694 1_555
Cs0 S2 3.557736 1_555
Cs0 S8 3.631755 1_556
Cs0 S2 3.657285 1_545
Cs0 S14 3.692555 1_555
Cs0 S0 3.712598 1_556
Cs0 S12 3.816010 1_556
Cs0 S10 3.840749 1_555
Cs1 S5 3.510694 1_455
Cs1 S3 3.557736 1_455
Cs1 S9 3.631755 1_455
Cs1 S3 3.657285 1_465
Cs1 S15 3.692555 1_555
Cs1 S1 3.712598 1_555
Cs1 S13 3.816010 1_455
Cs1 S11 3.840749 1_555
Cs2 S6 3.510694 1_655
Cs2 S0 3.557736 1_645
Cs2 S10 3.631755 1_644
Cs2 S0 3.657285 1_655
Cs2 S12 3.692555 1_555
Cs2 S2 3.712598 1_544
Cs2 S14 3.816010 1_654
Cs2 S8 3.840749 1_545
Cs3 S7 3.510694 1_555
Cs3 S1 3.557736 1_565
Cs3 S11 3.631755 1_565
Cs3 S1 3.657285 1_555
Cs3 S13 3.692555 1_555
Cs3 S3 3.712598 1_565
Cs3 S15 3.816010 1_555
Cs3 S9 3.840749 1_565
Eu0 S5 2.857638 1_455
Eu0 S12 2.878257 1_555
Eu0 S0 2.879834 1_555
Eu0 S11 2.939254 1_555
Eu0 S6 2.957926 1_555
Eu0 S15 2.968340 1_555
Eu0 S8 3.012605 1_555
Eu1 S4 2.857638 1_555
Eu1 S13 2.878257 1_455
Eu1 S1 2.879834 1_555
Eu1 S10 2.939254 1_555
Eu1 S7 2.957926 1_555
Eu1 S14 2.968340 1_555
Eu1 S9 3.012605 1_455
Eu2 S7 2.857638 1_545
Eu2 S14 2.878257 1_655
Eu2 S2 2.879834 1_545
Eu2 S9 2.939254 1_555
Eu2 S4 2.957926 1_555
Eu2 S13 2.968340 1_545
Eu2 S10 3.012605 1_645
Eu3 S6 2.857638 1_665
Eu3 S15 2.878257 1_555
Eu3 S3 2.879834 1_565
Eu3 S8 2.939254 1_555
Eu3 S5 2.957926 1_555
Eu3 S12 2.968340 1_565
Eu3 S11 3.012605 1_565
S0 Si0 2.103852 1_455
S1 Si1 2.103852 1_555
S2 Si2 2.103852 1_555
S3 Si3 2.103852 1_655
S4 Si1 2.124237 1_555
S5 Si0 2.124237 1_555
S6 Si3 2.124237 1_555
S7 Si2 2.124237 1_555
S8 Si0 2.124192 1_555
S9 Si1 2.124192 1_555
S10 Si2 2.124192 1_555
S11 Si3 2.124192 1_555
S12 Si0 2.126017 1_555
S13 Si1 2.126017 1_555
S14 Si2 2.126017 1_545
S15 Si3 2.126017 1_565
