# generated using pymatgen
data_H6N4O9
_symmetry_space_group_name_H-M   'P 1'
_cell_length_a   4.57028500
_cell_length_b   6.10595900
_cell_length_c   16.03075100
_cell_angle_alpha   90.00000000
_cell_angle_beta   90.00000000
_cell_angle_gamma   90.00000000
_symmetry_Int_Tables_number   1
_chemical_formula_structural   H6N4O9
_chemical_formula_sum   'H12 N8 O18'
_cell_volume   447.35370182
_cell_formula_units_Z   2
loop_
 _symmetry_equiv_pos_site_id
 _symmetry_equiv_pos_as_xyz
  1  'x, y, z'
loop_
 _atom_site_type_symbol
 _atom_site_label
 _atom_site_symmetry_multiplicity
 _atom_site_fract_x
 _atom_site_fract_y
 _atom_site_fract_z
 _atom_site_occupancy
  H  H0  1  0.09589400  0.95954400  0.04357100  1
  H  H1  1  0.90410600  0.95954400  0.95642900  1
  H  H2  1  0.59589400  0.04045600  0.45642900  1
  H  H3  1  0.40410600  0.04045600  0.54357100  1
  H  H4  1  0.16067300  0.75394900  0.97539200  1
  H  H5  1  0.83932700  0.75394900  0.02460800  1
  H  H6  1  0.66067300  0.24605100  0.52460800  1
  H  H7  1  0.33932700  0.24605100  0.47539200  1
  H  H8  1  0.79009300  0.12805700  0.68060100  1
  H  H9  1  0.20990700  0.12805700  0.31939900  1
  H  H10  1  0.29009300  0.87194300  0.81939900  1
  H  H11  1  0.70990700  0.87194300  0.18060100  1
  N  N0  1  0.50000000  0.14043500  0.50000000  1
  N  N1  1  0.00000000  0.85956500  0.00000000  1
  N  N2  1  0.50000000  0.40949900  0.00000000  1
  N  N3  1  0.00000000  0.59050100  0.50000000  1
  N  N4  1  0.13535200  0.22998800  0.73394400  1
  N  N5  1  0.86464800  0.22998800  0.26605600  1
  N  N6  1  0.63535200  0.77001200  0.76605600  1
  N  N7  1  0.36464800  0.77001200  0.23394400  1
  O  O0  1  0.50000000  0.20293600  0.00000000  1
  O  O1  1  0.00000000  0.79706400  0.50000000  1
  O  O2  1  0.33599200  0.51340000  0.94946800  1
  O  O3  1  0.66400800  0.51340000  0.05053200  1
  O  O4  1  0.83599200  0.48660000  0.55053200  1
  O  O5  1  0.16400800  0.48660000  0.44946800  1
  O  O6  1  0.38881700  0.28331700  0.72080300  1
  O  O7  1  0.61118300  0.28331700  0.27919700  1
  O  O8  1  0.88881700  0.71668300  0.77919700  1
  O  O9  1  0.11118300  0.71668300  0.22080300  1
  O  O10  1  0.99892500  0.12975300  0.66454300  1
  O  O11  1  0.00107500  0.12975300  0.33545700  1
  O  O12  1  0.49892500  0.87024700  0.83545700  1
  O  O13  1  0.50107500  0.87024700  0.16454300  1
  O  O14  1  0.99112100  0.24632400  0.79770100  1
  O  O15  1  0.00887900  0.24632400  0.20229900  1
  O  O16  1  0.49112100  0.75367600  0.70229900  1
  O  O17  1  0.50887900  0.75367600  0.29770100  1
loop_
_geom_bond_atom_site_label_1
_geom_bond_atom_site_label_2
_geom_bond_distance
_geom_bond_site_symmetry_2
H0 N1 1.025970 1_555
H1 N1 1.025970 1_656
H2 N0 1.025970 1_555
H3 N0 1.025970 1_555
H4 N1 1.053910 1_556
H4 O2 1.723962 1_555
H5 N1 1.053910 1_655
H5 O3 1.723962 1_555
H6 N0 1.053910 1_555
H6 O4 1.723962 1_555
H7 N0 1.053910 1_555
H7 O5 1.723962 1_555
H8 O10 0.988582 1_555
H9 O11 0.988582 1_555
H10 O12 0.988582 1_555
H11 O13 0.988582 1_555
N2 O0 1.261265 1_555
N2 O3 1.273002 1_555
N2 O2 1.273002 1_554
N3 O1 1.261265 1_555
N3 O5 1.273002 1_555
N3 O4 1.273002 1_455
N4 O14 1.220285 1_455
N4 O6 1.221604 1_555
N4 O10 1.414608 1_455
N5 O15 1.220285 1_655
N5 O7 1.221604 1_555
N5 O11 1.414608 1_655
N6 O16 1.220285 1_555
N6 O8 1.221604 1_555
N6 O12 1.414608 1_555
N7 O17 1.220285 1_555
N7 O9 1.221604 1_555
N7 O13 1.414608 1_555
