# generated using pymatgen
data_RbHfMg30O31
_symmetry_space_group_name_H-M   'P 1'
_cell_length_a   8.59685900
_cell_length_b   8.71998400
_cell_length_c   8.76696200
_cell_angle_alpha   90.00000000
_cell_angle_beta   90.00000000
_cell_angle_gamma   90.00000000
_symmetry_Int_Tables_number   1
_chemical_formula_structural   RbHfMg30O31
_chemical_formula_sum   'Rb1 Hf1 Mg30 O31'
_cell_volume   657.21068553
_cell_formula_units_Z   1
loop_
 _symmetry_equiv_pos_site_id
 _symmetry_equiv_pos_as_xyz
  1  'x, y, z'
loop_
 _atom_site_type_symbol
 _atom_site_label
 _atom_site_symmetry_multiplicity
 _atom_site_fract_x
 _atom_site_fract_y
 _atom_site_fract_z
 _atom_site_occupancy
  Rb  Rb0  1  0.02036700  0.00000000  0.00000000  1
  Hf  Hf0  1  0.99879700  0.00000000  0.50000000  1
  Mg  Mg0  1  0.99849400  0.50000000  0.00000000  1
  Mg  Mg1  1  0.99980600  0.50000000  0.50000000  1
  Mg  Mg2  1  0.49057100  0.00000000  0.00000000  1
  Mg  Mg3  1  0.50212400  0.00000000  0.50000000  1
  Mg  Mg4  1  0.50199800  0.50000000  0.00000000  1
  Mg  Mg5  1  0.50015700  0.50000000  0.50000000  1
  Mg  Mg6  1  0.99957500  0.25999400  0.24458600  1
  Mg  Mg7  1  0.99957500  0.25999400  0.75541400  1
  Mg  Mg8  1  0.99957500  0.74000600  0.24458600  1
  Mg  Mg9  1  0.99957500  0.74000600  0.75541400  1
  Mg  Mg10  1  0.50040700  0.25078700  0.24815900  1
  Mg  Mg11  1  0.50040700  0.25078700  0.75184100  1
  Mg  Mg12  1  0.50040700  0.74921300  0.24815900  1
  Mg  Mg13  1  0.50040700  0.74921300  0.75184100  1
  Mg  Mg14  1  0.26207900  0.00000000  0.25072900  1
  Mg  Mg15  1  0.26207900  0.00000000  0.74927100  1
  Mg  Mg16  1  0.25109700  0.50000000  0.24984300  1
  Mg  Mg17  1  0.25109700  0.50000000  0.75015700  1
  Mg  Mg18  1  0.74207300  0.00000000  0.24243800  1
  Mg  Mg19  1  0.74207300  0.00000000  0.75756200  1
  Mg  Mg20  1  0.74874500  0.50000000  0.24816100  1
  Mg  Mg21  1  0.74874500  0.50000000  0.75183900  1
  Mg  Mg22  1  0.25577500  0.26016200  0.00000000  1
  Mg  Mg23  1  0.25563000  0.25712700  0.50000000  1
  Mg  Mg24  1  0.25577500  0.73983800  0.00000000  1
  Mg  Mg25  1  0.25563000  0.74287300  0.50000000  1
  Mg  Mg26  1  0.74751900  0.25229400  0.00000000  1
  Mg  Mg27  1  0.74416100  0.25607300  0.50000000  1
  Mg  Mg28  1  0.74751900  0.74770600  0.00000000  1
  Mg  Mg29  1  0.74416100  0.74392700  0.50000000  1
  O  O0  1  0.24822700  0.00000000  0.50000000  1
  O  O1  1  0.25495700  0.50000000  0.00000000  1
  O  O2  1  0.24946000  0.50000000  0.50000000  1
  O  O3  1  0.72395800  0.00000000  0.00000000  1
  O  O4  1  0.75215400  0.00000000  0.50000000  1
  O  O5  1  0.74592000  0.50000000  0.00000000  1
  O  O6  1  0.75047700  0.50000000  0.50000000  1
  O  O7  1  0.24801200  0.24995900  0.25243200  1
  O  O8  1  0.24801200  0.24995900  0.74756800  1
  O  O9  1  0.24801200  0.75004100  0.25243200  1
  O  O10  1  0.24801200  0.75004100  0.74756800  1
  O  O11  1  0.75170000  0.24846200  0.25079800  1
  O  O12  1  0.75170000  0.24846200  0.74920200  1
  O  O13  1  0.75170000  0.75153800  0.25079800  1
  O  O14  1  0.75170000  0.75153800  0.74920200  1
  O  O15  1  0.99733100  0.00000000  0.27243400  1
  O  O16  1  0.99733100  0.00000000  0.72756600  1
  O  O17  1  0.99998800  0.50000000  0.25743300  1
  O  O18  1  0.99998800  0.50000000  0.74256700  1
  O  O19  1  0.50193400  0.00000000  0.25983100  1
  O  O20  1  0.50193400  0.00000000  0.74016900  1
  O  O21  1  0.49987300  0.50000000  0.25226300  1
  O  O22  1  0.49987300  0.50000000  0.74773700  1
  O  O23  1  0.99905400  0.27890300  0.00000000  1
  O  O24  1  0.99997300  0.24659800  0.50000000  1
  O  O25  1  0.99905400  0.72109700  0.00000000  1
  O  O26  1  0.99997300  0.75340200  0.50000000  1
  O  O27  1  0.50170300  0.25679000  0.00000000  1
  O  O28  1  0.49994300  0.24947800  0.50000000  1
  O  O29  1  0.50170300  0.74321000  0.00000000  1
  O  O30  1  0.49994300  0.75052200  0.50000000  1
loop_
_geom_bond_atom_site_label_1
_geom_bond_atom_site_label_2
_geom_bond_distance
_geom_bond_site_symmetry_2
Hf0 O16 1.995102 1_555
Hf0 O15 1.995102 1_555
Hf0 O4 2.120355 1_555
Hf0 O0 2.144315 1_655
Hf0 O24 2.150354 1_555
Hf0 O26 2.150354 1_545
Mg0 O25 1.927968 1_555
Mg0 O23 1.927968 1_555
Mg0 O5 2.171343 1_555
Mg0 O1 2.204776 1_655
Mg0 O17 2.256942 1_555
Mg0 O18 2.256942 1_554
Mg1 O18 2.126576 1_555
Mg1 O17 2.126576 1_555
Mg1 O6 2.143446 1_555
Mg1 O2 2.146240 1_655
Mg1 O26 2.209662 1_555
Mg1 O24 2.209662 1_555
Mg2 O3 2.006395 1_555
Mg2 O29 2.241249 1_545
Mg2 O27 2.241249 1_555
Mg2 O19 2.280022 1_555
Mg2 O20 2.280022 1_554
Mg3 O20 2.105553 1_555
Mg3 O19 2.105553 1_555
Mg3 O4 2.149473 1_555
Mg3 O28 2.175525 1_555
Mg3 O30 2.175525 1_545
Mg3 O0 2.182717 1_555
Mg4 O5 2.096963 1_555
Mg4 O27 2.120789 1_555
Mg4 O29 2.120789 1_555
Mg4 O1 2.123777 1_555
Mg4 O21 2.211656 1_555
Mg4 O22 2.211656 1_554
Mg5 O6 2.151966 1_555
Mg5 O2 2.155207 1_555
Mg5 O21 2.171902 1_555
Mg5 O22 2.171902 1_555
Mg5 O30 2.184549 1_555
Mg5 O28 2.184549 1_555
Mg6 O17 2.095880 1_555
Mg6 O11 2.134013 1_555
Mg6 O7 2.138676 1_655
Mg6 O23 2.150611 1_555
Mg6 O24 2.242252 1_555
Mg6 O15 2.280333 1_555
Mg7 O18 2.095880 1_555
Mg7 O12 2.134013 1_555
Mg7 O8 2.138676 1_655
Mg7 O23 2.150611 1_556
Mg7 O24 2.242252 1_555
Mg7 O16 2.280333 1_555
Mg8 O17 2.095880 1_555
Mg8 O13 2.134013 1_555
Mg8 O9 2.138676 1_655
Mg8 O25 2.150611 1_555
Mg8 O26 2.242252 1_555
Mg8 O15 2.280333 1_565
Mg9 O18 2.095880 1_555
Mg9 O14 2.134013 1_555
Mg9 O10 2.138676 1_655
Mg9 O25 2.150611 1_556
Mg9 O26 2.242252 1_555
Mg9 O16 2.280333 1_565
Mg10 O11 2.160549 1_555
Mg10 O7 2.170140 1_555
Mg10 O21 2.173436 1_555
Mg10 O27 2.176259 1_555
Mg10 O19 2.189291 1_555
Mg10 O28 2.207914 1_555
Mg11 O12 2.160549 1_555
Mg11 O8 2.170140 1_555
Mg11 O22 2.173436 1_555
Mg11 O27 2.176259 1_556
Mg11 O20 2.189291 1_555
Mg11 O28 2.207914 1_555
Mg12 O13 2.160549 1_555
Mg12 O9 2.170140 1_555
Mg12 O21 2.173436 1_555
Mg12 O29 2.176259 1_555
Mg12 O19 2.189291 1_565
Mg12 O30 2.207914 1_555
Mg13 O14 2.160549 1_555
Mg13 O10 2.170140 1_555
Mg13 O22 2.173436 1_555
Mg13 O29 2.176259 1_556
Mg13 O20 2.189291 1_565
Mg13 O30 2.207914 1_555
Mg14 O19 2.063543 1_555
Mg14 O7 2.183042 1_555
Mg14 O9 2.183042 1_545
Mg14 O0 2.188592 1_555
Mg14 O15 2.283942 1_455
Mg15 O20 2.063543 1_555
Mg15 O8 2.183042 1_555
Mg15 O10 2.183042 1_545
Mg15 O0 2.188592 1_555
Mg15 O16 2.283942 1_455
Mg16 O21 2.138797 1_555
Mg16 O17 2.159774 1_455
Mg16 O9 2.180633 1_555
Mg16 O7 2.180633 1_555
Mg16 O1 2.190615 1_555
Mg16 O2 2.193162 1_555
Mg17 O22 2.138797 1_555
Mg17 O18 2.159774 1_455
Mg17 O10 2.180633 1_555
Mg17 O8 2.180633 1_555
Mg17 O1 2.190615 1_556
Mg17 O2 2.193162 1_555
Mg18 O19 2.070065 1_555
Mg18 O3 2.131142 1_555
Mg18 O11 2.169403 1_555
Mg18 O13 2.169403 1_545
Mg18 O15 2.210118 1_555
Mg18 O4 2.259699 1_555
Mg19 O20 2.070065 1_555
Mg19 O3 2.131142 1_556
Mg19 O12 2.169403 1_555
Mg19 O14 2.169403 1_545
Mg19 O16 2.210118 1_555
Mg19 O4 2.259699 1_555
Mg20 O21 2.139820 1_555
Mg20 O17 2.161430 1_555
Mg20 O5 2.175754 1_555
Mg20 O13 2.193676 1_555
Mg20 O11 2.193676 1_555
Mg20 O6 2.207913 1_555
Mg21 O22 2.139820 1_555
Mg21 O18 2.161430 1_555
Mg21 O5 2.175754 1_556
Mg21 O14 2.193676 1_555
Mg21 O12 2.193676 1_555
Mg21 O6 2.207913 1_555
Mg22 O1 2.091395 1_555
Mg22 O27 2.114413 1_555
Mg22 O23 2.213036 1_455
Mg22 O7 2.215855 1_555
Mg22 O8 2.215855 1_554
Mg23 O28 2.101383 1_555
Mg23 O2 2.118513 1_555
Mg23 O8 2.172307 1_555
Mg23 O7 2.172307 1_555
Mg23 O24 2.199764 1_455
Mg23 O0 2.243046 1_555
Mg24 O1 2.091395 1_555
Mg24 O29 2.114413 1_555
Mg24 O25 2.213036 1_455
Mg24 O9 2.215855 1_555
Mg24 O10 2.215855 1_554
Mg25 O30 2.101383 1_555
Mg25 O2 2.118513 1_555
Mg25 O9 2.172307 1_555
Mg25 O10 2.172307 1_555
Mg25 O26 2.199764 1_455
Mg25 O0 2.243046 1_565
Mg26 O27 2.113609 1_555
Mg26 O5 2.160036 1_555
Mg26 O23 2.174824 1_555
Mg26 O11 2.199284 1_555
Mg26 O12 2.199284 1_554
Mg26 O3 2.209304 1_555
Mg27 O28 2.100295 1_555
Mg27 O6 2.127732 1_555
Mg27 O12 2.186713 1_555
Mg27 O11 2.186713 1_555
Mg27 O24 2.200731 1_555
Mg27 O4 2.234009 1_555
Mg28 O29 2.113609 1_555
Mg28 O5 2.160036 1_555
Mg28 O25 2.174824 1_555
Mg28 O13 2.199284 1_555
Mg28 O14 2.199284 1_554
Mg28 O3 2.209304 1_565
Mg29 O30 2.100295 1_555
Mg29 O6 2.127732 1_555
Mg29 O14 2.186713 1_555
Mg29 O13 2.186713 1_555
Mg29 O26 2.200731 1_555
Mg29 O4 2.234009 1_565
O3 Rb0 2.548186 1_655
O15 Rb0 2.396615 1_655
O16 Rb0 2.396615 1_656
O23 Rb0 2.438922 1_655
O25 Rb0 2.438922 1_665
