# generated using pymatgen
data_CsHfMg14
_symmetry_space_group_name_H-M   'P 1'
_cell_length_a   6.57299233
_cell_length_b   6.71347491
_cell_length_c   10.51972008
_cell_angle_alpha   90.00000000
_cell_angle_beta   90.00000000
_cell_angle_gamma   120.70956369
_symmetry_Int_Tables_number   1
_chemical_formula_structural   CsHfMg14
_chemical_formula_sum   'Cs1 Hf1 Mg14'
_cell_volume   399.11263055
_cell_formula_units_Z   1
loop_
 _symmetry_equiv_pos_site_id
 _symmetry_equiv_pos_as_xyz
  1  'x, y, z'
loop_
 _atom_site_type_symbol
 _atom_site_label
 _atom_site_symmetry_multiplicity
 _atom_site_fract_x
 _atom_site_fract_y
 _atom_site_fract_z
 _atom_site_occupancy
  Cs  Cs0  1  0.16421912  0.33210906  0.12500000  1
  Hf  Hf0  1  0.19142073  0.84570986  0.12500000  1
  Mg  Mg0  1  0.16949063  0.33474481  0.62500000  1
  Mg  Mg1  1  0.16468680  0.83234290  0.62500000  1
  Mg  Mg2  1  0.66662648  0.33444360  0.12500000  1
  Mg  Mg3  1  0.66773620  0.33888687  0.62500000  1
  Mg  Mg4  1  0.66662648  0.83218188  0.12500000  1
  Mg  Mg5  1  0.66773620  0.82884834  0.62500000  1
  Mg  Mg6  1  0.33410453  0.15134234  0.38634874  1
  Mg  Mg7  1  0.33410453  0.15134234  0.86365126  1
  Mg  Mg8  1  0.33410453  0.68276319  0.38634874  1
  Mg  Mg9  1  0.33410453  0.68276319  0.86365126  1
  Mg  Mg10  1  0.81417336  0.15708718  0.39245336  1
  Mg  Mg11  1  0.81417336  0.15708718  0.85754664  1
  Mg  Mg12  1  0.83834625  0.66917362  0.36915813  1
  Mg  Mg13  1  0.83834625  0.66917362  0.88084187  1
loop_
_geom_bond_atom_site_label_1
_geom_bond_atom_site_label_2
_geom_bond_distance
_geom_bond_site_symmetry_2
Cs0 Mg4 3.278704 1_445
Cs0 Mg2 3.278704 1_455
Cs0 Mg4 3.294343 1_555
Cs0 Mg2 3.294343 1_555
Cs0 Hf0 3.360255 1_555
Cs0 Hf0 3.360256 1_545
Cs0 Mg7 3.415043 1_554
Cs0 Mg6 3.415043 1_555
Cs0 Mg9 3.415050 1_554
Cs0 Mg8 3.415050 1_555
Cs0 Mg10 3.439364 1_455
Cs0 Mg11 3.439364 1_454
Hf0 Mg2 3.170865 1_565
Hf0 Mg4 3.170866 1_555
Hf0 Mg12 3.252434 1_455
Hf0 Mg13 3.252434 1_454
Hf0 Mg9 3.268472 1_554
Hf0 Mg8 3.268472 1_555
Hf0 Mg7 3.268478 1_564
Hf0 Mg6 3.268478 1_565
Hf0 Mg2 3.403984 1_455
Hf0 Mg4 3.403984 1_455
Mg0 Mg10 3.164887 1_455
Mg0 Mg11 3.164887 1_455
Mg0 Mg6 3.217189 1_555
Mg0 Mg7 3.217189 1_555
Mg0 Mg8 3.217196 1_555
Mg0 Mg9 3.217196 1_555
Mg0 Mg5 3.260851 1_555
Mg0 Mg3 3.260851 1_555
Mg0 Mg5 3.312315 1_445
Mg0 Mg3 3.312315 1_455
Mg0 Mg1 3.356847 1_545
Mg0 Mg1 3.356847 1_555
Mg1 Mg8 3.113434 1_555
Mg1 Mg9 3.113434 1_555
Mg1 Mg6 3.113441 1_565
Mg1 Mg7 3.113441 1_565
Mg1 Mg3 3.254534 1_455
Mg1 Mg5 3.254534 1_455
Mg1 Mg12 3.262627 1_455
Mg1 Mg13 3.262627 1_455
Mg1 Mg3 3.318582 1_565
Mg1 Mg5 3.318582 1_555
Mg2 Mg7 3.332082 1_554
Mg2 Mg6 3.332082 1_555
Mg2 Mg4 3.341553 1_555
Mg2 Mg4 3.371921 1_545
Mg3 Mg6 3.142779 1_555
Mg3 Mg7 3.142779 1_555
Mg3 Mg5 3.289344 1_555
Mg3 Mg5 3.424131 1_545
Mg4 Mg9 3.332082 1_554
Mg4 Mg8 3.332082 1_555
Mg5 Mg8 3.142779 1_555
Mg5 Mg9 3.142779 1_555
Mg10 Mg3 3.098467 1_555
Mg10 Mg5 3.098474 1_545
Mg10 Mg8 3.136625 1_545
Mg10 Mg6 3.136625 1_555
Mg10 Mg12 3.368442 1_555
Mg10 Mg12 3.368442 1_545
Mg10 Mg2 3.384328 1_555
Mg10 Mg4 3.384335 1_545
Mg10 Mg8 3.437959 1_655
Mg10 Mg6 3.437959 1_655
Mg11 Mg3 3.098467 1_555
Mg11 Mg5 3.098474 1_545
Mg11 Mg9 3.136625 1_545
Mg11 Mg7 3.136625 1_555
Mg11 Mg13 3.368442 1_555
Mg11 Mg13 3.368442 1_545
Mg11 Mg2 3.384328 1_556
Mg11 Mg4 3.384335 1_546
Mg11 Mg9 3.437959 1_655
Mg11 Mg7 3.437959 1_655
Mg12 Mg4 3.214074 1_555
Mg12 Mg2 3.214081 1_555
Mg12 Mg6 3.218066 1_665
Mg12 Mg8 3.218067 1_655
Mg12 Mg5 3.298193 1_555
Mg12 Mg3 3.298200 1_555
Mg12 Mg6 3.366744 1_555
Mg12 Mg8 3.366744 1_555
Mg13 Mg4 3.214074 1_556
Mg13 Mg2 3.214081 1_556
Mg13 Mg7 3.218066 1_665
Mg13 Mg9 3.218067 1_655
Mg13 Mg5 3.298193 1_555
Mg13 Mg3 3.298200 1_555
Mg13 Mg7 3.366744 1_555
Mg13 Mg9 3.366744 1_555
