# generated using pymatgen
data_Ga5Pt
_symmetry_space_group_name_H-M   'P 1'
_cell_length_a   15.83681800
_cell_length_b   6.49088400
_cell_length_c   9.05196236
_cell_angle_alpha   69.95490670
_cell_angle_beta   90.00000000
_cell_angle_gamma   90.00000000
_symmetry_Int_Tables_number   1
_chemical_formula_structural   Ga5Pt
_chemical_formula_sum   'Ga40 Pt8'
_cell_volume   874.12948892
_cell_formula_units_Z   8
loop_
 _symmetry_equiv_pos_site_id
 _symmetry_equiv_pos_as_xyz
  1  'x, y, z'
loop_
 _atom_site_type_symbol
 _atom_site_label
 _atom_site_symmetry_multiplicity
 _atom_site_fract_x
 _atom_site_fract_y
 _atom_site_fract_z
 _atom_site_occupancy
  Ga  Ga0  1  0.33545300  0.31077000  0.92118100  1
  Ga  Ga1  1  0.83545300  0.68923000  0.07881900  1
  Ga  Ga2  1  0.66454700  0.68923000  0.07881900  1
  Ga  Ga3  1  0.16454700  0.31077000  0.92118100  1
  Ga  Ga4  1  0.33722500  0.29888700  0.42781100  1
  Ga  Ga5  1  0.83722500  0.70111300  0.57218900  1
  Ga  Ga6  1  0.66277500  0.70111300  0.57218900  1
  Ga  Ga7  1  0.16277500  0.29888700  0.42781100  1
  Ga  Ga8  1  0.33320900  0.07538700  0.22463800  1
  Ga  Ga9  1  0.83320900  0.92461300  0.77536200  1
  Ga  Ga10  1  0.66679100  0.92461300  0.77536200  1
  Ga  Ga11  1  0.16679100  0.07538700  0.22463800  1
  Ga  Ga12  1  0.33385100  0.07746200  0.73569300  1
  Ga  Ga13  1  0.83385100  0.92253800  0.26430700  1
  Ga  Ga14  1  0.66614900  0.92253800  0.26430700  1
  Ga  Ga15  1  0.16614900  0.07746200  0.73569300  1
  Ga  Ga16  1  0.55674400  0.55002300  0.36154500  1
  Ga  Ga17  1  0.05674400  0.44997700  0.63845500  1
  Ga  Ga18  1  0.44325600  0.44997700  0.63845500  1
  Ga  Ga19  1  0.94325600  0.55002300  0.36154500  1
  Ga  Ga20  1  0.43951300  0.44324400  0.13668100  1
  Ga  Ga21  1  0.93951300  0.55675600  0.86331900  1
  Ga  Ga22  1  0.56048700  0.55675600  0.86331900  1
  Ga  Ga23  1  0.06048700  0.44324400  0.13668100  1
  Ga  Ga24  1  0.33013400  0.78249600  0.55248200  1
  Ga  Ga25  1  0.83013400  0.21750400  0.44751800  1
  Ga  Ga26  1  0.66986600  0.21750400  0.44751800  1
  Ga  Ga27  1  0.16986600  0.78249600  0.55248200  1
  Ga  Ga28  1  0.49963500  0.99860200  0.35773000  1
  Ga  Ga29  1  0.99963500  0.00139800  0.64227000  1
  Ga  Ga30  1  0.50036500  0.00139800  0.64227000  1
  Ga  Ga31  1  0.00036500  0.99860200  0.35773000  1
  Ga  Ga32  1  0.43061900  0.89897400  0.02626000  1
  Ga  Ga33  1  0.93061900  0.10102600  0.97374000  1
  Ga  Ga34  1  0.56938100  0.10102600  0.97374000  1
  Ga  Ga35  1  0.06938100  0.89897400  0.02626000  1
  Ga  Ga36  1  0.25000000  0.67941000  0.93988800  1
  Ga  Ga37  1  0.75000000  0.32059000  0.06011200  1
  Ga  Ga38  1  0.25000000  0.67546100  0.22199700  1
  Ga  Ga39  1  0.75000000  0.32453900  0.77800300  1
  Pt  Pt0  1  0.40434600  0.68765700  0.32544400  1
  Pt  Pt1  1  0.90434600  0.31234300  0.67455600  1
  Pt  Pt2  1  0.59565400  0.31234300  0.67455600  1
  Pt  Pt3  1  0.09565400  0.68765700  0.32544400  1
  Pt  Pt4  1  0.40499000  0.69225600  0.82856800  1
  Pt  Pt5  1  0.90499000  0.30774400  0.17143200  1
  Pt  Pt6  1  0.59501000  0.30774400  0.17143200  1
  Pt  Pt7  1  0.09501000  0.69225600  0.82856800  1
loop_
_geom_bond_atom_site_label_1
_geom_bond_atom_site_label_2
_geom_bond_distance
_geom_bond_site_symmetry_2
Ga0 Pt4 2.573708 1_555
Ga0 Ga12 2.618430 1_555
Ga0 Ga8 2.646495 1_556
Ga0 Ga36 2.804168 1_555
Ga0 Ga32 2.928787 1_546
Ga1 Pt5 2.573708 1_555
Ga1 Ga13 2.618430 1_555
Ga1 Ga9 2.646495 1_554
Ga1 Ga37 2.804168 1_555
Ga1 Ga33 2.928787 1_564
Ga2 Pt6 2.573708 1_555
Ga2 Ga37 2.804168 1_555
Ga2 Ga34 2.928787 1_564
Ga3 Pt7 2.573708 1_555
Ga3 Ga36 2.804168 1_555
Ga3 Ga35 2.928787 1_546
Ga4 Pt0 2.598744 1_555
Ga4 Ga8 2.705538 1_555
Ga5 Pt1 2.598744 1_555
Ga5 Ga9 2.705538 1_555
Ga6 Pt2 2.598744 1_555
Ga7 Pt3 2.598744 1_555
Ga8 Pt0 2.619424 1_545
Ga9 Pt1 2.619424 1_565
Ga10 Pt2 2.619424 1_565
Ga10 Ga9 2.635532 1_555
Ga10 Ga2 2.646495 1_556
Ga10 Ga6 2.705538 1_555
Ga10 Ga22 2.804660 1_555
Ga10 Ga30 2.869650 1_565
Ga10 Ga34 2.885337 1_565
Ga10 Ga39 2.918592 1_565
Ga10 Ga26 2.925045 1_565
Ga11 Pt3 2.619424 1_545
Ga11 Ga8 2.635532 1_555
Ga11 Ga3 2.646495 1_554
Ga11 Ga7 2.705538 1_555
Ga11 Ga23 2.804660 1_555
Ga11 Ga31 2.869650 1_545
Ga11 Ga35 2.885337 1_545
Ga11 Ga38 2.918592 1_545
Ga11 Ga27 2.925045 1_545
Ga12 Pt4 2.605129 1_545
Ga12 Ga15 2.655866 1_555
Ga12 Ga4 2.662647 1_555
Ga12 Ga18 2.857317 1_555
Ga12 Ga30 2.863419 1_555
Ga12 Ga32 2.918872 1_546
Ga12 Ga36 2.929441 1_545
Ga12 Ga24 2.931916 1_545
Ga13 Pt5 2.605129 1_565
Ga13 Ga14 2.655866 1_555
Ga13 Ga5 2.662647 1_555
Ga13 Ga19 2.857317 1_555
Ga13 Ga31 2.863419 1_655
Ga13 Ga33 2.918872 1_564
Ga13 Ga37 2.929441 1_565
Ga13 Ga25 2.931916 1_565
Ga14 Pt6 2.605129 1_565
Ga14 Ga2 2.618430 1_555
Ga14 Ga6 2.662647 1_555
Ga14 Ga16 2.857317 1_555
Ga14 Ga28 2.863419 1_555
Ga14 Ga34 2.918872 1_564
Ga14 Ga37 2.929441 1_565
Ga14 Ga26 2.931916 1_565
Ga15 Pt7 2.605129 1_545
Ga15 Ga3 2.618430 1_555
Ga15 Ga7 2.662647 1_555
Ga15 Ga17 2.857317 1_555
Ga15 Ga29 2.863419 1_455
Ga15 Ga35 2.918872 1_546
Ga15 Ga36 2.929441 1_545
Ga15 Ga27 2.931916 1_545
Ga16 Pt0 2.555336 1_555
Ga16 Pt6 2.767134 1_555
Ga16 Pt2 2.791277 1_555
Ga17 Pt1 2.555336 1_455
Ga17 Pt7 2.767134 1_555
Ga17 Pt3 2.791277 1_555
Ga18 Pt2 2.555336 1_555
Ga18 Pt4 2.767134 1_555
Ga18 Pt0 2.791277 1_555
Ga19 Pt3 2.555336 1_655
Ga19 Pt5 2.767134 1_555
Ga19 Pt1 2.791277 1_555
Ga20 Pt6 2.597523 1_555
Ga20 Pt4 2.756769 1_554
Ga20 Pt0 2.757690 1_555
Ga20 Ga32 2.782503 1_555
Ga20 Ga8 2.804660 1_555
Ga21 Pt7 2.597523 1_655
Ga21 Pt5 2.756769 1_556
Ga21 Pt1 2.757690 1_555
Ga21 Ga33 2.782503 1_555
Ga21 Ga9 2.804660 1_555
Ga22 Pt4 2.597523 1_555
Ga22 Pt6 2.756769 1_556
Ga22 Pt2 2.757690 1_555
Ga22 Ga34 2.782503 1_555
Ga23 Pt5 2.597523 1_455
Ga23 Pt7 2.756769 1_554
Ga23 Pt3 2.757690 1_555
Ga23 Ga35 2.782503 1_555
Ga24 Pt0 2.617461 1_555
Ga24 Pt4 2.643969 1_555
Ga24 Ga8 2.925045 1_565
Ga25 Pt1 2.617461 1_555
Ga25 Pt5 2.643969 1_555
Ga25 Ga9 2.925045 1_545
Ga26 Pt2 2.617461 1_555
Ga26 Pt6 2.643969 1_555
Ga27 Pt3 2.617461 1_555
Ga27 Pt7 2.643969 1_555
Ga28 Pt6 2.613809 1_565
Ga28 Pt0 2.615462 1_555
Ga28 Ga8 2.869650 1_565
Ga29 Pt7 2.613809 1_645
Ga29 Pt1 2.615462 1_555
Ga29 Ga9 2.869650 1_545
Ga30 Pt4 2.613809 1_545
Ga30 Pt2 2.615462 1_555
Ga31 Pt5 2.613809 1_465
Ga31 Pt3 2.615462 1_555
Ga32 Ga34 2.519491 1_564
Ga32 Pt4 2.610258 1_554
Ga32 Pt0 2.615796 1_555
Ga32 Ga8 2.885337 1_565
Ga33 Ga35 2.519491 1_646
Ga33 Pt5 2.610258 1_556
Ga33 Pt1 2.615796 1_555
Ga33 Ga9 2.885337 1_545
Ga34 Pt6 2.610258 1_556
Ga34 Pt2 2.615796 1_555
Ga35 Pt7 2.610258 1_554
Ga35 Pt3 2.615796 1_555
Ga36 Ga38 2.544968 1_556
Ga36 Pt7 2.643776 1_555
Ga36 Pt4 2.643776 1_555
Ga37 Ga39 2.544968 1_554
Ga37 Pt6 2.643776 1_555
Ga37 Pt5 2.643776 1_555
Ga38 Pt0 2.628454 1_555
Ga38 Pt3 2.628454 1_555
Ga38 Ga4 2.869131 1_555
Ga38 Ga7 2.869131 1_555
Ga38 Ga8 2.918592 1_565
Ga39 Pt1 2.628454 1_555
Ga39 Pt2 2.628454 1_555
Ga39 Ga6 2.869131 1_555
Ga39 Ga5 2.869131 1_555
Ga39 Ga9 2.918592 1_545
