# generated using pymatgen
data_Mg3Zn3As4
_symmetry_space_group_name_H-M   'P 1'
_cell_length_a   7.79824662
_cell_length_b   7.79824662
_cell_length_c   7.25273176
_cell_angle_alpha   63.31163195
_cell_angle_beta   63.31163195
_cell_angle_gamma   31.65781421
_symmetry_Int_Tables_number   1
_chemical_formula_structural   Mg3Zn3As4
_chemical_formula_sum   'Mg3 Zn3 As4'
_cell_volume   204.71366516
_cell_formula_units_Z   1
loop_
 _symmetry_equiv_pos_site_id
 _symmetry_equiv_pos_as_xyz
  1  'x, y, z'
loop_
 _atom_site_type_symbol
 _atom_site_label
 _atom_site_symmetry_multiplicity
 _atom_site_fract_x
 _atom_site_fract_y
 _atom_site_fract_z
 _atom_site_occupancy
  Mg  Mg0  1  0.68292100  0.68292100  0.98179900  1
  Mg  Mg1  1  0.18070900  0.18070900  0.49142700  1
  Mg  Mg2  1  0.33098600  0.33098600  0.00475900  1
  Zn  Zn0  1  0.80963900  0.80963900  0.52073400  1
  Zn  Zn1  1  0.01023400  0.01023400  0.99559100  1
  Zn  Zn2  1  0.49939000  0.49939000  0.49920500  1
  As  As0  1  0.38601400  0.38601400  0.30390400  1
  As  As1  1  0.88919300  0.88919300  0.76233900  1
  As  As2  1  0.60376000  0.60376000  0.72662900  1
  As  As3  1  0.11602600  0.11602600  0.21361400  1
loop_
_geom_bond_atom_site_label_1
_geom_bond_atom_site_label_2
_geom_bond_distance
_geom_bond_site_symmetry_2
Mg0 Zn0 2.976739 1_555
Mg1 Zn0 2.948957 1_455
Mg1 Zn0 2.948957 1_545
As0 Zn0 2.574543 1_455
As0 Zn0 2.574543 1_545
As0 Mg2 2.657380 1_555
As0 Zn2 2.674026 1_555
As0 Mg1 2.725439 1_555
As0 Zn1 3.017851 1_564
As0 Zn1 3.017851 1_654
As1 Zn0 2.539392 1_555
As1 Mg2 2.635313 1_656
As1 Mg2 2.635313 1_566
As1 Mg0 2.741083 1_555
As1 Zn2 2.820360 1_655
As1 Zn2 2.820360 1_565
As1 Zn1 3.004889 1_665
As2 Mg0 2.624577 1_555
As2 Mg1 2.632230 1_655
As2 Mg1 2.632230 1_565
As2 Zn0 2.732415 1_555
As2 Zn2 2.754111 1_555
As2 Zn1 2.782665 1_565
As2 Zn1 2.782665 1_655
As3 Mg0 2.604442 1_544
As3 Mg0 2.604442 1_454
As3 Mg1 2.612999 1_555
As3 Zn1 2.713658 1_554
As3 Mg2 2.852452 1_555
As3 Zn2 2.914306 1_545
As3 Zn2 2.914306 1_455
