# generated using pymatgen
data_Mg4Si3
_symmetry_space_group_name_H-M   'P 1'
_cell_length_a   6.69646700
_cell_length_b   7.20291832
_cell_length_c   11.70695624
_cell_angle_alpha   92.74815792
_cell_angle_beta   89.56901574
_cell_angle_gamma   105.75953461
_symmetry_Int_Tables_number   1
_chemical_formula_structural   Mg4Si3
_chemical_formula_sum   'Mg16 Si12'
_cell_volume   542.81457810
_cell_formula_units_Z   4
loop_
 _symmetry_equiv_pos_site_id
 _symmetry_equiv_pos_as_xyz
  1  'x, y, z'
loop_
 _atom_site_type_symbol
 _atom_site_label
 _atom_site_symmetry_multiplicity
 _atom_site_fract_x
 _atom_site_fract_y
 _atom_site_fract_z
 _atom_site_occupancy
  Mg  Mg0  1  0.04809500  0.29234500  0.04526200  1
  Mg  Mg1  1  0.56019500  0.30410400  0.11678300  1
  Mg  Mg2  1  0.25902800  0.04279300  0.54951900  1
  Mg  Mg3  1  0.38672800  0.82090000  0.76066100  1
  Mg  Mg4  1  0.10527100  0.92462800  0.17636800  1
  Mg  Mg5  1  0.62857400  0.89793100  0.08254400  1
  Mg  Mg6  1  0.16995500  0.45550100  0.60582200  1
  Mg  Mg7  1  0.85828700  0.71793300  0.63345800  1
  Mg  Mg8  1  0.12783100  0.68183400  0.38918600  1
  Mg  Mg9  1  0.69727100  0.63464500  0.28359300  1
  Mg  Mg10  1  0.10229500  0.11257400  0.78591300  1
  Mg  Mg11  1  0.76000100  0.11630200  0.62653600  1
  Mg  Mg12  1  0.49066900  0.99699800  0.32564700  1
  Mg  Mg13  1  0.24993100  0.30800000  0.32377200  1
  Mg  Mg14  1  0.44933000  0.47739700  0.89646000  1
  Mg  Mg15  1  0.91411400  0.46853700  0.82169900  1
  Si  Si0  1  0.85650100  0.33704000  0.43463200  1
  Si  Si1  1  0.52688800  0.78810800  0.51081000  1
  Si  Si2  1  0.84027600  0.63634600  0.03599500  1
  Si  Si3  1  0.32252400  0.05316000  0.96176600  1
  Si  Si4  1  0.32267800  0.62238300  0.18467300  1
  Si  Si5  1  0.85387800  0.17620400  0.24568900  1
  Si  Si6  1  0.50508000  0.33371200  0.68719700  1
  Si  Si7  1  0.76579000  0.80707100  0.86021600  1
  Si  Si8  1  0.54227900  0.44391300  0.49226500  1
  Si  Si9  1  0.89857400  0.95770800  0.40927500  1
  Si  Si10  1  0.20753300  0.69337000  0.99422900  1
  Si  Si11  1  0.69358800  0.11760500  0.89590100  1
loop_
_geom_bond_atom_site_label_1
_geom_bond_atom_site_label_2
_geom_bond_distance
_geom_bond_site_symmetry_2
Mg0 Si5 2.729132 1_455
Mg0 Si10 2.884653 1_554
Mg0 Si11 2.916438 1_454
Mg0 Si3 2.971880 1_554
Mg0 Si4 2.999099 1_555
Mg0 Si2 3.160563 1_455
Mg1 Si3 2.694412 1_554
Mg1 Si2 2.809169 1_555
Mg1 Si5 2.855848 1_555
Mg1 Si11 3.094041 1_554
Mg1 Si4 3.194391 1_555
Mg2 Si6 2.746687 1_555
Mg2 Si9 2.838495 1_445
Mg2 Si1 2.912653 1_545
Mg2 Si8 3.095871 1_555
Mg3 Si7 2.829243 1_555
Mg3 Si3 2.919633 1_565
Mg3 Si11 2.938631 1_565
Mg3 Si10 3.058309 1_555
Mg3 Si1 3.083047 1_555
Mg4 Si2 2.806483 1_455
Mg4 Si10 2.836784 1_554
Mg4 Si5 2.876058 1_465
Mg4 Si4 2.934722 1_555
Mg4 Si3 2.953285 1_564
Mg4 Si9 3.076883 1_455
Mg5 Si2 2.682853 1_555
Mg5 Si11 2.722230 1_564
Mg5 Si4 2.747187 1_555
Mg5 Si5 2.824046 1_565
Mg5 Si7 2.859098 1_554
Mg5 Si10 2.971633 1_554
Mg5 Si3 2.981541 1_564
Mg6 Si6 2.809803 1_555
Mg6 Si8 2.836045 1_555
Mg6 Si0 2.841988 1_455
Mg6 Si1 3.129667 1_555
Mg7 Si7 2.805510 1_555
Mg7 Si1 2.822912 1_555
Mg7 Si8 2.928633 1_555
Mg7 Si9 3.180329 1_555
Mg7 Si6 3.199710 1_555
Mg8 Si0 2.722730 1_455
Mg8 Si4 2.788610 1_555
Mg8 Si9 2.822693 1_455
Mg8 Si1 2.931878 1_555
Mg9 Si9 2.719290 1_555
Mg9 Si4 2.748591 1_555
Mg9 Si8 2.905443 1_555
Mg9 Si2 3.045401 1_555
Mg9 Si1 3.155447 1_555
Mg9 Si0 3.239145 1_555
Mg10 Si3 2.658815 1_555
Mg10 Si7 2.852584 1_445
Mg10 Si6 2.990596 1_555
Mg10 Si11 3.024278 1_455
Mg11 Si6 2.682901 1_555
Mg11 Si1 2.753319 1_545
Mg11 Si0 2.784851 1_555
Mg11 Si9 2.982773 1_545
Mg11 Si11 3.181260 1_555
Mg12 Si5 2.614249 1_565
Mg12 Si1 2.745997 1_555
Mg12 Si9 2.997751 1_555
Mg12 Si4 3.036810 1_555
Mg12 Si0 3.180625 1_565
Mg13 Si5 2.712261 1_455
Mg13 Si8 2.741121 1_555
Mg13 Si4 2.785566 1_555
Mg13 Si0 2.981790 1_455
Mg13 Si9 3.144208 1_445
Mg14 Si6 2.676783 1_555
Mg14 Si10 2.742526 1_555
Mg14 Si7 2.767541 1_555
Mg14 Si2 3.014925 1_556
Mg14 Si3 3.073745 1_555
Mg15 Si11 2.736496 1_555
Mg15 Si2 2.830994 1_556
Mg15 Si7 2.887778 1_555
Mg15 Si10 2.929251 1_655
Mg15 Si6 3.065680 1_555
Si0 Si5 2.445183 1_555
Si0 Si8 2.506808 1_555
Si0 Si9 2.823485 1_545
Si1 Si8 2.508203 1_555
Si1 Si9 2.746524 1_555
Si2 Si7 2.566512 1_554
Si5 Si9 2.605294 1_545
Si6 Si8 2.440832 1_555
Si10 Si2 2.430744 1_456
Si10 Si4 2.485172 1_556
Si10 Si3 2.541554 1_565
Si11 Si7 2.430260 1_545
Si11 Si3 2.522560 1_555
