# generated using pymatgen
data_TiS2
_symmetry_space_group_name_H-M   'P 1'
_cell_length_a   6.00655100
_cell_length_b   6.00655100
_cell_length_c   6.00655100
_cell_angle_alpha   90.00000000
_cell_angle_beta   90.00000000
_cell_angle_gamma   90.00000000
_symmetry_Int_Tables_number   1
_chemical_formula_structural   TiS2
_chemical_formula_sum   'Ti4 S8'
_cell_volume   216.70828076
_cell_formula_units_Z   4
loop_
 _symmetry_equiv_pos_site_id
 _symmetry_equiv_pos_as_xyz
  1  'x, y, z'
loop_
 _atom_site_type_symbol
 _atom_site_label
 _atom_site_symmetry_multiplicity
 _atom_site_fract_x
 _atom_site_fract_y
 _atom_site_fract_z
 _atom_site_occupancy
  Ti  Ti0  1  0.50000000  0.50000000  0.00000000  1
  Ti  Ti1  1  0.50000000  0.00000000  0.50000000  1
  Ti  Ti2  1  0.00000000  0.50000000  0.50000000  1
  Ti  Ti3  1  0.00000000  0.00000000  0.00000000  1
  S  S0  1  0.14195900  0.85804100  0.35804100  1
  S  S1  1  0.85804100  0.35804100  0.14195900  1
  S  S2  1  0.35804100  0.14195900  0.85804100  1
  S  S3  1  0.64195900  0.64195900  0.64195900  1
  S  S4  1  0.85804100  0.14195900  0.64195900  1
  S  S5  1  0.14195900  0.64195900  0.85804100  1
  S  S6  1  0.64195900  0.85804100  0.14195900  1
  S  S7  1  0.35804100  0.35804100  0.35804100  1
loop_
_geom_bond_atom_site_label_1
_geom_bond_atom_site_label_2
_geom_bond_distance
_geom_bond_site_symmetry_2
S0 Ti2 2.465600 1_555
S0 Ti1 2.465600 1_565
S0 Ti3 2.465600 1_565
S1 Ti0 2.465600 1_555
S1 Ti3 2.465600 1_655
S1 Ti2 2.465600 1_655
S2 Ti1 2.465600 1_555
S2 Ti0 2.465600 1_556
S2 Ti3 2.465600 1_556
S3 Ti0 2.465600 1_556
S3 Ti2 2.465600 1_655
S3 Ti1 2.465600 1_565
S4 Ti1 2.465600 1_555
S4 Ti2 2.465600 1_655
S4 Ti3 2.465600 1_656
S5 Ti2 2.465600 1_555
S5 Ti0 2.465600 1_556
S5 Ti3 2.465600 1_566
S6 Ti0 2.465600 1_555
S6 Ti1 2.465600 1_565
S6 Ti3 2.465600 1_665
S7 Ti0 2.465600 1_555
S7 Ti1 2.465600 1_555
S7 Ti2 2.465600 1_555
