# generated using pymatgen
data_Tb2(Ga3Ir)3
_symmetry_space_group_name_H-M   'P 1'
_cell_length_a   7.50339111
_cell_length_b   7.50339111
_cell_length_c   9.46909210
_cell_angle_alpha   90.00000000
_cell_angle_beta   90.00000000
_cell_angle_gamma   119.80324703
_symmetry_Int_Tables_number   1
_chemical_formula_structural   Tb2(Ga3Ir)3
_chemical_formula_sum   'Tb4 Ga18 Ir6'
_cell_volume   462.60654087
_cell_formula_units_Z   2
loop_
 _symmetry_equiv_pos_site_id
 _symmetry_equiv_pos_as_xyz
  1  'x, y, z'
loop_
 _atom_site_type_symbol
 _atom_site_label
 _atom_site_symmetry_multiplicity
 _atom_site_fract_x
 _atom_site_fract_y
 _atom_site_fract_z
 _atom_site_occupancy
  Tb  Tb0  1  0.99787913  0.66921582  0.25000000  1
  Tb  Tb1  1  0.00212087  0.33078418  0.75000000  1
  Tb  Tb2  1  0.66921582  0.99787913  0.25000000  1
  Tb  Tb3  1  0.33078418  0.00212087  0.75000000  1
  Ga  Ga0  1  0.13014176  0.13014176  0.25000000  1
  Ga  Ga1  1  0.86985824  0.86985824  0.75000000  1
  Ga  Ga2  1  0.00109510  0.33448961  0.07856867  1
  Ga  Ga3  1  -0.00109510  0.66551039  0.92143133  1
  Ga  Ga4  1  -0.00109510  0.66551039  0.57856867  1
  Ga  Ga5  1  0.33448961  0.00109510  0.42143133  1
  Ga  Ga6  1  0.00109510  0.33448961  0.42143133  1
  Ga  Ga7  1  0.66551039  -0.00109510  0.57856867  1
  Ga  Ga8  1  0.66551039  -0.00109510  0.92143133  1
  Ga  Ga9  1  0.33448961  0.00109510  0.07856867  1
  Ga  Ga10  1  0.33383680  0.33383680  0.56637064  1
  Ga  Ga11  1  0.66616320  0.66616320  0.43362936  1
  Ga  Ga12  1  0.66616320  0.66616320  0.06637064  1
  Ga  Ga13  1  0.33383680  0.33383680  0.93362936  1
  Ga  Ga14  1  0.33809952  0.54427842  0.25000000  1
  Ga  Ga15  1  0.66190048  0.45572158  0.75000000  1
  Ga  Ga16  1  0.54427842  0.33809952  0.25000000  1
  Ga  Ga17  1  0.45572158  0.66190048  0.75000000  1
  Ir  Ir0  1  0.67135216  0.32864784  0.00000000  1
  Ir  Ir1  1  0.32864784  0.67135216  0.00000000  1
  Ir  Ir2  1  0.32864784  0.67135216  0.50000000  1
  Ir  Ir3  1  0.67135216  0.32864784  0.50000000  1
  Ir  Ir4  1  0.00000000  0.00000000  0.00000000  1
  Ir  Ir5  1  0.00000000  0.00000000  0.50000000  1
loop_
_geom_bond_atom_site_label_1
_geom_bond_atom_site_label_2
_geom_bond_distance
_geom_bond_site_symmetry_2
Ga0 Ir4 2.561878 1_555
Ga0 Ir5 2.561878 1_555
Ga0 Ga14 2.696479 1_555
Ga0 Ga16 2.696479 1_555
Ga0 Ga2 2.720208 1_555
Ga0 Ga6 2.720208 1_555
Ga0 Ga5 2.720208 1_555
Ga0 Ga9 2.720208 1_555
Ga0 Tb0 3.087769 1_445
Ga0 Tb2 3.087769 1_445
Ga1 Ir5 2.561878 1_665
Ga1 Ir4 2.561878 1_666
Ga1 Ga17 2.696479 1_555
Ga1 Ga15 2.696479 1_555
Ga1 Ga7 2.720208 1_565
Ga1 Ga4 2.720208 1_655
Ga1 Ga8 2.720208 1_565
Ga1 Ga3 2.720208 1_655
Ga1 Tb3 3.087769 1_665
Ga1 Tb1 3.087769 1_665
Ga2 Ir0 2.563051 1_455
Ga2 Ir1 2.609141 1_555
Ga2 Ir4 2.613846 1_555
Ga2 Ga3 2.902411 1_554
Ga2 Ga8 2.931242 1_454
Ga2 Tb2 2.993895 1_445
Ga2 Tb0 3.000662 1_455
Ga2 Tb1 3.111415 1_554
Ga3 Ir1 2.563051 1_556
Ga3 Ir0 2.609141 1_456
Ga3 Ir4 2.613846 1_566
Ga3 Ga9 2.931242 1_566
Ga3 Tb3 2.993895 1_565
Ga3 Tb1 3.000662 1_555
Ga3 Tb0 3.111415 1_456
Ga4 Ir2 2.563051 1_555
Ga4 Ir3 2.609141 1_455
Ga4 Ir5 2.613846 1_565
Ga4 Ga6 2.902411 1_555
Ga4 Ga5 2.931242 1_565
Ga4 Tb3 2.993895 1_565
Ga4 Tb1 3.000662 1_555
Ga4 Tb0 3.111415 1_455
Ga5 Ir2 2.563051 1_545
Ga5 Ir3 2.609141 1_555
Ga5 Ir5 2.613846 1_555
Ga5 Ga7 2.902411 1_555
Ga5 Tb0 2.993895 1_445
Ga5 Tb2 3.000662 1_545
Ga5 Tb3 3.111415 1_555
Ga6 Ir3 2.563051 1_455
Ga6 Ir2 2.609141 1_555
Ga6 Ir5 2.613846 1_555
Ga6 Ga7 2.931242 1_455
Ga6 Tb2 2.993895 1_445
Ga6 Tb0 3.000662 1_455
Ga6 Tb1 3.111415 1_555
Ga7 Ir3 2.563051 1_555
Ga7 Ir2 2.609141 1_545
Ga7 Ir5 2.613846 1_655
Ga7 Tb1 2.993895 1_655
Ga7 Tb3 3.000662 1_555
Ga7 Tb2 3.111415 1_545
Ga8 Ir0 2.563051 1_556
Ga8 Ir1 2.609141 1_546
Ga8 Ir4 2.613846 1_656
Ga8 Ga9 2.902411 1_556
Ga8 Tb1 2.993895 1_655
Ga8 Tb3 3.000662 1_555
Ga8 Tb2 3.111415 1_546
Ga9 Ir1 2.563051 1_545
Ga9 Ir0 2.609141 1_555
Ga9 Ir4 2.613846 1_555
Ga9 Tb0 2.993895 1_445
Ga9 Tb2 3.000662 1_545
Ga9 Tb3 3.111415 1_554
Ga10 Ir5 2.589767 1_555
Ga10 Ir3 2.628329 1_555
Ga10 Ir2 2.628329 1_555
Ga10 Ga17 2.771538 1_555
Ga10 Ga15 2.771538 1_555
Ga10 Ga11 2.799077 1_555
Ga10 Ga5 2.851184 1_555
Ga10 Ga6 2.851184 1_555
Ga10 Tb3 3.026943 1_555
Ga10 Tb1 3.026943 1_555
Ga11 Ir5 2.589767 1_665
Ga11 Ir3 2.628329 1_555
Ga11 Ir2 2.628329 1_555
Ga11 Ga16 2.771538 1_555
Ga11 Ga14 2.771538 1_555
Ga11 Ga7 2.851184 1_565
Ga11 Ga4 2.851184 1_655
Ga11 Tb2 3.026943 1_555
Ga11 Tb0 3.026943 1_555
Ga12 Ir4 2.589767 1_665
Ga12 Ir1 2.628329 1_555
Ga12 Ir0 2.628329 1_555
Ga12 Ga16 2.771538 1_555
Ga12 Ga14 2.771538 1_555
Ga12 Ga13 2.799077 1_554
Ga12 Ga3 2.851184 1_654
Ga12 Ga8 2.851184 1_564
Ga12 Tb2 3.026943 1_555
Ga12 Tb0 3.026943 1_555
Ga13 Ir4 2.589767 1_556
Ga13 Ir1 2.628329 1_556
Ga13 Ir0 2.628329 1_556
Ga13 Ga17 2.771538 1_555
Ga13 Ga15 2.771538 1_555
Ga13 Ga2 2.851184 1_556
Ga13 Ga9 2.851184 1_556
Ga13 Tb3 3.026943 1_555
Ga13 Tb1 3.026943 1_555
Ga14 Ir2 2.566196 1_555
Ga14 Ir1 2.566196 1_555
Ga14 Ga16 2.676893 1_555
Ga14 Ga6 2.747803 1_555
Ga14 Ga2 2.747803 1_555
Ga14 Tb2 3.057954 1_555
Ga14 Tb0 3.126425 1_455
Ga15 Ir0 2.566196 1_556
Ga15 Ir3 2.566196 1_555
Ga15 Ga17 2.676893 1_555
Ga15 Ga3 2.747803 1_655
Ga15 Ga4 2.747803 1_655
Ga15 Tb3 3.057954 1_555
Ga15 Tb1 3.126425 1_655
Ga16 Ir3 2.566196 1_555
Ga16 Ir0 2.566196 1_555
Ga16 Ga5 2.747803 1_555
Ga16 Ga9 2.747803 1_555
Ga16 Tb0 3.057954 1_555
Ga16 Tb2 3.126425 1_545
Ga17 Ir2 2.566196 1_555
Ga17 Ir1 2.566196 1_556
Ga17 Ga7 2.747803 1_565
Ga17 Ga8 2.747803 1_565
Ga17 Tb1 3.057954 1_555
Ga17 Tb3 3.126425 1_565
