# generated using pymatgen
data_LaCo5
_symmetry_space_group_name_H-M   'P 1'
_cell_length_a   5.05352200
_cell_length_b   6.42409048
_cell_length_c   6.42409048
_cell_angle_alpha   76.14859279
_cell_angle_beta   66.83839607
_cell_angle_gamma   66.83839607
_symmetry_Int_Tables_number   1
_chemical_formula_structural   LaCo5
_chemical_formula_sum   'La2 Co10'
_cell_volume   175.40194341
_cell_formula_units_Z   2
loop_
 _symmetry_equiv_pos_site_id
 _symmetry_equiv_pos_as_xyz
  1  'x, y, z'
loop_
 _atom_site_type_symbol
 _atom_site_label
 _atom_site_symmetry_multiplicity
 _atom_site_fract_x
 _atom_site_fract_y
 _atom_site_fract_z
 _atom_site_occupancy
  La  La0  1  0.03189900  0.00000000  0.00000000  1
  La  La1  1  0.01133500  0.50000000  0.50000000  1
  Co  Co0  1  0.67331600  0.32001700  0.32001700  1
  Co  Co1  1  0.31334900  0.67998300  0.67998300  1
  Co  Co2  1  0.38443600  0.15603800  0.15603800  1
  Co  Co3  1  0.69651200  0.84396200  0.84396200  1
  Co  Co4  1  0.51871600  0.25809500  0.74190500  1
  Co  Co5  1  0.51871600  0.74190500  0.25809500  1
  Co  Co6  1  0.51808100  0.50598700  0.99371200  1
  Co  Co7  1  0.01777900  0.49401300  0.00628800  1
  Co  Co8  1  0.01777900  0.00628800  0.49401300  1
  Co  Co9  1  0.51808100  0.99371200  0.50598700  1
loop_
_geom_bond_atom_site_label_1
_geom_bond_atom_site_label_2
_geom_bond_distance
_geom_bond_site_symmetry_2
Co0 Co9 2.407084 1_545
Co0 Co6 2.407084 1_554
Co0 Co7 2.456355 1_655
Co0 Co8 2.456355 1_655
Co0 Co5 2.485285 1_555
Co0 Co4 2.485285 1_555
Co0 Co2 2.702107 1_555
Co0 La0 2.810519 1_655
Co0 La1 2.901656 1_555
Co0 La1 3.055991 1_655
Co1 Co8 2.407084 1_565
Co1 Co7 2.407084 1_556
Co1 Co6 2.456361 1_555
Co1 Co9 2.456361 1_555
Co1 Co4 2.485285 1_555
Co1 Co5 2.485285 1_555
Co1 Co3 2.702103 1_455
Co1 La0 2.810519 1_566
Co1 La1 2.901652 1_555
Co1 La1 3.055995 1_655
Co2 Co5 2.462286 1_545
Co2 Co4 2.462286 1_554
Co2 Co9 2.472937 1_545
Co2 Co6 2.472937 1_554
Co2 Co7 2.512009 1_555
Co2 Co8 2.512009 1_555
Co2 Co3 2.734180 1_544
Co2 La0 2.834845 1_655
Co2 La0 2.911069 1_555
Co2 La1 3.017137 1_555
Co3 Co4 2.462286 1_565
Co3 Co5 2.462286 1_556
Co3 Co7 2.472934 1_656
Co3 Co8 2.472934 1_665
Co3 Co6 2.512006 1_555
Co3 Co9 2.512006 1_555
Co3 La0 2.834845 1_666
Co3 La0 2.911069 1_566
Co3 La1 3.017137 1_655
Co4 Co8 2.525481 1_655
Co4 Co6 2.525483 1_555
Co4 Co9 2.534197 1_545
Co4 Co7 2.534200 1_556
Co4 La1 3.141824 1_655
Co4 La0 3.199081 1_556
Co4 La1 3.201257 1_555
Co4 La0 3.302644 1_656
Co5 Co7 2.525481 1_655
Co5 Co9 2.525483 1_555
Co5 Co6 2.534197 1_554
Co5 Co8 2.534200 1_565
Co5 La1 3.141824 1_655
Co5 La0 3.199081 1_565
Co5 La1 3.201257 1_555
Co5 La0 3.302644 1_665
Co6 Co7 2.528628 1_656
Co6 Co7 2.528639 1_556
Co6 La0 3.155843 1_566
Co6 La1 3.168291 1_655
Co6 La1 3.256280 1_556
Co6 La0 3.269529 1_656
Co7 La0 3.155841 1_555
Co7 La1 3.168293 1_555
Co7 La1 3.256277 1_554
Co7 La0 3.269531 1_565
Co8 Co9 2.528628 1_445
Co8 Co9 2.528639 1_545
Co8 La0 3.155841 1_555
Co8 La1 3.168293 1_555
Co8 La1 3.256277 1_545
Co8 La0 3.269531 1_556
Co9 La0 3.155843 1_566
Co9 La1 3.168291 1_655
Co9 La1 3.256280 1_565
Co9 La0 3.269529 1_665
