# generated using pymatgen
data_KP2(HO2)4
_symmetry_space_group_name_H-M   'P 1'
_cell_length_a   10.93861200
_cell_length_b   7.89561500
_cell_length_c   9.80071346
_cell_angle_alpha   68.00310138
_cell_angle_beta   90.00000000
_cell_angle_gamma   90.00000000
_symmetry_Int_Tables_number   1
_chemical_formula_structural   KP2(HO2)4
_chemical_formula_sum   'K4 P8 H16 O32'
_cell_volume   784.84018405
_cell_formula_units_Z   4
loop_
 _symmetry_equiv_pos_site_id
 _symmetry_equiv_pos_as_xyz
  1  'x, y, z'
loop_
 _atom_site_type_symbol
 _atom_site_label
 _atom_site_symmetry_multiplicity
 _atom_site_fract_x
 _atom_site_fract_y
 _atom_site_fract_z
 _atom_site_occupancy
  K  K0  1  0.61631700  0.29490100  0.14325400  1
  K  K1  1  0.38368300  0.70509900  0.85674600  1
  K  K2  1  0.11631700  0.70509900  0.35674600  1
  K  K3  1  0.88368300  0.29490100  0.64325400  1
  P  P0  1  0.77197300  0.86937600  0.28095100  1
  P  P1  1  0.22802700  0.13062400  0.71904900  1
  P  P2  1  0.27197300  0.13062400  0.21904900  1
  P  P3  1  0.72802700  0.86937600  0.78095100  1
  P  P4  1  0.93022300  0.38430200  0.23457200  1
  P  P5  1  0.06977700  0.61569800  0.76542800  1
  P  P6  1  0.43022300  0.61569800  0.26542800  1
  P  P7  1  0.56977700  0.38430200  0.73457200  1
  H  H0  1  0.57883800  0.79494100  0.13043800  1
  H  H1  1  0.42116200  0.20505900  0.86956200  1
  H  H2  1  0.07883800  0.20505900  0.36956200  1
  H  H3  1  0.92116200  0.79494100  0.63043800  1
  H  H4  1  0.41998200  0.92508600  0.29796300  1
  H  H5  1  0.58001800  0.07491400  0.70203700  1
  H  H6  1  0.91998200  0.07491400  0.20203700  1
  H  H7  1  0.08001800  0.92508600  0.79796300  1
  H  H8  1  0.78119000  0.56631000  0.34288800  1
  H  H9  1  0.21881000  0.43369000  0.65711200  1
  H  H10  1  0.28119000  0.43369000  0.15711200  1
  H  H11  1  0.71881000  0.56631000  0.84288800  1
  H  H12  1  0.73937400  0.95821100  0.46734900  1
  H  H13  1  0.26062600  0.04178900  0.53265100  1
  H  H14  1  0.23937400  0.04178900  0.03265100  1
  H  H15  1  0.76062600  0.95821100  0.96734900  1
  O  O0  1  0.77457500  0.66466200  0.38943400  1
  O  O1  1  0.22542500  0.33533800  0.61056600  1
  O  O2  1  0.27457500  0.33533800  0.11056600  1
  O  O3  1  0.72542500  0.66466200  0.88943400  1
  O  O4  1  0.70217100  0.90557600  0.13914300  1
  O  O5  1  0.29782900  0.09442400  0.86085700  1
  O  O6  1  0.20217100  0.09442400  0.36085700  1
  O  O7  1  0.79782900  0.90557600  0.63914300  1
  O  O8  1  0.92200500  0.27339700  0.13755000  1
  O  O9  1  0.07799500  0.72660300  0.86245000  1
  O  O10  1  0.42200500  0.72660300  0.36245000  1
  O  O11  1  0.57799500  0.27339700  0.63755000  1
  O  O12  1  0.70749800  0.98052000  0.36519800  1
  O  O13  1  0.29250200  0.01948000  0.63480200  1
  O  O14  1  0.20749800  0.01948000  0.13480200  1
  O  O15  1  0.79250200  0.98052000  0.86519800  1
  O  O16  1  0.50338700  0.72734500  0.11723800  1
  O  O17  1  0.49661300  0.27265500  0.88276200  1
  O  O18  1  0.00338700  0.27265500  0.38276200  1
  O  O19  1  0.99661300  0.72734500  0.61723800  1
  O  O20  1  0.80351600  0.42487700  0.28441000  1
  O  O21  1  0.19648400  0.57512300  0.71559000  1
  O  O22  1  0.30351600  0.57512300  0.21559000  1
  O  O23  1  0.69648400  0.42487700  0.78441000  1
  O  O24  1  0.98844900  0.57584900  0.16135400  1
  O  O25  1  0.01155100  0.42415100  0.83864600  1
  O  O26  1  0.48844900  0.42415100  0.33864600  1
  O  O27  1  0.51155100  0.57584900  0.66135400  1
  O  O28  1  0.90913100  0.93186600  0.25419800  1
  O  O29  1  0.09086900  0.06813400  0.74580200  1
  O  O30  1  0.40913100  0.06813400  0.24580200  1
  O  O31  1  0.59086900  0.93186600  0.75419800  1
loop_
_geom_bond_atom_site_label_1
_geom_bond_atom_site_label_2
_geom_bond_distance
_geom_bond_site_symmetry_2
K0 O12 2.800547 1_545
K0 O30 2.829150 1_555
K0 O26 2.851123 1_555
K0 O20 2.867691 1_555
K0 O17 2.932428 1_554
K1 O13 2.800547 1_565
K1 O31 2.829150 1_555
K1 O27 2.851123 1_555
K1 O21 2.867691 1_555
K1 O16 2.932428 1_556
K2 O14 2.800547 1_565
K2 O28 2.829150 1_455
K2 O24 2.851123 1_455
K2 O22 2.867691 1_555
K2 O19 2.932428 1_455
K3 O15 2.800547 1_545
K3 O29 2.829150 1_655
K3 O25 2.851123 1_655
K3 O23 2.867691 1_555
K3 O18 2.932428 1_655
H0 O16 1.017092 1_555
H0 O4 1.626718 1_555
H1 O17 1.017092 1_555
H1 O5 1.626718 1_555
H2 O18 1.017092 1_555
H2 O6 1.626718 1_555
H3 O19 1.017092 1_555
H3 O7 1.626718 1_555
H4 O30 1.057619 1_565
H4 O10 1.453930 1_555
H5 O31 1.057619 1_545
H5 O11 1.453930 1_555
H6 O28 1.057619 1_545
H6 O8 1.453930 1_555
H7 O29 1.057619 1_565
H7 O9 1.453930 1_555
H8 O0 1.040068 1_555
H8 O20 1.454158 1_555
H9 O1 1.040068 1_555
H9 O21 1.454158 1_555
H10 O2 1.040068 1_555
H10 O22 1.454158 1_555
H11 O3 1.040068 1_555
H11 O23 1.454158 1_555
H12 O12 1.011339 1_555
H12 O7 1.700662 1_555
H13 O13 1.011339 1_555
H13 O6 1.700662 1_555
H14 O14 1.011339 1_555
H14 O5 1.700662 1_554
H15 O15 1.011339 1_555
H15 O4 1.700662 1_556
O0 P0 1.567301 1_555
O1 P1 1.567301 1_555
O2 P2 1.567301 1_555
O3 P3 1.567301 1_555
O4 P0 1.516148 1_555
O5 P1 1.516148 1_555
O6 P2 1.516148 1_555
O7 P3 1.516148 1_555
O8 P4 1.517498 1_555
O9 P5 1.517498 1_555
O10 P6 1.517498 1_555
O11 P7 1.517498 1_555
O12 P0 1.578618 1_555
O13 P1 1.578618 1_555
O14 P2 1.578618 1_555
O15 P3 1.578618 1_555
O16 P6 1.602457 1_555
O17 P7 1.602457 1_555
O18 P4 1.602457 1_455
O19 P5 1.602457 1_655
O20 P4 1.542540 1_555
O21 P5 1.542540 1_555
O22 P6 1.542540 1_555
O23 P7 1.542540 1_555
O24 P4 1.547546 1_555
O25 P5 1.547546 1_555
O26 P6 1.547546 1_555
O27 P7 1.547546 1_555
O28 P0 1.570424 1_555
O29 P1 1.570424 1_555
O30 P2 1.570424 1_555
O31 P3 1.570424 1_555
