# generated using pymatgen
data_CsBa2Ni2F9
_symmetry_space_group_name_H-M   'P 1'
_cell_length_a   7.97784049
_cell_length_b   7.97784049
_cell_length_c   7.97784116
_cell_angle_alpha   43.63641588
_cell_angle_beta   43.63641588
_cell_angle_gamma   43.63641334
_symmetry_Int_Tables_number   1
_chemical_formula_structural   CsBa2Ni2F9
_chemical_formula_sum   'Cs1 Ba2 Ni2 F9'
_cell_volume   219.45366767
_cell_formula_units_Z   1
loop_
 _symmetry_equiv_pos_site_id
 _symmetry_equiv_pos_as_xyz
  1  'x, y, z'
loop_
 _atom_site_type_symbol
 _atom_site_label
 _atom_site_symmetry_multiplicity
 _atom_site_fract_x
 _atom_site_fract_y
 _atom_site_fract_z
 _atom_site_occupancy
  Cs  Cs0  1  0.21285100  0.21285100  0.21285100  1
  Ba  Ba0  1  0.99856400  0.99856400  0.99856400  1
  Ba  Ba1  1  0.79406700  0.79406700  0.79406700  1
  Ni  Ni0  1  0.38733400  0.38733400  0.38733400  1
  Ni  Ni1  1  0.60861200  0.60861200  0.60861200  1
  F  F0  1  0.50858300  0.50858300  0.98998700  1
  F  F1  1  0.50858300  0.98998700  0.50858300  1
  F  F2  1  0.98998700  0.50858300  0.50858300  1
  F  F3  1  0.76662500  0.26689500  0.26689500  1
  F  F4  1  0.26689500  0.26689500  0.76662500  1
  F  F5  1  0.26689500  0.76662500  0.26689500  1
  F  F6  1  0.22390600  0.73355000  0.73355000  1
  F  F7  1  0.73355000  0.73355000  0.22390600  1
  F  F8  1  0.73355000  0.22390600  0.73355000  1
loop_
_geom_bond_atom_site_label_1
_geom_bond_atom_site_label_2
_geom_bond_distance
_geom_bond_site_symmetry_2
Cs0 F5 2.978344 1_545
Cs0 F3 2.978344 1_455
Cs0 F4 2.978344 1_554
Cs0 F7 2.989243 1_545
Cs0 F7 2.989243 1_455
Cs0 F6 2.989243 1_554
Cs0 F8 2.989243 1_554
Cs0 F6 2.989243 1_545
Cs0 F8 2.989243 1_455
Cs0 F0 3.194879 1_554
Cs0 F1 3.194879 1_545
Cs0 F2 3.194879 1_455
Ba0 F7 2.763847 1_556
Ba0 F6 2.763847 1_655
Ba0 F8 2.763847 1_565
Ba0 F4 2.784806 1_665
Ba0 F3 2.784806 1_566
Ba0 F5 2.784806 1_656
Ba0 F0 2.966900 1_565
Ba0 F0 2.966900 1_655
Ba0 F2 2.966900 1_565
Ba0 F1 2.966900 1_655
Ba0 F1 2.966900 1_556
Ba0 F2 2.966900 1_556
Ba1 F6 2.787483 1_655
Ba1 F8 2.787483 1_565
Ba1 F7 2.787483 1_556
Ba1 F4 3.023068 1_565
Ba1 F4 3.023068 1_655
Ba1 F5 3.023068 1_556
Ba1 F3 3.023068 1_556
Ba1 F5 3.023068 1_655
Ba1 F3 3.023068 1_565
Ba1 F0 3.165479 1_555
Ba1 F1 3.165479 1_555
Ba1 F2 3.165479 1_555
F0 Ni0 2.097050 1_556
F0 Ni1 2.103247 1_555
F1 Ni0 2.097050 1_565
F1 Ni1 2.103247 1_555
F2 Ni0 2.097050 1_655
F2 Ni1 2.103247 1_555
F3 Ni0 1.980439 1_555
F4 Ni0 1.980440 1_555
F5 Ni0 1.980439 1_555
F6 Ni1 1.997150 1_555
F7 Ni1 1.997150 1_555
F8 Ni1 1.997150 1_555
