# generated using pymatgen
data_Eu4PdO7
_symmetry_space_group_name_H-M   'P 1'
_cell_length_a   6.85607132
_cell_length_b   7.12722709
_cell_length_c   7.85351040
_cell_angle_alpha   69.90171232
_cell_angle_beta   72.03211921
_cell_angle_gamma   83.71176249
_symmetry_Int_Tables_number   1
_chemical_formula_structural   Eu4PdO7
_chemical_formula_sum   'Eu8 Pd2 O14'
_cell_volume   342.81171184
_cell_formula_units_Z   2
loop_
 _symmetry_equiv_pos_site_id
 _symmetry_equiv_pos_as_xyz
  1  'x, y, z'
loop_
 _atom_site_type_symbol
 _atom_site_label
 _atom_site_symmetry_multiplicity
 _atom_site_fract_x
 _atom_site_fract_y
 _atom_site_fract_z
 _atom_site_occupancy
  Eu  Eu0  1  0.79025724  0.37762075  0.21108563  1
  Eu  Eu1  1  0.20974276  0.62237925  0.78891437  1
  Eu  Eu2  1  0.36205967  0.14031775  0.14385598  1
  Eu  Eu3  1  0.63794033  0.85968225  0.85614402  1
  Eu  Eu4  1  0.20797432  0.60716940  0.27375947  1
  Eu  Eu5  1  0.79202568  0.39283060  0.72624053  1
  Eu  Eu6  1  0.33706282  0.17049460  0.61886386  1
  Eu  Eu7  1  0.66293718  0.82950540  0.38113614  1
  Pd  Pd0  1  0.00000000  0.00000000  -0.00000000  1
  Pd  Pd1  1  0.00000000  0.00000000  0.50000000  1
  O  O0  1  0.70548907  0.07371781  0.51214134  1
  O  O1  1  0.29451093  0.92628219  0.48785866  1
  O  O2  1  0.14717217  0.41362889  0.09975092  1
  O  O3  1  0.85282783  0.58637111  0.90024908  1
  O  O4  1  0.51558605  0.77944112  0.17527847  1
  O  O5  1  0.48441395  0.22055888  0.82472153  1
  O  O6  1  0.43931441  0.33918739  0.29993753  1
  O  O7  1  0.56068559  0.66081261  0.70006247  1
  O  O8  1  0.04823281  0.93259773  0.25812819  1
  O  O9  1  0.95176719  0.06740227  0.74187181  1
  O  O10  1  0.73756660  0.14141287  0.07940480  1
  O  O11  1  0.26243340  0.85858713  0.92059520  1
  O  O12  1  0.15407598  0.46204436  0.60112344  1
  O  O13  1  0.84592402  0.53795564  0.39887656  1
loop_
_geom_bond_atom_site_label_1
_geom_bond_atom_site_label_2
_geom_bond_distance
_geom_bond_site_symmetry_2
Eu0 O13 2.286415 1_555
Eu0 O6 2.308326 1_555
Eu0 O3 2.313968 1_554
Eu0 O2 2.341291 1_655
Eu0 O10 2.365255 1_555
Eu0 O0 2.554955 1_555
Eu1 O12 2.286415 1_555
Eu1 O7 2.308326 1_555
Eu1 O2 2.313968 1_556
Eu1 O3 2.341291 1_455
Eu1 O11 2.365255 1_555
Eu1 O1 2.554955 1_555
Eu2 O5 2.266114 1_554
Eu2 O2 2.303803 1_555
Eu2 O6 2.356095 1_555
Eu2 O10 2.466176 1_555
Eu2 O8 2.493992 1_545
Eu2 O1 2.528001 1_545
Eu2 O4 2.629687 1_545
Eu3 O4 2.266114 1_556
Eu3 O3 2.303803 1_555
Eu3 O7 2.356095 1_555
Eu3 O11 2.466176 1_555
Eu3 O9 2.493992 1_565
Eu3 O0 2.528001 1_565
Eu3 O5 2.629687 1_565
Eu4 O4 2.337067 1_555
Eu4 O6 2.339575 1_555
Eu4 O12 2.342266 1_555
Eu4 O2 2.391035 1_555
Eu4 O13 2.408459 1_455
Eu4 O8 2.434124 1_555
Eu4 O11 2.671148 1_554
Eu5 O5 2.337067 1_555
Eu5 O7 2.339575 1_555
Eu5 O13 2.342266 1_555
Eu5 O3 2.391035 1_555
Eu5 O12 2.408459 1_655
Eu5 O9 2.434124 1_555
Eu5 O10 2.671148 1_556
Eu6 O6 2.289577 1_555
Eu6 O5 2.290146 1_555
Eu6 O12 2.291069 1_555
Eu6 O1 2.387539 1_545
Eu6 O0 2.503629 1_555
Eu6 O11 2.588372 1_545
Eu6 O9 2.610393 1_455
Eu7 O7 2.289577 1_555
Eu7 O4 2.290146 1_555
Eu7 O13 2.291069 1_555
Eu7 O0 2.387539 1_565
Eu7 O1 2.503629 1_555
Eu7 O10 2.588372 1_565
Eu7 O8 2.610393 1_655
O0 Pd1 2.011344 1_655
O1 Pd1 2.011344 1_565
O8 Pd1 2.037937 1_565
O8 Pd0 2.039418 1_565
O9 Pd1 2.037937 1_655
O9 Pd0 2.039418 1_656
O10 Pd0 1.996122 1_655
O11 Pd0 1.996122 1_566
