# generated using pymatgen
data_Ca3Cu2(Si2O7)2
_symmetry_space_group_name_H-M   'P 1'
_cell_length_a   9.30362806
_cell_length_b   9.30362806
_cell_length_c   10.13335266
_cell_angle_alpha   61.21371571
_cell_angle_beta   61.21371571
_cell_angle_gamma   48.73385904
_symmetry_Int_Tables_number   1
_chemical_formula_structural   Ca3Cu2(Si2O7)2
_chemical_formula_sum   'Ca6 Cu4 Si8 O28'
_cell_volume   559.63756926
_cell_formula_units_Z   2
loop_
 _symmetry_equiv_pos_site_id
 _symmetry_equiv_pos_as_xyz
  1  'x, y, z'
loop_
 _atom_site_type_symbol
 _atom_site_label
 _atom_site_symmetry_multiplicity
 _atom_site_fract_x
 _atom_site_fract_y
 _atom_site_fract_z
 _atom_site_occupancy
  Ca  Ca0  1  0.22788600  0.16292000  0.54046000  1
  Ca  Ca1  1  0.83708000  0.77211400  0.95954000  1
  Ca  Ca2  1  0.16292000  0.22788600  0.04046000  1
  Ca  Ca3  1  0.65780300  0.34219700  0.25000000  1
  Ca  Ca4  1  0.77211400  0.83708000  0.45954000  1
  Ca  Ca5  1  0.34219700  0.65780300  0.75000000  1
  Cu  Cu0  1  0.21787100  0.78212900  0.25000000  1
  Cu  Cu1  1  0.78212900  0.21787100  0.75000000  1
  Cu  Cu2  1  0.00000000  0.00000000  0.00000000  1
  Cu  Cu3  1  0.00000000  0.00000000  0.50000000  1
  Si  Si0  1  0.10947800  0.53475400  0.66168300  1
  Si  Si1  1  0.53475400  0.10947800  0.16168300  1
  Si  Si2  1  0.21039400  0.53728400  0.14664300  1
  Si  Si3  1  0.53728400  0.21039400  0.64664300  1
  Si  Si4  1  0.46524600  0.89052200  0.83831700  1
  Si  Si5  1  0.78960600  0.46271600  0.85335700  1
  Si  Si6  1  0.46271600  0.78960600  0.35335700  1
  Si  Si7  1  0.89052200  0.46524600  0.33831700  1
  O  O0  1  0.29926700  0.87809200  0.50412100  1
  O  O1  1  0.89460200  0.98414900  0.71141500  1
  O  O2  1  0.64991300  0.45164700  0.81072500  1
  O  O3  1  0.98414900  0.89460200  0.21141500  1
  O  O4  1  0.95602200  0.25833700  0.47150000  1
  O  O5  1  0.51310300  0.04851600  0.81465500  1
  O  O6  1  0.45164700  0.64991300  0.31072500  1
  O  O7  1  0.74166300  0.04397800  0.02850000  1
  O  O8  1  0.48689700  0.95148400  0.18534500  1
  O  O9  1  0.67519800  0.65572100  0.40477200  1
  O  O10  1  0.10539800  0.01585100  0.28858500  1
  O  O11  1  0.04397800  0.74166300  0.52850000  1
  O  O12  1  0.95148400  0.48689700  0.68534500  1
  O  O13  1  0.87809200  0.29926700  0.00412100  1
  O  O14  1  0.65572100  0.67519800  0.90477200  1
  O  O15  1  0.25833700  0.95602200  0.97150000  1
  O  O16  1  0.47017300  0.89246300  0.67621000  1
  O  O17  1  0.32480200  0.34427900  0.59522800  1
  O  O18  1  0.10753700  0.52982700  0.82379000  1
  O  O19  1  0.34427900  0.32480200  0.09522800  1
  O  O20  1  0.04851600  0.51310300  0.31465500  1
  O  O21  1  0.01585100  0.10539800  0.78858500  1
  O  O22  1  0.89246300  0.47017300  0.17621000  1
  O  O23  1  0.35008700  0.54835300  0.18927500  1
  O  O24  1  0.52982700  0.10753700  0.32379000  1
  O  O25  1  0.54835300  0.35008700  0.68927500  1
  O  O26  1  0.12190800  0.70073300  0.99587900  1
  O  O27  1  0.70073300  0.12190800  0.49587900  1
loop_
_geom_bond_atom_site_label_1
_geom_bond_atom_site_label_2
_geom_bond_distance
_geom_bond_site_symmetry_2
Ca0 O16 2.340023 1_545
Ca0 O4 2.411799 1_455
Ca0 O21 2.412380 1_555
Ca0 O0 2.445736 1_545
Ca0 O24 2.493502 1_555
Ca0 O17 2.712686 1_555
Ca0 O20 2.821522 1_555
Ca0 O12 2.873127 1_455
Ca1 O18 2.340023 1_655
Ca1 O7 2.411799 1_566
Ca1 O1 2.412380 1_555
Ca1 O26 2.445736 1_655
Ca1 O22 2.493502 1_556
Ca1 O14 2.712686 1_555
Ca1 O8 2.821522 1_556
Ca1 O5 2.873127 1_565
Ca2 O22 2.340023 1_455
Ca2 O15 2.411799 1_544
Ca2 O10 2.412380 1_555
Ca2 O13 2.445736 1_455
Ca2 O18 2.493502 1_554
Ca2 O19 2.712686 1_555
Ca2 O5 2.821522 1_554
Ca2 O8 2.873127 1_545
Ca3 O27 2.351284 1_555
Ca3 O13 2.351284 1_555
Ca3 O6 2.360115 1_555
Ca3 O23 2.360115 1_555
Ca3 O24 2.782504 1_555
Ca3 O22 2.782504 1_555
Ca4 O24 2.340023 1_565
Ca4 O11 2.411799 1_655
Ca4 O3 2.412380 1_555
Ca4 O27 2.445736 1_565
Ca4 O16 2.493502 1_555
Ca4 O9 2.712686 1_555
Ca4 O12 2.821522 1_555
Ca4 O20 2.873127 1_655
Ca5 O26 2.351284 1_555
Ca5 O0 2.351284 1_555
Ca5 O2 2.360115 1_555
Ca5 O25 2.360115 1_555
Ca5 O18 2.782504 1_555
Ca5 O16 2.782504 1_555
Cu0 O3 1.843756 1_455
Cu0 O10 1.843756 1_565
Cu0 O23 1.911295 1_555
Cu0 O6 1.911295 1_555
Cu0 O11 2.471146 1_555
Cu0 O15 2.471146 1_554
Cu1 O1 1.843756 1_545
Cu1 O21 1.843756 1_655
Cu1 O25 1.911295 1_555
Cu1 O2 1.911295 1_555
Cu1 O7 2.471146 1_556
Cu1 O4 2.471146 1_555
Cu2 O3 1.853700 1_445
Cu2 O21 1.853700 1_554
Cu2 O15 2.043424 1_544
Cu2 O7 2.043424 1_455
Cu2 O26 2.222843 1_544
Cu2 O13 2.222843 1_455
Cu3 O10 1.853700 1_555
Cu3 O1 1.853700 1_445
Cu3 O4 2.043424 1_455
Cu3 O11 2.043424 1_545
Cu3 O27 2.222843 1_455
Cu3 O0 2.222843 1_545
O0 Si6 1.626847 1_555
O2 Si5 1.626794 1_555
O4 Si7 1.625105 1_555
O5 Si3 1.681074 1_555
O5 Si4 1.684475 1_545
O6 Si6 1.626794 1_555
O7 Si1 1.625105 1_555
O8 Si6 1.681074 1_555
O8 Si1 1.684475 1_565
O9 Si7 1.665585 1_555
O9 Si6 1.688100 1_555
O11 Si0 1.625105 1_555
O12 Si5 1.681074 1_555
O12 Si0 1.684475 1_655
O13 Si5 1.626847 1_554
O14 Si4 1.665585 1_555
O14 Si5 1.688100 1_555
O15 Si4 1.625105 1_555
O16 Si4 1.612716 1_555
O17 Si0 1.665585 1_555
O17 Si3 1.688100 1_555
O18 Si0 1.612716 1_555
O19 Si1 1.665585 1_555
O19 Si2 1.688100 1_555
O20 Si2 1.681074 1_555
O20 Si7 1.684475 1_455
O22 Si7 1.612716 1_555
O23 Si2 1.626794 1_555
O24 Si1 1.612716 1_555
O25 Si3 1.626794 1_555
O26 Si2 1.626847 1_556
O27 Si3 1.626847 1_555
