# generated using pymatgen
data_MgSn5
_symmetry_space_group_name_H-M   'P 1'
_cell_length_a   13.06007752
_cell_length_b   13.06007752
_cell_length_c   15.69166876
_cell_angle_alpha   74.27441906
_cell_angle_beta   74.27441906
_cell_angle_gamma   30.28393501
_symmetry_Int_Tables_number   1
_chemical_formula_structural   MgSn5
_chemical_formula_sum   'Mg8 Sn40'
_cell_volume   1295.40477622
_cell_formula_units_Z   8
loop_
 _symmetry_equiv_pos_site_id
 _symmetry_equiv_pos_as_xyz
  1  'x, y, z'
loop_
 _atom_site_type_symbol
 _atom_site_label
 _atom_site_symmetry_multiplicity
 _atom_site_fract_x
 _atom_site_fract_y
 _atom_site_fract_z
 _atom_site_occupancy
  Mg  Mg0_0  1  0.30551100  0.30551100  0.13882350  1
  Mg  Mg0_1  1  0.30551100  0.30551100  0.63882350  1
  Mg  Mg0_2  1  0.30551100  0.80551100  0.13882350  1
  Mg  Mg0_3  1  0.30551100  0.80551100  0.63882350  1
  Mg  Mg0_4  1  0.80551100  0.30551100  0.13882350  1
  Mg  Mg0_5  1  0.80551100  0.30551100  0.63882350  1
  Mg  Mg0_6  1  0.80551100  0.80551100  0.13882350  1
  Mg  Mg0_7  1  0.80551100  0.80551100  0.63882350  1
  Sn  Sn0_0  1  0.00159450  0.00159450  0.00276650  1
  Sn  Sn0_1  1  0.00159450  0.00159450  0.50276650  1
  Sn  Sn0_2  1  0.00159450  0.50159450  0.00276650  1
  Sn  Sn0_3  1  0.00159450  0.50159450  0.50276650  1
  Sn  Sn0_4  1  0.50159450  0.00159450  0.00276650  1
  Sn  Sn0_5  1  0.50159450  0.00159450  0.50276650  1
  Sn  Sn0_6  1  0.50159450  0.50159450  0.00276650  1
  Sn  Sn0_7  1  0.50159450  0.50159450  0.50276650  1
  Sn  Sn1_0  1  0.16510400  0.16510400  0.16625400  1
  Sn  Sn1_1  1  0.16510400  0.16510400  0.66625400  1
  Sn  Sn1_2  1  0.16510400  0.66510400  0.16625400  1
  Sn  Sn1_3  1  0.16510400  0.66510400  0.66625400  1
  Sn  Sn1_4  1  0.66510400  0.16510400  0.16625400  1
  Sn  Sn1_5  1  0.66510400  0.16510400  0.66625400  1
  Sn  Sn1_6  1  0.66510400  0.66510400  0.16625400  1
  Sn  Sn1_7  1  0.66510400  0.66510400  0.66625400  1
  Sn  Sn2_0  1  0.47461050  0.47461050  0.30190300  1
  Sn  Sn2_1  1  0.47461050  0.47461050  0.80190300  1
  Sn  Sn2_2  1  0.47461050  0.97461050  0.30190300  1
  Sn  Sn2_3  1  0.47461050  0.97461050  0.80190300  1
  Sn  Sn2_4  1  0.97461050  0.47461050  0.30190300  1
  Sn  Sn2_5  1  0.97461050  0.47461050  0.80190300  1
  Sn  Sn2_6  1  0.97461050  0.97461050  0.30190300  1
  Sn  Sn2_7  1  0.97461050  0.97461050  0.80190300  1
  Sn  Sn3_0  1  0.33288950  0.33288950  0.33253700  1
  Sn  Sn3_1  1  0.33288950  0.33288950  0.83253700  1
  Sn  Sn3_2  1  0.33288950  0.83288950  0.33253700  1
  Sn  Sn3_3  1  0.33288950  0.83288950  0.83253700  1
  Sn  Sn3_4  1  0.83288950  0.33288950  0.33253700  1
  Sn  Sn3_5  1  0.83288950  0.33288950  0.83253700  1
  Sn  Sn3_6  1  0.83288950  0.83288950  0.33253700  1
  Sn  Sn3_7  1  0.83288950  0.83288950  0.83253700  1
  Sn  Sn4_0  1  0.13695700  0.13695700  0.47438300  1
  Sn  Sn4_1  1  0.13695700  0.13695700  0.97438300  1
  Sn  Sn4_2  1  0.13695700  0.63695700  0.47438300  1
  Sn  Sn4_3  1  0.13695700  0.63695700  0.97438300  1
  Sn  Sn4_4  1  0.63695700  0.13695700  0.47438300  1
  Sn  Sn4_5  1  0.63695700  0.13695700  0.97438300  1
  Sn  Sn4_6  1  0.63695700  0.63695700  0.47438300  1
  Sn  Sn4_7  1  0.63695700  0.63695700  0.97438300  1
loop_
_geom_bond_atom_site_label_1
_geom_bond_atom_site_label_2
_geom_bond_distance
_geom_bond_site_symmetry_2
Mg0_0 Sn2_4 3.269157 1_455
Mg0_0 Sn2_2 3.269157 1_545
Mg0_0 Sn4_3 3.287712 1_554
Mg0_0 Sn4_5 3.287712 1_554
Mg0_0 Sn3_0 3.300688 1_555
Mg0_0 Sn0_4 3.308376 1_555
Mg0_0 Sn0_2 3.308376 1_555
Mg0_0 Sn1_2 3.376083 1_555
Mg0_0 Sn1_4 3.376083 1_555
Mg0_0 Mg0_6 3.411444 1_455
Mg0_0 Mg0_6 3.411444 1_545
Mg0_0 Sn1_0 3.444135 1_555
Mg0_1 Sn2_5 3.269157 1_455
Mg0_1 Sn2_3 3.269157 1_545
Mg0_1 Sn4_2 3.287712 1_555
Mg0_1 Sn4_4 3.287712 1_555
Mg0_1 Sn3_1 3.300688 1_555
Mg0_1 Sn0_5 3.308376 1_555
Mg0_1 Sn0_3 3.308376 1_555
Mg0_1 Sn1_3 3.376083 1_555
Mg0_1 Sn1_5 3.376083 1_555
Mg0_1 Mg0_7 3.411444 1_545
Mg0_1 Mg0_7 3.411444 1_455
Mg0_1 Sn1_1 3.444135 1_555
Mg0_2 Sn2_0 3.269157 1_555
Mg0_2 Sn2_6 3.269157 1_455
Mg0_2 Sn4_7 3.287712 1_554
Mg0_2 Sn4_1 3.287712 1_564
Mg0_2 Sn3_2 3.300688 1_555
Mg0_2 Sn0_0 3.308376 1_565
Mg0_2 Sn0_6 3.308376 1_555
Mg0_2 Sn1_6 3.376083 1_555
Mg0_2 Sn1_0 3.376083 1_565
Mg0_2 Mg0_4 3.411444 1_555
Mg0_2 Mg0_4 3.411444 1_465
Mg0_2 Sn1_2 3.444135 1_555
Mg0_3 Sn2_7 3.269157 1_455
Mg0_3 Sn2_1 3.269157 1_555
Mg0_3 Sn4_6 3.287712 1_555
Mg0_3 Sn4_0 3.287712 1_565
Mg0_3 Sn3_3 3.300688 1_555
Mg0_3 Sn0_1 3.308376 1_565
Mg0_3 Sn0_7 3.308376 1_555
Mg0_3 Sn1_1 3.376083 1_565
Mg0_3 Sn1_7 3.376083 1_555
Mg0_3 Mg0_5 3.411444 1_555
Mg0_3 Mg0_5 3.411444 1_465
Mg0_3 Sn1_3 3.444135 1_555
Mg0_4 Sn2_6 3.269157 1_545
Mg0_4 Sn2_0 3.269157 1_555
Mg0_4 Sn4_7 3.287712 1_554
Mg0_4 Sn4_1 3.287712 1_654
Mg0_4 Sn3_4 3.300688 1_555
Mg0_4 Sn0_0 3.308376 1_655
Mg0_4 Sn0_6 3.308376 1_555
Mg0_4 Sn1_6 3.376083 1_555
Mg0_4 Sn1_0 3.376083 1_655
Mg0_4 Sn1_4 3.444135 1_555
Mg0_5 Sn2_7 3.269157 1_545
Mg0_5 Sn2_1 3.269157 1_555
Mg0_5 Sn4_0 3.287712 1_655
Mg0_5 Sn4_6 3.287712 1_555
Mg0_5 Sn3_5 3.300688 1_555
Mg0_5 Sn0_1 3.308376 1_655
Mg0_5 Sn0_7 3.308376 1_555
Mg0_5 Sn1_1 3.376083 1_655
Mg0_5 Sn1_7 3.376083 1_555
Mg0_5 Sn1_5 3.444135 1_555
Mg0_6 Sn2_2 3.269157 1_555
Mg0_6 Sn2_4 3.269157 1_555
Mg0_6 Sn4_3 3.287712 1_654
Mg0_6 Sn4_5 3.287712 1_564
Mg0_6 Sn3_6 3.300688 1_555
Mg0_6 Sn0_4 3.308376 1_565
Mg0_6 Sn0_2 3.308376 1_655
Mg0_6 Sn1_2 3.376083 1_655
Mg0_6 Sn1_4 3.376083 1_565
Mg0_6 Sn1_6 3.444135 1_555
Mg0_7 Sn2_5 3.269157 1_555
Mg0_7 Sn2_3 3.269157 1_555
Mg0_7 Sn4_2 3.287712 1_655
Mg0_7 Sn4_4 3.287712 1_565
Mg0_7 Sn3_7 3.300688 1_555
Mg0_7 Sn0_3 3.308376 1_655
Mg0_7 Sn0_5 3.308376 1_565
Mg0_7 Sn1_3 3.376083 1_655
Mg0_7 Sn1_5 3.376083 1_565
Mg0_7 Sn1_7 3.444135 1_555
Sn0_0 Sn1_2 3.332366 1_545
Sn0_0 Sn1_4 3.332366 1_455
Sn0_1 Sn1_5 3.332366 1_455
Sn0_1 Sn1_3 3.332366 1_545
Sn0_2 Sn1_0 3.332366 1_555
Sn0_2 Sn1_6 3.332366 1_455
Sn0_3 Sn1_1 3.332366 1_555
Sn0_3 Sn1_7 3.332366 1_455
Sn0_4 Sn1_0 3.332366 1_555
Sn0_4 Sn1_6 3.332366 1_545
Sn0_5 Sn1_1 3.332366 1_555
Sn0_5 Sn1_7 3.332366 1_545
Sn0_6 Sn1_2 3.332366 1_555
Sn0_6 Sn1_4 3.332366 1_555
Sn0_7 Sn1_3 3.332366 1_555
Sn0_7 Sn1_5 3.332366 1_555
Sn1_0 Sn4_1 3.281507 1_554
Sn1_0 Sn3_4 3.313203 1_455
Sn1_0 Sn3_2 3.313203 1_545
Sn1_0 Sn2_2 3.388909 1_545
Sn1_0 Sn2_4 3.388909 1_455
Sn1_0 Sn1_6 3.411444 1_455
Sn1_0 Sn1_6 3.411444 1_545
Sn1_1 Sn4_0 3.281507 1_555
Sn1_1 Sn3_5 3.313203 1_455
Sn1_1 Sn3_3 3.313203 1_545
Sn1_1 Sn2_3 3.388909 1_545
Sn1_1 Sn2_5 3.388909 1_455
Sn1_1 Sn1_7 3.411444 1_545
Sn1_1 Sn1_7 3.411444 1_455
Sn1_2 Sn4_3 3.281507 1_554
Sn1_2 Sn3_0 3.313203 1_555
Sn1_2 Sn3_6 3.313203 1_455
Sn1_2 Sn2_0 3.388909 1_555
Sn1_2 Sn2_6 3.388909 1_455
Sn1_2 Sn1_4 3.411444 1_555
Sn1_2 Sn1_4 3.411444 1_465
Sn1_3 Sn4_2 3.281507 1_555
Sn1_3 Sn3_7 3.313203 1_455
Sn1_3 Sn3_1 3.313203 1_555
Sn1_3 Sn2_1 3.388909 1_555
Sn1_3 Sn2_7 3.388909 1_455
Sn1_3 Sn1_5 3.411444 1_555
Sn1_3 Sn1_5 3.411444 1_465
Sn1_4 Sn4_5 3.281507 1_554
Sn1_4 Sn3_0 3.313203 1_555
Sn1_4 Sn3_6 3.313203 1_545
Sn1_4 Sn2_0 3.388909 1_555
Sn1_4 Sn2_6 3.388909 1_545
Sn1_5 Sn4_4 3.281507 1_555
Sn1_5 Sn3_7 3.313203 1_545
Sn1_5 Sn3_1 3.313203 1_555
Sn1_5 Sn2_1 3.388909 1_555
Sn1_5 Sn2_7 3.388909 1_545
Sn1_6 Sn4_7 3.281507 1_554
Sn1_6 Sn3_4 3.313203 1_555
Sn1_6 Sn3_2 3.313203 1_555
Sn1_6 Sn2_2 3.388909 1_555
Sn1_6 Sn2_4 3.388909 1_555
Sn1_7 Sn4_6 3.281507 1_555
Sn1_7 Sn3_5 3.313203 1_555
Sn1_7 Sn3_3 3.313203 1_555
Sn1_7 Sn2_3 3.388909 1_555
Sn1_7 Sn2_5 3.388909 1_555
