# generated using pymatgen
data_Ni2W11C4
_symmetry_space_group_name_H-M   'P 1'
_cell_length_a   8.03766196
_cell_length_b   8.03766196
_cell_length_c   8.22395800
_cell_angle_alpha   90.00000000
_cell_angle_beta   90.00000000
_cell_angle_gamma   121.08013565
_symmetry_Int_Tables_number   1
_chemical_formula_structural   Ni2W11C4
_chemical_formula_sum   'Ni4 W22 C8'
_cell_volume   455.03038816
_cell_formula_units_Z   2
loop_
 _symmetry_equiv_pos_site_id
 _symmetry_equiv_pos_as_xyz
  1  'x, y, z'
loop_
 _atom_site_type_symbol
 _atom_site_label
 _atom_site_symmetry_multiplicity
 _atom_site_fract_x
 _atom_site_fract_y
 _atom_site_fract_z
 _atom_site_occupancy
  Ni  Ni0  1  0.50356500  0.49643500  0.00000000  1
  Ni  Ni1  1  0.52423700  0.05773900  0.50000000  1
  Ni  Ni2  1  0.94226100  0.47576300  0.50000000  1
  Ni  Ni3  1  0.52317100  0.47682900  0.50000000  1
  W  W0  1  0.13191100  0.24486100  0.00000000  1
  W  W1  1  0.75513900  0.86808900  0.00000000  1
  W  W2  1  0.10671700  0.89328300  0.00000000  1
  W  W3  1  0.87952300  0.76605500  0.50000000  1
  W  W4  1  0.23394500  0.12047700  0.50000000  1
  W  W5  1  0.87879400  0.12120600  0.50000000  1
  W  W6  1  0.99399400  0.00600600  0.25443900  1
  W  W7  1  0.99399400  0.00600600  0.74556100  1
  W  W8  1  0.20792700  0.42256700  0.68179300  1
  W  W9  1  0.57743300  0.79207300  0.68179300  1
  W  W10  1  0.20620800  0.79379200  0.68461300  1
  W  W11  1  0.78915400  0.58200800  0.79602400  1
  W  W12  1  0.41799200  0.21084600  0.79602400  1
  W  W13  1  0.79044100  0.20955900  0.81540800  1
  W  W14  1  0.78915400  0.58200800  0.20397600  1
  W  W15  1  0.41799200  0.21084600  0.20397600  1
  W  W16  1  0.79044100  0.20955900  0.18459200  1
  W  W17  1  0.20792700  0.42256700  0.31820700  1
  W  W18  1  0.57743300  0.79207300  0.31820700  1
  W  W19  1  0.20620800  0.79379200  0.31538700  1
  W  W20  1  0.44958700  0.91630100  0.00000000  1
  W  W21  1  0.08369900  0.55041300  0.00000000  1
  C  C0  1  0.36957700  0.63042300  0.00000000  1
  C  C1  1  0.66021300  0.33978700  0.50000000  1
  C  C2  1  0.49930500  0.00055500  0.25589000  1
  C  C3  1  0.99944500  0.50069500  0.25589000  1
  C  C4  1  0.49678200  0.50321800  0.25321100  1
  C  C5  1  0.49930500  0.00055500  0.74411000  1
  C  C6  1  0.99944500  0.50069500  0.74411000  1
  C  C7  1  0.49678200  0.50321800  0.74678900  1
loop_
_geom_bond_atom_site_label_1
_geom_bond_atom_site_label_2
_geom_bond_distance
_geom_bond_site_symmetry_2
Ni0 W0 2.603030 1_555
Ni0 W1 2.603030 1_555
Ni1 W5 2.623103 1_555
Ni1 W4 2.629302 1_555
Ni2 W5 2.623103 1_555
Ni2 W3 2.629302 1_555
Ni3 W3 2.594874 1_555
Ni3 W4 2.594874 1_555
W0 W7 2.663802 1_454
W0 W6 2.663802 1_455
W0 W21 2.676627 1_555
W0 W2 2.726848 1_545
W0 W8 2.891488 1_554
W0 W17 2.891488 1_555
W0 W15 2.970714 1_555
W0 W12 2.970714 1_554
W0 W1 2.978790 1_445
W0 W13 3.018931 1_454
W0 W16 3.018931 1_455
W1 W7 2.663802 1_564
W1 W6 2.663802 1_565
W1 W20 2.676627 1_555
W1 W2 2.726848 1_655
W1 W9 2.891488 1_554
W1 W18 2.891488 1_555
W1 W11 2.970714 1_554
W1 W14 2.970714 1_555
W1 W16 3.018931 1_565
W1 W13 3.018931 1_564
W2 W7 2.620661 1_464
W2 W6 2.620661 1_465
W2 W21 2.665078 1_555
W2 W20 2.665078 1_555
W3 W6 2.610058 1_565
W3 W7 2.610058 1_565
W4 W6 2.610058 1_455
W4 W7 2.610058 1_455
W5 W7 2.584229 1_555
W5 W6 2.584229 1_555
W7 W8 2.915106 1_655
W7 W9 2.915106 1_545
W10 W2 2.943916 1_556
W10 W7 3.012307 1_465
W11 W7 2.950244 1_565
W11 W2 2.999204 1_656
W12 W7 2.950244 1_455
W12 W2 2.999204 1_546
W13 W7 2.906416 1_555
W14 W6 2.950244 1_565
W14 W2 2.999204 1_655
W15 W6 2.950244 1_455
W15 W2 2.999204 1_545
W16 W6 2.906416 1_555
W17 W6 2.915106 1_455
W18 W6 2.915106 1_565
W19 W2 2.943916 1_555
W19 W6 3.012307 1_465
C0 Ni0 1.875401 1_555
C0 W21 2.041502 1_555
C0 W20 2.041502 1_555
C0 W1 2.672236 1_555
C0 W0 2.672236 1_555
C1 Ni3 1.918147 1_555
C1 Ni1 1.943110 1_555
C1 Ni2 1.943110 1_555
C2 Ni1 2.046112 1_555
C2 W19 2.123421 1_545
C2 W18 2.133412 1_545
C2 W16 2.140798 1_555
C2 W15 2.146375 1_555
C2 W20 2.183463 1_545
C3 Ni2 2.046112 1_555
C3 W19 2.123421 1_655
C3 W17 2.133412 1_655
C3 W16 2.140798 1_555
C3 W14 2.146375 1_555
C3 W21 2.183463 1_655
C4 Ni3 2.062918 1_555
C4 Ni0 2.084560 1_555
C4 W17 2.131291 1_555
C4 W18 2.131291 1_555
C4 W14 2.133284 1_555
C4 W15 2.133284 1_555
C5 Ni1 2.046112 1_555
C5 W10 2.123421 1_545
C5 W9 2.133412 1_545
C5 W13 2.140798 1_555
C5 W12 2.146375 1_555
C5 W20 2.183463 1_546
C6 Ni2 2.046112 1_555
C6 W10 2.123421 1_655
C6 W8 2.133412 1_655
C6 W13 2.140798 1_555
C6 W11 2.146375 1_555
C6 W21 2.183463 1_656
C7 Ni3 2.062918 1_555
C7 Ni0 2.084560 1_556
C7 W8 2.131291 1_555
C7 W9 2.131291 1_555
C7 W12 2.133284 1_555
C7 W11 2.133284 1_555
