# generated using pymatgen
data_HoSnRh
_symmetry_space_group_name_H-M   'P 1'
_cell_length_a   7.55915883
_cell_length_b   7.55915944
_cell_length_c   3.75434644
_cell_angle_alpha   90.00000000
_cell_angle_beta   90.00000000
_cell_angle_gamma   120.00000183
_symmetry_Int_Tables_number   1
_chemical_formula_structural   HoSnRh
_chemical_formula_sum   'Ho3 Sn3 Rh3'
_cell_volume   185.78555559
_cell_formula_units_Z   3
loop_
 _symmetry_equiv_pos_site_id
 _symmetry_equiv_pos_as_xyz
  1  'x, y, z'
loop_
 _atom_site_type_symbol
 _atom_site_label
 _atom_site_symmetry_multiplicity
 _atom_site_fract_x
 _atom_site_fract_y
 _atom_site_fract_z
 _atom_site_occupancy
  Ho  Ho0  1  -0.00000000  0.40487935  0.00000000  1
  Ho  Ho1  1  0.59512065  0.59512065  -0.00000000  1
  Ho  Ho2  1  0.40487935  0.00000000  -0.00000000  1
  Sn  Sn0  1  0.26407961  0.26407961  0.50000000  1
  Sn  Sn1  1  -0.00000000  0.73592039  0.50000000  1
  Sn  Sn2  1  0.73592039  0.00000000  0.50000000  1
  Rh  Rh0  1  0.66666700  0.33333300  0.50000000  1
  Rh  Rh1  1  0.33333300  0.66666700  0.50000000  1
  Rh  Rh2  1  0.00000000  0.00000000  -0.00000000  1
loop_
_geom_bond_atom_site_label_1
_geom_bond_atom_site_label_2
_geom_bond_distance
_geom_bond_site_symmetry_2
Ho0 Rh0 2.966903 1_455
Ho0 Rh0 2.966903 1_454
Ho0 Rh1 2.966905 1_555
Ho0 Rh1 2.966905 1_554
Ho0 Rh2 3.060548 1_555
Ho0 Sn1 3.128218 1_555
Ho0 Sn1 3.128218 1_554
Ho0 Sn0 3.281173 1_555
Ho0 Sn0 3.281173 1_554
Ho0 Sn2 3.281173 1_455
Ho0 Sn2 3.281173 1_454
Ho1 Rh1 2.966908 1_555
Ho1 Rh1 2.966908 1_554
Ho1 Rh0 2.966909 1_554
Ho1 Rh0 2.966909 1_555
Ho1 Rh2 3.060547 1_665
Ho1 Sn0 3.128217 1_554
Ho1 Sn0 3.128217 1_555
Ho1 Sn1 3.281173 1_654
Ho1 Sn1 3.281173 1_655
Ho1 Sn2 3.281173 1_564
Ho1 Sn2 3.281173 1_565
Ho2 Rh1 2.966903 1_544
Ho2 Rh1 2.966903 1_545
Ho2 Rh0 2.966905 1_554
Ho2 Rh0 2.966905 1_555
Ho2 Rh2 3.060547 1_555
Ho2 Sn2 3.128217 1_554
Ho2 Sn2 3.128217 1_555
Ho2 Sn1 3.281173 1_544
Ho2 Sn1 3.281173 1_545
Ho2 Sn0 3.281173 1_555
Ho2 Sn0 3.281173 1_554
Rh0 Sn2 2.818171 1_555
Rh0 Sn1 2.818176 1_655
Rh0 Sn0 2.818179 1_555
Rh1 Sn1 2.818171 1_555
Rh1 Sn2 2.818176 1_565
Rh1 Sn0 2.818179 1_555
Rh2 Sn2 2.740196 1_454
Rh2 Sn2 2.740196 1_455
Rh2 Sn0 2.740196 1_554
Rh2 Sn0 2.740196 1_555
Rh2 Sn1 2.740196 1_544
Rh2 Sn1 2.740196 1_545
