# generated using pymatgen
data_Al8Zn3CoO16
_symmetry_space_group_name_H-M   'P 1'
_cell_length_a   8.17940300
_cell_length_b   17.35087447
_cell_length_c   8.17940300
_cell_angle_alpha   76.36677163
_cell_angle_beta   90.00000000
_cell_angle_gamma   76.36677163
_symmetry_Int_Tables_number   1
_chemical_formula_structural   Al8Zn3CoO16
_chemical_formula_sum   'Al32 Zn12 Co4 O64'
_cell_volume   1094.42880305
_cell_formula_units_Z   4
loop_
 _symmetry_equiv_pos_site_id
 _symmetry_equiv_pos_as_xyz
  1  'x, y, z'
loop_
 _atom_site_type_symbol
 _atom_site_label
 _atom_site_symmetry_multiplicity
 _atom_site_fract_x
 _atom_site_fract_y
 _atom_site_fract_z
 _atom_site_occupancy
  Al  Al0  1  0.68754700  0.12504500  0.93754700  1
  Al  Al1  1  0.18754700  0.12504500  0.43754700  1
  Al  Al2  1  0.93754700  0.62504500  0.18754700  1
  Al  Al3  1  0.43754700  0.62504500  0.68754700  1
  Al  Al4  1  0.43740900  0.12504500  0.68740900  1
  Al  Al5  1  0.93740900  0.12504500  0.18740900  1
  Al  Al6  1  0.68740900  0.62504500  0.93740900  1
  Al  Al7  1  0.18740900  0.62504500  0.43740900  1
  Al  Al8  1  0.00009100  0.49995500  0.99995300  1
  Al  Al9  1  0.50009100  0.49995500  0.49995300  1
  Al  Al10  1  0.25009100  0.99995500  0.24995300  1
  Al  Al11  1  0.75009100  0.99995500  0.74995300  1
  Al  Al12  1  0.24995300  0.49995500  0.75009100  1
  Al  Al13  1  0.74995300  0.49995500  0.25009100  1
  Al  Al14  1  0.49995300  0.99995500  0.00009100  1
  Al  Al15  1  0.99995300  0.99995500  0.50009100  1
  Al  Al16  1  0.06253600  0.37501700  0.81253600  1
  Al  Al17  1  0.56253600  0.37501700  0.31253600  1
  Al  Al18  1  0.31253600  0.87501700  0.06253600  1
  Al  Al19  1  0.81253600  0.87501700  0.56253600  1
  Al  Al20  1  0.31244700  0.37501700  0.06244700  1
  Al  Al21  1  0.81244700  0.37501700  0.56244700  1
  Al  Al22  1  0.56244700  0.87501700  0.31244700  1
  Al  Al23  1  0.06244700  0.87501700  0.81244700  1
  Al  Al24  1  0.12505300  0.24998300  0.62496400  1
  Al  Al25  1  0.62505300  0.24998300  0.12496400  1
  Al  Al26  1  0.37505300  0.74998300  0.87496400  1
  Al  Al27  1  0.87505300  0.74998300  0.37496400  1
  Al  Al28  1  0.37496400  0.24998300  0.37505300  1
  Al  Al29  1  0.87496400  0.24998300  0.87505300  1
  Al  Al30  1  0.62496400  0.74998300  0.62505300  1
  Al  Al31  1  0.12496400  0.74998300  0.12505300  1
  Zn  Zn0  1  0.46875000  0.31250000  0.71875000  1
  Zn  Zn1  1  0.96875000  0.31250000  0.21875000  1
  Zn  Zn2  1  0.71875000  0.81250000  0.96875000  1
  Zn  Zn3  1  0.21875000  0.81250000  0.46875000  1
  Zn  Zn4  1  0.15626800  0.43746400  0.40626800  1
  Zn  Zn5  1  0.65626800  0.43746400  0.90626800  1
  Zn  Zn6  1  0.40626800  0.93746400  0.65626800  1
  Zn  Zn7  1  0.90626800  0.93746400  0.15626800  1
  Zn  Zn8  1  0.28123200  0.18753600  0.03123200  1
  Zn  Zn9  1  0.78123200  0.18753600  0.53123200  1
  Zn  Zn10  1  0.53123200  0.68753600  0.28123200  1
  Zn  Zn11  1  0.03123200  0.68753600  0.78123200  1
  Co  Co0  1  0.59375000  0.06250000  0.34375000  1
  Co  Co1  1  0.84375000  0.56250000  0.59375000  1
  Co  Co2  1  0.09375000  0.06250000  0.84375000  1
  Co  Co3  1  0.34375000  0.56250000  0.09375000  1
  O  O0  1  0.36419400  0.24283100  0.61419400  1
  O  O1  1  0.86419400  0.24283100  0.11419400  1
  O  O2  1  0.61419400  0.74283100  0.86419400  1
  O  O3  1  0.11419400  0.74283100  0.36419400  1
  O  O4  1  0.64297500  0.24283100  0.89297500  1
  O  O5  1  0.14297500  0.24283100  0.39297500  1
  O  O6  1  0.89297500  0.74283100  0.14297500  1
  O  O7  1  0.39297500  0.74283100  0.64297500  1
  O  O8  1  0.29452500  0.38216900  0.82330600  1
  O  O9  1  0.79452500  0.38216900  0.32330600  1
  O  O10  1  0.54452500  0.88216900  0.07330600  1
  O  O11  1  0.04452500  0.88216900  0.57330600  1
  O  O12  1  0.07330600  0.38216900  0.04452500  1
  O  O13  1  0.57330600  0.38216900  0.54452500  1
  O  O14  1  0.32330600  0.88216900  0.29452500  1
  O  O15  1  0.82330600  0.88216900  0.79452500  1
  O  O16  1  0.23915900  0.49271900  0.98915900  1
  O  O17  1  0.73915900  0.49271900  0.48915900  1
  O  O18  1  0.48915900  0.99271900  0.23915900  1
  O  O19  1  0.98915900  0.99271900  0.73915900  1
  O  O20  1  0.01812200  0.49271900  0.76812200  1
  O  O21  1  0.51812200  0.49271900  0.26812200  1
  O  O22  1  0.26812200  0.99271900  0.01812200  1
  O  O23  1  0.76812200  0.99271900  0.51812200  1
  O  O24  1  0.41937800  0.13228100  0.44834100  1
  O  O25  1  0.91937800  0.13228100  0.94834100  1
  O  O26  1  0.66937800  0.63228100  0.69834100  1
  O  O27  1  0.16937800  0.63228100  0.19834100  1
  O  O28  1  0.19834100  0.13228100  0.66937800  1
  O  O29  1  0.69834100  0.13228100  0.16937800  1
  O  O30  1  0.44834100  0.63228100  0.91937800  1
  O  O31  1  0.94834100  0.63228100  0.41937800  1
  O  O32  1  0.38582900  0.25720700  0.13582900  1
  O  O33  1  0.88582900  0.25720700  0.63582900  1
  O  O34  1  0.63582900  0.75720700  0.38582900  1
  O  O35  1  0.13582900  0.75720700  0.88582900  1
  O  O36  1  0.10696400  0.25720700  0.85696400  1
  O  O37  1  0.60696400  0.25720700  0.35696400  1
  O  O38  1  0.35696400  0.75720700  0.10696400  1
  O  O39  1  0.85696400  0.75720700  0.60696400  1
  O  O40  1  0.83053600  0.36779300  0.80167100  1
  O  O41  1  0.33053600  0.36779300  0.30167100  1
  O  O42  1  0.08053600  0.86779300  0.05167100  1
  O  O43  1  0.58053600  0.86779300  0.55167100  1
  O  O44  1  0.05167100  0.36779300  0.58053600  1
  O  O45  1  0.55167100  0.36779300  0.08053600  1
  O  O46  1  0.30167100  0.86779300  0.83053600  1
  O  O47  1  0.80167100  0.86779300  0.33053600  1
  O  O48  1  0.51079900  0.00722300  0.76079900  1
  O  O49  1  0.01079900  0.00722300  0.26079900  1
  O  O50  1  0.76079900  0.50722300  0.01079900  1
  O  O51  1  0.26079900  0.50722300  0.51079900  1
  O  O52  1  0.73197900  0.00722300  0.98197900  1
  O  O53  1  0.23197900  0.00722300  0.48197900  1
  O  O54  1  0.98197900  0.50722300  0.23197900  1
  O  O55  1  0.48197900  0.50722300  0.73197900  1
  O  O56  1  0.45552100  0.11777700  0.92670100  1
  O  O57  1  0.95552100  0.11777700  0.42670100  1
  O  O58  1  0.70552100  0.61777700  0.17670100  1
  O  O59  1  0.20552100  0.61777700  0.67670100  1
  O  O60  1  0.67670100  0.11777700  0.70552100  1
  O  O61  1  0.17670100  0.11777700  0.20552100  1
  O  O62  1  0.92670100  0.61777700  0.95552100  1
  O  O63  1  0.42670100  0.61777700  0.45552100  1
loop_
_geom_bond_atom_site_label_1
_geom_bond_atom_site_label_2
_geom_bond_distance
_geom_bond_site_symmetry_2
Al0 O29 1.933064 1_556
Al0 O25 1.933064 1_555
Al0 O4 1.933914 1_555
Al0 O52 1.934658 1_555
Al0 O56 1.934850 1_555
Al0 O60 1.934850 1_555
Al1 O24 1.933064 1_555
Al1 O28 1.933064 1_555
Al1 O5 1.933914 1_555
Al1 O53 1.934658 1_555
Al1 O61 1.934850 1_555
Al1 O57 1.934850 1_455
Al2 O31 1.933064 1_555
Al2 O27 1.933064 1_655
Al2 O6 1.933914 1_555
Al2 O54 1.934658 1_555
Al2 O62 1.934850 1_554
Al2 O58 1.934850 1_555
Al3 O30 1.933064 1_555
Al3 O26 1.933064 1_555
Al3 O7 1.933914 1_555
Al3 O55 1.934658 1_555
Al3 O59 1.934850 1_555
Al3 O63 1.934850 1_555
Al4 O28 1.933073 1_555
Al4 O24 1.933073 1_555
Al4 O0 1.933915 1_555
Al4 O48 1.934658 1_555
Al4 O56 1.934832 1_555
Al4 O60 1.934832 1_555
Al5 O25 1.933073 1_554
Al5 O29 1.933073 1_555
Al5 O1 1.933915 1_555
Al5 O49 1.934658 1_655
Al5 O61 1.934832 1_655
Al5 O57 1.934832 1_555
Al6 O30 1.933073 1_555
Al6 O26 1.933073 1_555
Al6 O2 1.933915 1_555
Al6 O50 1.934658 1_556
Al6 O58 1.934832 1_556
Al6 O62 1.934832 1_555
Al7 O31 1.933073 1_455
Al7 O27 1.933073 1_555
Al7 O3 1.933915 1_555
Al7 O51 1.934658 1_555
Al7 O63 1.934832 1_555
Al7 O59 1.934832 1_555
Al8 O20 1.933065 1_555
Al8 O16 1.933072 1_555
Al8 O12 1.933914 1_556
Al8 O62 1.934658 1_455
Al8 O50 1.934833 1_456
Al8 O54 1.934849 1_456
Al9 O21 1.933065 1_555
Al9 O17 1.933072 1_555
Al9 O13 1.933914 1_555
Al9 O63 1.934658 1_555
Al9 O51 1.934833 1_555
Al9 O55 1.934849 1_555
Al10 O22 1.933065 1_555
Al10 O18 1.933072 1_555
Al10 O14 1.933914 1_555
Al10 O61 1.934658 1_565
Al10 O49 1.934833 1_565
Al10 O53 1.934849 1_565
Al11 O23 1.933065 1_555
Al11 O19 1.933072 1_555
Al11 O15 1.933914 1_555
Al11 O60 1.934658 1_565
Al11 O48 1.934833 1_565
Al11 O52 1.934849 1_565
Al12 O20 1.933065 1_555
Al12 O16 1.933072 1_555
Al12 O8 1.933914 1_555
Al12 O59 1.934658 1_555
Al12 O51 1.934833 1_555
Al12 O55 1.934849 1_555
Al13 O21 1.933065 1_555
Al13 O17 1.933072 1_555
Al13 O9 1.933914 1_555
Al13 O58 1.934658 1_555
Al13 O50 1.934833 1_555
Al13 O54 1.934849 1_555
Al14 O22 1.933065 1_555
Al14 O18 1.933072 1_555
Al14 O10 1.933914 1_555
Al14 O56 1.934658 1_564
Al14 O48 1.934833 1_564
Al14 O52 1.934849 1_564
Al15 O23 1.933065 1_555
Al15 O19 1.933072 1_555
Al15 O11 1.933914 1_655
Al15 O57 1.934658 1_565
Al15 O49 1.934833 1_665
Al15 O53 1.934849 1_665
Al16 O20 1.932660 1_555
Al16 O12 1.933893 1_556
Al16 O8 1.933893 1_555
Al16 O40 1.934413 1_455
Al16 O44 1.934413 1_555
Al16 O36 1.934461 1_555
Al17 O21 1.932660 1_555
Al17 O9 1.933893 1_555
Al17 O13 1.933893 1_555
Al17 O45 1.934413 1_555
Al17 O41 1.934413 1_555
Al17 O37 1.934461 1_555
Al18 O22 1.932660 1_555
Al18 O14 1.933893 1_555
Al18 O10 1.933893 1_555
Al18 O46 1.934413 1_554
Al18 O42 1.934413 1_555
Al18 O38 1.934461 1_555
Al19 O23 1.932660 1_555
Al19 O11 1.933893 1_655
Al19 O15 1.933893 1_555
Al19 O43 1.934413 1_555
Al19 O47 1.934413 1_555
Al19 O39 1.934461 1_555
Al20 O16 1.932660 1_554
Al20 O12 1.933893 1_555
Al20 O8 1.933893 1_554
Al20 O41 1.934413 1_555
Al20 O45 1.934413 1_555
Al20 O32 1.934461 1_555
Al21 O17 1.932660 1_555
Al21 O13 1.933893 1_555
Al21 O9 1.933893 1_555
Al21 O40 1.934413 1_555
Al21 O44 1.934413 1_655
Al21 O33 1.934461 1_555
Al22 O18 1.932660 1_555
Al22 O10 1.933893 1_555
Al22 O14 1.933893 1_555
Al22 O47 1.934413 1_555
Al22 O43 1.934413 1_555
Al22 O34 1.934461 1_555
Al23 O19 1.932660 1_455
Al23 O15 1.933893 1_455
Al23 O11 1.933893 1_555
Al23 O42 1.934413 1_556
Al23 O46 1.934413 1_555
Al23 O35 1.934461 1_555
Al24 O28 1.932660 1_555
Al24 O5 1.933893 1_555
Al24 O0 1.933893 1_555
Al24 O36 1.934413 1_555
Al24 O33 1.934413 1_455
Al24 O44 1.934461 1_555
Al25 O29 1.932660 1_555
Al25 O4 1.933893 1_554
Al25 O1 1.933893 1_555
Al25 O37 1.934413 1_555
Al25 O32 1.934413 1_555
Al25 O45 1.934461 1_555
Al26 O30 1.932660 1_555
Al26 O7 1.933893 1_555
Al26 O2 1.933893 1_555
Al26 O38 1.934413 1_556
Al26 O35 1.934413 1_555
Al26 O46 1.934461 1_555
Al27 O31 1.932660 1_555
Al27 O6 1.933893 1_555
Al27 O3 1.933893 1_655
Al27 O39 1.934413 1_555
Al27 O34 1.934413 1_555
Al27 O47 1.934461 1_555
Al28 O24 1.932660 1_555
Al28 O5 1.933893 1_555
Al28 O0 1.933893 1_555
Al28 O37 1.934413 1_555
Al28 O32 1.934413 1_555
Al28 O41 1.934461 1_555
Al29 O25 1.932660 1_555
Al29 O4 1.933893 1_555
Al29 O1 1.933893 1_556
Al29 O36 1.934413 1_655
Al29 O33 1.934413 1_555
Al29 O40 1.934461 1_555
Al30 O26 1.932660 1_555
Al30 O7 1.933893 1_555
Al30 O2 1.933893 1_555
Al30 O39 1.934413 1_555
Al30 O34 1.934413 1_555
Al30 O43 1.934461 1_555
Al31 O27 1.932660 1_555
Al31 O6 1.933893 1_455
Al31 O3 1.933893 1_555
Al31 O38 1.934413 1_555
Al31 O35 1.934413 1_554
Al31 O42 1.934461 1_555
Co0 O18 1.976423 1_545
Co0 O29 1.976423 1_555
Co0 O24 1.976423 1_555
Co0 O23 1.976423 1_545
Co1 O17 1.976423 1_555
Co1 O26 1.976423 1_555
Co1 O31 1.976423 1_555
Co1 O20 1.976423 1_655
Co2 O19 1.976423 1_445
Co2 O28 1.976423 1_555
Co2 O25 1.976423 1_455
Co2 O22 1.976423 1_546
Co3 O16 1.976423 1_554
Co3 O30 1.976423 1_554
Co3 O27 1.976423 1_555
Co3 O21 1.976423 1_555
O0 Zn0 1.974506 1_555
O1 Zn1 1.974506 1_555
O2 Zn2 1.974506 1_555
O3 Zn3 1.974506 1_555
O4 Zn0 1.974506 1_555
O5 Zn1 1.974506 1_455
O6 Zn2 1.974506 1_554
O7 Zn3 1.974506 1_555
O8 Zn0 1.974506 1_555
O9 Zn1 1.974506 1_555
O10 Zn2 1.974506 1_554
O11 Zn3 1.974506 1_555
O12 Zn1 1.974506 1_455
O13 Zn0 1.974506 1_555
O14 Zn3 1.974506 1_555
O15 Zn2 1.974506 1_555
O32 Zn8 1.974922 1_555
O33 Zn9 1.974922 1_555
O34 Zn10 1.974922 1_555
O35 Zn11 1.974922 1_555
O36 Zn8 1.974922 1_556
O37 Zn9 1.974922 1_555
O38 Zn10 1.974922 1_555
O39 Zn11 1.974922 1_655
O40 Zn5 1.974922 1_555
O41 Zn4 1.974922 1_555
O42 Zn7 1.974922 1_455
O43 Zn6 1.974922 1_555
O44 Zn4 1.974922 1_555
O45 Zn5 1.974922 1_554
O46 Zn6 1.974922 1_555
O47 Zn7 1.974922 1_555
O48 Zn6 1.975545 1_545
O49 Zn7 1.975545 1_445
O50 Zn5 1.975545 1_554
O51 Zn4 1.975545 1_555
O52 Zn7 1.975536 1_546
O53 Zn6 1.975536 1_545
O54 Zn4 1.975536 1_655
O55 Zn5 1.975536 1_555
O56 Zn8 1.975540 1_556
O57 Zn9 1.975540 1_555
O58 Zn10 1.975540 1_555
O59 Zn11 1.975540 1_555
O60 Zn9 1.975540 1_555
O61 Zn8 1.975540 1_555
O62 Zn11 1.975540 1_655
O63 Zn10 1.975540 1_555
