# generated using pymatgen
data_Li2VFe(P2O7)2
_symmetry_space_group_name_H-M   'P 1'
_cell_length_a   7.04117800
_cell_length_b   8.25282112
_cell_length_c   14.05141360
_cell_angle_alpha   89.98303987
_cell_angle_beta   99.42051041
_cell_angle_gamma   90.13563015
_symmetry_Int_Tables_number   1
_chemical_formula_structural   Li2VFe(P2O7)2
_chemical_formula_sum   'Li6 V3 Fe3 P12 O42'
_cell_volume   805.50760437
_cell_formula_units_Z   3
loop_
 _symmetry_equiv_pos_site_id
 _symmetry_equiv_pos_as_xyz
  1  'x, y, z'
loop_
 _atom_site_type_symbol
 _atom_site_label
 _atom_site_symmetry_multiplicity
 _atom_site_fract_x
 _atom_site_fract_y
 _atom_site_fract_z
 _atom_site_occupancy
  Li  Li0  1  0.38230700  0.86337900  0.05865900  1
  Li  Li1  1  0.95101600  0.36337500  0.27467800  1
  Li  Li2  1  0.71618700  0.86272500  0.39200700  1
  Li  Li3  1  0.28380200  0.36271200  0.60799500  1
  Li  Li4  1  0.04906400  0.86345400  0.72527600  1
  Li  Li5  1  0.61722400  0.36265400  0.94128100  1
  V  V0  1  0.34364000  0.49935500  0.07229200  1
  V  V1  1  0.98973300  0.99940900  0.26110600  1
  V  V2  1  0.01015100  0.49918600  0.73872600  1
  Fe  Fe0  1  0.67326800  0.49898800  0.40541300  1
  Fe  Fe1  1  0.32672500  0.99901100  0.59463300  1
  Fe  Fe2  1  0.66000800  0.99929400  0.92770500  1
  P  P0  1  0.61121400  0.17950200  0.13314300  1
  P  P1  1  0.98455400  0.78411500  0.07036800  1
  P  P2  1  0.34879600  0.28406400  0.26277800  1
  P  P3  1  0.72212900  0.67944200  0.20010900  1
  P  P4  1  0.31896200  0.78320000  0.40415700  1
  P  P5  1  0.05497300  0.68111500  0.53307000  1
  P  P6  1  0.94503800  0.18117300  0.46685100  1
  P  P7  1  0.68102200  0.28312900  0.59566200  1
  P  P8  1  0.27885600  0.17951300  0.80014500  1
  P  P9  1  0.65139200  0.78439400  0.73725500  1
  P  P10  1  0.01461200  0.28285300  0.92923800  1
  P  P11  1  0.38920700  0.68109400  0.86672800  1
  O  O0  1  0.16409600  0.32281300  0.01715500  1
  O  O1  1  0.15844700  0.69645900  0.04322100  1
  O  O2  1  0.04958700  0.93426800  0.13220200  1
  O  O3  1  0.58015100  0.03673400  0.06269000  1
  O  O4  1  0.57699100  0.34356000  0.08218200  1
  O  O5  1  0.52699400  0.67843500  0.13239100  1
  O  O6  1  0.28394500  0.43419700  0.20120800  1
  O  O7  1  0.44509000  0.15321100  0.19859500  1
  O  O8  1  0.88806400  0.65310100  0.13479300  1
  O  O9  1  0.17473300  0.19638200  0.29015000  1
  O  O10  1  0.16939400  0.82282100  0.31630100  1
  O  O11  1  0.80639000  0.17851100  0.20094400  1
  O  O12  1  0.75641200  0.84348300  0.25119300  1
  O  O13  1  0.75301100  0.53676800  0.27072100  1
  O  O14  1  0.49809400  0.32520500  0.35069100  1
  O  O15  1  0.49379200  0.69409800  0.37742100  1
  O  O16  1  0.22213700  0.65288300  0.46846700  1
  O  O17  1  0.38287400  0.93284300  0.46622300  1
  O  O18  1  0.13966700  0.17906500  0.53401300  1
  O  O19  1  0.91317500  0.03839100  0.39584900  1
  O  O20  1  0.90766700  0.34548000  0.41576400  1
  O  O21  1  0.09244000  0.84542500  0.58427100  1
  O  O22  1  0.08665300  0.53840900  0.60422000  1
  O  O23  1  0.86035300  0.67895800  0.46598300  1
  O  O24  1  0.61733500  0.43277800  0.53384800  1
  O  O25  1  0.77769000  0.15299100  0.53159600  1
  O  O26  1  0.50602000  0.19398500  0.62258500  1
  O  O27  1  0.50204700  0.82517300  0.64942200  1
  O  O28  1  0.24669900  0.03691900  0.72936200  1
  O  O29  1  0.24331900  0.34361300  0.74889400  1
  O  O30  1  0.19386400  0.67898000  0.79925900  1
  O  O31  1  0.83056700  0.32280800  0.68371100  1
  O  O32  1  0.82515600  0.69663000  0.70998800  1
  O  O33  1  0.11100800  0.15289900  0.86496300  1
  O  O34  1  0.55468500  0.65318700  0.80148300  1
  O  O35  1  0.71503900  0.93362000  0.79964300  1
  O  O36  1  0.47329000  0.17845300  0.86754000  1
  O  O37  1  0.42539300  0.84538800  0.91762200  1
  O  O38  1  0.41985600  0.53824200  0.93754900  1
  O  O39  1  0.94946200  0.43334400  0.86796200  1
  O  O40  1  0.83931700  0.19389200  0.95600900  1
  O  O41  1  0.83520900  0.82520600  0.98264000  1
loop_
_geom_bond_atom_site_label_1
_geom_bond_atom_site_label_2
_geom_bond_distance
_geom_bond_site_symmetry_2
Li0 O3 1.988819 1_565
Li0 O5 2.025287 1_555
Li0 O37 2.058809 1_554
Li0 O1 2.075385 1_555
Li1 O13 1.994638 1_555
Li1 O11 2.021447 1_555
Li1 O20 2.059809 1_555
Li1 O9 2.079891 1_655
Li2 O19 1.998630 1_565
Li2 O23 2.017900 1_555
Li2 O12 2.050437 1_555
Li2 O15 2.077401 1_555
Li3 O22 2.004413 1_555
Li3 O18 2.013949 1_555
Li3 O29 2.051870 1_555
Li3 O26 2.081913 1_555
Li4 O28 1.988384 1_565
Li4 O30 2.024215 1_555
Li4 O21 2.059012 1_555
Li4 O32 2.075153 1_455
Li5 O38 2.004879 1_555
Li5 O36 2.015332 1_555
Li5 O4 2.051373 1_556
Li5 O40 2.081411 1_555
Fe0 O14 1.962481 1_555
Fe0 O24 1.985363 1_555
Fe0 O15 2.047197 1_555
Fe0 O20 2.069130 1_555
Fe0 O23 2.071257 1_555
Fe0 O13 2.083545 1_555
Fe1 O27 1.967603 1_555
Fe1 O17 1.986273 1_555
Fe1 O26 2.040988 1_565
Fe1 O21 2.064147 1_555
Fe1 O18 2.075967 1_565
Fe1 O28 2.085599 1_565
Fe2 O41 1.969223 1_555
Fe2 O35 1.977816 1_555
Fe2 O40 2.039064 1_565
Fe2 O36 2.067355 1_565
Fe2 O37 2.067830 1_555
Fe2 O3 2.087947 1_566
O0 P10 1.521729 1_554
O0 V0 1.998131 1_555
O1 P1 1.524881 1_455
O1 V0 2.085314 1_555
O2 P1 1.538792 1_455
O2 V1 1.999728 1_455
O3 P0 1.531242 1_555
O4 P0 1.532472 1_555
O4 V0 2.075398 1_555
O5 P3 1.537945 1_555
O5 V0 2.049130 1_555
O6 P2 1.537816 1_555
O6 V0 1.998698 1_555
O7 P0 1.616161 1_555
O7 P2 1.625880 1_555
O8 P3 1.614633 1_555
O8 P1 1.627095 1_555
O9 P2 1.524344 1_555
O9 V1 2.078997 1_445
O10 P4 1.521775 1_555
O10 V1 2.003134 1_455
O11 P0 1.538756 1_555
O11 V1 2.053534 1_545
O12 P3 1.532512 1_555
O12 V1 2.071108 1_555
O13 P3 1.532336 1_555
O14 P2 1.523088 1_555
O15 P4 1.533978 1_555
O16 P5 1.617071 1_555
O16 P4 1.623474 1_555
O17 P4 1.535512 1_555
O18 P6 1.531564 1_455
O19 P6 1.536355 1_555
O19 V1 2.077033 1_545
O20 P6 1.537057 1_555
O21 P5 1.537122 1_555
O22 P5 1.537484 1_555
O22 V2 2.073434 1_555
O23 P5 1.530956 1_655
O24 P7 1.534694 1_555
O25 P6 1.618553 1_555
O25 P7 1.622280 1_555
O26 P7 1.533253 1_555
O27 P9 1.522768 1_555
O28 P8 1.533321 1_555
O29 P8 1.535370 1_555
O29 V2 2.073010 1_555
O30 P11 1.537515 1_555
O30 V2 2.056679 1_555
O31 P7 1.522768 1_555
O31 V2 1.996819 1_655
O32 P9 1.525183 1_555
O32 V2 2.086247 1_655
O33 P8 1.620357 1_555
O33 P10 1.622128 1_555
O34 P11 1.613138 1_555
O34 P9 1.627201 1_555
O35 P9 1.534742 1_555
O36 P8 1.531926 1_555
O37 P11 1.534294 1_555
O38 P11 1.535238 1_555
O38 V0 2.075361 1_556
O39 P10 1.538522 1_655
O39 V2 2.006958 1_655
O40 P10 1.533466 1_655
O41 P1 1.522314 1_556
