# generated using pymatgen
data_Y4Ti13Si2(SbO14)2
_symmetry_space_group_name_H-M   'P 1'
_cell_length_a   5.59099645
_cell_length_b   9.03951868
_cell_length_c   12.67586933
_cell_angle_alpha   88.35231758
_cell_angle_beta   78.70401780
_cell_angle_gamma   74.01026374
_symmetry_Int_Tables_number   1
_chemical_formula_structural   Y4Ti13Si2(SbO14)2
_chemical_formula_sum   'Y4 Ti13 Si2 Sb2 O28'
_cell_volume   603.70587482
_cell_formula_units_Z   1
loop_
 _symmetry_equiv_pos_site_id
 _symmetry_equiv_pos_as_xyz
  1  'x, y, z'
loop_
 _atom_site_type_symbol
 _atom_site_label
 _atom_site_symmetry_multiplicity
 _atom_site_fract_x
 _atom_site_fract_y
 _atom_site_fract_z
 _atom_site_occupancy
  Y  Y0  1  0.01552000  0.67734100  0.42358900  1
  Y  Y1  1  0.55774600  0.30380500  0.41207900  1
  Y  Y2  1  0.98611000  0.32016600  0.57792500  1
  Y  Y3  1  0.44392300  0.69368600  0.58924400  1
  Ti  Ti0  1  0.87368200  0.62134900  0.73913200  1
  Ti  Ti1  1  0.62349200  0.36406500  0.12459300  1
  Ti  Ti2  1  0.42535900  0.37552200  0.72758700  1
  Ti  Ti3  1  0.12837300  0.37730400  0.26230400  1
  Ti  Ti4  1  0.38113800  0.63324500  0.87642800  1
  Ti  Ti5  1  0.27881700  0.99586500  0.41683600  1
  Ti  Ti6  1  0.18257400  0.70556100  0.16169900  1
  Ti  Ti7  1  0.99852100  0.00360100  0.99635200  1
  Ti  Ti8  1  0.51276300  0.99894800  0.17722400  1
  Ti  Ti9  1  0.82056200  0.29090200  0.83996600  1
  Ti  Ti10  1  0.57615400  0.62062300  0.27359500  1
  Ti  Ti11  1  0.48011500  0.99809900  0.82423600  1
  Ti  Ti12  1  0.72096900  0.00174400  0.58314700  1
  Si  Si0  1  0.21234200  0.31266900  0.98669000  1
  Si  Si1  1  0.79210100  0.68642800  0.01526200  1
  Sb  Sb0  1  0.92447800  0.97005000  0.27807300  1
  Sb  Sb1  1  0.07327200  0.02704000  0.72198700  1
  O  O0  1  0.77728000  0.37039100  0.24692800  1
  O  O1  1  0.11970500  0.41266900  0.41010100  1
  O  O2  1  0.90536700  0.37115000  0.98589600  1
  O  O3  1  0.28027400  0.12771700  0.96029300  1
  O  O4  1  0.88195200  0.58462300  0.59142300  1
  O  O5  1  0.22696100  0.62655700  0.75443900  1
  O  O6  1  0.87790000  0.14204800  0.48881100  1
  O  O7  1  0.12207400  0.85581700  0.51239700  1
  O  O8  1  0.72604900  0.87085000  0.04325800  1
  O  O9  1  0.20824800  0.93142600  0.13258900  1
  O  O10  1  0.27600500  0.34858500  0.10258700  1
  O  O11  1  0.95068400  0.60996700  0.25211500  1
  O  O12  1  0.63310600  0.85653200  0.49290300  1
  O  O13  1  0.71988500  0.14368400  0.10175400  1
  O  O14  1  0.59045700  0.61447400  0.10533200  1
  O  O15  1  0.09931500  0.62686700  0.01609600  1
  O  O16  1  0.27832100  0.85256300  0.90079700  1
  O  O17  1  0.78828400  0.06431600  0.86711800  1
  O  O18  1  0.36861400  0.14030400  0.50776800  1
  O  O19  1  0.30538000  0.15968900  0.28748500  1
  O  O20  1  0.69514200  0.83807600  0.71277900  1
  O  O21  1  0.41327200  0.38376400  0.89593200  1
  O  O22  1  0.51226500  0.14675100  0.70517100  1
  O  O23  1  0.54112600  0.41348400  0.58466900  1
  O  O24  1  0.72793200  0.65177200  0.89916100  1
  O  O25  1  0.48603300  0.84949400  0.29547400  1
  O  O26  1  0.05097400  0.38761300  0.74933600  1
  O  O27  1  0.46036500  0.58355400  0.41681700  1
loop_
_geom_bond_atom_site_label_1
_geom_bond_atom_site_label_2
_geom_bond_distance
_geom_bond_site_symmetry_2
O0 Ti1 1.924002 1_555
O0 Ti3 2.028119 1_655
O0 Ti10 2.233610 1_555
O0 Y1 2.362041 1_555
O1 Ti3 1.898610 1_555
O1 Y0 2.304201 1_555
O1 Y2 2.324197 1_455
O1 Y1 2.379475 1_555
O2 Si0 1.652826 1_655
O2 Ti1 2.131287 1_556
O2 Ti9 2.187006 1_555
O3 Si0 1.638272 1_555
O3 Ti11 2.058077 1_545
O3 Ti7 2.147403 1_455
O4 Ti0 1.900364 1_555
O4 Y2 2.302328 1_555
O4 Y0 2.325088 1_655
O4 Y3 2.380159 1_555
O5 Ti4 1.921996 1_555
O5 Ti0 2.035460 1_455
O5 Ti2 2.237285 1_555
O5 Y3 2.358355 1_555
O6 Ti12 1.980685 1_555
O6 Y2 2.267914 1_555
O6 Ti5 2.288949 1_645
O6 Y1 2.333755 1_555
O7 Ti5 1.986233 1_555
O7 Y0 2.263116 1_555
O7 Ti12 2.285576 1_465
O7 Y3 2.342330 1_555
O8 Si1 1.638595 1_555
O8 Ti8 2.050743 1_555
O8 Ti7 2.173826 1_564
O9 Ti6 2.103030 1_555
O9 Ti8 2.135662 1_555
O9 Sb0 2.150708 1_455
O9 Ti7 2.256079 1_464
O10 Si0 1.638990 1_554
O10 Ti3 2.026085 1_555
O10 Ti1 2.058199 1_555
O11 Ti6 1.928553 1_655
O11 Ti10 2.033533 1_555
O11 Ti3 2.076164 1_655
O11 Y0 2.394411 1_655
O12 Ti12 1.983599 1_565
O12 Y3 2.241752 1_555
O12 Y0 2.324862 1_655
O12 Ti5 2.396589 1_555
O13 Ti1 1.929618 1_555
O13 Ti7 2.002630 1_554
O13 Ti8 2.072844 1_545
O14 Si1 1.689561 1_555
O14 Ti10 2.120427 1_555
O14 Ti6 2.179461 1_555
O14 Ti1 2.230035 1_555
O15 Si1 1.654554 1_455
O15 Ti4 2.138170 1_554
O15 Ti6 2.173392 1_555
O16 Ti4 1.921997 1_555
O16 Ti7 1.988594 1_465
O16 Ti11 2.064179 1_555
O17 Ti9 2.117790 1_555
O17 Ti11 2.139200 1_545
O17 Sb1 2.151333 1_655
O17 Ti7 2.171090 1_555
O18 Ti5 1.989920 1_545
O18 Y1 2.242601 1_555
O18 Y2 2.330300 1_455
O18 Ti12 2.381578 1_555
O19 Ti8 1.990690 1_545
O19 Ti3 1.991484 1_555
O19 Ti5 2.188524 1_545
O20 Ti0 1.990406 1_555
O20 Ti11 2.006952 1_555
O20 Ti12 2.189692 1_565
O20 Y3 2.849148 1_555
O21 Si0 1.687448 1_555
O21 Ti2 2.124524 1_555
O21 Ti9 2.177529 1_555
O21 Ti4 2.222924 1_555
O22 Ti2 2.004867 1_555
O22 Ti11 2.006480 1_545
O22 Ti12 2.009749 1_555
O23 Ti2 1.856309 1_555
O23 Y2 2.381839 1_555
O23 Y1 2.402518 1_555
O23 Y3 2.439668 1_555
O24 Si1 1.639505 1_556
O24 Ti0 2.028683 1_555
O24 Ti4 2.066656 1_555
O25 Ti8 2.000326 1_555
O25 Ti10 2.003750 1_555
O25 Ti5 2.008427 1_555
O26 Ti9 1.930417 1_455
O26 Ti2 2.029531 1_555
O26 Ti0 2.084259 1_455
O26 Y2 2.393932 1_455
O27 Ti10 1.857791 1_555
O27 Y0 2.381343 1_555
O27 Y3 2.402638 1_555
O27 Y1 2.435620 1_555
