# generated using pymatgen
data_Ba2TlNi2O7
_symmetry_space_group_name_H-M   'P 1'
_cell_length_a   3.68369300
_cell_length_b   3.68369300
_cell_length_c   13.65446800
_cell_angle_alpha   90.00000000
_cell_angle_beta   90.00000000
_cell_angle_gamma   90.00000000
_symmetry_Int_Tables_number   1
_chemical_formula_structural   Ba2TlNi2O7
_chemical_formula_sum   'Ba2 Tl1 Ni2 O7'
_cell_volume   185.28558866
_cell_formula_units_Z   1
loop_
 _symmetry_equiv_pos_site_id
 _symmetry_equiv_pos_as_xyz
  1  'x, y, z'
loop_
 _atom_site_type_symbol
 _atom_site_label
 _atom_site_symmetry_multiplicity
 _atom_site_fract_x
 _atom_site_fract_y
 _atom_site_fract_z
 _atom_site_occupancy
  Ba  Ba0  1  0.50000000  0.50000000  0.71139300  1
  Ba  Ba1  1  0.50000000  0.50000000  0.28860700  1
  Tl  Tl0  1  0.00000000  0.00000000  0.50000000  1
  Ni  Ni0  1  0.00000000  0.00000000  0.89124100  1
  Ni  Ni1  1  0.00000000  0.00000000  0.10875900  1
  O  O0  1  0.50000000  0.50000000  0.50000000  1
  O  O1  1  0.00000000  0.50000000  0.87041300  1
  O  O2  1  0.50000000  0.00000000  0.87041300  1
  O  O3  1  0.00000000  0.50000000  0.12958700  1
  O  O4  1  0.50000000  0.00000000  0.12958700  1
  O  O5  1  0.00000000  0.00000000  0.65228100  1
  O  O6  1  0.00000000  0.00000000  0.34771900  1
loop_
_geom_bond_atom_site_label_1
_geom_bond_atom_site_label_2
_geom_bond_distance
_geom_bond_site_symmetry_2
Ba0 O5 2.726954 1_655
Ba0 O5 2.726954 1_565
Ba0 O5 2.726954 1_665
Ba0 O5 2.726954 1_555
Ba0 O1 2.847295 1_655
Ba0 O1 2.847295 1_555
Ba0 O2 2.847295 1_555
Ba0 O2 2.847295 1_565
Ba0 O0 2.886459 1_555
Ba1 O6 2.726954 1_655
Ba1 O6 2.726954 1_565
Ba1 O6 2.726954 1_665
Ba1 O6 2.726954 1_555
Ba1 O4 2.847295 1_565
Ba1 O3 2.847295 1_555
Ba1 O3 2.847295 1_655
Ba1 O4 2.847295 1_555
Ba1 O0 2.886459 1_555
Ni0 O2 1.863674 1_555
Ni0 O1 1.863674 1_545
Ni0 O2 1.863674 1_455
Ni0 O1 1.863674 1_555
Ni1 O3 1.863674 1_545
Ni1 O4 1.863674 1_555
Ni1 O3 1.863674 1_555
Ni1 O4 1.863674 1_455
O0 Tl0 2.604764 1_565
O0 Tl0 2.604764 1_665
O0 Tl0 2.604764 1_655
O0 Tl0 2.604764 1_555
O5 Tl0 2.079316 1_555
O6 Tl0 2.079316 1_555
