# generated using pymatgen
data_Tm2Pd2O5
_symmetry_space_group_name_H-M   'P 1'
_cell_length_a   4.02014300
_cell_length_b   4.02014300
_cell_length_c   6.88886600
_cell_angle_alpha   90.00000000
_cell_angle_beta   90.00000000
_cell_angle_gamma   90.00000000
_symmetry_Int_Tables_number   1
_chemical_formula_structural   Tm2Pd2O5
_chemical_formula_sum   'Tm2 Pd2 O5'
_cell_volume   111.33475051
_cell_formula_units_Z   1
loop_
 _symmetry_equiv_pos_site_id
 _symmetry_equiv_pos_as_xyz
  1  'x, y, z'
loop_
 _atom_site_type_symbol
 _atom_site_label
 _atom_site_symmetry_multiplicity
 _atom_site_fract_x
 _atom_site_fract_y
 _atom_site_fract_z
 _atom_site_occupancy
  Tm  Tm0  1  0.00000000  0.00000000  0.00000000  1
  Tm  Tm1  1  0.00000000  0.00000000  0.50000000  1
  Pd  Pd0  1  0.50000000  0.50000000  0.19021800  1
  Pd  Pd1  1  0.50000000  0.50000000  0.80978200  1
  O  O0  1  0.50000000  0.00000000  0.22428200  1
  O  O1  1  0.50000000  0.00000000  0.77571800  1
  O  O2  1  0.50000000  0.50000000  0.50000000  1
  O  O3  1  0.00000000  0.50000000  0.22428200  1
  O  O4  1  0.00000000  0.50000000  0.77571800  1
loop_
_geom_bond_atom_site_label_1
_geom_bond_atom_site_label_2
_geom_bond_distance
_geom_bond_site_symmetry_2
O0 Pd0 2.023723 1_555
O0 Pd0 2.023723 1_545
O0 Tm0 2.535264 1_555
O0 Tm0 2.535264 1_655
O0 Tm1 2.765511 1_655
O0 Tm1 2.765511 1_555
O1 Pd1 2.023723 1_555
O1 Pd1 2.023723 1_545
O1 Tm0 2.535264 1_556
O1 Tm0 2.535264 1_656
O1 Tm1 2.765511 1_655
O1 Tm1 2.765511 1_555
O2 Pd0 2.134047 1_555
O2 Pd1 2.134047 1_555
O2 Tm1 2.842670 1_665
O2 Tm1 2.842670 1_565
O2 Tm1 2.842670 1_655
O2 Tm1 2.842670 1_555
O3 Pd0 2.023723 1_555
O3 Pd0 2.023723 1_455
O3 Tm0 2.535264 1_565
O3 Tm0 2.535264 1_555
O3 Tm1 2.765511 1_555
O3 Tm1 2.765511 1_565
O4 Pd1 2.023723 1_455
O4 Pd1 2.023723 1_555
O4 Tm0 2.535264 1_556
O4 Tm0 2.535264 1_566
O4 Tm1 2.765511 1_565
O4 Tm1 2.765511 1_555
