# generated using pymatgen
data_Mg(BiO2)2
_symmetry_space_group_name_H-M   'P 1'
_cell_length_a   6.10016500
_cell_length_b   6.84145000
_cell_length_c   11.31314700
_cell_angle_alpha   90.00000000
_cell_angle_beta   90.00000000
_cell_angle_gamma   90.00000000
_symmetry_Int_Tables_number   1
_chemical_formula_structural   Mg(BiO2)2
_chemical_formula_sum   'Mg4 Bi8 O16'
_cell_volume   472.14258094
_cell_formula_units_Z   4
loop_
 _symmetry_equiv_pos_site_id
 _symmetry_equiv_pos_as_xyz
  1  'x, y, z'
loop_
 _atom_site_type_symbol
 _atom_site_label
 _atom_site_symmetry_multiplicity
 _atom_site_fract_x
 _atom_site_fract_y
 _atom_site_fract_z
 _atom_site_occupancy
  Mg  Mg0  1  0.85996500  0.00000000  0.50000000  1
  Mg  Mg1  1  0.14003500  0.50000000  0.00000000  1
  Mg  Mg2  1  0.53451400  0.00000000  0.00000000  1
  Mg  Mg3  1  0.46548600  0.50000000  0.50000000  1
  Bi  Bi0  1  0.50607700  0.50000000  0.20902700  1
  Bi  Bi1  1  0.50607700  0.50000000  0.79097300  1
  Bi  Bi2  1  0.49392300  0.00000000  0.29097300  1
  Bi  Bi3  1  0.49392300  0.00000000  0.70902700  1
  Bi  Bi4  1  0.00000000  0.25000000  0.25000000  1
  Bi  Bi5  1  0.00000000  0.75000000  0.75000000  1
  Bi  Bi6  1  0.00000000  0.75000000  0.25000000  1
  Bi  Bi7  1  0.00000000  0.25000000  0.75000000  1
  O  O0  1  0.90206200  0.50000000  0.12467300  1
  O  O1  1  0.90206200  0.50000000  0.87532700  1
  O  O2  1  0.09793800  0.00000000  0.37532700  1
  O  O3  1  0.09793800  0.00000000  0.62467300  1
  O  O4  1  0.24939800  0.50000000  0.35383800  1
  O  O5  1  0.24939800  0.50000000  0.64616200  1
  O  O6  1  0.75060200  0.00000000  0.14616200  1
  O  O7  1  0.75060200  0.00000000  0.85383800  1
  O  O8  1  0.67760100  0.23729500  0.37887100  1
  O  O9  1  0.67760100  0.76270500  0.62112900  1
  O  O10  1  0.32239900  0.73729500  0.12112900  1
  O  O11  1  0.32239900  0.26270500  0.87887100  1
  O  O12  1  0.32239900  0.26270500  0.12112900  1
  O  O13  1  0.32239900  0.73729500  0.87887100  1
  O  O14  1  0.67760100  0.76270500  0.37887100  1
  O  O15  1  0.67760100  0.23729500  0.62112900  1
loop_
_geom_bond_atom_site_label_1
_geom_bond_atom_site_label_2
_geom_bond_distance
_geom_bond_site_symmetry_2
Mg0 O2 2.024033 1_655
Mg0 O3 2.024033 1_655
Mg0 O9 2.398118 1_545
Mg0 O8 2.398118 1_555
Mg0 O15 2.398118 1_555
Mg0 O14 2.398118 1_545
Mg1 O0 2.024033 1_455
Mg1 O1 2.024033 1_454
Mg1 O11 2.398118 1_554
Mg1 O12 2.398118 1_555
Mg1 O13 2.398118 1_554
Mg1 O10 2.398118 1_555
Mg2 O6 2.114666 1_555
Mg2 O7 2.114666 1_554
Mg2 O11 2.604296 1_554
Mg2 O13 2.604296 1_544
Mg2 O10 2.604296 1_545
Mg2 O12 2.604296 1_555
Mg3 O4 2.114666 1_555
Mg3 O5 2.114666 1_555
Mg3 O15 2.604296 1_555
Mg3 O8 2.604296 1_555
Mg3 O9 2.604296 1_555
Mg3 O14 2.604296 1_555
Bi0 O12 2.209037 1_555
Bi0 O10 2.209037 1_555
Bi0 O4 2.266187 1_555
Bi0 O0 2.597249 1_555
Bi0 O14 2.831443 1_555
Bi0 O8 2.831443 1_555
Bi1 O13 2.209037 1_555
Bi1 O11 2.209037 1_555
Bi1 O5 2.266187 1_555
Bi1 O1 2.597249 1_555
Bi1 O15 2.831443 1_555
Bi1 O9 2.831443 1_555
Bi2 O8 2.209037 1_555
Bi2 O14 2.209037 1_545
Bi2 O6 2.266187 1_555
Bi2 O2 2.597249 1_555
Bi2 O10 2.831443 1_545
Bi2 O12 2.831443 1_555
Bi3 O15 2.209037 1_555
Bi3 O9 2.209037 1_545
Bi3 O7 2.266187 1_555
Bi3 O3 2.597249 1_555
Bi3 O11 2.831443 1_555
Bi3 O13 2.831443 1_545
Bi4 O2 2.300554 1_555
Bi4 O0 2.300554 1_455
Bi4 O8 2.449692 1_455
Bi4 O12 2.449692 1_555
Bi4 O4 2.572918 1_555
Bi4 O6 2.572918 1_455
Bi5 O1 2.300554 1_455
Bi5 O3 2.300554 1_565
Bi5 O13 2.449692 1_555
Bi5 O9 2.449692 1_455
Bi5 O7 2.572918 1_465
Bi5 O5 2.572918 1_555
Bi6 O0 2.300554 1_455
Bi6 O2 2.300554 1_565
Bi6 O14 2.449692 1_455
Bi6 O10 2.449692 1_555
Bi6 O4 2.572918 1_555
Bi6 O6 2.572918 1_465
Bi7 O1 2.300554 1_455
Bi7 O3 2.300554 1_555
Bi7 O11 2.449692 1_555
Bi7 O15 2.449692 1_455
Bi7 O7 2.572918 1_455
Bi7 O5 2.572918 1_555
