# generated using pymatgen
data_PmMgSe3
_symmetry_space_group_name_H-M   'P 1'
_cell_length_a   7.00049800
_cell_length_b   7.00049877
_cell_length_c   19.62502200
_cell_angle_alpha   90.00000000
_cell_angle_beta   90.00000000
_cell_angle_gamma   119.99999635
_symmetry_Int_Tables_number   1
_chemical_formula_structural   PmMgSe3
_chemical_formula_sum   'Pm6 Mg6 Se18'
_cell_volume   832.91123386
_cell_formula_units_Z   6
loop_
 _symmetry_equiv_pos_site_id
 _symmetry_equiv_pos_as_xyz
  1  'x, y, z'
loop_
 _atom_site_type_symbol
 _atom_site_label
 _atom_site_symmetry_multiplicity
 _atom_site_fract_x
 _atom_site_fract_y
 _atom_site_fract_z
 _atom_site_occupancy
  Pm  Pm0  1  0.00000000  0.00000000  0.35105800  1
  Pm  Pm1  1  0.00000000  0.00000000  0.64894200  1
  Pm  Pm2  1  0.66666700  0.33333300  0.68439100  1
  Pm  Pm3  1  0.66666700  0.33333300  0.98227500  1
  Pm  Pm4  1  0.33333300  0.66666700  0.01772500  1
  Pm  Pm5  1  0.33333300  0.66666700  0.31560900  1
  Mg  Mg0  1  0.00000000  0.00000000  0.16342200  1
  Mg  Mg1  1  0.00000000  0.00000000  0.83657800  1
  Mg  Mg2  1  0.66666700  0.33333300  0.49675500  1
  Mg  Mg3  1  0.66666700  0.33333300  0.16991100  1
  Mg  Mg4  1  0.33333300  0.66666700  0.83008900  1
  Mg  Mg5  1  0.33333300  0.66666700  0.50324500  1
  Se  Se0  1  0.99709600  0.37361700  0.58343900  1
  Se  Se1  1  0.00290400  0.62638300  0.41656100  1
  Se  Se2  1  0.62638300  0.62347900  0.58343900  1
  Se  Se3  1  0.37361700  0.37652100  0.41656100  1
  Se  Se4  1  0.37652100  0.00290400  0.58343900  1
  Se  Se5  1  0.62347900  0.99709600  0.41656100  1
  Se  Se6  1  0.66376300  0.70695000  0.91677200  1
  Se  Se7  1  0.66957100  0.95971600  0.74989400  1
  Se  Se8  1  0.29305000  0.95681200  0.91677200  1
  Se  Se9  1  0.04028400  0.70985400  0.74989400  1
  Se  Se10  1  0.04318800  0.33623700  0.91677200  1
  Se  Se11  1  0.29014600  0.33042900  0.74989400  1
  Se  Se12  1  0.33042900  0.04028400  0.25010600  1
  Se  Se13  1  0.33623700  0.29305000  0.08322800  1
  Se  Se14  1  0.95971600  0.29014600  0.25010600  1
  Se  Se15  1  0.70695000  0.04318800  0.08322800  1
  Se  Se16  1  0.70985400  0.66957100  0.25010600  1
  Se  Se17  1  0.95681200  0.66376300  0.08322800  1
loop_
_geom_bond_atom_site_label_1
_geom_bond_atom_site_label_2
_geom_bond_distance
_geom_bond_site_symmetry_2
Pm0 Se5 2.923518 1_445
Pm0 Se1 2.923518 1_545
Pm0 Se3 2.923518 1_555
Pm0 Se12 2.950091 1_555
Pm0 Se16 2.950093 1_445
Pm0 Se14 2.950096 1_455
Pm1 Se4 2.923518 1_555
Pm1 Se0 2.923518 1_455
Pm1 Se2 2.923518 1_445
Pm1 Se7 2.950091 1_445
Pm1 Se11 2.950093 1_555
Pm1 Se9 2.950096 1_545
Pm2 Se11 2.923518 1_555
Pm2 Se7 2.923518 1_545
Pm2 Se9 2.923518 1_655
Pm2 Se0 2.950091 1_555
Pm2 Se4 2.950093 1_555
Pm2 Se2 2.950096 1_555
Pm3 Se10 2.923518 1_655
Pm3 Se6 2.923518 1_555
Pm3 Se8 2.923518 1_545
Pm3 Se15 2.950101 1_556
Pm3 Se17 2.950107 1_556
Pm3 Se13 2.950111 1_556
Pm4 Se17 2.923518 1_455
Pm4 Se13 2.923518 1_555
Pm4 Se15 2.923518 1_565
Pm4 Se8 2.950101 1_554
Pm4 Se10 2.950107 1_554
Pm4 Se6 2.950111 1_554
Pm5 Se16 2.923518 1_555
Pm5 Se12 2.923518 1_565
Pm5 Se14 2.923518 1_455
Pm5 Se1 2.950091 1_555
Pm5 Se5 2.950093 1_555
Pm5 Se3 2.950096 1_555
Mg0 Se17 2.719767 1_445
Mg0 Se13 2.719769 1_555
Mg0 Se15 2.719773 1_455
Mg0 Se12 2.769826 1_555
Mg0 Se16 2.769829 1_445
Mg0 Se14 2.769832 1_455
Mg1 Se10 2.719767 1_555
Mg1 Se6 2.719769 1_445
Mg1 Se8 2.719773 1_545
Mg1 Se7 2.769826 1_445
Mg1 Se11 2.769829 1_555
Mg1 Se9 2.769832 1_545
Mg2 Se5 2.719767 1_545
Mg2 Se1 2.719769 1_655
Mg2 Se3 2.719773 1_555
Mg2 Se0 2.769826 1_555
Mg2 Se4 2.769829 1_555
Mg2 Se2 2.769832 1_555
Mg3 Se14 2.719775 1_555
Mg3 Se12 2.719782 1_555
Mg3 Se16 2.719786 1_555
Mg3 Se15 2.769811 1_555
Mg3 Se17 2.769818 1_555
Mg3 Se13 2.769822 1_555
Mg4 Se9 2.719775 1_555
Mg4 Se7 2.719782 1_555
Mg4 Se11 2.719786 1_555
Mg4 Se8 2.769811 1_555
Mg4 Se10 2.769818 1_555
Mg4 Se6 2.769822 1_555
Mg5 Se4 2.719767 1_565
Mg5 Se0 2.719769 1_455
Mg5 Se2 2.719773 1_555
Mg5 Se1 2.769826 1_555
Mg5 Se5 2.769829 1_555
Mg5 Se3 2.769832 1_555
