# generated using pymatgen
data_Ba3V3N5
_symmetry_space_group_name_H-M   'P 1'
_cell_length_a   5.98981178
_cell_length_b   7.63601340
_cell_length_c   8.92524327
_cell_angle_alpha   107.78863348
_cell_angle_beta   101.94067045
_cell_angle_gamma   96.77956580
_symmetry_Int_Tables_number   1
_chemical_formula_structural   Ba3V3N5
_chemical_formula_sum   'Ba6 V6 N10'
_cell_volume   373.02934772
_cell_formula_units_Z   2
loop_
 _symmetry_equiv_pos_site_id
 _symmetry_equiv_pos_as_xyz
  1  'x, y, z'
loop_
 _atom_site_type_symbol
 _atom_site_label
 _atom_site_symmetry_multiplicity
 _atom_site_fract_x
 _atom_site_fract_y
 _atom_site_fract_z
 _atom_site_occupancy
  Ba  Ba0  1  0.81731000  0.43146300  0.61095600  1
  Ba  Ba1  1  0.18269000  0.56853700  0.38904400  1
  Ba  Ba2  1  0.64850100  0.85692100  0.88087300  1
  Ba  Ba3  1  0.35149900  0.14307900  0.11912700  1
  Ba  Ba4  1  0.64901200  0.67277000  0.22106600  1
  Ba  Ba5  1  0.35098800  0.32723000  0.77893400  1
  V  V0  1  0.91622000  0.31841200  0.97207700  1
  V  V1  1  0.08378000  0.68158800  0.02792300  1
  V  V2  1  0.69048100  0.98362000  0.58683900  1
  V  V3  1  0.30951900  0.01638000  0.41316100  1
  V  V4  1  0.09672300  0.89691500  0.70459200  1
  V  V5  1  0.90327700  0.10308500  0.29540800  1
  N  N0  1  0.95060900  0.11597600  0.78973500  1
  N  N1  1  0.04939100  0.88402400  0.21026500  1
  N  N2  1  0.81545600  0.75969900  0.54427800  1
  N  N3  1  0.18454400  0.24030100  0.45572200  1
  N  N4  1  0.78825200  0.52485600  0.92965600  1
  N  N5  1  0.21174800  0.47514400  0.07034400  1
  N  N6  1  0.37113400  0.94448900  0.61663000  1
  N  N7  1  0.62886600  0.05551100  0.38337000  1
  N  N8  1  0.15256700  0.78466000  0.86759300  1
  N  N9  1  0.84743300  0.21534000  0.13240700  1
loop_
_geom_bond_atom_site_label_1
_geom_bond_atom_site_label_2
_geom_bond_distance
_geom_bond_site_symmetry_2
Ba0 N2 2.748023 1_555
Ba0 N4 2.761272 1_555
Ba0 N7 2.892169 1_555
Ba0 N8 3.097807 1_655
Ba0 N3 3.110041 1_655
Ba1 N3 2.748023 1_555
Ba1 N5 2.761272 1_555
Ba1 N6 2.892169 1_555
Ba1 N9 3.097807 1_455
Ba1 N2 3.110041 1_455
Ba2 N9 2.884316 1_566
Ba2 N4 2.888720 1_555
Ba2 N6 2.893786 1_555
Ba2 N8 2.927464 1_555
Ba2 N0 2.931961 1_565
Ba2 N8 3.152128 1_655
Ba2 N2 3.260688 1_555
Ba2 N1 3.322892 1_656
Ba3 N8 2.884316 1_544
Ba3 N5 2.888720 1_555
Ba3 N7 2.893786 1_555
Ba3 N9 2.927464 1_555
Ba3 N1 2.931961 1_545
Ba3 N9 3.152128 1_455
Ba3 N3 3.260688 1_555
Ba3 N0 3.322892 1_454
Ba4 N2 2.690722 1_555
Ba4 N5 2.704677 1_555
Ba4 N1 2.764082 1_655
Ba4 N4 2.839205 1_554
Ba4 N7 2.867654 1_565
Ba5 N3 2.690722 1_555
Ba5 N4 2.704677 1_555
Ba5 N0 2.764082 1_455
Ba5 N5 2.839205 1_556
Ba5 N6 2.867654 1_545
N0 V0 1.938371 1_555
N0 V4 1.996424 1_645
N0 V2 2.017643 1_545
N1 V1 1.938371 1_555
N1 V5 1.996424 1_465
N1 V3 2.017643 1_565
N2 V2 1.910838 1_555
N2 V4 1.911331 1_655
N3 V3 1.910838 1_555
N3 V5 1.911331 1_455
N4 V1 1.884424 1_656
N4 V0 1.935414 1_555
N5 V0 1.884424 1_454
N5 V1 1.935414 1_555
N6 V2 1.985687 1_555
N6 V4 2.004303 1_555
N6 V3 2.028568 1_565
N7 V3 1.985687 1_555
N7 V5 2.004303 1_555
N7 V2 2.028568 1_545
N8 V4 1.895111 1_555
N8 V1 1.921592 1_556
N9 V5 1.895111 1_555
N9 V0 1.921592 1_554
