# generated using pymatgen
data_ReW4
_symmetry_space_group_name_H-M   'P 1'
_cell_length_a   5.50089645
_cell_length_b   5.50089645
_cell_length_c   22.61970044
_cell_angle_alpha   85.36726120
_cell_angle_beta   85.36726120
_cell_angle_gamma   109.61874033
_symmetry_Int_Tables_number   1
_chemical_formula_structural   ReW4
_chemical_formula_sum   'Re8 W32'
_cell_volume   638.37062017
_cell_formula_units_Z   8
loop_
 _symmetry_equiv_pos_site_id
 _symmetry_equiv_pos_as_xyz
  1  'x, y, z'
loop_
 _atom_site_type_symbol
 _atom_site_label
 _atom_site_symmetry_multiplicity
 _atom_site_fract_x
 _atom_site_fract_y
 _atom_site_fract_z
 _atom_site_occupancy
  Re  Re0_0  1  0.00000000  0.00000000  0.00000000  1
  Re  Re0_1  1  0.00000000  0.00000000  0.50000000  1
  Re  Re0_2  1  0.00000000  0.50000000  0.00000000  1
  Re  Re0_3  1  0.00000000  0.50000000  0.50000000  1
  Re  Re0_4  1  0.50000000  0.00000000  0.00000000  1
  Re  Re0_5  1  0.50000000  0.00000000  0.50000000  1
  Re  Re0_6  1  0.50000000  0.50000000  0.00000000  1
  Re  Re0_7  1  0.50000000  0.50000000  0.50000000  1
  W  W0_0  1  0.20022216  0.20022216  0.09955568  1
  W  W0_1  1  0.20022216  0.20022216  0.59955568  1
  W  W0_2  1  0.20022216  0.70022216  0.09955568  1
  W  W0_3  1  0.20022216  0.70022216  0.59955568  1
  W  W0_4  1  0.70022216  0.20022216  0.09955568  1
  W  W0_5  1  0.70022216  0.20022216  0.59955568  1
  W  W0_6  1  0.70022216  0.70022216  0.09955568  1
  W  W0_7  1  0.70022216  0.70022216  0.59955568  1
  W  W1_0  1  0.40010609  0.40010609  0.19978782  1
  W  W1_1  1  0.40010609  0.40010609  0.69978782  1
  W  W1_2  1  0.40010609  0.90010609  0.19978782  1
  W  W1_3  1  0.40010609  0.90010609  0.69978782  1
  W  W1_4  1  0.90010609  0.40010609  0.19978782  1
  W  W1_5  1  0.90010609  0.40010609  0.69978782  1
  W  W1_6  1  0.90010609  0.90010609  0.19978782  1
  W  W1_7  1  0.90010609  0.90010609  0.69978782  1
  W  W2_0  1  0.09989391  0.09989391  0.30021218  1
  W  W2_1  1  0.09989391  0.09989391  0.80021218  1
  W  W2_2  1  0.09989391  0.59989391  0.30021218  1
  W  W2_3  1  0.09989391  0.59989391  0.80021218  1
  W  W2_4  1  0.59989391  0.09989391  0.30021218  1
  W  W2_5  1  0.59989391  0.09989391  0.80021218  1
  W  W2_6  1  0.59989391  0.59989391  0.30021218  1
  W  W2_7  1  0.59989391  0.59989391  0.80021218  1
  W  W3_0  1  0.29977784  0.29977784  0.40044432  1
  W  W3_1  1  0.29977784  0.29977784  0.90044432  1
  W  W3_2  1  0.29977784  0.79977784  0.40044432  1
  W  W3_3  1  0.29977784  0.79977784  0.90044432  1
  W  W3_4  1  0.79977784  0.29977784  0.40044432  1
  W  W3_5  1  0.79977784  0.29977784  0.90044432  1
  W  W3_6  1  0.79977784  0.79977784  0.40044432  1
  W  W3_7  1  0.79977784  0.79977784  0.90044432  1
loop_
_geom_bond_atom_site_label_1
_geom_bond_atom_site_label_2
_geom_bond_distance
_geom_bond_site_symmetry_2
Re0_0 W3_1 2.735692 1_554
Re0_0 W3_7 2.735692 1_444
Re0_0 W0_6 2.735692 1_445
Re0_0 W0_0 2.735692 1_555
Re0_1 W0_1 2.735692 1_555
Re0_1 W0_7 2.735692 1_445
Re0_1 W3_0 2.735692 1_555
Re0_1 W3_6 2.735692 1_445
Re0_2 W3_5 2.735692 1_454
Re0_2 W3_3 2.735692 1_554
Re0_2 W0_2 2.735692 1_555
Re0_2 W0_4 2.735692 1_455
Re0_3 W3_2 2.735692 1_555
Re0_3 W3_4 2.735692 1_455
Re0_3 W0_3 2.735692 1_555
Re0_3 W0_5 2.735692 1_455
Re0_4 W3_3 2.735692 1_544
Re0_4 W3_5 2.735692 1_554
Re0_4 W0_2 2.735692 1_545
Re0_4 W0_4 2.735692 1_555
Re0_5 W3_4 2.735692 1_555
Re0_5 W3_2 2.735692 1_545
Re0_5 W0_3 2.735692 1_545
Re0_5 W0_5 2.735692 1_555
Re0_6 W3_1 2.735692 1_554
Re0_6 W3_7 2.735692 1_554
Re0_6 W0_6 2.735692 1_555
Re0_6 W0_0 2.735692 1_555
Re0_7 W0_7 2.735692 1_555
Re0_7 W0_1 2.735692 1_555
Re0_7 W3_6 2.735692 1_555
Re0_7 W3_0 2.735692 1_555
W0_0 W1_6 2.748054 1_445
W0_0 W1_0 2.748054 1_555
W0_1 W1_7 2.748054 1_445
W0_1 W1_1 2.748054 1_555
W0_2 W1_2 2.748054 1_555
W0_2 W1_4 2.748054 1_455
W0_3 W1_3 2.748054 1_555
W0_3 W1_5 2.748054 1_455
W0_4 W1_2 2.748054 1_545
W0_4 W1_4 2.748054 1_555
W0_5 W1_3 2.748054 1_545
W0_5 W1_5 2.748054 1_555
W0_6 W1_6 2.748054 1_555
W0_6 W1_0 2.748054 1_555
W0_7 W1_7 2.748054 1_555
W0_7 W1_1 2.748054 1_555
W1_0 W1_2 2.750448 1_555
W1_0 W1_4 2.750448 1_455
W1_0 W1_4 2.750448 1_555
W1_0 W1_2 2.750448 1_545
W1_0 W2_0 2.751572 1_555
W1_0 W2_6 2.751572 1_555
W1_1 W1_3 2.750448 1_555
W1_1 W1_5 2.750448 1_555
W1_1 W1_5 2.750448 1_455
W1_1 W1_3 2.750448 1_545
W1_1 W2_1 2.751572 1_555
W1_1 W2_7 2.751572 1_555
W1_2 W1_6 2.750448 1_555
W1_2 W1_6 2.750448 1_455
W1_2 W2_2 2.751572 1_555
W1_2 W2_4 2.751572 1_565
W1_3 W1_7 2.750448 1_455
W1_3 W1_7 2.750448 1_555
W1_3 W2_3 2.751572 1_555
W1_3 W2_5 2.751572 1_565
W1_4 W1_6 2.750448 1_555
W1_4 W1_6 2.750448 1_545
W1_4 W2_2 2.751572 1_655
W1_4 W2_4 2.751572 1_555
W1_5 W1_7 2.750448 1_555
W1_5 W1_7 2.750448 1_545
W1_5 W2_5 2.751572 1_555
W1_5 W2_3 2.751572 1_655
W1_6 W2_6 2.751572 1_555
W1_6 W2_0 2.751572 1_665
W1_7 W2_1 2.751572 1_665
W1_7 W2_7 2.751572 1_555
W2_0 W3_6 2.748054 1_445
W2_0 W3_0 2.748054 1_555
W2_0 W2_2 2.750448 1_555
W2_0 W2_4 2.750448 1_555
W2_0 W2_4 2.750448 1_455
W2_0 W2_2 2.750448 1_545
W2_1 W3_1 2.748054 1_555
W2_1 W3_7 2.748054 1_445
W2_1 W2_3 2.750448 1_555
W2_1 W2_5 2.750448 1_455
W2_1 W2_3 2.750448 1_545
W2_1 W2_5 2.750448 1_555
W2_2 W3_2 2.748054 1_555
W2_2 W3_4 2.748054 1_455
W2_2 W2_6 2.750448 1_555
W2_2 W2_6 2.750448 1_455
W2_3 W3_3 2.748054 1_555
W2_3 W3_5 2.748054 1_455
W2_3 W2_7 2.750448 1_555
W2_3 W2_7 2.750448 1_455
W2_4 W3_4 2.748054 1_555
W2_4 W3_2 2.748054 1_545
W2_4 W2_6 2.750448 1_555
W2_4 W2_6 2.750448 1_545
W2_5 W3_3 2.748054 1_545
W2_5 W3_5 2.748054 1_555
W2_5 W2_7 2.750448 1_555
W2_5 W2_7 2.750448 1_545
W2_6 W3_0 2.748054 1_555
W2_6 W3_6 2.748054 1_555
W2_7 W3_7 2.748054 1_555
W2_7 W3_1 2.748054 1_555
