# generated using pymatgen
data_Sr2GaFe2O7
_symmetry_space_group_name_H-M   'P 1'
_cell_length_a   12.83311255
_cell_length_b   12.83311255
_cell_length_c   12.83311255
_cell_angle_alpha   156.37487568
_cell_angle_beta   155.96835965
_cell_angle_gamma   33.95179026
_symmetry_Int_Tables_number   1
_chemical_formula_structural   Sr2GaFe2O7
_chemical_formula_sum   'Sr4 Ga2 Fe4 O14'
_cell_volume   344.58096774
_cell_formula_units_Z   2
loop_
 _symmetry_equiv_pos_site_id
 _symmetry_equiv_pos_as_xyz
  1  'x, y, z'
loop_
 _atom_site_type_symbol
 _atom_site_label
 _atom_site_symmetry_multiplicity
 _atom_site_fract_x
 _atom_site_fract_y
 _atom_site_fract_z
 _atom_site_occupancy
  Sr  Sr0  1  0.85625300  0.85561800  0.01568000  1
  Sr  Sr1  1  0.14374700  0.15942700  0.99936500  1
  Sr  Sr2  1  0.33993800  0.35561800  0.99936500  1
  Sr  Sr3  1  0.66006200  0.65942700  0.01568000  1
  Ga  Ga0  1  0.32349000  0.70174600  0.52523700  1
  Ga  Ga1  1  0.67651000  0.20174600  0.37825600  1
  Fe  Fe0  1  0.06145800  0.56487000  0.50901800  1
  Fe  Fe1  1  0.44414900  0.94756000  0.50901800  1
  Fe  Fe2  1  0.55585100  0.06487000  0.50341200  1
  Fe  Fe3  1  0.93854200  0.44756000  0.50341200  1
  O  O0  1  0.18128300  0.68617600  0.00586500  1
  O  O1  1  0.34592300  0.33792100  0.18384400  1
  O  O2  1  0.18031200  0.18617600  0.50489400  1
  O  O3  1  0.70639700  0.20053000  0.55023700  1
  O  O4  1  0.32318600  0.82826900  0.00690700  1
  O  O5  1  0.32136200  0.32826900  0.50508300  1
  O  O6  1  0.65407700  0.83792100  0.99199800  1
  O  O7  1  0.81968800  0.32458200  0.00586500  1
  O  O8  1  0.81871700  0.82458200  0.50489400  1
  O  O9  1  0.15029300  0.70053000  0.49413300  1
  O  O10  1  0.29360300  0.84384000  0.49413300  1
  O  O11  1  0.84970700  0.34384000  0.55023700  1
  O  O12  1  0.67681400  0.68372100  0.50508300  1
  O  O13  1  0.67863800  0.18372100  0.00690700  1
loop_
_geom_bond_atom_site_label_1
_geom_bond_atom_site_label_2
_geom_bond_distance
_geom_bond_site_symmetry_2
Ga0 O9 1.877581 1_555
Ga0 O10 1.877604 1_555
Ga0 O6 1.905805 1_555
Ga0 O1 1.915348 1_555
Ga1 O3 1.877592 1_555
Ga1 O11 1.877592 1_555
Ga1 O1 1.905809 1_555
Ga1 O6 1.915345 1_544
Fe0 O5 1.889957 1_555
Fe0 O4 1.895154 1_556
Fe0 O8 1.900670 1_455
Fe0 O7 1.903049 1_455
Fe1 O12 1.889955 1_555
Fe1 O13 1.895156 1_566
Fe1 O2 1.900674 1_565
Fe1 O0 1.903052 1_555
Fe2 O4 1.889959 1_545
Fe2 O5 1.895153 1_555
Fe2 O7 1.900672 1_556
Fe2 O8 1.903054 1_545
Fe3 O13 1.889957 1_555
Fe3 O12 1.895154 1_555
Fe3 O0 1.900672 1_656
Fe3 O2 1.903054 1_655
O0 Sr2 2.735060 1_554
O0 Sr0 2.748299 1_455
O1 Sr1 2.507262 1_554
O1 Sr2 2.507262 1_554
O2 Sr0 2.735062 1_445
O2 Sr2 2.748297 1_555
O3 Sr1 2.562891 1_655
O3 Sr3 2.633488 1_556
O3 Sr3 2.782950 1_545
O3 Sr1 2.938705 1_554
O4 Sr3 2.723007 1_555
O4 Sr1 2.735658 1_564
O5 Sr1 2.723007 1_554
O5 Sr3 2.735658 1_556
O6 Sr3 2.507262 1_556
O6 Sr0 2.507262 1_556
O7 Sr1 2.735072 1_654
O7 Sr3 2.748306 1_555
O8 Sr3 2.735072 1_555
O8 Sr1 2.748306 1_665
O9 Sr3 2.562891 1_455
O9 Sr1 2.633488 1_565
O9 Sr1 2.782950 1_554
O9 Sr3 2.938705 1_556
O10 Sr0 2.562891 1_455
O10 Sr2 2.633488 1_565
O10 Sr2 2.782950 1_554
O10 Sr0 2.938705 1_556
O11 Sr2 2.562891 1_655
O11 Sr0 2.633488 1_556
O11 Sr0 2.782950 1_545
O11 Sr2 2.938705 1_554
O12 Sr2 2.723007 1_554
O12 Sr0 2.735658 1_556
O13 Sr0 2.723007 1_545
O13 Sr2 2.735658 1_554
