# generated using pymatgen
data_EuAsPd
_symmetry_space_group_name_H-M   'P 1'
_cell_length_a   4.28963188
_cell_length_b   4.28963188
_cell_length_c   8.42992557
_cell_angle_alpha   90.00000000
_cell_angle_beta   90.00000000
_cell_angle_gamma   119.99999160
_symmetry_Int_Tables_number   1
_chemical_formula_structural   EuAsPd
_chemical_formula_sum   'Eu2 As2 Pd2'
_cell_volume   134.33663215
_cell_formula_units_Z   2
loop_
 _symmetry_equiv_pos_site_id
 _symmetry_equiv_pos_as_xyz
  1  'x, y, z'
loop_
 _atom_site_type_symbol
 _atom_site_label
 _atom_site_symmetry_multiplicity
 _atom_site_fract_x
 _atom_site_fract_y
 _atom_site_fract_z
 _atom_site_occupancy
  Eu  Eu0  1  0.00000000  0.00000000  0.50000000  1
  Eu  Eu1  1  0.00000000  0.00000000  -0.00000000  1
  As  As0  1  0.66666700  0.33333300  0.75013746  1
  As  As1  1  0.33333300  0.66666700  0.24986254  1
  Pd  Pd0  1  0.66666700  0.33333300  0.25013863  1
  Pd  Pd1  1  0.33333300  0.66666700  0.74986137  1
loop_
_geom_bond_atom_site_label_1
_geom_bond_atom_site_label_2
_geom_bond_distance
_geom_bond_site_symmetry_2
Eu0 Pd0 3.251183 1_455
Eu0 Pd1 3.251183 1_545
Eu0 Pd1 3.251186 1_445
Eu0 Pd1 3.251186 1_555
Eu0 Pd0 3.251186 1_555
Eu0 Pd0 3.251186 1_445
Eu1 Pd1 3.252697 1_544
Eu1 Pd0 3.252697 1_455
Eu1 Pd0 3.252700 1_445
Eu1 Pd1 3.252700 1_444
Eu1 Pd1 3.252700 1_554
Eu1 Pd0 3.252700 1_555
As0 Pd1 2.476619 1_545
As0 Pd1 2.476619 1_655
As0 Pd1 2.476626 1_555
As0 Eu1 3.251189 1_656
As0 Eu1 3.251192 1_666
As0 Eu1 3.251192 1_556
As0 Eu0 3.252691 1_655
As0 Eu0 3.252694 1_665
As0 Eu0 3.252694 1_555
As1 Pd0 2.476619 1_455
As1 Pd0 2.476619 1_565
As1 Pd0 2.476626 1_555
As1 Eu1 3.251189 1_565
As1 Eu1 3.251192 1_665
As1 Eu1 3.251192 1_555
As1 Eu0 3.252691 1_565
As1 Eu0 3.252694 1_665
As1 Eu0 3.252694 1_555
