# generated using pymatgen
data_Mg30SiBO32
_symmetry_space_group_name_H-M   'P 1'
_cell_length_a   8.48989100
_cell_length_b   8.48989100
_cell_length_c   8.61461300
_cell_angle_alpha   90.00000000
_cell_angle_beta   90.00000000
_cell_angle_gamma   90.00000000
_symmetry_Int_Tables_number   1
_chemical_formula_structural   Mg30SiBO32
_chemical_formula_sum   'Mg30 Si1 B1 O32'
_cell_volume   620.92622251
_cell_formula_units_Z   1
loop_
 _symmetry_equiv_pos_site_id
 _symmetry_equiv_pos_as_xyz
  1  'x, y, z'
loop_
 _atom_site_type_symbol
 _atom_site_label
 _atom_site_symmetry_multiplicity
 _atom_site_fract_x
 _atom_site_fract_y
 _atom_site_fract_z
 _atom_site_occupancy
  Mg  Mg0  1  0.00000000  0.50000000  0.00000000  1
  Mg  Mg1  1  0.00000000  0.50000000  0.50000000  1
  Mg  Mg2  1  0.50000000  0.00000000  0.00000000  1
  Mg  Mg3  1  0.50000000  0.00000000  0.50000000  1
  Mg  Mg4  1  0.50000000  0.50000000  0.00000000  1
  Mg  Mg5  1  0.50000000  0.50000000  0.50000000  1
  Mg  Mg6  1  0.00000000  0.24600700  0.25758900  1
  Mg  Mg7  1  0.00000000  0.24600700  0.74241100  1
  Mg  Mg8  1  0.00000000  0.75399300  0.25758900  1
  Mg  Mg9  1  0.00000000  0.75399300  0.74241100  1
  Mg  Mg10  1  0.50000000  0.24924300  0.25178100  1
  Mg  Mg11  1  0.50000000  0.24924300  0.74821900  1
  Mg  Mg12  1  0.50000000  0.75075700  0.25178100  1
  Mg  Mg13  1  0.50000000  0.75075700  0.74821900  1
  Mg  Mg14  1  0.24600700  0.00000000  0.25758900  1
  Mg  Mg15  1  0.24600700  0.00000000  0.74241100  1
  Mg  Mg16  1  0.24924300  0.50000000  0.25178100  1
  Mg  Mg17  1  0.24924300  0.50000000  0.74821900  1
  Mg  Mg18  1  0.75399300  0.00000000  0.25758900  1
  Mg  Mg19  1  0.75399300  0.00000000  0.74241100  1
  Mg  Mg20  1  0.75075700  0.50000000  0.25178100  1
  Mg  Mg21  1  0.75075700  0.50000000  0.74821900  1
  Mg  Mg22  1  0.25007700  0.25007700  0.00000000  1
  Mg  Mg23  1  0.24723500  0.24723500  0.50000000  1
  Mg  Mg24  1  0.25007700  0.74992300  0.00000000  1
  Mg  Mg25  1  0.24723500  0.75276500  0.50000000  1
  Mg  Mg26  1  0.74992300  0.25007700  0.00000000  1
  Mg  Mg27  1  0.75276500  0.24723500  0.50000000  1
  Mg  Mg28  1  0.74992300  0.74992300  0.00000000  1
  Mg  Mg29  1  0.75276500  0.75276500  0.50000000  1
  Si  Si0  1  0.00000000  0.00000000  0.00000000  1
  B  B0  1  0.00000000  0.00000000  0.50000000  1
  O  O0  1  0.23136600  0.00000000  0.00000000  1
  O  O1  1  0.26748700  0.00000000  0.50000000  1
  O  O2  1  0.24772000  0.50000000  0.00000000  1
  O  O3  1  0.25224300  0.50000000  0.50000000  1
  O  O4  1  0.76863400  0.00000000  0.00000000  1
  O  O5  1  0.73251300  0.00000000  0.50000000  1
  O  O6  1  0.75228000  0.50000000  0.00000000  1
  O  O7  1  0.74775700  0.50000000  0.50000000  1
  O  O8  1  0.24859700  0.24859700  0.24946500  1
  O  O9  1  0.24859700  0.24859700  0.75053500  1
  O  O10  1  0.24859700  0.75140300  0.24946500  1
  O  O11  1  0.24859700  0.75140300  0.75053500  1
  O  O12  1  0.75140300  0.24859700  0.24946500  1
  O  O13  1  0.75140300  0.24859700  0.75053500  1
  O  O14  1  0.75140300  0.75140300  0.24946500  1
  O  O15  1  0.75140300  0.75140300  0.75053500  1
  O  O16  1  0.00000000  0.00000000  0.19594300  1
  O  O17  1  0.00000000  0.00000000  0.80405700  1
  O  O18  1  0.00000000  0.50000000  0.24280100  1
  O  O19  1  0.00000000  0.50000000  0.75719900  1
  O  O20  1  0.50000000  0.00000000  0.24280100  1
  O  O21  1  0.50000000  0.00000000  0.75719900  1
  O  O22  1  0.50000000  0.50000000  0.24735900  1
  O  O23  1  0.50000000  0.50000000  0.75264100  1
  O  O24  1  0.00000000  0.23136600  0.00000000  1
  O  O25  1  0.00000000  0.26748700  0.50000000  1
  O  O26  1  0.00000000  0.76863400  0.00000000  1
  O  O27  1  0.00000000  0.73251300  0.50000000  1
  O  O28  1  0.50000000  0.24772000  0.00000000  1
  O  O29  1  0.50000000  0.25224300  0.50000000  1
  O  O30  1  0.50000000  0.75228000  0.00000000  1
  O  O31  1  0.50000000  0.74775700  0.50000000  1
loop_
_geom_bond_atom_site_label_1
_geom_bond_atom_site_label_2
_geom_bond_distance
_geom_bond_site_symmetry_2
Mg0 O18 2.091637 1_555
Mg0 O19 2.091637 1_554
Mg0 O2 2.103116 1_555
Mg0 O6 2.103116 1_455
Mg0 O24 2.280673 1_555
Mg0 O26 2.280673 1_555
Mg1 O27 1.974010 1_555
Mg1 O25 1.974010 1_555
Mg1 O3 2.141516 1_555
Mg1 O7 2.141516 1_455
Mg1 O19 2.215670 1_555
Mg1 O18 2.215670 1_555
Mg2 O20 2.091637 1_555
Mg2 O21 2.091637 1_554
Mg2 O28 2.103116 1_555
Mg2 O30 2.103116 1_545
Mg2 O0 2.280673 1_555
Mg2 O4 2.280673 1_555
Mg3 O5 1.974010 1_555
Mg3 O1 1.974010 1_555
Mg3 O29 2.141516 1_555
Mg3 O31 2.141516 1_545
Mg3 O21 2.215670 1_555
Mg3 O20 2.215670 1_555
Mg4 O22 2.130902 1_555
Mg4 O23 2.130902 1_554
Mg4 O30 2.141830 1_555
Mg4 O6 2.141830 1_555
Mg4 O2 2.141830 1_555
Mg4 O28 2.141830 1_555
Mg5 O31 2.103430 1_555
Mg5 O3 2.103430 1_555
Mg5 O7 2.103430 1_555
Mg5 O29 2.103430 1_555
Mg5 O23 2.176404 1_555
Mg5 O22 2.176404 1_555
Mg6 O25 2.096224 1_555
Mg6 O12 2.111836 1_455
Mg6 O8 2.111836 1_555
Mg6 O16 2.155031 1_555
Mg6 O18 2.160133 1_555
Mg6 O24 2.222508 1_555
Mg7 O25 2.096224 1_555
Mg7 O13 2.111836 1_455
Mg7 O9 2.111836 1_555
Mg7 O17 2.155031 1_555
Mg7 O19 2.160133 1_555
Mg7 O24 2.222508 1_556
Mg8 O27 2.096224 1_555
Mg8 O14 2.111836 1_455
Mg8 O10 2.111836 1_555
Mg8 O16 2.155031 1_565
Mg8 O18 2.160133 1_555
Mg8 O26 2.222508 1_555
Mg9 O27 2.096224 1_555
Mg9 O15 2.111836 1_455
Mg9 O11 2.111836 1_555
Mg9 O17 2.155031 1_565
Mg9 O19 2.160133 1_555
Mg9 O26 2.222508 1_556
Mg10 O20 2.117459 1_555
Mg10 O22 2.129240 1_555
Mg10 O8 2.134484 1_555
Mg10 O12 2.134484 1_555
Mg10 O29 2.138462 1_555
Mg10 O28 2.169034 1_555
Mg11 O21 2.117459 1_555
Mg11 O23 2.129240 1_555
Mg11 O9 2.134484 1_555
Mg11 O13 2.134484 1_555
Mg11 O29 2.138462 1_555
Mg11 O28 2.169034 1_556
Mg12 O20 2.117459 1_565
Mg12 O22 2.129240 1_555
Mg12 O10 2.134484 1_555
Mg12 O14 2.134484 1_555
Mg12 O31 2.138462 1_555
Mg12 O30 2.169034 1_555
Mg13 O21 2.117459 1_565
Mg13 O23 2.129240 1_555
Mg13 O11 2.134484 1_555
Mg13 O15 2.134484 1_555
Mg13 O31 2.138462 1_555
Mg13 O30 2.169034 1_556
Mg14 O1 2.096224 1_555
Mg14 O10 2.111836 1_545
Mg14 O8 2.111836 1_555
Mg14 O16 2.155031 1_555
Mg14 O20 2.160133 1_555
Mg14 O0 2.222508 1_555
Mg15 O1 2.096224 1_555
Mg15 O11 2.111836 1_545
Mg15 O9 2.111836 1_555
Mg15 O17 2.155031 1_555
Mg15 O21 2.160133 1_555
Mg15 O0 2.222508 1_556
Mg16 O18 2.117459 1_555
Mg16 O22 2.129240 1_555
Mg16 O8 2.134484 1_555
Mg16 O10 2.134484 1_555
Mg16 O3 2.138462 1_555
Mg16 O2 2.169034 1_555
Mg17 O19 2.117459 1_555
Mg17 O23 2.129240 1_555
Mg17 O9 2.134484 1_555
Mg17 O11 2.134484 1_555
Mg17 O3 2.138462 1_555
Mg17 O2 2.169034 1_556
Mg18 O5 2.096224 1_555
Mg18 O14 2.111836 1_545
Mg18 O12 2.111836 1_555
Mg18 O16 2.155031 1_655
Mg18 O20 2.160133 1_555
Mg18 O4 2.222508 1_555
Mg19 O5 2.096224 1_555
Mg19 O15 2.111836 1_545
Mg19 O13 2.111836 1_555
Mg19 O17 2.155031 1_655
Mg19 O21 2.160133 1_555
Mg19 O4 2.222508 1_556
Mg20 O18 2.117459 1_655
Mg20 O22 2.129240 1_555
Mg20 O12 2.134484 1_555
Mg20 O14 2.134484 1_555
Mg20 O7 2.138462 1_555
Mg20 O6 2.169034 1_555
Mg21 O19 2.117459 1_655
Mg21 O23 2.129240 1_555
Mg21 O13 2.134484 1_555
Mg21 O15 2.134484 1_555
Mg21 O7 2.138462 1_555
Mg21 O6 2.169034 1_556
Mg22 O2 2.121913 1_555
Mg22 O28 2.121913 1_555
Mg22 O0 2.129061 1_555
Mg22 O24 2.129061 1_555
Mg22 O8 2.149118 1_555
Mg22 O9 2.149118 1_554
Mg23 O25 2.106028 1_555
Mg23 O1 2.106028 1_555
Mg23 O29 2.146368 1_555
Mg23 O3 2.146368 1_555
Mg23 O9 2.158324 1_555
Mg23 O8 2.158324 1_555
Mg24 O2 2.121913 1_555
Mg24 O30 2.121913 1_555
Mg24 O0 2.129061 1_565
Mg24 O26 2.129061 1_555
Mg24 O10 2.149118 1_555
Mg24 O11 2.149118 1_554
Mg25 O1 2.106028 1_565
Mg25 O27 2.106028 1_555
Mg25 O31 2.146368 1_555
Mg25 O3 2.146368 1_555
Mg25 O11 2.158324 1_555
Mg25 O10 2.158324 1_555
Mg26 O28 2.121913 1_555
Mg26 O6 2.121913 1_555
Mg26 O4 2.129061 1_555
Mg26 O24 2.129061 1_655
Mg26 O12 2.149118 1_555
Mg26 O13 2.149118 1_554
Mg27 O25 2.106028 1_655
Mg27 O5 2.106028 1_555
Mg27 O29 2.146368 1_555
Mg27 O7 2.146368 1_555
Mg27 O13 2.158324 1_555
Mg27 O12 2.158324 1_555
Mg28 O6 2.121913 1_555
Mg28 O30 2.121913 1_555
Mg28 O26 2.129061 1_655
Mg28 O4 2.129061 1_565
Mg28 O14 2.149118 1_555
Mg28 O15 2.149118 1_554
Mg29 O27 2.106028 1_655
Mg29 O5 2.106028 1_565
Mg29 O31 2.146368 1_555
Mg29 O7 2.146368 1_555
Mg29 O15 2.158324 1_555
Mg29 O14 2.158324 1_555
O0 Si0 1.964272 1_555
O4 Si0 1.964272 1_655
O16 Si0 1.687973 1_555
O17 Si0 1.687973 1_556
O24 Si0 1.964272 1_555
O26 Si0 1.964272 1_565
