# generated using pymatgen
data_BaNaTl2
_symmetry_space_group_name_H-M   'P 1'
_cell_length_a   12.63071456
_cell_length_b   14.07021919
_cell_length_c   14.07021885
_cell_angle_alpha   61.84396088
_cell_angle_beta   63.33035240
_cell_angle_gamma   63.33035357
_symmetry_Int_Tables_number   1
_chemical_formula_structural   BaNaTl2
_chemical_formula_sum   'Ba1 Na1 Tl2'
_cell_volume   1878.78394871
_cell_formula_units_Z   1
loop_
 _symmetry_equiv_pos_site_id
 _symmetry_equiv_pos_as_xyz
  1  'x, y, z'
loop_
 _atom_site_type_symbol
 _atom_site_label
 _atom_site_symmetry_multiplicity
 _atom_site_fract_x
 _atom_site_fract_y
 _atom_site_fract_z
 _atom_site_occupancy
  Ba  Ba0  1  0.50000000  0.00000000  -0.00000000  1
  Na  Na0  1  0.00000000  0.00000000  -0.00000000  1
  Tl  Tl0  1  0.75662933  0.00000000  0.00000000  1
  Tl  Tl1  1  0.24337067  -0.00000000  -0.00000000  1
loop_
_geom_bond_atom_site_label_1
_geom_bond_atom_site_label_2
_geom_bond_distance
_geom_bond_site_symmetry_2
Ba0 Tl1 3.241412 1_555
Ba0 Tl0 3.241412 1_555
Na0 Tl1 3.073945 1_555
Na0 Tl0 3.073945 1_455
