# generated using pymatgen
data_DyIn7Cu5
_symmetry_space_group_name_H-M   'P 1'
_cell_length_a   7.25303415
_cell_length_b   7.25303415
_cell_length_c   7.25303415
_cell_angle_alpha   135.51710979
_cell_angle_beta   98.59216395
_cell_angle_gamma   97.88239328
_symmetry_Int_Tables_number   1
_chemical_formula_structural   DyIn7Cu5
_chemical_formula_sum   'Dy1 In7 Cu5'
_cell_volume   247.45702617
_cell_formula_units_Z   1
loop_
 _symmetry_equiv_pos_site_id
 _symmetry_equiv_pos_as_xyz
  1  'x, y, z'
loop_
 _atom_site_type_symbol
 _atom_site_label
 _atom_site_symmetry_multiplicity
 _atom_site_fract_x
 _atom_site_fract_y
 _atom_site_fract_z
 _atom_site_occupancy
  Dy  Dy0  1  0.00026900  0.00026900  0.00000000  1
  In  In0  1  0.65756200  0.65756200  0.00000000  1
  In  In1  1  0.33425000  0.33425000  0.00000000  1
  In  In2  1  0.32813200  0.98685900  0.34127400  1
  In  In3  1  0.64558500  0.98685900  0.65872600  1
  In  In4  1  0.77829900  0.27829900  0.50000000  1
  In  In5  1  0.81647700  0.51272300  0.30375400  1
  In  In6  1  0.20896900  0.51272300  0.69624600  1
  Cu  Cu0  1  0.49579300  0.49942000  0.49311300  1
  Cu  Cu1  1  0.49579300  0.00268000  0.99637300  1
  Cu  Cu2  1  0.00630700  0.49942000  0.00362700  1
  Cu  Cu3  1  0.00630700  0.00268000  0.50688700  1
  Cu  Cu4  1  0.22625800  0.72625800  0.50000000  1
loop_
_geom_bond_atom_site_label_1
_geom_bond_atom_site_label_2
_geom_bond_distance
_geom_bond_site_symmetry_2
Dy0 In1 3.182194 1_555
Dy0 In2 3.231021 1_545
Dy0 In3 3.231026 1_444
Dy0 In0 3.265336 1_445
Dy0 In5 3.316273 1_455
Dy0 In6 3.316273 1_555
Dy0 In6 3.316273 1_544
Dy0 In5 3.316273 1_444
Dy0 In4 3.465535 1_455
Dy0 In4 3.465535 1_444
In0 In4 2.976632 1_565
In0 In4 2.976632 1_554
In0 In1 3.080539 1_555
In0 In5 3.187760 1_555
In0 In6 3.187760 1_554
In1 In6 3.339015 1_554
In1 In5 3.339015 1_555
In2 In3 3.003144 1_555
In2 In6 3.078959 1_565
In2 In6 3.078964 1_554
In2 In4 3.156850 1_565
In3 In5 3.078963 1_566
In3 In5 3.078963 1_555
In3 In4 3.156844 1_565
In4 In6 2.904419 1_655
In4 In5 2.904419 1_555
Cu0 In6 2.697385 1_555
Cu0 Cu4 2.706531 1_555
Cu0 Cu1 2.727449 1_554
Cu0 In3 2.760285 1_555
Cu0 Cu1 2.763249 1_565
Cu0 In4 2.785363 1_555
Cu0 In1 2.801571 1_555
Cu0 In5 2.896140 1_555
Cu0 In0 2.921204 1_556
Cu0 In2 3.005017 1_545
Cu0 Dy0 3.595814 1_555
Cu0 Dy0 3.657675 1_666
Cu1 In6 2.697385 1_545
Cu1 Cu4 2.706531 1_545
Cu1 In3 2.760285 1_545
Cu1 In4 2.785363 1_556
Cu1 In1 2.801571 1_556
Cu1 In5 2.896140 1_556
Cu1 In0 2.921204 1_546
Cu1 In2 3.005019 1_546
Cu1 Dy0 3.595814 1_556
Cu1 Dy0 3.657675 1_656
Cu2 In5 2.697385 1_455
Cu2 Cu4 2.706531 1_555
Cu2 Cu3 2.727449 1_554
Cu2 In2 2.760281 1_555
Cu2 Cu3 2.763249 1_565
Cu2 In4 2.785363 1_454
Cu2 In1 2.801571 1_555
Cu2 In6 2.896140 1_554
Cu2 In0 2.921204 1_455
Cu2 In3 3.005016 1_444
Cu2 Dy0 3.595814 1_555
Cu2 Dy0 3.657675 1_565
Cu3 In5 2.697385 1_445
Cu3 Cu4 2.706531 1_545
Cu3 In2 2.760279 1_545
Cu3 In4 2.785363 1_455
Cu3 In1 2.801571 1_556
Cu3 In6 2.896140 1_555
Cu3 In0 2.921204 1_445
Cu3 In3 3.005016 1_445
Cu3 Dy0 3.595814 1_556
Cu3 Dy0 3.657675 1_555
Cu4 In5 2.754295 1_455
Cu4 In6 2.754295 1_555
Cu4 In2 2.901743 1_555
Cu4 In3 2.901744 1_555
Cu4 In1 2.931841 1_566
Cu4 In1 2.931841 1_555
Cu4 Dy0 3.489037 1_566
Cu4 Dy0 3.489037 1_555
