# generated using pymatgen
data_Y(NiB)2
_symmetry_space_group_name_H-M   'P 1'
_cell_length_a   4.95119885
_cell_length_b   4.95119885
_cell_length_c   6.80685804
_cell_angle_alpha   59.41907897
_cell_angle_beta   59.41907897
_cell_angle_gamma   64.36695581
_symmetry_Int_Tables_number   1
_chemical_formula_structural   Y(NiB)2
_chemical_formula_sum   'Y2 Ni4 B4'
_cell_volume   120.22835097
_cell_formula_units_Z   2
loop_
 _symmetry_equiv_pos_site_id
 _symmetry_equiv_pos_as_xyz
  1  'x, y, z'
loop_
 _atom_site_type_symbol
 _atom_site_label
 _atom_site_symmetry_multiplicity
 _atom_site_fract_x
 _atom_site_fract_y
 _atom_site_fract_z
 _atom_site_occupancy
  Y  Y0  1  0.11870095  0.88129905  0.25000000  1
  Y  Y1  1  0.88129905  0.11870095  0.75000000  1
  Ni  Ni0  1  0.46990065  0.28041384  0.20007379  1
  Ni  Ni1  1  0.71958616  0.53009935  0.29992621  1
  Ni  Ni2  1  0.53009935  0.71958616  0.79992621  1
  Ni  Ni3  1  0.28041384  0.46990065  0.70007379  1
  B  B0  1  0.15540950  0.50270907  0.02627080  1
  B  B1  1  0.49729093  0.84459050  0.47372920  1
  B  B2  1  0.84459050  0.49729093  0.97372920  1
  B  B3  1  0.50270907  0.15540950  0.52627080  1
loop_
_geom_bond_atom_site_label_1
_geom_bond_atom_site_label_2
_geom_bond_distance
_geom_bond_site_symmetry_2
Ni0 Y0 2.818129 1_555
Ni0 Y0 2.955078 1_545
Ni0 Y1 2.985121 1_554
Ni1 Y0 2.818129 1_555
Ni1 Y0 2.955078 1_655
Ni1 Y1 2.985121 1_555
Ni2 Y1 2.818129 1_555
Ni2 Y1 2.955078 1_565
Ni2 Y0 2.985121 1_556
Ni3 Y1 2.818129 1_555
Ni3 Y1 2.955078 1_455
Ni3 Y0 2.985121 1_555
B0 B2 1.761371 1_454
B0 Ni1 2.014558 1_455
B0 Ni2 2.024929 1_554
B0 Ni0 2.025409 1_555
B0 Ni3 2.054564 1_554
B0 Y0 2.693158 1_545
B0 Y1 2.803557 1_464
B0 Y0 2.862533 1_555
B1 B3 1.761371 1_565
B1 Ni0 2.014558 1_565
B1 Ni3 2.024929 1_555
B1 Ni1 2.025409 1_555
B1 Ni2 2.054564 1_555
B1 Y0 2.693158 1_655
B1 Y1 2.803557 1_465
B1 Y0 2.862533 1_555
B2 Ni3 2.014558 1_655
B2 Ni0 2.024929 1_556
B2 Ni2 2.025409 1_555
B2 Ni1 2.054564 1_556
B2 Y1 2.693158 1_565
B2 Y0 2.803557 1_646
B2 Y1 2.862533 1_555
B3 Ni2 2.014558 1_545
B3 Ni1 2.024929 1_555
B3 Ni3 2.025409 1_555
B3 Ni0 2.054564 1_555
B3 Y1 2.693158 1_455
B3 Y0 2.803557 1_645
B3 Y1 2.862533 1_555
