# generated using pymatgen
data_Tb14Ag51
_symmetry_space_group_name_H-M   'P 1'
_cell_length_a   9.26425019
_cell_length_b   12.55936115
_cell_length_c   12.55957488
_cell_angle_alpha   119.99678145
_cell_angle_beta   90.00000000
_cell_angle_gamma   90.00000000
_symmetry_Int_Tables_number   1
_chemical_formula_structural   Tb14Ag51
_chemical_formula_sum   'Tb14 Ag51'
_cell_volume   1265.60295323
_cell_formula_units_Z   1
loop_
 _symmetry_equiv_pos_site_id
 _symmetry_equiv_pos_as_xyz
  1  'x, y, z'
loop_
 _atom_site_type_symbol
 _atom_site_label
 _atom_site_symmetry_multiplicity
 _atom_site_fract_x
 _atom_site_fract_y
 _atom_site_fract_z
 _atom_site_occupancy
  Tb  Tb0  1  0.50000000  0.67239646  0.53172417  1
  Tb  Tb1  1  0.50000000  0.46826514  0.14067339  1
  Tb  Tb2  1  0.50000000  0.85932707  0.32760527  1
  Tb  Tb3  1  0.50000000  0.32953553  0.47190586  1
  Tb  Tb4  1  0.50000000  0.52810229  0.85763810  1
  Tb  Tb5  1  0.50000000  0.14237084  0.67045659  1
  Tb  Tb6  1  0.00000000  0.26866199  0.88676571  1
  Tb  Tb7  1  0.00000000  0.11324017  0.38190423  1
  Tb  Tb8  1  0.00000000  0.61809957  0.73134492  1
  Tb  Tb9  1  0.00000000  0.71575332  0.11501296  1
  Tb  Tb10  1  0.00000000  0.88498292  0.60072678  1
  Tb  Tb11  1  0.00000000  0.39925422  0.28424915  1
  Tb  Tb12  1  0.30766582  -0.00000446  0.99999799  1
  Tb  Tb13  1  0.69233418  -0.00000446  0.99999799  1
  Ag  Ag0  1  0.33326274  0.33407330  0.89730461  1
  Ag  Ag1  1  0.33326705  0.10270152  0.43676866  1
  Ag  Ag2  1  0.33325829  0.56323146  0.66592774  1
  Ag  Ag3  1  0.33361477  0.66269464  0.10391056  1
  Ag  Ag4  1  0.33361391  0.89609587  0.55878741  1
  Ag  Ag5  1  0.33361565  0.44121556  0.33731023  1
  Ag  Ag6  1  0.66638523  0.66269464  0.10391056  1
  Ag  Ag7  1  0.66638609  0.89609587  0.55878741  1
  Ag  Ag8  1  0.66638435  0.44121556  0.33731023  1
  Ag  Ag9  1  0.66673726  0.33407330  0.89730461  1
  Ag  Ag10  1  0.66673295  0.10270152  0.43676866  1
  Ag  Ag11  1  0.66674171  0.56323146  0.66592774  1
  Ag  Ag12  1  0.15233363  0.62432733  0.50907785  1
  Ag  Ag13  1  0.15233331  0.49092473  0.11525511  1
  Ag  Ag14  1  0.15233638  0.88473952  0.37565903  1
  Ag  Ag15  1  0.15112459  0.38236800  0.49742172  1
  Ag  Ag16  1  0.15111909  0.50257943  0.88495303  1
  Ag  Ag17  1  0.15111861  0.11505059  0.61762840  1
  Ag  Ag18  1  0.84887541  0.38236800  0.49742172  1
  Ag  Ag19  1  0.84888091  0.50257943  0.88495303  1
  Ag  Ag20  1  0.84888139  0.11505059  0.61762840  1
  Ag  Ag21  1  0.84766637  0.62432733  0.50907785  1
  Ag  Ag22  1  0.84766669  0.49092473  0.11525511  1
  Ag  Ag23  1  0.84766362  0.88473952  0.37565903  1
  Ag  Ag24  1  0.50000000  0.17863243  0.94287943  1
  Ag  Ag25  1  0.50000000  0.05711722  0.23574876  1
  Ag  Ag26  1  0.50000000  0.76425411  0.82138307  1
  Ag  Ag27  1  0.50000000  0.81931089  0.05931167  1
  Ag  Ag28  1  0.50000000  0.94070207  0.76000031  1
  Ag  Ag29  1  0.50000000  0.23999843  0.18069919  1
  Ag  Ag30  1  0.00000000  0.66666164  0.33333122  1
  Ag  Ag31  1  0.00000000  0.33334270  0.66667643  1
  Ag  Ag32  1  0.24113804  0.07759642  0.80614890  1
  Ag  Ag33  1  0.24112833  0.19385128  0.27144919  1
  Ag  Ag34  1  0.24113149  0.72856044  0.92240702  1
  Ag  Ag35  1  0.22911286  0.92475200  0.18667074  1
  Ag  Ag36  1  0.22910622  0.81332729  0.73806815  1
  Ag  Ag37  1  0.22911886  0.26192021  0.07524825  1
  Ag  Ag38  1  0.77088714  0.92475200  0.18667074  1
  Ag  Ag39  1  0.77089378  0.81332729  0.73806815  1
  Ag  Ag40  1  0.77088114  0.26192021  0.07524825  1
  Ag  Ag41  1  0.75886196  0.07759642  0.80614890  1
  Ag  Ag42  1  0.75887167  0.19385128  0.27144919  1
  Ag  Ag43  1  0.75886851  0.72856044  0.92240702  1
  Ag  Ag44  1  0.29994567  0.66666741  0.33333351  1
  Ag  Ag45  1  0.29968429  0.33333478  0.66667247  1
  Ag  Ag46  1  0.70031571  0.33333478  0.66667247  1
  Ag  Ag47  1  0.70005433  0.66666741  0.33333351  1
  Ag  Ag48  1  0.00000000  0.99058557  0.86881520  1
  Ag  Ag49  1  0.00000000  0.13117049  0.12176019  1
  Ag  Ag50  1  0.00000000  0.87821631  0.00939032  1
loop_
_geom_bond_atom_site_label_1
_geom_bond_atom_site_label_2
_geom_bond_distance
_geom_bond_site_symmetry_2
Tb12 Tb13 3.563664 1_555
Ag0 Ag24 2.764473 1_555
Ag0 Ag16 2.771027 1_555
Ag0 Ag45 2.908698 1_555
Ag0 Ag32 2.954265 1_555
Ag0 Ag37 2.961736 1_556
Ag0 Ag13 2.965045 1_556
Ag0 Tb1 3.068940 1_556
Ag0 Tb5 3.072676 1_555
Ag0 Ag9 3.089391 1_555
Ag0 Tb4 3.128353 1_555
Ag0 Tb6 3.180552 1_555
Ag1 Ag25 2.764539 1_555
Ag1 Ag17 2.771127 1_555
Ag1 Ag45 2.908887 1_555
Ag1 Ag33 2.954163 1_555
Ag1 Ag35 2.961945 1_545
Ag1 Ag14 2.965055 1_545
Ag1 Tb2 3.068930 1_545
Ag1 Tb3 3.072421 1_555
Ag1 Ag10 3.089312 1_555
Ag1 Tb5 3.128320 1_555
Ag1 Tb7 3.180567 1_555
Ag2 Ag26 2.764700 1_555
Ag2 Ag45 2.908721 1_555
Ag2 Ag34 2.954402 1_555
Ag2 Ag36 2.961828 1_555
Ag2 Tb0 3.068833 1_555
Ag2 Tb4 3.072555 1_555
Ag2 Tb3 3.128486 1_555
Ag2 Tb8 3.180528 1_555
Ag3 Ag44 2.873814 1_555
Ag3 Ag34 2.915577 1_554
Ag3 Ag35 3.070742 1_555
Ag3 Tb2 3.070921 1_555
Ag3 Ag6 3.082869 1_555
Ag3 Tb4 3.093957 1_554
Ag3 Tb1 3.111193 1_555
Ag3 Tb9 3.150074 1_555
Ag4 Ag44 2.873981 1_555
Ag4 Tb0 3.070850 1_555
Ag4 Ag7 3.082885 1_555
Ag4 Tb5 3.093938 1_565
Ag4 Tb2 3.111139 1_555
Ag4 Tb10 3.150042 1_555
Ag5 Tb1 3.070771 1_555
Ag5 Ag8 3.082852 1_555
Ag5 Tb3 3.093848 1_555
Ag5 Tb0 3.111186 1_555
Ag5 Tb11 3.150095 1_555
Ag6 Tb2 3.070921 1_555
Ag6 Tb4 3.093957 1_554
Ag6 Tb1 3.111193 1_555
Ag6 Tb9 3.150074 1_655
Ag7 Tb0 3.070850 1_555
Ag7 Tb5 3.093938 1_565
Ag7 Tb2 3.111139 1_555
Ag7 Tb10 3.150042 1_655
Ag8 Tb1 3.070771 1_555
Ag8 Tb3 3.093848 1_555
Ag8 Tb0 3.111186 1_555
Ag8 Tb11 3.150095 1_655
Ag9 Tb1 3.068940 1_556
Ag9 Tb5 3.072676 1_555
Ag9 Tb4 3.128353 1_555
Ag9 Tb6 3.180552 1_655
Ag10 Ag25 2.764539 1_555
Ag10 Ag20 2.771127 1_555
Ag10 Ag46 2.908887 1_555
Ag10 Ag42 2.954163 1_555
Ag10 Ag38 2.961945 1_545
Ag10 Ag23 2.965055 1_545
Ag10 Tb2 3.068930 1_545
Ag10 Tb3 3.072421 1_555
Ag10 Tb5 3.128320 1_555
Ag10 Tb7 3.180567 1_655
Ag11 Ag26 2.764700 1_555
Ag11 Ag18 2.771104 1_555
Ag11 Ag46 2.908721 1_555
Ag11 Ag43 2.954402 1_555
Ag11 Ag39 2.961828 1_555
Ag11 Ag21 2.964867 1_555
Ag11 Tb0 3.068833 1_555
Ag11 Tb4 3.072555 1_555
Ag11 Ag2 3.089474 1_555
Ag11 Tb3 3.128486 1_555
Ag11 Tb8 3.180528 1_655
Ag12 Ag36 2.754215 1_555
Ag12 Ag5 2.793322 1_555
Ag12 Ag21 2.822514 1_455
Ag12 Ag44 2.863314 1_555
Ag12 Ag30 2.884444 1_555
Ag12 Ag2 2.964867 1_555
Ag12 Ag15 2.968394 1_555
Ag12 Tb11 3.158250 1_555
Ag12 Tb8 3.163702 1_555
Ag12 Tb10 3.204006 1_555
Ag12 Tb0 3.263077 1_555
Ag13 Ag37 2.754218 1_555
Ag13 Ag3 2.793240 1_555
Ag13 Ag22 2.822508 1_455
Ag13 Ag44 2.863383 1_555
Ag13 Ag30 2.884489 1_555
Ag13 Ag16 2.968406 1_554
Ag13 Tb9 3.158090 1_555
Ag13 Tb6 3.163752 1_554
Ag13 Tb11 3.203997 1_555
Ag13 Tb1 3.263091 1_555
Ag14 Ag35 2.754122 1_555
Ag14 Ag4 2.793346 1_555
Ag14 Ag23 2.822565 1_455
Ag14 Ag44 2.863231 1_555
Ag14 Ag30 2.884457 1_555
Ag14 Ag17 2.968673 1_565
Ag14 Tb10 3.158106 1_555
Ag14 Tb7 3.163648 1_565
Ag14 Tb9 3.203985 1_555
Ag14 Tb2 3.263026 1_555
Ag15 Ag33 2.763497 1_555
Ag15 Ag2 2.771104 1_555
Ag15 Ag18 2.800112 1_455
Ag15 Ag45 2.846234 1_555
Ag15 Ag31 2.857783 1_555
Ag15 Ag5 2.989061 1_555
Ag15 Tb11 3.121079 1_555
Ag15 Tb7 3.253693 1_555
Ag15 Tb8 3.264935 1_555
Ag15 Tb3 3.282779 1_555
Ag16 Ag34 2.763503 1_555
Ag16 Ag19 2.800010 1_455
Ag16 Ag45 2.846331 1_555
Ag16 Ag31 2.857792 1_555
Ag16 Ag3 2.989198 1_556
Ag16 Tb9 3.121183 1_556
Ag16 Tb8 3.253586 1_555
Ag16 Tb6 3.264720 1_555
Ag16 Tb4 3.282835 1_555
Ag17 Ag32 2.763445 1_555
Ag17 Ag20 2.800001 1_455
Ag17 Ag45 2.846244 1_555
Ag17 Ag31 2.857828 1_555
Ag17 Ag4 2.989084 1_545
Ag17 Tb10 3.121053 1_545
Ag17 Tb6 3.253827 1_555
Ag17 Tb7 3.264710 1_555
Ag17 Tb5 3.282827 1_555
Ag18 Ag42 2.763497 1_555
Ag18 Ag46 2.846234 1_555
Ag18 Ag31 2.857783 1_655
Ag18 Ag21 2.968394 1_555
Ag18 Ag8 2.989061 1_555
Ag18 Tb11 3.121079 1_655
Ag18 Tb7 3.253693 1_655
Ag18 Tb8 3.264935 1_655
Ag18 Tb3 3.282779 1_555
Ag19 Ag43 2.763503 1_555
Ag19 Ag9 2.771027 1_555
Ag19 Ag46 2.846331 1_555
Ag19 Ag31 2.857792 1_655
Ag19 Ag22 2.968406 1_556
Ag19 Ag6 2.989198 1_556
Ag19 Tb9 3.121183 1_656
Ag19 Tb8 3.253586 1_655
Ag19 Tb6 3.264720 1_655
Ag19 Tb4 3.282835 1_555
Ag20 Ag41 2.763445 1_555
Ag20 Ag46 2.846244 1_555
Ag20 Ag31 2.857828 1_655
Ag20 Ag23 2.968673 1_545
Ag20 Ag7 2.989084 1_545
Ag20 Tb10 3.121053 1_645
Ag20 Tb6 3.253827 1_655
Ag20 Tb7 3.264710 1_655
Ag20 Tb5 3.282827 1_555
Ag21 Ag39 2.754215 1_555
Ag21 Ag8 2.793322 1_555
Ag21 Ag47 2.863314 1_555
Ag21 Ag30 2.884444 1_655
Ag21 Tb11 3.158250 1_655
Ag21 Tb8 3.163702 1_655
Ag21 Tb10 3.204006 1_655
Ag21 Tb0 3.263077 1_555
Ag22 Ag40 2.754218 1_555
Ag22 Ag6 2.793240 1_555
Ag22 Ag47 2.863383 1_555
Ag22 Ag30 2.884489 1_655
Ag22 Ag9 2.965045 1_554
Ag22 Tb9 3.158090 1_655
Ag22 Tb6 3.163752 1_654
Ag22 Tb11 3.203997 1_655
Ag22 Tb1 3.263091 1_555
Ag23 Ag38 2.754122 1_555
Ag23 Ag7 2.793346 1_555
Ag23 Ag47 2.863231 1_555
Ag23 Ag30 2.884457 1_655
Ag23 Tb10 3.158106 1_655
Ag23 Tb7 3.163648 1_665
Ag23 Tb9 3.203985 1_655
Ag23 Tb2 3.263026 1_555
Ag24 Ag29 2.685856 1_556
Ag24 Ag28 2.709674 1_545
Ag24 Ag9 2.764473 1_555
Ag24 Ag32 2.851583 1_555
Ag24 Ag41 2.851583 1_555
Ag24 Ag40 2.901184 1_556
Ag24 Ag37 2.901184 1_556
Ag24 Tb12 3.214420 1_555
Ag24 Tb13 3.214420 1_555
Ag24 Tb5 3.218088 1_555
Ag24 Tb1 3.219900 1_556
Ag25 Ag27 2.685721 1_545
Ag25 Ag29 2.709530 1_555
Ag25 Ag33 2.851635 1_555
Ag25 Ag42 2.851635 1_555
Ag25 Ag35 2.901190 1_545
Ag25 Ag38 2.901190 1_545
Ag25 Tb13 3.214453 1_554
Ag25 Tb12 3.214453 1_554
Ag25 Tb3 3.218125 1_555
Ag25 Tb2 3.219847 1_545
Ag26 Ag28 2.685820 1_555
Ag26 Ag27 2.709583 1_556
Ag26 Ag34 2.851504 1_555
Ag26 Ag43 2.851504 1_555
Ag26 Ag36 2.901363 1_555
Ag26 Ag39 2.901363 1_555
Ag26 Tb12 3.214380 1_565
Ag26 Tb13 3.214380 1_565
Ag26 Tb4 3.217824 1_555
Ag26 Tb0 3.220141 1_555
Ag27 Ag6 2.767772 1_555
Ag27 Ag3 2.767772 1_555
Ag27 Ag34 2.836812 1_554
Ag27 Ag43 2.836812 1_554
Ag27 Ag38 2.914137 1_555
Ag27 Ag35 2.914137 1_555
Ag27 Tb2 3.148619 1_555
Ag27 Tb4 3.244881 1_554
Ag27 Tb13 3.251135 1_564
Ag27 Tb12 3.251135 1_564
Ag28 Ag4 2.767804 1_555
Ag28 Ag7 2.767804 1_555
Ag28 Ag32 2.836673 1_565
Ag28 Ag41 2.836673 1_565
Ag28 Ag36 2.914219 1_555
Ag28 Ag39 2.914219 1_555
Ag28 Tb0 3.148790 1_555
Ag28 Tb5 3.244727 1_565
Ag28 Tb12 3.251281 1_565
Ag28 Tb13 3.251281 1_565
Ag29 Ag8 2.767875 1_555
Ag29 Ag5 2.767875 1_555
Ag29 Ag33 2.836751 1_555
Ag29 Ag42 2.836751 1_555
Ag29 Ag37 2.914128 1_555
Ag29 Ag40 2.914128 1_555
Ag29 Tb1 3.148460 1_555
Ag29 Tb3 3.244825 1_555
Ag29 Tb12 3.251346 1_554
Ag29 Tb13 3.251346 1_554
Ag30 Ag47 2.778772 1_455
Ag30 Ag44 2.778772 1_555
Ag30 Tb9 3.096621 1_555
Ag30 Tb11 3.096640 1_555
Ag30 Tb10 3.096680 1_555
Ag31 Ag46 2.776350 1_455
Ag31 Ag45 2.776350 1_555
Ag31 Tb8 3.247398 1_555
Ag31 Tb6 3.247486 1_555
Ag31 Tb7 3.247731 1_555
Ag32 Ag48 2.768445 1_545
Ag32 Ag4 2.915631 1_545
Ag32 Ag36 2.986961 1_545
Ag32 Ag37 2.995173 1_556
Ag32 Tb6 3.056910 1_555
Ag32 Tb12 3.103217 1_555
Ag32 Tb5 3.271656 1_555
Ag32 Tb10 3.355356 1_545
Ag33 Ag49 2.768494 1_555
Ag33 Ag5 2.915579 1_555
Ag33 Ag37 2.986966 1_555
Ag33 Ag35 2.995049 1_545
Ag33 Tb7 3.056808 1_555
Ag33 Tb12 3.103435 1_554
Ag33 Tb3 3.271732 1_555
Ag33 Tb11 3.355049 1_555
Ag34 Ag50 2.768294 1_556
Ag34 Ag35 2.987050 1_556
Ag34 Ag36 2.995102 1_555
Ag34 Tb8 3.056889 1_555
Ag34 Tb12 3.103129 1_565
Ag34 Tb4 3.271671 1_555
Ag34 Tb9 3.355153 1_556
Ag35 Ag50 2.916031 1_555
Ag35 Tb12 3.022392 1_564
Ag35 Tb9 3.137378 1_555
Ag35 Tb7 3.212121 1_565
Ag35 Tb2 3.400089 1_555
Ag36 Ag48 2.915877 1_555
Ag36 Tb12 3.022675 1_565
Ag36 Ag4 3.070593 1_555
Ag36 Tb10 3.137287 1_555
Ag36 Tb8 3.212023 1_555
Ag36 Tb0 3.400119 1_555
Ag37 Ag49 2.915911 1_555
Ag37 Tb12 3.022502 1_554
Ag37 Ag5 3.070869 1_555
Ag37 Tb11 3.137480 1_555
Ag37 Tb6 3.212010 1_554
Ag37 Tb1 3.399960 1_555
Ag38 Ag50 2.916031 1_655
Ag38 Ag43 2.987050 1_554
Ag38 Ag42 2.995049 1_565
Ag38 Tb13 3.022392 1_564
Ag38 Ag6 3.070742 1_555
Ag38 Tb9 3.137378 1_655
Ag38 Tb7 3.212121 1_665
Ag38 Tb2 3.400089 1_555
Ag39 Ag48 2.915877 1_655
Ag39 Ag41 2.986961 1_565
Ag39 Ag43 2.995102 1_555
Ag39 Tb13 3.022675 1_565
Ag39 Ag7 3.070593 1_555
Ag39 Tb10 3.137287 1_655
Ag39 Tb8 3.212023 1_655
Ag39 Tb0 3.400119 1_555
Ag40 Ag49 2.915911 1_655
Ag40 Ag9 2.961736 1_554
Ag40 Ag42 2.986966 1_555
Ag40 Ag41 2.995173 1_554
Ag40 Tb13 3.022502 1_554
Ag40 Ag8 3.070869 1_555
Ag40 Tb11 3.137480 1_655
Ag40 Tb6 3.212010 1_654
Ag40 Tb1 3.399960 1_555
Ag41 Ag48 2.768445 1_645
Ag41 Ag7 2.915631 1_545
Ag41 Ag9 2.954265 1_555
Ag41 Tb6 3.056910 1_655
Ag41 Tb13 3.103217 1_555
Ag41 Tb5 3.271656 1_555
Ag41 Tb10 3.355356 1_645
Ag42 Ag49 2.768494 1_655
Ag42 Ag8 2.915579 1_555
Ag42 Tb7 3.056808 1_655
Ag42 Tb13 3.103435 1_554
Ag42 Tb3 3.271732 1_555
Ag42 Tb11 3.355049 1_655
Ag43 Ag50 2.768294 1_656
Ag43 Ag6 2.915577 1_556
Ag43 Tb8 3.056889 1_655
Ag43 Tb13 3.103129 1_565
Ag43 Tb4 3.271671 1_555
Ag43 Tb9 3.355153 1_656
Ag44 Ag5 2.873808 1_555
Ag44 Tb2 3.077178 1_555
Ag44 Tb0 3.077240 1_555
Ag44 Tb1 3.077368 1_555
Ag45 Tb5 3.051620 1_555
Ag45 Tb3 3.051769 1_555
Ag45 Tb4 3.051839 1_555
Ag46 Ag9 2.908698 1_555
Ag46 Tb5 3.051620 1_555
Ag46 Tb3 3.051769 1_555
Ag46 Tb4 3.051839 1_555
Ag47 Ag8 2.873808 1_555
Ag47 Ag6 2.873814 1_555
Ag47 Ag7 2.873981 1_555
Ag47 Tb2 3.077178 1_555
Ag47 Tb0 3.077240 1_555
Ag47 Tb1 3.077368 1_555
Ag48 Ag50 2.756885 1_556
Ag48 Ag49 2.757061 1_566
Ag48 Tb10 2.937849 1_555
Ag48 Tb13 3.264663 1_465
Ag48 Tb12 3.264663 1_565
Ag48 Tb6 3.385383 1_565
Ag49 Ag50 2.757090 1_545
Ag49 Tb11 2.937798 1_555
Ag49 Tb12 3.264634 1_554
Ag49 Tb13 3.264634 1_454
Ag49 Tb7 3.385506 1_555
Ag50 Tb9 2.937633 1_555
Ag50 Tb13 3.264624 1_464
Ag50 Tb12 3.264624 1_564
Ag50 Tb8 3.385304 1_554
