# generated using pymatgen
data_FeSe3O8
_symmetry_space_group_name_H-M   'P 1'
_cell_length_a   13.40208700
_cell_length_b   7.51542300
_cell_length_c   10.56732157
_cell_angle_alpha   47.41065774
_cell_angle_beta   90.00000000
_cell_angle_gamma   90.00000000
_symmetry_Int_Tables_number   1
_chemical_formula_structural   FeSe3O8
_chemical_formula_sum   'Fe4 Se12 O32'
_cell_volume   783.61033684
_cell_formula_units_Z   4
loop_
 _symmetry_equiv_pos_site_id
 _symmetry_equiv_pos_as_xyz
  1  'x, y, z'
loop_
 _atom_site_type_symbol
 _atom_site_label
 _atom_site_symmetry_multiplicity
 _atom_site_fract_x
 _atom_site_fract_y
 _atom_site_fract_z
 _atom_site_occupancy
  Fe  Fe0  1  0.18058500  0.87038000  0.93963900  1
  Fe  Fe1  1  0.68058500  0.12962000  0.56036100  1
  Fe  Fe2  1  0.81941500  0.12962000  0.06036100  1
  Fe  Fe3  1  0.31941500  0.87038000  0.43963900  1
  Se  Se0  1  0.36422500  0.00671500  0.06830300  1
  Se  Se1  1  0.86422500  0.99328500  0.43169700  1
  Se  Se2  1  0.63577500  0.99328500  0.93169700  1
  Se  Se3  1  0.13577500  0.00671500  0.56830300  1
  Se  Se4  1  0.20058000  0.33415100  0.05440700  1
  Se  Se5  1  0.70058000  0.66584900  0.44559300  1
  Se  Se6  1  0.79942000  0.66584900  0.94559300  1
  Se  Se7  1  0.29942000  0.33415100  0.55440700  1
  Se  Se8  1  0.99928600  0.66869600  0.23854300  1
  Se  Se9  1  0.49928600  0.33130400  0.26145700  1
  Se  Se10  1  0.00071400  0.33130400  0.76145700  1
  Se  Se11  1  0.50071400  0.66869600  0.73854300  1
  O  O0  1  0.40040300  0.89747400  0.26475900  1
  O  O1  1  0.90040300  0.10252600  0.23524100  1
  O  O2  1  0.59959700  0.10252600  0.73524100  1
  O  O3  1  0.09959700  0.89747400  0.76475900  1
  O  O4  1  0.25724000  0.84736400  0.11550400  1
  O  O5  1  0.75724000  0.15263600  0.38449600  1
  O  O6  1  0.74276000  0.15263600  0.88449600  1
  O  O7  1  0.24276000  0.84736400  0.61550400  1
  O  O8  1  0.31344300  0.30274200  0.97010400  1
  O  O9  1  0.81344300  0.69725800  0.52989600  1
  O  O10  1  0.68655700  0.69725800  0.02989600  1
  O  O11  1  0.18655700  0.30274200  0.47010400  1
  O  O12  1  0.20928700  0.08911300  0.26999700  1
  O  O13  1  0.70928700  0.91088700  0.23000300  1
  O  O14  1  0.79071300  0.91088700  0.73000300  1
  O  O15  1  0.29071300  0.08911300  0.76999700  1
  O  O16  1  0.24762500  0.56709600  0.02682700  1
  O  O17  1  0.74762500  0.43290400  0.47317300  1
  O  O18  1  0.75237500  0.43290400  0.97317300  1
  O  O19  1  0.25237500  0.56709600  0.52682700  1
  O  O20  1  0.89833200  0.84474500  0.11352400  1
  O  O21  1  0.39833200  0.15525500  0.38647600  1
  O  O22  1  0.10166800  0.15525500  0.88647600  1
  O  O23  1  0.60166800  0.84474500  0.61352400  1
  O  O24  1  0.06830200  0.64570400  0.11408200  1
  O  O25  1  0.56830200  0.35429600  0.38591800  1
  O  O26  1  0.93169800  0.35429600  0.88591800  1
  O  O27  1  0.43169800  0.64570400  0.61408200  1
  O  O28  1  0.96217700  0.39148300  0.40909400  1
  O  O29  1  0.46217700  0.60851700  0.09090600  1
  O  O30  1  0.03782300  0.60851700  0.59090600  1
  O  O31  1  0.53782300  0.39148300  0.90909400  1
loop_
_geom_bond_atom_site_label_1
_geom_bond_atom_site_label_2
_geom_bond_distance
_geom_bond_site_symmetry_2
Fe0 O16 2.002258 1_556
Fe0 O4 2.025829 1_556
Fe0 O15 2.026275 1_565
Fe0 O3 2.031112 1_555
Fe0 O24 2.073855 1_556
Fe0 O22 2.095235 1_565
Fe1 O17 2.002258 1_555
Fe1 O5 2.025829 1_555
Fe1 O14 2.026275 1_545
Fe1 O2 2.031112 1_555
Fe1 O25 2.073855 1_555
Fe1 O23 2.095235 1_545
Fe2 O18 2.002258 1_554
Fe2 O6 2.025829 1_554
Fe2 O13 2.026275 1_545
Fe2 O1 2.031112 1_555
Fe2 O26 2.073855 1_554
Fe2 O20 2.095235 1_545
Fe3 O19 2.002258 1_555
Fe3 O7 2.025829 1_555
Fe3 O12 2.026275 1_565
Fe3 O0 2.031112 1_555
Fe3 O27 2.073855 1_555
Fe3 O21 2.095235 1_565
O0 Se0 1.706486 1_565
O1 Se1 1.706486 1_545
O2 Se2 1.706486 1_545
O3 Se3 1.706486 1_565
O4 Se0 1.711831 1_565
O5 Se1 1.711831 1_545
O6 Se2 1.711831 1_545
O7 Se3 1.711831 1_565
O8 Se0 1.834370 1_556
O8 Se4 1.849845 1_556
O9 Se1 1.834370 1_555
O9 Se5 1.849845 1_555
O10 Se2 1.834370 1_554
O10 Se6 1.849845 1_554
O11 Se3 1.834370 1_555
O11 Se7 1.849845 1_555
O12 Se4 1.707846 1_555
O13 Se5 1.707846 1_555
O14 Se6 1.707846 1_555
O15 Se7 1.707846 1_555
O16 Se4 1.690198 1_555
O17 Se5 1.690198 1_555
O18 Se6 1.690198 1_555
O19 Se7 1.690198 1_555
O20 Se8 1.720663 1_555
O21 Se9 1.720663 1_555
O22 Se10 1.720663 1_555
O23 Se11 1.720663 1_555
O24 Se8 1.709621 1_455
O25 Se9 1.709621 1_555
O26 Se10 1.709621 1_655
O27 Se11 1.709621 1_555
O28 Se8 1.659495 1_555
O29 Se9 1.659495 1_555
O30 Se10 1.659495 1_555
O31 Se11 1.659495 1_555
