# generated using pymatgen
data_PuPt3
_symmetry_space_group_name_H-M   'P 1'
_cell_length_a   5.82411799
_cell_length_b   5.82411799
_cell_length_c   4.85681408
_cell_angle_alpha   90.00000000
_cell_angle_beta   90.00000000
_cell_angle_gamma   120.00000551
_symmetry_Int_Tables_number   1
_chemical_formula_structural   PuPt3
_chemical_formula_sum   'Pu2 Pt6'
_cell_volume   142.67320430
_cell_formula_units_Z   2
loop_
 _symmetry_equiv_pos_site_id
 _symmetry_equiv_pos_as_xyz
  1  'x, y, z'
loop_
 _atom_site_type_symbol
 _atom_site_label
 _atom_site_symmetry_multiplicity
 _atom_site_fract_x
 _atom_site_fract_y
 _atom_site_fract_z
 _atom_site_occupancy
  Pu  Pu0  1  0.33333300  0.66666700  0.75000000  1
  Pu  Pu1  1  0.66666700  0.33333300  0.25000000  1
  Pt  Pt0  1  0.16238656  0.32477313  0.25000000  1
  Pt  Pt1  1  0.67522687  0.83761344  0.25000000  1
  Pt  Pt2  1  0.16238656  0.83761344  0.25000000  1
  Pt  Pt3  1  0.83759472  0.67519044  0.75000000  1
  Pt  Pt4  1  0.32480956  0.16240528  0.75000000  1
  Pt  Pt5  1  0.83759472  0.16240528  0.75000000  1
loop_
_geom_bond_atom_site_label_1
_geom_bond_atom_site_label_2
_geom_bond_distance
_geom_bond_site_symmetry_2
Pt0 Pu1 2.912376 1_455
Pt0 Pu1 2.912382 1_555
Pt0 Pu0 2.978407 1_555
Pt0 Pu0 2.978407 1_554
Pt1 Pu1 2.912376 1_565
Pt1 Pu1 2.912382 1_555
Pt1 Pu0 2.978407 1_555
Pt1 Pu0 2.978407 1_554
Pt2 Pu1 2.912379 1_455
Pt2 Pu1 2.912379 1_565
Pt2 Pu0 2.978404 1_555
Pt2 Pu0 2.978404 1_554
Pt3 Pu0 2.912376 1_555
Pt3 Pu0 2.912376 1_655
Pt3 Pu1 2.978301 1_556
Pt3 Pu1 2.978301 1_555
Pt4 Pu0 2.912376 1_555
Pt4 Pu0 2.912376 1_545
Pt4 Pu1 2.978301 1_556
Pt4 Pu1 2.978301 1_555
Pt5 Pu0 2.912376 1_545
Pt5 Pu0 2.912376 1_655
Pt5 Pu1 2.978295 1_555
Pt5 Pu1 2.978295 1_556
