# generated using pymatgen
data_Ca5(GaAs3)2
_symmetry_space_group_name_H-M   'P 1'
_cell_length_a   4.14725976
_cell_length_b   11.39558440
_cell_length_c   13.18117049
_cell_angle_alpha   90.00000000
_cell_angle_beta   90.00000000
_cell_angle_gamma   90.00000000
_symmetry_Int_Tables_number   1
_chemical_formula_structural   Ca5(GaAs3)2
_chemical_formula_sum   'Ca10 Ga4 As12'
_cell_volume   622.94803074
_cell_formula_units_Z   2
loop_
 _symmetry_equiv_pos_site_id
 _symmetry_equiv_pos_as_xyz
  1  'x, y, z'
loop_
 _atom_site_type_symbol
 _atom_site_label
 _atom_site_symmetry_multiplicity
 _atom_site_fract_x
 _atom_site_fract_y
 _atom_site_fract_z
 _atom_site_occupancy
  Ca  Ca0  1  0.50000000  0.08875647  0.75164636  1
  Ca  Ca1  1  0.50000000  0.58875647  0.74835364  1
  Ca  Ca2  1  0.50000000  0.32516919  0.51460459  1
  Ca  Ca3  1  0.50000000  0.67483081  0.48539541  1
  Ca  Ca4  1  0.50000000  0.82516919  0.98539541  1
  Ca  Ca5  1  0.50000000  0.91124353  0.24835364  1
  Ca  Ca6  1  0.50000000  0.17483081  0.01460459  1
  Ca  Ca7  1  0.50000000  0.50000000  0.00000000  1
  Ca  Ca8  1  0.50000000  -0.00000000  0.50000000  1
  Ca  Ca9  1  0.50000000  0.41124353  0.25164636  1
  Ga  Ga0  1  -0.00000000  0.82766018  0.78764255  1
  Ga  Ga1  1  0.00000000  0.17233982  0.21235745  1
  Ga  Ga2  1  -0.00000000  0.67233982  0.28764255  1
  Ga  Ga3  1  0.00000000  0.32766018  0.71235745  1
  As  As0  1  0.50000000  0.83862909  0.68127857  1
  As  As1  1  0.00000000  0.48081323  0.40672114  1
  As  As2  1  0.50000000  0.16137091  0.31872143  1
  As  As3  1  -0.00000000  0.01918677  0.90672114  1
  As  As4  1  0.00000000  0.84373704  0.40258342  1
  As  As5  1  0.00000000  0.98081323  0.09327886  1
  As  As6  1  0.00000000  0.34373704  0.09741658  1
  As  As7  1  0.00000000  0.51918677  0.59327886  1
  As  As8  1  0.00000000  0.15626296  0.59741658  1
  As  As9  1  0.00000000  0.65626296  0.90258342  1
  As  As10  1  0.50000000  0.66137091  0.18127857  1
  As  As11  1  0.50000000  0.33862909  0.81872143  1
loop_
_geom_bond_atom_site_label_1
_geom_bond_atom_site_label_2
_geom_bond_distance
_geom_bond_site_symmetry_2
Ca2 Ga3 3.330943 1_655
Ca2 Ga3 3.330943 1_555
Ca3 Ga2 3.330943 1_655
Ca3 Ga2 3.330943 1_555
Ca4 Ga0 3.330943 1_655
Ca4 Ga0 3.330943 1_555
Ca6 Ga1 3.330943 1_655
Ca6 Ga1 3.330943 1_555
As0 Ga0 2.506227 1_555
As0 Ga0 2.506227 1_655
As0 Ca1 2.981547 1_555
As0 Ca0 2.997465 1_565
As0 Ca8 3.015153 1_565
As0 Ca3 3.186013 1_555
As1 As7 2.497628 1_555
As1 Ga2 2.688343 1_555
As1 Ca9 3.017725 1_455
As1 Ca9 3.017725 1_555
As1 Ca2 3.077005 1_455
As1 Ca2 3.077005 1_555
As1 Ca3 3.203689 1_455
As1 Ca3 3.203689 1_555
As2 Ga1 2.506227 1_555
As2 Ga1 2.506227 1_655
As2 Ca9 2.981547 1_555
As2 Ca5 2.997465 1_545
As2 Ca8 3.015153 1_555
As2 Ca2 3.186013 1_555
As3 As5 2.497628 1_546
As3 Ga0 2.688343 1_545
As3 Ca0 3.017725 1_455
As3 Ca0 3.017725 1_555
As3 Ca6 3.077005 1_456
As3 Ca6 3.077005 1_556
As3 Ca4 3.203689 1_545
As3 Ca4 3.203689 1_445
As4 Ga2 2.471896 1_555
As4 Ca5 3.004085 1_555
As4 Ca5 3.004085 1_455
As4 Ca8 3.019881 1_565
As4 Ca8 3.019881 1_465
As4 Ca3 3.032530 1_455
As4 Ca3 3.032530 1_555
As5 Ga1 2.688343 1_565
As5 Ca5 3.017725 1_455
As5 Ca5 3.017725 1_555
As5 Ca4 3.077005 1_454
As5 Ca4 3.077005 1_554
As5 Ca6 3.203689 1_565
As5 Ca6 3.203689 1_465
As6 Ga1 2.471896 1_555
As6 Ca9 3.004085 1_555
As6 Ca9 3.004085 1_455
As6 Ca7 3.019881 1_455
As6 Ca7 3.019881 1_555
As6 Ca6 3.032530 1_555
As6 Ca6 3.032530 1_455
As7 Ga3 2.688343 1_555
As7 Ca1 3.017725 1_455
As7 Ca1 3.017725 1_555
As7 Ca3 3.077005 1_455
As7 Ca3 3.077005 1_555
As7 Ca2 3.203689 1_455
As7 Ca2 3.203689 1_555
As8 Ga3 2.471896 1_555
As8 Ca0 3.004085 1_555
As8 Ca0 3.004085 1_455
As8 Ca8 3.019881 1_555
As8 Ca8 3.019881 1_455
As8 Ca2 3.032530 1_455
As8 Ca2 3.032530 1_555
As9 Ga0 2.471896 1_555
As9 Ca1 3.004085 1_455
As9 Ca1 3.004085 1_555
As9 Ca7 3.019881 1_556
As9 Ca7 3.019881 1_456
As9 Ca4 3.032530 1_455
As9 Ca4 3.032530 1_555
As10 Ga2 2.506227 1_655
As10 Ga2 2.506227 1_555
As10 Ca5 2.981547 1_555
As10 Ca9 2.997465 1_555
As10 Ca7 3.015153 1_555
As10 Ca4 3.186013 1_554
As11 Ga3 2.506227 1_655
As11 Ga3 2.506227 1_555
As11 Ca0 2.981547 1_555
As11 Ca1 2.997465 1_555
As11 Ca7 3.015153 1_556
As11 Ca6 3.186013 1_556
