# generated using pymatgen
data_Ba3WN3
_symmetry_space_group_name_H-M   'P 1'
_cell_length_a   8.46456500
_cell_length_b   8.46449827
_cell_length_c   5.68407300
_cell_angle_alpha   90.00000000
_cell_angle_beta   90.00000000
_cell_angle_gamma   119.99947244
_symmetry_Int_Tables_number   1
_chemical_formula_structural   Ba3WN3
_chemical_formula_sum   'Ba6 W2 N6'
_cell_volume   352.69430905
_cell_formula_units_Z   2
loop_
 _symmetry_equiv_pos_site_id
 _symmetry_equiv_pos_as_xyz
  1  'x, y, z'
loop_
 _atom_site_type_symbol
 _atom_site_label
 _atom_site_symmetry_multiplicity
 _atom_site_fract_x
 _atom_site_fract_y
 _atom_site_fract_z
 _atom_site_occupancy
  Ba  Ba0  1  0.90640000  0.64199100  0.25000000  1
  Ba  Ba1  1  0.73559200  0.09360000  0.25000000  1
  Ba  Ba2  1  0.35800700  0.26441000  0.25000000  1
  Ba  Ba3  1  0.09360000  0.35800900  0.75000000  1
  Ba  Ba4  1  0.26440800  0.90640000  0.75000000  1
  Ba  Ba5  1  0.64199300  0.73559000  0.75000000  1
  W  W0  1  0.66666700  0.33334700  0.75000000  1
  W  W1  1  0.33333300  0.66665300  0.25000000  1
  N  N0  1  0.87504300  0.56482600  0.75000000  1
  N  N1  1  0.68978400  0.12494900  0.75000000  1
  N  N2  1  0.43517000  0.31021400  0.75000000  1
  N  N3  1  0.12495700  0.43517400  0.25000000  1
  N  N4  1  0.31021600  0.87505100  0.25000000  1
  N  N5  1  0.56483000  0.68978600  0.25000000  1
loop_
_geom_bond_atom_site_label_1
_geom_bond_atom_site_label_2
_geom_bond_distance
_geom_bond_site_symmetry_2
Ba0 N0 2.898427 1_555
Ba0 N0 2.898427 1_554
Ba0 N4 2.971923 1_655
Ba0 N5 3.113296 1_555
Ba0 N3 3.118592 1_655
Ba1 N1 2.898416 1_554
Ba1 N1 2.898416 1_555
Ba1 N5 2.971875 1_545
Ba1 N3 3.113329 1_655
Ba1 N4 3.118642 1_545
Ba2 N2 2.898425 1_555
Ba2 N2 2.898425 1_554
Ba2 N3 2.971868 1_555
Ba2 N4 3.113241 1_545
Ba2 N5 3.118617 1_555
Ba3 N3 2.898427 1_556
Ba3 N3 2.898427 1_555
Ba3 N1 2.971923 1_455
Ba3 N2 3.113296 1_555
Ba3 N0 3.118592 1_455
Ba4 N4 2.898416 1_556
Ba4 N4 2.898416 1_555
Ba4 N2 2.971875 1_565
Ba4 N0 3.113329 1_455
Ba4 N1 3.118642 1_565
Ba5 N5 2.898425 1_556
Ba5 N5 2.898425 1_555
Ba5 N0 2.971868 1_555
Ba5 N1 3.113241 1_565
Ba5 N2 3.118617 1_555
N0 W0 1.869284 1_555
N1 W0 1.869517 1_555
N2 W0 1.869326 1_555
N3 W1 1.869284 1_555
N4 W1 1.869517 1_555
N5 W1 1.869326 1_555
