# generated using pymatgen
data_NaErCu2F8
_symmetry_space_group_name_H-M   'P 1'
_cell_length_a   6.42943118
_cell_length_b   6.42943118
_cell_length_c   6.42943118
_cell_angle_alpha   130.06779781
_cell_angle_beta   130.06779781
_cell_angle_gamma   73.29840211
_symmetry_Int_Tables_number   1
_chemical_formula_structural   NaErCu2F8
_chemical_formula_sum   'Na1 Er1 Cu2 F8'
_cell_volume   151.95355231
_cell_formula_units_Z   1
loop_
 _symmetry_equiv_pos_site_id
 _symmetry_equiv_pos_as_xyz
  1  'x, y, z'
loop_
 _atom_site_type_symbol
 _atom_site_label
 _atom_site_symmetry_multiplicity
 _atom_site_fract_x
 _atom_site_fract_y
 _atom_site_fract_z
 _atom_site_occupancy
  Na  Na0  1  0.50000000  0.50000000  0.00000000  1
  Er  Er0  1  0.00000000  0.00000000  0.00000000  1
  Cu  Cu0  1  0.75000000  0.25000000  0.50000000  1
  Cu  Cu1  1  0.25000000  0.75000000  0.50000000  1
  F  F0  1  0.42857600  0.28803600  0.47517800  1
  F  F1  1  0.81285800  0.95339700  0.52482200  1
  F  F2  1  0.28803600  0.81285800  0.85946000  1
  F  F3  1  0.18714200  0.71196400  0.14054000  1
  F  F4  1  0.95339700  0.42857600  0.14054000  1
  F  F5  1  0.57142400  0.04660300  0.85946000  1
  F  F6  1  0.04660300  0.18714200  0.47517800  1
  F  F7  1  0.71196400  0.57142400  0.52482200  1
loop_
_geom_bond_atom_site_label_1
_geom_bond_atom_site_label_2
_geom_bond_distance
_geom_bond_site_symmetry_2
Er0 F6 2.273240 1_555
Er0 F1 2.273240 1_444
Er0 F3 2.273244 1_545
Er0 F7 2.273244 1_444
Er0 F2 2.273244 1_544
Er0 F0 2.273244 1_555
Er0 F5 2.273244 1_454
Er0 F4 2.273244 1_455
Cu0 F0 1.921243 1_555
Cu0 F7 1.921243 1_555
Cu0 F1 1.921249 1_545
Cu0 F6 1.921249 1_655
Cu1 F3 1.921243 1_555
Cu1 F2 1.921243 1_555
Cu1 F4 1.921246 1_455
Cu1 F5 1.921246 1_565
F0 Na0 2.428752 1_556
F1 Na0 2.428748 1_555
F2 Na0 2.428752 1_556
F3 Na0 2.428752 1_555
F4 Na0 2.428746 1_555
F5 Na0 2.428746 1_556
F6 Na0 2.428748 1_556
F7 Na0 2.428752 1_555
