# generated using pymatgen
data_Ho2GaRu
_symmetry_space_group_name_H-M   'P 1'
_cell_length_a   3.45768220
_cell_length_b   3.45768220
_cell_length_c   6.92869241
_cell_angle_alpha   90.00000000
_cell_angle_beta   90.00000000
_cell_angle_gamma   90.00000000
_symmetry_Int_Tables_number   1
_chemical_formula_structural   Ho2GaRu
_chemical_formula_sum   'Ho2 Ga1 Ru1'
_cell_volume   82.83644076
_cell_formula_units_Z   1
loop_
 _symmetry_equiv_pos_site_id
 _symmetry_equiv_pos_as_xyz
  1  'x, y, z'
loop_
 _atom_site_type_symbol
 _atom_site_label
 _atom_site_symmetry_multiplicity
 _atom_site_fract_x
 _atom_site_fract_y
 _atom_site_fract_z
 _atom_site_occupancy
  Ho  Ho0  1  -0.00000000  0.00000000  0.76732240  1
  Ho  Ho1  1  -0.00000000  0.00000000  0.23267760  1
  Ga  Ga0  1  0.50000000  0.50000000  0.50000000  1
  Ru  Ru0  1  0.50000000  0.50000000  -0.00000000  1
loop_
_geom_bond_atom_site_label_1
_geom_bond_atom_site_label_2
_geom_bond_distance
_geom_bond_site_symmetry_2
Ho0 Ru0 2.928620 1_546
Ho0 Ru0 2.928620 1_446
Ho0 Ru0 2.928620 1_556
Ho0 Ru0 2.928620 1_456
Ho1 Ru0 2.928620 1_455
Ho1 Ru0 2.928620 1_445
Ho1 Ru0 2.928620 1_555
Ho1 Ru0 2.928620 1_545
Ga0 Ho0 3.067313 1_565
Ga0 Ho0 3.067313 1_655
Ga0 Ho0 3.067313 1_665
Ga0 Ho0 3.067313 1_555
Ga0 Ho1 3.067313 1_565
Ga0 Ho1 3.067313 1_665
Ga0 Ho1 3.067313 1_655
Ga0 Ho1 3.067313 1_555
