# generated using pymatgen
data_PrGa2Co3
_symmetry_space_group_name_H-M   'P 1'
_cell_length_a   5.35878976
_cell_length_b   5.35878976
_cell_length_c   3.73701600
_cell_angle_alpha   90.00000000
_cell_angle_beta   90.00000000
_cell_angle_gamma   119.99999708
_symmetry_Int_Tables_number   1
_chemical_formula_structural   PrGa2Co3
_chemical_formula_sum   'Pr1 Ga2 Co3'
_cell_volume   92.93708357
_cell_formula_units_Z   1
loop_
 _symmetry_equiv_pos_site_id
 _symmetry_equiv_pos_as_xyz
  1  'x, y, z'
loop_
 _atom_site_type_symbol
 _atom_site_label
 _atom_site_symmetry_multiplicity
 _atom_site_fract_x
 _atom_site_fract_y
 _atom_site_fract_z
 _atom_site_occupancy
  Pr  Pr0  1  0.00000000  0.00000000  0.00000000  1
  Ga  Ga0  1  0.66666700  0.33333300  0.00000000  1
  Ga  Ga1  1  0.33333300  0.66666700  0.00000000  1
  Co  Co0  1  0.50000000  0.50000000  0.50000000  1
  Co  Co1  1  0.50000000  0.00000000  0.50000000  1
  Co  Co2  1  0.00000000  0.50000000  0.50000000  1
loop_
_geom_bond_atom_site_label_1
_geom_bond_atom_site_label_2
_geom_bond_distance
_geom_bond_site_symmetry_2
Ga0 Pr0 3.093896 1_655
Ga0 Pr0 3.093900 1_555
Ga0 Pr0 3.093900 1_665
Ga1 Pr0 3.093896 1_565
Ga1 Pr0 3.093900 1_555
Ga1 Pr0 3.093900 1_665
Co0 Ga0 2.425775 1_555
Co0 Ga1 2.425775 1_556
Co0 Ga0 2.425775 1_556
Co0 Ga1 2.425775 1_555
Co0 Co1 2.679395 1_555
Co0 Co2 2.679395 1_555
Co0 Co1 2.679395 1_565
Co0 Co2 2.679395 1_655
Co0 Pr0 3.266570 1_666
Co0 Pr0 3.266570 1_555
Co0 Pr0 3.266570 1_556
Co0 Pr0 3.266570 1_665
Co1 Ga0 2.425772 1_555
Co1 Ga1 2.425772 1_546
Co1 Ga1 2.425772 1_545
Co1 Ga0 2.425772 1_556
Co1 Co2 2.679395 1_545
Co1 Co2 2.679395 1_655
Co1 Pr0 3.266570 1_556
Co1 Pr0 3.266570 1_656
Co1 Pr0 3.266570 1_655
Co1 Pr0 3.266570 1_555
Co2 Ga1 2.425772 1_555
Co2 Ga1 2.425772 1_556
Co2 Ga0 2.425772 1_455
Co2 Ga0 2.425772 1_456
Co2 Pr0 3.266570 1_556
Co2 Pr0 3.266570 1_565
Co2 Pr0 3.266570 1_566
Co2 Pr0 3.266570 1_555
