# generated using pymatgen
data_Na2Sr(SiO3)2
_symmetry_space_group_name_H-M   'P 1'
_cell_length_a   7.75985353
_cell_length_b   7.75985353
_cell_length_c   7.75691752
_cell_angle_alpha   88.41842122
_cell_angle_beta   88.41842122
_cell_angle_gamma   89.36572819
_symmetry_Int_Tables_number   1
_chemical_formula_structural   Na2Sr(SiO3)2
_chemical_formula_sum   'Na6 Sr3 Si6 O18'
_cell_volume   466.70467524
_cell_formula_units_Z   3
loop_
 _symmetry_equiv_pos_site_id
 _symmetry_equiv_pos_as_xyz
  1  'x, y, z'
loop_
 _atom_site_type_symbol
 _atom_site_label
 _atom_site_symmetry_multiplicity
 _atom_site_fract_x
 _atom_site_fract_y
 _atom_site_fract_z
 _atom_site_occupancy
  Na  Na0  1  0.50000000  0.50000000  0.00000000  1
  Na  Na1  1  0.50000000  0.00000000  0.50000000  1
  Na  Na2  1  0.00000000  0.50000000  0.50000000  1
  Na  Na3  1  0.00000000  0.00000000  0.50000000  1
  Na  Na4  1  0.25253500  0.25253500  0.26758800  1
  Na  Na5  1  0.74746500  0.74746500  0.73241200  1
  Sr  Sr0  1  0.00000000  0.00000000  0.00000000  1
  Sr  Sr1  1  0.00000000  0.50000000  0.00000000  1
  Sr  Sr2  1  0.50000000  0.00000000  0.00000000  1
  Si  Si0  1  0.26003800  0.71203400  0.71160600  1
  Si  Si1  1  0.71358800  0.71358800  0.26363400  1
  Si  Si2  1  0.71203400  0.26003800  0.71160600  1
  Si  Si3  1  0.73996200  0.28796600  0.28839400  1
  Si  Si4  1  0.28641200  0.28641200  0.73636600  1
  Si  Si5  1  0.28796600  0.73996200  0.28839400  1
  O  O0  1  0.07640400  0.77399000  0.79275100  1
  O  O1  1  0.78242600  0.78242600  0.07485600  1
  O  O2  1  0.77399000  0.07640400  0.79275100  1
  O  O3  1  0.92359600  0.22601000  0.20724900  1
  O  O4  1  0.21757400  0.21757400  0.92514400  1
  O  O5  1  0.22601000  0.92359600  0.20724900  1
  O  O6  1  0.25329600  0.74670400  0.50000000  1
  O  O7  1  0.74641600  0.50116000  0.25273200  1
  O  O8  1  0.49884000  0.25358400  0.74726800  1
  O  O9  1  0.25358400  0.49884000  0.74726800  1
  O  O10  1  0.50116000  0.74641600  0.25273200  1
  O  O11  1  0.74670400  0.25329600  0.50000000  1
  O  O12  1  0.43747000  0.78639000  0.78349400  1
  O  O13  1  0.78838300  0.78838300  0.43680900  1
  O  O14  1  0.78639000  0.43747000  0.78349400  1
  O  O15  1  0.56253000  0.21361000  0.21650600  1
  O  O16  1  0.21161700  0.21161700  0.56319100  1
  O  O17  1  0.21361000  0.56253000  0.21650600  1
loop_
_geom_bond_atom_site_label_1
_geom_bond_atom_site_label_2
_geom_bond_distance
_geom_bond_site_symmetry_2
Na0 O7 2.776318 1_555
Na0 O10 2.776318 1_555
Na0 O8 2.776318 1_554
Na0 O9 2.776318 1_554
Na0 O17 2.794601 1_555
Na0 O15 2.794601 1_555
Na0 O12 2.794601 1_554
Na0 O14 2.794601 1_554
Na1 O12 2.752543 1_545
Na1 O15 2.752543 1_555
Na1 O11 2.758900 1_555
Na1 O6 2.758900 1_545
Na1 O8 2.785333 1_555
Na1 O10 2.785333 1_545
Na1 O13 2.801273 1_545
Na1 O16 2.801273 1_555
Na2 O14 2.752543 1_455
Na2 O17 2.752543 1_555
Na2 O6 2.758900 1_555
Na2 O11 2.758900 1_455
Na2 O9 2.785333 1_555
Na2 O7 2.785333 1_455
Na2 O13 2.801273 1_455
Na2 O16 2.801273 1_555
Na3 O16 2.404563 1_555
Na3 O13 2.404563 1_445
Na3 O11 2.764265 1_455
Na3 O6 2.764265 1_545
Na3 O2 2.900954 1_455
Na3 O5 2.900954 1_545
Na3 O0 2.900954 1_545
Na3 O3 2.900954 1_455
Na4 O16 2.319740 1_555
Na4 O17 2.443901 1_555
Na4 O15 2.443901 1_555
Na4 O5 2.619099 1_545
Na4 O3 2.619099 1_455
Na4 O4 2.698957 1_554
Na5 O13 2.319740 1_555
Na5 O14 2.443901 1_555
Na5 O12 2.443901 1_555
Na5 O2 2.619099 1_565
Na5 O0 2.619099 1_655
Na5 O1 2.698957 1_556
O0 Si0 1.615519 1_555
O0 Sr0 2.468150 1_566
O0 Sr1 2.691273 1_556
O1 Si1 1.623244 1_555
O1 Sr0 2.448068 1_665
O1 Sr2 2.815121 1_565
O1 Sr1 2.815121 1_655
O2 Si2 1.615519 1_555
O2 Sr0 2.468150 1_656
O2 Sr2 2.691273 1_556
O3 Si3 1.615519 1_555
O3 Sr0 2.468150 1_655
O3 Sr1 2.691273 1_655
O4 Si4 1.623244 1_555
O4 Sr0 2.448068 1_556
O4 Sr1 2.815121 1_556
O4 Sr2 2.815121 1_556
O5 Si5 1.615519 1_555
O5 Sr0 2.468150 1_565
O5 Sr2 2.691273 1_565
O6 Si0 1.658130 1_555
O6 Si5 1.658130 1_555
O7 Si1 1.669284 1_555
O7 Si3 1.670846 1_555
O7 Sr1 2.739180 1_655
O8 Si4 1.669284 1_555
O8 Si2 1.670846 1_555
O8 Sr2 2.739180 1_556
O9 Si4 1.669284 1_555
O9 Si0 1.670846 1_555
O9 Sr1 2.739180 1_556
O10 Si1 1.669284 1_555
O10 Si5 1.670846 1_555
O10 Sr2 2.739180 1_565
O11 Si2 1.658130 1_555
O11 Si3 1.658130 1_555
O12 Si0 1.617809 1_555
O12 Sr2 2.453554 1_566
O13 Si1 1.603659 1_555
O14 Si2 1.617809 1_555
O14 Sr1 2.453554 1_656
O15 Si3 1.617809 1_555
O15 Sr2 2.453554 1_555
O16 Si4 1.603659 1_555
O17 Si5 1.617809 1_555
O17 Sr1 2.453554 1_555
