# generated using pymatgen
data_NaSc3P8(H7O12)2
_symmetry_space_group_name_H-M   'P 1'
_cell_length_a   7.71111900
_cell_length_b   9.77177359
_cell_length_c   9.80687585
_cell_angle_alpha   115.68822263
_cell_angle_beta   101.88350431
_cell_angle_gamma   101.22161386
_symmetry_Int_Tables_number   1
_chemical_formula_structural   NaSc3P8(H7O12)2
_chemical_formula_sum   'Na1 Sc3 P8 H14 O24'
_cell_volume   616.96995493
_cell_formula_units_Z   1
loop_
 _symmetry_equiv_pos_site_id
 _symmetry_equiv_pos_as_xyz
  1  'x, y, z'
loop_
 _atom_site_type_symbol
 _atom_site_label
 _atom_site_symmetry_multiplicity
 _atom_site_fract_x
 _atom_site_fract_y
 _atom_site_fract_z
 _atom_site_occupancy
  Na  Na0  1  0.00000000  0.00000000  0.50000000  1
  Sc  Sc0  1  0.00000000  0.50000000  0.00000000  1
  Sc  Sc1  1  0.50300400  0.23749800  0.28157500  1
  Sc  Sc2  1  0.49699600  0.76250200  0.71842500  1
  P  P0  1  0.78846700  0.52455600  0.66160900  1
  P  P1  1  0.21153300  0.47544400  0.33839100  1
  P  P2  1  0.68746500  0.12104500  0.72960100  1
  P  P3  1  0.31253500  0.87895500  0.27039900  1
  P  P4  1  0.70279900  0.56848200  0.24070200  1
  P  P5  1  0.29720100  0.43151800  0.75929800  1
  P  P6  1  0.77884600  0.00309900  0.12424100  1
  P  P7  1  0.22115400  0.99690100  0.87575900  1
  H  H0  1  0.95557600  0.56069400  0.62861300  1
  H  H1  1  0.04442400  0.43930600  0.37138700  1
  H  H2  1  0.51458600  0.14966200  0.70849100  1
  H  H3  1  0.48541400  0.85033800  0.29150900  1
  H  H4  1  0.53255800  0.58200000  0.17161500  1
  H  H5  1  0.46744200  0.41800000  0.82838500  1
  H  H6  1  0.93670800  0.08812400  0.10944100  1
  H  H7  1  0.06329200  0.91187600  0.89055900  1
  H  H8  1  0.75467000  0.71027300  0.49773900  1
  H  H9  1  0.24533000  0.28972700  0.50226100  1
  H  H10  1  0.73413700  0.21139200  0.56719900  1
  H  H11  1  0.26586300  0.78860800  0.43280100  1
  H  H12  1  0.87397500  0.81589300  0.15044600  1
  H  H13  1  0.12602500  0.18410700  0.84955400  1
  O  O0  1  0.83940600  0.53513900  0.82603000  1
  O  O1  1  0.16059400  0.46486100  0.17397000  1
  O  O2  1  0.69629600  0.64852900  0.65336700  1
  O  O3  1  0.30370400  0.35147100  0.34663300  1
  O  O4  1  0.66852200  0.35029100  0.52968700  1
  O  O5  1  0.33147800  0.64970900  0.47031300  1
  O  O6  1  0.82874100  0.25831200  0.88737900  1
  O  O7  1  0.17125900  0.74168800  0.11262100  1
  O  O8  1  0.65888200  0.95491800  0.70938300  1
  O  O9  1  0.34111800  0.04508200  0.29061700  1
  O  O10  1  0.74879200  0.11747300  0.58211300  1
  O  O11  1  0.25120800  0.88252700  0.41788700  1
  O  O12  1  0.66199200  0.42337100  0.26240300  1
  O  O13  1  0.33800800  0.57662900  0.73759700  1
  O  O14  1  0.82915800  0.57960300  0.14350300  1
  O  O15  1  0.17084200  0.42039700  0.85649700  1
  O  O16  1  0.79597300  0.72694100  0.41473400  1
  O  O17  1  0.20402700  0.27305900  0.58526600  1
  O  O18  1  0.64793800  0.87198100  0.96111700  1
  O  O19  1  0.35206200  0.12801900  0.03888300  1
  O  O20  1  0.70260800  0.12062700  0.23345900  1
  O  O21  1  0.29739200  0.87937300  0.76654100  1
  O  O22  1  0.86357000  0.92003000  0.22128900  1
  O  O23  1  0.13643000  0.07997000  0.77871100  1
loop_
_geom_bond_atom_site_label_1
_geom_bond_atom_site_label_2
_geom_bond_distance
_geom_bond_site_symmetry_2
Na0 O23 2.415017 1_555
Na0 O22 2.415017 1_445
Na0 O17 2.486782 1_555
Na0 O16 2.486782 1_445
Na0 O10 2.534761 1_455
Na0 O11 2.534761 1_545
H0 P0 1.408397 1_555
H1 P1 1.408397 1_555
H2 P2 1.407056 1_555
H3 P3 1.407056 1_555
H4 P4 1.406620 1_555
H5 P5 1.406620 1_555
H6 P6 1.406002 1_555
H7 P7 1.406002 1_555
H8 O16 0.996053 1_555
H9 O17 0.996053 1_555
H10 O10 1.013098 1_555
H10 O4 1.690288 1_555
H11 O11 1.013098 1_555
H11 O5 1.690288 1_555
H12 O22 0.983082 1_555
H13 O23 0.983082 1_555
O0 P0 1.530939 1_555
O0 Sc0 2.089370 1_656
O1 P1 1.530939 1_555
O1 Sc0 2.089370 1_555
O2 P0 1.541301 1_555
O2 Sc2 2.112635 1_555
O3 P1 1.541301 1_555
O3 Sc1 2.112635 1_555
O4 P0 1.553462 1_555
O4 Sc1 2.147733 1_555
O5 P1 1.553462 1_555
O5 Sc2 2.147733 1_555
O6 P2 1.522456 1_555
O6 Sc0 2.113190 1_656
O7 P3 1.522456 1_555
O7 Sc0 2.113190 1_555
O8 P2 1.512241 1_565
O8 Sc2 2.092390 1_555
O9 P3 1.512241 1_545
O9 Sc1 2.092390 1_555
O10 P2 1.600398 1_555
O11 P3 1.600398 1_555
O12 P4 1.506834 1_555
O12 Sc1 2.088460 1_555
O13 P5 1.506834 1_555
O13 Sc2 2.088460 1_555
O14 P4 1.516885 1_555
O14 Sc0 2.129425 1_655
O15 P5 1.516885 1_555
O15 Sc0 2.129425 1_556
O16 P4 1.611701 1_555
O17 P5 1.611701 1_555
O18 P6 1.508093 1_566
O18 Sc2 2.081084 1_555
O19 P7 1.508093 1_544
O19 Sc1 2.081084 1_555
O20 P6 1.505808 1_555
O20 Sc1 2.100482 1_555
O21 P7 1.505808 1_555
O21 Sc2 2.100482 1_555
O22 P6 1.616052 1_565
O23 P7 1.616052 1_545
