# generated using pymatgen
data_YbSbIr
_symmetry_space_group_name_H-M   'P 1'
_cell_length_a   4.59366400
_cell_length_b   7.26302900
_cell_length_c   7.77376900
_cell_angle_alpha   90.00000000
_cell_angle_beta   90.00000000
_cell_angle_gamma   90.00000000
_symmetry_Int_Tables_number   1
_chemical_formula_structural   YbSbIr
_chemical_formula_sum   'Yb4 Sb4 Ir4'
_cell_volume   259.36336697
_cell_formula_units_Z   4
loop_
 _symmetry_equiv_pos_site_id
 _symmetry_equiv_pos_as_xyz
  1  'x, y, z'
loop_
 _atom_site_type_symbol
 _atom_site_label
 _atom_site_symmetry_multiplicity
 _atom_site_fract_x
 _atom_site_fract_y
 _atom_site_fract_z
 _atom_site_occupancy
  Yb  Yb0  1  0.25000000  0.01798500  0.30584600  1
  Yb  Yb1  1  0.25000000  0.51798500  0.19415400  1
  Yb  Yb2  1  0.75000000  0.98201500  0.69415400  1
  Yb  Yb3  1  0.75000000  0.48201500  0.80584600  1
  Sb  Sb0  1  0.25000000  0.67887900  0.58252100  1
  Sb  Sb1  1  0.25000000  0.17887900  0.91747900  1
  Sb  Sb2  1  0.75000000  0.32112100  0.41747900  1
  Sb  Sb3  1  0.75000000  0.82112100  0.08252100  1
  Ir  Ir0  1  0.25000000  0.29877500  0.59441900  1
  Ir  Ir1  1  0.25000000  0.79877500  0.90558100  1
  Ir  Ir2  1  0.75000000  0.70122500  0.40558100  1
  Ir  Ir3  1  0.75000000  0.20122500  0.09441900  1
loop_
_geom_bond_atom_site_label_1
_geom_bond_atom_site_label_2
_geom_bond_distance
_geom_bond_site_symmetry_2
Sb0 Yb3 3.214625 1_555
Sb0 Yb3 3.214625 1_455
Sb0 Yb1 3.237343 1_555
Sb0 Yb0 3.269867 1_565
Sb0 Yb2 3.297870 1_455
Sb0 Yb2 3.297870 1_555
Sb1 Yb2 3.214625 1_445
Sb1 Yb2 3.214625 1_545
Sb1 Yb0 3.237343 1_556
Sb1 Yb1 3.269867 1_556
Sb1 Yb3 3.297870 1_555
Sb1 Yb3 3.297870 1_455
Sb2 Yb1 3.214625 1_555
Sb2 Yb1 3.214625 1_655
Sb2 Yb3 3.237343 1_555
Sb2 Yb2 3.269867 1_545
Sb2 Yb0 3.297870 1_555
Sb2 Yb0 3.297870 1_655
Sb3 Yb0 3.214625 1_665
Sb3 Yb0 3.214625 1_565
Sb3 Yb2 3.237343 1_554
Sb3 Yb3 3.269867 1_554
Sb3 Yb1 3.297870 1_655
Sb3 Yb1 3.297870 1_555
Ir0 Sb1 2.658083 1_555
Ir0 Sb2 2.682117 1_455
Ir0 Sb2 2.682117 1_555
Ir0 Sb0 2.762255 1_555
Ir0 Yb0 3.031747 1_555
Ir0 Yb3 3.122186 1_555
Ir0 Yb3 3.122186 1_455
Ir0 Yb2 3.342078 1_445
Ir0 Yb2 3.342078 1_545
Ir0 Yb1 3.495243 1_555
Ir1 Sb0 2.658083 1_555
Ir1 Sb3 2.682117 1_556
Ir1 Sb3 2.682117 1_456
Ir1 Sb1 2.762255 1_565
Ir1 Yb1 3.031747 1_556
Ir1 Yb2 3.122186 1_455
Ir1 Yb2 3.122186 1_555
Ir1 Yb3 3.342078 1_455
Ir1 Yb3 3.342078 1_555
Ir1 Yb0 3.495243 1_566
Ir2 Sb3 2.658083 1_555
Ir2 Sb0 2.682117 1_555
Ir2 Sb0 2.682117 1_655
Ir2 Sb2 2.762255 1_555
Ir2 Yb2 3.031747 1_555
Ir2 Yb1 3.122186 1_655
Ir2 Yb1 3.122186 1_555
Ir2 Yb0 3.342078 1_665
Ir2 Yb0 3.342078 1_565
Ir2 Yb3 3.495243 1_555
Ir3 Sb2 2.658083 1_555
Ir3 Sb1 2.682117 1_654
Ir3 Sb1 2.682117 1_554
Ir3 Sb3 2.762255 1_545
Ir3 Yb3 3.031747 1_554
Ir3 Yb0 3.122186 1_655
Ir3 Yb0 3.122186 1_555
Ir3 Yb1 3.342078 1_555
Ir3 Yb1 3.342078 1_655
Ir3 Yb2 3.495243 1_544
