# generated using pymatgen
data_NaCaZrFeSi2O8F
_symmetry_space_group_name_H-M   'P 1'
_cell_length_a   10.05266200
_cell_length_b   7.28162200
_cell_length_c   10.94875322
_cell_angle_alpha   71.96717413
_cell_angle_beta   90.00000000
_cell_angle_gamma   90.00000000
_symmetry_Int_Tables_number   1
_chemical_formula_structural   NaCaZrFeSi2O8F
_chemical_formula_sum   'Na4 Ca4 Zr4 Fe4 Si8 O32 F4'
_cell_volume   762.07774584
_cell_formula_units_Z   4
loop_
 _symmetry_equiv_pos_site_id
 _symmetry_equiv_pos_as_xyz
  1  'x, y, z'
loop_
 _atom_site_type_symbol
 _atom_site_label
 _atom_site_symmetry_multiplicity
 _atom_site_fract_x
 _atom_site_fract_y
 _atom_site_fract_z
 _atom_site_occupancy
  Na  Na0  1  0.88275000  0.66208800  0.42827800  1
  Na  Na1  1  0.11725000  0.33791200  0.57172200  1
  Na  Na2  1  0.38275000  0.33791200  0.07172200  1
  Na  Na3  1  0.61725000  0.66208800  0.92827800  1
  Ca  Ca0  1  0.60704400  0.47462800  0.30416100  1
  Ca  Ca1  1  0.39295600  0.52537200  0.69583900  1
  Ca  Ca2  1  0.10704400  0.52537200  0.19583900  1
  Ca  Ca3  1  0.89295600  0.47462800  0.80416100  1
  Zr  Zr0  1  0.59966200  0.97888500  0.28716700  1
  Zr  Zr1  1  0.40033800  0.02111500  0.71283300  1
  Zr  Zr2  1  0.09966200  0.02111500  0.21283300  1
  Zr  Zr3  1  0.90033800  0.97888500  0.78716700  1
  Fe  Fe0  1  0.37252800  0.86628500  0.05782300  1
  Fe  Fe1  1  0.62747200  0.13371500  0.94217700  1
  Fe  Fe2  1  0.87252800  0.13371500  0.44217700  1
  Fe  Fe3  1  0.12747200  0.86628500  0.55782300  1
  Si  Si0  1  0.82799600  0.32959900  0.11750700  1
  Si  Si1  1  0.17200400  0.67040100  0.88249300  1
  Si  Si2  1  0.32799600  0.67040100  0.38249300  1
  Si  Si3  1  0.67200400  0.32959900  0.61750700  1
  Si  Si4  1  0.83062600  0.78055300  0.12013600  1
  Si  Si5  1  0.16937400  0.21944700  0.87986400  1
  Si  Si6  1  0.33062600  0.21944700  0.37986400  1
  Si  Si7  1  0.66937400  0.78055300  0.62013600  1
  O  O0  1  0.72013200  0.90745400  0.47866200  1
  O  O1  1  0.27986800  0.09254600  0.52133800  1
  O  O2  1  0.22013200  0.09254600  0.02133800  1
  O  O3  1  0.77986800  0.90745400  0.97866200  1
  O  O4  1  0.24635700  0.79415600  0.25317100  1
  O  O5  1  0.75364300  0.20584400  0.74682900  1
  O  O6  1  0.74635700  0.20584400  0.24682900  1
  O  O7  1  0.25364300  0.79415600  0.75317100  1
  O  O8  1  0.48581300  0.73037800  0.37548300  1
  O  O9  1  0.51418700  0.26962200  0.62451700  1
  O  O10  1  0.98581300  0.26962200  0.12451700  1
  O  O11  1  0.01418700  0.73037800  0.87548300  1
  O  O12  1  0.73440000  0.78337500  0.24097900  1
  O  O13  1  0.26560000  0.21662500  0.75902100  1
  O  O14  1  0.23440000  0.21662500  0.25902100  1
  O  O15  1  0.76560000  0.78337500  0.74097900  1
  O  O16  1  0.98402400  0.82190300  0.15342400  1
  O  O17  1  0.01597600  0.17809700  0.84657600  1
  O  O18  1  0.48402400  0.17809700  0.34657600  1
  O  O19  1  0.51597600  0.82190300  0.65342400  1
  O  O20  1  0.82874100  0.54937000  0.13034100  1
  O  O21  1  0.17125900  0.45063000  0.86965900  1
  O  O22  1  0.32874100  0.45063000  0.36965900  1
  O  O23  1  0.67125900  0.54937000  0.63034100  1
  O  O24  1  0.24268100  0.66353800  0.01666500  1
  O  O25  1  0.75731900  0.33646200  0.98333500  1
  O  O26  1  0.74268100  0.33646200  0.48333500  1
  O  O27  1  0.25731900  0.66353800  0.51666500  1
  O  O28  1  0.48728900  0.95868200  0.88271000  1
  O  O29  1  0.51271100  0.04131800  0.11729000  1
  O  O30  1  0.98728900  0.04131800  0.61729000  1
  O  O31  1  0.01271100  0.95868200  0.38271000  1
  F  F0  1  0.50363700  0.58952800  0.11670900  1
  F  F1  1  0.49636300  0.41047200  0.88329100  1
  F  F2  1  0.00363700  0.41047200  0.38329100  1
  F  F3  1  0.99636300  0.58952800  0.61670900  1
loop_
_geom_bond_atom_site_label_1
_geom_bond_atom_site_label_2
_geom_bond_distance
_geom_bond_site_symmetry_2
Na0 O31 2.439851 1_655
Na0 O12 2.467394 1_555
Na0 O0 2.603664 1_555
Na0 O26 2.661420 1_555
Na1 O30 2.439851 1_455
Na1 O13 2.467394 1_555
Na1 O1 2.603664 1_555
Na1 O27 2.661420 1_555
Na2 O29 2.439851 1_555
Na2 O14 2.467394 1_555
Na2 O2 2.603664 1_555
Na2 O24 2.661420 1_555
Na3 O28 2.439851 1_555
Na3 O15 2.467394 1_555
Na3 O3 2.603664 1_555
Na3 O25 2.661420 1_555
Ca0 F0 2.220288 1_555
Ca0 O26 2.344741 1_555
Ca0 O18 2.405511 1_555
Ca0 O12 2.491799 1_555
Ca0 O8 2.542324 1_555
Ca0 O6 2.635626 1_555
Ca0 O20 2.871173 1_555
Ca0 O22 2.879976 1_555
Ca1 F1 2.220288 1_555
Ca1 O27 2.344741 1_555
Ca1 O19 2.405511 1_555
Ca1 O13 2.491799 1_555
Ca1 O9 2.542324 1_555
Ca1 O7 2.635626 1_555
Ca1 O21 2.871173 1_555
Ca1 O23 2.879976 1_555
Ca2 F2 2.220288 1_555
Ca2 O24 2.344741 1_555
Ca2 O16 2.405511 1_455
Ca2 O14 2.491799 1_555
Ca2 O10 2.542324 1_455
Ca2 O4 2.635626 1_555
Ca2 O22 2.871173 1_555
Ca2 O20 2.879976 1_455
Ca3 F3 2.220288 1_555
Ca3 O25 2.344741 1_555
Ca3 O17 2.405511 1_655
Ca3 O15 2.491799 1_555
Ca3 O11 2.542324 1_655
Ca3 O5 2.635626 1_555
Ca3 O23 2.871173 1_555
Ca3 O21 2.879976 1_655
Fe0 O24 2.120925 1_555
Fe0 O29 2.132598 1_565
Fe0 O28 2.158904 1_554
Fe0 O2 2.193968 1_565
Fe0 O4 2.400755 1_555
Fe1 O25 2.120925 1_555
Fe1 O28 2.132598 1_545
Fe1 O29 2.158904 1_556
Fe1 O3 2.193968 1_545
Fe1 O5 2.400755 1_555
Fe2 O26 2.120925 1_555
Fe2 O31 2.132598 1_645
Fe2 O30 2.158904 1_555
Fe2 O0 2.193968 1_545
Fe2 O6 2.400755 1_555
Fe3 O27 2.120925 1_555
Fe3 O30 2.132598 1_465
Fe3 O31 2.158904 1_555
Fe3 O1 2.193968 1_565
Fe3 O7 2.400755 1_555
O0 Si7 1.620909 1_555
O0 Zr0 2.336206 1_555
O1 Si6 1.620909 1_555
O1 Zr1 2.336206 1_555
O2 Si5 1.620909 1_554
O2 Zr2 2.336206 1_555
O3 Si4 1.620909 1_556
O3 Zr3 2.336206 1_555
O4 Si2 1.643299 1_555
O4 Zr2 2.156158 1_565
O5 Si3 1.643299 1_555
O5 Zr3 2.156158 1_545
O6 Si0 1.643299 1_555
O6 Zr0 2.156158 1_545
O7 Si1 1.643299 1_555
O7 Zr1 2.156158 1_565
O8 Si2 1.640973 1_555
O8 Zr0 2.106171 1_555
O9 Si3 1.640973 1_555
O9 Zr1 2.106171 1_555
O10 Si0 1.640973 1_555
O10 Zr2 2.106171 1_655
O11 Si1 1.640973 1_555
O11 Zr3 2.106171 1_455
O12 Si4 1.644238 1_555
O12 Zr0 2.136068 1_555
O13 Si5 1.644238 1_555
O13 Zr1 2.136068 1_555
O14 Si6 1.644238 1_555
O14 Zr2 2.136068 1_555
O15 Si7 1.644238 1_555
O15 Zr3 2.136068 1_555
O16 Si4 1.633822 1_555
O16 Zr2 2.112533 1_665
O17 Si5 1.633822 1_555
O17 Zr3 2.112533 1_445
O18 Si6 1.633822 1_555
O18 Zr0 2.112533 1_545
O19 Si7 1.633822 1_555
O19 Zr1 2.112533 1_565
O20 Si0 1.649226 1_555
O20 Si4 1.652327 1_555
O21 Si1 1.649226 1_555
O21 Si5 1.652327 1_555
O22 Si2 1.649226 1_555
O22 Si6 1.652327 1_555
O23 Si3 1.649226 1_555
O23 Si7 1.652327 1_555
O24 Si1 1.618596 1_554
O25 Si0 1.618596 1_556
O26 Si3 1.618596 1_555
O27 Si2 1.618596 1_555
O28 Zr1 1.976508 1_565
O29 Zr0 1.976508 1_545
O30 Zr3 1.976508 1_545
O31 Zr2 1.976508 1_565
F0 Na3 2.272670 1_554
F0 Fe0 2.325846 1_555
F0 Na2 2.373812 1_555
F1 Na2 2.272670 1_556
F1 Fe1 2.325846 1_555
F1 Na3 2.373812 1_555
F2 Na1 2.272670 1_555
F2 Fe2 2.325846 1_455
F2 Na0 2.373812 1_455
F3 Na0 2.272670 1_555
F3 Fe3 2.325846 1_655
F3 Na1 2.373812 1_655
