# generated using pymatgen
data_Mg14WC
_symmetry_space_group_name_H-M   'P 1'
_cell_length_a   6.22960223
_cell_length_b   6.22960175
_cell_length_c   9.52616003
_cell_angle_alpha   90.00000000
_cell_angle_beta   90.00000000
_cell_angle_gamma   120.00000252
_symmetry_Int_Tables_number   1
_chemical_formula_structural   Mg14WC
_chemical_formula_sum   'Mg14 W1 C1'
_cell_volume   320.16149124
_cell_formula_units_Z   1
loop_
 _symmetry_equiv_pos_site_id
 _symmetry_equiv_pos_as_xyz
  1  'x, y, z'
loop_
 _atom_site_type_symbol
 _atom_site_label
 _atom_site_symmetry_multiplicity
 _atom_site_fract_x
 _atom_site_fract_y
 _atom_site_fract_z
 _atom_site_occupancy
  Mg  Mg0  1  0.17278352  0.83639126  0.12500000  1
  Mg  Mg1  1  0.16298556  0.83149228  0.62500000  1
  Mg  Mg2  1  0.66360874  0.32721648  0.12500000  1
  Mg  Mg3  1  0.66850772  0.33701444  0.62500000  1
  Mg  Mg4  1  0.66360874  0.83639126  0.12500000  1
  Mg  Mg5  1  0.66850772  0.83149228  0.62500000  1
  Mg  Mg6  1  0.32019987  0.17980013  0.38423714  1
  Mg  Mg7  1  0.32019987  0.17980013  0.86576286  1
  Mg  Mg8  1  0.32019987  0.64040075  0.38423714  1
  Mg  Mg9  1  0.32019987  0.64040075  0.86576286  1
  Mg  Mg10  1  0.85959925  0.17980013  0.38423714  1
  Mg  Mg11  1  0.85959925  0.17980013  0.86576286  1
  Mg  Mg12  1  0.83333300  0.66666700  0.37009952  1
  Mg  Mg13  1  0.83333300  0.66666700  0.87990048  1
  W  W0  1  0.16666700  0.33333300  0.12500000  1
  C  C0  1  0.16666700  0.33333300  0.62500000  1
loop_
_geom_bond_atom_site_label_1
_geom_bond_atom_site_label_2
_geom_bond_distance
_geom_bond_site_symmetry_2
Mg0 Mg13 2.967379 1_454
Mg0 Mg12 2.967379 1_455
Mg0 W0 3.114976 1_555
Mg0 W0 3.114976 1_565
Mg1 Mg9 2.966906 1_555
Mg1 Mg8 2.966906 1_555
Mg1 Mg7 2.966913 1_565
Mg1 Mg6 2.966913 1_565
Mg1 Mg13 3.009856 1_455
Mg1 Mg12 3.009856 1_455
Mg1 Mg3 3.080400 1_455
Mg1 Mg5 3.080400 1_455
Mg1 Mg3 3.149202 1_565
Mg1 Mg5 3.149202 1_555
Mg2 W0 3.114976 1_555
Mg2 W0 3.114976 1_655
Mg3 Mg6 2.966913 1_555
Mg3 Mg7 2.966913 1_555
Mg3 Mg5 3.080400 1_555
Mg3 Mg5 3.149202 1_545
Mg4 W0 3.114976 1_555
Mg4 W0 3.114976 1_665
Mg5 Mg9 2.966913 1_555
Mg5 Mg8 2.966913 1_555
Mg6 W0 2.973715 1_555
Mg7 W0 2.973715 1_556
Mg8 W0 2.973721 1_555
Mg9 W0 2.973721 1_556
Mg10 Mg3 2.966906 1_555
Mg10 Mg5 2.966913 1_545
Mg10 W0 2.973721 1_655
Mg10 Mg12 3.120930 1_555
Mg10 Mg12 3.120930 1_545
Mg11 Mg3 2.966906 1_555
Mg11 Mg5 2.966913 1_545
Mg11 W0 2.973721 1_656
Mg11 Mg13 3.120930 1_555
Mg11 Mg13 3.120930 1_545
Mg12 Mg4 2.967373 1_555
Mg12 Mg2 2.967379 1_555
Mg12 Mg5 3.009850 1_555
Mg12 Mg3 3.009856 1_555
Mg12 Mg6 3.120930 1_665
Mg12 Mg6 3.120930 1_555
Mg12 Mg8 3.120930 1_655
Mg12 Mg8 3.120930 1_555
Mg13 Mg4 2.967373 1_556
Mg13 Mg2 2.967379 1_556
Mg13 Mg5 3.009850 1_555
Mg13 Mg3 3.009856 1_555
Mg13 Mg7 3.120930 1_665
Mg13 Mg7 3.120930 1_555
Mg13 Mg9 3.120930 1_655
Mg13 Mg9 3.120930 1_555
C0 Mg6 2.829264 1_555
C0 Mg7 2.829264 1_555
C0 Mg9 2.829270 1_555
C0 Mg8 2.829270 1_555
C0 Mg10 2.829270 1_455
C0 Mg11 2.829270 1_455
