# generated using pymatgen
data_YFe6Bi(BO3)8
_symmetry_space_group_name_H-M   'P 1'
_cell_length_a   9.66415400
_cell_length_b   6.13398400
_cell_length_c   7.56771335
_cell_angle_alpha   67.26021019
_cell_angle_beta   90.00000000
_cell_angle_gamma   90.00000000
_symmetry_Int_Tables_number   1
_chemical_formula_structural   YFe6Bi(BO3)8
_chemical_formula_sum   'Y1 Fe6 Bi1 B8 O24'
_cell_volume   413.74158559
_cell_formula_units_Z   1
loop_
 _symmetry_equiv_pos_site_id
 _symmetry_equiv_pos_as_xyz
  1  'x, y, z'
loop_
 _atom_site_type_symbol
 _atom_site_label
 _atom_site_symmetry_multiplicity
 _atom_site_fract_x
 _atom_site_fract_y
 _atom_site_fract_z
 _atom_site_occupancy
  Y  Y0  1  0.99894600  0.00000000  0.00000000  1
  Fe  Fe0  1  0.27522800  0.55381800  0.27539800  1
  Fe  Fe1  1  0.77667800  0.54997100  0.77810000  1
  Fe  Fe2  1  0.27522800  0.44618200  0.72460200  1
  Fe  Fe3  1  0.77667800  0.45002900  0.22190000  1
  Fe  Fe4  1  0.94791500  0.00000000  0.50000000  1
  Fe  Fe5  1  0.44723300  0.00000000  0.00000000  1
  Bi  Bi0  1  0.49934700  0.00000000  0.50000000  1
  B  B0  1  0.00022400  0.50000000  0.50000000  1
  B  B1  1  0.49950500  0.50000000  0.00000000  1
  B  B2  1  0.22075500  0.94605800  0.72549000  1
  B  B3  1  0.72502700  0.94738200  0.22027600  1
  B  B4  1  0.22075500  0.05394200  0.27451000  1
  B  B5  1  0.72502700  0.05261800  0.77972400  1
  B  B6  1  0.55400700  0.50000000  0.50000000  1
  B  B7  1  0.05449900  0.50000000  0.00000000  1
  O  O0  1  0.92925700  0.35750300  0.42626700  1
  O  O1  1  0.42774500  0.35663600  0.92783700  1
  O  O2  1  0.92925700  0.64249700  0.57373300  1
  O  O3  1  0.42774500  0.64336400  0.07216300  1
  O  O4  1  0.14376700  0.50000000  0.50000000  1
  O  O5  1  0.64311600  0.50000000  0.00000000  1
  O  O6  1  0.07889500  0.97371600  0.71400600  1
  O  O7  1  0.58245400  0.96517500  0.20762100  1
  O  O8  1  0.29421400  0.21202000  0.32753200  1
  O  O9  1  0.80270300  0.20539300  0.83385400  1
  O  O10  1  0.62173600  0.37327100  0.40995600  1
  O  O11  1  0.11915000  0.36524700  0.91404000  1
  O  O12  1  0.29421400  0.78798000  0.67246800  1
  O  O13  1  0.80270300  0.79460700  0.16614600  1
  O  O14  1  0.62173600  0.62672900  0.59004400  1
  O  O15  1  0.11915000  0.63475300  0.08596000  1
  O  O16  1  0.07889500  0.02628400  0.28599400  1
  O  O17  1  0.58245400  0.03482500  0.79237900  1
  O  O18  1  0.79516500  0.09163900  0.29231100  1
  O  O19  1  0.29572000  0.08889100  0.79434000  1
  O  O20  1  0.79516500  0.90836100  0.70768900  1
  O  O21  1  0.29572000  0.91110900  0.20566000  1
  O  O22  1  0.41093000  0.50000000  0.50000000  1
  O  O23  1  0.91105900  0.50000000  0.00000000  1
loop_
_geom_bond_atom_site_label_1
_geom_bond_atom_site_label_2
_geom_bond_distance
_geom_bond_site_symmetry_2
Fe0 O8 1.986329 1_555
Fe0 O15 2.006649 1_555
Fe0 O4 2.044093 1_555
Fe0 O3 2.046127 1_555
Fe0 O21 2.055904 1_555
Fe0 O22 2.069815 1_555
Fe1 O14 1.992783 1_555
Fe1 O9 2.004816 1_555
Fe1 O5 2.045007 1_556
Fe1 O23 2.050012 1_556
Fe1 O2 2.051767 1_555
Fe1 O20 2.059862 1_555
Fe2 O12 1.986329 1_555
Fe2 O11 2.006649 1_555
Fe2 O4 2.044093 1_555
Fe2 O1 2.046127 1_555
Fe2 O19 2.055904 1_555
Fe2 O22 2.069815 1_555
Fe3 O10 1.992783 1_555
Fe3 O13 2.004816 1_555
Fe3 O5 2.045007 1_555
Fe3 O23 2.050012 1_555
Fe3 O0 2.051767 1_555
Fe3 O18 2.059862 1_555
Fe4 O16 2.012289 1_655
Fe4 O6 2.012289 1_645
Fe4 O0 2.051043 1_555
Fe4 O2 2.051043 1_545
Fe4 O18 2.069409 1_555
Fe4 O20 2.069409 1_545
Fe5 O7 1.990626 1_545
Fe5 O17 1.990626 1_554
Fe5 O3 2.048343 1_545
Fe5 O1 2.048343 1_554
Fe5 O19 2.051233 1_554
Fe5 O21 2.051233 1_545
Bi0 O14 2.428904 1_545
Bi0 O10 2.428904 1_555
Bi0 O7 2.439648 1_545
Bi0 O17 2.439648 1_555
Bi0 O12 2.452075 1_545
Bi0 O8 2.452075 1_555
B0 O0 1.386646 1_455
B0 O2 1.386646 1_455
B0 O4 1.387222 1_555
B1 O1 1.387004 1_554
B1 O3 1.387004 1_555
B1 O5 1.387879 1_555
B2 O6 1.380022 1_555
B2 O12 1.380580 1_555
B2 O19 1.384511 1_565
B3 O13 1.380682 1_555
B3 O7 1.382558 1_555
B3 O18 1.382947 1_565
B4 O16 1.380022 1_555
B4 O8 1.380580 1_555
B4 O21 1.384511 1_545
B5 O9 1.380682 1_555
B5 O17 1.382558 1_555
B5 O20 1.382947 1_545
B6 O10 1.380784 1_555
B6 O14 1.380784 1_555
B6 O22 1.382718 1_555
B7 O15 1.382919 1_555
B7 O11 1.382919 1_554
B7 O23 1.386226 1_455
O6 Y0 2.361571 1_466
O9 Y0 2.353794 1_556
O11 Y0 2.380209 1_456
O13 Y0 2.353794 1_565
O15 Y0 2.380209 1_465
O16 Y0 2.361571 1_455
