# generated using pymatgen
data_Nd4Mo31O56
_symmetry_space_group_name_H-M   'P 1'
_cell_length_a   10.77278500
_cell_length_b   12.46970260
_cell_length_c   12.56091792
_cell_angle_alpha   119.75458924
_cell_angle_beta   90.15315028
_cell_angle_gamma   115.30517662
_symmetry_Int_Tables_number   1
_chemical_formula_structural   Nd4Mo31O56
_chemical_formula_sum   'Nd4 Mo31 O56'
_cell_volume   1273.75945714
_cell_formula_units_Z   1
loop_
 _symmetry_equiv_pos_site_id
 _symmetry_equiv_pos_as_xyz
  1  'x, y, z'
loop_
 _atom_site_type_symbol
 _atom_site_label
 _atom_site_symmetry_multiplicity
 _atom_site_fract_x
 _atom_site_fract_y
 _atom_site_fract_z
 _atom_site_occupancy
  Nd  Nd0  1  0.71863100  0.79592400  0.69910500  1
  Nd  Nd1  1  0.97270000  0.54269800  0.44622500  1
  Nd  Nd2  1  0.22053300  0.30650900  0.20123900  1
  Nd  Nd3  1  0.52367800  0.04737200  0.96708200  1
  Mo  Mo0  1  0.98205500  0.14836200  0.99280000  1
  Mo  Mo1  1  0.85785600  0.39721800  0.97521200  1
  Mo  Mo2  1  0.50257300  0.39823700  0.74931800  1
  Mo  Mo3  1  0.23691900  0.27352400  0.85868200  1
  Mo  Mo4  1  0.75512600  0.88663600  0.98479300  1
  Mo  Mo5  1  0.48936300  0.64613200  0.49764700  1
  Mo  Mo6  1  0.39823700  0.65376300  0.99802000  1
  Mo  Mo7  1  0.37074200  0.63093300  0.74433900  1
  Mo  Mo8  1  0.10536300  0.50926600  0.84450100  1
  Mo  Mo9  1  0.41041600  0.90087400  0.74392600  1
  Mo  Mo10  1  0.35376200  0.89771500  0.47353100  1
  Mo  Mo11  1  0.13387800  0.75829500  0.86978000  1
  Mo  Mo12  1  0.08413300  0.75886800  0.58990000  1
  Mo  Mo13  1  0.74856500  0.51960400  0.61400700  1
  Mo  Mo14  1  0.50043800  0.25713000  0.59949700  1
  Mo  Mo15  1  0.15038000  0.02602200  0.60954700  1
  Mo  Mo16  1  0.98550200  0.89662300  0.24374900  1
  Mo  Mo17  1  0.01434800  0.00713000  0.84844800  1
  Mo  Mo18  1  0.25140200  0.38565100  0.48953800  1
  Mo  Mo19  1  0.89435900  0.14850300  0.49364000  1
  Mo  Mo20  1  0.76377200  0.14724900  0.72210400  1
  Mo  Mo21  1  0.86573800  0.13429100  0.23463300  1
  Mo  Mo22  1  0.60069800  0.99411700  0.34307200  1
  Mo  Mo23  1  0.91210300  0.39942000  0.24526900  1
  Mo  Mo24  1  0.62420200  0.25659200  0.36488500  1
  Mo  Mo25  1  0.59156800  0.25614700  0.10159400  1
  Mo  Mo26  1  0.24185300  0.01331700  0.11667700  1
  Mo  Mo27  1  0.99999200  0.75716900  0.09465200  1
  Mo  Mo28  1  0.64918100  0.52598100  0.10635900  1
  Mo  Mo29  1  0.53320900  0.51929900  0.35027700  1
  Mo  Mo30  1  0.26672400  0.64426500  0.23020300  1
  O  O0  1  0.75153800  0.07333500  0.91765600  1
  O  O1  1  0.50193100  0.22138000  0.77855600  1
  O  O2  1  0.71703200  0.44978100  0.79258800  1
  O  O3  1  0.46211600  0.32883200  0.92007800  1
  O  O4  1  0.29052200  0.35072600  0.68342600  1
  O  O5  1  0.49840100  0.60789400  0.92450400  1
  O  O6  1  0.50744900  0.59345100  0.69629100  1
  O  O7  1  0.99875000  0.18897700  0.81181800  1
  O  O8  1  0.78324600  0.94840900  0.79879500  1
  O  O9  1  0.23018200  0.46360800  0.79187100  1
  O  O10  1  0.53124500  0.84592400  0.94087200  1
  O  O11  1  0.97252400  0.33385100  0.92708200  1
  O  O12  1  0.49188700  0.82223400  0.67181400  1
  O  O13  1  0.26012400  0.57999700  0.42180900  1
  O  O14  1  0.22103400  0.70349600  0.56432300  1
  O  O15  1  0.00811500  0.58180400  0.90110600  1
  O  O16  1  0.53795900  0.08441000  0.66317400  1
  O  O17  1  0.96899000  0.56021100  0.64637600  1
  O  O18  1  0.28629400  0.94326600  0.80507100  1
  O  O19  1  0.98978900  0.72481800  0.26655300  1
  O  O20  1  0.24876700  0.93722900  0.56160300  1
  O  O21  1  0.00016100  0.80928800  0.90897800  1
  O  O22  1  0.23859700  0.07391000  0.93250200  1
  O  O23  1  0.20771300  0.95408000  0.28884200  1
  O  O24  1  0.02880100  0.82365000  0.67905900  1
  O  O25  1  0.96197300  0.79475800  0.42333200  1
  O  O26  1  0.28917000  0.20824300  0.54644300  1
  O  O27  1  0.71551900  0.67829400  0.58382500  1
  O  O28  1  0.03454300  0.07895700  0.66681400  1
  O  O29  1  0.77876900  0.86632500  0.15504500  1
  O  O30  1  0.99619400  0.10337700  0.42881100  1
  O  O31  1  0.00270800  0.09072100  0.19142500  1
  O  O32  1  0.74661900  0.97356700  0.52306800  1
  O  O33  1  0.49216700  0.67343500  0.31922800  1
  O  O34  1  0.29898100  0.45269400  0.30265200  1
  O  O35  1  0.69100200  0.97720100  0.25503100  1
  O  O36  1  0.02497600  0.34364700  0.44377500  1
  O  O37  1  0.46706300  0.83016500  0.42747400  1
  O  O38  1  0.00032700  0.33007300  0.17216000  1
  O  O39  1  0.77811700  0.21207300  0.53389900  1
  O  O40  1  0.71486300  0.20508900  0.04485400  1
  O  O41  1  0.50292800  0.07895800  0.39030500  1
  O  O42  1  0.71571300  0.32480400  0.65428600  1
  O  O43  1  0.04031200  0.58438600  0.17365300  1
  O  O44  1  0.46092800  0.05951800  0.14815600  1
  O  O45  1  0.78374300  0.44490000  0.30150000  1
  O  O46  1  0.75284700  0.43779800  0.06413900  1
  O  O47  1  0.50209900  0.32023800  0.40839600  1
  O  O48  1  0.74332000  0.54889400  0.43718400  1
  O  O49  1  0.51841100  0.33096300  0.17969300  1
  O  O50  1  0.78414100  0.71449100  0.03568500  1
  O  O51  1  0.21078700  0.19375300  0.05490500  1
  O  O52  1  0.54483700  0.58643300  0.16800800  1
  O  O53  1  0.25681900  0.48204000  0.02736700  1
  O  O54  1  0.28571200  0.71431900  0.04022100  1
  O  O55  1  0.21431000  0.82661100  0.15126400  1
loop_
_geom_bond_atom_site_label_1
_geom_bond_atom_site_label_2
_geom_bond_distance
_geom_bond_site_symmetry_2
Nd0 O27 1.448769 1_555
Nd0 O8 1.472608 1_555
Nd1 O45 2.143155 1_555
Nd1 O14 2.412198 1_655
Nd1 O17 2.415147 1_555
Nd1 O48 2.509070 1_555
Nd1 O36 2.756481 1_655
Nd1 O13 2.968724 1_655
Nd2 O34 1.425567 1_555
Nd2 O51 1.635261 1_555
Nd3 O40 1.919277 1_556
Nd3 O44 2.325269 1_556
Nd3 O10 2.404058 1_545
Nd3 O0 2.458457 1_555
Nd3 O18 2.622634 1_545
Mo0 O38 2.190442 1_656
Mo0 O0 2.248966 1_555
Mo0 O51 2.315118 1_656
Mo0 O7 2.554179 1_555
Mo1 O46 1.648801 1_556
Mo1 O11 1.697080 1_555
Mo1 O43 2.408617 1_656
Mo2 O2 2.103142 1_555
Mo2 O4 2.144907 1_555
Mo2 O1 2.406117 1_555
Mo2 O5 2.463718 1_555
Mo2 O3 2.657942 1_555
Mo2 O6 2.805752 1_555
Mo3 O3 2.233292 1_555
Mo3 O7 2.259321 1_455
Mo3 O53 2.312755 1_556
Mo3 O4 2.782325 1_555
Mo4 O10 2.246586 1_555
Mo4 O29 2.300464 1_556
Mo4 O50 2.654952 1_556
Mo5 O12 2.188420 1_555
Mo5 O13 2.269980 1_555
Mo5 O33 2.426581 1_555
Mo5 O34 2.429739 1_555
Mo5 O27 2.447039 1_555
Mo6 O5 1.533918 1_555
Mo6 O54 1.645992 1_556
Mo6 O53 2.244951 1_556
Mo6 O10 2.662281 1_555
Mo7 O6 1.750655 1_555
Mo7 O10 2.390907 1_555
Mo8 O15 1.611509 1_555
Mo8 O9 1.689642 1_555
Mo9 O12 1.552657 1_555
Mo9 O18 1.692343 1_555
Mo9 Nd3 2.382577 1_565
Mo9 O16 2.788899 1_565
Mo10 O20 1.639529 1_555
Mo10 O37 1.712599 1_555
Mo10 O16 2.356433 1_565
Mo10 O41 2.834125 1_565
Mo11 O21 1.788263 1_555
Mo11 O15 2.268758 1_555
Mo11 O17 2.544323 1_455
Mo11 O18 2.703165 1_555
Mo12 O24 1.333918 1_555
Mo12 O14 1.846051 1_555
Mo12 Nd1 2.087506 1_455
Mo12 O20 2.373689 1_555
Mo12 O17 2.701938 1_455
Mo12 O25 2.779897 1_455
Mo13 O17 2.196129 1_555
Mo13 O27 2.352085 1_555
Mo13 O48 2.427314 1_555
Mo13 O42 2.601468 1_555
Mo13 O2 2.755887 1_555
Mo13 O47 2.801396 1_555
Mo14 Mo2 1.821143 1_555
Mo14 O42 2.075094 1_555
Mo14 O26 2.097194 1_555
Mo14 O41 2.469439 1_555
Mo14 O1 2.501756 1_555
Mo14 O16 2.809665 1_555
Mo15 O28 1.657723 1_555
Mo15 O20 1.748376 1_545
Mo15 O25 2.486482 1_445
Mo16 Mo27 1.885944 1_555
Mo16 O23 2.165252 1_655
Mo16 O29 2.278974 1_555
Mo16 O19 2.316783 1_555
Mo16 O30 2.420716 1_565
Mo16 O50 2.561329 1_555
Mo16 O31 2.742342 1_665
Mo17 O22 2.244575 1_555
Mo17 O8 2.259049 1_445
Mo17 O24 2.293556 1_545
Mo17 O7 2.596679 1_455
Mo18 O36 2.270705 1_555
Mo18 O4 2.739099 1_555
Mo18 O13 2.908228 1_555
Mo19 O30 1.503644 1_555
Mo19 O39 1.704796 1_555
Mo19 O32 2.294280 1_545
Mo19 O36 2.623747 1_655
Mo20 O16 2.205617 1_555
Mo20 O32 2.292620 1_545
Mo20 O7 2.495032 1_555
Mo21 O31 1.778740 1_655
Mo21 O35 2.189683 1_545
Mo21 O36 2.449391 1_655
Mo21 O29 2.654350 1_545
Mo22 O35 1.470879 1_555
Mo22 O41 1.706896 1_565
Mo23 O38 1.553520 1_655
Mo23 O45 1.735127 1_555
Mo23 Nd1 2.123106 1_555
Mo23 O43 2.716499 1_655
Mo24 O47 1.767651 1_555
Mo24 O41 2.223856 1_555
Mo24 O44 2.486527 1_555
Mo24 O45 2.741256 1_555
Mo25 O49 1.475839 1_555
Mo25 O40 1.719042 1_555
Mo25 Nd3 2.041289 1_554
Mo25 O46 2.463447 1_555
Mo25 O45 2.464010 1_555
Mo25 O44 2.610056 1_555
Mo26 O44 2.159778 1_555
Mo26 O55 2.472091 1_545
Mo26 O23 2.591345 1_545
Mo26 O22 2.771493 1_554
Mo27 O55 2.063245 1_655
Mo27 O50 2.186449 1_555
Mo27 O15 2.363858 1_654
Mo27 O19 2.380138 1_555
Mo27 O21 2.713890 1_654
Mo28 O52 1.606571 1_555
Mo28 O46 1.792130 1_555
Mo28 O3 2.368483 1_554
Mo28 O50 2.753906 1_555
Mo29 Mo5 1.971917 1_555
Mo29 O49 2.194393 1_555
Mo29 O34 2.263151 1_555
Mo29 O48 2.307385 1_555
Mo29 O33 2.347631 1_555
Mo29 O27 2.694693 1_555
Mo29 O52 2.787904 1_555
Mo29 O47 2.809895 1_555
Mo30 O43 2.217796 1_555
Mo30 O53 2.300689 1_555
Mo30 O33 2.471366 1_555
Mo30 O37 2.482862 1_555
Mo30 O13 2.882080 1_555
O0 O8 1.709257 1_545
O0 O40 1.833270 1_556
O1 O3 1.808460 1_555
O1 O16 1.811359 1_555
O2 O42 1.655448 1_555
O4 O9 1.772901 1_555
O11 O7 1.811624 1_555
O13 O34 1.774389 1_555
O13 O14 1.890911 1_555
O18 O22 1.900474 1_565
O19 O25 1.802873 1_555
O19 O43 1.874661 1_655
O22 O51 1.670784 1_556
O23 O55 1.699623 1_555
O26 O4 1.749541 1_555
O27 O48 1.884709 1_555
O28 O7 1.823192 1_455
O29 O50 1.764214 1_555
O29 O35 1.945044 1_555
O33 O37 1.886177 1_555
O33 O52 1.895649 1_555
O39 O42 1.848801 1_555
O45 O48 1.751848 1_555
O54 O55 1.867022 1_555
