# generated using pymatgen
data_TmGaPd
_symmetry_space_group_name_H-M   'P 1'
_cell_length_a   4.40983003
_cell_length_b   6.82292832
_cell_length_c   7.53177647
_cell_angle_alpha   90.00000000
_cell_angle_beta   90.00000000
_cell_angle_gamma   90.00000000
_symmetry_Int_Tables_number   1
_chemical_formula_structural   TmGaPd
_chemical_formula_sum   'Tm4 Ga4 Pd4'
_cell_volume   226.61574546
_cell_formula_units_Z   4
loop_
 _symmetry_equiv_pos_site_id
 _symmetry_equiv_pos_as_xyz
  1  'x, y, z'
loop_
 _atom_site_type_symbol
 _atom_site_label
 _atom_site_symmetry_multiplicity
 _atom_site_fract_x
 _atom_site_fract_y
 _atom_site_fract_z
 _atom_site_occupancy
  Tm  Tm0  1  0.75000000  0.51547488  0.20041769  1
  Tm  Tm1  1  0.75000000  0.01547488  0.29958231  1
  Tm  Tm2  1  0.25000000  0.48452512  0.79958231  1
  Tm  Tm3  1  0.25000000  0.98452512  0.70041769  1
  Ga  Ga0  1  0.75000000  0.17859576  0.92315439  1
  Ga  Ga1  1  0.75000000  0.67859576  0.57684561  1
  Ga  Ga2  1  0.25000000  0.82140424  0.07684561  1
  Ga  Ga3  1  0.25000000  0.32140424  0.42315439  1
  Pd  Pd0  1  0.75000000  0.28055869  0.59500743  1
  Pd  Pd1  1  0.75000000  0.78055869  0.90499257  1
  Pd  Pd2  1  0.25000000  0.71944131  0.40499257  1
  Pd  Pd3  1  0.25000000  0.21944131  0.09500743  1
loop_
_geom_bond_atom_site_label_1
_geom_bond_atom_site_label_2
_geom_bond_distance
_geom_bond_site_symmetry_2
Ga0 Pd0 2.567574 1_555
Ga0 Pd3 2.571902 1_656
Ga0 Pd3 2.571902 1_556
Ga0 Pd1 2.719221 1_545
Ga0 Tm1 3.045797 1_556
Ga0 Tm3 3.070720 1_645
Ga0 Tm3 3.070720 1_545
Ga0 Tm0 3.105487 1_556
Ga0 Tm2 3.175665 1_555
Ga0 Tm2 3.175665 1_655
Ga1 Pd1 2.567574 1_555
Ga1 Pd2 2.571902 1_655
Ga1 Pd2 2.571902 1_555
Ga1 Pd0 2.719221 1_555
Ga1 Tm0 3.045797 1_555
Ga1 Tm2 3.070720 1_655
Ga1 Tm2 3.070720 1_555
Ga1 Tm1 3.105487 1_565
Ga1 Tm3 3.175665 1_655
Ga1 Tm3 3.175665 1_555
Ga2 Pd2 2.567574 1_555
Ga2 Pd1 2.571902 1_454
Ga2 Pd1 2.571902 1_554
Ga2 Pd3 2.719221 1_565
Ga2 Tm3 3.045797 1_554
Ga2 Tm1 3.070720 1_565
Ga2 Tm1 3.070720 1_465
Ga2 Tm2 3.105487 1_554
Ga2 Tm0 3.175665 1_455
Ga2 Tm0 3.175665 1_555
Ga3 Pd3 2.567574 1_555
Ga3 Pd0 2.571902 1_555
Ga3 Pd0 2.571902 1_455
Ga3 Pd2 2.719221 1_555
Ga3 Tm2 3.045797 1_555
Ga3 Tm0 3.070720 1_455
Ga3 Tm0 3.070720 1_555
Ga3 Tm3 3.105487 1_545
Ga3 Tm1 3.175665 1_455
Ga3 Tm1 3.175665 1_555
Pd0 Tm1 2.867433 1_555
Pd0 Tm2 3.028603 1_655
Pd0 Tm2 3.028603 1_555
Pd0 Tm3 3.093804 1_645
Pd0 Tm3 3.093804 1_545
Pd1 Tm0 2.867433 1_556
Pd1 Tm3 3.028603 1_555
Pd1 Tm3 3.028603 1_655
Pd1 Tm2 3.093804 1_655
Pd1 Tm2 3.093804 1_555
Pd2 Tm3 2.867433 1_555
Pd2 Tm0 3.028603 1_455
Pd2 Tm0 3.028603 1_555
Pd2 Tm1 3.093804 1_565
Pd2 Tm1 3.093804 1_465
Pd3 Tm2 2.867433 1_554
Pd3 Tm1 3.028603 1_555
Pd3 Tm1 3.028603 1_455
Pd3 Tm0 3.093804 1_555
Pd3 Tm0 3.093804 1_455
