# generated using pymatgen
data_Na9Fe2O7
_symmetry_space_group_name_H-M   'P 1'
_cell_length_a   9.59959900
_cell_length_b   10.02209800
_cell_length_c   10.40760700
_cell_angle_alpha   90.00000000
_cell_angle_beta   90.00000000
_cell_angle_gamma   90.00000000
_symmetry_Int_Tables_number   1
_chemical_formula_structural   Na9Fe2O7
_chemical_formula_sum   'Na36 Fe8 O28'
_cell_volume   1001.29632335
_cell_formula_units_Z   4
loop_
 _symmetry_equiv_pos_site_id
 _symmetry_equiv_pos_as_xyz
  1  'x, y, z'
loop_
 _atom_site_type_symbol
 _atom_site_label
 _atom_site_symmetry_multiplicity
 _atom_site_fract_x
 _atom_site_fract_y
 _atom_site_fract_z
 _atom_site_occupancy
  Na  Na0  1  0.57068200  0.83346100  0.25210900  1
  Na  Na1  1  0.42931800  0.16653900  0.75210900  1
  Na  Na2  1  0.92931800  0.83346100  0.75210900  1
  Na  Na3  1  0.07068200  0.16653900  0.25210900  1
  Na  Na4  1  0.92473900  0.45345200  0.46893900  1
  Na  Na5  1  0.07526100  0.54654800  0.96893900  1
  Na  Na6  1  0.57526100  0.45345200  0.96893900  1
  Na  Na7  1  0.42473900  0.54654800  0.46893900  1
  Na  Na8  1  0.01408200  0.24140200  0.98738400  1
  Na  Na9  1  0.98591800  0.75859800  0.48738400  1
  Na  Na10  1  0.48591800  0.24140200  0.48738400  1
  Na  Na11  1  0.51408200  0.75859800  0.98738400  1
  Na  Na12  1  0.51524800  0.34239300  0.23721400  1
  Na  Na13  1  0.48475200  0.65760700  0.73721400  1
  Na  Na14  1  0.98475200  0.34239300  0.73721400  1
  Na  Na15  1  0.01524800  0.65760700  0.23721400  1
  Na  Na16  1  0.71108200  0.72493300  0.55575400  1
  Na  Na17  1  0.28891800  0.27506700  0.05575400  1
  Na  Na18  1  0.78891800  0.72493300  0.05575400  1
  Na  Na19  1  0.21108200  0.27506700  0.55575400  1
  Na  Na20  1  0.41148300  0.01527200  0.02487100  1
  Na  Na21  1  0.58851700  0.98472800  0.52487100  1
  Na  Na22  1  0.08851700  0.01527200  0.52487100  1
  Na  Na23  1  0.91148300  0.98472800  0.02487100  1
  Na  Na24  1  0.77688800  0.21656500  0.38793300  1
  Na  Na25  1  0.22311200  0.78343500  0.88793300  1
  Na  Na26  1  0.72311200  0.21656500  0.88793300  1
  Na  Na27  1  0.27688800  0.78343500  0.38793300  1
  Na  Na28  1  0.84772800  0.94151000  0.32605000  1
  Na  Na29  1  0.15227200  0.05849000  0.82605000  1
  Na  Na30  1  0.65227200  0.94151000  0.82605000  1
  Na  Na31  1  0.34772800  0.05849000  0.32605000  1
  Na  Na32  1  0.84285000  0.39192600  0.13226900  1
  Na  Na33  1  0.15715000  0.60807400  0.63226900  1
  Na  Na34  1  0.65715000  0.39192600  0.63226900  1
  Na  Na35  1  0.34285000  0.60807400  0.13226900  1
  Fe  Fe0  1  0.68874700  0.56828600  0.30367400  1
  Fe  Fe1  1  0.31125300  0.43171400  0.80367400  1
  Fe  Fe2  1  0.81125300  0.56828600  0.80367400  1
  Fe  Fe3  1  0.18874700  0.43171400  0.30367400  1
  Fe  Fe4  1  0.65985900  0.10148300  0.14742000  1
  Fe  Fe5  1  0.34014100  0.89851700  0.64742000  1
  Fe  Fe6  1  0.84014100  0.10148300  0.64742000  1
  Fe  Fe7  1  0.15985900  0.89851700  0.14742000  1
  O  O0  1  0.80239500  0.71352500  0.33294400  1
  O  O1  1  0.19760500  0.28647500  0.83294400  1
  O  O2  1  0.69760500  0.71352500  0.83294400  1
  O  O3  1  0.30239500  0.28647500  0.33294400  1
  O  O4  1  0.84601300  0.16495700  0.16800900  1
  O  O5  1  0.15398700  0.83504300  0.66800900  1
  O  O6  1  0.65398700  0.16495700  0.66800900  1
  O  O7  1  0.34601300  0.83504300  0.16800900  1
  O  O8  1  0.54330900  0.22213800  0.04764700  1
  O  O9  1  0.45669100  0.77786200  0.54764700  1
  O  O10  1  0.95669100  0.22213800  0.54764700  1
  O  O11  1  0.04330900  0.77786200  0.04764700  1
  O  O12  1  0.65785400  0.41995700  0.40908000  1
  O  O13  1  0.34214600  0.58004300  0.90908000  1
  O  O14  1  0.84214600  0.41995700  0.90908000  1
  O  O15  1  0.15785400  0.58004300  0.40908000  1
  O  O16  1  0.59364300  0.07388300  0.31939000  1
  O  O17  1  0.40635700  0.92611700  0.81939000  1
  O  O18  1  0.90635700  0.07388300  0.81939000  1
  O  O19  1  0.09364300  0.92611700  0.31939000  1
  O  O20  1  0.58814000  0.57997100  0.15015500  1
  O  O21  1  0.41186000  0.42002900  0.65015500  1
  O  O22  1  0.91186000  0.57997100  0.65015500  1
  O  O23  1  0.08814000  0.42002900  0.15015500  1
  O  O24  1  0.66826300  0.93341800  0.06169000  1
  O  O25  1  0.33173700  0.06658200  0.56169000  1
  O  O26  1  0.83173700  0.93341800  0.56169000  1
  O  O27  1  0.16826300  0.06658200  0.06169000  1
loop_
_geom_bond_atom_site_label_1
_geom_bond_atom_site_label_2
_geom_bond_distance
_geom_bond_site_symmetry_2
Na0 O7 2.327630 1_555
Na0 O24 2.410103 1_555
Na0 O16 2.518881 1_565
Na0 O0 2.664649 1_555
Na0 O20 2.758290 1_555
Na1 O6 2.327630 1_555
Na1 O25 2.410103 1_555
Na1 O17 2.518881 1_545
Na1 O1 2.664649 1_555
Na1 O21 2.758290 1_555
Na2 O5 2.327630 1_655
Na2 O26 2.410103 1_555
Na2 O18 2.518881 1_565
Na2 O2 2.664649 1_555
Na2 O22 2.758290 1_555
Na3 O4 2.327630 1_455
Na3 O27 2.410103 1_555
Na3 O19 2.518881 1_545
Na3 O3 2.664649 1_555
Na3 O23 2.758290 1_555
Na4 O22 2.275997 1_555
Na4 O10 2.477781 1_555
Na4 O15 2.646796 1_655
Na4 O12 2.657930 1_555
Na5 O23 2.275997 1_556
Na5 O11 2.477781 1_556
Na5 O14 2.646796 1_455
Na5 O13 2.657930 1_555
Na6 O20 2.275997 1_556
Na6 O8 2.477781 1_556
Na6 O13 2.646796 1_555
Na6 O14 2.657930 1_555
Na7 O21 2.275997 1_555
Na7 O9 2.477781 1_555
Na7 O12 2.646796 1_555
Na7 O15 2.657930 1_555
Na8 O27 2.420417 1_556
Na8 O1 2.427218 1_555
Na8 O23 2.565175 1_556
Na8 O14 2.567227 1_455
Na8 O4 2.593056 1_456
Na8 O18 2.635343 1_455
Na9 O26 2.420417 1_555
Na9 O0 2.427218 1_555
Na9 O22 2.565175 1_555
Na9 O15 2.567227 1_655
Na9 O5 2.593056 1_655
Na9 O19 2.635343 1_655
Na10 O25 2.420417 1_555
Na10 O3 2.427218 1_555
Na10 O21 2.565175 1_555
Na10 O12 2.567227 1_555
Na10 O6 2.593056 1_555
Na10 O16 2.635343 1_555
Na11 O24 2.420417 1_556
Na11 O2 2.427218 1_555
Na11 O20 2.565175 1_556
Na11 O13 2.567227 1_555
Na11 O7 2.593056 1_556
Na11 O17 2.635343 1_555
Na12 O8 2.327568 1_555
Na12 O3 2.341326 1_555
Na12 O12 2.382820 1_555
Na12 O20 2.641951 1_555
Na12 O16 2.922237 1_555
Na13 O9 2.327568 1_555
Na13 O2 2.341326 1_555
Na13 O13 2.382820 1_555
Na13 O21 2.641951 1_555
Na13 O17 2.922237 1_555
Na14 O10 2.327568 1_555
Na14 O1 2.341326 1_655
Na14 O14 2.382820 1_555
Na14 O22 2.641951 1_555
Na14 O18 2.922237 1_555
Na15 O11 2.327568 1_555
Na15 O0 2.341326 1_455
Na15 O15 2.382820 1_555
Na15 O23 2.641951 1_555
Na15 O19 2.922237 1_555
Na16 O26 2.389805 1_555
Na16 O0 2.481699 1_555
Na16 O9 2.500424 1_555
Na16 O22 2.605917 1_555
Na16 O2 2.890046 1_555
Na17 O27 2.389805 1_555
Na17 O1 2.481699 1_554
Na17 O8 2.500424 1_555
Na17 O23 2.605917 1_555
Na17 O3 2.890046 1_555
Na18 O24 2.389805 1_555
Na18 O2 2.481699 1_554
Na18 O11 2.500424 1_655
Na18 O20 2.605917 1_555
Na18 O0 2.890046 1_555
Na19 O25 2.389805 1_555
Na19 O3 2.481699 1_555
Na19 O10 2.500424 1_455
Na19 O21 2.605917 1_555
Na19 O1 2.890046 1_555
Na20 O17 2.318245 1_544
Na20 O27 2.421288 1_555
Na20 O7 2.424230 1_545
Na20 O8 2.440473 1_555
Na20 O24 2.626017 1_545
Na21 O16 2.318245 1_565
Na21 O26 2.421288 1_555
Na21 O6 2.424230 1_565
Na21 O9 2.440473 1_555
Na21 O25 2.626017 1_565
Na22 O19 2.318245 1_545
Na22 O25 2.421288 1_555
Na22 O5 2.424230 1_545
Na22 O10 2.440473 1_455
Na22 O26 2.626017 1_445
Na23 O18 2.318245 1_564
Na23 O24 2.421288 1_555
Na23 O4 2.424230 1_565
Na23 O11 2.440473 1_655
Na23 O27 2.626017 1_665
Na24 O12 2.347187 1_555
Na24 O16 2.376568 1_555
Na24 O10 2.396949 1_555
Na24 O4 2.438612 1_555
Na25 O13 2.347187 1_555
Na25 O17 2.376568 1_555
Na25 O11 2.396949 1_556
Na25 O5 2.438612 1_555
Na26 O14 2.347187 1_555
Na26 O18 2.376568 1_555
Na26 O8 2.396949 1_556
Na26 O6 2.438612 1_555
Na27 O15 2.347187 1_555
Na27 O19 2.376568 1_555
Na27 O9 2.396949 1_555
Na27 O7 2.438612 1_555
Na28 O0 2.327067 1_555
Na28 O19 2.366736 1_655
Na28 O26 2.458586 1_555
Na28 O16 2.777426 1_565
Na28 O4 2.778611 1_565
Na29 O1 2.327067 1_555
Na29 O18 2.366736 1_455
Na29 O27 2.458586 1_556
Na29 O17 2.777426 1_545
Na29 O5 2.778611 1_545
Na30 O2 2.327067 1_555
Na30 O17 2.366736 1_555
Na30 O24 2.458586 1_556
Na30 O18 2.777426 1_565
Na30 O6 2.778611 1_565
Na31 O3 2.327067 1_555
Na31 O16 2.366736 1_555
Na31 O25 2.458586 1_555
Na31 O19 2.777426 1_545
Na31 O7 2.778611 1_545
Na32 O4 2.305118 1_555
Na32 O14 2.339799 1_554
Na32 O23 2.378765 1_655
Na33 O5 2.305118 1_555
Na33 O15 2.339799 1_555
Na33 O22 2.378765 1_455
Na34 O6 2.305118 1_555
Na34 O12 2.339799 1_555
Na34 O21 2.378765 1_555
Na35 O7 2.305118 1_555
Na35 O13 2.339799 1_554
Na35 O20 2.378765 1_555
Fe0 O0 1.844396 1_555
Fe0 O20 1.870645 1_555
Fe0 O12 1.871174 1_555
Fe1 O1 1.844396 1_555
Fe1 O21 1.870645 1_555
Fe1 O13 1.871174 1_555
Fe2 O2 1.844396 1_555
Fe2 O22 1.870645 1_555
Fe2 O14 1.871174 1_555
Fe3 O3 1.844396 1_555
Fe3 O23 1.870645 1_555
Fe3 O15 1.871174 1_555
Fe4 O24 1.907797 1_545
Fe4 O4 1.908920 1_555
Fe4 O16 1.919357 1_555
Fe4 O8 1.947373 1_555
Fe5 O25 1.907797 1_565
Fe5 O5 1.908920 1_555
Fe5 O17 1.919357 1_555
Fe5 O9 1.947373 1_555
Fe6 O26 1.907797 1_545
Fe6 O6 1.908920 1_555
Fe6 O18 1.919357 1_555
Fe6 O10 1.947373 1_555
Fe7 O27 1.907797 1_565
Fe7 O7 1.908920 1_555
Fe7 O19 1.919357 1_555
Fe7 O11 1.947373 1_555
