# generated using pymatgen
data_KAl2P2H4O11
_symmetry_space_group_name_H-M   'P 1'
_cell_length_a   9.01917500
_cell_length_b   9.85650400
_cell_length_c   10.22726800
_cell_angle_alpha   90.00000000
_cell_angle_beta   89.99922593
_cell_angle_gamma   90.00000000
_symmetry_Int_Tables_number   1
_chemical_formula_structural   KAl2P2H4O11
_chemical_formula_sum   'K4 Al8 P8 H16 O44'
_cell_volume   909.17890946
_cell_formula_units_Z   4
loop_
 _symmetry_equiv_pos_site_id
 _symmetry_equiv_pos_as_xyz
  1  'x, y, z'
loop_
 _atom_site_type_symbol
 _atom_site_label
 _atom_site_symmetry_multiplicity
 _atom_site_fract_x
 _atom_site_fract_y
 _atom_site_fract_z
 _atom_site_occupancy
  K  K0  1  0.25618200  0.00025900  0.38659900  1
  K  K1  1  0.24382200  0.99974800  0.88660000  1
  K  K2  1  0.75617800  0.49974700  0.61339900  1
  K  K3  1  0.74381900  0.50025900  0.11339900  1
  Al  Al0  1  0.08015400  0.71168400  0.63739400  1
  Al  Al1  1  0.13197500  0.51279700  0.17166100  1
  Al  Al2  1  0.36802700  0.48720200  0.67166000  1
  Al  Al3  1  0.41984500  0.28831600  0.13739400  1
  Al  Al4  1  0.58015500  0.78831600  0.36260600  1
  Al  Al5  1  0.63197300  0.98720200  0.82834000  1
  Al  Al6  1  0.86802500  0.01279700  0.32833900  1
  Al  Al7  1  0.91984600  0.21168400  0.86260600  1
  P  P0  1  0.08254900  0.50924400  0.85864000  1
  P  P1  1  0.08284500  0.20089800  0.14547600  1
  P  P2  1  0.41715400  0.79910200  0.64548100  1
  P  P3  1  0.41745200  0.49075500  0.35863900  1
  P  P4  1  0.58254800  0.99075500  0.14136000  1
  P  P5  1  0.58284600  0.29910200  0.85452000  1
  P  P6  1  0.91715500  0.70089800  0.35452400  1
  P  P7  1  0.91745000  0.00924400  0.64136000  1
  H  H0  1  0.04891900  0.40042600  0.46452700  1
  H  H1  1  0.00521600  0.75920200  0.98411000  1
  H  H2  1  0.18754300  0.28590300  0.70793900  1
  H  H3  1  0.15919700  0.77272300  0.13515500  1
  H  H4  1  0.34080800  0.22727600  0.63515000  1
  H  H5  1  0.31245900  0.71409900  0.20794400  1
  H  H6  1  0.49478900  0.24079400  0.48410900  1
  H  H7  1  0.45108000  0.59957100  0.96452700  1
  H  H8  1  0.54892000  0.09957100  0.53547300  1
  H  H9  1  0.50521200  0.74079400  0.01589200  1
  H  H10  1  0.68754200  0.21409900  0.29205600  1
  H  H11  1  0.65919200  0.72727600  0.86485000  1
  H  H12  1  0.84080400  0.27272300  0.36484500  1
  H  H13  1  0.81245700  0.78590300  0.79206100  1
  H  H14  1  0.99478400  0.25920200  0.51589000  1
  H  H15  1  0.95108100  0.90042600  0.03547300  1
  O  O0  1  0.03442400  0.36430400  0.81974700  1
  O  O1  1  0.02504000  0.09351000  0.24174000  1
  O  O2  1  0.99661100  0.61958500  0.77707200  1
  O  O3  1  0.02727200  0.17004100  0.00553100  1
  O  O4  1  0.04700900  0.54182500  0.00294900  1
  O  O5  1  0.03502800  0.34404800  0.18642700  1
  O  O6  1  0.04019900  0.84641800  0.01788600  1
  O  O7  1  0.19261300  0.55626000  0.60833500  1
  O  O8  1  0.22444300  0.69395900  0.15460300  1
  O  O9  1  0.25501600  0.18045100  0.14342200  1
  O  O10  1  0.25187300  0.52347300  0.83003400  1
  O  O11  1  0.24813000  0.47652700  0.33003800  1
  O  O12  1  0.24498400  0.81954800  0.64343200  1
  O  O13  1  0.27555900  0.30604100  0.65460400  1
  O  O14  1  0.30739100  0.44374000  0.10833700  1
  O  O15  1  0.45980300  0.15358300  0.51789200  1
  O  O16  1  0.46497100  0.65595300  0.68643100  1
  O  O17  1  0.45299200  0.45817600  0.50294700  1
  O  O18  1  0.47272800  0.82995900  0.50553500  1
  O  O19  1  0.50338800  0.38041700  0.27707200  1
  O  O20  1  0.47495900  0.90648900  0.74174500  1
  O  O21  1  0.46557600  0.63569300  0.31974600  1
  O  O22  1  0.53442300  0.13569200  0.18025400  1
  O  O23  1  0.52504200  0.40648800  0.75825500  1
  O  O24  1  0.49661300  0.88041600  0.22292600  1
  O  O25  1  0.52727200  0.32996000  0.99446600  1
  O  O26  1  0.54700700  0.95817600  0.99705300  1
  O  O27  1  0.53502900  0.15595300  0.81356900  1
  O  O28  1  0.54019700  0.65358300  0.98210800  1
  O  O29  1  0.69260900  0.94374100  0.39166300  1
  O  O30  1  0.72444100  0.80604100  0.84539600  1
  O  O31  1  0.75501600  0.31954800  0.85656800  1
  O  O32  1  0.75187000  0.97652700  0.16996100  1
  O  O33  1  0.74812600  0.02347300  0.66996500  1
  O  O34  1  0.74498400  0.68045200  0.35657800  1
  O  O35  1  0.77555700  0.19395900  0.34539700  1
  O  O36  1  0.80738700  0.05626000  0.89166400  1
  O  O37  1  0.95980100  0.34641800  0.48211400  1
  O  O38  1  0.96497100  0.84404800  0.31357300  1
  O  O39  1  0.95299000  0.04182500  0.49705100  1
  O  O40  1  0.97272800  0.67004100  0.49447000  1
  O  O41  1  0.00338800  0.11958600  0.72292800  1
  O  O42  1  0.97496100  0.59351000  0.25826000  1
  O  O43  1  0.96557600  0.86430400  0.68025400  1
loop_
_geom_bond_atom_site_label_1
_geom_bond_atom_site_label_2
_geom_bond_distance
_geom_bond_site_symmetry_2
K0 O1 2.717678 1_555
K0 O15 2.731235 1_555
K0 O18 2.848106 1_545
K0 O24 2.983219 1_545
K0 O39 2.986893 1_455
K0 O9 3.056119 1_555
K0 O38 3.134792 1_445
K0 O12 3.175271 1_545
K1 O20 2.717617 1_555
K1 O6 2.731220 1_556
K1 O3 2.848046 1_566
K1 O41 2.983246 1_565
K1 O26 2.986875 1_555
K1 O12 3.056089 1_555
K1 O27 3.134728 1_565
K1 O9 3.175134 1_566
K2 O23 2.717616 1_555
K2 O37 2.731210 1_555
K2 O40 2.848043 1_555
K2 O2 2.983245 1_555
K2 O17 2.986878 1_555
K2 O31 3.056092 1_555
K2 O16 3.134735 1_555
K2 O34 3.175137 1_555
K3 O42 2.717689 1_555
K3 O28 2.731231 1_554
K3 O25 2.848094 1_554
K3 O19 2.983215 1_555
K3 O4 2.986869 1_655
K3 O34 3.056141 1_555
K3 O5 3.134781 1_655
K3 O31 3.175253 1_554
Al0 O40 1.801082 1_455
Al0 O12 1.828715 1_555
Al0 O2 1.852688 1_455
Al0 O7 1.861163 1_555
Al0 O43 1.876955 1_455
Al1 O14 1.840044 1_555
Al1 O42 1.850059 1_455
Al1 O5 1.885161 1_555
Al1 O4 1.909547 1_555
Al1 O11 1.961886 1_555
Al1 O8 1.978488 1_555
Al2 O7 1.840051 1_555
Al2 O23 1.850069 1_555
Al2 O16 1.885171 1_555
Al2 O17 1.909531 1_555
Al2 O10 1.961834 1_555
Al2 O13 1.978479 1_555
Al3 O25 1.801101 1_554
Al3 O9 1.828709 1_555
Al3 O19 1.852713 1_555
Al3 O14 1.861139 1_555
Al3 O22 1.876993 1_555
Al4 O18 1.801108 1_555
Al4 O34 1.828703 1_555
Al4 O24 1.852720 1_555
Al4 O29 1.861147 1_555
Al4 O21 1.876991 1_555
Al5 O36 1.840047 1_565
Al5 O20 1.850058 1_555
Al5 O27 1.885171 1_565
Al5 O26 1.909535 1_555
Al5 O33 1.961838 1_565
Al5 O30 1.978479 1_555
Al6 O29 1.840040 1_545
Al6 O1 1.850066 1_655
Al6 O38 1.885156 1_545
Al6 O39 1.909544 1_555
Al6 O32 1.961894 1_545
Al6 O35 1.978488 1_555
Al7 O3 1.801091 1_656
Al7 O31 1.828715 1_555
Al7 O41 1.852679 1_655
Al7 O36 1.861161 1_555
Al7 O0 1.876953 1_655
H0 O37 0.980699 1_455
H1 O6 0.978708 1_556
H2 O13 0.983410 1_555
H3 O8 0.994261 1_555
H4 O13 0.994294 1_555
H5 O8 0.983460 1_555
H6 O15 0.978696 1_555
H7 O28 0.980706 1_555
H8 O15 0.980706 1_555
H9 O28 0.978697 1_554
H10 O35 0.983452 1_555
H11 O30 0.994294 1_555
H12 O35 0.994267 1_555
H13 O30 0.983410 1_555
H14 O37 0.978708 1_555
H15 O6 0.980699 1_655
O0 P0 1.545162 1_555
O1 P1 1.536694 1_555
O2 P0 1.574650 1_655
O3 P1 1.546686 1_555
O4 P0 1.544054 1_554
O5 P1 1.533689 1_555
O9 P1 1.566005 1_555
O10 P0 1.561242 1_555
O11 P3 1.561221 1_555
O12 P2 1.565994 1_555
O16 P2 1.533680 1_555
O17 P3 1.544049 1_555
O18 P2 1.546686 1_555
O19 P3 1.574605 1_555
O20 P2 1.536697 1_555
O21 P3 1.545138 1_555
O22 P4 1.545134 1_545
O23 P5 1.536693 1_555
O24 P4 1.574601 1_555
O25 P5 1.546688 1_555
O26 P4 1.544041 1_556
O27 P5 1.533683 1_555
O31 P5 1.565994 1_555
O32 P4 1.561221 1_555
O33 P7 1.561240 1_555
O34 P6 1.566003 1_555
O38 P6 1.533686 1_555
O39 P7 1.544054 1_555
O40 P6 1.546695 1_555
O41 P7 1.574657 1_455
O42 P6 1.536698 1_555
O43 P7 1.545167 1_565
