# generated using pymatgen
data_La3Mo4O16F
_symmetry_space_group_name_H-M   'P 1'
_cell_length_a   7.33763272
_cell_length_b   7.52797483
_cell_length_c   14.86876820
_cell_angle_alpha   102.49656117
_cell_angle_beta   101.18792017
_cell_angle_gamma   100.25312077
_symmetry_Int_Tables_number   1
_chemical_formula_structural   La3Mo4O16F
_chemical_formula_sum   'La6 Mo8 O32 F2'
_cell_volume   765.58763311
_cell_formula_units_Z   2
loop_
 _symmetry_equiv_pos_site_id
 _symmetry_equiv_pos_as_xyz
  1  'x, y, z'
loop_
 _atom_site_type_symbol
 _atom_site_label
 _atom_site_symmetry_multiplicity
 _atom_site_fract_x
 _atom_site_fract_y
 _atom_site_fract_z
 _atom_site_occupancy
  La  La0  1  0.11026700  0.16154800  0.73901200  1
  La  La1  1  0.88973300  0.83845200  0.26098800  1
  La  La2  1  0.21929600  0.72293300  0.87806300  1
  La  La3  1  0.78070400  0.27706700  0.12193700  1
  La  La4  1  0.28043100  0.65398300  0.60544100  1
  La  La5  1  0.71956900  0.34601700  0.39455900  1
  Mo  Mo0  1  0.22762500  0.26241100  0.98895100  1
  Mo  Mo1  1  0.77237500  0.73758900  0.01104900  1
  Mo  Mo2  1  0.83864200  0.57328100  0.66944600  1
  Mo  Mo3  1  0.16135800  0.42671900  0.33055400  1
  Mo  Mo4  1  0.60155700  0.07584300  0.82792900  1
  Mo  Mo5  1  0.39844300  0.92415700  0.17207100  1
  Mo  Mo6  1  0.69140400  0.91196700  0.48585100  1
  Mo  Mo7  1  0.30859600  0.08803300  0.51414900  1
  O  O0  1  0.46294300  0.33867700  0.06131800  1
  O  O1  1  0.53705700  0.66132300  0.93868200  1
  O  O2  1  0.06627400  0.22841800  0.06205400  1
  O  O3  1  0.93372600  0.77158200  0.93794600  1
  O  O4  1  0.16530300  0.42180800  0.91912500  1
  O  O5  1  0.83469700  0.57819200  0.08087500  1
  O  O6  1  0.20852800  0.05838800  0.89160500  1
  O  O7  1  0.79147200  0.94161200  0.10839500  1
  O  O8  1  0.87464400  0.45381500  0.75910900  1
  O  O9  1  0.12535600  0.54618500  0.24089100  1
  O  O10  1  0.39812400  0.39014700  0.36055900  1
  O  O11  1  0.60187600  0.60985300  0.63944100  1
  O  O12  1  0.90865800  0.45471100  0.56694000  1
  O  O13  1  0.09134200  0.54528900  0.43306000  1
  O  O14  1  0.02963500  0.78592300  0.71545000  1
  O  O15  1  0.97036500  0.21407700  0.28455000  1
  O  O16  1  0.47812400  0.24623700  0.79866800  1
  O  O17  1  0.52187600  0.75376300  0.20133200  1
  O  O18  1  0.81290300  0.08126500  0.78473600  1
  O  O19  1  0.18709700  0.91873500  0.21526400  1
  O  O20  1  0.66445600  0.10938600  0.95410400  1
  O  O21  1  0.33554400  0.89061400  0.04589600  1
  O  O22  1  0.43202800  0.85009400  0.77558600  1
  O  O23  1  0.56797200  0.14990600  0.22441400  1
  O  O24  1  0.75794500  0.69528500  0.45645900  1
  O  O25  1  0.24205500  0.30471500  0.54354100  1
  O  O26  1  0.85790300  0.04071100  0.59396900  1
  O  O27  1  0.14209700  0.95928900  0.40603100  1
  O  O28  1  0.44939400  0.82846500  0.50258700  1
  O  O29  1  0.55060600  0.17153500  0.49741300  1
  O  O30  1  0.25707300  0.99243100  0.61408500  1
  O  O31  1  0.74292700  0.00756900  0.38591500  1
  F  F0  1  0.76820400  0.51526100  0.26805100  1
  F  F1  1  0.23179600  0.48473900  0.73194900  1
loop_
_geom_bond_atom_site_label_1
_geom_bond_atom_site_label_2
_geom_bond_distance
_geom_bond_site_symmetry_2
La0 O18 2.423299 1_455
La0 O26 2.430863 1_455
La0 O30 2.544172 1_545
La0 O6 2.568607 1_555
La0 O16 2.586986 1_555
La0 O14 2.713654 1_545
La0 O4 2.863852 1_555
La0 O8 3.031396 1_455
La1 O19 2.423299 1_655
La1 O27 2.430863 1_655
La1 O31 2.544172 1_565
La1 O7 2.568607 1_555
La1 O17 2.586986 1_555
La1 O15 2.713654 1_565
La1 O5 2.863852 1_555
La1 O9 3.031396 1_655
La2 O21 2.444549 1_556
La2 O4 2.457942 1_555
La2 O3 2.484697 1_455
La2 O1 2.492848 1_555
La2 O6 2.506205 1_565
La2 O22 2.587826 1_555
La2 O14 2.726344 1_555
La2 O8 2.918525 1_455
La3 O20 2.444549 1_554
La3 O5 2.457942 1_555
La3 O2 2.484697 1_655
La3 O0 2.492848 1_555
La3 O7 2.506205 1_545
La3 O23 2.587826 1_555
La3 O15 2.726344 1_555
La3 O9 2.918525 1_655
La4 O11 2.412064 1_555
La4 O25 2.535371 1_555
La4 O13 2.544065 1_555
La4 O22 2.554221 1_555
La4 O30 2.561174 1_555
La4 O28 2.574197 1_555
La4 O12 2.754130 1_455
La4 O14 2.857314 1_555
La5 O10 2.412064 1_555
La5 O24 2.535371 1_555
La5 O12 2.544065 1_555
La5 O23 2.554221 1_555
La5 O31 2.561174 1_555
La5 O29 2.574197 1_555
La5 O13 2.754130 1_655
La5 O15 2.857314 1_555
Mo0 O0 1.768502 1_556
Mo0 O2 1.777793 1_556
Mo0 O4 1.810283 1_555
Mo0 O6 1.831993 1_555
Mo1 O1 1.768502 1_554
Mo1 O3 1.777793 1_554
Mo1 O5 1.810283 1_555
Mo1 O7 1.831993 1_555
Mo2 O8 1.767127 1_555
Mo2 O11 1.793240 1_555
Mo2 O12 1.806106 1_555
Mo2 O14 1.830267 1_655
Mo3 O9 1.767127 1_555
Mo3 O10 1.793240 1_555
Mo3 O13 1.806106 1_555
Mo3 O15 1.830267 1_455
Mo4 O16 1.776838 1_555
Mo4 O18 1.787270 1_555
Mo4 O20 1.792735 1_555
Mo4 O22 1.827713 1_545
Mo5 O17 1.776838 1_555
Mo5 O19 1.787270 1_555
Mo5 O21 1.792735 1_555
Mo5 O23 1.827713 1_565
Mo6 O24 1.774245 1_555
Mo6 O26 1.777157 1_565
Mo6 O28 1.858023 1_555
Mo6 O31 1.858168 1_565
Mo6 O29 2.357394 1_565
Mo7 O25 1.774245 1_555
Mo7 O27 1.777157 1_545
Mo7 O29 1.858023 1_555
Mo7 O30 1.858168 1_545
Mo7 O28 2.357394 1_545
F0 La1 2.469847 1_555
F0 La3 2.528556 1_555
F0 La5 2.534676 1_555
F1 La0 2.469847 1_555
F1 La2 2.528556 1_555
F1 La4 2.534676 1_555
