# generated using pymatgen
data_CaAl2SiO6
_symmetry_space_group_name_H-M   'P 1'
_cell_length_a   5.33814600
_cell_length_b   8.73929410
_cell_length_c   9.69073631
_cell_angle_alpha   89.61032869
_cell_angle_beta   74.49137709
_cell_angle_gamma   89.35771716
_symmetry_Int_Tables_number   1
_chemical_formula_structural   CaAl2SiO6
_chemical_formula_sum   'Ca4 Al8 Si4 O24'
_cell_volume   435.59741260
_cell_formula_units_Z   4
loop_
 _symmetry_equiv_pos_site_id
 _symmetry_equiv_pos_as_xyz
  1  'x, y, z'
loop_
 _atom_site_type_symbol
 _atom_site_label
 _atom_site_symmetry_multiplicity
 _atom_site_fract_x
 _atom_site_fract_y
 _atom_site_fract_z
 _atom_site_occupancy
  Ca  Ca0  1  0.74407300  0.69098000  0.00024200  1
  Ca  Ca1  1  0.24572000  0.18832400  0.50225000  1
  Ca  Ca2  1  0.25308100  0.31229500  0.00017800  1
  Ca  Ca3  1  0.75527700  0.80880800  0.49844400  1
  Al  Al0  1  0.07631000  0.89946900  0.71586600  1
  Al  Al1  1  0.57448100  0.40207700  0.21313200  1
  Al  Al2  1  0.42812200  0.90519200  0.28472500  1
  Al  Al3  1  0.42492500  0.59595300  0.78550000  1
  Al  Al4  1  0.74653900  0.08930000  0.99934900  1
  Al  Al5  1  0.26654500  0.59425300  0.49533500  1
  Al  Al6  1  0.25049500  0.90672400  0.00104600  1
  Al  Al7  1  0.73893600  0.40897100  0.50314700  1
  Si  Si0  1  0.92286300  0.40120100  0.79037300  1
  Si  Si1  1  0.92332200  0.09847900  0.29138300  1
  Si  Si2  1  0.57424800  0.09420500  0.70836600  1
  Si  Si3  1  0.07521000  0.59624100  0.21130500  1
  O  O0  1  0.98121000  0.92271700  0.90534100  1
  O  O1  1  0.06140500  0.72784400  0.62813300  1
  O  O2  1  0.38262600  0.98445500  0.64413400  1
  O  O3  1  0.47304700  0.41416500  0.40208600  1
  O  O4  1  0.55752900  0.23332100  0.12294000  1
  O  O5  1  0.88161400  0.48822500  0.14675900  1
  O  O6  1  0.51647800  0.92235500  0.09667100  1
  O  O7  1  0.45604600  0.73198700  0.36677800  1
  O  O8  1  0.11816300  0.98869700  0.35671400  1
  O  O9  1  0.00321500  0.40988900  0.61178700  1
  O  O10  1  0.94858600  0.23420300  0.86264100  1
  O  O11  1  0.63160500  0.47414800  0.85704400  1
  O  O12  1  0.01663300  0.08668100  0.11319200  1
  O  O13  1  0.93720500  0.26522700  0.36501500  1
  O  O14  1  0.63267400  0.02708700  0.35395900  1
  O  O15  1  0.53043300  0.57807700  0.59830000  1
  O  O16  1  0.43807900  0.76752100  0.87160100  1
  O  O17  1  0.11726900  0.51150000  0.85222100  1
  O  O18  1  0.48393000  0.08695100  0.88578100  1
  O  O19  1  0.55180700  0.26093600  0.63567800  1
  O  O20  1  0.86671800  0.02180200  0.64643200  1
  O  O21  1  0.99269300  0.57835200  0.38914800  1
  O  O22  1  0.05383900  0.76623000  0.14376400  1
  O  O23  1  0.36704800  0.52516000  0.14324100  1
loop_
_geom_bond_atom_site_label_1
_geom_bond_atom_site_label_2
_geom_bond_distance
_geom_bond_site_symmetry_2
Ca0 O16 2.392228 1_554
Ca0 O6 2.408629 1_555
Ca0 O0 2.441167 1_554
Ca0 O5 2.487753 1_555
Ca0 O22 2.523473 1_655
Ca0 O11 2.526621 1_554
Ca0 O23 2.572470 1_555
Ca0 O17 2.630402 1_654
Ca1 O3 2.389136 1_555
Ca1 O9 2.405999 1_555
Ca1 O19 2.430749 1_555
Ca1 O13 2.463109 1_455
Ca1 O8 2.463741 1_545
Ca1 O2 2.464512 1_545
Ca1 O20 2.586498 1_455
Ca1 O14 2.586954 1_555
Ca2 O4 2.351694 1_555
Ca2 O18 2.422934 1_554
Ca2 O12 2.442825 1_555
Ca2 O10 2.465775 1_454
Ca2 O17 2.470997 1_554
Ca2 O23 2.502870 1_555
Ca2 O11 2.558554 1_554
Ca2 O5 2.601693 1_455
Ca3 O7 2.399135 1_555
Ca3 O1 2.410579 1_655
Ca3 O15 2.418592 1_555
Ca3 O21 2.457288 1_555
Ca3 O20 2.528401 1_565
Ca3 O14 2.540370 1_565
Ca3 O8 2.593556 1_655
Ca3 O2 2.601136 1_555
Al0 O1 1.742127 1_555
Al0 O2 1.766621 1_555
Al0 O0 1.781779 1_455
Al0 O20 1.792625 1_465
Al1 O4 1.734933 1_555
Al1 O5 1.767967 1_555
Al1 O3 1.768735 1_555
Al1 O23 1.790628 1_555
Al2 O7 1.728496 1_555
Al2 O6 1.761888 1_555
Al2 O8 1.766225 1_555
Al2 O14 1.790207 1_565
Al3 O16 1.732046 1_555
Al3 O15 1.757297 1_555
Al3 O17 1.764315 1_555
Al3 O11 1.789904 1_555
Al4 O4 1.839144 1_556
Al4 O10 1.940544 1_555
Al4 O0 1.971162 1_545
Al4 O6 1.982018 1_546
Al4 O18 2.000704 1_555
Al4 O12 2.036160 1_656
Al5 O7 1.832267 1_555
Al5 O1 1.859166 1_555
Al5 O15 1.935262 1_555
Al5 O3 1.989087 1_555
Al5 O21 2.006540 1_455
Al5 O9 2.241256 1_555
Al6 O16 1.837919 1_554
Al6 O6 1.898175 1_555
Al6 O0 1.911214 1_454
Al6 O22 1.936945 1_555
Al6 O12 2.113443 1_565
Al6 O18 2.134717 1_564
Al7 O19 1.908231 1_555
Al7 O15 1.925096 1_555
Al7 O3 1.927970 1_555
Al7 O13 1.930171 1_555
Al7 O9 1.973152 1_655
Al7 O21 2.114003 1_555
O2 Si2 1.650558 1_565
O5 Si3 1.651043 1_655
O8 Si1 1.650634 1_465
O9 Si0 1.669371 1_455
O10 Si0 1.634725 1_555
O11 Si0 1.639321 1_555
O12 Si1 1.667899 1_455
O13 Si1 1.638015 1_555
O14 Si1 1.636349 1_555
O17 Si0 1.651745 1_455
O18 Si2 1.657807 1_555
O19 Si2 1.631243 1_555
O20 Si2 1.637074 1_555
O21 Si3 1.667511 1_655
O22 Si3 1.634404 1_555
O23 Si3 1.637770 1_555
