# generated using pymatgen
data_Er2Al
_symmetry_space_group_name_H-M   'P 1'
_cell_length_a   5.02915183
_cell_length_b   6.48461914
_cell_length_c   9.31622417
_cell_angle_alpha   89.99995317
_cell_angle_beta   90.00003707
_cell_angle_gamma   89.99990674
_symmetry_Int_Tables_number   1
_chemical_formula_structural   Er2Al
_chemical_formula_sum   'Er8 Al4'
_cell_volume   303.82195301
_cell_formula_units_Z   4
loop_
 _symmetry_equiv_pos_site_id
 _symmetry_equiv_pos_as_xyz
  1  'x, y, z'
loop_
 _atom_site_type_symbol
 _atom_site_label
 _atom_site_symmetry_multiplicity
 _atom_site_fract_x
 _atom_site_fract_y
 _atom_site_fract_z
 _atom_site_occupancy
  Er  Er0  1  0.75000001  0.68860584  0.57203752  1
  Er  Er1  1  0.75000282  0.18859470  0.92799206  1
  Er  Er2  1  0.24999988  0.31139994  0.42790486  1
  Er  Er3  1  0.24999886  0.81141052  0.07206549  1
  Er  Er4  1  0.74999826  0.52803903  0.21009776  1
  Er  Er5  1  0.75000212  0.02802657  0.28984740  1
  Er  Er6  1  0.25000297  0.47195505  0.78992092  1
  Er  Er7  1  0.24999864  0.97196711  0.71013385  1
  Al  Al0  1  0.74999693  0.20961921  0.60406837  1
  Al  Al1  1  0.74999903  0.70962837  0.89594128  1
  Al  Al2  1  0.25000584  0.79038301  0.39590130  1
  Al  Al3  1  0.24999664  0.29037165  0.10409020  1
loop_
_geom_bond_atom_site_label_1
_geom_bond_atom_site_label_2
_geom_bond_distance
_geom_bond_site_symmetry_2
Er0 Er7 3.369661 1_655
Er0 Er7 3.369668 1_555
Er0 Er5 3.428675 1_565
Er0 Er6 3.523785 1_555
Er0 Er6 3.523801 1_655
Er0 Er4 3.529012 1_555
Er0 Er2 3.756223 1_655
Er0 Er2 3.756228 1_555
Er1 Er6 3.369567 1_555
Er1 Er6 3.369574 1_655
Er1 Er4 3.428173 1_556
Er1 Er7 3.523584 1_645
Er1 Er7 3.523615 1_545
Er1 Er5 3.528261 1_556
Er1 Er3 3.755918 1_646
Er1 Er3 3.755952 1_546
Er2 Er5 3.369563 1_455
Er2 Er5 3.369576 1_555
Er2 Er7 3.429003 1_545
Er2 Er4 3.523350 1_555
Er2 Er4 3.523357 1_455
Er2 Er6 3.529669 1_555
Er3 Er4 3.369467 1_555
Er3 Er4 3.369477 1_455
Er3 Er6 3.428497 1_554
Er3 Er5 3.523148 1_465
Er3 Er5 3.523173 1_565
Er3 Er7 3.528918 1_554
Er4 Er5 3.326267 1_565
Er4 Er5 3.326423 1_555
Er6 Er7 3.326347 1_545
Er6 Er7 3.326498 1_555
Al0 Er1 3.020824 1_555
Al0 Er2 3.074424 1_555
Al0 Er2 3.074452 1_655
Al0 Er7 3.110370 1_545
Al0 Er7 3.110379 1_645
Al0 Er0 3.120347 1_555
Al0 Er5 3.155320 1_555
Al0 Er0 3.391726 1_545
Al0 Er6 3.494959 1_555
Al0 Er6 3.495005 1_655
Al1 Er0 3.020638 1_555
Al1 Er3 3.074245 1_656
Al1 Er3 3.074246 1_556
Al1 Er6 3.110295 1_555
Al1 Er6 3.110324 1_655
Al1 Er1 3.120234 1_565
Al1 Er4 3.154753 1_556
Al1 Er1 3.391873 1_555
Al1 Er7 3.494780 1_555
Al1 Er7 3.494783 1_655
Al2 Er3 3.020007 1_555
Al2 Er0 3.074272 1_555
Al2 Er0 3.074323 1_455
Al2 Er5 3.110300 1_565
Al2 Er5 3.110325 1_465
Al2 Er2 3.120300 1_555
Al2 Er7 3.155400 1_555
Al2 Er2 3.391727 1_565
Al2 Er4 3.494753 1_555
Al2 Er4 3.494810 1_455
Al3 Er2 3.019810 1_555
Al3 Er1 3.074083 1_454
Al3 Er1 3.074134 1_554
Al3 Er4 3.110245 1_455
Al3 Er4 3.110261 1_555
Al3 Er3 3.120177 1_545
Al3 Er6 3.154849 1_554
Al3 Er3 3.391885 1_555
Al3 Er5 3.494553 1_455
Al3 Er5 3.494587 1_555
