# generated using pymatgen
data_MgBPO6
_symmetry_space_group_name_H-M   'P 1'
_cell_length_a   7.59308791
_cell_length_b   7.59308791
_cell_length_c   12.66706600
_cell_angle_alpha   90.00000000
_cell_angle_beta   90.00000000
_cell_angle_gamma   119.99999924
_symmetry_Int_Tables_number   1
_chemical_formula_structural   MgBPO6
_chemical_formula_sum   'Mg6 B6 P6 O36'
_cell_volume   632.47523446
_cell_formula_units_Z   6
loop_
 _symmetry_equiv_pos_site_id
 _symmetry_equiv_pos_as_xyz
  1  'x, y, z'
loop_
 _atom_site_type_symbol
 _atom_site_label
 _atom_site_symmetry_multiplicity
 _atom_site_fract_x
 _atom_site_fract_y
 _atom_site_fract_z
 _atom_site_occupancy
  Mg  Mg0  1  0.00000000  0.87513800  0.66666700  1
  Mg  Mg1  1  0.87513800  0.00000000  0.33333300  1
  Mg  Mg2  1  0.12486200  0.12486200  0.00000000  1
  Mg  Mg3  1  0.00000000  0.76363000  0.16666700  1
  Mg  Mg4  1  0.76363000  0.00000000  0.83333300  1
  Mg  Mg5  1  0.23637000  0.23637000  0.50000000  1
  B  B0  1  0.43496700  0.75167300  0.45568100  1
  B  B1  1  0.31670600  0.56503300  0.12234700  1
  B  B2  1  0.24832700  0.68329400  0.78901400  1
  B  B3  1  0.56503300  0.31670600  0.87765300  1
  B  B4  1  0.75167300  0.43496700  0.54431900  1
  B  B5  1  0.68329400  0.24832700  0.21098600  1
  P  P0  1  0.32245000  0.25401200  0.23862100  1
  P  P1  1  0.93156200  0.67755000  0.90528800  1
  P  P2  1  0.74598800  0.06843800  0.57195400  1
  P  P3  1  0.67755000  0.93156200  0.09471200  1
  P  P4  1  0.25401200  0.32245000  0.76137900  1
  P  P5  1  0.06843800  0.74598800  0.42804600  1
  O  O0  1  0.19404700  0.63968000  0.16978700  1
  O  O1  1  0.44563300  0.80595300  0.83645400  1
  O  O2  1  0.36032000  0.55436700  0.50312000  1
  O  O3  1  0.80595300  0.44563300  0.16354600  1
  O  O4  1  0.63968000  0.19404700  0.83021300  1
  O  O5  1  0.55436700  0.36032000  0.49688000  1
  O  O6  1  0.51719400  0.24775900  0.27158800  1
  O  O7  1  0.73056500  0.48280600  0.93825500  1
  O  O8  1  0.75224100  0.26943500  0.60492200  1
  O  O9  1  0.48280600  0.73056500  0.06174500  1
  O  O10  1  0.24775900  0.51719400  0.72841200  1
  O  O11  1  0.26943500  0.75224100  0.39507800  1
  O  O12  1  0.11070200  0.90602200  0.51443500  1
  O  O13  1  0.79532100  0.88929800  0.18110200  1
  O  O14  1  0.09397800  0.20467900  0.84776900  1
  O  O15  1  0.88929800  0.79532100  0.81889800  1
  O  O16  1  0.90602200  0.11070200  0.48556500  1
  O  O17  1  0.20467900  0.09397800  0.15223100  1
  O  O18  1  0.98163400  0.78893200  0.32853700  1
  O  O19  1  0.80729800  0.01836600  0.99520300  1
  O  O20  1  0.21106800  0.19270200  0.66187000  1
  O  O21  1  0.01836600  0.80729800  0.00479700  1
  O  O22  1  0.78893200  0.98163400  0.67146300  1
  O  O23  1  0.19270200  0.21106800  0.33813000  1
  O  O24  1  0.75482700  0.58755300  0.61098000  1
  O  O25  1  0.83272600  0.24517300  0.27764700  1
  O  O26  1  0.41244700  0.16727400  0.94431300  1
  O  O27  1  0.24517300  0.83272600  0.72235300  1
  O  O28  1  0.58755300  0.75482700  0.38902000  1
  O  O29  1  0.16727400  0.41244700  0.05568700  1
  O  O30  1  0.92609800  0.52569100  0.47014300  1
  O  O31  1  0.59959200  0.07390200  0.13681000  1
  O  O32  1  0.47430900  0.40040800  0.80347600  1
  O  O33  1  0.07390200  0.59959200  0.86319000  1
  O  O34  1  0.52569100  0.92609800  0.52985700  1
  O  O35  1  0.40040800  0.47430900  0.19652400  1
loop_
_geom_bond_atom_site_label_1
_geom_bond_atom_site_label_2
_geom_bond_distance
_geom_bond_site_symmetry_2
Mg0 O15 2.069504 1_455
Mg0 O12 2.069517 1_555
Mg0 O22 2.126512 1_455
Mg0 O20 2.126513 1_565
Mg0 O27 2.160187 1_555
Mg0 O24 2.160191 1_455
Mg1 O13 2.069504 1_545
Mg1 O16 2.069517 1_555
Mg1 O18 2.126512 1_545
Mg1 O23 2.126513 1_655
Mg1 O25 2.160187 1_555
Mg1 O28 2.160191 1_545
Mg2 O17 2.069502 1_555
Mg2 O14 2.069502 1_554
Mg2 O19 2.126513 1_454
Mg2 O21 2.126513 1_545
Mg2 O29 2.160191 1_555
Mg2 O26 2.160191 1_554
Mg3 O18 2.070595 1_455
Mg3 O21 2.070595 1_555
Mg3 O0 2.108324 1_555
Mg3 O3 2.108324 1_455
Mg3 O13 2.200521 1_455
Mg3 O17 2.200528 1_565
Mg4 O22 2.070595 1_545
Mg4 O19 2.070595 1_555
Mg4 O4 2.108324 1_555
Mg4 O1 2.108324 1_545
Mg4 O15 2.200521 1_545
Mg4 O14 2.200528 1_655
Mg5 O23 2.070595 1_555
Mg5 O20 2.070595 1_555
Mg5 O5 2.108324 1_555
Mg5 O2 2.108324 1_555
Mg5 O12 2.200528 1_545
Mg5 O16 2.200528 1_455
B0 O28 1.424145 1_555
B0 O2 1.441419 1_555
B0 O11 1.474632 1_555
B0 O34 1.482943 1_555
B1 O29 1.424137 1_555
B1 O0 1.441424 1_555
B1 O9 1.474626 1_555
B1 O35 1.482956 1_555
B2 O27 1.424145 1_555
B2 O1 1.441424 1_555
B2 O10 1.474626 1_555
B2 O33 1.482943 1_555
B3 O26 1.424137 1_555
B3 O4 1.441424 1_555
B3 O7 1.474626 1_555
B3 O32 1.482956 1_555
B4 O24 1.424145 1_555
B4 O5 1.441419 1_555
B4 O8 1.474632 1_555
B4 O30 1.482943 1_555
B5 O25 1.424145 1_555
B5 O3 1.441424 1_555
B5 O6 1.474626 1_555
B5 O31 1.482943 1_555
O6 P0 1.559944 1_555
O7 P1 1.559944 1_555
O8 P2 1.559948 1_555
O9 P3 1.559944 1_555
O10 P4 1.559944 1_555
O11 P5 1.559948 1_555
O12 P5 1.545025 1_555
O13 P3 1.545039 1_555
O14 P4 1.545036 1_555
O15 P1 1.545039 1_555
O16 P2 1.545025 1_555
O17 P0 1.545036 1_555
O18 P5 1.531177 1_655
O19 P3 1.531177 1_546
O20 P4 1.531177 1_555
O21 P1 1.531177 1_454
O22 P2 1.531177 1_565
O23 P0 1.531177 1_555
O30 P5 1.562891 1_655
O31 P3 1.562901 1_545
O32 P4 1.562890 1_555
O33 P1 1.562901 1_455
O34 P2 1.562891 1_565
O35 P0 1.562890 1_555
