# generated using pymatgen
data_LiCu2(RhO2)4
_symmetry_space_group_name_H-M   'P 1'
_cell_length_a   6.29566284
_cell_length_b   6.29523571
_cell_length_c   6.00231899
_cell_angle_alpha   90.05582111
_cell_angle_beta   118.44736166
_cell_angle_gamma   122.99689536
_symmetry_Int_Tables_number   1
_chemical_formula_structural   LiCu2(RhO2)4
_chemical_formula_sum   'Li1 Cu2 Rh4 O8'
_cell_volume   164.12564165
_cell_formula_units_Z   1
loop_
 _symmetry_equiv_pos_site_id
 _symmetry_equiv_pos_as_xyz
  1  'x, y, z'
loop_
 _atom_site_type_symbol
 _atom_site_label
 _atom_site_symmetry_multiplicity
 _atom_site_fract_x
 _atom_site_fract_y
 _atom_site_fract_z
 _atom_site_occupancy
  Li  Li0  1  0.24999800  0.87499700  0.12500200  1
  Cu  Cu0  1  0.95655000  0.02172400  0.97819800  1
  Cu  Cu1  1  0.54366600  0.72823600  0.27188700  1
  Rh  Rh0  1  0.74995300  0.37498300  0.12494900  1
  Rh  Rh1  1  0.74995800  0.37498000  0.62500100  1
  Rh  Rh2  1  0.24994900  0.37501900  0.62498200  1
  Rh  Rh3  1  0.25000800  0.87504600  0.62501400  1
  O  O0  1  0.23165900  0.61641200  0.38304400  1
  O  O1  1  0.76675800  0.15141200  0.38317400  1
  O  O2  1  0.71682700  0.14100500  0.85818600  1
  O  O3  1  0.78320600  0.60896900  0.39183200  1
  O  O4  1  0.23167400  0.61688000  0.84870200  1
  O  O5  1  0.26832900  0.13363000  0.86691000  1
  O  O6  1  0.26832000  0.13316700  0.40134500  1
  O  O7  1  0.73314400  0.59854000  0.86677600  1
loop_
_geom_bond_atom_site_label_1
_geom_bond_atom_site_label_2
_geom_bond_distance
_geom_bond_site_symmetry_2
Li0 O4 2.238831 1_554
Li0 O6 2.239257 1_565
Li0 O0 2.243378 1_555
Li0 O5 2.243805 1_564
Li0 O1 2.244823 1_565
Li0 O7 2.245232 1_454
Cu0 O2 1.886835 1_555
Cu0 O5 2.130551 1_655
Cu0 O7 2.131165 1_545
Cu0 O6 2.131411 1_656
Cu0 Li0 2.313446 1_646
Cu1 O3 1.885799 1_555
Cu1 O0 2.131326 1_555
Cu1 O1 2.131459 1_565
Cu1 O4 2.131922 1_554
Cu1 Li0 2.314781 1_555
O0 Rh3 2.098656 1_555
O0 Rh0 2.099081 1_455
O0 Rh2 2.113517 1_555
O1 Rh1 2.098412 1_555
O1 Rh0 2.098716 1_555
O1 Rh2 2.113654 1_655
O2 Rh3 2.028948 1_545
O2 Rh1 2.029672 1_555
O2 Rh0 2.029676 1_556
O3 Rh3 2.028903 1_655
O3 Rh1 2.029687 1_555
O3 Rh0 2.029708 1_555
O4 Rh3 2.098791 1_555
O4 Rh1 2.098956 1_455
O4 Rh2 2.113927 1_555
O5 Rh3 2.098249 1_545
O5 Rh0 2.098734 1_556
O5 Rh2 2.113526 1_555
O6 Rh3 2.098513 1_545
O6 Rh1 2.098637 1_555
O6 Rh2 2.114008 1_555
O7 Rh1 2.098219 1_555
O7 Rh0 2.098433 1_556
O7 Rh2 2.113737 1_555
