# generated using pymatgen
data_MnAl2P2(H5O4)4
_symmetry_space_group_name_H-M   'P 1'
_cell_length_a   7.08430107
_cell_length_b   10.39984937
_cell_length_c   10.66599959
_cell_angle_alpha   108.21246724
_cell_angle_beta   90.15989215
_cell_angle_gamma   109.86684417
_symmetry_Int_Tables_number   1
_chemical_formula_structural   MnAl2P2(H5O4)4
_chemical_formula_sum   'Mn2 Al4 P4 H40 O32'
_cell_volume   696.78720775
_cell_formula_units_Z   2
loop_
 _symmetry_equiv_pos_site_id
 _symmetry_equiv_pos_as_xyz
  1  'x, y, z'
loop_
 _atom_site_type_symbol
 _atom_site_label
 _atom_site_symmetry_multiplicity
 _atom_site_fract_x
 _atom_site_fract_y
 _atom_site_fract_z
 _atom_site_occupancy
  Mn  Mn0  1  0.62811400  0.77813000  0.51069700  1
  Mn  Mn1  1  0.37188600  0.22187000  0.48930300  1
  Al  Al0  1  0.74012700  0.75027800  0.00205000  1
  Al  Al1  1  0.25987300  0.24972200  0.99795000  1
  Al  Al2  1  0.00000000  0.50000000  0.00000000  1
  Al  Al3  1  0.50000000  0.00000000  0.00000000  1
  P  P0  1  0.43418400  0.59065400  0.18106000  1
  P  P1  1  0.56581600  0.40934600  0.81894000  1
  P  P2  1  0.86330400  0.95424700  0.82574400  1
  P  P3  1  0.13669600  0.04575300  0.17425600  1
  H  H0  1  0.28218600  0.81524300  0.48457000  1
  H  H1  1  0.71781400  0.18475700  0.51543000  1
  H  H2  1  0.78688300  0.04616300  0.15536900  1
  H  H3  1  0.21311700  0.95383700  0.84463100  1
  H  H4  1  0.02065000  0.32341600  0.28511300  1
  H  H5  1  0.97935000  0.67658400  0.71488700  1
  H  H6  1  0.87794500  0.61400600  0.38418300  1
  H  H7  1  0.12205500  0.38599400  0.61581700  1
  H  H8  1  0.83245700  0.37535200  0.15773400  1
  H  H9  1  0.16754300  0.62464800  0.84226600  1
  H  H10  1  0.40136800  0.54951500  0.60276200  1
  H  H11  1  0.59863200  0.45048500  0.39723800  1
  H  H12  1  0.15119500  0.89122200  0.35038300  1
  H  H13  1  0.84880500  0.10877800  0.64961700  1
  H  H14  1  0.42669200  0.78446400  0.05627600  1
  H  H15  1  0.57330800  0.21553600  0.94372400  1
  H  H16  1  0.90440300  0.97056800  0.37099000  1
  H  H17  1  0.09559700  0.02943200  0.62901000  1
  H  H18  1  0.07686600  0.76055900  0.05661500  1
  H  H19  1  0.92313400  0.23944200  0.94338500  1
  H  H20  1  0.57294600  0.66536000  0.71875900  1
  H  H21  1  0.42705400  0.33464000  0.28124100  1
  H  H22  1  0.35021900  0.87555100  0.75228300  1
  H  H23  1  0.64978100  0.12444900  0.24771700  1
  H  H24  1  0.68492600  0.45178900  0.13131800  1
  H  H25  1  0.31507400  0.54821100  0.86868200  1
  H  H26  1  0.14968100  0.61531400  0.38220300  1
  H  H27  1  0.85031900  0.38468600  0.61779700  1
  H  H28  1  0.10553300  0.36093200  0.46221900  1
  H  H29  1  0.89446700  0.63906800  0.53778100  1
  H  H30  1  0.10755400  0.81174900  0.34161700  1
  H  H31  1  0.89244600  0.18825100  0.65838300  1
  H  H32  1  0.10709800  0.64201200  0.33507600  1
  H  H33  1  0.89290200  0.35798800  0.66492400  1
  H  H34  1  0.00260700  0.39009300  0.32884000  1
  H  H35  1  0.99739300  0.60990700  0.67116000  1
  H  H36  1  0.35836800  0.96979500  0.58930900  1
  H  H37  1  0.64163200  0.03020500  0.41069100  1
  H  H38  1  0.71574600  0.83311200  0.28488200  1
  H  H39  1  0.28425400  0.16688800  0.71511800  1
  O  O0  1  0.84747000  0.92048600  0.67263700  1
  O  O1  1  0.15253000  0.07951400  0.32736300  1
  O  O2  1  0.38361500  0.87584100  0.56201300  1
  O  O3  1  0.61638500  0.12415900  0.43798700  1
  O  O4  1  0.48481800  0.65337200  0.64105400  1
  O  O5  1  0.51518200  0.34662800  0.35894600  1
  O  O6  1  0.91389700  0.94105000  0.12013300  1
  O  O7  1  0.08610300  0.05895000  0.87986700  1
  O  O8  1  0.95447100  0.67508200  0.01564400  1
  O  O9  1  0.04552900  0.32491800  0.98435600  1
  O  O10  1  0.63071100  0.70052300  0.15362600  1
  O  O11  1  0.36928900  0.29947700  0.84637400  1
  O  O12  1  0.83271100  0.46610100  0.14833600  1
  O  O13  1  0.16728900  0.53389900  0.85166400  1
  O  O14  1  0.28278000  0.96934000  0.10869900  1
  O  O15  1  0.71722000  0.03066000  0.89130100  1
  O  O16  1  0.52483800  0.82626300  0.00249000  1
  O  O17  1  0.47516200  0.17373700  0.99751000  1
  O  O18  1  0.17847800  0.19073100  0.14758900  1
  O  O19  1  0.82152200  0.80926900  0.85241100  1
  O  O20  1  0.24454100  0.60459900  0.12117000  1
  O  O21  1  0.75545900  0.39540100  0.87883000  1
  O  O22  1  0.76334700  0.91117200  0.37719900  1
  O  O23  1  0.23665300  0.08882800  0.62280100  1
  O  O24  1  0.44776600  0.62732300  0.33252800  1
  O  O25  1  0.55223400  0.37267700  0.66747200  1
  O  O26  1  0.69970100  0.10742500  0.16037100  1
  O  O27  1  0.30029900  0.89257500  0.83962900  1
  O  O28  1  0.43769800  0.43452000  0.11572600  1
  O  O29  1  0.56230200  0.56548000  0.88427400  1
  O  O30  1  0.19792000  0.37709300  0.53901600  1
  O  O31  1  0.80208000  0.62290700  0.46098400  1
loop_
_geom_bond_atom_site_label_1
_geom_bond_atom_site_label_2
_geom_bond_distance
_geom_bond_site_symmetry_2
Mn0 O0 2.100711 1_555
Mn0 O24 2.113046 1_555
Mn0 O4 2.210753 1_555
Mn0 O2 2.277349 1_555
Mn0 O22 2.279878 1_555
Mn0 O31 2.286217 1_555
Mn1 O1 2.100711 1_555
Mn1 O25 2.113046 1_555
Mn1 O5 2.210753 1_555
Mn1 O3 2.277349 1_555
Mn1 O23 2.279878 1_555
Mn1 O30 2.286217 1_555
Al0 O19 1.906046 1_554
Al0 O29 1.922274 1_554
Al0 O10 1.933814 1_555
Al0 O16 1.941012 1_555
Al0 O6 1.951246 1_555
Al0 O8 1.953232 1_555
Al1 O18 1.906046 1_556
Al1 O28 1.922274 1_556
Al1 O11 1.933814 1_555
Al1 O17 1.941012 1_555
Al1 O7 1.951246 1_555
Al1 O9 1.953232 1_555
Al2 O8 1.912285 1_455
Al2 O9 1.912285 1_554
Al2 O20 1.919035 1_555
Al2 O21 1.919035 1_454
Al2 O12 2.026614 1_455
Al2 O13 2.026614 1_554
Al3 O17 1.882124 1_554
Al3 O16 1.882124 1_545
Al3 O15 1.929105 1_554
Al3 O14 1.929105 1_545
Al3 O27 1.973123 1_544
Al3 O26 1.973123 1_555
H0 O2 0.979431 1_555
H1 O3 0.979431 1_555
H2 O26 1.018139 1_555
H2 O6 1.599849 1_545
H3 O27 1.018139 1_555
H3 O7 1.599849 1_565
H6 O31 0.978426 1_555
H7 O30 0.978426 1_555
H8 O12 0.979156 1_555
H9 O13 0.979156 1_555
H10 O4 0.985814 1_555
H11 O5 0.985814 1_555
H12 H30 0.751864 1_555
H13 H31 0.751864 1_555
H14 O16 0.976829 1_555
H15 O17 0.976829 1_555
H16 O22 0.995450 1_555
H17 O23 0.995450 1_555
H18 O8 0.981939 1_455
H19 O9 0.981934 1_655
H20 O4 0.985828 1_555
H21 O5 0.985828 1_555
H22 O27 0.982672 1_555
H23 O26 0.982672 1_555
H24 O12 1.013583 1_555
H24 O28 1.700988 1_555
H25 O13 1.013583 1_555
H25 O29 1.700988 1_555
H26 H32 0.751055 1_555
H27 H33 0.751055 1_555
H28 O30 0.981710 1_555
H29 O31 0.981710 1_555
H34 H4 0.757049 1_555
H35 H5 0.757049 1_555
H36 O2 1.006351 1_555
H37 O3 1.006351 1_555
H38 O22 1.026994 1_555
H38 O10 1.564687 1_555
H39 O23 1.026994 1_555
H39 O11 1.564687 1_555
O0 P2 1.554503 1_555
O1 P3 1.554503 1_555
O6 P3 1.563349 1_665
O7 P2 1.563349 1_445
O10 P0 1.568316 1_555
O11 P1 1.568316 1_555
O14 P3 1.551498 1_565
O15 P2 1.551498 1_545
O18 P3 1.551461 1_555
O19 P2 1.551461 1_555
O20 P0 1.555502 1_555
O21 P1 1.555502 1_555
O24 P0 1.534208 1_555
O25 P1 1.534208 1_555
O28 P0 1.563050 1_555
O29 P1 1.563050 1_555
