# generated using pymatgen
data_Pm2MgSe4
_symmetry_space_group_name_H-M   'P 1'
_cell_length_a   13.40231600
_cell_length_b   4.10934400
_cell_length_c   14.52664900
_cell_angle_alpha   90.00000000
_cell_angle_beta   90.00000000
_cell_angle_gamma   90.00000000
_symmetry_Int_Tables_number   1
_chemical_formula_structural   Pm2MgSe4
_chemical_formula_sum   'Pm8 Mg4 Se16'
_cell_volume   800.05122559
_cell_formula_units_Z   4
loop_
 _symmetry_equiv_pos_site_id
 _symmetry_equiv_pos_as_xyz
  1  'x, y, z'
loop_
 _atom_site_type_symbol
 _atom_site_label
 _atom_site_symmetry_multiplicity
 _atom_site_fract_x
 _atom_site_fract_y
 _atom_site_fract_z
 _atom_site_occupancy
  Pm  Pm0  1  0.11815400  0.25000000  0.07347900  1
  Pm  Pm1  1  0.88184600  0.75000000  0.92652100  1
  Pm  Pm2  1  0.38184600  0.75000000  0.57347900  1
  Pm  Pm3  1  0.61815400  0.25000000  0.42652100  1
  Pm  Pm4  1  0.13772300  0.25000000  0.70434500  1
  Pm  Pm5  1  0.86227700  0.75000000  0.29565500  1
  Pm  Pm6  1  0.36227700  0.75000000  0.20434500  1
  Pm  Pm7  1  0.63772300  0.25000000  0.79565500  1
  Mg  Mg0  1  0.10774000  0.75000000  0.46022600  1
  Mg  Mg1  1  0.89226000  0.25000000  0.53977400  1
  Mg  Mg2  1  0.39226000  0.25000000  0.96022600  1
  Mg  Mg3  1  0.60774000  0.75000000  0.03977400  1
  Se  Se0  1  0.00179200  0.75000000  0.61569200  1
  Se  Se1  1  0.99820800  0.25000000  0.38430800  1
  Se  Se2  1  0.49820800  0.25000000  0.11569200  1
  Se  Se3  1  0.50179200  0.75000000  0.88430800  1
  Se  Se4  1  0.02807800  0.25000000  0.88284700  1
  Se  Se5  1  0.97192200  0.75000000  0.11715300  1
  Se  Se6  1  0.47192200  0.75000000  0.38284700  1
  Se  Se7  1  0.52807800  0.25000000  0.61715300  1
  Se  Se8  1  0.22434300  0.25000000  0.24688200  1
  Se  Se9  1  0.77565700  0.75000000  0.75311800  1
  Se  Se10  1  0.27565700  0.75000000  0.74688200  1
  Se  Se11  1  0.72434300  0.25000000  0.25311800  1
  Se  Se12  1  0.26508300  0.75000000  0.01438600  1
  Se  Se13  1  0.73491700  0.25000000  0.98561400  1
  Se  Se14  1  0.23491700  0.25000000  0.51438600  1
  Se  Se15  1  0.76508300  0.75000000  0.48561400  1
loop_
_geom_bond_atom_site_label_1
_geom_bond_atom_site_label_2
_geom_bond_distance
_geom_bond_site_symmetry_2
Pm0 Se8 2.893202 1_555
Pm0 Se5 2.909500 1_445
Pm0 Se5 2.909500 1_455
Pm0 Se12 2.972587 1_555
Pm0 Se12 2.972587 1_545
Pm0 Se4 3.020945 1_554
Pm1 Se9 2.893202 1_555
Pm1 Se4 2.909500 1_655
Pm1 Se4 2.909500 1_665
Pm1 Se13 2.972587 1_565
Pm1 Se13 2.972587 1_555
Pm1 Se5 3.020945 1_556
Pm2 Se10 2.893202 1_555
Pm2 Se7 2.909500 1_565
Pm2 Se7 2.909500 1_555
Pm2 Se14 2.972587 1_555
Pm2 Se14 2.972587 1_565
Pm2 Se6 3.020945 1_555
Pm3 Se11 2.893202 1_555
Pm3 Se6 2.909500 1_555
Pm3 Se6 2.909500 1_545
Pm3 Se15 2.972587 1_545
Pm3 Se15 2.972587 1_555
Pm3 Se7 3.020945 1_555
Pm4 Se10 2.832129 1_545
Pm4 Se10 2.832129 1_555
Pm4 Se4 2.980479 1_555
Pm4 Se0 3.033003 1_545
Pm4 Se0 3.033003 1_555
Pm4 Se14 3.051474 1_555
Pm5 Se11 2.832129 1_565
Pm5 Se11 2.832129 1_555
Pm5 Se5 2.980479 1_555
Pm5 Se1 3.033003 1_565
Pm5 Se1 3.033003 1_555
Pm5 Se15 3.051474 1_555
Pm6 Se8 2.832129 1_555
Pm6 Se8 2.832129 1_565
Pm6 Se6 2.980479 1_555
Pm6 Se2 3.033003 1_555
Pm6 Se2 3.033003 1_565
Pm6 Se12 3.051474 1_555
Pm7 Se9 2.832129 1_555
Pm7 Se9 2.832129 1_545
Pm7 Se7 2.980479 1_555
Pm7 Se3 3.033003 1_555
Pm7 Se3 3.033003 1_545
Pm7 Se13 3.051474 1_555
Mg0 Se0 2.667700 1_555
Mg0 Se1 2.755520 1_455
Mg0 Se1 2.755520 1_465
Mg0 Se14 2.783142 1_555
Mg0 Se14 2.783142 1_565
Mg1 Se1 2.667700 1_555
Mg1 Se0 2.755520 1_655
Mg1 Se0 2.755520 1_645
Mg1 Se15 2.783142 1_545
Mg1 Se15 2.783142 1_555
Mg2 Se2 2.667700 1_556
Mg2 Se3 2.755520 1_545
Mg2 Se3 2.755520 1_555
Mg2 Se12 2.783142 1_546
Mg2 Se12 2.783142 1_556
Mg3 Se3 2.667700 1_554
Mg3 Se2 2.755520 1_555
Mg3 Se2 2.755520 1_565
Mg3 Se13 2.783142 1_564
Mg3 Se13 2.783142 1_554
