# generated using pymatgen
data_Ni(H2Cl)2
_symmetry_space_group_name_H-M   'P 1'
_cell_length_a   4.89798100
_cell_length_b   4.89798100
_cell_length_c   9.98584900
_cell_angle_alpha   90.00000000
_cell_angle_beta   90.00000000
_cell_angle_gamma   90.00000000
_symmetry_Int_Tables_number   1
_chemical_formula_structural   Ni(H2Cl)2
_chemical_formula_sum   'Ni3 H12 Cl6'
_cell_volume   239.56269319
_cell_formula_units_Z   3
loop_
 _symmetry_equiv_pos_site_id
 _symmetry_equiv_pos_as_xyz
  1  'x, y, z'
loop_
 _atom_site_type_symbol
 _atom_site_label
 _atom_site_symmetry_multiplicity
 _atom_site_fract_x
 _atom_site_fract_y
 _atom_site_fract_z
 _atom_site_occupancy
  Ni  Ni0  1  0.00000000  0.00000000  0.30258200  1
  Ni  Ni1  1  0.00000000  0.00000000  0.69741800  1
  Ni  Ni2  1  0.50000000  0.50000000  0.00000000  1
  H  H0  1  0.00000000  0.00000000  0.46352400  1
  H  H1  1  0.00000000  0.00000000  0.53647600  1
  H  H2  1  0.00000000  0.00000000  0.15843000  1
  H  H3  1  0.00000000  0.00000000  0.84157000  1
  H  H4  1  0.27417000  0.00000000  0.23281500  1
  H  H5  1  0.72583000  0.00000000  0.76718500  1
  H  H6  1  0.72583000  0.00000000  0.23281500  1
  H  H7  1  0.00000000  0.27417000  0.23281500  1
  H  H8  1  0.27417000  0.00000000  0.76718500  1
  H  H9  1  0.00000000  0.72583000  0.76718500  1
  H  H10  1  0.00000000  0.72583000  0.23281500  1
  H  H11  1  0.00000000  0.27417000  0.76718500  1
  Cl  Cl0  1  0.00000000  0.50000000  0.50000000  1
  Cl  Cl1  1  0.50000000  0.00000000  0.50000000  1
  Cl  Cl2  1  0.50000000  0.50000000  0.21832600  1
  Cl  Cl3  1  0.50000000  0.50000000  0.78167400  1
  Cl  Cl4  1  0.00000000  0.50000000  0.00000000  1
  Cl  Cl5  1  0.50000000  0.00000000  0.00000000  1
loop_
_geom_bond_atom_site_label_1
_geom_bond_atom_site_label_2
_geom_bond_distance
_geom_bond_site_symmetry_2
H0 H1 0.728488 1_555
H0 Ni0 1.607143 1_555
H1 Ni1 1.607143 1_555
H2 Ni0 1.439480 1_555
H3 Ni1 1.439480 1_555
H4 Ni0 1.512842 1_555
H5 Ni1 1.512842 1_655
H6 Ni0 1.512842 1_655
H7 Ni0 1.512842 1_555
H8 Ni1 1.512842 1_555
H9 Ni1 1.512842 1_565
H10 Ni0 1.512842 1_565
H11 Ni1 1.512842 1_555
Cl2 Ni2 2.180170 1_555
Cl3 Ni2 2.180170 1_556
Cl4 Ni2 2.448990 1_455
Cl4 Ni2 2.448990 1_555
Cl5 Ni2 2.448990 1_555
Cl5 Ni2 2.448990 1_545
