# generated using pymatgen
data_Li2CoO3
_symmetry_space_group_name_H-M   'P 1'
_cell_length_a   4.99710608
_cell_length_b   8.50223997
_cell_length_c   5.16235157
_cell_angle_alpha   105.05486226
_cell_angle_beta   79.33723303
_cell_angle_gamma   93.28856473
_symmetry_Int_Tables_number   1
_chemical_formula_structural   Li2CoO3
_chemical_formula_sum   'Li8 Co4 O12'
_cell_volume   208.13562145
_cell_formula_units_Z   4
loop_
 _symmetry_equiv_pos_site_id
 _symmetry_equiv_pos_as_xyz
  1  'x, y, z'
loop_
 _atom_site_type_symbol
 _atom_site_label
 _atom_site_symmetry_multiplicity
 _atom_site_fract_x
 _atom_site_fract_y
 _atom_site_fract_z
 _atom_site_occupancy
  Li  Li0  1  0.74534400  0.42047300  0.92222400  1
  Li  Li1  1  0.24591800  0.91657300  0.41438700  1
  Li  Li2  1  0.49699600  0.16615300  0.16008200  1
  Li  Li3  1  0.99567200  0.66732500  0.67341200  1
  Li  Li4  1  0.74771100  0.08663500  0.59182400  1
  Li  Li5  1  0.24797300  0.58204400  0.06835400  1
  Li  Li6  1  0.25646700  0.24931900  0.75579000  1
  Li  Li7  1  0.75381700  0.74872800  0.24889200  1
  Co  Co0  1  0.49509700  0.49877200  0.50585900  1
  Co  Co1  1  0.50662200  0.83373400  0.83292900  1
  Co  Co2  1  0.99241100  0.99595800  0.97660200  1
  Co  Co3  1  0.01080500  0.33320500  0.34415000  1
  O  O0  1  0.63884400  0.31106000  0.54203200  1
  O  O1  1  0.13818800  0.81621300  0.03784500  1
  O  O2  1  0.36382900  0.02300800  0.78631700  1
  O  O3  1  0.86038200  0.51707000  0.29891000  1
  O  O4  1  0.15112600  0.45821700  0.69063700  1
  O  O5  1  0.63411300  0.94525200  0.14946400  1
  O  O6  1  0.10892500  0.14280100  0.37257600  1
  O  O7  1  0.61472000  0.63744300  0.87554600  1
  O  O8  1  0.88983200  0.19008600  0.96093900  1
  O  O9  1  0.40008800  0.70435900  0.49834000  1
  O  O10  1  0.35259600  0.38214300  0.15626700  1
  O  O11  1  0.85251900  0.87342800  0.63662300  1
loop_
_geom_bond_atom_site_label_1
_geom_bond_atom_site_label_2
_geom_bond_distance
_geom_bond_site_symmetry_2
Li0 O7 2.077125 1_555
Li0 O3 2.077556 1_556
Li0 O0 2.093320 1_555
Li0 O10 2.161358 1_556
Li0 O8 2.194815 1_555
Li0 O4 2.207157 1_655
Li1 O1 2.066233 1_555
Li1 O2 2.075445 1_565
Li1 O11 2.148638 1_455
Li1 O6 2.153202 1_565
Li1 O9 2.173958 1_555
Li1 O5 2.197747 1_555
Li2 O10 2.017302 1_555
Li2 O5 2.019954 1_545
Li2 O8 2.065879 1_554
Li2 O6 2.070058 1_555
Li2 O2 2.193022 1_554
Li2 O0 2.250160 1_555
Li3 O11 1.996361 1_555
Li3 O4 2.009572 1_655
Li3 O7 2.030878 1_555
Li3 O9 2.097374 1_655
Li3 O1 2.191858 1_656
Li3 O3 2.219980 1_555
Li4 O11 1.996329 1_545
Li4 O6 2.047699 1_655
Li4 O0 2.104416 1_555
Li4 O2 2.104989 1_555
Li4 O8 2.113622 1_555
Li4 O5 2.440803 1_545
Li5 O10 1.989577 1_555
Li5 O7 2.010157 1_554
Li5 O4 2.090231 1_554
Li5 O1 2.147065 1_555
Li5 O3 2.199736 1_455
Li5 O9 2.433321 1_555
Li6 O4 2.006956 1_555
Li6 O8 2.045739 1_455
Li6 O2 2.079007 1_555
Li6 O0 2.133049 1_555
Li6 O6 2.193127 1_555
Li6 O10 2.207406 1_556
Li7 O5 2.021628 1_555
Li7 O9 2.063633 1_555
Li7 O7 2.136818 1_554
Li7 O11 2.139317 1_555
Li7 O1 2.151600 1_655
Li7 O3 2.159869 1_555
Co0 O9 1.849194 1_555
Co0 O0 1.853097 1_555
Co0 O4 1.865314 1_555
Co0 O3 1.956946 1_555
Co0 O10 2.052379 1_555
Co0 O7 2.135886 1_555
Co1 O7 1.861078 1_555
Co1 O5 1.867114 1_556
Co1 O2 1.884992 1_565
Co1 O11 1.895012 1_555
Co1 O9 1.939819 1_555
Co1 O1 1.964834 1_556
Co2 O8 1.781925 1_565
Co2 O1 1.852044 1_656
Co2 O5 1.925604 1_556
Co2 O2 1.963756 1_665
Co2 O11 2.018652 1_555
Co2 O6 2.259989 1_666
Co3 O6 1.767415 1_555
Co3 O3 1.858171 1_455
Co3 O10 1.883109 1_555
Co3 O0 1.972556 1_455
Co3 O4 2.052266 1_555
Co3 O8 2.206196 1_454
