# generated using pymatgen
data_Sm2MgMo2(I4O15)2
_symmetry_space_group_name_H-M   'P 1'
_cell_length_a   7.14074033
_cell_length_b   7.16844531
_cell_length_c   14.54837793
_cell_angle_alpha   90.22078422
_cell_angle_beta   90.66984046
_cell_angle_gamma   113.77863517
_symmetry_Int_Tables_number   1
_chemical_formula_structural   Sm2MgMo2(I4O15)2
_chemical_formula_sum   'Sm2 Mg1 Mo2 I8 O30'
_cell_volume   681.40829375
_cell_formula_units_Z   1
loop_
 _symmetry_equiv_pos_site_id
 _symmetry_equiv_pos_as_xyz
  1  'x, y, z'
loop_
 _atom_site_type_symbol
 _atom_site_label
 _atom_site_symmetry_multiplicity
 _atom_site_fract_x
 _atom_site_fract_y
 _atom_site_fract_z
 _atom_site_occupancy
  Sm  Sm0  1  0.09802376  0.44130294  0.43044765  1
  Sm  Sm1  1  0.91055495  0.57568493  0.95403076  1
  Mg  Mg0  1  0.06809334  0.10033074  0.63920220  1
  Mo  Mo0  1  0.58741132  0.77738806  0.27164234  1
  Mo  Mo1  1  0.42309244  0.21870559  0.77610940  1
  I  I0  1  0.50233393  0.74854902  0.03566970  1
  I  I1  1  0.51015361  0.26231616  0.52776915  1
  I  I2  1  0.75098782  0.29126913  0.19265352  1
  I  I3  1  0.23431113  0.68476580  0.69500009  1
  I  I4  1  0.16313893  0.95420581  0.31219079  1
  I  I5  1  0.83700542  0.05523995  0.82484724  1
  I  I6  1  0.74491001  0.85580053  0.51633096  1
  I  I7  1  0.23373148  0.13774954  0.05105770  1
  O  O0  1  0.39191579  0.69299993  0.15207985  1
  O  O1  1  0.60556542  0.29575326  0.64922686  1
  O  O2  1  0.26444367  0.62711191  0.97001005  1
  O  O3  1  0.74647659  0.40048465  0.46821879  1
  O  O4  1  0.59078212  0.53897199  0.02786588  1
  O  O5  1  0.40668832  0.46218934  0.52794892  1
  O  O6  1  0.75318461  0.03120910  0.18111703  1
  O  O7  1  0.24261643  0.95316196  0.67728804  1
  O  O8  1  0.91302897  0.40576974  0.09492997  1
  O  O9  1  0.07590284  0.55971256  0.59654505  1
  O  O10  1  0.93872922  0.38005304  0.28626797  1
  O  O11  1  0.05380108  0.60589590  0.78811866  1
  O  O12  1  0.42995434  0.98713499  0.29014426  1
  O  O13  1  0.56841877  0.01492001  0.79283925  1
  O  O14  1  0.23862960  0.19180653  0.37660037  1
  O  O15  1  0.76583477  0.81488819  0.88245396  1
  O  O16  1  0.10817905  0.77552379  0.40962630  1
  O  O17  1  0.88759422  0.23216008  0.92028666  1
  O  O18  1  0.52087511  0.91355637  0.52267887  1
  O  O19  1  0.46621085  0.08827227  0.04386863  1
  O  O20  1  0.79733307  0.86310721  0.64482102  1
  O  O21  1  0.23376498  0.18367940  0.17372069  1
  O  O22  1  0.96091210  0.12086241  0.51699099  1
  O  O23  1  0.03595480  0.87636152  0.04060128  1
  O  O24  1  0.76877561  0.92525013  0.36430284  1
  O  O25  1  0.23751233  0.08571809  0.85985336  1
  O  O26  1  0.39186629  0.60158285  0.33919827  1
  O  O27  1  0.61460492  0.41114100  0.83901645  1
  O  O28  1  0.72736027  0.64231369  0.22948562  1
  O  O29  1  0.25489172  0.32621088  0.71718358  1
loop_
_geom_bond_atom_site_label_1
_geom_bond_atom_site_label_2
_geom_bond_distance
_geom_bond_site_symmetry_2
Mg0 O22 1.956952 1_455
Mg0 O29 1.974063 1_555
Mg0 O20 1.997507 1_445
Mg0 O7 2.005398 1_545
Mo0 O28 1.761376 1_555
Mo0 O26 1.768194 1_555
Mo0 O24 1.859884 1_555
Mo0 O0 2.143476 1_555
Mo0 O6 2.182745 1_565
Mo0 O12 2.228128 1_555
Mo1 O27 1.746542 1_555
Mo1 O25 1.782474 1_555
Mo1 O29 1.870518 1_555
Mo1 O13 2.118835 1_555
Mo1 O1 2.212255 1_555
Mo1 O7 2.304036 1_545
I0 O2 1.821834 1_554
I0 O0 1.852481 1_555
I0 O4 1.853199 1_555
I0 O19 2.552730 1_565
I1 O3 1.808940 1_555
I1 O5 1.858055 1_555
I1 O1 1.865708 1_555
I1 O18 2.532731 1_545
I2 O8 1.820834 1_555
I2 O10 1.822021 1_555
I2 O6 1.877495 1_555
I3 O9 1.808116 1_555
I3 O11 1.809818 1_555
I3 O7 1.919321 1_555
I4 O14 1.818003 1_565
I4 O16 1.850858 1_555
I4 O12 1.854941 1_555
I4 O21 2.529592 1_565
I5 O15 1.801165 1_545
I5 O17 1.808891 1_555
I5 O13 1.873449 1_555
I6 O18 1.810109 1_555
I6 O20 1.898502 1_555
I6 O22 1.904103 1_565
I6 O24 2.262226 1_555
I7 O21 1.813398 1_555
I7 O19 1.836071 1_555
I7 O23 1.840491 1_545
O2 Sm1 2.410431 1_455
O3 Sm0 2.475961 1_655
O4 Sm1 2.451946 1_554
O5 Sm0 2.559627 1_555
O8 Sm1 2.391978 1_554
O9 Sm0 2.585709 1_555
O10 Sm0 2.328273 1_655
O11 Sm1 2.608162 1_455
O14 Sm0 2.505231 1_555
O15 Sm1 2.551490 1_555
O16 Sm0 2.388114 1_555
O17 Sm1 2.448510 1_555
O22 Sm0 2.461265 1_655
O23 Sm1 2.330249 1_454
O26 Sm0 2.370211 1_555
O27 Sm1 2.559130 1_555
