# generated using pymatgen
data_TbMgSe3
_symmetry_space_group_name_H-M   'P 1'
_cell_length_a   8.47384037
_cell_length_b   11.95110400
_cell_length_c   7.57551661
_cell_angle_alpha   90.00000000
_cell_angle_beta   133.88083382
_cell_angle_gamma   90.00000000
_symmetry_Int_Tables_number   1
_chemical_formula_structural   TbMgSe3
_chemical_formula_sum   'Tb4 Mg4 Se12'
_cell_volume   552.97450379
_cell_formula_units_Z   4
loop_
 _symmetry_equiv_pos_site_id
 _symmetry_equiv_pos_as_xyz
  1  'x, y, z'
loop_
 _atom_site_type_symbol
 _atom_site_label
 _atom_site_symmetry_multiplicity
 _atom_site_fract_x
 _atom_site_fract_y
 _atom_site_fract_z
 _atom_site_occupancy
  Tb  Tb0  1  0.96340700  0.00000000  0.18940600  1
  Tb  Tb1  1  0.03659300  0.00000000  0.81059400  1
  Tb  Tb2  1  0.46340700  0.50000000  0.18940600  1
  Tb  Tb3  1  0.53659300  0.50000000  0.81059400  1
  Mg  Mg0  1  0.00000000  0.32786500  0.00000000  1
  Mg  Mg1  1  0.00000000  0.67213500  0.00000000  1
  Mg  Mg2  1  0.50000000  0.82786500  0.00000000  1
  Mg  Mg3  1  0.50000000  0.17213500  0.00000000  1
  Se  Se0  1  0.25829100  0.15441400  0.23429300  1
  Se  Se1  1  0.74170900  0.84558700  0.76570700  1
  Se  Se2  1  0.74170900  0.15441400  0.76570700  1
  Se  Se3  1  0.25829100  0.84558700  0.23429300  1
  Se  Se4  1  0.75829100  0.65441300  0.23429300  1
  Se  Se5  1  0.24170900  0.34558700  0.76570700  1
  Se  Se6  1  0.24170900  0.65441300  0.76570700  1
  Se  Se7  1  0.75829100  0.34558700  0.23429300  1
  Se  Se8  1  0.29367100  0.00000000  0.69812800  1
  Se  Se9  1  0.70632900  0.00000000  0.30187200  1
  Se  Se10  1  0.79367100  0.50000000  0.69812800  1
  Se  Se11  1  0.20632900  0.50000000  0.30187200  1
loop_
_geom_bond_atom_site_label_1
_geom_bond_atom_site_label_2
_geom_bond_distance
_geom_bond_site_symmetry_2
Mg0 Se0 2.617684 1_555
Mg0 Se2 2.617684 1_454
Mg0 Se11 2.641150 1_555
Mg0 Se10 2.641150 1_454
Mg1 Se3 2.617694 1_555
Mg1 Se1 2.617694 1_454
Mg1 Se11 2.641150 1_555
Mg1 Se10 2.641150 1_454
Mg2 Se4 2.617694 1_555
Mg2 Se6 2.617694 1_554
Mg2 Se9 2.641150 1_565
Mg2 Se8 2.641150 1_564
Mg3 Se7 2.617694 1_555
Mg3 Se5 2.617694 1_554
Mg3 Se9 2.641150 1_555
Mg3 Se8 2.641150 1_554
Se0 Tb0 2.930400 1_455
Se0 Tb1 2.979571 1_554
Se1 Tb1 2.930392 1_665
Se1 Tb0 2.979563 1_566
Se2 Tb1 2.930400 1_655
Se2 Tb0 2.979571 1_556
Se3 Tb0 2.930392 1_465
Se3 Tb1 2.979563 1_564
Se4 Tb2 2.930392 1_555
Se4 Tb3 2.979563 1_554
Se5 Tb3 2.930392 1_555
Se5 Tb2 2.979563 1_556
Se6 Tb3 2.930392 1_555
Se6 Tb2 2.979563 1_556
Se7 Tb2 2.930392 1_555
Se7 Tb3 2.979563 1_554
Se8 Tb0 2.780691 1_455
Se8 Tb1 2.836281 1_555
Se9 Tb1 2.780691 1_655
Se9 Tb0 2.836281 1_555
Se10 Tb2 2.780691 1_555
Se10 Tb3 2.836281 1_555
Se11 Tb3 2.780691 1_555
Se11 Tb2 2.836281 1_555
