# generated using pymatgen
data_Li2FeTeO6
_symmetry_space_group_name_H-M   'P 1'
_cell_length_a   5.38068598
_cell_length_b   7.56420038
_cell_length_c   10.18520722
_cell_angle_alpha   91.02318251
_cell_angle_beta   89.85973849
_cell_angle_gamma   85.97387583
_symmetry_Int_Tables_number   1
_chemical_formula_structural   Li2FeTeO6
_chemical_formula_sum   'Li8 Fe4 Te4 O24'
_cell_volume   413.45209325
_cell_formula_units_Z   4
loop_
 _symmetry_equiv_pos_site_id
 _symmetry_equiv_pos_as_xyz
  1  'x, y, z'
loop_
 _atom_site_type_symbol
 _atom_site_label
 _atom_site_symmetry_multiplicity
 _atom_site_fract_x
 _atom_site_fract_y
 _atom_site_fract_z
 _atom_site_occupancy
  Li  Li0  1  0.92663500  0.21636800  0.24883300  1
  Li  Li1  1  0.42539100  0.71615800  0.49839900  1
  Li  Li2  1  0.92669000  0.21603400  0.74871600  1
  Li  Li3  1  0.42535200  0.71611600  0.99841000  1
  Li  Li4  1  0.41297100  0.20567600  0.50171000  1
  Li  Li5  1  0.91445400  0.70604100  0.75139400  1
  Li  Li6  1  0.41313300  0.20568700  0.00171800  1
  Li  Li7  1  0.91425400  0.70572100  0.25118300  1
  Fe  Fe0  1  0.49503500  0.49538100  0.24937300  1
  Fe  Fe1  1  0.99483700  0.99569600  0.99868600  1
  Fe  Fe2  1  0.99492700  0.99583100  0.49861600  1
  Fe  Fe3  1  0.49521400  0.49529100  0.74935700  1
  Te  Te0  1  0.99811400  0.49819300  0.50019300  1
  Te  Te1  1  0.49781200  0.99864200  0.74986100  1
  Te  Te2  1  0.99804100  0.49810000  0.00010200  1
  Te  Te3  1  0.49776300  0.99861300  0.24987300  1
  O  O0  1  0.52007400  0.24323700  0.31182000  1
  O  O1  1  0.02023100  0.74309100  0.56162700  1
  O  O2  1  0.52009100  0.24327500  0.81190100  1
  O  O3  1  0.02022800  0.74307900  0.06150900  1
  O  O4  1  0.70001600  0.07880000  0.10138800  1
  O  O5  1  0.20074000  0.57716600  0.35121400  1
  O  O6  1  0.70011600  0.07894400  0.60141800  1
  O  O7  1  0.20096000  0.57718200  0.85112700  1
  O  O8  1  0.32283200  0.44564700  0.58745400  1
  O  O9  1  0.82249700  0.94571600  0.83716400  1
  O  O10  1  0.32280500  0.44573900  0.08746700  1
  O  O11  1  0.82237800  0.94551200  0.33720100  1
  O  O12  1  0.19969700  0.07365300  0.15389800  1
  O  O13  1  0.70006600  0.57428100  0.40392300  1
  O  O14  1  0.19988800  0.07368900  0.65384400  1
  O  O15  1  0.70020900  0.57443300  0.90381600  1
  O  O16  1  0.82985000  0.44867700  0.66232600  1
  O  O17  1  0.32977500  0.94858300  0.91181400  1
  O  O18  1  0.82979000  0.44883800  0.16226000  1
  O  O19  1  0.32969700  0.94854400  0.41178700  1
  O  O20  1  0.02303100  0.25885000  0.43489300  1
  O  O21  1  0.52332600  0.75918200  0.68441400  1
  O  O22  1  0.02313500  0.25883300  0.93483600  1
  O  O23  1  0.52314200  0.75910600  0.18446800  1
loop_
_geom_bond_atom_site_label_1
_geom_bond_atom_site_label_2
_geom_bond_distance
_geom_bond_site_symmetry_2
Li0 O20 1.992487 1_655
Li0 O12 1.998024 1_655
Li0 O18 2.017460 1_555
Li0 O4 2.226273 1_555
Li0 O0 2.272533 1_555
Li0 O11 2.355243 1_545
Li1 O21 1.995009 1_555
Li1 O13 1.998851 1_555
Li1 O19 2.015874 1_555
Li1 O5 2.223708 1_555
Li1 O1 2.266025 1_555
Li1 O8 2.352994 1_555
Li2 O22 1.993531 1_655
Li2 O14 1.996889 1_655
Li2 O16 2.017738 1_555
Li2 O6 2.223349 1_555
Li2 O2 2.273340 1_555
Li2 O9 2.351829 1_545
Li3 O23 1.995165 1_556
Li3 O15 1.999404 1_555
Li3 O17 2.016206 1_555
Li3 O7 2.223349 1_555
Li3 O3 2.265477 1_556
Li3 O10 2.352078 1_556
Li4 O8 2.027441 1_555
Li4 O6 2.042525 1_555
Li4 O0 2.047099 1_555
Li4 O19 2.209841 1_545
Li4 O14 2.218013 1_555
Li4 O20 2.219323 1_555
Li5 O9 2.027342 1_555
Li5 O1 2.043187 1_655
Li5 O7 2.047065 1_655
Li5 O16 2.209851 1_555
Li5 O15 2.222079 1_555
Li5 O21 2.225779 1_555
Li6 O10 2.028174 1_555
Li6 O4 2.041806 1_555
Li6 O2 2.046206 1_554
Li6 O17 2.209696 1_544
Li6 O12 2.219560 1_555
Li6 O22 2.219796 1_554
Li7 O11 2.029074 1_555
Li7 O3 2.042999 1_655
Li7 O5 2.047535 1_655
Li7 O18 2.205834 1_555
Li7 O13 2.223566 1_555
Li7 O23 2.225079 1_555
Fe0 O10 1.937366 1_555
Fe0 O5 1.948750 1_555
Fe0 O18 2.011845 1_555
Fe0 O0 2.016934 1_555
Fe0 O13 2.029416 1_555
Fe0 O23 2.127995 1_555
Fe1 O9 1.934886 1_555
Fe1 O4 1.958110 1_566
Fe1 O17 2.012100 1_655
Fe1 O3 2.021598 1_656
Fe1 O12 2.031850 1_666
Fe1 O22 2.120421 1_665
Fe2 O11 1.935069 1_555
Fe2 O6 1.958621 1_565
Fe2 O19 2.011252 1_655
Fe2 O1 2.023117 1_655
Fe2 O14 2.032048 1_665
Fe2 O20 2.119013 1_665
Fe3 O8 1.937748 1_555
Fe3 O7 1.948398 1_555
Fe3 O16 2.010972 1_555
Fe3 O2 2.016346 1_555
Fe3 O15 2.029174 1_555
Fe3 O21 2.129315 1_555
O0 Te3 1.956091 1_545
O1 Te0 1.956325 1_455
O2 Te1 1.956423 1_545
O3 Te2 1.956870 1_455
O4 Te3 1.989173 1_545
O5 Te0 1.990906 1_455
O6 Te1 1.989313 1_545
O7 Te2 1.992059 1_456
O8 Te0 1.980738 1_455
O9 Te1 1.981202 1_555
O10 Te2 1.981230 1_455
O11 Te3 1.981188 1_555
O12 Te3 1.936383 1_545
O13 Te0 1.939793 1_555
O14 Te1 1.935997 1_545
O15 Te2 1.939399 1_556
O16 Te0 1.936327 1_555
O17 Te1 1.935171 1_555
O18 Te2 1.936049 1_555
O19 Te3 1.934925 1_555
O20 Te0 1.913240 1_455
O21 Te1 1.914575 1_555
O22 Te2 1.912591 1_456
O23 Te3 1.914762 1_555
