# generated using pymatgen
data_Tb8Se15
_symmetry_space_group_name_H-M   'P 1'
_cell_length_a   11.63657982
_cell_length_b   11.63657982
_cell_length_c   12.18036519
_cell_angle_alpha   89.97109816
_cell_angle_beta   89.97109816
_cell_angle_gamma   91.70004350
_symmetry_Int_Tables_number   1
_chemical_formula_structural   Tb8Se15
_chemical_formula_sum   'Tb24 Se45'
_cell_volume   1648.61671558
_cell_formula_units_Z   3
loop_
 _symmetry_equiv_pos_site_id
 _symmetry_equiv_pos_as_xyz
  1  'x, y, z'
loop_
 _atom_site_type_symbol
 _atom_site_label
 _atom_site_symmetry_multiplicity
 _atom_site_fract_x
 _atom_site_fract_y
 _atom_site_fract_z
 _atom_site_occupancy
  Tb  Tb0  1  0.84177700  0.15822300  0.00000000  1
  Tb  Tb1  1  0.49533600  0.24700800  0.16840700  1
  Tb  Tb2  1  0.75299200  0.50466400  0.83159300  1
  Tb  Tb3  1  0.49476900  0.24555900  0.82953300  1
  Tb  Tb4  1  0.75444100  0.50523100  0.17046700  1
  Tb  Tb5  1  0.01329600  0.74294500  0.16563100  1
  Tb  Tb6  1  0.25705500  0.98670400  0.83436900  1
  Tb  Tb7  1  0.01333000  0.74291300  0.83410000  1
  Tb  Tb8  1  0.25708700  0.98667000  0.16590000  1
  Tb  Tb9  1  0.60932900  0.88472100  0.66939800  1
  Tb  Tb10  1  0.11527900  0.39067100  0.33060200  1
  Tb  Tb11  1  0.61121400  0.88539600  0.33187400  1
  Tb  Tb12  1  0.11460400  0.38878600  0.66812600  1
  Tb  Tb13  1  0.37172600  0.62827400  0.00000000  1
  Tb  Tb14  1  0.99511100  0.74919900  0.49951500  1
  Tb  Tb15  1  0.25080100  0.00488900  0.50048500  1
  Tb  Tb16  1  0.86004600  0.14018400  0.33241400  1
  Tb  Tb17  1  0.85981600  0.13995400  0.66758600  1
  Tb  Tb18  1  0.60711000  0.89404500  0.00005800  1
  Tb  Tb19  1  0.10595500  0.39289000  0.99994200  1
  Tb  Tb20  1  0.51445300  0.23595100  0.49856000  1
  Tb  Tb21  1  0.76404900  0.48554700  0.50144000  1
  Tb  Tb22  1  0.35302300  0.64879000  0.33427100  1
  Tb  Tb23  1  0.35121000  0.64697700  0.66572900  1
  Se  Se0  1  0.76460700  0.77611600  0.84168100  1
  Se  Se1  1  0.22388400  0.23539300  0.15831900  1
  Se  Se2  1  0.76423200  0.77605300  0.15824300  1
  Se  Se3  1  0.22394700  0.23576800  0.84175700  1
  Se  Se4  1  0.49676400  0.50747400  0.19023700  1
  Se  Se5  1  0.49252600  0.50323600  0.80976300  1
  Se  Se6  1  0.42955100  0.06816900  0.66626600  1
  Se  Se7  1  0.93183100  0.57044900  0.33373400  1
  Se  Se8  1  0.43001200  0.06825100  0.33306100  1
  Se  Se9  1  0.93174900  0.56998800  0.66693900  1
  Se  Se10  1  0.86935800  0.88326400  0.31422000  1
  Se  Se11  1  0.11673600  0.13064200  0.68578000  1
  Se  Se12  1  0.86855400  0.88274900  0.68482500  1
  Se  Se13  1  0.11725100  0.13144600  0.31517500  1
  Se  Se14  1  0.68857700  0.05766600  0.50008800  1
  Se  Se15  1  0.94233400  0.31142300  0.49991200  1
  Se  Se16  1  0.17535100  0.82489200  0.33392800  1
  Se  Se17  1  0.17510800  0.82464900  0.66607200  1
  Se  Se18  1  0.68149800  0.31959600  0.33517200  1
  Se  Se19  1  0.68040400  0.31850200  0.66482800  1
  Se  Se20  1  0.42447900  0.06914500  0.99988600  1
  Se  Se21  1  0.93085500  0.57552100  0.00011400  1
  Se  Se22  1  0.18247400  0.57032900  0.49928500  1
  Se  Se23  1  0.42967100  0.81752600  0.50071500  1
  Se  Se24  1  0.66783800  0.33216200  0.00000000  1
  Se  Se25  1  0.26351700  0.27254200  0.49703100  1
  Se  Se26  1  0.72745800  0.73648300  0.50296900  1
  Se  Se27  1  0.68235100  0.06859300  0.16469700  1
  Se  Se28  1  0.93140700  0.31764900  0.83530300  1
  Se  Se29  1  0.68236500  0.06828800  0.83525000  1
  Se  Se30  1  0.93171200  0.31763500  0.16475000  1
  Se  Se31  1  0.35816200  0.36811500  0.99921100  1
  Se  Se32  1  0.63188500  0.64183800  0.00078900  1
  Se  Se33  1  0.18861300  0.56181800  0.16662000  1
  Se  Se34  1  0.43818200  0.81138700  0.83338000  1
  Se  Se35  1  0.18775800  0.56105400  0.83267700  1
  Se  Se36  1  0.43894600  0.81224200  0.16732300  1
  Se  Se37  1  0.99345000  0.00655000  0.50000000  1
  Se  Se38  1  0.19489100  0.80510900  0.00000000  1
  Se  Se39  1  0.38341400  0.39246200  0.34473900  1
  Se  Se40  1  0.60753800  0.61658600  0.65526100  1
  Se  Se41  1  0.37758200  0.38798900  0.64746400  1
  Se  Se42  1  0.61201100  0.62241800  0.35253600  1
  Se  Se43  1  0.00721400  0.99419600  0.89871600  1
  Se  Se44  1  0.00580400  0.99278600  0.10128400  1
loop_
_geom_bond_atom_site_label_1
_geom_bond_atom_site_label_2
_geom_bond_distance
_geom_bond_site_symmetry_2
Se0 Se12 2.561107 1_555
Se0 Se32 2.904022 1_556
Se0 Tb7 2.932714 1_655
Se0 Tb18 3.018573 1_556
Se0 Tb9 3.066315 1_555
Se0 Tb2 3.160109 1_555
Se1 Se13 2.561107 1_555
Se1 Se31 2.904022 1_554
Se1 Tb8 2.932714 1_545
Se1 Tb19 3.018573 1_554
Se1 Tb10 3.066315 1_555
Se1 Tb1 3.160109 1_555
Se2 Se32 2.890062 1_555
Se2 Tb5 2.936474 1_655
Se2 Tb18 3.015014 1_555
Se2 Tb11 3.065225 1_555
Se2 Tb4 3.153560 1_555
Se3 Se31 2.890062 1_555
Se3 Tb6 2.936474 1_545
Se3 Tb19 3.015014 1_555
Se3 Tb12 3.065225 1_555
Se3 Tb3 3.153560 1_555
Se4 Se42 2.719272 1_555
Se4 Tb22 2.956850 1_555
Se4 Tb4 3.008898 1_555
Se4 Tb1 3.042263 1_555
Se4 Tb13 3.095762 1_555
Se5 Tb23 2.956850 1_555
Se5 Tb3 3.008898 1_555
Se5 Tb2 3.042263 1_555
Se5 Tb13 3.095762 1_556
Se6 Tb3 2.950318 1_555
Se6 Tb20 2.973244 1_555
Se6 Tb15 2.976762 1_555
Se6 Tb6 3.000207 1_545
Se6 Tb9 3.033129 1_545
Se7 Tb4 2.950318 1_555
Se7 Tb21 2.973244 1_555
Se7 Tb14 2.976762 1_555
Se7 Tb5 3.000207 1_655
Se7 Tb10 3.033129 1_655
Se8 Tb20 2.954570 1_555
Se8 Tb1 2.971090 1_555
Se8 Tb15 2.992355 1_555
Se8 Tb8 2.998126 1_545
Se8 Tb11 3.039746 1_545
Se9 Tb21 2.954570 1_555
Se9 Tb2 2.971090 1_555
Se9 Tb14 2.992355 1_555
Se9 Tb7 2.998126 1_655
Se9 Tb12 3.039746 1_655
Se10 Se2 2.564478 1_555
Se10 Tb5 2.984863 1_655
Se10 Tb16 3.003139 1_565
Se10 Tb11 3.012329 1_555
Se10 Se37 3.024490 1_565
Se10 Tb14 3.131171 1_555
Se11 Se3 2.564478 1_555
Se11 Tb6 2.984863 1_545
Se11 Tb17 3.003139 1_455
Se11 Tb12 3.012329 1_555
Se11 Se37 3.024490 1_455
Se11 Tb15 3.131171 1_555
Se12 Tb7 2.992445 1_655
Se12 Tb17 3.004970 1_565
Se12 Tb9 3.023200 1_555
Se12 Tb14 3.132828 1_555
Se13 Tb8 2.992445 1_545
Se13 Tb16 3.004970 1_455
Se13 Tb10 3.023200 1_555
Se13 Tb15 3.132828 1_555
Se14 Tb20 2.942679 1_555
Se14 Tb11 2.987631 1_545
Se14 Tb17 2.990439 1_555
Se14 Tb16 2.992433 1_555
Se14 Tb9 3.006194 1_545
Se15 Tb21 2.942679 1_555
Se15 Tb12 2.987631 1_655
Se15 Tb16 2.990439 1_555
Se15 Tb17 2.992433 1_555
Se15 Tb10 3.006194 1_655
Se16 Tb8 2.919806 1_555
Se16 Tb5 2.926906 1_555
Se16 Tb22 2.953855 1_555
Se16 Tb14 3.021104 1_455
Se16 Tb15 3.028313 1_565
Se17 Tb7 2.919806 1_555
Se17 Tb6 2.926906 1_555
Se17 Tb23 2.953855 1_555
Se17 Tb15 3.021104 1_565
Se17 Tb14 3.028313 1_455
Se18 Tb20 2.927176 1_555
Se18 Tb21 2.940957 1_555
Se18 Tb16 2.988972 1_555
Se18 Tb4 3.049028 1_555
Se18 Tb1 3.070814 1_555
Se19 Tb21 2.927176 1_555
Se19 Tb20 2.940957 1_555
Se19 Tb17 2.988972 1_555
Se19 Tb3 3.049028 1_555
Se19 Tb2 3.070814 1_555
Se20 Tb6 2.945415 1_545
Se20 Tb8 2.947432 1_546
Se20 Tb18 2.987488 1_546
Se20 Tb1 3.013583 1_556
Se20 Tb3 3.013812 1_555
Se21 Tb5 2.945415 1_655
Se21 Tb7 2.947432 1_654
Se21 Tb19 2.987488 1_654
Se21 Tb2 3.013583 1_554
Se21 Tb4 3.013812 1_555
Se22 Tb23 2.943292 1_555
Se22 Tb22 2.949356 1_555
Se22 Tb10 3.018684 1_555
Se22 Tb12 3.034951 1_555
Se22 Tb14 3.058626 1_455
Se23 Tb22 2.943292 1_555
Se23 Tb23 2.949356 1_555
Se23 Tb9 3.018684 1_555
Se23 Tb11 3.034951 1_555
Se23 Tb15 3.058626 1_565
Se24 Tb0 2.904596 1_555
Se24 Tb2 3.015744 1_554
Se24 Tb1 3.015744 1_555
Se24 Tb4 3.044445 1_555
Se24 Tb3 3.044445 1_554
Se25 Se41 2.612108 1_555
Se25 Se39 2.685897 1_555
Se25 Tb20 2.963458 1_555
Se25 Tb10 3.019263 1_555
Se25 Tb12 3.051854 1_555
Se25 Tb15 3.113952 1_555
Se26 Se42 2.612108 1_555
Se26 Se40 2.685897 1_555
Se26 Tb21 2.963458 1_555
Se26 Tb9 3.019263 1_555
Se26 Tb11 3.051854 1_555
Se26 Tb14 3.113952 1_555
Se27 Tb0 2.903986 1_555
Se27 Tb18 2.968832 1_545
Se27 Tb16 3.007769 1_555
Se27 Tb11 3.043910 1_545
Se27 Tb1 3.052276 1_555
Se28 Tb0 2.903986 1_556
Se28 Tb19 2.968832 1_655
Se28 Tb17 3.007769 1_555
Se28 Tb12 3.043910 1_655
Se28 Tb2 3.052276 1_555
Se29 Tb0 2.907558 1_556
Se29 Tb18 2.965891 1_546
Se29 Tb17 3.003638 1_555
Se29 Tb9 3.043768 1_545
Se29 Tb3 3.048391 1_555
Se30 Tb0 2.907558 1_555
Se30 Tb19 2.965891 1_654
Se30 Tb16 3.003638 1_555
Se30 Tb10 3.043768 1_655
Se30 Tb4 3.048391 1_555
Se31 Tb19 2.957462 1_555
Se31 Tb1 2.985810 1_556
Se31 Tb3 2.994393 1_555
Se31 Tb13 3.026813 1_556
Se32 Tb18 2.957462 1_555
Se32 Tb2 2.985810 1_554
Se32 Tb4 2.994393 1_555
Se32 Tb13 3.026813 1_555
Se33 Tb10 2.928725 1_555
Se33 Tb22 2.957294 1_555
Se33 Tb19 2.967294 1_554
Se33 Tb5 2.976514 1_555
Se33 Tb13 3.025474 1_555
Se34 Tb9 2.928725 1_555
Se34 Tb23 2.957294 1_555
Se34 Tb18 2.967294 1_556
Se34 Tb6 2.976514 1_555
Se34 Tb13 3.025474 1_556
Se35 Tb23 2.938311 1_555
Se35 Tb12 2.943606 1_555
Se35 Tb19 2.961366 1_555
Se35 Tb7 2.975467 1_555
Se35 Tb13 3.042207 1_556
Se36 Tb22 2.938311 1_555
Se36 Tb11 2.943606 1_555
Se36 Tb18 2.961366 1_555
Se36 Tb8 2.975467 1_555
Se36 Tb13 3.042207 1_555
Se37 Tb15 2.995330 1_655
Se37 Tb14 2.995330 1_545
Se37 Tb17 3.022906 1_555
Se37 Tb16 3.022906 1_555
Se38 Tb13 2.952956 1_555
Se38 Tb6 2.993705 1_554
Se38 Tb5 2.993705 1_555
Se38 Tb7 2.997648 1_554
Se38 Tb8 2.997648 1_555
Se39 Se4 2.638688 1_555
Se39 Tb22 3.016713 1_555
Se39 Tb1 3.050525 1_555
Se39 Tb20 3.052326 1_555
Se39 Tb10 3.124462 1_555
Se40 Se5 2.638688 1_555
Se40 Tb23 3.016713 1_555
Se40 Tb2 3.050525 1_555
Se40 Tb21 3.052326 1_555
Se40 Tb9 3.124462 1_555
Se41 Se5 2.719272 1_555
Se41 Tb20 3.020570 1_555
Se41 Tb23 3.046596 1_555
Se41 Tb12 3.070658 1_555
Se41 Tb3 3.107735 1_555
Se42 Tb21 3.020570 1_555
Se42 Tb22 3.046596 1_555
Se42 Tb11 3.070658 1_555
Se42 Tb4 3.107735 1_555
Se43 Tb6 3.014476 1_555
Se43 Tb0 3.014836 1_466
Se43 Tb7 3.031391 1_555
Se44 Tb5 3.014476 1_555
Se44 Tb0 3.014836 1_465
Se44 Tb8 3.031391 1_555
