# generated using pymatgen
data_Na3CaAl3Si3SO16
_symmetry_space_group_name_H-M   'P 1'
_cell_length_a   7.86144187
_cell_length_b   7.86684601
_cell_length_c   15.73392972
_cell_angle_alpha   109.13004839
_cell_angle_beta   109.23654802
_cell_angle_gamma   109.48541853
_symmetry_Int_Tables_number   1
_chemical_formula_structural   Na3CaAl3Si3SO16
_chemical_formula_sum   'Na6 Ca2 Al6 Si6 S2 O32'
_cell_volume   754.20437877
_cell_formula_units_Z   2
loop_
 _symmetry_equiv_pos_site_id
 _symmetry_equiv_pos_as_xyz
  1  'x, y, z'
loop_
 _atom_site_type_symbol
 _atom_site_label
 _atom_site_symmetry_multiplicity
 _atom_site_fract_x
 _atom_site_fract_y
 _atom_site_fract_z
 _atom_site_occupancy
  Na  Na0  1  0.01908000  0.01225500  0.83495200  1
  Na  Na1  1  0.00613000  0.01058800  0.24718400  1
  Na  Na2  1  0.42004000  0.41381900  0.20122200  1
  Na  Na3  1  0.99488100  0.62265600  0.50204500  1
  Na  Na4  1  0.61297400  0.00194000  0.00023800  1
  Na  Na5  1  0.00475300  0.61865900  0.99808700  1
  Ca  Ca0  1  0.34697200  0.34803200  0.69139800  1
  Ca  Ca1  1  0.62459300  0.99145500  0.50058400  1
  Al  Al0  1  0.23947300  0.49309600  0.87097100  1
  Al  Al1  1  0.49575600  0.23851600  0.87183900  1
  Al  Al2  1  0.49365300  0.74165800  0.63243400  1
  Al  Al3  1  0.26067500  0.75673400  0.25116000  1
  Al  Al4  1  0.74457800  0.49661400  0.63230700  1
  Al  Al5  1  0.75907100  0.26051000  0.25109700  1
  Si  Si0  1  0.23595100  0.75142600  0.75021700  1
  Si  Si1  1  0.26630600  0.51050200  0.38172700  1
  Si  Si2  1  0.75029300  0.23297400  0.74877200  1
  Si  Si3  1  0.51599600  0.26466300  0.38244100  1
  Si  Si4  1  0.50594800  0.75611900  0.11968300  1
  Si  Si5  1  0.75761100  0.50787900  0.12020800  1
  S  S0  1  0.99197800  0.99404400  0.48101900  1
  S  S1  1  0.99072300  0.99818200  0.01806900  1
  O  O0  1  0.98224400  0.39213800  0.84643900  1
  O  O1  1  0.99745400  0.70766900  0.71086100  1
  O  O2  1  0.27257300  0.58680300  0.78609600  1
  O  O3  1  0.81487100  0.81637900  0.46853200  1
  O  O4  1  0.99266200  0.18750300  0.54536700  1
  O  O5  1  0.28380500  0.71876300  0.65394000  1
  O  O6  1  0.29289700  0.29123400  0.83305100  1
  O  O7  1  0.02250000  0.40659000  0.34831100  1
  O  O8  1  0.00045400  0.69104600  0.18943900  1
  O  O9  1  0.41589700  0.01943700  0.35333000  1
  O  O10  1  0.40908200  0.69468000  0.50296600  1
  O  O11  1  0.39269700  0.98330200  0.84934300  1
  O  O12  1  0.19248700  0.00985500  0.54470900  1
  O  O13  1  0.32695600  0.62778900  0.31866500  1
  O  O14  1  0.81001300  0.80427800  0.98991000  1
  O  O15  1  0.10259500  0.13492200  0.13349300  1
  O  O16  1  0.91521200  0.10630800  0.96551400  1
  O  O17  1  0.33193800  0.70598700  0.15584300  1
  O  O18  1  0.58573200  0.26685300  0.78467400  1
  O  O19  1  0.32996400  0.32622400  0.36369200  1
  O  O20  1  0.56542100  0.56454200  0.65411300  1
  O  O21  1  0.71315600  0.27812900  0.65036100  1
  O  O22  1  0.39295300  0.69256500  0.99884800  1
  O  O23  1  0.13309300  0.94626400  0.98510500  1
  O  O24  1  0.69479600  0.39781400  0.50325000  1
  O  O25  1  0.70827300  0.99481700  0.70297700  1
  O  O26  1  0.96398400  0.97207100  0.38116800  1
  O  O27  1  0.61498100  0.31025100  0.31143300  1
  O  O28  1  0.61320900  0.61342800  0.13880700  1
  O  O29  1  0.70674200  0.33370900  0.15599500  1
  O  O30  1  0.68689600  0.99835200  0.18640900  1
  O  O31  1  0.69702600  0.39797600  0.99970300  1
loop_
_geom_bond_atom_site_label_1
_geom_bond_atom_site_label_2
_geom_bond_distance
_geom_bond_site_symmetry_2
Na0 O16 2.438508 1_455
Na0 O1 2.454707 1_445
Na0 O23 2.524526 1_545
Na0 O6 2.526843 1_555
Na0 O25 2.558754 1_445
Na1 O30 2.327902 1_445
Na1 O26 2.336149 1_445
Na1 O8 2.355442 1_545
Na1 O19 2.394030 1_555
Na1 O15 2.505483 1_555
Na2 O15 2.289034 1_555
Na2 O27 2.455049 1_555
Na2 O28 2.477670 1_555
Na2 O13 2.541167 1_555
Na2 O29 2.773824 1_555
Na2 O17 2.843252 1_555
Na3 O5 2.352755 1_655
Na3 O24 2.441724 1_555
Na3 O3 2.465151 1_555
Na3 O7 2.585467 1_655
Na3 O12 2.637816 1_665
Na3 O27 2.885192 1_555
Na4 O11 2.355905 1_544
Na4 O22 2.459153 1_544
Na4 O14 2.539872 1_544
Na4 O16 2.542842 1_554
Na4 O29 2.587470 1_555
Na4 O30 2.803959 1_545
Na4 O31 2.964931 1_554
Na5 O0 2.371614 1_455
Na5 O14 2.444863 1_455
Na5 O31 2.476816 1_455
Na5 O23 2.539259 1_555
Na5 O17 2.597194 1_556
Na5 O8 2.888949 1_556
Na5 O22 2.905059 1_555
Ca0 O20 2.358340 1_555
Ca0 O2 2.358645 1_555
Ca0 O18 2.384035 1_555
Ca0 O12 2.419199 1_555
Ca0 O4 2.483305 1_455
Ca0 O6 2.549125 1_555
Ca1 O21 2.347818 1_565
Ca1 O10 2.404768 1_555
Ca1 O3 2.409389 1_555
Ca1 O9 2.485681 1_565
Ca1 O4 2.492957 1_565
Ca1 O13 2.757954 1_555
Ca1 O25 3.021077 1_555
Ca1 O24 3.040640 1_565
Al0 O22 1.741910 1_555
Al0 O6 1.744485 1_555
Al0 O0 1.755653 1_455
Al0 O2 1.772207 1_555
Al1 O31 1.746067 1_555
Al1 O6 1.747433 1_555
Al1 O11 1.752925 1_545
Al1 O18 1.779131 1_555
Al2 O5 1.754429 1_555
Al2 O20 1.756479 1_555
Al2 O25 1.766485 1_555
Al2 O10 1.782801 1_555
Al3 O17 1.741491 1_555
Al3 O8 1.746944 1_555
Al3 O13 1.767115 1_555
Al3 O9 1.786554 1_565
Al4 O1 1.752221 1_555
Al4 O20 1.757075 1_555
Al4 O24 1.766209 1_555
Al4 O21 1.782956 1_555
Al5 O29 1.748429 1_555
Al5 O30 1.753335 1_545
Al5 O27 1.760196 1_555
Al5 O7 1.766890 1_655
O0 Si2 1.619728 1_555
O1 Si0 1.637677 1_655
O2 Si0 1.643039 1_555
O3 S0 1.507363 1_555
O4 S0 1.523919 1_545
O5 Si0 1.639239 1_555
O7 Si1 1.620894 1_555
O8 Si5 1.635005 1_455
O9 Si3 1.649624 1_555
O10 Si1 1.640317 1_555
O11 Si0 1.627185 1_555
O12 S0 1.500335 1_445
O13 Si1 1.637510 1_555
O14 S1 1.495985 1_556
O15 S1 1.504902 1_445
O16 S1 1.494693 1_546
O17 Si4 1.628053 1_555
O18 Si2 1.636042 1_555
O19 Si1 1.655447 1_555
O19 Si3 1.655980 1_555
O21 Si2 1.655523 1_555
O22 Si4 1.619104 1_556
O23 S1 1.495706 1_456
O24 Si3 1.624262 1_555
O25 Si2 1.638272 1_565
O26 S0 1.454410 1_555
O27 Si3 1.622246 1_555
O28 Si4 1.657499 1_555
O28 Si5 1.658999 1_555
O29 Si5 1.625677 1_555
O30 Si4 1.628900 1_555
O31 Si5 1.620200 1_556
