# generated using pymatgen
data_Li9Mn2Co5O16
_symmetry_space_group_name_H-M   'P 1'
_cell_length_a   5.10018080
_cell_length_b   5.10018080
_cell_length_c   20.73436410
_cell_angle_alpha   81.91104720
_cell_angle_beta   81.91104720
_cell_angle_gamma   32.83020316
_symmetry_Int_Tables_number   1
_chemical_formula_structural   Li9Mn2Co5O16
_chemical_formula_sum   'Li9 Mn2 Co5 O16'
_cell_volume   289.24028451
_cell_formula_units_Z   1
loop_
 _symmetry_equiv_pos_site_id
 _symmetry_equiv_pos_as_xyz
  1  'x, y, z'
loop_
 _atom_site_type_symbol
 _atom_site_label
 _atom_site_symmetry_multiplicity
 _atom_site_fract_x
 _atom_site_fract_y
 _atom_site_fract_z
 _atom_site_occupancy
  Li  Li0  1  0.24731000  0.24731000  0.06994600  1
  Li  Li1  1  0.75646600  0.75646600  0.18389100  1
  Li  Li2  1  0.25777800  0.25777800  0.31005000  1
  Li  Li3  1  0.75506200  0.75506200  0.43419100  1
  Li  Li4  1  0.25381400  0.25381400  0.55713000  1
  Li  Li5  1  0.74604900  0.74604900  0.68807600  1
  Li  Li6  1  0.24975100  0.24975100  0.81663400  1
  Li  Li7  1  0.74204200  0.74204200  0.94079800  1
  Li  Li8  1  0.49576700  0.49576700  0.12448000  1
  Mn  Mn0  1  0.99279700  0.99279700  0.00644300  1
  Mn  Mn1  1  0.50281000  0.50281000  0.62415800  1
  Co  Co0  1  0.01230400  0.01230400  0.23972100  1
  Co  Co1  1  0.49882400  0.49882400  0.37133900  1
  Co  Co2  1  0.00917400  0.00917400  0.49500300  1
  Co  Co3  1  0.99354200  0.99354200  0.75375500  1
  Co  Co4  1  0.49382400  0.49382400  0.87847400  1
  O  O0  1  0.38516800  0.38516800  0.97200700  1
  O  O1  1  0.88211400  0.88211400  0.08574800  1
  O  O2  1  0.39213900  0.39213900  0.22184700  1
  O  O3  1  0.88321900  0.88321900  0.34233500  1
  O  O4  1  0.39110300  0.39110300  0.46643000  1
  O  O5  1  0.88915800  0.88915800  0.59434000  1
  O  O6  1  0.38364700  0.38364700  0.72524400  1
  O  O7  1  0.87724100  0.87724100  0.84962700  1
  O  O8  1  0.12455200  0.12455200  0.16247200  1
  O  O9  1  0.60961800  0.60961800  0.27927800  1
  O  O10  1  0.11826700  0.11826700  0.40317200  1
  O  O11  1  0.62287800  0.62287800  0.52571800  1
  O  O12  1  0.11509900  0.11509900  0.65482700  1
  O  O13  1  0.60429700  0.60429700  0.78294000  1
  O  O14  1  0.10632400  0.10632400  0.91128100  1
  O  O15  1  0.60786200  0.60786200  0.02864500  1
loop_
_geom_bond_atom_site_label_1
_geom_bond_atom_site_label_2
_geom_bond_distance
_geom_bond_site_symmetry_2
Li0 O1 2.012759 1_545
Li0 O1 2.012759 1_455
Li0 O8 2.108839 1_555
Li0 O15 2.239448 1_545
Li0 O15 2.239448 1_455
Li0 O0 2.267074 1_554
Li1 O8 2.026985 1_655
Li1 O8 2.026985 1_565
Li1 O2 2.182985 1_565
Li1 O2 2.182985 1_655
Li1 O1 2.217756 1_555
Li1 O9 2.267699 1_555
Li2 O3 2.067107 1_545
Li2 O3 2.067107 1_455
Li2 O2 2.089882 1_555
Li2 O10 2.195043 1_555
Li2 O9 2.203936 1_545
Li2 O9 2.203936 1_455
Li3 O3 2.121124 1_555
Li3 O10 2.129564 1_565
Li3 O10 2.129564 1_655
Li3 O11 2.134050 1_555
Li3 O4 2.134716 1_655
Li3 O4 2.134716 1_565
Li4 O11 2.094674 1_545
Li4 O11 2.094674 1_455
Li4 O4 2.144769 1_555
Li4 O5 2.173943 1_455
Li4 O5 2.173943 1_545
Li4 O12 2.266928 1_555
Li5 O12 2.110312 1_655
Li5 O12 2.110312 1_565
Li5 O6 2.188203 1_655
Li5 O6 2.188203 1_565
Li5 O5 2.222548 1_555
Li5 O13 2.234329 1_555
Li6 O7 2.086080 1_455
Li6 O7 2.086080 1_545
Li6 O6 2.139807 1_555
Li6 O13 2.209659 1_545
Li6 O13 2.209659 1_455
Li6 O14 2.238900 1_555
Li7 O15 2.083219 1_556
Li7 O14 2.110387 1_655
Li7 O14 2.110387 1_565
Li7 O7 2.142389 1_555
Li7 O0 2.173269 1_655
Li7 O0 2.173269 1_565
Li8 O1 2.054482 1_545
Li8 O1 2.054482 1_455
Li8 O2 2.122094 1_555
Li8 O15 2.124160 1_555
Li8 O8 2.139374 1_565
Li8 O8 2.139374 1_655
Mn0 O1 1.831465 1_555
Mn0 O15 1.925833 1_565
Mn0 O15 1.925833 1_655
Mn0 O0 1.979074 1_564
Mn0 O0 1.979074 1_654
Mn0 O14 2.117571 1_664
Mn1 O12 1.973268 1_565
Mn1 O12 1.973268 1_655
Mn1 O5 1.974303 1_455
Mn1 O5 1.974303 1_545
Mn1 O11 2.200625 1_555
Mn1 O6 2.243998 1_555
Co0 O8 1.804338 1_555
Co0 O2 1.930001 1_455
Co0 O2 1.930001 1_545
Co0 O9 1.971234 1_455
Co0 O9 1.971234 1_545
Co0 O3 2.309484 1_445
Co1 O3 1.979398 1_455
Co1 O3 1.979398 1_545
Co1 O10 2.026108 1_565
Co1 O10 2.026108 1_655
Co1 O9 2.052253 1_555
Co1 O4 2.094912 1_555
Co2 O11 1.982047 1_455
Co2 O11 1.982047 1_545
Co2 O4 1.990916 1_455
Co2 O4 1.990916 1_545
Co2 O10 2.041706 1_555
Co2 O5 2.216240 1_445
Co3 O6 1.941513 1_655
Co3 O6 1.941513 1_565
Co3 O13 1.951989 1_565
Co3 O13 1.951989 1_655
Co3 O7 2.140754 1_555
Co3 O12 2.215027 1_665
Co4 O7 1.984049 1_545
Co4 O7 1.984049 1_455
Co4 O14 1.992830 1_655
Co4 O14 1.992830 1_565
Co4 O0 2.070379 1_555
Co4 O13 2.112809 1_555
