# generated using pymatgen
data_Ho2ReB6
_symmetry_space_group_name_H-M   'P 1'
_cell_length_a   3.66547355
_cell_length_b   9.13805392
_cell_length_c   11.50769734
_cell_angle_alpha   90.00000000
_cell_angle_beta   90.00000000
_cell_angle_gamma   90.00000000
_symmetry_Int_Tables_number   1
_chemical_formula_structural   Ho2ReB6
_chemical_formula_sum   'Ho8 Re4 B24'
_cell_volume   385.45371651
_cell_formula_units_Z   4
loop_
 _symmetry_equiv_pos_site_id
 _symmetry_equiv_pos_as_xyz
  1  'x, y, z'
loop_
 _atom_site_type_symbol
 _atom_site_label
 _atom_site_symmetry_multiplicity
 _atom_site_fract_x
 _atom_site_fract_y
 _atom_site_fract_z
 _atom_site_occupancy
  Ho  Ho0  1  -0.00000000  0.32376855  0.41402023  1
  Ho  Ho1  1  -0.00000000  0.67623145  0.58597977  1
  Ho  Ho2  1  0.00000000  0.82376855  0.08597977  1
  Ho  Ho3  1  0.00000000  0.17623145  0.91402023  1
  Ho  Ho4  1  0.00000000  0.94274252  0.36968897  1
  Ho  Ho5  1  -0.00000000  0.05725748  0.63031103  1
  Ho  Ho6  1  0.00000000  0.44274252  0.13031103  1
  Ho  Ho7  1  -0.00000000  0.55725748  0.86968897  1
  Re  Re0  1  -0.00000000  0.63845338  0.32074262  1
  Re  Re1  1  -0.00000000  0.36154662  0.67925738  1
  Re  Re2  1  0.00000000  0.13845338  0.17925738  1
  Re  Re3  1  -0.00000000  0.86154662  0.82074262  1
  B  B0  1  0.50000000  0.55322150  0.43296080  1
  B  B1  1  0.50000000  0.44677850  0.56703920  1
  B  B2  1  0.50000000  0.05322150  0.06703920  1
  B  B3  1  0.50000000  0.94677850  0.93296080  1
  B  B4  1  0.50000000  0.74911735  0.41860072  1
  B  B5  1  0.50000000  0.25088265  0.58139928  1
  B  B6  1  0.50000000  0.24911735  0.08139928  1
  B  B7  1  0.50000000  0.75088265  0.91860072  1
  B  B8  1  0.50000000  0.79183541  0.26504661  1
  B  B9  1  0.50000000  0.20816459  0.73495339  1
  B  B10  1  0.50000000  0.29183541  0.23495339  1
  B  B11  1  0.50000000  0.70816459  0.76504661  1
  B  B12  1  0.50000000  0.63073502  0.18554698  1
  B  B13  1  0.50000000  0.36926498  0.81445302  1
  B  B14  1  0.50000000  0.13073502  0.31445302  1
  B  B15  1  0.50000000  0.86926498  0.68554698  1
  B  B16  1  0.50000000  0.98220172  0.21178046  1
  B  B17  1  0.50000000  0.01779828  0.78821954  1
  B  B18  1  0.50000000  0.48220172  0.28821954  1
  B  B19  1  0.50000000  0.51779828  0.71178046  1
  B  B20  1  0.50000000  0.59981264  0.02791404  1
  B  B21  1  0.50000000  0.40018736  0.97208596  1
  B  B22  1  0.50000000  0.09981264  0.47208596  1
  B  B23  1  0.50000000  0.90018736  0.52791404  1
loop_
_geom_bond_atom_site_label_1
_geom_bond_atom_site_label_2
_geom_bond_distance
_geom_bond_site_symmetry_2
Ho0 Re0 3.069418 1_555
Ho0 Re1 3.071729 1_555
Ho0 Re2 3.188449 1_555
Ho1 Re1 3.069418 1_555
Ho1 Re0 3.071729 1_555
Ho1 Re3 3.188449 1_555
Ho2 Re2 3.069418 1_565
Ho2 Re3 3.071729 1_554
Ho2 Re0 3.188449 1_555
Ho3 Re3 3.069418 1_545
Ho3 Re2 3.071729 1_556
Ho3 Re1 3.188449 1_555
Ho4 Re2 2.828568 1_565
Ho4 Re0 2.837086 1_555
Ho5 Re3 2.828568 1_545
Ho5 Re1 2.837086 1_555
Ho6 Re0 2.828568 1_555
Ho6 Re2 2.837086 1_555
Ho7 Re1 2.828568 1_555
Ho7 Re3 2.837086 1_555
B0 B18 1.787605 1_555
B0 B4 1.797718 1_555
B0 B1 1.823939 1_555
B0 Re0 2.373432 1_555
B0 Re0 2.373432 1_655
B0 Ho1 2.779067 1_655
B0 Ho1 2.779067 1_555
B0 Ho0 2.793350 1_655
B0 Ho0 2.793350 1_555
B1 B19 1.787605 1_555
B1 B5 1.797718 1_555
B1 Re1 2.373432 1_555
B1 Re1 2.373432 1_655
B1 Ho0 2.779067 1_655
B1 Ho0 2.779067 1_555
B1 Ho1 2.793350 1_655
B1 Ho1 2.793350 1_555
B2 B6 1.797718 1_555
B2 B3 1.823939 1_544
B2 Re2 2.373432 1_555
B2 Re2 2.373432 1_655
B2 Ho3 2.779067 1_654
B2 Ho3 2.779067 1_554
B2 Ho2 2.793350 1_545
B2 Ho2 2.793350 1_645
B3 B7 1.797718 1_555
B3 Re3 2.373432 1_655
B3 Re3 2.373432 1_555
B3 Ho2 2.779067 1_656
B3 Ho2 2.779067 1_556
B3 Ho3 2.793350 1_565
B3 Ho3 2.793350 1_665
B4 B8 1.809658 1_555
B4 Re0 2.376911 1_655
B4 Re0 2.376911 1_555
B4 Ho4 2.608901 1_655
B4 Ho4 2.608901 1_555
B4 Ho1 2.740907 1_655
B4 Ho1 2.740907 1_555
B5 B9 1.809658 1_555
B5 Re1 2.376911 1_555
B5 Re1 2.376911 1_655
B5 Ho5 2.608901 1_555
B5 Ho5 2.608901 1_655
B5 Ho0 2.740907 1_555
B5 Ho0 2.740907 1_655
B6 Re2 2.376911 1_555
B6 Re2 2.376911 1_655
B6 Ho6 2.608901 1_655
B6 Ho6 2.608901 1_555
B6 Ho3 2.740907 1_554
B6 Ho3 2.740907 1_654
B7 Re3 2.376911 1_555
B7 Re3 2.376911 1_655
B7 Ho7 2.608901 1_655
B7 Ho7 2.608901 1_555
B7 Ho2 2.740907 1_656
B7 Ho2 2.740907 1_556
B8 Re0 2.394627 1_555
B8 Re0 2.394627 1_655
B8 Ho4 2.590490 1_655
B8 Ho4 2.590490 1_555
B8 Ho2 2.773146 1_655
B8 Ho2 2.773146 1_555
B9 Re1 2.394627 1_555
B9 Re1 2.394627 1_655
B9 Ho5 2.590490 1_555
B9 Ho5 2.590490 1_655
B9 Ho3 2.773146 1_655
B9 Ho3 2.773146 1_555
B10 B14 1.733255 1_555
B10 B6 1.809658 1_555
B10 B18 1.844414 1_555
B10 Re2 2.394627 1_655
B10 Re2 2.394627 1_555
B10 Ho6 2.590490 1_655
B10 Ho6 2.590490 1_555
B10 Ho0 2.773146 1_555
B10 Ho0 2.773146 1_655
B11 B15 1.733255 1_555
B11 B7 1.809658 1_555
B11 B19 1.844414 1_555
B11 Re3 2.394627 1_655
B11 Re3 2.394627 1_555
B11 Ho7 2.590490 1_655
B11 Ho7 2.590490 1_555
B11 Ho1 2.773146 1_655
B11 Ho1 2.773146 1_555
B12 B8 1.733255 1_555
B12 B18 1.799522 1_555
B12 B20 1.835869 1_555
B12 Re0 2.405074 1_655
B12 Re0 2.405074 1_555
B12 Ho6 2.591156 1_555
B12 Ho6 2.591156 1_655
B12 Ho2 2.789853 1_655
B12 Ho2 2.789853 1_555
B13 B9 1.733255 1_555
B13 B19 1.799522 1_555
B13 B21 1.835869 1_555
B13 Re1 2.405074 1_655
B13 Re1 2.405074 1_555
B13 Ho7 2.591156 1_655
B13 Ho7 2.591156 1_555
B13 Ho3 2.789853 1_655
B13 Ho3 2.789853 1_555
B14 B16 1.799522 1_545
B14 B22 1.835869 1_555
B14 Re2 2.405074 1_655
B14 Re2 2.405074 1_555
B14 Ho4 2.591156 1_545
B14 Ho4 2.591156 1_645
B14 Ho0 2.789853 1_555
B14 Ho0 2.789853 1_655
B15 B17 1.799522 1_565
B15 B23 1.835869 1_555
B15 Re3 2.405074 1_555
B15 Re3 2.405074 1_655
B15 Ho5 2.591156 1_665
B15 Ho5 2.591156 1_565
B15 Ho1 2.789853 1_655
B15 Ho1 2.789853 1_555
B16 B2 1.787605 1_565
B16 B8 1.844414 1_555
B16 Re2 2.353235 1_565
B16 Re2 2.353235 1_665
B16 Ho4 2.605959 1_655
B16 Ho4 2.605959 1_555
B16 Ho2 2.747859 1_555
B16 Ho2 2.747859 1_655
B17 B3 1.787605 1_545
B17 B9 1.844414 1_555
B17 Re3 2.353235 1_645
B17 Re3 2.353235 1_545
B17 Ho5 2.605959 1_555
B17 Ho5 2.605959 1_655
B17 Ho3 2.747859 1_655
B17 Ho3 2.747859 1_555
B18 Re0 2.353235 1_555
B18 Re0 2.353235 1_655
B18 Ho6 2.605959 1_655
B18 Ho6 2.605959 1_555
B18 Ho0 2.747859 1_655
B18 Ho0 2.747859 1_555
B19 Re1 2.353235 1_555
B19 Re1 2.353235 1_655
B19 Ho7 2.605959 1_555
B19 Ho7 2.605959 1_655
B19 Ho1 2.747859 1_655
B19 Ho1 2.747859 1_555
B20 B7 1.867663 1_554
B20 B21 1.934012 1_554
B20 Ho6 2.609132 1_655
B20 Ho6 2.609132 1_555
B20 Ho7 2.612562 1_654
B20 Ho7 2.612562 1_554
B20 Ho2 2.827308 1_555
B20 Ho2 2.827308 1_655
B21 B6 1.867663 1_556
B21 Ho7 2.609132 1_655
B21 Ho7 2.609132 1_555
B21 Ho6 2.612562 1_656
B21 Ho6 2.612562 1_556
B21 Ho3 2.827308 1_655
B21 Ho3 2.827308 1_555
B22 B5 1.867663 1_555
B22 B23 1.934012 1_545
B22 Ho4 2.609132 1_645
B22 Ho4 2.609132 1_545
B22 Ho5 2.612562 1_555
B22 Ho5 2.612562 1_655
B22 Ho0 2.827308 1_555
B22 Ho0 2.827308 1_655
B23 B4 1.867663 1_555
B23 Ho5 2.609132 1_565
B23 Ho5 2.609132 1_665
B23 Ho4 2.612562 1_655
B23 Ho4 2.612562 1_555
B23 Ho1 2.827308 1_655
B23 Ho1 2.827308 1_555
