# generated using pymatgen
data_Ba10PrY4(Cu3O7)5
_symmetry_space_group_name_H-M   'P 1'
_cell_length_a   3.85408800
_cell_length_b   11.87431800
_cell_length_c   19.62205800
_cell_angle_alpha   90.00000000
_cell_angle_beta   90.00000000
_cell_angle_gamma   90.00000000
_symmetry_Int_Tables_number   1
_chemical_formula_structural   Ba10PrY4(Cu3O7)5
_chemical_formula_sum   'Ba10 Pr1 Y4 Cu15 O35'
_cell_volume   897.99694065
_cell_formula_units_Z   1
loop_
 _symmetry_equiv_pos_site_id
 _symmetry_equiv_pos_as_xyz
  1  'x, y, z'
loop_
 _atom_site_type_symbol
 _atom_site_label
 _atom_site_symmetry_multiplicity
 _atom_site_fract_x
 _atom_site_fract_y
 _atom_site_fract_z
 _atom_site_occupancy
  Ba  Ba0  1  0.50000000  0.18006400  0.70024500  1
  Ba  Ba1  1  0.50000000  0.17879300  0.50000000  1
  Ba  Ba2  1  0.50000000  0.18006400  0.29975500  1
  Ba  Ba3  1  0.50000000  0.18007100  0.10003300  1
  Ba  Ba4  1  0.50000000  0.18007100  0.89996700  1
  Ba  Ba5  1  0.50000000  0.81993600  0.70024500  1
  Ba  Ba6  1  0.50000000  0.82120700  0.50000000  1
  Ba  Ba7  1  0.50000000  0.81993600  0.29975500  1
  Ba  Ba8  1  0.50000000  0.81992900  0.10003300  1
  Ba  Ba9  1  0.50000000  0.81992900  0.89996700  1
  Pr  Pr0  1  0.50000000  0.50000000  0.50000000  1
  Y  Y0  1  0.50000000  0.50000000  0.70085600  1
  Y  Y1  1  0.50000000  0.50000000  0.29914400  1
  Y  Y2  1  0.50000000  0.50000000  0.09992100  1
  Y  Y3  1  0.50000000  0.50000000  0.90007900  1
  Cu  Cu0  1  0.00000000  0.35044300  0.80028700  1
  Cu  Cu1  1  0.00000000  0.34762900  0.60135000  1
  Cu  Cu2  1  0.00000000  0.34762900  0.39865000  1
  Cu  Cu3  1  0.00000000  0.35044300  0.19971300  1
  Cu  Cu4  1  0.00000000  0.35034600  0.00000000  1
  Cu  Cu5  1  0.00000000  0.64955700  0.80028700  1
  Cu  Cu6  1  0.00000000  0.65237100  0.60135000  1
  Cu  Cu7  1  0.00000000  0.65237100  0.39865000  1
  Cu  Cu8  1  0.00000000  0.64955700  0.19971300  1
  Cu  Cu9  1  0.00000000  0.64965400  0.00000000  1
  Cu  Cu10  1  0.00000000  0.00000000  0.80008200  1
  Cu  Cu11  1  0.00000000  0.00000000  0.60011400  1
  Cu  Cu12  1  0.00000000  0.00000000  0.39988600  1
  Cu  Cu13  1  0.00000000  0.00000000  0.19991800  1
  Cu  Cu14  1  0.00000000  0.00000000  0.00000000  1
  O  O0  1  0.00000000  0.15830600  0.80001800  1
  O  O1  1  0.00000000  0.15781800  0.60033500  1
  O  O2  1  0.00000000  0.15781800  0.39966500  1
  O  O3  1  0.00000000  0.15830600  0.19998200  1
  O  O4  1  0.00000000  0.15837100  0.00000000  1
  O  O5  1  0.00000000  0.84169400  0.80001800  1
  O  O6  1  0.00000000  0.84218200  0.60033500  1
  O  O7  1  0.00000000  0.84218200  0.39966500  1
  O  O8  1  0.00000000  0.84169400  0.19998200  1
  O  O9  1  0.00000000  0.84162900  0.00000000  1
  O  O10  1  0.00000000  0.37874700  0.70097200  1
  O  O11  1  0.00000000  0.36881200  0.50000000  1
  O  O12  1  0.00000000  0.37874700  0.29902800  1
  O  O13  1  0.00000000  0.37838000  0.09990600  1
  O  O14  1  0.00000000  0.37838000  0.90009400  1
  O  O15  1  0.00000000  0.62125300  0.70097200  1
  O  O16  1  0.00000000  0.63118800  0.50000000  1
  O  O17  1  0.00000000  0.62125300  0.29902800  1
  O  O18  1  0.00000000  0.62162000  0.09990600  1
  O  O19  1  0.00000000  0.62162000  0.90009400  1
  O  O20  1  0.00000000  0.00000000  0.70016900  1
  O  O21  1  0.00000000  0.00000000  0.50000000  1
  O  O22  1  0.00000000  0.00000000  0.29983100  1
  O  O23  1  0.00000000  0.00000000  0.09997600  1
  O  O24  1  0.00000000  0.00000000  0.90002400  1
  O  O25  1  0.50000000  0.37884500  0.80038900  1
  O  O26  1  0.50000000  0.37489100  0.60362900  1
  O  O27  1  0.50000000  0.37489100  0.39637100  1
  O  O28  1  0.50000000  0.37884500  0.19961100  1
  O  O29  1  0.50000000  0.37887500  0.00000000  1
  O  O30  1  0.50000000  0.62115500  0.80038900  1
  O  O31  1  0.50000000  0.62510900  0.60362900  1
  O  O32  1  0.50000000  0.62510900  0.39637100  1
  O  O33  1  0.50000000  0.62115500  0.19961100  1
  O  O34  1  0.50000000  0.62112500  0.00000000  1
loop_
_geom_bond_atom_site_label_1
_geom_bond_atom_site_label_2
_geom_bond_distance
_geom_bond_site_symmetry_2
Ba0 O0 2.759174 1_555
Ba0 O0 2.759174 1_655
Ba0 O1 2.761630 1_555
Ba0 O1 2.761630 1_655
Ba0 O20 2.878390 1_655
Ba0 O20 2.878390 1_555
Ba0 O26 2.990998 1_555
Ba0 O10 3.046251 1_655
Ba0 O10 3.046251 1_555
Ba0 O25 3.071284 1_555
Ba1 O1 2.766157 1_555
Ba1 O1 2.766157 1_655
Ba1 O2 2.766157 1_555
Ba1 O2 2.766157 1_655
Ba1 O21 2.867197 1_555
Ba1 O21 2.867197 1_655
Ba1 O11 2.967254 1_555
Ba1 O11 2.967254 1_655
Ba1 O26 3.091412 1_555
Ba1 O27 3.091412 1_555
Ba2 O3 2.759174 1_655
Ba2 O3 2.759174 1_555
Ba2 O2 2.761630 1_655
Ba2 O2 2.761630 1_555
Ba2 O22 2.878390 1_555
Ba2 O22 2.878390 1_655
Ba2 O27 2.990998 1_555
Ba2 O12 3.046251 1_555
Ba2 O12 3.046251 1_655
Ba2 O28 3.071284 1_555
Ba3 O3 2.761633 1_555
Ba3 O3 2.761633 1_655
Ba3 O4 2.762732 1_655
Ba3 O4 2.762732 1_555
Ba3 O23 2.878452 1_555
Ba3 O23 2.878452 1_655
Ba3 O13 3.042780 1_555
Ba3 O13 3.042780 1_655
Ba3 O28 3.064126 1_555
Ba3 O29 3.070101 1_555
Ba4 O0 2.761633 1_555
Ba4 O0 2.761633 1_655
Ba4 O4 2.762732 1_556
Ba4 O4 2.762732 1_656
Ba4 O24 2.878452 1_555
Ba4 O24 2.878452 1_655
Ba4 O14 3.042780 1_555
Ba4 O14 3.042780 1_655
Ba4 O25 3.064126 1_555
Ba4 O29 3.070101 1_556
Ba5 O5 2.759174 1_555
Ba5 O5 2.759174 1_655
Ba5 O6 2.761630 1_555
Ba5 O6 2.761630 1_655
Ba5 O20 2.878390 1_565
Ba5 O20 2.878390 1_665
Ba5 O31 2.990998 1_555
Ba5 O15 3.046251 1_555
Ba5 O15 3.046251 1_655
Ba5 O30 3.071284 1_555
Ba6 O6 2.766157 1_655
Ba6 O6 2.766157 1_555
Ba6 O7 2.766157 1_655
Ba6 O7 2.766157 1_555
Ba6 O21 2.867197 1_565
Ba6 O21 2.867197 1_665
Ba6 O16 2.967254 1_655
Ba6 O16 2.967254 1_555
Ba6 O31 3.091412 1_555
Ba6 O32 3.091412 1_555
Ba7 O8 2.759174 1_555
Ba7 O8 2.759174 1_655
Ba7 O7 2.761630 1_555
Ba7 O7 2.761630 1_655
Ba7 O22 2.878390 1_565
Ba7 O22 2.878390 1_665
Ba7 O32 2.990998 1_555
Ba7 O17 3.046251 1_555
Ba7 O17 3.046251 1_655
Ba7 O33 3.071284 1_555
Ba8 O8 2.761633 1_655
Ba8 O8 2.761633 1_555
Ba8 O9 2.762732 1_655
Ba8 O9 2.762732 1_555
Ba8 O23 2.878452 1_565
Ba8 O23 2.878452 1_665
Ba8 O18 3.042780 1_655
Ba8 O18 3.042780 1_555
Ba8 O33 3.064126 1_555
Ba8 O34 3.070101 1_555
Ba9 O5 2.761633 1_655
Ba9 O5 2.761633 1_555
Ba9 O9 2.762732 1_656
Ba9 O9 2.762732 1_556
Ba9 O24 2.878452 1_565
Ba9 O24 2.878452 1_665
Ba9 O19 3.042780 1_555
Ba9 O19 3.042780 1_655
Ba9 O30 3.064126 1_555
Ba9 O34 3.070101 1_556
Cu0 O25 1.956334 1_455
Cu0 O25 1.956334 1_555
Cu0 O10 1.977534 1_555
Cu0 O14 1.986316 1_555
Cu0 O0 2.281502 1_555
Cu1 O26 1.954557 1_455
Cu1 O26 1.954557 1_555
Cu1 O10 1.989405 1_555
Cu1 O11 2.004540 1_555
Cu1 O1 2.253964 1_555
Cu2 O27 1.954557 1_555
Cu2 O27 1.954557 1_455
Cu2 O12 1.989405 1_555
Cu2 O11 2.004540 1_555
Cu2 O2 2.253964 1_555
Cu3 O28 1.956334 1_455
Cu3 O28 1.956334 1_555
Cu3 O12 1.977534 1_555
Cu3 O13 1.986316 1_555
Cu3 O3 2.281502 1_555
Cu4 O29 1.956594 1_455
Cu4 O29 1.956594 1_555
Cu4 O13 1.988424 1_555
Cu4 O14 1.988424 1_554
Cu4 O4 2.279572 1_555
Cu5 O30 1.956334 1_455
Cu5 O30 1.956334 1_555
Cu5 O15 1.977534 1_555
Cu5 O19 1.986316 1_555
Cu5 O5 2.281502 1_555
Cu6 O31 1.954557 1_555
Cu6 O31 1.954557 1_455
Cu6 O15 1.989405 1_555
Cu6 O16 2.004540 1_555
Cu6 O6 2.253964 1_555
Cu7 O32 1.954557 1_555
Cu7 O32 1.954557 1_455
Cu7 O17 1.989405 1_555
Cu7 O16 2.004540 1_555
Cu7 O7 2.253964 1_555
Cu8 O33 1.956334 1_555
Cu8 O33 1.956334 1_455
Cu8 O17 1.977534 1_555
Cu8 O18 1.986316 1_555
Cu8 O8 2.281502 1_555
Cu9 O34 1.956594 1_555
Cu9 O34 1.956594 1_455
Cu9 O18 1.988424 1_555
Cu9 O19 1.988424 1_554
Cu9 O9 2.279572 1_555
Cu10 O5 1.879776 1_545
Cu10 O0 1.879776 1_555
Cu10 O20 1.960499 1_555
Cu10 O24 1.961068 1_555
Cu11 O6 1.873986 1_545
Cu11 O1 1.873986 1_555
Cu11 O20 1.963285 1_555
Cu11 O21 1.964443 1_555
Cu12 O7 1.873986 1_545
Cu12 O2 1.873986 1_555
Cu12 O22 1.963285 1_555
Cu12 O21 1.964443 1_555
Cu13 O8 1.879776 1_545
Cu13 O3 1.879776 1_555
Cu13 O22 1.960499 1_555
Cu13 O23 1.961068 1_555
Cu14 O4 1.880548 1_555
Cu14 O9 1.880548 1_545
Cu14 O24 1.961735 1_554
Cu14 O23 1.961735 1_555
O10 Y0 2.405518 1_555
O10 Y0 2.405518 1_455
O11 Pr0 2.477931 1_455
O11 Pr0 2.477931 1_555
O12 Y1 2.405518 1_555
O12 Y1 2.405518 1_455
O13 Y2 2.408128 1_455
O13 Y2 2.408128 1_555
O14 Y3 2.408128 1_555
O14 Y3 2.408128 1_455
O15 Y0 2.405518 1_455
O15 Y0 2.405518 1_555
O16 Pr0 2.477931 1_455
O16 Pr0 2.477931 1_555
O17 Y1 2.405518 1_455
O17 Y1 2.405518 1_555
O18 Y2 2.408128 1_555
O18 Y2 2.408128 1_455
O19 Y3 2.408128 1_455
O19 Y3 2.408128 1_555
O25 Y0 2.425704 1_555
O25 Y3 2.428185 1_555
O26 Y0 2.417982 1_555
O26 Pr0 2.518280 1_555
O27 Y1 2.417982 1_555
O27 Pr0 2.518280 1_555
O28 Y1 2.425704 1_555
O28 Y2 2.428185 1_555
O29 Y2 2.431627 1_555
O29 Y3 2.431627 1_554
O30 Y0 2.425704 1_555
O30 Y3 2.428185 1_555
O31 Y0 2.417982 1_555
O31 Pr0 2.518280 1_555
O32 Y1 2.417982 1_555
O32 Pr0 2.518280 1_555
O33 Y1 2.425704 1_555
O33 Y2 2.428185 1_555
O34 Y2 2.431627 1_555
O34 Y3 2.431627 1_554
