# generated using pymatgen
data_MgBi
_symmetry_space_group_name_H-M   'P 1'
_cell_length_a   5.34160057
_cell_length_b   3.45410976
_cell_length_c   17.62286319
_cell_angle_alpha   90.00000000
_cell_angle_beta   90.00000000
_cell_angle_gamma   90.00000000
_symmetry_Int_Tables_number   1
_chemical_formula_structural   MgBi
_chemical_formula_sum   'Mg6 Bi6'
_cell_volume   325.15019077
_cell_formula_units_Z   6
loop_
 _symmetry_equiv_pos_site_id
 _symmetry_equiv_pos_as_xyz
  1  'x, y, z'
loop_
 _atom_site_type_symbol
 _atom_site_label
 _atom_site_symmetry_multiplicity
 _atom_site_fract_x
 _atom_site_fract_y
 _atom_site_fract_z
 _atom_site_occupancy
  Mg  Mg0  1  -0.00000000  -0.00000000  0.99601358  1
  Mg  Mg1  1  -0.00000000  -0.00000000  0.33934536  1
  Mg  Mg2  1  0.50000000  -0.00000000  0.21772778  1
  Mg  Mg3  1  -0.00000000  0.50000000  0.49601358  1
  Mg  Mg4  1  0.00000000  0.50000000  0.83934536  1
  Mg  Mg5  1  0.50000000  0.50000000  0.71772778  1
  Bi  Bi0  1  0.00000000  0.50000000  0.18553609  1
  Bi  Bi1  1  0.50000000  0.50000000  0.37338552  1
  Bi  Bi2  1  0.50000000  0.50000000  0.05465866  1
  Bi  Bi3  1  0.00000000  -0.00000000  0.68553609  1
  Bi  Bi4  1  0.50000000  -0.00000000  0.87338552  1
  Bi  Bi5  1  0.50000000  0.00000000  0.55465866  1
loop_
_geom_bond_atom_site_label_1
_geom_bond_atom_site_label_2
_geom_bond_distance
_geom_bond_site_symmetry_2
Bi0 Mg1 3.214009 1_565
Bi0 Mg1 3.214009 1_555
Bi0 Mg2 3.230748 1_455
Bi0 Mg2 3.230748 1_565
Bi0 Mg2 3.230748 1_555
Bi0 Mg2 3.230748 1_465
Bi1 Mg1 3.236627 1_555
Bi1 Mg1 3.236627 1_655
Bi1 Mg1 3.236627 1_565
Bi1 Mg1 3.236627 1_665
Bi1 Mg2 3.241529 1_555
Bi1 Mg2 3.241529 1_565
Bi1 Mg3 3.435599 1_555
Bi1 Mg3 3.435599 1_655
Bi2 Mg0 3.344249 1_664
Bi2 Mg0 3.344249 1_554
Bi2 Mg0 3.344249 1_654
Bi2 Mg0 3.344249 1_564
Bi2 Mg2 3.352779 1_565
Bi2 Mg2 3.352779 1_555
Bi3 Mg4 3.214009 1_555
Bi3 Mg4 3.214009 1_545
Bi3 Mg5 3.230748 1_455
Bi3 Mg5 3.230748 1_545
Bi3 Mg5 3.230748 1_445
Bi3 Mg5 3.230748 1_555
Bi4 Mg4 3.236627 1_545
Bi4 Mg4 3.236627 1_655
Bi4 Mg4 3.236627 1_555
Bi4 Mg4 3.236627 1_645
Bi4 Mg5 3.241529 1_545
Bi4 Mg5 3.241529 1_555
Bi4 Mg0 3.435599 1_655
Bi4 Mg0 3.435599 1_555
Bi5 Mg3 3.344249 1_655
Bi5 Mg3 3.344249 1_545
Bi5 Mg3 3.344249 1_645
Bi5 Mg3 3.344249 1_555
Bi5 Mg5 3.352779 1_555
Bi5 Mg5 3.352779 1_545
