# generated using pymatgen
data_Rb2InAsF6
_symmetry_space_group_name_H-M   'P 1'
_cell_length_a   6.62346498
_cell_length_b   6.62346498
_cell_length_c   6.62346498
_cell_angle_alpha   60.00000000
_cell_angle_beta   60.00000000
_cell_angle_gamma   60.00000000
_symmetry_Int_Tables_number   1
_chemical_formula_structural   Rb2InAsF6
_chemical_formula_sum   'Rb2 In1 As1 F6'
_cell_volume   205.46636363
_cell_formula_units_Z   1
loop_
 _symmetry_equiv_pos_site_id
 _symmetry_equiv_pos_as_xyz
  1  'x, y, z'
loop_
 _atom_site_type_symbol
 _atom_site_label
 _atom_site_symmetry_multiplicity
 _atom_site_fract_x
 _atom_site_fract_y
 _atom_site_fract_z
 _atom_site_occupancy
  Rb  Rb0  1  0.75000000  0.75000000  0.75000000  1
  Rb  Rb1  1  0.25000000  0.25000000  0.25000000  1
  In  In0  1  0.50000000  0.50000000  0.50000000  1
  As  As0  1  0.00000000  0.00000000  0.00000000  1
  F  F0  1  0.77806600  0.22193400  0.22193400  1
  F  F1  1  0.22193400  0.22193400  0.77806600  1
  F  F2  1  0.22193400  0.77806600  0.77806600  1
  F  F3  1  0.22193400  0.77806600  0.22193400  1
  F  F4  1  0.77806600  0.22193400  0.77806600  1
  F  F5  1  0.77806600  0.77806600  0.22193400  1
loop_
_geom_bond_atom_site_label_1
_geom_bond_atom_site_label_2
_geom_bond_distance
_geom_bond_site_symmetry_2
As0 F5 2.078854 1_445
As0 F4 2.078854 1_454
As0 F2 2.078854 1_544
As0 F0 2.078854 1_455
As0 F1 2.078854 1_554
As0 F3 2.078854 1_545
F0 In0 2.604643 1_555
F0 Rb1 3.322151 1_655
F0 Rb0 3.322151 1_554
F0 Rb0 3.322151 1_545
F0 Rb1 3.322151 1_555
F1 In0 2.604643 1_555
F1 Rb1 3.322151 1_555
F1 Rb0 3.322151 1_545
F1 Rb1 3.322151 1_556
F1 Rb0 3.322151 1_455
F2 In0 2.604643 1_555
F2 Rb0 3.322151 1_555
F2 Rb1 3.322151 1_565
F2 Rb1 3.322151 1_556
F2 Rb0 3.322151 1_455
F3 In0 2.604643 1_555
F3 Rb1 3.322151 1_565
F3 Rb0 3.322151 1_554
F3 Rb0 3.322151 1_455
F3 Rb1 3.322151 1_555
F4 In0 2.604643 1_555
F4 Rb1 3.322151 1_655
F4 Rb0 3.322151 1_555
F4 Rb0 3.322151 1_545
F4 Rb1 3.322151 1_556
F5 In0 2.604643 1_555
F5 Rb1 3.322151 1_565
F5 Rb0 3.322151 1_555
F5 Rb0 3.322151 1_554
F5 Rb1 3.322151 1_655
