# generated using pymatgen
data_Mg3Si4
_symmetry_space_group_name_H-M   'P 1'
_cell_length_a   5.84185328
_cell_length_b   7.58982549
_cell_length_c   7.35665022
_cell_angle_alpha   111.07413824
_cell_angle_beta   106.80041191
_cell_angle_gamma   106.97248978
_symmetry_Int_Tables_number   1
_chemical_formula_structural   Mg3Si4
_chemical_formula_sum   'Mg6 Si8'
_cell_volume   261.20619790
_cell_formula_units_Z   2
loop_
 _symmetry_equiv_pos_site_id
 _symmetry_equiv_pos_as_xyz
  1  'x, y, z'
loop_
 _atom_site_type_symbol
 _atom_site_label
 _atom_site_symmetry_multiplicity
 _atom_site_fract_x
 _atom_site_fract_y
 _atom_site_fract_z
 _atom_site_occupancy
  Mg  Mg0  1  0.17815600  0.55651500  0.47231900  1
  Mg  Mg1  1  0.56515500  0.53224900  0.22308400  1
  Mg  Mg2  1  0.49793300  0.11118400  0.82421300  1
  Mg  Mg3  1  0.34882700  0.10832900  0.22796600  1
  Mg  Mg4  1  0.97438800  0.58398400  0.01637600  1
  Mg  Mg5  1  0.91375800  0.87181300  0.72887200  1
  Si  Si0  1  0.87425800  0.23036700  0.57469500  1
  Si  Si1  1  0.85509000  0.05548900  0.21840300  1
  Si  Si2  1  0.07197200  0.88921900  0.41007500  1
  Si  Si3  1  0.48955100  0.87793800  0.40953400  1
  Si  Si4  1  0.02961900  0.24809800  0.04673800  1
  Si  Si5  1  0.37544900  0.43457000  0.78228000  1
  Si  Si6  1  0.66843300  0.46725600  0.59717400  1
  Si  Si7  1  0.41095300  0.78632800  0.96807200  1
loop_
_geom_bond_atom_site_label_1
_geom_bond_atom_site_label_2
_geom_bond_distance
_geom_bond_site_symmetry_2
Mg0 Si5 2.829478 1_555
Mg0 Si4 2.829807 1_555
Mg0 Si3 2.859906 1_555
Mg0 Si2 2.924512 1_555
Mg0 Si7 3.060421 1_555
Mg0 Si0 3.065064 1_455
Mg0 Si6 3.092795 1_555
Mg0 Si1 3.189889 1_455
Mg1 Si3 2.720118 1_555
Mg1 Si4 2.797209 1_555
Mg1 Si5 2.829788 1_554
Mg1 Si2 2.877657 1_655
Mg1 Si6 2.893322 1_555
Mg2 Si4 2.712945 1_656
Mg2 Si2 2.791278 1_545
Mg2 Si5 2.841424 1_555
Mg2 Si3 2.902073 1_545
Mg2 Si7 2.985532 1_545
Mg3 Si6 2.657506 1_555
Mg3 Si4 2.667402 1_555
Mg3 Si7 2.705306 1_544
Mg3 Si3 2.720646 1_545
Mg3 Si1 2.769885 1_455
Mg3 Si2 2.908735 1_545
Mg3 Si0 2.983463 1_555
Mg3 Si1 3.115307 1_555
Mg4 Si6 2.722932 1_554
Mg4 Si4 2.738808 1_655
Mg4 Si2 2.744030 1_655
Mg4 Si7 2.760217 1_654
Mg4 Si3 2.967789 1_655
Mg4 Si5 3.047936 1_554
Mg4 Si0 3.133131 1_554
Mg5 Si6 2.628590 1_555
Mg5 Si4 2.690067 1_666
Mg5 Si2 2.788663 1_655
Mg5 Si3 2.905643 1_555
Si0 Si6 2.422599 1_555
Si0 Si1 2.426136 1_555
Si0 Si3 2.501315 1_545
Si0 Si5 2.523998 1_655
Si1 Si7 2.394675 1_544
Si1 Si4 2.444028 1_655
Si1 Si2 2.523193 1_645
Si2 Si3 2.466881 1_555
Si5 Si7 2.434648 1_555
Si5 Si6 2.487531 1_555
