# generated using pymatgen
data_HgH10C2(SO4)2
_symmetry_space_group_name_H-M   'P 1'
_cell_length_a   4.82873933
_cell_length_b   6.47036859
_cell_length_c   8.33909322
_cell_angle_alpha   88.12380568
_cell_angle_beta   84.84872612
_cell_angle_gamma   84.31808148
_symmetry_Int_Tables_number   1
_chemical_formula_structural   HgH10C2(SO4)2
_chemical_formula_sum   'Hg1 H10 C2 S2 O8'
_cell_volume   258.14230867
_cell_formula_units_Z   1
loop_
 _symmetry_equiv_pos_site_id
 _symmetry_equiv_pos_as_xyz
  1  'x, y, z'
loop_
 _atom_site_type_symbol
 _atom_site_label
 _atom_site_symmetry_multiplicity
 _atom_site_fract_x
 _atom_site_fract_y
 _atom_site_fract_z
 _atom_site_occupancy
  Hg  Hg0  1  0.00000000  0.00000000  0.00000000  1
  H  H0  1  0.82613300  0.34447000  0.57423400  1
  H  H1  1  0.17386700  0.65553000  0.42576600  1
  H  H2  1  0.82558900  0.06793200  0.60766500  1
  H  H3  1  0.17441100  0.93206800  0.39233500  1
  H  H4  1  0.57412400  0.20703300  0.48586800  1
  H  H5  1  0.42587600  0.79296700  0.51413200  1
  H  H6  1  0.30360100  0.31939700  0.11095800  1
  H  H7  1  0.69639900  0.68060300  0.88904200  1
  H  H8  1  0.99124800  0.37113200  0.18878200  1
  H  H9  1  0.00875200  0.62886800  0.81121800  1
  C  C0  1  0.69654200  0.21424000  0.58973900  1
  C  C1  1  0.30345800  0.78576000  0.41026100  1
  S  S0  1  0.46542800  0.25826000  0.76558700  1
  S  S1  1  0.53457200  0.74174000  0.23441300  1
  O  O0  1  0.29962200  0.07393200  0.77715200  1
  O  O1  1  0.70037800  0.92606800  0.22284800  1
  O  O2  1  0.29645000  0.45555800  0.74144200  1
  O  O3  1  0.70355000  0.54444200  0.25855800  1
  O  O4  1  0.14305400  0.25749600  0.16757200  1
  O  O5  1  0.85694600  0.74250400  0.83242800  1
  O  O6  1  0.63519700  0.26614500  0.90511500  1
  O  O7  1  0.36480300  0.73385500  0.09488500  1
loop_
_geom_bond_atom_site_label_1
_geom_bond_atom_site_label_2
_geom_bond_distance
_geom_bond_site_symmetry_2
Hg0 O1 2.317660 1_445
Hg0 O0 2.317660 1_554
Hg0 O4 2.399882 1_555
Hg0 O5 2.399882 1_444
Hg0 O7 2.500997 1_545
Hg0 O6 2.500997 1_454
H6 O4 0.983707 1_555
H7 O5 0.983707 1_555
H8 O4 0.993855 1_655
H9 O5 0.993855 1_455
C0 H2 1.094292 1_555
C0 H0 1.095936 1_555
C0 H4 1.096328 1_555
C1 H3 1.094292 1_555
C1 H1 1.095936 1_555
C1 H5 1.096328 1_555
O0 S0 1.496817 1_555
O1 S1 1.496817 1_555
O2 S0 1.463699 1_555
O3 S1 1.463699 1_555
O6 S0 1.487244 1_555
O7 S1 1.487244 1_555
