# generated using pymatgen
data_Cd4InTe4As
_symmetry_space_group_name_H-M   'P 1'
_cell_length_a   15.47552087
_cell_length_b   15.47552087
_cell_length_c   15.47552087
_cell_angle_alpha   164.09522171
_cell_angle_beta   164.09522171
_cell_angle_gamma   22.56617651
_symmetry_Int_Tables_number   1
_chemical_formula_structural   Cd4InTe4As
_chemical_formula_sum   'Cd4 In1 Te4 As1'
_cell_volume   278.27821585
_cell_formula_units_Z   1
loop_
 _symmetry_equiv_pos_site_id
 _symmetry_equiv_pos_as_xyz
  1  'x, y, z'
loop_
 _atom_site_type_symbol
 _atom_site_label
 _atom_site_symmetry_multiplicity
 _atom_site_fract_x
 _atom_site_fract_y
 _atom_site_fract_z
 _atom_site_occupancy
  Cd  Cd0  1  0.90721700  0.90721700  0.00000000  1
  Cd  Cd1  1  0.29874000  0.29874000  0.00000000  1
  Cd  Cd2  1  0.70126000  0.70126000  0.00000000  1
  Cd  Cd3  1  0.09278300  0.09278300  0.00000000  1
  In  In0  1  0.50000000  0.50000000  0.00000000  1
  Te  Te0  1  0.80085100  0.80085100  0.00000000  1
  Te  Te1  1  0.19914900  0.19914900  0.00000000  1
  Te  Te2  1  0.60085700  0.60085700  0.00000000  1
  Te  Te3  1  0.39914300  0.39914300  0.00000000  1
  As  As0  1  0.00000000  0.00000000  0.00000000  1
loop_
_geom_bond_atom_site_label_1
_geom_bond_atom_site_label_2
_geom_bond_distance
_geom_bond_site_symmetry_2
Cd0 Te3 3.037791 1_666
Cd0 Te3 3.037791 1_565
Cd0 Te3 3.037791 1_655
Cd0 Te3 3.037791 1_554
Cd0 Te0 3.228510 1_555
Cd1 Te1 3.022869 1_555
Cd1 Te0 3.028567 1_455
Cd1 Te0 3.028567 1_556
Cd1 Te0 3.028567 1_545
Cd1 Te0 3.028567 1_444
Cd1 Te3 3.047516 1_555
Cd2 Te0 3.022869 1_555
Cd2 Te1 3.028567 1_554
Cd2 Te1 3.028567 1_666
Cd2 Te1 3.028567 1_565
Cd2 Te1 3.028567 1_655
Cd2 Te2 3.047516 1_555
Cd3 Te2 3.037791 1_455
Cd3 Te2 3.037791 1_545
Cd3 Te2 3.037791 1_556
Cd3 Te2 3.037791 1_444
Cd3 Te1 3.228510 1_555
In0 Te2 3.061296 1_555
In0 Te3 3.061296 1_555
As0 Cd0 2.816227 1_445
As0 Cd3 2.816227 1_555
As0 In0 3.027889 1_545
As0 In0 3.027889 1_556
As0 In0 3.027889 1_444
As0 In0 3.027889 1_455
