# generated using pymatgen
data_Zn3Mo3O8
_symmetry_space_group_name_H-M   'P 1'
_cell_length_a   6.35896948
_cell_length_b   6.35896948
_cell_length_c   10.80371419
_cell_angle_alpha   71.87574914
_cell_angle_beta   71.87574914
_cell_angle_gamma   57.88455681
_symmetry_Int_Tables_number   1
_chemical_formula_structural   Zn3Mo3O8
_chemical_formula_sum   'Zn6 Mo6 O16'
_cell_volume   345.84755770
_cell_formula_units_Z   2
loop_
 _symmetry_equiv_pos_site_id
 _symmetry_equiv_pos_as_xyz
  1  'x, y, z'
loop_
 _atom_site_type_symbol
 _atom_site_label
 _atom_site_symmetry_multiplicity
 _atom_site_fract_x
 _atom_site_fract_y
 _atom_site_fract_z
 _atom_site_occupancy
  Zn  Zn0  1  0.00000000  0.00000000  0.00000000  1
  Zn  Zn1  1  0.81822200  0.81822200  0.56749500  1
  Zn  Zn2  1  0.69315600  0.69315600  0.92581900  1
  Zn  Zn3  1  0.50000000  0.50000000  0.50000000  1
  Zn  Zn4  1  0.30684400  0.30684400  0.07418100  1
  Zn  Zn5  1  0.18177800  0.18177800  0.43250500  1
  Mo  Mo0  1  0.75274100  0.75274100  0.25000300  1
  Mo  Mo1  1  0.26059700  0.73828100  0.24897100  1
  Mo  Mo2  1  0.73828100  0.26059700  0.24897100  1
  Mo  Mo3  1  0.26171900  0.73940300  0.75102900  1
  Mo  Mo4  1  0.73940300  0.26171900  0.75102900  1
  Mo  Mo5  1  0.24725900  0.24725900  0.74999700  1
  O  O0  1  0.88388400  0.88388400  0.36056300  1
  O  O1  1  0.88990200  0.88990200  0.86340400  1
  O  O2  1  0.35676700  0.87759700  0.87088000  1
  O  O3  1  0.87759700  0.35676700  0.87088000  1
  O  O4  1  0.62833800  0.62833800  0.13167800  1
  O  O5  1  0.38257200  0.85161200  0.36919200  1
  O  O6  1  0.85161200  0.38257200  0.36919200  1
  O  O7  1  0.37911600  0.37911600  0.37442200  1
  O  O8  1  0.62088400  0.62088400  0.62557800  1
  O  O9  1  0.14838800  0.61742800  0.63080800  1
  O  O10  1  0.61742800  0.14838800  0.63080800  1
  O  O11  1  0.37166200  0.37166200  0.86832200  1
  O  O12  1  0.12240300  0.64323300  0.12912000  1
  O  O13  1  0.64323300  0.12240300  0.12912000  1
  O  O14  1  0.11009800  0.11009800  0.13659600  1
  O  O15  1  0.11611600  0.11611600  0.63943700  1
loop_
_geom_bond_atom_site_label_1
_geom_bond_atom_site_label_2
_geom_bond_distance
_geom_bond_site_symmetry_2
Mo0 O12 2.152100 1_655
Mo0 O13 2.152100 1_565
Mo0 O5 2.153735 1_555
Mo0 O6 2.153735 1_555
Mo0 O0 2.190096 1_555
Mo0 O4 2.193057 1_555
Mo1 O7 2.121482 1_555
Mo1 O14 2.123957 1_565
Mo1 O4 2.128899 1_555
Mo1 O12 2.138625 1_555
Mo1 O0 2.142106 1_455
Mo1 O5 2.147418 1_555
Mo2 O7 2.121482 1_555
Mo2 O14 2.123957 1_655
Mo2 O4 2.128899 1_555
Mo2 O13 2.138625 1_555
Mo2 O0 2.142106 1_545
Mo2 O6 2.147418 1_555
Mo3 O8 2.121482 1_555
Mo3 O1 2.123957 1_455
Mo3 O11 2.128899 1_555
Mo3 O2 2.138625 1_555
Mo3 O15 2.142106 1_565
Mo3 O9 2.147418 1_555
Mo4 O8 2.121482 1_555
Mo4 O1 2.123957 1_545
Mo4 O11 2.128899 1_555
Mo4 O3 2.138625 1_555
Mo4 O15 2.142106 1_655
Mo4 O10 2.147418 1_555
Mo5 O3 2.152100 1_455
Mo5 O2 2.152100 1_545
Mo5 O9 2.153735 1_555
Mo5 O10 2.153735 1_555
Mo5 O15 2.190096 1_555
Mo5 O11 2.193057 1_555
O0 Zn1 2.090593 1_555
O1 Zn2 2.049324 1_555
O1 Zn0 2.228204 1_666
O2 Zn2 1.998213 1_555
O2 Zn0 2.127838 1_566
O3 Zn2 1.998213 1_555
O3 Zn0 2.127838 1_656
O4 Zn2 2.079932 1_554
O5 Zn5 2.001488 1_565
O5 Zn3 2.114104 1_555
O6 Zn5 2.001488 1_655
O6 Zn3 2.114104 1_555
O7 Zn5 2.058547 1_555
O7 Zn3 2.224504 1_555
O8 Zn1 2.058547 1_555
O8 Zn3 2.224504 1_555
O9 Zn1 2.001488 1_455
O9 Zn3 2.114104 1_555
O10 Zn1 2.001488 1_545
O10 Zn3 2.114104 1_555
O11 Zn4 2.079932 1_556
O12 Zn4 1.998213 1_555
O12 Zn0 2.127838 1_565
O13 Zn4 1.998213 1_555
O13 Zn0 2.127838 1_655
O14 Zn4 2.049324 1_555
O14 Zn0 2.228204 1_555
O15 Zn5 2.090593 1_555
