# generated using pymatgen
data_Cs2TlRhF6
_symmetry_space_group_name_H-M   'P 1'
_cell_length_a   6.64626210
_cell_length_b   6.64626210
_cell_length_c   6.64626210
_cell_angle_alpha   60.00000000
_cell_angle_beta   60.00000000
_cell_angle_gamma   60.00000000
_symmetry_Int_Tables_number   1
_chemical_formula_structural   Cs2TlRhF6
_chemical_formula_sum   'Cs2 Tl1 Rh1 F6'
_cell_volume   207.59524132
_cell_formula_units_Z   1
loop_
 _symmetry_equiv_pos_site_id
 _symmetry_equiv_pos_as_xyz
  1  'x, y, z'
loop_
 _atom_site_type_symbol
 _atom_site_label
 _atom_site_symmetry_multiplicity
 _atom_site_fract_x
 _atom_site_fract_y
 _atom_site_fract_z
 _atom_site_occupancy
  Cs  Cs0  1  0.75000000  0.75000000  0.75000000  1
  Cs  Cs1  1  0.25000000  0.25000000  0.25000000  1
  Tl  Tl0  1  0.50000000  0.50000000  0.50000000  1
  Rh  Rh0  1  0.00000000  0.00000000  0.00000000  1
  F  F0  1  0.78402000  0.21598000  0.21598000  1
  F  F1  1  0.21598000  0.21598000  0.78402000  1
  F  F2  1  0.21598000  0.78402000  0.78402000  1
  F  F3  1  0.21598000  0.78402000  0.21598000  1
  F  F4  1  0.78402000  0.21598000  0.78402000  1
  F  F5  1  0.78402000  0.78402000  0.21598000  1
loop_
_geom_bond_atom_site_label_1
_geom_bond_atom_site_label_2
_geom_bond_distance
_geom_bond_site_symmetry_2
Cs0 F4 3.338480 1_555
Cs0 F5 3.338480 1_555
Cs0 F2 3.338480 1_555
Cs0 F1 3.338480 1_565
Cs0 F3 3.338480 1_556
Cs0 F0 3.338480 1_556
Cs0 F0 3.338480 1_565
Cs0 F1 3.338480 1_655
Cs0 F3 3.338480 1_655
Cs0 F4 3.338480 1_565
Cs0 F2 3.338480 1_655
Cs0 F5 3.338480 1_556
Cs1 F3 3.338480 1_545
Cs1 F1 3.338480 1_554
Cs1 F4 3.338480 1_554
Cs1 F5 3.338480 1_455
Cs1 F2 3.338480 1_545
Cs1 F2 3.338480 1_554
Cs1 F5 3.338480 1_545
Cs1 F0 3.338480 1_455
Cs1 F3 3.338480 1_555
Cs1 F0 3.338480 1_555
Cs1 F4 3.338480 1_455
Cs1 F1 3.338480 1_555
F0 Rh0 2.030047 1_655
F0 Tl0 2.669570 1_555
F1 Rh0 2.030047 1_556
F1 Tl0 2.669570 1_555
F2 Rh0 2.030047 1_566
F2 Tl0 2.669570 1_555
F3 Rh0 2.030047 1_565
F3 Tl0 2.669570 1_555
F4 Rh0 2.030047 1_656
F4 Tl0 2.669570 1_555
F5 Rh0 2.030047 1_665
F5 Tl0 2.669570 1_555
