# generated using pymatgen
data_Ca3Cr6(FeO6)4
_symmetry_space_group_name_H-M   'P 1'
_cell_length_a   6.84175300
_cell_length_b   8.62299499
_cell_length_c   9.99860071
_cell_angle_alpha   104.86262126
_cell_angle_beta   106.98856760
_cell_angle_gamma   103.39723360
_symmetry_Int_Tables_number   1
_chemical_formula_structural   Ca3Cr6(FeO6)4
_chemical_formula_sum   'Ca3 Cr6 Fe4 O24'
_cell_volume   514.38945590
_cell_formula_units_Z   1
loop_
 _symmetry_equiv_pos_site_id
 _symmetry_equiv_pos_as_xyz
  1  'x, y, z'
loop_
 _atom_site_type_symbol
 _atom_site_label
 _atom_site_symmetry_multiplicity
 _atom_site_fract_x
 _atom_site_fract_y
 _atom_site_fract_z
 _atom_site_occupancy
  Ca  Ca0  1  0.00000000  0.50000000  0.50000000  1
  Ca  Ca1  1  0.28506300  0.30272600  0.78977000  1
  Ca  Ca2  1  0.71493700  0.69727400  0.21023000  1
  Cr  Cr0  1  0.78067200  0.34201900  0.73557600  1
  Cr  Cr1  1  0.21932800  0.65798100  0.26442400  1
  Cr  Cr2  1  0.89416500  0.90315700  0.66892600  1
  Cr  Cr3  1  0.39763400  0.74094500  0.86521800  1
  Cr  Cr4  1  0.10583500  0.09684300  0.33107400  1
  Cr  Cr5  1  0.60236600  0.25905500  0.13478200  1
  Fe  Fe0  1  0.37943000  0.95496500  0.60317300  1
  Fe  Fe1  1  0.62057000  0.04503500  0.39682700  1
  Fe  Fe2  1  0.04220800  0.21123800  0.02480800  1
  Fe  Fe3  1  0.95779200  0.78876200  0.97519200  1
  O  O0  1  0.84248400  0.69956500  0.57953100  1
  O  O1  1  0.15751600  0.30043500  0.42046900  1
  O  O2  1  0.25680700  0.53795900  0.73561300  1
  O  O3  1  0.74319300  0.46204100  0.26438700  1
  O  O4  1  0.78082900  0.28539400  0.55331100  1
  O  O5  1  0.21917100  0.71460600  0.44668900  1
  O  O6  1  0.66894700  0.96107400  0.57655500  1
  O  O7  1  0.33105300  0.03892600  0.42344500  1
  O  O8  1  0.64842300  0.74193400  0.98081500  1
  O  O9  1  0.35157700  0.25806600  0.01918500  1
  O  O10  1  0.46398700  0.78689700  0.27902300  1
  O  O11  1  0.53601300  0.21310300  0.72097700  1
  O  O12  1  0.12784000  0.01553900  0.65031700  1
  O  O13  1  0.06538500  0.04642600  0.14078300  1
  O  O14  1  0.93461500  0.95357400  0.85921700  1
  O  O15  1  0.56234800  0.12395900  0.23086600  1
  O  O16  1  0.43765200  0.87604100  0.76913400  1
  O  O17  1  0.17688000  0.44962700  0.18217800  1
  O  O18  1  0.82312000  0.55037300  0.81782200  1
  O  O19  1  0.98527900  0.28762300  0.85001800  1
  O  O20  1  0.01472100  0.71237700  0.14998200  1
  O  O21  1  0.23824700  0.78979200  0.96220200  1
  O  O22  1  0.76175300  0.21020800  0.03779800  1
  O  O23  1  0.87216000  0.98446100  0.34968300  1
loop_
_geom_bond_atom_site_label_1
_geom_bond_atom_site_label_2
_geom_bond_distance
_geom_bond_site_symmetry_2
Ca0 O1 2.326637 1_555
Ca0 O0 2.326637 1_455
Ca0 O5 2.375794 1_555
Ca0 O4 2.375794 1_455
Ca0 O3 2.379741 1_455
Ca0 O2 2.379741 1_555
Ca1 O11 2.247339 1_555
Ca1 O2 2.264743 1_555
Ca1 O19 2.285850 1_455
Ca1 O12 2.313356 1_555
Ca1 O9 2.354025 1_556
Ca2 O10 2.247339 1_555
Ca2 O3 2.264743 1_555
Ca2 O20 2.285850 1_655
Ca2 O23 2.313356 1_555
Ca2 O8 2.354025 1_554
Cr0 O18 1.687957 1_555
Cr0 O11 1.723564 1_555
Cr0 O4 1.761941 1_555
Cr0 O19 1.769904 1_555
Cr1 O17 1.687957 1_555
Cr1 O10 1.723564 1_555
Cr1 O5 1.761941 1_555
Cr1 O20 1.769904 1_555
Cr2 O0 1.651862 1_555
Cr2 O12 1.754448 1_665
Cr2 O14 1.760072 1_555
Cr2 O6 1.799544 1_555
Cr3 O21 1.711184 1_555
Cr3 O16 1.713191 1_555
Cr3 O2 1.731067 1_555
Cr3 O8 1.763329 1_555
Cr4 O1 1.651862 1_555
Cr4 O23 1.754448 1_445
Cr4 O13 1.760072 1_555
Cr4 O7 1.799544 1_555
Cr5 O22 1.711184 1_555
Cr5 O15 1.713191 1_555
Cr5 O3 1.731067 1_555
Cr5 O9 1.763329 1_555
Fe0 O16 1.921998 1_555
Fe0 O12 2.054855 1_565
Fe0 O5 2.055917 1_555
Fe0 O6 2.064968 1_555
Fe0 O7 2.072184 1_565
Fe0 O11 2.074212 1_565
Fe1 O15 1.921998 1_555
Fe1 O23 2.054855 1_545
Fe1 O4 2.055917 1_555
Fe1 O7 2.064968 1_555
Fe1 O6 2.072184 1_545
Fe1 O10 2.074212 1_545
Fe2 O22 1.958848 1_455
Fe2 O19 1.987835 1_454
Fe2 O17 2.041126 1_555
Fe2 O13 2.057163 1_555
Fe2 O9 2.081212 1_555
Fe2 O14 2.205088 1_444
Fe3 O21 1.958848 1_655
Fe3 O20 1.987835 1_656
Fe3 O18 2.041126 1_555
Fe3 O14 2.057163 1_555
Fe3 O8 2.081212 1_555
Fe3 O13 2.205088 1_666
