# generated using pymatgen
data_Mg16Al12Zn
_symmetry_space_group_name_H-M   'P 1'
_cell_length_a   9.06426962
_cell_length_b   9.06426962
_cell_length_c   9.06426966
_cell_angle_alpha   109.18325927
_cell_angle_beta   109.18325927
_cell_angle_gamma   109.18326036
_symmetry_Int_Tables_number   1
_chemical_formula_structural   Mg16Al12Zn
_chemical_formula_sum   'Mg16 Al12 Zn1'
_cell_volume   579.32441937
_cell_formula_units_Z   1
loop_
 _symmetry_equiv_pos_site_id
 _symmetry_equiv_pos_as_xyz
  1  'x, y, z'
loop_
 _atom_site_type_symbol
 _atom_site_label
 _atom_site_symmetry_multiplicity
 _atom_site_fract_x
 _atom_site_fract_y
 _atom_site_fract_z
 _atom_site_occupancy
  Mg  Mg0  1  0.40994800  0.40994800  0.70597600  1
  Mg  Mg1  1  0.99724000  0.99724000  0.99724000  1
  Mg  Mg2  1  0.68467000  0.68467000  0.28570400  1
  Mg  Mg3  1  0.99769300  0.99769300  0.34422900  1
  Mg  Mg4  1  0.59731900  0.31783900  0.99881000  1
  Mg  Mg5  1  0.70597600  0.40994800  0.40994800  1
  Mg  Mg6  1  0.31783900  0.99881000  0.59731900  1
  Mg  Mg7  1  0.34422900  0.99769300  0.99769300  1
  Mg  Mg8  1  0.68467000  0.28570400  0.68467000  1
  Mg  Mg9  1  0.99881000  0.59731900  0.31783900  1
  Mg  Mg10  1  0.59731900  0.99881000  0.31783900  1
  Mg  Mg11  1  0.28570400  0.68467000  0.68467000  1
  Mg  Mg12  1  0.99769300  0.34422900  0.99769300  1
  Mg  Mg13  1  0.99881000  0.31783900  0.59731900  1
  Mg  Mg14  1  0.40994800  0.70597600  0.40994800  1
  Mg  Mg15  1  0.31783900  0.59731900  0.99881000  1
  Al  Al0  1  0.35839100  0.35839100  0.17080300  1
  Al  Al1  1  0.18550700  0.18550700  0.81037300  1
  Al  Al2  1  0.81633100  0.63323200  0.00137000  1
  Al  Al3  1  0.00137000  0.81633100  0.63323200  1
  Al  Al4  1  0.35839100  0.17080300  0.35839100  1
  Al  Al5  1  0.00137000  0.63323200  0.81633100  1
  Al  Al6  1  0.18550700  0.81037300  0.18550700  1
  Al  Al7  1  0.81037300  0.18550700  0.18550700  1
  Al  Al8  1  0.63323200  0.00137000  0.81633100  1
  Al  Al9  1  0.17080300  0.35839100  0.35839100  1
  Al  Al10  1  0.81633100  0.00137000  0.63323200  1
  Al  Al11  1  0.63323200  0.81633100  0.00137000  1
  Zn  Zn0  1  0.68345300  0.68345300  0.68345300  1
loop_
_geom_bond_atom_site_label_1
_geom_bond_atom_site_label_2
_geom_bond_distance
_geom_bond_site_symmetry_2
Mg0 Zn0 2.993316 1_555
Mg0 Mg11 3.085861 1_555
Mg0 Mg8 3.085861 1_555
Mg0 Mg15 3.170590 1_555
Mg0 Mg4 3.170590 1_555
Mg0 Mg13 3.249287 1_455
Mg0 Mg6 3.249287 1_545
Mg1 Zn0 2.884434 1_555
Mg1 Mg7 3.142506 1_655
Mg1 Mg12 3.142506 1_565
Mg1 Mg3 3.142506 1_556
Mg2 Mg3 3.018829 1_555
Mg2 Mg5 3.085861 1_555
Mg2 Mg4 3.111212 1_554
Mg2 Mg9 3.147674 1_555
Mg3 Mg6 3.045377 1_655
Mg4 Mg7 3.045377 1_545
Mg4 Mg8 3.147674 1_555
Mg4 Mg9 3.199184 1_556
Mg4 Mg6 3.199184 1_545
Mg4 Mg5 3.249287 1_556
Mg5 Zn0 2.993316 1_555
Mg5 Mg8 3.085861 1_555
Mg5 Mg9 3.170590 1_555
Mg6 Mg8 3.111212 1_565
Mg6 Mg9 3.199184 1_455
Mg10 Mg7 3.045377 1_554
Mg10 Mg8 3.111212 1_565
Mg10 Mg2 3.147674 1_555
Mg10 Mg14 3.170590 1_555
Mg10 Mg13 3.199184 1_565
Mg10 Mg15 3.199184 1_554
Mg10 Mg5 3.249287 1_565
Mg11 Mg7 3.018829 1_555
Mg11 Mg14 3.085861 1_555
Mg11 Mg13 3.111212 1_455
Mg11 Mg9 3.111212 1_455
Mg11 Mg6 3.147674 1_555
Mg11 Mg15 3.147674 1_555
Mg12 Mg8 3.018829 1_555
Mg12 Mg15 3.045377 1_655
Mg12 Mg9 3.045377 1_556
Mg13 Mg3 3.045377 1_545
Mg13 Mg8 3.147674 1_555
Mg13 Mg5 3.170590 1_555
Mg13 Mg15 3.199184 1_655
Mg14 Zn0 2.993316 1_555
Mg14 Mg2 3.085861 1_555
Mg14 Mg6 3.170590 1_555
Mg14 Mg9 3.249287 1_455
Mg14 Mg15 3.249287 1_554
Mg15 Mg2 3.111212 1_556
Al0 Al1 2.691093 1_554
Al0 Al4 2.771714 1_555
Al0 Al9 2.771714 1_555
Al0 Mg14 2.953297 1_555
Al0 Mg5 2.953297 1_555
Al0 Mg2 2.963348 1_555
Al0 Mg12 3.064043 1_454
Al0 Mg7 3.064043 1_544
Al0 Mg15 3.101817 1_554
Al0 Mg4 3.101817 1_554
Al0 Mg1 3.177418 1_444
Al1 Al3 2.756619 1_545
Al1 Al10 2.756619 1_455
Al1 Mg6 2.956452 1_545
Al1 Mg13 2.956452 1_455
Al1 Mg0 2.997223 1_555
Al1 Mg12 3.123264 1_455
Al1 Mg7 3.123264 1_545
Al1 Mg4 3.132231 1_555
Al1 Mg15 3.132231 1_555
Al1 Mg1 3.252484 1_445
Al2 Al5 2.734052 1_654
Al2 Al6 2.756619 1_655
Al2 Mg4 2.882833 1_554
Al2 Zn0 2.983866 1_554
Al2 Mg9 2.986608 1_555
Al2 Mg8 2.987169 1_554
Al2 Mg3 3.098494 1_555
Al2 Mg2 3.143451 1_555
Al2 Mg0 3.145092 1_554
Al2 Mg1 3.184759 1_554
Al3 Al5 2.705387 1_555
Al3 Mg9 2.882834 1_455
Al3 Zn0 2.983866 1_455
Al3 Mg6 2.986608 1_555
Al3 Mg2 2.987169 1_455
Al3 Mg7 3.098494 1_555
Al3 Mg11 3.143451 1_555
Al3 Mg5 3.145092 1_455
Al3 Mg1 3.184759 1_455
Al4 Al6 2.691093 1_545
Al4 Al9 2.771714 1_555
Al4 Mg5 2.953297 1_555
Al4 Mg0 2.953297 1_555
Al4 Mg8 2.963348 1_555
Al4 Mg3 3.064043 1_445
Al4 Mg7 3.064043 1_544
Al4 Mg6 3.101817 1_545
Al4 Mg10 3.101817 1_545
Al4 Mg1 3.177418 1_444
Al5 Al6 2.756619 1_556
Al5 Mg13 2.882834 1_455
Al5 Zn0 2.983866 1_455
Al5 Mg15 2.986608 1_555
Al5 Mg8 2.987169 1_455
Al5 Mg7 3.098494 1_555
Al5 Mg11 3.143451 1_555
Al5 Mg5 3.145092 1_455
Al5 Mg1 3.184759 1_455
Al6 Mg9 2.956452 1_455
Al6 Mg15 2.956452 1_554
Al6 Mg14 2.997223 1_555
Al6 Mg7 3.123264 1_554
Al6 Mg3 3.123264 1_455
Al6 Mg10 3.132231 1_555
Al6 Mg6 3.132231 1_555
Al6 Mg1 3.252484 1_454
Al7 Al9 2.691093 1_655
Al7 Al8 2.756619 1_554
Al7 Mg10 2.956452 1_545
Al7 Mg4 2.956452 1_554
Al7 Mg5 2.997223 1_555
Al7 Mg12 3.123264 1_554
Al7 Mg3 3.123264 1_545
Al7 Mg9 3.132231 1_555
Al7 Mg13 3.132231 1_555
Al7 Mg1 3.252484 1_544
Al8 Mg6 2.882834 1_545
Al8 Zn0 2.983866 1_545
Al8 Mg4 2.986608 1_555
Al8 Mg11 2.987169 1_545
Al8 Mg12 3.098494 1_555
Al8 Mg8 3.143451 1_555
Al8 Mg14 3.145092 1_545
Al8 Mg1 3.184759 1_545
Al9 Mg14 2.953297 1_555
Al9 Mg0 2.953297 1_555
Al9 Mg11 2.963348 1_555
Al9 Mg3 3.064043 1_445
Al9 Mg12 3.064043 1_454
Al9 Mg13 3.101817 1_455
Al9 Mg9 3.101817 1_455
Al9 Mg1 3.177418 1_444
Al10 Al8 2.705387 1_555
Al10 Al3 2.734052 1_645
Al10 Mg10 2.882834 1_545
Al10 Zn0 2.983866 1_545
Al10 Mg13 2.986608 1_555
Al10 Mg2 2.987169 1_545
Al10 Mg12 3.098494 1_555
Al10 Mg8 3.143451 1_555
Al10 Mg14 3.145092 1_545
Al10 Mg1 3.184759 1_545
Al11 Al2 2.705387 1_555
Al11 Al8 2.734052 1_564
Al11 Al7 2.756619 1_565
Al11 Mg15 2.882833 1_554
Al11 Zn0 2.983866 1_554
Al11 Mg10 2.986608 1_555
Al11 Mg11 2.987169 1_554
Al11 Mg3 3.098494 1_555
Al11 Mg2 3.143451 1_555
Al11 Mg0 3.145092 1_554
Al11 Mg1 3.184759 1_554
