# generated using pymatgen
data_Ca8Mn7CrO22
_symmetry_space_group_name_H-M   'P 1'
_cell_length_a   10.85382982
_cell_length_b   15.51676190
_cell_length_c   10.84971955
_cell_angle_alpha   89.78114460
_cell_angle_beta   90.87360241
_cell_angle_gamma   90.31848660
_symmetry_Int_Tables_number   1
_chemical_formula_structural   Ca8Mn7CrO22
_chemical_formula_sum   'Ca32 Mn28 Cr4 O88'
_cell_volume   1827.01617741
_cell_formula_units_Z   4
loop_
 _symmetry_equiv_pos_site_id
 _symmetry_equiv_pos_as_xyz
  1  'x, y, z'
loop_
 _atom_site_type_symbol
 _atom_site_label
 _atom_site_symmetry_multiplicity
 _atom_site_fract_x
 _atom_site_fract_y
 _atom_site_fract_z
 _atom_site_occupancy
  Ca  Ca0  1  0.00173796  0.10682677  0.50517694  1
  Ca  Ca1  1  0.99717439  0.11102111  0.00788633  1
  Ca  Ca2  1  0.01968287  0.62846189  0.49780978  1
  Ca  Ca3  1  0.01638207  0.62912249  0.99710537  1
  Ca  Ca4  1  0.53682565  0.12660442  0.48179343  1
  Ca  Ca5  1  0.54324531  0.12734944  0.98460832  1
  Ca  Ca6  1  0.52230578  0.62490689  0.50050210  1
  Ca  Ca7  1  0.52368869  0.62452851  0.99818443  1
  Ca  Ca8  1  0.49692020  0.39073088  0.00159543  1
  Ca  Ca9  1  0.49139771  0.39197880  0.50060945  1
  Ca  Ca10  1  0.49626441  0.85765609  0.00001693  1
  Ca  Ca11  1  0.49546135  0.85816795  0.50047569  1
  Ca  Ca12  1  0.96573699  0.38622495  0.00205120  1
  Ca  Ca13  1  0.96664542  0.38736723  0.50424122  1
  Ca  Ca14  1  0.96920136  0.87295511  0.00778871  1
  Ca  Ca15  1  0.97089216  0.87354896  0.50853832  1
  Ca  Ca16  1  0.23170953  0.39472734  0.25911265  1
  Ca  Ca17  1  0.23631790  0.39851854  0.75806798  1
  Ca  Ca18  1  0.22540793  0.87317165  0.25400416  1
  Ca  Ca19  1  0.22575834  0.87270982  0.75053238  1
  Ca  Ca20  1  0.73547535  0.38768436  0.25049412  1
  Ca  Ca21  1  0.73260935  0.38608561  0.75383963  1
  Ca  Ca22  1  0.73998419  0.86233244  0.25138647  1
  Ca  Ca23  1  0.74037794  0.86263088  0.75053158  1
  Ca  Ca24  1  0.22514791  0.11564343  0.24122236  1
  Ca  Ca25  1  0.22294149  0.11041808  0.72864679  1
  Ca  Ca26  1  0.26891893  0.63034627  0.26069812  1
  Ca  Ca27  1  0.26799889  0.63059931  0.75748862  1
  Ca  Ca28  1  0.78070728  0.11565678  0.25314100  1
  Ca  Ca29  1  0.78065886  0.12223912  0.75287867  1
  Ca  Ca30  1  0.77235333  0.62546382  0.25584885  1
  Ca  Ca31  1  0.77129435  0.62507123  0.75667062  1
  Mn  Mn0  1  0.99257809  0.99424312  0.75558006  1
  Mn  Mn1  1  0.00096939  0.50280880  0.25238329  1
  Mn  Mn2  1  0.00118492  0.50279655  0.75112859  1
  Mn  Mn3  1  0.50617669  0.98617072  0.23437175  1
  Mn  Mn4  1  0.50813099  0.98684308  0.73511557  1
  Mn  Mn5  1  0.49784098  0.50447538  0.25256668  1
  Mn  Mn6  1  0.49787932  0.50393335  0.75362434  1
  Mn  Mn7  1  0.24270830  0.99681985  0.50715039  1
  Mn  Mn8  1  0.24915413  0.51084494  0.00853035  1
  Mn  Mn9  1  0.25003585  0.50382008  0.50431290  1
  Mn  Mn10  1  0.74378548  0.99777905  0.99670940  1
  Mn  Mn11  1  0.74344667  0.99839944  0.49726967  1
  Mn  Mn12  1  0.75018510  0.50344615  0.00373447  1
  Mn  Mn13  1  0.74913285  0.50325232  0.50327551  1
  Mn  Mn14  1  0.26620173  0.24301993  0.44976264  1
  Mn  Mn15  1  0.25139232  0.75430579  0.00551630  1
  Mn  Mn16  1  0.25203147  0.75197337  0.50476450  1
  Mn  Mn17  1  0.75602491  0.24967820  0.00386108  1
  Mn  Mn18  1  0.74843389  0.25161111  0.50546815  1
  Mn  Mn19  1  0.75117161  0.74707120  0.00178163  1
  Mn  Mn20  1  0.75099946  0.74679856  0.50166743  1
  Mn  Mn21  1  0.99166799  0.25570205  0.75870531  1
  Mn  Mn22  1  0.00252132  0.75001029  0.25235091  1
  Mn  Mn23  1  0.00235091  0.74974961  0.75101760  1
  Mn  Mn24  1  0.52098252  0.25504727  0.25247033  1
  Mn  Mn25  1  0.51131260  0.25350598  0.75126443  1
  Mn  Mn26  1  0.50000622  0.74627139  0.25328857  1
  Mn  Mn27  1  0.49992566  0.74646503  0.75381654  1
  Cr  Cr0  1  0.99305557  0.99378105  0.25424187  1
  Cr  Cr1  1  0.23641938  0.99551351  0.01143925  1
  Cr  Cr2  1  0.26520863  0.23174040  0.94005307  1
  Cr  Cr3  1  0.99056011  0.25446274  0.26917217  1
  O  O0  1  0.10862225  0.77856152  0.10706784  1
  O  O1  1  0.10847890  0.77603033  0.60634436  1
  O  O2  1  0.58505215  0.25895954  0.09200807  1
  O  O3  1  0.56511878  0.25693135  0.58304553  1
  O  O4  1  0.61126542  0.76386214  0.11259991  1
  O  O5  1  0.61074729  0.76434221  0.61242620  1
  O  O6  1  0.40123181  0.19286363  0.34130735  1
  O  O7  1  0.39214073  0.18148866  0.85079320  1
  O  O8  1  0.39816323  0.72894751  0.39967846  1
  O  O9  1  0.39778705  0.72904449  0.90029316  1
  O  O10  1  0.92652298  0.23699492  0.41908160  1
  O  O11  1  0.91283879  0.23744320  0.92227565  1
  O  O12  1  0.89356110  0.72855482  0.39320011  1
  O  O13  1  0.89336697  0.73078033  0.89337597  1
  O  O14  1  0.16081488  0.25173440  0.28742859  1
  O  O15  1  0.17253048  0.24784562  0.80057746  1
  O  O16  1  0.14873235  0.73422804  0.35616846  1
  O  O17  1  0.14845075  0.73646238  0.85570013  1
  O  O18  1  0.65940506  0.22206953  0.34389763  1
  O  O19  1  0.65700184  0.22608175  0.85429227  1
  O  O20  1  0.64436712  0.72542397  0.35872870  1
  O  O21  1  0.64423391  0.72581733  0.85889989  1
  O  O22  1  0.35839047  0.77594741  0.14881955  1
  O  O23  1  0.35738176  0.77310707  0.64946503  1
  O  O24  1  0.86293378  0.27639477  0.15691152  1
  O  O25  1  0.84835033  0.27513517  0.65628480  1
  O  O26  1  0.86104163  0.76943438  0.14267544  1
  O  O27  1  0.86038851  0.76903621  0.64173968  1
  O  O28  1  0.35783793  0.48259628  0.14387275  1
  O  O29  1  0.35748592  0.48587487  0.64427116  1
  O  O30  1  0.34745932  0.99976238  0.16444480  1
  O  O31  1  0.34986481  0.99689073  0.66160682  1
  O  O32  1  0.85912613  0.48155640  0.14561660  1
  O  O33  1  0.85784409  0.48049831  0.64539790  1
  O  O34  1  0.84044694  0.97774492  0.14656202  1
  O  O35  1  0.84442107  0.97972763  0.64848873  1
  O  O36  1  0.14439280  0.01151376  0.36209734  1
  O  O37  1  0.14050040  0.01626793  0.86191995  1
  O  O38  1  0.14775403  0.52112023  0.35608578  1
  O  O39  1  0.14853090  0.51831899  0.85787847  1
  O  O40  1  0.62896531  0.02825444  0.34427615  1
  O  O41  1  0.63078110  0.03015955  0.84427428  1
  O  O42  1  0.64326108  0.52034256  0.35801429  1
  O  O43  1  0.64246998  0.51894774  0.85925085  1
  O  O44  1  0.39495840  0.51986776  0.39679440  1
  O  O45  1  0.39220584  0.51501224  0.89873512  1
  O  O46  1  0.88463290  0.01504841  0.39657024  1
  O  O47  1  0.88532726  0.01660449  0.89468626  1
  O  O48  1  0.89531943  0.52073094  0.39708018  1
  O  O49  1  0.89526563  0.51796236  0.89649642  1
  O  O50  1  0.10844616  0.47532990  0.10800138  1
  O  O51  1  0.10890832  0.47708601  0.60836500  1
  O  O52  1  0.09581268  0.98019021  0.10763889  1
  O  O53  1  0.09696807  0.98273245  0.61715712  1
  O  O54  1  0.60997994  0.48530537  0.11327624  1
  O  O55  1  0.60940686  0.48365796  0.61357043  1
  O  O56  1  0.58455648  0.99247732  0.07812553  1
  O  O57  1  0.58639975  0.99175736  0.57943886  1
  O  O58  1  0.00969239  0.38127808  0.29519240  1
  O  O59  1  0.01512518  0.37782874  0.78819982  1
  O  O60  1  0.00426039  0.87022398  0.29551194  1
  O  O61  1  0.00219533  0.87352965  0.79305530  1
  O  O62  1  0.49692743  0.37660601  0.28103962  1
  O  O63  1  0.48934649  0.37669679  0.78245933  1
  O  O64  1  0.51613445  0.86987092  0.28889863  1
  O  O65  1  0.51589871  0.87052399  0.78914939  1
  O  O66  1  0.48485544  0.62619534  0.21087885  1
  O  O67  1  0.48624050  0.62645503  0.71437718  1
  O  O68  1  0.99647894  0.12769162  0.22273260  1
  O  O69  1  0.99766775  0.13038014  0.71845804  1
  O  O70  1  0.99501394  0.62562462  0.21138700  1
  O  O71  1  0.99544170  0.62557794  0.71430856  1
  O  O72  1  0.22293316  0.13744371  0.03089448  1
  O  O73  1  0.23269293  0.12924926  0.52064698  1
  O  O74  1  0.23530970  0.63471060  0.04407046  1
  O  O75  1  0.23746829  0.62938302  0.54154370  1
  O  O76  1  0.75123322  0.12468787  0.04031492  1
  O  O77  1  0.74686091  0.12607251  0.53830211  1
  O  O78  1  0.74672579  0.62457570  0.03924777  1
  O  O79  1  0.74444856  0.62415612  0.54140771  1
  O  O80  1  0.27283029  0.36476556  0.47839517  1
  O  O81  1  0.28949056  0.33220949  0.00604394  1
  O  O82  1  0.28182001  0.88158813  0.46448731  1
  O  O83  1  0.28200773  0.88358336  0.96241099  1
  O  O84  1  0.74771096  0.37620979  0.46582517  1
  O  O85  1  0.74816309  0.37565075  0.96996532  1
  O  O86  1  0.74713750  0.87303189  0.46567635  1
  O  O87  1  0.74539985  0.87396272  0.96444810  1
loop_
_geom_bond_atom_site_label_1
_geom_bond_atom_site_label_2
_geom_bond_distance
_geom_bond_site_symmetry_2
Ca0 O46 2.231400 1_455
Ca0 O69 2.345221 1_455
Ca0 O10 2.366270 1_455
Ca0 O53 2.493619 1_545
Ca0 O73 2.531979 1_555
Ca0 O36 2.666615 1_555
Ca0 O77 2.812756 1_455
Ca1 O47 2.253225 1_554
Ca1 O68 2.346443 1_555
Ca1 O11 2.351359 1_554
Ca1 O72 2.491099 1_655
Ca1 O52 2.531951 1_645
Ca1 O37 2.684791 1_654
Ca1 O76 2.707394 1_555
Ca2 O12 2.353096 1_455
Ca2 O71 2.367850 1_455
Ca2 O48 2.398889 1_455
Ca2 O75 2.403832 1_555
Ca2 O16 2.652875 1_555
Ca2 O38 2.679810 1_555
Ca2 O1 2.742281 1_555
Ca2 O51 2.803954 1_555
Ca3 O70 2.340345 1_456
Ca3 O13 2.345537 1_455
Ca3 O49 2.416644 1_455
Ca3 O74 2.423765 1_556
Ca3 O17 2.683968 1_555
Ca3 O39 2.721849 1_555
Ca3 O0 2.785947 1_556
Ca3 O50 2.847596 1_556
Ca4 O3 2.321727 1_555
Ca4 O6 2.341521 1_555
Ca4 O77 2.351699 1_555
Ca4 O40 2.373822 1_555
Ca4 O57 2.401707 1_545
Ca4 O18 2.494926 1_555
Ca5 O76 2.328604 1_556
Ca5 O7 2.331694 1_555
Ca5 O41 2.360681 1_555
Ca5 O56 2.364444 1_546
Ca5 O2 2.392887 1_556
Ca5 O19 2.426161 1_555
Ca6 O67 2.359382 1_555
Ca6 O8 2.363076 1_555
Ca6 O44 2.403035 1_555
Ca6 O79 2.445026 1_555
Ca6 O20 2.564128 1_555
Ca6 O42 2.617389 1_555
Ca6 O5 2.653042 1_555
Ca6 O55 2.677588 1_555
Ca7 O66 2.352429 1_556
Ca7 O9 2.364889 1_555
Ca7 O78 2.454770 1_556
Ca7 O45 2.455335 1_555
Ca7 O21 2.546570 1_555
Ca7 O43 2.592274 1_555
Ca7 O54 2.658867 1_556
Ca7 O4 2.660920 1_556
Ca8 O54 2.252960 1_555
Ca8 O63 2.388471 1_554
Ca8 O81 2.424043 1_555
Ca8 O2 2.456777 1_555
Ca8 O45 2.495068 1_554
Ca8 O28 2.608724 1_555
Ca8 O85 2.764961 1_554
Ca8 O62 3.038966 1_555
Ca9 O55 2.260873 1_555
Ca9 O62 2.396785 1_555
Ca9 O3 2.411189 1_555
Ca9 O80 2.415860 1_555
Ca9 O44 2.504466 1_555
Ca9 O29 2.602837 1_555
Ca9 O84 2.825244 1_555
Ca10 O4 2.264576 1_555
Ca10 O65 2.308779 1_554
Ca10 O83 2.390924 1_554
Ca10 O56 2.445290 1_555
Ca10 O9 2.500640 1_554
Ca10 O22 2.547605 1_555
Ca10 O87 2.747441 1_554
Ca11 O5 2.262969 1_555
Ca11 O64 2.316236 1_555
Ca11 O82 2.375323 1_555
Ca11 O57 2.443370 1_555
Ca11 O8 2.507911 1_555
Ca11 O23 2.576192 1_555
Ca11 O86 2.771541 1_555
Ca12 O50 2.359304 1_655
Ca12 O85 2.386609 1_554
Ca12 O59 2.393489 1_654
Ca12 O32 2.458648 1_555
Ca12 O49 2.459250 1_554
Ca12 O11 2.528610 1_554
Ca12 O24 2.643208 1_555
Ca13 O58 2.325090 1_655
Ca13 O51 2.352336 1_655
Ca13 O84 2.411673 1_555
Ca13 O33 2.432981 1_555
Ca13 O48 2.491065 1_555
Ca13 O10 2.545682 1_555
Ca13 O25 2.724032 1_555
Ca14 O0 2.357618 1_655
Ca14 O61 2.362525 1_654
Ca14 O52 2.402867 1_655
Ca14 O87 2.467274 1_554
Ca14 O26 2.472574 1_555
Ca14 O34 2.640441 1_555
Ca14 O13 2.656096 1_554
Ca14 O47 2.696389 1_564
Ca15 O60 2.345735 1_655
Ca15 O1 2.368623 1_655
Ca15 O53 2.464121 1_655
Ca15 O86 2.465720 1_555
Ca15 O27 2.484022 1_555
Ca15 O35 2.648043 1_555
Ca15 O46 2.672238 1_565
Ca15 O12 2.701985 1_555
Ca16 O28 2.305383 1_555
Ca16 O14 2.364851 1_555
Ca16 O38 2.418376 1_555
Ca16 O50 2.445038 1_555
Ca16 O58 2.454825 1_555
Ca16 O80 2.457070 1_555
Ca16 O62 2.899962 1_555
Ca17 O29 2.260141 1_555
Ca17 O39 2.366998 1_555
Ca17 O51 2.443739 1_555
Ca17 O59 2.447098 1_555
Ca17 O15 2.478224 1_555
Ca17 O63 2.777499 1_555
Ca17 O45 2.892724 1_555
Ca17 O81 2.927191 1_556
Ca17 O80 3.112857 1_555
Ca18 O82 2.359218 1_555
Ca18 O22 2.397746 1_555
Ca18 O60 2.449065 1_555
Ca18 O0 2.497797 1_555
Ca18 O30 2.559925 1_555
Ca18 O16 2.561120 1_555
Ca18 O36 2.613097 1_565
Ca18 O52 2.682460 1_555
Ca19 O83 2.375882 1_555
Ca19 O23 2.391077 1_555
Ca19 O61 2.476997 1_555
Ca19 O1 2.500827 1_555
Ca19 O31 2.540635 1_555
Ca19 O17 2.542947 1_555
Ca19 O53 2.628417 1_555
Ca19 O37 2.712276 1_565
Ca20 O32 2.286879 1_555
Ca20 O84 2.344179 1_555
Ca20 O24 2.451441 1_555
Ca20 O54 2.512004 1_555
Ca20 O42 2.583911 1_555
Ca20 O62 2.619906 1_555
Ca20 O18 2.880038 1_555
Ca21 O33 2.321973 1_555
Ca21 O85 2.353427 1_555
Ca21 O25 2.395998 1_555
Ca21 O55 2.517805 1_555
Ca21 O43 2.567080 1_555
Ca21 O63 2.666343 1_555
Ca21 O19 2.830060 1_555
Ca22 O26 2.297122 1_555
Ca22 O86 2.331619 1_555
Ca22 O34 2.385390 1_555
Ca22 O64 2.473073 1_555
Ca22 O4 2.546288 1_555
Ca22 O20 2.634358 1_555
Ca23 O27 2.297847 1_555
Ca23 O87 2.328042 1_555
Ca23 O35 2.408795 1_555
Ca23 O65 2.482283 1_555
Ca23 O5 2.545613 1_555
Ca23 O21 2.640420 1_555
Ca24 O36 2.258753 1_555
Ca24 O14 2.287638 1_555
Ca24 O72 2.305437 1_555
Ca24 O30 2.400241 1_545
Ca24 O6 2.487708 1_555
Ca24 O68 2.494971 1_455
Ca24 O52 2.901237 1_545
Ca25 O37 2.243779 1_555
Ca25 O73 2.278455 1_555
Ca25 O15 2.344015 1_555
Ca25 O31 2.365867 1_545
Ca25 O69 2.467085 1_455
Ca25 O7 2.501890 1_555
Ca25 O53 2.682514 1_545
Ca26 O16 2.334567 1_555
Ca26 O74 2.373755 1_555
Ca26 O38 2.382512 1_555
Ca26 O66 2.414539 1_555
Ca26 O8 2.551797 1_555
Ca26 O44 2.633567 1_555
Ca26 O22 2.740682 1_555
Ca26 O28 2.806809 1_555
Ca27 O75 2.361384 1_555
Ca27 O17 2.365717 1_555
Ca27 O67 2.422735 1_555
Ca27 O39 2.430342 1_555
Ca27 O9 2.577994 1_555
Ca27 O23 2.682446 1_555
Ca27 O45 2.706585 1_555
Ca27 O29 2.752628 1_555
Ca27 O71 2.988726 1_455
Ca28 O76 2.330115 1_555
Ca28 O18 2.346389 1_555
Ca28 O40 2.354595 1_555
Ca28 O68 2.376273 1_555
Ca28 O46 2.465481 1_555
Ca28 O34 2.528663 1_545
Ca28 O24 2.844477 1_555
Ca29 O77 2.351867 1_555
Ca29 O41 2.384018 1_555
Ca29 O19 2.385574 1_555
Ca29 O69 2.392986 1_555
Ca29 O47 2.508512 1_555
Ca29 O35 2.590697 1_545
Ca29 O25 2.692912 1_555
Ca29 O11 2.923668 1_555
Ca30 O78 2.362333 1_555
Ca30 O20 2.380314 1_555
Ca30 O42 2.420882 1_555
Ca30 O70 2.471584 1_555
Ca30 O12 2.538772 1_555
Ca30 O48 2.590952 1_555
Ca30 O32 2.716933 1_555
Ca30 O26 2.723251 1_555
Ca31 O79 2.349323 1_555
Ca31 O21 2.379022 1_555
Ca31 O43 2.431711 1_555
Ca31 O71 2.482732 1_555
Ca31 O13 2.565228 1_555
Ca31 O49 2.611050 1_555
Ca31 O33 2.729670 1_555
Ca31 O27 2.733440 1_555
Mn0 O53 1.904574 1_655
Mn0 O61 1.918258 1_655
Mn0 O47 1.953310 1_565
Mn0 O35 1.981832 1_555
Mn0 O37 1.991503 1_665
Mn0 O69 2.149514 1_565
Mn1 O32 1.940025 1_455
Mn1 O58 1.942871 1_555
Mn1 O38 1.956435 1_555
Mn1 O70 1.956463 1_455
Mn1 O48 1.979570 1_455
Mn1 O50 2.015662 1_555
Mn2 O71 1.946251 1_455
Mn2 O33 1.949049 1_455
Mn2 O39 1.974457 1_555
Mn2 O49 1.981343 1_455
Mn2 O59 1.984996 1_555
Mn2 O51 1.997642 1_555
Mn3 O30 1.884334 1_555
Mn3 O40 1.890048 1_565
Mn3 O64 1.900080 1_555
Mn3 O56 1.910205 1_555
Mn4 O31 1.889831 1_555
Mn4 O41 1.890671 1_565
Mn4 O65 1.897511 1_555
Mn4 O57 1.903267 1_555
Mn5 O28 1.938497 1_555
Mn5 O66 1.945795 1_555
Mn5 O42 1.950265 1_555
Mn5 O44 1.952382 1_555
Mn5 O54 1.979234 1_555
Mn5 O62 2.006851 1_555
Mn6 O29 1.936707 1_555
Mn6 O43 1.942592 1_555
Mn6 O67 1.951015 1_555
Mn6 O45 1.970576 1_555
Mn6 O55 1.984259 1_555
Mn6 O63 1.999611 1_555
Mn7 O82 1.900592 1_555
Mn7 O36 1.901641 1_565
Mn7 O53 2.006558 1_555
Mn7 O31 2.025243 1_555
Mn7 O73 2.064229 1_565
Mn8 O28 1.920406 1_555
Mn8 O39 1.955365 1_554
Mn8 O50 1.958875 1_555
Mn8 O74 1.968748 1_555
Mn8 O45 1.971978 1_554
Mn9 O29 1.920913 1_555
Mn9 O51 1.958315 1_555
Mn9 O38 1.958685 1_555
Mn9 O44 1.986563 1_555
Mn9 O75 1.997102 1_555
Mn9 O80 2.192838 1_555
Mn10 O47 1.927467 1_565
Mn10 O34 1.946411 1_556
Mn10 O56 1.954049 1_556
Mn10 O87 1.954391 1_555
Mn10 O76 2.027893 1_566
Mn10 O41 2.104942 1_565
Mn11 O46 1.911337 1_565
Mn11 O57 1.937686 1_555
Mn11 O86 1.977288 1_555
Mn11 O35 1.980399 1_555
Mn11 O77 2.032150 1_565
Mn11 O40 2.109877 1_565
Mn12 O78 1.920754 1_555
Mn12 O43 1.956132 1_554
Mn12 O32 1.956569 1_555
Mn12 O54 1.963506 1_555
Mn12 O49 1.983434 1_554
Mn12 O85 2.017849 1_554
Mn13 O79 1.923770 1_555
Mn13 O42 1.954397 1_555
Mn13 O33 1.959494 1_555
Mn13 O55 1.967702 1_555
Mn13 O48 1.991793 1_555
Mn13 O84 2.014177 1_555
Mn14 O80 1.916420 1_555
Mn14 O73 1.957356 1_555
Mn14 O6 2.051967 1_555
Mn14 O14 2.089797 1_555
Mn15 O74 1.908370 1_555
Mn15 O0 1.954127 1_555
Mn15 O22 1.955370 1_555
Mn15 O17 1.977825 1_554
Mn15 O9 2.011812 1_554
Mn15 O83 2.084039 1_554
Mn16 O75 1.948176 1_555
Mn16 O23 1.955715 1_555
Mn16 O1 1.960517 1_555
Mn16 O16 1.969009 1_555
Mn16 O8 2.001959 1_555
Mn16 O82 2.081057 1_555
Mn17 O11 1.940956 1_554
Mn17 O19 1.967131 1_554
Mn17 O76 1.978441 1_555
Mn17 O85 1.989656 1_554
Mn17 O24 2.053512 1_555
Mn17 O2 2.106462 1_555
Mn18 O77 1.978947 1_555
Mn18 O84 1.979062 1_555
Mn18 O25 1.983158 1_555
Mn18 O18 2.041180 1_555
Mn18 O3 2.174276 1_555
Mn18 O10 2.174384 1_555
Mn19 O78 1.942687 1_555
Mn19 O21 1.950368 1_554
Mn19 O26 1.955289 1_555
Mn19 O4 1.970250 1_555
Mn19 O13 1.972615 1_554
Mn19 O87 2.009788 1_554
Mn20 O27 1.944936 1_555
Mn20 O20 1.949245 1_555
Mn20 O79 1.950791 1_555
Mn20 O5 1.974435 1_555
Mn20 O12 1.980478 1_555
Mn20 O86 1.996358 1_555
Mn21 O25 1.922351 1_555
Mn21 O59 1.937802 1_655
Mn21 O69 1.996276 1_555
Mn21 O11 2.000404 1_555
Mn21 O15 2.012427 1_655
Mn22 O60 1.924865 1_555
Mn22 O16 1.948036 1_555
Mn22 O26 1.952322 1_455
Mn22 O12 1.972720 1_455
Mn22 O70 1.983183 1_455
Mn22 O0 2.012824 1_555
Mn23 O17 1.947820 1_555
Mn23 O27 1.953503 1_455
Mn23 O71 1.969755 1_455
Mn23 O61 1.975787 1_555
Mn23 O13 1.979867 1_455
Mn23 O1 2.000506 1_555
Mn24 O18 1.860727 1_555
Mn24 O2 1.885175 1_555
Mn24 O6 1.888530 1_555
Mn24 O62 1.932460 1_555
Mn25 O3 1.925199 1_555
Mn25 O63 1.959026 1_555
Mn25 O19 1.970031 1_555
Mn25 O7 2.026134 1_555
Mn26 O66 1.926417 1_555
Mn26 O22 1.951952 1_555
Mn26 O20 1.953611 1_555
Mn26 O64 1.964176 1_555
Mn26 O8 1.965648 1_555
Mn26 O4 1.977910 1_555
Mn27 O67 1.916743 1_555
Mn27 O23 1.948468 1_555
Mn27 O21 1.950424 1_555
Mn27 O9 1.968455 1_555
Mn27 O65 1.970410 1_555
Mn27 O5 1.981508 1_555
Cr0 O52 1.969180 1_655
Cr0 O60 1.971126 1_655
Cr0 O46 1.985450 1_565
Cr0 O36 2.020396 1_665
Cr0 O34 2.027087 1_555
Cr0 O68 2.104721 1_565
Cr1 O52 1.875530 1_555
Cr1 O83 1.889150 1_554
Cr1 O37 1.941000 1_564
Cr1 O30 2.037558 1_555
Cr1 O72 2.219048 1_565
Cr2 O81 1.735119 1_556
Cr2 O15 1.821480 1_555
Cr2 O72 1.821582 1_556
Cr2 O7 1.871453 1_555
Cr3 O10 1.797495 1_555
Cr3 O14 1.856197 1_655
Cr3 O24 1.862479 1_555
Cr3 O58 1.998206 1_655
Cr3 O68 2.034049 1_555
