# generated using pymatgen
data_NaMg6Sb
_symmetry_space_group_name_H-M   'P 1'
_cell_length_a   5.27257700
_cell_length_b   6.35366800
_cell_length_c   11.43555700
_cell_angle_alpha   90.00000000
_cell_angle_beta   90.00000000
_cell_angle_gamma   90.00000000
_symmetry_Int_Tables_number   1
_chemical_formula_structural   NaMg6Sb
_chemical_formula_sum   'Na2 Mg12 Sb2'
_cell_volume   383.09348964
_cell_formula_units_Z   2
loop_
 _symmetry_equiv_pos_site_id
 _symmetry_equiv_pos_as_xyz
  1  'x, y, z'
loop_
 _atom_site_type_symbol
 _atom_site_label
 _atom_site_symmetry_multiplicity
 _atom_site_fract_x
 _atom_site_fract_y
 _atom_site_fract_z
 _atom_site_occupancy
  Na  Na0  1  0.00000000  0.00000000  0.16717000  1
  Na  Na1  1  0.00000000  0.50000000  0.66717000  1
  Mg  Mg0  1  0.00000000  0.24822500  0.41630500  1
  Mg  Mg1  1  0.00000000  0.75177500  0.41630500  1
  Mg  Mg2  1  0.50000000  0.75063600  0.08123200  1
  Mg  Mg3  1  0.50000000  0.24936400  0.08123200  1
  Mg  Mg4  1  0.50000000  0.00000000  0.33572400  1
  Mg  Mg5  1  0.50000000  0.50000000  0.33629900  1
  Mg  Mg6  1  0.00000000  0.74822500  0.91630500  1
  Mg  Mg7  1  0.00000000  0.25177500  0.91630500  1
  Mg  Mg8  1  0.50000000  0.25063600  0.58123200  1
  Mg  Mg9  1  0.50000000  0.74936400  0.58123200  1
  Mg  Mg10  1  0.50000000  0.50000000  0.83572400  1
  Mg  Mg11  1  0.50000000  0.00000000  0.83629900  1
  Sb  Sb0  1  0.00000000  0.50000000  0.16572900  1
  Sb  Sb1  1  0.00000000  0.00000000  0.66572900  1
loop_
_geom_bond_atom_site_label_1
_geom_bond_atom_site_label_2
_geom_bond_distance
_geom_bond_site_symmetry_2
Na0 Sb0 3.176877 1_545
Na0 Sb0 3.176877 1_555
Na1 Sb1 3.176877 1_565
Na1 Sb1 3.176877 1_555
Mg0 Mg1 3.154278 1_545
Mg0 Mg1 3.199390 1_555
Mg0 Mg4 3.207262 1_455
Mg0 Mg4 3.207262 1_555
Mg0 Mg5 3.216536 1_555
Mg0 Mg5 3.216536 1_455
Mg0 Mg8 3.241507 1_455
Mg0 Mg8 3.241507 1_555
Mg0 Na0 3.256402 1_555
Mg0 Sb1 3.259294 1_555
Mg0 Sb0 3.281764 1_555
Mg0 Na1 3.284650 1_555
Mg1 Mg4 3.207262 1_465
Mg1 Mg4 3.207262 1_565
Mg1 Mg5 3.216536 1_555
Mg1 Mg5 3.216536 1_455
Mg1 Mg9 3.241507 1_455
Mg1 Mg9 3.241507 1_555
Mg1 Na0 3.256402 1_565
Mg1 Sb1 3.259294 1_565
Mg1 Sb0 3.281764 1_555
Mg1 Na1 3.284650 1_555
Mg2 Mg3 3.168752 1_565
Mg2 Mg3 3.184916 1_555
Mg2 Sb0 3.227943 1_655
Mg2 Sb0 3.227943 1_555
Mg2 Na0 3.228941 1_565
Mg2 Na0 3.228941 1_665
Mg2 Mg6 3.241507 1_654
Mg2 Mg6 3.241507 1_554
Mg2 Mg4 3.313585 1_565
Mg2 Mg5 3.323227 1_555
Mg3 Sb0 3.227943 1_655
Mg3 Sb0 3.227943 1_555
Mg3 Na0 3.228941 1_555
Mg3 Na0 3.228941 1_655
Mg3 Mg7 3.241507 1_654
Mg3 Mg7 3.241507 1_554
Mg3 Mg4 3.313585 1_555
Mg3 Mg5 3.323227 1_555
Mg4 Mg5 3.176841 1_545
Mg4 Mg5 3.176841 1_555
Mg4 Mg9 3.227707 1_545
Mg4 Mg8 3.227707 1_555
Mg4 Na0 3.265778 1_655
Mg4 Na0 3.265778 1_555
Mg5 Mg8 3.218003 1_555
Mg5 Mg9 3.218003 1_555
Mg5 Sb0 3.279438 1_655
Mg5 Sb0 3.279438 1_555
Mg6 Mg7 3.154278 1_555
Mg6 Mg7 3.199390 1_565
Mg6 Na1 3.256402 1_555
Mg6 Sb0 3.259294 1_556
Mg6 Sb1 3.281764 1_565
Mg6 Na0 3.284650 1_566
Mg7 Na1 3.256402 1_555
Mg7 Sb0 3.259294 1_556
Mg7 Sb1 3.281764 1_555
Mg7 Na0 3.284650 1_556
Mg8 Mg9 3.168752 1_555
Mg8 Mg9 3.184916 1_545
Mg8 Sb1 3.227943 1_555
Mg8 Sb1 3.227943 1_655
Mg8 Na1 3.228941 1_555
Mg8 Na1 3.228941 1_655
Mg9 Sb1 3.227943 1_565
Mg9 Sb1 3.227943 1_665
Mg9 Na1 3.228941 1_555
Mg9 Na1 3.228941 1_655
Mg10 Mg11 3.176841 1_565
Mg10 Mg11 3.176841 1_555
Mg10 Mg6 3.207262 1_655
Mg10 Mg7 3.207262 1_555
Mg10 Mg7 3.207262 1_655
Mg10 Mg6 3.207262 1_555
Mg10 Mg2 3.227707 1_556
Mg10 Mg3 3.227707 1_556
Mg10 Na1 3.265778 1_655
Mg10 Na1 3.265778 1_555
Mg10 Mg9 3.313585 1_555
Mg10 Mg8 3.313585 1_555
Mg11 Mg7 3.216536 1_655
Mg11 Mg6 3.216536 1_645
Mg11 Mg6 3.216536 1_545
Mg11 Mg7 3.216536 1_555
Mg11 Mg3 3.218003 1_556
Mg11 Mg2 3.218003 1_546
Mg11 Sb1 3.279438 1_555
Mg11 Sb1 3.279438 1_655
Mg11 Mg9 3.323227 1_545
Mg11 Mg8 3.323227 1_555
