# generated using pymatgen
data_Cs2GdCl5
_symmetry_space_group_name_H-M   'P 1'
_cell_length_a   7.54592166
_cell_length_b   9.63014900
_cell_length_c   15.36191228
_cell_angle_alpha   90.00000000
_cell_angle_beta   90.00000000
_cell_angle_gamma   90.00000000
_symmetry_Int_Tables_number   1
_chemical_formula_structural   Cs2GdCl5
_chemical_formula_sum   'Cs8 Gd4 Cl20'
_cell_volume   1116.32481713
_cell_formula_units_Z   4
loop_
 _symmetry_equiv_pos_site_id
 _symmetry_equiv_pos_as_xyz
  1  'x, y, z'
loop_
 _atom_site_type_symbol
 _atom_site_label
 _atom_site_symmetry_multiplicity
 _atom_site_fract_x
 _atom_site_fract_y
 _atom_site_fract_z
 _atom_site_occupancy
  Cs  Cs0  1  0.25000000  0.66531402  0.91649331  1
  Cs  Cs1  1  0.75000000  0.33468598  0.08350669  1
  Cs  Cs2  1  0.75000000  0.83468598  0.41649331  1
  Cs  Cs3  1  0.25000000  0.16531402  0.58350669  1
  Cs  Cs4  1  0.25000000  0.97450664  0.21096174  1
  Cs  Cs5  1  0.75000000  0.02549336  0.78903826  1
  Cs  Cs6  1  0.75000000  0.52549336  0.71096174  1
  Cs  Cs7  1  0.25000000  0.47450664  0.28903826  1
  Gd  Gd0  1  0.25000000  0.68081692  0.56627157  1
  Gd  Gd1  1  0.75000000  0.31918308  0.43372843  1
  Gd  Gd2  1  0.75000000  0.81918308  0.06627157  1
  Gd  Gd3  1  0.25000000  0.18081692  0.93372843  1
  Cl  Cl0  1  0.25000000  0.51728102  0.70326772  1
  Cl  Cl1  1  0.75000000  0.48271898  0.29673228  1
  Cl  Cl2  1  0.75000000  0.98271898  0.20326772  1
  Cl  Cl3  1  0.25000000  0.01728102  0.79673228  1
  Cl  Cl4  1  0.50842575  0.83833885  0.61928609  1
  Cl  Cl5  1  0.49157425  0.16166115  0.38071391  1
  Cl  Cl6  1  0.49157425  0.66166115  0.11928609  1
  Cl  Cl7  1  0.00842575  0.16166115  0.38071391  1
  Cl  Cl8  1  0.50842575  0.33833885  0.88071391  1
  Cl  Cl9  1  0.99157425  0.83833885  0.61928609  1
  Cl  Cl10  1  0.99157425  0.33833885  0.88071391  1
  Cl  Cl11  1  0.00842575  0.66166115  0.11928609  1
  Cl  Cl12  1  0.25000000  0.78995675  0.40631508  1
  Cl  Cl13  1  0.75000000  0.21004325  0.59368492  1
  Cl  Cl14  1  0.75000000  0.71004325  0.90631508  1
  Cl  Cl15  1  0.25000000  0.28995675  0.09368492  1
  Cl  Cl16  1  -0.00000000  0.50000000  0.50000000  1
  Cl  Cl17  1  0.00000000  -0.00000000  0.00000000  1
  Cl  Cl18  1  0.50000000  0.50000000  0.50000000  1
  Cl  Cl19  1  0.50000000  -0.00000000  0.00000000  1
loop_
_geom_bond_atom_site_label_1
_geom_bond_atom_site_label_2
_geom_bond_distance
_geom_bond_site_symmetry_2
Cl0 Gd0 2.628545 1_555
Cl0 Cs0 3.572328 1_555
Cl0 Cs6 3.775640 1_455
Cl0 Cs6 3.775640 1_555
Cl0 Cs3 3.856603 1_555
Cl1 Gd1 2.628545 1_555
Cl1 Cs1 3.572328 1_555
Cl1 Cs7 3.775640 1_555
Cl1 Cs7 3.775640 1_655
Cl1 Cs2 3.856603 1_555
Cl2 Gd2 2.628545 1_555
Cl2 Cs2 3.572328 1_555
Cl2 Cs4 3.775640 1_655
Cl2 Cs4 3.775640 1_555
Cl2 Cs1 3.856603 1_565
Cl3 Gd3 2.628545 1_555
Cl3 Cs3 3.572328 1_555
Cl3 Cs5 3.775640 1_555
Cl3 Cs5 3.775640 1_455
Cl3 Cs0 3.856603 1_545
Cl4 Gd0 2.601376 1_555
Cl4 Cs2 3.609599 1_555
Cl4 Cs5 3.656711 1_565
Cl4 Cs3 3.744316 1_565
Cl4 Cs6 3.792488 1_555
Cl5 Gd1 2.601376 1_555
Cl5 Cs3 3.609599 1_555
Cl5 Cs4 3.656711 1_545
Cl5 Cs2 3.744316 1_545
Cl5 Cs7 3.792488 1_555
Cl6 Gd2 2.601376 1_555
Cl6 Cs0 3.609599 1_554
Cl6 Cs7 3.656711 1_555
Cl6 Cs1 3.744316 1_555
Cl6 Cs4 3.792488 1_555
Cl7 Gd1 2.601376 1_455
Cl7 Cs3 3.609599 1_555
Cl7 Cs4 3.656711 1_545
Cl7 Cs2 3.744316 1_445
Cl7 Cs7 3.792488 1_555
Cl8 Gd3 2.601376 1_555
Cl8 Cs1 3.609599 1_556
Cl8 Cs6 3.656711 1_555
Cl8 Cs0 3.744316 1_555
Cl8 Cs5 3.792488 1_555
Cl9 Gd0 2.601376 1_655
Cl9 Cs2 3.609599 1_555
Cl9 Cs5 3.656711 1_565
Cl9 Cs3 3.744316 1_665
Cl9 Cs6 3.792488 1_555
Cl10 Gd3 2.601376 1_655
Cl10 Cs1 3.609599 1_556
Cl10 Cs6 3.656711 1_555
Cl10 Cs0 3.744316 1_655
Cl10 Cs5 3.792488 1_555
Cl11 Gd2 2.601376 1_455
Cl11 Cs0 3.609599 1_554
Cl11 Cs7 3.656711 1_555
Cl11 Cs1 3.744316 1_455
Cl11 Cs4 3.792488 1_555
Cl12 Gd0 2.672580 1_555
Cl12 Cs4 3.487778 1_555
Cl12 Cs7 3.531879 1_555
Cl12 Cs2 3.800688 1_455
Cl12 Cs2 3.800688 1_555
Cl13 Gd1 2.672580 1_555
Cl13 Cs5 3.487778 1_555
Cl13 Cs6 3.531879 1_555
Cl13 Cs3 3.800688 1_555
Cl13 Cs3 3.800688 1_655
Cl14 Gd2 2.672580 1_556
Cl14 Cs6 3.487778 1_555
Cl14 Cs5 3.531879 1_565
Cl14 Cs0 3.800688 1_555
Cl14 Cs0 3.800688 1_655
Cl15 Gd3 2.672580 1_554
Cl15 Cs7 3.487778 1_555
Cl15 Cs4 3.531879 1_545
Cl15 Cs1 3.800688 1_455
Cl15 Cs1 3.800688 1_555
Cl16 Gd0 2.761767 1_555
Cl16 Gd1 2.761767 1_455
Cl16 Cs6 3.757886 1_455
Cl16 Cs7 3.757886 1_555
Cl16 Cs3 3.948754 1_555
Cl16 Cs2 3.948754 1_455
Cl17 Gd3 2.761767 1_554
Cl17 Gd2 2.761767 1_445
Cl17 Cs4 3.757886 1_545
Cl17 Cs5 3.757886 1_454
Cl17 Cs1 3.948754 1_455
Cl17 Cs0 3.948754 1_544
Cl18 Gd0 2.761767 1_555
Cl18 Gd1 2.761767 1_555
Cl18 Cs7 3.757886 1_555
Cl18 Cs6 3.757886 1_555
Cl18 Cs3 3.948754 1_555
Cl18 Cs2 3.948754 1_555
Cl19 Gd3 2.761767 1_554
Cl19 Gd2 2.761767 1_545
Cl19 Cs5 3.757886 1_554
Cl19 Cs4 3.757886 1_545
Cl19 Cs1 3.948754 1_555
Cl19 Cs0 3.948754 1_544
