# generated using pymatgen
data_FeMo2
_symmetry_space_group_name_H-M   'P 1'
_cell_length_a   13.57863882
_cell_length_b   13.26588800
_cell_length_c   5.32750620
_cell_angle_alpha   81.87111784
_cell_angle_beta   75.27374355
_cell_angle_gamma   22.85513861
_symmetry_Int_Tables_number   1
_chemical_formula_structural   FeMo2
_chemical_formula_sum   'Fe8 Mo16'
_cell_volume   349.30571769
_cell_formula_units_Z   8
loop_
 _symmetry_equiv_pos_site_id
 _symmetry_equiv_pos_as_xyz
  1  'x, y, z'
loop_
 _atom_site_type_symbol
 _atom_site_label
 _atom_site_symmetry_multiplicity
 _atom_site_fract_x
 _atom_site_fract_y
 _atom_site_fract_z
 _atom_site_occupancy
  Fe  Fe0_0  1  0.00000000  0.00000000  0.00000000  1
  Fe  Fe0_1  1  0.00000000  0.00000000  0.50000000  1
  Fe  Fe0_2  1  0.00000000  0.50000000  0.00000000  1
  Fe  Fe0_3  1  0.00000000  0.50000000  0.50000000  1
  Fe  Fe0_4  1  0.50000000  0.00000000  0.00000000  1
  Fe  Fe0_5  1  0.50000000  0.00000000  0.50000000  1
  Fe  Fe0_6  1  0.50000000  0.50000000  0.00000000  1
  Fe  Fe0_7  1  0.50000000  0.50000000  0.50000000  1
  Mo  Mo0_0  1  0.16931550  0.16931550  0.33068450  1
  Mo  Mo0_1  1  0.16931550  0.16931550  0.83068450  1
  Mo  Mo0_2  1  0.16931550  0.66931550  0.33068450  1
  Mo  Mo0_3  1  0.16931550  0.66931550  0.83068450  1
  Mo  Mo0_4  1  0.66931550  0.16931550  0.33068450  1
  Mo  Mo0_5  1  0.66931550  0.16931550  0.83068450  1
  Mo  Mo0_6  1  0.66931550  0.66931550  0.33068450  1
  Mo  Mo0_7  1  0.66931550  0.66931550  0.83068450  1
  Mo  Mo1_0  1  0.33068450  0.33068450  0.16931550  1
  Mo  Mo1_1  1  0.33068450  0.33068450  0.66931550  1
  Mo  Mo1_2  1  0.33068450  0.83068450  0.16931550  1
  Mo  Mo1_3  1  0.33068450  0.83068450  0.66931550  1
  Mo  Mo1_4  1  0.83068450  0.33068450  0.16931550  1
  Mo  Mo1_5  1  0.83068450  0.33068450  0.66931550  1
  Mo  Mo1_6  1  0.83068450  0.83068450  0.16931550  1
  Mo  Mo1_7  1  0.83068450  0.83068450  0.66931550  1
loop_
_geom_bond_atom_site_label_1
_geom_bond_atom_site_label_2
_geom_bond_distance
_geom_bond_site_symmetry_2
Fe0_0 Mo1_4 2.611650 1_455
Fe0_0 Mo1_3 2.611650 1_544
Fe0_0 Mo0_4 2.611650 1_455
Fe0_0 Mo0_3 2.611650 1_544
Fe0_0 Fe0_1 2.663753 1_554
Fe0_0 Fe0_1 2.663753 1_555
Fe0_0 Fe0_6 2.663753 1_545
Fe0_0 Fe0_6 2.663753 1_455
Fe0_1 Mo1_5 2.611650 1_455
Fe0_1 Mo1_2 2.611650 1_545
Fe0_1 Mo0_5 2.611650 1_455
Fe0_1 Mo0_2 2.611650 1_545
Fe0_1 Fe0_7 2.663753 1_455
Fe0_1 Fe0_7 2.663753 1_545
Fe0_2 Mo1_6 2.611650 1_455
Fe0_2 Mo1_1 2.611650 1_554
Fe0_2 Mo0_6 2.611650 1_455
Fe0_2 Mo0_1 2.611650 1_554
Fe0_2 Fe0_4 2.663753 1_465
Fe0_2 Fe0_3 2.663753 1_555
Fe0_2 Fe0_3 2.663753 1_554
Fe0_2 Fe0_4 2.663753 1_555
Fe0_3 Mo1_7 2.611650 1_455
Fe0_3 Mo1_0 2.611650 1_555
Fe0_3 Mo0_7 2.611650 1_455
Fe0_3 Mo0_0 2.611650 1_555
Fe0_3 Fe0_5 2.663753 1_465
Fe0_3 Fe0_5 2.663753 1_555
Fe0_4 Mo1_0 2.611650 1_555
Fe0_4 Mo1_7 2.611650 1_544
Fe0_4 Mo0_0 2.611650 1_555
Fe0_4 Mo0_7 2.611650 1_544
Fe0_4 Fe0_5 2.663753 1_554
Fe0_4 Fe0_5 2.663753 1_555
Fe0_5 Mo1_1 2.611650 1_555
Fe0_5 Mo1_6 2.611650 1_545
Fe0_5 Mo0_1 2.611650 1_555
Fe0_5 Mo0_6 2.611650 1_545
Fe0_6 Mo1_2 2.611650 1_555
Fe0_6 Mo1_5 2.611650 1_554
Fe0_6 Mo0_2 2.611650 1_555
Fe0_6 Mo0_5 2.611650 1_554
Fe0_6 Fe0_7 2.663753 1_554
Fe0_6 Fe0_7 2.663753 1_555
Fe0_7 Mo1_3 2.611650 1_555
Fe0_7 Mo1_4 2.611650 1_555
Fe0_7 Mo0_3 2.611650 1_555
Fe0_7 Mo0_4 2.611650 1_555
Mo0_0 Mo0_1 2.663753 1_554
Mo0_0 Mo0_1 2.663753 1_555
Mo0_0 Mo0_6 2.663753 1_455
Mo0_0 Mo0_6 2.663753 1_545
Mo0_0 Mo1_5 2.777419 1_455
Mo0_0 Mo1_2 2.777419 1_545
Mo0_1 Mo0_7 2.663753 1_455
Mo0_1 Mo0_7 2.663753 1_545
Mo0_1 Mo1_3 2.777419 1_545
Mo0_1 Mo1_4 2.777419 1_456
Mo0_2 Mo0_3 2.663753 1_554
Mo0_2 Mo0_4 2.663753 1_465
Mo0_2 Mo0_4 2.663753 1_555
Mo0_2 Mo0_3 2.663753 1_555
Mo0_2 Mo1_7 2.777419 1_455
Mo0_2 Mo1_0 2.777419 1_555
Mo0_3 Mo0_5 2.663753 1_465
Mo0_3 Mo0_5 2.663753 1_555
Mo0_3 Mo1_6 2.777419 1_456
Mo0_3 Mo1_1 2.777419 1_555
Mo0_4 Mo0_5 2.663753 1_554
Mo0_4 Mo0_5 2.663753 1_555
Mo0_4 Mo1_1 2.777419 1_555
Mo0_4 Mo1_6 2.777419 1_545
Mo0_5 Mo1_7 2.777419 1_545
Mo0_5 Mo1_0 2.777419 1_556
Mo0_6 Mo0_7 2.663753 1_554
Mo0_6 Mo0_7 2.663753 1_555
Mo0_6 Mo1_4 2.777419 1_555
Mo0_6 Mo1_3 2.777419 1_555
Mo0_7 Mo1_5 2.777419 1_555
Mo0_7 Mo1_2 2.777419 1_556
Mo1_0 Mo1_6 2.663753 1_545
Mo1_0 Mo1_1 2.663753 1_554
Mo1_0 Mo1_1 2.663753 1_555
Mo1_0 Mo1_6 2.663753 1_455
Mo1_1 Mo1_7 2.663753 1_545
Mo1_1 Mo1_7 2.663753 1_455
Mo1_2 Mo1_4 2.663753 1_555
Mo1_2 Mo1_3 2.663753 1_554
Mo1_2 Mo1_4 2.663753 1_465
Mo1_2 Mo1_3 2.663753 1_555
Mo1_3 Mo1_5 2.663753 1_465
Mo1_3 Mo1_5 2.663753 1_555
Mo1_4 Mo1_5 2.663753 1_554
Mo1_4 Mo1_5 2.663753 1_555
Mo1_6 Mo1_7 2.663753 1_554
Mo1_6 Mo1_7 2.663753 1_555
