# generated using pymatgen
data_VAg3O4
_symmetry_space_group_name_H-M   'P 1'
_cell_length_a   4.96127126
_cell_length_b   4.96127026
_cell_length_c   6.02113540
_cell_angle_alpha   114.32979002
_cell_angle_beta   114.32978775
_cell_angle_gamma   89.99999193
_symmetry_Int_Tables_number   1
_chemical_formula_structural   VAg3O4
_chemical_formula_sum   'V1 Ag3 O4'
_cell_volume   120.45117530
_cell_formula_units_Z   1
loop_
 _symmetry_equiv_pos_site_id
 _symmetry_equiv_pos_as_xyz
  1  'x, y, z'
loop_
 _atom_site_type_symbol
 _atom_site_label
 _atom_site_symmetry_multiplicity
 _atom_site_fract_x
 _atom_site_fract_y
 _atom_site_fract_z
 _atom_site_occupancy
  V  V0  1  0.00000000  -0.00000000  0.00000000  1
  Ag  Ag0  1  0.25000000  0.75000000  0.50000000  1
  Ag  Ag1  1  0.50000000  0.50000000  0.00000000  1
  Ag  Ag2  1  0.75000000  0.25000000  0.50000000  1
  O  O0  1  0.09992200  0.69636413  0.79628613  1
  O  O1  1  0.90007800  0.90007800  0.20371387  1
  O  O2  1  0.30363587  0.30363587  0.20371387  1
  O  O3  1  0.69636413  0.09992200  0.79628613  1
loop_
_geom_bond_atom_site_label_1
_geom_bond_atom_site_label_2
_geom_bond_distance
_geom_bond_site_symmetry_2
Ag0 O2 2.300747 1_555
Ag0 O3 2.300748 1_565
Ag0 O1 2.300748 1_455
Ag0 O0 2.300748 1_555
Ag1 O3 2.317747 1_554
Ag1 O1 2.317747 1_555
Ag1 O0 2.317747 1_554
Ag1 O2 2.317747 1_555
Ag2 O0 2.300748 1_655
Ag2 O1 2.300748 1_545
Ag2 O2 2.300748 1_555
Ag2 O3 2.300748 1_555
O0 V0 1.731504 1_566
O1 V0 1.731504 1_665
O2 V0 1.731504 1_555
O3 V0 1.731504 1_656
