# generated using pymatgen
data_RbLiCu2H3(SO5)2
_symmetry_space_group_name_H-M   'P 1'
_cell_length_a   5.87327050
_cell_length_b   5.84388473
_cell_length_c   8.52732880
_cell_angle_alpha   61.42624222
_cell_angle_beta   93.70159815
_cell_angle_gamma   113.69778566
_symmetry_Int_Tables_number   1
_chemical_formula_structural   RbLiCu2H3(SO5)2
_chemical_formula_sum   'Rb1 Li1 Cu2 H3 S2 O10'
_cell_volume   232.37445204
_cell_formula_units_Z   1
loop_
 _symmetry_equiv_pos_site_id
 _symmetry_equiv_pos_as_xyz
  1  'x, y, z'
loop_
 _atom_site_type_symbol
 _atom_site_label
 _atom_site_symmetry_multiplicity
 _atom_site_fract_x
 _atom_site_fract_y
 _atom_site_fract_z
 _atom_site_occupancy
  Rb  Rb0  1  0.46562700  0.00317700  0.53261900  1
  Li  Li0  1  0.13375200  0.55719300  0.31091300  1
  Cu  Cu0  1  0.01895400  0.48460600  0.98909800  1
  Cu  Cu1  1  0.53075400  0.98911900  0.98972900  1
  H  H0  1  0.74401500  0.53556300  0.72085300  1
  H  H1  1  0.38138900  0.44716800  0.15926100  1
  H  H2  1  0.59856900  0.52661100  0.87409100  1
  S  S0  1  0.07850100  0.17548200  0.74572900  1
  S  S1  1  0.87574500  0.81970000  0.30753600  1
  O  O0  1  0.79893300  0.02250700  0.79478800  1
  O  O1  1  0.18188200  0.40589400  0.79545500  1
  O  O2  1  0.15626100  0.94577300  0.27588600  1
  O  O3  1  0.78353600  0.57022200  0.27567500  1
  O  O4  1  0.70165200  0.44158200  0.85613300  1
  O  O5  1  0.30387600  0.58181200  0.11243900  1
  O  O6  1  0.18924500  0.95851300  0.84946000  1
  O  O7  1  0.78654600  0.04427500  0.17282100  1
  O  O8  1  0.15374600  0.29808400  0.54981000  1
  O  O9  1  0.77566400  0.73364000  0.49170400  1
loop_
_geom_bond_atom_site_label_1
_geom_bond_atom_site_label_2
_geom_bond_distance
_geom_bond_site_symmetry_2
Li0 O8 1.902081 1_555
Li0 O5 1.937355 1_555
Li0 O3 2.085948 1_455
Li0 O2 2.092432 1_555
Cu0 O5 1.951770 1_556
Cu0 O4 2.108325 1_455
Cu0 O7 2.129692 1_456
Cu0 O6 2.204727 1_555
Cu0 O1 2.266792 1_555
Cu1 O5 1.945287 1_556
Cu1 O4 2.104663 1_565
Cu1 O7 2.141916 1_566
Cu1 O0 2.250129 1_565
Cu1 O6 2.256617 1_555
H0 O4 1.007695 1_555
H1 O5 0.974549 1_555
H2 O4 0.981576 1_555
O0 S0 1.490408 1_655
O0 Rb0 2.888182 1_555
O1 S0 1.489052 1_555
O1 Rb0 2.882186 1_565
O2 S1 1.490486 1_455
O2 Rb0 2.811714 1_565
O3 S1 1.489254 1_555
O3 Rb0 2.806655 1_555
O6 S0 1.526085 1_565
O6 Rb0 3.090957 1_565
O7 S1 1.532736 1_545
O8 S0 1.481744 1_555
O8 Rb0 3.026692 1_555
O9 S1 1.480146 1_555
O9 Rb0 2.971847 1_565
