# generated using pymatgen
data_Ta3MnN4
_symmetry_space_group_name_H-M   'P 1'
_cell_length_a   3.01811006
_cell_length_b   3.01811006
_cell_length_c   10.80002600
_cell_angle_alpha   90.00000000
_cell_angle_beta   90.00000000
_cell_angle_gamma   120.00000130
_symmetry_Int_Tables_number   1
_chemical_formula_structural   Ta3MnN4
_chemical_formula_sum   'Ta3 Mn1 N4'
_cell_volume   85.19724919
_cell_formula_units_Z   1
loop_
 _symmetry_equiv_pos_site_id
 _symmetry_equiv_pos_as_xyz
  1  'x, y, z'
loop_
 _atom_site_type_symbol
 _atom_site_label
 _atom_site_symmetry_multiplicity
 _atom_site_fract_x
 _atom_site_fract_y
 _atom_site_fract_z
 _atom_site_occupancy
  Ta  Ta0  1  0.33333300  0.66666700  0.75588200  1
  Ta  Ta1  1  0.66666700  0.33333300  0.24411800  1
  Ta  Ta2  1  0.00000000  0.00000000  0.50000000  1
  Mn  Mn0  1  0.00000000  0.00000000  0.00000000  1
  N  N0  1  0.33333300  0.66666700  0.37117400  1
  N  N1  1  0.66666700  0.33333300  0.62882600  1
  N  N2  1  0.66666700  0.33333300  0.87519600  1
  N  N3  1  0.33333300  0.66666700  0.12480400  1
loop_
_geom_bond_atom_site_label_1
_geom_bond_atom_site_label_2
_geom_bond_distance
_geom_bond_site_symmetry_2
Mn0 N2 2.202980 1_454
Mn0 N3 2.202980 1_545
Mn0 N3 2.202982 1_555
Mn0 N3 2.202982 1_445
Mn0 N2 2.202982 1_554
Mn0 N2 2.202982 1_444
N0 Ta1 2.217945 1_565
N0 Ta1 2.217945 1_455
N0 Ta1 2.217949 1_555
N0 Ta2 2.229822 1_565
N0 Ta2 2.229824 1_555
N0 Ta2 2.229824 1_665
N1 Ta0 2.217945 1_545
N1 Ta0 2.217945 1_655
N1 Ta0 2.217949 1_555
N1 Ta2 2.229822 1_655
N1 Ta2 2.229824 1_555
N1 Ta2 2.229824 1_665
N2 Ta0 2.167210 1_545
N2 Ta0 2.167210 1_655
N2 Ta0 2.167214 1_555
N3 Ta1 2.167210 1_455
N3 Ta1 2.167210 1_565
N3 Ta1 2.167214 1_555
