# generated using pymatgen
data_PC2NO4
_symmetry_space_group_name_H-M   'P 1'
_cell_length_a   10.03840700
_cell_length_b   7.63483300
_cell_length_c   10.27429198
_cell_angle_alpha   73.70421648
_cell_angle_beta   90.00000000
_cell_angle_gamma   90.00000000
_symmetry_Int_Tables_number   1
_chemical_formula_structural   PC2NO4
_chemical_formula_sum   'P4 C8 N4 O16'
_cell_volume   755.80320664
_cell_formula_units_Z   4
loop_
 _symmetry_equiv_pos_site_id
 _symmetry_equiv_pos_as_xyz
  1  'x, y, z'
loop_
 _atom_site_type_symbol
 _atom_site_label
 _atom_site_symmetry_multiplicity
 _atom_site_fract_x
 _atom_site_fract_y
 _atom_site_fract_z
 _atom_site_occupancy
  P  P0  1  0.47681400  0.32273400  0.27074900  1
  P  P1  1  0.97681400  0.17726600  0.72925100  1
  P  P2  1  0.52318600  0.67726600  0.72925100  1
  P  P3  1  0.02318600  0.82273400  0.27074900  1
  C  C0  1  0.91985100  0.50068700  0.25114700  1
  C  C1  1  0.41985100  0.99931300  0.74885300  1
  C  C2  1  0.08014900  0.49931300  0.74885300  1
  C  C3  1  0.58014900  0.00068700  0.25114700  1
  C  C4  1  0.04144400  0.39617000  0.28829800  1
  C  C5  1  0.54144400  0.10383000  0.71170200  1
  C  C6  1  0.95855600  0.60383000  0.71170200  1
  C  C7  1  0.45855600  0.89617000  0.28829800  1
  N  N0  1  0.14094900  0.31492400  0.30968600  1
  N  N1  1  0.64094900  0.18507600  0.69031400  1
  N  N2  1  0.85905100  0.68507600  0.69031400  1
  N  N3  1  0.35905100  0.81492400  0.30968600  1
  O  O0  1  0.44353700  0.24062700  0.41357100  1
  O  O1  1  0.94353700  0.25937300  0.58642900  1
  O  O2  1  0.55646300  0.75937300  0.58642900  1
  O  O3  1  0.05646300  0.74062700  0.41357100  1
  O  O4  1  0.45983100  0.50192600  0.17356600  1
  O  O5  1  0.95983100  0.99807400  0.82643400  1
  O  O6  1  0.54016900  0.49807400  0.82643400  1
  O  O7  1  0.04016900  0.00192600  0.17356600  1
  O  O8  1  0.55732700  0.18857100  0.20122700  1
  O  O9  1  0.05732700  0.31142900  0.79877300  1
  O  O10  1  0.44267300  0.81142900  0.79877300  1
  O  O11  1  0.94267300  0.68857100  0.20122700  1
  O  O12  1  0.81053800  0.43775700  0.24942800  1
  O  O13  1  0.31053800  0.06224300  0.75057200  1
  O  O14  1  0.18946200  0.56224300  0.75057200  1
  O  O15  1  0.68946200  0.93775700  0.24942800  1
loop_
_geom_bond_atom_site_label_1
_geom_bond_atom_site_label_2
_geom_bond_distance
_geom_bond_site_symmetry_2
C0 O12 1.200019 1_555
C0 O11 1.400123 1_555
C0 C4 1.449615 1_655
C1 O13 1.200019 1_565
C1 O10 1.400123 1_555
C1 C5 1.449615 1_565
C2 O14 1.200019 1_555
C2 O9 1.400123 1_555
C2 C6 1.449615 1_455
C3 O15 1.200019 1_545
C3 O8 1.400123 1_555
C3 C7 1.449615 1_545
C4 N0 1.163748 1_555
C5 N1 1.163748 1_555
C6 N2 1.163748 1_555
C7 N3 1.163748 1_555
O0 P0 1.463414 1_555
O1 P1 1.463414 1_555
O2 P2 1.463414 1_555
O3 P3 1.463414 1_555
O4 P0 1.459841 1_555
O5 P1 1.459841 1_565
O6 P2 1.459841 1_555
O7 P3 1.459841 1_545
O8 P0 1.619644 1_555
O9 P1 1.619644 1_455
O10 P2 1.619644 1_555
O11 P3 1.619644 1_655
