# generated using pymatgen
data_SmZr6(PO4)9
_symmetry_space_group_name_H-M   'P 1'
_cell_length_a   8.93139156
_cell_length_b   8.93139156
_cell_length_c   23.17709403
_cell_angle_alpha   90.00000000
_cell_angle_beta   90.00000000
_cell_angle_gamma   120.00000102
_symmetry_Int_Tables_number   1
_chemical_formula_structural   SmZr6(PO4)9
_chemical_formula_sum   'Sm2 Zr12 P18 O72'
_cell_volume   1601.13469735
_cell_formula_units_Z   2
loop_
 _symmetry_equiv_pos_site_id
 _symmetry_equiv_pos_as_xyz
  1  'x, y, z'
loop_
 _atom_site_type_symbol
 _atom_site_label
 _atom_site_symmetry_multiplicity
 _atom_site_fract_x
 _atom_site_fract_y
 _atom_site_fract_z
 _atom_site_occupancy
  Sm  Sm0  1  0.00000000  0.00000000  -0.00000000  1
  Sm  Sm1  1  0.00000000  0.00000000  0.50000000  1
  Zr  Zr0  1  0.66666700  0.33333300  0.97336898  1
  Zr  Zr1  1  0.33333300  0.66666700  0.02663102  1
  Zr  Zr2  1  0.33333300  0.66666700  0.52663102  1
  Zr  Zr3  1  0.66666700  0.33333300  0.47336898  1
  Zr  Zr4  1  0.00000000  0.00000000  0.84987124  1
  Zr  Zr5  1  0.00000000  0.00000000  0.15012876  1
  Zr  Zr6  1  0.00000000  0.00000000  0.65012876  1
  Zr  Zr7  1  0.00000000  0.00000000  0.34987124  1
  Zr  Zr8  1  0.66666700  0.33333300  0.68691331  1
  Zr  Zr9  1  0.33333300  0.66666700  0.31308669  1
  Zr  Zr10  1  0.33333300  0.66666700  0.81308669  1
  Zr  Zr11  1  0.66666700  0.33333300  0.18691331  1
  P  P0  1  0.62605349  0.94680535  0.92067325  1
  P  P1  1  0.37394651  0.05319465  0.07932675  1
  P  P2  1  0.32075187  0.37394651  0.92067325  1
  P  P3  1  0.67924813  0.05319465  0.57932675  1
  P  P4  1  0.67924813  0.62605349  0.07932675  1
  P  P5  1  0.32075187  0.94680535  0.42067325  1
  P  P6  1  0.05319465  0.67924813  0.92067325  1
  P  P7  1  0.94680535  0.62605349  0.57932675  1
  P  P8  1  0.94680535  0.32075187  0.07932675  1
  P  P9  1  0.05319465  0.37394651  0.42067325  1
  P  P10  1  0.37394651  0.32075187  0.57932675  1
  P  P11  1  0.62605349  0.67924813  0.42067325  1
  P  P12  1  0.70776015  0.70776015  0.75000000  1
  P  P13  1  0.29223985  0.29223985  0.25000000  1
  P  P14  1  0.00000000  0.29223985  0.75000000  1
  P  P15  1  1.00000000  0.70776015  0.25000000  1
  P  P16  1  0.29223985  0.00000000  0.75000000  1
  P  P17  1  0.70776015  1.00000000  0.25000000  1
  O  O0  1  0.54697764  0.82724612  0.97306213  1
  O  O1  1  0.45302236  0.17275388  0.02693787  1
  O  O2  1  0.28026848  0.45302236  0.97306213  1
  O  O3  1  0.71973152  0.17275388  0.52693787  1
  O  O4  1  0.71973152  0.54697764  0.02693787  1
  O  O5  1  0.28026848  0.82724612  0.47306213  1
  O  O6  1  0.17275388  0.71973152  0.97306213  1
  O  O7  1  0.82724612  0.54697764  0.52693787  1
  O  O8  1  0.82724612  0.28026848  0.02693787  1
  O  O9  1  0.17275388  0.45302236  0.47306213  1
  O  O10  1  0.45302236  0.28026848  0.52693787  1
  O  O11  1  0.54697764  0.71973152  0.47306213  1
  O  O12  1  0.62297908  0.11630745  0.92719589  1
  O  O13  1  0.37702092  0.88369255  0.07280411  1
  O  O14  1  0.49332837  0.37702092  0.92719589  1
  O  O15  1  0.50667163  0.88369255  0.57280411  1
  O  O16  1  0.50667163  0.62297908  0.07280411  1
  O  O17  1  0.49332837  0.11630745  0.42719589  1
  O  O18  1  0.88369255  0.50667163  0.92719589  1
  O  O19  1  0.11630745  0.62297908  0.57280411  1
  O  O20  1  0.11630745  0.49332837  0.07280411  1
  O  O21  1  0.88369255  0.37702092  0.42719589  1
  O  O22  1  0.37702092  0.49332837  0.57280411  1
  O  O23  1  0.62297908  0.50667163  0.42719589  1
  O  O24  1  0.82252545  0.99314001  0.91951849  1
  O  O25  1  0.17747455  0.00685999  0.08048151  1
  O  O26  1  0.17061456  0.17747455  0.91951849  1
  O  O27  1  0.82938544  0.00685999  0.58048151  1
  O  O28  1  0.82938544  0.82252545  0.08048151  1
  O  O29  1  0.17061456  0.99314001  0.41951849  1
  O  O30  1  0.00685999  0.82938544  0.91951849  1
  O  O31  1  0.99314001  0.82252545  0.58048151  1
  O  O32  1  0.99314001  0.17061456  0.08048151  1
  O  O33  1  0.00685999  0.17747455  0.41951849  1
  O  O34  1  0.17747455  0.17061456  0.58048151  1
  O  O35  1  0.82252545  0.82938544  0.41951849  1
  O  O36  1  0.96908946  0.17428029  0.80360708  1
  O  O37  1  0.03091054  0.82571971  0.19639292  1
  O  O38  1  0.20519083  0.03091054  0.80360708  1
  O  O39  1  0.79480917  0.82571971  0.69639292  1
  O  O40  1  0.79480917  0.96908946  0.19639292  1
  O  O41  1  0.20519083  0.17428029  0.30360708  1
  O  O42  1  0.82571971  0.79480917  0.80360708  1
  O  O43  1  0.17428029  0.96908946  0.69639292  1
  O  O44  1  0.17428029  0.20519083  0.19639292  1
  O  O45  1  0.82571971  0.03091054  0.30360708  1
  O  O46  1  0.03091054  0.20519083  0.69639292  1
  O  O47  1  0.96908946  0.79480917  0.30360708  1
  O  O48  1  0.53543202  0.85593034  0.86463576  1
  O  O49  1  0.46456798  0.14406966  0.13536424  1
  O  O50  1  0.32049832  0.46456798  0.86463576  1
  O  O51  1  0.67950168  0.14406966  0.63536424  1
  O  O52  1  0.67950168  0.53543202  0.13536424  1
  O  O53  1  0.32049832  0.85593034  0.36463576  1
  O  O54  1  0.14406966  0.67950168  0.86463576  1
  O  O55  1  0.85593034  0.53543202  0.63536424  1
  O  O56  1  0.85593034  0.32049832  0.13536424  1
  O  O57  1  0.14406966  0.46456798  0.36463576  1
  O  O58  1  0.46456798  0.32049832  0.63536424  1
  O  O59  1  0.53543202  0.67950168  0.36463576  1
  O  O60  1  0.53171741  0.69077771  0.76036784  1
  O  O61  1  0.46828259  0.30922229  0.23963216  1
  O  O62  1  0.15906030  0.46828259  0.76036784  1
  O  O63  1  0.84093970  0.30922229  0.73963216  1
  O  O64  1  0.84093970  0.53171741  0.23963216  1
  O  O65  1  0.15906030  0.69077771  0.26036784  1
  O  O66  1  0.30922229  0.84093970  0.76036784  1
  O  O67  1  0.69077771  0.53171741  0.73963216  1
  O  O68  1  0.69077771  0.15906030  0.23963216  1
  O  O69  1  0.30922229  0.46828259  0.26036784  1
  O  O70  1  0.46828259  0.15906030  0.73963216  1
  O  O71  1  0.53171741  0.84093970  0.26036784  1
loop_
_geom_bond_atom_site_label_1
_geom_bond_atom_site_label_2
_geom_bond_distance
_geom_bond_site_symmetry_2
O0 P0 1.535980 1_555
O0 Zr1 2.121975 1_556
O1 P1 1.535980 1_555
O1 Zr0 2.121975 1_554
O2 P2 1.535980 1_555
O2 Zr1 2.121977 1_556
O3 P3 1.535979 1_555
O3 Zr3 2.121970 1_555
O4 P4 1.535980 1_555
O4 Zr0 2.121977 1_554
O5 P5 1.535979 1_555
O5 Zr2 2.121970 1_555
O6 P6 1.535979 1_555
O6 Zr1 2.121970 1_556
O7 P7 1.535980 1_555
O7 Zr3 2.121975 1_555
O8 P8 1.535979 1_555
O8 Zr0 2.121970 1_554
O9 P9 1.535980 1_555
O9 Zr2 2.121975 1_555
O10 P10 1.535980 1_555
O10 Zr3 2.121977 1_555
O11 P11 1.535980 1_555
O11 Zr2 2.121977 1_555
O12 P0 1.535265 1_545
O12 Zr0 2.073240 1_555
O13 P1 1.535265 1_565
O13 Zr1 2.073240 1_555
O14 P2 1.535265 1_555
O14 Zr0 2.073247 1_555
O15 P3 1.535265 1_565
O15 Zr2 2.073242 1_555
O16 P4 1.535265 1_555
O16 Zr1 2.073247 1_555
O17 P5 1.535265 1_545
O17 Zr3 2.073242 1_555
O18 P6 1.535265 1_655
O18 Zr0 2.073242 1_555
O19 P7 1.535265 1_455
O19 Zr2 2.073240 1_555
O20 P8 1.535265 1_455
O20 Zr1 2.073242 1_555
O21 P9 1.535265 1_655
O21 Zr3 2.073240 1_555
O22 P10 1.535265 1_555
O22 Zr2 2.073247 1_555
O23 P11 1.535265 1_555
O23 Zr3 2.073247 1_555
O24 P0 1.589026 1_555
O24 Zr4 2.241622 1_665
O24 Sm0 2.428705 1_666
O25 P1 1.589026 1_555
O25 Zr5 2.241622 1_555
O25 Sm0 2.428705 1_555
O26 P2 1.589026 1_555
O26 Zr4 2.241622 1_555
O26 Sm0 2.428705 1_556
O27 P3 1.589026 1_555
O27 Zr6 2.241622 1_655
O27 Sm1 2.428705 1_655
O28 P4 1.589026 1_555
O28 Zr5 2.241622 1_665
O28 Sm0 2.428705 1_665
O29 P5 1.589026 1_555
O29 Zr7 2.241622 1_565
O29 Sm1 2.428705 1_565
O30 P6 1.589026 1_555
O30 Zr4 2.241622 1_565
O30 Sm0 2.428705 1_566
O31 P7 1.589026 1_555
O31 Zr6 2.241622 1_665
O31 Sm1 2.428705 1_665
O32 P8 1.589026 1_555
O32 Zr5 2.241622 1_655
O32 Sm0 2.428705 1_655
O33 P9 1.589026 1_555
O33 Zr7 2.241622 1_555
O33 Sm1 2.428705 1_555
O34 P10 1.589026 1_555
O34 Zr6 2.241622 1_555
O34 Sm1 2.428705 1_555
O35 P11 1.589026 1_555
O35 Zr7 2.241622 1_665
O35 Sm1 2.428705 1_665
O36 P14 1.561734 1_655
O36 Zr4 2.019555 1_655
O37 P15 1.561734 1_455
O37 Zr5 2.019555 1_565
O38 P16 1.561734 1_555
O38 Zr4 2.019555 1_555
O39 P12 1.561734 1_555
O39 Zr6 2.019555 1_665
O40 P17 1.561734 1_555
O40 Zr5 2.019555 1_665
O41 P13 1.561734 1_555
O41 Zr7 2.019555 1_555
O42 P12 1.561734 1_555
O42 Zr4 2.019555 1_665
O43 P16 1.561734 1_565
O43 Zr6 2.019555 1_565
O44 P13 1.561734 1_555
O44 Zr5 2.019555 1_555
O45 P17 1.561734 1_545
O45 Zr7 2.019555 1_655
O46 P14 1.561734 1_555
O46 Zr6 2.019555 1_555
O47 P15 1.561734 1_555
O47 Zr7 2.019555 1_665
O48 P0 1.530938 1_555
O48 Zr10 2.119381 1_555
O49 P1 1.530938 1_555
O49 Zr11 2.119381 1_555
O50 P2 1.530939 1_555
O50 Zr10 2.119384 1_555
O51 P3 1.530938 1_555
O51 Zr8 2.119377 1_555
O52 P4 1.530939 1_555
O52 Zr11 2.119384 1_555
O53 P5 1.530938 1_555
O53 Zr9 2.119377 1_555
O54 P6 1.530938 1_555
O54 Zr10 2.119377 1_555
O55 P7 1.530938 1_555
O55 Zr8 2.119381 1_555
O56 P8 1.530938 1_555
O56 Zr11 2.119377 1_555
O57 P9 1.530938 1_555
O57 Zr9 2.119381 1_555
O58 P10 1.530939 1_555
O58 Zr8 2.119384 1_555
O59 P11 1.530939 1_555
O59 Zr9 2.119384 1_555
O60 P12 1.521320 1_555
O60 Zr10 2.072977 1_555
O61 P13 1.521320 1_555
O61 Zr11 2.072977 1_555
O62 P14 1.521320 1_555
O62 Zr10 2.072974 1_555
O63 P14 1.521320 1_655
O63 Zr8 2.072970 1_555
O64 P15 1.521320 1_555
O64 Zr11 2.072974 1_555
O65 P15 1.521320 1_455
O65 Zr9 2.072970 1_555
O66 P16 1.521320 1_565
O66 Zr10 2.072970 1_555
O67 P12 1.521320 1_555
O67 Zr8 2.072977 1_555
O68 P17 1.521320 1_545
O68 Zr11 2.072970 1_555
O69 P13 1.521320 1_555
O69 Zr9 2.072977 1_555
O70 P16 1.521320 1_555
O70 Zr8 2.072974 1_555
O71 P17 1.521320 1_555
O71 Zr9 2.072974 1_555
