# generated using pymatgen
data_Na3U2H28S10N9O44
_symmetry_space_group_name_H-M   'P 1'
_cell_length_a   9.27132900
_cell_length_b   10.14425791
_cell_length_c   13.44042928
_cell_angle_alpha   93.71718321
_cell_angle_beta   103.23586046
_cell_angle_gamma   108.60492551
_symmetry_Int_Tables_number   1
_chemical_formula_structural   Na3U2H28S10N9O44
_chemical_formula_sum   'Na3 U2 H28 S10 N9 O44'
_cell_volume   1153.10065767
_cell_formula_units_Z   1
loop_
 _symmetry_equiv_pos_site_id
 _symmetry_equiv_pos_as_xyz
  1  'x, y, z'
loop_
 _atom_site_type_symbol
 _atom_site_label
 _atom_site_symmetry_multiplicity
 _atom_site_fract_x
 _atom_site_fract_y
 _atom_site_fract_z
 _atom_site_occupancy
  Na  Na0  1  0.98471500  0.26198400  0.20931100  1
  Na  Na1  1  0.01528500  0.73801600  0.79068900  1
  Na  Na2  1  0.00000000  0.50000000  0.00000000  1
  U  U0  1  0.46830700  0.35083200  0.27214800  1
  U  U1  1  0.53169300  0.64916800  0.72785200  1
  H  H0  1  0.04866000  0.62430200  0.43357800  1
  H  H1  1  0.95134000  0.37569800  0.56642200  1
  H  H2  1  0.46516500  0.73161600  0.10769200  1
  H  H3  1  0.53483500  0.26838400  0.89230800  1
  H  H4  1  0.13505900  0.97689600  0.18423200  1
  H  H5  1  0.86494100  0.02310400  0.81576800  1
  H  H6  1  0.22239100  0.22531100  0.74325900  1
  H  H7  1  0.77760900  0.77468900  0.25674100  1
  H  H8  1  0.26159900  0.89417900  0.23338000  1
  H  H9  1  0.73840100  0.10582100  0.76662000  1
  H  H10  1  0.13727100  0.80192300  0.46254800  1
  H  H11  1  0.86272900  0.19807700  0.53745200  1
  H  H12  1  0.06282000  0.80349400  0.20316800  1
  H  H13  1  0.93718000  0.19650600  0.79683200  1
  H  H14  1  0.50324400  0.68773800  0.00570300  1
  H  H15  1  0.49675600  0.31226200  0.99429700  1
  H  H16  1  0.33847200  0.12704700  0.72425100  1
  H  H17  1  0.66152800  0.87295300  0.27574900  1
  H  H18  1  0.23341100  0.17843100  0.62414300  1
  H  H19  1  0.76658900  0.82156900  0.37585700  1
  H  H20  1  0.16363000  0.70350000  0.55546200  1
  H  H21  1  0.83637000  0.29650000  0.44453800  1
  H  H22  1  0.01587000  0.27910900  0.49105000  1
  H  H23  1  0.98413000  0.72089100  0.50895000  1
  H  H24  1  0.15582000  0.84927800  0.11067300  1
  H  H25  1  0.84418000  0.15072200  0.88932700  1
  H  H26  1  0.13907900  0.05504400  0.68899300  1
  H  H27  1  0.86092100  0.94495600  0.31100700  1
  S  S0  1  0.13993200  0.48725600  0.76540700  1
  S  S1  1  0.86006800  0.51274400  0.23459300  1
  S  S2  1  0.31705100  0.58583600  0.27477800  1
  S  S3  1  0.68294900  0.41416400  0.72522200  1
  S  S4  1  0.58983800  0.10609300  0.24302200  1
  S  S5  1  0.41016200  0.89390700  0.75697800  1
  S  S6  1  0.19319300  0.12703200  0.40736200  1
  S  S7  1  0.80680700  0.87296800  0.59263800  1
  S  S8  1  0.19576000  0.24190300  0.05761100  1
  S  S9  1  0.80424000  0.75809700  0.94238900  1
  N  N0  1  0.30809400  0.89379400  0.99875100  1
  N  N1  1  0.69190600  0.10620600  0.00124900  1
  N  N2  1  0.23468400  0.14670100  0.69641000  1
  N  N3  1  0.76531600  0.85329900  0.30359000  1
  N  N4  1  0.15287600  0.88114100  0.18415100  1
  N  N5  1  0.84712400  0.11885900  0.81584900  1
  N  N6  1  0.50000000  0.00000000  0.50000000  1
  N  N7  1  0.08360400  0.71160600  0.49056100  1
  N  N8  1  0.91639600  0.28839400  0.50943900  1
  O  O0  1  0.42850200  0.55964100  0.59744200  1
  O  O1  1  0.57149800  0.44035900  0.40255800  1
  O  O2  1  0.31718200  0.67351900  0.36551900  1
  O  O3  1  0.68281800  0.32648100  0.63448100  1
  O  O4  1  0.03953700  0.08942000  0.32868600  1
  O  O5  1  0.96046300  0.91058000  0.67131400  1
  O  O6  1  0.19934000  0.22370800  0.49603300  1
  O  O7  1  0.80066000  0.77629200  0.50396700  1
  O  O8  1  0.17534000  0.17027700  0.15011100  1
  O  O9  1  0.82466000  0.82972300  0.84988900  1
  O  O10  1  0.47546800  0.15615900  0.16792700  1
  O  O11  1  0.52453200  0.84384100  0.83207300  1
  O  O12  1  0.49148200  0.03908000  0.74311000  1
  O  O13  1  0.50851800  0.96092000  0.25689000  1
  O  O14  1  0.32181000  0.19463500  0.35694100  1
  O  O15  1  0.67819000  0.80536500  0.64305900  1
  O  O16  1  0.48103200  0.60342500  0.26505100  1
  O  O17  1  0.51896800  0.39657500  0.73494900  1
  O  O18  1  0.22573600  0.61853000  0.18045300  1
  O  O19  1  0.77426400  0.38147000  0.81954700  1
  O  O20  1  0.06245300  0.52561900  0.66834200  1
  O  O21  1  0.93754700  0.47438100  0.33165800  1
  O  O22  1  0.25199200  0.42955000  0.28303700  1
  O  O23  1  0.74800800  0.57045000  0.71696300  1
  O  O24  1  0.73320300  0.12017500  0.21074500  1
  O  O25  1  0.26679700  0.87982500  0.78925500  1
  O  O26  1  0.09766700  0.33347500  0.76174100  1
  O  O27  1  0.90233300  0.66652500  0.23825900  1
  O  O28  1  0.67954400  0.45412200  0.22306400  1
  O  O29  1  0.32045600  0.54587800  0.77693600  1
  O  O30  1  0.19588500  0.15053100  0.96933100  1
  O  O31  1  0.80411500  0.84946900  0.03066900  1
  O  O32  1  0.62705800  0.21011500  0.34033500  1
  O  O33  1  0.37294200  0.78988500  0.65966500  1
  O  O34  1  0.88659700  0.44380900  0.14468600  1
  O  O35  1  0.11340300  0.55619100  0.85531400  1
  O  O36  1  0.41762500  0.69598300  0.03431400  1
  O  O37  1  0.58237500  0.30401700  0.96568600  1
  O  O38  1  0.21837800  0.99535400  0.43869300  1
  O  O39  1  0.78162200  0.00464600  0.56130700  1
  O  O40  1  0.07418700  0.30779000  0.03077300  1
  O  O41  1  0.92581300  0.69221000  0.96922700  1
  O  O42  1  0.36035400  0.35743100  0.09872200  1
  O  O43  1  0.63964600  0.64256900  0.90127800  1
loop_
_geom_bond_atom_site_label_1
_geom_bond_atom_site_label_2
_geom_bond_distance
_geom_bond_site_symmetry_2
Na0 O24 2.321866 1_555
Na0 O34 2.429119 1_555
Na0 O22 2.445676 1_655
Na0 O8 2.493821 1_655
Na0 O4 2.540758 1_655
Na0 O40 2.733565 1_655
Na0 O21 2.829972 1_555
Na1 O25 2.321866 1_555
Na1 O35 2.429119 1_555
Na1 O23 2.445676 1_455
Na1 O9 2.493821 1_455
Na1 O5 2.540758 1_455
Na1 O41 2.733565 1_455
Na1 O20 2.829972 1_555
Na2 O40 2.296959 1_555
Na2 O41 2.296959 1_454
Na2 O34 2.430959 1_455
Na2 O35 2.430959 1_554
Na2 O18 2.720302 1_555
Na2 O19 2.720302 1_454
H0 N7 1.044616 1_555
H1 N8 1.044616 1_555
H2 O36 0.975010 1_555
H3 O37 0.975010 1_555
H4 N4 1.035937 1_555
H5 N5 1.035937 1_555
H6 N2 1.034956 1_555
H7 N3 1.034956 1_555
H8 N4 1.034183 1_555
H9 N5 1.034183 1_555
H10 N7 1.033625 1_555
H11 N8 1.033625 1_555
H12 N4 1.042625 1_555
H13 N5 1.042625 1_555
H14 O36 0.981308 1_555
H15 O37 0.981308 1_555
H16 N2 1.035813 1_555
H17 N3 1.035813 1_555
H18 N2 1.041575 1_555
H19 N3 1.041575 1_555
H20 N7 1.034415 1_555
H21 N8 1.034415 1_555
H22 N8 1.037932 1_455
H23 N7 1.037932 1_655
H24 N4 1.028158 1_555
H25 N5 1.028158 1_555
H26 N2 1.040083 1_555
H27 N3 1.040083 1_555
O0 U1 1.812069 1_555
O1 U0 1.812069 1_555
O2 S2 1.461700 1_555
O3 S3 1.461700 1_555
O4 S6 1.484676 1_555
O5 S7 1.484676 1_555
O6 S6 1.472090 1_555
O7 S7 1.472090 1_555
O8 S8 1.498853 1_555
O8 U0 2.796196 1_555
O9 S9 1.498853 1_555
O9 U1 2.796196 1_555
O10 S4 1.523494 1_555
O10 U0 2.373611 1_555
O11 S5 1.523494 1_555
O11 U1 2.373611 1_555
O12 S5 1.470854 1_545
O13 S4 1.470854 1_565
O14 S6 1.503327 1_555
O14 U0 2.285600 1_555
O15 S7 1.503327 1_555
O15 U1 2.285600 1_555
O16 S2 1.510383 1_555
O16 U0 2.536277 1_555
O17 S3 1.510383 1_555
O17 U1 2.536277 1_555
O18 S2 1.475187 1_555
O19 S3 1.475187 1_555
O20 S0 1.478003 1_555
O21 S1 1.478003 1_555
O22 S2 1.527400 1_555
O22 U0 2.412955 1_555
O23 S3 1.527400 1_555
O23 U1 2.412955 1_555
O24 S4 1.458170 1_555
O25 S5 1.458170 1_555
O26 S0 1.476719 1_555
O27 S1 1.476719 1_555
O28 S1 1.553421 1_555
O28 U0 2.177270 1_555
O29 S0 1.553421 1_555
O29 U1 2.177270 1_555
O30 S8 1.457975 1_556
O31 S9 1.457975 1_554
O32 S4 1.524886 1_555
O32 U0 2.436477 1_555
O33 S5 1.524886 1_555
O33 U1 2.436477 1_555
O34 S1 1.464921 1_555
O35 S0 1.464921 1_555
O38 S6 1.497689 1_565
O39 S7 1.497689 1_545
O40 S8 1.474135 1_555
O41 S9 1.474135 1_555
O42 S8 1.547979 1_555
O42 U0 2.331113 1_555
O43 S9 1.547979 1_555
O43 U1 2.331113 1_555
