# generated using pymatgen
data_Li2V3SnO8
_symmetry_space_group_name_H-M   'P 1'
_cell_length_a   6.04750328
_cell_length_b   5.98985297
_cell_length_c   8.64540708
_cell_angle_alpha   90.40930795
_cell_angle_beta   89.98324254
_cell_angle_gamma   90.07664195
_symmetry_Int_Tables_number   1
_chemical_formula_structural   Li2V3SnO8
_chemical_formula_sum   'Li4 V6 Sn2 O16'
_cell_volume   313.15996361
_cell_formula_units_Z   2
loop_
 _symmetry_equiv_pos_site_id
 _symmetry_equiv_pos_as_xyz
  1  'x, y, z'
loop_
 _atom_site_type_symbol
 _atom_site_label
 _atom_site_symmetry_multiplicity
 _atom_site_fract_x
 _atom_site_fract_y
 _atom_site_fract_z
 _atom_site_occupancy
  Li  Li0  1  0.99855500  0.25163500  0.11459500  1
  Li  Li1  1  0.50059600  0.75189100  0.61450200  1
  Li  Li2  1  0.00159700  0.99411300  0.50335900  1
  Li  Li3  1  0.49927100  0.49431500  0.00346100  1
  V  V0  1  0.50076800  0.01183000  0.99612700  1
  V  V1  1  0.22762100  0.75624200  0.25971200  1
  V  V2  1  0.75742800  0.74734000  0.25765800  1
  V  V3  1  0.99919100  0.51183300  0.49614700  1
  V  V4  1  0.74263100  0.24691200  0.75759700  1
  V  V5  1  0.27242700  0.25595800  0.75989300  1
  Sn  Sn0  1  0.00281500  0.76136500  0.88405700  1
  Sn  Sn1  1  0.49727300  0.26175700  0.38415200  1
  O  O0  1  0.01046600  0.51731600  0.25690000  1
  O  O1  1  0.48950400  0.01692700  0.75700900  1
  O  O2  1  0.00544900  0.48683000  0.74598100  1
  O  O3  1  0.49421900  0.98714400  0.24601900  1
  O  O4  1  0.24075100  0.73225200  0.47567100  1
  O  O5  1  0.73218100  0.23761600  0.98108400  1
  O  O6  1  0.76738700  0.73705800  0.48113300  1
  O  O7  1  0.25880300  0.23191700  0.97561400  1
  O  O8  1  0.01509000  0.96717500  0.24672000  1
  O  O9  1  0.48523600  0.46678700  0.74645900  1
  O  O10  1  0.00564500  0.02585100  0.74372500  1
  O  O11  1  0.49441600  0.52604600  0.24369600  1
  O  O12  1  0.22999400  0.25408400  0.51857800  1
  O  O13  1  0.73218600  0.75708100  0.01602800  1
  O  O14  1  0.76828700  0.25666400  0.51573000  1
  O  O15  1  0.27021300  0.75406100  0.01839100  1
loop_
_geom_bond_atom_site_label_1
_geom_bond_atom_site_label_2
_geom_bond_distance
_geom_bond_site_symmetry_2
Li0 O7 1.982936 1_654
Li0 O5 1.983354 1_554
Li0 O0 2.005763 1_655
Li0 O8 2.060656 1_645
Li1 O4 1.980498 1_555
Li1 O6 1.984521 1_555
Li1 O1 2.003730 1_565
Li1 O9 2.062474 1_555
Li2 O12 2.083596 1_565
Li2 O10 2.085534 1_565
Li2 O6 2.098550 1_455
Li2 O14 2.116328 1_465
Li2 O4 2.147035 1_555
Li2 O8 2.224939 1_555
Li3 O11 2.084457 1_555
Li3 O15 2.087810 1_555
Li3 O5 2.094500 1_554
Li3 O13 2.113007 1_555
Li3 O7 2.152151 1_554
Li3 O9 2.228455 1_554
O0 V1 1.941091 1_555
O0 V2 2.060478 1_455
O0 V3 2.069985 1_455
O1 V5 1.943820 1_555
O1 V4 2.057987 1_555
O1 V0 2.068859 1_555
O2 Sn0 2.025185 1_555
O2 V5 2.131217 1_555
O2 V4 2.144130 1_455
O2 V3 2.166515 1_455
O3 Sn1 2.025840 1_565
O3 V1 2.126620 1_555
O3 V2 2.148327 1_555
O3 V0 2.166873 1_564
O4 V1 1.875311 1_555
O4 V3 1.976496 1_455
O5 V4 1.934348 1_555
O5 V0 1.949828 1_555
O6 V2 1.934411 1_555
O6 V3 1.951828 1_555
O7 V5 1.873353 1_555
O7 V0 1.979694 1_555
O8 V1 1.807581 1_555
O8 V2 2.041342 1_455
O9 V5 1.806149 1_555
O9 V4 2.043083 1_555
O10 Sn0 2.002344 1_545
O10 V4 2.073856 1_455
O10 V5 2.124534 1_555
O11 Sn1 2.002105 1_555
O11 V2 2.072114 1_555
O11 V1 2.127596 1_555
O12 Sn1 1.991197 1_555
O12 V3 2.092744 1_455
O12 V5 2.102012 1_555
O13 Sn0 1.995039 1_654
O13 V0 2.079954 1_564
O13 V2 2.095838 1_555
O14 Sn1 1.995706 1_555
O14 V3 2.076658 1_555
O14 V4 2.097965 1_555
O15 Sn0 1.991907 1_554
O15 V0 2.088859 1_564
O15 V1 2.102034 1_555
