# generated using pymatgen
data_MgTi2O4
_symmetry_space_group_name_H-M   'P 1'
_cell_length_a   6.12445876
_cell_length_b   6.12445876
_cell_length_c   6.12445906
_cell_angle_alpha   57.94317447
_cell_angle_beta   57.94317447
_cell_angle_gamma   57.94317757
_symmetry_Int_Tables_number   1
_chemical_formula_structural   MgTi2O4
_chemical_formula_sum   'Mg2 Ti4 O8'
_cell_volume   154.77182826
_cell_formula_units_Z   2
loop_
 _symmetry_equiv_pos_site_id
 _symmetry_equiv_pos_as_xyz
  1  'x, y, z'
loop_
 _atom_site_type_symbol
 _atom_site_label
 _atom_site_symmetry_multiplicity
 _atom_site_fract_x
 _atom_site_fract_y
 _atom_site_fract_z
 _atom_site_occupancy
  Mg  Mg0  1  0.99695200  0.99695200  0.99695200  1
  Mg  Mg1  1  0.63055000  0.63055000  0.63055000  1
  Ti  Ti0  1  0.24555400  0.24555400  0.24555400  1
  Ti  Ti1  1  0.61706200  0.13641500  0.61706200  1
  Ti  Ti2  1  0.61706200  0.61706200  0.13641500  1
  Ti  Ti3  1  0.13641500  0.61706200  0.61706200  1
  O  O0  1  0.85842900  0.38321800  0.38321800  1
  O  O1  1  0.38321800  0.38321800  0.85842900  1
  O  O2  1  0.38321800  0.85842900  0.38321800  1
  O  O3  1  0.36789100  0.36789100  0.36789100  1
  O  O4  1  0.86462500  0.86462500  0.86462500  1
  O  O5  1  0.87328100  0.40245600  0.87328100  1
  O  O6  1  0.87328100  0.87328100  0.40245600  1
  O  O7  1  0.40245600  0.87328100  0.87328100  1
loop_
_geom_bond_atom_site_label_1
_geom_bond_atom_site_label_2
_geom_bond_distance
_geom_bond_site_symmetry_2
Mg0 O5 1.982561 1_565
Mg0 O7 1.982561 1_655
Mg0 O6 1.982561 1_556
Mg0 O4 2.015443 1_555
Mg1 O6 2.075671 1_555
Mg1 O5 2.075671 1_555
Mg1 O7 2.075671 1_555
Mg1 O1 2.117622 1_555
Mg1 O0 2.117622 1_555
Mg1 O2 2.117622 1_555
O0 Ti0 1.885122 1_655
O0 Ti1 2.085098 1_555
O0 Ti2 2.085098 1_555
O1 Ti0 1.885122 1_556
O1 Ti1 2.085098 1_555
O1 Ti3 2.085098 1_555
O2 Ti0 1.885122 1_565
O2 Ti3 2.085098 1_555
O2 Ti2 2.085098 1_555
O3 Ti0 1.863288 1_555
O3 Ti2 2.132230 1_555
O3 Ti3 2.132230 1_555
O3 Ti1 2.132230 1_555
O4 Ti2 2.109638 1_556
O4 Ti3 2.109638 1_655
O4 Ti1 2.109638 1_565
O5 Ti3 2.040016 1_655
O5 Ti2 2.040016 1_556
O6 Ti3 2.040016 1_655
O6 Ti1 2.040016 1_565
O7 Ti1 2.040016 1_565
O7 Ti2 2.040016 1_556
