# generated using pymatgen
data_NiSb2
_symmetry_space_group_name_H-M   'P 1'
_cell_length_a   3.81377436
_cell_length_b   5.27077808
_cell_length_c   6.29966109
_cell_angle_alpha   90.00000000
_cell_angle_beta   90.00000000
_cell_angle_gamma   90.00000000
_symmetry_Int_Tables_number   1
_chemical_formula_structural   NiSb2
_chemical_formula_sum   'Ni2 Sb4'
_cell_volume   126.63300466
_cell_formula_units_Z   2
loop_
 _symmetry_equiv_pos_site_id
 _symmetry_equiv_pos_as_xyz
  1  'x, y, z'
loop_
 _atom_site_type_symbol
 _atom_site_label
 _atom_site_symmetry_multiplicity
 _atom_site_fract_x
 _atom_site_fract_y
 _atom_site_fract_z
 _atom_site_occupancy
  Ni  Ni0  1  -0.00000000  -0.00000000  -0.00000000  1
  Ni  Ni1  1  0.50000000  0.50000000  0.50000000  1
  Sb  Sb0  1  0.00000000  0.21630021  0.35991643  1
  Sb  Sb1  1  0.00000000  0.78369979  0.64008357  1
  Sb  Sb2  1  0.50000000  0.71630021  0.14008357  1
  Sb  Sb3  1  0.50000000  0.28369979  0.85991643  1
loop_
_geom_bond_atom_site_label_1
_geom_bond_atom_site_label_2
_geom_bond_distance
_geom_bond_site_symmetry_2
Ni0 Sb1 2.537842 1_544
Ni0 Sb0 2.537842 1_555
Ni0 Sb2 2.578947 1_545
Ni0 Sb2 2.578947 1_445
Ni0 Sb3 2.578947 1_454
Ni0 Sb3 2.578947 1_554
Ni1 Sb2 2.537842 1_555
Ni1 Sb3 2.537842 1_555
Ni1 Sb1 2.578947 1_555
Ni1 Sb0 2.578947 1_655
Ni1 Sb1 2.578947 1_655
Ni1 Sb0 2.578947 1_555
Sb0 Sb1 2.883421 1_545
Sb2 Sb3 2.883421 1_554
