# generated using pymatgen
data_Ag
_symmetry_space_group_name_H-M   'P 1'
_cell_length_a   5.84459730
_cell_length_b   5.84459926
_cell_length_c   9.40332362
_cell_angle_alpha   90.00000000
_cell_angle_beta   90.00000000
_cell_angle_gamma   120.00001249
_symmetry_Int_Tables_number   1
_chemical_formula_structural   Ag
_chemical_formula_sum   Ag16
_cell_volume   278.17704662
_cell_formula_units_Z   16
loop_
 _symmetry_equiv_pos_site_id
 _symmetry_equiv_pos_as_xyz
  1  'x, y, z'
loop_
 _atom_site_type_symbol
 _atom_site_label
 _atom_site_symmetry_multiplicity
 _atom_site_fract_x
 _atom_site_fract_y
 _atom_site_fract_z
 _atom_site_occupancy
  Ag  Ag0_0  1  0.16666650  0.33333350  0.12500000  1
  Ag  Ag0_1  1  0.16666650  0.33333350  0.62500000  1
  Ag  Ag0_2  1  0.16666650  0.83333350  0.12500000  1
  Ag  Ag0_3  1  0.16666650  0.83333350  0.62500000  1
  Ag  Ag0_4  1  0.66666650  0.33333350  0.12500000  1
  Ag  Ag0_5  1  0.66666650  0.33333350  0.62500000  1
  Ag  Ag0_6  1  0.66666650  0.83333350  0.12500000  1
  Ag  Ag0_7  1  0.66666650  0.83333350  0.62500000  1
  Ag  Ag1_0  1  0.33333350  0.16666650  0.37500000  1
  Ag  Ag1_1  1  0.33333350  0.16666650  0.87500000  1
  Ag  Ag1_2  1  0.33333350  0.66666650  0.37500000  1
  Ag  Ag1_3  1  0.33333350  0.66666650  0.87500000  1
  Ag  Ag1_4  1  0.83333350  0.16666650  0.37500000  1
  Ag  Ag1_5  1  0.83333350  0.16666650  0.87500000  1
  Ag  Ag1_6  1  0.83333350  0.66666650  0.37500000  1
  Ag  Ag1_7  1  0.83333350  0.66666650  0.87500000  1
loop_
_geom_bond_atom_site_label_1
_geom_bond_atom_site_label_2
_geom_bond_distance
_geom_bond_site_symmetry_2
Ag0_0 Ag1_5 2.893615 1_454
Ag0_0 Ag1_4 2.893615 1_455
Ag0_0 Ag1_3 2.893616 1_554
Ag0_0 Ag1_2 2.893616 1_555
Ag0_0 Ag1_1 2.893619 1_554
Ag0_0 Ag1_0 2.893619 1_555
Ag0_0 Ag0_6 2.922299 1_555
Ag0_0 Ag0_6 2.922299 1_445
Ag0_0 Ag0_4 2.922299 1_555
Ag0_0 Ag0_4 2.922299 1_455
Ag0_0 Ag0_2 2.922300 1_555
Ag0_0 Ag0_2 2.922300 1_545
Ag0_1 Ag1_5 2.893615 1_455
Ag0_1 Ag1_4 2.893615 1_455
Ag0_1 Ag1_2 2.893616 1_555
Ag0_1 Ag1_3 2.893616 1_555
Ag0_1 Ag1_0 2.893619 1_555
Ag0_1 Ag1_1 2.893619 1_555
Ag0_1 Ag0_7 2.922299 1_555
Ag0_1 Ag0_7 2.922299 1_445
Ag0_1 Ag0_5 2.922299 1_555
Ag0_1 Ag0_5 2.922299 1_455
Ag0_1 Ag0_3 2.922300 1_555
Ag0_1 Ag0_3 2.922300 1_545
Ag0_2 Ag1_7 2.893615 1_454
Ag0_2 Ag1_6 2.893615 1_455
Ag0_2 Ag1_1 2.893616 1_564
Ag0_2 Ag1_0 2.893616 1_565
Ag0_2 Ag1_3 2.893619 1_554
Ag0_2 Ag1_2 2.893619 1_555
Ag0_2 Ag0_4 2.922299 1_565
Ag0_2 Ag0_4 2.922299 1_455
Ag0_2 Ag0_6 2.922299 1_555
Ag0_2 Ag0_6 2.922299 1_455
Ag0_3 Ag1_7 2.893615 1_455
Ag0_3 Ag1_6 2.893615 1_455
Ag0_3 Ag1_0 2.893616 1_565
Ag0_3 Ag1_1 2.893616 1_565
Ag0_3 Ag1_2 2.893619 1_555
Ag0_3 Ag1_3 2.893619 1_555
Ag0_3 Ag0_5 2.922299 1_455
Ag0_3 Ag0_5 2.922299 1_565
Ag0_3 Ag0_7 2.922299 1_555
Ag0_3 Ag0_7 2.922299 1_455
Ag0_4 Ag1_1 2.893615 1_554
Ag0_4 Ag1_0 2.893615 1_555
Ag0_4 Ag1_7 2.893616 1_554
Ag0_4 Ag1_6 2.893616 1_555
Ag0_4 Ag1_5 2.893619 1_554
Ag0_4 Ag1_4 2.893619 1_555
Ag0_4 Ag0_6 2.922300 1_545
Ag0_4 Ag0_6 2.922300 1_555
Ag0_5 Ag1_0 2.893615 1_555
Ag0_5 Ag1_1 2.893615 1_555
Ag0_5 Ag1_6 2.893616 1_555
Ag0_5 Ag1_7 2.893616 1_555
Ag0_5 Ag1_4 2.893619 1_555
Ag0_5 Ag1_5 2.893619 1_555
Ag0_5 Ag0_7 2.922300 1_545
Ag0_5 Ag0_7 2.922300 1_555
Ag0_6 Ag1_3 2.893615 1_554
Ag0_6 Ag1_2 2.893615 1_555
Ag0_6 Ag1_4 2.893616 1_565
Ag0_6 Ag1_5 2.893616 1_564
Ag0_6 Ag1_7 2.893619 1_554
Ag0_6 Ag1_6 2.893619 1_555
Ag0_7 Ag1_2 2.893615 1_555
Ag0_7 Ag1_3 2.893615 1_555
Ag0_7 Ag1_4 2.893616 1_565
Ag0_7 Ag1_5 2.893616 1_565
Ag0_7 Ag1_6 2.893619 1_555
Ag0_7 Ag1_7 2.893619 1_555
Ag1_0 Ag1_6 2.922299 1_555
Ag1_0 Ag1_6 2.922299 1_445
Ag1_0 Ag1_4 2.922299 1_555
Ag1_0 Ag1_4 2.922299 1_455
Ag1_0 Ag1_2 2.922300 1_545
Ag1_0 Ag1_2 2.922300 1_555
Ag1_1 Ag1_7 2.922299 1_445
Ag1_1 Ag1_7 2.922299 1_555
Ag1_1 Ag1_5 2.922299 1_555
Ag1_1 Ag1_5 2.922299 1_455
Ag1_1 Ag1_3 2.922300 1_545
Ag1_1 Ag1_3 2.922300 1_555
Ag1_2 Ag1_4 2.922299 1_565
Ag1_2 Ag1_4 2.922299 1_455
Ag1_2 Ag1_6 2.922299 1_555
Ag1_2 Ag1_6 2.922299 1_455
Ag1_3 Ag1_5 2.922299 1_565
Ag1_3 Ag1_5 2.922299 1_455
Ag1_3 Ag1_7 2.922299 1_555
Ag1_3 Ag1_7 2.922299 1_455
Ag1_4 Ag1_6 2.922300 1_545
Ag1_4 Ag1_6 2.922300 1_555
Ag1_5 Ag1_7 2.922300 1_545
Ag1_5 Ag1_7 2.922300 1_555
