# generated using pymatgen
data_BaSrPrSbO6
_symmetry_space_group_name_H-M   'P 1'
_cell_length_a   8.60553985
_cell_length_b   8.61011959
_cell_length_c   8.61919620
_cell_angle_alpha   90.00000000
_cell_angle_beta   90.00000000
_cell_angle_gamma   90.00000000
_symmetry_Int_Tables_number   1
_chemical_formula_structural   BaSrPrSbO6
_chemical_formula_sum   'Ba4 Sr4 Pr4 Sb4 O24'
_cell_volume   638.63699151
_cell_formula_units_Z   4
loop_
 _symmetry_equiv_pos_site_id
 _symmetry_equiv_pos_as_xyz
  1  'x, y, z'
loop_
 _atom_site_type_symbol
 _atom_site_label
 _atom_site_symmetry_multiplicity
 _atom_site_fract_x
 _atom_site_fract_y
 _atom_site_fract_z
 _atom_site_occupancy
  Ba  Ba0  1  -0.00000000  0.00000000  0.00000000  1
  Ba  Ba1  1  0.50000000  0.50000000  0.50000000  1
  Ba  Ba2  1  0.50000000  0.00000000  0.00000000  1
  Ba  Ba3  1  -0.00000000  0.00000000  0.50000000  1
  Sr  Sr0  1  -0.00000000  0.50000000  0.50000000  1
  Sr  Sr1  1  0.50000000  0.00000000  0.50000000  1
  Sr  Sr2  1  0.50000000  0.50000000  0.00000000  1
  Sr  Sr3  1  -0.00000000  0.50000000  0.00000000  1
  Pr  Pr0  1  0.74897022  0.74784732  0.74949212  1
  Pr  Pr1  1  0.25102978  0.25215268  0.74949212  1
  Pr  Pr2  1  0.25102978  0.74784732  0.25050788  1
  Pr  Pr3  1  0.74897022  0.25215268  0.25050788  1
  Sb  Sb0  1  0.24956570  0.25383316  0.25080440  1
  Sb  Sb1  1  0.75043430  0.74616684  0.25080440  1
  Sb  Sb2  1  0.75043430  0.25383316  0.74919560  1
  Sb  Sb3  1  0.24956570  0.74616684  0.74919560  1
  O  O0  1  0.01860109  0.22550230  0.27795695  1
  O  O1  1  0.98139891  0.77449770  0.27795695  1
  O  O2  1  0.98139891  0.22550230  0.72204305  1
  O  O3  1  0.01860109  0.77449770  0.72204305  1
  O  O4  1  0.27378176  0.02103365  0.22145910  1
  O  O5  1  0.27378176  0.97896635  0.77854090  1
  O  O6  1  0.72621824  0.97896635  0.22145910  1
  O  O7  1  0.72621824  0.02103365  0.77854090  1
  O  O8  1  0.21654938  0.28534439  0.01975794  1
  O  O9  1  0.78345062  0.28534439  0.98024206  1
  O  O10  1  0.21654938  0.71465561  0.98024206  1
  O  O11  1  0.78345062  0.71465561  0.01975794  1
  O  O12  1  0.47928169  0.28820453  0.21515636  1
  O  O13  1  0.52071831  0.71179547  0.21515636  1
  O  O14  1  0.52071831  0.28820453  0.78484364  1
  O  O15  1  0.47928169  0.71179547  0.78484364  1
  O  O16  1  0.21784672  0.48163242  0.29058957  1
  O  O17  1  0.21784672  0.51836758  0.70941043  1
  O  O18  1  0.78215328  0.51836758  0.29058957  1
  O  O19  1  0.78215328  0.48163242  0.70941043  1
  O  O20  1  0.28951919  0.21920968  0.48009514  1
  O  O21  1  0.71048081  0.21920968  0.51990486  1
  O  O22  1  0.28951919  0.78079032  0.51990486  1
  O  O23  1  0.71048081  0.78079032  0.48009514  1
loop_
_geom_bond_atom_site_label_1
_geom_bond_atom_site_label_2
_geom_bond_distance
_geom_bond_site_symmetry_2
Ba0 O5 3.037637 1_544
Ba0 O7 3.037637 1_454
Ba0 O6 3.037637 1_445
Ba0 O4 3.037637 1_555
Ba0 O0 3.087901 1_555
Ba0 O2 3.087901 1_454
Ba0 O1 3.087901 1_445
Ba0 O3 3.087901 1_544
Ba0 O10 3.088338 1_544
Ba0 O9 3.088338 1_454
Ba0 O8 3.088338 1_555
Ba0 O11 3.088338 1_445
Ba1 O20 3.025759 1_555
Ba1 O23 3.025759 1_555
Ba1 O21 3.025759 1_555
Ba1 O22 3.025759 1_555
Ba1 O17 3.029593 1_555
Ba1 O18 3.029593 1_555
Ba1 O16 3.029593 1_555
Ba1 O19 3.029593 1_555
Ba1 O12 3.063475 1_555
Ba1 O13 3.063475 1_555
Ba1 O14 3.063475 1_555
Ba1 O15 3.063475 1_555
Ba2 O7 2.732411 1_554
Ba2 O5 2.732411 1_544
Ba2 O4 2.732411 1_555
Ba2 O6 2.732411 1_545
Ba2 O14 3.102996 1_554
Ba2 O15 3.102996 1_544
Ba2 O13 3.102996 1_545
Ba2 O12 3.102996 1_555
Ba3 O0 2.730970 1_555
Ba3 O2 2.730970 1_455
Ba3 O3 2.730970 1_545
Ba3 O1 2.730970 1_445
Ba3 O22 3.130369 1_545
Ba3 O20 3.130369 1_555
Ba3 O23 3.130369 1_445
Ba3 O21 3.130369 1_455
Ba3 O7 3.368613 1_455
Ba3 O6 3.368613 1_445
Ba3 O4 3.368613 1_555
Ba3 O5 3.368613 1_545
O0 Sb0 2.016117 1_555
O0 Pr3 2.343610 1_455
O0 Sr0 3.045376 1_555
O1 Sb1 2.016117 1_555
O1 Pr2 2.343610 1_655
O1 Sr0 3.045376 1_655
O2 Sb2 2.016117 1_555
O2 Pr1 2.343610 1_655
O2 Sr0 3.045376 1_655
O3 Sb3 2.016117 1_555
O3 Pr0 2.343610 1_455
O3 Sr0 3.045376 1_555
O4 Sb0 2.031046 1_555
O4 Pr2 2.373544 1_545
O4 Sr1 3.096190 1_555
O5 Sb3 2.031046 1_555
O5 Pr1 2.373544 1_565
O5 Sr1 3.096190 1_565
O6 Sb1 2.031046 1_555
O6 Pr3 2.373544 1_565
O6 Sr1 3.096190 1_565
O7 Sb2 2.031046 1_555
O7 Pr0 2.373544 1_545
O7 Sr1 3.096190 1_555
O8 Sb0 2.029815 1_555
O8 Pr1 2.365622 1_554
O8 Sr3 2.630134 1_555
O8 Sr2 3.065094 1_555
O9 Sb2 2.029815 1_555
O9 Pr3 2.365622 1_556
O9 Sr3 2.630134 1_656
O9 Sr2 3.065094 1_556
O10 Sb3 2.029815 1_555
O10 Pr2 2.365622 1_556
O10 Sr3 2.630134 1_556
O10 Sr2 3.065094 1_556
O11 Sb1 2.029815 1_555
O11 Pr0 2.365622 1_554
O11 Sr3 2.630134 1_655
O11 Sr2 3.065094 1_555
O12 Sb0 2.022337 1_555
O12 Pr3 2.361225 1_555
O12 Sr2 2.606976 1_555
O13 Sb1 2.022337 1_555
O13 Pr2 2.361225 1_555
O13 Sr2 2.606976 1_555
O14 Sb2 2.022337 1_555
O14 Pr1 2.361225 1_555
O14 Sr2 2.606976 1_556
O15 Sb3 2.022337 1_555
O15 Pr0 2.361225 1_555
O15 Sr2 2.606976 1_556
O16 Sb0 2.009753 1_555
O16 Pr2 2.335553 1_555
O16 Sr0 2.607165 1_555
O16 Sr3 3.132528 1_555
O17 Sb3 2.009753 1_555
O17 Pr1 2.335553 1_555
O17 Sr0 2.607165 1_555
O17 Sr3 3.132528 1_556
O18 Sb1 2.009753 1_555
O18 Pr3 2.335553 1_555
O18 Sr0 2.607165 1_655
O18 Sr3 3.132528 1_655
O19 Sb2 2.009753 1_555
O19 Pr0 2.335553 1_555
O19 Sr0 2.607165 1_655
O19 Sr3 3.132528 1_656
O20 Sb0 2.028017 1_555
O20 Pr1 2.362579 1_555
O20 Sr1 2.621565 1_555
O21 Sb2 2.028017 1_555
O21 Pr3 2.362579 1_555
O21 Sr1 2.621565 1_555
O22 Sb3 2.028017 1_555
O22 Pr2 2.362579 1_555
O22 Sr1 2.621565 1_565
O23 Sb1 2.028017 1_555
O23 Pr0 2.362579 1_555
O23 Sr1 2.621565 1_565
