# generated using pymatgen
data_Mg6NbB
_symmetry_space_group_name_H-M   'P 1'
_cell_length_a   4.75026300
_cell_length_b   5.62855100
_cell_length_c   11.14438700
_cell_angle_alpha   90.00000000
_cell_angle_beta   90.00000000
_cell_angle_gamma   90.00000000
_symmetry_Int_Tables_number   1
_chemical_formula_structural   Mg6NbB
_chemical_formula_sum   'Mg12 Nb2 B2'
_cell_volume   297.96856245
_cell_formula_units_Z   2
loop_
 _symmetry_equiv_pos_site_id
 _symmetry_equiv_pos_as_xyz
  1  'x, y, z'
loop_
 _atom_site_type_symbol
 _atom_site_label
 _atom_site_symmetry_multiplicity
 _atom_site_fract_x
 _atom_site_fract_y
 _atom_site_fract_z
 _atom_site_occupancy
  Mg  Mg0  1  0.50000000  0.24947100  0.42870500  1
  Mg  Mg1  1  0.50000000  0.75052900  0.42870500  1
  Mg  Mg2  1  0.00000000  0.75255200  0.08131400  1
  Mg  Mg3  1  0.00000000  0.24744800  0.08131400  1
  Mg  Mg4  1  0.00000000  0.00000000  0.32870700  1
  Mg  Mg5  1  0.00000000  0.50000000  0.30788900  1
  Mg  Mg6  1  0.50000000  0.74947100  0.92870500  1
  Mg  Mg7  1  0.50000000  0.25052900  0.92870500  1
  Mg  Mg8  1  0.00000000  0.25255200  0.58131400  1
  Mg  Mg9  1  0.00000000  0.74744800  0.58131400  1
  Mg  Mg10  1  0.00000000  0.50000000  0.82870700  1
  Mg  Mg11  1  0.00000000  0.00000000  0.80788900  1
  Nb  Nb0  1  0.50000000  0.00000000  0.18049300  1
  Nb  Nb1  1  0.50000000  0.50000000  0.68049300  1
  B  B0  1  0.50000000  0.50000000  0.16286800  1
  B  B1  1  0.50000000  0.00000000  0.66286800  1
loop_
_geom_bond_atom_site_label_1
_geom_bond_atom_site_label_2
_geom_bond_distance
_geom_bond_site_symmetry_2
Mg0 Mg1 2.808320 1_545
Mg0 Mg1 2.820231 1_555
Mg0 Mg8 2.921309 1_655
Mg0 Mg8 2.921309 1_555
Mg0 Mg4 2.975708 1_655
Mg0 Mg4 2.975708 1_555
Mg0 Mg5 3.072869 1_655
Mg0 Mg5 3.072869 1_555
Mg0 Nb0 3.102155 1_555
Mg0 Nb1 3.140412 1_555
Mg1 Mg9 2.921309 1_555
Mg1 Mg9 2.921309 1_655
Mg1 Mg4 2.975708 1_565
Mg1 Mg4 2.975708 1_665
Mg1 Mg5 3.072869 1_655
Mg1 Mg5 3.072869 1_555
Mg1 Nb0 3.102155 1_565
Mg1 Nb1 3.140412 1_555
Mg2 Mg3 2.785547 1_565
Mg2 Mg3 2.843004 1_555
Mg2 Mg5 2.897670 1_555
Mg2 Mg6 2.921309 1_554
Mg2 Mg6 2.921309 1_454
Mg2 Nb0 2.966940 1_465
Mg2 Nb0 2.966940 1_565
Mg2 Mg4 3.088868 1_565
Mg3 Mg5 2.897670 1_555
Mg3 Mg7 2.921309 1_554
Mg3 Mg7 2.921309 1_454
Mg3 Nb0 2.966940 1_455
Mg3 Nb0 2.966940 1_555
Mg3 Mg4 3.088868 1_555
Mg4 Mg5 2.823822 1_555
Mg4 Mg5 2.823822 1_545
Mg4 Nb0 2.893016 1_455
Mg4 Nb0 2.893016 1_555
Mg4 Mg9 3.153686 1_545
Mg4 Mg8 3.153686 1_555
Mg5 Mg8 3.350368 1_555
Mg5 Mg9 3.350368 1_555
Mg6 Mg7 2.808320 1_555
Mg6 Mg7 2.820231 1_565
Mg6 Nb1 3.102155 1_555
Mg6 Nb0 3.140412 1_566
Mg7 Nb1 3.102155 1_555
Mg7 Nb0 3.140412 1_556
Mg8 Mg9 2.785547 1_555
Mg8 Mg9 2.843004 1_545
Mg8 Nb1 2.966940 1_455
Mg8 Nb1 2.966940 1_555
Mg9 Nb1 2.966940 1_455
Mg9 Nb1 2.966940 1_555
Mg10 Mg11 2.823822 1_555
Mg10 Mg11 2.823822 1_565
Mg10 Nb1 2.893016 1_455
Mg10 Nb1 2.893016 1_555
Mg10 Mg6 2.975708 1_455
Mg10 Mg7 2.975708 1_455
Mg10 Mg6 2.975708 1_555
Mg10 Mg7 2.975708 1_555
Mg10 Mg8 3.088868 1_555
Mg10 Mg9 3.088868 1_555
Mg10 Mg3 3.153686 1_556
Mg10 Mg2 3.153686 1_556
Mg11 Mg9 2.897670 1_545
Mg11 Mg8 2.897670 1_555
Mg11 Mg6 3.072869 1_445
Mg11 Mg7 3.072869 1_455
Mg11 Mg6 3.072869 1_545
Mg11 Mg7 3.072869 1_555
Mg11 Mg2 3.350368 1_546
Mg11 Mg3 3.350368 1_556
B0 Nb0 2.821122 1_565
B0 Nb0 2.821122 1_555
B0 Mg5 2.872848 1_655
B0 Mg5 2.872848 1_555
B0 Mg2 2.913410 1_655
B0 Mg3 2.913410 1_555
B0 Mg3 2.913410 1_655
B0 Mg2 2.913410 1_555
B0 Mg6 2.963392 1_554
B0 Mg7 2.963392 1_554
B1 Nb1 2.821122 1_545
B1 Nb1 2.821122 1_555
B1 Mg11 2.872848 1_655
B1 Mg11 2.872848 1_555
B1 Mg8 2.913410 1_555
B1 Mg9 2.913410 1_645
B1 Mg8 2.913410 1_655
B1 Mg9 2.913410 1_545
B1 Mg0 2.963392 1_555
B1 Mg1 2.963392 1_545
