# generated using pymatgen
data_Rb2MnV2(ClO3)2
_symmetry_space_group_name_H-M   'P 1'
_cell_length_a   10.97585571
_cell_length_b   5.61299529
_cell_length_c   10.90801585
_cell_angle_alpha   104.64586360
_cell_angle_beta   59.79405419
_cell_angle_gamma   90.00000000
_symmetry_Int_Tables_number   1
_chemical_formula_structural   Rb2MnV2(ClO3)2
_chemical_formula_sum   'Rb4 Mn2 V4 Cl4 O12'
_cell_volume   555.35858730
_cell_formula_units_Z   2
loop_
 _symmetry_equiv_pos_site_id
 _symmetry_equiv_pos_as_xyz
  1  'x, y, z'
loop_
 _atom_site_type_symbol
 _atom_site_label
 _atom_site_symmetry_multiplicity
 _atom_site_fract_x
 _atom_site_fract_y
 _atom_site_fract_z
 _atom_site_occupancy
  Rb  Rb0  1  0.20024700  0.37001300  0.74257700  1
  Rb  Rb1  1  0.44560100  0.62963200  0.25229100  1
  Rb  Rb2  1  0.69789200  0.37036800  0.74770900  1
  Rb  Rb3  1  0.94282400  0.62998700  0.25742300  1
  Mn  Mn0  1  0.30881700  0.00000000  0.00000000  1
  Mn  Mn1  1  0.81034500  0.00000000  0.00000000  1
  V  V0  1  0.13178700  0.22171400  0.40170000  1
  V  V1  1  0.03210100  0.81798000  0.60048600  1
  V  V2  1  0.63258700  0.18202000  0.39951400  1
  V  V3  1  0.53348700  0.77828600  0.59830000  1
  Cl  Cl0  1  0.04001400  0.00000000  0.00000000  1
  Cl  Cl1  1  0.30099700  0.50000000  0.00000000  1
  Cl  Cl2  1  0.53909100  0.00000000  0.00000000  1
  Cl  Cl3  1  0.80070900  0.50000000  0.00000000  1
  O  O0  1  0.03670500  0.53408300  0.47185400  1
  O  O1  1  0.00889700  0.06269700  0.53004300  1
  O  O2  1  0.17390800  0.09258800  0.22387700  1
  O  O3  1  0.27721500  0.22770900  0.41107400  1
  O  O4  1  0.18652400  0.81168800  0.59194000  1
  O  O5  1  0.50855900  0.46591700  0.52814600  1
  O  O6  1  0.53894000  0.93730300  0.46995700  1
  O  O7  1  0.39778500  0.90741200  0.77612300  1
  O  O8  1  0.67317600  0.13837600  0.22246400  1
  O  O9  1  0.77846400  0.18831200  0.40806000  1
  O  O10  1  0.68829000  0.77229100  0.58892600  1
  O  O11  1  0.89564100  0.86162400  0.77753600  1
loop_
_geom_bond_atom_site_label_1
_geom_bond_atom_site_label_2
_geom_bond_distance
_geom_bond_site_symmetry_2
Mn0 O7 2.036169 1_544
Mn0 O2 2.036169 1_555
Mn1 O11 2.032060 1_544
Mn1 O8 2.032061 1_555
Cl0 Mn1 2.520814 1_455
Cl0 Mn0 2.950343 1_555
Cl0 Rb3 3.642961 1_445
Cl0 Rb0 3.642961 1_554
Cl0 Rb3 3.673093 1_455
Cl0 Rb0 3.673093 1_544
Cl1 Mn0 2.807810 1_565
Cl1 Mn0 2.807810 1_555
Cl1 Rb3 3.424658 1_455
Cl1 Rb0 3.424658 1_554
Cl1 Rb1 3.742241 1_555
Cl1 Rb2 3.742241 1_554
Cl2 Mn0 2.527454 1_555
Cl2 Mn1 2.977245 1_555
Cl2 Rb1 3.605514 1_545
Cl2 Rb2 3.605514 1_554
Cl2 Rb1 3.654682 1_555
Cl2 Rb2 3.654682 1_544
Cl3 Mn1 2.808490 1_565
Cl3 Mn1 2.808490 1_555
Cl3 Rb2 3.389511 1_554
Cl3 Rb1 3.389511 1_555
Cl3 Rb0 3.771118 1_654
Cl3 Rb3 3.771118 1_555
O0 V0 1.807427 1_555
O0 V1 1.818949 1_555
O0 Rb3 3.143952 1_455
O1 V1 1.809062 1_545
O1 V0 1.818717 1_555
O1 Rb2 3.169118 1_455
O2 V0 1.699475 1_555
O2 Rb3 3.585493 1_445
O3 V0 1.649824 1_555
O3 Rb0 3.145320 1_555
O3 Rb1 3.203135 1_555
O3 Rb1 3.394683 1_545
O4 V1 1.649866 1_555
O4 Rb0 3.191996 1_565
O4 Rb1 3.215783 1_555
O4 Rb0 3.343300 1_555
O5 V3 1.807427 1_555
O5 V2 1.818949 1_555
O5 Rb0 3.143952 1_555
O6 V2 1.809062 1_565
O6 V3 1.818717 1_555
O6 Rb1 3.169118 1_555
O7 V3 1.699475 1_555
O7 Rb0 3.585493 1_565
O8 V2 1.698025 1_555
O8 Rb1 3.560472 1_555
O9 V2 1.649866 1_555
O9 Rb3 3.191996 1_545
O9 Rb2 3.215783 1_555
O9 Rb3 3.343300 1_555
O10 V3 1.649835 1_555
O10 Rb3 3.145317 1_555
O10 Rb2 3.203131 1_555
O10 Rb2 3.394680 1_565
O11 V1 1.698022 1_655
O11 Rb2 3.560479 1_555
