# generated using pymatgen
data_NaMg14C
_symmetry_space_group_name_H-M   'P 1'
_cell_length_a   6.63797490
_cell_length_b   6.21950326
_cell_length_c   9.83132553
_cell_angle_alpha   90.00000000
_cell_angle_beta   90.00000000
_cell_angle_gamma   117.93561379
_symmetry_Int_Tables_number   1
_chemical_formula_structural   NaMg14C
_chemical_formula_sum   'Na1 Mg14 C1'
_cell_volume   358.58940382
_cell_formula_units_Z   1
loop_
 _symmetry_equiv_pos_site_id
 _symmetry_equiv_pos_as_xyz
  1  'x, y, z'
loop_
 _atom_site_type_symbol
 _atom_site_label
 _atom_site_symmetry_multiplicity
 _atom_site_fract_x
 _atom_site_fract_y
 _atom_site_fract_z
 _atom_site_occupancy
  Na  Na0  1  0.12957875  0.31478887  0.12500000  1
  Mg  Mg0  1  0.17397937  0.33698918  0.62500000  1
  Mg  Mg1  1  0.15186504  0.82593202  0.62500000  1
  Mg  Mg2  1  0.64026509  0.31477620  0.12500000  1
  Mg  Mg3  1  0.64622278  0.32572528  0.62500000  1
  Mg  Mg4  1  0.64026509  0.82548789  0.12500000  1
  Mg  Mg5  1  0.64622278  0.82049650  0.62500000  1
  Mg  Mg6  1  0.32165874  0.14340516  0.35394908  1
  Mg  Mg7  1  0.32165874  0.14340516  0.89605092  1
  Mg  Mg8  1  0.32165874  0.67825458  0.35394908  1
  Mg  Mg9  1  0.32165874  0.67825458  0.89605092  1
  Mg  Mg10  1  0.83021395  0.16510747  0.38460104  1
  Mg  Mg11  1  0.83021395  0.16510747  0.86539896  1
  Mg  Mg12  1  0.83155044  0.66577572  0.36491384  1
  Mg  Mg13  1  0.83155044  0.66577572  0.88508616  1
  C  C0  1  0.36143735  0.93071818  0.12500000  1
loop_
_geom_bond_atom_site_label_1
_geom_bond_atom_site_label_2
_geom_bond_distance
_geom_bond_site_symmetry_2
Mg0 Mg10 3.106466 1_455
Mg0 Mg11 3.106466 1_455
Mg0 Mg1 3.112455 1_545
Mg0 Mg1 3.112455 1_555
Mg0 Mg5 3.168164 1_555
Mg0 Mg3 3.168164 1_555
Mg0 Mg6 3.258458 1_555
Mg0 Mg7 3.258458 1_555
Mg0 Mg9 3.258464 1_555
Mg0 Mg8 3.258464 1_555
Mg0 Mg5 3.470967 1_445
Mg0 Mg3 3.470967 1_455
Mg1 Mg13 3.172836 1_455
Mg1 Mg12 3.172836 1_455
Mg1 Mg8 3.191392 1_555
Mg1 Mg9 3.191392 1_555
Mg1 Mg6 3.191397 1_565
Mg1 Mg7 3.191397 1_565
Mg1 Mg3 3.297507 1_565
Mg1 Mg5 3.297507 1_555
Mg1 Mg3 3.340736 1_455
Mg1 Mg5 3.340737 1_455
Mg2 Na0 3.248015 1_655
Mg2 Na0 3.389960 1_555
Mg3 Mg5 3.077231 1_555
Mg3 Mg5 3.142272 1_545
Mg3 Mg6 3.277128 1_555
Mg3 Mg7 3.277128 1_555
Mg4 Na0 3.248015 1_665
Mg4 Na0 3.389960 1_555
Mg5 Mg9 3.277129 1_555
Mg5 Mg8 3.277129 1_555
Mg6 Na0 3.016901 1_555
Mg7 Na0 3.016901 1_556
Mg8 Na0 3.016908 1_555
Mg9 Na0 3.016908 1_556
Mg10 Mg3 3.036210 1_555
Mg10 Mg5 3.036216 1_545
Mg10 Na0 3.097747 1_655
Mg10 Mg12 3.115779 1_545
Mg10 Mg12 3.115779 1_555
Mg10 Mg2 3.173306 1_555
Mg10 Mg4 3.173312 1_545
Mg10 Mg8 3.328358 1_545
Mg10 Mg6 3.328358 1_555
Mg10 Mg8 3.341187 1_655
Mg10 Mg6 3.341187 1_655
Mg11 Mg3 3.036210 1_555
Mg11 Mg5 3.036216 1_545
Mg11 Na0 3.097747 1_656
Mg11 Mg13 3.115779 1_545
Mg11 Mg13 3.115779 1_555
Mg11 Mg2 3.173306 1_556
Mg11 Mg4 3.173312 1_546
Mg11 Mg9 3.328358 1_545
Mg11 Mg7 3.328358 1_555
Mg11 Mg9 3.341187 1_655
Mg11 Mg7 3.341187 1_655
Mg12 Mg4 3.056805 1_555
Mg12 Mg2 3.056812 1_555
Mg12 Mg5 3.175968 1_555
Mg12 Mg3 3.175974 1_555
Mg12 Mg6 3.219502 1_665
Mg12 Mg8 3.219503 1_655
Mg12 Mg6 3.423393 1_555
Mg12 Mg8 3.423393 1_555
Mg13 Mg4 3.056805 1_556
Mg13 Mg2 3.056812 1_556
Mg13 Mg5 3.175968 1_555
Mg13 Mg3 3.175974 1_555
Mg13 Mg7 3.219502 1_665
Mg13 Mg9 3.219503 1_655
Mg13 Mg7 3.423393 1_555
Mg13 Mg9 3.423393 1_555
C0 Mg2 2.233601 1_565
C0 Mg4 2.233602 1_555
C0 Mg9 2.685740 1_554
C0 Mg8 2.685740 1_555
C0 Mg7 2.685747 1_564
C0 Mg6 2.685747 1_565
