# generated using pymatgen
data_Ba4LiTa3O12
_symmetry_space_group_name_H-M   'P 1'
_cell_length_a   5.86322629
_cell_length_b   5.86322629
_cell_length_c   19.35660800
_cell_angle_alpha   90.00000000
_cell_angle_beta   90.00000000
_cell_angle_gamma   120.00000328
_symmetry_Int_Tables_number   1
_chemical_formula_structural   Ba4LiTa3O12
_chemical_formula_sum   'Ba8 Li2 Ta6 O24'
_cell_volume   576.27951836
_cell_formula_units_Z   2
loop_
 _symmetry_equiv_pos_site_id
 _symmetry_equiv_pos_as_xyz
  1  'x, y, z'
loop_
 _atom_site_type_symbol
 _atom_site_label
 _atom_site_symmetry_multiplicity
 _atom_site_fract_x
 _atom_site_fract_y
 _atom_site_fract_z
 _atom_site_occupancy
  Ba  Ba0  1  0.00000000  0.00000000  0.00299700  1
  Ba  Ba1  1  0.00000000  0.00000000  0.50299700  1
  Ba  Ba2  1  0.33333300  0.66666700  0.14502300  1
  Ba  Ba3  1  0.66666700  0.33333300  0.64502300  1
  Ba  Ba4  1  0.33333300  0.66666700  0.36958700  1
  Ba  Ba5  1  0.66666700  0.33333300  0.86958700  1
  Ba  Ba6  1  0.66666700  0.33333300  0.24812600  1
  Ba  Ba7  1  0.33333300  0.66666700  0.74812600  1
  Li  Li0  1  0.00000000  0.00000000  0.16619400  1
  Li  Li1  1  0.00000000  0.00000000  0.66619400  1
  Ta  Ta0  1  0.00000000  0.00000000  0.30996200  1
  Ta  Ta1  1  0.00000000  0.00000000  0.80996200  1
  Ta  Ta2  1  0.33333300  0.66666700  0.56582300  1
  Ta  Ta3  1  0.66666700  0.33333300  0.06582300  1
  Ta  Ta4  1  0.33333300  0.66666700  0.93947300  1
  Ta  Ta5  1  0.66666700  0.33333300  0.43947300  1
  O  O0  1  0.84133700  0.68267500  0.75778900  1
  O  O1  1  0.15866300  0.31732500  0.25778900  1
  O  O2  1  0.68267500  0.84133700  0.25778900  1
  O  O3  1  0.84133700  0.15866300  0.75778900  1
  O  O4  1  0.16944300  0.83055700  0.87892600  1
  O  O5  1  0.33888700  0.16944300  0.37892600  1
  O  O6  1  0.83055700  0.66111300  0.37892600  1
  O  O7  1  0.16944300  0.33888700  0.87892600  1
  O  O8  1  0.66111300  0.83055700  0.87892600  1
  O  O9  1  0.83055700  0.16944300  0.37892600  1
  O  O10  1  0.17380800  0.82619200  0.61769100  1
  O  O11  1  0.34761700  0.17380800  0.11769100  1
  O  O12  1  0.15866300  0.84133700  0.25778900  1
  O  O13  1  0.31732500  0.15866300  0.75778900  1
  O  O14  1  0.49855800  0.50144200  0.99653200  1
  O  O15  1  0.99711600  0.49855800  0.49653200  1
  O  O16  1  0.50144200  0.00288400  0.49653200  1
  O  O17  1  0.49855800  0.99711600  0.99653200  1
  O  O18  1  0.00288400  0.50144200  0.99653200  1
  O  O19  1  0.50144200  0.49855800  0.49653200  1
  O  O20  1  0.82619200  0.17380800  0.11769100  1
  O  O21  1  0.65238300  0.82619200  0.61769100  1
  O  O22  1  0.17380800  0.34761700  0.61769100  1
  O  O23  1  0.82619200  0.65238300  0.11769100  1
loop_
_geom_bond_atom_site_label_1
_geom_bond_atom_site_label_2
_geom_bond_distance
_geom_bond_site_symmetry_2
Ba0 O20 2.836253 1_455
Ba0 O23 2.836256 1_445
Ba0 O11 2.836256 1_555
Ba0 O14 2.934319 1_444
Ba0 O14 2.934319 1_554
Ba0 O17 2.934319 1_444
Ba0 O18 2.934319 1_554
Ba0 O18 2.934319 1_544
Ba0 O17 2.934319 1_544
Ba0 O4 2.954433 1_544
Ba0 O7 2.954436 1_554
Ba0 O8 2.954436 1_444
Ba1 O10 2.836253 1_545
Ba1 O22 2.836256 1_555
Ba1 O21 2.836256 1_445
Ba1 O19 2.934319 1_445
Ba1 O19 2.934319 1_555
Ba1 O15 2.934319 1_445
Ba1 O16 2.934319 1_555
Ba1 O15 2.934319 1_455
Ba1 O16 2.934319 1_455
Ba1 O9 2.954433 1_455
Ba1 O5 2.954436 1_555
Ba1 O6 2.954436 1_445
Ba2 O12 2.812650 1_555
Ba2 O1 2.812656 1_555
Ba2 O2 2.812656 1_555
Ba2 O11 2.979846 1_565
Ba2 O23 2.979846 1_455
Ba2 O20 2.979851 1_455
Ba2 O20 2.979851 1_565
Ba2 O23 2.979857 1_555
Ba2 O11 2.979857 1_555
Ba2 O17 3.328201 1_554
Ba2 O18 3.328201 1_554
Ba2 O14 3.328203 1_554
Ba3 O3 2.812650 1_555
Ba3 O13 2.812656 1_555
Ba3 O0 2.812656 1_555
Ba3 O22 2.979846 1_655
Ba3 O21 2.979846 1_545
Ba3 O10 2.979851 1_655
Ba3 O10 2.979851 1_545
Ba3 O21 2.979857 1_555
Ba3 O22 2.979857 1_555
Ba3 O15 3.328201 1_555
Ba3 O16 3.328201 1_555
Ba3 O19 3.328203 1_555
Ba4 O12 2.798134 1_555
Ba4 O1 2.798140 1_555
Ba4 O2 2.798140 1_555
Ba4 O5 2.937311 1_565
Ba4 O6 2.937311 1_455
Ba4 O9 2.937316 1_565
Ba4 O9 2.937316 1_455
Ba4 O6 2.937323 1_555
Ba4 O5 2.937323 1_555
Ba4 O15 2.992076 1_455
Ba4 O16 2.992076 1_565
Ba4 O19 2.992079 1_555
Ba5 O3 2.798134 1_555
Ba5 O0 2.798140 1_555
Ba5 O13 2.798140 1_555
Ba5 O8 2.937311 1_545
Ba5 O7 2.937311 1_655
Ba5 O4 2.937316 1_655
Ba5 O4 2.937316 1_545
Ba5 O8 2.937323 1_555
Ba5 O7 2.937323 1_555
Ba5 O17 2.992076 1_545
Ba5 O18 2.992076 1_655
Ba5 O14 2.992079 1_555
Ba6 O12 2.938698 1_655
Ba6 O12 2.938698 1_545
Ba6 O2 2.938698 1_555
Ba6 O1 2.938698 1_555
Ba6 O1 2.938698 1_655
Ba6 O2 2.938698 1_545
Ba6 O11 2.999840 1_555
Ba6 O23 2.999840 1_555
Ba6 O20 2.999841 1_555
Ba6 O5 3.029911 1_555
Ba6 O6 3.029911 1_555
Ba6 O9 3.029911 1_555
Ba7 O3 2.938698 1_455
Ba7 O3 2.938698 1_565
Ba7 O13 2.938698 1_555
Ba7 O0 2.938698 1_555
Ba7 O13 2.938698 1_565
Ba7 O0 2.938698 1_455
Ba7 O22 2.999840 1_555
Ba7 O21 2.999840 1_555
Ba7 O10 2.999841 1_555
Ba7 O8 3.029911 1_555
Ba7 O7 3.029911 1_555
Ba7 O4 3.029911 1_555
Li0 O20 1.999248 1_455
Li0 O23 1.999252 1_445
Li0 O11 1.999252 1_555
Li0 O2 2.395756 1_445
Li0 O1 2.395756 1_555
Li0 O12 2.395760 1_545
Li1 O10 1.999248 1_545
Li1 O21 1.999252 1_445
Li1 O22 1.999252 1_555
Li1 O13 2.395756 1_555
Li1 O0 2.395756 1_445
Li1 O3 2.395760 1_455
O0 Ta1 1.901608 1_665
O1 Ta0 1.901608 1_555
O2 Ta0 1.901608 1_665
O3 Ta1 1.901612 1_655
O4 Ta4 2.035602 1_555
O4 Ta1 2.177844 1_565
O5 Ta5 2.035601 1_555
O5 Ta0 2.177848 1_555
O6 Ta5 2.035601 1_555
O6 Ta0 2.177848 1_665
O7 Ta4 2.035601 1_555
O7 Ta1 2.177848 1_555
O8 Ta4 2.035601 1_555
O8 Ta1 2.177848 1_665
O9 Ta5 2.035602 1_555
O9 Ta0 2.177844 1_655
O10 Ta2 1.905919 1_555
O11 Ta3 1.905919 1_555
O12 Ta0 1.901612 1_565
O13 Ta1 1.901608 1_555
O14 Ta4 2.008803 1_555
O14 Ta3 2.171061 1_556
O15 Ta5 2.008799 1_555
O15 Ta2 2.171057 1_655
O16 Ta5 2.008799 1_555
O16 Ta2 2.171057 1_545
O17 Ta4 2.008799 1_555
O17 Ta3 2.171057 1_566
O18 Ta4 2.008799 1_555
O18 Ta3 2.171057 1_456
O19 Ta5 2.008803 1_555
O19 Ta2 2.171061 1_555
O20 Ta3 1.905919 1_555
O21 Ta2 1.905919 1_555
O22 Ta2 1.905919 1_555
O23 Ta3 1.905919 1_555
