# generated using pymatgen
data_NaB10Pb4Cl2O19
_symmetry_space_group_name_H-M   'P 1'
_cell_length_a   11.58458600
_cell_length_b   6.74442200
_cell_length_c   13.32417397
_cell_angle_alpha   59.80446424
_cell_angle_beta   90.00000000
_cell_angle_gamma   90.00000000
_symmetry_Int_Tables_number   1
_chemical_formula_structural   NaB10Pb4Cl2O19
_chemical_formula_sum   'Na2 B20 Pb8 Cl4 O38'
_cell_volume   899.78156866
_cell_formula_units_Z   2
loop_
 _symmetry_equiv_pos_site_id
 _symmetry_equiv_pos_as_xyz
  1  'x, y, z'
loop_
 _atom_site_type_symbol
 _atom_site_label
 _atom_site_symmetry_multiplicity
 _atom_site_fract_x
 _atom_site_fract_y
 _atom_site_fract_z
 _atom_site_occupancy
  Na  Na0  1  0.75438900  0.35170400  0.99395900  1
  Na  Na1  1  0.24561100  0.35170400  0.49395900  1
  B  B0  1  0.77183900  0.93427300  0.25376400  1
  B  B1  1  0.72912500  0.45183800  0.73872200  1
  B  B2  1  0.27087500  0.45183800  0.23872200  1
  B  B3  1  0.22816100  0.93427300  0.75376400  1
  B  B4  1  0.96216400  0.14039800  0.16092900  1
  B  B5  1  0.54138000  0.46932300  0.83484500  1
  B  B6  1  0.45862000  0.46932300  0.33484500  1
  B  B7  1  0.03783600  0.14039800  0.66092900  1
  B  B8  1  0.94820600  0.70590000  0.26758200  1
  B  B9  1  0.55414900  0.24295000  0.72910000  1
  B  B10  1  0.44585100  0.24295000  0.22910000  1
  B  B11  1  0.05179400  0.70590000  0.76758200  1
  B  B12  1  0.95137400  0.45938600  0.69157800  1
  B  B13  1  0.54874500  0.84273700  0.30554100  1
  B  B14  1  0.45125500  0.84273700  0.80554100  1
  B  B15  1  0.04862600  0.45938600  0.19157800  1
  B  B16  1  0.99791800  0.53579700  0.98843600  1
  B  B17  1  0.50497500  0.51646300  0.00924000  1
  B  B18  1  0.49502500  0.51646300  0.50924000  1
  B  B19  1  0.00208200  0.53579700  0.48843600  1
  Pb  Pb0  1  0.28154800  0.45233400  0.72523600  1
  Pb  Pb1  1  0.22118500  0.92652500  0.26581700  1
  Pb  Pb2  1  0.77881500  0.92652500  0.76581700  1
  Pb  Pb3  1  0.71845200  0.45233400  0.22523600  1
  Pb  Pb4  1  0.97042600  0.04576900  0.45383600  1
  Pb  Pb5  1  0.51021000  0.95946000  0.53724500  1
  Pb  Pb6  1  0.48979000  0.95946000  0.03724500  1
  Pb  Pb7  1  0.02957400  0.04576900  0.95383600  1
  Cl  Cl0  1  0.73529600  0.13056200  0.51467300  1
  Cl  Cl1  1  0.26470400  0.13056200  0.01467300  1
  Cl  Cl2  1  0.78896800  0.00057900  0.96873700  1
  Cl  Cl3  1  0.21103200  0.00057900  0.46873700  1
  O  O0  1  0.95651400  0.21495400  0.72051000  1
  O  O1  1  0.54202600  0.65754000  0.27671600  1
  O  O2  1  0.45797400  0.65754000  0.77671600  1
  O  O3  1  0.04348600  0.21495400  0.22051000  1
  O  O4  1  0.82004700  0.72669100  0.28217100  1
  O  O5  1  0.68176000  0.29889700  0.71031500  1
  O  O6  1  0.31824000  0.29889700  0.21031500  1
  O  O7  1  0.17995300  0.72669100  0.78217100  1
  O  O8  1  0.71711900  0.63764300  0.02546700  1
  O  O9  1  0.28288100  0.63764300  0.52546700  1
  O  O10  1  0.84073500  0.13158300  0.20312200  1
  O  O11  1  0.66075300  0.54836800  0.78926800  1
  O  O12  1  0.33924700  0.54836800  0.28926800  1
  O  O13  1  0.15926500  0.13158300  0.70312200  1
  O  O14  1  0.99475800  0.92195600  0.16921400  1
  O  O15  1  0.51155700  0.26205100  0.82916800  1
  O  O16  1  0.48844300  0.26205100  0.32916800  1
  O  O17  1  0.00524200  0.92195600  0.66921400  1
  O  O18  1  0.96241300  0.31107800  0.03201400  1
  O  O19  1  0.54516200  0.38439500  0.96354700  1
  O  O20  1  0.45483800  0.38439500  0.46354700  1
  O  O21  1  0.03758700  0.31107800  0.53201400  1
  O  O22  1  0.99203700  0.68989500  0.87190200  1
  O  O23  1  0.50737900  0.42980300  0.12699900  1
  O  O24  1  0.49262100  0.42980300  0.62699900  1
  O  O25  1  0.00796300  0.68989500  0.37190200  1
  O  O26  1  0.96823800  0.61224500  0.56192400  1
  O  O27  1  0.53813200  0.73474500  0.43667700  1
  O  O28  1  0.46186800  0.73474500  0.93667700  1
  O  O29  1  0.03176200  0.61224500  0.06192400  1
  O  O30  1  0.95746100  0.50380600  0.25497000  1
  O  O31  1  0.54514300  0.01205900  0.74588800  1
  O  O32  1  0.45485700  0.01205900  0.24588800  1
  O  O33  1  0.04253900  0.50380600  0.75497000  1
  O  O34  1  0.84091000  0.52000500  0.72198200  1
  O  O35  1  0.65877400  0.96928700  0.26790500  1
  O  O36  1  0.34122600  0.96928700  0.76790500  1
  O  O37  1  0.15909000  0.52000500  0.22198200  1
loop_
_geom_bond_atom_site_label_1
_geom_bond_atom_site_label_2
_geom_bond_distance
_geom_bond_site_symmetry_2
Na0 O8 2.212724 1_556
Na0 O19 2.449038 1_555
Na0 O18 2.449471 1_556
Na0 O11 2.595276 1_555
Na0 O10 2.609530 1_556
Na1 O9 2.212724 1_555
Na1 O20 2.449038 1_555
Na1 O21 2.449471 1_555
Na1 O12 2.595276 1_555
Na1 O13 2.609530 1_555
B0 O35 1.360746 1_555
B0 O4 1.371923 1_555
B0 O10 1.399984 1_565
B1 O34 1.354602 1_555
B1 O5 1.378788 1_555
B1 O11 1.394936 1_555
B2 O37 1.354602 1_555
B2 O6 1.378788 1_555
B2 O12 1.394936 1_555
B3 O36 1.360746 1_555
B3 O7 1.371923 1_555
B3 O13 1.399984 1_565
B4 O14 1.470263 1_545
B4 O3 1.473816 1_655
B4 O10 1.504921 1_555
B4 O18 1.512151 1_555
B5 O2 1.468295 1_555
B5 O15 1.478397 1_555
B5 O11 1.496566 1_555
B5 O19 1.510848 1_555
B6 O1 1.468295 1_555
B6 O16 1.478397 1_555
B6 O12 1.496566 1_555
B6 O20 1.510848 1_555
B7 O17 1.470263 1_545
B7 O0 1.473816 1_455
B7 O13 1.504921 1_555
B7 O21 1.512151 1_555
B8 O30 1.458740 1_555
B8 O14 1.486906 1_555
B8 O25 1.507312 1_655
B8 O4 1.512980 1_555
B9 O31 1.461331 1_555
B9 O15 1.486802 1_555
B9 O24 1.490764 1_555
B9 O5 1.515076 1_555
B10 O32 1.461331 1_555
B10 O16 1.486802 1_555
B10 O23 1.490764 1_555
B10 O6 1.515076 1_555
B11 O33 1.458740 1_555
B11 O17 1.486906 1_555
B11 O22 1.507312 1_455
B11 O7 1.512980 1_555
B12 O34 1.461316 1_555
B12 O33 1.474139 1_655
B12 O0 1.493525 1_555
B12 O26 1.514554 1_555
B13 O35 1.474489 1_555
B13 O1 1.481971 1_555
B13 O32 1.485201 1_565
B13 O27 1.522646 1_555
B14 O36 1.474489 1_555
B14 O2 1.481971 1_555
B14 O31 1.485201 1_565
B14 O28 1.522646 1_555
B15 O37 1.461316 1_555
B15 O30 1.474139 1_455
B15 O3 1.493525 1_555
B15 O29 1.514554 1_555
B16 O22 1.368376 1_555
B16 O29 1.373377 1_656
B16 O18 1.384972 1_556
B17 O23 1.371786 1_555
B17 O28 1.385538 1_554
B17 O19 1.387905 1_554
B18 O24 1.371786 1_555
B18 O27 1.385538 1_555
B18 O20 1.387905 1_555
B19 O25 1.368376 1_555
B19 O26 1.373377 1_455
B19 O21 1.384972 1_555
Cl0 Pb5 2.805748 1_545
Cl0 Pb2 2.951851 1_545
Cl0 Pb4 2.978250 1_555
Cl1 Pb6 2.805748 1_545
Cl1 Pb1 2.951851 1_545
Cl1 Pb7 2.978250 1_554
Cl2 O8 2.322644 1_546
Cl2 Na0 2.584958 1_555
Cl2 Pb7 2.800107 1_655
Cl2 Pb2 2.988623 1_545
Cl3 O9 2.322644 1_545
Cl3 Na1 2.584958 1_555
Cl3 Pb4 2.800107 1_455
Cl3 Pb1 2.988623 1_545
O0 Pb2 2.684216 1_545
O0 Pb7 2.848704 1_655
O1 Pb3 2.741912 1_555
O2 Pb0 2.741912 1_555
O3 Pb1 2.684216 1_545
O3 Pb4 2.848704 1_455
O4 Pb3 2.607026 1_555
O5 Pb2 2.500023 1_545
O6 Pb1 2.500023 1_545
O7 Pb0 2.607026 1_555
O8 Pb3 2.302364 1_555
O9 Pb0 2.302364 1_555
O10 Pb3 2.722963 1_555
O11 Pb2 2.769729 1_555
O12 Pb1 2.769729 1_555
O13 Pb0 2.722963 1_555
O14 Pb7 2.585505 1_664
O15 Pb6 2.494698 1_546
O16 Pb5 2.494698 1_545
O17 Pb4 2.585505 1_465
O18 Pb7 2.601361 1_654
O19 Pb6 2.599706 1_546
O20 Pb5 2.599706 1_545
O21 Pb4 2.601361 1_455
O23 Pb3 2.813437 1_555
O24 Pb0 2.813437 1_555
O26 Pb4 2.527450 1_565
O27 Pb5 2.497997 1_555
O28 Pb6 2.497997 1_556
O29 Pb7 2.527450 1_564
O30 Pb3 2.842918 1_555
O30 Pb4 2.890134 1_555
O31 Pb2 2.752639 1_545
O32 Pb1 2.752639 1_545
O33 Pb0 2.842918 1_555
O33 Pb7 2.890134 1_555
