# generated using pymatgen
data_MnH28C12Br2(N4O)2
_symmetry_space_group_name_H-M   'P 1'
_cell_length_a   22.46668500
_cell_length_b   7.46785900
_cell_length_c   12.12021300
_cell_angle_alpha   90.00000000
_cell_angle_beta   90.00000000
_cell_angle_gamma   90.00000000
_symmetry_Int_Tables_number   1
_chemical_formula_structural   MnH28C12Br2(N4O)2
_chemical_formula_sum   'Mn4 H112 C48 Br8 N32 O8'
_cell_volume   2033.50553034
_cell_formula_units_Z   4
loop_
 _symmetry_equiv_pos_site_id
 _symmetry_equiv_pos_as_xyz
  1  'x, y, z'
loop_
 _atom_site_type_symbol
 _atom_site_label
 _atom_site_symmetry_multiplicity
 _atom_site_fract_x
 _atom_site_fract_y
 _atom_site_fract_z
 _atom_site_occupancy
  Mn  Mn0  1  0.61906600  0.98742100  0.64200000  1
  Mn  Mn1  1  0.38093400  0.01257900  0.14200000  1
  Mn  Mn2  1  0.88093400  0.48742100  0.14200000  1
  Mn  Mn3  1  0.11906600  0.51257900  0.64200000  1
  H  H0  1  0.53526000  0.69524100  0.66525100  1
  H  H1  1  0.46474000  0.30475900  0.16525100  1
  H  H2  1  0.96474000  0.19524100  0.16525100  1
  H  H3  1  0.03526000  0.80475900  0.66525100  1
  H  H4  1  0.55008600  0.74911700  0.79130800  1
  H  H5  1  0.44991400  0.25088300  0.29130800  1
  H  H6  1  0.94991400  0.24911700  0.29130800  1
  H  H7  1  0.05008600  0.75088300  0.79130800  1
  H  H8  1  0.70568400  0.27520500  0.61176500  1
  H  H9  1  0.29431600  0.72479500  0.11176500  1
  H  H10  1  0.79431600  0.77520500  0.11176500  1
  H  H11  1  0.20568400  0.22479500  0.61176500  1
  H  H12  1  0.70044800  0.17531500  0.49266900  1
  H  H13  1  0.29955200  0.82468500  0.99266900  1
  H  H14  1  0.79955200  0.67531500  0.99266900  1
  H  H15  1  0.20044800  0.32468500  0.49266900  1
  H  H16  1  0.68363300  0.60917600  0.57141300  1
  H  H17  1  0.31636700  0.39082400  0.07141300  1
  H  H18  1  0.81636700  0.10917600  0.07141300  1
  H  H19  1  0.18363300  0.89082400  0.57141300  1
  H  H20  1  0.65397800  0.56339800  0.70527300  1
  H  H21  1  0.34602200  0.43660200  0.20527300  1
  H  H22  1  0.84602200  0.06339800  0.20527300  1
  H  H23  1  0.15397800  0.93660200  0.70527300  1
  H  H24  1  0.77464800  0.98549900  0.66155100  1
  H  H25  1  0.22535200  0.01450100  0.16155100  1
  H  H26  1  0.72535200  0.48549900  0.16155100  1
  H  H27  1  0.27464800  0.51450100  0.66155100  1
  H  H28  1  0.75404600  0.84780200  0.54672400  1
  H  H29  1  0.24595400  0.15219800  0.04672400  1
  H  H30  1  0.74595400  0.34780200  0.04672400  1
  H  H31  1  0.25404600  0.65219800  0.54672400  1
  H  H32  1  0.68133100  0.74871800  0.85899900  1
  H  H33  1  0.31866900  0.25128200  0.35899900  1
  H  H34  1  0.81866900  0.24871800  0.35899900  1
  H  H35  1  0.18133100  0.75128200  0.85899900  1
  H  H36  1  0.73307000  0.92707700  0.84062100  1
  H  H37  1  0.26693000  0.07292300  0.34062100  1
  H  H38  1  0.76693000  0.42707700  0.34062100  1
  H  H39  1  0.23307000  0.57292300  0.84062100  1
  H  H40  1  0.78911000  0.54615600  0.53537500  1
  H  H41  1  0.21089000  0.45384400  0.03537500  1
  H  H42  1  0.71089000  0.04615600  0.03537500  1
  H  H43  1  0.28911000  0.95384400  0.53537500  1
  H  H44  1  0.83378900  0.45429400  0.64443100  1
  H  H45  1  0.16621100  0.54570600  0.14443100  1
  H  H46  1  0.66621100  0.95429400  0.14443100  1
  H  H47  1  0.33378900  0.04570600  0.64443100  1
  H  H48  1  0.86076000  0.63392900  0.79751600  1
  H  H49  1  0.13924000  0.36607100  0.29751600  1
  H  H50  1  0.63924000  0.13392900  0.29751600  1
  H  H51  1  0.36076000  0.86607100  0.79751600  1
  H  H52  1  0.83608700  0.86277200  0.80627800  1
  H  H53  1  0.16391300  0.13722800  0.30627800  1
  H  H54  1  0.66391300  0.36277200  0.30627800  1
  H  H55  1  0.33608700  0.63722800  0.80627800  1
  H  H56  1  0.71468600  0.43868100  0.84614600  1
  H  H57  1  0.28531400  0.56131900  0.34614600  1
  H  H58  1  0.78531400  0.93868100  0.34614600  1
  H  H59  1  0.21468600  0.06131900  0.84614600  1
  H  H60  1  0.79214100  0.39472900  0.82174300  1
  H  H61  1  0.20785900  0.60527100  0.32174300  1
  H  H62  1  0.70785900  0.89472900  0.32174300  1
  H  H63  1  0.29214100  0.10527100  0.82174300  1
  H  H64  1  0.50236000  0.04739000  0.44791100  1
  H  H65  1  0.49764000  0.95261000  0.94791100  1
  H  H66  1  0.99764000  0.54739000  0.94791100  1
  H  H67  1  0.00236000  0.45261000  0.44791100  1
  H  H68  1  0.55543600  0.22085500  0.42406200  1
  H  H69  1  0.44456400  0.77914500  0.92406200  1
  H  H70  1  0.94456400  0.72085500  0.92406200  1
  H  H71  1  0.05543600  0.27914500  0.42406200  1
  H  H72  1  0.48663200  0.13993900  0.74233500  1
  H  H73  1  0.51336800  0.86006100  0.24233500  1
  H  H74  1  0.01336800  0.63993900  0.24233500  1
  H  H75  1  0.98663200  0.36006100  0.74233500  1
  H  H76  1  0.46345100  0.99926900  0.63078200  1
  H  H77  1  0.53654900  0.00073100  0.13078200  1
  H  H78  1  0.03654900  0.49926900  0.13078200  1
  H  H79  1  0.96345100  0.50073100  0.63078200  1
  H  H80  1  0.58621500  0.41151900  0.57215800  1
  H  H81  1  0.41378500  0.58848100  0.07215800  1
  H  H82  1  0.91378500  0.91151900  0.07215800  1
  H  H83  1  0.08621500  0.08848100  0.57215800  1
  H  H84  1  0.55856800  0.37411900  0.70870600  1
  H  H85  1  0.44143200  0.62588100  0.20870600  1
  H  H86  1  0.94143200  0.87411900  0.20870600  1
  H  H87  1  0.05856800  0.12588100  0.70870600  1
  H  H88  1  0.40061400  0.12076700  0.48643200  1
  H  H89  1  0.59938600  0.87923300  0.98643200  1
  H  H90  1  0.09938600  0.62076700  0.98643200  1
  H  H91  1  0.90061400  0.37923300  0.48643200  1
  H  H92  1  0.37804800  0.35144200  0.49458900  1
  H  H93  1  0.62195200  0.64855800  0.99458900  1
  H  H94  1  0.12195200  0.85144200  0.99458900  1
  H  H95  1  0.87804800  0.14855800  0.49458900  1
  H  H96  1  0.40855900  0.53545800  0.64320800  1
  H  H97  1  0.59144100  0.46454200  0.14320800  1
  H  H98  1  0.09144100  0.03545800  0.14320800  1
  H  H99  1  0.90855900  0.96454200  0.64320800  1
  H  H100  1  0.45503700  0.44404900  0.74978900  1
  H  H101  1  0.54496300  0.55595100  0.24978900  1
  H  H102  1  0.04496300  0.94404900  0.24978900  1
  H  H103  1  0.95503700  0.05595100  0.74978900  1
  H  H104  1  0.44767400  0.58522000  0.46135400  1
  H  H105  1  0.55232600  0.41478000  0.96135400  1
  H  H106  1  0.05232600  0.08522000  0.96135400  1
  H  H107  1  0.94767400  0.91478000  0.46135400  1
  H  H108  1  0.52408300  0.53523000  0.43363700  1
  H  H109  1  0.47591700  0.46477000  0.93363700  1
  H  H110  1  0.97591700  0.03523000  0.93363700  1
  H  H111  1  0.02408300  0.96477000  0.43363700  1
  C  C0  1  0.69370100  0.60749200  0.66008000  1
  C  C1  1  0.30629900  0.39250800  0.16008000  1
  C  C2  1  0.80629900  0.10749200  0.16008000  1
  C  C3  1  0.19370100  0.89250800  0.66008000  1
  C  C4  1  0.76323300  0.84869700  0.63572200  1
  C  C5  1  0.23676700  0.15130300  0.13572200  1
  C  C6  1  0.73676700  0.34869700  0.13572200  1
  C  C7  1  0.26323300  0.65130300  0.63572200  1
  C  C8  1  0.72151000  0.79058500  0.81458000  1
  C  C9  1  0.27849000  0.20941500  0.31458000  1
  C  C10  1  0.77849000  0.29058500  0.31458000  1
  C  C11  1  0.22151000  0.70941500  0.81458000  1
  C  C12  1  0.79695200  0.54600700  0.62493000  1
  C  C13  1  0.20304800  0.45399300  0.12493000  1
  C  C14  1  0.70304800  0.04600700  0.12493000  1
  C  C15  1  0.29695200  0.95399300  0.62493000  1
  C  C16  1  0.82409700  0.72678900  0.77886800  1
  C  C17  1  0.17590300  0.27321100  0.27886800  1
  C  C18  1  0.67590300  0.22678900  0.27886800  1
  C  C19  1  0.32409700  0.77321100  0.77886800  1
  C  C20  1  0.75483800  0.48481000  0.80271000  1
  C  C21  1  0.24516200  0.51519000  0.30271000  1
  C  C22  1  0.74516200  0.98481000  0.30271000  1
  C  C23  1  0.25483800  0.01519000  0.80271000  1
  C  C24  1  0.51569900  0.18350300  0.47149500  1
  C  C25  1  0.48430100  0.81649700  0.97149500  1
  C  C26  1  0.98430100  0.68350300  0.97149500  1
  C  C27  1  0.01569900  0.31649700  0.47149500  1
  C  C28  1  0.47634700  0.13611300  0.65377900  1
  C  C29  1  0.52365300  0.86388700  0.15377900  1
  C  C30  1  0.02365300  0.63611300  0.15377900  1
  C  C31  1  0.97634700  0.36388700  0.65377900  1
  C  C32  1  0.54711600  0.37150100  0.62065200  1
  C  C33  1  0.45288400  0.62849900  0.12065200  1
  C  C34  1  0.95288400  0.87150100  0.12065200  1
  C  C35  1  0.04711600  0.12849900  0.62065200  1
  C  C36  1  0.41429700  0.25617100  0.51169100  1
  C  C37  1  0.58570300  0.74382900  0.01169100  1
  C  C38  1  0.08570300  0.75617100  0.01169100  1
  C  C39  1  0.91429700  0.24382900  0.51169100  1
  C  C40  1  0.44502300  0.44133400  0.66104200  1
  C  C41  1  0.55497700  0.55866600  0.16104200  1
  C  C42  1  0.05497700  0.94133400  0.16104200  1
  C  C43  1  0.94502300  0.05866600  0.66104200  1
  C  C44  1  0.48438400  0.49225900  0.47951400  1
  C  C45  1  0.51561600  0.50774100  0.97951400  1
  C  C46  1  0.01561600  0.99225900  0.97951400  1
  C  C47  1  0.98438400  0.00774100  0.47951400  1
  Br  Br0  1  0.61138300  0.82112300  0.45037200  1
  Br  Br1  1  0.38861700  0.17887700  0.95037200  1
  Br  Br2  1  0.88861700  0.32112300  0.95037200  1
  Br  Br3  1  0.11138300  0.67887700  0.45037200  1
  Br  Br4  1  0.62465200  0.15330500  0.83524500  1
  Br  Br5  1  0.37534800  0.84669500  0.33524500  1
  Br  Br6  1  0.87534800  0.65330500  0.33524500  1
  Br  Br7  1  0.12465200  0.34669500  0.83524500  1
  N  N0  1  0.70776700  0.79395700  0.69455400  1
  N  N1  1  0.29223300  0.20604300  0.19455400  1
  N  N2  1  0.79223300  0.29395700  0.19455400  1
  N  N3  1  0.20776700  0.70604300  0.69455400  1
  N  N4  1  0.74268300  0.48165500  0.68263700  1
  N  N5  1  0.25731700  0.51834500  0.18263700  1
  N  N6  1  0.75731700  0.98165500  0.18263700  1
  N  N7  1  0.24268300  0.01834500  0.68263700  1
  N  N8  1  0.81323800  0.72852900  0.65945100  1
  N  N9  1  0.18676200  0.27147100  0.15945100  1
  N  N10  1  0.68676200  0.22852900  0.15945100  1
  N  N11  1  0.31323800  0.77147100  0.65945100  1
  N  N12  1  0.77083500  0.66739600  0.84169000  1
  N  N13  1  0.22916500  0.33260400  0.34169000  1
  N  N14  1  0.72916500  0.16739600  0.34169000  1
  N  N15  1  0.27083500  0.83260400  0.84169000  1
  N  N16  1  0.53126800  0.18467900  0.59081100  1
  N  N17  1  0.46873200  0.81532100  0.09081100  1
  N  N18  1  0.96873200  0.68467900  0.09081100  1
  N  N19  1  0.03126800  0.31532100  0.59081100  1
  N  N20  1  0.46686700  0.30911800  0.44488000  1
  N  N21  1  0.53313300  0.69088200  0.94488000  1
  N  N22  1  0.03313300  0.80911800  0.94488000  1
  N  N23  1  0.96686700  0.19088200  0.44488000  1
  N  N24  1  0.42692000  0.25908600  0.63042100  1
  N  N25  1  0.57308000  0.74091400  0.13042100  1
  N  N26  1  0.07308000  0.75908600  0.13042100  1
  N  N27  1  0.92692000  0.24091400  0.63042100  1
  N  N28  1  0.49853800  0.49969200  0.59877500  1
  N  N29  1  0.50146200  0.50030800  0.09877500  1
  N  N30  1  0.00146200  0.99969200  0.09877500  1
  N  N31  1  0.99853800  0.00030800  0.59877500  1
  O  O0  1  0.55760400  0.78242300  0.71280900  1
  O  O1  1  0.44239600  0.21757700  0.21280900  1
  O  O2  1  0.94239600  0.28242300  0.21280900  1
  O  O3  1  0.05760400  0.71757700  0.71280900  1
  O  O4  1  0.68202100  0.18754600  0.56747900  1
  O  O5  1  0.31797900  0.81245400  0.06747900  1
  O  O6  1  0.81797900  0.68754600  0.06747900  1
  O  O7  1  0.18202100  0.31245400  0.56747900  1
loop_
_geom_bond_atom_site_label_1
_geom_bond_atom_site_label_2
_geom_bond_distance
_geom_bond_site_symmetry_2
Mn0 O0 2.233142 1_555
Mn0 O4 2.247184 1_565
Mn0 N16 2.538859 1_565
Mn0 N0 2.542515 1_555
Mn1 O1 2.233142 1_555
Mn1 O5 2.247184 1_545
Mn1 N17 2.538859 1_545
Mn1 N1 2.542515 1_555
Mn2 O2 2.233142 1_555
Mn2 O6 2.247184 1_555
Mn2 N18 2.538859 1_555
Mn2 N2 2.542515 1_555
Mn3 O3 2.233142 1_555
Mn3 O7 2.247184 1_555
Mn3 N19 2.538859 1_555
Mn3 N3 2.542515 1_555
H0 O0 1.004059 1_555
H1 O1 1.004059 1_555
H2 O2 1.004059 1_555
H3 O3 1.004059 1_555
H4 O0 0.997798 1_555
H5 O1 0.997798 1_555
H6 O2 0.997798 1_555
H7 O3 0.997798 1_555
H8 O4 0.999635 1_555
H9 O5 0.999635 1_555
H10 O6 0.999635 1_555
H11 O7 0.999635 1_555
H12 O4 1.000931 1_555
H13 O5 1.000931 1_556
H14 O6 1.000931 1_556
H15 O7 1.000931 1_555
C0 H20 1.097687 1_555
C0 H16 1.098282 1_555
C0 N4 1.472706 1_555
C0 N0 1.487780 1_555
C1 H21 1.097687 1_555
C1 H17 1.098282 1_555
C1 N5 1.472706 1_555
C1 N1 1.487780 1_555
C2 H22 1.097687 1_555
C2 H18 1.098282 1_555
C2 N6 1.472706 1_545
C2 N2 1.487780 1_555
C3 H23 1.097687 1_555
C3 H19 1.098282 1_555
C3 N7 1.472706 1_565
C3 N3 1.487780 1_555
C4 H28 1.098265 1_555
C4 H24 1.098852 1_555
C4 N8 1.466345 1_555
C4 N0 1.492788 1_555
C5 H29 1.098265 1_555
C5 H25 1.098852 1_555
C5 N9 1.466345 1_555
C5 N1 1.492788 1_555
C6 H30 1.098265 1_555
C6 H26 1.098852 1_555
C6 N10 1.466345 1_555
C6 N2 1.492788 1_555
C7 H31 1.098265 1_555
C7 H27 1.098852 1_555
C7 N11 1.466345 1_555
C7 N3 1.492788 1_555
C8 H32 1.096559 1_555
C8 H36 1.098202 1_555
C8 N12 1.477270 1_555
C8 N0 1.487359 1_555
C9 H33 1.096559 1_555
C9 H37 1.098202 1_555
C9 N13 1.477270 1_555
C9 N1 1.487359 1_555
C10 H34 1.096559 1_555
C10 H38 1.098202 1_555
C10 N14 1.477270 1_555
C10 N2 1.487359 1_555
C11 H35 1.096559 1_555
C11 H39 1.098202 1_555
C11 N15 1.477270 1_555
C11 N3 1.487359 1_555
C12 H40 1.099632 1_555
C12 H44 1.099947 1_555
C12 N8 1.472019 1_555
C12 N4 1.485495 1_555
C13 H41 1.099632 1_555
C13 H45 1.099947 1_555
C13 N9 1.472019 1_555
C13 N5 1.485495 1_555
C14 H42 1.099632 1_555
C14 H46 1.099947 1_545
C14 N10 1.472019 1_555
C14 N6 1.485495 1_545
C15 H43 1.099632 1_555
C15 H47 1.099947 1_565
C15 N11 1.472019 1_555
C15 N7 1.485495 1_565
C16 H48 1.100206 1_555
C16 H52 1.101896 1_555
C16 N8 1.467834 1_555
C16 N12 1.486062 1_555
C17 H49 1.100206 1_555
C17 H53 1.101896 1_555
C17 N9 1.467834 1_555
C17 N13 1.486062 1_555
C18 H50 1.100206 1_555
C18 H54 1.101896 1_555
C18 N10 1.467834 1_555
C18 N14 1.486062 1_555
C19 H51 1.100206 1_555
C19 H55 1.101896 1_555
C19 N11 1.467834 1_555
C19 N15 1.486062 1_555
C20 H60 1.099148 1_555
C20 H56 1.099807 1_555
C20 N4 1.480897 1_555
C20 N12 1.487137 1_555
C21 H61 1.099148 1_555
C21 H57 1.099807 1_555
C21 N5 1.480897 1_555
C21 N13 1.487137 1_555
C22 H62 1.099148 1_555
C22 H58 1.099807 1_555
C22 N6 1.480897 1_555
C22 N14 1.487137 1_565
C23 H63 1.099148 1_555
C23 H59 1.099807 1_555
C23 N7 1.480897 1_555
C23 N15 1.487137 1_545
C24 H64 1.097603 1_555
C24 H68 1.097877 1_555
C24 N20 1.479073 1_555
C24 N16 1.487862 1_555
C25 H65 1.097603 1_555
C25 H69 1.097877 1_555
C25 N21 1.479073 1_555
C25 N17 1.487862 1_556
C26 H66 1.097603 1_555
C26 H70 1.097877 1_555
C26 N22 1.479073 1_655
C26 N18 1.487862 1_556
C27 H67 1.097603 1_555
C27 H71 1.097877 1_555
C27 N23 1.479073 1_455
C27 N19 1.487862 1_555
C28 H76 1.098170 1_545
C28 H72 1.098281 1_555
C28 N24 1.468546 1_555
C28 N16 1.495488 1_555
C29 H77 1.098170 1_565
C29 H73 1.098281 1_555
C29 N25 1.468546 1_555
C29 N17 1.495488 1_555
C30 H78 1.098170 1_555
C30 H74 1.098281 1_555
C30 N26 1.468546 1_555
C30 N18 1.495488 1_455
C31 H79 1.098170 1_555
C31 H75 1.098281 1_555
C31 N27 1.468546 1_555
C31 N19 1.495488 1_655
C32 H84 1.097983 1_555
C32 H80 1.098362 1_555
C32 N28 1.475764 1_555
C32 N16 1.484607 1_555
C33 H85 1.097983 1_555
C33 H81 1.098362 1_555
C33 N29 1.475764 1_555
C33 N17 1.484607 1_555
C34 H86 1.097983 1_555
C34 H82 1.098362 1_555
C34 N30 1.475764 1_655
C34 N18 1.484607 1_555
C35 H87 1.097983 1_555
C35 H83 1.098362 1_555
C35 N31 1.475764 1_455
C35 N19 1.484607 1_555
C36 H88 1.100321 1_555
C36 H92 1.101088 1_555
C36 N24 1.466873 1_555
C36 N20 1.485595 1_555
C37 H89 1.100321 1_554
C37 H93 1.101088 1_554
C37 N25 1.466873 1_555
C37 N21 1.485595 1_554
C38 H90 1.100321 1_554
C38 H94 1.101088 1_554
C38 N26 1.466873 1_555
C38 N22 1.485595 1_554
C39 H91 1.100321 1_555
C39 H95 1.101088 1_555
C39 N27 1.466873 1_555
C39 N23 1.485595 1_555
C40 H100 1.099096 1_555
C40 H96 1.100875 1_555
C40 N24 1.468157 1_555
C40 N28 1.484932 1_555
C41 H101 1.099096 1_555
C41 H97 1.100875 1_555
C41 N25 1.468157 1_555
C41 N29 1.484932 1_555
C42 H102 1.099096 1_555
C42 H98 1.100875 1_565
C42 N26 1.468157 1_555
C42 N30 1.484932 1_555
C43 H103 1.099096 1_555
C43 H99 1.100875 1_545
C43 N27 1.468157 1_555
C43 N31 1.484932 1_555
C44 H108 1.098932 1_555
C44 H104 1.100274 1_555
C44 N28 1.481074 1_555
C44 N20 1.483783 1_555
C45 H109 1.098932 1_555
C45 H105 1.100274 1_555
C45 N29 1.481074 1_556
C45 N21 1.483783 1_555
C46 H110 1.098932 1_465
C46 H106 1.100274 1_565
C46 N30 1.481074 1_556
C46 N22 1.483783 1_555
C47 H111 1.098932 1_645
C47 H107 1.100274 1_545
C47 N31 1.481074 1_555
C47 N23 1.483783 1_555
Br0 Mn0 2.639399 1_555
Br1 Mn1 2.639399 1_556
Br2 Mn2 2.639399 1_556
Br3 Mn3 2.639399 1_555
Br4 Mn0 2.652571 1_545
Br5 Mn1 2.652571 1_565
Br6 Mn2 2.652571 1_555
Br7 Mn3 2.652571 1_555
