# generated using pymatgen
data_MnCu2SnS4
_symmetry_space_group_name_H-M   'P 1'
_cell_length_a   6.67157920
_cell_length_b   6.67157920
_cell_length_c   6.67157920
_cell_angle_alpha   131.25527301
_cell_angle_beta   131.25527301
_cell_angle_gamma   71.40781638
_symmetry_Int_Tables_number   1
_chemical_formula_structural   MnCu2SnS4
_chemical_formula_sum   'Mn1 Cu2 Sn1 S4'
_cell_volume   164.25585406
_cell_formula_units_Z   1
loop_
 _symmetry_equiv_pos_site_id
 _symmetry_equiv_pos_as_xyz
  1  'x, y, z'
loop_
 _atom_site_type_symbol
 _atom_site_label
 _atom_site_symmetry_multiplicity
 _atom_site_fract_x
 _atom_site_fract_y
 _atom_site_fract_z
 _atom_site_occupancy
  Mn  Mn0  1  0.00000000  0.00000000  0.00000000  1
  Cu  Cu0  1  0.75000000  0.25000000  0.50000000  1
  Cu  Cu1  1  0.25000000  0.75000000  0.50000000  1
  Sn  Sn0  1  0.50000000  0.50000000  0.00000000  1
  S  S0  1  0.37919800  0.88998000  0.00000000  1
  S  S1  1  0.88998000  0.37919800  0.00000000  1
  S  S2  1  0.62080200  0.62080200  0.51078200  1
  S  S3  1  0.11002000  0.11002000  0.48921800  1
loop_
_geom_bond_atom_site_label_1
_geom_bond_atom_site_label_2
_geom_bond_distance
_geom_bond_site_symmetry_2
Mn0 S0 2.398920 1_545
Mn0 S3 2.398920 1_555
Mn0 S1 2.398920 1_455
Mn0 S2 2.398920 1_444
Cu0 S3 2.314170 1_655
Cu0 S2 2.314170 1_555
Cu0 S1 2.314170 1_556
Cu0 S0 2.314170 1_545
Cu1 S1 2.314170 1_455
Cu1 S3 2.314170 1_565
Cu1 S2 2.314170 1_555
Cu1 S0 2.314170 1_556
S0 Sn0 2.466113 1_555
S1 Sn0 2.466113 1_555
S2 Sn0 2.466113 1_555
S3 Sn0 2.466113 1_556
