# generated using pymatgen
data_Li4MnCo2O7
_symmetry_space_group_name_H-M   'P 1'
_cell_length_a   4.99195400
_cell_length_b   6.60329687
_cell_length_c   7.81170612
_cell_angle_alpha   86.02666392
_cell_angle_beta   77.56338921
_cell_angle_gamma   83.14867323
_symmetry_Int_Tables_number   1
_chemical_formula_structural   Li4MnCo2O7
_chemical_formula_sum   'Li8 Mn2 Co4 O14'
_cell_volume   249.40953915
_cell_formula_units_Z   2
loop_
 _symmetry_equiv_pos_site_id
 _symmetry_equiv_pos_as_xyz
  1  'x, y, z'
loop_
 _atom_site_type_symbol
 _atom_site_label
 _atom_site_symmetry_multiplicity
 _atom_site_fract_x
 _atom_site_fract_y
 _atom_site_fract_z
 _atom_site_occupancy
  Li  Li0  1  0.07150600  0.85273500  0.36685800  1
  Li  Li1  1  0.78453000  0.43561100  0.91613600  1
  Li  Li2  1  0.50872200  0.98623100  0.50039900  1
  Li  Li3  1  0.93516200  0.15015800  0.63792100  1
  Li  Li4  1  0.63718900  0.71066200  0.22506400  1
  Li  Li5  1  0.36871300  0.29347300  0.77852500  1
  Li  Li6  1  0.21572600  0.57179800  0.07077000  1
  Li  Li7  1  0.71826500  0.57360700  0.57058400  1
  Mn  Mn0  1  0.99628200  0.99965300  0.00099700  1
  Mn  Mn1  1  0.85481800  0.28569400  0.28620900  1
  Co  Co0  1  0.42445600  0.14221000  0.14331000  1
  Co  Co1  1  0.14032500  0.71251800  0.70586400  1
  Co  Co2  1  0.56751600  0.84764600  0.85048900  1
  Co  Co3  1  0.28356200  0.43390600  0.43486300  1
  O  O0  1  0.30363700  0.88377200  0.10216600  1
  O  O1  1  0.05667800  0.43513000  0.67479600  1
  O  O2  1  0.74464400  0.01819900  0.23415500  1
  O  O3  1  0.17089600  0.15339500  0.37078400  1
  O  O4  1  0.89304400  0.73824800  0.96603400  1
  O  O5  1  0.61037400  0.28318700  0.50943100  1
  O  O6  1  0.45837200  0.59161800  0.82563900  1
  O  O7  1  0.83192000  0.85720800  0.62184400  1
  O  O8  1  0.54809700  0.40206700  0.18288900  1
  O  O9  1  0.23843600  0.00217000  0.77250000  1
  O  O10  1  0.67575000  0.12706200  0.91453300  1
  O  O11  1  0.38022200  0.70825100  0.46807600  1
  O  O12  1  0.10513900  0.26344000  0.05150700  1
  O  O13  1  0.97601900  0.54035000  0.31765800  1
loop_
_geom_bond_atom_site_label_1
_geom_bond_atom_site_label_2
_geom_bond_distance
_geom_bond_site_symmetry_2
Li0 O11 1.994971 1_555
Li0 O7 2.091050 1_455
Li0 O3 2.106826 1_565
Li0 O0 2.150833 1_555
Li0 O13 2.247959 1_455
Li0 O2 2.253223 1_465
Li1 O6 2.050993 1_555
Li1 O1 2.072815 1_655
Li1 O10 2.171780 1_555
Li1 O8 2.173333 1_556
Li1 O4 2.212725 1_555
Li1 O12 2.258433 1_656
Li2 O11 2.063862 1_555
Li2 O5 2.092739 1_565
Li2 O7 2.109077 1_555
Li2 O2 2.168103 1_565
Li2 O9 2.260857 1_565
Li2 O3 2.285619 1_565
Li3 O7 2.079144 1_545
Li3 O1 2.101111 1_655
Li3 O9 2.131271 1_655
Li3 O5 2.155633 1_555
Li3 O3 2.163811 1_655
Li3 O10 2.272782 1_555
Li4 O11 2.049698 1_555
Li4 O13 2.146918 1_555
Li4 O4 2.156422 1_554
Li4 O2 2.170956 1_565
Li4 O8 2.197980 1_555
Li4 O0 2.254586 1_555
Li5 O1 2.012177 1_555
Li5 O9 2.109367 1_555
Li5 O6 2.143201 1_555
Li5 O5 2.187845 1_555
Li5 O10 2.196198 1_555
Li5 O12 2.261203 1_556
Li6 O6 2.038427 1_554
Li6 O13 2.050445 1_455
Li6 O4 2.119621 1_454
Li6 O12 2.195416 1_555
Li6 O8 2.195982 1_555
Li6 O0 2.197418 1_555
Li7 O11 2.098748 1_555
Li7 O7 2.108204 1_555
Li7 O1 2.115031 1_655
Li7 O13 2.122560 1_555
Li7 O6 2.133002 1_555
Li7 O5 2.163371 1_555
Mn0 O4 1.912573 1_554
Mn0 O9 1.928446 1_664
Mn0 O0 1.929389 1_655
Mn0 O10 1.946754 1_564
Mn0 O12 1.974462 1_665
Mn0 O2 1.979662 1_565
Mn1 O5 1.901123 1_555
Mn1 O13 1.902130 1_555
Mn1 O3 1.931172 1_655
Mn1 O8 1.936986 1_555
Mn1 O12 1.987775 1_655
Mn1 O2 2.003862 1_555
Co0 O0 1.945358 1_545
Co0 O3 1.947383 1_555
Co0 O12 1.950478 1_555
Co0 O10 1.951084 1_554
Co0 O2 1.955681 1_555
Co0 O8 1.956859 1_555
Co1 O7 1.926448 1_455
Co1 O1 1.968763 1_555
Co1 O11 1.981520 1_555
Co1 O6 2.065769 1_555
Co1 O4 2.144858 1_455
Co1 O9 2.154153 1_565
Co2 O6 1.871782 1_555
Co2 O7 1.981194 1_555
Co2 O9 2.013936 1_565
Co2 O4 2.058774 1_555
Co2 O10 2.104443 1_565
Co2 O0 2.128832 1_556
Co3 O1 1.970119 1_555
Co3 O11 1.977267 1_555
Co3 O5 1.983172 1_555
Co3 O13 1.986973 1_455
Co3 O3 2.120425 1_555
Co3 O8 2.129315 1_555
