# generated using pymatgen
data_Mg2(SiO3)3
_symmetry_space_group_name_H-M   'P 1'
_cell_length_a   5.33640647
_cell_length_b   11.73888874
_cell_length_c   23.89126922
_cell_angle_alpha   90.00000000
_cell_angle_beta   90.43461865
_cell_angle_gamma   90.00000000
_symmetry_Int_Tables_number   1
_chemical_formula_structural   Mg2(SiO3)3
_chemical_formula_sum   'Mg16 Si24 O72'
_cell_volume   1496.58923154
_cell_formula_units_Z   8
loop_
 _symmetry_equiv_pos_site_id
 _symmetry_equiv_pos_as_xyz
  1  'x, y, z'
loop_
 _atom_site_type_symbol
 _atom_site_label
 _atom_site_symmetry_multiplicity
 _atom_site_fract_x
 _atom_site_fract_y
 _atom_site_fract_z
 _atom_site_occupancy
  Mg  Mg0  1  0.25330355  0.53194410  0.52465125  1
  Mg  Mg1  1  0.75330355  0.96805590  0.02465125  1
  Mg  Mg2  1  0.74669645  0.46805590  0.47534875  1
  Mg  Mg3  1  0.24669645  0.03194410  0.97534875  1
  Mg  Mg4  1  0.76384286  0.60781181  0.58547383  1
  Mg  Mg5  1  0.26384286  0.89218819  0.08547383  1
  Mg  Mg6  1  0.23615714  0.39218819  0.41452617  1
  Mg  Mg7  1  0.73615714  0.10781181  0.91452617  1
  Mg  Mg8  1  0.27608571  0.68181421  0.64798095  1
  Mg  Mg9  1  0.77608571  0.81818579  0.14798095  1
  Mg  Mg10  1  0.72391429  0.31818579  0.35201905  1
  Mg  Mg11  1  0.22391429  0.18181421  0.85201905  1
  Mg  Mg12  1  0.78055010  0.74182559  0.69655989  1
  Mg  Mg13  1  0.28055010  0.75817441  0.19655989  1
  Mg  Mg14  1  0.21944990  0.25817441  0.30344011  1
  Mg  Mg15  1  0.71944990  0.24182559  0.80344011  1
  Si  Si0  1  0.91641961  0.33261236  0.58687147  1
  Si  Si1  1  0.41641961  0.16738764  0.08687147  1
  Si  Si2  1  0.08358039  0.66738764  0.41312853  1
  Si  Si3  1  0.58358039  0.83261236  0.91312853  1
  Si  Si4  1  0.94943861  0.46670254  0.69794336  1
  Si  Si5  1  0.44943861  0.03329746  0.19794336  1
  Si  Si6  1  0.05056139  0.53329746  0.30205664  1
  Si  Si7  1  0.55056139  0.96670254  0.80205664  1
  Si  Si8  1  0.45705657  0.53053054  0.75446419  1
  Si  Si9  1  0.95705657  0.96946946  0.25446419  1
  Si  Si10  1  0.54294343  0.46946946  0.24553581  1
  Si  Si11  1  0.04294343  0.03053054  0.74553581  1
  Si  Si12  1  0.58637066  0.73590980  0.46862030  1
  Si  Si13  1  0.08637066  0.76409020  0.96862030  1
  Si  Si14  1  0.41362934  0.26409020  0.53137970  1
  Si  Si15  1  0.91362934  0.23590980  0.03137970  1
  Si  Si16  1  0.59609805  0.87710879  0.57917695  1
  Si  Si17  1  0.09609805  0.62289121  0.07917695  1
  Si  Si18  1  0.40390195  0.12289121  0.42082305  1
  Si  Si19  1  0.90390195  0.37710879  0.92082305  1
  Si  Si20  1  0.09094882  0.94171578  0.63161504  1
  Si  Si21  1  0.59094882  0.55828422  0.13161504  1
  Si  Si22  1  0.90905118  0.05828422  0.36838496  1
  Si  Si23  1  0.40905118  0.44171578  0.86838496  1
  O  O0  1  0.91239935  0.45408747  0.55234410  1
  O  O1  1  0.41239935  0.04591253  0.05234410  1
  O  O2  1  0.08760065  0.54591253  0.44765590  1
  O  O3  1  0.58760065  0.95408747  0.94765590  1
  O  O4  1  0.40894117  0.54773446  0.60204372  1
  O  O5  1  0.90894117  0.95226554  0.10204372  1
  O  O6  1  0.59105883  0.45226554  0.39795628  1
  O  O7  1  0.09105883  0.04773446  0.89795628  1
  O  O8  1  0.93405376  0.59081380  0.66651393  1
  O  O9  1  0.43405376  0.90918620  0.16651393  1
  O  O10  1  0.06594624  0.40918620  0.33348607  1
  O  O11  1  0.56594624  0.09081380  0.83348607  1
  O  O12  1  0.47273088  0.65167281  0.72142804  1
  O  O13  1  0.97273088  0.84832719  0.22142804  1
  O  O14  1  0.52726912  0.34832719  0.27857196  1
  O  O15  1  0.02726912  0.15167281  0.77857196  1
  O  O16  1  0.16208313  0.25705063  0.57005816  1
  O  O17  1  0.66208313  0.24294937  0.07005816  1
  O  O18  1  0.83791687  0.74294937  0.42994184  1
  O  O19  1  0.33791687  0.75705063  0.92994184  1
  O  O20  1  0.92422174  0.36104610  0.65398353  1
  O  O21  1  0.42422174  0.13895390  0.15398353  1
  O  O22  1  0.07577826  0.63895390  0.34601647  1
  O  O23  1  0.57577826  0.86104610  0.84601647  1
  O  O24  1  0.21523324  0.45604553  0.73166098  1
  O  O25  1  0.71523324  0.04395447  0.23166098  1
  O  O26  1  0.78476676  0.54395447  0.26833902  1
  O  O27  1  0.28476676  0.95604553  0.76833902  1
  O  O28  1  0.71653914  0.45290312  0.74329446  1
  O  O29  1  0.21653914  0.04709688  0.24329446  1
  O  O30  1  0.28346086  0.54709688  0.25670554  1
  O  O31  1  0.78346086  0.95290312  0.75670554  1
  O  O32  1  0.43041889  0.54511375  0.82210617  1
  O  O33  1  0.93041889  0.95488625  0.32210617  1
  O  O34  1  0.56958111  0.45488625  0.17789383  1
  O  O35  1  0.06958111  0.04511375  0.67789383  1
  O  O36  1  0.98973719  0.71526944  0.77065941  1
  O  O37  1  0.48973719  0.78473056  0.27065941  1
  O  O38  1  0.01026281  0.28473056  0.22934059  1
  O  O39  1  0.51026281  0.21526944  0.72934059  1
  O  O40  1  0.59600348  0.61579321  0.50418907  1
  O  O41  1  0.09600348  0.88420679  0.00418907  1
  O  O42  1  0.40399652  0.38420679  0.49581093  1
  O  O43  1  0.90399652  0.11579321  0.99581093  1
  O  O44  1  0.11842342  0.66673067  0.56822639  1
  O  O45  1  0.61842342  0.83326933  0.06822639  1
  O  O46  1  0.88157658  0.33326933  0.43177361  1
  O  O47  1  0.38157658  0.16673067  0.93177361  1
  O  O48  1  0.60621738  0.76173437  0.61904916  1
  O  O49  1  0.10621738  0.73826563  0.11904916  1
  O  O50  1  0.39378262  0.23826563  0.38095084  1
  O  O51  1  0.89378262  0.26173437  0.88095084  1
  O  O52  1  0.08133724  0.82148128  0.66576400  1
  O  O53  1  0.58133724  0.67851872  0.16576400  1
  O  O54  1  0.91866276  0.17851872  0.33423600  1
  O  O55  1  0.41866276  0.32148128  0.83423600  1
  O  O56  1  0.33782719  0.73901305  0.42819488  1
  O  O57  1  0.83782719  0.76098695  0.92819488  1
  O  O58  1  0.66217281  0.26098695  0.57180512  1
  O  O59  1  0.16217281  0.23901305  0.07180512  1
  O  O60  1  0.57422138  0.84174101  0.51295265  1
  O  O61  1  0.07422138  0.65825899  0.01295265  1
  O  O62  1  0.42577862  0.15825899  0.48704735  1
  O  O63  1  0.92577862  0.34174101  0.98704735  1
  O  O64  1  0.35332104  0.95404461  0.59669944  1
  O  O65  1  0.85332104  0.54595539  0.09669944  1
  O  O66  1  0.64667896  0.04595539  0.40330056  1
  O  O67  1  0.14667896  0.45404461  0.90330056  1
  O  O68  1  0.85189103  0.95167873  0.58824519  1
  O  O69  1  0.35189103  0.54832127  0.08824519  1
  O  O70  1  0.14810897  0.04832127  0.41175481  1
  O  O71  1  0.64810897  0.45167873  0.91175481  1
loop_
_geom_bond_atom_site_label_1
_geom_bond_atom_site_label_2
_geom_bond_distance
_geom_bond_site_symmetry_2
Mg0 O44 2.028980 1_555
Mg0 O4 2.029701 1_555
Mg0 O42 2.034095 1_555
Mg0 O2 2.041554 1_555
Mg0 O40 2.136785 1_555
Mg0 O0 2.144948 1_455
Mg1 O45 2.028980 1_555
Mg1 O5 2.029701 1_555
Mg1 O43 2.034095 1_564
Mg1 O3 2.041554 1_554
Mg1 O41 2.136785 1_655
Mg1 O1 2.144948 1_565
Mg2 O46 2.028980 1_555
Mg2 O6 2.029701 1_555
Mg2 O40 2.034095 1_555
Mg2 O0 2.041554 1_555
Mg2 O42 2.136785 1_555
Mg2 O2 2.144948 1_655
Mg3 O47 2.028980 1_555
Mg3 O7 2.029701 1_555
Mg3 O41 2.034095 1_546
Mg3 O1 2.041554 1_556
Mg3 O43 2.136785 1_455
Mg3 O3 2.144948 1_545
Mg4 O44 2.059214 1_655
Mg4 O4 2.062114 1_555
Mg4 O0 2.126237 1_555
Mg4 O40 2.134466 1_555
Mg4 O8 2.141693 1_555
Mg4 O48 2.150825 1_555
Mg5 O45 2.059214 1_555
Mg5 O5 2.062114 1_455
Mg5 O1 2.126237 1_565
Mg5 O41 2.134466 1_555
Mg5 O9 2.141693 1_555
Mg5 O49 2.150825 1_555
Mg6 O46 2.059214 1_455
Mg6 O6 2.062114 1_555
Mg6 O2 2.126237 1_555
Mg6 O42 2.134466 1_555
Mg6 O10 2.141693 1_555
Mg6 O50 2.150825 1_555
Mg7 O47 2.059214 1_555
Mg7 O7 2.062114 1_655
Mg7 O3 2.126237 1_545
Mg7 O43 2.134466 1_555
Mg7 O11 2.141693 1_555
Mg7 O51 2.150825 1_555
Mg8 O52 1.988803 1_555
Mg8 O4 2.048477 1_555
Mg8 O12 2.068231 1_555
Mg8 O44 2.084609 1_555
Mg8 O48 2.116618 1_555
Mg8 O8 2.163536 1_455
Mg9 O53 1.988803 1_555
Mg9 O5 2.048477 1_555
Mg9 O13 2.068231 1_555
Mg9 O45 2.084609 1_555
Mg9 O49 2.116618 1_655
Mg9 O9 2.163536 1_555
Mg10 O54 1.988803 1_555
Mg10 O6 2.048477 1_555
Mg10 O14 2.068231 1_555
Mg10 O46 2.084609 1_555
Mg10 O50 2.116618 1_555
Mg10 O10 2.163536 1_655
Mg11 O55 1.988803 1_555
Mg11 O7 2.048477 1_555
Mg11 O15 2.068231 1_555
Mg11 O47 2.084609 1_555
Mg11 O51 2.116618 1_455
Mg11 O11 2.163536 1_555
Mg12 O52 2.002504 1_655
Mg12 O12 2.045991 1_555
Mg12 O48 2.079239 1_555
Mg12 O8 2.082722 1_555
Mg12 O36 2.108890 1_555
Mg13 O53 2.002504 1_555
Mg13 O13 2.045991 1_455
Mg13 O49 2.079239 1_555
Mg13 O9 2.082722 1_555
Mg13 O37 2.108890 1_555
Mg14 O54 2.002504 1_455
Mg14 O14 2.045991 1_555
Mg14 O50 2.079239 1_555
Mg14 O10 2.082722 1_555
Mg14 O38 2.108890 1_555
Mg15 O55 2.002504 1_555
Mg15 O15 2.045991 1_655
Mg15 O51 2.079239 1_555
Mg15 O11 2.082722 1_555
Mg15 O39 2.108890 1_555
O0 Si0 1.647447 1_555
O1 Si1 1.647447 1_555
O2 Si2 1.647447 1_555
O3 Si3 1.647447 1_555
O8 Si4 1.640817 1_555
O9 Si5 1.640817 1_565
O10 Si6 1.640817 1_555
O11 Si7 1.640817 1_545
O12 Si8 1.628881 1_555
O13 Si9 1.628881 1_555
O14 Si10 1.628881 1_555
O15 Si11 1.628881 1_555
O16 Si0 1.635466 1_455
O16 Si14 1.637522 1_555
O17 Si1 1.635466 1_555
O17 Si15 1.637522 1_555
O18 Si2 1.635466 1_655
O18 Si12 1.637522 1_555
O19 Si3 1.635466 1_555
O19 Si13 1.637522 1_555
O20 Si4 1.630129 1_555
O20 Si0 1.637986 1_555
O21 Si5 1.630129 1_555
O21 Si1 1.637986 1_555
O22 Si6 1.630129 1_555
O22 Si2 1.637986 1_555
O23 Si7 1.630129 1_555
O23 Si3 1.637986 1_555
O24 Si4 1.630663 1_455
O24 Si8 1.648020 1_555
O25 Si5 1.630663 1_555
O25 Si9 1.648020 1_545
O26 Si6 1.630663 1_655
O26 Si10 1.648020 1_555
O27 Si7 1.630663 1_555
O27 Si11 1.648020 1_565
O28 Si4 1.662919 1_555
O28 Si8 1.680661 1_555
O29 Si5 1.662919 1_555
O29 Si9 1.680661 1_445
O30 Si6 1.662919 1_555
O30 Si10 1.680661 1_555
O31 Si7 1.662919 1_555
O31 Si11 1.680661 1_665
O32 Si8 1.632368 1_555
O32 Si23 1.646406 1_555
O33 Si9 1.632368 1_555
O33 Si22 1.646406 1_565
O34 Si10 1.632368 1_555
O34 Si21 1.646406 1_555
O35 Si11 1.632368 1_555
O35 Si20 1.646406 1_545
O40 Si12 1.646909 1_555
O41 Si13 1.646909 1_554
O42 Si14 1.646909 1_555
O43 Si15 1.646909 1_556
O48 Si16 1.656469 1_555
O49 Si17 1.656469 1_555
O50 Si18 1.656469 1_555
O51 Si19 1.656469 1_555
O52 Si20 1.631258 1_555
O53 Si21 1.631258 1_555
O54 Si22 1.631258 1_555
O55 Si23 1.631258 1_555
O56 Si2 1.633988 1_555
O56 Si12 1.635188 1_555
O57 Si3 1.633988 1_555
O57 Si13 1.635188 1_655
O58 Si0 1.633988 1_555
O58 Si14 1.635188 1_555
O59 Si1 1.633988 1_555
O59 Si15 1.635188 1_455
O60 Si12 1.634157 1_555
O60 Si16 1.639055 1_555
O61 Si13 1.634157 1_554
O61 Si17 1.639055 1_555
O62 Si14 1.634157 1_555
O62 Si18 1.639055 1_555
O63 Si15 1.634157 1_556
O63 Si19 1.639055 1_555
O64 Si16 1.636342 1_555
O64 Si20 1.641605 1_555
O65 Si17 1.636342 1_655
O65 Si21 1.641605 1_555
O66 Si18 1.636342 1_555
O66 Si22 1.641605 1_555
O67 Si19 1.636342 1_455
O67 Si23 1.641605 1_555
O68 Si16 1.634622 1_555
O68 Si20 1.641551 1_655
O69 Si17 1.634622 1_555
O69 Si21 1.641551 1_555
O70 Si18 1.634622 1_555
O70 Si22 1.641551 1_455
O71 Si19 1.634622 1_555
O71 Si23 1.641551 1_555
