# generated using pymatgen
data_Na3V2PO9
_symmetry_space_group_name_H-M   'P 1'
_cell_length_a   7.23043487
_cell_length_b   12.02692776
_cell_length_c   10.14652208
_cell_angle_alpha   100.29990601
_cell_angle_beta   78.94777316
_cell_angle_gamma   99.08227777
_symmetry_Int_Tables_number   1
_chemical_formula_structural   Na3V2PO9
_chemical_formula_sum   'Na12 V8 P4 O36'
_cell_volume   845.01524390
_cell_formula_units_Z   4
loop_
 _symmetry_equiv_pos_site_id
 _symmetry_equiv_pos_as_xyz
  1  'x, y, z'
loop_
 _atom_site_type_symbol
 _atom_site_label
 _atom_site_symmetry_multiplicity
 _atom_site_fract_x
 _atom_site_fract_y
 _atom_site_fract_z
 _atom_site_occupancy
  Na  Na0  1  0.71294600  0.50909300  0.77056400  1
  Na  Na1  1  0.72122300  0.84451100  0.43726500  1
  Na  Na2  1  0.71153000  0.17491600  0.10414000  1
  Na  Na3  1  0.28828500  0.82622000  0.89150300  1
  Na  Na4  1  0.28562200  0.15418900  0.55895200  1
  Na  Na5  1  0.28876600  0.49159500  0.22321000  1
  Na  Na6  1  0.09592200  0.72067300  0.19270300  1
  Na  Na7  1  0.09708600  0.04942300  0.84633600  1
  Na  Na8  1  0.09539900  0.38611600  0.52202600  1
  Na  Na9  1  0.90808600  0.61395300  0.47835000  1
  Na  Na10  1  0.90637300  0.94299000  0.14507100  1
  Na  Na11  1  0.90703400  0.27609900  0.81200700  1
  V  V0  1  0.19820400  0.21288700  0.17027400  1
  V  V1  1  0.19844800  0.54958500  0.83434000  1
  V  V2  1  0.37889200  0.98150900  0.21874700  1
  V  V3  1  0.38441100  0.31852400  0.87822300  1
  V  V4  1  0.37823700  0.65909900  0.54250900  1
  V  V5  1  0.79091400  0.12270900  0.50659800  1
  V  V6  1  0.79101700  0.45556400  0.17300100  1
  V  V7  1  0.79110700  0.78887100  0.83921800  1
  P  P0  1  0.61941200  0.01408700  0.78939000  1
  P  P1  1  0.61884800  0.34749600  0.45625000  1
  P  P2  1  0.61985700  0.68078200  0.12262600  1
  P  P3  1  0.19641000  0.88065700  0.50049100  1
  O  O0  1  0.41308700  0.68160600  0.18485800  1
  O  O1  1  0.41345900  0.01580600  0.85319600  1
  O  O2  1  0.41232900  0.34830700  0.51906500  1
  O  O3  1  0.10875000  0.64462700  0.96062100  1
  O  O4  1  0.13093300  0.97008200  0.61673100  1
  O  O5  1  0.10878900  0.31063400  0.29342000  1
  O  O6  1  0.60182700  0.65131200  0.46468300  1
  O  O7  1  0.60157900  0.97667500  0.13769700  1
  O  O8  1  0.60587400  0.31125300  0.79519900  1
  O  O9  1  0.87438000  0.69243000  0.71164000  1
  O  O10  1  0.87347800  0.02729500  0.37741200  1
  O  O11  1  0.87473700  0.35991400  0.04453300  1
  O  O12  1  0.76853400  0.75946100  0.19318500  1
  O  O13  1  0.76906700  0.09241500  0.85960200  1
  O  O14  1  0.76803000  0.42681200  0.52582200  1
  O  O15  1  0.02524600  0.46493400  0.76097700  1
  O  O16  1  0.04742300  0.80209000  0.42977000  1
  O  O17  1  0.02538000  0.13082700  0.09422800  1
  O  O18  1  0.22533700  0.56532400  0.46057300  1
  O  O19  1  0.22454100  0.89783300  0.12829400  1
  O  O20  1  0.22514100  0.23116100  0.79421200  1
  O  O21  1  0.97056600  0.86838900  0.90618400  1
  O  O22  1  0.97135900  0.20216500  0.57234300  1
  O  O23  1  0.97066000  0.53550400  0.23952200  1
  O  O24  1  0.64476500  0.70249500  0.96644000  1
  O  O25  1  0.64515800  0.03560400  0.63331500  1
  O  O26  1  0.64399100  0.36886800  0.29976500  1
  O  O27  1  0.34566000  0.46674900  0.89594900  1
  O  O28  1  0.33156600  0.80670900  0.54884400  1
  O  O29  1  0.34058400  0.12939900  0.23662000  1
  O  O30  1  0.36068400  0.63447700  0.71698000  1
  O  O31  1  0.34980300  0.94700300  0.39311500  1
  O  O32  1  0.36719100  0.29359700  0.05293300  1
  O  O33  1  0.65812200  0.88202300  0.77258800  1
  O  O34  1  0.65859100  0.21567200  0.43976400  1
  O  O35  1  0.65935000  0.54899900  0.10612700  1
loop_
_geom_bond_atom_site_label_1
_geom_bond_atom_site_label_2
_geom_bond_distance
_geom_bond_site_symmetry_2
Na0 O15 2.380400 1_655
Na0 O8 2.424942 1_555
Na0 O9 2.444004 1_555
Na0 O14 2.484157 1_555
Na0 O27 2.727576 1_555
Na0 O24 2.817207 1_555
Na1 O6 2.393225 1_555
Na1 O10 2.422898 1_565
Na1 O16 2.475111 1_655
Na1 O12 2.485246 1_555
Na1 O25 2.808243 1_565
Na1 O28 2.825394 1_555
Na2 O17 2.390438 1_655
Na2 O7 2.453694 1_545
Na2 O11 2.467270 1_555
Na2 O13 2.483579 1_554
Na2 O29 2.778048 1_555
Na2 O26 2.819903 1_555
Na3 O19 2.384850 1_556
Na3 O1 2.387420 1_565
Na3 O21 2.401322 1_455
Na3 O3 2.500089 1_555
Na3 O30 2.700587 1_555
Na3 O33 2.746433 1_555
Na4 O20 2.384047 1_555
Na4 O22 2.404593 1_455
Na4 O4 2.434846 1_545
Na4 O2 2.444207 1_555
Na4 O34 2.778756 1_555
Na4 O31 2.796809 1_545
Na5 O0 2.391061 1_555
Na5 O18 2.395467 1_555
Na5 O23 2.408886 1_455
Na5 O5 2.498503 1_555
Na5 O35 2.748891 1_555
Na5 O32 2.748928 1_555
Na6 O19 2.339049 1_555
Na6 O3 2.358636 1_554
Na6 O23 2.362654 1_455
Na6 O0 2.396427 1_555
Na6 O16 2.410496 1_555
Na6 O12 2.482832 1_455
Na7 O4 2.336251 1_545
Na7 O20 2.345466 1_555
Na7 O21 2.361603 1_445
Na7 O1 2.400860 1_555
Na7 O13 2.479999 1_455
Na7 O17 2.516630 1_556
Na8 O5 2.324323 1_555
Na8 O18 2.352356 1_555
Na8 O22 2.358286 1_455
Na8 O2 2.399278 1_555
Na8 O15 2.427466 1_555
Na8 O14 2.483523 1_455
Na9 O6 2.361937 1_555
Na9 O9 2.367659 1_555
Na9 O14 2.409231 1_555
Na9 O18 2.421484 1_655
Na9 O23 2.421559 1_555
Na9 O16 2.422101 1_655
Na10 O7 2.319991 1_555
Na10 O12 2.368128 1_555
Na10 O10 2.376677 1_565
Na10 O17 2.396446 1_665
Na10 O21 2.412059 1_554
Na10 O19 2.414009 1_655
Na11 O8 2.325563 1_555
Na11 O13 2.368495 1_555
Na11 O11 2.376911 1_556
Na11 O15 2.407189 1_655
Na11 O20 2.411073 1_655
Na11 O22 2.417460 1_555
O0 P2 1.508125 1_555
O1 P0 1.507439 1_555
O2 P1 1.507816 1_555
O3 V1 1.661524 1_555
O4 P3 1.504979 1_555
O5 V0 1.663190 1_555
O6 V4 1.666672 1_555
O7 V2 1.666420 1_555
O8 V3 1.667948 1_555
O9 V7 1.663809 1_555
O10 V5 1.664255 1_555
O11 V6 1.664331 1_555
O12 P2 1.515015 1_555
O13 P0 1.516443 1_555
O14 P1 1.515938 1_555
O15 V1 1.686066 1_555
O16 P3 1.516831 1_555
O17 V0 1.684902 1_555
O18 V4 1.675953 1_555
O19 V2 1.675844 1_555
O20 V3 1.682514 1_555
O21 V7 1.665494 1_555
O22 V5 1.665095 1_555
O23 V6 1.666396 1_555
O24 P2 1.623503 1_556
O24 V7 1.863851 1_555
O25 P0 1.621044 1_555
O25 V5 1.864095 1_555
O26 P1 1.625017 1_555
O26 V6 1.864683 1_555
O27 V3 1.820042 1_555
O27 V1 1.824520 1_555
O28 P3 1.612735 1_555
O28 V4 1.846533 1_555
O29 V2 1.814987 1_545
O29 V0 1.831659 1_555
O30 V4 1.824041 1_555
O30 V1 1.832356 1_555
O31 P3 1.619256 1_555
O31 V2 1.854445 1_555
O32 V0 1.825865 1_555
O32 V3 1.827971 1_554
O33 P0 1.629539 1_565
O33 V7 1.870012 1_555
O34 P1 1.629335 1_555
O34 V5 1.866252 1_555
O35 P2 1.628277 1_555
O35 V6 1.867513 1_555
