# generated using pymatgen
data_TlSn3
_symmetry_space_group_name_H-M   'P 1'
_cell_length_a   6.73508536
_cell_length_b   6.73508536
_cell_length_c   5.84698112
_cell_angle_alpha   90.00000000
_cell_angle_beta   90.00000000
_cell_angle_gamma   120.00000451
_symmetry_Int_Tables_number   1
_chemical_formula_structural   TlSn3
_chemical_formula_sum   'Tl2 Sn6'
_cell_volume   229.69339766
_cell_formula_units_Z   2
loop_
 _symmetry_equiv_pos_site_id
 _symmetry_equiv_pos_as_xyz
  1  'x, y, z'
loop_
 _atom_site_type_symbol
 _atom_site_label
 _atom_site_symmetry_multiplicity
 _atom_site_fract_x
 _atom_site_fract_y
 _atom_site_fract_z
 _atom_site_occupancy
  Tl  Tl0  1  0.33333300  0.66666700  0.75000000  1
  Tl  Tl1  1  0.66666700  0.33333300  0.25000000  1
  Sn  Sn0  1  0.15616797  0.31233394  0.25000000  1
  Sn  Sn1  1  0.68766606  0.84383203  0.25000000  1
  Sn  Sn2  1  0.15616797  0.84383203  0.25000000  1
  Sn  Sn3  1  0.84383203  0.68766606  0.75000000  1
  Sn  Sn4  1  0.31233394  0.15616797  0.75000000  1
  Sn  Sn5  1  0.84383203  0.15616797  0.75000000  1
loop_
_geom_bond_atom_site_label_1
_geom_bond_atom_site_label_2
_geom_bond_distance
_geom_bond_site_symmetry_2
Sn0 Tl1 3.369766 1_555
Sn0 Tl1 3.369773 1_455
Sn0 Tl0 3.580252 1_555
Sn0 Tl0 3.580252 1_554
Sn1 Tl1 3.369766 1_555
Sn1 Tl1 3.369773 1_565
Sn1 Tl0 3.580252 1_555
Sn1 Tl0 3.580252 1_554
Sn2 Tl1 3.369769 1_565
Sn2 Tl1 3.369769 1_455
Sn2 Tl0 3.580242 1_555
Sn2 Tl0 3.580242 1_554
Sn3 Tl0 3.369766 1_555
Sn3 Tl0 3.369773 1_655
Sn3 Tl1 3.580252 1_556
Sn3 Tl1 3.580252 1_555
Sn4 Tl0 3.369766 1_555
Sn4 Tl0 3.369773 1_545
Sn4 Tl1 3.580252 1_556
Sn4 Tl1 3.580252 1_555
Sn5 Tl0 3.369769 1_655
Sn5 Tl0 3.369769 1_545
Sn5 Tl1 3.580242 1_555
Sn5 Tl1 3.580242 1_556
