# generated using pymatgen
data_HfPd3
_symmetry_space_group_name_H-M   'P 1'
_cell_length_a   5.61909437
_cell_length_b   5.61909498
_cell_length_c   9.21230751
_cell_angle_alpha   90.00000000
_cell_angle_beta   90.00000000
_cell_angle_gamma   119.99998436
_symmetry_Int_Tables_number   1
_chemical_formula_structural   HfPd3
_chemical_formula_sum   'Hf4 Pd12'
_cell_volume   251.90212172
_cell_formula_units_Z   4
loop_
 _symmetry_equiv_pos_site_id
 _symmetry_equiv_pos_as_xyz
  1  'x, y, z'
loop_
 _atom_site_type_symbol
 _atom_site_label
 _atom_site_symmetry_multiplicity
 _atom_site_fract_x
 _atom_site_fract_y
 _atom_site_fract_z
 _atom_site_occupancy
  Hf  Hf0  1  0.66666700  0.33333300  0.75000000  1
  Hf  Hf1  1  0.33333300  0.66666700  0.25000000  1
  Hf  Hf2  1  -0.00000000  -0.00000000  0.50000000  1
  Hf  Hf3  1  0.00000000  0.00000000  -0.00000000  1
  Pd  Pd0  1  0.16896751  0.33793702  0.75000000  1
  Pd  Pd1  1  0.83103249  0.16896751  0.25000000  1
  Pd  Pd2  1  0.33793702  0.16896751  0.25000000  1
  Pd  Pd3  1  0.66206298  0.83103249  0.75000000  1
  Pd  Pd4  1  0.50000000  -0.00000000  -0.00000000  1
  Pd  Pd5  1  0.50000000  0.50000000  0.50000000  1
  Pd  Pd6  1  -0.00000000  0.50000000  0.50000000  1
  Pd  Pd7  1  0.00000000  0.50000000  -0.00000000  1
  Pd  Pd8  1  0.50000000  0.50000000  -0.00000000  1
  Pd  Pd9  1  0.50000000  0.00000000  0.50000000  1
  Pd  Pd10  1  0.83103249  0.66206298  0.25000000  1
  Pd  Pd11  1  0.16896751  0.83103249  0.75000000  1
loop_
_geom_bond_atom_site_label_1
_geom_bond_atom_site_label_2
_geom_bond_distance
_geom_bond_site_symmetry_2
Hf0 Pd0 2.809628 1_655
Hf0 Pd3 2.809628 1_545
Hf0 Pd11 2.809637 1_655
Hf0 Pd11 2.809637 1_545
Hf0 Pd0 2.809645 1_555
Hf0 Pd3 2.809645 1_555
Hf0 Pd6 2.816974 1_655
Hf0 Pd7 2.816974 1_656
Hf0 Pd9 2.816974 1_555
Hf0 Pd4 2.816974 1_556
Hf0 Pd5 2.816977 1_555
Hf0 Pd8 2.816977 1_556
Hf1 Pd10 2.809628 1_455
Hf1 Pd2 2.809628 1_565
Hf1 Pd1 2.809637 1_455
Hf1 Pd1 2.809637 1_565
Hf1 Pd10 2.809645 1_555
Hf1 Pd2 2.809645 1_555
Hf1 Pd7 2.816974 1_555
Hf1 Pd6 2.816974 1_555
Hf1 Pd9 2.816974 1_565
Hf1 Pd4 2.816974 1_565
Hf1 Pd5 2.816977 1_555
Hf1 Pd8 2.816977 1_555
Hf2 Pd9 2.809547 1_555
Hf2 Pd9 2.809547 1_455
Hf2 Pd6 2.809547 1_545
Hf2 Pd6 2.809547 1_555
Hf2 Pd5 2.809548 1_555
Hf2 Pd5 2.809548 1_445
Hf2 Pd1 2.829929 1_455
Hf2 Pd11 2.829929 1_545
Hf2 Pd2 2.829935 1_555
Hf2 Pd3 2.829935 1_445
Hf2 Pd0 2.829935 1_555
Hf2 Pd10 2.829935 1_445
Hf3 Pd4 2.809547 1_455
Hf3 Pd4 2.809547 1_555
Hf3 Pd7 2.809547 1_555
Hf3 Pd7 2.809547 1_545
Hf3 Pd8 2.809548 1_445
Hf3 Pd8 2.809548 1_555
Hf3 Pd11 2.829929 1_544
Hf3 Pd1 2.829929 1_455
Hf3 Pd3 2.829935 1_444
Hf3 Pd2 2.829935 1_555
Hf3 Pd0 2.829935 1_554
Hf3 Pd10 2.829935 1_445
Pd0 Pd11 2.770750 1_555
Pd0 Pd3 2.770751 1_555
Pd0 Pd7 2.810604 1_556
Pd0 Pd6 2.810604 1_555
Pd0 Pd5 2.810610 1_555
Pd0 Pd8 2.810610 1_556
Pd0 Pd11 2.848345 1_545
Pd0 Pd3 2.848345 1_445
Pd1 Pd2 2.770750 1_555
Pd1 Pd10 2.770750 1_555
Pd1 Pd4 2.810610 1_555
Pd1 Pd9 2.810610 1_555
Pd1 Pd6 2.810610 1_655
Pd1 Pd7 2.810610 1_655
Pd1 Pd2 2.848344 1_655
Pd1 Pd10 2.848345 1_545
Pd2 Pd9 2.810604 1_555
Pd2 Pd4 2.810604 1_555
Pd2 Pd8 2.810610 1_555
Pd2 Pd5 2.810610 1_555
Pd3 Pd9 2.810604 1_565
Pd3 Pd4 2.810604 1_566
Pd3 Pd5 2.810610 1_555
Pd3 Pd8 2.810610 1_556
Pd4 Pd8 2.809547 1_555
Pd4 Pd8 2.809547 1_545
Pd4 Pd7 2.809548 1_655
Pd4 Pd7 2.809548 1_545
Pd5 Pd6 2.809547 1_655
Pd5 Pd6 2.809547 1_555
Pd5 Pd9 2.809547 1_555
Pd5 Pd9 2.809547 1_565
Pd6 Pd9 2.809548 1_565
Pd6 Pd9 2.809548 1_455
Pd7 Pd8 2.809547 1_455
Pd7 Pd8 2.809547 1_555
Pd10 Pd2 2.770751 1_555
Pd10 Pd6 2.810604 1_655
Pd10 Pd7 2.810604 1_655
Pd10 Pd5 2.810610 1_555
Pd10 Pd8 2.810610 1_555
Pd10 Pd2 2.848345 1_665
Pd11 Pd3 2.770750 1_555
Pd11 Pd4 2.810610 1_566
Pd11 Pd9 2.810610 1_565
Pd11 Pd7 2.810610 1_556
Pd11 Pd6 2.810610 1_555
Pd11 Pd3 2.848344 1_455
