# generated using pymatgen
data_Zn3P2H7O12
_symmetry_space_group_name_H-M   'P 1'
_cell_length_a   5.22974000
_cell_length_b   10.66955400
_cell_length_c   18.65118200
_cell_angle_alpha   90.00000000
_cell_angle_beta   90.00000000
_cell_angle_gamma   90.00000000
_symmetry_Int_Tables_number   1
_chemical_formula_structural   Zn3P2H7O12
_chemical_formula_sum   'Zn12 P8 H28 O48'
_cell_volume   1040.71718013
_cell_formula_units_Z   4
loop_
 _symmetry_equiv_pos_site_id
 _symmetry_equiv_pos_as_xyz
  1  'x, y, z'
loop_
 _atom_site_type_symbol
 _atom_site_label
 _atom_site_symmetry_multiplicity
 _atom_site_fract_x
 _atom_site_fract_y
 _atom_site_fract_z
 _atom_site_occupancy
  Zn  Zn0  1  0.04478800  0.85485700  0.99874200  1
  Zn  Zn1  1  0.95521200  0.35485700  0.50125800  1
  Zn  Zn2  1  0.45521200  0.14514300  0.49874200  1
  Zn  Zn3  1  0.54478800  0.64514300  0.00125800  1
  Zn  Zn4  1  0.46243100  0.14438200  0.00025800  1
  Zn  Zn5  1  0.53756900  0.64438200  0.49974200  1
  Zn  Zn6  1  0.03756900  0.85561800  0.50025800  1
  Zn  Zn7  1  0.96243100  0.35561800  0.99974200  1
  Zn  Zn8  1  0.82974100  0.23255900  0.75087800  1
  Zn  Zn9  1  0.17025900  0.73255900  0.74912200  1
  Zn  Zn10  1  0.67025900  0.76744100  0.25087800  1
  Zn  Zn11  1  0.32974100  0.26744100  0.24912200  1
  P  P0  1  0.98127200  0.10373600  0.90571300  1
  P  P1  1  0.01872800  0.60373600  0.59428700  1
  P  P2  1  0.51872800  0.89626400  0.40571300  1
  P  P3  1  0.48127200  0.39626400  0.09428700  1
  P  P4  1  0.52837500  0.89727600  0.09398600  1
  P  P5  1  0.47162500  0.39727600  0.40601400  1
  P  P6  1  0.97162500  0.10272400  0.59398600  1
  P  P7  1  0.02837500  0.60272400  0.90601400  1
  H  H0  1  0.53144700  0.02646500  0.75254300  1
  H  H1  1  0.46855300  0.52646500  0.74745700  1
  H  H2  1  0.96855300  0.97353500  0.25254300  1
  H  H3  1  0.03144700  0.47353500  0.24745700  1
  H  H4  1  0.26258000  0.36199600  0.74971600  1
  H  H5  1  0.73742000  0.86199600  0.75028400  1
  H  H6  1  0.23742000  0.63800400  0.24971600  1
  H  H7  1  0.76258000  0.13800400  0.25028400  1
  H  H8  1  0.04734200  0.47047700  0.74988000  1
  H  H9  1  0.95265800  0.97047700  0.75012000  1
  H  H10  1  0.45265800  0.52952300  0.24988000  1
  H  H11  1  0.54734200  0.02952300  0.25012000  1
  H  H12  1  0.70826100  0.39640700  0.64315900  1
  H  H13  1  0.29173900  0.89640700  0.85684100  1
  H  H14  1  0.79173900  0.60359300  0.14315900  1
  H  H15  1  0.20826100  0.10359300  0.35684100  1
  H  H16  1  0.79309400  0.60253800  0.35673600  1
  H  H17  1  0.20690600  0.10253800  0.14326400  1
  H  H18  1  0.70690600  0.39746200  0.85673600  1
  H  H19  1  0.29309400  0.89746200  0.64326400  1
  H  H20  1  0.56247800  0.26729100  0.63865900  1
  H  H21  1  0.43752200  0.76729100  0.86134100  1
  H  H22  1  0.93752200  0.73270900  0.13865900  1
  H  H23  1  0.06247800  0.23270900  0.36134100  1
  H  H24  1  0.93354600  0.73297000  0.36179800  1
  H  H25  1  0.06645400  0.23297000  0.13820200  1
  H  H26  1  0.56645400  0.26703000  0.86179800  1
  H  H27  1  0.43354600  0.76703000  0.63820200  1
  O  O0  1  0.09782700  0.97254900  0.92152400  1
  O  O1  1  0.90217300  0.47254900  0.57847600  1
  O  O2  1  0.40217300  0.02745100  0.42152400  1
  O  O3  1  0.59782700  0.52745100  0.07847600  1
  O  O4  1  0.40842000  0.02772500  0.07840200  1
  O  O5  1  0.59158000  0.52772500  0.42159800  1
  O  O6  1  0.09158000  0.97227500  0.57840200  1
  O  O7  1  0.90842000  0.47227500  0.92159800  1
  O  O8  1  0.88149400  0.69830600  0.95755400  1
  O  O9  1  0.11850600  0.19830600  0.54244600  1
  O  O10  1  0.61850600  0.30169400  0.45755400  1
  O  O11  1  0.38149400  0.80169400  0.04244600  1
  O  O12  1  0.62239100  0.30220500  0.04068600  1
  O  O13  1  0.37760900  0.80220500  0.45931400  1
  O  O14  1  0.87760900  0.69779500  0.54068600  1
  O  O15  1  0.12239100  0.19779500  0.95931400  1
  O  O16  1  0.81603800  0.88913700  0.07708500  1
  O  O17  1  0.18396200  0.38913700  0.42291500  1
  O  O18  1  0.68396200  0.11086300  0.57708500  1
  O  O19  1  0.31603800  0.61086300  0.92291500  1
  O  O20  1  0.69103700  0.11235600  0.92063500  1
  O  O21  1  0.30896300  0.61235600  0.57936500  1
  O  O22  1  0.80896300  0.88764400  0.42063500  1
  O  O23  1  0.19103700  0.38764400  0.07936500  1
  O  O24  1  0.03633900  0.13619700  0.82736000  1
  O  O25  1  0.96366100  0.63619700  0.67264000  1
  O  O26  1  0.46366100  0.86380300  0.32736000  1
  O  O27  1  0.53633900  0.36380300  0.17264000  1
  O  O28  1  0.48279300  0.86577700  0.17305800  1
  O  O29  1  0.51720700  0.36577700  0.32694200  1
  O  O30  1  0.01720700  0.13422300  0.67305800  1
  O  O31  1  0.98279300  0.63422300  0.82694200  1
  O  O32  1  0.52749000  0.11746200  0.74761300  1
  O  O33  1  0.47251000  0.61746200  0.75238700  1
  O  O34  1  0.97251000  0.88253800  0.24761300  1
  O  O35  1  0.02749000  0.38253800  0.25238700  1
  O  O36  1  0.08011000  0.37994700  0.74998400  1
  O  O37  1  0.91989000  0.87994700  0.75001600  1
  O  O38  1  0.41989000  0.62005300  0.24998400  1
  O  O39  1  0.58011000  0.12005300  0.25001600  1
  O  O40  1  0.60169500  0.33686000  0.67140200  1
  O  O41  1  0.39830500  0.83686000  0.82859800  1
  O  O42  1  0.89830500  0.66314000  0.17140200  1
  O  O43  1  0.10169500  0.16314000  0.32859800  1
  O  O44  1  0.89628700  0.66365000  0.32871300  1
  O  O45  1  0.10371300  0.16365000  0.17128700  1
  O  O46  1  0.60371300  0.33635000  0.82871300  1
  O  O47  1  0.39628700  0.83635000  0.67128700  1
loop_
_geom_bond_atom_site_label_1
_geom_bond_atom_site_label_2
_geom_bond_distance
_geom_bond_site_symmetry_2
H0 O32 0.975461 1_555
H1 O33 0.975461 1_555
H2 O34 0.975461 1_555
H3 O35 0.975461 1_555
H4 O36 0.973314 1_555
H5 O37 0.973314 1_555
H6 O38 0.973314 1_555
H7 O39 0.973314 1_555
H8 O36 0.981001 1_555
H9 O37 0.981001 1_555
H10 O38 0.981001 1_555
H11 O39 0.981001 1_555
H12 O40 0.995859 1_555
H13 O41 0.995859 1_555
H14 O42 0.995859 1_555
H15 O43 0.995859 1_555
H16 O44 0.994774 1_555
H17 O45 0.994774 1_555
H18 O46 0.994774 1_555
H19 O47 0.994774 1_555
H20 O40 0.982842 1_555
H21 O41 0.982842 1_555
H22 O42 0.982842 1_555
H23 O43 0.982842 1_555
H24 O44 0.982740 1_555
H25 O45 0.982740 1_555
H26 O46 0.982740 1_555
H27 O47 0.982740 1_555
O0 P0 1.554894 1_465
O0 Zn0 1.930796 1_555
O1 P1 1.554894 1_655
O1 Zn1 1.930796 1_555
O2 P2 1.554894 1_545
O2 Zn2 1.930796 1_555
O3 P3 1.554894 1_555
O3 Zn3 1.930796 1_555
O4 P4 1.554101 1_545
O4 Zn4 1.937331 1_555
O5 P5 1.554101 1_555
O5 Zn5 1.937331 1_555
O6 P6 1.554101 1_465
O6 Zn6 1.937331 1_555
O7 P7 1.554101 1_655
O7 Zn7 1.937331 1_555
O8 P7 1.598169 1_655
O8 Zn3 2.021608 1_556
O8 Zn0 2.027173 1_655
O9 P6 1.598169 1_455
O9 Zn2 2.021608 1_555
O9 Zn1 2.027173 1_455
O10 P5 1.598169 1_555
O10 Zn1 2.021608 1_555
O10 Zn2 2.027173 1_555
O11 P4 1.598169 1_555
O11 Zn0 2.021608 1_554
O11 Zn3 2.027173 1_555
O12 P3 1.597266 1_555
O12 Zn7 2.017516 1_554
O12 Zn4 2.025808 1_555
O13 P2 1.597266 1_555
O13 Zn6 2.017516 1_555
O13 Zn5 2.025808 1_555
O14 P1 1.597266 1_655
O14 Zn5 2.017516 1_555
O14 Zn6 2.025808 1_655
O15 P0 1.597266 1_455
O15 Zn4 2.017516 1_556
O15 Zn7 2.025808 1_455
O16 P4 1.539524 1_555
O16 Zn0 1.923536 1_654
O17 P5 1.539524 1_555
O17 Zn1 1.923536 1_455
O18 P6 1.539524 1_555
O18 Zn2 1.923536 1_555
O19 P7 1.539524 1_555
O19 Zn3 1.923536 1_556
O20 P0 1.545897 1_555
O20 Zn4 1.936882 1_556
O21 P1 1.545897 1_555
O21 Zn5 1.936882 1_555
O22 P2 1.545897 1_555
O22 Zn6 1.936882 1_655
O23 P3 1.545897 1_555
O23 Zn7 1.936882 1_454
O24 P0 1.529219 1_455
O24 Zn8 2.063806 1_455
O25 P1 1.529219 1_655
O25 Zn9 2.063806 1_655
O26 P2 1.529219 1_555
O26 Zn10 2.063806 1_555
O27 P3 1.529219 1_555
O27 Zn11 2.063806 1_555
O28 P4 1.531264 1_555
O28 Zn10 2.041732 1_555
O29 P5 1.531264 1_555
O29 Zn11 2.041732 1_555
O30 P6 1.531264 1_455
O30 Zn8 2.041732 1_455
O31 P7 1.531264 1_655
O31 Zn9 2.041732 1_655
O32 Zn8 2.002591 1_555
O33 Zn9 2.002591 1_555
O34 Zn10 2.002591 1_555
O35 Zn11 2.002591 1_555
O36 Zn8 2.046380 1_455
O37 Zn9 2.046380 1_655
O38 Zn10 2.046380 1_555
O39 Zn11 2.046380 1_555
O40 Zn8 2.204098 1_555
O41 Zn9 2.204098 1_555
O42 Zn10 2.204098 1_555
O43 Zn11 2.204098 1_555
O44 Zn10 2.175110 1_555
O45 Zn11 2.175110 1_555
O46 Zn8 2.175110 1_555
O47 Zn9 2.175110 1_555
