# generated using pymatgen
data_RbMg6MnO8
_symmetry_space_group_name_H-M   'P 1'
_cell_length_a   8.70410803
_cell_length_b   4.56539212
_cell_length_c   4.56539212
_cell_angle_alpha   90.00000000
_cell_angle_beta   90.00000000
_cell_angle_gamma   90.00000000
_symmetry_Int_Tables_number   1
_chemical_formula_structural   RbMg6MnO8
_chemical_formula_sum   'Rb1 Mg6 Mn1 O8'
_cell_volume   181.41802819
_cell_formula_units_Z   1
loop_
 _symmetry_equiv_pos_site_id
 _symmetry_equiv_pos_as_xyz
  1  'x, y, z'
loop_
 _atom_site_type_symbol
 _atom_site_label
 _atom_site_symmetry_multiplicity
 _atom_site_fract_x
 _atom_site_fract_y
 _atom_site_fract_z
 _atom_site_occupancy
  Rb  Rb0  1  0.50000000  0.00000000  0.00000000  1
  Mg  Mg0  1  0.00000000  0.50000000  0.50000000  1
  Mg  Mg1  1  0.50000000  0.50000000  0.50000000  1
  Mg  Mg2  1  0.24662601  0.00000000  0.50000000  1
  Mg  Mg3  1  0.75337399  0.00000000  0.50000000  1
  Mg  Mg4  1  0.24662601  0.50000000  0.00000000  1
  Mg  Mg5  1  0.75337399  0.50000000  0.00000000  1
  Mn  Mn0  1  0.00000000  0.00000000  0.00000000  1
  O  O0  1  0.21832330  0.00000000  0.00000000  1
  O  O1  1  0.78167670  0.00000000  0.00000000  1
  O  O2  1  0.24824649  0.50000000  0.50000000  1
  O  O3  1  0.75175351  0.50000000  0.50000000  1
  O  O4  1  0.00000000  0.00000000  0.50000000  1
  O  O5  1  0.50000000  0.00000000  0.50000000  1
  O  O6  1  0.00000000  0.50000000  0.00000000  1
  O  O7  1  0.50000000  0.50000000  0.00000000  1
loop_
_geom_bond_atom_site_label_1
_geom_bond_atom_site_label_2
_geom_bond_distance
_geom_bond_site_symmetry_2
Mg0 O2 2.160764 1_555
Mg0 O3 2.160764 1_455
Mg0 O4 2.282696 1_565
Mg0 O6 2.282696 1_556
Mg0 O6 2.282696 1_555
Mg0 O4 2.282696 1_555
Mg1 O2 2.191290 1_555
Mg1 O3 2.191290 1_555
Mg1 O7 2.282696 1_556
Mg1 O5 2.282696 1_555
Mg1 O5 2.282696 1_565
Mg1 O7 2.282696 1_555
Mg2 O4 2.146659 1_555
Mg2 O5 2.205395 1_555
Mg2 O2 2.282740 1_545
Mg2 O2 2.282740 1_555
Mg2 O0 2.295951 1_556
Mg2 O0 2.295951 1_555
Mg3 O4 2.146659 1_655
Mg3 O5 2.205395 1_555
Mg3 O3 2.282740 1_545
Mg3 O3 2.282740 1_555
Mg3 O1 2.295951 1_555
Mg3 O1 2.295951 1_556
Mg4 O6 2.146659 1_555
Mg4 O7 2.205395 1_555
Mg4 O2 2.282740 1_554
Mg4 O2 2.282740 1_555
Mg4 O0 2.295951 1_565
Mg4 O0 2.295951 1_555
Mg5 O6 2.146659 1_655
Mg5 O7 2.205395 1_555
Mg5 O3 2.282740 1_554
Mg5 O3 2.282740 1_555
Mg5 O1 2.295951 1_565
Mg5 O1 2.295951 1_555
Mn0 O1 1.900310 1_455
Mn0 O0 1.900310 1_555
Mn0 O6 2.282696 1_545
Mn0 O6 2.282696 1_555
Mn0 O4 2.282696 1_555
Mn0 O4 2.282696 1_554
O0 Rb0 2.451744 1_555
O1 Rb0 2.451744 1_555
O5 Rb0 2.282696 1_555
O5 Rb0 2.282696 1_556
O7 Rb0 2.282696 1_565
O7 Rb0 2.282696 1_555
