# generated using pymatgen
data_PrCdGa
_symmetry_space_group_name_H-M   'P 1'
_cell_length_a   7.45087475
_cell_length_b   7.45087475
_cell_length_c   4.51334653
_cell_angle_alpha   90.00000000
_cell_angle_beta   90.00000000
_cell_angle_gamma   120.00000238
_symmetry_Int_Tables_number   1
_chemical_formula_structural   PrCdGa
_chemical_formula_sum   'Pr3 Cd3 Ga3'
_cell_volume   216.99205181
_cell_formula_units_Z   3
loop_
 _symmetry_equiv_pos_site_id
 _symmetry_equiv_pos_as_xyz
  1  'x, y, z'
loop_
 _atom_site_type_symbol
 _atom_site_label
 _atom_site_symmetry_multiplicity
 _atom_site_fract_x
 _atom_site_fract_y
 _atom_site_fract_z
 _atom_site_occupancy
  Pr  Pr0  1  0.42009809  0.42009809  0.50000000  1
  Pr  Pr1  1  0.57990191  0.00000000  0.50000000  1
  Pr  Pr2  1  0.00000000  0.57990191  0.50000000  1
  Cd  Cd0  1  0.75334458  0.75334458  0.00000000  1
  Cd  Cd1  1  0.24665542  0.00000000  0.00000000  1
  Cd  Cd2  1  0.00000000  0.24665542  -0.00000000  1
  Ga  Ga0  1  0.66666700  0.33333300  0.00000000  1
  Ga  Ga1  1  0.33333300  0.66666700  -0.00000000  1
  Ga  Ga2  1  -0.00000000  -0.00000000  0.50000000  1
loop_
_geom_bond_atom_site_label_1
_geom_bond_atom_site_label_2
_geom_bond_distance
_geom_bond_site_symmetry_2
Pr0 Pr2 3.865510 1_655
Pr0 Pr1 3.865510 1_565
Pr0 Pr2 3.865510 1_555
Pr0 Pr1 3.865510 1_555
Pr1 Pr2 3.865510 1_655
Pr1 Pr2 3.865510 1_545
Cd0 Ga1 2.861729 1_555
Cd0 Ga0 2.861729 1_555
Cd0 Ga2 2.910340 1_664
Cd0 Ga2 2.910340 1_665
Cd0 Cd2 3.183161 1_665
Cd0 Cd1 3.183161 1_665
Cd0 Pr0 3.355257 1_555
Cd0 Pr0 3.355257 1_554
Cd0 Pr2 3.537669 1_654
Cd0 Pr1 3.537669 1_565
Cd0 Pr1 3.537669 1_564
Cd0 Pr2 3.537669 1_655
Cd1 Ga1 2.861722 1_545
Cd1 Ga0 2.861727 1_555
Cd1 Ga2 2.910340 1_555
Cd1 Ga2 2.910340 1_554
Cd1 Cd2 3.183161 1_555
Cd1 Pr1 3.355258 1_554
Cd1 Pr1 3.355258 1_555
Cd1 Pr2 3.537669 1_544
Cd1 Pr2 3.537669 1_545
Cd1 Pr0 3.537669 1_555
Cd1 Pr0 3.537669 1_554
Cd2 Ga0 2.861722 1_455
Cd2 Ga1 2.861727 1_555
Cd2 Ga2 2.910340 1_555
Cd2 Ga2 2.910340 1_554
Cd2 Pr2 3.355258 1_555
Cd2 Pr2 3.355258 1_554
Cd2 Pr1 3.537669 1_454
Cd2 Pr1 3.537669 1_455
Cd2 Pr0 3.537669 1_555
Cd2 Pr0 3.537669 1_554
Ga0 Pr1 3.173844 1_554
Ga0 Pr1 3.173844 1_555
Ga0 Pr2 3.173845 1_654
Ga0 Pr2 3.173845 1_655
Ga0 Pr0 3.173849 1_554
Ga0 Pr0 3.173849 1_555
Ga1 Pr2 3.173844 1_554
Ga1 Pr2 3.173844 1_555
Ga1 Pr1 3.173845 1_565
Ga1 Pr1 3.173845 1_564
Ga1 Pr0 3.173849 1_554
Ga1 Pr0 3.173849 1_555
Ga2 Pr0 3.130098 1_555
Ga2 Pr2 3.130098 1_545
Ga2 Pr1 3.130098 1_455
