# generated using pymatgen
data_Pr2SiTeO4
_symmetry_space_group_name_H-M   'P 1'
_cell_length_a   6.36505282
_cell_length_b   7.25511661
_cell_length_c   11.27922861
_cell_angle_alpha   90.00000000
_cell_angle_beta   90.00000000
_cell_angle_gamma   90.00000000
_symmetry_Int_Tables_number   1
_chemical_formula_structural   Pr2SiTeO4
_chemical_formula_sum   'Pr8 Si4 Te4 O16'
_cell_volume   520.86575877
_cell_formula_units_Z   4
loop_
 _symmetry_equiv_pos_site_id
 _symmetry_equiv_pos_as_xyz
  1  'x, y, z'
loop_
 _atom_site_type_symbol
 _atom_site_label
 _atom_site_symmetry_multiplicity
 _atom_site_fract_x
 _atom_site_fract_y
 _atom_site_fract_z
 _atom_site_occupancy
  Pr  Pr0  1  0.38771602  0.75000000  0.50000000  1
  Pr  Pr1  1  0.38771602  0.75000000  -0.00000000  1
  Pr  Pr2  1  0.61228398  0.25000000  0.50000000  1
  Pr  Pr3  1  0.61228398  0.25000000  -0.00000000  1
  Pr  Pr4  1  0.88767161  0.53969550  0.75000000  1
  Pr  Pr5  1  0.88767161  0.96030450  0.25000000  1
  Pr  Pr6  1  0.11232839  0.03969550  0.75000000  1
  Pr  Pr7  1  0.11232839  0.46030450  0.25000000  1
  Si  Si0  1  0.11361159  0.25000000  -0.00000000  1
  Si  Si1  1  0.88638841  0.75000000  -0.00000000  1
  Si  Si2  1  0.88638841  0.75000000  0.50000000  1
  Si  Si3  1  0.11361159  0.25000000  0.50000000  1
  Te  Te0  1  0.59772004  0.92546649  0.75000000  1
  Te  Te1  1  0.59772004  0.57453351  0.25000000  1
  Te  Te2  1  0.40227996  0.42546649  0.75000000  1
  Te  Te3  1  0.40227996  0.07453351  0.25000000  1
  O  O0  1  0.26698877  0.42136917  0.03562107  1
  O  O1  1  0.26698877  0.07863083  0.96437893  1
  O  O2  1  0.73301123  0.92136917  0.46437893  1
  O  O3  1  0.73301123  0.57863083  0.53562107  1
  O  O4  1  0.73301123  0.57863083  0.96437893  1
  O  O5  1  0.73301123  0.92136917  0.03562107  1
  O  O6  1  0.26698877  0.07863083  0.53562107  1
  O  O7  1  0.26698877  0.42136917  0.46437893  1
  O  O8  1  0.04628349  0.72918367  0.11409571  1
  O  O9  1  0.04628349  0.72918367  0.38590429  1
  O  O10  1  0.95371651  0.22918367  0.38590429  1
  O  O11  1  0.95371651  0.27081633  0.61409571  1
  O  O12  1  0.95371651  0.27081633  0.88590429  1
  O  O13  1  0.95371651  0.22918367  0.11409571  1
  O  O14  1  0.04628349  0.77081633  0.61409571  1
  O  O15  1  0.04628349  0.77081633  0.88590429  1
loop_
_geom_bond_atom_site_label_1
_geom_bond_atom_site_label_2
_geom_bond_distance
_geom_bond_site_symmetry_2
Pr0 Te0 3.370259 1_555
Pr0 Te1 3.370259 1_555
Pr0 Te2 3.674739 1_555
Pr0 Te3 3.674739 1_565
Pr1 Te1 3.370259 1_555
Pr1 Te0 3.370259 1_554
Pr1 Te2 3.674739 1_554
Pr1 Te3 3.674739 1_565
Pr2 Te3 3.370259 1_555
Pr2 Te2 3.370259 1_555
Pr2 Te1 3.674739 1_555
Pr2 Te0 3.674739 1_545
Pr3 Te3 3.370259 1_555
Pr3 Te2 3.370259 1_554
Pr3 Te1 3.674739 1_555
Pr3 Te0 3.674739 1_544
Pr4 Te2 3.198765 1_555
Pr4 Te0 3.352527 1_555
Pr4 Te2 3.378725 1_655
Pr5 Te3 3.198765 1_565
Pr5 Te1 3.352527 1_555
Pr5 Te3 3.378725 1_665
Pr6 Te0 3.198765 1_545
Pr6 Te2 3.352527 1_555
Pr6 Te0 3.378725 1_445
Pr7 Te1 3.198765 1_555
Pr7 Te3 3.352527 1_555
Pr7 Te1 3.378725 1_455
O0 Si0 1.631043 1_555
O0 Pr1 2.537044 1_555
O0 Pr3 2.556883 1_555
O0 Pr7 2.625975 1_555
O1 Si0 1.631043 1_556
O1 Pr1 2.537044 1_546
O1 Pr3 2.556883 1_556
O1 Pr6 2.625975 1_555
O2 Si2 1.631043 1_555
O2 Pr2 2.537044 1_565
O2 Pr0 2.556883 1_555
O2 Pr5 2.625975 1_555
O3 Si2 1.631043 1_555
O3 Pr2 2.537044 1_555
O3 Pr0 2.556883 1_555
O3 Pr4 2.625975 1_555
O4 Si1 1.631043 1_556
O4 Pr3 2.537044 1_556
O4 Pr1 2.556883 1_556
O4 Pr4 2.625975 1_555
O5 Si1 1.631043 1_555
O5 Pr3 2.537044 1_565
O5 Pr1 2.556883 1_555
O5 Pr5 2.625975 1_555
O6 Si3 1.631043 1_555
O6 Pr0 2.537044 1_545
O6 Pr2 2.556883 1_555
O6 Pr6 2.625975 1_555
O7 Si3 1.631043 1_555
O7 Pr0 2.537044 1_555
O7 Pr2 2.556883 1_555
O7 Pr7 2.625975 1_555
O8 Si1 1.647649 1_455
O8 Pr5 2.486100 1_455
O8 Pr7 2.516329 1_555
O8 Pr1 2.530199 1_555
O9 Si2 1.647649 1_455
O9 Pr5 2.486100 1_455
O9 Pr7 2.516329 1_555
O9 Pr0 2.530199 1_555
O10 Si3 1.647649 1_655
O10 Pr7 2.486100 1_655
O10 Pr5 2.516329 1_545
O10 Pr2 2.530199 1_555
O11 Si3 1.647649 1_655
O11 Pr6 2.486100 1_655
O11 Pr4 2.516329 1_555
O11 Pr2 2.530199 1_555
O12 Si0 1.647649 1_656
O12 Pr6 2.486100 1_655
O12 Pr4 2.516329 1_555
O12 Pr3 2.530199 1_556
O13 Si0 1.647649 1_655
O13 Pr7 2.486100 1_655
O13 Pr5 2.516329 1_545
O13 Pr3 2.530199 1_555
O14 Si2 1.647649 1_455
O14 Pr4 2.486100 1_455
O14 Pr6 2.516329 1_565
O14 Pr0 2.530199 1_555
O15 Si1 1.647649 1_456
O15 Pr4 2.486100 1_455
O15 Pr6 2.516329 1_565
O15 Pr1 2.530199 1_556
