# generated using pymatgen
data_ZnCr2O4
_symmetry_space_group_name_H-M   'P 1'
_cell_length_a   7.35840967
_cell_length_b   7.35840967
_cell_length_c   9.47568272
_cell_angle_alpha   51.12779293
_cell_angle_beta   51.12779293
_cell_angle_gamma   23.41509252
_symmetry_Int_Tables_number   1
_chemical_formula_structural   ZnCr2O4
_chemical_formula_sum   'Zn2 Cr4 O8'
_cell_volume   156.50733683
_cell_formula_units_Z   2
loop_
 _symmetry_equiv_pos_site_id
 _symmetry_equiv_pos_as_xyz
  1  'x, y, z'
loop_
 _atom_site_type_symbol
 _atom_site_label
 _atom_site_symmetry_multiplicity
 _atom_site_fract_x
 _atom_site_fract_y
 _atom_site_fract_z
 _atom_site_occupancy
  Zn  Zn0  1  0.66784500  0.66784500  0.31580800  1
  Zn  Zn1  1  0.33215500  0.33215500  0.68419200  1
  Cr  Cr0  1  0.36402500  0.36402500  0.95757500  1
  Cr  Cr1  1  0.85386300  0.85386300  0.31329600  1
  Cr  Cr2  1  0.14613700  0.14613700  0.68670400  1
  Cr  Cr3  1  0.63597500  0.63597500  0.04242500  1
  O  O0  1  0.13831500  0.13831500  0.90296800  1
  O  O1  1  0.53730100  0.53730100  0.75018500  1
  O  O2  1  0.46269900  0.46269900  0.24981500  1
  O  O3  1  0.86168500  0.86168500  0.09703200  1
  O  O4  1  0.83101700  0.83101700  0.83752800  1
  O  O5  1  0.21150600  0.21150600  0.42061800  1
  O  O6  1  0.16898300  0.16898300  0.16247200  1
  O  O7  1  0.78849400  0.78849400  0.57938200  1
loop_
_geom_bond_atom_site_label_1
_geom_bond_atom_site_label_2
_geom_bond_distance
_geom_bond_site_symmetry_2
Cr0 O1 1.951135 1_555
Cr0 O3 1.979828 1_456
Cr0 O3 1.979828 1_546
Cr0 O4 2.107909 1_455
Cr0 O4 2.107909 1_545
Cr0 O6 2.162049 1_556
Cr1 O2 1.960063 1_655
Cr1 O2 1.960063 1_565
Cr1 O3 1.978897 1_555
Cr1 O7 2.049398 1_555
Cr1 O5 2.190417 1_655
Cr1 O5 2.190417 1_565
Cr2 O1 1.960063 1_455
Cr2 O1 1.960063 1_545
Cr2 O0 1.978897 1_555
Cr2 O5 2.049398 1_555
Cr2 O7 2.190417 1_455
Cr2 O7 2.190417 1_545
Cr3 O2 1.951135 1_555
Cr3 O0 1.979828 1_654
Cr3 O0 1.979828 1_564
Cr3 O6 2.107909 1_655
Cr3 O6 2.107909 1_565
Cr3 O4 2.162049 1_554
O0 Zn1 2.162768 1_555
O3 Zn0 2.162768 1_555
O4 Zn1 2.076126 1_565
O4 Zn1 2.076126 1_655
O5 Zn0 2.100635 1_455
O5 Zn0 2.100635 1_545
O6 Zn0 2.076126 1_545
O6 Zn0 2.076126 1_455
O7 Zn1 2.100635 1_565
O7 Zn1 2.100635 1_655
