# generated using pymatgen
data_ErMnSi
_symmetry_space_group_name_H-M   'P 1'
_cell_length_a   4.05984400
_cell_length_b   6.89999200
_cell_length_c   7.57484600
_cell_angle_alpha   90.00000000
_cell_angle_beta   90.00000000
_cell_angle_gamma   90.00000000
_symmetry_Int_Tables_number   1
_chemical_formula_structural   ErMnSi
_chemical_formula_sum   'Er4 Mn4 Si4'
_cell_volume   212.19333626
_cell_formula_units_Z   4
loop_
 _symmetry_equiv_pos_site_id
 _symmetry_equiv_pos_as_xyz
  1  'x, y, z'
loop_
 _atom_site_type_symbol
 _atom_site_label
 _atom_site_symmetry_multiplicity
 _atom_site_fract_x
 _atom_site_fract_y
 _atom_site_fract_z
 _atom_site_occupancy
  Er  Er0  1  0.25000000  0.01211700  0.81404900  1
  Er  Er1  1  0.75000000  0.98788300  0.18595100  1
  Er  Er2  1  0.25000000  0.51211700  0.68595100  1
  Er  Er3  1  0.75000000  0.48788300  0.31404900  1
  Mn  Mn0  1  0.75000000  0.86057600  0.55903100  1
  Mn  Mn1  1  0.25000000  0.13942400  0.44096900  1
  Mn  Mn2  1  0.75000000  0.36057600  0.94096900  1
  Mn  Mn3  1  0.25000000  0.63942400  0.05903100  1
  Si  Si0  1  0.25000000  0.28642900  0.11139400  1
  Si  Si1  1  0.75000000  0.71357100  0.88860600  1
  Si  Si2  1  0.25000000  0.78642900  0.38860600  1
  Si  Si3  1  0.75000000  0.21357100  0.61139400  1
loop_
_geom_bond_atom_site_label_1
_geom_bond_atom_site_label_2
_geom_bond_distance
_geom_bond_site_symmetry_2
Er0 Si3 2.899869 1_555
Er0 Si3 2.899869 1_455
Er0 Si0 2.942032 1_556
Er0 Si1 2.946691 1_545
Er0 Si1 2.946691 1_445
Er0 Mn1 2.959396 1_555
Er0 Mn0 2.990899 1_545
Er0 Mn0 2.990899 1_445
Er0 Mn3 3.171221 1_546
Er0 Mn2 3.290264 1_455
Er0 Mn2 3.290264 1_555
Er1 Si2 2.899869 1_655
Er1 Si2 2.899869 1_555
Er1 Si1 2.942032 1_554
Er1 Si0 2.946691 1_565
Er1 Si0 2.946691 1_665
Er1 Mn0 2.959396 1_555
Er1 Mn1 2.990899 1_565
Er1 Mn1 2.990899 1_665
Er1 Mn2 3.171221 1_564
Er1 Mn3 3.290264 1_555
Er1 Mn3 3.290264 1_655
Er2 Si1 2.899869 1_555
Er2 Si1 2.899869 1_455
Er2 Si2 2.942032 1_555
Er2 Si3 2.946691 1_455
Er2 Si3 2.946691 1_555
Er2 Mn3 2.959396 1_556
Er2 Mn2 2.990899 1_455
Er2 Mn2 2.990899 1_555
Er2 Mn1 3.171221 1_555
Er2 Mn0 3.290264 1_555
Er2 Mn0 3.290264 1_455
Er3 Si0 2.899869 1_555
Er3 Si0 2.899869 1_655
Er3 Si3 2.942032 1_555
Er3 Si2 2.946691 1_555
Er3 Si2 2.946691 1_655
Er3 Mn2 2.959396 1_554
Er3 Mn3 2.990899 1_655
Er3 Mn3 2.990899 1_555
Er3 Mn0 3.171221 1_555
Er3 Mn1 3.290264 1_555
Er3 Mn1 3.290264 1_655
Mn0 Si2 2.459444 1_655
Mn0 Si2 2.459444 1_555
Mn0 Si3 2.467747 1_565
Mn0 Si1 2.694677 1_555
Mn1 Si3 2.459444 1_455
Mn1 Si3 2.459444 1_555
Mn1 Si2 2.467747 1_545
Mn1 Si0 2.694677 1_555
Mn2 Si0 2.459444 1_656
Mn2 Si0 2.459444 1_556
Mn2 Si1 2.467747 1_555
Mn2 Si3 2.694677 1_555
Mn3 Si1 2.459444 1_554
Mn3 Si1 2.459444 1_454
Mn3 Si0 2.467747 1_555
Mn3 Si2 2.694677 1_555
