# generated using pymatgen
data_LaCrWO6
_symmetry_space_group_name_H-M   'P 1'
_cell_length_a   5.50196360
_cell_length_b   5.51554449
_cell_length_c   9.53477265
_cell_angle_alpha   106.35693016
_cell_angle_beta   106.40107948
_cell_angle_gamma   60.24011749
_symmetry_Int_Tables_number   1
_chemical_formula_structural   LaCrWO6
_chemical_formula_sum   'La2 Cr2 W2 O12'
_cell_volume   237.46136871
_cell_formula_units_Z   2
loop_
 _symmetry_equiv_pos_site_id
 _symmetry_equiv_pos_as_xyz
  1  'x, y, z'
loop_
 _atom_site_type_symbol
 _atom_site_label
 _atom_site_symmetry_multiplicity
 _atom_site_fract_x
 _atom_site_fract_y
 _atom_site_fract_z
 _atom_site_occupancy
  La  La0  1  0.87228000  0.89012400  0.12883700  1
  La  La1  1  0.37221100  0.39011100  0.62881700  1
  Cr  Cr0  1  0.75384900  0.75642700  0.75507200  1
  Cr  Cr1  1  0.25404200  0.25638800  0.25525000  1
  W  W0  1  0.50555700  0.50698400  0.00486100  1
  W  W1  1  0.00539600  0.00689300  0.50461100  1
  O  O0  1  0.30733200  0.45252200  0.12620100  1
  O  O1  1  0.80710300  0.95244000  0.62590400  1
  O  O2  1  0.85515100  0.36525800  0.14663600  1
  O  O3  1  0.35523800  0.86497500  0.64640900  1
  O  O4  1  0.65912500  0.12695600  0.35799700  1
  O  O5  1  0.15924800  0.62696700  0.85813500  1
  O  O6  1  0.12703900  0.61549700  0.40319700  1
  O  O7  1  0.62723300  0.11543200  0.90326500  1
  O  O8  1  0.39450900  0.89048800  0.11281300  1
  O  O9  1  0.89451000  0.39044200  0.61268500  1
  O  O10  1  0.18588200  0.07692000  0.38529200  1
  O  O11  1  0.68606000  0.57705500  0.88542800  1
loop_
_geom_bond_atom_site_label_1
_geom_bond_atom_site_label_2
_geom_bond_distance
_geom_bond_site_symmetry_2
La0 O0 2.412498 1_655
La0 O4 2.484870 1_565
La0 O7 2.488467 1_564
La0 O2 2.533515 1_565
La0 O8 2.588712 1_555
La0 O11 2.752097 1_554
La0 O10 2.825062 1_665
La0 O8 2.921117 1_655
La0 O2 2.995805 1_555
La0 O6 3.025845 1_655
La0 O5 3.029496 1_654
La0 O0 3.116463 1_565
La1 O1 2.412276 1_545
La1 O5 2.485693 1_555
La1 O6 2.489095 1_555
La1 O3 2.532846 1_555
La1 O9 2.588182 1_455
La1 O10 2.753372 1_555
La1 O11 2.827030 1_555
La1 O9 2.921750 1_555
La1 O3 2.996173 1_545
La1 O7 3.026684 1_555
La1 O4 3.030313 1_555
La1 O1 3.116732 1_455
Cr0 O11 1.995851 1_555
Cr0 O3 2.001117 1_555
Cr0 O7 2.003316 1_565
Cr0 O9 2.003938 1_555
Cr0 O5 2.006725 1_655
Cr0 O1 2.009894 1_555
Cr1 O10 1.995060 1_555
Cr1 O2 2.002039 1_455
Cr1 O6 2.002559 1_555
Cr1 O8 2.003802 1_545
Cr1 O4 2.004518 1_555
Cr1 O0 2.009619 1_555
O0 W0 1.962592 1_555
O1 W1 1.962508 1_665
O2 W0 1.942235 1_555
O3 W1 1.943275 1_565
O4 W1 1.946110 1_655
O5 W0 1.946787 1_556
O6 W1 1.949006 1_565
O7 W0 1.950168 1_556
O8 W0 1.937225 1_555
O9 W1 1.937852 1_655
O10 W1 1.922457 1_555
O11 W0 1.923545 1_556
