# generated using pymatgen
data_Sr3(AuN2)2
_symmetry_space_group_name_H-M   'P 1'
_cell_length_a   6.84621800
_cell_length_b   10.85282700
_cell_length_c   11.31215000
_cell_angle_alpha   90.00000000
_cell_angle_beta   90.00000000
_cell_angle_gamma   90.00000000
_symmetry_Int_Tables_number   1
_chemical_formula_structural   Sr3(AuN2)2
_chemical_formula_sum   'Sr12 Au8 N16'
_cell_volume   840.50201597
_cell_formula_units_Z   4
loop_
 _symmetry_equiv_pos_site_id
 _symmetry_equiv_pos_as_xyz
  1  'x, y, z'
loop_
 _atom_site_type_symbol
 _atom_site_label
 _atom_site_symmetry_multiplicity
 _atom_site_fract_x
 _atom_site_fract_y
 _atom_site_fract_z
 _atom_site_occupancy
  Sr  Sr0  1  0.62528300  0.14051200  0.44130600  1
  Sr  Sr1  1  0.87471700  0.85948800  0.44130600  1
  Sr  Sr2  1  0.62528300  0.35948800  0.05869400  1
  Sr  Sr3  1  0.87471700  0.64051200  0.05869400  1
  Sr  Sr4  1  0.37471700  0.85948800  0.55869400  1
  Sr  Sr5  1  0.12528300  0.14051200  0.55869400  1
  Sr  Sr6  1  0.37471700  0.64051200  0.94130600  1
  Sr  Sr7  1  0.12528300  0.35948800  0.94130600  1
  Sr  Sr8  1  0.75000000  0.50000000  0.32199200  1
  Sr  Sr9  1  0.75000000  0.00000000  0.17800800  1
  Sr  Sr10  1  0.25000000  0.50000000  0.67800800  1
  Sr  Sr11  1  0.25000000  0.00000000  0.82199200  1
  Au  Au0  1  0.75000000  0.50000000  0.83277600  1
  Au  Au1  1  0.75000000  0.00000000  0.66722400  1
  Au  Au2  1  0.25000000  0.50000000  0.16722400  1
  Au  Au3  1  0.25000000  0.00000000  0.33277600  1
  Au  Au4  1  0.49640500  0.25000000  0.75000000  1
  Au  Au5  1  0.00359500  0.75000000  0.75000000  1
  Au  Au6  1  0.50359500  0.75000000  0.25000000  1
  Au  Au7  1  0.99640500  0.25000000  0.25000000  1
  N  N0  1  0.04778900  0.30012500  0.72659500  1
  N  N1  1  0.45221100  0.69987500  0.72659500  1
  N  N2  1  0.04778900  0.19987500  0.77340500  1
  N  N3  1  0.45221100  0.80012500  0.77340500  1
  N  N4  1  0.95221100  0.69987500  0.27340500  1
  N  N5  1  0.54778900  0.30012500  0.27340500  1
  N  N6  1  0.95221100  0.80012500  0.22659500  1
  N  N7  1  0.54778900  0.19987500  0.22659500  1
  N  N8  1  0.47033200  0.41635500  0.84918000  1
  N  N9  1  0.02966800  0.58364500  0.84918000  1
  N  N10  1  0.47033200  0.08364500  0.65082000  1
  N  N11  1  0.02966800  0.91635500  0.65082000  1
  N  N12  1  0.52966800  0.58364500  0.15082000  1
  N  N13  1  0.97033200  0.41635500  0.15082000  1
  N  N14  1  0.52966800  0.91635500  0.34918000  1
  N  N15  1  0.97033200  0.08364500  0.34918000  1
loop_
_geom_bond_atom_site_label_1
_geom_bond_atom_site_label_2
_geom_bond_distance
_geom_bond_site_symmetry_2
Au0 N9 2.127078 1_655
Au0 N8 2.127078 1_555
Au1 N10 2.127078 1_555
Au1 N11 2.127078 1_645
Au2 N12 2.127078 1_555
Au2 N13 2.127078 1_455
Au3 N15 2.127078 1_455
Au3 N14 2.127078 1_545
Au4 N10 2.133110 1_555
Au4 N8 2.133110 1_555
Au5 N11 2.133110 1_555
Au5 N9 2.133110 1_555
Au6 N14 2.133110 1_555
Au6 N12 2.133110 1_555
Au7 N13 2.133110 1_555
Au7 N15 2.133110 1_555
N0 N2 1.210012 1_555
N0 Sr7 2.568233 1_555
N0 Sr5 2.624803 1_555
N0 Sr10 2.631361 1_555
N1 N3 1.210012 1_555
N1 Sr6 2.568233 1_555
N1 Sr4 2.624803 1_555
N1 Sr10 2.631361 1_555
N2 Sr5 2.568233 1_555
N2 Sr7 2.624803 1_555
N2 Sr11 2.631361 1_555
N3 Sr4 2.568233 1_555
N3 Sr6 2.624803 1_555
N3 Sr11 2.631361 1_565
N4 N6 1.210012 1_555
N4 Sr3 2.568233 1_555
N4 Sr1 2.624803 1_555
N4 Sr8 2.631361 1_555
N5 N7 1.210012 1_555
N5 Sr2 2.568233 1_555
N5 Sr0 2.624803 1_555
N5 Sr8 2.631361 1_555
N6 Sr1 2.568233 1_555
N6 Sr3 2.624803 1_555
N6 Sr9 2.631361 1_565
N7 Sr0 2.568233 1_555
N7 Sr2 2.624803 1_555
N7 Sr9 2.631361 1_555
N8 Sr10 2.617024 1_555
N8 Sr7 2.654680 1_555
N8 Sr2 2.668971 1_556
N8 Sr6 2.726312 1_555
N9 Sr10 2.617024 1_555
N9 Sr6 2.654680 1_555
N9 Sr3 2.668971 1_456
N9 Sr7 2.726312 1_555
N10 Sr11 2.617024 1_555
N10 Sr5 2.654680 1_555
N10 Sr0 2.668971 1_555
N10 Sr4 2.726312 1_545
N11 Sr11 2.617024 1_565
N11 Sr4 2.654680 1_555
N11 Sr1 2.668971 1_455
N11 Sr5 2.726312 1_565
N12 Sr8 2.617024 1_555
N12 Sr3 2.654680 1_555
N12 Sr6 2.668971 1_554
N12 Sr2 2.726312 1_555
N13 Sr8 2.617024 1_555
N13 Sr2 2.654680 1_555
N13 Sr7 2.668971 1_654
N13 Sr3 2.726312 1_555
N14 Sr9 2.617024 1_565
N14 Sr1 2.654680 1_555
N14 Sr4 2.668971 1_555
N14 Sr0 2.726312 1_565
N15 Sr9 2.617024 1_555
N15 Sr0 2.654680 1_555
N15 Sr5 2.668971 1_655
N15 Sr1 2.726312 1_545
