# generated using pymatgen
data_Dy
_symmetry_space_group_name_H-M   'P 1'
_cell_length_a   7.15545496
_cell_length_b   7.15544851
_cell_length_c   22.91519586
_cell_angle_alpha   90.00000000
_cell_angle_beta   90.00000000
_cell_angle_gamma   119.99998984
_symmetry_Int_Tables_number   1
_chemical_formula_structural   Dy
_chemical_formula_sum   Dy32
_cell_volume   1016.08107640
_cell_formula_units_Z   32
loop_
 _symmetry_equiv_pos_site_id
 _symmetry_equiv_pos_as_xyz
  1  'x, y, z'
loop_
 _atom_site_type_symbol
 _atom_site_label
 _atom_site_symmetry_multiplicity
 _atom_site_fract_x
 _atom_site_fract_y
 _atom_site_fract_z
 _atom_site_occupancy
  Dy  Dy0_0  1  0.00000000  0.00000000  0.49999002  1
  Dy  Dy0_1  1  0.00000000  0.00000000  0.99999002  1
  Dy  Dy0_2  1  1.00000000  0.50000000  0.49999002  1
  Dy  Dy0_3  1  1.00000000  0.50000000  0.99999002  1
  Dy  Dy0_4  1  0.50000000  0.00000000  0.49999002  1
  Dy  Dy0_5  1  0.50000000  0.00000000  0.99999002  1
  Dy  Dy0_6  1  0.50000000  0.50000000  0.49999002  1
  Dy  Dy0_7  1  0.50000000  0.50000000  0.99999002  1
  Dy  Dy1_0  1  0.16666650  0.33333350  0.12502440  1
  Dy  Dy1_1  1  0.16666650  0.33333350  0.62502440  1
  Dy  Dy1_2  1  0.16666650  0.83333350  0.12502440  1
  Dy  Dy1_3  1  0.16666650  0.83333350  0.62502440  1
  Dy  Dy1_4  1  0.66666650  0.33333350  0.12502440  1
  Dy  Dy1_5  1  0.66666650  0.33333350  0.62502440  1
  Dy  Dy1_6  1  0.66666650  0.83333350  0.12502440  1
  Dy  Dy1_7  1  0.66666650  0.83333350  0.62502440  1
  Dy  Dy2_0  1  0.00000000  0.00000000  0.25000187  1
  Dy  Dy2_1  1  0.00000000  0.00000000  0.75000187  1
  Dy  Dy2_2  1  1.00000000  0.50000000  0.25000187  1
  Dy  Dy2_3  1  1.00000000  0.50000000  0.75000187  1
  Dy  Dy2_4  1  0.50000000  0.00000000  0.25000187  1
  Dy  Dy2_5  1  0.50000000  0.00000000  0.75000187  1
  Dy  Dy2_6  1  0.50000000  0.50000000  0.25000187  1
  Dy  Dy2_7  1  0.50000000  0.50000000  0.75000187  1
  Dy  Dy3_0  1  0.33333300  0.16666600  0.37498320  1
  Dy  Dy3_1  1  0.33333300  0.16666600  0.87498320  1
  Dy  Dy3_2  1  0.33333300  0.66666600  0.37498320  1
  Dy  Dy3_3  1  0.33333300  0.66666600  0.87498320  1
  Dy  Dy3_4  1  0.83333300  0.16666600  0.37498320  1
  Dy  Dy3_5  1  0.83333300  0.16666600  0.87498320  1
  Dy  Dy3_6  1  0.83333300  0.66666600  0.37498320  1
  Dy  Dy3_7  1  0.83333300  0.66666600  0.87498320  1
loop_
_geom_bond_atom_site_label_1
_geom_bond_atom_site_label_2
_geom_bond_distance
_geom_bond_site_symmetry_2
Dy0_0 Dy3_4 3.531625 1_455
Dy0_0 Dy3_0 3.531626 1_555
Dy0_0 Dy3_6 3.531629 1_445
Dy0_0 Dy1_3 3.532138 1_545
Dy0_0 Dy1_1 3.532139 1_555
Dy0_0 Dy1_7 3.532140 1_445
Dy0_0 Dy0_2 3.577724 1_445
Dy0_0 Dy0_2 3.577724 1_455
Dy0_0 Dy0_6 3.577726 1_445
Dy0_0 Dy0_6 3.577726 1_555
Dy0_0 Dy0_4 3.577727 1_455
Dy0_0 Dy0_4 3.577727 1_555
Dy0_1 Dy3_5 3.531625 1_455
Dy0_1 Dy3_1 3.531626 1_555
Dy0_1 Dy3_7 3.531629 1_445
Dy0_1 Dy1_2 3.532138 1_546
Dy0_1 Dy1_0 3.532139 1_556
Dy0_1 Dy1_6 3.532140 1_446
Dy0_1 Dy0_3 3.577724 1_445
Dy0_1 Dy0_3 3.577724 1_455
Dy0_1 Dy0_7 3.577726 1_445
Dy0_1 Dy0_7 3.577726 1_555
Dy0_1 Dy0_5 3.577727 1_455
Dy0_1 Dy0_5 3.577727 1_555
Dy0_2 Dy3_6 3.531625 1_555
Dy0_2 Dy3_2 3.531626 1_655
Dy0_2 Dy3_4 3.531629 1_555
Dy0_2 Dy1_1 3.532138 1_655
Dy0_2 Dy1_3 3.532139 1_655
Dy0_2 Dy1_5 3.532140 1_555
Dy0_2 Dy0_4 3.577726 1_555
Dy0_2 Dy0_4 3.577726 1_665
Dy0_2 Dy0_6 3.577727 1_555
Dy0_2 Dy0_6 3.577727 1_655
Dy0_3 Dy3_7 3.531625 1_555
Dy0_3 Dy3_3 3.531626 1_655
Dy0_3 Dy3_5 3.531629 1_555
Dy0_3 Dy1_0 3.532138 1_656
Dy0_3 Dy1_2 3.532139 1_656
Dy0_3 Dy1_4 3.532140 1_556
Dy0_3 Dy0_5 3.577726 1_555
Dy0_3 Dy0_5 3.577726 1_665
Dy0_3 Dy0_7 3.577727 1_555
Dy0_3 Dy0_7 3.577727 1_655
Dy0_4 Dy3_0 3.531625 1_555
Dy0_4 Dy3_4 3.531626 1_555
Dy0_4 Dy3_2 3.531629 1_545
Dy0_4 Dy1_7 3.532138 1_545
Dy0_4 Dy1_5 3.532139 1_555
Dy0_4 Dy1_3 3.532140 1_545
Dy0_4 Dy0_6 3.577724 1_555
Dy0_4 Dy0_6 3.577724 1_545
Dy0_5 Dy3_1 3.531625 1_555
Dy0_5 Dy3_5 3.531626 1_555
Dy0_5 Dy3_3 3.531629 1_545
Dy0_5 Dy1_6 3.532138 1_546
Dy0_5 Dy1_4 3.532139 1_556
Dy0_5 Dy1_2 3.532140 1_546
Dy0_5 Dy0_7 3.577724 1_545
Dy0_5 Dy0_7 3.577724 1_555
Dy0_6 Dy3_2 3.531625 1_555
Dy0_6 Dy3_6 3.531626 1_555
Dy0_6 Dy3_0 3.531629 1_555
Dy0_6 Dy1_5 3.532138 1_555
Dy0_6 Dy1_7 3.532139 1_555
Dy0_6 Dy1_1 3.532140 1_555
Dy0_7 Dy3_3 3.531625 1_555
Dy0_7 Dy3_7 3.531626 1_555
Dy0_7 Dy3_1 3.531629 1_555
Dy0_7 Dy1_4 3.532138 1_556
Dy0_7 Dy1_6 3.532139 1_556
Dy0_7 Dy1_0 3.532140 1_556
Dy1_0 Dy2_2 3.531080 1_455
Dy1_0 Dy2_0 3.531082 1_555
Dy1_0 Dy2_6 3.531083 1_555
Dy1_0 Dy1_2 3.577724 1_545
Dy1_0 Dy1_2 3.577724 1_555
Dy1_0 Dy1_6 3.577726 1_555
Dy1_0 Dy1_6 3.577726 1_445
Dy1_0 Dy1_4 3.577727 1_555
Dy1_0 Dy1_4 3.577727 1_455
Dy1_1 Dy2_3 3.531080 1_455
Dy1_1 Dy2_1 3.531082 1_555
Dy1_1 Dy2_7 3.531083 1_555
Dy1_1 Dy1_3 3.577724 1_545
Dy1_1 Dy1_3 3.577724 1_555
Dy1_1 Dy1_7 3.577726 1_555
Dy1_1 Dy1_7 3.577726 1_445
Dy1_1 Dy1_5 3.577727 1_555
Dy1_1 Dy1_5 3.577727 1_455
Dy1_2 Dy2_0 3.531080 1_565
Dy1_2 Dy2_2 3.531082 1_455
Dy1_2 Dy2_4 3.531083 1_565
Dy1_2 Dy1_4 3.577726 1_565
Dy1_2 Dy1_4 3.577726 1_455
Dy1_2 Dy1_6 3.577727 1_455
Dy1_2 Dy1_6 3.577727 1_555
Dy1_3 Dy2_1 3.531080 1_565
Dy1_3 Dy2_3 3.531082 1_455
Dy1_3 Dy2_5 3.531083 1_565
Dy1_3 Dy1_5 3.577726 1_565
Dy1_3 Dy1_5 3.577726 1_455
Dy1_3 Dy1_7 3.577727 1_455
Dy1_3 Dy1_7 3.577727 1_555
Dy1_4 Dy2_6 3.531080 1_555
Dy1_4 Dy2_4 3.531082 1_555
Dy1_4 Dy2_2 3.531083 1_555
Dy1_4 Dy1_6 3.577724 1_555
Dy1_4 Dy1_6 3.577724 1_545
Dy1_5 Dy2_7 3.531080 1_555
Dy1_5 Dy2_5 3.531082 1_555
Dy1_5 Dy2_3 3.531083 1_555
Dy1_5 Dy1_7 3.577724 1_555
Dy1_5 Dy1_7 3.577724 1_545
Dy1_6 Dy2_4 3.531080 1_565
Dy1_6 Dy2_6 3.531082 1_555
Dy1_6 Dy2_0 3.531083 1_665
Dy1_7 Dy2_5 3.531080 1_565
Dy1_7 Dy2_7 3.531082 1_555
Dy1_7 Dy2_1 3.531083 1_665
Dy2_0 Dy3_4 3.531152 1_455
Dy2_0 Dy3_0 3.531152 1_555
Dy2_0 Dy3_6 3.531155 1_445
Dy2_0 Dy2_2 3.577724 1_445
Dy2_0 Dy2_2 3.577724 1_455
Dy2_0 Dy2_6 3.577726 1_555
Dy2_0 Dy2_6 3.577726 1_445
Dy2_0 Dy2_4 3.577727 1_455
Dy2_0 Dy2_4 3.577727 1_555
Dy2_1 Dy3_5 3.531152 1_455
Dy2_1 Dy3_1 3.531152 1_555
Dy2_1 Dy3_7 3.531155 1_445
Dy2_1 Dy2_3 3.577724 1_445
Dy2_1 Dy2_3 3.577724 1_455
Dy2_1 Dy2_7 3.577726 1_555
Dy2_1 Dy2_7 3.577726 1_445
Dy2_1 Dy2_5 3.577727 1_555
Dy2_1 Dy2_5 3.577727 1_455
Dy2_2 Dy3_6 3.531152 1_555
Dy2_2 Dy3_2 3.531152 1_655
Dy2_2 Dy3_4 3.531155 1_555
Dy2_2 Dy2_4 3.577726 1_555
Dy2_2 Dy2_4 3.577726 1_665
Dy2_2 Dy2_6 3.577727 1_555
Dy2_2 Dy2_6 3.577727 1_655
Dy2_3 Dy3_7 3.531152 1_555
Dy2_3 Dy3_3 3.531152 1_655
Dy2_3 Dy3_5 3.531155 1_555
Dy2_3 Dy2_5 3.577726 1_555
Dy2_3 Dy2_5 3.577726 1_665
Dy2_3 Dy2_7 3.577727 1_555
Dy2_3 Dy2_7 3.577727 1_655
Dy2_4 Dy3_0 3.531152 1_555
Dy2_4 Dy3_4 3.531152 1_555
Dy2_4 Dy3_2 3.531155 1_545
Dy2_4 Dy2_6 3.577724 1_545
Dy2_4 Dy2_6 3.577724 1_555
Dy2_5 Dy3_1 3.531152 1_555
Dy2_5 Dy3_5 3.531152 1_555
Dy2_5 Dy3_3 3.531155 1_545
Dy2_5 Dy2_7 3.577724 1_555
Dy2_5 Dy2_7 3.577724 1_545
Dy2_6 Dy3_2 3.531152 1_555
Dy2_6 Dy3_6 3.531152 1_555
Dy2_6 Dy3_0 3.531155 1_555
Dy2_7 Dy3_3 3.531152 1_555
Dy2_7 Dy3_7 3.531152 1_555
Dy2_7 Dy3_1 3.531155 1_555
Dy3_0 Dy3_2 3.577724 1_555
Dy3_0 Dy3_2 3.577724 1_545
Dy3_0 Dy3_6 3.577726 1_445
Dy3_0 Dy3_6 3.577726 1_555
Dy3_0 Dy3_4 3.577727 1_455
Dy3_0 Dy3_4 3.577727 1_555
Dy3_1 Dy3_3 3.577724 1_555
Dy3_1 Dy3_3 3.577724 1_545
Dy3_1 Dy3_7 3.577726 1_445
Dy3_1 Dy3_7 3.577726 1_555
Dy3_1 Dy3_5 3.577727 1_455
Dy3_1 Dy3_5 3.577727 1_555
Dy3_2 Dy3_4 3.577726 1_455
Dy3_2 Dy3_4 3.577726 1_565
Dy3_2 Dy3_6 3.577727 1_555
Dy3_2 Dy3_6 3.577727 1_455
Dy3_3 Dy3_5 3.577726 1_455
Dy3_3 Dy3_5 3.577726 1_565
Dy3_3 Dy3_7 3.577727 1_555
Dy3_3 Dy3_7 3.577727 1_455
Dy3_4 Dy3_6 3.577724 1_545
Dy3_4 Dy3_6 3.577724 1_555
Dy3_5 Dy3_7 3.577724 1_545
Dy3_5 Dy3_7 3.577724 1_555
