# generated using pymatgen
data_Ho6Co2Sn
_symmetry_space_group_name_H-M   'P 1'
_cell_length_a   8.30910920
_cell_length_b   8.30910920
_cell_length_c   8.30910920
_cell_angle_alpha   111.59108175
_cell_angle_beta   109.74585545
_cell_angle_gamma   107.10786581
_symmetry_Int_Tables_number   1
_chemical_formula_structural   Ho6Co2Sn
_chemical_formula_sum   'Ho12 Co4 Sn2'
_cell_volume   440.93248007
_cell_formula_units_Z   2
loop_
 _symmetry_equiv_pos_site_id
 _symmetry_equiv_pos_as_xyz
  1  'x, y, z'
loop_
 _atom_site_type_symbol
 _atom_site_label
 _atom_site_symmetry_multiplicity
 _atom_site_fract_x
 _atom_site_fract_y
 _atom_site_fract_z
 _atom_site_occupancy
  Ho  Ho0  1  0.44484500  0.23417200  0.21067300  1
  Ho  Ho1  1  0.55515500  0.76582800  0.78932700  1
  Ho  Ho2  1  0.02349900  0.23417200  0.78932700  1
  Ho  Ho3  1  0.97650100  0.76582800  0.21067300  1
  Ho  Ho4  1  0.18547400  0.28519000  0.47066300  1
  Ho  Ho5  1  0.81452600  0.71481000  0.52933700  1
  Ho  Ho6  1  0.18547400  0.71481000  0.90028400  1
  Ho  Ho7  1  0.81452600  0.28519000  0.09971600  1
  Ho  Ho8  1  0.32133200  0.63118200  0.30985000  1
  Ho  Ho9  1  0.67866800  0.36881800  0.69015000  1
  Ho  Ho10  1  0.32133200  0.01148200  0.69015000  1
  Ho  Ho11  1  0.67866800  0.98851800  0.30985000  1
  Co  Co0  1  0.35775900  0.00000000  0.35775900  1
  Co  Co1  1  0.64224100  0.00000000  0.64224100  1
  Co  Co2  1  0.11333300  0.61333300  0.50000000  1
  Co  Co3  1  0.88666700  0.38666700  0.50000000  1
  Sn  Sn0  1  0.50000000  0.50000000  0.00000000  1
  Sn  Sn1  1  0.00000000  0.00000000  0.00000000  1
loop_
_geom_bond_atom_site_label_1
_geom_bond_atom_site_label_2
_geom_bond_distance
_geom_bond_site_symmetry_2
Ho0 Sn1 3.066354 1_555
Ho0 Sn0 3.308348 1_555
Ho1 Sn1 3.066354 1_666
Ho1 Sn0 3.308348 1_556
Ho2 Sn1 3.066354 1_556
Ho2 Sn0 3.308348 1_556
Ho3 Sn1 3.066354 1_665
Ho3 Sn0 3.308348 1_555
Ho4 Sn1 3.200516 1_555
Ho4 Sn0 3.615527 1_556
Ho5 Sn1 3.200516 1_666
Ho5 Sn0 3.615527 1_555
Ho6 Sn1 3.200522 1_566
Ho6 Sn0 3.615521 1_556
Ho7 Sn1 3.200522 1_655
Ho7 Sn0 3.615521 1_555
Ho8 Sn0 3.389669 1_555
Ho9 Sn0 3.389669 1_556
Ho10 Sn0 3.389669 1_556
Ho11 Sn0 3.389669 1_555
Co0 Ho3 2.706025 1_445
Co0 Ho0 2.706025 1_555
Co0 Co1 2.720213 1_555
Co0 Ho11 2.848960 1_545
Co0 Ho9 2.848960 1_555
Co0 Ho8 2.848960 1_545
Co0 Ho10 2.848960 1_555
Co0 Ho4 3.132398 1_555
Co0 Ho6 3.132399 1_544
Co1 Ho2 2.706025 1_655
Co1 Ho1 2.706025 1_545
Co1 Ho11 2.848960 1_545
Co1 Ho8 2.848960 1_545
Co1 Ho10 2.848960 1_555
Co1 Ho9 2.848960 1_555
Co1 Ho5 3.132398 1_545
Co1 Ho7 3.132399 1_556
Co2 Co3 2.237718 1_455
Co2 Ho10 2.715150 1_565
Co2 Ho8 2.715150 1_555
Co2 Ho4 2.902432 1_555
Co2 Ho6 2.902434 1_555
Co2 Ho7 2.902434 1_455
Co2 Ho5 2.902436 1_455
Co2 Ho3 3.149637 1_455
Co2 Ho1 3.149637 1_555
Co3 Ho11 2.715150 1_545
Co3 Ho9 2.715150 1_555
Co3 Ho5 2.902432 1_555
Co3 Ho7 2.902434 1_555
Co3 Ho6 2.902434 1_655
Co3 Ho4 2.902436 1_655
Co3 Ho0 3.149637 1_555
Co3 Ho2 3.149637 1_655
