# generated using pymatgen
data_Cu2WSe4
_symmetry_space_group_name_H-M   'P 1'
_cell_length_a   6.84786089
_cell_length_b   6.84786089
_cell_length_c   6.84786089
_cell_angle_alpha   132.09565723
_cell_angle_beta   132.09565723
_cell_angle_gamma   70.07798860
_symmetry_Int_Tables_number   1
_chemical_formula_structural   Cu2WSe4
_chemical_formula_sum   'Cu2 W1 Se4'
_cell_volume   173.33187044
_cell_formula_units_Z   1
loop_
 _symmetry_equiv_pos_site_id
 _symmetry_equiv_pos_as_xyz
  1  'x, y, z'
loop_
 _atom_site_type_symbol
 _atom_site_label
 _atom_site_symmetry_multiplicity
 _atom_site_fract_x
 _atom_site_fract_y
 _atom_site_fract_z
 _atom_site_occupancy
  Cu  Cu0  1  0.00000000  0.50000000  0.50000000  1
  Cu  Cu1  1  0.50000000  -0.00000000  0.50000000  1
  W  W0  1  0.00000000  -0.00000000  0.00000000  1
  Se  Se0  1  0.88287031  0.36733484  -0.00000000  1
  Se  Se1  1  0.36733484  0.88287031  -0.00000000  1
  Se  Se2  1  0.63266516  0.63266516  0.51553547  1
  Se  Se3  1  0.11712969  0.11712969  0.48446453  1
loop_
_geom_bond_atom_site_label_1
_geom_bond_atom_site_label_2
_geom_bond_distance
_geom_bond_site_symmetry_2
Cu0 Se3 2.415790 1_555
Cu0 Se2 2.415790 1_455
Cu0 Se1 2.415790 1_556
Cu0 Se0 2.415790 1_455
Cu0 W0 2.780053 1_566
Cu0 W0 2.780053 1_555
Cu1 Se3 2.415790 1_555
Cu1 Se0 2.415790 1_556
Cu1 Se1 2.415790 1_545
Cu1 Se2 2.415790 1_545
Cu1 W0 2.780053 1_656
Cu1 W0 2.780053 1_555
Se0 W0 2.365566 1_655
Se1 W0 2.365566 1_565
Se2 W0 2.365566 1_666
Se3 W0 2.365566 1_555
