# generated using pymatgen
data_Mg5Si6
_symmetry_space_group_name_H-M   'P 1'
_cell_length_a   14.53223662
_cell_length_b   14.53223662
_cell_length_c   7.09065378
_cell_angle_alpha   78.10805872
_cell_angle_beta   78.10805872
_cell_angle_gamma   15.93902743
_symmetry_Int_Tables_number   1
_chemical_formula_structural   Mg5Si6
_chemical_formula_sum   'Mg10 Si12'
_cell_volume   402.21951710
_cell_formula_units_Z   2
loop_
 _symmetry_equiv_pos_site_id
 _symmetry_equiv_pos_as_xyz
  1  'x, y, z'
loop_
 _atom_site_type_symbol
 _atom_site_label
 _atom_site_symmetry_multiplicity
 _atom_site_fract_x
 _atom_site_fract_y
 _atom_site_fract_z
 _atom_site_occupancy
  Mg  Mg0  1  0.36121800  0.36121800  0.04217300  1
  Mg  Mg1  1  0.10341700  0.10341700  0.43072800  1
  Mg  Mg2  1  0.68198400  0.68198400  0.17940500  1
  Mg  Mg3  1  0.52547900  0.52547900  0.69356200  1
  Mg  Mg4  1  0.93149900  0.93149900  0.78529700  1
  Mg  Mg5  1  0.29838700  0.29838700  0.48655100  1
  Mg  Mg6  1  0.63951100  0.63951100  0.70733400  1
  Mg  Mg7  1  0.56726900  0.56726900  0.15496000  1
  Mg  Mg8  1  0.88697700  0.88697700  0.36065500  1
  Mg  Mg9  1  0.80927600  0.80927600  0.81644400  1
  Si  Si0  1  0.80324600  0.80324600  0.20438700  1
  Si  Si1  1  0.37556000  0.37556000  0.65172900  1
  Si  Si2  1  0.07543700  0.07543700  0.83420100  1
  Si  Si3  1  0.13522600  0.13522600  0.02858800  1
  Si  Si4  1  0.25597900  0.25597900  0.14676500  1
  Si  Si5  1  0.45060800  0.45060800  0.09354300  1
  Si  Si6  1  0.00749100  0.00749100  0.41797600  1
  Si  Si7  1  0.19905000  0.19905000  0.45936100  1
  Si  Si8  1  0.73298300  0.73298300  0.63471300  1
  Si  Si9  1  0.45428600  0.45428600  0.44448600  1
  Si  Si10  1  0.00080700  0.00080700  0.06496200  1
  Si  Si11  1  0.21859900  0.21859900  0.86592000  1
loop_
_geom_bond_atom_site_label_1
_geom_bond_atom_site_label_2
_geom_bond_distance
_geom_bond_site_symmetry_2
Mg0 Si5 2.672625 1_555
Mg0 Si1 2.712824 1_554
Mg0 Si0 2.714448 1_455
Mg0 Si0 2.714448 1_545
Mg0 Si4 2.964965 1_555
Mg1 Si6 2.781332 1_555
Mg1 Si7 2.801969 1_555
Mg1 Si2 2.806145 1_555
Mg1 Si3 2.807582 1_555
Mg2 Si3 2.759256 1_655
Mg2 Si3 2.759256 1_565
Mg2 Si4 2.905906 1_655
Mg2 Si4 2.905906 1_565
Mg2 Si7 2.940609 1_655
Mg2 Si7 2.940609 1_565
Mg2 Si11 3.022634 1_564
Mg2 Si11 3.022634 1_654
Mg3 Si2 2.778231 1_565
Mg3 Si2 2.778231 1_655
Mg3 Si6 2.926969 1_565
Mg3 Si6 2.926969 1_655
Mg3 Si9 2.970604 1_555
Mg3 Si5 3.185027 1_556
Mg4 Si1 2.860714 1_655
Mg4 Si1 2.860714 1_565
Mg4 Si6 3.032700 1_665
Mg4 Si10 3.091670 1_666
Mg4 Si5 3.104760 1_566
Mg4 Si5 3.104760 1_656
Mg4 Si9 3.109661 1_565
Mg4 Si9 3.109661 1_655
Mg5 Si1 2.718226 1_555
Mg5 Si8 2.807899 1_545
Mg5 Si8 2.807899 1_455
Mg5 Si0 2.822339 1_455
Mg5 Si0 2.822339 1_545
Mg5 Si7 2.905535 1_555
Mg5 Si4 2.918672 1_555
Mg5 Si11 3.152686 1_555
Mg6 Si8 2.631972 1_555
Mg6 Si2 2.753141 1_655
Mg6 Si2 2.753141 1_565
Mg6 Si7 2.972228 1_565
Mg6 Si7 2.972228 1_655
Mg6 Si3 3.024351 1_656
Mg6 Si3 3.024351 1_566
Mg7 Si3 2.821215 1_565
Mg7 Si3 2.821215 1_655
Mg7 Si10 2.938454 1_565
Mg7 Si10 2.938454 1_655
Mg7 Si2 3.010844 1_564
Mg7 Si2 3.010844 1_654
Mg7 Si6 3.027016 1_565
Mg7 Si6 3.027016 1_655
Mg8 Si1 2.853948 1_565
Mg8 Si1 2.853948 1_655
Mg8 Si0 2.854407 1_555
Mg8 Si9 2.940358 1_565
Mg8 Si9 2.940358 1_655
Mg8 Si5 3.091560 1_565
Mg8 Si5 3.091560 1_655
Mg9 Si0 2.719958 1_556
Mg9 Si8 2.767759 1_555
Mg9 Si1 2.852443 1_565
Mg9 Si1 2.852443 1_655
Mg9 Si4 3.225458 1_566
Mg9 Si4 3.225458 1_656
Mg9 Si11 3.257888 1_565
Mg9 Si11 3.257888 1_655
Si0 Si4 2.511745 1_565
Si0 Si4 2.511745 1_655
Si1 Si9 2.430750 1_555
Si2 Si3 2.418389 1_556
Si4 Si7 2.467093 1_555
Si5 Si9 2.512578 1_555
Si6 Si9 2.514045 1_455
Si6 Si9 2.514045 1_545
Si7 Si8 2.657985 1_455
Si7 Si8 2.657985 1_545
Si10 Si2 2.414343 1_554
Si10 Si5 2.463041 1_455
Si10 Si5 2.463041 1_545
Si10 Si6 2.550085 1_555
Si11 Si3 2.436693 1_556
Si11 Si4 2.452521 1_556
Si11 Si8 2.576080 1_455
Si11 Si8 2.576080 1_545
