# generated using pymatgen
data_BaBe2(BO2)2
_symmetry_space_group_name_H-M   'P 1'
_cell_length_a   12.83634000
_cell_length_b   8.72034310
_cell_length_c   8.93574153
_cell_angle_alpha   58.08653348
_cell_angle_beta   44.08913577
_cell_angle_gamma   42.60824197
_symmetry_Int_Tables_number   1
_chemical_formula_structural   BaBe2(BO2)2
_chemical_formula_sum   'Ba4 Be8 B8 O16'
_cell_volume   471.14244996
_cell_formula_units_Z   4
loop_
 _symmetry_equiv_pos_site_id
 _symmetry_equiv_pos_as_xyz
  1  'x, y, z'
loop_
 _atom_site_type_symbol
 _atom_site_label
 _atom_site_symmetry_multiplicity
 _atom_site_fract_x
 _atom_site_fract_y
 _atom_site_fract_z
 _atom_site_occupancy
  Ba  Ba0  1  0.37500000  0.25000000  0.25000000  1
  Ba  Ba1  1  0.37500000  0.75000000  0.25000000  1
  Ba  Ba2  1  0.37500000  0.25000000  0.75000000  1
  Ba  Ba3  1  0.87500000  0.75000000  0.75000000  1
  Be  Be0  1  0.01137200  0.24190100  0.10771900  1
  Be  Be1  1  0.88090900  0.75809900  0.10771900  1
  Be  Be2  1  0.74672600  0.24190100  0.89228100  1
  Be  Be3  1  0.73862800  0.25809900  0.39228100  1
  Be  Be4  1  0.36099300  0.75809900  0.89228100  1
  Be  Be5  1  0.86909100  0.74190100  0.39228100  1
  Be  Be6  1  0.00327400  0.25809900  0.60771900  1
  Be  Be7  1  0.38900700  0.74190100  0.60771900  1
  B  B0  1  0.63922800  0.67993500  0.29564900  1
  B  B1  1  0.06512200  0.32006500  0.29564900  1
  B  B2  1  0.68083700  0.67993500  0.70435100  1
  B  B3  1  0.11077200  0.82006500  0.20435100  1
  B  B4  1  0.61481300  0.32006500  0.70435100  1
  B  B5  1  0.68487800  0.17993500  0.20435100  1
  B  B6  1  0.06916300  0.82006500  0.79564900  1
  B  B7  1  0.13518700  0.17993500  0.79564900  1
  O  O0  1  0.70366300  0.81005300  0.15974000  1
  O  O1  1  0.13659700  0.18994700  0.15974000  1
  O  O2  1  0.48628400  0.81005300  0.84026000  1
  O  O3  1  0.04633700  0.68994700  0.34026000  1
  O  O4  1  0.67345600  0.18994700  0.84026000  1
  O  O5  1  0.61340300  0.31005300  0.34026000  1
  O  O6  1  0.26371600  0.68994700  0.65974000  1
  O  O7  1  0.07654400  0.31005300  0.65974000  1
  O  O8  1  0.97164600  0.05096400  0.24439000  1
  O  O9  1  0.78396500  0.94903600  0.24439000  1
  O  O10  1  0.97739000  0.05096400  0.75561000  1
  O  O11  1  0.77835400  0.44903600  0.25561000  1
  O  O12  1  0.26700000  0.94903600  0.75561000  1
  O  O13  1  0.96603500  0.55096400  0.25561000  1
  O  O14  1  0.77261000  0.44903600  0.74439000  1
  O  O15  1  0.48300000  0.55096400  0.74439000  1
loop_
_geom_bond_atom_site_label_1
_geom_bond_atom_site_label_2
_geom_bond_distance
_geom_bond_site_symmetry_2
Ba0 O7 2.698319 1_555
Ba0 O4 2.698319 1_554
Ba0 O3 2.779601 1_555
Ba0 O0 2.779601 1_545
Ba1 O2 2.698319 1_554
Ba1 O6 2.698319 1_555
Ba1 O5 2.779601 1_555
Ba1 O1 2.779601 1_565
Ba2 O1 2.698319 1_556
Ba2 O5 2.698319 1_555
Ba2 O6 2.779601 1_555
Ba2 O2 2.779601 1_545
Ba3 O3 2.698319 1_655
Ba3 O0 2.698319 1_556
Ba3 O7 2.779601 1_655
Ba3 O4 2.779601 1_565
Be0 O8 1.652016 1_455
Be0 O1 1.668501 1_555
Be0 O11 1.687712 1_455
Be1 O9 1.652022 1_555
Be1 O0 1.668501 1_555
Be1 O13 1.687707 1_555
Be2 O10 1.652022 1_555
Be2 O4 1.668488 1_555
Be2 O14 1.687717 1_555
Be3 O11 1.652016 1_555
Be3 O5 1.668501 1_555
Be3 O8 1.687712 1_555
Be4 O12 1.652022 1_555
Be4 O2 1.668488 1_555
Be4 O15 1.687717 1_555
Be5 O13 1.652022 1_555
Be5 O3 1.668501 1_655
Be5 O9 1.687707 1_555
Be6 O14 1.652022 1_455
Be6 O7 1.668488 1_555
Be6 O10 1.687717 1_455
Be7 O15 1.652022 1_555
Be7 O6 1.668488 1_555
Be7 O12 1.687717 1_555
B0 O11 1.386454 1_555
B0 O0 1.388548 1_555
B0 Be7 2.134596 1_555
B1 O13 1.386454 1_455
B1 O1 1.388541 1_555
B1 Be6 2.134601 1_555
B2 O14 1.386454 1_555
B2 O2 1.388548 1_555
B2 Be5 2.134591 1_555
B3 O8 1.386454 1_465
B3 O3 1.388548 1_555
B3 Be4 2.134596 1_554
B4 O15 1.386454 1_555
B4 O4 1.388541 1_555
B4 Be3 2.134596 1_555
B5 O9 1.386454 1_545
B5 O5 1.388541 1_555
B5 Be2 2.134601 1_554
B6 O10 1.386454 1_465
B6 O6 1.388548 1_555
B6 Be1 2.134591 1_456
B7 O12 1.386454 1_545
B7 O7 1.388541 1_555
B7 Be0 2.134596 1_556
