# generated using pymatgen
data_Li9Co7O16
_symmetry_space_group_name_H-M   'P 1'
_cell_length_a   2.91554568
_cell_length_b   2.91554568
_cell_length_c   38.85114001
_cell_angle_alpha   88.20069892
_cell_angle_beta   88.20069892
_cell_angle_gamma   59.86313103
_symmetry_Int_Tables_number   1
_chemical_formula_structural   Li9Co7O16
_chemical_formula_sum   'Li9 Co7 O16'
_cell_volume   285.42252365
_cell_formula_units_Z   1
loop_
 _symmetry_equiv_pos_site_id
 _symmetry_equiv_pos_as_xyz
  1  'x, y, z'
loop_
 _atom_site_type_symbol
 _atom_site_label
 _atom_site_symmetry_multiplicity
 _atom_site_fract_x
 _atom_site_fract_y
 _atom_site_fract_z
 _atom_site_occupancy
  Li  Li0  1  0.81485600  0.81485600  0.56020200  1
  Li  Li1  1  0.18514400  0.18514400  0.43979800  1
  Li  Li2  1  0.55952600  0.55952600  0.31278900  1
  Li  Li3  1  0.93673400  0.93673400  0.18730700  1
  Li  Li4  1  0.31565900  0.31565900  0.06240500  1
  Li  Li5  1  0.68434100  0.68434100  0.93759500  1
  Li  Li6  1  0.06326600  0.06326600  0.81269300  1
  Li  Li7  1  0.44047400  0.44047400  0.68721100  1
  Li  Li8  1  0.50000000  0.50000000  0.50000000  1
  Co  Co0  1  0.12287400  0.12287400  0.62524700  1
  Co  Co1  1  0.87712600  0.87712600  0.37475300  1
  Co  Co2  1  0.24944900  0.24944900  0.25042500  1
  Co  Co3  1  0.62563300  0.62563300  0.12483300  1
  Co  Co4  1  0.00000000  0.00000000  0.00000000  1
  Co  Co5  1  0.37436700  0.37436700  0.87516700  1
  Co  Co6  1  0.75055100  0.75055100  0.74957500  1
  O  O0  1  0.45132300  0.45132300  0.59909300  1
  O  O1  1  0.84705900  0.84705900  0.46776000  1
  O  O2  1  0.20363200  0.20363200  0.34688000  1
  O  O3  1  0.61457500  0.61457500  0.22281800  1
  O  O4  1  0.97510300  0.97510300  0.09610300  1
  O  O5  1  0.32794000  0.32794000  0.97127100  1
  O  O6  1  0.72278300  0.72278300  0.84597300  1
  O  O7  1  0.11634800  0.11634800  0.72165500  1
  O  O8  1  0.15294100  0.15294100  0.53224000  1
  O  O9  1  0.54867700  0.54867700  0.40090700  1
  O  O10  1  0.88365200  0.88365200  0.27834500  1
  O  O11  1  0.27721700  0.27721700  0.15402700  1
  O  O12  1  0.67206000  0.67206000  0.02872900  1
  O  O13  1  0.02489700  0.02489700  0.90389700  1
  O  O14  1  0.38542500  0.38542500  0.77718200  1
  O  O15  1  0.79636800  0.79636800  0.65312000  1
loop_
_geom_bond_atom_site_label_1
_geom_bond_atom_site_label_2
_geom_bond_distance
_geom_bond_site_symmetry_2
Li0 O8 1.991111 1_665
Li0 O8 2.007577 1_565
Li0 O8 2.007577 1_655
Li0 O0 2.224947 1_655
Li0 O0 2.224947 1_565
Li0 O0 2.335948 1_555
Li1 O1 1.991111 1_445
Li1 O1 2.007577 1_455
Li1 O1 2.007577 1_545
Li1 O9 2.224947 1_455
Li1 O9 2.224947 1_545
Li1 O9 2.335948 1_555
Li2 O10 2.077189 1_555
Li2 O2 2.114412 1_655
Li2 O2 2.114412 1_565
Li2 O10 2.187036 1_545
Li2 O10 2.187036 1_455
Li2 O2 2.194556 1_555
Li3 O3 2.095469 1_555
Li3 O11 2.114463 1_665
Li3 O11 2.124474 1_655
Li3 O11 2.124474 1_565
Li3 O3 2.217481 1_565
Li3 O3 2.217481 1_655
Li4 O12 2.103205 1_545
Li4 O12 2.103205 1_455
Li4 O4 2.124247 1_445
Li4 O4 2.134471 1_455
Li4 O4 2.134471 1_545
Li4 O12 2.187397 1_555
Li5 O5 2.103205 1_655
Li5 O5 2.103205 1_565
Li5 O13 2.124247 1_665
Li5 O13 2.134471 1_655
Li5 O13 2.134471 1_565
Li5 O5 2.187397 1_555
Li6 O14 2.095469 1_555
Li6 O6 2.114463 1_445
Li6 O6 2.124474 1_545
Li6 O6 2.124474 1_455
Li6 O14 2.217481 1_545
Li6 O14 2.217481 1_455
Li7 O7 2.077189 1_555
Li7 O15 2.114412 1_455
Li7 O15 2.114412 1_545
Li7 O7 2.187036 1_655
Li7 O7 2.187036 1_565
Li7 O15 2.194556 1_555
Li8 O1 2.086310 1_545
Li8 O1 2.086310 1_455
Li8 O8 2.086310 1_565
Li8 O8 2.086310 1_655
Li8 O1 2.117919 1_555
Li8 O8 2.117919 1_555
Co0 O0 1.914447 1_555
Co0 O15 1.940498 1_445
Co0 O0 1.991020 1_545
Co0 O0 1.991020 1_455
Co0 O15 2.031361 1_545
Co0 O15 2.031361 1_455
Co1 O9 1.914447 1_555
Co1 O2 1.940498 1_665
Co1 O9 1.991020 1_655
Co1 O9 1.991020 1_565
Co1 O2 2.031361 1_655
Co1 O2 2.031361 1_565
Co2 O3 1.945305 1_545
Co2 O3 1.945305 1_455
Co2 O10 1.950940 1_545
Co2 O10 1.950940 1_455
Co2 O3 2.100339 1_555
Co2 O10 2.109096 1_445
Co3 O4 2.000591 1_545
Co3 O4 2.000591 1_455
Co3 O11 2.013081 1_655
Co3 O11 2.013081 1_565
Co3 O4 2.054699 1_555
Co3 O11 2.059540 1_555
Co4 O12 1.964197 1_445
Co4 O5 1.964197 1_554
Co4 O5 2.046566 1_544
Co4 O12 2.046566 1_545
Co4 O12 2.046566 1_455
Co4 O5 2.046566 1_454
Co5 O13 2.000591 1_655
Co5 O13 2.000591 1_565
Co5 O6 2.013081 1_545
Co5 O6 2.013081 1_455
Co5 O13 2.054699 1_555
Co5 O6 2.059540 1_555
Co6 O14 1.945305 1_655
Co6 O14 1.945305 1_565
Co6 O7 1.950940 1_655
Co6 O7 1.950940 1_565
Co6 O14 2.100339 1_555
Co6 O7 2.109096 1_665
