# generated using pymatgen
data_NiMo8P3
_symmetry_space_group_name_H-M   'P 1'
_cell_length_a   4.80387900
_cell_length_b   7.35119726
_cell_length_c   20.86460884
_cell_angle_alpha   87.32803526
_cell_angle_beta   83.82564756
_cell_angle_gamma   71.06597952
_symmetry_Int_Tables_number   1
_chemical_formula_structural   NiMo8P3
_chemical_formula_sum   'Ni4 Mo32 P12'
_cell_volume   692.85446919
_cell_formula_units_Z   4
loop_
 _symmetry_equiv_pos_site_id
 _symmetry_equiv_pos_as_xyz
  1  'x, y, z'
loop_
 _atom_site_type_symbol
 _atom_site_label
 _atom_site_symmetry_multiplicity
 _atom_site_fract_x
 _atom_site_fract_y
 _atom_site_fract_z
 _atom_site_occupancy
  Ni  Ni0  1  0.44150200  0.90299800  0.16256300  1
  Ni  Ni1  1  0.78714800  0.89392800  0.49468500  1
  Ni  Ni2  1  0.12227800  0.89301800  0.82790800  1
  Ni  Ni3  1  0.84363200  0.09358000  0.17025200  1
  Mo  Mo0  1  0.04917200  0.68823400  0.16482200  1
  Mo  Mo1  1  0.38679600  0.68320300  0.49795900  1
  Mo  Mo2  1  0.72026100  0.68360900  0.83136000  1
  Mo  Mo3  1  0.23689100  0.31112300  0.16860700  1
  Mo  Mo4  1  0.58310700  0.30837800  0.50190800  1
  Mo  Mo5  1  0.91341400  0.30940900  0.83576500  1
  Mo  Mo6  1  0.72053700  0.49461500  0.10589000  1
  Mo  Mo7  1  0.04899500  0.49667100  0.43807100  1
  Mo  Mo8  1  0.38474800  0.49603300  0.77151600  1
  Mo  Mo9  1  0.65392000  0.50531800  0.22785200  1
  Mo  Mo10  1  0.98416900  0.50489900  0.56173200  1
  Mo  Mo11  1  0.31422300  0.50579700  0.89481500  1
  Mo  Mo12  1  0.68081600  0.86037800  0.28091800  1
  Mo  Mo13  1  0.00906500  0.85913100  0.61611700  1
  Mo  Mo14  1  0.33962500  0.85914100  0.95005300  1
  Mo  Mo15  1  0.15367500  0.13721300  0.05311000  1
  Mo  Mo16  1  0.48277400  0.14315600  0.38245200  1
  Mo  Mo17  1  0.81570600  0.14077700  0.71754100  1
  Mo  Mo18  1  0.80448400  0.84855300  0.04889600  1
  Mo  Mo19  1  0.13815600  0.85257900  0.38049500  1
  Mo  Mo20  1  0.47167300  0.85194500  0.71417000  1
  Mo  Mo21  1  0.03455500  0.15147400  0.28435400  1
  Mo  Mo22  1  0.35745700  0.15401900  0.62197100  1
  Mo  Mo23  1  0.68998700  0.15511700  0.95681500  1
  Mo  Mo24  1  0.18862600  0.08624900  0.50418700  1
  Mo  Mo25  1  0.52195600  0.08585400  0.83860300  1
  Mo  Mo26  1  0.25303900  0.48974000  0.03103600  1
  Mo  Mo27  1  0.58082000  0.49499200  0.36601600  1
  Mo  Mo28  1  0.91846400  0.49470600  0.69855700  1
  Mo  Mo29  1  0.10922200  0.50864200  0.30128000  1
  Mo  Mo30  1  0.44126100  0.51257600  0.63335400  1
  Mo  Mo31  1  0.77006700  0.51457800  0.96681500  1
  P  P0  1  0.22782500  0.80168300  0.25841900  1
  P  P1  1  0.55597500  0.80926400  0.58933400  1
  P  P2  1  0.88568600  0.81209100  0.92294500  1
  P  P3  1  0.62031100  0.19702200  0.07656900  1
  P  P4  1  0.94646200  0.20184500  0.40471500  1
  P  P5  1  0.27721700  0.20204300  0.73999800  1
  P  P6  1  0.33486300  0.78156700  0.06871900  1
  P  P7  1  0.66630900  0.78825500  0.40184100  1
  P  P8  1  0.00024800  0.78615300  0.73559300  1
  P  P9  1  0.52016400  0.21546800  0.26418700  1
  P  P10  1  0.84041600  0.21642500  0.60039700  1
  P  P11  1  0.17230600  0.21655300  0.93484100  1
loop_
_geom_bond_atom_site_label_1
_geom_bond_atom_site_label_2
_geom_bond_distance
_geom_bond_site_symmetry_2
Ni0 P0 2.350319 1_555
Ni0 P6 2.359790 1_555
Ni1 P7 2.316858 1_555
Ni1 P1 2.320068 1_555
Ni2 P8 2.313772 1_555
Ni2 P2 2.328441 1_455
Ni3 P3 2.309314 1_555
Ni3 P9 2.379872 1_555
Mo0 P0 2.494520 1_555
Mo0 P6 2.503154 1_555
Mo0 Mo3 2.622440 1_555
Mo0 Ni0 2.819894 1_555
Mo0 Ni3 2.822215 1_465
Mo0 Ni0 2.836920 1_455
Mo0 Mo18 2.840385 1_455
Mo0 Mo6 2.840619 1_455
Mo0 Mo9 2.845641 1_455
Mo0 Mo12 2.917319 1_455
Mo0 Mo29 3.084068 1_555
Mo0 Mo26 3.121617 1_555
Mo0 Mo9 3.177932 1_555
Mo0 Mo6 3.204764 1_555
Mo1 P1 2.478067 1_555
Mo1 P7 2.523990 1_555
Mo1 Mo4 2.607233 1_555
Mo1 Ni1 2.799817 1_455
Mo1 Mo24 2.807239 1_565
Mo1 Ni1 2.828156 1_555
Mo1 Mo7 2.848673 1_555
Mo1 Mo10 2.856327 1_455
Mo1 Mo19 2.892000 1_555
Mo1 Mo13 2.975751 1_555
Mo1 Mo30 3.039379 1_555
Mo1 Mo27 3.054176 1_555
Mo1 Mo10 3.153016 1_555
Mo1 Mo7 3.167821 1_655
Mo2 P2 2.481349 1_555
Mo2 P8 2.511839 1_655
Mo2 Mo5 2.602837 1_555
Mo2 Ni2 2.791305 1_555
Mo2 Mo25 2.802985 1_565
Mo2 Ni2 2.827318 1_655
Mo2 Mo8 2.844987 1_555
Mo2 Mo20 2.884966 1_555
Mo2 Mo31 3.035431 1_555
Mo2 Mo28 3.073424 1_555
Mo2 Mo8 3.177534 1_655
Mo3 P9 2.480984 1_555
Mo3 P3 2.484062 1_555
Mo3 Ni3 2.836482 1_555
Mo3 Mo6 2.836727 1_455
Mo3 Ni3 2.840620 1_455
Mo3 Ni0 2.842206 1_545
Mo3 Mo9 2.869538 1_455
Mo3 Mo9 3.183171 1_555
Mo3 Mo6 3.185148 1_555
Mo4 P10 2.466217 1_555
Mo4 P4 2.504399 1_555
Mo4 Ni1 2.887716 1_545
Mo4 Mo7 2.920927 1_555
Mo4 Mo7 3.145828 1_655
Mo5 P11 2.481226 1_655
Mo5 P5 2.484059 1_655
Mo5 Ni2 2.901972 1_645
Mo5 Mo8 2.903231 1_555
Mo5 Mo8 3.161866 1_655
Mo6 P6 2.470653 1_555
Mo6 P3 2.502729 1_555
Mo6 Mo9 2.532035 1_555
Mo7 P7 2.477139 1_455
Mo7 P4 2.516231 1_455
Mo7 Ni1 3.020582 1_455
Mo8 P8 2.472722 1_555
Mo8 P5 2.509991 1_555
Mo9 P9 2.482091 1_555
Mo9 P0 2.509535 1_555
Mo10 P10 2.509142 1_555
Mo10 P1 2.539211 1_555
Mo10 Mo7 2.566562 1_655
Mo10 Mo30 2.802150 1_655
Mo10 Mo28 2.838433 1_555
Mo10 Mo30 2.848209 1_555
Mo10 Mo13 2.930813 1_655
Mo10 Mo4 2.936258 1_655
Mo10 Mo22 2.937595 1_655
Mo10 Ni1 3.030943 1_555
Mo10 Mo4 3.138277 1_555
Mo10 Mo24 3.163377 1_655
Mo11 P11 2.517147 1_555
Mo11 P2 2.550980 1_455
Mo11 Mo8 2.559703 1_555
Mo11 Mo31 2.804398 1_555
Mo11 Mo26 2.826650 1_556
Mo11 Mo31 2.854653 1_455
Mo11 Mo2 2.864243 1_555
Mo11 Mo5 2.931519 1_555
Mo11 Mo14 2.933475 1_555
Mo11 Mo23 2.957876 1_555
Mo11 Ni2 3.017424 1_555
Mo11 Mo5 3.128827 1_455
Mo11 Mo2 3.135886 1_455
Mo11 Mo25 3.160392 1_555
Mo12 P0 2.447443 1_555
Mo12 P9 2.489370 1_565
Mo12 P0 2.515834 1_655
Mo12 P7 2.552054 1_555
Mo12 Ni0 2.796911 1_555
Mo13 P1 2.445965 1_455
Mo13 P10 2.501710 1_465
Mo13 P8 2.524103 1_555
Mo13 P1 2.535265 1_555
Mo13 Ni1 2.822202 1_455
Mo14 P2 2.442920 1_455
Mo14 P11 2.501336 1_565
Mo14 P6 2.514069 1_556
Mo14 P2 2.535952 1_555
Mo14 Ni2 2.826932 1_555
Mo14 Mo2 2.989013 1_555
Mo15 P3 2.452970 1_455
Mo15 P6 2.490723 1_545
Mo15 P11 2.507906 1_554
Mo15 P3 2.520639 1_555
Mo15 Ni3 2.783673 1_455
Mo15 Mo3 2.903015 1_555
Mo16 P4 2.465672 1_455
Mo16 P4 2.495713 1_555
Mo16 P7 2.496632 1_545
Mo16 P9 2.499597 1_555
Mo16 Mo7 2.947747 1_555
Mo16 Mo4 2.973239 1_555
Mo17 P5 2.473253 1_555
Mo17 P10 2.480117 1_555
Mo17 P8 2.490834 1_645
Mo17 P5 2.495754 1_655
Mo17 Mo5 2.958614 1_555
Mo18 P6 2.450374 1_555
Mo18 P3 2.497094 1_565
Mo18 P6 2.509722 1_655
Mo18 P2 2.628170 1_554
Mo18 Ni0 2.751608 1_555
Mo19 P7 2.453292 1_455
Mo19 P4 2.486372 1_465
Mo19 P7 2.510800 1_555
Mo19 P0 2.561512 1_555
Mo19 Ni1 2.735476 1_455
Mo19 Mo7 2.965702 1_555
Mo20 P8 2.456693 1_555
Mo20 P5 2.499496 1_565
Mo20 P8 2.511635 1_655
Mo20 P1 2.610269 1_555
Mo20 Ni2 2.724166 1_555
Mo21 P9 2.440362 1_455
Mo21 P0 2.497835 1_545
Mo21 P9 2.514543 1_555
Mo21 P4 2.525699 1_455
Mo21 Ni3 2.739982 1_455
Mo21 Mo3 2.850534 1_555
Mo22 P10 2.462546 1_455
Mo22 P5 2.475097 1_555
Mo22 P10 2.498531 1_555
Mo22 P1 2.499779 1_545
Mo22 Mo4 2.947388 1_555
Mo23 P11 2.468970 1_555
Mo23 P11 2.492778 1_655
Mo23 P2 2.495343 1_545
Mo23 P3 2.504992 1_556
Mo23 Mo5 2.959269 1_555
Mo24 P4 2.469069 1_455
Mo24 P10 2.482225 1_455
Mo24 Ni1 2.751465 1_545
Mo24 Ni1 2.763278 1_445
Mo24 Mo4 2.840784 1_455
Mo24 Mo4 2.870780 1_555
Mo24 Mo7 3.154902 1_555
Mo25 P5 2.459532 1_555
Mo25 P11 2.486652 1_555
Mo25 Ni2 2.759365 1_645
Mo25 Ni2 2.762913 1_545
Mo25 Mo5 2.856697 1_455
Mo25 Mo5 2.865858 1_555
Mo25 P2 2.872139 1_545
Mo26 P6 2.479087 1_555
Mo26 P3 2.520306 1_555
Mo26 Mo3 3.104177 1_555
Mo27 P4 2.463249 1_555
Mo27 P7 2.483109 1_555
Mo27 Mo7 2.818250 1_555
Mo27 Mo7 2.840016 1_655
Mo27 Mo4 3.091188 1_555
Mo28 P5 2.467242 1_655
Mo28 P8 2.471365 1_655
Mo28 Mo5 3.113608 1_555
Mo29 P9 2.491330 1_555
Mo29 P0 2.504443 1_555
Mo29 Mo7 2.837739 1_555
Mo29 Mo3 3.094973 1_555
Mo30 P10 2.456847 1_555
Mo30 P1 2.527529 1_555
Mo30 Mo4 3.091496 1_555
Mo31 P11 2.467861 1_655
Mo31 P2 2.534154 1_555
Mo31 Mo5 3.087212 1_555
