# generated using pymatgen
data_Ba2Li(NiO2)2
_symmetry_space_group_name_H-M   'P 1'
_cell_length_a   5.04946700
_cell_length_b   5.47265758
_cell_length_c   5.47265786
_cell_angle_alpha   113.91859508
_cell_angle_beta   90.00000000
_cell_angle_gamma   90.00000000
_symmetry_Int_Tables_number   1
_chemical_formula_structural   Ba2Li(NiO2)2
_chemical_formula_sum   'Ba2 Li1 Ni2 O4'
_cell_volume   138.24405748
_cell_formula_units_Z   1
loop_
 _symmetry_equiv_pos_site_id
 _symmetry_equiv_pos_as_xyz
  1  'x, y, z'
loop_
 _atom_site_type_symbol
 _atom_site_label
 _atom_site_symmetry_multiplicity
 _atom_site_fract_x
 _atom_site_fract_y
 _atom_site_fract_z
 _atom_site_occupancy
  Ba  Ba0  1  0.75000000  0.35294600  0.64705400  1
  Ba  Ba1  1  0.25000000  0.63677200  0.36322800  1
  Li  Li0  1  0.75000000  0.72469600  0.27530400  1
  Ni  Ni0  1  0.50939900  0.99754300  0.00245700  1
  Ni  Ni1  1  0.99060100  0.99754300  0.00245700  1
  O  O0  1  0.75000000  0.86669200  0.65102700  1
  O  O1  1  0.25000000  0.13658700  0.31175200  1
  O  O2  1  0.75000000  0.34897300  0.13330800  1
  O  O3  1  0.25000000  0.68824800  0.86341300  1
loop_
_geom_bond_atom_site_label_1
_geom_bond_atom_site_label_2
_geom_bond_distance
_geom_bond_site_symmetry_2
Ba0 O0 2.669991 1_545
Ba0 O2 2.669991 1_556
Ba0 O0 2.802811 1_555
Ba0 O2 2.802811 1_555
Ba0 O3 3.062948 1_655
Ba0 O3 3.062948 1_555
Ba0 O1 3.062948 1_555
Ba0 O1 3.062948 1_655
Ba1 O1 2.635735 1_555
Ba1 O3 2.635735 1_555
Ba1 Li0 2.650488 1_455
Ba1 Li0 2.650488 1_555
Ba1 O1 2.861145 1_565
Ba1 O3 2.861145 1_554
Ba1 O2 2.971739 1_455
Ba1 O2 2.971739 1_555
Ba1 O0 2.971739 1_455
Ba1 O0 2.971739 1_555
Li0 O2 1.880473 1_555
Li0 O0 1.880473 1_555
Ni0 O3 2.028637 1_554
Ni0 O1 2.028637 1_565
Ni0 O2 2.137975 1_565
Ni0 O0 2.137975 1_554
Ni1 O3 2.028637 1_654
Ni1 O1 2.028637 1_665
Ni1 O2 2.137975 1_565
Ni1 O0 2.137975 1_554
