# generated using pymatgen
data_Fe9BP2
_symmetry_space_group_name_H-M   'P 1'
_cell_length_a   4.35027300
_cell_length_b   6.70702703
_cell_length_c   18.75819128
_cell_angle_alpha   90.14032242
_cell_angle_beta   96.26426780
_cell_angle_gamma   108.81137320
_symmetry_Int_Tables_number   1
_chemical_formula_structural   Fe9BP2
_chemical_formula_sum   'Fe36 B4 P8'
_cell_volume   514.57510410
_cell_formula_units_Z   4
loop_
 _symmetry_equiv_pos_site_id
 _symmetry_equiv_pos_as_xyz
  1  'x, y, z'
loop_
 _atom_site_type_symbol
 _atom_site_label
 _atom_site_symmetry_multiplicity
 _atom_site_fract_x
 _atom_site_fract_y
 _atom_site_fract_z
 _atom_site_occupancy
  Fe  Fe0  1  0.93723900  0.40033900  0.98955700  1
  Fe  Fe1  1  0.27095400  0.39298100  0.65741000  1
  Fe  Fe2  1  0.60192000  0.39567900  0.32233600  1
  Fe  Fe3  1  0.90675900  0.60274800  0.68582100  1
  Fe  Fe4  1  0.23329600  0.60300500  0.34866400  1
  Fe  Fe5  1  0.54459300  0.60017900  0.00778700  1
  Fe  Fe6  1  0.15731300  0.94464000  0.87275600  1
  Fe  Fe7  1  0.49349600  0.94730700  0.53828100  1
  Fe  Fe8  1  0.82450400  0.94757100  0.20220900  1
  Fe  Fe9  1  0.67431000  0.06113900  0.79618800  1
  Fe  Fe10  1  0.99657800  0.05384800  0.46158600  1
  Fe  Fe11  1  0.32992800  0.05113200  0.12655400  1
  Fe  Fe12  1  0.57284600  0.39134500  0.77645400  1
  Fe  Fe13  1  0.90436200  0.38759700  0.44104500  1
  Fe  Fe14  1  0.23764800  0.38517700  0.10638400  1
  Fe  Fe15  1  0.74522900  0.61007300  0.89137500  1
  Fe  Fe16  1  0.07822100  0.60484500  0.55646000  1
  Fe  Fe17  1  0.40961800  0.60515900  0.22020600  1
  Fe  Fe18  1  0.12131500  0.34311000  0.87044000  1
  Fe  Fe19  1  0.44385900  0.32719200  0.53175900  1
  Fe  Fe20  1  0.77624400  0.32765200  0.19682300  1
  Fe  Fe21  1  0.24742600  0.65948000  0.80033800  1
  Fe  Fe22  1  0.57302200  0.65360700  0.46040400  1
  Fe  Fe23  1  0.89981000  0.65032300  0.12258800  1
  Fe  Fe24  1  0.33448700  0.18709200  0.99507000  1
  Fe  Fe25  1  0.67431600  0.19029500  0.66351500  1
  Fe  Fe26  1  0.00237000  0.18902700  0.32812500  1
  Fe  Fe27  1  0.48684200  0.81853900  0.67737400  1
  Fe  Fe28  1  0.81731100  0.81789500  0.34132600  1
  Fe  Fe29  1  0.15287200  0.81194700  0.00292200  1
  Fe  Fe30  1  0.69696200  0.95612000  0.93632600  1
  Fe  Fe31  1  0.05966600  0.97451000  0.60684900  1
  Fe  Fe32  1  0.39093600  0.97492600  0.27203100  1
  Fe  Fe33  1  0.13959700  0.04568500  0.73191100  1
  Fe  Fe34  1  0.46724000  0.04514700  0.39729500  1
  Fe  Fe35  1  0.79868400  0.04159600  0.06093600  1
  B  B0  1  0.03455400  0.34018500  0.75313400  1
  B  B1  1  0.36087300  0.33647800  0.41689400  1
  B  B2  1  0.69286600  0.33182200  0.08243600  1
  B  B3  1  0.27513300  0.66264800  0.91481900  1
  P  P0  1  0.62160800  0.66079200  0.58530100  1
  P  P1  1  0.95330000  0.66324100  0.24802900  1
  P  P2  1  0.57792100  0.24918500  0.88952300  1
  P  P3  1  0.91185600  0.24688300  0.55630700  1
  P  P4  1  0.24392100  0.24722300  0.22128900  1
  P  P5  1  0.77644300  0.75631600  0.78072100  1
  P  P6  1  0.10986200  0.75431000  0.44561800  1
  P  P7  1  0.43988800  0.75201000  0.10882500  1
loop_
_geom_bond_atom_site_label_1
_geom_bond_atom_site_label_2
_geom_bond_distance
_geom_bond_site_symmetry_2
Fe0 P2 2.306697 1_555
Fe1 P3 2.313973 1_455
Fe1 P0 2.465382 1_555
Fe2 P4 2.314336 1_555
Fe2 P1 2.491590 1_555
Fe3 P0 2.247296 1_555
Fe3 P5 2.266940 1_555
Fe4 P1 2.242704 1_455
Fe4 P6 2.276242 1_555
Fe5 P7 2.305360 1_555
Fe6 P2 2.253903 1_565
Fe6 P5 2.310107 1_455
Fe7 P3 2.228872 1_565
Fe7 P0 2.317986 1_555
Fe7 P6 2.333424 1_555
Fe8 P4 2.232817 1_665
Fe8 P1 2.298123 1_555
Fe8 P7 2.349946 1_555
Fe9 P5 2.252204 1_545
Fe9 P2 2.307005 1_555
Fe10 P6 2.244210 1_645
Fe10 P3 2.325605 1_555
Fe11 P7 2.239352 1_545
Fe11 P4 2.340650 1_555
Fe12 P5 2.316959 1_555
Fe12 P2 2.328384 1_555
Fe13 P6 2.328128 1_655
Fe13 P3 2.362399 1_555
Fe14 P7 2.328988 1_555
Fe14 P4 2.348587 1_555
Fe15 P2 2.290770 1_555
Fe15 P5 2.296629 1_555
Fe16 P0 2.256869 1_455
Fe16 P3 2.273074 1_455
Fe16 P0 2.273610 1_555
Fe16 P6 2.308812 1_555
Fe17 P1 2.255795 1_455
Fe17 P1 2.270149 1_555
Fe17 P4 2.273925 1_555
Fe17 P7 2.310652 1_555
Fe18 P2 2.263523 1_555
Fe18 P2 2.310511 1_455
Fe19 P3 2.269572 1_555
Fe19 P3 2.299623 1_455
Fe19 P0 2.305782 1_555
Fe20 P4 2.268510 1_655
Fe20 P4 2.300400 1_555
Fe20 P1 2.300417 1_555
Fe21 P5 2.252903 1_555
Fe21 P5 2.334540 1_455
Fe22 P6 2.261024 1_655
Fe22 P6 2.312884 1_555
Fe22 P0 2.328244 1_555
Fe23 P7 2.269741 1_655
Fe23 P7 2.302847 1_555
Fe23 P1 2.337732 1_555
Fe24 P2 2.322066 1_555
Fe25 P3 2.336758 1_555
Fe26 P4 2.339158 1_555
Fe27 P0 2.249022 1_555
Fe27 P5 2.308593 1_555
Fe28 P1 2.258646 1_555
Fe28 P6 2.332290 1_655
Fe29 P7 2.335229 1_555
Fe30 P2 2.338420 1_565
Fe31 P3 2.298382 1_465
Fe31 P0 2.337538 1_455
Fe32 P4 2.297678 1_565
Fe32 P1 2.332178 1_455
Fe33 P5 2.334064 1_445
Fe34 P6 2.324689 1_545
Fe35 P7 2.318418 1_545
B0 Fe1 2.139735 1_555
B0 Fe25 2.166427 1_455
B0 Fe21 2.181866 1_555
B0 Fe18 2.190567 1_555
B0 Fe33 2.210598 1_555
B0 Fe12 2.231337 1_455
B0 Fe9 2.236754 1_455
B0 Fe12 2.247278 1_555
B0 Fe3 2.343858 1_455
B1 Fe2 2.131722 1_555
B1 Fe22 2.145493 1_555
B1 Fe26 2.147925 1_555
B1 Fe19 2.149924 1_555
B1 Fe34 2.187225 1_555
B1 Fe13 2.213925 1_455
B1 Fe13 2.270581 1_555
B1 Fe10 2.273327 1_455
B1 Fe4 2.374369 1_555
B2 Fe0 2.114191 1_554
B2 Fe24 2.125394 1_554
B2 Fe23 2.131896 1_555
B2 Fe20 2.138537 1_555
B2 Fe35 2.185906 1_555
B2 Fe14 2.214026 1_555
B2 Fe11 2.257823 1_555
B2 Fe14 2.272985 1_655
B2 Fe5 2.486033 1_555
B3 Fe5 2.113075 1_556
B3 Fe29 2.131675 1_556
B3 Fe21 2.137332 1_555
B3 Fe18 2.163031 1_555
B3 Fe15 2.210337 1_455
B3 Fe30 2.215780 1_555
B3 Fe6 2.237547 1_555
B3 Fe15 2.271676 1_555
B3 Fe0 2.452625 1_455
