# generated using pymatgen
data_Sr2MgZn2Sn2(PO4)4
_symmetry_space_group_name_H-M   'P 1'
_cell_length_a   5.93394816
_cell_length_b   7.49016805
_cell_length_c   9.55526746
_cell_angle_alpha   113.04974275
_cell_angle_beta   99.18758761
_cell_angle_gamma   92.50621796
_symmetry_Int_Tables_number   1
_chemical_formula_structural   Sr2MgZn2Sn2(PO4)4
_chemical_formula_sum   'Sr2 Mg1 Zn2 Sn2 P4 O16'
_cell_volume   383.12924474
_cell_formula_units_Z   1
loop_
 _symmetry_equiv_pos_site_id
 _symmetry_equiv_pos_as_xyz
  1  'x, y, z'
loop_
 _atom_site_type_symbol
 _atom_site_label
 _atom_site_symmetry_multiplicity
 _atom_site_fract_x
 _atom_site_fract_y
 _atom_site_fract_z
 _atom_site_occupancy
  Sr  Sr0  1  0.15985125  0.81062865  0.03705989  1
  Sr  Sr1  1  0.84014875  0.18937135  0.96294011  1
  Mg  Mg0  1  0.50000000  0.50000000  0.00000000  1
  Zn  Zn0  1  0.97944258  0.29599603  0.57176294  1
  Zn  Zn1  1  0.02055742  0.70400397  0.42823706  1
  Sn  Sn0  1  0.61018237  0.82098748  0.52716998  1
  Sn  Sn1  1  0.38981763  0.17901252  0.47283002  1
  P  P0  1  0.37430101  0.40299948  0.22181185  1
  P  P1  1  0.62569899  0.59700052  0.77818815  1
  P  P2  1  0.77261826  0.93621820  0.23501547  1
  P  P3  1  0.22738174  0.06378180  0.76498453  1
  O  O0  1  0.79215573  0.57029698  0.91080721  1
  O  O1  1  0.61607818  0.41626786  0.18103039  1
  O  O2  1  0.68531404  0.78803237  0.75753022  1
  O  O3  1  0.01255597  0.16079321  0.72048579  1
  O  O4  1  0.38392182  0.58373214  0.81896961  1
  O  O5  1  0.25742836  0.88221899  0.61786513  1
  O  O6  1  0.74257164  0.11778101  0.38213487  1
  O  O7  1  0.17223562  0.00062144  0.89029983  1
  O  O8  1  0.31468596  0.21196763  0.24246978  1
  O  O9  1  0.82776438  0.99937856  0.10970017  1
  O  O10  1  0.20784427  0.42970202  0.08919279  1
  O  O11  1  0.34461059  0.57712542  0.37883316  1
  O  O12  1  0.65538941  0.42287458  0.62116684  1
  O  O13  1  0.54913460  0.79156869  0.17731669  1
  O  O14  1  0.98744403  0.83920679  0.27951421  1
  O  O15  1  0.45086540  0.20843131  0.82268331  1
loop_
_geom_bond_atom_site_label_1
_geom_bond_atom_site_label_2
_geom_bond_distance
_geom_bond_site_symmetry_2
Mg0 O4 2.089687 1_554
Mg0 O1 2.089687 1_555
Mg0 O13 2.148066 1_555
Mg0 O15 2.148066 1_554
Mg0 O0 2.180016 1_554
Mg0 O10 2.180019 1_555
O0 P1 1.561255 1_555
O0 Sr0 2.563565 1_656
O0 Sr1 3.099792 1_555
O1 P0 1.554495 1_555
O1 Sr1 2.703335 1_554
O2 P1 1.552632 1_555
O2 Sn0 2.286150 1_555
O2 Sr1 2.880194 1_565
O3 P3 1.575966 1_555
O3 Zn0 2.034403 1_455
O3 Sr1 2.616740 1_455
O4 P1 1.554495 1_555
O4 Sr0 2.703335 1_556
O5 P3 1.568955 1_565
O5 Zn1 2.041884 1_555
O5 Sn0 2.386412 1_555
O6 P2 1.568955 1_545
O6 Zn0 2.041884 1_555
O6 Sn1 2.386412 1_555
O7 P3 1.523116 1_555
O7 Sr0 2.362953 1_546
O7 Sr1 2.505142 1_455
O8 P0 1.552632 1_555
O8 Sn1 2.286150 1_555
O8 Sr0 2.880194 1_545
O9 P2 1.523116 1_555
O9 Sr1 2.362953 1_564
O9 Sr0 2.505142 1_655
O10 P0 1.561251 1_555
O10 Sr1 2.563561 1_454
O10 Sr0 3.099799 1_555
O11 P0 1.598557 1_555
O11 Sn0 2.199192 1_555
O11 Zn1 2.218556 1_555
O12 P1 1.598557 1_555
O12 Sn1 2.199192 1_555
O12 Zn0 2.218556 1_555
O13 P2 1.552285 1_555
O13 Sr0 2.518451 1_555
O14 P2 1.575966 1_555
O14 Zn1 2.034403 1_655
O14 Sr0 2.616740 1_655
O15 P3 1.552285 1_555
O15 Sr1 2.518451 1_555
