# generated using pymatgen
data_MnAl(WO4)2
_symmetry_space_group_name_H-M   'P 1'
_cell_length_a   5.12191622
_cell_length_b   5.67213800
_cell_length_c   9.27605490
_cell_angle_alpha   89.99957436
_cell_angle_beta   91.47111537
_cell_angle_gamma   89.99919062
_symmetry_Int_Tables_number   1
_chemical_formula_structural   MnAl(WO4)2
_chemical_formula_sum   'Mn2 Al2 W4 O16'
_cell_volume   269.40112184
_cell_formula_units_Z   2
loop_
 _symmetry_equiv_pos_site_id
 _symmetry_equiv_pos_as_xyz
  1  'x, y, z'
loop_
 _atom_site_type_symbol
 _atom_site_label
 _atom_site_symmetry_multiplicity
 _atom_site_fract_x
 _atom_site_fract_y
 _atom_site_fract_z
 _atom_site_occupancy
  Mn  Mn0  1  0.25133000  0.65106500  0.74761800  1
  Mn  Mn1  1  0.75136400  0.34893600  0.24762700  1
  Al  Al0  1  0.24781700  0.65723900  0.24507800  1
  Al  Al1  1  0.74777700  0.34276000  0.74508100  1
  W  W0  1  0.24169200  0.16199600  0.99601400  1
  W  W1  1  0.74169600  0.83799700  0.49602600  1
  W  W2  1  0.74614400  0.82925100  0.00110800  1
  W  W3  1  0.24614500  0.17074200  0.50111900  1
  O  O0  1  0.37805700  0.39174500  0.12419900  1
  O  O1  1  0.12748000  0.39639500  0.36841000  1
  O  O2  1  0.62742500  0.60365400  0.86841100  1
  O  O3  1  0.87803300  0.60822800  0.62420200  1
  O  O4  1  0.43320400  0.88997600  0.60829400  1
  O  O5  1  0.08664000  0.88346800  0.89318100  1
  O  O6  1  0.58662200  0.11651600  0.39316700  1
  O  O7  1  0.93321000  0.11003100  0.10829700  1
  O  O8  1  0.93358800  0.63905200  0.14502100  1
  O  O9  1  0.56558300  0.64412600  0.36210700  1
  O  O10  1  0.06554400  0.35586100  0.86211100  1
  O  O11  1  0.43356200  0.36097400  0.64500900  1
  O  O12  1  0.41807700  0.88361800  0.11924000  1
  O  O13  1  0.57046300  0.11987500  0.88971600  1
  O  O14  1  0.07046400  0.88013700  0.38972100  1
  O  O15  1  0.91807800  0.11635800  0.61924300  1
loop_
_geom_bond_atom_site_label_1
_geom_bond_atom_site_label_2
_geom_bond_distance
_geom_bond_site_symmetry_2
Mn0 O5 2.081082 1_555
Mn0 O4 2.106236 1_555
Mn0 O11 2.128423 1_555
Mn0 O10 2.211129 1_555
Mn0 O3 2.216527 1_455
Mn0 O2 2.219840 1_555
Mn1 O6 2.081117 1_555
Mn1 O7 2.106179 1_555
Mn1 O8 2.128511 1_555
Mn1 O9 2.210990 1_555
Mn1 O0 2.216600 1_555
Mn1 O1 2.219929 1_655
Al0 O8 1.840034 1_455
Al0 O9 1.934490 1_555
Al0 O12 1.955529 1_555
Al0 O1 1.978374 1_555
Al0 O0 2.002113 1_555
Al0 O14 2.070367 1_555
Al1 O11 1.840045 1_555
Al1 O10 1.934499 1_655
Al1 O15 1.955707 1_555
Al1 O2 1.978600 1_555
Al1 O3 2.002032 1_555
Al1 O13 2.070185 1_555
O0 W0 1.886088 1_554
O1 W3 1.866704 1_555
O2 W2 1.866523 1_556
O3 W1 1.886038 1_555
O4 W1 1.937150 1_555
O4 W3 2.096076 1_565
O5 W0 1.999419 1_565
O5 W2 2.056214 1_456
O6 W1 1.999506 1_545
O6 W3 2.056250 1_555
O7 W0 1.937178 1_654
O7 W2 2.096244 1_545
O8 W2 1.949832 1_555
O9 W1 1.873126 1_555
O10 W0 1.873067 1_555
O11 W3 1.949752 1_555
O12 W2 2.052784 1_555
O12 W0 2.136094 1_564
O13 W0 1.987516 1_555
O13 W2 2.132360 1_546
O14 W1 1.987554 1_455
O14 W3 2.132334 1_565
O15 W3 2.052762 1_655
O15 W1 2.136004 1_545
