# generated using pymatgen
data_Ce2S4O17
_symmetry_space_group_name_H-M   'P 1'
_cell_length_a   5.39458900
_cell_length_b   6.91190900
_cell_length_c   9.16141473
_cell_angle_alpha   80.70450979
_cell_angle_beta   90.00000000
_cell_angle_gamma   90.00000000
_symmetry_Int_Tables_number   1
_chemical_formula_structural   Ce2S4O17
_chemical_formula_sum   'Ce2 S4 O17'
_cell_volume   337.11507643
_cell_formula_units_Z   1
loop_
 _symmetry_equiv_pos_site_id
 _symmetry_equiv_pos_as_xyz
  1  'x, y, z'
loop_
 _atom_site_type_symbol
 _atom_site_label
 _atom_site_symmetry_multiplicity
 _atom_site_fract_x
 _atom_site_fract_y
 _atom_site_fract_z
 _atom_site_occupancy
  Ce  Ce0  1  0.50000000  0.79353300  0.06298900  1
  Ce  Ce1  1  0.00000000  0.18337400  0.52053500  1
  S  S0  1  0.50000000  0.26303400  0.23136500  1
  S  S1  1  0.00000000  0.80126300  0.86939300  1
  S  S2  1  0.00000000  0.71452700  0.35239000  1
  S  S3  1  0.50000000  0.16920200  0.71115300  1
  O  O0  1  0.50000000  0.43520100  0.11352500  1
  O  O1  1  0.77171500  0.67792100  0.88791700  1
  O  O2  1  0.22828500  0.67792100  0.88791700  1
  O  O3  1  0.50000000  0.08153200  0.16435200  1
  O  O4  1  0.50000000  0.05034600  0.86127000  1
  O  O5  1  0.22546700  0.71374000  0.25889500  1
  O  O6  1  0.77453300  0.71374000  0.25889500  1
  O  O7  1  0.00000000  0.92262400  0.99031200  1
  O  O8  1  0.00000000  0.54117300  0.46909400  1
  O  O9  1  0.27550600  0.26541600  0.32532400  1
  O  O10  1  0.72449400  0.26541600  0.32532400  1
  O  O11  1  0.27286700  0.29403900  0.69304200  1
  O  O12  1  0.72713300  0.29403900  0.69304200  1
  O  O13  1  0.00000000  0.92157500  0.72024900  1
  O  O14  1  0.00000000  0.89478100  0.42061200  1
  O  O15  1  0.50000000  0.04648200  0.59206600  1
  O  O16  1  0.00000000  0.30022000  0.98013900  1
loop_
_geom_bond_atom_site_label_1
_geom_bond_atom_site_label_2
_geom_bond_distance
_geom_bond_site_symmetry_2
Ce0 O6 2.323566 1_555
Ce0 O5 2.323566 1_555
Ce0 O3 2.328542 1_565
Ce0 O4 2.346562 1_564
Ce0 O1 2.402846 1_554
Ce0 O2 2.402846 1_554
Ce0 O0 2.445044 1_555
Ce1 O9 2.324062 1_555
Ce1 O10 2.324062 1_455
Ce1 O14 2.325269 1_545
Ce1 O13 2.356374 1_545
Ce1 O11 2.374889 1_555
Ce1 O12 2.374889 1_455
Ce1 O8 2.441655 1_555
O0 S0 1.471929 1_555
O1 S1 1.491800 1_655
O2 S1 1.491800 1_555
O3 S0 1.483092 1_555
O4 S3 1.483682 1_555
O5 S2 1.488152 1_555
O6 S2 1.488152 1_655
O7 S1 1.493667 1_555
O8 S2 1.471385 1_555
O9 S0 1.487438 1_555
O10 S0 1.487438 1_555
O11 S3 1.492362 1_555
O12 S3 1.492362 1_555
O13 S1 1.480349 1_555
O14 S2 1.481372 1_555
O15 S3 1.486185 1_555
