# generated using pymatgen
data_LiSmSn2
_symmetry_space_group_name_H-M   'P 1'
_cell_length_a   4.46329200
_cell_length_b   4.53744800
_cell_length_c   9.85132995
_cell_angle_alpha   90.00000000
_cell_angle_beta   103.09300865
_cell_angle_gamma   90.00000000
_symmetry_Int_Tables_number   1
_chemical_formula_structural   LiSmSn2
_chemical_formula_sum   'Li2 Sm2 Sn4'
_cell_volume   194.32218987
_cell_formula_units_Z   2
loop_
 _symmetry_equiv_pos_site_id
 _symmetry_equiv_pos_as_xyz
  1  'x, y, z'
loop_
 _atom_site_type_symbol
 _atom_site_label
 _atom_site_symmetry_multiplicity
 _atom_site_fract_x
 _atom_site_fract_y
 _atom_site_fract_z
 _atom_site_occupancy
  Li  Li0  1  0.67504200  0.25000000  0.35008400  1
  Li  Li1  1  0.32495800  0.75000000  0.64991600  1
  Sm  Sm0  1  0.89477800  0.25000000  0.78955600  1
  Sm  Sm1  1  0.10522200  0.75000000  0.21044400  1
  Sn  Sn0  1  0.54458800  0.25000000  0.08917600  1
  Sn  Sn1  1  0.45541200  0.75000000  0.91082400  1
  Sn  Sn2  1  0.25076100  0.25000000  0.50152200  1
  Sn  Sn3  1  0.74923900  0.75000000  0.49847800  1
loop_
_geom_bond_atom_site_label_1
_geom_bond_atom_site_label_2
_geom_bond_distance
_geom_bond_site_symmetry_2
Li0 Sn0 2.503473 1_555
Li0 Sn2 2.663023 1_555
Li0 Sn2 2.663023 1_655
Li0 Sn3 2.678531 1_545
Li0 Sn3 2.678531 1_555
Li0 Sm1 3.452916 1_555
Li0 Sm1 3.452916 1_545
Li0 Sm1 3.452916 1_645
Li0 Sm1 3.452916 1_655
Li1 Sn1 2.503473 1_555
Li1 Sn3 2.663023 1_455
Li1 Sn3 2.663023 1_555
Li1 Sn2 2.678531 1_565
Li1 Sn2 2.678531 1_555
Li1 Sm0 3.452916 1_465
Li1 Sm0 3.452916 1_455
Li1 Sm0 3.452916 1_555
Li1 Sm0 3.452916 1_565
Sm0 Sn1 3.388407 1_655
Sm0 Sn1 3.388407 1_645
Sm0 Sn1 3.388407 1_545
Sm0 Sn1 3.388407 1_555
Sm0 Sn2 3.552263 1_655
Sm0 Sn2 3.552263 1_555
Sm0 Sn3 3.598297 1_545
Sm0 Sn3 3.598297 1_555
Sm0 Sn0 3.639427 1_556
Sm0 Sn0 3.639427 1_656
Sm1 Sn0 3.388407 1_455
Sm1 Sn0 3.388407 1_465
Sm1 Sn0 3.388407 1_565
Sm1 Sn0 3.388407 1_555
Sm1 Sn3 3.552263 1_455
Sm1 Sn3 3.552263 1_555
Sm1 Sn2 3.598297 1_565
Sm1 Sn2 3.598297 1_555
Sm1 Sn1 3.639427 1_554
Sm1 Sn1 3.639427 1_454
Sn0 Sn1 2.841787 1_544
Sn0 Sn1 2.841787 1_554
