# generated using pymatgen
data_Sr3(RhN2)2
_symmetry_space_group_name_H-M   'P 1'
_cell_length_a   6.36666100
_cell_length_b   10.32612100
_cell_length_c   9.05849100
_cell_angle_alpha   90.00000000
_cell_angle_beta   90.00000000
_cell_angle_gamma   90.00000000
_symmetry_Int_Tables_number   1
_chemical_formula_structural   Sr3(RhN2)2
_chemical_formula_sum   'Sr12 Rh8 N16'
_cell_volume   595.53157532
_cell_formula_units_Z   4
loop_
 _symmetry_equiv_pos_site_id
 _symmetry_equiv_pos_as_xyz
  1  'x, y, z'
loop_
 _atom_site_type_symbol
 _atom_site_label
 _atom_site_symmetry_multiplicity
 _atom_site_fract_x
 _atom_site_fract_y
 _atom_site_fract_z
 _atom_site_occupancy
  Sr  Sr0  1  0.62232300  0.15495300  0.41878500  1
  Sr  Sr1  1  0.87767700  0.84504700  0.41878500  1
  Sr  Sr2  1  0.62232300  0.34504700  0.08121500  1
  Sr  Sr3  1  0.87767700  0.65495300  0.08121500  1
  Sr  Sr4  1  0.37767700  0.84504700  0.58121500  1
  Sr  Sr5  1  0.12232300  0.15495300  0.58121500  1
  Sr  Sr6  1  0.37767700  0.65495300  0.91878500  1
  Sr  Sr7  1  0.12232300  0.34504700  0.91878500  1
  Sr  Sr8  1  0.75000000  0.50000000  0.40812900  1
  Sr  Sr9  1  0.75000000  0.00000000  0.09187100  1
  Sr  Sr10  1  0.25000000  0.50000000  0.59187100  1
  Sr  Sr11  1  0.25000000  0.00000000  0.90812900  1
  Rh  Rh0  1  0.75000000  0.50000000  0.74571400  1
  Rh  Rh1  1  0.75000000  0.00000000  0.75428600  1
  Rh  Rh2  1  0.25000000  0.50000000  0.25428600  1
  Rh  Rh3  1  0.25000000  0.00000000  0.24571400  1
  Rh  Rh4  1  0.68012300  0.25000000  0.75000000  1
  Rh  Rh5  1  0.81987700  0.75000000  0.75000000  1
  Rh  Rh6  1  0.31987700  0.75000000  0.25000000  1
  Rh  Rh7  1  0.18012300  0.25000000  0.25000000  1
  N  N0  1  0.92076400  0.35672300  0.65730700  1
  N  N1  1  0.57923600  0.64327700  0.65730700  1
  N  N2  1  0.92076400  0.14327700  0.84269300  1
  N  N3  1  0.57923600  0.85672300  0.84269300  1
  N  N4  1  0.07923600  0.64327700  0.34269300  1
  N  N5  1  0.42076400  0.35672300  0.34269300  1
  N  N6  1  0.07923600  0.85672300  0.15730700  1
  N  N7  1  0.42076400  0.14327700  0.15730700  1
  N  N8  1  0.47402100  0.40051500  0.80797200  1
  N  N9  1  0.02597900  0.59948500  0.80797200  1
  N  N10  1  0.47402100  0.09948500  0.69202800  1
  N  N11  1  0.02597900  0.90051500  0.69202800  1
  N  N12  1  0.52597900  0.59948500  0.19202800  1
  N  N13  1  0.97402100  0.40051500  0.19202800  1
  N  N14  1  0.52597900  0.90051500  0.30797200  1
  N  N15  1  0.97402100  0.09948500  0.30797200  1
loop_
_geom_bond_atom_site_label_1
_geom_bond_atom_site_label_2
_geom_bond_distance
_geom_bond_site_symmetry_2
N0 Rh0 2.003057 1_555
N0 Rh4 2.065617 1_555
N0 Sr5 2.542210 1_655
N0 Sr10 2.633256 1_655
N0 Sr7 2.696578 1_655
N0 Sr8 2.909596 1_555
N1 Rh0 2.003057 1_555
N1 Rh5 2.065617 1_555
N1 Sr4 2.542210 1_555
N1 Sr10 2.633256 1_555
N1 Sr6 2.696578 1_555
N1 Sr8 2.909596 1_555
N2 Rh1 2.003057 1_555
N2 Rh4 2.065617 1_555
N2 Sr7 2.542210 1_655
N2 Sr11 2.633256 1_655
N2 Sr5 2.696578 1_655
N2 Sr9 2.909596 1_556
N3 Rh1 2.003057 1_565
N3 Rh5 2.065617 1_555
N3 Sr6 2.542210 1_555
N3 Sr11 2.633256 1_565
N3 Sr4 2.696578 1_555
N3 Sr9 2.909596 1_566
N4 Rh2 2.003057 1_555
N4 Rh6 2.065617 1_555
N4 Sr1 2.542210 1_455
N4 Sr8 2.633256 1_455
N4 Sr3 2.696578 1_455
N4 Sr10 2.909596 1_555
N5 Rh2 2.003057 1_555
N5 Rh7 2.065617 1_555
N5 Sr0 2.542210 1_555
N5 Sr8 2.633256 1_555
N5 Sr2 2.696578 1_555
N5 Sr10 2.909596 1_555
N6 Rh3 2.003057 1_565
N6 Rh6 2.065617 1_555
N6 Sr3 2.542210 1_455
N6 Sr9 2.633256 1_465
N6 Sr1 2.696578 1_455
N6 Sr11 2.909596 1_564
N7 Rh3 2.003057 1_555
N7 Rh7 2.065617 1_555
N7 Sr2 2.542210 1_555
N7 Sr9 2.633256 1_555
N7 Sr0 2.696578 1_555
N7 Sr11 2.909596 1_554
N8 Rh4 2.100772 1_555
N8 Rh0 2.112029 1_555
N8 Sr7 2.519808 1_555
N8 Sr10 2.630887 1_555
N8 Sr2 2.710354 1_556
N8 Sr6 2.878692 1_555
N9 Rh5 2.100772 1_455
N9 Rh0 2.112029 1_455
N9 Sr6 2.519808 1_555
N9 Sr10 2.630887 1_555
N9 Sr3 2.710354 1_456
N9 Sr7 2.878692 1_555
N10 Rh4 2.100772 1_555
N10 Rh1 2.112029 1_555
N10 Sr5 2.519808 1_555
N10 Sr11 2.630887 1_555
N10 Sr0 2.710354 1_555
N10 Sr4 2.878692 1_545
N11 Rh5 2.100772 1_455
N11 Rh1 2.112029 1_465
N11 Sr4 2.519808 1_555
N11 Sr11 2.630887 1_565
N11 Sr1 2.710354 1_455
N11 Sr5 2.878692 1_565
N12 Rh6 2.100772 1_555
N12 Rh2 2.112029 1_555
N12 Sr3 2.519808 1_555
N12 Sr8 2.630887 1_555
N12 Sr6 2.710354 1_554
N12 Sr2 2.878692 1_555
N13 Rh7 2.100772 1_655
N13 Rh2 2.112029 1_655
N13 Sr2 2.519808 1_555
N13 Sr8 2.630887 1_555
N13 Sr7 2.710354 1_654
N13 Sr3 2.878692 1_555
N14 Rh6 2.100772 1_555
N14 Rh3 2.112029 1_565
N14 Sr1 2.519808 1_555
N14 Sr9 2.630887 1_565
N14 Sr4 2.710354 1_555
N14 Sr0 2.878692 1_565
N15 Rh7 2.100772 1_655
N15 Rh3 2.112029 1_655
N15 Sr0 2.519808 1_555
N15 Sr9 2.630887 1_555
N15 Sr5 2.710354 1_655
N15 Sr1 2.878692 1_545
