# generated using pymatgen
data_Na4Mn3BO8
_symmetry_space_group_name_H-M   'P 1'
_cell_length_a   2.77559500
_cell_length_b   11.36983058
_cell_length_c   5.59212415
_cell_angle_alpha   83.66068371
_cell_angle_beta   104.36925442
_cell_angle_gamma   90.00000000
_symmetry_Int_Tables_number   1
_chemical_formula_structural   Na4Mn3BO8
_chemical_formula_sum   'Na4 Mn3 B1 O8'
_cell_volume   169.84154530
_cell_formula_units_Z   1
loop_
 _symmetry_equiv_pos_site_id
 _symmetry_equiv_pos_as_xyz
  1  'x, y, z'
loop_
 _atom_site_type_symbol
 _atom_site_label
 _atom_site_symmetry_multiplicity
 _atom_site_fract_x
 _atom_site_fract_y
 _atom_site_fract_z
 _atom_site_occupancy
  Na  Na0  1  0.25046800  0.62723200  0.50093700  1
  Na  Na1  1  0.75077500  0.88035800  0.50155000  1
  Na  Na2  1  0.24922500  0.11964200  0.49845000  1
  Na  Na3  1  0.74953200  0.37276800  0.49906300  1
  Mn  Mn0  1  0.50088300  0.24053400  0.00176600  1
  Mn  Mn1  1  0.00000000  0.50000000  0.00000000  1
  Mn  Mn2  1  0.49911700  0.75946600  0.99823400  1
  B  B0  1  0.00000000  0.00000000  0.00000000  1
  O  O0  1  0.60561400  0.55180600  0.21122800  1
  O  O1  1  0.10418200  0.81240600  0.20836500  1
  O  O2  1  0.58755900  0.04191900  0.17511800  1
  O  O3  1  0.10498000  0.29463000  0.20996000  1
  O  O4  1  0.89502000  0.70537000  0.79004000  1
  O  O5  1  0.41244100  0.95808100  0.82488200  1
  O  O6  1  0.89581800  0.18759400  0.79163500  1
  O  O7  1  0.39438600  0.44819400  0.78877200  1
loop_
_geom_bond_atom_site_label_1
_geom_bond_atom_site_label_2
_geom_bond_distance
_geom_bond_site_symmetry_2
Na0 O0 2.330510 1_455
Na0 O0 2.330511 1_555
Na0 O4 2.342048 1_455
Na0 O4 2.342049 1_555
Na0 O7 2.418987 1_555
Na0 O1 2.486758 1_555
Na1 O1 2.307622 1_655
Na1 O1 2.307623 1_555
Na1 O4 2.385788 1_555
Na1 O2 2.400170 1_565
Na1 O5 2.475414 1_655
Na1 O5 2.475415 1_555
Na2 O6 2.307622 1_455
Na2 O6 2.307623 1_555
Na2 O3 2.385788 1_555
Na2 O5 2.400170 1_545
Na2 O2 2.475414 1_455
Na2 O2 2.475415 1_555
Na3 O7 2.330510 1_655
Na3 O7 2.330511 1_555
Na3 O3 2.342048 1_655
Na3 O3 2.342049 1_555
Na3 O0 2.418987 1_555
Na3 O6 2.486758 1_555
Mn0 O3 1.932461 1_655
Mn0 O3 1.932462 1_555
Mn0 O6 1.933972 1_454
Mn0 O6 1.933974 1_554
Mn0 O2 2.344780 1_555
Mn0 O7 2.506967 1_554
Mn1 O7 1.932851 1_454
Mn1 O0 1.932851 1_555
Mn1 O7 1.932851 1_554
Mn1 O0 1.932851 1_455
Mn1 O3 2.478014 1_555
Mn1 O4 2.478014 1_454
Mn2 O4 1.932461 1_455
Mn2 O4 1.932462 1_555
Mn2 O1 1.933972 1_656
Mn2 O1 1.933974 1_556
Mn2 O5 2.344780 1_555
Mn2 O0 2.506967 1_556
B0 O5 1.776553 1_444
B0 O2 1.776553 1_555
B0 O2 1.776553 1_455
B0 O5 1.776553 1_544
