# generated using pymatgen
data_Cd5(AsO5)4
_symmetry_space_group_name_H-M   'P 1'
_cell_length_a   10.38501974
_cell_length_b   10.38501974
_cell_length_c   10.10626389
_cell_angle_alpha   84.99042828
_cell_angle_beta   84.99042828
_cell_angle_gamma   54.80758347
_symmetry_Int_Tables_number   1
_chemical_formula_structural   Cd5(AsO5)4
_chemical_formula_sum   'Cd10 As8 O40'
_cell_volume   886.40839531
_cell_formula_units_Z   2
loop_
 _symmetry_equiv_pos_site_id
 _symmetry_equiv_pos_as_xyz
  1  'x, y, z'
loop_
 _atom_site_type_symbol
 _atom_site_label
 _atom_site_symmetry_multiplicity
 _atom_site_fract_x
 _atom_site_fract_y
 _atom_site_fract_z
 _atom_site_occupancy
  Cd  Cd0  1  0.10749500  0.89250500  0.25000000  1
  Cd  Cd1  1  0.89250500  0.10749500  0.75000000  1
  Cd  Cd2  1  0.73906700  0.59740300  0.18465900  1
  Cd  Cd3  1  0.40259700  0.26093300  0.31534100  1
  Cd  Cd4  1  0.26093300  0.40259700  0.81534100  1
  Cd  Cd5  1  0.59740300  0.73906700  0.68465900  1
  Cd  Cd6  1  0.80446300  0.84303400  0.36461600  1
  Cd  Cd7  1  0.15696600  0.19553700  0.13538400  1
  Cd  Cd8  1  0.19553700  0.15696600  0.63538400  1
  Cd  Cd9  1  0.84303400  0.80446300  0.86461600  1
  As  As0  1  0.72432700  0.11335700  0.08452700  1
  As  As1  1  0.88664300  0.27567300  0.41547300  1
  As  As2  1  0.27567300  0.88664300  0.91547300  1
  As  As3  1  0.11335700  0.72432700  0.58452700  1
  As  As4  1  0.09620500  0.58346600  0.11803800  1
  As  As5  1  0.41653400  0.90379500  0.38196200  1
  As  As6  1  0.90379500  0.41653400  0.88196200  1
  As  As7  1  0.58346600  0.09620500  0.61803800  1
  O  O0  1  0.55082900  0.12927500  0.13095200  1
  O  O1  1  0.87072500  0.44917100  0.36904800  1
  O  O2  1  0.44917100  0.87072500  0.86904800  1
  O  O3  1  0.12927500  0.55082900  0.63095200  1
  O  O4  1  0.68974100  0.29883800  0.07067500  1
  O  O5  1  0.70116200  0.31025900  0.42932500  1
  O  O6  1  0.31025900  0.70116200  0.92932500  1
  O  O7  1  0.29883800  0.68974100  0.57067500  1
  O  O8  1  0.84986100  0.99352800  0.20861700  1
  O  O9  1  0.00647200  0.15013900  0.29138300  1
  O  O10  1  0.15013900  0.00647200  0.79138300  1
  O  O11  1  0.99352800  0.84986100  0.70861700  1
  O  O12  1  0.80243900  0.02671500  0.93397700  1
  O  O13  1  0.97328500  0.19756100  0.56602300  1
  O  O14  1  0.19756100  0.97328500  0.06602300  1
  O  O15  1  0.02671500  0.80243900  0.43397700  1
  O  O16  1  0.07881000  0.60030400  0.94830800  1
  O  O17  1  0.39969600  0.92119000  0.55169200  1
  O  O18  1  0.92119000  0.39969600  0.05169200  1
  O  O19  1  0.60030400  0.07881000  0.44830800  1
  O  O20  1  0.20078700  0.65498300  0.16270900  1
  O  O21  1  0.34501700  0.79921300  0.33729100  1
  O  O22  1  0.79921300  0.34501700  0.83729100  1
  O  O23  1  0.65498300  0.20078700  0.66270900  1
  O  O24  1  0.20369000  0.38509700  0.16795800  1
  O  O25  1  0.61490300  0.79631000  0.33204200  1
  O  O26  1  0.79631000  0.61490300  0.83204200  1
  O  O27  1  0.38509700  0.20369000  0.66795800  1
  O  O28  1  0.90943200  0.67875600  0.18901900  1
  O  O29  1  0.32124400  0.09056800  0.31098100  1
  O  O30  1  0.09056800  0.32124400  0.81098100  1
  O  O31  1  0.67875600  0.90943200  0.68901900  1
  O  O32  1  0.52119400  0.58079400  0.20615600  1
  O  O33  1  0.41920600  0.47880600  0.29384400  1
  O  O34  1  0.47880600  0.41920600  0.79384400  1
  O  O35  1  0.58079400  0.52119400  0.70615600  1
  O  O36  1  0.77982200  0.65503300  0.50319200  1
  O  O37  1  0.34496700  0.22017800  0.99680800  1
  O  O38  1  0.22017800  0.34496700  0.49680800  1
  O  O39  1  0.65503300  0.77982200  0.00319200  1
loop_
_geom_bond_atom_site_label_1
_geom_bond_atom_site_label_2
_geom_bond_distance
_geom_bond_site_symmetry_2
Cd0 O21 2.297287 1_555
Cd0 O20 2.297287 1_555
Cd0 O8 2.305950 1_455
Cd0 O9 2.305950 1_565
Cd0 O14 2.316028 1_555
Cd0 O15 2.316028 1_555
Cd1 O22 2.297287 1_555
Cd1 O23 2.297287 1_555
Cd1 O10 2.305950 1_655
Cd1 O11 2.305950 1_545
Cd1 O12 2.316028 1_555
Cd1 O13 2.316028 1_555
Cd2 O18 2.271673 1_555
Cd2 O1 2.286845 1_555
Cd2 O25 2.297816 1_555
Cd2 O39 2.341144 1_555
Cd2 O32 2.356656 1_555
Cd2 O28 2.364102 1_555
Cd3 O19 2.271673 1_555
Cd3 O0 2.286845 1_555
Cd3 O24 2.297816 1_555
Cd3 O38 2.341144 1_555
Cd3 O33 2.356656 1_555
Cd3 O29 2.364102 1_555
Cd4 O16 2.271673 1_555
Cd4 O3 2.286845 1_555
Cd4 O27 2.297816 1_555
Cd4 O37 2.341144 1_555
Cd4 O34 2.356656 1_555
Cd4 O30 2.364102 1_555
Cd5 O17 2.271673 1_555
Cd5 O2 2.286845 1_555
Cd5 O26 2.297816 1_555
Cd5 O36 2.341144 1_555
Cd5 O35 2.356656 1_555
Cd5 O31 2.364102 1_555
Cd6 O15 2.259593 1_655
Cd6 O19 2.295786 1_565
Cd6 O28 2.301180 1_555
Cd6 O8 2.332299 1_555
Cd6 O25 2.336932 1_555
Cd6 O36 2.423725 1_555
Cd7 O14 2.259593 1_545
Cd7 O18 2.295786 1_455
Cd7 O29 2.301180 1_555
Cd7 O9 2.332299 1_555
Cd7 O24 2.336932 1_555
Cd7 O37 2.423725 1_554
Cd8 O13 2.259593 1_455
Cd8 O17 2.295786 1_545
Cd8 O30 2.301180 1_555
Cd8 O10 2.332299 1_555
Cd8 O27 2.336932 1_555
Cd8 O38 2.423725 1_555
Cd9 O12 2.259593 1_565
Cd9 O16 2.295786 1_655
Cd9 O31 2.301180 1_555
Cd9 O11 2.332299 1_555
Cd9 O26 2.336932 1_555
Cd9 O39 2.423725 1_556
As0 O8 1.721598 1_545
As0 O12 1.721865 1_554
As0 O0 1.736797 1_555
As0 O4 1.738726 1_555
As1 O9 1.721598 1_655
As1 O13 1.721865 1_555
As1 O1 1.736797 1_555
As1 O5 1.738726 1_555
As2 O10 1.721598 1_565
As2 O14 1.721865 1_556
As2 O2 1.736797 1_555
As2 O6 1.738726 1_555
As3 O11 1.721598 1_455
As3 O15 1.721865 1_555
As3 O3 1.736797 1_555
As3 O7 1.738726 1_555
As4 O28 1.710151 1_455
As4 O16 1.723633 1_554
As4 O20 1.734639 1_555
As4 O24 1.735132 1_555
As5 O29 1.710151 1_565
As5 O17 1.723633 1_555
As5 O21 1.734639 1_555
As5 O25 1.735132 1_555
As6 O30 1.710151 1_655
As6 O18 1.723633 1_556
As6 O22 1.734639 1_555
As6 O26 1.735132 1_555
As7 O31 1.710151 1_545
As7 O19 1.723633 1_555
As7 O23 1.734639 1_555
As7 O27 1.735132 1_555
