# generated using pymatgen
data_YbSe2
_symmetry_space_group_name_H-M   'P 1'
_cell_length_a   4.01579831
_cell_length_b   4.01579831
_cell_length_c   8.15556223
_cell_angle_alpha   90.00000000
_cell_angle_beta   90.00000000
_cell_angle_gamma   90.00000000
_symmetry_Int_Tables_number   1
_chemical_formula_structural   YbSe2
_chemical_formula_sum   'Yb2 Se4'
_cell_volume   131.52178405
_cell_formula_units_Z   2
loop_
 _symmetry_equiv_pos_site_id
 _symmetry_equiv_pos_as_xyz
  1  'x, y, z'
loop_
 _atom_site_type_symbol
 _atom_site_label
 _atom_site_symmetry_multiplicity
 _atom_site_fract_x
 _atom_site_fract_y
 _atom_site_fract_z
 _atom_site_occupancy
  Yb  Yb0  1  0.00000000  0.50000000  0.72690807  1
  Yb  Yb1  1  0.50000000  0.00000000  0.27309193  1
  Se  Se0  1  0.00000000  0.00000000  0.00000000  1
  Se  Se1  1  0.50000000  0.50000000  0.00000000  1
  Se  Se2  1  0.00000000  0.50000000  0.37032086  1
  Se  Se3  1  0.50000000  0.00000000  0.62967914  1
loop_
_geom_bond_atom_site_label_1
_geom_bond_atom_site_label_2
_geom_bond_distance
_geom_bond_site_symmetry_2
Se0 Se1 2.839598 1_555
Se0 Se1 2.839598 1_445
Se0 Se1 2.839598 1_545
Se0 Se1 2.839598 1_455
Se0 Yb1 2.998693 1_555
Se0 Yb1 2.998693 1_455
Se0 Yb0 2.998693 1_554
Se0 Yb0 2.998693 1_544
Se1 Yb1 2.998693 1_555
Se1 Yb1 2.998693 1_565
Se1 Yb0 2.998693 1_554
Se1 Yb0 2.998693 1_654
Se2 Yb0 2.908169 1_555
Se2 Yb1 2.948236 1_465
Se2 Yb1 2.948236 1_565
Se2 Yb1 2.948236 1_455
Se2 Yb1 2.948236 1_555
Se3 Yb1 2.908169 1_555
Se3 Yb0 2.948236 1_655
Se3 Yb0 2.948236 1_645
Se3 Yb0 2.948236 1_545
Se3 Yb0 2.948236 1_555
