# generated using pymatgen
data_NaCaVO4
_symmetry_space_group_name_H-M   'P 1'
_cell_length_a   5.57766147
_cell_length_b   5.57766147
_cell_length_c   7.20486900
_cell_angle_alpha   90.00000000
_cell_angle_beta   90.00000000
_cell_angle_gamma   115.19745648
_symmetry_Int_Tables_number   1
_chemical_formula_structural   NaCaVO4
_chemical_formula_sum   'Na2 Ca2 V2 O8'
_cell_volume   202.81732048
_cell_formula_units_Z   2
loop_
 _symmetry_equiv_pos_site_id
 _symmetry_equiv_pos_as_xyz
  1  'x, y, z'
loop_
 _atom_site_type_symbol
 _atom_site_label
 _atom_site_symmetry_multiplicity
 _atom_site_fract_x
 _atom_site_fract_y
 _atom_site_fract_z
 _atom_site_occupancy
  Na  Na0  1  0.17861300  0.82138700  0.75000000  1
  Na  Na1  1  0.82138700  0.17861300  0.25000000  1
  Ca  Ca0  1  0.50000000  0.50000000  0.50000000  1
  Ca  Ca1  1  0.50000000  0.50000000  0.00000000  1
  V  V0  1  0.85199600  0.14800400  0.75000000  1
  V  V1  1  0.14800400  0.85199600  0.25000000  1
  O  O0  1  0.25484300  0.74515700  0.05659000  1
  O  O1  1  0.74515700  0.25484300  0.55659000  1
  O  O2  1  0.74515700  0.25484300  0.94341000  1
  O  O3  1  0.25484300  0.74515700  0.44341000  1
  O  O4  1  0.20309200  0.27767200  0.75000000  1
  O  O5  1  0.79690800  0.72232800  0.25000000  1
  O  O6  1  0.72232800  0.79690800  0.75000000  1
  O  O7  1  0.27767200  0.20309200  0.25000000  1
loop_
_geom_bond_atom_site_label_1
_geom_bond_atom_site_label_2
_geom_bond_distance
_geom_bond_site_symmetry_2
Na0 O0 2.322696 1_556
Na0 O3 2.322696 1_555
Na0 O4 2.489942 1_565
Na0 O6 2.489942 1_455
Na1 O2 2.322696 1_554
Na1 O1 2.322696 1_555
Na1 O7 2.489942 1_655
Na1 O5 2.489942 1_545
Ca0 O1 2.344761 1_555
Ca0 O3 2.344761 1_555
Ca0 O6 2.403342 1_555
Ca0 O5 2.403342 1_555
Ca0 O7 2.403342 1_555
Ca0 O4 2.403342 1_555
Ca1 O0 2.344761 1_555
Ca1 O2 2.344761 1_554
Ca1 O6 2.403342 1_554
Ca1 O5 2.403342 1_555
Ca1 O4 2.403342 1_554
Ca1 O7 2.403342 1_555
O0 V1 1.718841 1_555
O1 V0 1.718841 1_555
O2 V0 1.718841 1_555
O3 V1 1.718841 1_555
O4 V0 1.775396 1_455
O5 V1 1.775396 1_655
O6 V0 1.775396 1_565
O7 V1 1.775396 1_545
