# generated using pymatgen
data_SiGeN2
_symmetry_space_group_name_H-M   'P 1'
_cell_length_a   4.89740300
_cell_length_b   10.85313800
_cell_length_c   14.67567200
_cell_angle_alpha   90.00000000
_cell_angle_beta   90.00000000
_cell_angle_gamma   90.00000000
_symmetry_Int_Tables_number   1
_chemical_formula_structural   SiGeN2
_chemical_formula_sum   'Si16 Ge16 N32'
_cell_volume   780.04411534
_cell_formula_units_Z   16
loop_
 _symmetry_equiv_pos_site_id
 _symmetry_equiv_pos_as_xyz
  1  'x, y, z'
loop_
 _atom_site_type_symbol
 _atom_site_label
 _atom_site_symmetry_multiplicity
 _atom_site_fract_x
 _atom_site_fract_y
 _atom_site_fract_z
 _atom_site_occupancy
  Si  Si0  1  0.68798400  0.98954400  0.18886600  1
  Si  Si1  1  0.18798400  0.51045600  0.81113400  1
  Si  Si2  1  0.31201600  0.48954400  0.31113400  1
  Si  Si3  1  0.81201600  0.01045600  0.68886600  1
  Si  Si4  1  0.31201600  0.01045600  0.81113400  1
  Si  Si5  1  0.81201600  0.48954400  0.18886600  1
  Si  Si6  1  0.68798400  0.51045600  0.68886600  1
  Si  Si7  1  0.18798400  0.98954400  0.31113400  1
  Si  Si8  1  0.83487600  0.24913900  0.06112600  1
  Si  Si9  1  0.33487600  0.25086100  0.93887400  1
  Si  Si10  1  0.16512400  0.74913900  0.43887400  1
  Si  Si11  1  0.66512400  0.75086100  0.56112600  1
  Si  Si12  1  0.16512400  0.75086100  0.93887400  1
  Si  Si13  1  0.66512400  0.74913900  0.06112600  1
  Si  Si14  1  0.83487600  0.25086100  0.56112600  1
  Si  Si15  1  0.33487600  0.24913900  0.43887400  1
  Ge  Ge0  1  0.68378400  0.96108900  0.42600800  1
  Ge  Ge1  1  0.18378400  0.53891100  0.57399200  1
  Ge  Ge2  1  0.31621600  0.46108900  0.07399200  1
  Ge  Ge3  1  0.81621600  0.03891100  0.92600800  1
  Ge  Ge4  1  0.31621600  0.03891100  0.57399200  1
  Ge  Ge5  1  0.81621600  0.46108900  0.42600800  1
  Ge  Ge6  1  0.68378400  0.53891100  0.92600800  1
  Ge  Ge7  1  0.18378400  0.96108900  0.07399200  1
  Ge  Ge8  1  0.91840500  0.23267600  0.31917400  1
  Ge  Ge9  1  0.41840500  0.26732400  0.68082600  1
  Ge  Ge10  1  0.08159500  0.73267600  0.18082600  1
  Ge  Ge11  1  0.58159500  0.76732400  0.81917400  1
  Ge  Ge12  1  0.08159500  0.76732400  0.68082600  1
  Ge  Ge13  1  0.58159500  0.73267600  0.31917400  1
  Ge  Ge14  1  0.91840500  0.26732400  0.81917400  1
  Ge  Ge15  1  0.41840500  0.23267600  0.18082600  1
  N  N0  1  0.66179900  0.47818300  0.29646100  1
  N  N1  1  0.16179900  0.02181700  0.70353900  1
  N  N2  1  0.33820100  0.97818300  0.20353900  1
  N  N3  1  0.83820100  0.52181700  0.79646100  1
  N  N4  1  0.33820100  0.52181700  0.70353900  1
  N  N5  1  0.83820100  0.97818300  0.29646100  1
  N  N6  1  0.66179900  0.02181700  0.79646100  1
  N  N7  1  0.16179900  0.47818300  0.20353900  1
  N  N8  1  0.68796300  0.27212500  0.45071600  1
  N  N9  1  0.18796300  0.22787500  0.54928400  1
  N  N10  1  0.31203700  0.77212500  0.04928400  1
  N  N11  1  0.81203700  0.72787500  0.95071600  1
  N  N12  1  0.31203700  0.72787500  0.54928400  1
  N  N13  1  0.81203700  0.77212500  0.45071600  1
  N  N14  1  0.68796300  0.22787500  0.95071600  1
  N  N15  1  0.18796300  0.27212500  0.04928400  1
  N  N16  1  0.66932800  0.37199600  0.11990000  1
  N  N17  1  0.16932800  0.12800400  0.88010000  1
  N  N18  1  0.33067200  0.87199600  0.38010000  1
  N  N19  1  0.83067200  0.62800400  0.61990000  1
  N  N20  1  0.33067200  0.62800400  0.88010000  1
  N  N21  1  0.83067200  0.87199600  0.11990000  1
  N  N22  1  0.66932800  0.12800400  0.61990000  1
  N  N23  1  0.16932800  0.37199600  0.38010000  1
  N  N24  1  0.72716500  0.12883700  0.13013900  1
  N  N25  1  0.22716500  0.37116300  0.86986100  1
  N  N26  1  0.27283500  0.62883700  0.36986100  1
  N  N27  1  0.77283500  0.87116300  0.63013900  1
  N  N28  1  0.27283500  0.87116300  0.86986100  1
  N  N29  1  0.77283500  0.62883700  0.13013900  1
  N  N30  1  0.72716500  0.37116300  0.63013900  1
  N  N31  1  0.22716500  0.12883700  0.36986100  1
loop_
_geom_bond_atom_site_label_1
_geom_bond_atom_site_label_2
_geom_bond_distance
_geom_bond_site_symmetry_2
Ge0 N5 2.054469 1_555
Ge0 N18 2.092719 1_555
Ge0 N13 2.175315 1_555
Ge1 N4 2.054469 1_555
Ge1 N19 2.092719 1_455
Ge1 N12 2.175315 1_555
Ge2 N7 2.054469 1_555
Ge2 N16 2.092719 1_555
Ge2 N15 2.175315 1_555
Ge3 N6 2.054469 1_555
Ge3 N17 2.092719 1_655
Ge3 N14 2.175315 1_555
Ge4 N1 2.054469 1_555
Ge4 N22 2.092719 1_555
Ge4 N9 2.175315 1_555
Ge5 N0 2.054469 1_555
Ge5 N23 2.092719 1_655
Ge5 N8 2.175315 1_555
Ge6 N3 2.054469 1_555
Ge6 N20 2.092719 1_555
Ge6 N11 2.175315 1_555
Ge7 N2 2.054469 1_555
Ge7 N21 2.092719 1_455
Ge7 N10 2.175315 1_555
Ge8 N31 2.027297 1_655
Ge8 N23 2.143809 1_655
Ge8 N8 2.276769 1_555
Ge9 N30 2.027297 1_555
Ge9 N22 2.143809 1_555
Ge9 N9 2.276769 1_555
Ge10 N29 2.027297 1_455
Ge10 N21 2.143809 1_455
Ge10 N10 2.276769 1_555
Ge11 N28 2.027297 1_555
Ge11 N20 2.143809 1_555
Ge11 N11 2.276769 1_555
Ge12 N27 2.027297 1_455
Ge12 N19 2.143809 1_455
Ge12 N12 2.276769 1_555
Ge13 N26 2.027297 1_555
Ge13 N18 2.143809 1_555
Ge13 N13 2.276769 1_555
Ge14 N25 2.027297 1_655
Ge14 N17 2.143809 1_655
Ge14 N14 2.276769 1_555
Ge15 N24 2.027297 1_555
Ge15 N16 2.143809 1_555
Ge15 N15 2.276769 1_555
N0 Si2 1.730907 1_555
N0 Si5 1.746354 1_555
N1 Si3 1.730907 1_455
N1 Si4 1.746354 1_555
N2 Si0 1.730907 1_555
N2 Si7 1.746354 1_555
N3 Si1 1.730907 1_655
N3 Si6 1.746354 1_555
N4 Si6 1.730907 1_555
N4 Si1 1.746354 1_555
N5 Si7 1.730907 1_655
N5 Si0 1.746354 1_555
N6 Si4 1.730907 1_555
N6 Si3 1.746354 1_555
N7 Si5 1.730907 1_455
N7 Si2 1.746354 1_555
N8 Si15 1.755734 1_555
N8 Si14 1.787857 1_555
N9 Si14 1.755734 1_455
N9 Si15 1.787857 1_555
N10 Si13 1.755734 1_555
N10 Si12 1.787857 1_554
N11 Si12 1.755734 1_655
N11 Si13 1.787857 1_556
N12 Si11 1.755734 1_555
N12 Si10 1.787857 1_555
N13 Si10 1.755734 1_655
N13 Si11 1.787857 1_555
N14 Si9 1.755734 1_555
N14 Si8 1.787857 1_556
N15 Si8 1.755734 1_455
N15 Si9 1.787857 1_554
N16 Si5 1.772086 1_555
N16 Si8 1.783038 1_555
N17 Si4 1.772086 1_555
N17 Si9 1.783038 1_555
N18 Si7 1.772086 1_555
N18 Si10 1.783038 1_555
N19 Si6 1.772086 1_555
N19 Si11 1.783038 1_555
N20 Si1 1.772086 1_555
N20 Si12 1.783038 1_555
N21 Si0 1.772086 1_555
N21 Si13 1.783038 1_555
N22 Si3 1.772086 1_555
N22 Si14 1.783038 1_555
N23 Si2 1.772086 1_555
N23 Si15 1.783038 1_555
N24 Si8 1.734584 1_555
N24 Si0 1.750730 1_545
N25 Si9 1.734584 1_555
N25 Si1 1.750730 1_555
N26 Si10 1.734584 1_555
N26 Si2 1.750730 1_555
N27 Si11 1.734584 1_555
N27 Si3 1.750730 1_565
N28 Si12 1.734584 1_555
N28 Si4 1.750730 1_565
N29 Si13 1.734584 1_555
N29 Si5 1.750730 1_555
N30 Si14 1.734584 1_555
N30 Si6 1.750730 1_555
N31 Si15 1.734584 1_555
N31 Si7 1.750730 1_545
