# generated using pymatgen
data_Rb4PS3O16
_symmetry_space_group_name_H-M   'P 1'
_cell_length_a   7.50840400
_cell_length_b   7.92517100
_cell_length_c   14.87685200
_cell_angle_alpha   90.00000000
_cell_angle_beta   90.00000000
_cell_angle_gamma   90.00000000
_symmetry_Int_Tables_number   1
_chemical_formula_structural   Rb4PS3O16
_chemical_formula_sum   'Rb8 P2 S6 O32'
_cell_volume   885.25281533
_cell_formula_units_Z   2
loop_
 _symmetry_equiv_pos_site_id
 _symmetry_equiv_pos_as_xyz
  1  'x, y, z'
loop_
 _atom_site_type_symbol
 _atom_site_label
 _atom_site_symmetry_multiplicity
 _atom_site_fract_x
 _atom_site_fract_y
 _atom_site_fract_z
 _atom_site_occupancy
  Rb  Rb0  1  0.23165100  0.50000000  0.50000000  1
  Rb  Rb1  1  0.76834900  0.00000000  0.00000000  1
  Rb  Rb2  1  0.64425100  0.34408900  0.24185500  1
  Rb  Rb3  1  0.64425100  0.65591100  0.75814500  1
  Rb  Rb4  1  0.35574900  0.84408900  0.25814500  1
  Rb  Rb5  1  0.35574900  0.15591100  0.74185500  1
  Rb  Rb6  1  0.93559300  0.00000000  0.50000000  1
  Rb  Rb7  1  0.06440700  0.50000000  0.00000000  1
  P  P0  1  0.73051100  0.50000000  0.50000000  1
  P  P1  1  0.26948900  0.00000000  0.00000000  1
  S  S0  1  0.14644400  0.34462100  0.26161100  1
  S  S1  1  0.14644400  0.65537900  0.73838900  1
  S  S2  1  0.85355600  0.84462100  0.23838900  1
  S  S3  1  0.85355600  0.15537900  0.76161100  1
  S  S4  1  0.56068400  0.50000000  0.00000000  1
  S  S5  1  0.43931600  0.00000000  0.50000000  1
  O  O0  1  0.26094600  0.48392700  0.29655000  1
  O  O1  1  0.26094600  0.51607300  0.70345000  1
  O  O2  1  0.73905400  0.98392700  0.20345000  1
  O  O3  1  0.73905400  0.01607300  0.79655000  1
  O  O4  1  0.04561700  0.26963000  0.33794600  1
  O  O5  1  0.04561700  0.73037000  0.66205400  1
  O  O6  1  0.95438300  0.76963000  0.16205400  1
  O  O7  1  0.95438300  0.23037000  0.83794600  1
  O  O8  1  0.02345500  0.41136900  0.19198100  1
  O  O9  1  0.02345500  0.58863100  0.80801900  1
  O  O10  1  0.97654500  0.91136900  0.30801900  1
  O  O11  1  0.97654500  0.08863100  0.69198100  1
  O  O12  1  0.26101200  0.21219600  0.21948700  1
  O  O13  1  0.26101200  0.78780400  0.78051300  1
  O  O14  1  0.73898800  0.71219600  0.28051300  1
  O  O15  1  0.73898800  0.28780400  0.71948700  1
  O  O16  1  0.32502500  0.13743400  0.53694500  1
  O  O17  1  0.32502500  0.86256600  0.46305500  1
  O  O18  1  0.67497500  0.63743400  0.96305500  1
  O  O19  1  0.67497500  0.36256600  0.03694500  1
  O  O20  1  0.44881700  0.56352500  0.07549200  1
  O  O21  1  0.44881700  0.43647500  0.92450800  1
  O  O22  1  0.55118300  0.06352500  0.42450800  1
  O  O23  1  0.55118300  0.93647500  0.57549200  1
  O  O24  1  0.85824300  0.37194700  0.54448700  1
  O  O25  1  0.85824300  0.62805300  0.45551300  1
  O  O26  1  0.14175700  0.87194700  0.95551300  1
  O  O27  1  0.14175700  0.12805300  0.04448700  1
  O  O28  1  0.60596500  0.41514000  0.43136000  1
  O  O29  1  0.60596500  0.58486000  0.56864000  1
  O  O30  1  0.39403500  0.91514000  0.06864000  1
  O  O31  1  0.39403500  0.08486000  0.93136000  1
loop_
_geom_bond_atom_site_label_1
_geom_bond_atom_site_label_2
_geom_bond_distance
_geom_bond_site_symmetry_2
O0 S0 1.492707 1_555
O0 Rb4 2.996733 1_555
O0 Rb0 3.037350 1_555
O0 Rb2 3.189549 1_555
O1 S1 1.492707 1_555
O1 Rb5 2.996733 1_555
O1 Rb0 3.037350 1_555
O1 Rb3 3.189549 1_555
O2 S2 1.492707 1_555
O2 Rb2 2.996733 1_565
O2 Rb1 3.037350 1_565
O2 Rb4 3.189549 1_555
O3 S3 1.492707 1_555
O3 Rb3 2.996733 1_545
O3 Rb1 3.037350 1_556
O3 Rb5 3.189549 1_555
O4 S0 1.488617 1_555
O4 Rb6 3.325786 1_455
O4 Rb0 3.331152 1_555
O4 Rb2 3.387281 1_455
O5 S1 1.488617 1_555
O5 Rb6 3.325786 1_465
O5 Rb0 3.331152 1_555
O5 Rb3 3.387281 1_455
O6 S2 1.488617 1_555
O6 Rb7 3.325786 1_655
O6 Rb1 3.331152 1_565
O6 Rb4 3.387281 1_655
O7 S3 1.488617 1_555
O7 Rb7 3.325786 1_656
O7 Rb1 3.331152 1_556
O7 Rb5 3.387281 1_655
O8 S0 1.485136 1_555
O8 Rb7 2.957209 1_555
O8 Rb2 2.990229 1_455
O9 S1 1.485136 1_555
O9 Rb7 2.957209 1_556
O9 Rb3 2.990229 1_455
O10 S2 1.485136 1_555
O10 Rb6 2.957209 1_565
O10 Rb4 2.990229 1_655
O11 S3 1.485136 1_555
O11 Rb6 2.957209 1_555
O11 Rb5 2.990229 1_655
O12 S0 1.494702 1_555
O12 Rb4 3.057358 1_545
O12 Rb2 3.079515 1_555
O13 S1 1.494702 1_555
O13 Rb5 3.057358 1_565
O13 Rb3 3.079515 1_555
O14 S2 1.494702 1_555
O14 Rb2 3.057358 1_555
O14 Rb4 3.079515 1_555
O15 S3 1.494702 1_555
O15 Rb3 3.057358 1_555
O15 Rb5 3.079515 1_555
O16 S5 1.491586 1_555
O16 Rb0 3.008326 1_555
O16 Rb5 3.060637 1_555
O16 Rb6 3.168323 1_455
O17 S5 1.491586 1_565
O17 Rb0 3.008326 1_555
O17 Rb4 3.060637 1_555
O17 Rb6 3.168323 1_465
O18 S4 1.491586 1_556
O18 Rb1 3.008326 1_566
O18 Rb3 3.060637 1_555
O18 Rb7 3.168323 1_656
O19 S4 1.491586 1_555
O19 Rb1 3.008326 1_555
O19 Rb2 3.060637 1_555
O19 Rb7 3.168323 1_655
O20 S4 1.490060 1_555
O20 Rb7 3.137759 1_555
O20 Rb2 3.361998 1_555
O21 S4 1.490060 1_556
O21 Rb7 3.137759 1_556
O21 Rb3 3.361998 1_555
O22 S5 1.490060 1_555
O22 Rb6 3.137759 1_555
O22 Rb4 3.361998 1_545
O23 S5 1.490060 1_565
O23 Rb6 3.137759 1_565
O23 Rb5 3.361998 1_565
O24 P0 1.545225 1_555
O24 Rb0 3.054283 1_655
O24 Rb6 3.076444 1_555
O25 P0 1.545225 1_555
O25 Rb0 3.054283 1_655
O25 Rb6 3.076444 1_565
O26 P1 1.545225 1_566
O26 Rb1 3.054283 1_466
O26 Rb7 3.076444 1_556
O27 P1 1.545225 1_555
O27 Rb1 3.054283 1_455
O27 Rb7 3.076444 1_555
O28 P0 1.539327 1_555
O28 Rb2 2.889258 1_555
O28 Rb0 3.064956 1_555
O29 P0 1.539327 1_555
O29 Rb3 2.889258 1_555
O29 Rb0 3.064956 1_555
O30 P1 1.539327 1_565
O30 Rb4 2.889258 1_555
O30 Rb1 3.064956 1_565
O31 P1 1.539327 1_556
O31 Rb5 2.889258 1_555
O31 Rb1 3.064956 1_556
