# generated using pymatgen
data_LaBi2Au
_symmetry_space_group_name_H-M   'P 1'
_cell_length_a   4.73680700
_cell_length_b   4.73680700
_cell_length_c   10.15014200
_cell_angle_alpha   90.00000000
_cell_angle_beta   90.00000000
_cell_angle_gamma   90.00000000
_symmetry_Int_Tables_number   1
_chemical_formula_structural   LaBi2Au
_chemical_formula_sum   'La2 Bi4 Au2'
_cell_volume   227.74219274
_cell_formula_units_Z   2
loop_
 _symmetry_equiv_pos_site_id
 _symmetry_equiv_pos_as_xyz
  1  'x, y, z'
loop_
 _atom_site_type_symbol
 _atom_site_label
 _atom_site_symmetry_multiplicity
 _atom_site_fract_x
 _atom_site_fract_y
 _atom_site_fract_z
 _atom_site_occupancy
  La  La0  1  0.50000000  0.00000000  0.23342800  1
  La  La1  1  0.00000000  0.50000000  0.76657200  1
  Bi  Bi0  1  0.00000000  0.50000000  0.18615700  1
  Bi  Bi1  1  0.50000000  0.00000000  0.81384300  1
  Bi  Bi2  1  0.00000000  0.00000000  0.50000000  1
  Bi  Bi3  1  0.50000000  0.50000000  0.50000000  1
  Au  Au0  1  0.00000000  0.00000000  0.00000000  1
  Au  Au1  1  0.50000000  0.50000000  0.00000000  1
loop_
_geom_bond_atom_site_label_1
_geom_bond_atom_site_label_2
_geom_bond_distance
_geom_bond_site_symmetry_2
Bi0 La0 3.383620 1_465
Bi0 La0 3.383620 1_455
Bi0 La0 3.383620 1_555
Bi0 La0 3.383620 1_565
Bi1 La1 3.383620 1_645
Bi1 La1 3.383620 1_555
Bi1 La1 3.383620 1_545
Bi1 La1 3.383620 1_655
Bi2 Bi3 3.349428 1_545
Bi2 Bi3 3.349428 1_445
Bi2 Bi3 3.349428 1_555
Bi2 Bi3 3.349428 1_455
Bi2 La1 3.595884 1_555
Bi2 La1 3.595884 1_545
Bi2 La0 3.595884 1_455
Bi2 La0 3.595884 1_555
Bi3 La1 3.595884 1_555
Bi3 La1 3.595884 1_655
Bi3 La0 3.595884 1_565
Bi3 La0 3.595884 1_555
Au0 Bi0 3.029789 1_555
Au0 Bi0 3.029789 1_545
Au0 Bi1 3.029789 1_554
Au0 Bi1 3.029789 1_454
Au0 La0 3.350082 1_455
Au0 La0 3.350082 1_555
Au0 La1 3.350082 1_554
Au0 La1 3.350082 1_544
Au1 Bi0 3.029789 1_555
Au1 Bi0 3.029789 1_655
Au1 Bi1 3.029789 1_554
Au1 Bi1 3.029789 1_564
Au1 La0 3.350082 1_555
Au1 La0 3.350082 1_565
Au1 La1 3.350082 1_554
Au1 La1 3.350082 1_654
