# generated using pymatgen
data_La3Pb3I13O40
_symmetry_space_group_name_H-M   'P 1'
_cell_length_a   13.79900671
_cell_length_b   13.79900671
_cell_length_c   13.79900696
_cell_angle_alpha   108.95071808
_cell_angle_beta   108.95071808
_cell_angle_gamma   108.95071394
_symmetry_Int_Tables_number   1
_chemical_formula_structural   La3Pb3I13O40
_chemical_formula_sum   'La6 Pb6 I26 O80'
_cell_volume   2060.71107194
_cell_formula_units_Z   2
loop_
 _symmetry_equiv_pos_site_id
 _symmetry_equiv_pos_as_xyz
  1  'x, y, z'
loop_
 _atom_site_type_symbol
 _atom_site_label
 _atom_site_symmetry_multiplicity
 _atom_site_fract_x
 _atom_site_fract_y
 _atom_site_fract_z
 _atom_site_occupancy
  La  La0  1  0.60192200  0.47493200  0.24037000  1
  La  La1  1  0.24037000  0.60192200  0.47493200  1
  La  La2  1  0.47493200  0.24037000  0.60192200  1
  La  La3  1  0.74037000  0.97493200  0.10192200  1
  La  La4  1  0.10192200  0.74037000  0.97493200  1
  La  La5  1  0.97493200  0.10192200  0.74037000  1
  Pb  Pb0  1  0.81049300  0.67721800  0.61721100  1
  Pb  Pb1  1  0.61721100  0.81049300  0.67721800  1
  Pb  Pb2  1  0.67721800  0.61721100  0.81049300  1
  Pb  Pb3  1  0.11721100  0.17721800  0.31049300  1
  Pb  Pb4  1  0.31049300  0.11721100  0.17721800  1
  Pb  Pb5  1  0.17721800  0.31049300  0.11721100  1
  I  I0  1  0.70213400  0.35899400  0.46537100  1
  I  I1  1  0.46537100  0.70213400  0.35899400  1
  I  I2  1  0.35899400  0.46537100  0.70213400  1
  I  I3  1  0.96537100  0.85899400  0.20213400  1
  I  I4  1  0.20213400  0.96537100  0.85899400  1
  I  I5  1  0.85899400  0.20213400  0.96537100  1
  I  I6  1  0.58820700  0.64129500  0.05010000  1
  I  I7  1  0.05010000  0.58820700  0.64129500  1
  I  I8  1  0.64129500  0.05010000  0.58820700  1
  I  I9  1  0.55010000  0.14129500  0.08820700  1
  I  I10  1  0.08820700  0.55010000  0.14129500  1
  I  I11  1  0.14129500  0.08820700  0.55010000  1
  I  I12  1  0.91836400  0.91836400  0.91836400  1
  I  I13  1  0.41836400  0.41836400  0.41836400  1
  I  I14  1  0.94839600  0.63816300  0.34433600  1
  I  I15  1  0.34433600  0.94839600  0.63816300  1
  I  I16  1  0.63816300  0.34433600  0.94839600  1
  I  I17  1  0.84433600  0.13816300  0.44839600  1
  I  I18  1  0.44839600  0.84433600  0.13816300  1
  I  I19  1  0.13816300  0.44839600  0.84433600  1
  I  I20  1  0.80174000  0.82607300  0.42769200  1
  I  I21  1  0.42769200  0.80174000  0.82607300  1
  I  I22  1  0.82607300  0.42769200  0.80174000  1
  I  I23  1  0.92769200  0.32607300  0.30174000  1
  I  I24  1  0.30174000  0.92769200  0.32607300  1
  I  I25  1  0.32607300  0.30174000  0.92769200  1
  O  O0  1  0.65055200  0.65055200  0.65055200  1
  O  O1  1  0.15055200  0.15055200  0.15055200  1
  O  O2  1  0.80133000  0.51319800  0.24838100  1
  O  O3  1  0.24838100  0.80133000  0.51319800  1
  O  O4  1  0.51319800  0.24838100  0.80133000  1
  O  O5  1  0.74838100  0.01319800  0.30133000  1
  O  O6  1  0.30133000  0.74838100  0.01319800  1
  O  O7  1  0.01319800  0.30133000  0.74838100  1
  O  O8  1  0.82330900  0.46326700  0.61493500  1
  O  O9  1  0.61493500  0.82330900  0.46326700  1
  O  O10  1  0.46326700  0.61493500  0.82330900  1
  O  O11  1  0.11493500  0.96326700  0.32330900  1
  O  O12  1  0.32330900  0.11493500  0.96326700  1
  O  O13  1  0.96326700  0.32330900  0.11493500  1
  O  O14  1  0.92282900  0.85099300  0.39399800  1
  O  O15  1  0.39399800  0.92282900  0.85099300  1
  O  O16  1  0.85099300  0.39399800  0.92282900  1
  O  O17  1  0.89399800  0.35099300  0.42282900  1
  O  O18  1  0.42282900  0.89399800  0.35099300  1
  O  O19  1  0.35099300  0.42282900  0.89399800  1
  O  O20  1  0.92944700  0.78635300  0.85136800  1
  O  O21  1  0.85136800  0.92944700  0.78635300  1
  O  O22  1  0.78635300  0.85136800  0.92944700  1
  O  O23  1  0.35136800  0.28635300  0.42944700  1
  O  O24  1  0.42944700  0.35136800  0.28635300  1
  O  O25  1  0.28635300  0.42944700  0.35136800  1
  O  O26  1  0.02846100  0.55423000  0.35390200  1
  O  O27  1  0.35390200  0.02846100  0.55423000  1
  O  O28  1  0.55423000  0.35390200  0.02846100  1
  O  O29  1  0.85390200  0.05423000  0.52846100  1
  O  O30  1  0.52846100  0.85390200  0.05423000  1
  O  O31  1  0.05423000  0.52846100  0.85390200  1
  O  O32  1  0.62930000  0.54676500  0.96555400  1
  O  O33  1  0.96555400  0.62930000  0.54676500  1
  O  O34  1  0.54676500  0.96555400  0.62930000  1
  O  O35  1  0.46555400  0.04676500  0.12930000  1
  O  O36  1  0.12930000  0.46555400  0.04676500  1
  O  O37  1  0.04676500  0.12930000  0.46555400  1
  O  O38  1  0.71061500  0.78112500  0.09445400  1
  O  O39  1  0.09445400  0.71061500  0.78112500  1
  O  O40  1  0.78112500  0.09445400  0.71061500  1
  O  O41  1  0.59445400  0.28112500  0.21061500  1
  O  O42  1  0.21061500  0.59445400  0.28112500  1
  O  O43  1  0.28112500  0.21061500  0.59445400  1
  O  O44  1  0.68648200  0.47486500  0.43205100  1
  O  O45  1  0.43205100  0.68648200  0.47486500  1
  O  O46  1  0.47486500  0.43205100  0.68648200  1
  O  O47  1  0.93205100  0.97486500  0.18648200  1
  O  O48  1  0.18648200  0.93205100  0.97486500  1
  O  O49  1  0.97486500  0.18648200  0.93205100  1
  O  O50  1  0.58239700  0.31947400  0.49823600  1
  O  O51  1  0.49823600  0.58239700  0.31947400  1
  O  O52  1  0.31947400  0.49823600  0.58239700  1
  O  O53  1  0.99823600  0.81947400  0.08239700  1
  O  O54  1  0.08239700  0.99823600  0.81947400  1
  O  O55  1  0.81947400  0.08239700  0.99823600  1
  O  O56  1  0.97996900  0.67729900  0.23918500  1
  O  O57  1  0.23918500  0.97996900  0.67729900  1
  O  O58  1  0.67729900  0.23918500  0.97996900  1
  O  O59  1  0.73918500  0.17729900  0.47996900  1
  O  O60  1  0.47996900  0.73918500  0.17729900  1
  O  O61  1  0.17729900  0.47996900  0.73918500  1
  O  O62  1  0.64466700  0.63337500  0.18596800  1
  O  O63  1  0.18596800  0.64466700  0.63337500  1
  O  O64  1  0.63337500  0.18596800  0.64466700  1
  O  O65  1  0.68596800  0.13337500  0.14466700  1
  O  O66  1  0.14466700  0.68596800  0.13337500  1
  O  O67  1  0.13337500  0.14466700  0.68596800  1
  O  O68  1  0.76292000  0.67830800  0.41340300  1
  O  O69  1  0.41340300  0.76292000  0.67830800  1
  O  O70  1  0.67830800  0.41340300  0.76292000  1
  O  O71  1  0.91340300  0.17830800  0.26292000  1
  O  O72  1  0.26292000  0.91340300  0.17830800  1
  O  O73  1  0.17830800  0.26292000  0.91340300  1
  O  O74  1  0.88405900  0.89520100  0.58721600  1
  O  O75  1  0.58721600  0.88405900  0.89520100  1
  O  O76  1  0.89520100  0.58721600  0.88405900  1
  O  O77  1  0.08721600  0.39520100  0.38405900  1
  O  O78  1  0.38405900  0.08721600  0.39520100  1
  O  O79  1  0.39520100  0.38405900  0.08721600  1
loop_
_geom_bond_atom_site_label_1
_geom_bond_atom_site_label_2
_geom_bond_distance
_geom_bond_site_symmetry_2
La0 O62 2.491510 1_555
La0 O79 2.493126 1_555
La0 O44 2.520970 1_555
La0 O41 2.532121 1_555
La0 O28 2.576270 1_555
La0 O68 2.581737 1_555
La0 O2 2.585215 1_555
La0 O51 2.603592 1_555
La0 O24 2.832314 1_555
La1 O63 2.491510 1_555
La1 O77 2.493126 1_555
La1 O45 2.520970 1_555
La1 O42 2.532121 1_555
La1 O26 2.576270 1_555
La1 O69 2.581737 1_555
La1 O3 2.585215 1_555
La1 O52 2.603592 1_555
La1 O25 2.832314 1_555
La2 O64 2.491510 1_555
La2 O78 2.493126 1_555
La2 O46 2.520970 1_555
La2 O43 2.532121 1_555
La2 O27 2.576270 1_555
La2 O70 2.581737 1_555
La2 O4 2.585215 1_555
La2 O50 2.603593 1_555
La2 O23 2.832314 1_555
La3 O65 2.491510 1_565
La3 O75 2.493126 1_554
La3 O47 2.520970 1_555
La3 O38 2.532121 1_555
La3 O30 2.576270 1_555
La3 O71 2.581737 1_565
La3 O5 2.585215 1_565
La3 O55 2.603593 1_564
La3 O22 2.832314 1_554
La4 O66 2.491510 1_556
La4 O76 2.493126 1_455
La4 O48 2.520970 1_555
La4 O39 2.532121 1_555
La4 O31 2.576270 1_555
La4 O72 2.581737 1_556
La4 O6 2.585215 1_556
La4 O53 2.603592 1_456
La4 O20 2.832314 1_455
La5 O67 2.491510 1_655
La5 O74 2.493126 1_545
La5 O49 2.520970 1_555
La5 O40 2.532121 1_555
La5 O29 2.576270 1_555
La5 O73 2.581737 1_655
La5 O7 2.585215 1_655
La5 O54 2.603592 1_645
La5 O21 2.832314 1_545
I0 O50 1.815234 1_555
I0 O8 1.841955 1_555
I0 O44 1.857910 1_555
I1 O51 1.815234 1_555
I1 O9 1.841955 1_555
I1 O45 1.857910 1_555
I2 O52 1.815234 1_555
I2 O10 1.841955 1_555
I2 O46 1.857910 1_555
I3 O53 1.815234 1_555
I3 O11 1.841955 1_655
I3 O47 1.857910 1_555
I4 O54 1.815234 1_555
I4 O12 1.841955 1_565
I4 O48 1.857910 1_555
I5 O55 1.815234 1_555
I5 O13 1.841955 1_556
I5 O49 1.857910 1_555
I6 O32 1.818184 1_554
I6 O62 1.836744 1_555
I6 O38 1.842649 1_555
I7 O33 1.818184 1_455
I7 O63 1.836744 1_555
I7 O39 1.842649 1_555
I8 O34 1.818184 1_545
I8 O64 1.836744 1_555
I8 O40 1.842649 1_555
I9 O35 1.818184 1_555
I9 O65 1.836744 1_555
I9 O41 1.842649 1_555
I10 O36 1.818184 1_555
I10 O66 1.836744 1_555
I10 O42 1.842649 1_555
I11 O37 1.818184 1_555
I11 O67 1.836744 1_555
I11 O43 1.842649 1_555
I12 O20 1.837205 1_555
I12 O21 1.837205 1_555
I12 O22 1.837205 1_555
I13 O25 1.837205 1_555
I13 O24 1.837205 1_555
I13 O23 1.837205 1_555
I14 O2 1.828631 1_555
I14 O56 1.831261 1_555
I14 O26 1.848009 1_655
I15 O3 1.828631 1_555
I15 O57 1.831261 1_555
I15 O27 1.848009 1_565
I16 O4 1.828631 1_555
I16 O58 1.831261 1_555
I16 O28 1.848009 1_556
I17 O5 1.828631 1_555
I17 O59 1.831261 1_555
I17 O29 1.848009 1_555
I18 O6 1.828631 1_555
I18 O60 1.831261 1_555
I18 O30 1.848009 1_555
I19 O7 1.828631 1_555
I19 O61 1.831261 1_555
I19 O31 1.848009 1_555
I20 O74 1.831433 1_555
I20 O14 1.833465 1_555
I20 O68 1.855864 1_555
I21 O75 1.831433 1_555
I21 O15 1.833465 1_555
I21 O69 1.855864 1_555
I22 O76 1.831433 1_555
I22 O16 1.833465 1_555
I22 O70 1.855864 1_555
I23 O77 1.831433 1_655
I23 O17 1.833465 1_555
I23 O71 1.855864 1_555
I24 O78 1.831433 1_565
I24 O18 1.833465 1_555
I24 O72 1.855864 1_555
I25 O79 1.831433 1_556
I25 O19 1.833465 1_555
I25 O73 1.855864 1_555
O0 Pb1 2.336669 1_555
O0 Pb0 2.336669 1_555
O0 Pb2 2.336669 1_555
O1 Pb4 2.336669 1_555
O1 Pb5 2.336669 1_555
O1 Pb3 2.336669 1_555
O20 Pb0 2.681720 1_555
O21 Pb1 2.681720 1_555
O22 Pb2 2.681720 1_555
O23 Pb3 2.681720 1_555
O24 Pb4 2.681720 1_555
O25 Pb5 2.681720 1_555
O32 Pb2 2.795144 1_555
O33 Pb0 2.795144 1_555
O34 Pb1 2.795144 1_555
O35 Pb4 2.795144 1_555
O36 Pb5 2.795144 1_555
O37 Pb3 2.795144 1_555
O44 Pb0 2.583819 1_555
O45 Pb1 2.583819 1_555
O46 Pb2 2.583819 1_555
O47 Pb3 2.583819 1_665
O48 Pb4 2.583819 1_566
O49 Pb5 2.583819 1_656
O68 Pb0 2.678663 1_555
O69 Pb1 2.678663 1_555
O70 Pb2 2.678663 1_555
O71 Pb3 2.678663 1_655
O72 Pb4 2.678663 1_565
O73 Pb5 2.678663 1_556
