# generated using pymatgen
data_Ca2Al8PbO15
_symmetry_space_group_name_H-M   'P 1'
_cell_length_a   5.42190300
_cell_length_b   8.97382500
_cell_length_c   28.29008500
_cell_angle_alpha   90.00000000
_cell_angle_beta   90.00000000
_cell_angle_gamma   90.00000000
_symmetry_Int_Tables_number   1
_chemical_formula_structural   Ca2Al8PbO15
_chemical_formula_sum   'Ca8 Al32 Pb4 O60'
_cell_volume   1376.45998950
_cell_formula_units_Z   4
loop_
 _symmetry_equiv_pos_site_id
 _symmetry_equiv_pos_as_xyz
  1  'x, y, z'
loop_
 _atom_site_type_symbol
 _atom_site_label
 _atom_site_symmetry_multiplicity
 _atom_site_fract_x
 _atom_site_fract_y
 _atom_site_fract_z
 _atom_site_occupancy
  Ca  Ca0  1  0.56035200  0.93344000  0.61065300  1
  Ca  Ca1  1  0.06035200  0.56656000  0.88934700  1
  Ca  Ca2  1  0.43964800  0.06656000  0.11065300  1
  Ca  Ca3  1  0.93964800  0.43344000  0.38934700  1
  Ca  Ca4  1  0.43964800  0.06656000  0.38934700  1
  Ca  Ca5  1  0.93964800  0.43344000  0.11065300  1
  Ca  Ca6  1  0.56035200  0.93344000  0.88934700  1
  Ca  Ca7  1  0.06035200  0.56656000  0.61065300  1
  Al  Al0  1  0.62617700  0.66318300  0.53899500  1
  Al  Al1  1  0.12617700  0.83681700  0.96100500  1
  Al  Al2  1  0.37382300  0.33681700  0.03899500  1
  Al  Al3  1  0.87382300  0.16318300  0.46100500  1
  Al  Al4  1  0.37382300  0.33681700  0.46100500  1
  Al  Al5  1  0.87382300  0.16318300  0.03899500  1
  Al  Al6  1  0.62617700  0.66318300  0.96100500  1
  Al  Al7  1  0.12617700  0.83681700  0.53899500  1
  Al  Al8  1  0.51865000  0.65283200  0.68936500  1
  Al  Al9  1  0.01865000  0.84716800  0.81063500  1
  Al  Al10  1  0.48135000  0.34716800  0.18936500  1
  Al  Al11  1  0.98135000  0.15283200  0.31063500  1
  Al  Al12  1  0.48135000  0.34716800  0.31063500  1
  Al  Al13  1  0.98135000  0.15283200  0.18936500  1
  Al  Al14  1  0.51865000  0.65283200  0.81063500  1
  Al  Al15  1  0.01865000  0.84716800  0.68936500  1
  Al  Al16  1  0.47319900  0.31229100  0.66167300  1
  Al  Al17  1  0.97319900  0.18770900  0.83832700  1
  Al  Al18  1  0.52680100  0.68770900  0.16167300  1
  Al  Al19  1  0.02680100  0.81229100  0.33832700  1
  Al  Al20  1  0.52680100  0.68770900  0.33832700  1
  Al  Al21  1  0.02680100  0.81229100  0.16167300  1
  Al  Al22  1  0.47319900  0.31229100  0.83832700  1
  Al  Al23  1  0.97319900  0.18770900  0.66167300  1
  Al  Al24  1  0.69018300  0.30635200  0.55871900  1
  Al  Al25  1  0.19018300  0.19364800  0.94128100  1
  Al  Al26  1  0.30981700  0.69364800  0.05871900  1
  Al  Al27  1  0.80981700  0.80635200  0.44128100  1
  Al  Al28  1  0.30981700  0.69364800  0.44128100  1
  Al  Al29  1  0.80981700  0.80635200  0.05871900  1
  Al  Al30  1  0.69018300  0.30635200  0.94128100  1
  Al  Al31  1  0.19018300  0.19364800  0.55871900  1
  Pb  Pb0  1  0.92956300  0.45679100  0.75000000  1
  Pb  Pb1  1  0.42956300  0.04320900  0.75000000  1
  Pb  Pb2  1  0.07043700  0.54320900  0.25000000  1
  Pb  Pb3  1  0.57043700  0.95679100  0.25000000  1
  O  O0  1  0.89813400  0.19624300  0.52338800  1
  O  O1  1  0.39813400  0.30375700  0.97661200  1
  O  O2  1  0.10186600  0.80375700  0.02338800  1
  O  O3  1  0.60186600  0.69624300  0.47661200  1
  O  O4  1  0.10186600  0.80375700  0.47661200  1
  O  O5  1  0.60186600  0.69624300  0.02338800  1
  O  O6  1  0.89813400  0.19624300  0.97661200  1
  O  O7  1  0.39813400  0.30375700  0.52338800  1
  O  O8  1  0.54138100  0.60259100  0.75000000  1
  O  O9  1  0.04138100  0.89740900  0.75000000  1
  O  O10  1  0.45861900  0.39740900  0.25000000  1
  O  O11  1  0.95861900  0.10259100  0.25000000  1
  O  O12  1  0.38729300  0.49969600  0.65907000  1
  O  O13  1  0.88729300  0.00030400  0.84093000  1
  O  O14  1  0.61270700  0.50030400  0.15907000  1
  O  O15  1  0.11270700  0.99969600  0.34093000  1
  O  O16  1  0.61270700  0.50030400  0.34093000  1
  O  O17  1  0.11270700  0.99969600  0.15907000  1
  O  O18  1  0.38729300  0.49969600  0.84093000  1
  O  O19  1  0.88729300  0.00030400  0.65907000  1
  O  O20  1  0.33304400  0.80974900  0.67336200  1
  O  O21  1  0.83304400  0.69025100  0.82663800  1
  O  O22  1  0.66695600  0.19025100  0.17336200  1
  O  O23  1  0.16695600  0.30974900  0.32663800  1
  O  O24  1  0.66695600  0.19025100  0.32663800  1
  O  O25  1  0.16695600  0.30974900  0.17336200  1
  O  O26  1  0.33304400  0.80974900  0.82663800  1
  O  O27  1  0.83304400  0.69025100  0.67336200  1
  O  O28  1  0.53006100  0.21709100  0.60688700  1
  O  O29  1  0.03006100  0.28290900  0.89311300  1
  O  O30  1  0.46993900  0.78290900  0.10688700  1
  O  O31  1  0.96993900  0.71709100  0.39311300  1
  O  O32  1  0.46993900  0.78290900  0.39311300  1
  O  O33  1  0.96993900  0.71709100  0.10688700  1
  O  O34  1  0.53006100  0.21709100  0.89311300  1
  O  O35  1  0.03006100  0.28290900  0.60688700  1
  O  O36  1  0.75540700  0.49634700  0.55835700  1
  O  O37  1  0.25540700  0.00365300  0.94164300  1
  O  O38  1  0.24459300  0.50365300  0.05835700  1
  O  O39  1  0.74459300  0.99634700  0.44164300  1
  O  O40  1  0.24459300  0.50365300  0.44164300  1
  O  O41  1  0.74459300  0.99634700  0.05835700  1
  O  O42  1  0.75540700  0.49634700  0.94164300  1
  O  O43  1  0.25540700  0.00365300  0.55835700  1
  O  O44  1  0.25721300  0.20114300  0.69338400  1
  O  O45  1  0.75721300  0.29885700  0.80661600  1
  O  O46  1  0.74278700  0.79885700  0.19338400  1
  O  O47  1  0.24278700  0.70114300  0.30661600  1
  O  O48  1  0.74278700  0.79885700  0.30661600  1
  O  O49  1  0.24278700  0.70114300  0.19338400  1
  O  O50  1  0.25721300  0.20114300  0.80661600  1
  O  O51  1  0.75721300  0.29885700  0.69338400  1
  O  O52  1  0.83437100  0.79592500  0.56369800  1
  O  O53  1  0.33437100  0.70407500  0.93630200  1
  O  O54  1  0.16562900  0.20407500  0.06369800  1
  O  O55  1  0.66562900  0.29592500  0.43630200  1
  O  O56  1  0.16562900  0.20407500  0.43630200  1
  O  O57  1  0.66562900  0.29592500  0.06369800  1
  O  O58  1  0.83437100  0.79592500  0.93630200  1
  O  O59  1  0.33437100  0.70407500  0.56369800  1
loop_
_geom_bond_atom_site_label_1
_geom_bond_atom_site_label_2
_geom_bond_distance
_geom_bond_site_symmetry_2
Ca0 O43 2.306397 1_565
Ca0 O19 2.319144 1_565
Ca0 O52 2.344079 1_555
Ca0 O20 2.428621 1_555
Ca0 O28 2.552951 1_565
Ca0 O59 2.739032 1_555
Ca1 O42 2.306397 1_455
Ca1 O18 2.319144 1_555
Ca1 O53 2.344079 1_555
Ca1 O21 2.428621 1_455
Ca1 O29 2.552951 1_555
Ca1 O58 2.739032 1_455
Ca2 O41 2.306397 1_545
Ca2 O17 2.319144 1_545
Ca2 O54 2.344079 1_555
Ca2 O22 2.428621 1_555
Ca2 O30 2.552951 1_545
Ca2 O57 2.739032 1_555
Ca3 O40 2.306397 1_655
Ca3 O16 2.319144 1_555
Ca3 O55 2.344079 1_555
Ca3 O23 2.428621 1_655
Ca3 O31 2.552951 1_555
Ca3 O56 2.739032 1_655
Ca4 O39 2.306397 1_545
Ca4 O15 2.319144 1_545
Ca4 O56 2.344079 1_555
Ca4 O24 2.428621 1_555
Ca4 O32 2.552951 1_545
Ca4 O55 2.739032 1_555
Ca5 O38 2.306397 1_655
Ca5 O14 2.319144 1_555
Ca5 O57 2.344079 1_555
Ca5 O25 2.428621 1_655
Ca5 O33 2.552951 1_555
Ca5 O54 2.739032 1_655
Ca6 O37 2.306397 1_565
Ca6 O13 2.319144 1_565
Ca6 O58 2.344079 1_555
Ca6 O26 2.428621 1_555
Ca6 O34 2.552951 1_565
Ca6 O53 2.739032 1_555
Ca7 O36 2.306397 1_455
Ca7 O12 2.319144 1_555
Ca7 O59 2.344079 1_555
Ca7 O27 2.428621 1_455
Ca7 O35 2.552951 1_555
Ca7 O52 2.739032 1_455
Al0 O36 1.741394 1_555
Al0 O59 1.768114 1_555
Al0 O52 1.783694 1_555
Al0 O3 1.794431 1_555
Al1 O37 1.741394 1_565
Al1 O58 1.768114 1_455
Al1 O53 1.783694 1_555
Al1 O2 1.794431 1_556
Al2 O38 1.741394 1_555
Al2 O57 1.768114 1_555
Al2 O54 1.783694 1_555
Al2 O1 1.794431 1_554
Al3 O39 1.741394 1_545
Al3 O56 1.768114 1_655
Al3 O55 1.783694 1_555
Al3 O0 1.794431 1_555
Al4 O40 1.741394 1_555
Al4 O55 1.768114 1_555
Al4 O56 1.783694 1_555
Al4 O7 1.794431 1_555
Al5 O41 1.741394 1_545
Al5 O54 1.768114 1_655
Al5 O57 1.783694 1_555
Al5 O6 1.794431 1_554
Al6 O42 1.741394 1_555
Al6 O53 1.768114 1_555
Al6 O58 1.783694 1_555
Al6 O5 1.794431 1_556
Al7 O43 1.741394 1_565
Al7 O52 1.768114 1_455
Al7 O59 1.783694 1_555
Al7 O4 1.794431 1_555
Al8 O12 1.769247 1_555
Al8 O8 1.777906 1_555
Al8 O20 1.789008 1_555
Al8 O27 1.795390 1_555
Al9 O13 1.769247 1_465
Al9 O9 1.777906 1_555
Al9 O21 1.789008 1_455
Al9 O26 1.795390 1_555
Al10 O14 1.769247 1_555
Al10 O10 1.777906 1_555
Al10 O22 1.789008 1_555
Al10 O25 1.795390 1_555
Al11 O15 1.769247 1_645
Al11 O11 1.777906 1_555
Al11 O23 1.789008 1_655
Al11 O24 1.795390 1_555
Al12 O16 1.769247 1_555
Al12 O10 1.777906 1_555
Al12 O24 1.789008 1_555
Al12 O23 1.795390 1_555
Al13 O17 1.769247 1_645
Al13 O11 1.777906 1_555
Al13 O25 1.789008 1_655
Al13 O22 1.795390 1_555
Al14 O18 1.769247 1_555
Al14 O8 1.777906 1_555
Al14 O26 1.789008 1_555
Al14 O21 1.795390 1_555
Al15 O19 1.769247 1_465
Al15 O9 1.777906 1_555
Al15 O27 1.789008 1_455
Al15 O20 1.795390 1_555
Al16 O12 1.746601 1_555
Al16 O44 1.780737 1_555
Al16 O51 1.786229 1_555
Al16 O28 1.796408 1_555
Al17 O13 1.746601 1_555
Al17 O45 1.780737 1_555
Al17 O50 1.786229 1_655
Al17 O29 1.796408 1_655
Al18 O14 1.746601 1_555
Al18 O46 1.780737 1_555
Al18 O49 1.786229 1_555
Al18 O30 1.796408 1_555
Al19 O15 1.746601 1_555
Al19 O47 1.780737 1_555
Al19 O48 1.786229 1_455
Al19 O31 1.796408 1_455
Al20 O16 1.746601 1_555
Al20 O48 1.780737 1_555
Al20 O47 1.786229 1_555
Al20 O32 1.796408 1_555
Al21 O17 1.746601 1_555
Al21 O49 1.780737 1_555
Al21 O46 1.786229 1_455
Al21 O33 1.796408 1_455
Al22 O18 1.746601 1_555
Al22 O50 1.780737 1_555
Al22 O45 1.786229 1_555
Al22 O34 1.796408 1_555
Al23 O19 1.746601 1_555
Al23 O51 1.780737 1_555
Al23 O44 1.786229 1_655
Al23 O35 1.796408 1_655
Al24 O36 1.741301 1_555
Al24 O0 1.801835 1_555
Al24 O28 1.803392 1_555
Al24 O7 1.872679 1_555
Al24 O35 2.301522 1_655
Al25 O37 1.741301 1_555
Al25 O1 1.801835 1_555
Al25 O29 1.803392 1_555
Al25 O6 1.872679 1_455
Al25 O34 2.301522 1_555
Al26 O38 1.741301 1_555
Al26 O2 1.801835 1_555
Al26 O30 1.803392 1_555
Al26 O5 1.872679 1_555
Al26 O33 2.301522 1_455
Al27 O39 1.741301 1_555
Al27 O3 1.801835 1_555
Al27 O31 1.803392 1_555
Al27 O4 1.872679 1_655
Al27 O32 2.301522 1_555
Al28 O40 1.741301 1_555
Al28 O4 1.801835 1_555
Al28 O32 1.803392 1_555
Al28 O3 1.872679 1_555
Al28 O31 2.301522 1_455
Al29 O41 1.741301 1_555
Al29 O5 1.801835 1_555
Al29 O33 1.803392 1_555
Al29 O2 1.872679 1_655
Al29 O30 2.301522 1_555
Al30 O42 1.741301 1_555
Al30 O6 1.801835 1_555
Al30 O34 1.803392 1_555
Al30 O1 1.872679 1_555
Al30 O29 2.301522 1_655
Al31 O43 1.741301 1_555
Al31 O7 1.801835 1_555
Al31 O35 1.803392 1_555
Al31 O0 1.872679 1_455
Al31 O28 2.301522 1_555
O8 Pb0 2.478219 1_555
O9 Pb1 2.478219 1_565
O10 Pb2 2.478219 1_555
O11 Pb3 2.478219 1_545
O44 Pb1 2.333932 1_555
O45 Pb0 2.333932 1_555
O46 Pb3 2.333932 1_555
O47 Pb2 2.333932 1_555
O48 Pb3 2.333932 1_555
O49 Pb2 2.333932 1_555
O50 Pb1 2.333932 1_555
O51 Pb0 2.333932 1_555
