# generated using pymatgen
data_KEu(FeO3)4
_symmetry_space_group_name_H-M   'P 1'
_cell_length_a   5.41239797
_cell_length_b   5.41239797
_cell_length_c   7.62557301
_cell_angle_alpha   90.00000000
_cell_angle_beta   90.00000000
_cell_angle_gamma   89.43637942
_symmetry_Int_Tables_number   1
_chemical_formula_structural   KEu(FeO3)4
_chemical_formula_sum   'K1 Eu1 Fe4 O12'
_cell_volume   223.37312268
_cell_formula_units_Z   1
loop_
 _symmetry_equiv_pos_site_id
 _symmetry_equiv_pos_as_xyz
  1  'x, y, z'
loop_
 _atom_site_type_symbol
 _atom_site_label
 _atom_site_symmetry_multiplicity
 _atom_site_fract_x
 _atom_site_fract_y
 _atom_site_fract_z
 _atom_site_occupancy
  K  K0  1  0.98863871  0.98863871  0.50000000  1
  Eu  Eu0  1  0.51024465  0.51024465  -0.00000000  1
  Fe  Fe0  1  0.49935521  0.00128645  0.74123187  1
  Fe  Fe1  1  0.49935521  0.00128645  0.25876813  1
  Fe  Fe2  1  0.00128645  0.49935521  0.25876813  1
  Fe  Fe3  1  0.00128645  0.49935521  0.74123187  1
  O  O0  1  0.77127200  0.22908606  0.77298114  1
  O  O1  1  0.22908606  0.77127200  0.77298114  1
  O  O2  1  0.22908606  0.77127200  0.22701886  1
  O  O3  1  0.77127200  0.22908606  0.22701886  1
  O  O4  1  0.69906500  0.69906500  0.72577843  1
  O  O5  1  0.28238572  0.28238572  0.78687333  1
  O  O6  1  0.28238572  0.28238572  0.21312667  1
  O  O7  1  0.69906500  0.69906500  0.27422157  1
  O  O8  1  0.53806285  0.97000110  -0.00000000  1
  O  O9  1  0.47822836  0.04722346  0.50000000  1
  O  O10  1  0.97000110  0.53806285  -0.00000000  1
  O  O11  1  0.04722346  0.47822836  0.50000000  1
loop_
_geom_bond_atom_site_label_1
_geom_bond_atom_site_label_2
_geom_bond_distance
_geom_bond_site_symmetry_2
K0 O9 2.671853 1_665
K0 O11 2.671853 1_665
K0 O0 2.716767 1_565
K0 O1 2.716767 1_655
K0 O2 2.716767 1_655
K0 O3 2.716767 1_565
K0 O9 2.777581 1_565
K0 O11 2.777581 1_655
K0 O7 2.815196 1_555
K0 O4 2.815196 1_555
Eu0 O5 2.390213 1_554
Eu0 O6 2.390213 1_555
Eu0 O10 2.494414 1_555
Eu0 O8 2.494414 1_555
Eu0 O4 2.545993 1_554
Eu0 O7 2.545993 1_555
Eu0 O2 2.695596 1_555
Eu0 O3 2.695596 1_555
Eu0 O1 2.695596 1_554
Eu0 O0 2.695596 1_554
Eu0 O10 2.926407 1_455
Eu0 O8 2.926407 1_545
Fe0 O9 1.859626 1_555
Fe0 O5 1.944157 1_555
Fe0 O0 1.944332 1_555
Fe0 O1 1.945274 1_545
Fe0 O4 1.955280 1_545
Fe0 O8 1.991382 1_546
Fe1 O9 1.859626 1_555
Fe1 O6 1.944157 1_555
Fe1 O3 1.944332 1_555
Fe1 O2 1.945274 1_545
Fe1 O7 1.955280 1_545
Fe1 O8 1.991382 1_545
Fe2 O11 1.859626 1_555
Fe2 O6 1.944157 1_555
Fe2 O2 1.944332 1_555
Fe2 O3 1.945274 1_455
Fe2 O7 1.955280 1_455
Fe2 O10 1.991382 1_455
Fe3 O11 1.859626 1_555
Fe3 O5 1.944157 1_555
Fe3 O1 1.944332 1_555
Fe3 O0 1.945274 1_455
Fe3 O4 1.955280 1_455
Fe3 O10 1.991382 1_456
