# generated using pymatgen
data_Nd(TmS2)3
_symmetry_space_group_name_H-M   'P 1'
_cell_length_a   3.93695577
_cell_length_b   10.95300043
_cell_length_c   11.21820372
_cell_angle_alpha   71.02730217
_cell_angle_beta   90.00000000
_cell_angle_gamma   90.00000000
_symmetry_Int_Tables_number   1
_chemical_formula_structural   Nd(TmS2)3
_chemical_formula_sum   'Nd2 Tm6 S12'
_cell_volume   457.46537714
_cell_formula_units_Z   2
loop_
 _symmetry_equiv_pos_site_id
 _symmetry_equiv_pos_as_xyz
  1  'x, y, z'
loop_
 _atom_site_type_symbol
 _atom_site_label
 _atom_site_symmetry_multiplicity
 _atom_site_fract_x
 _atom_site_fract_y
 _atom_site_fract_z
 _atom_site_occupancy
  Nd  Nd0  1  0.25000000  0.95010341  0.69575024  1
  Nd  Nd1  1  0.75000000  0.04989659  0.30424976  1
  Tm  Tm0  1  0.25000000  0.55707925  0.83323463  1
  Tm  Tm1  1  0.75000000  0.44292075  0.16676537  1
  Tm  Tm2  1  0.25000000  0.32032405  0.50137106  1
  Tm  Tm3  1  0.75000000  0.67967595  0.49862894  1
  Tm  Tm4  1  0.25000000  0.83878438  0.08740354  1
  Tm  Tm5  1  0.75000000  0.16121562  0.91259646  1
  S  S0  1  0.25000000  0.52203361  0.61194291  1
  S  S1  1  0.75000000  0.47796639  0.38805709  1
  S  S2  1  0.25000000  0.08195113  0.09237596  1
  S  S3  1  0.75000000  0.91804887  0.90762404  1
  S  S4  1  0.25000000  0.60663789  0.05737962  1
  S  S5  1  0.75000000  0.39336211  0.94262038  1
  S  S6  1  0.25000000  0.26740653  0.27129777  1
  S  S7  1  0.75000000  0.73259347  0.72870223  1
  S  S8  1  0.25000000  0.88073733  0.46372525  1
  S  S9  1  0.75000000  0.11926267  0.53627475  1
  S  S10  1  0.25000000  0.19756529  0.75115633  1
  S  S11  1  0.75000000  0.80243471  0.24884367  1
loop_
_geom_bond_atom_site_label_1
_geom_bond_atom_site_label_2
_geom_bond_distance
_geom_bond_site_symmetry_2
Nd0 S9 2.890166 1_465
Nd0 S9 2.890166 1_565
Nd0 S8 2.939091 1_555
Nd0 S10 2.971249 1_565
Nd0 S3 3.017439 1_455
Nd0 S3 3.017439 1_555
Nd0 S7 3.019052 1_455
Nd0 S7 3.019052 1_555
Nd1 S8 2.890166 1_545
Nd1 S8 2.890166 1_645
Nd1 S9 2.939091 1_555
Nd1 S11 2.971249 1_545
Nd1 S2 3.017439 1_555
Nd1 S2 3.017439 1_655
Nd1 S6 3.019052 1_555
Nd1 S6 3.019052 1_655
S0 Tm0 2.632442 1_555
S0 Tm3 2.654233 1_555
S0 Tm3 2.654233 1_455
S0 Tm2 2.863863 1_555
S1 Tm1 2.632442 1_555
S1 Tm2 2.654233 1_555
S1 Tm2 2.654233 1_655
S1 Tm3 2.863863 1_555
S2 Tm4 2.682060 1_545
S2 Tm5 2.749111 1_554
S2 Tm5 2.749111 1_454
S3 Tm5 2.682060 1_565
S3 Tm4 2.749111 1_556
S3 Tm4 2.749111 1_656
S4 Tm4 2.671263 1_555
S4 Tm1 2.676835 1_455
S4 Tm1 2.676835 1_555
S4 Tm0 2.739506 1_554
S5 Tm5 2.671263 1_555
S5 Tm0 2.676835 1_655
S5 Tm0 2.676835 1_555
S5 Tm1 2.739506 1_556
S6 Tm1 2.734931 1_555
S6 Tm1 2.734931 1_455
S6 Tm2 2.823169 1_555
S7 Tm0 2.734931 1_655
S7 Tm0 2.734931 1_555
S7 Tm3 2.823169 1_555
S8 Tm3 2.883977 1_455
S8 Tm3 2.883977 1_555
S9 Tm2 2.883977 1_555
S9 Tm2 2.883977 1_655
S10 Tm5 2.616206 1_555
S10 Tm5 2.616206 1_455
S10 Tm2 2.685144 1_555
S11 Tm4 2.616206 1_555
S11 Tm4 2.616206 1_655
S11 Tm3 2.685144 1_555
