# generated using pymatgen
data_SrAl12O19
_symmetry_space_group_name_H-M   'P 1'
_cell_length_a   5.61897827
_cell_length_b   5.61897827
_cell_length_c   22.17953600
_cell_angle_alpha   90.00000000
_cell_angle_beta   90.00000000
_cell_angle_gamma   120.00000315
_symmetry_Int_Tables_number   1
_chemical_formula_structural   SrAl12O19
_chemical_formula_sum   'Sr2 Al24 O38'
_cell_volume   606.45388013
_cell_formula_units_Z   2
loop_
 _symmetry_equiv_pos_site_id
 _symmetry_equiv_pos_as_xyz
  1  'x, y, z'
loop_
 _atom_site_type_symbol
 _atom_site_label
 _atom_site_symmetry_multiplicity
 _atom_site_fract_x
 _atom_site_fract_y
 _atom_site_fract_z
 _atom_site_occupancy
  Sr  Sr0  1  0.33333300  0.66666700  0.74894600  1
  Sr  Sr1  1  0.66666700  0.33333300  0.24894600  1
  Al  Al0  1  0.66666700  0.33333300  0.52854600  1
  Al  Al1  1  0.33333300  0.66666700  0.47207700  1
  Al  Al2  1  0.33333300  0.66666700  0.02854600  1
  Al  Al3  1  0.66666700  0.33333300  0.97207700  1
  Al  Al4  1  0.66666700  0.33333300  0.69029100  1
  Al  Al5  1  0.33333300  0.66666700  0.30939900  1
  Al  Al6  1  0.33333300  0.66666700  0.19029100  1
  Al  Al7  1  0.66666700  0.33333300  0.80939900  1
  Al  Al8  1  0.00000000  0.00000000  0.50039700  1
  Al  Al9  1  0.00000000  0.00000000  0.00039700  1
  Al  Al10  1  0.83082000  0.66163900  0.39185600  1
  Al  Al11  1  0.83082000  0.16918000  0.39185600  1
  Al  Al12  1  0.33836100  0.16918000  0.39185600  1
  Al  Al13  1  0.16764900  0.33529800  0.60907400  1
  Al  Al14  1  0.16764900  0.83235100  0.60907400  1
  Al  Al15  1  0.66470200  0.83235100  0.60907400  1
  Al  Al16  1  0.16918000  0.33836100  0.89185600  1
  Al  Al17  1  0.16918000  0.83082000  0.89185600  1
  Al  Al18  1  0.66163900  0.83082000  0.89185600  1
  Al  Al19  1  0.83235100  0.66470200  0.10907400  1
  Al  Al20  1  0.83235100  0.16764900  0.10907400  1
  Al  Al21  1  0.33529800  0.16764900  0.10907400  1
  Al  Al22  1  0.00000000  0.00000000  0.75858500  1
  Al  Al23  1  0.00000000  0.00000000  0.25858500  1
  O  O0  1  0.33333300  0.66666700  0.55429700  1
  O  O1  1  0.66666700  0.33333300  0.44572900  1
  O  O2  1  0.66666700  0.33333300  0.05429700  1
  O  O3  1  0.33333300  0.66666700  0.94572900  1
  O  O4  1  0.81882700  0.63765400  0.75075600  1
  O  O5  1  0.81882700  0.18117300  0.75075600  1
  O  O6  1  0.36234600  0.18117300  0.75075600  1
  O  O7  1  0.18117300  0.36234600  0.25075600  1
  O  O8  1  0.18117300  0.81882700  0.25075600  1
  O  O9  1  0.63765400  0.81882700  0.25075600  1
  O  O10  1  0.49783400  0.99566900  0.64828300  1
  O  O11  1  0.49783400  0.50216600  0.64828300  1
  O  O12  1  0.00433100  0.50216600  0.64828300  1
  O  O13  1  0.50258700  0.00517400  0.35201300  1
  O  O14  1  0.50258700  0.49741300  0.35201300  1
  O  O15  1  0.99482600  0.49741300  0.35201300  1
  O  O16  1  0.50216600  0.00433100  0.14828300  1
  O  O17  1  0.50216600  0.49783400  0.14828300  1
  O  O18  1  0.99566900  0.49783400  0.14828300  1
  O  O19  1  0.49741300  0.99482600  0.85201300  1
  O  O20  1  0.49741300  0.50258700  0.85201300  1
  O  O21  1  0.00517400  0.50258700  0.85201300  1
  O  O22  1  0.84472400  0.68944800  0.55143500  1
  O  O23  1  0.84472400  0.15527600  0.55143500  1
  O  O24  1  0.31055200  0.15527600  0.55143500  1
  O  O25  1  0.15454900  0.30909800  0.44776700  1
  O  O26  1  0.15454900  0.84545100  0.44776700  1
  O  O27  1  0.69090200  0.84545100  0.44776700  1
  O  O28  1  0.15527600  0.31055200  0.05143500  1
  O  O29  1  0.15527600  0.84472400  0.05143500  1
  O  O30  1  0.68944800  0.84472400  0.05143500  1
  O  O31  1  0.84545100  0.69090200  0.94776700  1
  O  O32  1  0.84545100  0.15454900  0.94776700  1
  O  O33  1  0.30909800  0.15454900  0.94776700  1
  O  O34  1  0.00000000  0.00000000  0.64765000  1
  O  O35  1  0.00000000  0.00000000  0.35013100  1
  O  O36  1  0.00000000  0.00000000  0.14765000  1
  O  O37  1  0.00000000  0.00000000  0.85013100  1
loop_
_geom_bond_atom_site_label_1
_geom_bond_atom_site_label_2
_geom_bond_distance
_geom_bond_site_symmetry_2
Al0 O23 1.805746 1_555
Al0 O22 1.805750 1_555
Al0 O24 1.805750 1_555
Al0 O1 1.836843 1_555
Al1 O26 1.821616 1_555
Al1 O27 1.821620 1_555
Al1 O25 1.821620 1_555
Al1 O0 1.823601 1_555
Al2 O29 1.805746 1_555
Al2 O30 1.805750 1_555
Al2 O28 1.805750 1_555
Al2 O3 1.836843 1_554
Al3 O32 1.821616 1_555
Al3 O31 1.821620 1_555
Al3 O33 1.821620 1_555
Al3 O2 1.823601 1_556
Al4 O12 1.888911 1_655
Al4 O10 1.888911 1_545
Al4 O11 1.888919 1_555
Al4 O5 1.997874 1_555
Al4 O4 1.997878 1_555
Al4 O6 1.997878 1_555
Al5 O15 1.899134 1_455
Al5 O13 1.899134 1_565
Al5 O14 1.899138 1_555
Al5 O8 1.970976 1_555
Al5 O9 1.970979 1_555
Al5 O7 1.970979 1_555
Al6 O16 1.888911 1_565
Al6 O18 1.888911 1_455
Al6 O17 1.888919 1_555
Al6 O8 1.997874 1_555
Al6 O9 1.997878 1_555
Al6 O7 1.997878 1_555
Al7 O21 1.899134 1_655
Al7 O19 1.899134 1_545
Al7 O20 1.899138 1_555
Al7 O5 1.970976 1_555
Al7 O4 1.970979 1_555
Al7 O6 1.970979 1_555
Al8 O24 1.888161 1_555
Al8 O22 1.888161 1_445
Al8 O23 1.888161 1_455
Al8 O25 1.903945 1_555
Al8 O27 1.903945 1_445
Al8 O26 1.903945 1_545
Al9 O28 1.888161 1_555
Al9 O30 1.888161 1_445
Al9 O29 1.888161 1_545
Al9 O33 1.903945 1_554
Al9 O31 1.903945 1_444
Al9 O32 1.903945 1_454
Al10 O15 1.825400 1_555
Al10 O14 1.825404 1_555
Al10 O35 1.888779 1_665
Al10 O1 1.995005 1_555
Al10 O26 2.008644 1_655
Al10 O27 2.008647 1_555
Al11 O15 1.825404 1_555
Al11 O13 1.825404 1_555
Al11 O35 1.888775 1_655
Al11 O1 1.995005 1_555
Al11 O25 2.008643 1_655
Al11 O27 2.008643 1_545
Al12 O13 1.825400 1_555
Al12 O14 1.825404 1_555
Al12 O35 1.888779 1_555
Al12 O1 1.995005 1_555
Al12 O26 2.008644 1_545
Al12 O25 2.008647 1_555
Al13 O11 1.827014 1_555
Al13 O12 1.827018 1_555
Al13 O34 1.842344 1_555
Al13 O0 2.018962 1_555
Al13 O23 2.028430 1_455
Al13 O24 2.028430 1_555
Al14 O12 1.827014 1_555
Al14 O10 1.827014 1_555
Al14 O34 1.842344 1_565
Al14 O0 2.018958 1_555
Al14 O24 2.028430 1_565
Al14 O22 2.028430 1_455
Al15 O11 1.827014 1_555
Al15 O10 1.827018 1_555
Al15 O34 1.842344 1_665
Al15 O0 2.018962 1_555
Al15 O23 2.028430 1_565
Al15 O22 2.028430 1_555
Al16 O21 1.825400 1_555
Al16 O20 1.825404 1_555
Al16 O37 1.888779 1_555
Al16 O3 1.995005 1_555
Al16 O32 2.008644 1_455
Al16 O33 2.008647 1_555
Al17 O19 1.825404 1_555
Al17 O21 1.825404 1_555
Al17 O37 1.888775 1_565
Al17 O3 1.995005 1_555
Al17 O33 2.008643 1_565
Al17 O31 2.008643 1_455
Al18 O19 1.825400 1_555
Al18 O20 1.825404 1_555
Al18 O37 1.888779 1_665
Al18 O3 1.995005 1_555
Al18 O32 2.008644 1_565
Al18 O31 2.008647 1_555
Al19 O17 1.827014 1_555
Al19 O18 1.827018 1_555
Al19 O36 1.842344 1_665
Al19 O2 2.018962 1_555
Al19 O29 2.028430 1_655
Al19 O30 2.028430 1_555
Al20 O16 1.827014 1_555
Al20 O18 1.827014 1_555
Al20 O36 1.842344 1_655
Al20 O2 2.018958 1_555
Al20 O28 2.028430 1_655
Al20 O30 2.028430 1_545
Al21 O17 1.827014 1_555
Al21 O16 1.827018 1_555
Al21 O36 1.842344 1_555
Al21 O2 2.018962 1_555
Al21 O29 2.028430 1_545
Al21 O28 2.028430 1_555
Al22 O6 1.771770 1_555
Al22 O4 1.771770 1_445
Al22 O5 1.771770 1_455
Al22 O37 2.030448 1_555
Al22 O34 2.460487 1_555
Al23 O7 1.771770 1_555
Al23 O9 1.771770 1_445
Al23 O8 1.771770 1_545
Al23 O35 2.030448 1_555
Al23 O36 2.460487 1_555
O4 Sr0 2.813318 1_655
O4 Sr0 2.813323 1_555
O5 Sr0 2.813320 1_545
O5 Sr0 2.813320 1_655
O6 Sr0 2.813318 1_545
O6 Sr0 2.813323 1_555
O7 Sr1 2.813318 1_455
O7 Sr1 2.813323 1_555
O8 Sr1 2.813320 1_455
O8 Sr1 2.813320 1_565
O9 Sr1 2.813318 1_565
O9 Sr1 2.813323 1_555
O10 Sr0 2.747346 1_555
O11 Sr0 2.747346 1_555
O12 Sr0 2.747346 1_555
O13 Sr1 2.788498 1_555
O14 Sr1 2.788501 1_555
O15 Sr1 2.788498 1_555
O16 Sr1 2.747346 1_555
O17 Sr1 2.747346 1_555
O18 Sr1 2.747346 1_555
O19 Sr0 2.788498 1_555
O20 Sr0 2.788501 1_555
O21 Sr0 2.788498 1_555
