# generated using pymatgen
data_KNaMg6
_symmetry_space_group_name_H-M   'P 1'
_cell_length_a   5.38431000
_cell_length_b   6.92463100
_cell_length_c   11.88234800
_cell_angle_alpha   90.00000000
_cell_angle_beta   90.00000000
_cell_angle_gamma   90.00000000
_symmetry_Int_Tables_number   1
_chemical_formula_structural   KNaMg6
_chemical_formula_sum   'K2 Na2 Mg12'
_cell_volume   443.02573976
_cell_formula_units_Z   2
loop_
 _symmetry_equiv_pos_site_id
 _symmetry_equiv_pos_as_xyz
  1  'x, y, z'
loop_
 _atom_site_type_symbol
 _atom_site_label
 _atom_site_symmetry_multiplicity
 _atom_site_fract_x
 _atom_site_fract_y
 _atom_site_fract_z
 _atom_site_occupancy
  K  K0  1  0.00000000  0.00000000  0.82930500  1
  K  K1  1  0.00000000  0.50000000  0.32930500  1
  Na  Na0  1  0.50000000  0.00000000  0.66236000  1
  Na  Na1  1  0.50000000  0.50000000  0.16236000  1
  Mg  Mg0  1  0.00000000  0.74309400  0.57859300  1
  Mg  Mg1  1  0.00000000  0.25690600  0.57859300  1
  Mg  Mg2  1  0.00000000  0.00000000  0.33507400  1
  Mg  Mg3  1  0.50000000  0.76958900  0.42448300  1
  Mg  Mg4  1  0.50000000  0.23041100  0.42448300  1
  Mg  Mg5  1  0.50000000  0.00000000  0.16711000  1
  Mg  Mg6  1  0.00000000  0.24309400  0.07859300  1
  Mg  Mg7  1  0.00000000  0.75690600  0.07859300  1
  Mg  Mg8  1  0.00000000  0.50000000  0.83507400  1
  Mg  Mg9  1  0.50000000  0.26958900  0.92448300  1
  Mg  Mg10  1  0.50000000  0.73041100  0.92448300  1
  Mg  Mg11  1  0.50000000  0.50000000  0.66711000  1
loop_
_geom_bond_atom_site_label_1
_geom_bond_atom_site_label_2
_geom_bond_distance
_geom_bond_site_symmetry_2
K0 Na0 3.344063 1_455
K0 Na0 3.344063 1_555
K0 Mg6 3.407024 1_556
K0 Mg7 3.407024 1_546
K0 Mg8 3.462994 1_555
K0 Mg8 3.462994 1_545
K0 Mg9 3.465787 1_555
K0 Mg9 3.465787 1_455
K0 Mg10 3.465787 1_545
K0 Mg10 3.465787 1_445
K0 Mg1 3.469797 1_555
K0 Mg0 3.469797 1_545
K1 Na1 3.344063 1_455
K1 Na1 3.344063 1_555
K1 Mg0 3.407024 1_555
K1 Mg1 3.407024 1_555
K1 Mg2 3.462994 1_555
K1 Mg2 3.462994 1_565
K1 Mg3 3.465787 1_455
K1 Mg3 3.465787 1_555
K1 Mg4 3.465787 1_455
K1 Mg4 3.465787 1_555
K1 Mg7 3.469797 1_555
K1 Mg6 3.469797 1_555
Mg0 Mg3 3.261075 1_555
Mg0 Mg3 3.261075 1_455
Mg0 Mg11 3.344784 1_455
Mg0 Mg11 3.344784 1_555
Mg0 Mg1 3.366672 1_555
Mg0 Na0 3.376860 1_565
Mg0 Na0 3.376860 1_465
Mg0 Mg2 3.396698 1_565
Mg0 Mg8 3.481589 1_555
Mg0 Mg1 3.557959 1_565
Mg1 Mg4 3.261075 1_555
Mg1 Mg4 3.261075 1_455
Mg1 Mg11 3.344784 1_555
Mg1 Mg11 3.344784 1_455
Mg1 Na0 3.376860 1_555
Mg1 Na0 3.376860 1_455
Mg1 Mg2 3.396698 1_555
Mg1 Mg8 3.481589 1_555
Mg2 Mg4 3.304849 1_455
Mg2 Mg4 3.304849 1_555
Mg2 Mg3 3.304849 1_545
Mg2 Mg3 3.304849 1_445
Mg2 Mg5 3.351260 1_455
Mg2 Mg5 3.351260 1_555
Mg2 Mg6 3.481589 1_555
Mg2 Mg7 3.481589 1_545
Mg3 Mg4 3.191022 1_565
Mg3 Na0 3.245762 1_565
Mg3 Mg5 3.449379 1_565
Mg3 Na1 3.631242 1_555
Mg4 Na0 3.245762 1_555
Mg4 Mg5 3.449379 1_555
Mg4 Na1 3.631242 1_555
Mg5 Mg6 3.344784 1_555
Mg5 Mg6 3.344784 1_655
Mg5 Mg7 3.344784 1_645
Mg5 Mg7 3.344784 1_545
Mg5 Mg9 3.434607 1_554
Mg5 Na1 3.462776 1_545
Mg5 Na1 3.462776 1_555
Mg6 Mg9 3.261075 1_554
Mg6 Mg9 3.261075 1_454
Mg6 Mg7 3.366672 1_545
Mg6 Na1 3.376860 1_555
Mg6 Na1 3.376860 1_455
Mg6 Mg8 3.396698 1_554
Mg6 Mg7 3.557959 1_555
Mg7 Na1 3.376860 1_455
Mg7 Na1 3.376860 1_555
Mg7 Mg8 3.396698 1_554
Mg8 Mg9 3.304849 1_555
Mg8 Mg9 3.304849 1_455
Mg9 Na1 3.245762 1_556
Mg9 Na0 3.631242 1_555
Mg10 Mg9 3.191022 1_555
Mg10 Na1 3.245762 1_556
Mg10 Mg7 3.261075 1_556
Mg10 Mg7 3.261075 1_656
Mg10 Mg8 3.304849 1_555
Mg10 Mg8 3.304849 1_655
Mg10 Mg5 3.434607 1_566
Mg10 Mg11 3.449379 1_555
Mg10 Na0 3.631242 1_565
Mg11 Mg8 3.351260 1_555
Mg11 Mg8 3.351260 1_655
Mg11 Mg3 3.434607 1_555
Mg11 Mg4 3.434607 1_555
Mg11 Mg9 3.449379 1_555
Mg11 Na0 3.462776 1_565
Mg11 Na0 3.462776 1_555
