# generated using pymatgen
data_ErGaO3
_symmetry_space_group_name_H-M   'P 1'
_cell_length_a   5.98487367
_cell_length_b   5.98486948
_cell_length_c   11.60914576
_cell_angle_alpha   90.00001880
_cell_angle_beta   89.99998474
_cell_angle_gamma   119.99995306
_symmetry_Int_Tables_number   1
_chemical_formula_structural   ErGaO3
_chemical_formula_sum   'Er6 Ga6 O18'
_cell_volume   360.11463570
_cell_formula_units_Z   6
loop_
 _symmetry_equiv_pos_site_id
 _symmetry_equiv_pos_as_xyz
  1  'x, y, z'
loop_
 _atom_site_type_symbol
 _atom_site_label
 _atom_site_symmetry_multiplicity
 _atom_site_fract_x
 _atom_site_fract_y
 _atom_site_fract_z
 _atom_site_occupancy
  Er  Er0  1  0.66666721  0.33333420  0.95986530  1
  Er  Er1  1  0.33333263  0.66666575  0.45986913  1
  Er  Er2  1  0.66666632  0.33333283  0.45986801  1
  Er  Er3  1  0.33333385  0.66666773  0.95986667  1
  Er  Er4  1  0.00000071  0.00000026  0.00174889  1
  Er  Er5  1  0.99999873  -0.00000037  0.50175325  1
  Ga  Ga0  1  0.66582464  0.66582489  0.72708492  1
  Ga  Ga1  1  -0.00000277  0.33416561  0.72708520  1
  Ga  Ga2  1  0.33417453  0.33417503  0.22708539  1
  Ga  Ga3  1  0.00000354  0.66583504  0.22708530  1
  Ga  Ga4  1  0.33416546  -0.00000360  0.72708444  1
  Ga  Ga5  1  0.66583464  0.00000311  0.22708473  1
  O  O0  1  0.69445155  0.69445187  0.89025352  1
  O  O1  1  0.00000033  0.30554879  0.89025337  1
  O  O2  1  0.30555028  0.30554984  0.39025344  1
  O  O3  1  0.00000017  0.69444964  0.39025359  1
  O  O4  1  0.30554806  0.00000003  0.89025348  1
  O  O5  1  0.69444928  0.99999900  0.39025337  1
  O  O6  1  0.63921656  0.63921616  0.56506880  1
  O  O7  1  0.99999909  0.36078287  0.56506901  1
  O  O8  1  0.36078384  0.36078301  0.06506875  1
  O  O9  1  0.00000031  0.63921724  0.06506846  1
  O  O10  1  0.36078215  0.00000034  0.56506877  1
  O  O11  1  0.63921759  0.00000041  0.06506845  1
  O  O12  1  -0.00000121  0.99999839  0.70411473  1
  O  O13  1  0.00000062  0.00000082  0.20411421  1
  O  O14  1  0.66666481  0.33333171  0.74653406  1
  O  O15  1  0.33333430  0.66666847  0.24653374  1
  O  O16  1  0.66666902  0.33333489  0.24653393  1
  O  O17  1  0.33333275  0.66666604  0.74653407  1
loop_
_geom_bond_atom_site_label_1
_geom_bond_atom_site_label_2
_geom_bond_distance
_geom_bond_site_symmetry_2
Er0 O0 2.234349 1_555
Er0 O1 2.234353 1_655
Er0 O4 2.234358 1_555
Er0 O8 2.273921 1_556
Er0 O9 2.273922 1_656
Er0 O11 2.273925 1_556
Er0 O14 2.476593 1_555
Er1 O3 2.234360 1_555
Er1 O2 2.234360 1_555
Er1 O5 2.234364 1_555
Er1 O7 2.273903 1_455
Er1 O6 2.273903 1_555
Er1 O10 2.273907 1_565
Er1 O15 2.476642 1_555
Er2 O2 2.234356 1_555
Er2 O5 2.234359 1_545
Er2 O3 2.234360 1_655
Er2 O6 2.273906 1_555
Er2 O7 2.273907 1_555
Er2 O10 2.273908 1_555
Er2 O16 2.476626 1_555
Er3 O4 2.234354 1_565
Er3 O0 2.234356 1_555
Er3 O1 2.234361 1_555
Er3 O11 2.273914 1_566
Er3 O9 2.273914 1_556
Er3 O8 2.273922 1_556
Er3 O17 2.476609 1_555
Er4 O4 2.240400 1_554
Er4 O1 2.240406 1_554
Er4 O0 2.240407 1_444
Er4 O9 2.280934 1_545
Er4 O11 2.280938 1_455
Er4 O8 2.280938 1_555
Er4 O13 2.349288 1_555
Er5 O5 2.240439 1_545
Er5 O3 2.240443 1_645
Er5 O2 2.240447 1_655
Er5 O7 2.280921 1_555
Er5 O6 2.280921 1_545
Er5 O10 2.280922 1_655
Er5 O12 2.349244 1_645
Ga0 O6 1.887598 1_555
Ga0 O0 1.901980 1_555
Ga0 O17 2.005196 1_555
Ga0 O14 2.005200 1_555
Ga0 O12 2.017688 1_655
Ga1 O7 1.887603 1_455
Ga1 O1 1.901971 1_555
Ga1 O14 2.005214 1_455
Ga1 O17 2.005229 1_555
Ga1 O12 2.017652 1_545
Ga2 O8 1.887604 1_555
Ga2 O2 1.901973 1_555
Ga2 O15 2.005200 1_555
Ga2 O16 2.005208 1_555
Ga2 O13 2.017691 1_555
Ga3 O9 1.887610 1_555
Ga3 O3 1.901971 1_555
Ga3 O15 2.005205 1_555
Ga3 O16 2.005225 1_455
Ga3 O13 2.017648 1_565
Ga4 O10 1.887596 1_555
Ga4 O4 1.901981 1_555
Ga4 O17 2.005205 1_545
Ga4 O14 2.005227 1_555
Ga4 O12 2.017650 1_545
Ga5 O11 1.887604 1_555
Ga5 O5 1.901975 1_545
Ga5 O16 2.005208 1_555
Ga5 O15 2.005227 1_545
Ga5 O13 2.017648 1_655
