# generated using pymatgen
data_Zr9Re4O3
_symmetry_space_group_name_H-M   'P 1'
_cell_length_a   8.51165985
_cell_length_b   8.51167188
_cell_length_c   8.60449743
_cell_angle_alpha   89.99991660
_cell_angle_beta   90.00007222
_cell_angle_gamma   120.00006721
_symmetry_Int_Tables_number   1
_chemical_formula_structural   Zr9Re4O3
_chemical_formula_sum   'Zr18 Re8 O6'
_cell_volume   539.86476064
_cell_formula_units_Z   2
loop_
 _symmetry_equiv_pos_site_id
 _symmetry_equiv_pos_as_xyz
  1  'x, y, z'
loop_
 _atom_site_type_symbol
 _atom_site_label
 _atom_site_symmetry_multiplicity
 _atom_site_fract_x
 _atom_site_fract_y
 _atom_site_fract_z
 _atom_site_occupancy
  Zr  Zr0  1  0.45284994  0.90571034  0.24999662  1
  Zr  Zr1  1  0.54713541  0.09427206  0.75000251  1
  Zr  Zr2  1  0.09428927  0.54714584  0.24999631  1
  Zr  Zr3  1  0.90572937  0.45286449  0.75000255  1
  Zr  Zr4  1  0.45285216  0.54714275  0.24999759  1
  Zr  Zr5  1  0.54713556  0.45286044  0.75000368  1
  Zr  Zr6  1  0.20231053  0.40462164  0.56039953  1
  Zr  Zr7  1  0.79770117  0.59540042  0.43966922  1
  Zr  Zr8  1  0.59537873  0.79768970  0.56039897  1
  Zr  Zr9  1  0.79770382  0.59540356  0.06032836  1
  Zr  Zr10  1  0.40459761  0.20229819  0.43967007  1
  Zr  Zr11  1  0.20230957  0.40461943  0.93960291  1
  Zr  Zr12  1  0.20231107  0.79768940  0.56039890  1
  Zr  Zr13  1  0.40459243  0.20229447  0.06032596  1
  Zr  Zr14  1  0.79770083  0.20230046  0.43967005  1
  Zr  Zr15  1  0.59538057  0.79769062  0.93960314  1
  Zr  Zr16  1  0.79770114  0.20229947  0.06032960  1
  Zr  Zr17  1  0.20230951  0.79769060  0.93960315  1
  Re  Re0  1  0.10747058  0.21494161  0.24999700  1
  Re  Re1  1  0.89252681  0.78504986  0.75000230  1
  Re  Re2  1  0.78506138  0.89253156  0.24999763  1
  Re  Re3  1  0.21495336  0.10747578  0.75000207  1
  Re  Re4  1  0.10747193  0.89252899  0.24999616  1
  Re  Re5  1  0.89252483  0.10747689  0.75000154  1
  Re  Re6  1  0.00000028  0.00000029  -0.00001387  1
  Re  Re7  1  0.00000114  0.00000019  0.50001424  1
  O  O0  1  0.49999592  -0.00000690  -0.00001343  1
  O  O1  1  0.00000787  0.50000451  -0.00001341  1
  O  O2  1  0.49999572  -0.00000691  0.50001408  1
  O  O3  1  0.49999650  0.50000313  -0.00001290  1
  O  O4  1  0.00000855  0.50000465  0.50001418  1
  O  O5  1  0.49999645  0.50000247  0.50001427  1
loop_
_geom_bond_atom_site_label_1
_geom_bond_atom_site_label_2
_geom_bond_distance
_geom_bond_site_symmetry_2
Re0 Re6 2.671717 1_555
Re0 Re7 2.671759 1_555
Re0 Re2 2.744240 1_445
Re0 Re4 2.744276 1_545
Re0 Zr4 2.885312 1_555
Re0 Zr2 2.885347 1_555
Re0 Zr11 3.014628 1_554
Re0 Zr6 3.014702 1_555
Re0 Zr16 3.056662 1_455
Re0 Zr13 3.056663 1_555
Re0 Zr10 3.056691 1_555
Re0 Zr14 3.056697 1_455
Re1 Re6 2.671569 1_666
Re1 Re7 2.671596 1_665
Re1 Re3 2.744382 1_665
Re1 Re5 2.744402 1_565
Re1 Zr3 2.885283 1_555
Re1 Zr5 2.885309 1_555
Re1 Zr9 3.014002 1_556
Re1 Zr7 3.014068 1_555
Re1 Zr17 3.056457 1_655
Re1 Zr12 3.056487 1_655
Re1 Zr15 3.056491 1_555
Re1 Zr8 3.056509 1_555
Re2 Re6 2.671709 1_665
Re2 Re7 2.671747 1_665
Re2 Re4 2.744260 1_655
Re2 Zr4 2.885377 1_555
Re2 Zr0 2.885393 1_555
Re2 Zr15 3.014641 1_554
Re2 Zr8 3.014701 1_555
Re2 Zr16 3.056665 1_565
Re2 Zr9 3.056684 1_555
Re2 Zr14 3.056697 1_565
Re2 Zr7 3.056703 1_555
Re3 Re6 2.671581 1_556
Re3 Re7 2.671602 1_555
Re3 Re5 2.744407 1_455
Re3 Zr5 2.885250 1_555
Re3 Zr1 2.885256 1_555
Re3 Zr13 3.013960 1_556
Re3 Zr10 3.014041 1_555
Re3 Zr17 3.056468 1_545
Re3 Zr11 3.056487 1_555
Re3 Zr12 3.056495 1_545
Re3 Zr6 3.056503 1_555
Re4 Re6 2.671715 1_565
Re4 Re7 2.671771 1_565
Re4 Zr0 2.885279 1_555
Re4 Zr2 2.885322 1_555
Re4 Zr17 3.014617 1_554
Re4 Zr12 3.014696 1_555
Re4 Zr13 3.056638 1_565
Re4 Zr9 3.056654 1_455
Re4 Zr10 3.056687 1_565
Re4 Zr7 3.056698 1_455
Re5 Re6 2.671579 1_656
Re5 Re7 2.671606 1_655
Re5 Zr3 2.885272 1_555
Re5 Zr1 2.885282 1_555
Re5 Zr16 3.014020 1_556
Re5 Zr14 3.014047 1_555
Re5 Zr11 3.056470 1_655
Re5 Zr15 3.056482 1_545
Re5 Zr6 3.056484 1_655
Re5 Zr8 3.056497 1_545
Re6 Zr13 3.027229 1_555
Re6 Zr9 3.027269 1_445
Re6 Zr16 3.027285 1_455
Re6 Zr15 3.027492 1_444
Re6 Zr11 3.027493 1_554
Re6 Zr17 3.027493 1_544
Re7 Zr10 3.027267 1_555
Re7 Zr7 3.027297 1_445
Re7 Zr14 3.027301 1_455
Re7 Zr12 3.027507 1_545
Re7 Zr6 3.027513 1_555
Re7 Zr8 3.027515 1_445
O0 Zr1 2.260467 1_554
O0 Zr0 2.260689 1_545
O0 Zr17 2.300461 1_544
O0 Zr15 2.300471 1_544
O0 Zr13 2.300493 1_555
O0 Zr16 2.300506 1_555
O1 Zr3 2.260466 1_454
O1 Zr2 2.260683 1_555
O1 Zr17 2.300460 1_554
O1 Zr11 2.300467 1_554
O1 Zr9 2.300490 1_455
O1 Zr16 2.300507 1_455
O2 Zr1 2.260504 1_555
O2 Zr0 2.260751 1_545
O2 Zr12 2.300455 1_545
O2 Zr8 2.300469 1_545
O2 Zr10 2.300497 1_555
O2 Zr14 2.300509 1_555
O3 Zr5 2.260470 1_554
O3 Zr4 2.260697 1_555
O3 Zr11 2.300467 1_554
O3 Zr15 2.300474 1_554
O3 Zr9 2.300516 1_555
O3 Zr13 2.300519 1_555
O4 Zr3 2.260504 1_455
O4 Zr2 2.260749 1_555
O4 Zr12 2.300456 1_555
O4 Zr6 2.300458 1_555
O4 Zr7 2.300501 1_455
O4 Zr14 2.300506 1_455
O5 Zr5 2.260516 1_555
O5 Zr4 2.260747 1_555
O5 Zr6 2.300467 1_555
O5 Zr8 2.300478 1_555
O5 Zr10 2.300505 1_555
O5 Zr7 2.300508 1_555
