# generated using pymatgen
data_MgNbCo2
_symmetry_space_group_name_H-M   'P 1'
_cell_length_a   9.45384171
_cell_length_b   9.31545455
_cell_length_c   9.31545502
_cell_angle_alpha   58.25626224
_cell_angle_beta   59.50735444
_cell_angle_gamma   59.50735314
_symmetry_Int_Tables_number   1
_chemical_formula_structural   MgNbCo2
_chemical_formula_sum   'Mg1 Nb1 Co2'
_cell_volume   567.88327641
_cell_formula_units_Z   1
loop_
 _symmetry_equiv_pos_site_id
 _symmetry_equiv_pos_as_xyz
  1  'x, y, z'
loop_
 _atom_site_type_symbol
 _atom_site_label
 _atom_site_symmetry_multiplicity
 _atom_site_fract_x
 _atom_site_fract_y
 _atom_site_fract_z
 _atom_site_occupancy
  Mg  Mg0  1  0.00000000  0.00000000  0.00000000  1
  Nb  Nb0  1  0.50000000  0.00000000  0.00000000  1
  Co  Co0  1  0.71446300  0.00000000  0.00000000  1
  Co  Co1  1  0.28553700  0.00000000  0.00000000  1
loop_
_geom_bond_atom_site_label_1
_geom_bond_atom_site_label_2
_geom_bond_distance
_geom_bond_site_symmetry_2
Co0 Nb0 2.027499 1_555
Co0 Mg0 2.699422 1_655
Co1 Nb0 2.027499 1_555
Co1 Mg0 2.699422 1_555
