# generated using pymatgen
data_VP2O7
_symmetry_space_group_name_H-M   'P 1'
_cell_length_a   4.32741233
_cell_length_b   8.08287051
_cell_length_c   8.32481847
_cell_angle_alpha   74.05415999
_cell_angle_beta   74.93526703
_cell_angle_gamma   74.47312452
_symmetry_Int_Tables_number   1
_chemical_formula_structural   VP2O7
_chemical_formula_sum   'V2 P4 O14'
_cell_volume   264.24782242
_cell_formula_units_Z   2
loop_
 _symmetry_equiv_pos_site_id
 _symmetry_equiv_pos_as_xyz
  1  'x, y, z'
loop_
 _atom_site_type_symbol
 _atom_site_label
 _atom_site_symmetry_multiplicity
 _atom_site_fract_x
 _atom_site_fract_y
 _atom_site_fract_z
 _atom_site_occupancy
  V  V0  1  0.26516400  0.25000000  0.75000000  1
  V  V1  1  0.73483700  0.75000000  0.25000000  1
  P  P0  1  0.67535100  0.31405400  0.34382000  1
  P  P1  1  0.33322600  0.18594600  0.15618100  1
  P  P2  1  0.32464800  0.68594500  0.65618100  1
  P  P3  1  0.66677500  0.81405600  0.84381900  1
  O  O0  1  0.88811700  0.25000000  0.75000000  1
  O  O1  1  0.11188200  0.75000000  0.25000000  1
  O  O2  1  0.49063500  0.22816800  0.51105700  1
  O  O3  1  0.22986000  0.27183200  0.98894300  1
  O  O4  1  0.50936700  0.77183200  0.48894300  1
  O  O5  1  0.77014100  0.72816900  0.01105600  1
  O  O6  1  0.44434300  0.99137800  0.82291200  1
  O  O7  1  0.25863300  0.50862100  0.67708900  1
  O  O8  1  0.55565600  0.00862100  0.17708900  1
  O  O9  1  0.74136600  0.49137900  0.32291100  1
  O  O10  1  0.01444500  0.17480500  0.30644300  1
  O  O11  1  0.98555600  0.82519500  0.69355800  1
  O  O12  1  0.49569200  0.32519500  0.19355700  1
  O  O13  1  0.50430900  0.67480500  0.80644200  1
loop_
_geom_bond_atom_site_label_1
_geom_bond_atom_site_label_2
_geom_bond_distance
_geom_bond_site_symmetry_2
O0 V0 1.631638 1_655
O1 V1 1.631629 1_455
O2 P0 1.498899 1_555
O2 V0 2.007907 1_555
O3 P1 1.498908 1_556
O3 V0 2.007907 1_555
O4 P2 1.498913 1_555
O4 V1 2.007906 1_555
O5 P3 1.498901 1_554
O5 V1 2.007913 1_555
O6 P3 1.490797 1_555
O6 V0 2.004781 1_565
O7 P2 1.490808 1_555
O7 V0 2.004773 1_555
O8 P1 1.490812 1_555
O8 V1 2.004774 1_545
O9 P0 1.490814 1_555
O9 V1 2.004774 1_555
O10 P1 1.607322 1_555
O10 P0 1.608648 1_455
O11 P3 1.607316 1_555
O11 P2 1.608646 1_655
O12 P0 1.607326 1_555
O12 P1 1.608638 1_555
O13 P2 1.607320 1_555
O13 P3 1.608656 1_555
