# generated using pymatgen
data_Rb2U2Cl4O7
_symmetry_space_group_name_H-M   'P 1'
_cell_length_a   8.65589000
_cell_length_b   8.73417600
_cell_length_c   21.58183493
_cell_angle_alpha   69.29294373
_cell_angle_beta   90.00000000
_cell_angle_gamma   90.00000000
_symmetry_Int_Tables_number   1
_chemical_formula_structural   Rb2U2Cl4O7
_chemical_formula_sum   'Rb8 U8 Cl16 O28'
_cell_volume   1526.22874217
_cell_formula_units_Z   4
loop_
 _symmetry_equiv_pos_site_id
 _symmetry_equiv_pos_as_xyz
  1  'x, y, z'
loop_
 _atom_site_type_symbol
 _atom_site_label
 _atom_site_symmetry_multiplicity
 _atom_site_fract_x
 _atom_site_fract_y
 _atom_site_fract_z
 _atom_site_occupancy
  Rb  Rb0  1  0.24186300  0.42761700  0.43753000  1
  Rb  Rb1  1  0.74186300  0.57238300  0.06247000  1
  Rb  Rb2  1  0.75813700  0.57238300  0.56247000  1
  Rb  Rb3  1  0.25813700  0.42761700  0.93753000  1
  Rb  Rb4  1  0.44914000  0.19951900  0.24566800  1
  Rb  Rb5  1  0.94914000  0.80048100  0.25433200  1
  Rb  Rb6  1  0.55086000  0.80048100  0.75433200  1
  Rb  Rb7  1  0.05086000  0.19951900  0.74566800  1
  U  U0  1  0.11492800  0.93628400  0.43865900  1
  U  U1  1  0.61492800  0.06371600  0.06134100  1
  U  U2  1  0.88507200  0.06371600  0.56134100  1
  U  U3  1  0.38507200  0.93628400  0.93865900  1
  U  U4  1  0.29826900  0.71584500  0.12929300  1
  U  U5  1  0.79826900  0.28415500  0.37070700  1
  U  U6  1  0.70173100  0.28415500  0.87070700  1
  U  U7  1  0.20173100  0.71584500  0.62929300  1
  Cl  Cl0  1  0.26881600  0.84364800  0.34696100  1
  Cl  Cl1  1  0.76881600  0.15635200  0.15303900  1
  Cl  Cl2  1  0.73118400  0.15635200  0.65303900  1
  Cl  Cl3  1  0.23118400  0.84364800  0.84696100  1
  Cl  Cl4  1  0.23692300  0.51918500  0.25427400  1
  Cl  Cl5  1  0.73692300  0.48081500  0.24572600  1
  Cl  Cl6  1  0.76307700  0.48081500  0.74572600  1
  Cl  Cl7  1  0.26307700  0.51918500  0.75427400  1
  Cl  Cl8  1  0.15502200  0.70253800  0.01454000  1
  Cl  Cl9  1  0.65502200  0.29746200  0.48546000  1
  Cl  Cl10  1  0.84497800  0.29746200  0.98546000  1
  Cl  Cl11  1  0.34497800  0.70253800  0.51454000  1
  Cl  Cl12  1  0.48779800  0.87515900  0.18786000  1
  Cl  Cl13  1  0.98779800  0.12484100  0.31214000  1
  Cl  Cl14  1  0.51220200  0.12484100  0.81214000  1
  Cl  Cl15  1  0.01220200  0.87515900  0.68786000  1
  O  O0  1  0.24991800  0.10344900  0.42707100  1
  O  O1  1  0.74991800  0.89655100  0.07292900  1
  O  O2  1  0.75008200  0.89655100  0.57292900  1
  O  O3  1  0.25008200  0.10344900  0.92707100  1
  O  O4  1  0.48299800  0.23408900  0.05055400  1
  O  O5  1  0.98299800  0.76591100  0.44944600  1
  O  O6  1  0.51700200  0.76591100  0.94944600  1
  O  O7  1  0.01700200  0.23408900  0.55055400  1
  O  O8  1  0.13816100  0.84265800  0.13681000  1
  O  O9  1  0.63816100  0.15734200  0.36319000  1
  O  O10  1  0.86183900  0.15734200  0.86319000  1
  O  O11  1  0.36183900  0.84265800  0.63681000  1
  O  O12  1  0.44090700  0.56452200  0.12620400  1
  O  O13  1  0.94090700  0.43547800  0.37379600  1
  O  O14  1  0.55909300  0.43547800  0.87379600  1
  O  O15  1  0.05909300  0.56452200  0.62620400  1
  O  O16  1  0.41282800  0.90229000  0.04802400  1
  O  O17  1  0.91282800  0.09771000  0.45197600  1
  O  O18  1  0.58717200  0.09771000  0.95197600  1
  O  O19  1  0.08717200  0.90229000  0.54802400  1
  O  O20  1  0.08274900  0.42476700  0.14108200  1
  O  O21  1  0.58274900  0.57523300  0.35891800  1
  O  O22  1  0.91725100  0.57523300  0.85891800  1
  O  O23  1  0.41725100  0.42476700  0.64108200  1
  O  O24  1  0.13689000  0.30036900  0.13494800  1
  O  O25  1  0.63689000  0.69963100  0.36505200  1
  O  O26  1  0.86311000  0.69963100  0.86505200  1
  O  O27  1  0.36311000  0.30036900  0.63494800  1
loop_
_geom_bond_atom_site_label_1
_geom_bond_atom_site_label_2
_geom_bond_distance
_geom_bond_site_symmetry_2
Cl0 U0 2.734556 1_555
Cl0 Rb0 3.472169 1_555
Cl0 Rb4 3.474367 1_565
Cl0 Rb5 3.511170 1_455
Cl1 U1 2.734556 1_555
Cl1 Rb1 3.472169 1_555
Cl1 Rb5 3.474367 1_545
Cl1 Rb4 3.511170 1_555
Cl2 U2 2.734556 1_555
Cl2 Rb2 3.472169 1_555
Cl2 Rb6 3.474367 1_545
Cl2 Rb7 3.511170 1_655
Cl3 U3 2.734556 1_555
Cl3 Rb3 3.472169 1_555
Cl3 Rb7 3.474367 1_565
Cl3 Rb6 3.511170 1_555
Cl4 U4 2.689133 1_555
Cl4 Rb4 3.401601 1_555
Cl4 Rb5 3.499093 1_455
Cl4 Rb0 3.747881 1_555
Cl5 U5 2.689133 1_555
Cl5 Rb5 3.401601 1_555
Cl5 Rb4 3.499093 1_555
Cl5 Rb1 3.747881 1_555
Cl6 U6 2.689133 1_555
Cl6 Rb6 3.401601 1_555
Cl6 Rb7 3.499093 1_655
Cl6 Rb2 3.747881 1_555
Cl7 U7 2.689133 1_555
Cl7 Rb7 3.401601 1_555
Cl7 Rb6 3.499093 1_555
Cl7 Rb3 3.747881 1_555
Cl8 U4 2.808548 1_555
Cl8 U3 2.907024 1_554
Cl8 Rb3 3.485255 1_554
Cl8 Rb1 3.784226 1_455
Cl9 U5 2.808548 1_555
Cl9 U2 2.907024 1_555
Cl9 Rb2 3.485255 1_555
Cl9 Rb0 3.784226 1_555
Cl10 U6 2.808548 1_555
Cl10 U1 2.907024 1_556
Cl10 Rb1 3.485255 1_556
Cl10 Rb3 3.784226 1_655
Cl11 U7 2.808548 1_555
Cl11 U0 2.907024 1_555
Cl11 Rb0 3.485255 1_555
Cl11 Rb2 3.784226 1_555
Cl12 U4 2.732953 1_555
Cl12 U1 2.863353 1_565
Cl12 Rb4 3.491989 1_565
Cl13 U5 2.732953 1_555
Cl13 U0 2.863353 1_645
Cl13 Rb5 3.491989 1_545
Cl14 U6 2.732953 1_555
Cl14 U3 2.863353 1_545
Cl14 Rb6 3.491989 1_545
Cl15 U7 2.732953 1_555
Cl15 U2 2.863353 1_465
Cl15 Rb7 3.491989 1_565
O0 U0 1.816964 1_545
O0 Rb0 2.919634 1_555
O1 U1 1.816964 1_565
O1 Rb1 2.919634 1_555
O2 U2 1.816964 1_565
O2 Rb2 2.919634 1_555
O3 U3 1.816964 1_545
O3 Rb3 2.919634 1_555
O4 U1 1.824186 1_555
O4 Rb3 3.111228 1_554
O5 U0 1.824186 1_655
O5 Rb2 3.111228 1_555
O6 U3 1.824186 1_555
O6 Rb1 3.111228 1_556
O7 U2 1.824186 1_455
O7 Rb0 3.111228 1_555
O8 U4 1.816821 1_555
O8 Rb5 2.930009 1_455
O9 U5 1.816821 1_555
O9 Rb4 2.930009 1_555
O10 U6 1.816821 1_555
O10 Rb7 2.930009 1_655
O11 U7 1.816821 1_555
O11 Rb6 2.930009 1_555
O12 U4 1.827014 1_555
O12 Rb1 2.935330 1_555
O12 Rb4 3.317102 1_555
O13 U5 1.827014 1_555
O13 Rb0 2.935330 1_655
O13 Rb5 3.317102 1_555
O14 U6 1.827014 1_555
O14 Rb3 2.935330 1_555
O14 Rb6 3.317102 1_555
O15 U7 1.827014 1_555
O15 Rb2 2.935330 1_455
O15 Rb7 3.317102 1_555
O16 U4 2.166003 1_555
O16 U3 2.285015 1_554
O16 U1 2.327508 1_565
O17 U5 2.166003 1_555
O17 U2 2.285015 1_555
O17 U0 2.327508 1_645
O18 U6 2.166003 1_555
O18 U1 2.285015 1_556
O18 U3 2.327508 1_545
O19 U7 2.166003 1_555
O19 U0 2.285015 1_555
O19 U2 2.327508 1_465
O20 O24 1.232631 1_555
O20 U4 3.090450 1_555
O20 Rb1 3.420569 1_455
O21 O25 1.232631 1_555
O21 U5 3.090450 1_555
O21 Rb0 3.420569 1_555
O22 O26 1.232631 1_555
O22 U6 3.090450 1_555
O22 Rb3 3.420569 1_655
O23 O27 1.232631 1_555
O23 U7 3.090450 1_555
O23 Rb2 3.420569 1_555
O24 Rb4 3.507484 1_555
O25 Rb5 3.507484 1_555
O26 Rb6 3.507484 1_555
O27 Rb7 3.507484 1_555
