# generated using pymatgen
data_La3SmCr4O12
_symmetry_space_group_name_H-M   'P 1'
_cell_length_a   7.85876800
_cell_length_b   5.54427000
_cell_length_c   5.58914885
_cell_angle_alpha   89.89244379
_cell_angle_beta   90.00000000
_cell_angle_gamma   90.00000000
_symmetry_Int_Tables_number   1
_chemical_formula_structural   La3SmCr4O12
_chemical_formula_sum   'La3 Sm1 Cr4 O12'
_cell_volume   243.52511123
_cell_formula_units_Z   1
loop_
 _symmetry_equiv_pos_site_id
 _symmetry_equiv_pos_as_xyz
  1  'x, y, z'
loop_
 _atom_site_type_symbol
 _atom_site_label
 _atom_site_symmetry_multiplicity
 _atom_site_fract_x
 _atom_site_fract_y
 _atom_site_fract_z
 _atom_site_occupancy
  La  La0  1  0.00000000  0.00690900  0.96381200  1
  La  La1  1  0.50000000  0.50682700  0.53340400  1
  La  La2  1  0.50000000  0.99165200  0.03600600  1
  Sm  Sm0  1  0.00000000  0.48878600  0.45206400  1
  Cr  Cr0  1  0.24763200  0.99943500  0.50058300  1
  Cr  Cr1  1  0.75168600  0.50061900  0.99854300  1
  Cr  Cr2  1  0.75236800  0.99943500  0.50058300  1
  Cr  Cr3  1  0.24831400  0.50061900  0.99854300  1
  O  O0  1  0.00000000  0.58035200  0.02837700  1
  O  O1  1  0.00000000  0.90533200  0.51748800  1
  O  O2  1  0.50000000  0.41937000  0.98201300  1
  O  O3  1  0.50000000  0.07935900  0.48357400  1
  O  O4  1  0.20337000  0.21472100  0.21464100  1
  O  O5  1  0.79886900  0.29399900  0.70638200  1
  O  O6  1  0.70788500  0.79195300  0.79147200  1
  O  O7  1  0.29049900  0.70998000  0.29001200  1
  O  O8  1  0.29211500  0.79195300  0.79147200  1
  O  O9  1  0.70950100  0.70998000  0.29001200  1
  O  O10  1  0.79663000  0.21472100  0.21464100  1
  O  O11  1  0.20113100  0.29399900  0.70638200  1
loop_
_geom_bond_atom_site_label_1
_geom_bond_atom_site_label_2
_geom_bond_distance
_geom_bond_site_symmetry_2
La0 O0 2.391651 1_546
La0 O10 2.419358 1_456
La0 O4 2.419358 1_556
La0 O1 2.558383 1_545
La0 O11 2.663370 1_555
La0 O5 2.663370 1_455
La0 O6 2.760893 1_445
La0 O8 2.760893 1_545
La1 O3 2.386825 1_555
La1 O9 2.413325 1_555
La1 O7 2.413325 1_555
La1 O2 2.552903 1_555
La1 O8 2.693890 1_555
La1 O6 2.693890 1_555
La1 O5 2.799884 1_555
La1 O11 2.799884 1_555
La2 O2 2.389946 1_564
La2 O6 2.401781 1_554
La2 O8 2.401781 1_554
La2 O3 2.549245 1_565
La2 O9 2.675193 1_555
La2 O7 2.675193 1_555
La2 O4 2.822283 1_565
La2 O10 2.822283 1_565
Cr0 O1 2.016974 1_555
Cr0 O7 2.020183 1_555
Cr0 O8 2.020336 1_555
Cr0 O4 2.023037 1_565
Cr0 O11 2.032439 1_565
Cr0 O3 2.034384 1_565
Cr1 O0 2.007891 1_656
Cr1 O6 2.014923 1_555
Cr1 O10 2.022099 1_556
Cr1 O9 2.029336 1_556
Cr1 O5 2.030587 1_555
Cr1 O2 2.030730 1_555
Cr2 O1 2.016974 1_655
Cr2 O9 2.020183 1_555
Cr2 O6 2.020336 1_555
Cr2 O10 2.023037 1_565
Cr2 O5 2.032439 1_565
Cr2 O3 2.034384 1_565
Cr3 O0 2.007891 1_556
Cr3 O8 2.014923 1_555
Cr3 O4 2.022099 1_556
Cr3 O7 2.029336 1_556
Cr3 O11 2.030587 1_555
Cr3 O2 2.030730 1_555
O0 Sm0 2.420924 1_555
O1 Sm0 2.338891 1_555
O4 Sm0 2.575208 1_555
O5 Sm0 2.383149 1_655
O7 Sm0 2.744461 1_555
O9 Sm0 2.744461 1_655
O10 Sm0 2.575208 1_655
O11 Sm0 2.383149 1_555
