# generated using pymatgen
data_Sr4Mg3Al5
_symmetry_space_group_name_H-M   'P 1'
_cell_length_a   6.04543364
_cell_length_b   6.04543364
_cell_length_c   19.95489400
_cell_angle_alpha   90.00000000
_cell_angle_beta   90.00000000
_cell_angle_gamma   119.99999601
_symmetry_Int_Tables_number   1
_chemical_formula_structural   Sr4Mg3Al5
_chemical_formula_sum   'Sr8 Mg6 Al10'
_cell_volume   631.58962938
_cell_formula_units_Z   2
loop_
 _symmetry_equiv_pos_site_id
 _symmetry_equiv_pos_as_xyz
  1  'x, y, z'
loop_
 _atom_site_type_symbol
 _atom_site_label
 _atom_site_symmetry_multiplicity
 _atom_site_fract_x
 _atom_site_fract_y
 _atom_site_fract_z
 _atom_site_occupancy
  Sr  Sr0  1  0.33333300  0.66666700  0.66107000  1
  Sr  Sr1  1  0.66666700  0.33333300  0.33893000  1
  Sr  Sr2  1  0.66666700  0.33333300  0.16107000  1
  Sr  Sr3  1  0.33333300  0.66666700  0.83893000  1
  Sr  Sr4  1  0.00000000  0.00000000  0.10272000  1
  Sr  Sr5  1  0.00000000  0.00000000  0.89728000  1
  Sr  Sr6  1  0.00000000  0.00000000  0.60272000  1
  Sr  Sr7  1  0.00000000  0.00000000  0.39728000  1
  Mg  Mg0  1  0.50000000  0.00000000  0.00000000  1
  Mg  Mg1  1  0.00000000  0.50000000  0.00000000  1
  Mg  Mg2  1  0.50000000  0.00000000  0.50000000  1
  Mg  Mg3  1  0.50000000  0.50000000  0.00000000  1
  Mg  Mg4  1  0.00000000  0.50000000  0.50000000  1
  Mg  Mg5  1  0.50000000  0.50000000  0.50000000  1
  Al  Al0  1  0.33333300  0.66666700  0.13991200  1
  Al  Al1  1  0.66666700  0.33333300  0.86008800  1
  Al  Al2  1  0.66666700  0.33333300  0.63991200  1
  Al  Al3  1  0.33333300  0.66666700  0.36008800  1
  Al  Al4  1  0.16521100  0.33042200  0.25000000  1
  Al  Al5  1  0.83478900  0.66957800  0.75000000  1
  Al  Al6  1  0.66957800  0.83478900  0.25000000  1
  Al  Al7  1  0.33042200  0.16521100  0.75000000  1
  Al  Al8  1  0.16521100  0.83478900  0.25000000  1
  Al  Al9  1  0.83478900  0.16521100  0.75000000  1
loop_
_geom_bond_atom_site_label_1
_geom_bond_atom_site_label_2
_geom_bond_distance
_geom_bond_site_symmetry_2
Sr0 Sr3 3.549177 1_555
Sr0 Sr6 3.679423 1_565
Sr0 Sr6 3.679428 1_665
Sr0 Sr6 3.679428 1_555
Sr1 Sr2 3.549177 1_555
Sr1 Sr7 3.679423 1_655
Sr1 Sr7 3.679428 1_555
Sr1 Sr7 3.679428 1_665
Sr2 Sr4 3.679423 1_655
Sr2 Sr4 3.679428 1_555
Sr2 Sr4 3.679428 1_665
Sr3 Sr5 3.679423 1_565
Sr3 Sr5 3.679428 1_665
Sr3 Sr5 3.679428 1_555
Sr4 Sr5 4.099533 1_554
Sr6 Sr7 4.099533 1_555
Mg0 Mg3 3.022717 1_555
Mg0 Mg3 3.022717 1_545
Mg0 Mg1 3.022717 1_545
Mg0 Mg1 3.022717 1_655
Mg0 Sr5 3.652172 1_654
Mg0 Sr5 3.652172 1_554
Mg0 Sr4 3.652172 1_655
Mg0 Sr4 3.652172 1_555
Mg0 Sr3 3.657357 1_544
Mg0 Sr2 3.657357 1_555
Mg1 Mg3 3.022717 1_555
Mg1 Mg3 3.022717 1_455
Mg1 Sr5 3.652172 1_554
Mg1 Sr5 3.652172 1_564
Mg1 Sr4 3.652172 1_565
Mg1 Sr4 3.652172 1_555
Mg1 Sr3 3.657357 1_554
Mg1 Sr2 3.657357 1_455
Mg2 Mg5 3.022717 1_555
Mg2 Mg5 3.022717 1_545
Mg2 Mg4 3.022717 1_545
Mg2 Mg4 3.022717 1_655
Mg2 Sr7 3.652172 1_655
Mg2 Sr7 3.652172 1_555
Mg2 Sr6 3.652172 1_655
Mg2 Sr6 3.652172 1_555
Mg2 Sr1 3.657357 1_555
Mg2 Sr0 3.657357 1_545
Mg3 Sr5 3.652172 1_554
Mg3 Sr5 3.652172 1_664
Mg3 Sr4 3.652172 1_555
Mg3 Sr4 3.652172 1_665
Mg3 Sr3 3.657360 1_554
Mg3 Sr2 3.657360 1_555
Mg4 Mg5 3.022717 1_455
Mg4 Mg5 3.022717 1_555
Mg4 Sr7 3.652172 1_555
Mg4 Sr7 3.652172 1_565
Mg4 Sr6 3.652172 1_555
Mg4 Sr6 3.652172 1_565
Mg4 Sr1 3.657357 1_455
Mg4 Sr0 3.657357 1_555
Mg5 Sr7 3.652172 1_665
Mg5 Sr7 3.652172 1_555
Mg5 Sr6 3.652172 1_555
Mg5 Sr6 3.652172 1_665
Mg5 Sr1 3.657360 1_555
Mg5 Sr0 3.657360 1_555
Al0 Al8 2.815126 1_555
Al0 Al4 2.815129 1_555
Al0 Al6 2.815129 1_555
Al0 Mg0 3.292487 1_565
Al0 Mg1 3.292487 1_555
Al0 Mg3 3.292489 1_555
Al0 Sr2 3.515773 1_455
Al0 Sr2 3.515773 1_565
Al0 Sr2 3.515783 1_555
Al0 Sr4 3.568361 1_565
Al0 Sr4 3.568367 1_555
Al0 Sr4 3.568367 1_665
Al1 Al9 2.815126 1_555
Al1 Al5 2.815129 1_555
Al1 Al7 2.815129 1_555
Al1 Mg0 3.292487 1_556
Al1 Mg1 3.292487 1_656
Al1 Mg3 3.292489 1_556
Al1 Sr3 3.515773 1_545
Al1 Sr3 3.515773 1_655
Al1 Sr3 3.515783 1_555
Al1 Sr5 3.568361 1_655
Al1 Sr5 3.568367 1_555
Al1 Sr5 3.568367 1_665
Al2 Al9 2.815126 1_555
Al2 Al5 2.815129 1_555
Al2 Al7 2.815129 1_555
Al2 Mg2 3.292487 1_555
Al2 Mg4 3.292487 1_655
Al2 Mg5 3.292489 1_555
Al2 Sr0 3.515773 1_545
Al2 Sr0 3.515773 1_655
Al2 Sr0 3.515783 1_555
Al2 Sr6 3.568361 1_655
Al2 Sr6 3.568367 1_665
Al2 Sr6 3.568367 1_555
Al3 Al8 2.815126 1_555
Al3 Al6 2.815129 1_555
Al3 Al4 2.815129 1_555
Al3 Mg4 3.292487 1_555
Al3 Mg2 3.292487 1_565
Al3 Mg5 3.292489 1_555
Al3 Sr1 3.515773 1_455
Al3 Sr1 3.515773 1_565
Al3 Sr1 3.515783 1_555
Al3 Sr7 3.568361 1_565
Al3 Sr7 3.568367 1_555
Al3 Sr7 3.568367 1_665
Al4 Al8 2.996316 1_545
Al4 Al6 2.996317 1_445
Al4 Al8 3.049117 1_555
Al4 Al6 3.049117 1_555
Al4 Sr4 3.410294 1_555
Al4 Sr7 3.410294 1_555
Al4 Sr2 3.505167 1_455
Al4 Sr1 3.505167 1_455
Al4 Sr2 3.505172 1_555
Al4 Sr1 3.505172 1_555
Al5 Al9 2.996316 1_565
Al5 Al7 2.996317 1_665
Al5 Al9 3.049117 1_555
Al5 Al7 3.049117 1_555
Al5 Sr6 3.410294 1_665
Al5 Sr5 3.410294 1_665
Al5 Sr0 3.505167 1_655
Al5 Sr3 3.505167 1_655
Al5 Sr0 3.505172 1_555
Al5 Sr3 3.505172 1_555
Al6 Al8 2.996316 1_655
Al6 Al8 3.049117 1_555
Al6 Sr4 3.410294 1_665
Al6 Sr7 3.410294 1_665
Al6 Sr2 3.505167 1_565
Al6 Sr1 3.505167 1_565
Al6 Sr2 3.505172 1_555
Al6 Sr1 3.505172 1_555
Al7 Al9 2.996316 1_455
Al7 Al9 3.049117 1_555
Al7 Sr6 3.410294 1_555
Al7 Sr5 3.410294 1_555
Al7 Sr0 3.505167 1_545
Al7 Sr3 3.505167 1_545
Al7 Sr0 3.505172 1_555
Al7 Sr3 3.505172 1_555
Al8 Sr4 3.410294 1_565
Al8 Sr7 3.410294 1_565
Al8 Sr2 3.505170 1_455
Al8 Sr2 3.505170 1_565
Al8 Sr1 3.505170 1_455
Al8 Sr1 3.505170 1_565
Al9 Sr6 3.410294 1_655
Al9 Sr5 3.410294 1_655
Al9 Sr0 3.505170 1_545
Al9 Sr0 3.505170 1_655
Al9 Sr3 3.505170 1_545
Al9 Sr3 3.505170 1_655
