# generated using pymatgen
data_Ce4(ErS2)11
_symmetry_space_group_name_H-M   'P 1'
_cell_length_a   3.92981554
_cell_length_b   11.36113917
_cell_length_c   19.67517779
_cell_angle_alpha   91.45070873
_cell_angle_beta   95.73153021
_cell_angle_gamma   90.00000000
_symmetry_Int_Tables_number   1
_chemical_formula_structural   Ce4(ErS2)11
_chemical_formula_sum   'Ce4 Er11 S22'
_cell_volume   873.76671525
_cell_formula_units_Z   1
loop_
 _symmetry_equiv_pos_site_id
 _symmetry_equiv_pos_as_xyz
  1  'x, y, z'
loop_
 _atom_site_type_symbol
 _atom_site_label
 _atom_site_symmetry_multiplicity
 _atom_site_fract_x
 _atom_site_fract_y
 _atom_site_fract_z
 _atom_site_occupancy
  Ce  Ce0  1  0.36702347  0.34841875  0.73404693  1
  Ce  Ce1  1  0.63297653  0.65158125  0.26595307  1
  Ce  Ce2  1  0.10445356  0.01155172  0.20890711  1
  Ce  Ce3  1  0.89554644  0.98844828  0.79109289  1
  Er  Er0  1  0.46195505  0.27081742  0.92391009  1
  Er  Er1  1  0.53804495  0.72918258  0.07608991  1
  Er  Er2  1  0.06961135  0.36139993  0.13922270  1
  Er  Er3  1  0.93038865  0.63860007  0.86077730  1
  Er  Er4  1  0.26322780  0.35224017  0.52645561  1
  Er  Er5  1  0.73677220  0.64775983  0.47354439  1
  Er  Er6  1  0.79751662  0.05871205  0.59503324  1
  Er  Er7  1  0.20248338  0.94128795  0.40496676  1
  Er  Er8  1  -0.00000000  0.00000000  -0.00000000  1
  Er  Er9  1  0.65751751  0.30055428  0.31503502  1
  Er  Er10  1  0.34248249  0.69944572  0.68496498  1
  S  S0  1  0.59267210  0.21165863  0.18534421  1
  S  S1  1  0.40732790  0.78834137  0.81465579  1
  S  S2  1  0.08786661  0.75125087  0.17573321  1
  S  S3  1  0.91213339  0.24874913  0.82426679  1
  S  S4  1  0.00798372  0.24054489  0.01596744  1
  S  S5  1  0.99201628  0.75945511  0.98403256  1
  S  S6  1  0.35045881  0.09179300  0.70091762  1
  S  S7  1  0.64954119  0.90820700  0.29908238  1
  S  S8  1  0.45309972  0.03084512  0.90619943  1
  S  S9  1  0.54690028  0.96915488  0.09380057  1
  S  S10  1  0.16899698  0.15069537  0.33799396  1
  S  S11  1  0.83100302  0.84930463  0.66200604  1
  S  S12  1  0.25482195  0.11900064  0.50964389  1
  S  S13  1  0.74517805  0.88099936  0.49035611  1
  S  S14  1  0.18910146  0.69035259  0.37820291  1
  S  S15  1  0.81089854  0.30964741  0.62179709  1
  S  S16  1  0.44487888  0.49280032  0.88975776  1
  S  S17  1  0.55512112  0.50719968  0.11024224  1
  S  S18  1  0.13484422  0.45352405  0.26968843  1
  S  S19  1  0.86515578  0.54647595  0.73031157  1
  S  S20  1  0.28042400  0.58900469  0.56084800  1
  S  S21  1  0.71957600  0.41099531  0.43915200  1
loop_
_geom_bond_atom_site_label_1
_geom_bond_atom_site_label_2
_geom_bond_distance
_geom_bond_site_symmetry_2
Ce0 S3 2.892128 1_455
Ce0 S3 2.892128 1_555
Ce0 S6 2.970675 1_555
Ce0 S15 2.972308 1_555
Ce0 S15 2.972308 1_455
Ce0 S19 2.989612 1_555
Ce0 S19 2.989613 1_455
Ce0 S16 3.424694 1_555
Ce1 S2 2.892128 1_655
Ce1 S2 2.892128 1_555
Ce1 S7 2.970675 1_555
Ce1 S14 2.972308 1_555
Ce1 S14 2.972308 1_655
Ce1 S18 2.989612 1_555
Ce1 S18 2.989613 1_655
Ce1 S17 3.424694 1_555
Ce2 S7 2.908836 1_445
Ce2 S7 2.908836 1_545
Ce2 S10 2.946526 1_555
Ce2 S2 3.011601 1_545
Ce2 S9 3.019195 1_545
Ce2 S9 3.019195 1_445
Ce2 S0 3.048861 1_555
Ce2 S0 3.048861 1_455
Ce3 S6 2.908836 1_665
Ce3 S6 2.908836 1_565
Ce3 S11 2.946526 1_555
Ce3 S3 3.011601 1_565
Ce3 S8 3.019195 1_565
Ce3 S8 3.019195 1_665
Ce3 S1 3.048861 1_555
Ce3 S1 3.048861 1_655
Er0 S16 2.625491 1_555
Er0 S4 2.694175 1_556
Er0 S4 2.694175 1_656
Er0 S8 2.739551 1_555
Er0 S3 2.775619 1_555
Er0 S3 2.775619 1_455
Er1 S17 2.625491 1_555
Er1 S5 2.694175 1_554
Er1 S5 2.694175 1_454
Er1 S9 2.739551 1_555
Er1 S2 2.775619 1_555
Er1 S2 2.775619 1_655
Er2 S17 2.640908 1_555
Er2 S17 2.640908 1_455
Er2 S18 2.735481 1_555
Er2 S4 2.745720 1_555
Er2 S0 2.765587 1_455
Er2 S0 2.765587 1_555
Er3 S16 2.640908 1_555
Er3 S16 2.640908 1_655
Er3 S19 2.735481 1_555
Er3 S5 2.745720 1_555
Er3 S1 2.765587 1_655
Er3 S1 2.765587 1_555
Er4 S12 2.661904 1_555
Er4 S21 2.699190 1_555
Er4 S21 2.699190 1_455
Er4 S20 2.756230 1_555
Er4 S15 2.761294 1_455
Er4 S15 2.761294 1_555
Er5 S13 2.661904 1_555
Er5 S20 2.699190 1_555
Er5 S20 2.699190 1_655
Er5 S21 2.756230 1_555
Er5 S14 2.761294 1_655
Er5 S14 2.761294 1_555
Er6 S12 2.680056 1_655
Er6 S12 2.680056 1_555
Er6 S11 2.745524 1_545
Er6 S13 2.839946 1_545
Er6 S6 2.873900 1_555
Er6 S6 2.873900 1_655
Er6 S15 2.885517 1_555
Er7 S13 2.680056 1_455
Er7 S13 2.680056 1_555
Er7 S10 2.745524 1_565
Er7 S12 2.839946 1_565
Er7 S7 2.873900 1_555
Er7 S7 2.873900 1_455
Er7 S14 2.885517 1_555
Er8 S8 2.718175 1_554
Er8 S9 2.718175 1_445
Er8 S8 2.718175 1_454
Er8 S9 2.718175 1_545
Er8 S4 2.742770 1_555
Er8 S5 2.742770 1_444
Er9 S10 2.645857 1_555
Er9 S10 2.645857 1_655
Er9 S21 2.706144 1_555
Er9 S0 2.708451 1_555
Er9 S18 2.783486 1_655
Er9 S18 2.783486 1_555
Er10 S11 2.645857 1_555
Er10 S11 2.645857 1_455
Er10 S20 2.706144 1_555
Er10 S1 2.708451 1_555
Er10 S19 2.783486 1_455
Er10 S19 2.783486 1_555
