# generated using pymatgen
data_K2Zn2(MoO4)3
_symmetry_space_group_name_H-M   'P 1'
_cell_length_a   9.25258900
_cell_length_b   7.04321200
_cell_length_c   19.62041094
_cell_angle_alpha   88.96859222
_cell_angle_beta   90.00000000
_cell_angle_gamma   90.00000000
_symmetry_Int_Tables_number   1
_chemical_formula_structural   K2Zn2(MoO4)3
_chemical_formula_sum   'K8 Zn8 Mo12 O48'
_cell_volume   1278.41471321
_cell_formula_units_Z   4
loop_
 _symmetry_equiv_pos_site_id
 _symmetry_equiv_pos_as_xyz
  1  'x, y, z'
loop_
 _atom_site_type_symbol
 _atom_site_label
 _atom_site_symmetry_multiplicity
 _atom_site_fract_x
 _atom_site_fract_y
 _atom_site_fract_z
 _atom_site_occupancy
  K  K0  1  0.39013300  0.81543300  0.79080400  1
  K  K1  1  0.89013300  0.68456700  0.70919600  1
  K  K2  1  0.60986700  0.18456700  0.20919600  1
  K  K3  1  0.10986700  0.31543300  0.29080400  1
  K  K4  1  0.48271200  0.29885600  0.90131400  1
  K  K5  1  0.98271200  0.20114400  0.59868600  1
  K  K6  1  0.51728800  0.70114400  0.09868600  1
  K  K7  1  0.01728800  0.79885600  0.40131400  1
  Zn  Zn0  1  0.89945700  0.87602300  0.06541100  1
  Zn  Zn1  1  0.39945700  0.62397700  0.43458900  1
  Zn  Zn2  1  0.10054300  0.12397700  0.93458900  1
  Zn  Zn3  1  0.60054300  0.37602300  0.56541100  1
  Zn  Zn4  1  0.36772800  0.09456300  0.63593400  1
  Zn  Zn5  1  0.86772800  0.40543700  0.86406600  1
  Zn  Zn6  1  0.63227200  0.90543700  0.36406600  1
  Zn  Zn7  1  0.13227200  0.59456300  0.13593400  1
  Mo  Mo0  1  0.17009100  0.61819300  0.96429700  1
  Mo  Mo1  1  0.67009100  0.88180700  0.53570300  1
  Mo  Mo2  1  0.82990900  0.38180700  0.03570300  1
  Mo  Mo3  1  0.32990900  0.11819300  0.46429700  1
  Mo  Mo4  1  0.28539300  0.60023800  0.60024200  1
  Mo  Mo5  1  0.78539300  0.89976200  0.89975800  1
  Mo  Mo6  1  0.71460700  0.39976200  0.39975800  1
  Mo  Mo7  1  0.21460700  0.10023800  0.10024200  1
  Mo  Mo8  1  0.18499000  0.28025200  0.77519300  1
  Mo  Mo9  1  0.68499000  0.21974800  0.72480700  1
  Mo  Mo10  1  0.81501000  0.71974800  0.22480700  1
  Mo  Mo11  1  0.31501000  0.78025200  0.27519300  1
  O  O0  1  0.22508600  0.13231300  0.85010600  1
  O  O1  1  0.72508600  0.36768700  0.64989400  1
  O  O2  1  0.77491400  0.86768700  0.14989400  1
  O  O3  1  0.27491400  0.63231300  0.35010600  1
  O  O4  1  0.25674100  0.65047100  0.51064500  1
  O  O5  1  0.75674100  0.84952900  0.98935500  1
  O  O6  1  0.74325900  0.34952900  0.48935500  1
  O  O7  1  0.24325900  0.15047100  0.01064500  1
  O  O8  1  0.07458400  0.84055600  0.95622200  1
  O  O9  1  0.57458400  0.65944400  0.54377800  1
  O  O10  1  0.92541600  0.15944400  0.04377800  1
  O  O11  1  0.42541600  0.34055600  0.45622200  1
  O  O12  1  0.31876100  0.62798700  0.90923700  1
  O  O13  1  0.81876100  0.87201300  0.59076300  1
  O  O14  1  0.68123900  0.37201300  0.09076300  1
  O  O15  1  0.18123900  0.12798700  0.40923700  1
  O  O16  1  0.31951700  0.45469800  0.77037900  1
  O  O17  1  0.81951700  0.04530200  0.72962100  1
  O  O18  1  0.34984000  0.80386400  0.64471100  1
  O  O19  1  0.68048300  0.54530200  0.22962100  1
  O  O20  1  0.05625400  0.41787400  0.93754300  1
  O  O21  1  0.55625400  0.08212600  0.56245700  1
  O  O22  1  0.94374600  0.58212600  0.06245700  1
  O  O23  1  0.44374600  0.91787400  0.43754300  1
  O  O24  1  0.11483500  0.53966700  0.63356700  1
  O  O25  1  0.61483500  0.96033300  0.86643300  1
  O  O26  1  0.88516500  0.46033300  0.36643300  1
  O  O27  1  0.38516500  0.03966700  0.13356700  1
  O  O28  1  0.98887700  0.60898000  0.21519900  1
  O  O29  1  0.48887700  0.89102000  0.28480100  1
  O  O30  1  0.01112300  0.39102000  0.78480100  1
  O  O31  1  0.51112300  0.10898000  0.71519900  1
  O  O32  1  0.09659700  0.89312600  0.11238200  1
  O  O33  1  0.59659700  0.60687400  0.38761800  1
  O  O34  1  0.90340300  0.10687400  0.88761800  1
  O  O35  1  0.40340300  0.39312600  0.61238200  1
  O  O36  1  0.25031200  0.59226400  0.04737000  1
  O  O37  1  0.75031200  0.90773600  0.45263000  1
  O  O38  1  0.74968800  0.40773600  0.95263000  1
  O  O39  1  0.24968800  0.09226400  0.54737000  1
  O  O40  1  0.30567900  0.63703500  0.19978300  1
  O  O41  1  0.80567900  0.86296500  0.30021700  1
  O  O42  1  0.69432100  0.36296500  0.80021700  1
  O  O43  1  0.19432100  0.13703500  0.69978300  1
  O  O44  1  0.15016000  0.30386400  0.14471100  1
  O  O45  1  0.65016000  0.19613600  0.35528900  1
  O  O46  1  0.84984000  0.69613600  0.85528900  1
  O  O47  1  0.18048300  0.95469800  0.27037900  1
loop_
_geom_bond_atom_site_label_1
_geom_bond_atom_site_label_2
_geom_bond_distance
_geom_bond_site_symmetry_2
K0 O16 2.660730 1_555
K0 O12 2.732808 1_555
K0 O31 2.760053 1_565
K0 O25 2.760524 1_555
K0 O18 2.893150 1_555
K0 O0 2.959819 1_565
K1 O17 2.660730 1_565
K1 O13 2.732808 1_555
K1 O30 2.760053 1_655
K1 O24 2.760524 1_655
K1 O46 2.893150 1_555
K1 O1 2.959819 1_555
K2 O19 2.660730 1_555
K2 O14 2.732808 1_555
K2 O29 2.760053 1_545
K2 O27 2.760524 1_555
K2 O45 2.893150 1_555
K2 O2 2.959819 1_545
K3 O47 2.660730 1_545
K3 O15 2.732808 1_555
K3 O28 2.760053 1_455
K3 O26 2.760524 1_455
K3 O44 2.893150 1_555
K3 O3 2.959819 1_555
K4 O25 2.776043 1_545
K4 O12 2.777069 1_555
K4 O38 2.780574 1_555
K4 O42 2.817740 1_555
K4 O0 2.847785 1_555
K4 O16 3.159597 1_555
K4 O7 3.243730 1_556
K5 O24 2.776043 1_655
K5 O13 2.777069 1_545
K5 O39 2.780574 1_655
K5 O43 2.817740 1_655
K5 O1 2.847785 1_555
K5 O17 3.159597 1_555
K5 O6 3.243730 1_555
K6 O27 2.776043 1_565
K6 O14 2.777069 1_555
K6 O36 2.780574 1_555
K6 O40 2.817740 1_555
K6 O2 2.847785 1_555
K6 O19 3.159597 1_555
K6 O5 3.243730 1_554
K7 O26 2.776043 1_455
K7 O15 2.777069 1_565
K7 O37 2.780574 1_455
K7 O41 2.817740 1_455
K7 O3 2.847785 1_555
K7 O47 3.159597 1_555
K7 O4 3.243730 1_555
Mo0 O12 1.749671 1_555
Mo0 O36 1.797285 1_556
Mo0 O8 1.802747 1_555
Mo0 O20 1.844514 1_555
Mo1 O13 1.749671 1_555
Mo1 O37 1.797285 1_555
Mo1 O9 1.802747 1_555
Mo1 O21 1.844514 1_565
Mo2 O14 1.749671 1_555
Mo2 O38 1.797285 1_554
Mo2 O10 1.802747 1_555
Mo2 O22 1.844514 1_555
Mo3 O15 1.749671 1_555
Mo3 O39 1.797285 1_555
Mo3 O11 1.802747 1_555
Mo3 O23 1.844514 1_545
Mo4 O24 1.757807 1_555
Mo4 O18 1.794089 1_555
Mo4 O4 1.806484 1_555
Mo4 O35 1.834222 1_555
Mo5 O25 1.757807 1_555
Mo5 O46 1.794089 1_555
Mo5 O5 1.806484 1_555
Mo5 O34 1.834222 1_565
Mo6 O26 1.757807 1_555
Mo6 O45 1.794089 1_555
Mo6 O6 1.806484 1_555
Mo6 O33 1.834222 1_555
Mo7 O27 1.757807 1_555
Mo7 O44 1.794089 1_555
Mo7 O7 1.806484 1_555
Mo7 O32 1.834222 1_545
Mo8 O16 1.750338 1_555
Mo8 O30 1.799296 1_555
Mo8 O43 1.807711 1_555
Mo8 O0 1.824438 1_555
Mo9 O17 1.750338 1_555
Mo9 O31 1.799296 1_555
Mo9 O42 1.807711 1_555
Mo9 O1 1.824438 1_555
Mo10 O19 1.750338 1_555
Mo10 O28 1.799296 1_555
Mo10 O41 1.807711 1_555
Mo10 O2 1.824438 1_555
Mo11 O47 1.750338 1_555
Mo11 O29 1.799296 1_555
Mo11 O40 1.807711 1_555
Mo11 O3 1.824438 1_555
O0 Zn2 2.018775 1_555
O1 Zn3 2.018775 1_555
O2 Zn0 2.018775 1_555
O3 Zn1 2.018775 1_555
O4 Zn1 2.003835 1_555
O5 Zn0 2.003835 1_556
O6 Zn3 2.003835 1_555
O7 Zn2 2.003835 1_554
O8 Zn2 2.047470 1_565
O9 Zn3 2.047470 1_555
O10 Zn0 2.047470 1_545
O11 Zn1 2.047470 1_555
O18 Zn4 2.058258 1_565
O20 Zn2 2.111970 1_555
O20 Zn5 2.265688 1_455
O21 Zn3 2.111970 1_555
O21 Zn4 2.265688 1_555
O22 Zn0 2.111970 1_555
O22 Zn7 2.265688 1_655
O23 Zn1 2.111970 1_555
O23 Zn6 2.265688 1_555
O28 Zn7 2.048173 1_655
O29 Zn6 2.048173 1_555
O30 Zn5 2.048173 1_455
O31 Zn4 2.048173 1_555
O32 Zn0 2.048173 1_455
O32 Zn7 2.170128 1_555
O33 Zn1 2.048173 1_555
O33 Zn6 2.170128 1_555
O34 Zn2 2.048173 1_655
O34 Zn5 2.170128 1_555
O35 Zn3 2.048173 1_555
O35 Zn4 2.170128 1_555
O36 Zn7 2.052704 1_555
O37 Zn6 2.052704 1_555
O38 Zn5 2.052704 1_555
O39 Zn4 2.052704 1_555
O40 Zn7 2.060739 1_555
O41 Zn6 2.060739 1_555
O42 Zn5 2.060739 1_555
O43 Zn4 2.060739 1_555
O44 Zn7 2.058258 1_555
O45 Zn6 2.058258 1_545
O46 Zn5 2.058258 1_555
