# generated using pymatgen
data_MgIn2
_symmetry_space_group_name_H-M   'P 1'
_cell_length_a   6.57492934
_cell_length_b   6.57492934
_cell_length_c   7.66146876
_cell_angle_alpha   74.91303769
_cell_angle_beta   74.91303769
_cell_angle_gamma   28.64991245
_symmetry_Int_Tables_number   1
_chemical_formula_structural   MgIn2
_chemical_formula_sum   'Mg2 In4'
_cell_volume   152.96025191
_cell_formula_units_Z   2
loop_
 _symmetry_equiv_pos_site_id
 _symmetry_equiv_pos_as_xyz
  1  'x, y, z'
loop_
 _atom_site_type_symbol
 _atom_site_label
 _atom_site_symmetry_multiplicity
 _atom_site_fract_x
 _atom_site_fract_y
 _atom_site_fract_z
 _atom_site_occupancy
  Mg  Mg0  1  0.36028700  0.36028700  0.02748100  1
  Mg  Mg1  1  0.63971300  0.63971300  0.97251900  1
  In  In0  1  0.02721500  0.02721500  0.70680300  1
  In  In1  1  0.30491700  0.30491700  0.64709500  1
  In  In2  1  0.69508300  0.69508300  0.35290500  1
  In  In3  1  0.97278500  0.97278500  0.29319700  1
loop_
_geom_bond_atom_site_label_1
_geom_bond_atom_site_label_2
_geom_bond_distance
_geom_bond_site_symmetry_2
In0 Mg0 3.224679 1_456
In0 Mg0 3.224679 1_546
In0 Mg1 3.226914 1_455
In0 Mg1 3.226914 1_545
In1 Mg0 3.177347 1_556
In1 Mg1 3.236274 1_545
In1 Mg1 3.236274 1_455
In2 Mg1 3.177347 1_554
In2 Mg0 3.236274 1_565
In2 Mg0 3.236274 1_655
In3 Mg1 3.224679 1_654
In3 Mg1 3.224679 1_564
In3 Mg0 3.226914 1_655
In3 Mg0 3.226914 1_565
