# generated using pymatgen
data_Ti11CuP8
_symmetry_space_group_name_H-M   'P 1'
_cell_length_a   3.44985312
_cell_length_b   9.40577298
_cell_length_c   18.36013816
_cell_angle_alpha   90.00000000
_cell_angle_beta   90.00000000
_cell_angle_gamma   90.00000000
_symmetry_Int_Tables_number   1
_chemical_formula_structural   Ti11CuP8
_chemical_formula_sum   'Ti22 Cu2 P16'
_cell_volume   595.75959048
_cell_formula_units_Z   2
loop_
 _symmetry_equiv_pos_site_id
 _symmetry_equiv_pos_as_xyz
  1  'x, y, z'
loop_
 _atom_site_type_symbol
 _atom_site_label
 _atom_site_symmetry_multiplicity
 _atom_site_fract_x
 _atom_site_fract_y
 _atom_site_fract_z
 _atom_site_occupancy
  Ti  Ti0  1  0.50000000  0.26830402  0.30239162  1
  Ti  Ti1  1  0.50000000  0.73169598  0.69760838  1
  Ti  Ti2  1  0.50000000  0.23169598  0.80239162  1
  Ti  Ti3  1  0.50000000  0.76830402  0.19760838  1
  Ti  Ti4  1  -0.00000000  0.18807852  0.43264385  1
  Ti  Ti5  1  -0.00000000  0.81192148  0.56735615  1
  Ti  Ti6  1  0.00000000  0.31192148  0.93264385  1
  Ti  Ti7  1  0.00000000  0.68807852  0.06735615  1
  Ti  Ti8  1  -0.00000000  0.35524019  0.08762066  1
  Ti  Ti9  1  0.00000000  0.64475981  0.91237934  1
  Ti  Ti10  1  0.00000000  0.14475981  0.58762066  1
  Ti  Ti11  1  -0.00000000  0.85524019  0.41237934  1
  Ti  Ti12  1  0.50000000  0.09808660  0.14506000  1
  Ti  Ti13  1  0.50000000  0.90191340  0.85494000  1
  Ti  Ti14  1  0.50000000  0.40191340  0.64506000  1
  Ti  Ti15  1  0.50000000  0.59808660  0.35494000  1
  Ti  Ti16  1  -0.00000000  0.00604454  0.27199548  1
  Ti  Ti17  1  0.00000000  0.99395546  0.72800452  1
  Ti  Ti18  1  -0.00000000  0.49395546  0.77199548  1
  Ti  Ti19  1  -0.00000000  0.50604454  0.22800452  1
  Ti  Ti20  1  0.00000000  -0.00000000  -0.00000000  1
  Ti  Ti21  1  -0.00000000  0.50000000  0.50000000  1
  Cu  Cu0  1  0.50000000  -0.00000000  0.50000000  1
  Cu  Cu1  1  0.50000000  0.50000000  -0.00000000  1
  P  P0  1  -0.00000000  0.24401680  0.20711579  1
  P  P1  1  -0.00000000  0.75598320  0.79288421  1
  P  P2  1  0.00000000  0.25598320  0.70711579  1
  P  P3  1  -0.00000000  0.74401680  0.29288421  1
  P  P4  1  0.50000000  0.03911196  0.37011652  1
  P  P5  1  0.50000000  0.96088804  0.62988348  1
  P  P6  1  0.50000000  0.46088804  0.87011652  1
  P  P7  1  0.50000000  0.53911196  0.12988348  1
  P  P8  1  0.50000000  0.20570955  0.02064384  1
  P  P9  1  0.50000000  0.79429045  0.97935616  1
  P  P10  1  0.50000000  0.29429045  0.52064384  1
  P  P11  1  0.50000000  0.70570955  0.47935616  1
  P  P12  1  -0.00000000  0.41398478  0.36767977  1
  P  P13  1  -0.00000000  0.58601522  0.63232023  1
  P  P14  1  0.00000000  0.08601522  0.86767977  1
  P  P15  1  0.00000000  0.91398478  0.13232023  1
loop_
_geom_bond_atom_site_label_1
_geom_bond_atom_site_label_2
_geom_bond_distance
_geom_bond_site_symmetry_2
Cu0 P4 2.412888 1_555
Cu0 P5 2.412888 1_545
Cu0 Ti10 2.723467 1_555
Cu0 Ti11 2.723467 1_645
Cu0 Ti10 2.723467 1_655
Cu0 Ti11 2.723467 1_545
Cu0 Ti4 2.762999 1_555
Cu0 Ti5 2.762999 1_545
Cu0 Ti5 2.762999 1_645
Cu0 Ti4 2.762999 1_655
Cu0 P10 2.793858 1_555
Cu0 P11 2.793858 1_545
Cu1 P7 2.412888 1_555
Cu1 P6 2.412888 1_554
Cu1 Ti8 2.723467 1_655
Cu1 Ti9 2.723467 1_654
Cu1 Ti8 2.723467 1_555
Cu1 Ti9 2.723467 1_554
Cu1 Ti6 2.762999 1_654
Cu1 Ti6 2.762999 1_554
Cu1 Ti7 2.762999 1_655
Cu1 Ti7 2.762999 1_555
Cu1 P8 2.793858 1_555
Cu1 P9 2.793858 1_554
P0 Ti8 2.430600 1_555
P0 Ti0 2.467292 1_555
P0 Ti0 2.467292 1_455
P0 Ti12 2.481429 1_455
P0 Ti12 2.481429 1_555
P0 Ti19 2.494235 1_555
P0 Ti16 2.535548 1_555
P1 Ti9 2.430600 1_555
P1 Ti1 2.467292 1_455
P1 Ti1 2.467292 1_555
P1 Ti13 2.481429 1_455
P1 Ti13 2.481429 1_555
P1 Ti18 2.494235 1_555
P1 Ti17 2.535548 1_555
P2 Ti10 2.430600 1_555
P2 Ti2 2.467292 1_455
P2 Ti2 2.467292 1_555
P2 Ti14 2.481429 1_455
P2 Ti14 2.481429 1_555
P2 Ti17 2.494235 1_545
P2 Ti18 2.535548 1_555
P3 Ti11 2.430600 1_555
P3 Ti3 2.467292 1_455
P3 Ti3 2.467292 1_555
P3 Ti15 2.481429 1_455
P3 Ti15 2.481429 1_555
P3 Ti16 2.494235 1_565
P3 Ti19 2.535548 1_555
P4 Ti0 2.488635 1_555
P4 Ti4 2.501301 1_555
P4 Ti4 2.501301 1_655
P4 Ti16 2.513477 1_655
P4 Ti16 2.513477 1_555
P4 Ti11 2.562907 1_545
P4 Ti11 2.562907 1_645
P5 Ti1 2.488635 1_555
P5 Ti5 2.501301 1_655
P5 Ti5 2.501301 1_555
P5 Ti17 2.513477 1_555
P5 Ti17 2.513477 1_655
P5 Ti10 2.562907 1_565
P5 Ti10 2.562907 1_665
P6 Ti2 2.488635 1_555
P6 Ti6 2.501301 1_555
P6 Ti6 2.501301 1_655
P6 Ti18 2.513477 1_655
P6 Ti18 2.513477 1_555
P6 Ti9 2.562907 1_655
P6 Ti9 2.562907 1_555
P7 Ti3 2.488635 1_555
P7 Ti7 2.501301 1_555
P7 Ti7 2.501301 1_655
P7 Ti19 2.513477 1_655
P7 Ti19 2.513477 1_555
P7 Ti8 2.562907 1_555
P7 Ti8 2.562907 1_655
P8 Ti12 2.498544 1_555
P8 Ti8 2.542764 1_655
P8 Ti8 2.542764 1_555
P8 Ti6 2.565900 1_554
P8 Ti6 2.565900 1_654
P8 Ti20 2.619676 1_555
P8 Ti20 2.619676 1_655
P9 Ti13 2.498544 1_555
P9 Ti9 2.542764 1_655
P9 Ti9 2.542764 1_555
P9 Ti7 2.565900 1_556
P9 Ti7 2.565900 1_656
P9 Ti20 2.619676 1_566
P9 Ti20 2.619676 1_666
P10 Ti14 2.498544 1_555
P10 Ti10 2.542764 1_555
P10 Ti10 2.542764 1_655
P10 Ti4 2.565900 1_655
P10 Ti4 2.565900 1_555
P10 Ti21 2.619676 1_555
P10 Ti21 2.619676 1_655
P11 Ti15 2.498544 1_555
P11 Ti11 2.542764 1_555
P11 Ti11 2.542764 1_655
P11 Ti5 2.565900 1_555
P11 Ti5 2.565900 1_655
P11 Ti21 2.619676 1_655
P11 Ti21 2.619676 1_555
P12 Ti4 2.436704 1_555
P12 Ti15 2.455319 1_555
P12 Ti15 2.455319 1_455
P12 Ti0 2.507949 1_455
P12 Ti0 2.507949 1_555
P12 Ti21 2.560589 1_555
P12 Ti19 2.706697 1_555
P13 Ti5 2.436704 1_555
P13 Ti14 2.455319 1_455
P13 Ti14 2.455319 1_555
P13 Ti1 2.507949 1_455
P13 Ti1 2.507949 1_555
P13 Ti21 2.560589 1_555
P13 Ti18 2.706697 1_555
P14 Ti6 2.436704 1_555
P14 Ti13 2.455319 1_445
P14 Ti13 2.455319 1_545
P14 Ti2 2.507949 1_455
P14 Ti2 2.507949 1_555
P14 Ti20 2.560589 1_556
P14 Ti17 2.706697 1_545
P15 Ti7 2.436704 1_555
P15 Ti12 2.455319 1_465
P15 Ti12 2.455319 1_565
P15 Ti3 2.507949 1_555
P15 Ti3 2.507949 1_455
P15 Ti20 2.560589 1_565
P15 Ti16 2.706697 1_565
