# generated using pymatgen
data_Tl2CoH12(SeO7)2
_symmetry_space_group_name_H-M   'P 1'
_cell_length_a   12.68615700
_cell_length_b   6.34138700
_cell_length_c   9.42982052
_cell_angle_alpha   75.18839626
_cell_angle_beta   90.00000000
_cell_angle_gamma   90.00000000
_symmetry_Int_Tables_number   1
_chemical_formula_structural   Tl2CoH12(SeO7)2
_chemical_formula_sum   'Tl4 Co2 H24 Se4 O28'
_cell_volume   733.40128443
_cell_formula_units_Z   2
loop_
 _symmetry_equiv_pos_site_id
 _symmetry_equiv_pos_as_xyz
  1  'x, y, z'
loop_
 _atom_site_type_symbol
 _atom_site_label
 _atom_site_symmetry_multiplicity
 _atom_site_fract_x
 _atom_site_fract_y
 _atom_site_fract_z
 _atom_site_occupancy
  Tl  Tl0  1  0.15247600  0.65022500  0.63306200  1
  Tl  Tl1  1  0.65247600  0.34977500  0.86693800  1
  Tl  Tl2  1  0.84752400  0.34977500  0.36693800  1
  Tl  Tl3  1  0.34752400  0.65022500  0.13306200  1
  Co  Co0  1  0.50000000  0.00000000  0.50000000  1
  Co  Co1  1  0.00000000  0.00000000  0.00000000  1
  H  H0  1  0.41412300  0.68665700  0.69965100  1
  H  H1  1  0.91412300  0.31334300  0.80034900  1
  H  H2  1  0.58587700  0.31334300  0.30034900  1
  H  H3  1  0.08587700  0.68665700  0.19965100  1
  H  H4  1  0.37246800  0.90715200  0.73531000  1
  H  H5  1  0.87246800  0.09284800  0.76469000  1
  H  H6  1  0.62753200  0.09284800  0.26469000  1
  H  H7  1  0.12753200  0.90715200  0.23531000  1
  H  H8  1  0.40361600  0.06410000  0.23719100  1
  H  H9  1  0.90361600  0.93590000  0.26280900  1
  H  H10  1  0.59638400  0.93590000  0.76280900  1
  H  H11  1  0.09638400  0.06410000  0.73719100  1
  H  H12  1  0.31589100  0.99220600  0.36193400  1
  H  H13  1  0.81589100  0.00779400  0.13806600  1
  H  H14  1  0.68410900  0.00779400  0.63806600  1
  H  H15  1  0.18410900  0.99220600  0.86193400  1
  H  H16  1  0.55127700  0.67128500  0.40238200  1
  H  H17  1  0.05127700  0.32871500  0.09761800  1
  H  H18  1  0.44872300  0.32871500  0.59761800  1
  H  H19  1  0.94872300  0.67128500  0.90238200  1
  H  H20  1  0.63558300  0.67499000  0.52681400  1
  H  H21  1  0.13558300  0.32501000  0.97318600  1
  H  H22  1  0.36441700  0.32501000  0.47318600  1
  H  H23  1  0.86441700  0.67499000  0.02681400  1
  Se  Se0  1  0.36310700  0.26348700  0.90776000  1
  Se  Se1  1  0.86310700  0.73651300  0.59224000  1
  Se  Se2  1  0.63689300  0.73651300  0.09224000  1
  Se  Se3  1  0.13689300  0.26348700  0.40776000  1
  O  O0  1  0.25955100  0.42481300  0.91749300  1
  O  O1  1  0.75955100  0.57518700  0.58250700  1
  O  O2  1  0.74044900  0.57518700  0.08250700  1
  O  O3  1  0.24044900  0.42481300  0.41749300  1
  O  O4  1  0.43332100  0.21817200  0.06266100  1
  O  O5  1  0.93332100  0.78182800  0.43733900  1
  O  O6  1  0.56667900  0.78182800  0.93733900  1
  O  O7  1  0.06667900  0.21817200  0.56266100  1
  O  O8  1  0.44116200  0.39496700  0.76824200  1
  O  O9  1  0.94116200  0.60503300  0.73175800  1
  O  O10  1  0.55883800  0.60503300  0.23175800  1
  O  O11  1  0.05883800  0.39496700  0.26824200  1
  O  O12  1  0.32004400  0.02618400  0.87853600  1
  O  O13  1  0.82004400  0.97381600  0.62146400  1
  O  O14  1  0.67995600  0.97381600  0.12146400  1
  O  O15  1  0.17995600  0.02618400  0.37853600  1
  O  O16  1  0.39056200  0.83903700  0.65499900  1
  O  O17  1  0.89056200  0.16096300  0.84500100  1
  O  O18  1  0.60943800  0.16096300  0.34500100  1
  O  O19  1  0.10943800  0.83903700  0.15499900  1
  O  O20  1  0.39009800  0.96599400  0.33629300  1
  O  O21  1  0.89009800  0.03400600  0.16370700  1
  O  O22  1  0.60990200  0.03400600  0.66370700  1
  O  O23  1  0.10990200  0.96599400  0.83629300  1
  O  O24  1  0.56030800  0.70807400  0.49785500  1
  O  O25  1  0.06030800  0.29192600  0.00214500  1
  O  O26  1  0.43969200  0.29192600  0.50214500  1
  O  O27  1  0.93969200  0.70807400  0.99785500  1
loop_
_geom_bond_atom_site_label_1
_geom_bond_atom_site_label_2
_geom_bond_distance
_geom_bond_site_symmetry_2
Co0 O26 2.007958 1_555
Co0 O24 2.007958 1_545
Co0 O18 2.083967 1_555
Co0 O16 2.083967 1_545
Co0 O22 2.131594 1_555
Co0 O20 2.131594 1_545
Co1 O25 2.007958 1_555
Co1 O27 2.007958 1_444
Co1 O17 2.083967 1_454
Co1 O19 2.083967 1_545
Co1 O21 2.131594 1_455
Co1 O23 2.131594 1_544
H0 O16 0.996164 1_555
H1 O17 0.996164 1_555
H2 O18 0.996164 1_555
H3 O19 0.996164 1_555
H4 O16 0.989973 1_555
H5 O17 0.989973 1_555
H6 O18 0.989973 1_555
H7 O19 0.989973 1_555
H8 O20 0.996251 1_545
H8 O4 1.727159 1_555
H9 O21 0.996251 1_565
H9 O5 1.727159 1_555
H10 O22 0.996251 1_565
H10 O6 1.727159 1_555
H11 O23 0.996251 1_545
H11 O7 1.727159 1_555
H12 O20 0.996432 1_555
H13 O21 0.996432 1_555
H14 O22 0.996432 1_555
H15 O23 0.996432 1_555
H16 O24 0.992706 1_555
H17 O25 0.992706 1_555
H18 O26 0.992706 1_555
H19 O27 0.992706 1_555
H20 O24 1.000612 1_555
H20 O1 1.726190 1_555
H21 O25 1.000612 1_556
H21 O0 1.726190 1_555
H22 O26 1.000612 1_555
H22 O3 1.726190 1_555
H23 O27 1.000612 1_554
H23 O2 1.726190 1_555
O0 Se0 1.681934 1_555
O1 Se1 1.681934 1_555
O2 Se2 1.681934 1_555
O3 Se3 1.681934 1_555
O4 Se0 1.671828 1_554
O5 Se1 1.671828 1_555
O6 Se2 1.671828 1_556
O7 Se3 1.671828 1_555
O8 Se0 1.686932 1_555
O8 Tl1 2.828149 1_555
O9 Se1 1.686932 1_555
O9 Tl0 2.828149 1_655
O10 Se2 1.686932 1_555
O10 Tl3 2.828149 1_555
O11 Se3 1.686932 1_555
O11 Tl2 2.828149 1_455
O12 Se0 1.688470 1_555
O13 Se1 1.688470 1_555
O14 Se2 1.688470 1_555
O15 Se3 1.688470 1_555
