# generated using pymatgen
data_CaCO3
_symmetry_space_group_name_H-M   'P 1'
_cell_length_a   7.22808400
_cell_length_b   7.26345356
_cell_length_c   26.00444062
_cell_angle_alpha   82.20230341
_cell_angle_beta   82.35132484
_cell_angle_gamma   60.19834816
_symmetry_Int_Tables_number   1
_chemical_formula_structural   CaCO3
_chemical_formula_sum   'Ca18 C18 O54'
_cell_volume   1170.31828057
_cell_formula_units_Z   18
loop_
 _symmetry_equiv_pos_site_id
 _symmetry_equiv_pos_as_xyz
  1  'x, y, z'
loop_
 _atom_site_type_symbol
 _atom_site_label
 _atom_site_symmetry_multiplicity
 _atom_site_fract_x
 _atom_site_fract_y
 _atom_site_fract_z
 _atom_site_occupancy
  Ca  Ca0  1  0.35359600  0.34690600  0.49993000  1
  Ca  Ca1  1  0.64640400  0.65309400  0.50007000  1
  Ca  Ca2  1  0.62048800  0.58048500  0.66621200  1
  Ca  Ca3  1  0.37951200  0.41951500  0.33378800  1
  Ca  Ca4  1  0.92378500  0.97874300  0.66714800  1
  Ca  Ca5  1  0.07621500  0.02125700  0.33285200  1
  Ca  Ca6  1  0.88750600  0.88812700  0.83260200  1
  Ca  Ca7  1  0.11249400  0.11187300  0.16739800  1
  Ca  Ca8  1  0.27224900  0.27049400  0.66666900  1
  Ca  Ca9  1  0.72775100  0.72950600  0.33333100  1
  Ca  Ca10  1  0.58168700  0.53733300  0.83373200  1
  Ca  Ca11  1  0.41831300  0.46266700  0.16626800  1
  Ca  Ca12  1  0.19050100  0.23230800  0.83339800  1
  Ca  Ca13  1  0.80949900  0.76769200  0.16660200  1
  Ca  Ca14  1  0.15089900  0.20105600  0.99873100  1
  Ca  Ca15  1  0.84910100  0.79894400  0.00126900  1
  Ca  Ca16  1  0.00000000  0.00000000  0.50000000  1
  Ca  Ca17  1  0.50000000  0.50000000  0.00000000  1
  C  C0  1  0.91287200  0.61516500  0.74638400  1
  C  C1  1  0.08712800  0.38483500  0.25361600  1
  C  C2  1  0.54161900  0.24432700  0.75442500  1
  C  C3  1  0.45838100  0.75567300  0.24557500  1
  C  C4  1  0.63667300  0.93368200  0.58455200  1
  C  C5  1  0.36332700  0.06631800  0.41544800  1
  C  C6  1  0.28592800  0.87361100  0.74929900  1
  C  C7  1  0.71407200  0.12638900  0.25070100  1
  C  C8  1  0.01560000  0.30282600  0.57804500  1
  C  C9  1  0.98440000  0.69717400  0.42195500  1
  C  C10  1  0.23113000  0.53187200  0.91091900  1
  C  C11  1  0.76887000  0.46812800  0.08908100  1
  C  C12  1  0.85914000  0.14543000  0.92117800  1
  C  C13  1  0.14086000  0.85457000  0.07882200  1
  C  C14  1  0.26014600  0.67914700  0.58786300  1
  C  C15  1  0.73985400  0.32085300  0.41213700  1
  C  C16  1  0.50759800  0.10360100  0.08377300  1
  C  C17  1  0.49240200  0.89639900  0.91622700  1
  O  O0  1  0.65702400  0.03751200  0.54126000  1
  O  O1  1  0.34297600  0.96248800  0.45874000  1
  O  O2  1  0.87316400  0.25025400  0.87766300  1
  O  O3  1  0.12683600  0.74974600  0.12233700  1
  O  O4  1  0.22020100  0.97243400  0.70407800  1
  O  O5  1  0.77979900  0.02756600  0.29592200  1
  O  O6  1  0.08757700  0.86281500  0.58600200  1
  O  O7  1  0.91242300  0.13718500  0.41399800  1
  O  O8  1  0.60591100  0.22636500  0.80016100  1
  O  O9  1  0.39408900  0.77363500  0.19983900  1
  O  O10  1  0.19866100  0.29213400  0.58061700  1
  O  O11  1  0.80133900  0.70786600  0.41938300  1
  O  O12  1  0.36473400  0.60399900  0.54425600  1
  O  O13  1  0.63526600  0.39600100  0.45574400  1
  O  O14  1  0.90511200  0.29519700  0.62102700  1
  O  O15  1  0.09488800  0.70480300  0.37897300  1
  O  O16  1  0.32269200  0.57721300  0.63266800  1
  O  O17  1  0.67730800  0.42278700  0.36733200  1
  O  O18  1  0.59028100  0.82559200  0.87149600  1
  O  O19  1  0.40971900  0.17440800  0.12850400  1
  O  O20  1  0.94974700  0.32054100  0.53255600  1
  O  O21  1  0.05025300  0.67945900  0.46744400  1
  O  O22  1  0.17670400  0.54619400  0.86417700  1
  O  O23  1  0.82329600  0.45380600  0.13582300  1
  O  O24  1  0.93048000  0.54390000  0.70179600  1
  O  O25  1  0.06952000  0.45610000  0.29820400  1
  O  O26  1  0.18143700  0.95074400  0.79286400  1
  O  O27  1  0.81856300  0.04925600  0.20713600  1
  O  O28  1  0.11803600  0.51472500  0.95221900  1
  O  O29  1  0.88196400  0.48527500  0.04778100  1
  O  O30  1  0.90868500  0.79552700  0.74753900  1
  O  O31  1  0.09131500  0.20447300  0.25246100  1
  O  O32  1  0.62037400  0.99926700  0.63006800  1
  O  O33  1  0.37962600  0.00073300  0.36993200  1
  O  O34  1  0.83843800  0.21544700  0.96617700  1
  O  O35  1  0.16156200  0.78455300  0.03382300  1
  O  O36  1  0.63217300  0.75806400  0.58280600  1
  O  O37  1  0.36782700  0.24193600  0.41719400  1
  O  O38  1  0.31550900  0.07698700  0.91658000  1
  O  O39  1  0.68449100  0.92301300  0.08342000  1
  O  O40  1  0.36407400  0.24455400  0.75134100  1
  O  O41  1  0.63592600  0.75544600  0.24865900  1
  O  O42  1  0.86619300  0.96462000  0.91926400  1
  O  O43  1  0.13380700  0.03538000  0.08073600  1
  O  O44  1  0.64995400  0.26126200  0.71193700  1
  O  O45  1  0.35004600  0.73873800  0.28806300  1
  O  O46  1  0.46146600  0.69240200  0.75043100  1
  O  O47  1  0.53853400  0.30759800  0.24956900  1
  O  O48  1  0.56527400  0.79294400  0.96043300  1
  O  O49  1  0.43472600  0.20705600  0.03956700  1
  O  O50  1  0.89909200  0.51208000  0.79007200  1
  O  O51  1  0.10090800  0.48792000  0.20992800  1
  O  O52  1  0.40616500  0.53465600  0.91587200  1
  O  O53  1  0.59383500  0.46534400  0.08412800  1
loop_
_geom_bond_atom_site_label_1
_geom_bond_atom_site_label_2
_geom_bond_distance
_geom_bond_site_symmetry_2
Ca0 O10 2.325034 1_555
Ca0 O37 2.351410 1_555
Ca0 O13 2.362247 1_555
Ca0 O12 2.362302 1_555
Ca0 O21 2.455737 1_555
Ca0 O0 2.467473 1_555
Ca1 O11 2.325034 1_555
Ca1 O36 2.351410 1_555
Ca1 O12 2.362247 1_555
Ca1 O13 2.362302 1_555
Ca1 O20 2.455737 1_555
Ca1 O1 2.467473 1_555
Ca2 O46 2.379624 1_555
Ca2 O44 2.379879 1_555
Ca2 O36 2.382321 1_555
Ca2 O14 2.384686 1_555
Ca2 O24 2.416761 1_555
Ca2 O16 2.439463 1_555
Ca3 O47 2.379624 1_555
Ca3 O45 2.379879 1_555
Ca3 O37 2.382321 1_555
Ca3 O15 2.384686 1_555
Ca3 O25 2.416761 1_555
Ca3 O17 2.439463 1_555
Ca4 O6 2.321558 1_655
Ca4 O30 2.341347 1_555
Ca4 O44 2.341520 1_565
Ca4 O14 2.393042 1_565
Ca4 O4 2.439863 1_655
Ca4 O32 2.441420 1_555
Ca5 O7 2.321558 1_455
Ca5 O31 2.341347 1_555
Ca5 O45 2.341520 1_545
Ca5 O15 2.393042 1_545
Ca5 O5 2.439863 1_455
Ca5 O33 2.441420 1_555
Ca6 O42 2.360803 1_555
Ca6 O30 2.362216 1_555
Ca6 O8 2.411316 1_565
Ca6 O22 2.440319 1_655
Ca6 O26 2.457026 1_655
Ca6 O18 2.472177 1_555
Ca7 O43 2.360803 1_555
Ca7 O31 2.362216 1_555
Ca7 O9 2.411316 1_545
Ca7 O23 2.440319 1_455
Ca7 O27 2.457026 1_455
Ca7 O19 2.472177 1_555
Ca8 O10 2.335246 1_555
Ca8 O40 2.340150 1_555
Ca8 O24 2.428142 1_455
Ca8 O4 2.432187 1_545
Ca8 O32 2.462209 1_545
Ca8 O16 2.462734 1_555
Ca9 O11 2.335246 1_555
Ca9 O41 2.340150 1_555
Ca9 O25 2.428142 1_655
Ca9 O5 2.432187 1_565
Ca9 O33 2.462209 1_565
Ca9 O17 2.462734 1_555
Ca10 O52 2.337593 1_555
Ca10 O50 2.351808 1_555
Ca10 O46 2.362686 1_555
Ca10 O2 2.391511 1_555
Ca10 O8 2.448627 1_555
Ca10 O18 2.460795 1_555
Ca11 O53 2.337593 1_555
Ca11 O51 2.351808 1_555
Ca11 O47 2.362686 1_555
Ca11 O3 2.391511 1_555
Ca11 O9 2.448627 1_555
Ca11 O19 2.460795 1_555
Ca12 O40 2.341370 1_555
Ca12 O50 2.364600 1_455
Ca12 O38 2.369186 1_555
Ca12 O2 2.375692 1_455
Ca12 O26 2.456503 1_545
Ca12 O22 2.469092 1_555
Ca13 O41 2.341370 1_555
Ca13 O51 2.364600 1_655
Ca13 O39 2.369186 1_555
Ca13 O3 2.375692 1_655
Ca13 O27 2.456503 1_565
Ca13 O23 2.469092 1_555
Ca14 O43 2.322116 1_556
Ca14 O28 2.345398 1_555
Ca14 O38 2.360401 1_555
Ca14 O29 2.394375 1_456
Ca14 O49 2.453503 1_556
Ca14 O34 2.465491 1_455
Ca15 O42 2.322116 1_554
Ca15 O29 2.345398 1_555
Ca15 O39 2.360401 1_555
Ca15 O28 2.394375 1_654
Ca15 O48 2.453503 1_554
Ca15 O35 2.465491 1_655
Ca16 O7 2.353808 1_455
Ca16 O6 2.353808 1_545
Ca16 O21 2.425228 1_545
Ca16 O20 2.425228 1_455
Ca16 O0 2.463949 1_455
Ca16 O1 2.463949 1_545
Ca17 O52 2.320618 1_554
Ca17 O53 2.320618 1_555
Ca17 O35 2.434023 1_555
Ca17 O34 2.434023 1_554
Ca17 O49 2.466439 1_555
Ca17 O48 2.466439 1_554
C0 O50 1.293993 1_555
C0 O24 1.298707 1_555
C0 O30 1.299645 1_555
C1 O51 1.293993 1_555
C1 O25 1.298707 1_555
C1 O31 1.299645 1_555
C2 O44 1.295227 1_555
C2 O40 1.295599 1_555
C2 O8 1.300868 1_555
C3 O45 1.295227 1_555
C3 O41 1.295599 1_555
C3 O9 1.300868 1_555
C4 O36 1.299080 1_555
C4 O0 1.301382 1_565
C4 O32 1.304553 1_555
C5 O37 1.299080 1_555
C5 O1 1.301382 1_545
C5 O33 1.304553 1_555
C6 O46 1.297139 1_555
C6 O26 1.300614 1_555
C6 O4 1.305561 1_555
C7 O47 1.297139 1_555
C7 O27 1.300614 1_555
C7 O5 1.305561 1_555
C8 O14 1.296044 1_455
C8 O10 1.296656 1_555
C8 O20 1.300045 1_455
C9 O15 1.296044 1_655
C9 O11 1.296656 1_555
C9 O21 1.300045 1_655
C10 O28 1.291659 1_555
C10 O52 1.298908 1_555
C10 O22 1.302044 1_555
C11 O29 1.291659 1_555
C11 O53 1.298908 1_555
C11 O23 1.302044 1_555
C12 O42 1.296286 1_545
C12 O2 1.297249 1_555
C12 O34 1.299833 1_555
C13 O43 1.296286 1_565
C13 O3 1.297249 1_555
C13 O35 1.299833 1_555
C14 O6 1.297087 1_555
C14 O16 1.297502 1_555
C14 O12 1.298048 1_555
C15 O7 1.297087 1_555
C15 O17 1.297502 1_555
C15 O13 1.298048 1_555
C16 O39 1.299429 1_545
C16 O49 1.302662 1_555
C16 O19 1.303715 1_555
C17 O38 1.299429 1_565
C17 O48 1.302662 1_555
C17 O18 1.303715 1_555
