# generated using pymatgen
data_U2SbSe2
_symmetry_space_group_name_H-M   'P 1'
_cell_length_a   5.70295000
_cell_length_b   5.70295000
_cell_length_c   33.95188000
_cell_angle_alpha   90.00000000
_cell_angle_beta   90.00000000
_cell_angle_gamma   90.00000000
_symmetry_Int_Tables_number   1
_chemical_formula_structural   U2SbSe2
_chemical_formula_sum   'U16 Sb8 Se16'
_cell_volume   1104.23867839
_cell_formula_units_Z   8
loop_
 _symmetry_equiv_pos_site_id
 _symmetry_equiv_pos_as_xyz
  1  'x, y, z'
loop_
 _atom_site_type_symbol
 _atom_site_label
 _atom_site_symmetry_multiplicity
 _atom_site_fract_x
 _atom_site_fract_y
 _atom_site_fract_z
 _atom_site_occupancy
  U  U0_0  1  0.25000000  0.25000000  0.09551250  1
  U  U0_1  1  0.25000000  0.25000000  0.59551250  1
  U  U0_2  1  0.25000000  0.75000000  0.09551250  1
  U  U0_3  1  0.25000000  0.75000000  0.59551250  1
  U  U0_4  1  0.75000000  0.25000000  0.09551250  1
  U  U0_5  1  0.75000000  0.25000000  0.59551250  1
  U  U0_6  1  0.75000000  0.75000000  0.09551250  1
  U  U0_7  1  0.75000000  0.75000000  0.59551250  1
  U  U1_0  1  0.25000000  0.25000000  0.40448750  1
  U  U1_1  1  0.25000000  0.25000000  0.90448750  1
  U  U1_2  1  0.25000000  0.75000000  0.40448750  1
  U  U1_3  1  0.25000000  0.75000000  0.90448750  1
  U  U1_4  1  0.75000000  0.25000000  0.40448750  1
  U  U1_5  1  0.75000000  0.25000000  0.90448750  1
  U  U1_6  1  0.75000000  0.75000000  0.40448750  1
  U  U1_7  1  0.75000000  0.75000000  0.90448750  1
  Sb  Sb0_0  1  0.25000000  0.25000000  0.00000000  1
  Sb  Sb0_1  1  0.25000000  0.25000000  0.50000000  1
  Sb  Sb0_2  1  0.25000000  0.75000000  0.00000000  1
  Sb  Sb0_3  1  0.25000000  0.75000000  0.50000000  1
  Sb  Sb0_4  1  0.75000000  0.25000000  0.00000000  1
  Sb  Sb0_5  1  0.75000000  0.25000000  0.50000000  1
  Sb  Sb0_6  1  0.75000000  0.75000000  0.00000000  1
  Sb  Sb0_7  1  0.75000000  0.75000000  0.50000000  1
  Se  Se0_0  1  0.25000000  0.25000000  0.32173000  1
  Se  Se0_1  1  0.25000000  0.25000000  0.82173000  1
  Se  Se0_2  1  0.25000000  0.75000000  0.32173000  1
  Se  Se0_3  1  0.25000000  0.75000000  0.82173000  1
  Se  Se0_4  1  0.75000000  0.25000000  0.32173000  1
  Se  Se0_5  1  0.75000000  0.25000000  0.82173000  1
  Se  Se0_6  1  0.75000000  0.75000000  0.32173000  1
  Se  Se0_7  1  0.75000000  0.75000000  0.82173000  1
  Se  Se1_0  1  0.25000000  0.25000000  0.17827000  1
  Se  Se1_1  1  0.25000000  0.25000000  0.67827000  1
  Se  Se1_2  1  0.25000000  0.75000000  0.17827000  1
  Se  Se1_3  1  0.25000000  0.75000000  0.67827000  1
  Se  Se1_4  1  0.75000000  0.25000000  0.17827000  1
  Se  Se1_5  1  0.75000000  0.25000000  0.67827000  1
  Se  Se1_6  1  0.75000000  0.75000000  0.17827000  1
  Se  Se1_7  1  0.75000000  0.75000000  0.67827000  1
loop_
_geom_bond_atom_site_label_1
_geom_bond_atom_site_label_2
_geom_bond_distance
_geom_bond_site_symmetry_2
U0_0 U0_4 2.851475 1_555
U0_0 U0_2 2.851475 1_555
U0_0 U0_4 2.851475 1_455
U0_0 U0_2 2.851475 1_545
U0_1 U0_5 2.851475 1_555
U0_1 U0_3 2.851475 1_555
U0_1 U0_5 2.851475 1_455
U0_1 U0_3 2.851475 1_545
U0_2 U0_6 2.851475 1_455
U0_2 U0_6 2.851475 1_555
U0_3 U0_7 2.851475 1_455
U0_3 U0_7 2.851475 1_555
U0_4 U0_6 2.851475 1_545
U0_4 U0_6 2.851475 1_555
U0_5 U0_7 2.851475 1_545
U0_5 U0_7 2.851475 1_555
U1_0 U1_4 2.851475 1_455
U1_0 U1_4 2.851475 1_555
U1_0 U1_2 2.851475 1_555
U1_0 U1_2 2.851475 1_545
U1_1 U1_3 2.851475 1_545
U1_1 U1_3 2.851475 1_555
U1_1 U1_5 2.851475 1_455
U1_1 U1_5 2.851475 1_555
U1_2 U1_6 2.851475 1_555
U1_2 U1_6 2.851475 1_455
U1_3 U1_7 2.851475 1_555
U1_3 U1_7 2.851475 1_455
U1_4 U1_6 2.851475 1_555
U1_4 U1_6 2.851475 1_545
U1_5 U1_7 2.851475 1_555
U1_5 U1_7 2.851475 1_545
Sb0_0 Sb0_2 2.851475 1_545
Sb0_0 Sb0_2 2.851475 1_555
Sb0_0 Sb0_4 2.851475 1_455
Sb0_0 Sb0_4 2.851475 1_555
Sb0_0 U0_0 3.242829 1_555
Sb0_0 U1_1 3.242829 1_554
Sb0_1 Sb0_5 2.851475 1_455
Sb0_1 Sb0_5 2.851475 1_555
Sb0_1 Sb0_3 2.851475 1_555
Sb0_1 Sb0_3 2.851475 1_545
Sb0_1 U0_1 3.242829 1_555
Sb0_1 U1_0 3.242829 1_555
Sb0_2 Sb0_6 2.851475 1_455
Sb0_2 Sb0_6 2.851475 1_555
Sb0_2 U0_2 3.242829 1_555
Sb0_2 U1_3 3.242829 1_554
Sb0_3 Sb0_7 2.851475 1_455
Sb0_3 Sb0_7 2.851475 1_555
Sb0_3 U0_3 3.242829 1_555
Sb0_3 U1_2 3.242829 1_555
Sb0_4 Sb0_6 2.851475 1_545
Sb0_4 Sb0_6 2.851475 1_555
Sb0_4 U0_4 3.242829 1_555
Sb0_4 U1_5 3.242829 1_554
Sb0_5 Sb0_7 2.851475 1_545
Sb0_5 Sb0_7 2.851475 1_555
Sb0_5 U0_5 3.242829 1_555
Sb0_5 U1_4 3.242829 1_555
Sb0_6 U1_7 3.242829 1_554
Sb0_6 U0_6 3.242829 1_555
Sb0_7 U1_6 3.242829 1_555
Sb0_7 U0_7 3.242829 1_555
Se0_0 U1_0 2.809773 1_555
Se0_1 U1_1 2.809773 1_555
Se0_2 U1_2 2.809773 1_555
Se0_3 U1_3 2.809773 1_555
Se0_4 U1_4 2.809773 1_555
Se0_5 U1_5 2.809773 1_555
Se0_6 U1_6 2.809773 1_555
Se0_7 U1_7 2.809773 1_555
Se1_0 U0_0 2.809773 1_555
Se1_1 U0_1 2.809773 1_555
Se1_2 U0_2 2.809773 1_555
Se1_3 U0_3 2.809773 1_555
Se1_4 U0_4 2.809773 1_555
Se1_5 U0_5 2.809773 1_555
Se1_6 U0_6 2.809773 1_555
Se1_7 U0_7 2.809773 1_555
