# generated using pymatgen
data_HfMg14Ga
_symmetry_space_group_name_H-M   'P 1'
_cell_length_a   6.35494947
_cell_length_b   6.20642932
_cell_length_c   10.23307740
_cell_angle_alpha   90.00000000
_cell_angle_beta   90.00000000
_cell_angle_gamma   119.22987085
_symmetry_Int_Tables_number   1
_chemical_formula_structural   HfMg14Ga
_chemical_formula_sum   'Hf1 Mg14 Ga1'
_cell_volume   352.21596256
_cell_formula_units_Z   1
loop_
 _symmetry_equiv_pos_site_id
 _symmetry_equiv_pos_as_xyz
  1  'x, y, z'
loop_
 _atom_site_type_symbol
 _atom_site_label
 _atom_site_symmetry_multiplicity
 _atom_site_fract_x
 _atom_site_fract_y
 _atom_site_fract_z
 _atom_site_occupancy
  Hf  Hf0  1  0.16136883  0.83068392  0.12500000  1
  Mg  Mg0  1  0.16563511  0.33281706  0.62500000  1
  Mg  Mg1  1  0.16642082  0.83320991  0.62500000  1
  Mg  Mg2  1  0.66428100  0.33460950  0.12500000  1
  Mg  Mg3  1  0.66593906  0.33195528  0.62500000  1
  Mg  Mg4  1  0.66428100  0.82967050  0.12500000  1
  Mg  Mg5  1  0.66593906  0.83398278  0.62500000  1
  Mg  Mg6  1  0.33222256  0.16505733  0.37205563  1
  Mg  Mg7  1  0.33222256  0.16505733  0.87794437  1
  Mg  Mg8  1  0.33222256  0.66716623  0.37205563  1
  Mg  Mg9  1  0.33222256  0.66716623  0.87794437  1
  Mg  Mg10  1  0.83609356  0.16804728  0.37131776  1
  Mg  Mg11  1  0.83609356  0.16804728  0.87868224  1
  Mg  Mg12  1  0.83761511  0.66880805  0.37454199  1
  Mg  Mg13  1  0.83761511  0.66880805  0.87545801  1
  Ga  Ga0  1  0.16982755  0.33491328  0.12500000  1
loop_
_geom_bond_atom_site_label_1
_geom_bond_atom_site_label_2
_geom_bond_distance
_geom_bond_site_symmetry_2
Hf0 Mg9 3.110703 1_554
Hf0 Mg8 3.110703 1_555
Hf0 Mg7 3.110709 1_564
Hf0 Mg6 3.110709 1_565
Hf0 Mg12 3.121612 1_455
Hf0 Mg13 3.121612 1_454
Hf0 Mg2 3.155901 1_455
Hf0 Mg4 3.155901 1_455
Hf0 Mg2 3.199057 1_565
Hf0 Mg4 3.199058 1_555
Mg0 Mg1 3.103218 1_555
Mg0 Mg1 3.103218 1_545
Mg0 Mg6 3.159293 1_555
Mg0 Mg7 3.159293 1_555
Mg0 Mg8 3.159299 1_555
Mg0 Mg9 3.159299 1_555
Mg0 Mg5 3.172935 1_445
Mg0 Mg3 3.172935 1_455
Mg0 Mg11 3.174732 1_455
Mg0 Mg10 3.174732 1_455
Mg0 Mg5 3.182021 1_555
Mg0 Mg3 3.182022 1_555
Mg1 Mg13 3.145443 1_455
Mg1 Mg12 3.145443 1_455
Mg1 Mg8 3.151585 1_555
Mg1 Mg9 3.151585 1_555
Mg1 Mg6 3.151591 1_565
Mg1 Mg7 3.151591 1_565
Mg1 Mg3 3.172073 1_565
Mg1 Mg5 3.172074 1_555
Mg1 Mg3 3.182881 1_455
Mg1 Mg5 3.182881 1_455
Mg2 Mg4 3.072561 1_555
Mg2 Mg7 3.127802 1_554
Mg2 Mg6 3.127802 1_555
Mg2 Mg4 3.133868 1_545
Mg3 Mg5 3.090631 1_545
Mg3 Mg5 3.115798 1_555
Mg3 Mg6 3.181972 1_555
Mg3 Mg7 3.181972 1_555
Mg4 Mg9 3.127802 1_554
Mg4 Mg8 3.127802 1_555
Mg5 Mg8 3.181972 1_555
Mg5 Mg9 3.181972 1_555
Mg6 Mg8 3.090126 1_545
Mg6 Mg8 3.116303 1_555
Mg7 Mg9 3.090126 1_545
Mg7 Mg9 3.116303 1_555
Mg10 Mg12 3.103401 1_555
Mg10 Mg12 3.103402 1_545
Mg10 Mg2 3.117133 1_555
Mg10 Mg4 3.117139 1_545
Mg10 Mg8 3.161987 1_655
Mg10 Mg6 3.161987 1_655
Mg10 Mg3 3.165025 1_555
Mg10 Mg5 3.165031 1_545
Mg10 Mg8 3.193063 1_545
Mg10 Mg6 3.193063 1_555
Mg11 Mg13 3.103401 1_555
Mg11 Mg13 3.103402 1_545
Mg11 Mg2 3.117133 1_556
Mg11 Mg4 3.117139 1_546
Mg11 Mg9 3.161987 1_655
Mg11 Mg7 3.161987 1_655
Mg11 Mg3 3.165025 1_555
Mg11 Mg5 3.165031 1_545
Mg11 Mg9 3.193063 1_545
Mg11 Mg7 3.193063 1_555
Mg12 Mg4 3.131287 1_555
Mg12 Mg2 3.131293 1_555
Mg12 Mg5 3.146779 1_555
Mg12 Mg3 3.146785 1_555
Mg12 Mg6 3.148296 1_665
Mg12 Mg8 3.148297 1_655
Mg12 Mg6 3.206881 1_555
Mg12 Mg8 3.206882 1_555
Mg13 Mg4 3.131287 1_556
Mg13 Mg2 3.131293 1_556
Mg13 Mg5 3.146779 1_555
Mg13 Mg3 3.146785 1_555
Mg13 Mg7 3.148296 1_665
Mg13 Mg9 3.148297 1_655
Mg13 Mg7 3.206881 1_555
Mg13 Mg9 3.206882 1_555
Ga0 Mg7 3.103287 1_554
Ga0 Mg6 3.103287 1_555
Ga0 Mg9 3.103294 1_554
Ga0 Mg8 3.103294 1_555
Ga0 Hf0 3.103569 1_545
Ga0 Hf0 3.103569 1_555
Ga0 Mg11 3.127117 1_454
Ga0 Mg10 3.127117 1_455
Ga0 Mg4 3.143148 1_555
Ga0 Mg2 3.143148 1_555
Ga0 Mg4 3.211802 1_445
Ga0 Mg2 3.211803 1_455
