# generated using pymatgen
data_LiSm4(Mo2O7)2
_symmetry_space_group_name_H-M   'P 1'
_cell_length_a   7.49077603
_cell_length_b   7.48766876
_cell_length_c   7.48930010
_cell_angle_alpha   60.77413555
_cell_angle_beta   60.77471210
_cell_angle_gamma   60.78415820
_symmetry_Int_Tables_number   1
_chemical_formula_structural   LiSm4(Mo2O7)2
_chemical_formula_sum   'Li1 Sm4 Mo4 O14'
_cell_volume   302.24036198
_cell_formula_units_Z   1
loop_
 _symmetry_equiv_pos_site_id
 _symmetry_equiv_pos_as_xyz
  1  'x, y, z'
loop_
 _atom_site_type_symbol
 _atom_site_label
 _atom_site_symmetry_multiplicity
 _atom_site_fract_x
 _atom_site_fract_y
 _atom_site_fract_z
 _atom_site_occupancy
  Li  Li0  1  0.12560400  0.12653300  0.12546500  1
  Sm  Sm0  1  0.49726800  0.00133400  0.50213200  1
  Sm  Sm1  1  0.50011200  0.49987200  0.49914400  1
  Sm  Sm2  1  0.50117700  0.49805300  0.00119100  1
  Sm  Sm3  1  0.00119400  0.50208500  0.49763800  1
  Mo  Mo0  1  0.99505700  0.99464000  0.99482500  1
  Mo  Mo1  1  0.99334100  0.99772100  0.51369200  1
  Mo  Mo2  1  0.51375400  0.99328600  0.99794600  1
  Mo  Mo3  1  0.99760900  0.51383700  0.99322100  1
  O  O0  1  0.66937900  0.09325400  0.66209100  1
  O  O1  1  0.09333000  0.66253700  0.66978600  1
  O  O2  1  0.91394000  0.33195400  0.32155900  1
  O  O3  1  0.66221100  0.66937300  0.09231800  1
  O  O4  1  0.37497900  0.37486800  0.37471800  1
  O  O5  1  0.90571200  0.34041200  0.92372900  1
  O  O6  1  0.08387400  0.09974400  0.65219200  1
  O  O7  1  0.34075500  0.92399100  0.90521000  1
  O  O8  1  0.33147500  0.32170500  0.91535800  1
  O  O9  1  0.09985900  0.65209300  0.08457600  1
  O  O10  1  0.62517400  0.62537200  0.62535100  1
  O  O11  1  0.32177900  0.91451600  0.33176300  1
  O  O12  1  0.92425300  0.90559300  0.34065400  1
  O  O13  1  0.65316300  0.08222400  0.10044200  1
loop_
_geom_bond_atom_site_label_1
_geom_bond_atom_site_label_2
_geom_bond_distance
_geom_bond_site_symmetry_2
Li0 O8 2.138874 1_554
Li0 O2 2.141936 1_455
Li0 O11 2.147399 1_545
Li0 O5 2.247846 1_454
Li0 O12 2.251150 1_445
Li0 O7 2.253731 1_544
Li0 Mo0 2.389443 1_444
Li0 Mo3 2.391326 1_454
Li0 Mo1 2.397320 1_445
Li0 Mo2 2.397587 1_544
Mo0 O13 2.122159 1_566
Mo0 O9 2.124342 1_656
Mo0 O6 2.125737 1_665
Mo0 O5 2.178254 1_565
Mo0 O7 2.179070 1_655
Mo0 O12 2.179803 1_556
Mo1 O0 2.020890 1_565
Mo1 O6 2.021334 1_665
Mo1 O12 2.073525 1_555
Mo1 O11 2.087285 1_655
Mo1 O1 2.093173 1_655
Mo1 O2 2.133908 1_565
Mo2 O3 2.019699 1_556
Mo2 O13 2.020908 1_566
Mo2 O7 2.078001 1_555
Mo2 O8 2.087031 1_565
Mo2 O0 2.096682 1_565
Mo2 O11 2.131555 1_556
Mo3 O1 2.017679 1_655
Mo3 O9 2.025790 1_656
Mo3 O5 2.076866 1_555
Mo3 O2 2.086238 1_556
Mo3 O3 2.094317 1_556
Mo3 O8 2.132399 1_655
O0 Sm1 2.545753 1_555
O0 Sm0 2.598189 1_555
O1 Sm1 2.548726 1_555
O1 Sm3 2.602466 1_555
O2 Sm1 2.600249 1_555
O2 Sm3 2.661546 1_655
O3 Sm1 2.546387 1_555
O3 Sm2 2.595336 1_555
O4 Sm1 2.276880 1_555
O4 Sm0 2.306210 1_555
O4 Sm2 2.306372 1_555
O4 Sm3 2.308722 1_555
O5 Sm2 2.524430 1_556
O5 Sm3 2.646598 1_655
O6 Sm3 2.504512 1_555
O6 Sm0 2.564766 1_555
O7 Sm0 2.514464 1_565
O7 Sm2 2.644955 1_556
O8 Sm1 2.613682 1_555
O8 Sm2 2.652950 1_556
O9 Sm2 2.498561 1_555
O9 Sm3 2.561748 1_555
O10 Sm1 2.290292 1_555
O10 Sm2 2.320688 1_556
O10 Sm0 2.321178 1_565
O10 Sm3 2.322474 1_655
O11 Sm1 2.604060 1_555
O11 Sm0 2.657194 1_565
O12 Sm3 2.517133 1_655
O12 Sm0 2.652861 1_565
O13 Sm0 2.502304 1_555
O13 Sm2 2.578573 1_555
