# generated using pymatgen
data_OsW2
_symmetry_space_group_name_H-M   'P 1'
_cell_length_a   9.71250500
_cell_length_b   9.71250500
_cell_length_c   5.00467700
_cell_angle_alpha   90.00000000
_cell_angle_beta   90.00000000
_cell_angle_gamma   90.00000000
_symmetry_Int_Tables_number   1
_chemical_formula_structural   OsW2
_chemical_formula_sum   'Os10 W20'
_cell_volume   472.10496116
_cell_formula_units_Z   10
loop_
 _symmetry_equiv_pos_site_id
 _symmetry_equiv_pos_as_xyz
  1  'x, y, z'
loop_
 _atom_site_type_symbol
 _atom_site_label
 _atom_site_symmetry_multiplicity
 _atom_site_fract_x
 _atom_site_fract_y
 _atom_site_fract_z
 _atom_site_occupancy
  Os  Os0  1  0.50000000  0.50000000  0.50000000  1
  Os  Os1  1  0.00000000  0.00000000  0.00000000  1
  Os  Os2  1  0.43138600  0.23608900  0.50000000  1
  Os  Os3  1  0.56861400  0.76391100  0.50000000  1
  Os  Os4  1  0.06861400  0.73608900  0.00000000  1
  Os  Os5  1  0.93138600  0.26391100  0.00000000  1
  Os  Os6  1  0.23608900  0.43138600  0.50000000  1
  Os  Os7  1  0.76391100  0.56861400  0.50000000  1
  Os  Os8  1  0.73608900  0.06861400  0.00000000  1
  Os  Os9  1  0.26391100  0.93138600  0.00000000  1
  W  W0  1  0.10362600  0.89637400  0.50000000  1
  W  W1  1  0.89637400  0.10362600  0.50000000  1
  W  W2  1  0.39637400  0.39637400  0.00000000  1
  W  W3  1  0.60362600  0.60362600  0.00000000  1
  W  W4  1  0.36901800  0.96268800  0.50000000  1
  W  W5  1  0.63098200  0.03731200  0.50000000  1
  W  W6  1  0.13098200  0.46268800  0.00000000  1
  W  W7  1  0.86901800  0.53731200  0.00000000  1
  W  W8  1  0.96268800  0.36901800  0.50000000  1
  W  W9  1  0.03731200  0.63098200  0.50000000  1
  W  W10  1  0.46268800  0.13098200  0.00000000  1
  W  W11  1  0.53731200  0.86901800  0.00000000  1
  W  W12  1  0.31934900  0.68065100  0.24980100  1
  W  W13  1  0.68065100  0.31934900  0.24980100  1
  W  W14  1  0.18065100  0.18065100  0.74980100  1
  W  W15  1  0.81934900  0.81934900  0.74980100  1
  W  W16  1  0.68065100  0.31934900  0.75019900  1
  W  W17  1  0.31934900  0.68065100  0.75019900  1
  W  W18  1  0.81934900  0.81934900  0.25019900  1
  W  W19  1  0.18065100  0.18065100  0.25019900  1
loop_
_geom_bond_atom_site_label_1
_geom_bond_atom_site_label_2
_geom_bond_distance
_geom_bond_site_symmetry_2
Os0 Os2 2.648451 1_555
Os0 Os3 2.648451 1_555
Os0 Os6 2.648451 1_555
Os0 Os7 2.648451 1_555
Os0 W13 2.779384 1_555
Os0 W17 2.779384 1_555
Os0 W12 2.779384 1_555
Os0 W16 2.779384 1_555
Os0 W2 2.878829 1_556
Os0 W3 2.878829 1_555
Os0 W2 2.878829 1_555
Os0 W3 2.878829 1_556
Os1 Os8 2.648451 1_455
Os1 Os5 2.648451 1_455
Os1 Os9 2.648451 1_545
Os1 Os4 2.648451 1_545
Os1 W14 2.779384 1_554
Os1 W19 2.779384 1_555
Os1 W18 2.779384 1_445
Os1 W15 2.779384 1_444
Os1 W1 2.878829 1_455
Os1 W1 2.878829 1_454
Os1 W0 2.878829 1_544
Os1 W0 2.878829 1_545
Os2 Os6 2.682513 1_555
Os2 W10 2.719608 1_555
Os2 W10 2.719608 1_556
Os2 W4 2.723624 1_545
Os2 W5 2.735943 1_555
Os2 W19 2.789869 1_555
Os2 W14 2.789869 1_555
Os2 W13 2.843068 1_555
Os2 W16 2.843068 1_555
Os2 W2 2.966625 1_555
Os2 W2 2.966625 1_556
Os3 Os7 2.682513 1_555
Os3 W11 2.719608 1_556
Os3 W11 2.719608 1_555
Os3 W5 2.723624 1_565
Os3 W4 2.735943 1_555
Os3 W18 2.789869 1_555
Os3 W15 2.789869 1_555
Os3 W17 2.843068 1_555
Os3 W12 2.843068 1_555
Os3 W3 2.966625 1_556
Os3 W3 2.966625 1_555
Os4 Os9 2.682513 1_555
Os4 W9 2.719608 1_554
Os4 W9 2.719608 1_555
Os4 W6 2.723624 1_555
Os4 W7 2.735943 1_455
Os4 W12 2.789869 1_555
Os4 W17 2.789869 1_554
Os4 W18 2.843068 1_455
Os4 W15 2.843068 1_454
Os4 W0 2.966625 1_554
Os4 W0 2.966625 1_555
Os5 Os8 2.682513 1_555
Os5 W8 2.719608 1_554
Os5 W8 2.719608 1_555
Os5 W7 2.723624 1_555
Os5 W6 2.735943 1_655
Os5 W13 2.789869 1_555
Os5 W16 2.789869 1_554
Os5 W14 2.843068 1_654
Os5 W19 2.843068 1_655
Os5 W1 2.966625 1_554
Os5 W1 2.966625 1_555
Os6 W6 2.719608 1_556
Os6 W6 2.719608 1_555
Os6 W8 2.723624 1_455
Os6 W9 2.735943 1_555
Os6 W14 2.789869 1_555
Os6 W19 2.789869 1_555
Os6 W12 2.843068 1_555
Os6 W17 2.843068 1_555
Os6 W2 2.966625 1_555
Os6 W2 2.966625 1_556
Os7 W7 2.719608 1_556
Os7 W7 2.719608 1_555
Os7 W9 2.723624 1_655
Os7 W8 2.735943 1_555
Os7 W18 2.789869 1_555
Os7 W15 2.789869 1_555
Os7 W16 2.843068 1_555
Os7 W13 2.843068 1_555
Os7 W3 2.966625 1_556
Os7 W3 2.966625 1_555
Os8 W5 2.719608 1_555
Os8 W5 2.719608 1_554
Os8 W10 2.723624 1_555
Os8 W11 2.735943 1_545
Os8 W16 2.789869 1_554
Os8 W13 2.789869 1_555
Os8 W15 2.843068 1_544
Os8 W18 2.843068 1_545
Os8 W1 2.966625 1_554
Os8 W1 2.966625 1_555
Os9 W4 2.719608 1_555
Os9 W4 2.719608 1_554
Os9 W11 2.723624 1_555
Os9 W10 2.735943 1_565
Os9 W12 2.789869 1_555
Os9 W17 2.789869 1_554
Os9 W14 2.843068 1_564
Os9 W19 2.843068 1_565
Os9 W0 2.966625 1_554
Os9 W0 2.966625 1_555
W0 W9 2.656871 1_555
W0 W4 2.656871 1_555
W0 W1 2.846722 1_465
W0 W18 3.121850 1_455
W0 W15 3.121850 1_455
W0 W14 3.121850 1_565
W0 W19 3.121850 1_565
W0 W12 3.216789 1_555
W0 W17 3.216789 1_555
W1 W5 2.656871 1_555
W1 W8 2.656871 1_555
W1 W15 3.121850 1_545
W1 W18 3.121850 1_545
W1 W14 3.121850 1_655
W1 W19 3.121850 1_655
W1 W16 3.216789 1_555
W1 W13 3.216789 1_555
W2 W6 2.656871 1_555
W2 W3 2.846722 1_555
W3 W7 2.656871 1_555
W4 W5 2.645546 1_565
W6 W7 2.645546 1_455
W8 W9 2.645546 1_655
W10 W11 2.645546 1_545
W10 W2 2.656871 1_555
W11 W3 2.656871 1_555
W12 W17 2.500347 1_554
W12 W17 2.504330 1_555
W12 W3 3.121850 1_555
W12 W2 3.121850 1_555
W13 W16 2.500347 1_554
W13 W16 2.504330 1_555
W13 W3 3.121850 1_555
W13 W2 3.121850 1_555
W14 W19 2.500347 1_555
W14 W19 2.504330 1_556
W14 W2 3.216789 1_556
W15 W18 2.500347 1_555
W15 W18 2.504330 1_556
W15 W3 3.216789 1_556
W16 W3 3.121850 1_556
W16 W2 3.121850 1_556
W17 W3 3.121850 1_556
W17 W2 3.121850 1_556
W18 W3 3.216789 1_555
W19 W2 3.216789 1_555
