# generated using pymatgen
data_Pr(Mo3S4)2
_symmetry_space_group_name_H-M   'P 1'
_cell_length_a   6.54229748
_cell_length_b   6.54239263
_cell_length_c   6.54237015
_cell_angle_alpha   89.00255500
_cell_angle_beta   89.00214004
_cell_angle_gamma   89.00187347
_symmetry_Int_Tables_number   1
_chemical_formula_structural   Pr(Mo3S4)2
_chemical_formula_sum   'Pr1 Mo6 S8'
_cell_volume   279.90242230
_cell_formula_units_Z   1
loop_
 _symmetry_equiv_pos_site_id
 _symmetry_equiv_pos_as_xyz
  1  'x, y, z'
loop_
 _atom_site_type_symbol
 _atom_site_label
 _atom_site_symmetry_multiplicity
 _atom_site_fract_x
 _atom_site_fract_y
 _atom_site_fract_z
 _atom_site_occupancy
  Pr  Pr0  1  -0.00000000  0.00000000  0.00000000  1
  Mo  Mo0  1  0.77014610  0.58021398  0.43741697  1
  Mo  Mo1  1  0.43741523  0.77012277  0.58021616  1
  Mo  Mo2  1  0.58021765  0.43741755  0.77013529  1
  Mo  Mo3  1  0.22985390  0.41978602  0.56258303  1
  Mo  Mo4  1  0.56258477  0.22987723  0.41978384  1
  Mo  Mo5  1  0.41978235  0.56258245  0.22986471  1
  S  S0  1  0.75587361  0.75585905  0.75586894  1
  S  S1  1  0.24412639  0.24414095  0.24413106  1
  S  S2  1  0.25249338  0.62441185  0.87444520  1
  S  S3  1  0.87445565  0.25250977  0.62441953  1
  S  S4  1  0.62442877  0.87443308  0.25249931  1
  S  S5  1  0.74750662  0.37558815  0.12555480  1
  S  S6  1  0.12554435  0.74749023  0.37558047  1
  S  S7  1  0.37557123  0.12556692  0.74750069  1
loop_
_geom_bond_atom_site_label_1
_geom_bond_atom_site_label_2
_geom_bond_distance
_geom_bond_site_symmetry_2
Pr0 S1 2.814200 1_555
Pr0 S0 2.814200 1_444
Pr0 S7 3.053331 1_554
Pr0 S4 3.053331 1_445
Pr0 S5 3.053379 1_455
Pr0 S2 3.053379 1_544
Pr0 S3 3.053397 1_454
Pr0 S6 3.053397 1_545
Mo0 S0 2.396406 1_555
Mo0 S4 2.443939 1_555
Mo0 S5 2.467711 1_555
Mo0 S3 2.538877 1_555
Mo0 S6 2.609217 1_655
Mo1 S0 2.396452 1_555
Mo1 S2 2.443984 1_555
Mo1 S6 2.467777 1_555
Mo1 S4 2.538972 1_555
Mo1 S7 2.609529 1_565
Mo2 S0 2.396391 1_555
Mo2 S3 2.443972 1_555
Mo2 S7 2.467727 1_555
Mo2 S2 2.538928 1_555
Mo2 S5 2.609384 1_556
Mo3 S1 2.396406 1_555
Mo3 S7 2.443939 1_555
Mo3 S2 2.467711 1_555
Mo3 S6 2.538877 1_555
Mo3 S3 2.609217 1_455
Mo4 S1 2.396452 1_555
Mo4 S5 2.443984 1_555
Mo4 S3 2.467777 1_555
Mo4 S7 2.538972 1_555
Mo4 S4 2.609529 1_545
Mo5 S1 2.396391 1_555
Mo5 S6 2.443972 1_555
Mo5 S4 2.467727 1_555
Mo5 S5 2.538928 1_555
Mo5 S2 2.609384 1_554
