# generated using pymatgen
data_B3Os2
_symmetry_space_group_name_H-M   'P 1'
_cell_length_a   2.93271521
_cell_length_b   2.93271521
_cell_length_c   12.89223854
_cell_angle_alpha   90.00000000
_cell_angle_beta   90.00000000
_cell_angle_gamma   119.99984903
_symmetry_Int_Tables_number   1
_chemical_formula_structural   B3Os2
_chemical_formula_sum   'B6 Os4'
_cell_volume   96.02833688
_cell_formula_units_Z   2
loop_
 _symmetry_equiv_pos_site_id
 _symmetry_equiv_pos_as_xyz
  1  'x, y, z'
loop_
 _atom_site_type_symbol
 _atom_site_label
 _atom_site_symmetry_multiplicity
 _atom_site_fract_x
 _atom_site_fract_y
 _atom_site_fract_z
 _atom_site_occupancy
  B  B0  1  0.66666751  0.33333249  0.46921941  1
  B  B1  1  0.33333249  0.66666751  0.53078059  1
  B  B2  1  0.33333249  0.66666751  0.96921941  1
  B  B3  1  0.66666751  0.33333249  0.03078059  1
  B  B4  1  0.66666853  0.33333147  0.25000000  1
  B  B5  1  0.33333147  0.66666853  0.75000000  1
  Os  Os0  1  0.66666574  0.33333426  0.63977546  1
  Os  Os1  1  0.33333426  0.66666574  0.36022454  1
  Os  Os2  1  0.33333426  0.66666574  0.13977546  1
  Os  Os3  1  0.66666574  0.33333426  0.86022454  1
loop_
_geom_bond_atom_site_label_1
_geom_bond_atom_site_label_2
_geom_bond_distance
_geom_bond_site_symmetry_2
B0 B1 1.869982 1_545
B0 B1 1.869982 1_655
B0 B1 1.869990 1_555
B0 Os0 2.198849 1_555
B0 Os1 2.200338 1_555
B0 Os1 2.200341 1_545
B0 Os1 2.200341 1_655
B1 Os1 2.198849 1_555
B1 Os0 2.200338 1_555
B1 Os0 2.200341 1_455
B1 Os0 2.200341 1_565
B2 B3 1.869982 1_456
B2 B3 1.869982 1_566
B2 B3 1.869990 1_556
B2 Os2 2.198849 1_556
B2 Os3 2.200338 1_555
B2 Os3 2.200341 1_455
B2 Os3 2.200341 1_565
B3 Os3 2.198849 1_554
B3 Os2 2.200338 1_555
B3 Os2 2.200341 1_655
B3 Os2 2.200341 1_545
B4 Os2 2.210497 1_655
B4 Os1 2.210497 1_655
B4 Os1 2.210497 1_545
B4 Os2 2.210497 1_545
B4 Os1 2.210500 1_555
B4 Os2 2.210500 1_555
B5 Os3 2.210497 1_565
B5 Os3 2.210497 1_455
B5 Os0 2.210497 1_565
B5 Os0 2.210497 1_455
B5 Os3 2.210500 1_555
B5 Os0 2.210500 1_555
