# generated using pymatgen
data_Ba6La2Ga4O15
_symmetry_space_group_name_H-M   'P 1'
_cell_length_a   11.96754527
_cell_length_b   11.96754527
_cell_length_c   7.20463458
_cell_angle_alpha   89.69537624
_cell_angle_beta   89.69537624
_cell_angle_gamma   119.69418100
_symmetry_Int_Tables_number   1
_chemical_formula_structural   Ba6La2Ga4O15
_chemical_formula_sum   'Ba12 La4 Ga8 O30'
_cell_volume   896.31058478
_cell_formula_units_Z   2
loop_
 _symmetry_equiv_pos_site_id
 _symmetry_equiv_pos_as_xyz
  1  'x, y, z'
loop_
 _atom_site_type_symbol
 _atom_site_label
 _atom_site_symmetry_multiplicity
 _atom_site_fract_x
 _atom_site_fract_y
 _atom_site_fract_z
 _atom_site_occupancy
  Ba  Ba0  1  0.00047300  0.99990000  0.49334600  1
  Ba  Ba1  1  0.99990000  0.00047300  0.99334600  1
  Ba  Ba2  1  0.66923000  0.33445800  0.00751100  1
  Ba  Ba3  1  0.33445800  0.66923000  0.50751100  1
  Ba  Ba4  1  0.52114500  0.04347400  0.65526500  1
  Ba  Ba5  1  0.04347400  0.52114500  0.15526500  1
  Ba  Ba6  1  0.82821600  0.65321700  0.32357100  1
  Ba  Ba7  1  0.34581500  0.17084300  0.32352600  1
  Ba  Ba8  1  0.82519800  0.17314200  0.32367000  1
  Ba  Ba9  1  0.17084300  0.34581500  0.82352600  1
  Ba  Ba10  1  0.65321700  0.82821600  0.82357100  1
  Ba  Ba11  1  0.17314200  0.82519800  0.82367000  1
  La  La0  1  0.95791800  0.47887800  0.65227300  1
  La  La1  1  0.51997700  0.47993900  0.64740000  1
  La  La2  1  0.47887800  0.95791800  0.15227300  1
  La  La3  1  0.47993900  0.51997700  0.14740000  1
  Ga  Ga0  1  0.81832600  0.64421500  0.81833600  1
  Ga  Ga1  1  0.35790400  0.18081200  0.82724000  1
  Ga  Ga2  1  0.81985500  0.17630600  0.82179200  1
  Ga  Ga3  1  0.18081200  0.35790400  0.32724000  1
  Ga  Ga4  1  0.64421500  0.81832600  0.31833600  1
  Ga  Ga5  1  0.17630600  0.81985500  0.32179200  1
  Ga  Ga6  1  0.66144000  0.33154200  0.45874700  1
  Ga  Ga7  1  0.33154200  0.66144000  0.95874700  1
  O  O0  1  0.74754100  0.50468800  0.64438800  1
  O  O1  1  0.49722600  0.25991800  0.64537900  1
  O  O2  1  0.75900200  0.25722700  0.64652700  1
  O  O3  1  0.25991800  0.49722600  0.14537900  1
  O  O4  1  0.50468800  0.74754100  0.14438800  1
  O  O5  1  0.25722700  0.75900200  0.14652700  1
  O  O6  1  0.33168100  0.39722200  0.45587500  1
  O  O7  1  0.60695600  0.93114200  0.43993000  1
  O  O8  1  0.06645200  0.67673200  0.47190600  1
  O  O9  1  0.60374900  0.66737900  0.45294300  1
  O  O10  1  0.07007700  0.39122200  0.47250400  1
  O  O11  1  0.32484600  0.93352100  0.44251600  1
  O  O12  1  0.66737900  0.60374900  0.95294300  1
  O  O13  1  0.39122200  0.07007700  0.97250400  1
  O  O14  1  0.93352100  0.32484600  0.94251600  1
  O  O15  1  0.39722200  0.33168100  0.95587500  1
  O  O16  1  0.93114200  0.60695600  0.93993000  1
  O  O17  1  0.67673200  0.06645200  0.97190600  1
  O  O18  1  0.09908200  0.19696700  0.22290400  1
  O  O19  1  0.80804000  0.89799100  0.22097500  1
  O  O20  1  0.09126600  0.89763900  0.21906700  1
  O  O21  1  0.89799100  0.80804000  0.72097500  1
  O  O22  1  0.19696700  0.09908100  0.72290400  1
  O  O23  1  0.89763900  0.09126600  0.71906700  1
  O  O24  1  0.58346200  0.17270700  0.31057300  1
  O  O25  1  0.82292800  0.41377900  0.32990300  1
  O  O26  1  0.58129100  0.41674300  0.31964300  1
  O  O27  1  0.41377900  0.82292800  0.82990300  1
  O  O28  1  0.17270700  0.58346200  0.81057300  1
  O  O29  1  0.41674300  0.58129100  0.81964300  1
loop_
_geom_bond_atom_site_label_1
_geom_bond_atom_site_label_2
_geom_bond_distance
_geom_bond_site_symmetry_2
Ba0 O21 2.571843 1_455
Ba0 O23 2.585652 1_465
Ba0 O22 2.640240 1_565
Ba0 O20 2.811329 1_555
Ba0 O18 2.814325 1_565
Ba0 O19 2.816485 1_455
Ba1 O19 2.571843 1_546
Ba1 O20 2.585652 1_646
Ba1 O18 2.640240 1_656
Ba1 O23 2.811329 1_555
Ba1 O22 2.814325 1_655
Ba1 O21 2.816485 1_545
Ba2 O24 2.744247 1_555
Ba2 O25 2.831685 1_555
Ba2 O26 2.856492 1_555
Ba2 O2 3.122832 1_554
Ba2 O0 3.146212 1_554
Ba2 O1 3.178469 1_554
Ba2 O16 3.245995 1_554
Ba2 O14 3.252972 1_554
Ba2 O12 3.255539 1_554
Ba2 O15 3.262223 1_554
Ba2 O17 3.264186 1_554
Ba2 O13 3.275960 1_554
Ba3 O28 2.744247 1_555
Ba3 O27 2.831685 1_555
Ba3 O29 2.856492 1_555
Ba3 O5 3.122832 1_555
Ba3 O4 3.146212 1_555
Ba3 O3 3.178469 1_555
Ba3 O7 3.245995 1_555
Ba3 O11 3.252972 1_555
Ba3 O9 3.255539 1_555
Ba3 O6 3.262223 1_555
Ba3 O8 3.264186 1_555
Ba3 O10 3.275960 1_555
Ba4 O11 2.568431 1_545
Ba4 O7 2.577160 1_545
Ba4 O27 2.605376 1_545
Ba4 O2 2.726311 1_555
Ba4 O1 2.744003 1_555
Ba4 O24 2.812839 1_555
Ba4 O13 2.864134 1_555
Ba4 O17 2.879487 1_555
Ba5 O14 2.568431 1_454
Ba5 O16 2.577160 1_454
Ba5 O25 2.605376 1_455
Ba5 O5 2.726311 1_555
Ba5 O3 2.744003 1_555
Ba5 O28 2.812839 1_554
Ba5 O10 2.864134 1_555
Ba5 O8 2.879487 1_555
Ba6 O0 2.768843 1_555
Ba6 O25 2.834786 1_555
Ba6 O26 2.908359 1_555
Ba6 O9 2.922316 1_555
Ba6 O8 2.931001 1_655
Ba6 O20 3.140337 1_655
Ba6 O19 3.140917 1_555
Ba6 O16 3.181058 1_554
Ba6 O12 3.182467 1_554
Ba6 O21 3.298020 1_555
Ba7 O1 2.820282 1_555
Ba7 O24 2.834102 1_555
Ba7 O11 2.851335 1_545
Ba7 O26 2.895598 1_555
Ba7 O6 2.959284 1_555
Ba7 O13 2.968563 1_554
Ba7 O15 3.139237 1_554
Ba7 O18 3.205809 1_555
Ba7 O22 3.254776 1_555
Ba7 O20 3.274021 1_545
Ba8 O2 2.801053 1_555
Ba8 O24 2.892454 1_555
Ba8 O7 2.892685 1_545
Ba8 O25 2.893972 1_555
Ba8 O10 3.005859 1_655
Ba8 O17 3.007441 1_554
Ba8 O14 3.177257 1_554
Ba8 O18 3.224651 1_655
Ba8 O23 3.265721 1_555
Ba8 O19 3.284857 1_545
Ba9 O3 2.820282 1_556
Ba9 O28 2.834102 1_555
Ba9 O14 2.851335 1_455
Ba9 O29 2.895598 1_555
Ba9 O15 2.959284 1_555
Ba9 O10 2.968563 1_555
Ba9 O6 3.139237 1_555
Ba9 O22 3.205821 1_555
Ba9 O18 3.254776 1_556
Ba9 O23 3.274021 1_455
Ba10 O4 2.768843 1_556
Ba10 O27 2.834786 1_555
Ba10 O29 2.908359 1_555
Ba10 O12 2.922316 1_555
Ba10 O17 2.931001 1_565
Ba10 O23 3.140337 1_565
Ba10 O21 3.140917 1_555
Ba10 O7 3.181058 1_555
Ba10 O9 3.182467 1_555
Ba10 O19 3.298020 1_556
Ba11 O5 2.801053 1_556
Ba11 O28 2.892454 1_555
Ba11 O16 2.892685 1_455
Ba11 O27 2.893972 1_555
Ba11 O13 3.005859 1_565
Ba11 O8 3.007441 1_555
Ba11 O11 3.177257 1_555
Ba11 O22 3.224639 1_565
Ba11 O20 3.265721 1_556
Ba11 O21 3.284857 1_455
La0 O8 2.425825 1_655
La0 O10 2.443482 1_655
La0 O28 2.516662 1_655
La0 O2 2.539898 1_555
La0 O0 2.685002 1_555
La0 O16 2.694539 1_555
La0 O14 2.697273 1_555
La0 O25 2.724567 1_555
La1 O9 2.392357 1_555
La1 O6 2.408213 1_555
La1 O29 2.453951 1_555
La1 O1 2.509538 1_555
La1 O0 2.589432 1_555
La1 O26 2.690143 1_555
La1 O15 2.754357 1_555
La1 O12 2.763966 1_555
La2 O17 2.425825 1_564
La2 O13 2.443482 1_564
La2 O24 2.516662 1_565
La2 O5 2.539898 1_555
La2 O4 2.685002 1_555
La2 O7 2.694539 1_555
La2 O11 2.697273 1_555
La2 O27 2.724567 1_554
La3 O12 2.392357 1_554
La3 O15 2.408213 1_554
La3 O26 2.453951 1_555
La3 O3 2.509538 1_555
La3 O4 2.589432 1_555
La3 O29 2.690143 1_554
La3 O6 2.754357 1_555
La3 O9 2.763966 1_555
Ga0 O21 1.836095 1_555
Ga0 O16 1.842280 1_555
Ga0 O12 1.883610 1_555
Ga0 O0 1.925757 1_555
Ga1 O22 1.840682 1_555
Ga1 O15 1.876426 1_555
Ga1 O13 1.877163 1_555
Ga1 O1 1.947493 1_555
Ga2 O23 1.841014 1_555
Ga2 O14 1.843979 1_555
Ga2 O17 1.888402 1_555
Ga2 O2 1.938604 1_555
Ga3 O18 1.840681 1_555
Ga3 O6 1.876426 1_555
Ga3 O10 1.877163 1_555
Ga3 O3 1.947493 1_555
Ga4 O19 1.836095 1_555
Ga4 O7 1.842280 1_555
Ga4 O9 1.883610 1_555
Ga4 O4 1.925757 1_555
Ga5 O20 1.841014 1_555
Ga5 O11 1.843979 1_555
Ga5 O8 1.888402 1_555
Ga5 O5 1.938604 1_555
Ga6 O25 1.911042 1_555
Ga6 O24 1.974462 1_555
Ga6 O26 1.983039 1_555
Ga6 O1 2.166932 1_555
Ga6 O2 2.239935 1_555
Ga6 O0 2.252347 1_555
Ga7 O27 1.911042 1_555
Ga7 O28 1.974462 1_555
Ga7 O29 1.983039 1_555
Ga7 O3 2.166932 1_556
Ga7 O5 2.239935 1_556
Ga7 O4 2.252347 1_556
