# generated using pymatgen
data_Li2MnV(PO4)3
_symmetry_space_group_name_H-M   'P 1'
_cell_length_a   8.95368994
_cell_length_b   8.58326878
_cell_length_c   8.31086252
_cell_angle_alpha   60.36597216
_cell_angle_beta   63.64554357
_cell_angle_gamma   93.71794614
_symmetry_Int_Tables_number   1
_chemical_formula_structural   Li2MnV(PO4)3
_chemical_formula_sum   'Li4 Mn2 V2 P6 O24'
_cell_volume   463.12623639
_cell_formula_units_Z   2
loop_
 _symmetry_equiv_pos_site_id
 _symmetry_equiv_pos_as_xyz
  1  'x, y, z'
loop_
 _atom_site_type_symbol
 _atom_site_label
 _atom_site_symmetry_multiplicity
 _atom_site_fract_x
 _atom_site_fract_y
 _atom_site_fract_z
 _atom_site_occupancy
  Li  Li0  1  0.14949200  0.07836400  0.58477000  1
  Li  Li1  1  0.57868600  0.69237400  0.72441600  1
  Li  Li2  1  0.91592800  0.97201200  0.29720100  1
  Li  Li3  1  0.85089100  0.25794600  0.82472100  1
  Mn  Mn0  1  0.05585700  0.36573800  0.29183000  1
  Mn  Mn1  1  0.94863600  0.64619400  0.70202500  1
  V  V0  1  0.55972200  0.85053900  0.29440000  1
  V  V1  1  0.43023400  0.15162200  0.71254900  1
  P  P0  1  0.25144600  0.03050300  0.21919400  1
  P  P1  1  0.24378700  0.45267600  0.50603000  1
  P  P2  1  0.25130100  0.75845100  0.78264400  1
  P  P3  1  0.74927200  0.25288300  0.21871600  1
  P  P4  1  0.75331100  0.54384800  0.49330600  1
  P  P5  1  0.74288500  0.97082400  0.78541600  1
  O  O0  1  0.07773200  0.84159800  0.38495800  1
  O  O1  1  0.26916000  0.11189500  0.99622700  1
  O  O2  1  0.22048000  0.16835100  0.28508200  1
  O  O3  1  0.22822100  0.49308800  0.31287800  1
  O  O4  1  0.08260200  0.45014400  0.68363500  1
  O  O5  1  0.11245300  0.79299400  0.71802900  1
  O  O6  1  0.41778700  0.98288300  0.20779800  1
  O  O7  1  0.26926800  0.25828100  0.61299100  1
  O  O8  1  0.41798700  0.61551700  0.40309100  1
  O  O9  1  0.20549300  0.55356700  0.97051100  1
  O  O10  1  0.27484400  0.90744000  0.83115000  1
  O  O11  1  0.43688400  0.80546000  0.58700300  1
  O  O12  1  0.57172400  0.20248600  0.41814200  1
  O  O13  1  0.73038700  0.10513600  0.16140300  1
  O  O14  1  0.80285100  0.45627300  0.02061500  1
  O  O15  1  0.56888100  0.38830700  0.61098800  1
  O  O16  1  0.72443000  0.74090900  0.40689200  1
  O  O17  1  0.58180100  0.02542200  0.79321600  1
  O  O18  1  0.89792200  0.21967800  0.26888400  1
  O  O19  1  0.90165600  0.54014700  0.31634600  1
  O  O20  1  0.77384200  0.49828600  0.68865900  1
  O  O21  1  0.76530200  0.82872700  0.72357000  1
  O  O22  1  0.72229000  0.89355100  0.01041200  1
  O  O23  1  0.91877900  0.15850000  0.62235900  1
loop_
_geom_bond_atom_site_label_1
_geom_bond_atom_site_label_2
_geom_bond_distance
_geom_bond_site_symmetry_2
Li0 O2 1.957642 1_555
Li0 O7 1.989130 1_555
Li0 O5 2.054761 1_545
Li0 O23 2.159112 1_455
Li1 O21 1.972184 1_555
Li1 O11 2.051669 1_555
Li1 O16 2.150618 1_555
Li1 O20 2.514542 1_555
Li2 O16 2.022018 1_555
Li2 O18 2.045417 1_565
Li2 O0 2.055450 1_655
Li2 O13 2.444326 1_565
Li3 O4 1.970787 1_655
Li3 O13 2.054407 1_556
Li3 O23 2.122690 1_555
Li3 O20 2.140211 1_555
Mn0 O9 1.952232 1_554
Mn0 O3 1.953759 1_555
Mn0 O18 1.963079 1_455
Mn0 O23 2.026750 1_455
Mn0 O19 2.123367 1_455
Mn0 O2 2.321769 1_555
Mn1 O14 1.938802 1_556
Mn1 O0 1.940755 1_655
Mn1 O5 1.963673 1_655
Mn1 O20 2.027209 1_555
Mn1 O4 2.155719 1_655
Mn1 O21 2.351867 1_555
O0 P0 1.583550 1_565
O1 P0 1.546440 1_556
O1 V1 1.968997 1_555
O2 P0 1.524834 1_555
O3 P1 1.539762 1_555
O4 P1 1.528042 1_555
O5 P2 1.550780 1_555
O6 P0 1.544745 1_565
O6 V0 1.901110 1_555
O7 P1 1.545621 1_555
O7 V1 2.020069 1_555
O8 P1 1.571085 1_555
O8 V0 1.828655 1_555
O9 P2 1.523542 1_555
O10 P2 1.546805 1_555
O10 V1 1.913453 1_565
O11 P2 1.559844 1_555
O11 V0 1.978040 1_555
O12 P3 1.524405 1_555
O12 V1 1.975366 1_555
O13 P3 1.582635 1_555
O13 V0 2.002717 1_545
O14 P3 1.528464 1_555
O15 P4 1.566750 1_555
O15 V1 1.851360 1_555
O16 P4 1.569683 1_555
O16 V0 2.113877 1_555
O17 P5 1.529288 1_545
O17 V1 1.935132 1_555
O18 P3 1.565540 1_555
O19 P4 1.498493 1_555
O20 P4 1.571327 1_555
O21 P5 1.533668 1_555
O22 P5 1.556275 1_554
O22 V0 1.960604 1_555
O23 P5 1.590281 1_545
