# generated using pymatgen
data_Eu2ZnBi2
_symmetry_space_group_name_H-M   'P 1'
_cell_length_a   4.84463128
_cell_length_b   4.84463128
_cell_length_c   8.20674200
_cell_angle_alpha   90.00000000
_cell_angle_beta   90.00000000
_cell_angle_gamma   120.08488655
_symmetry_Int_Tables_number   1
_chemical_formula_structural   Eu2ZnBi2
_chemical_formula_sum   'Eu2 Zn1 Bi2'
_cell_volume   166.66743447
_cell_formula_units_Z   1
loop_
 _symmetry_equiv_pos_site_id
 _symmetry_equiv_pos_as_xyz
  1  'x, y, z'
loop_
 _atom_site_type_symbol
 _atom_site_label
 _atom_site_symmetry_multiplicity
 _atom_site_fract_x
 _atom_site_fract_y
 _atom_site_fract_z
 _atom_site_occupancy
  Eu  Eu0  1  0.99979500  0.00020500  0.52445000  1
  Eu  Eu1  1  0.99979500  0.00020500  0.97555000  1
  Zn  Zn0  1  0.66661300  0.33338700  0.25000000  1
  Bi  Bi0  1  0.66693400  0.33306600  0.75000000  1
  Bi  Bi1  1  0.33356300  0.66643700  0.25000000  1
loop_
_geom_bond_atom_site_label_1
_geom_bond_atom_site_label_2
_geom_bond_distance
_geom_bond_site_symmetry_2
Eu0 Zn0 3.589805 1_655
Eu0 Zn0 3.589805 1_545
Eu0 Zn0 3.591114 1_555
Eu1 Zn0 3.589805 1_656
Eu1 Zn0 3.589805 1_546
Eu1 Zn0 3.591114 1_556
Bi0 Eu0 3.351763 1_555
Bi0 Eu1 3.351763 1_555
Bi0 Eu0 3.353734 1_455
Bi0 Eu1 3.353734 1_455
Bi0 Eu0 3.353734 1_565
Bi0 Eu1 3.353734 1_565
Bi1 Zn0 2.795848 1_455
Bi1 Zn0 2.795848 1_565
Bi1 Zn0 2.795866 1_555
Bi1 Eu1 3.587889 1_564
Bi1 Eu1 3.587889 1_454
Bi1 Eu0 3.587889 1_565
Bi1 Eu0 3.587889 1_455
Bi1 Eu1 3.594947 1_464
Bi1 Eu0 3.594947 1_465
