# generated using pymatgen
data_CeCdIn
_symmetry_space_group_name_H-M   'P 1'
_cell_length_a   4.93525437
_cell_length_b   4.93525437
_cell_length_c   7.85334414
_cell_angle_alpha   90.00000000
_cell_angle_beta   90.00000000
_cell_angle_gamma   120.00000064
_symmetry_Int_Tables_number   1
_chemical_formula_structural   CeCdIn
_chemical_formula_sum   'Ce2 Cd2 In2'
_cell_volume   165.65492071
_cell_formula_units_Z   2
loop_
 _symmetry_equiv_pos_site_id
 _symmetry_equiv_pos_as_xyz
  1  'x, y, z'
loop_
 _atom_site_type_symbol
 _atom_site_label
 _atom_site_symmetry_multiplicity
 _atom_site_fract_x
 _atom_site_fract_y
 _atom_site_fract_z
 _atom_site_occupancy
  Ce  Ce0  1  -0.00000000  -0.00000000  0.26327592  1
  Ce  Ce1  1  -0.00000000  -0.00000000  0.73672408  1
  Cd  Cd0  1  0.66666700  0.33333300  0.47237471  1
  Cd  Cd1  1  0.33333300  0.66666700  0.52762529  1
  In  In0  1  0.33333300  0.66666700  0.94719506  1
  In  In1  1  0.66666700  0.33333300  0.05280494  1
loop_
_geom_bond_atom_site_label_1
_geom_bond_atom_site_label_2
_geom_bond_distance
_geom_bond_site_symmetry_2
Ce0 In1 3.294082 1_455
Ce0 In1 3.294086 1_555
Ce0 In1 3.294086 1_445
Ce0 In0 3.778977 1_544
Ce0 In0 3.778980 1_554
Ce0 In0 3.778980 1_444
Ce1 In0 3.294082 1_545
Ce1 In0 3.294086 1_445
Ce1 In0 3.294086 1_555
Ce1 In1 3.778977 1_456
Ce1 In1 3.778980 1_446
Ce1 In1 3.778980 1_556
Cd0 Cd1 2.882216 1_545
Cd0 Cd1 2.882216 1_655
Cd0 Cd1 2.882224 1_555
Cd0 Ce0 3.288688 1_655
Cd0 Ce0 3.288692 1_555
Cd0 Ce0 3.288692 1_665
Cd0 In1 3.295026 1_555
Cd0 Ce1 3.525448 1_655
Cd0 Ce1 3.525451 1_555
Cd0 Ce1 3.525451 1_665
Cd1 Ce1 3.288688 1_565
Cd1 Ce1 3.288692 1_555
Cd1 Ce1 3.288692 1_665
Cd1 In0 3.295026 1_555
Cd1 Ce0 3.525448 1_565
Cd1 Ce0 3.525451 1_555
Cd1 Ce0 3.525451 1_665
In0 In1 2.967623 1_456
In0 In1 2.967623 1_566
In0 In1 2.967631 1_556
