# generated using pymatgen
data_Dy3(AlNi3)2
_symmetry_space_group_name_H-M   'P 1'
_cell_length_a   7.66153950
_cell_length_b   7.66132380
_cell_length_c   7.66152661
_cell_angle_alpha   109.47082799
_cell_angle_beta   109.47290593
_cell_angle_gamma   109.46902722
_symmetry_Int_Tables_number   1
_chemical_formula_structural   Dy3(AlNi3)2
_chemical_formula_sum   'Dy6 Al4 Ni12'
_cell_volume   346.19286602
_cell_formula_units_Z   2
loop_
 _symmetry_equiv_pos_site_id
 _symmetry_equiv_pos_as_xyz
  1  'x, y, z'
loop_
 _atom_site_type_symbol
 _atom_site_label
 _atom_site_symmetry_multiplicity
 _atom_site_fract_x
 _atom_site_fract_y
 _atom_site_fract_z
 _atom_site_occupancy
  Dy  Dy0  1  0.29400354  0.29397552  0.00002404  1
  Dy  Dy1  1  0.70602167  0.70602073  0.00002035  1
  Dy  Dy2  1  0.29401631  0.00001911  0.29401557  1
  Dy  Dy3  1  0.70603959  -0.00000454  0.70604595  1
  Dy  Dy4  1  0.00000550  0.70602269  0.70603166  1
  Dy  Dy5  1  0.00000206  0.29397626  0.29400557  1
  Al  Al0  1  0.50003704  0.50004475  0.50002616  1
  Al  Al1  1  0.00002107  -0.00000140  0.50001713  1
  Al  Al2  1  0.50000438  -0.00001831  -0.00002970  1
  Al  Al3  1  0.00003239  0.50002368  0.00005424  1
  Ni  Ni0  1  0.66562358  -0.00005014  0.33421801  1
  Ni  Ni1  1  0.33432826  0.33428284  0.66859553  1
  Ni  Ni2  1  0.66857495  0.33429834  0.33426569  1
  Ni  Ni3  1  0.00009249  0.33433169  0.66582845  1
  Ni  Ni4  1  0.00009673  0.66570638  0.33423544  1
  Ni  Ni5  1  0.33406924  0.66852017  0.33418729  1
  Ni  Ni6  1  0.66575606  0.66571998  0.33144679  1
  Ni  Ni7  1  0.66566413  0.33148137  0.66578848  1
  Ni  Ni8  1  0.33139288  0.66567707  0.66563858  1
  Ni  Ni9  1  0.66581978  0.33435118  -0.00000455  1
  Ni  Ni10  1  0.33418554  -0.00004401  0.66558294  1
  Ni  Ni11  1  0.33421079  0.66566465  0.00000638  1
loop_
_geom_bond_atom_site_label_1
_geom_bond_atom_site_label_2
_geom_bond_distance
_geom_bond_site_symmetry_2
Dy0 Ni11 2.760333 1_555
Dy0 Ni1 2.760578 1_554
Dy0 Ni6 2.760610 1_555
Dy0 Ni9 2.761115 1_555
Dy0 Ni3 2.978239 1_554
Dy0 Ni2 2.978384 1_555
Dy0 Ni5 2.978962 1_555
Dy0 Ni10 2.979058 1_554
Dy1 Ni9 2.760069 1_555
Dy1 Ni6 2.760370 1_555
Dy1 Ni1 2.760421 1_554
Dy1 Ni11 2.760985 1_555
Dy1 Ni7 2.978073 1_554
Dy1 Ni0 2.978574 1_565
Dy1 Ni4 2.978763 1_655
Dy1 Ni8 2.979127 1_554
Dy2 Ni10 2.759660 1_555
Dy2 Ni5 2.759841 1_545
Dy2 Ni0 2.759928 1_555
Dy2 Ni7 2.760450 1_555
Dy2 Ni4 2.978278 1_545
Dy2 Ni1 2.978585 1_555
Dy2 Ni11 2.978637 1_545
Dy2 Ni2 2.978847 1_555
Dy3 Ni0 2.760889 1_555
Dy3 Ni7 2.760934 1_555
Dy3 Ni10 2.761027 1_555
Dy3 Ni5 2.761666 1_545
Dy3 Ni9 2.978538 1_556
Dy3 Ni8 2.978825 1_545
Dy3 Ni6 2.978835 1_545
Dy3 Ni3 2.978897 1_655
Dy4 Ni3 2.760547 1_555
Dy4 Ni8 2.760570 1_555
Dy4 Ni2 2.760594 1_455
Dy4 Ni4 2.761237 1_555
Dy4 Ni11 2.978542 1_556
Dy4 Ni6 2.978556 1_455
Dy4 Ni10 2.978819 1_565
Dy4 Ni7 2.979015 1_455
Dy5 Ni8 2.760066 1_555
Dy5 Ni4 2.760267 1_555
Dy5 Ni2 2.760416 1_455
Dy5 Ni3 2.760840 1_555
Dy5 Ni5 2.978206 1_555
Dy5 Ni9 2.978648 1_455
Dy5 Ni1 2.978863 1_555
Dy5 Ni0 2.978993 1_455
Al0 Ni7 2.449937 1_555
Al0 Ni8 2.449958 1_555
Al0 Ni6 2.450160 1_555
Al0 Ni2 2.450294 1_555
Al0 Ni1 2.450398 1_555
Al0 Ni5 2.451015 1_555
Al0 Dy3 3.151559 1_565
Al0 Dy4 3.151760 1_655
Al0 Dy0 3.151883 1_555
Al0 Dy1 3.151907 1_556
Al0 Dy2 3.152060 1_555
Al0 Dy5 3.152151 1_555
Al1 Ni10 2.449356 1_555
Al1 Ni6 2.450147 1_445
Al1 Ni1 2.450328 1_555
Al1 Ni3 2.450329 1_555
Al1 Ni4 2.450605 1_545
Al1 Ni0 2.450852 1_455
Al1 Dy4 3.151785 1_545
Al1 Dy5 3.151799 1_555
Al1 Dy1 3.151899 1_445
Al1 Dy2 3.151934 1_555
Al1 Dy0 3.151947 1_556
Al1 Dy3 3.152005 1_455
Al2 Ni0 2.449935 1_555
Al2 Ni2 2.450378 1_555
Al2 Ni8 2.450422 1_544
Al2 Ni11 2.450668 1_545
Al2 Ni9 2.450803 1_555
Al2 Ni10 2.450899 1_554
Al2 Dy3 3.151663 1_554
Al2 Dy1 3.151704 1_545
Al2 Dy0 3.151776 1_555
Al2 Dy4 3.151905 1_544
Al2 Dy5 3.151971 1_655
Al2 Dy2 3.152185 1_555
Al3 Ni5 2.448708 1_555
Al3 Ni4 2.449228 1_555
Al3 Ni9 2.449490 1_455
Al3 Ni11 2.449647 1_555
Al3 Ni3 2.450036 1_554
Al3 Ni7 2.450501 1_454
Al3 Dy5 3.151852 1_555
Al3 Dy2 3.151875 1_565
Al3 Dy1 3.151903 1_455
Al3 Dy0 3.151960 1_555
Al3 Dy4 3.152028 1_554
Al3 Dy3 3.152091 1_454
Ni0 Ni11 2.553710 1_545
Ni0 Ni2 2.553981 1_555
Ni0 Ni6 2.553987 1_545
Ni0 Ni3 2.555118 1_655
Ni1 Ni7 2.552946 1_555
Ni1 Ni10 2.553417 1_555
Ni1 Ni3 2.553898 1_555
Ni1 Ni8 2.554054 1_555
Ni2 Ni6 2.553607 1_555
Ni2 Ni9 2.554197 1_555
Ni2 Ni7 2.554683 1_555
Ni3 Ni7 2.554938 1_455
Ni4 Ni5 2.551764 1_555
Ni4 Ni9 2.553618 1_455
Ni4 Ni6 2.554556 1_455
Ni5 Ni8 2.553597 1_555
Ni5 Ni6 2.555460 1_555
Ni7 Ni9 2.552889 1_556
Ni10 Ni4 2.553139 1_545
Ni10 Ni8 2.554111 1_545
Ni10 Ni9 2.555066 1_556
Ni11 Ni3 2.552993 1_554
Ni11 Ni5 2.553493 1_555
Ni11 Ni8 2.554684 1_554
