# generated using pymatgen
data_CaNdV4O12
_symmetry_space_group_name_H-M   'P 1'
_cell_length_a   5.31693282
_cell_length_b   5.31693282
_cell_length_c   7.53114192
_cell_angle_alpha   90.00000000
_cell_angle_beta   90.00000000
_cell_angle_gamma   90.45380170
_symmetry_Int_Tables_number   1
_chemical_formula_structural   CaNdV4O12
_chemical_formula_sum   'Ca1 Nd1 V4 O12'
_cell_volume   212.89700666
_cell_formula_units_Z   1
loop_
 _symmetry_equiv_pos_site_id
 _symmetry_equiv_pos_as_xyz
  1  'x, y, z'
loop_
 _atom_site_type_symbol
 _atom_site_label
 _atom_site_symmetry_multiplicity
 _atom_site_fract_x
 _atom_site_fract_y
 _atom_site_fract_z
 _atom_site_occupancy
  Ca  Ca0  1  0.49024865  0.50975135  -0.00000000  1
  Nd  Nd0  1  0.01330944  0.98669056  0.50000000  1
  V  V0  1  0.50518052  0.99872158  0.24596912  1
  V  V1  1  0.50518052  0.99872158  0.75403088  1
  V  V2  1  0.00127842  0.49481948  0.75403088  1
  V  V3  1  0.00127842  0.49481948  0.24596912  1
  O  O0  1  0.27356942  0.27844104  0.24914959  1
  O  O1  1  0.72155896  0.72643058  0.24914959  1
  O  O2  1  0.72155896  0.72643058  0.75085041  1
  O  O3  1  0.27356942  0.27844104  0.75085041  1
  O  O4  1  0.22345564  0.77654436  0.22416786  1
  O  O5  1  0.78062338  0.21937662  0.28062106  1
  O  O6  1  0.78062338  0.21937662  0.71937894  1
  O  O7  1  0.22345564  0.77654436  0.77583214  1
  O  O8  1  0.52791821  0.03365188  -0.00000000  1
  O  O9  1  0.46614593  0.98000300  0.50000000  1
  O  O10  1  0.96634812  0.47208179  -0.00000000  1
  O  O11  1  0.01999700  0.53385407  0.50000000  1
loop_
_geom_bond_atom_site_label_1
_geom_bond_atom_site_label_2
_geom_bond_distance
_geom_bond_site_symmetry_2
Ca0 O1 2.517575 1_555
Ca0 O3 2.517575 1_554
Ca0 O0 2.517575 1_555
Ca0 O2 2.517575 1_554
Ca0 O8 2.540881 1_555
Ca0 O10 2.540881 1_555
Ca0 O7 2.628009 1_554
Ca0 O4 2.628009 1_555
Ca0 O10 2.791152 1_455
Ca0 O8 2.791152 1_565
Nd0 O11 2.408245 1_555
Nd0 O9 2.408245 1_555
Nd0 O5 2.411459 1_465
Nd0 O6 2.411459 1_465
Nd0 O7 2.613799 1_555
Nd0 O4 2.613799 1_555
Nd0 O1 2.802887 1_455
Nd0 O0 2.802887 1_565
Nd0 O2 2.802887 1_455
Nd0 O3 2.802887 1_565
Nd0 O11 2.909167 1_565
Nd0 O9 2.909167 1_455
O0 V3 1.856482 1_555
O0 V0 1.938554 1_545
O1 V0 1.856482 1_555
O1 V3 1.938554 1_655
O2 V1 1.856482 1_555
O2 V2 1.938554 1_655
O3 V2 1.856482 1_555
O3 V1 1.938554 1_545
O4 V0 1.907391 1_555
O4 V3 1.907391 1_555
O5 V0 1.887352 1_545
O5 V3 1.887352 1_655
O6 V1 1.887352 1_545
O6 V2 1.887352 1_655
O7 V1 1.907391 1_555
O7 V2 1.907391 1_555
O8 V0 1.865541 1_545
O8 V1 1.865541 1_544
O9 V0 1.926854 1_555
O9 V1 1.926854 1_555
O10 V3 1.865541 1_655
O10 V2 1.865541 1_654
O11 V2 1.926854 1_555
O11 V3 1.926854 1_555
