# generated using pymatgen
data_SrCdB2O5
_symmetry_space_group_name_H-M   'P 1'
_cell_length_a   6.37063301
_cell_length_b   6.37063301
_cell_length_c   11.17276904
_cell_angle_alpha   84.38953557
_cell_angle_beta   84.38953557
_cell_angle_gamma   106.28372657
_symmetry_Int_Tables_number   1
_chemical_formula_structural   SrCdB2O5
_chemical_formula_sum   'Sr4 Cd4 B8 O20'
_cell_volume   429.43635994
_cell_formula_units_Z   4
loop_
 _symmetry_equiv_pos_site_id
 _symmetry_equiv_pos_as_xyz
  1  'x, y, z'
loop_
 _atom_site_type_symbol
 _atom_site_label
 _atom_site_symmetry_multiplicity
 _atom_site_fract_x
 _atom_site_fract_y
 _atom_site_fract_z
 _atom_site_occupancy
  Sr  Sr0  1  0.63079978  0.36920022  0.75000000  1
  Sr  Sr1  1  0.36920022  0.63079978  0.25000000  1
  Sr  Sr2  1  0.81636684  0.18363316  0.25000000  1
  Sr  Sr3  1  0.18363316  0.81636684  0.75000000  1
  Cd  Cd0  1  0.06481264  0.26179894  0.55727299  1
  Cd  Cd1  1  0.73820106  0.93518736  0.94272701  1
  Cd  Cd2  1  0.93518736  0.73820106  0.44272701  1
  Cd  Cd3  1  0.26179894  0.06481264  0.05727299  1
  B  B0  1  0.54345307  0.27045197  0.50420149  1
  B  B1  1  0.72954803  0.45654693  0.99579851  1
  B  B2  1  0.45654693  0.72954803  0.49579851  1
  B  B3  1  0.27045197  0.54345307  0.00420149  1
  B  B4  1  0.13137612  0.32485360  0.83124035  1
  B  B5  1  0.67514640  0.86862388  0.66875965  1
  B  B6  1  0.86862388  0.67514640  0.16875965  1
  B  B7  1  0.32485360  0.13137612  0.33124035  1
  O  O0  1  0.37738983  0.18516091  0.59664407  1
  O  O1  1  0.81483909  0.62261017  0.90335593  1
  O  O2  1  0.62261017  0.81483909  0.40335593  1
  O  O3  1  0.18516091  0.37738983  0.09664407  1
  O  O4  1  0.02942580  0.38654820  0.73949679  1
  O  O5  1  0.61345180  0.97057420  0.76050321  1
  O  O6  1  0.97057420  0.61345180  0.26050321  1
  O  O7  1  0.38654820  0.02942580  0.23949679  1
  O  O8  1  0.75637443  0.36579231  0.52379443  1
  O  O9  1  0.63420769  0.24362557  0.97620557  1
  O  O10  1  0.24362557  0.63420769  0.47620557  1
  O  O11  1  0.36579231  0.75637443  0.02379443  1
  O  O12  1  0.11524258  0.12737759  0.37296692  1
  O  O13  1  0.87262241  0.88475742  0.12703308  1
  O  O14  1  0.88475742  0.87262241  0.62703308  1
  O  O15  1  0.12737759  0.11524258  0.87296692  1
  O  O16  1  0.50371105  0.27096839  0.38133013  1
  O  O17  1  0.72903161  0.49628895  0.11866987  1
  O  O18  1  0.49628895  0.72903161  0.61866987  1
  O  O19  1  0.27096839  0.50371105  0.88133013  1
loop_
_geom_bond_atom_site_label_1
_geom_bond_atom_site_label_2
_geom_bond_distance
_geom_bond_site_symmetry_2
Cd0 O0 2.252043 1_555
Cd0 O4 2.270372 1_555
Cd0 O8 2.294585 1_455
Cd0 O12 2.333799 1_555
Cd0 O10 2.368375 1_555
Cd0 O14 2.433657 1_445
Cd1 O1 2.252043 1_555
Cd1 O5 2.270372 1_555
Cd1 O9 2.294585 1_565
Cd1 O13 2.333799 1_556
Cd1 O11 2.368375 1_556
Cd1 O15 2.433657 1_665
Cd2 O2 2.252043 1_555
Cd2 O6 2.270372 1_555
Cd2 O10 2.294585 1_655
Cd2 O14 2.333799 1_555
Cd2 O8 2.368375 1_555
Cd2 O12 2.433657 1_665
Cd3 O3 2.252043 1_555
Cd3 O7 2.270372 1_555
Cd3 O11 2.294585 1_545
Cd3 O15 2.333799 1_554
Cd3 O9 2.368375 1_554
Cd3 O13 2.433657 1_445
B0 O0 1.354794 1_555
B0 O8 1.370696 1_555
B0 O16 1.419955 1_555
B1 O1 1.354794 1_555
B1 O9 1.370696 1_555
B1 O17 1.419955 1_556
B2 O2 1.354794 1_555
B2 O10 1.370696 1_555
B2 O18 1.419955 1_555
B3 O3 1.354794 1_555
B3 O11 1.370696 1_555
B3 O19 1.419955 1_554
B4 O4 1.349647 1_555
B4 O15 1.363100 1_555
B4 O19 1.433913 1_555
B5 O5 1.349647 1_555
B5 O14 1.363100 1_555
B5 O18 1.433913 1_555
B6 O6 1.349647 1_555
B6 O13 1.363100 1_555
B6 O17 1.433913 1_555
B7 O7 1.349647 1_555
B7 O12 1.363100 1_555
B7 O16 1.433913 1_555
O0 Sr0 2.605540 1_555
O0 Sr3 2.674389 1_545
O1 Sr0 2.605540 1_555
O1 Sr3 2.674389 1_655
O2 Sr1 2.605540 1_555
O2 Sr2 2.674389 1_565
O3 Sr1 2.605540 1_555
O3 Sr2 2.674389 1_455
O4 Sr0 2.501370 1_455
O4 Sr3 2.655852 1_555
O5 Sr0 2.501370 1_565
O5 Sr3 2.655852 1_555
O6 Sr1 2.501370 1_655
O6 Sr2 2.655852 1_555
O7 Sr1 2.501370 1_545
O7 Sr2 2.655852 1_555
O8 Sr0 2.579351 1_555
O9 Sr0 2.579351 1_555
O10 Sr1 2.579351 1_555
O11 Sr1 2.579351 1_555
O12 Sr2 2.537556 1_455
O13 Sr2 2.537556 1_565
O14 Sr3 2.537556 1_655
O15 Sr3 2.537556 1_545
O16 Sr2 2.576734 1_555
O16 Sr1 2.971866 1_555
O17 Sr2 2.576734 1_555
O17 Sr1 2.971866 1_555
O18 Sr3 2.576734 1_555
O18 Sr0 2.971866 1_555
O19 Sr3 2.576734 1_555
O19 Sr0 2.971866 1_555
