# generated using pymatgen
data_CoH20C4(N5O6)2
_symmetry_space_group_name_H-M   'P 1'
_cell_length_a   6.67806355
_cell_length_b   8.02822990
_cell_length_c   18.02925600
_cell_angle_alpha   90.00000000
_cell_angle_beta   90.00000000
_cell_angle_gamma   96.83048555
_symmetry_Int_Tables_number   1
_chemical_formula_structural   CoH20C4(N5O6)2
_chemical_formula_sum   'Co2 H40 C8 N20 O24'
_cell_volume   959.74244046
_cell_formula_units_Z   2
loop_
 _symmetry_equiv_pos_site_id
 _symmetry_equiv_pos_as_xyz
  1  'x, y, z'
loop_
 _atom_site_type_symbol
 _atom_site_label
 _atom_site_symmetry_multiplicity
 _atom_site_fract_x
 _atom_site_fract_y
 _atom_site_fract_z
 _atom_site_occupancy
  Co  Co0  1  0.00000000  0.00000000  0.00000000  1
  Co  Co1  1  0.50000000  0.50000000  0.50000000  1
  H  H0  1  0.41766400  0.88259100  0.19119700  1
  H  H1  1  0.58233600  0.11740900  0.80880300  1
  H  H2  1  0.08233600  0.61740900  0.69119700  1
  H  H3  1  0.91766400  0.38259100  0.30880300  1
  H  H4  1  0.36375400  0.80055200  0.48238600  1
  H  H5  1  0.63624600  0.19944800  0.51761400  1
  H  H6  1  0.13624600  0.69944800  0.98238600  1
  H  H7  1  0.86375400  0.30055200  0.01761400  1
  H  H8  1  0.78558200  0.67780200  0.28343000  1
  H  H9  1  0.21441800  0.32219800  0.71657000  1
  H  H10  1  0.71441800  0.82219800  0.78343000  1
  H  H11  1  0.28558200  0.17780200  0.21657000  1
  H  H12  1  0.01510200  0.88749600  0.43598600  1
  H  H13  1  0.98489800  0.11250400  0.56401400  1
  H  H14  1  0.48489800  0.61250400  0.93598600  1
  H  H15  1  0.51510200  0.38749600  0.06401400  1
  H  H16  1  0.06732900  0.70462500  0.06571100  1
  H  H17  1  0.93267100  0.29537500  0.93428900  1
  H  H18  1  0.43267100  0.79537500  0.56571100  1
  H  H19  1  0.56732900  0.20462500  0.43428900  1
  H  H20  1  0.96962300  0.83725300  0.31042500  1
  H  H21  1  0.03037700  0.16274700  0.68957500  1
  H  H22  1  0.53037700  0.66274700  0.81042500  1
  H  H23  1  0.46962300  0.33725300  0.18957500  1
  H  H24  1  0.08147100  0.92092000  0.83723600  1
  H  H25  1  0.91852900  0.07908000  0.16276400  1
  H  H26  1  0.41852900  0.57908000  0.33723600  1
  H  H27  1  0.58147100  0.42092000  0.66276400  1
  H  H28  1  0.28594100  0.94631300  0.77301800  1
  H  H29  1  0.71405900  0.05368700  0.22698200  1
  H  H30  1  0.21405900  0.55368700  0.27301800  1
  H  H31  1  0.78594100  0.44631300  0.72698200  1
  H  H32  1  0.39881200  0.80831200  0.10122000  1
  H  H33  1  0.60118800  0.19168800  0.89878000  1
  H  H34  1  0.10118800  0.69168800  0.60122000  1
  H  H35  1  0.89881200  0.30831200  0.39878000  1
  H  H36  1  0.84963400  0.77497000  0.49981700  1
  H  H37  1  0.15036600  0.22503000  0.50018300  1
  H  H38  1  0.65036600  0.72503000  0.99981700  1
  H  H39  1  0.34963400  0.27497000  0.00018300  1
  C  C0  1  0.77972500  0.73194700  0.39248500  1
  C  C1  1  0.22027500  0.26805300  0.60751500  1
  C  C2  1  0.72027500  0.76805300  0.89248500  1
  C  C3  1  0.27972500  0.23194700  0.10751500  1
  C  C4  1  0.67381300  0.92920900  0.12681200  1
  C  C5  1  0.32618700  0.07079100  0.87318800  1
  C  C6  1  0.82618700  0.57079100  0.62681200  1
  C  C7  1  0.17381300  0.42920900  0.37318800  1
  N  N0  1  0.48954200  0.84960500  0.14444700  1
  N  N1  1  0.51045800  0.15039500  0.85555300  1
  N  N2  1  0.01045800  0.65039500  0.64444700  1
  N  N3  1  0.98954200  0.34960500  0.35555300  1
  N  N4  1  0.83504000  0.76706600  0.32145100  1
  N  N5  1  0.16496000  0.23293400  0.67854900  1
  N  N6  1  0.66496000  0.73293400  0.82145100  1
  N  N7  1  0.33504000  0.26706600  0.17854900  1
  N  N8  1  0.22475200  0.97016300  0.82301800  1
  N  N9  1  0.77524800  0.02983700  0.17698200  1
  N  N10  1  0.27524800  0.52983700  0.32301800  1
  N  N11  1  0.72475200  0.47016300  0.67698200  1
  N  N12  1  0.87900500  0.82030700  0.44736000  1
  N  N13  1  0.12099500  0.17969300  0.55264000  1
  N  N14  1  0.62099500  0.67969300  0.94736000  1
  N  N15  1  0.37900500  0.32030700  0.05264000  1
  N  N16  1  0.86254900  0.51558900  0.15633700  1
  N  N17  1  0.13745100  0.48441100  0.84366300  1
  N  N18  1  0.63745100  0.98441100  0.65633700  1
  N  N19  1  0.36254900  0.01558900  0.34366300  1
  O  O0  1  0.62963400  0.62064900  0.40490800  1
  O  O1  1  0.37036600  0.37935100  0.59509200  1
  O  O2  1  0.87036600  0.87935100  0.90490800  1
  O  O3  1  0.12963400  0.12064900  0.09509200  1
  O  O4  1  0.02754000  0.60836100  0.16603800  1
  O  O5  1  0.97246000  0.39163900  0.83396200  1
  O  O6  1  0.47246000  0.89163900  0.66603800  1
  O  O7  1  0.52754000  0.10836100  0.33396200  1
  O  O8  1  0.75028800  0.59741300  0.56335800  1
  O  O9  1  0.24971200  0.40258700  0.43664200  1
  O  O10  1  0.74971200  0.90258700  0.06335800  1
  O  O11  1  0.25028800  0.09741300  0.93664200  1
  O  O12  1  0.30138300  0.97991100  0.40924100  1
  O  O13  1  0.69861700  0.02008900  0.59075900  1
  O  O14  1  0.19861700  0.52008900  0.90924100  1
  O  O15  1  0.80138300  0.47991100  0.09075900  1
  O  O16  1  0.25721800  0.96027500  0.28810400  1
  O  O17  1  0.74278200  0.03972500  0.71189600  1
  O  O18  1  0.24278200  0.53972500  0.78810400  1
  O  O19  1  0.75721800  0.46027500  0.21189600  1
  O  O20  1  0.13474700  0.77408700  0.02547100  1
  O  O21  1  0.86525300  0.22591300  0.97452900  1
  O  O22  1  0.36525300  0.72591300  0.52547100  1
  O  O23  1  0.63474700  0.27408700  0.47452900  1
loop_
_geom_bond_atom_site_label_1
_geom_bond_atom_site_label_2
_geom_bond_distance
_geom_bond_site_symmetry_2
Co0 O10 2.097435 1_445
Co0 O11 2.097435 1_554
Co0 O2 2.104155 1_444
Co0 O3 2.104155 1_555
Co0 O21 2.167547 1_454
Co0 O20 2.167547 1_545
Co1 O8 2.097435 1_555
Co1 O9 2.097435 1_555
Co1 O1 2.104155 1_555
Co1 O0 2.104155 1_555
Co1 O23 2.167547 1_555
Co1 O22 2.167547 1_555
H0 N0 1.020391 1_555
H1 N1 1.020391 1_555
H2 N2 1.020391 1_555
H3 N3 1.020391 1_555
H4 O22 0.981832 1_555
H5 O23 0.981832 1_555
H6 O20 0.981832 1_556
H7 O21 0.981832 1_554
H8 N4 1.017961 1_555
H9 N5 1.017961 1_555
H10 N6 1.017961 1_555
H11 N7 1.017961 1_555
H12 N12 1.020997 1_455
H13 N13 1.020997 1_655
H14 N14 1.020997 1_555
H15 N15 1.020997 1_555
H16 O20 0.990104 1_555
H17 O21 0.990104 1_555
H18 O22 0.990104 1_555
H19 O23 0.990104 1_555
H20 N4 1.021921 1_555
H21 N5 1.021921 1_555
H22 N6 1.021921 1_555
H23 N7 1.021921 1_555
H24 N8 1.023506 1_555
H25 N9 1.023506 1_555
H26 N10 1.023506 1_555
H27 N11 1.023506 1_555
H28 N8 1.017291 1_555
H29 N9 1.017291 1_555
H30 N10 1.017291 1_555
H31 N11 1.017291 1_555
H32 N0 1.018147 1_555
H33 N1 1.018147 1_555
H34 N2 1.018147 1_555
H35 N3 1.018147 1_555
H36 N12 1.023930 1_555
H37 N13 1.023930 1_555
H38 N14 1.023930 1_555
H39 N15 1.023930 1_555
C0 O0 1.280689 1_555
C0 N12 1.345263 1_555
C0 N4 1.353270 1_555
C1 O1 1.280689 1_555
C1 N13 1.345263 1_555
C1 N5 1.353270 1_555
C2 O2 1.280689 1_555
C2 N14 1.345263 1_555
C2 N6 1.353270 1_555
C3 O3 1.280689 1_555
C3 N15 1.345263 1_555
C3 N7 1.353270 1_555
C4 O10 1.279513 1_555
C4 N9 1.341456 1_565
C4 N0 1.355270 1_555
C5 O11 1.279513 1_555
C5 N8 1.341456 1_545
C5 N1 1.355270 1_555
C6 O8 1.279513 1_555
C6 N11 1.341456 1_555
C6 N2 1.355270 1_655
C7 O9 1.279513 1_555
C7 N10 1.341456 1_555
C7 N3 1.355270 1_455
N16 O4 1.266538 1_655
N16 O15 1.272379 1_555
N16 O19 1.273209 1_555
N17 O5 1.266538 1_455
N17 O14 1.272379 1_555
N17 O18 1.273209 1_555
N18 O6 1.266538 1_555
N18 O13 1.272379 1_565
N18 O17 1.273209 1_565
N19 O7 1.266538 1_555
N19 O12 1.272379 1_545
N19 O16 1.273209 1_545
