# generated using pymatgen
data_AsPdSe
_symmetry_space_group_name_H-M   'P 1'
_cell_length_a   6.14152941
_cell_length_b   6.14152941
_cell_length_c   6.14152941
_cell_angle_alpha   90.00015393
_cell_angle_beta   90.00001922
_cell_angle_gamma   89.99976901
_symmetry_Int_Tables_number   1
_chemical_formula_structural   AsPdSe
_chemical_formula_sum   'As4 Pd4 Se4'
_cell_volume   231.64856152
_cell_formula_units_Z   4
loop_
 _symmetry_equiv_pos_site_id
 _symmetry_equiv_pos_as_xyz
  1  'x, y, z'
loop_
 _atom_site_type_symbol
 _atom_site_label
 _atom_site_symmetry_multiplicity
 _atom_site_fract_x
 _atom_site_fract_y
 _atom_site_fract_z
 _atom_site_occupancy
  As  As0  1  0.11551809  0.88448191  0.38448191  1
  As  As1  1  0.88448091  0.38448091  0.11551909  1
  As  As2  1  0.61551909  0.61551809  0.61551909  1
  As  As3  1  0.38448091  0.11551809  0.88448191  1
  Pd  Pd0  1  0.99269576  0.50730424  0.49269576  1
  Pd  Pd1  1  0.50730324  0.49269676  0.99269676  1
  Pd  Pd2  1  0.49269576  0.99269576  0.50730424  1
  Pd  Pd3  1  0.00730424  0.00730424  0.00730424  1
  Se  Se0  1  0.11291900  0.61291800  0.88708200  1
  Se  Se1  1  0.88708200  0.11291900  0.61291800  1
  Se  Se2  1  0.61291800  0.88708100  0.11291700  1
  Se  Se3  1  0.38708200  0.38708300  0.38708100  1
loop_
_geom_bond_atom_site_label_1
_geom_bond_atom_site_label_2
_geom_bond_distance
_geom_bond_site_symmetry_2
As0 Se1 2.429974 1_465
As0 Pd3 2.525197 1_565
As0 Pd2 2.525198 1_555
As0 Pd0 2.525201 1_455
As1 Se0 2.429995 1_654
As1 Pd3 2.525190 1_655
As1 Pd0 2.525193 1_555
As1 Pd1 2.525197 1_554
As2 Se3 2.429983 1_555
As2 Pd0 2.525190 1_555
As2 Pd2 2.525198 1_555
As2 Pd1 2.525200 1_555
As3 Se2 2.429978 1_546
As3 Pd3 2.525194 1_556
As3 Pd2 2.525195 1_545
As3 Pd1 2.525204 1_555
Pd0 Se3 2.613924 1_655
Pd0 Se1 2.613926 1_555
Pd0 Se0 2.613928 1_655
Pd1 Se0 2.613913 1_555
Pd1 Se2 2.613914 1_556
Pd1 Se3 2.613917 1_556
Pd2 Se1 2.613931 1_565
Pd2 Se2 2.613932 1_555
Pd2 Se3 2.613934 1_565
Pd3 Se0 2.613925 1_544
Pd3 Se1 2.613929 1_454
Pd3 Se2 2.613931 1_445
