# generated using pymatgen
data_CaB4(H10N)2
_symmetry_space_group_name_H-M   'P 1'
_cell_length_a   7.98508639
_cell_length_b   7.98508639
_cell_length_c   8.39733100
_cell_angle_alpha   90.00000000
_cell_angle_beta   90.00000000
_cell_angle_gamma   117.74371719
_symmetry_Int_Tables_number   1
_chemical_formula_structural   CaB4(H10N)2
_chemical_formula_sum   'Ca2 B8 H40 N4'
_cell_volume   473.87387563
_cell_formula_units_Z   2
loop_
 _symmetry_equiv_pos_site_id
 _symmetry_equiv_pos_as_xyz
  1  'x, y, z'
loop_
 _atom_site_type_symbol
 _atom_site_label
 _atom_site_symmetry_multiplicity
 _atom_site_fract_x
 _atom_site_fract_y
 _atom_site_fract_z
 _atom_site_occupancy
  Ca  Ca0  1  0.80348100  0.80348100  0.00000000  1
  Ca  Ca1  1  0.30348100  0.30348100  0.50000000  1
  B  B0  1  0.43382300  0.01445700  0.55402700  1
  B  B1  1  0.01445700  0.43382300  0.44597300  1
  B  B2  1  0.93382300  0.51445700  0.94597300  1
  B  B3  1  0.51445700  0.93382300  0.05402700  1
  B  B4  1  0.08284900  0.06655300  0.22735500  1
  B  B5  1  0.06655300  0.08284900  0.77264500  1
  B  B6  1  0.58284900  0.56655300  0.27264500  1
  B  B7  1  0.56655300  0.58284900  0.72735500  1
  H  H0  1  0.88432600  0.57644500  0.58616200  1
  H  H1  1  0.57644500  0.88432600  0.41383800  1
  H  H2  1  0.38432600  0.07644500  0.91383800  1
  H  H3  1  0.07644500  0.38432600  0.08616200  1
  H  H4  1  0.66632200  0.94442100  0.59220900  1
  H  H5  1  0.94442100  0.66632200  0.40779100  1
  H  H6  1  0.16632200  0.44442100  0.90779100  1
  H  H7  1  0.44442100  0.16632200  0.09220900  1
  H  H8  1  0.10878100  0.72044900  0.54587700  1
  H  H9  1  0.72044900  0.10878100  0.45412300  1
  H  H10  1  0.60878100  0.22044900  0.95412300  1
  H  H11  1  0.22044900  0.60878100  0.04587700  1
  H  H12  1  0.02598900  0.35155300  0.56546800  1
  H  H13  1  0.35155300  0.02598900  0.43453200  1
  H  H14  1  0.52598900  0.85155300  0.93453200  1
  H  H15  1  0.85155300  0.52598900  0.06546800  1
  H  H16  1  0.49083700  0.15818200  0.63457800  1
  H  H17  1  0.15818200  0.49083700  0.36542200  1
  H  H18  1  0.99083700  0.65818200  0.86542200  1
  H  H19  1  0.65818200  0.99083700  0.13457800  1
  H  H20  1  0.83039200  0.37955200  0.86479600  1
  H  H21  1  0.37955200  0.83039200  0.13520400  1
  H  H22  1  0.33039200  0.87955200  0.63520400  1
  H  H23  1  0.87955200  0.33039200  0.36479600  1
  H  H24  1  0.04347100  0.03057600  0.63341300  1
  H  H25  1  0.03057600  0.04347100  0.36658700  1
  H  H26  1  0.54347100  0.53057600  0.86658700  1
  H  H27  1  0.53057600  0.54347100  0.13341300  1
  H  H28  1  0.09948500  0.97169000  0.85091000  1
  H  H29  1  0.97169000  0.09948500  0.14909000  1
  H  H30  1  0.59948500  0.47169000  0.64909000  1
  H  H31  1  0.47169000  0.59948500  0.35091000  1
  H  H32  1  0.20246700  0.24104900  0.78717800  1
  H  H33  1  0.24104900  0.20246700  0.21282200  1
  H  H34  1  0.70246700  0.74104900  0.71282200  1
  H  H35  1  0.74104900  0.70246700  0.28717800  1
  H  H36  1  0.42320600  0.58768300  0.67949200  1
  H  H37  1  0.58768300  0.42320600  0.32050800  1
  H  H38  1  0.92320600  0.08768300  0.82050800  1
  H  H39  1  0.08768300  0.92320600  0.17949200  1
  N  N0  1  0.98741900  0.61113900  0.50047400  1
  N  N1  1  0.61113900  0.98741900  0.49952600  1
  N  N2  1  0.48741900  0.11113900  0.99952600  1
  N  N3  1  0.11113900  0.48741900  0.00047400  1
loop_
_geom_bond_atom_site_label_1
_geom_bond_atom_site_label_2
_geom_bond_distance
_geom_bond_site_symmetry_2
Ca0 H29 2.449979 1_565
Ca0 H28 2.449979 1_654
Ca0 H26 2.470248 1_554
Ca0 H27 2.470248 1_555
Ca0 H15 2.480168 1_555
Ca0 H14 2.480168 1_554
Ca0 H39 2.513149 1_655
Ca0 H38 2.513149 1_564
Ca0 H35 2.517981 1_555
Ca0 H34 2.517981 1_554
Ca0 H19 2.545087 1_555
Ca0 H18 2.545087 1_554
Ca1 H31 2.449979 1_555
Ca1 H30 2.449979 1_555
Ca1 H25 2.470248 1_555
Ca1 H24 2.470248 1_555
Ca1 H12 2.480168 1_555
Ca1 H13 2.480168 1_555
Ca1 H36 2.513149 1_555
Ca1 H37 2.513149 1_555
Ca1 H32 2.517981 1_555
Ca1 H33 2.517981 1_555
Ca1 H16 2.545087 1_555
Ca1 H17 2.545087 1_555
B0 H22 1.216093 1_545
B0 H16 1.222891 1_555
B0 H13 1.226072 1_555
B0 N1 1.595432 1_545
B1 H23 1.216093 1_455
B1 H17 1.222891 1_555
B1 H12 1.226072 1_555
B1 N0 1.595432 1_455
B2 H20 1.216093 1_555
B2 H18 1.222891 1_555
B2 H15 1.226072 1_556
B2 N3 1.595432 1_656
B3 H21 1.216093 1_555
B3 H19 1.222891 1_555
B3 H14 1.226072 1_554
B3 N2 1.595432 1_564
B4 H25 1.226192 1_555
B4 H29 1.227297 1_455
B4 H33 1.229670 1_555
B4 H39 1.230595 1_545
B5 H24 1.226192 1_555
B5 H28 1.227297 1_545
B5 H32 1.229670 1_555
B5 H38 1.230595 1_455
B6 H27 1.226192 1_555
B6 H31 1.227297 1_555
B6 H35 1.229670 1_555
B6 H37 1.230595 1_555
B7 H26 1.226192 1_555
B7 H30 1.227297 1_555
B7 H34 1.229670 1_555
B7 H36 1.230595 1_555
H0 N0 1.029486 1_555
H1 N1 1.029486 1_555
H2 N2 1.029486 1_555
H3 N3 1.029486 1_555
H4 N1 1.028903 1_555
H5 N0 1.028903 1_555
H6 N3 1.028903 1_556
H7 N2 1.028903 1_554
H8 N0 1.028992 1_455
H9 N1 1.028992 1_545
H10 N2 1.028992 1_555
H11 N3 1.028992 1_555
