# generated using pymatgen
data_C
_symmetry_space_group_name_H-M   'P 1'
_cell_length_a   14.29570032
_cell_length_b   14.29570032
_cell_length_c   14.29570032
_cell_angle_alpha   90.00000000
_cell_angle_beta   90.00000000
_cell_angle_gamma   90.00000000
_symmetry_Int_Tables_number   1
_chemical_formula_structural   C
_chemical_formula_sum   C240
_cell_volume   2921.57006833
_cell_formula_units_Z   240
loop_
 _symmetry_equiv_pos_site_id
 _symmetry_equiv_pos_as_xyz
  1  'x, y, z'
loop_
 _atom_site_type_symbol
 _atom_site_label
 _atom_site_symmetry_multiplicity
 _atom_site_fract_x
 _atom_site_fract_y
 _atom_site_fract_z
 _atom_site_occupancy
  C  C0  1  0.39962950  0.72499286  0.96753401  1
  C  C1  1  0.60037050  0.22499286  0.53246599  1
  C  C2  1  0.10037050  0.27500714  0.46753401  1
  C  C3  1  0.89962950  0.77500714  0.03246599  1
  C  C4  1  0.96753401  0.39962950  0.72499286  1
  C  C5  1  0.53246599  0.60037050  0.22499286  1
  C  C6  1  0.46753401  0.10037050  0.27500714  1
  C  C7  1  0.03246599  0.89962950  0.77500714  1
  C  C8  1  0.72499286  0.96753401  0.39962950  1
  C  C9  1  0.22499286  0.53246599  0.60037050  1
  C  C10  1  0.27500714  0.46753401  0.10037050  1
  C  C11  1  0.77500714  0.03246599  0.89962950  1
  C  C12  1  0.60037050  0.27500714  0.03246599  1
  C  C13  1  0.39962950  0.77500714  0.46753401  1
  C  C14  1  0.89962950  0.72499286  0.53246599  1
  C  C15  1  0.10037050  0.22499286  0.96753401  1
  C  C16  1  0.03246599  0.60037050  0.27500714  1
  C  C17  1  0.46753401  0.39962950  0.77500714  1
  C  C18  1  0.53246599  0.89962950  0.72499286  1
  C  C19  1  0.96753401  0.10037050  0.22499286  1
  C  C20  1  0.27500714  0.03246599  0.60037050  1
  C  C21  1  0.77500714  0.46753401  0.39962950  1
  C  C22  1  0.72499286  0.53246599  0.89962950  1
  C  C23  1  0.22499286  0.96753401  0.10037050  1
  C  C24  1  0.49360969  0.74223304  0.94605175  1
  C  C25  1  0.50639031  0.24223304  0.55394825  1
  C  C26  1  0.00639031  0.25776696  0.44605175  1
  C  C27  1  0.99360969  0.75776696  0.05394825  1
  C  C28  1  0.94605175  0.49360969  0.74223304  1
  C  C29  1  0.55394825  0.50639031  0.24223304  1
  C  C30  1  0.44605175  0.00639031  0.25776696  1
  C  C31  1  0.05394825  0.99360969  0.75776696  1
  C  C32  1  0.74223304  0.94605175  0.49360969  1
  C  C33  1  0.24223304  0.55394825  0.50639031  1
  C  C34  1  0.25776696  0.44605175  0.00639031  1
  C  C35  1  0.75776696  0.05394825  0.99360969  1
  C  C36  1  0.50639031  0.25776696  0.05394825  1
  C  C37  1  0.49360969  0.75776696  0.44605175  1
  C  C38  1  0.99360969  0.74223304  0.55394825  1
  C  C39  1  0.00639031  0.24223304  0.94605175  1
  C  C40  1  0.05394825  0.50639031  0.25776696  1
  C  C41  1  0.44605175  0.49360969  0.75776696  1
  C  C42  1  0.55394825  0.99360969  0.74223304  1
  C  C43  1  0.94605175  0.00639031  0.24223304  1
  C  C44  1  0.25776696  0.05394825  0.50639031  1
  C  C45  1  0.75776696  0.44605175  0.49360969  1
  C  C46  1  0.74223304  0.55394825  0.99360969  1
  C  C47  1  0.24223304  0.94605175  0.00639031  1
  C  C48  1  0.37216418  0.70406165  0.06313741  1
  C  C49  1  0.62783582  0.20406165  0.43686259  1
  C  C50  1  0.12783582  0.29593835  0.56313741  1
  C  C51  1  0.87216418  0.79593835  0.93686259  1
  C  C52  1  0.06313741  0.37216418  0.70406165  1
  C  C53  1  0.43686259  0.62783582  0.20406165  1
  C  C54  1  0.56313741  0.12783582  0.29593835  1
  C  C55  1  0.93686259  0.87216418  0.79593835  1
  C  C56  1  0.70406165  0.06313741  0.37216418  1
  C  C57  1  0.20406165  0.43686259  0.62783582  1
  C  C58  1  0.29593835  0.56313741  0.12783582  1
  C  C59  1  0.79593835  0.93686259  0.87216418  1
  C  C60  1  0.62783582  0.29593835  0.93686259  1
  C  C61  1  0.37216418  0.79593835  0.56313741  1
  C  C62  1  0.87216418  0.70406165  0.43686259  1
  C  C63  1  0.12783582  0.20406165  0.06313741  1
  C  C64  1  0.93686259  0.62783582  0.29593835  1
  C  C65  1  0.56313741  0.37216418  0.79593835  1
  C  C66  1  0.43686259  0.87216418  0.70406165  1
  C  C67  1  0.06313741  0.12783582  0.20406165  1
  C  C68  1  0.29593835  0.93686259  0.62783582  1
  C  C69  1  0.79593835  0.56313741  0.37216418  1
  C  C70  1  0.70406165  0.43686259  0.87216418  1
  C  C71  1  0.20406165  0.06313741  0.12783582  1
  C  C72  1  0.53481247  0.70311737  0.86160910  1
  C  C73  1  0.46518753  0.20311737  0.63839090  1
  C  C74  1  0.96518753  0.29688263  0.36160910  1
  C  C75  1  0.03481247  0.79688263  0.13839090  1
  C  C76  1  0.86160910  0.53481247  0.70311737  1
  C  C77  1  0.63839090  0.46518753  0.20311737  1
  C  C78  1  0.36160910  0.96518753  0.29688263  1
  C  C79  1  0.13839090  0.03481247  0.79688263  1
  C  C80  1  0.70311737  0.86160910  0.53481247  1
  C  C81  1  0.20311737  0.63839090  0.46518753  1
  C  C82  1  0.29688263  0.36160910  0.96518753  1
  C  C83  1  0.79688263  0.13839090  0.03481247  1
  C  C84  1  0.46518753  0.29688263  0.13839090  1
  C  C85  1  0.53481247  0.79688263  0.36160910  1
  C  C86  1  0.03481247  0.70311737  0.63839090  1
  C  C87  1  0.96518753  0.20311737  0.86160910  1
  C  C88  1  0.13839090  0.46518753  0.29688263  1
  C  C89  1  0.36160910  0.53481247  0.79688263  1
  C  C90  1  0.63839090  0.03481247  0.70311737  1
  C  C91  1  0.86160910  0.96518753  0.20311737  1
  C  C92  1  0.29688263  0.13839090  0.46518753  1
  C  C93  1  0.79688263  0.36160910  0.53481247  1
  C  C94  1  0.70311737  0.63839090  0.03481247  1
  C  C95  1  0.20311737  0.86160910  0.96518753  1
  C  C96  1  0.34297408  0.66792864  0.90532349  1
  C  C97  1  0.65702592  0.16792864  0.59467651  1
  C  C98  1  0.15702592  0.33207136  0.40532349  1
  C  C99  1  0.84297408  0.83207136  0.09467651  1
  C  C100  1  0.90532349  0.34297408  0.66792864  1
  C  C101  1  0.59467651  0.65702592  0.16792864  1
  C  C102  1  0.40532349  0.15702592  0.33207136  1
  C  C103  1  0.09467651  0.84297408  0.83207136  1
  C  C104  1  0.66792864  0.90532349  0.34297408  1
  C  C105  1  0.16792864  0.59467651  0.65702592  1
  C  C106  1  0.33207136  0.40532349  0.15702592  1
  C  C107  1  0.83207136  0.09467651  0.84297408  1
  C  C108  1  0.65702592  0.33207136  0.09467651  1
  C  C109  1  0.34297408  0.83207136  0.40532349  1
  C  C110  1  0.84297408  0.66792864  0.59467651  1
  C  C111  1  0.15702592  0.16792864  0.90532349  1
  C  C112  1  0.09467651  0.65702592  0.33207136  1
  C  C113  1  0.40532349  0.34297408  0.83207136  1
  C  C114  1  0.59467651  0.84297408  0.66792864  1
  C  C115  1  0.90532349  0.15702592  0.16792864  1
  C  C116  1  0.33207136  0.09467651  0.65702592  1
  C  C117  1  0.83207136  0.40532349  0.34297408  1
  C  C118  1  0.66792864  0.59467651  0.84297408  1
  C  C119  1  0.16792864  0.90532349  0.15702592  1
  C  C120  1  0.53744364  0.71952136  0.11146109  1
  C  C121  1  0.46255636  0.21952136  0.38853891  1
  C  C122  1  0.96255636  0.28047864  0.61146109  1
  C  C123  1  0.03744364  0.78047864  0.88853891  1
  C  C124  1  0.11146109  0.53744364  0.71952136  1
  C  C125  1  0.38853891  0.46255636  0.21952136  1
  C  C126  1  0.61146109  0.96255636  0.28047864  1
  C  C127  1  0.88853891  0.03744364  0.78047864  1
  C  C128  1  0.71952136  0.11146109  0.53744364  1
  C  C129  1  0.21952136  0.38853891  0.46255636  1
  C  C130  1  0.28047864  0.61146109  0.96255636  1
  C  C131  1  0.78047864  0.88853891  0.03744364  1
  C  C132  1  0.46255636  0.28047864  0.88853891  1
  C  C133  1  0.53744364  0.78047864  0.61146109  1
  C  C134  1  0.03744364  0.71952136  0.38853891  1
  C  C135  1  0.96255636  0.21952136  0.11146109  1
  C  C136  1  0.88853891  0.46255636  0.28047864  1
  C  C137  1  0.61146109  0.53744364  0.78047864  1
  C  C138  1  0.38853891  0.03744364  0.71952136  1
  C  C139  1  0.11146109  0.96255636  0.21952136  1
  C  C140  1  0.28047864  0.88853891  0.46255636  1
  C  C141  1  0.78047864  0.61146109  0.53744364  1
  C  C142  1  0.71952136  0.38853891  0.03744364  1
  C  C143  1  0.21952136  0.11146109  0.96255636  1
  C  C144  1  0.56382849  0.73969520  0.01925439  1
  C  C145  1  0.43617151  0.23969520  0.48074561  1
  C  C146  1  0.93617151  0.26030480  0.51925439  1
  C  C147  1  0.06382849  0.76030480  0.98074561  1
  C  C148  1  0.01925439  0.56382849  0.73969520  1
  C  C149  1  0.48074561  0.43617151  0.23969520  1
  C  C150  1  0.51925439  0.93617151  0.26030480  1
  C  C151  1  0.98074561  0.06382849  0.76030480  1
  C  C152  1  0.73969520  0.01925439  0.56382849  1
  C  C153  1  0.23969520  0.48074561  0.43617151  1
  C  C154  1  0.26030480  0.51925439  0.93617151  1
  C  C155  1  0.76030480  0.98074561  0.06382849  1
  C  C156  1  0.43617151  0.26030480  0.98074561  1
  C  C157  1  0.56382849  0.76030480  0.51925439  1
  C  C158  1  0.06382849  0.73969520  0.48074561  1
  C  C159  1  0.93617151  0.23969520  0.01925439  1
  C  C160  1  0.98074561  0.43617151  0.26030480  1
  C  C161  1  0.51925439  0.56382849  0.76030480  1
  C  C162  1  0.48074561  0.06382849  0.73969520  1
  C  C163  1  0.01925439  0.93617151  0.23969520  1
  C  C164  1  0.26030480  0.98074561  0.43617151  1
  C  C165  1  0.76030480  0.51925439  0.56382849  1
  C  C166  1  0.73969520  0.48074561  0.06382849  1
  C  C167  1  0.23969520  0.01925439  0.93617151  1
  C  C168  1  0.43991288  0.70131068  0.13382494  1
  C  C169  1  0.56008712  0.20131068  0.36617506  1
  C  C170  1  0.06008712  0.29868932  0.63382494  1
  C  C171  1  0.93991288  0.79868932  0.86617506  1
  C  C172  1  0.13382494  0.43991288  0.70131068  1
  C  C173  1  0.36617506  0.56008712  0.20131068  1
  C  C174  1  0.63382494  0.06008712  0.29868932  1
  C  C175  1  0.86617506  0.93991288  0.79868932  1
  C  C176  1  0.70131068  0.13382494  0.43991288  1
  C  C177  1  0.20131068  0.36617506  0.56008712  1
  C  C178  1  0.29868932  0.63382494  0.06008712  1
  C  C179  1  0.79868932  0.86617506  0.93991288  1
  C  C180  1  0.56008712  0.29868932  0.86617506  1
  C  C181  1  0.43991288  0.79868932  0.63382494  1
  C  C182  1  0.93991288  0.70131068  0.36617506  1
  C  C183  1  0.06008712  0.20131068  0.13382494  1
  C  C184  1  0.86617506  0.56008712  0.29868932  1
  C  C185  1  0.63382494  0.43991288  0.79868932  1
  C  C186  1  0.36617506  0.93991288  0.70131068  1
  C  C187  1  0.13382494  0.06008712  0.20131068  1
  C  C188  1  0.29868932  0.86617506  0.56008712  1
  C  C189  1  0.79868932  0.63382494  0.43991288  1
  C  C190  1  0.70131068  0.36617506  0.93991288  1
  C  C191  1  0.20131068  0.13382494  0.06008712  1
  C  C192  1  0.48022646  0.64818427  0.80162321  1
  C  C193  1  0.51977354  0.14818427  0.69837679  1
  C  C194  1  0.01977354  0.35181573  0.30162321  1
  C  C195  1  0.98022646  0.85181573  0.19837679  1
  C  C196  1  0.80162321  0.48022646  0.64818427  1
  C  C197  1  0.69837679  0.51977354  0.14818427  1
  C  C198  1  0.30162321  0.01977354  0.35181573  1
  C  C199  1  0.19837679  0.98022646  0.85181573  1
  C  C200  1  0.64818427  0.80162321  0.48022646  1
  C  C201  1  0.14818427  0.69837679  0.51977354  1
  C  C202  1  0.35181573  0.30162321  0.01977354  1
  C  C203  1  0.85181573  0.19837679  0.98022646  1
  C  C204  1  0.51977354  0.35181573  0.19837679  1
  C  C205  1  0.48022646  0.85181573  0.30162321  1
  C  C206  1  0.98022646  0.64818427  0.69837679  1
  C  C207  1  0.01977354  0.14818427  0.80162321  1
  C  C208  1  0.19837679  0.51977354  0.35181573  1
  C  C209  1  0.30162321  0.48022646  0.85181573  1
  C  C210  1  0.69837679  0.98022646  0.64818427  1
  C  C211  1  0.80162321  0.01977354  0.14818427  1
  C  C212  1  0.35181573  0.19837679  0.51977354  1
  C  C213  1  0.85181573  0.30162321  0.48022646  1
  C  C214  1  0.64818427  0.69837679  0.98022646  1
  C  C215  1  0.14818427  0.80162321  0.01977354  1
  C  C216  1  0.38269642  0.63023913  0.82396626  1
  C  C217  1  0.61730358  0.13023913  0.67603374  1
  C  C218  1  0.11730358  0.36976087  0.32396626  1
  C  C219  1  0.88269642  0.86976087  0.17603374  1
  C  C220  1  0.82396626  0.38269642  0.63023913  1
  C  C221  1  0.67603374  0.61730358  0.13023913  1
  C  C222  1  0.32396626  0.11730358  0.36976087  1
  C  C223  1  0.17603374  0.88269642  0.86976087  1
  C  C224  1  0.63023913  0.82396626  0.38269642  1
  C  C225  1  0.13023913  0.67603374  0.61730358  1
  C  C226  1  0.36976087  0.32396626  0.11730358  1
  C  C227  1  0.86976087  0.17603374  0.88269642  1
  C  C228  1  0.61730358  0.36976087  0.17603374  1
  C  C229  1  0.38269642  0.86976087  0.32396626  1
  C  C230  1  0.88269642  0.63023913  0.67603374  1
  C  C231  1  0.11730358  0.13023913  0.82396626  1
  C  C232  1  0.17603374  0.61730358  0.36976087  1
  C  C233  1  0.32396626  0.38269642  0.86976087  1
  C  C234  1  0.67603374  0.88269642  0.63023913  1
  C  C235  1  0.82396626  0.11730358  0.13023913  1
  C  C236  1  0.36976087  0.17603374  0.61730358  1
  C  C237  1  0.86976087  0.32396626  0.38269642  1
  C  C238  1  0.63023913  0.67603374  0.88269642  1
  C  C239  1  0.13023913  0.82396626  0.11730358  1
loop_
_geom_bond_atom_site_label_1
_geom_bond_atom_site_label_2
_geom_bond_distance
_geom_bond_site_symmetry_2
C0 C24 1.400029 1_555
C0 C48 1.453140 1_556
C0 C96 1.453410 1_555
C1 C25 1.400029 1_555
C1 C49 1.453140 1_555
C1 C97 1.453410 1_555
C2 C26 1.400029 1_555
C2 C50 1.453140 1_555
C2 C98 1.453410 1_555
C3 C51 1.453140 1_554
C3 C99 1.453410 1_555
C4 C52 1.453140 1_655
C5 C53 1.453140 1_555
C10 C34 1.400029 1_555
C10 C58 1.453140 1_555
C10 C106 1.453410 1_555
C11 C35 1.400029 1_555
C11 C59 1.453140 1_545
C12 C36 1.400029 1_555
C12 C60 1.453140 1_554
C13 C37 1.400029 1_555
C13 C61 1.453140 1_555
C14 C38 1.400029 1_555
C14 C62 1.453140 1_555
C15 C39 1.400029 1_555
C15 C63 1.453140 1_556
C16 C40 1.400029 1_555
C16 C64 1.453140 1_455
C17 C41 1.400029 1_555
C17 C65 1.453140 1_555
C18 C42 1.400029 1_555
C18 C66 1.453140 1_555
C19 C43 1.400029 1_555
C19 C67 1.453140 1_655
C20 C44 1.400029 1_555
C20 C68 1.453140 1_545
C21 C45 1.400029 1_555
C21 C69 1.453140 1_555
C22 C46 1.400029 1_555
C22 C70 1.453140 1_555
C23 C47 1.400029 1_555
C23 C71 1.453140 1_565
C24 C72 1.454953 1_555
C25 C73 1.454953 1_555
C26 C74 1.454953 1_455
C27 C3 1.400029 1_555
C27 C75 1.454953 1_655
C28 C4 1.400029 1_555
C28 C76 1.454953 1_555
C29 C5 1.400029 1_555
C29 C77 1.454953 1_555
C30 C6 1.400029 1_555
C30 C78 1.454953 1_545
C31 C7 1.400029 1_555
C31 C79 1.454953 1_565
C32 C8 1.400029 1_555
C32 C80 1.454953 1_555
C33 C9 1.400029 1_555
C33 C81 1.454953 1_555
C34 C82 1.454953 1_554
C35 C83 1.454953 1_556
C36 C84 1.454953 1_555
C37 C85 1.454953 1_555
C38 C86 1.454953 1_655
C39 C87 1.454953 1_455
C40 C88 1.454953 1_555
C41 C89 1.454953 1_555
C42 C90 1.454953 1_565
C43 C91 1.454953 1_545
C44 C92 1.454953 1_555
C45 C93 1.454953 1_555
C46 C94 1.454953 1_556
C47 C95 1.454953 1_554
C54 C6 1.453140 1_555
C55 C7 1.453140 1_655
C56 C8 1.453140 1_545
C57 C9 1.453140 1_555
C100 C220 1.401953 1_555
C100 C4 1.453410 1_555
C100 C122 1.455767 1_555
C101 C221 1.401953 1_555
C101 C5 1.453410 1_555
C101 C120 1.455767 1_555
C102 C222 1.401953 1_555
C102 C6 1.453410 1_555
C102 C121 1.455767 1_555
C103 C223 1.401953 1_555
C103 C7 1.453410 1_555
C103 C123 1.455767 1_555
C104 C224 1.401953 1_555
C104 C8 1.453410 1_555
C104 C126 1.455767 1_555
C105 C225 1.401953 1_555
C105 C9 1.453410 1_555
C105 C124 1.455767 1_555
C106 C226 1.401953 1_555
C106 C125 1.455767 1_555
C107 C227 1.401953 1_555
C107 C11 1.453410 1_555
C107 C127 1.455767 1_555
C108 C228 1.401953 1_555
C108 C12 1.453410 1_555
C108 C142 1.455767 1_555
C109 C229 1.401953 1_555
C109 C13 1.453410 1_555
C109 C140 1.455767 1_555
C110 C230 1.401953 1_555
C110 C14 1.453410 1_555
C110 C141 1.455767 1_555
C111 C231 1.401953 1_555
C111 C15 1.453410 1_555
C111 C143 1.455767 1_555
C112 C232 1.401953 1_555
C112 C16 1.453410 1_555
C112 C134 1.455767 1_555
C113 C233 1.401953 1_555
C113 C17 1.453410 1_555
C113 C132 1.455767 1_555
C114 C234 1.401953 1_555
C114 C18 1.453410 1_555
C114 C133 1.455767 1_555
C115 C235 1.401953 1_555
C115 C19 1.453410 1_555
C115 C135 1.455767 1_555
C116 C236 1.401953 1_555
C116 C20 1.453410 1_555
C116 C138 1.455767 1_555
C117 C237 1.401953 1_555
C117 C21 1.453410 1_555
C117 C136 1.455767 1_555
C118 C238 1.401953 1_555
C118 C22 1.453410 1_555
C118 C137 1.455767 1_555
C119 C239 1.401953 1_555
C119 C23 1.453410 1_555
C119 C139 1.455767 1_555
C120 C144 1.401068 1_555
C120 C168 1.453952 1_555
C121 C145 1.401068 1_555
C121 C169 1.453952 1_555
C122 C146 1.401068 1_555
C122 C170 1.453952 1_655
C123 C147 1.401068 1_555
C123 C171 1.453952 1_455
C124 C148 1.401068 1_555
C124 C172 1.453952 1_555
C125 C149 1.401068 1_555
C125 C173 1.453952 1_555
C126 C150 1.401068 1_555
C126 C174 1.453952 1_565
C127 C151 1.401068 1_555
C127 C175 1.453952 1_545
C128 C152 1.401068 1_555
C128 C176 1.453952 1_555
C128 C97 1.455767 1_555
C129 C153 1.401068 1_555
C129 C177 1.453952 1_555
C129 C98 1.455767 1_555
C130 C154 1.401068 1_555
C130 C178 1.453952 1_556
C130 C96 1.455767 1_555
C131 C155 1.401068 1_555
C131 C179 1.453952 1_554
C131 C99 1.455767 1_555
C132 C156 1.401068 1_555
C132 C180 1.453952 1_555
C133 C157 1.401068 1_555
C133 C181 1.453952 1_555
C134 C158 1.401068 1_555
C134 C182 1.453952 1_455
C135 C159 1.401068 1_555
C135 C183 1.453952 1_655
C136 C160 1.401068 1_555
C136 C184 1.453952 1_555
C137 C161 1.401068 1_555
C137 C185 1.453952 1_555
C138 C162 1.401068 1_555
C138 C186 1.453952 1_545
C139 C163 1.401068 1_555
C139 C187 1.453952 1_565
C140 C164 1.401068 1_555
C140 C188 1.453952 1_555
C141 C165 1.401068 1_555
C141 C189 1.453952 1_555
C142 C166 1.401068 1_555
C142 C190 1.453952 1_554
C143 C167 1.401068 1_555
C143 C191 1.453952 1_556
C144 C24 1.450556 1_554
C144 C214 1.454112 1_554
C145 C25 1.450556 1_555
C145 C212 1.454112 1_555
C146 C26 1.450556 1_655
C146 C213 1.454112 1_555
C147 C27 1.450556 1_456
C147 C215 1.454112 1_556
C148 C28 1.450556 1_455
C148 C206 1.454112 1_455
C149 C29 1.450556 1_555
C149 C204 1.454112 1_555
C150 C30 1.450556 1_565
C150 C205 1.454112 1_555
C151 C31 1.450556 1_645
C151 C207 1.454112 1_655
C152 C32 1.450556 1_545
C152 C210 1.454112 1_545
C153 C33 1.450556 1_555
C153 C208 1.454112 1_555
C154 C34 1.450556 1_556
C154 C209 1.454112 1_555
C155 C35 1.450556 1_564
C155 C211 1.454112 1_565
C156 C36 1.450556 1_556
C156 C202 1.454112 1_556
C157 C37 1.450556 1_555
C157 C200 1.454112 1_555
C158 C38 1.450556 1_455
C158 C201 1.454112 1_555
C159 C39 1.450556 1_654
C159 C203 1.454112 1_554
C160 C40 1.450556 1_655
C160 C194 1.454112 1_655
C161 C41 1.450556 1_555
C161 C192 1.454112 1_555
C162 C42 1.450556 1_545
C162 C193 1.454112 1_555
C163 C43 1.450556 1_465
C163 C195 1.454112 1_455
C164 C44 1.450556 1_565
C164 C198 1.454112 1_565
C165 C45 1.450556 1_555
C165 C196 1.454112 1_555
C166 C46 1.450556 1_554
C166 C197 1.454112 1_555
C167 C47 1.450556 1_546
C167 C199 1.454112 1_545
C168 C48 1.400262 1_555
C168 C53 1.453744 1_555
C169 C49 1.400262 1_555
C169 C54 1.453744 1_555
C170 C50 1.400262 1_555
C170 C52 1.453744 1_555
C171 C51 1.400262 1_555
C171 C55 1.453744 1_555
C172 C52 1.400262 1_555
C172 C57 1.453744 1_555
C173 C53 1.400262 1_555
C173 C58 1.453744 1_555
C174 C54 1.400262 1_555
C174 C56 1.453744 1_555
C175 C55 1.400262 1_555
C175 C59 1.453744 1_555
C176 C56 1.400262 1_555
C176 C49 1.453744 1_555
C177 C57 1.400262 1_555
C177 C50 1.453744 1_555
C178 C58 1.400262 1_555
C178 C48 1.453744 1_555
C179 C59 1.400262 1_555
C179 C51 1.453744 1_555
C180 C60 1.400262 1_555
C180 C65 1.453744 1_555
C181 C61 1.400262 1_555
C181 C66 1.453744 1_555
C182 C62 1.400262 1_555
C182 C64 1.453744 1_555
C183 C63 1.400262 1_555
C183 C67 1.453744 1_555
C184 C64 1.400262 1_555
C184 C69 1.453744 1_555
C185 C65 1.400262 1_555
C185 C70 1.453744 1_555
C186 C66 1.400262 1_555
C186 C68 1.453744 1_555
C187 C67 1.400262 1_555
C187 C71 1.453744 1_555
C188 C68 1.400262 1_555
C188 C61 1.453744 1_555
C189 C69 1.400262 1_555
C189 C62 1.453744 1_555
C190 C70 1.400262 1_555
C190 C60 1.453744 1_555
C191 C71 1.400262 1_555
C191 C63 1.453744 1_555
C192 C72 1.400365 1_555
C192 C216 1.453202 1_555
C193 C73 1.400365 1_555
C193 C217 1.453202 1_555
C194 C74 1.400365 1_455
C194 C218 1.453202 1_555
C195 C75 1.400365 1_655
C195 C219 1.453202 1_555
C196 C76 1.400365 1_555
C196 C220 1.453202 1_555
C197 C77 1.400365 1_555
C197 C221 1.453202 1_555
C198 C78 1.400365 1_545
C198 C222 1.453202 1_555
C199 C79 1.400365 1_565
C199 C223 1.453202 1_555
C200 C80 1.400365 1_555
C200 C224 1.453202 1_555
C201 C81 1.400365 1_555
C201 C225 1.453202 1_555
C202 C82 1.400365 1_554
C202 C226 1.453202 1_555
C203 C83 1.400365 1_556
C203 C227 1.453202 1_555
C204 C84 1.400365 1_555
C204 C228 1.453202 1_555
C205 C85 1.400365 1_555
C205 C229 1.453202 1_555
C206 C86 1.400365 1_655
C206 C230 1.453202 1_555
C207 C87 1.400365 1_455
C207 C231 1.453202 1_555
C208 C88 1.400365 1_555
C208 C232 1.453202 1_555
C209 C89 1.400365 1_555
C209 C233 1.453202 1_555
C210 C90 1.400365 1_565
C210 C234 1.453202 1_555
C211 C91 1.400365 1_545
C211 C235 1.453202 1_555
C212 C92 1.400365 1_555
C212 C236 1.453202 1_555
C213 C93 1.400365 1_555
C213 C237 1.453202 1_555
C214 C94 1.400365 1_556
C214 C238 1.453202 1_555
C215 C95 1.400365 1_554
C215 C239 1.453202 1_555
C216 C96 1.401953 1_555
C216 C89 1.449759 1_555
C217 C97 1.401953 1_555
C217 C90 1.449759 1_555
C218 C98 1.401953 1_555
C218 C88 1.449759 1_555
C219 C99 1.401953 1_555
C219 C91 1.449759 1_555
C220 C93 1.449759 1_555
C221 C94 1.449759 1_555
C222 C92 1.449759 1_555
C223 C95 1.449759 1_555
C224 C85 1.449759 1_555
C225 C86 1.449759 1_555
C226 C84 1.449759 1_555
C227 C87 1.449759 1_555
C228 C77 1.449759 1_555
C229 C78 1.449759 1_555
C230 C76 1.449759 1_555
C231 C79 1.449759 1_555
C232 C81 1.449759 1_555
C233 C82 1.449759 1_555
C234 C80 1.449759 1_555
C235 C83 1.449759 1_555
C236 C73 1.449759 1_555
C237 C74 1.449759 1_555
C238 C72 1.449759 1_555
C239 C75 1.449759 1_555
