# generated using pymatgen
data_CsMg6Nb
_symmetry_space_group_name_H-M   'P 1'
_cell_length_a   7.18326000
_cell_length_b   7.18326000
_cell_length_c   4.15018900
_cell_angle_alpha   90.00000000
_cell_angle_beta   90.00000000
_cell_angle_gamma   90.00000000
_symmetry_Int_Tables_number   1
_chemical_formula_structural   CsMg6Nb
_chemical_formula_sum   'Cs1 Mg6 Nb1'
_cell_volume   214.14653280
_cell_formula_units_Z   1
loop_
 _symmetry_equiv_pos_site_id
 _symmetry_equiv_pos_as_xyz
  1  'x, y, z'
loop_
 _atom_site_type_symbol
 _atom_site_label
 _atom_site_symmetry_multiplicity
 _atom_site_fract_x
 _atom_site_fract_y
 _atom_site_fract_z
 _atom_site_occupancy
  Cs  Cs0  1  0.00000000  0.00000000  0.50000000  1
  Mg  Mg0  1  0.00000000  0.50000000  0.50000000  1
  Mg  Mg1  1  0.50000000  0.00000000  0.50000000  1
  Mg  Mg2  1  0.70702900  0.29297100  0.00000000  1
  Mg  Mg3  1  0.29297100  0.70702900  0.00000000  1
  Mg  Mg4  1  0.70702900  0.70702900  0.00000000  1
  Mg  Mg5  1  0.29297100  0.29297100  0.00000000  1
  Nb  Nb0  1  0.50000000  0.50000000  0.50000000  1
loop_
_geom_bond_atom_site_label_1
_geom_bond_atom_site_label_2
_geom_bond_distance
_geom_bond_site_symmetry_2
Cs0 Mg1 3.591630 1_455
Cs0 Mg0 3.591630 1_545
Cs0 Mg0 3.591630 1_555
Cs0 Mg1 3.591630 1_555
Cs0 Mg2 3.628188 1_456
Cs0 Mg3 3.628188 1_545
Cs0 Mg2 3.628188 1_455
Cs0 Mg3 3.628188 1_546
Cs0 Mg4 3.628188 1_446
Cs0 Mg4 3.628188 1_445
Cs0 Mg5 3.628188 1_555
Cs0 Mg5 3.628188 1_556
Mg0 Mg3 3.308546 1_556
Mg0 Mg2 3.308546 1_455
Mg0 Mg5 3.308546 1_555
Mg0 Mg2 3.308546 1_456
Mg0 Mg3 3.308546 1_555
Mg0 Mg4 3.308546 1_456
Mg0 Mg5 3.308546 1_556
Mg0 Mg4 3.308546 1_455
Mg0 Nb0 3.591630 1_555
Mg0 Nb0 3.591630 1_455
Mg1 Mg4 3.308546 1_546
Mg1 Mg4 3.308546 1_545
Mg1 Mg3 3.308546 1_545
Mg1 Mg3 3.308546 1_546
Mg1 Mg5 3.308546 1_555
Mg1 Mg2 3.308546 1_556
Mg1 Mg2 3.308546 1_555
Mg1 Mg5 3.308546 1_556
Mg1 Nb0 3.591630 1_555
Mg1 Nb0 3.591630 1_545
Mg2 Nb0 2.954523 1_555
Mg2 Nb0 2.954523 1_554
Mg2 Mg5 2.974286 1_555
Mg2 Mg4 2.974286 1_555
Mg3 Nb0 2.954523 1_555
Mg3 Nb0 2.954523 1_554
Mg3 Mg5 2.974286 1_555
Mg3 Mg4 2.974286 1_555
Mg4 Nb0 2.954523 1_555
Mg4 Nb0 2.954523 1_554
Mg5 Nb0 2.954523 1_555
Mg5 Nb0 2.954523 1_554
