# generated using pymatgen
data_TaNb(Cu3Te4)2
_symmetry_space_group_name_H-M   'P 1'
_cell_length_a   6.01529800
_cell_length_b   8.52519897
_cell_length_c   8.52519897
_cell_angle_alpha   90.00000000
_cell_angle_beta   90.00000000
_cell_angle_gamma   90.00000000
_symmetry_Int_Tables_number   1
_chemical_formula_structural   TaNb(Cu3Te4)2
_chemical_formula_sum   'Ta1 Nb1 Cu6 Te8'
_cell_volume   437.18594809
_cell_formula_units_Z   1
loop_
 _symmetry_equiv_pos_site_id
 _symmetry_equiv_pos_as_xyz
  1  'x, y, z'
loop_
 _atom_site_type_symbol
 _atom_site_label
 _atom_site_symmetry_multiplicity
 _atom_site_fract_x
 _atom_site_fract_y
 _atom_site_fract_z
 _atom_site_occupancy
  Ta  Ta0  1  0.00000000  0.50000000  0.50000000  1
  Nb  Nb0  1  0.00000000  0.00000000  0.00000000  1
  Cu  Cu0  1  0.00000000  0.25001100  0.25001100  1
  Cu  Cu1  1  0.00000000  0.74998900  0.74998900  1
  Cu  Cu2  1  0.00000000  0.25001100  0.74998900  1
  Cu  Cu3  1  0.00000000  0.74998900  0.25001100  1
  Cu  Cu4  1  0.50000000  0.00000000  0.00000000  1
  Cu  Cu5  1  0.50000000  0.50000000  0.50000000  1
  Te  Te0  1  0.74452800  0.50000000  0.75563100  1
  Te  Te1  1  0.74475100  0.00000000  0.25559300  1
  Te  Te2  1  0.74452800  0.50000000  0.24436900  1
  Te  Te3  1  0.74475100  0.00000000  0.74440700  1
  Te  Te4  1  0.25524900  0.74440700  0.00000000  1
  Te  Te5  1  0.25547200  0.24436900  0.50000000  1
  Te  Te6  1  0.25524900  0.25559300  0.00000000  1
  Te  Te7  1  0.25547200  0.75563100  0.50000000  1
loop_
_geom_bond_atom_site_label_1
_geom_bond_atom_site_label_2
_geom_bond_distance
_geom_bond_site_symmetry_2
Ta0 Te5 2.666635 1_555
Ta0 Te2 2.666635 1_455
Ta0 Te7 2.666635 1_555
Ta0 Te0 2.666635 1_455
Nb0 Te3 2.665597 1_454
Nb0 Te1 2.665597 1_455
Nb0 Te4 2.665597 1_545
Nb0 Te6 2.665597 1_555
Cu0 Te6 2.627271 1_555
Cu0 Te1 2.627271 1_455
Cu0 Te5 2.627912 1_555
Cu0 Te2 2.627912 1_455
Cu0 Ta0 3.013980 1_555
Cu0 Nb0 3.014246 1_555
Cu1 Te4 2.627271 1_556
Cu1 Te3 2.627271 1_465
Cu1 Te7 2.627912 1_555
Cu1 Te0 2.627912 1_455
Cu1 Ta0 3.013980 1_555
Cu1 Nb0 3.014246 1_566
Cu2 Te6 2.627271 1_556
Cu2 Te3 2.627271 1_455
Cu2 Te5 2.627912 1_555
Cu2 Te0 2.627912 1_455
Cu2 Ta0 3.013980 1_555
Cu2 Nb0 3.014246 1_556
Cu3 Te1 2.627271 1_465
Cu3 Te4 2.627271 1_555
Cu3 Te2 2.627912 1_455
Cu3 Te7 2.627912 1_555
Cu3 Ta0 3.013980 1_555
Cu3 Nb0 3.014246 1_565
Cu4 Te4 2.629730 1_545
Cu4 Te3 2.629730 1_554
Cu4 Te6 2.629730 1_555
Cu4 Te1 2.629730 1_555
Cu4 Nb0 3.007649 1_555
Cu4 Nb0 3.007649 1_655
Cu5 Te2 2.629248 1_555
Cu5 Te0 2.629248 1_555
Cu5 Te5 2.629248 1_555
Cu5 Te7 2.629248 1_555
Cu5 Ta0 3.007649 1_655
Cu5 Ta0 3.007649 1_555
