# generated using pymatgen
data_LaMgVFeO6
_symmetry_space_group_name_H-M   'P 1'
_cell_length_a   5.47827900
_cell_length_b   5.36637402
_cell_length_c   7.75401573
_cell_angle_alpha   89.92640927
_cell_angle_beta   90.00000000
_cell_angle_gamma   90.00000000
_symmetry_Int_Tables_number   1
_chemical_formula_structural   LaMgVFeO6
_chemical_formula_sum   'La2 Mg2 V2 Fe2 O12'
_cell_volume   227.95619764
_cell_formula_units_Z   2
loop_
 _symmetry_equiv_pos_site_id
 _symmetry_equiv_pos_as_xyz
  1  'x, y, z'
loop_
 _atom_site_type_symbol
 _atom_site_label
 _atom_site_symmetry_multiplicity
 _atom_site_fract_x
 _atom_site_fract_y
 _atom_site_fract_z
 _atom_site_occupancy
  La  La0  1  0.04092400  0.99400500  0.24956000  1
  La  La1  1  0.45907600  0.49400500  0.74956000  1
  Mg  Mg0  1  0.55478300  0.52480500  0.25505400  1
  Mg  Mg1  1  0.94521700  0.02480500  0.75505400  1
  V  V0  1  0.50576600  0.00164300  0.49926000  1
  V  V1  1  0.99423400  0.50164400  0.99926000  1
  Fe  Fe0  1  0.49960000  0.00161200  0.00102200  1
  Fe  Fe1  1  0.00040000  0.50161200  0.50102200  1
  O  O0  1  0.02066500  0.63289000  0.75163300  1
  O  O1  1  0.19680000  0.18925100  0.94063600  1
  O  O2  1  0.20727000  0.18040300  0.55875400  1
  O  O3  1  0.29273000  0.68040300  0.05875400  1
  O  O4  1  0.30320000  0.68925100  0.44063600  1
  O  O5  1  0.47933500  0.13289000  0.25163200  1
  O  O6  1  0.54736500  0.92077100  0.74721300  1
  O  O7  1  0.72472800  0.27275900  0.55418000  1
  O  O8  1  0.73767100  0.28186000  0.94268600  1
  O  O9  1  0.76232900  0.78186000  0.44268600  1
  O  O10  1  0.77527200  0.77275900  0.05418000  1
  O  O11  1  0.95263500  0.42077100  0.24721300  1
loop_
_geom_bond_atom_site_label_1
_geom_bond_atom_site_label_2
_geom_bond_distance
_geom_bond_site_symmetry_2
La0 O11 2.340751 1_465
La0 O10 2.413997 1_455
La0 O9 2.421477 1_455
La0 O5 2.514780 1_565
La0 O4 2.632109 1_555
La0 O3 2.632574 1_555
La0 O1 2.749274 1_564
La0 O2 2.754116 1_565
La1 O6 2.340751 1_555
La1 O7 2.413997 1_555
La1 O8 2.421477 1_555
La1 O0 2.514780 1_555
La1 O1 2.632109 1_555
La1 O2 2.632574 1_555
La1 O4 2.749274 1_555
La1 O3 2.754116 1_556
Mg0 O5 2.143590 1_555
Mg0 O4 2.179981 1_555
Mg0 O11 2.250751 1_555
Mg0 O3 2.252050 1_555
Mg0 O9 2.305980 1_555
Mg0 O10 2.377034 1_555
Mg1 O0 2.143590 1_645
Mg1 O1 2.179981 1_655
Mg1 O6 2.250751 1_545
Mg1 O2 2.252050 1_655
Mg1 O8 2.305980 1_555
Mg1 O7 2.377034 1_555
Fe0 O10 1.989368 1_545
Fe0 O1 1.995910 1_554
Fe0 O6 2.032743 1_544
Fe0 O8 2.040983 1_554
Fe0 O5 2.070821 1_555
Fe0 O3 2.110450 1_545
Fe1 O7 1.989368 1_455
Fe1 O4 1.995910 1_555
Fe1 O11 2.032743 1_455
Fe1 O9 2.040983 1_455
Fe1 O0 2.070829 1_555
Fe1 O2 2.110450 1_555
O0 V1 2.049476 1_455
O1 V1 2.061658 1_455
O2 V0 1.951466 1_555
O3 V1 1.951463 1_454
O4 V0 2.061653 1_565
O5 V0 2.049485 1_555
O6 V0 1.983595 1_565
O7 V0 1.933543 1_555
O8 V1 1.886889 1_555
O9 V0 1.886885 1_565
O10 V1 1.933539 1_554
O11 V1 1.983596 1_554
