# generated using pymatgen
data_LaMg6Zr
_symmetry_space_group_name_H-M   'P 1'
_cell_length_a   5.17195300
_cell_length_b   6.64324400
_cell_length_c   11.57647200
_cell_angle_alpha   90.00000000
_cell_angle_beta   90.00000000
_cell_angle_gamma   90.00000000
_symmetry_Int_Tables_number   1
_chemical_formula_structural   LaMg6Zr
_chemical_formula_sum   'La2 Mg12 Zr2'
_cell_volume   397.75074267
_cell_formula_units_Z   2
loop_
 _symmetry_equiv_pos_site_id
 _symmetry_equiv_pos_as_xyz
  1  'x, y, z'
loop_
 _atom_site_type_symbol
 _atom_site_label
 _atom_site_symmetry_multiplicity
 _atom_site_fract_x
 _atom_site_fract_y
 _atom_site_fract_z
 _atom_site_occupancy
  La  La0  1  0.50000000  0.50000000  0.17954100  1
  La  La1  1  0.50000000  0.00000000  0.67954100  1
  Mg  Mg0  1  0.00000000  0.76040900  0.07734200  1
  Mg  Mg1  1  0.00000000  0.23959100  0.07734200  1
  Mg  Mg2  1  0.00000000  0.00000000  0.33401900  1
  Mg  Mg3  1  0.50000000  0.26050100  0.42061900  1
  Mg  Mg4  1  0.50000000  0.73949900  0.42061900  1
  Mg  Mg5  1  0.50000000  0.00000000  0.16533300  1
  Mg  Mg6  1  0.00000000  0.26040900  0.57734200  1
  Mg  Mg7  1  0.00000000  0.73959100  0.57734200  1
  Mg  Mg8  1  0.00000000  0.50000000  0.83401900  1
  Mg  Mg9  1  0.50000000  0.76050100  0.92061900  1
  Mg  Mg10  1  0.50000000  0.23949900  0.92061900  1
  Mg  Mg11  1  0.50000000  0.50000000  0.66533300  1
  Zr  Zr0  1  0.00000000  0.50000000  0.32518300  1
  Zr  Zr1  1  0.00000000  0.00000000  0.82518300  1
loop_
_geom_bond_atom_site_label_1
_geom_bond_atom_site_label_2
_geom_bond_distance
_geom_bond_site_symmetry_2
La0 Zr0 3.087060 1_655
La0 Zr0 3.087060 1_555
La0 Mg4 3.212505 1_555
La0 Mg3 3.212505 1_555
La0 Mg5 3.325692 1_555
La0 Mg5 3.325692 1_565
La0 Mg1 3.328629 1_555
La0 Mg1 3.328629 1_655
La0 Mg0 3.328629 1_555
La0 Mg0 3.328629 1_655
La0 Mg9 3.461113 1_554
La0 Mg10 3.461113 1_554
La1 Zr1 3.087060 1_555
La1 Zr1 3.087060 1_655
La1 Mg9 3.212505 1_545
La1 Mg10 3.212505 1_555
La1 Mg11 3.325692 1_555
La1 Mg11 3.325692 1_545
La1 Mg7 3.328629 1_645
La1 Mg6 3.328629 1_655
La1 Mg7 3.328629 1_545
La1 Mg6 3.328629 1_555
La1 Mg4 3.461113 1_545
La1 Mg3 3.461113 1_555
Mg0 Mg9 3.158949 1_454
Mg0 Mg9 3.158949 1_554
Mg0 Mg1 3.183323 1_565
Mg0 Mg5 3.202852 1_565
Mg0 Mg5 3.202852 1_465
Mg0 Mg8 3.305639 1_554
Mg0 Zr1 3.324846 1_564
Mg0 Zr0 3.350319 1_555
Mg0 Mg2 3.370859 1_565
Mg0 Mg1 3.459921 1_555
Mg1 Mg10 3.158949 1_554
Mg1 Mg10 3.158949 1_454
Mg1 Mg5 3.202852 1_455
Mg1 Mg5 3.202852 1_555
Mg1 Mg8 3.305639 1_554
Mg1 Zr1 3.324846 1_554
Mg1 Zr0 3.350319 1_555
Mg1 Mg2 3.370859 1_555
Mg2 Mg5 3.240472 1_555
Mg2 Mg5 3.240472 1_455
Mg2 Mg3 3.269129 1_455
Mg2 Mg4 3.269129 1_445
Mg2 Mg3 3.269129 1_555
Mg2 Mg4 3.269129 1_545
Mg2 Mg7 3.305639 1_545
Mg2 Mg6 3.305639 1_555
Mg2 Zr0 3.323197 1_555
Mg2 Zr0 3.323197 1_545
Mg3 Mg6 3.158949 1_555
Mg3 Mg6 3.158949 1_655
Mg3 Mg4 3.182101 1_555
Mg3 Zr0 3.230994 1_555
Mg3 Zr0 3.230994 1_655
Mg3 Mg5 3.424725 1_555
Mg3 Mg4 3.461143 1_545
Mg4 Mg7 3.158949 1_655
Mg4 Mg7 3.158949 1_555
Mg4 Zr0 3.230994 1_555
Mg4 Zr0 3.230994 1_655
Mg4 Mg5 3.424725 1_565
Mg5 Mg9 3.249139 1_544
Mg6 Mg7 3.183323 1_555
Mg6 Zr0 3.324846 1_555
Mg6 Zr1 3.350319 1_555
Mg6 Mg8 3.370859 1_555
Mg6 Mg7 3.459921 1_545
Mg7 Zr0 3.324846 1_555
Mg7 Zr1 3.350319 1_565
Mg7 Mg8 3.370859 1_555
Mg8 Mg9 3.269129 1_455
Mg8 Mg9 3.269129 1_555
Mg8 Zr1 3.323197 1_555
Mg8 Zr1 3.323197 1_565
Mg9 Zr1 3.230994 1_565
Mg9 Zr1 3.230994 1_665
Mg10 Mg9 3.182101 1_545
Mg10 Zr1 3.230994 1_555
Mg10 Zr1 3.230994 1_655
Mg10 Mg5 3.249139 1_556
Mg10 Mg8 3.269129 1_555
Mg10 Mg8 3.269129 1_655
Mg10 Mg11 3.424725 1_555
Mg10 Mg9 3.461143 1_555
Mg11 Mg7 3.202852 1_655
Mg11 Mg6 3.202852 1_555
Mg11 Mg6 3.202852 1_655
Mg11 Mg7 3.202852 1_555
Mg11 Mg8 3.240472 1_555
Mg11 Mg8 3.240472 1_655
Mg11 Mg3 3.249139 1_555
Mg11 Mg4 3.249139 1_555
Mg11 Mg9 3.424725 1_555
