# generated using pymatgen
data_P3(PbO3)4
_symmetry_space_group_name_H-M   'P 1'
_cell_length_a   9.03065027
_cell_length_b   9.03075574
_cell_length_c   9.03046652
_cell_angle_alpha   109.47039629
_cell_angle_beta   109.47094496
_cell_angle_gamma   109.47213905
_symmetry_Int_Tables_number   1
_chemical_formula_structural   P3(PbO3)4
_chemical_formula_sum   'P6 Pb8 O24'
_cell_volume   566.93385104
_cell_formula_units_Z   2
loop_
 _symmetry_equiv_pos_site_id
 _symmetry_equiv_pos_as_xyz
  1  'x, y, z'
loop_
 _atom_site_type_symbol
 _atom_site_label
 _atom_site_symmetry_multiplicity
 _atom_site_fract_x
 _atom_site_fract_y
 _atom_site_fract_z
 _atom_site_occupancy
  P  P0  1  0.12499962  0.87499022  0.25001111  1
  P  P1  1  0.37500647  0.62500023  0.75001427  1
  P  P2  1  0.87500381  0.24999263  0.12501459  1
  P  P3  1  0.62499614  0.74999612  0.37500587  1
  P  P4  1  0.25000373  0.12499964  0.87502011  1
  P  P5  1  0.75000124  0.37499340  0.62501561  1
  Pb  Pb0  1  0.35284026  0.35284230  0.35283271  1
  Pb  Pb1  1  0.14715706  0.50000545  -0.00000099  1
  Pb  Pb2  1  -0.00000216  0.14714934  0.49999251  1
  Pb  Pb3  1  0.85284331  0.85284920  0.85284612  1
  Pb  Pb4  1  0.50000018  0.00000241  0.14714757  1
  Pb  Pb5  1  0.64714894  0.50000091  -0.00000865  1
  Pb  Pb6  1  0.49999637  -0.00000122  0.64714647  1
  Pb  Pb7  1  0.00000386  0.64715399  0.49999507  1
  O  O0  1  0.31556243  0.16198929  0.07104010  1
  O  O1  1  0.18443759  0.25549537  0.84642741  1
  O  O2  1  0.90905956  0.33801030  0.65357771  1
  O  O3  1  0.16199246  0.07108543  0.31556540  1
  O  O4  1  0.81556411  0.57105586  0.66198891  1
  O  O5  1  0.59092981  0.24450493  0.42894176  1
  O  O6  1  0.25552433  0.84642393  0.18443864  1
  O  O7  1  0.68443653  0.34642317  0.75547689  1
  O  O8  1  0.33801609  0.65357567  0.90905541  1
  O  O9  1  0.40906843  0.15358037  0.83801565  1
  O  O10  1  0.24451449  0.42894982  0.59094119  1
  O  O11  1  0.09094155  0.92895228  0.74452243  1
  O  O12  1  0.07108005  0.31556359  0.16199134  1
  O  O13  1  0.66198415  0.81556193  0.57103743  1
  O  O14  1  0.65357599  0.90906719  0.33801567  1
  O  O15  1  0.83800937  0.40908980  0.15357695  1
  O  O16  1  0.42895737  0.59094399  0.24451752  1
  O  O17  1  0.74448254  0.09090277  0.92891985  1
  O  O18  1  0.84642353  0.18443925  0.25550430  1
  O  O19  1  0.75548008  0.68443335  0.34642227  1
  O  O20  1  0.57103896  0.66198463  0.81556262  1
  O  O21  1  0.34642306  0.75548944  0.68444052  1
  O  O22  1  0.92891916  0.74448318  0.09090782  1
  O  O23  1  0.15357953  0.83801783  0.40908083  1
loop_
_geom_bond_atom_site_label_1
_geom_bond_atom_site_label_2
_geom_bond_distance
_geom_bond_site_symmetry_2
O0 P4 1.539752 1_554
O0 Pb0 2.382806 1_555
O0 Pb4 2.630220 1_555
O1 P4 1.540195 1_555
O1 Pb1 2.382821 1_556
O1 Pb2 2.630204 1_555
O2 P5 1.539999 1_555
O2 Pb2 2.382915 1_655
O2 Pb1 2.630143 1_656
O3 P0 1.540445 1_545
O3 Pb0 2.382598 1_555
O3 Pb2 2.630079 1_555
O4 P5 1.540203 1_555
O4 Pb3 2.382861 1_555
O4 Pb7 2.630206 1_655
O5 P5 1.540181 1_555
O5 Pb4 2.382807 1_555
O5 Pb0 2.630227 1_555
O6 P0 1.540386 1_555
O6 Pb4 2.382606 1_565
O6 Pb1 2.630113 1_555
O7 P5 1.539788 1_555
O7 Pb5 2.382868 1_556
O7 Pb6 2.630223 1_555
O8 P1 1.539848 1_555
O8 Pb1 2.382829 1_556
O8 Pb4 2.630240 1_566
O9 P4 1.540136 1_555
O9 Pb6 2.382858 1_555
O9 Pb5 2.630173 1_556
O10 P1 1.540085 1_555
O10 Pb2 2.382848 1_555
O10 Pb0 2.630249 1_555
O11 P4 1.540042 1_565
O11 Pb7 2.382928 1_555
O11 Pb3 2.630151 1_455
O12 P2 1.540284 1_455
O12 Pb0 2.382544 1_555
O12 Pb1 2.630170 1_555
O13 P3 1.539854 1_555
O13 Pb3 2.382876 1_555
O13 Pb6 2.630231 1_565
O14 P3 1.540130 1_555
O14 Pb4 2.382865 1_565
O14 Pb2 2.630159 1_665
O15 P2 1.540407 1_555
O15 Pb5 2.382704 1_555
O15 Pb7 2.630067 1_655
O16 P3 1.539955 1_555
O16 Pb1 2.382864 1_555
O16 Pb0 2.630151 1_555
O17 P2 1.540368 1_556
O17 Pb6 2.382665 1_555
O17 Pb3 2.630089 1_545
O18 P2 1.539999 1_555
O18 Pb2 2.382669 1_655
O18 Pb4 2.630122 1_555
O19 P3 1.540045 1_555
O19 Pb7 2.382883 1_655
O19 Pb5 2.630210 1_555
O20 P1 1.539908 1_555
O20 Pb3 2.382896 1_555
O20 Pb5 2.630104 1_556
O21 P1 1.540141 1_555
O21 Pb6 2.382858 1_565
O21 Pb7 2.630146 1_555
O22 P0 1.540317 1_655
O22 Pb5 2.382615 1_555
O22 Pb3 2.630117 1_554
O23 P0 1.539993 1_555
O23 Pb7 2.382678 1_555
O23 Pb6 2.630081 1_565
