# generated using pymatgen
data_CsEuS2
_symmetry_space_group_name_H-M   'P 1'
_cell_length_a   4.26647411
_cell_length_b   4.26647411
_cell_length_c   16.02653000
_cell_angle_alpha   90.00000000
_cell_angle_beta   90.00000000
_cell_angle_gamma   120.00000176
_symmetry_Int_Tables_number   1
_chemical_formula_structural   CsEuS2
_chemical_formula_sum   'Cs2 Eu2 S4'
_cell_volume   252.64363119
_cell_formula_units_Z   2
loop_
 _symmetry_equiv_pos_site_id
 _symmetry_equiv_pos_as_xyz
  1  'x, y, z'
loop_
 _atom_site_type_symbol
 _atom_site_label
 _atom_site_symmetry_multiplicity
 _atom_site_fract_x
 _atom_site_fract_y
 _atom_site_fract_z
 _atom_site_occupancy
  Cs  Cs0  1  0.33333300  0.66666700  0.75000000  1
  Cs  Cs1  1  0.66666700  0.33333300  0.25000000  1
  Eu  Eu0  1  0.00000000  0.00000000  0.50000000  1
  Eu  Eu1  1  0.00000000  0.00000000  0.00000000  1
  S  S0  1  0.33333300  0.66666700  0.09198600  1
  S  S1  1  0.66666700  0.33333300  0.90801400  1
  S  S2  1  0.66666700  0.33333300  0.59198600  1
  S  S3  1  0.33333300  0.66666700  0.40801400  1
loop_
_geom_bond_atom_site_label_1
_geom_bond_atom_site_label_2
_geom_bond_distance
_geom_bond_site_symmetry_2
Cs0 S2 3.532806 1_455
Cs0 S1 3.532806 1_455
Cs0 S1 3.532806 1_565
Cs0 S2 3.532806 1_565
Cs0 S1 3.532811 1_555
Cs0 S2 3.532811 1_555
Cs1 S3 3.532806 1_545
Cs1 S0 3.532806 1_545
Cs1 S3 3.532806 1_655
Cs1 S0 3.532806 1_655
Cs1 S0 3.532811 1_555
Cs1 S3 3.532811 1_555
Eu0 S3 2.870697 1_545
Eu0 S2 2.870697 1_455
Eu0 S2 2.870700 1_445
Eu0 S3 2.870700 1_555
Eu0 S3 2.870700 1_445
Eu0 S2 2.870700 1_555
Eu1 S0 2.870697 1_545
Eu1 S1 2.870697 1_454
Eu1 S0 2.870700 1_555
Eu1 S0 2.870700 1_445
Eu1 S1 2.870700 1_554
Eu1 S1 2.870700 1_444
