# generated using pymatgen
data_Er2AlCo3
_symmetry_space_group_name_H-M   'P 1'
_cell_length_a   4.87619791
_cell_length_b   4.87619734
_cell_length_c   4.87619698
_cell_angle_alpha   65.41562458
_cell_angle_beta   65.41566509
_cell_angle_gamma   65.41563066
_symmetry_Int_Tables_number   1
_chemical_formula_structural   Er2AlCo3
_chemical_formula_sum   'Er2 Al1 Co3'
_cell_volume   91.64376293
_cell_formula_units_Z   1
loop_
 _symmetry_equiv_pos_site_id
 _symmetry_equiv_pos_as_xyz
  1  'x, y, z'
loop_
 _atom_site_type_symbol
 _atom_site_label
 _atom_site_symmetry_multiplicity
 _atom_site_fract_x
 _atom_site_fract_y
 _atom_site_fract_z
 _atom_site_occupancy
  Er  Er0  1  0.62922132  0.62922032  0.62922132  1
  Er  Er1  1  0.37077868  0.37077968  0.37077868  1
  Al  Al0  1  0.00000000  0.00000000  0.00000000  1
  Co  Co0  1  0.00000000  0.50000000  0.00000000  1
  Co  Co1  1  0.50000000  0.00000000  0.00000000  1
  Co  Co2  1  0.00000000  0.00000000  0.50000000  1
loop_
_geom_bond_atom_site_label_1
_geom_bond_atom_site_label_2
_geom_bond_distance
_geom_bond_site_symmetry_2
Er0 Er1 2.954442 1_555
Er0 Er1 3.160654 1_556
Er0 Er1 3.160655 1_655
Er0 Er1 3.160662 1_565
Al0 Co2 2.438098 1_554
Al0 Co2 2.438098 1_555
Al0 Co0 2.438099 1_545
Al0 Co0 2.438099 1_555
Al0 Co1 2.438099 1_455
Al0 Co1 2.438099 1_555
Al0 Er0 3.072458 1_454
Al0 Er1 3.072458 1_545
Al0 Er1 3.072464 1_554
Al0 Er0 3.072464 1_445
Al0 Er1 3.072464 1_455
Al0 Er0 3.072464 1_544
Co0 Co2 2.634878 1_564
Co0 Co2 2.634878 1_555
Co0 Co1 2.634878 1_465
Co0 Co1 2.634878 1_555
Co0 Er0 2.785453 1_454
Co0 Er1 2.785453 1_555
Co0 Er1 3.020723 1_554
Co0 Er0 3.020723 1_455
Co0 Er0 3.020724 1_554
Co0 Er1 3.020724 1_455
Co1 Co2 2.634879 1_654
Co1 Co2 2.634879 1_555
Co1 Er0 2.785456 1_544
Co1 Er1 2.785456 1_555
Co1 Er1 3.020720 1_545
Co1 Er0 3.020720 1_554
Co1 Er1 3.020724 1_554
Co1 Er0 3.020724 1_545
Co2 Er0 2.785456 1_445
Co2 Er1 2.785456 1_555
Co2 Er1 3.020720 1_545
Co2 Er0 3.020720 1_455
Co2 Er1 3.020725 1_455
Co2 Er0 3.020725 1_545
