# generated using pymatgen
data_Ta3Ru2
_symmetry_space_group_name_H-M   'P 1'
_cell_length_a   3.20240408
_cell_length_b   3.20240408
_cell_length_c   15.82712840
_cell_angle_alpha   90.00000000
_cell_angle_beta   90.00000000
_cell_angle_gamma   90.00000000
_symmetry_Int_Tables_number   1
_chemical_formula_structural   Ta3Ru2
_chemical_formula_sum   'Ta6 Ru4'
_cell_volume   162.31340426
_cell_formula_units_Z   2
loop_
 _symmetry_equiv_pos_site_id
 _symmetry_equiv_pos_as_xyz
  1  'x, y, z'
loop_
 _atom_site_type_symbol
 _atom_site_label
 _atom_site_symmetry_multiplicity
 _atom_site_fract_x
 _atom_site_fract_y
 _atom_site_fract_z
 _atom_site_occupancy
  Ta  Ta0  1  -0.00000000  -0.00000000  0.99540883  1
  Ta  Ta1  1  -0.00000000  -0.00000000  0.20459117  1
  Ta  Ta2  1  -0.00000000  0.00000000  0.40524380  1
  Ta  Ta3  1  -0.00000000  -0.00000000  0.60000000  1
  Ta  Ta4  1  -0.00000000  -0.00000000  0.79475620  1
  Ta  Ta5  1  0.50000000  0.50000000  0.10000000  1
  Ru  Ru0  1  0.50000000  0.50000000  0.30904934  1
  Ru  Ru1  1  0.50000000  0.50000000  0.50217079  1
  Ru  Ru2  1  0.50000000  0.50000000  0.69782921  1
  Ru  Ru3  1  0.50000000  0.50000000  0.89095066  1
loop_
_geom_bond_atom_site_label_1
_geom_bond_atom_site_label_2
_geom_bond_distance
_geom_bond_site_symmetry_2
Ta0 Ta5 2.804991 1_446
Ta0 Ta5 2.804991 1_556
Ta0 Ta5 2.804991 1_546
Ta0 Ta5 2.804991 1_456
Ta1 Ta5 2.804991 1_555
Ta1 Ta5 2.804991 1_545
Ta1 Ta5 2.804991 1_455
Ta1 Ta5 2.804991 1_445
Ru0 Ta2 2.728671 1_665
Ru0 Ta2 2.728671 1_555
Ru0 Ta2 2.728671 1_565
Ru0 Ta2 2.728671 1_655
Ru0 Ta1 2.803749 1_555
Ru0 Ta1 2.803749 1_565
Ru0 Ta1 2.803749 1_655
Ru0 Ta1 2.803749 1_665
Ru1 Ta2 2.735157 1_565
Ru1 Ta2 2.735157 1_655
Ru1 Ta2 2.735157 1_665
Ru1 Ta2 2.735157 1_555
Ru1 Ta3 2.743192 1_565
Ru1 Ta3 2.743192 1_655
Ru1 Ta3 2.743192 1_665
Ru1 Ta3 2.743192 1_555
Ru2 Ta4 2.735157 1_565
Ru2 Ta4 2.735157 1_665
Ru2 Ta4 2.735157 1_555
Ru2 Ta4 2.735157 1_655
Ru2 Ta3 2.743192 1_555
Ru2 Ta3 2.743192 1_565
Ru2 Ta3 2.743192 1_655
Ru2 Ta3 2.743192 1_665
Ru3 Ta4 2.728671 1_655
Ru3 Ta4 2.728671 1_565
Ru3 Ta4 2.728671 1_665
Ru3 Ta4 2.728671 1_555
Ru3 Ta0 2.803749 1_655
Ru3 Ta0 2.803749 1_565
Ru3 Ta0 2.803749 1_555
Ru3 Ta0 2.803749 1_665
