# generated using pymatgen
data_UH6Br2O5
_symmetry_space_group_name_H-M   'P 1'
_cell_length_a   6.70828300
_cell_length_b   9.93666900
_cell_length_c   12.88819424
_cell_angle_alpha   88.61426863
_cell_angle_beta   90.00000000
_cell_angle_gamma   90.00000000
_symmetry_Int_Tables_number   1
_chemical_formula_structural   UH6Br2O5
_chemical_formula_sum   'U4 H24 Br8 O20'
_cell_volume   858.84984355
_cell_formula_units_Z   4
loop_
 _symmetry_equiv_pos_site_id
 _symmetry_equiv_pos_as_xyz
  1  'x, y, z'
loop_
 _atom_site_type_symbol
 _atom_site_label
 _atom_site_symmetry_multiplicity
 _atom_site_fract_x
 _atom_site_fract_y
 _atom_site_fract_z
 _atom_site_occupancy
  U  U0  1  0.08455000  0.75078900  0.92041700  1
  U  U1  1  0.58455000  0.24921100  0.57958300  1
  U  U2  1  0.91545000  0.24921100  0.07958300  1
  U  U3  1  0.41545000  0.75078900  0.42041700  1
  H  H0  1  0.74793200  0.95682400  0.96846900  1
  H  H1  1  0.24793200  0.04317600  0.53153100  1
  H  H2  1  0.25206800  0.04317600  0.03153100  1
  H  H3  1  0.75206800  0.95682400  0.46846900  1
  H  H4  1  0.71191700  0.91578700  0.85306400  1
  H  H5  1  0.21191700  0.08421300  0.64693600  1
  H  H6  1  0.28808300  0.08421300  0.14693600  1
  H  H7  1  0.78808300  0.91578700  0.35306400  1
  H  H8  1  0.22292300  0.54696400  0.08382900  1
  H  H9  1  0.72292300  0.45303600  0.41617100  1
  H  H10  1  0.77707700  0.45303600  0.91617100  1
  H  H11  1  0.27707700  0.54696400  0.58382900  1
  H  H12  1  0.35160600  0.68060800  0.10795600  1
  H  H13  1  0.85160600  0.31939200  0.39204400  1
  H  H14  1  0.64839400  0.31939200  0.89204400  1
  H  H15  1  0.14839400  0.68060800  0.60795600  1
  H  H16  1  0.99388800  0.74320600  0.15842800  1
  H  H17  1  0.49388800  0.25679400  0.34157200  1
  H  H18  1  0.00611200  0.25679400  0.84157200  1
  H  H19  1  0.50611200  0.74320600  0.65842800  1
  H  H20  1  0.78885500  0.79667300  0.11487200  1
  H  H21  1  0.28885500  0.20332700  0.38512800  1
  H  H22  1  0.21114500  0.20332700  0.88512800  1
  H  H23  1  0.71114500  0.79667300  0.61487200  1
  Br  Br0  1  0.40520300  0.63662500  0.81019500  1
  Br  Br1  1  0.90520300  0.36337500  0.68980500  1
  Br  Br2  1  0.59479700  0.36337500  0.18980500  1
  Br  Br3  1  0.09479700  0.63662500  0.31019500  1
  Br  Br4  1  0.00413000  0.84908900  0.70707700  1
  Br  Br5  1  0.50413000  0.15091100  0.79292300  1
  Br  Br6  1  0.99587000  0.15091100  0.29292300  1
  Br  Br7  1  0.49587000  0.84908900  0.20707700  1
  O  O0  1  0.76420800  0.88218600  0.91974300  1
  O  O1  1  0.26420800  0.11781400  0.58025700  1
  O  O2  1  0.23579200  0.11781400  0.08025700  1
  O  O3  1  0.73579200  0.88218600  0.41974300  1
  O  O4  1  0.93834100  0.60034400  0.90327300  1
  O  O5  1  0.43834100  0.39965600  0.59672700  1
  O  O6  1  0.06165900  0.39965600  0.09672700  1
  O  O7  1  0.56165900  0.60034400  0.40327300  1
  O  O8  1  0.22830900  0.90093400  0.94668300  1
  O  O9  1  0.72830900  0.09906600  0.55331700  1
  O  O10  1  0.77169100  0.09906600  0.05331700  1
  O  O11  1  0.27169100  0.90093400  0.44668300  1
  O  O12  1  0.26909700  0.63522100  0.05550200  1
  O  O13  1  0.76909700  0.36477900  0.44449800  1
  O  O14  1  0.73090300  0.36477900  0.94449800  1
  O  O15  1  0.23090300  0.63522100  0.55550200  1
  O  O16  1  0.92915800  0.78161600  0.09522900  1
  O  O17  1  0.42915800  0.21838400  0.40477100  1
  O  O18  1  0.07084200  0.21838400  0.90477100  1
  O  O19  1  0.57084200  0.78161600  0.59522900  1
loop_
_geom_bond_atom_site_label_1
_geom_bond_atom_site_label_2
_geom_bond_distance
_geom_bond_site_symmetry_2
H0 O0 0.989378 1_555
H1 O1 0.989378 1_555
H2 O2 0.989378 1_555
H3 O3 0.989378 1_555
H4 O0 0.979371 1_555
H5 O1 0.979371 1_555
H6 O2 0.979371 1_555
H7 O3 0.979371 1_555
H8 O12 0.991383 1_555
H9 O13 0.991383 1_555
H10 O14 0.991383 1_555
H11 O15 0.991383 1_555
H12 O12 0.990720 1_555
H13 O13 0.990720 1_555
H14 O14 0.990720 1_555
H15 O15 0.990720 1_555
H16 O16 0.991278 1_555
H17 O17 0.991278 1_555
H18 O18 0.991278 1_555
H19 O19 0.991278 1_555
H20 O16 0.986991 1_555
H21 O17 0.986991 1_555
H22 O18 0.986991 1_555
H23 O19 0.986991 1_555
Br0 H19 2.303387 1_555
Br0 U0 2.830152 1_555
Br1 H18 2.303387 1_655
Br1 U1 2.830152 1_555
Br2 H17 2.303387 1_555
Br2 U2 2.830152 1_555
Br3 H16 2.303387 1_455
Br3 U3 2.830152 1_555
Br4 U0 2.945395 1_555
Br5 U1 2.945395 1_555
Br6 U2 2.945395 1_555
Br7 U3 2.945395 1_555
O4 U0 1.805985 1_655
O5 U1 1.805985 1_555
O6 U2 1.805985 1_455
O7 U3 1.805985 1_555
O8 U0 1.815195 1_555
O9 U1 1.815195 1_555
O10 U2 1.815195 1_555
O11 U3 1.815195 1_555
