# generated using pymatgen
data_CaMg14AlO16
_symmetry_space_group_name_H-M   'P 1'
_cell_length_a   4.34565100
_cell_length_b   8.60954300
_cell_length_c   8.65648800
_cell_angle_alpha   90.00000000
_cell_angle_beta   90.00000000
_cell_angle_gamma   90.00000000
_symmetry_Int_Tables_number   1
_chemical_formula_structural   CaMg14AlO16
_chemical_formula_sum   'Ca1 Mg14 Al1 O16'
_cell_volume   323.87444061
_cell_formula_units_Z   1
loop_
 _symmetry_equiv_pos_site_id
 _symmetry_equiv_pos_as_xyz
  1  'x, y, z'
loop_
 _atom_site_type_symbol
 _atom_site_label
 _atom_site_symmetry_multiplicity
 _atom_site_fract_x
 _atom_site_fract_y
 _atom_site_fract_z
 _atom_site_occupancy
  Ca  Ca0  1  0.00000000  0.50000000  0.00000000  1
  Mg  Mg0  1  0.00000000  0.00000000  0.50000000  1
  Mg  Mg1  1  0.00000000  0.50000000  0.50000000  1
  Mg  Mg2  1  0.50000000  0.75507600  0.00000000  1
  Mg  Mg3  1  0.50000000  0.24492400  0.00000000  1
  Mg  Mg4  1  0.50000000  0.75022000  0.50000000  1
  Mg  Mg5  1  0.50000000  0.24978000  0.50000000  1
  Mg  Mg6  1  0.50000000  0.00000000  0.74895500  1
  Mg  Mg7  1  0.50000000  0.50000000  0.74294600  1
  Mg  Mg8  1  0.50000000  0.00000000  0.25104500  1
  Mg  Mg9  1  0.50000000  0.50000000  0.25705400  1
  Mg  Mg10  1  0.00000000  0.75192200  0.74438600  1
  Mg  Mg11  1  0.00000000  0.24807800  0.74438600  1
  Mg  Mg12  1  0.00000000  0.75192200  0.25561400  1
  Mg  Mg13  1  0.00000000  0.24807800  0.25561400  1
  Al  Al0  1  0.00000000  0.00000000  0.00000000  1
  O  O0  1  0.00000000  0.00000000  0.76617200  1
  O  O1  1  0.00000000  0.50000000  0.73763900  1
  O  O2  1  0.00000000  0.00000000  0.23382800  1
  O  O3  1  0.00000000  0.50000000  0.26236100  1
  O  O4  1  0.50000000  0.75013600  0.75064000  1
  O  O5  1  0.50000000  0.24986400  0.75064000  1
  O  O6  1  0.50000000  0.75013600  0.24936000  1
  O  O7  1  0.50000000  0.24986400  0.24936000  1
  O  O8  1  0.50000000  0.00000000  0.00000000  1
  O  O9  1  0.50000000  0.50000000  0.00000000  1
  O  O10  1  0.50000000  0.00000000  0.50000000  1
  O  O11  1  0.50000000  0.50000000  0.50000000  1
  O  O12  1  0.00000000  0.77684900  0.00000000  1
  O  O13  1  0.00000000  0.22315100  0.00000000  1
  O  O14  1  0.00000000  0.75499500  0.50000000  1
  O  O15  1  0.00000000  0.24500500  0.50000000  1
loop_
_geom_bond_atom_site_label_1
_geom_bond_atom_site_label_2
_geom_bond_distance
_geom_bond_site_symmetry_2
Ca0 O9 2.172826 1_455
Ca0 O9 2.172826 1_555
Ca0 O3 2.271125 1_555
Ca0 O1 2.271125 1_554
Ca0 O12 2.383543 1_555
Ca0 O13 2.383543 1_555
Mg0 O14 2.109381 1_545
Mg0 O15 2.109381 1_555
Mg0 O10 2.172826 1_555
Mg0 O10 2.172826 1_455
Mg0 O0 2.304115 1_555
Mg0 O2 2.304115 1_555
Mg1 O1 2.057119 1_555
Mg1 O3 2.057119 1_555
Mg1 O11 2.172826 1_555
Mg1 O11 2.172826 1_455
Mg1 O14 2.195390 1_555
Mg1 O15 2.195390 1_555
Mg2 O8 2.108684 1_565
Mg2 O4 2.159001 1_554
Mg2 O6 2.159001 1_555
Mg2 O12 2.180897 1_655
Mg2 O12 2.180897 1_555
Mg2 O9 2.196088 1_555
Mg3 O8 2.108684 1_555
Mg3 O5 2.159001 1_554
Mg3 O7 2.159001 1_555
Mg3 O13 2.180897 1_655
Mg3 O13 2.180897 1_555
Mg3 O9 2.196088 1_555
Mg4 O10 2.150492 1_565
Mg4 O11 2.154280 1_555
Mg4 O6 2.169662 1_555
Mg4 O4 2.169662 1_555
Mg4 O14 2.173214 1_555
Mg4 O14 2.173214 1_655
Mg5 O10 2.150492 1_555
Mg5 O11 2.154280 1_555
Mg5 O7 2.169662 1_555
Mg5 O5 2.169662 1_555
Mg5 O15 2.173214 1_555
Mg5 O15 2.173214 1_655
Mg6 O5 2.151264 1_555
Mg6 O4 2.151264 1_545
Mg6 O10 2.155076 1_555
Mg6 O8 2.173168 1_556
Mg6 O0 2.177931 1_555
Mg6 O0 2.177931 1_655
Mg7 O11 2.103059 1_555
Mg7 O4 2.154586 1_555
Mg7 O5 2.154586 1_555
Mg7 O1 2.173311 1_655
Mg7 O1 2.173311 1_555
Mg7 O9 2.225185 1_556
Mg8 O7 2.151264 1_555
Mg8 O6 2.151264 1_545
Mg8 O10 2.155076 1_555
Mg8 O8 2.173168 1_555
Mg8 O2 2.177931 1_655
Mg8 O2 2.177931 1_555
Mg9 O11 2.103059 1_555
Mg9 O6 2.154586 1_555
Mg9 O7 2.154586 1_555
Mg9 O3 2.173311 1_555
Mg9 O3 2.173311 1_655
Mg9 O9 2.225185 1_555
Mg10 O14 2.115690 1_555
Mg10 O0 2.144148 1_565
Mg10 O1 2.169720 1_555
Mg10 O4 2.173554 1_555
Mg10 O4 2.173554 1_455
Mg10 O12 2.223103 1_556
Mg11 O15 2.115690 1_555
Mg11 O0 2.144148 1_555
Mg11 O1 2.169720 1_555
Mg11 O5 2.173554 1_455
Mg11 O5 2.173554 1_555
Mg11 O13 2.223103 1_556
Mg12 O14 2.115690 1_555
Mg12 O2 2.144148 1_565
Mg12 O3 2.169720 1_555
Mg12 O6 2.173554 1_555
Mg12 O6 2.173554 1_455
Mg12 O12 2.223103 1_555
Mg13 O15 2.115690 1_555
Mg13 O2 2.144148 1_555
Mg13 O3 2.169720 1_555
Mg13 O7 2.173554 1_555
Mg13 O7 2.173554 1_455
Mg13 O13 2.223103 1_555
Al0 O12 1.921228 1_545
Al0 O13 1.921228 1_555
Al0 O2 2.024129 1_555
Al0 O0 2.024129 1_554
Al0 O8 2.172826 1_555
Al0 O8 2.172826 1_455
