# generated using pymatgen
data_K3EuF6
_symmetry_space_group_name_H-M   'P 1'
_cell_length_a   6.87577577
_cell_length_b   6.87577577
_cell_length_c   6.87577577
_cell_angle_alpha   94.03663289
_cell_angle_beta   117.69746467
_cell_angle_gamma   117.69746467
_symmetry_Int_Tables_number   1
_chemical_formula_structural   K3EuF6
_chemical_formula_sum   'K3 Eu1 F6'
_cell_volume   237.21562363
_cell_formula_units_Z   1
loop_
 _symmetry_equiv_pos_site_id
 _symmetry_equiv_pos_as_xyz
  1  'x, y, z'
loop_
 _atom_site_type_symbol
 _atom_site_label
 _atom_site_symmetry_multiplicity
 _atom_site_fract_x
 _atom_site_fract_y
 _atom_site_fract_z
 _atom_site_occupancy
  K  K0  1  0.50000000  0.75000000  0.25000000  1
  K  K1  1  0.50000000  0.25000000  0.75000000  1
  K  K2  1  0.00000000  0.50000000  0.50000000  1
  Eu  Eu0  1  0.00000000  0.00000000  0.00000000  1
  F  F0  1  0.68782200  0.68782200  0.00000000  1
  F  F1  1  0.31217800  0.31217800  0.00000000  1
  F  F2  1  0.68782200  0.00000000  0.68782200  1
  F  F3  1  0.31217800  0.00000000  0.31217800  1
  F  F4  1  0.00000000  0.75669200  0.75669200  1
  F  F5  1  0.00000000  0.24330800  0.24330800  1
loop_
_geom_bond_atom_site_label_1
_geom_bond_atom_site_label_2
_geom_bond_distance
_geom_bond_site_symmetry_2
Eu0 F3 2.220731 1_555
Eu0 F1 2.220731 1_555
Eu0 F2 2.220731 1_454
Eu0 F0 2.220731 1_445
Eu0 F5 2.281090 1_555
Eu0 F4 2.281090 1_544
F0 K1 2.697909 1_554
F0 K0 2.697909 1_555
F1 K1 2.697909 1_554
F1 K0 2.697909 1_555
F2 K1 2.697909 1_555
F2 K0 2.697909 1_545
F3 K0 2.697909 1_545
F3 K1 2.697909 1_555
F4 K2 2.406570 1_555
F5 K2 2.406570 1_555
