# generated using pymatgen
data_Na2CoO3
_symmetry_space_group_name_H-M   'P 1'
_cell_length_a   5.41495312
_cell_length_b   7.17669336
_cell_length_c   6.97633735
_cell_angle_alpha   80.15452097
_cell_angle_beta   95.58211684
_cell_angle_gamma   96.72255912
_symmetry_Int_Tables_number   1
_chemical_formula_structural   Na2CoO3
_chemical_formula_sum   'Na8 Co4 O12'
_cell_volume   264.45319802
_cell_formula_units_Z   4
loop_
 _symmetry_equiv_pos_site_id
 _symmetry_equiv_pos_as_xyz
  1  'x, y, z'
loop_
 _atom_site_type_symbol
 _atom_site_label
 _atom_site_symmetry_multiplicity
 _atom_site_fract_x
 _atom_site_fract_y
 _atom_site_fract_z
 _atom_site_occupancy
  Na  Na0  1  0.25270800  0.74751200  0.75159200  1
  Na  Na1  1  0.75127900  0.25094100  0.25036000  1
  Na  Na2  1  0.00586600  0.99928400  0.99804200  1
  Na  Na3  1  0.49594600  0.49921400  0.50150500  1
  Na  Na4  1  0.24714100  0.08619500  0.40436700  1
  Na  Na5  1  0.74227200  0.58743100  0.90351300  1
  Na  Na6  1  0.25179800  0.41288600  0.09749600  1
  Na  Na7  1  0.75495800  0.91369400  0.59290200  1
  Co  Co0  1  0.52311300  0.84076700  0.17477900  1
  Co  Co1  1  0.98352800  0.67008700  0.32783900  1
  Co  Co2  1  0.99876000  0.32757500  0.66885800  1
  Co  Co3  1  0.49005200  0.16266500  0.83347900  1
  O  O0  1  0.59032200  0.89801000  0.90824600  1
  O  O1  1  0.08491700  0.38823600  0.41274400  1
  O  O2  1  0.91032200  0.62202000  0.58338200  1
  O  O3  1  0.41674100  0.10727500  0.09490400  1
  O  O4  1  0.38460900  0.80295500  0.40201700  1
  O  O5  1  0.83869400  0.28678700  0.90171100  1
  O  O6  1  0.33070100  0.40212800  0.78977100  1
  O  O7  1  0.86693800  0.92111900  0.29019500  1
  O  O8  1  0.10063800  0.69223400  0.09669400  1
  O  O9  1  0.66089700  0.21174200  0.59309300  1
  O  O10  1  0.18905900  0.07410000  0.71844400  1
  O  O11  1  0.62874200  0.59514200  0.20406700  1
loop_
_geom_bond_atom_site_label_1
_geom_bond_atom_site_label_2
_geom_bond_distance
_geom_bond_site_symmetry_2
Na0 O2 2.274371 1_455
Na0 O0 2.292556 1_555
Na0 O10 2.377820 1_565
Na0 O6 2.527995 1_555
Na0 O4 2.560557 1_555
Na0 O8 2.571831 1_556
Na1 O3 2.254706 1_555
Na1 O1 2.254978 1_655
Na1 O9 2.449702 1_555
Na1 O7 2.482048 1_545
Na1 O5 2.487524 1_554
Na1 O11 2.591490 1_555
Na2 O7 2.200726 1_456
Na2 O10 2.229486 1_565
Na2 O8 2.295712 1_556
Na2 O5 2.317995 1_465
Na2 O0 2.341465 1_455
Na2 O3 2.343125 1_566
Na3 O11 2.232179 1_555
Na3 O6 2.248407 1_555
Na3 O4 2.303441 1_555
Na3 O9 2.309121 1_555
Na3 O1 2.336033 1_555
Na3 O2 2.365928 1_555
Na4 O10 2.229357 1_555
Na4 O4 2.248195 1_545
Na4 O7 2.389384 1_445
Na4 O3 2.401818 1_555
Na4 O1 2.443954 1_555
Na4 O9 2.631387 1_555
Na5 O11 2.252962 1_556
Na5 O5 2.280885 1_555
Na5 O8 2.375674 1_656
Na5 O2 2.455687 1_555
Na5 O0 2.471043 1_555
Na5 O6 2.586108 1_555
Na6 O6 2.245012 1_554
Na6 O8 2.251373 1_555
Na6 O11 2.417046 1_555
Na6 O1 2.429167 1_555
Na6 O3 2.466548 1_555
Na6 O5 2.653830 1_454
Na7 O7 2.243486 1_555
Na7 O9 2.256307 1_565
Na7 O2 2.358942 1_555
Na7 O4 2.428156 1_555
Na7 O0 2.433222 1_555
Na7 O10 2.632209 1_665
Co0 O4 1.784883 1_555
Co0 O11 1.888499 1_555
Co0 O0 1.895808 1_554
Co0 O7 2.015671 1_555
Co0 O3 2.032611 1_565
Co0 O8 2.460030 1_555
Co1 O8 1.765048 1_655
Co1 O2 1.830165 1_555
Co1 O7 1.945628 1_555
Co1 O11 2.078432 1_555
Co1 O1 2.128571 1_655
Co1 O4 2.314988 1_655
Co2 O1 1.856938 1_655
Co2 O5 1.878221 1_555
Co2 O6 1.965411 1_655
Co2 O9 1.980812 1_555
Co2 O10 2.155227 1_655
Co2 O2 2.191056 1_555
Co3 O10 1.839001 1_555
Co3 O3 1.870237 1_556
Co3 O9 1.953410 1_555
Co3 O6 1.976802 1_555
Co3 O0 2.005476 1_545
Co3 O5 2.039763 1_555
