# generated using pymatgen
data_Zr2SiMo3
_symmetry_space_group_name_H-M   'P 1'
_cell_length_a   5.28794551
_cell_length_b   5.28794551
_cell_length_c   8.74138900
_cell_angle_alpha   90.00000000
_cell_angle_beta   90.00000000
_cell_angle_gamma   119.99999383
_symmetry_Int_Tables_number   1
_chemical_formula_structural   Zr2SiMo3
_chemical_formula_sum   'Zr4 Si2 Mo6'
_cell_volume   211.68254481
_cell_formula_units_Z   2
loop_
 _symmetry_equiv_pos_site_id
 _symmetry_equiv_pos_as_xyz
  1  'x, y, z'
loop_
 _atom_site_type_symbol
 _atom_site_label
 _atom_site_symmetry_multiplicity
 _atom_site_fract_x
 _atom_site_fract_y
 _atom_site_fract_z
 _atom_site_occupancy
  Zr  Zr0  1  0.33333300  0.66666700  0.43625200  1
  Zr  Zr1  1  0.66666700  0.33333300  0.56374800  1
  Zr  Zr2  1  0.66666700  0.33333300  0.93625200  1
  Zr  Zr3  1  0.33333300  0.66666700  0.06374800  1
  Si  Si0  1  0.00000000  0.00000000  0.50000000  1
  Si  Si1  1  0.00000000  0.00000000  0.00000000  1
  Mo  Mo0  1  0.83030400  0.16969600  0.25000000  1
  Mo  Mo1  1  0.83030400  0.66060900  0.25000000  1
  Mo  Mo2  1  0.33939100  0.16969600  0.25000000  1
  Mo  Mo3  1  0.16969600  0.83030400  0.75000000  1
  Mo  Mo4  1  0.16969600  0.33939100  0.75000000  1
  Mo  Mo5  1  0.66060900  0.83030400  0.75000000  1
loop_
_geom_bond_atom_site_label_1
_geom_bond_atom_site_label_2
_geom_bond_distance
_geom_bond_site_symmetry_2
Si0 Zr0 3.103432 1_545
Si0 Zr1 3.103432 1_455
Si0 Zr0 3.103437 1_445
Si0 Zr1 3.103437 1_445
Si0 Zr0 3.103437 1_555
Si0 Zr1 3.103437 1_555
Si1 Zr2 3.103432 1_454
Si1 Zr3 3.103432 1_545
Si1 Zr3 3.103437 1_445
Si1 Zr2 3.103437 1_554
Si1 Zr3 3.103437 1_555
Si1 Zr2 3.103437 1_444
Mo0 Mo1 2.595921 1_555
Mo0 Mo2 2.595921 1_555
Mo0 Si1 2.681682 1_655
Mo0 Si0 2.681682 1_655
Mo0 Mo2 2.692024 1_655
Mo0 Mo1 2.692024 1_545
Mo0 Zr3 3.105169 1_545
Mo0 Zr0 3.105169 1_545
Mo0 Zr3 3.105169 1_655
Mo0 Zr0 3.105169 1_655
Mo0 Zr2 3.125391 1_554
Mo0 Zr1 3.125391 1_555
Mo1 Mo2 2.595921 1_555
Mo1 Si1 2.681679 1_665
Mo1 Si0 2.681679 1_665
Mo1 Mo2 2.692025 1_665
Mo1 Zr0 3.105169 1_555
Mo1 Zr3 3.105169 1_555
Mo1 Zr0 3.105169 1_655
Mo1 Zr3 3.105169 1_655
Mo1 Zr2 3.125395 1_554
Mo1 Zr1 3.125395 1_555
Mo2 Si0 2.681679 1_555
Mo2 Si1 2.681679 1_555
Mo2 Zr3 3.105169 1_555
Mo2 Zr0 3.105169 1_555
Mo2 Zr0 3.105169 1_545
Mo2 Zr3 3.105169 1_545
Mo2 Zr2 3.125395 1_554
Mo2 Zr1 3.125395 1_555
Mo3 Mo5 2.595921 1_555
Mo3 Mo4 2.595921 1_555
Mo3 Si0 2.681682 1_565
Mo3 Si1 2.681682 1_566
Mo3 Mo4 2.692024 1_565
Mo3 Mo5 2.692024 1_455
Mo3 Zr1 3.105169 1_565
Mo3 Zr2 3.105169 1_565
Mo3 Zr1 3.105169 1_455
Mo3 Zr2 3.105169 1_455
Mo3 Zr3 3.125391 1_556
Mo3 Zr0 3.125391 1_555
Mo4 Mo5 2.595921 1_555
Mo4 Si0 2.681679 1_555
Mo4 Si1 2.681679 1_556
Mo4 Mo5 2.692025 1_445
Mo4 Zr2 3.105169 1_555
Mo4 Zr1 3.105169 1_555
Mo4 Zr1 3.105169 1_455
Mo4 Zr2 3.105169 1_455
Mo4 Zr3 3.125395 1_556
Mo4 Zr0 3.125395 1_555
Mo5 Si0 2.681679 1_665
Mo5 Si1 2.681679 1_666
Mo5 Zr1 3.105169 1_555
Mo5 Zr2 3.105169 1_555
Mo5 Zr1 3.105169 1_565
Mo5 Zr2 3.105169 1_565
Mo5 Zr3 3.125395 1_556
Mo5 Zr0 3.125395 1_555
