# generated using pymatgen
data_Pr5Ti4GaO17
_symmetry_space_group_name_H-M   'P 1'
_cell_length_a   5.53854400
_cell_length_b   7.78756800
_cell_length_c   32.07512528
_cell_angle_alpha   82.93634957
_cell_angle_beta   90.00000000
_cell_angle_gamma   90.00000000
_symmetry_Int_Tables_number   1
_chemical_formula_structural   Pr5Ti4GaO17
_chemical_formula_sum   'Pr20 Ti16 Ga4 O68'
_cell_volume   1372.95727411
_cell_formula_units_Z   4
loop_
 _symmetry_equiv_pos_site_id
 _symmetry_equiv_pos_as_xyz
  1  'x, y, z'
loop_
 _atom_site_type_symbol
 _atom_site_label
 _atom_site_symmetry_multiplicity
 _atom_site_fract_x
 _atom_site_fract_y
 _atom_site_fract_z
 _atom_site_occupancy
  Pr  Pr0  1  0.13158500  0.14277600  0.72057100  1
  Pr  Pr1  1  0.63844400  0.85453800  0.78040900  1
  Pr  Pr2  1  0.36155600  0.85453800  0.28040900  1
  Pr  Pr3  1  0.86841500  0.14277600  0.22057100  1
  Pr  Pr4  1  0.25222800  0.30328000  0.90410800  1
  Pr  Pr5  1  0.74503500  0.70098400  0.59483300  1
  Pr  Pr6  1  0.25496500  0.70098400  0.09483300  1
  Pr  Pr7  1  0.74777200  0.30328000  0.40410800  1
  Pr  Pr8  1  0.19502400  0.64193700  0.70300100  1
  Pr  Pr9  1  0.70235500  0.35893300  0.80176600  1
  Pr  Pr10  1  0.29764500  0.35893300  0.30176600  1
  Pr  Pr11  1  0.80497600  0.64193700  0.20300100  1
  Pr  Pr12  1  0.23742100  0.78176000  0.91710600  1
  Pr  Pr13  1  0.72962600  0.21233500  0.58175200  1
  Pr  Pr14  1  0.27037400  0.21233500  0.08175200  1
  Pr  Pr15  1  0.76257900  0.78176000  0.41710600  1
  Pr  Pr16  1  0.75675600  0.74204900  0.00480700  1
  Pr  Pr17  1  0.25722100  0.26017700  0.49244600  1
  Pr  Pr18  1  0.74277900  0.26017700  0.99244600  1
  Pr  Pr19  1  0.24324400  0.74204900  0.50480700  1
  Ti  Ti0  1  0.20437700  0.08402900  0.82330500  1
  Ti  Ti1  1  0.69592500  0.91926900  0.67633600  1
  Ti  Ti2  1  0.30407500  0.91926900  0.17633600  1
  Ti  Ti3  1  0.79562300  0.08402900  0.32330500  1
  Ti  Ti4  1  0.74057300  0.04667600  0.90638700  1
  Ti  Ti5  1  0.23094500  0.95171300  0.59282800  1
  Ti  Ti6  1  0.76905500  0.95171300  0.09282800  1
  Ti  Ti7  1  0.25942700  0.04667600  0.40638700  1
  Ti  Ti8  1  0.25314400  0.00219400  0.99905500  1
  Ti  Ti9  1  0.74685600  0.00219400  0.49905500  1
  Ti  Ti10  1  0.20423500  0.59638600  0.82258500  1
  Ti  Ti11  1  0.69016500  0.40594800  0.67864500  1
  Ti  Ti12  1  0.30983500  0.40594800  0.17864500  1
  Ti  Ti13  1  0.79576500  0.59638600  0.32258500  1
  Ti  Ti14  1  0.23332900  0.45518400  0.59342500  1
  Ti  Ti15  1  0.76667100  0.45518400  0.09342500  1
  Ga  Ga0  1  0.25223900  0.49972100  0.99970700  1
  Ga  Ga1  1  0.74776100  0.49972100  0.49970700  1
  Ga  Ga2  1  0.73652900  0.54575300  0.90598800  1
  Ga  Ga3  1  0.26347100  0.54575300  0.40598800  1
  O  O0  1  0.81909900  0.28436800  0.91861000  1
  O  O1  1  0.31715500  0.71206600  0.58030200  1
  O  O2  1  0.68284500  0.71206600  0.08030200  1
  O  O3  1  0.18090100  0.28436800  0.41861000  1
  O  O4  1  0.46858000  0.48735900  0.94905400  1
  O  O5  1  0.96950900  0.51230400  0.55156300  1
  O  O6  1  0.03049100  0.51230400  0.05156300  1
  O  O7  1  0.53142000  0.48735900  0.44905400  1
  O  O8  1  0.46046400  0.06388200  0.95036900  1
  O  O9  1  0.96296400  0.93882100  0.55110100  1
  O  O10  1  0.03703600  0.93882100  0.05110100  1
  O  O11  1  0.53953600  0.06388200  0.45036900  1
  O  O12  1  0.43187000  0.91605700  0.71132900  1
  O  O13  1  0.93706400  0.08058800  0.78891900  1
  O  O14  1  0.06293600  0.08058800  0.28891900  1
  O  O15  1  0.56813000  0.91605700  0.21132900  1
  O  O16  1  0.42228100  0.13161600  0.77944200  1
  O  O17  1  0.91671500  0.87117700  0.72009100  1
  O  O18  1  0.08328500  0.87117700  0.22009100  1
  O  O19  1  0.57771900  0.13161600  0.27944200  1
  O  O20  1  0.14047700  0.33176100  0.82912700  1
  O  O21  1  0.64478600  0.66416100  0.67077800  1
  O  O22  1  0.35521400  0.66416100  0.17077800  1
  O  O23  1  0.85952300  0.33176100  0.32912700  1
  O  O24  1  0.40723900  0.37012700  0.70387600  1
  O  O25  1  0.92267000  0.63039300  0.79446500  1
  O  O26  1  0.07733000  0.63039300  0.29446500  1
  O  O27  1  0.59276100  0.37012700  0.20387600  1
  O  O28  1  0.53158300  0.02626500  0.03601700  1
  O  O29  1  0.03289600  0.97868500  0.46495000  1
  O  O30  1  0.96710400  0.97868500  0.96495000  1
  O  O31  1  0.46841700  0.02626500  0.53601700  1
  O  O32  1  0.53142000  0.44010000  0.03629000  1
  O  O33  1  0.02929300  0.55755700  0.46439800  1
  O  O34  1  0.97070700  0.55755700  0.96439800  1
  O  O35  1  0.46858000  0.44010000  0.53629000  1
  O  O36  1  0.03732500  0.87092700  0.63701900  1
  O  O37  1  0.53770000  0.12460000  0.86293800  1
  O  O38  1  0.46230000  0.12460000  0.36293800  1
  O  O39  1  0.96267500  0.87092700  0.13701900  1
  O  O40  1  0.40926300  0.59384100  0.77413900  1
  O  O41  1  0.90095900  0.40396900  0.72514700  1
  O  O42  1  0.09904100  0.40396900  0.22514700  1
  O  O43  1  0.59073700  0.59384100  0.27413900  1
  O  O44  1  0.67528200  0.79843300  0.91314800  1
  O  O45  1  0.17484900  0.20553300  0.58998700  1
  O  O46  1  0.82515100  0.20553300  0.08998700  1
  O  O47  1  0.32471800  0.79843300  0.41314800  1
  O  O48  1  0.04128200  0.49304500  0.63785400  1
  O  O49  1  0.52495000  0.50702200  0.85992200  1
  O  O50  1  0.47505000  0.50702200  0.35992200  1
  O  O51  1  0.95871800  0.49304500  0.13785400  1
  O  O52  1  0.54804300  0.42252000  0.61897200  1
  O  O53  1  0.04879100  0.58019800  0.88023000  1
  O  O54  1  0.95120900  0.58019800  0.38023000  1
  O  O55  1  0.45195700  0.42252000  0.11897200  1
  O  O56  1  0.29660100  0.83485800  0.83057700  1
  O  O57  1  0.78735000  0.16582600  0.66886000  1
  O  O58  1  0.21265000  0.16582600  0.16886000  1
  O  O59  1  0.70339900  0.83485800  0.33057700  1
  O  O60  1  0.32380300  0.75558700  0.99783000  1
  O  O61  1  0.82751200  0.24525500  0.50363000  1
  O  O62  1  0.17248800  0.24525500  0.00363000  1
  O  O63  1  0.67619700  0.75558700  0.49783000  1
  O  O64  1  0.54499700  0.96096400  0.61914100  1
  O  O65  1  0.04889900  0.03449700  0.88086100  1
  O  O66  1  0.95110100  0.03449700  0.38086100  1
  O  O67  1  0.45500300  0.96096400  0.11914100  1
loop_
_geom_bond_atom_site_label_1
_geom_bond_atom_site_label_2
_geom_bond_distance
_geom_bond_site_symmetry_2
Ga0 O34 1.947152 1_455
Ga0 O32 1.961981 1_556
Ga0 O62 2.019067 1_556
Ga0 O60 2.025234 1_555
Ga0 O4 2.030544 1_555
Ga0 O6 2.079566 1_556
Ga1 O33 1.947152 1_655
Ga1 O35 1.961981 1_555
Ga1 O61 2.019067 1_555
Ga1 O63 2.025234 1_555
Ga1 O7 2.030544 1_555
Ga1 O5 2.079566 1_555
Ga2 O53 1.921231 1_655
Ga2 O49 1.938302 1_555
Ga2 O44 2.037412 1_555
Ga2 O4 2.040299 1_555
Ga2 O0 2.076979 1_555
Ga2 O34 2.289773 1_555
Ga3 O54 1.921231 1_455
Ga3 O50 1.938302 1_555
Ga3 O47 2.037412 1_555
Ga3 O7 2.040299 1_555
Ga3 O3 2.076979 1_555
Ga3 O33 2.289773 1_555
O0 Ti4 1.986883 1_555
O0 Pr18 2.390246 1_555
O0 Pr4 2.444576 1_655
O1 Ti5 2.014143 1_555
O1 Ti14 2.046356 1_555
O1 Pr5 2.414724 1_555
O1 Pr19 2.438597 1_555
O2 Ti6 2.014143 1_555
O2 Ti15 2.046356 1_555
O2 Pr6 2.414724 1_555
O2 Pr16 2.438597 1_555
O3 Ti7 1.986883 1_555
O3 Pr17 2.390246 1_555
O3 Pr7 2.444576 1_455
O4 Pr4 2.465257 1_555
O4 Pr18 2.601519 1_555
O4 Pr12 2.714355 1_555
O5 Ti14 1.997232 1_655
O5 Pr5 2.476389 1_555
O5 Pr19 2.662482 1_655
O5 Pr13 2.757449 1_555
O6 Ti15 1.997232 1_455
O6 Pr6 2.476389 1_555
O6 Pr16 2.662482 1_455
O6 Pr14 2.757449 1_555
O7 Pr7 2.465257 1_555
O7 Pr17 2.601519 1_555
O7 Pr15 2.714355 1_555
O8 Ti8 1.950226 1_555
O8 Ti4 2.112209 1_555
O8 Pr4 2.515404 1_555
O8 Pr18 2.666569 1_555
O8 Pr12 2.840399 1_545
O9 Ti5 2.009319 1_655
O9 Ti9 2.064073 1_565
O9 Pr5 2.493197 1_555
O9 Pr19 2.742709 1_655
O9 Pr13 2.772850 1_565
O10 Ti6 2.009319 1_455
O10 Ti8 2.064073 1_564
O10 Pr6 2.493197 1_555
O10 Pr16 2.742709 1_455
O10 Pr14 2.772850 1_565
O11 Ti9 1.950226 1_555
O11 Ti7 2.112209 1_555
O11 Pr7 2.515404 1_555
O11 Pr17 2.666569 1_555
O11 Pr15 2.840399 1_545
O12 Ti1 1.841837 1_555
O12 Pr0 2.469807 1_565
O12 Pr1 2.487368 1_555
O12 Pr8 2.547437 1_555
O13 Ti0 1.848352 1_655
O13 Pr0 2.437249 1_655
O13 Pr1 2.455010 1_545
O13 Pr9 2.603452 1_555
O14 Ti3 1.848352 1_455
O14 Pr3 2.437249 1_455
O14 Pr2 2.455010 1_545
O14 Pr10 2.603452 1_555
O15 Ti2 1.841837 1_555
O15 Pr3 2.469807 1_565
O15 Pr2 2.487368 1_555
O15 Pr11 2.547437 1_555
O16 Ti0 1.856082 1_555
O16 Pr1 2.464508 1_545
O16 Pr0 2.474884 1_555
O16 Pr9 2.522791 1_555
O17 Ti1 1.864412 1_555
O17 Pr0 2.428608 1_665
O17 Pr1 2.464462 1_555
O17 Pr8 2.470663 1_655
O18 Ti2 1.864412 1_555
O18 Pr3 2.428608 1_465
O18 Pr2 2.464462 1_555
O18 Pr11 2.470663 1_455
O19 Ti3 1.856082 1_555
O19 Pr2 2.464508 1_545
O19 Pr3 2.474884 1_555
O19 Pr10 2.522791 1_555
O20 Ti0 1.992651 1_555
O20 Ti10 2.075864 1_555
O20 Pr4 2.466826 1_555
O20 Pr9 2.580210 1_455
O21 Ti11 2.011360 1_555
O21 Ti1 2.036166 1_555
O21 Pr5 2.480433 1_555
O21 Pr8 2.694330 1_555
O22 Ti12 2.011360 1_555
O22 Ti2 2.036166 1_555
O22 Pr6 2.480433 1_555
O22 Pr11 2.694330 1_555
O23 Ti3 1.992651 1_555
O23 Ti13 2.075864 1_555
O23 Pr7 2.466826 1_555
O23 Pr10 2.580210 1_655
O24 Ti11 1.769950 1_555
O24 Pr0 2.349290 1_555
O24 Pr8 2.418313 1_555
O25 Ti10 1.804667 1_655
O25 Pr1 2.352602 1_555
O25 Pr9 2.427155 1_555
O26 Ti13 1.804667 1_455
O26 Pr2 2.352602 1_555
O26 Pr10 2.427155 1_555
O27 Ti12 1.769950 1_555
O27 Pr3 2.349290 1_555
O27 Pr11 2.418313 1_555
O28 Ti8 1.968138 1_554
O28 Ti6 2.264342 1_545
O28 Pr18 2.452244 1_554
O28 Pr14 2.620580 1_555
O28 Pr16 2.828662 1_545
O29 Ti9 1.946605 1_465
O29 Ti7 2.266790 1_565
O29 Pr19 2.410019 1_555
O29 Pr15 2.743562 1_455
O29 Pr17 2.757248 1_565
O30 Ti8 1.946605 1_665
O30 Ti4 2.266790 1_565
O30 Pr16 2.410019 1_556
O30 Pr12 2.743562 1_655
O30 Pr18 2.757248 1_565
O31 Ti9 1.968138 1_555
O31 Ti5 2.264342 1_545
O31 Pr17 2.452244 1_555
O31 Pr13 2.620580 1_555
O31 Pr19 2.828662 1_545
O32 Ti15 2.263379 1_555
O32 Pr18 2.407471 1_554
O32 Pr14 2.593596 1_555
O32 Pr16 2.742742 1_555
O33 Pr19 2.367770 1_555
O33 Pr15 2.623021 1_455
O33 Pr17 2.693290 1_555
O34 Pr16 2.367770 1_556
O34 Pr12 2.623021 1_655
O34 Pr18 2.693290 1_555
O35 Ti14 2.263379 1_555
O35 Pr17 2.407471 1_555
O35 Pr13 2.593596 1_555
O35 Pr19 2.742742 1_555
O36 Ti5 1.826356 1_555
O36 Ti1 2.328993 1_455
O36 Pr5 2.577514 1_455
O36 Pr8 2.737479 1_555
O37 Ti4 1.834391 1_555
O37 Ti0 2.285348 1_555
O37 Pr4 2.575233 1_555
O37 Pr9 2.670405 1_555
O38 Ti7 1.834391 1_555
O38 Ti3 2.285348 1_555
O38 Pr7 2.575233 1_555
O38 Pr10 2.670405 1_555
O39 Ti6 1.826356 1_555
O39 Ti2 2.328993 1_655
O39 Pr6 2.577514 1_655
O39 Pr11 2.737479 1_555
O40 Ti10 1.926680 1_555
O40 Pr1 2.423583 1_555
O40 Pr9 2.523535 1_555
O40 Pr8 2.558218 1_555
O41 Ti11 1.892714 1_555
O41 Pr0 2.421557 1_655
O41 Pr8 2.503553 1_655
O41 Pr9 2.675928 1_555
O42 Ti12 1.892714 1_555
O42 Pr3 2.421557 1_455
O42 Pr11 2.503553 1_455
O42 Pr10 2.675928 1_555
O43 Ti13 1.926680 1_555
O43 Pr2 2.423583 1_555
O43 Pr10 2.523535 1_555
O43 Pr11 2.558218 1_555
O44 Ti4 1.952430 1_565
O44 Pr12 2.431068 1_555
O44 Pr16 2.953367 1_556
O45 Ti14 1.987362 1_555
O45 Ti5 1.991894 1_545
O45 Pr13 2.479866 1_455
O46 Ti15 1.987362 1_555
O46 Ti6 1.991894 1_545
O46 Pr14 2.479866 1_655
O47 Ti7 1.952430 1_565
O47 Pr15 2.431068 1_555
O47 Pr19 2.953367 1_555
O48 Ti14 1.830972 1_555
O48 Ti11 2.394872 1_455
O48 Pr5 2.582436 1_455
O48 Pr8 2.651761 1_555
O49 Ti10 2.206531 1_555
O49 Pr4 2.500926 1_555
O49 Pr9 2.510793 1_555
O50 Ti13 2.206531 1_555
O50 Pr7 2.500926 1_555
O50 Pr10 2.510793 1_555
O51 Ti15 1.830972 1_555
O51 Ti12 2.394872 1_655
O51 Pr6 2.582436 1_655
O51 Pr11 2.651761 1_555
O52 Ti14 1.929545 1_555
O52 Ti11 2.058877 1_555
O52 Pr13 2.365693 1_555
O52 Pr5 2.465677 1_555
O53 Ti10 2.029400 1_555
O53 Pr12 2.326157 1_555
O53 Pr4 2.469918 1_555
O54 Ti13 2.029400 1_555
O54 Pr15 2.326157 1_555
O54 Pr7 2.469918 1_555
O55 Ti15 1.929545 1_555
O55 Ti12 2.058877 1_555
O55 Pr14 2.365693 1_555
O55 Pr6 2.465677 1_555
O56 Ti10 1.973167 1_555
O56 Ti0 1.992306 1_565
O56 Pr1 2.477259 1_555
O56 Pr12 2.774737 1_555
O57 Ti1 1.971641 1_545
O57 Ti11 2.007324 1_555
O57 Pr0 2.518937 1_655
O57 Pr13 2.791226 1_555
O58 Ti2 1.971641 1_545
O58 Ti12 2.007324 1_555
O58 Pr3 2.518937 1_455
O58 Pr14 2.791226 1_555
O59 Ti13 1.973167 1_555
O59 Ti3 1.992306 1_565
O59 Pr2 2.477259 1_555
O59 Pr15 2.774737 1_555
O60 Ti8 1.965059 1_565
O60 Pr16 2.409452 1_556
O60 Pr12 2.616251 1_555
O61 Ti9 1.967816 1_555
O61 Pr17 2.407521 1_655
O61 Pr13 2.545693 1_555
O62 Ti8 1.967816 1_554
O62 Pr18 2.407521 1_454
O62 Pr14 2.545693 1_555
O63 Ti9 1.965059 1_565
O63 Pr19 2.409452 1_555
O63 Pr15 2.616251 1_555
O64 Ti5 1.938543 1_555
O64 Ti1 2.005796 1_555
O64 Pr13 2.395531 1_565
O64 Pr5 2.514494 1_555
O65 Ti4 1.901212 1_455
O65 Ti0 2.030598 1_555
O65 Pr12 2.398511 1_545
O65 Pr4 2.566984 1_555
O66 Ti7 1.901212 1_655
O66 Ti3 2.030598 1_555
O66 Pr15 2.398511 1_545
O66 Pr7 2.566984 1_555
O67 Ti6 1.938543 1_555
O67 Ti2 2.005796 1_555
O67 Pr14 2.395531 1_565
O67 Pr6 2.514494 1_555
