# generated using pymatgen
data_Pr(Al5Os)2
_symmetry_space_group_name_H-M   'P 1'
_cell_length_a   6.85647386
_cell_length_b   6.85647386
_cell_length_c   9.15763457
_cell_angle_alpha   90.00000000
_cell_angle_beta   90.00000000
_cell_angle_gamma   96.76579470
_symmetry_Int_Tables_number   1
_chemical_formula_structural   Pr(Al5Os)2
_chemical_formula_sum   'Pr2 Al20 Os4'
_cell_volume   427.51362335
_cell_formula_units_Z   2
loop_
 _symmetry_equiv_pos_site_id
 _symmetry_equiv_pos_as_xyz
  1  'x, y, z'
loop_
 _atom_site_type_symbol
 _atom_site_label
 _atom_site_symmetry_multiplicity
 _atom_site_fract_x
 _atom_site_fract_y
 _atom_site_fract_z
 _atom_site_occupancy
  Pr  Pr0  1  0.87516160  0.12483840  0.75000000  1
  Pr  Pr1  1  0.12483840  0.87516160  0.25000000  1
  Al  Al0  1  0.62256565  0.37743435  0.54952908  1
  Al  Al1  1  0.37743435  0.62256565  0.45047092  1
  Al  Al2  1  0.37743435  0.62256565  0.04952908  1
  Al  Al3  1  0.62256565  0.37743435  0.95047092  1
  Al  Al4  1  0.22775297  0.22775297  0.50000000  1
  Al  Al5  1  0.77224703  0.77224703  0.50000000  1
  Al  Al6  1  0.77224703  0.77224703  0.00000000  1
  Al  Al7  1  0.22775297  0.22775297  -0.00000000  1
  Al  Al8  1  0.83833684  0.16166316  0.10221873  1
  Al  Al9  1  0.16166316  0.83833684  0.89778127  1
  Al  Al10  1  0.16166316  0.83833684  0.60221873  1
  Al  Al11  1  0.83833684  0.16166316  0.39778127  1
  Al  Al12  1  0.85857367  0.59027222  0.75000000  1
  Al  Al13  1  0.14142633  0.40972778  0.25000000  1
  Al  Al14  1  0.40972778  0.14142633  0.75000000  1
  Al  Al15  1  0.59027222  0.85857367  0.25000000  1
  Al  Al16  1  0.21904120  0.48314417  0.75000000  1
  Al  Al17  1  0.78095880  0.51685583  0.25000000  1
  Al  Al18  1  0.51685583  0.78095880  0.75000000  1
  Al  Al19  1  0.48314417  0.21904120  0.25000000  1
  Os  Os0  1  -0.00000000  0.50000000  0.50000000  1
  Os  Os1  1  -0.00000000  0.50000000  0.00000000  1
  Os  Os2  1  0.50000000  -0.00000000  0.00000000  1
  Os  Os3  1  0.50000000  -0.00000000  0.50000000  1
loop_
_geom_bond_atom_site_label_1
_geom_bond_atom_site_label_2
_geom_bond_distance
_geom_bond_site_symmetry_2
Al0 Os0 2.663942 1_655
Al0 Os3 2.663942 1_555
Al0 Pr0 3.174294 1_555
Al1 Os0 2.663942 1_555
Al1 Os3 2.663942 1_565
Al1 Pr1 3.174294 1_555
Al2 Os1 2.663942 1_555
Al2 Os2 2.663942 1_565
Al2 Pr1 3.174294 1_555
Al3 Os1 2.663942 1_656
Al3 Os2 2.663942 1_556
Al3 Pr0 3.174294 1_555
Al4 Os3 2.570946 1_555
Al4 Os0 2.570946 1_555
Al4 Pr0 3.343924 1_455
Al4 Pr1 3.343924 1_545
Al5 Os3 2.570946 1_565
Al5 Os0 2.570946 1_655
Al5 Pr1 3.343924 1_655
Al5 Pr0 3.343924 1_565
Al6 Os2 2.570946 1_565
Al6 Os1 2.570946 1_655
Al6 Pr1 3.343924 1_655
Al6 Pr0 3.343924 1_564
Al7 Os1 2.570946 1_555
Al7 Os2 2.570946 1_555
Al7 Pr0 3.343924 1_454
Al7 Pr1 3.343924 1_545
Al8 Os2 2.623067 1_555
Al8 Os1 2.623067 1_655
Al8 Pr1 3.233942 1_645
Al8 Pr0 3.247508 1_554
Al9 Os1 2.623067 1_556
Al9 Os2 2.623067 1_566
Al9 Pr0 3.233942 1_465
Al9 Pr1 3.247508 1_556
Al10 Os3 2.623067 1_565
Al10 Os0 2.623067 1_555
Al10 Pr0 3.233942 1_465
Al10 Pr1 3.247508 1_555
Al11 Os0 2.623067 1_655
Al11 Os3 2.623067 1_555
Al11 Pr1 3.233942 1_645
Al11 Pr0 3.247508 1_555
Al12 Os0 2.589633 1_655
Al12 Os1 2.589633 1_656
Al12 Pr0 3.206624 1_555
Al12 Pr0 3.653586 1_565
Al13 Os0 2.589633 1_555
Al13 Os1 2.589633 1_555
Al13 Pr1 3.206624 1_555
Al13 Pr1 3.653586 1_545
Al14 Os2 2.589633 1_556
Al14 Os3 2.589633 1_555
Al14 Pr0 3.206624 1_555
Al14 Pr0 3.653586 1_455
Al15 Os3 2.589633 1_565
Al15 Os2 2.589633 1_565
Al15 Pr1 3.206624 1_555
Al15 Pr1 3.653586 1_655
Al16 Os0 2.747945 1_555
Al16 Os1 2.747945 1_556
Al16 Pr0 3.198413 1_455
Al17 Os0 2.747945 1_655
Al17 Os1 2.747945 1_655
Al17 Pr1 3.198413 1_655
Al18 Os3 2.747945 1_565
Al18 Os2 2.747945 1_566
Al18 Pr0 3.198413 1_565
Al19 Os2 2.747945 1_555
Al19 Os3 2.747945 1_555
Al19 Pr1 3.198413 1_545
Os0 Pr1 3.474466 1_555
Os0 Pr0 3.474466 1_455
Os1 Pr1 3.474466 1_555
Os1 Pr0 3.474466 1_454
Os2 Pr0 3.474466 1_554
Os2 Pr1 3.474466 1_545
Os3 Pr0 3.474466 1_555
Os3 Pr1 3.474466 1_545
