# generated using pymatgen
data_LiAl2H4Pb2(O2F3)2
_symmetry_space_group_name_H-M   'P 1'
_cell_length_a   8.06958408
_cell_length_b   7.21771080
_cell_length_c   4.82355550
_cell_angle_alpha   88.51316240
_cell_angle_beta   114.56952884
_cell_angle_gamma   110.45870497
_symmetry_Int_Tables_number   1
_chemical_formula_structural   LiAl2H4Pb2(O2F3)2
_chemical_formula_sum   'Li1 Al2 H4 Pb2 O4 F6'
_cell_volume   237.02795582
_cell_formula_units_Z   1
loop_
 _symmetry_equiv_pos_site_id
 _symmetry_equiv_pos_as_xyz
  1  'x, y, z'
loop_
 _atom_site_type_symbol
 _atom_site_label
 _atom_site_symmetry_multiplicity
 _atom_site_fract_x
 _atom_site_fract_y
 _atom_site_fract_z
 _atom_site_occupancy
  Li  Li0  1  0.44581800  0.96813800  0.90361900  1
  Al  Al0  1  0.16529800  0.68127500  0.18929500  1
  Al  Al1  1  0.83037500  0.31408300  0.80534900  1
  H  H0  1  0.15565700  0.49027600  0.73937600  1
  H  H1  1  0.84312000  0.50508300  0.25878700  1
  H  H2  1  0.10143300  0.85871400  0.73135500  1
  H  H3  1  0.88338400  0.13475700  0.26125400  1
  Pb  Pb0  1  0.73777700  0.78848700  0.73229800  1
  Pb  Pb1  1  0.25909100  0.22199900  0.25348900  1
  O  O0  1  0.10067300  0.46677900  0.89133900  1
  O  O1  1  0.89976500  0.53032400  0.10845200  1
  O  O2  1  0.07763100  0.86021400  0.91590500  1
  O  O3  1  0.91833200  0.13822100  0.08614300  1
  F  F0  1  0.21557100  0.86569900  0.50321200  1
  F  F1  1  0.79468100  0.12997600  0.51169900  1
  F  F2  1  0.27132900  0.54441700  0.49977400  1
  F  F3  1  0.73354100  0.45693600  0.49952500  1
  F  F4  1  0.40691300  0.81004000  0.19747100  1
  F  F5  1  0.58669400  0.18828700  0.78666000  1
loop_
_geom_bond_atom_site_label_1
_geom_bond_atom_site_label_2
_geom_bond_distance
_geom_bond_site_symmetry_2
Al0 F4 1.827016 1_555
Al0 F2 1.843681 1_555
Al0 F0 1.856208 1_555
Al0 O1 1.904113 1_455
Al0 O0 1.913672 1_554
Al0 O2 1.918867 1_554
Al1 F5 1.818784 1_555
Al1 F1 1.829175 1_555
Al1 F3 1.837259 1_555
Al1 O3 1.921087 1_556
Al1 O1 1.927109 1_556
Al1 O0 1.932659 1_655
H0 O0 0.987080 1_555
H1 O1 0.989216 1_555
H2 O2 0.986703 1_555
H3 O3 0.992810 1_555
O0 Pb1 2.714552 1_556
O2 Pb0 2.363265 1_455
O2 Pb1 2.679404 1_566
O3 Pb1 2.365513 1_655
O3 Pb0 2.644329 1_544
F0 Li0 1.964347 1_555
F0 Pb1 2.783423 1_565
F1 H3 1.634797 1_555
F1 Pb0 2.626255 1_545
F2 Pb1 2.592635 1_555
F3 Pb0 2.653075 1_555
F4 Li0 1.856184 1_554
F5 Li0 1.832893 1_545
