# generated using pymatgen
data_Zn2Ga2S5
_symmetry_space_group_name_H-M   'P 1'
_cell_length_a   15.40965359
_cell_length_b   15.40965359
_cell_length_c   15.40965436
_cell_angle_alpha   13.96360730
_cell_angle_beta   13.96360730
_cell_angle_gamma   13.96360838
_symmetry_Int_Tables_number   1
_chemical_formula_structural   Zn2Ga2S5
_chemical_formula_sum   'Zn2 Ga2 S5'
_cell_volume   185.43343006
_cell_formula_units_Z   1
loop_
 _symmetry_equiv_pos_site_id
 _symmetry_equiv_pos_as_xyz
  1  'x, y, z'
loop_
 _atom_site_type_symbol
 _atom_site_label
 _atom_site_symmetry_multiplicity
 _atom_site_fract_x
 _atom_site_fract_y
 _atom_site_fract_z
 _atom_site_occupancy
  Zn  Zn0  1  0.68936800  0.68936800  0.68936800  1
  Zn  Zn1  1  0.51717800  0.51717800  0.51717800  1
  Ga  Ga0  1  0.10465500  0.10465500  0.10465500  1
  Ga  Ga1  1  0.92167600  0.92167600  0.92167600  1
  S  S0  1  0.00654200  0.00654200  0.00654200  1
  S  S1  1  0.46821600  0.46821600  0.46821600  1
  S  S2  1  0.60769600  0.60769600  0.60769600  1
  S  S3  1  0.74528600  0.74528600  0.74528600  1
  S  S4  1  0.87138200  0.87138200  0.87138200  1
loop_
_geom_bond_atom_site_label_1
_geom_bond_atom_site_label_2
_geom_bond_distance
_geom_bond_site_symmetry_2
Ga0 S3 2.469444 1_445
Ga0 S3 2.469445 1_544
Ga0 S3 2.469445 1_454
Ga0 S1 2.567543 1_554
Ga0 S1 2.567544 1_455
Ga0 S1 2.567544 1_545
Ga1 S4 2.302023 1_555
Ga1 S2 2.337248 1_655
Ga1 S2 2.337248 1_565
Ga1 S2 2.337249 1_556
S0 Zn0 2.285847 1_454
S0 Zn0 2.285847 1_544
S0 Zn0 2.285847 1_445
S1 Zn1 2.241056 1_555
S3 Zn0 2.559441 1_555
S4 Zn1 2.364444 1_556
S4 Zn1 2.364444 1_655
S4 Zn1 2.364444 1_565
