# generated using pymatgen
data_Eu3Ge13Os4
_symmetry_space_group_name_H-M   'P 1'
_cell_length_a   9.18308000
_cell_length_b   9.18308000
_cell_length_c   9.18308000
_cell_angle_alpha   90.00000000
_cell_angle_beta   90.00000000
_cell_angle_gamma   90.00000000
_symmetry_Int_Tables_number   1
_chemical_formula_structural   Eu3Ge13Os4
_chemical_formula_sum   'Eu6 Ge26 Os8'
_cell_volume   774.39957026
_cell_formula_units_Z   2
loop_
 _symmetry_equiv_pos_site_id
 _symmetry_equiv_pos_as_xyz
  1  'x, y, z'
loop_
 _atom_site_type_symbol
 _atom_site_label
 _atom_site_symmetry_multiplicity
 _atom_site_fract_x
 _atom_site_fract_y
 _atom_site_fract_z
 _atom_site_occupancy
  Eu  Eu0  1  0.00000000  0.50000000  0.75000000  1
  Eu  Eu1  1  0.50000000  0.25000000  0.00000000  1
  Eu  Eu2  1  0.75000000  0.00000000  0.50000000  1
  Eu  Eu3  1  0.00000000  0.50000000  0.25000000  1
  Eu  Eu4  1  0.50000000  0.75000000  0.00000000  1
  Eu  Eu5  1  0.25000000  0.00000000  0.50000000  1
  Ge  Ge0  1  0.50000000  0.50000000  0.50000000  1
  Ge  Ge1  1  0.00000000  0.00000000  0.00000000  1
  Ge  Ge2  1  0.79169300  0.35523000  0.50000000  1
  Ge  Ge3  1  0.64477000  0.50000000  0.79169300  1
  Ge  Ge4  1  0.50000000  0.20830700  0.64477000  1
  Ge  Ge5  1  0.20830700  0.64477000  0.50000000  1
  Ge  Ge6  1  0.35523000  0.50000000  0.20830700  1
  Ge  Ge7  1  0.50000000  0.79169300  0.35523000  1
  Ge  Ge8  1  0.79169300  0.64477000  0.50000000  1
  Ge  Ge9  1  0.64477000  0.50000000  0.20830700  1
  Ge  Ge10  1  0.20830700  0.35523000  0.50000000  1
  Ge  Ge11  1  0.35523000  0.50000000  0.79169300  1
  Ge  Ge12  1  0.50000000  0.79169300  0.64477000  1
  Ge  Ge13  1  0.50000000  0.20830700  0.35523000  1
  Ge  Ge14  1  0.29169300  0.00000000  0.85523000  1
  Ge  Ge15  1  0.14477000  0.29169300  0.00000000  1
  Ge  Ge16  1  0.00000000  0.14477000  0.70830700  1
  Ge  Ge17  1  0.70830700  0.00000000  0.14477000  1
  Ge  Ge18  1  0.85523000  0.70830700  0.00000000  1
  Ge  Ge19  1  0.00000000  0.85523000  0.29169300  1
  Ge  Ge20  1  0.29169300  0.00000000  0.14477000  1
  Ge  Ge21  1  0.14477000  0.70830700  0.00000000  1
  Ge  Ge22  1  0.70830700  0.00000000  0.85523000  1
  Ge  Ge23  1  0.85523000  0.29169300  0.00000000  1
  Ge  Ge24  1  0.00000000  0.14477000  0.29169300  1
  Ge  Ge25  1  0.00000000  0.85523000  0.70830700  1
  Os  Os0  1  0.75000000  0.25000000  0.75000000  1
  Os  Os1  1  0.25000000  0.75000000  0.25000000  1
  Os  Os2  1  0.75000000  0.75000000  0.25000000  1
  Os  Os3  1  0.25000000  0.25000000  0.75000000  1
  Os  Os4  1  0.25000000  0.75000000  0.75000000  1
  Os  Os5  1  0.75000000  0.25000000  0.25000000  1
  Os  Os6  1  0.25000000  0.25000000  0.25000000  1
  Os  Os7  1  0.75000000  0.75000000  0.75000000  1
loop_
_geom_bond_atom_site_label_1
_geom_bond_atom_site_label_2
_geom_bond_distance
_geom_bond_site_symmetry_2
Eu0 Os4 3.246709 1_555
Eu0 Os0 3.246709 1_455
Eu0 Os7 3.246709 1_455
Eu0 Os3 3.246709 1_555
Eu0 Ge10 3.270649 1_555
Eu0 Ge2 3.270649 1_455
Eu0 Ge18 3.270649 1_456
Eu0 Ge15 3.270649 1_556
Eu0 Ge5 3.270649 1_555
Eu0 Ge21 3.270649 1_556
Eu0 Ge23 3.270649 1_456
Eu0 Ge8 3.270649 1_455
Eu0 Ge3 3.284497 1_455
Eu0 Ge16 3.284497 1_555
Eu0 Ge11 3.284497 1_555
Eu0 Ge25 3.284497 1_555
Eu1 Os3 3.246709 1_554
Eu1 Os5 3.246709 1_555
Eu1 Os0 3.246709 1_554
Eu1 Os6 3.246709 1_555
Eu1 Ge6 3.270649 1_555
Eu1 Ge14 3.270649 1_554
Eu1 Ge11 3.270649 1_554
Eu1 Ge17 3.270649 1_555
Eu1 Ge22 3.270649 1_554
Eu1 Ge20 3.270649 1_555
Eu1 Ge9 3.270649 1_555
Eu1 Ge3 3.270649 1_554
Eu1 Ge4 3.284497 1_554
Eu1 Ge15 3.284497 1_555
Eu1 Ge23 3.284497 1_555
Eu1 Ge13 3.284497 1_555
Eu2 Os7 3.246709 1_545
Eu2 Os5 3.246709 1_555
Eu2 Os2 3.246709 1_545
Eu2 Os0 3.246709 1_555
Eu2 Ge13 3.270649 1_555
Eu2 Ge25 3.270649 1_645
Eu2 Ge4 3.270649 1_555
Eu2 Ge16 3.270649 1_655
Eu2 Ge7 3.270649 1_545
Eu2 Ge19 3.270649 1_645
Eu2 Ge24 3.270649 1_655
Eu2 Ge12 3.270649 1_545
Eu2 Ge8 3.284497 1_545
Eu2 Ge17 3.284497 1_555
Eu2 Ge22 3.284497 1_555
Eu2 Ge2 3.284497 1_555
Eu3 Os2 3.246709 1_455
Eu3 Os1 3.246709 1_555
Eu3 Os6 3.246709 1_555
Eu3 Os5 3.246709 1_455
Eu3 Ge10 3.270649 1_555
Eu3 Ge2 3.270649 1_455
Eu3 Ge18 3.270649 1_455
Eu3 Ge15 3.270649 1_555
Eu3 Ge5 3.270649 1_555
Eu3 Ge21 3.270649 1_555
Eu3 Ge23 3.270649 1_455
Eu3 Ge8 3.270649 1_455
Eu3 Ge9 3.284497 1_455
Eu3 Ge24 3.284497 1_555
Eu3 Ge19 3.284497 1_555
Eu3 Ge6 3.284497 1_555
Eu4 Os2 3.246709 1_555
Eu4 Os1 3.246709 1_555
Eu4 Os4 3.246709 1_554
Eu4 Os7 3.246709 1_554
Eu4 Ge6 3.270649 1_555
Eu4 Ge22 3.270649 1_564
Eu4 Ge14 3.270649 1_564
Eu4 Ge17 3.270649 1_565
Eu4 Ge11 3.270649 1_554
Eu4 Ge20 3.270649 1_565
Eu4 Ge9 3.270649 1_555
Eu4 Ge3 3.270649 1_554
Eu4 Ge12 3.284497 1_554
Eu4 Ge21 3.284497 1_555
Eu4 Ge18 3.284497 1_555
Eu4 Ge7 3.284497 1_555
Eu5 Os3 3.246709 1_555
Eu5 Os4 3.246709 1_545
Eu5 Os1 3.246709 1_545
Eu5 Os6 3.246709 1_555
Eu5 Ge13 3.270649 1_555
Eu5 Ge19 3.270649 1_545
Eu5 Ge4 3.270649 1_555
Eu5 Ge24 3.270649 1_555
Eu5 Ge7 3.270649 1_545
Eu5 Ge16 3.270649 1_555
Eu5 Ge25 3.270649 1_545
Eu5 Ge12 3.270649 1_545
Eu5 Ge5 3.284497 1_545
Eu5 Ge20 3.284497 1_555
Eu5 Ge10 3.284497 1_555
Eu5 Ge14 3.284497 1_555
Ge0 Ge10 2.990403 1_555
Ge0 Ge7 2.990403 1_555
Ge0 Ge2 2.990403 1_555
Ge0 Ge6 2.990403 1_555
Ge0 Ge11 2.990403 1_555
Ge0 Ge13 2.990403 1_555
Ge0 Ge8 2.990403 1_555
Ge0 Ge5 2.990403 1_555
Ge0 Ge3 2.990403 1_555
Ge0 Ge12 2.990403 1_555
Ge0 Ge9 2.990403 1_555
Ge0 Ge4 2.990403 1_555
Ge1 Ge19 2.990403 1_545
Ge1 Ge14 2.990403 1_554
Ge1 Ge23 2.990403 1_455
Ge1 Ge18 2.990403 1_445
Ge1 Ge22 2.990403 1_454
Ge1 Ge25 2.990403 1_544
Ge1 Ge16 2.990403 1_554
Ge1 Ge21 2.990403 1_545
Ge1 Ge17 2.990403 1_455
Ge1 Ge20 2.990403 1_555
Ge1 Ge24 2.990403 1_555
Ge1 Ge15 2.990403 1_555
Ge2 Os0 2.520110 1_555
Ge2 Os5 2.520110 1_555
Ge3 Os7 2.520110 1_555
Ge3 Os0 2.520110 1_555
Ge4 Os3 2.520110 1_555
Ge4 Os0 2.520110 1_555
Ge5 Os4 2.520110 1_555
Ge5 Os1 2.520110 1_555
Ge6 Os6 2.520110 1_555
Ge6 Os1 2.520110 1_555
Ge7 Os1 2.520110 1_555
Ge7 Os2 2.520110 1_555
Ge8 Os7 2.520110 1_555
Ge8 Os2 2.520110 1_555
Ge9 Os5 2.520110 1_555
Ge9 Os2 2.520110 1_555
Ge10 Os6 2.520110 1_555
Ge10 Os3 2.520110 1_555
Ge11 Os3 2.520110 1_555
Ge11 Os4 2.520110 1_555
Ge12 Os7 2.520110 1_555
Ge12 Os4 2.520110 1_555
Ge13 Os6 2.520110 1_555
Ge13 Os5 2.520110 1_555
Ge14 Os3 2.520110 1_555
Ge14 Os4 2.520110 1_545
Ge15 Os6 2.520110 1_555
Ge15 Os3 2.520110 1_554
Ge16 Os3 2.520110 1_555
Ge16 Os0 2.520110 1_455
Ge17 Os5 2.520110 1_555
Ge17 Os2 2.520110 1_545
Ge18 Os7 2.520110 1_554
Ge18 Os2 2.520110 1_555
Ge19 Os2 2.520110 1_455
Ge19 Os1 2.520110 1_555
Ge20 Os6 2.520110 1_555
Ge20 Os1 2.520110 1_545
Ge21 Os4 2.520110 1_554
Ge21 Os1 2.520110 1_555
Ge22 Os0 2.520110 1_555
Ge22 Os7 2.520110 1_545
Ge23 Os0 2.520110 1_554
Ge23 Os5 2.520110 1_555
Ge24 Os6 2.520110 1_555
Ge24 Os5 2.520110 1_455
Ge25 Os4 2.520110 1_555
Ge25 Os7 2.520110 1_455
