# generated using pymatgen
data_ZnWO3
_symmetry_space_group_name_H-M   'P 1'
_cell_length_a   5.33048600
_cell_length_b   5.38402300
_cell_length_c   7.94074400
_cell_angle_alpha   90.00000000
_cell_angle_beta   90.00000000
_cell_angle_gamma   90.00000000
_symmetry_Int_Tables_number   1
_chemical_formula_structural   ZnWO3
_chemical_formula_sum   'Zn4 W4 O12'
_cell_volume   227.89505865
_cell_formula_units_Z   4
loop_
 _symmetry_equiv_pos_site_id
 _symmetry_equiv_pos_as_xyz
  1  'x, y, z'
loop_
 _atom_site_type_symbol
 _atom_site_label
 _atom_site_symmetry_multiplicity
 _atom_site_fract_x
 _atom_site_fract_y
 _atom_site_fract_z
 _atom_site_occupancy
  Zn  Zn0  1  0.51843800  0.01911400  0.25000000  1
  Zn  Zn1  1  0.01843800  0.48088600  0.75000000  1
  Zn  Zn2  1  0.98156200  0.51911400  0.25000000  1
  Zn  Zn3  1  0.48156200  0.98088600  0.75000000  1
  W  W0  1  0.00000000  0.00000000  0.00000000  1
  W  W1  1  0.50000000  0.50000000  0.00000000  1
  W  W2  1  0.50000000  0.50000000  0.50000000  1
  W  W3  1  0.00000000  0.00000000  0.50000000  1
  O  O0  1  0.38543900  0.60466500  0.75000000  1
  O  O1  1  0.88543900  0.89533500  0.25000000  1
  O  O2  1  0.11456100  0.10466500  0.75000000  1
  O  O3  1  0.61456100  0.39533500  0.25000000  1
  O  O4  1  0.16273400  0.32338400  0.43137600  1
  O  O5  1  0.66273400  0.17661600  0.56862400  1
  O  O6  1  0.33726600  0.82338400  0.06862400  1
  O  O7  1  0.83726600  0.67661600  0.93137600  1
  O  O8  1  0.16273400  0.32338400  0.06862400  1
  O  O9  1  0.66273400  0.17661600  0.93137600  1
  O  O10  1  0.83726600  0.67661600  0.56862400  1
  O  O11  1  0.33726600  0.82338400  0.43137600  1
loop_
_geom_bond_atom_site_label_1
_geom_bond_atom_site_label_2
_geom_bond_distance
_geom_bond_site_symmetry_2
O0 Zn1 2.066691 1_555
O0 Zn3 2.089383 1_555
O0 W1 2.152076 1_556
O0 W2 2.152076 1_555
O1 Zn0 2.066691 1_565
O1 Zn2 2.089383 1_555
O1 W3 2.152076 1_665
O1 W0 2.152076 1_665
O2 Zn3 2.066691 1_545
O2 Zn1 2.089383 1_555
O2 W3 2.152076 1_555
O2 W0 2.152076 1_556
O3 Zn2 2.066691 1_555
O3 Zn0 2.089383 1_555
O3 W2 2.152076 1_555
O3 W1 2.152076 1_555
O4 W3 2.020116 1_555
O4 Zn2 2.029167 1_455
O4 W2 2.105521 1_555
O5 W2 2.020116 1_555
O5 Zn3 2.029167 1_545
O5 W3 2.105521 1_655
O6 W1 2.020116 1_555
O6 Zn0 2.029167 1_565
O6 W0 2.105521 1_565
O7 W0 2.020116 1_666
O7 Zn1 2.029167 1_655
O7 W1 2.105521 1_556
O8 W0 2.020116 1_555
O8 Zn2 2.029167 1_455
O8 W1 2.105521 1_555
O9 W1 2.020116 1_556
O9 Zn3 2.029167 1_545
O9 W0 2.105521 1_656
O10 W3 2.020116 1_665
O10 Zn1 2.029167 1_655
O10 W2 2.105521 1_555
O11 W2 2.020116 1_555
O11 Zn0 2.029167 1_565
O11 W3 2.105521 1_565
