# generated using pymatgen
data_MgTi(SiO3)2
_symmetry_space_group_name_H-M   'P 1'
_cell_length_a   5.31224000
_cell_length_b   9.04413100
_cell_length_c   18.54766400
_cell_angle_alpha   90.00000000
_cell_angle_beta   90.00000000
_cell_angle_gamma   90.00000000
_symmetry_Int_Tables_number   1
_chemical_formula_structural   MgTi(SiO3)2
_chemical_formula_sum   'Mg8 Ti8 Si16 O48'
_cell_volume   891.11499512
_cell_formula_units_Z   8
loop_
 _symmetry_equiv_pos_site_id
 _symmetry_equiv_pos_as_xyz
  1  'x, y, z'
loop_
 _atom_site_type_symbol
 _atom_site_label
 _atom_site_symmetry_multiplicity
 _atom_site_fract_x
 _atom_site_fract_y
 _atom_site_fract_z
 _atom_site_occupancy
  Mg  Mg0  1  0.62298500  0.15458100  0.37506700  1
  Mg  Mg1  1  0.37701500  0.84541900  0.62493300  1
  Mg  Mg2  1  0.62298500  0.65458100  0.12493300  1
  Mg  Mg3  1  0.12298500  0.84541900  0.12493300  1
  Mg  Mg4  1  0.87701500  0.15458100  0.87506700  1
  Mg  Mg5  1  0.37701500  0.34541900  0.87506700  1
  Mg  Mg6  1  0.12298500  0.34541900  0.37506700  1
  Mg  Mg7  1  0.87701500  0.65458100  0.62493300  1
  Ti  Ti0  1  0.36558400  0.97802100  0.87856500  1
  Ti  Ti1  1  0.63441600  0.02197900  0.12143500  1
  Ti  Ti2  1  0.86558400  0.02197900  0.62143500  1
  Ti  Ti3  1  0.13441600  0.97802100  0.37856500  1
  Ti  Ti4  1  0.36558400  0.47802100  0.62143500  1
  Ti  Ti5  1  0.63441600  0.52197900  0.37856500  1
  Ti  Ti6  1  0.86558400  0.52197900  0.87856500  1
  Ti  Ti7  1  0.13441600  0.47802100  0.12143500  1
  Si  Si0  1  0.55330500  0.65982100  0.77020200  1
  Si  Si1  1  0.70243100  0.83644000  0.47489300  1
  Si  Si2  1  0.79756900  0.83644000  0.97489300  1
  Si  Si3  1  0.94669500  0.15982100  0.22979800  1
  Si  Si4  1  0.05330500  0.34017900  0.72979800  1
  Si  Si5  1  0.44669500  0.84017900  0.27020200  1
  Si  Si6  1  0.20243100  0.66356000  0.47489300  1
  Si  Si7  1  0.70243100  0.33644000  0.02510700  1
  Si  Si8  1  0.79756900  0.33644000  0.52510700  1
  Si  Si9  1  0.94669500  0.65982100  0.27020200  1
  Si  Si10  1  0.44669500  0.34017900  0.22979800  1
  Si  Si11  1  0.55330500  0.15982100  0.72979800  1
  Si  Si12  1  0.29756900  0.16356000  0.52510700  1
  Si  Si13  1  0.05330500  0.84017900  0.77020200  1
  Si  Si14  1  0.29756900  0.66356000  0.97489300  1
  Si  Si15  1  0.20243100  0.16356000  0.02510700  1
  O  O0  1  0.95187200  0.50060000  0.30951500  1
  O  O1  1  0.28719100  0.01321800  0.06485000  1
  O  O2  1  0.04812800  0.49940000  0.69048500  1
  O  O3  1  0.70822700  0.33590600  0.93640900  1
  O  O4  1  0.20822700  0.16409400  0.93640900  1
  O  O5  1  0.90522600  0.20311800  0.05164700  1
  O  O6  1  0.95328800  0.66356800  0.18223600  1
  O  O7  1  0.04671200  0.83643200  0.68223600  1
  O  O8  1  0.70822700  0.83590600  0.56359100  1
  O  O9  1  0.95328800  0.16356800  0.31776400  1
  O  O10  1  0.45187200  0.49940000  0.19048500  1
  O  O11  1  0.79177300  0.33590600  0.43640900  1
  O  O12  1  0.71280900  0.98678200  0.93515000  1
  O  O13  1  0.45328800  0.83643200  0.18223600  1
  O  O14  1  0.54812800  0.00060000  0.69048500  1
  O  O15  1  0.28719100  0.51321800  0.43515000  1
  O  O16  1  0.45187200  0.99940000  0.30951500  1
  O  O17  1  0.17140600  0.77218000  0.30121000  1
  O  O18  1  0.32859400  0.77218000  0.80121000  1
  O  O19  1  0.59477400  0.70311800  0.94835300  1
  O  O20  1  0.79177300  0.83590600  0.06359100  1
  O  O21  1  0.54671200  0.66356800  0.68223600  1
  O  O22  1  0.78719100  0.48678200  0.06485000  1
  O  O23  1  0.17140600  0.27218000  0.19879000  1
  O  O24  1  0.29177300  0.16409400  0.43640900  1
  O  O25  1  0.54671200  0.16356800  0.81776400  1
  O  O26  1  0.71280900  0.48678200  0.56485000  1
  O  O27  1  0.20822700  0.66409400  0.56359100  1
  O  O28  1  0.21280900  0.51321800  0.93515000  1
  O  O29  1  0.67140600  0.72782000  0.30121000  1
  O  O30  1  0.04812800  0.99940000  0.80951500  1
  O  O31  1  0.82859400  0.72782000  0.80121000  1
  O  O32  1  0.82859400  0.22782000  0.69879000  1
  O  O33  1  0.78719100  0.98678200  0.43515000  1
  O  O34  1  0.29177300  0.66409400  0.06359100  1
  O  O35  1  0.21280900  0.01321800  0.56485000  1
  O  O36  1  0.32859400  0.27218000  0.69879000  1
  O  O37  1  0.09477400  0.79688200  0.94835300  1
  O  O38  1  0.40522600  0.79688200  0.44835300  1
  O  O39  1  0.67140600  0.22782000  0.19879000  1
  O  O40  1  0.40522600  0.29688200  0.05164700  1
  O  O41  1  0.59477400  0.20311800  0.55164700  1
  O  O42  1  0.09477400  0.29688200  0.55164700  1
  O  O43  1  0.45328800  0.33643200  0.31776400  1
  O  O44  1  0.54812800  0.50060000  0.80951500  1
  O  O45  1  0.90522600  0.70311800  0.44835300  1
  O  O46  1  0.04671200  0.33643200  0.81776400  1
  O  O47  1  0.95187200  0.00060000  0.19048500  1
loop_
_geom_bond_atom_site_label_1
_geom_bond_atom_site_label_2
_geom_bond_distance
_geom_bond_site_symmetry_2
Mg0 O9 2.053052 1_555
Mg0 O16 2.067432 1_545
Mg0 O33 2.075065 1_545
Mg0 O24 2.097055 1_555
Mg0 O43 2.155750 1_555
Mg0 O11 2.188105 1_555
Mg1 O7 2.053052 1_555
Mg1 O14 2.067432 1_565
Mg1 O35 2.075065 1_565
Mg1 O8 2.097055 1_555
Mg1 O21 2.155750 1_555
Mg1 O27 2.188105 1_555
Mg2 O6 2.053052 1_555
Mg2 O10 2.067432 1_555
Mg2 O22 2.075065 1_555
Mg2 O34 2.097055 1_555
Mg2 O13 2.155750 1_555
Mg2 O20 2.188105 1_555
Mg3 O13 2.053052 1_555
Mg3 O47 2.067432 1_465
Mg3 O1 2.075065 1_565
Mg3 O20 2.097055 1_455
Mg3 O6 2.155750 1_455
Mg3 O34 2.188105 1_555
Mg4 O25 2.053052 1_555
Mg4 O30 2.067432 1_645
Mg4 O12 2.075065 1_545
Mg4 O4 2.097055 1_655
Mg4 O46 2.155750 1_655
Mg4 O3 2.188105 1_555
Mg5 O46 2.053052 1_555
Mg5 O44 2.067432 1_555
Mg5 O28 2.075065 1_555
Mg5 O3 2.097055 1_555
Mg5 O25 2.155750 1_555
Mg5 O4 2.188105 1_555
Mg6 O43 2.053052 1_555
Mg6 O0 2.067432 1_455
Mg6 O15 2.075065 1_555
Mg6 O11 2.097055 1_455
Mg6 O9 2.155750 1_455
Mg6 O24 2.188105 1_555
Mg7 O21 2.053052 1_555
Mg7 O2 2.067432 1_655
Mg7 O26 2.075065 1_555
Mg7 O27 2.097055 1_655
Mg7 O7 2.155750 1_655
Mg7 O8 2.188105 1_555
O0 Si9 1.614336 1_555
O0 Ti5 2.126399 1_555
O1 Si15 1.610880 1_555
O1 Ti1 2.123701 1_555
O2 Si4 1.614336 1_555
O2 Ti4 2.126399 1_555
O3 Si7 1.645436 1_556
O3 Ti6 2.163760 1_555
O4 Si15 1.645436 1_556
O4 Ti0 2.163760 1_545
O5 Si7 1.690204 1_555
O5 Si15 1.692040 1_655
O5 Ti1 2.535532 1_555
O6 Si9 1.632292 1_555
O6 Ti7 2.239112 1_655
O7 Si13 1.632292 1_555
O7 Ti2 2.239112 1_465
O8 Si1 1.645436 1_555
O8 Ti2 2.163760 1_565
O9 Si3 1.632292 1_555
O9 Ti3 2.239112 1_645
O10 Si10 1.614336 1_555
O10 Ti7 2.126399 1_555
O11 Si8 1.645436 1_555
O11 Ti5 2.163760 1_555
O12 Si2 1.610880 1_555
O12 Ti0 2.123701 1_555
O13 Si5 1.632292 1_555
O13 Ti1 2.239112 1_565
O14 Si11 1.614336 1_555
O14 Ti2 2.126399 1_555
O15 Si6 1.610880 1_555
O15 Ti5 2.123701 1_555
O16 Si5 1.614336 1_555
O16 Ti3 2.126399 1_555
O17 Si9 1.669843 1_455
O17 Si5 1.687484 1_555
O17 Ti3 2.358577 1_555
O18 Si0 1.669843 1_555
O18 Si13 1.687484 1_555
O18 Ti0 2.358577 1_555
O19 Si2 1.690204 1_555
O19 Si14 1.692040 1_555
O19 Ti6 2.535532 1_555
O20 Si2 1.645436 1_554
O20 Ti1 2.163760 1_565
O21 Si0 1.632292 1_555
O21 Ti4 2.239112 1_555
O22 Si7 1.610880 1_555
O22 Ti7 2.123701 1_655
O23 Si3 1.669843 1_455
O23 Si10 1.687484 1_555
O23 Ti7 2.358577 1_555
O24 Si12 1.645436 1_555
O24 Ti3 2.163760 1_545
O25 Si11 1.632292 1_555
O25 Ti0 2.239112 1_545
O26 Si8 1.610880 1_555
O26 Ti4 2.123701 1_555
O27 Si6 1.645436 1_555
O27 Ti4 2.163760 1_555
O28 Si14 1.610880 1_555
O28 Ti6 2.123701 1_455
O29 Si5 1.669843 1_555
O29 Si9 1.687484 1_555
O29 Ti5 2.358577 1_555
O30 Si13 1.614336 1_555
O30 Ti0 2.126399 1_555
O31 Si13 1.669843 1_655
O31 Si0 1.687484 1_555
O31 Ti6 2.358577 1_555
O32 Si4 1.669843 1_655
O32 Si11 1.687484 1_555
O32 Ti2 2.358577 1_555
O33 Si1 1.610880 1_555
O33 Ti3 2.123701 1_655
O34 Si14 1.645436 1_554
O34 Ti7 2.163760 1_555
O35 Si12 1.610880 1_555
O35 Ti2 2.123701 1_455
O36 Si11 1.669843 1_555
O36 Si4 1.687484 1_555
O36 Ti4 2.358577 1_555
O37 Si14 1.690204 1_555
O37 Si2 1.692040 1_455
O37 Ti0 2.535532 1_555
O38 Si6 1.690204 1_555
O38 Si1 1.692040 1_555
O38 Ti3 2.535532 1_555
O39 Si10 1.669843 1_555
O39 Si3 1.687484 1_555
O39 Ti1 2.358577 1_555
O40 Si15 1.690204 1_555
O40 Si7 1.692040 1_555
O40 Ti7 2.535532 1_555
O41 Si8 1.690204 1_555
O41 Si12 1.692040 1_555
O41 Ti2 2.535532 1_555
O42 Si12 1.690204 1_555
O42 Si8 1.692040 1_455
O42 Ti4 2.535532 1_555
O43 Si10 1.632292 1_555
O43 Ti5 2.239112 1_555
O44 Si0 1.614336 1_555
O44 Ti6 2.126399 1_555
O45 Si1 1.690204 1_555
O45 Si6 1.692040 1_655
O45 Ti5 2.535532 1_555
O46 Si4 1.632292 1_555
O46 Ti6 2.239112 1_455
O47 Si3 1.614336 1_555
O47 Ti1 2.126399 1_555
