# generated using pymatgen
data_Dy2Fe17
_symmetry_space_group_name_H-M   'P 1'
_cell_length_a   8.25443000
_cell_length_b   8.50291786
_cell_length_c   8.50291786
_cell_angle_alpha   120.09025122
_cell_angle_beta   90.00000000
_cell_angle_gamma   90.00000000
_symmetry_Int_Tables_number   1
_chemical_formula_structural   Dy2Fe17
_chemical_formula_sum   'Dy4 Fe34'
_cell_volume   516.36644009
_cell_formula_units_Z   2
loop_
 _symmetry_equiv_pos_site_id
 _symmetry_equiv_pos_as_xyz
  1  'x, y, z'
loop_
 _atom_site_type_symbol
 _atom_site_label
 _atom_site_symmetry_multiplicity
 _atom_site_fract_x
 _atom_site_fract_y
 _atom_site_fract_z
 _atom_site_occupancy
  Dy  Dy0  1  0.75000000  0.00001200  0.99998800  1
  Dy  Dy1  1  0.25000000  0.99998800  0.00001200  1
  Dy  Dy2  1  0.25000000  0.66676900  0.33323100  1
  Dy  Dy3  1  0.75000000  0.33323100  0.66676900  1
  Fe  Fe0  1  0.60677200  0.66667800  0.33332200  1
  Fe  Fe1  1  0.39322800  0.33332200  0.66667800  1
  Fe  Fe2  1  0.10677200  0.33332200  0.66667800  1
  Fe  Fe3  1  0.89322800  0.66667800  0.33332200  1
  Fe  Fe4  1  0.50000000  0.50000000  0.00000000  1
  Fe  Fe5  1  0.50000000  0.50000000  0.50000000  1
  Fe  Fe6  1  0.50000000  0.00000000  0.50000000  1
  Fe  Fe7  1  0.00000000  0.50000000  0.00000000  1
  Fe  Fe8  1  0.00000000  0.50000000  0.50000000  1
  Fe  Fe9  1  0.00000000  0.00000000  0.50000000  1
  Fe  Fe10  1  0.75000000  0.67052200  0.03807900  1
  Fe  Fe11  1  0.75000000  0.36746200  0.32929200  1
  Fe  Fe12  1  0.75000000  0.96206800  0.63263800  1
  Fe  Fe13  1  0.75000000  0.36736200  0.03793200  1
  Fe  Fe14  1  0.75000000  0.96192100  0.32947800  1
  Fe  Fe15  1  0.75000000  0.67070800  0.63253800  1
  Fe  Fe16  1  0.25000000  0.32947800  0.96192100  1
  Fe  Fe17  1  0.25000000  0.63253800  0.67070800  1
  Fe  Fe18  1  0.25000000  0.03793200  0.36736200  1
  Fe  Fe19  1  0.25000000  0.63263800  0.96206800  1
  Fe  Fe20  1  0.25000000  0.03807900  0.67052200  1
  Fe  Fe21  1  0.25000000  0.32929200  0.36746200  1
  Fe  Fe22  1  0.48599000  0.83396900  0.66785500  1
  Fe  Fe23  1  0.48590400  0.83388000  0.16612000  1
  Fe  Fe24  1  0.48599000  0.33214500  0.16603100  1
  Fe  Fe25  1  0.51401000  0.16603100  0.33214500  1
  Fe  Fe26  1  0.51409600  0.16612000  0.83388000  1
  Fe  Fe27  1  0.51401000  0.66785500  0.83396900  1
  Fe  Fe28  1  0.98599000  0.16603100  0.33214500  1
  Fe  Fe29  1  0.98590400  0.16612000  0.83388000  1
  Fe  Fe30  1  0.98599000  0.66785500  0.83396900  1
  Fe  Fe31  1  0.01401000  0.83396900  0.66785500  1
  Fe  Fe32  1  0.01409600  0.83388000  0.16612000  1
  Fe  Fe33  1  0.01401000  0.33214500  0.16603100  1
loop_
_geom_bond_atom_site_label_1
_geom_bond_atom_site_label_2
_geom_bond_distance
_geom_bond_site_symmetry_2
Dy0 Fe11 2.971498 1_556
Dy0 Fe15 2.971498 1_545
Dy0 Fe13 2.974916 1_556
Dy0 Fe12 2.974916 1_545
Dy0 Fe10 2.977229 1_546
Dy0 Fe14 2.977229 1_546
Dy0 Fe25 3.125093 1_556
Dy0 Fe28 3.125093 1_556
Dy0 Fe27 3.125093 1_545
Dy0 Fe30 3.125093 1_545
Dy0 Fe26 3.127599 1_555
Dy0 Fe29 3.127599 1_555
Dy0 Fe24 3.274129 1_556
Dy0 Fe33 3.274129 1_656
Dy0 Fe22 3.274129 1_545
Dy0 Fe31 3.274129 1_645
Dy0 Fe23 3.277812 1_546
Dy0 Fe32 3.277812 1_646
Dy1 Fe21 2.971498 1_565
Dy1 Fe17 2.971498 1_554
Dy1 Fe18 2.974916 1_565
Dy1 Fe19 2.974916 1_554
Dy1 Fe20 2.977229 1_564
Dy1 Fe16 2.977229 1_564
Dy1 Fe33 3.125093 1_565
Dy1 Fe24 3.125093 1_565
Dy1 Fe22 3.125093 1_554
Dy1 Fe31 3.125093 1_554
Dy1 Fe32 3.127599 1_555
Dy1 Fe23 3.127599 1_555
Dy1 Fe28 3.274129 1_465
Dy1 Fe25 3.274129 1_565
Dy1 Fe30 3.274129 1_454
Dy1 Fe27 3.274129 1_554
Dy1 Fe26 3.277812 1_564
Dy1 Fe29 3.277812 1_464
Dy2 Fe0 2.944950 1_555
Dy2 Fe3 2.944950 1_455
Dy2 Fe20 3.018898 1_565
Dy2 Fe16 3.018898 1_554
Dy2 Fe18 3.020920 1_565
Dy2 Fe19 3.020920 1_554
Dy2 Fe21 3.025966 1_555
Dy2 Fe17 3.025966 1_555
Dy2 Fe23 3.139178 1_555
Dy2 Fe32 3.139178 1_555
Dy2 Fe22 3.139306 1_555
Dy2 Fe31 3.139306 1_555
Dy2 Fe33 3.139306 1_555
Dy2 Fe24 3.139306 1_555
Dy2 Fe4 3.204495 1_555
Dy2 Fe7 3.204495 1_555
Dy2 Fe9 3.204495 1_565
Dy2 Fe6 3.204495 1_565
Dy2 Fe8 3.208789 1_555
Dy2 Fe5 3.208789 1_555
Dy3 Fe2 2.944950 1_655
Dy3 Fe1 2.944950 1_555
Dy3 Fe10 3.018898 1_556
Dy3 Fe14 3.018898 1_545
Dy3 Fe13 3.020920 1_556
Dy3 Fe12 3.020920 1_545
Dy3 Fe11 3.025966 1_555
Dy3 Fe15 3.025966 1_555
Dy3 Fe26 3.139178 1_555
Dy3 Fe29 3.139178 1_555
Dy3 Fe27 3.139306 1_555
Dy3 Fe30 3.139306 1_555
Dy3 Fe25 3.139306 1_555
Dy3 Fe28 3.139306 1_555
Dy3 Fe9 3.204495 1_655
Dy3 Fe6 3.204495 1_555
Dy3 Fe7 3.204495 1_656
Dy3 Fe4 3.204495 1_556
Dy3 Fe8 3.208789 1_655
Dy3 Fe5 3.208789 1_555
Fe0 Fe3 2.364531 1_555
Fe0 Fe6 2.605833 1_565
Fe0 Fe4 2.605833 1_555
Fe0 Fe5 2.609220 1_555
Fe0 Fe22 2.655440 1_555
Fe0 Fe24 2.655440 1_555
Fe0 Fe23 2.657940 1_555
Fe0 Fe12 2.788154 1_555
Fe0 Fe13 2.788154 1_555
Fe0 Fe14 2.789864 1_555
Fe0 Fe10 2.789864 1_555
Fe0 Fe15 2.790073 1_555
Fe0 Fe11 2.790073 1_555
Fe1 Fe2 2.364531 1_555
Fe1 Fe6 2.605833 1_555
Fe1 Fe4 2.605833 1_556
Fe1 Fe5 2.609220 1_555
Fe1 Fe27 2.655440 1_555
Fe1 Fe25 2.655440 1_555
Fe1 Fe26 2.657940 1_555
Fe1 Fe19 2.788154 1_555
Fe1 Fe18 2.788154 1_555
Fe1 Fe16 2.789864 1_555
Fe1 Fe20 2.789864 1_555
Fe1 Fe17 2.790073 1_555
Fe1 Fe21 2.790073 1_555
Fe2 Fe7 2.605833 1_556
Fe2 Fe9 2.605833 1_555
Fe2 Fe8 2.609220 1_555
Fe2 Fe30 2.655440 1_455
Fe2 Fe28 2.655440 1_455
Fe2 Fe29 2.657940 1_455
Fe2 Fe20 2.789864 1_555
Fe2 Fe21 2.790073 1_555
Fe3 Fe7 2.605833 1_655
Fe3 Fe9 2.605833 1_665
Fe3 Fe8 2.609220 1_655
Fe3 Fe31 2.655440 1_655
Fe3 Fe33 2.655440 1_655
Fe3 Fe32 2.657940 1_655
Fe10 Fe4 2.448444 1_555
Fe10 Fe7 2.448444 1_655
Fe10 Fe14 2.474361 1_555
Fe10 Fe23 2.520029 1_555
Fe10 Fe32 2.520029 1_655
Fe10 Fe13 2.577118 1_555
Fe10 Fe27 2.601476 1_554
Fe10 Fe30 2.601476 1_554
Fe10 Fe3 2.789864 1_555
Fe11 Fe8 2.448500 1_655
Fe11 Fe5 2.448500 1_555
Fe11 Fe13 2.476984 1_555
Fe11 Fe24 2.519602 1_555
Fe11 Fe33 2.519602 1_655
Fe11 Fe15 2.574958 1_555
Fe11 Fe25 2.601985 1_555
Fe11 Fe28 2.601985 1_555
Fe11 Fe3 2.790073 1_555
Fe12 Fe6 2.449328 1_565
Fe12 Fe9 2.449328 1_665
Fe12 Fe15 2.476984 1_555
Fe12 Fe22 2.520367 1_555
Fe12 Fe31 2.520367 1_655
Fe12 Fe14 2.577118 1_555
Fe12 Fe26 2.598686 1_565
Fe12 Fe29 2.598686 1_565
Fe12 Fe3 2.788154 1_555
Fe13 Fe4 2.449328 1_555
Fe13 Fe7 2.449328 1_655
Fe13 Fe24 2.520367 1_555
Fe13 Fe33 2.520367 1_655
Fe13 Fe26 2.598686 1_554
Fe13 Fe29 2.598686 1_554
Fe13 Fe3 2.788154 1_555
Fe14 Fe6 2.448444 1_565
Fe14 Fe9 2.448444 1_665
Fe14 Fe23 2.520029 1_555
Fe14 Fe32 2.520029 1_655
Fe14 Fe25 2.601476 1_565
Fe14 Fe28 2.601476 1_565
Fe14 Fe3 2.789864 1_555
Fe15 Fe8 2.448500 1_655
Fe15 Fe5 2.448500 1_555
Fe15 Fe22 2.519602 1_555
Fe15 Fe31 2.519602 1_655
Fe15 Fe27 2.601985 1_555
Fe15 Fe30 2.601985 1_555
Fe15 Fe3 2.790073 1_555
Fe16 Fe4 2.448444 1_556
Fe16 Fe7 2.448444 1_556
Fe16 Fe20 2.474361 1_555
Fe16 Fe29 2.520029 1_455
Fe16 Fe26 2.520029 1_555
Fe16 Fe19 2.577118 1_555
Fe16 Fe33 2.601476 1_556
Fe16 Fe24 2.601476 1_556
Fe16 Fe2 2.789864 1_555
Fe17 Fe8 2.448500 1_555
Fe17 Fe5 2.448500 1_555
Fe17 Fe19 2.476984 1_555
Fe17 Fe30 2.519602 1_455
Fe17 Fe27 2.519602 1_555
Fe17 Fe21 2.574958 1_555
Fe17 Fe31 2.601985 1_555
Fe17 Fe22 2.601985 1_555
Fe17 Fe2 2.790073 1_555
Fe18 Fe6 2.449328 1_555
Fe18 Fe9 2.449328 1_555
Fe18 Fe21 2.476984 1_555
Fe18 Fe28 2.520367 1_455
Fe18 Fe25 2.520367 1_555
Fe18 Fe20 2.577118 1_555
Fe18 Fe32 2.598686 1_545
Fe18 Fe23 2.598686 1_545
Fe18 Fe2 2.788154 1_555
Fe19 Fe4 2.449328 1_556
Fe19 Fe7 2.449328 1_556
Fe19 Fe30 2.520367 1_455
Fe19 Fe27 2.520367 1_555
Fe19 Fe32 2.598686 1_556
Fe19 Fe23 2.598686 1_556
Fe19 Fe2 2.788154 1_555
Fe20 Fe9 2.448444 1_555
Fe20 Fe6 2.448444 1_555
Fe20 Fe29 2.520029 1_455
Fe20 Fe26 2.520029 1_555
Fe20 Fe22 2.601476 1_545
Fe20 Fe31 2.601476 1_545
Fe21 Fe8 2.448500 1_555
Fe21 Fe5 2.448500 1_555
Fe21 Fe28 2.519602 1_455
Fe21 Fe25 2.519602 1_555
Fe21 Fe33 2.601985 1_555
Fe21 Fe24 2.601985 1_555
Fe22 Fe26 2.454639 1_565
Fe22 Fe27 2.458457 1_555
Fe22 Fe5 2.459745 1_555
Fe22 Fe6 2.462497 1_565
Fe23 Fe25 2.454639 1_565
Fe23 Fe27 2.454639 1_554
Fe23 Fe6 2.459146 1_565
Fe23 Fe4 2.459146 1_555
Fe24 Fe26 2.454639 1_554
Fe24 Fe25 2.458457 1_555
Fe24 Fe5 2.459745 1_555
Fe24 Fe4 2.462497 1_555
Fe25 Fe5 2.459745 1_555
Fe25 Fe6 2.462497 1_555
Fe26 Fe4 2.459146 1_556
Fe26 Fe6 2.459146 1_555
Fe27 Fe5 2.459745 1_555
Fe27 Fe4 2.462497 1_556
Fe28 Fe32 2.454639 1_645
Fe28 Fe33 2.458457 1_655
Fe28 Fe8 2.459745 1_655
Fe28 Fe9 2.462497 1_655
Fe29 Fe33 2.454639 1_656
Fe29 Fe31 2.454639 1_645
Fe29 Fe7 2.459146 1_656
Fe29 Fe9 2.459146 1_655
Fe30 Fe32 2.454639 1_656
Fe30 Fe31 2.458457 1_655
Fe30 Fe8 2.459745 1_655
Fe30 Fe7 2.462497 1_656
Fe31 Fe8 2.459745 1_555
Fe31 Fe9 2.462497 1_565
Fe32 Fe9 2.459146 1_565
Fe32 Fe7 2.459146 1_555
Fe33 Fe8 2.459745 1_555
Fe33 Fe7 2.462497 1_555
