# generated using pymatgen
data_CaMg14Ni
_symmetry_space_group_name_H-M   'P 1'
_cell_length_a   6.44839526
_cell_length_b   6.27218999
_cell_length_c   10.18932876
_cell_angle_alpha   90.00000000
_cell_angle_beta   90.00000000
_cell_angle_gamma   119.10012981
_symmetry_Int_Tables_number   1
_chemical_formula_structural   CaMg14Ni
_chemical_formula_sum   'Ca1 Mg14 Ni1'
_cell_volume   360.09253358
_cell_formula_units_Z   1
loop_
 _symmetry_equiv_pos_site_id
 _symmetry_equiv_pos_as_xyz
  1  'x, y, z'
loop_
 _atom_site_type_symbol
 _atom_site_label
 _atom_site_symmetry_multiplicity
 _atom_site_fract_x
 _atom_site_fract_y
 _atom_site_fract_z
 _atom_site_occupancy
  Ca  Ca0  1  0.13799146  0.31899523  0.12500000  1
  Mg  Mg0  1  0.17028097  0.33513998  0.62500000  1
  Mg  Mg1  1  0.16178258  0.83089079  0.62500000  1
  Mg  Mg2  1  0.62793840  0.29932355  0.12500000  1
  Mg  Mg3  1  0.66409826  0.33586765  0.62500000  1
  Mg  Mg4  1  0.62793840  0.82861385  0.12500000  1
  Mg  Mg5  1  0.66409826  0.82822961  0.62500000  1
  Mg  Mg6  1  0.33859383  0.16238974  0.37504420  1
  Mg  Mg7  1  0.33859383  0.16238974  0.87495580  1
  Mg  Mg8  1  0.33859383  0.67620509  0.37504420  1
  Mg  Mg9  1  0.33859383  0.67620509  0.87495580  1
  Mg  Mg10  1  0.83276001  0.16638050  0.38888344  1
  Mg  Mg11  1  0.83276001  0.16638050  0.86111656  1
  Mg  Mg12  1  0.86433430  0.68216765  0.34185585  1
  Mg  Mg13  1  0.86433430  0.68216765  0.90814415  1
  Ni  Ni0  1  0.19730775  0.84865337  0.12500000  1
loop_
_geom_bond_atom_site_label_1
_geom_bond_atom_site_label_2
_geom_bond_distance
_geom_bond_site_symmetry_2
Ca0 Ni0 3.153853 1_555
Ca0 Ni0 3.153853 1_545
Ca0 Mg11 3.191761 1_454
Ca0 Mg10 3.191761 1_455
Ca0 Mg6 3.219508 1_555
Ca0 Mg7 3.219508 1_554
Ca0 Mg8 3.219514 1_555
Ca0 Mg9 3.219514 1_554
Ca0 Mg4 3.221182 1_555
Ca0 Mg2 3.221183 1_555
Ca0 Mg4 3.230816 1_445
Ca0 Mg2 3.230817 1_455
Mg0 Mg11 3.066725 1_455
Mg0 Mg10 3.066725 1_455
Mg0 Mg1 3.136460 1_545
Mg0 Mg1 3.136461 1_555
Mg0 Mg7 3.159505 1_555
Mg0 Mg6 3.159505 1_555
Mg0 Mg9 3.159511 1_555
Mg0 Mg8 3.159511 1_555
Mg0 Mg5 3.182112 1_555
Mg0 Mg3 3.182112 1_555
Mg0 Mg5 3.266288 1_445
Mg0 Mg3 3.266288 1_455
Mg1 Mg8 3.131108 1_555
Mg1 Mg9 3.131108 1_555
Mg1 Mg6 3.131114 1_565
Mg1 Mg7 3.131114 1_565
Mg1 Mg3 3.201181 1_455
Mg1 Mg5 3.201181 1_455
Mg1 Mg3 3.247280 1_565
Mg1 Mg5 3.247280 1_555
Mg1 Mg12 3.336512 1_455
Mg1 Mg13 3.336512 1_455
Mg2 Ni0 2.840129 1_545
Mg2 Mg4 2.952381 1_545
Mg2 Mg7 3.025127 1_554
Mg2 Mg6 3.025127 1_555
Mg2 Mg4 3.319809 1_555
Mg3 Mg5 3.088188 1_555
Mg3 Mg7 3.139235 1_555
Mg3 Mg6 3.139235 1_555
Mg3 Mg5 3.184002 1_545
Mg4 Ni0 2.840129 1_555
Mg4 Mg8 3.025127 1_555
Mg4 Mg9 3.025127 1_554
Mg5 Mg9 3.139235 1_555
Mg5 Mg8 3.139235 1_555
Mg6 Mg8 3.049442 1_545
Mg6 Ni0 3.074038 1_545
Mg6 Mg8 3.222747 1_555
Mg7 Mg9 3.049442 1_545
Mg7 Ni0 3.074038 1_546
Mg7 Mg9 3.222747 1_555
Mg8 Ni0 3.074032 1_555
Mg9 Ni0 3.074032 1_556
Mg10 Mg3 3.037391 1_555
Mg10 Mg5 3.037398 1_545
Mg10 Mg12 3.177476 1_545
Mg10 Mg12 3.177476 1_555
Mg10 Mg8 3.177611 1_545
Mg10 Mg6 3.177611 1_555
Mg10 Mg8 3.277098 1_655
Mg10 Mg6 3.277098 1_655
Mg10 Mg2 3.277281 1_555
Mg10 Mg4 3.277287 1_545
Mg11 Mg3 3.037391 1_555
Mg11 Mg5 3.037398 1_545
Mg11 Mg13 3.177476 1_545
Mg11 Mg13 3.177476 1_555
Mg11 Mg9 3.177611 1_545
Mg11 Mg7 3.177611 1_555
Mg11 Mg9 3.277098 1_655
Mg11 Mg7 3.277098 1_655
Mg11 Mg2 3.277281 1_556
Mg11 Mg4 3.277287 1_546
Mg12 Ni0 2.898655 1_655
Mg12 Mg4 3.067860 1_555
Mg12 Mg2 3.067867 1_555
Mg12 Mg6 3.095104 1_665
Mg12 Mg8 3.095104 1_655
Mg12 Mg6 3.389066 1_555
Mg12 Mg8 3.389066 1_555
Mg12 Mg5 3.461298 1_555
Mg12 Mg3 3.461303 1_555
Mg13 Ni0 2.898655 1_656
Mg13 Mg4 3.067860 1_556
Mg13 Mg2 3.067867 1_556
Mg13 Mg7 3.095104 1_665
Mg13 Mg9 3.095104 1_655
Mg13 Mg7 3.389066 1_555
Mg13 Mg9 3.389066 1_555
Mg13 Mg5 3.461298 1_555
Mg13 Mg3 3.461303 1_555
