# generated using pymatgen
data_Li9Co7O16
_symmetry_space_group_name_H-M   'P 1'
_cell_length_a   2.91909700
_cell_length_b   5.90665200
_cell_length_c   16.47768045
_cell_angle_alpha   88.92180347
_cell_angle_beta   90.00000000
_cell_angle_gamma   90.00000000
_symmetry_Int_Tables_number   1
_chemical_formula_structural   Li9Co7O16
_chemical_formula_sum   'Li9 Co7 O16'
_cell_volume   284.05934857
_cell_formula_units_Z   1
loop_
 _symmetry_equiv_pos_site_id
 _symmetry_equiv_pos_as_xyz
  1  'x, y, z'
loop_
 _atom_site_type_symbol
 _atom_site_label
 _atom_site_symmetry_multiplicity
 _atom_site_fract_x
 _atom_site_fract_y
 _atom_site_fract_z
 _atom_site_occupancy
  Li  Li0  1  0.50000000  0.99871800  0.75311200  1
  Li  Li1  1  0.50000000  0.50000000  0.50000000  1
  Li  Li2  1  0.50000000  0.00128200  0.24688800  1
  Li  Li3  1  0.00000000  0.24915200  0.62535000  1
  Li  Li4  1  0.00000000  0.75084800  0.37465000  1
  Li  Li5  1  0.00000000  0.24436800  0.12176700  1
  Li  Li6  1  0.50000000  0.50000000  0.00000000  1
  Li  Li7  1  0.00000000  0.75563200  0.87823300  1
  Li  Li8  1  0.50000000  0.00000000  0.00000000  1
  Co  Co0  1  0.00000000  0.23972000  0.88080200  1
  Co  Co1  1  0.00000000  0.76028000  0.11919800  1
  Co  Co2  1  0.00000000  0.74892800  0.62726800  1
  Co  Co3  1  0.00000000  0.25107200  0.37273200  1
  Co  Co4  1  0.50000000  0.00000000  0.50000000  1
  Co  Co5  1  0.50000000  0.49711800  0.24587700  1
  Co  Co6  1  0.50000000  0.50288200  0.75412300  1
  O  O0  1  0.50000000  0.01811300  0.87526800  1
  O  O1  1  0.50000000  0.52215400  0.63092700  1
  O  O2  1  0.50000000  0.02870600  0.37686100  1
  O  O3  1  0.00000000  0.26211800  0.75650800  1
  O  O4  1  0.00000000  0.76120700  0.49982500  1
  O  O5  1  0.00000000  0.26394400  0.24882600  1
  O  O6  1  0.50000000  0.51155600  0.12890500  1
  O  O7  1  0.00000000  0.74745900  0.01256200  1
  O  O8  1  0.50000000  0.97129400  0.62313900  1
  O  O9  1  0.50000000  0.47784600  0.36907300  1
  O  O10  1  0.50000000  0.98188700  0.12473200  1
  O  O11  1  0.00000000  0.23879300  0.50017500  1
  O  O12  1  0.00000000  0.73788200  0.24349200  1
  O  O13  1  0.00000000  0.25254100  0.98743800  1
  O  O14  1  0.50000000  0.48844400  0.87109500  1
  O  O15  1  0.00000000  0.73605600  0.75117400  1
loop_
_geom_bond_atom_site_label_1
_geom_bond_atom_site_label_2
_geom_bond_distance
_geom_bond_site_symmetry_2
Li0 O0 2.018256 1_565
Li0 O15 2.130768 1_555
Li0 O15 2.130768 1_655
Li0 O3 2.134770 1_665
Li0 O3 2.134770 1_565
Li0 O8 2.150808 1_555
Li1 O11 2.123802 1_655
Li1 O4 2.123802 1_655
Li1 O11 2.123802 1_555
Li1 O4 2.123802 1_555
Li1 O9 2.163795 1_555
Li1 O1 2.163795 1_555
Li2 O10 2.018256 1_545
Li2 O5 2.130768 1_655
Li2 O5 2.130768 1_555
Li2 O12 2.134770 1_645
Li2 O12 2.134770 1_545
Li2 O2 2.150808 1_555
Li3 O11 2.064652 1_555
Li3 O3 2.163976 1_555
Li3 O1 2.178199 1_455
Li3 O1 2.178199 1_555
Li3 O8 2.197142 1_445
Li3 O8 2.197142 1_545
Li4 O4 2.064652 1_555
Li4 O12 2.163976 1_555
Li4 O9 2.178199 1_555
Li4 O9 2.178199 1_455
Li4 O2 2.197142 1_565
Li4 O2 2.197142 1_465
Li5 O5 2.099000 1_555
Li5 O10 2.129204 1_545
Li5 O10 2.129204 1_445
Li5 O6 2.154478 1_455
Li5 O6 2.154478 1_555
Li5 O13 2.213048 1_554
Li6 O13 2.078689 1_554
Li6 O7 2.078689 1_655
Li6 O13 2.078689 1_654
Li6 O7 2.078689 1_555
Li6 O6 2.126435 1_555
Li6 O14 2.126435 1_554
Li7 O15 2.099000 1_555
Li7 O0 2.129204 1_465
Li7 O0 2.129204 1_565
Li7 O14 2.154478 1_555
Li7 O14 2.154478 1_455
Li7 O7 2.213048 1_556
Li8 O0 2.056065 1_554
Li8 O10 2.056065 1_545
Li8 O7 2.094419 1_545
Li8 O13 2.094419 1_554
Li8 O13 2.094419 1_654
Li8 O7 2.094419 1_645
Co0 O13 1.760168 1_555
Co0 O0 1.963785 1_455
Co0 O0 1.963785 1_555
Co0 O3 2.049860 1_555
Co0 O14 2.074935 1_455
Co0 O14 2.074935 1_555
Co1 O7 1.760168 1_555
Co1 O10 1.963785 1_455
Co1 O10 1.963785 1_555
Co1 O12 2.049860 1_555
Co1 O6 2.074935 1_455
Co1 O6 2.074935 1_555
Co2 O8 1.963840 1_555
Co2 O8 1.963840 1_455
Co2 O1 1.981179 1_455
Co2 O1 1.981179 1_555
Co2 O15 2.041668 1_555
Co2 O4 2.099853 1_555
Co3 O2 1.963840 1_555
Co3 O2 1.963840 1_455
Co3 O9 1.981179 1_455
Co3 O9 1.981179 1_555
Co3 O5 2.041668 1_555
Co3 O11 2.099853 1_555
Co4 O4 2.029744 1_645
Co4 O11 2.029744 1_655
Co4 O4 2.029744 1_545
Co4 O11 2.029744 1_555
Co4 O2 2.032935 1_555
Co4 O8 2.032935 1_545
Co5 O6 1.927709 1_555
Co5 O5 2.006743 1_655
Co5 O5 2.006743 1_555
Co5 O9 2.031034 1_555
Co5 O12 2.037675 1_655
Co5 O12 2.037675 1_555
Co6 O14 1.927709 1_555
Co6 O15 2.006743 1_655
Co6 O15 2.006743 1_555
Co6 O1 2.031034 1_555
Co6 O3 2.037675 1_655
Co6 O3 2.037675 1_555
