# generated using pymatgen
data_Li2FeO2
_symmetry_space_group_name_H-M   'P 1'
_cell_length_a   5.24590510
_cell_length_b   5.63174184
_cell_length_c   6.24931193
_cell_angle_alpha   90.07228338
_cell_angle_beta   90.05053714
_cell_angle_gamma   91.51216825
_symmetry_Int_Tables_number   1
_chemical_formula_structural   Li2FeO2
_chemical_formula_sum   'Li8 Fe4 O8'
_cell_volume   184.56254519
_cell_formula_units_Z   4
loop_
 _symmetry_equiv_pos_site_id
 _symmetry_equiv_pos_as_xyz
  1  'x, y, z'
loop_
 _atom_site_type_symbol
 _atom_site_label
 _atom_site_symmetry_multiplicity
 _atom_site_fract_x
 _atom_site_fract_y
 _atom_site_fract_z
 _atom_site_occupancy
  Li  Li0  1  0.63516900  0.16626900  0.26283500  1
  Li  Li1  1  0.63524100  0.66652800  0.48711500  1
  Li  Li2  1  0.63496500  0.16525000  0.76186100  1
  Li  Li3  1  0.63507100  0.66513900  0.98774400  1
  Li  Li4  1  0.36414900  0.33471500  0.51302900  1
  Li  Li5  1  0.36521100  0.83368800  0.73789100  1
  Li  Li6  1  0.36538400  0.33362800  0.01236500  1
  Li  Li7  1  0.36398200  0.83444000  0.23689800  1
  Fe  Fe0  1  0.00017900  0.00003000  0.49939400  1
  Fe  Fe1  1  0.00018100  0.49985700  0.25066400  1
  Fe  Fe2  1  0.99950400  0.50053700  0.75098900  1
  Fe  Fe3  1  0.99927100  0.00073100  0.99898800  1
  O  O0  1  0.24283800  0.15805000  0.26394300  1
  O  O1  1  0.24289400  0.65817100  0.48573700  1
  O  O2  1  0.24347200  0.15705700  0.76430700  1
  O  O3  1  0.24353400  0.65697000  0.98528200  1
  O  O4  1  0.75710300  0.34254000  0.51538300  1
  O  O5  1  0.75739700  0.84206100  0.73555300  1
  O  O6  1  0.75729200  0.34180600  0.01472000  1
  O  O7  1  0.75716400  0.84253300  0.23490100  1
loop_
_geom_bond_atom_site_label_1
_geom_bond_atom_site_label_2
_geom_bond_distance
_geom_bond_site_symmetry_2
Li0 O6 1.940131 1_555
Li0 O7 1.955778 1_545
Li0 O4 1.961190 1_555
Li0 O0 2.057448 1_555
Li1 O5 1.938890 1_555
Li1 O4 1.957367 1_555
Li1 O7 1.961668 1_555
Li1 O1 2.057521 1_555
Li2 O4 1.936974 1_555
Li2 O5 1.952816 1_545
Li2 O6 1.964193 1_556
Li2 O2 2.053107 1_555
Li3 O7 1.937669 1_556
Li3 O6 1.953839 1_556
Li3 O5 1.964791 1_555
Li3 O3 2.053311 1_555
Li4 O0 1.943928 1_555
Li4 O1 1.952883 1_555
Li4 O2 1.959589 1_555
Li4 O4 2.060747 1_555
Li5 O3 1.939124 1_555
Li5 O2 1.952544 1_565
Li5 O1 1.957733 1_555
Li5 O5 2.056732 1_555
Li6 O2 1.939520 1_554
Li6 O3 1.953260 1_554
Li6 O0 1.958304 1_555
Li6 O6 2.055252 1_555
Li7 O1 1.944110 1_555
Li7 O0 1.953059 1_565
Li7 O3 1.957461 1_554
Li7 O7 2.061945 1_555
Fe0 O0 2.127033 1_555
Fe0 O5 2.130364 1_445
Fe0 O7 2.253202 1_445
Fe0 O2 2.254937 1_555
Fe0 O1 2.337576 1_545
Fe0 O4 2.342290 1_455
Fe1 O1 2.123125 1_555
Fe1 O6 2.126835 1_455
Fe1 O4 2.257327 1_455
Fe1 O3 2.260735 1_554
Fe1 O0 2.337168 1_555
Fe1 O7 2.342949 1_455
Fe2 O3 2.119589 1_655
Fe2 O4 2.123747 1_555
Fe2 O6 2.253311 1_556
Fe2 O1 2.261356 1_655
Fe2 O5 2.334724 1_555
Fe2 O2 2.348968 1_655
Fe3 O2 2.124649 1_655
Fe3 O7 2.127739 1_546
Fe3 O5 2.247554 1_545
Fe3 O0 2.256546 1_656
Fe3 O6 2.332193 1_556
Fe3 O3 2.351163 1_645
