# generated using pymatgen
data_Na3Fe2P2O8F3
_symmetry_space_group_name_H-M   'P 1'
_cell_length_a   10.75578209
_cell_length_b   12.93818629
_cell_length_c   12.95543121
_cell_angle_alpha   90.00000000
_cell_angle_beta   90.00000000
_cell_angle_gamma   90.00000000
_symmetry_Int_Tables_number   1
_chemical_formula_structural   Na3Fe2P2O8F3
_chemical_formula_sum   'Na24 Fe16 P16 O64 F24'
_cell_volume   1802.88185414
_cell_formula_units_Z   8
loop_
 _symmetry_equiv_pos_site_id
 _symmetry_equiv_pos_as_xyz
  1  'x, y, z'
loop_
 _atom_site_type_symbol
 _atom_site_label
 _atom_site_symmetry_multiplicity
 _atom_site_fract_x
 _atom_site_fract_y
 _atom_site_fract_z
 _atom_site_occupancy
  Na  Na0  1  0.00000000  0.62164679  0.08884458  1
  Na  Na1  1  0.00000000  0.37835321  0.91115542  1
  Na  Na2  1  0.00000000  0.12164679  0.41115542  1
  Na  Na3  1  0.00000000  0.87835321  0.58884458  1
  Na  Na4  1  0.50000000  0.62808417  0.36679115  1
  Na  Na5  1  0.50000000  0.37191583  0.63320885  1
  Na  Na6  1  0.50000000  0.12808417  0.13320885  1
  Na  Na7  1  0.50000000  0.87191583  0.86679115  1
  Na  Na8  1  0.50000000  0.88273192  0.15147961  1
  Na  Na9  1  0.50000000  0.11726808  0.84852039  1
  Na  Na10  1  0.50000000  0.38273192  0.34852039  1
  Na  Na11  1  0.50000000  0.61726808  0.65147961  1
  Na  Na12  1  0.00000000  0.87061081  0.11892788  1
  Na  Na13  1  0.00000000  0.12938919  0.88107212  1
  Na  Na14  1  0.00000000  0.37061081  0.38107212  1
  Na  Na15  1  0.00000000  0.62938919  0.61892788  1
  Na  Na16  1  0.50000000  0.59603499  0.12731785  1
  Na  Na17  1  0.50000000  0.40396501  0.87268215  1
  Na  Na18  1  0.50000000  0.09603499  0.37268215  1
  Na  Na19  1  0.50000000  0.90396501  0.62731785  1
  Na  Na20  1  0.00000000  0.83721225  0.87577663  1
  Na  Na21  1  0.00000000  0.16278775  0.12422337  1
  Na  Na22  1  0.00000000  0.33721225  0.62422337  1
  Na  Na23  1  0.00000000  0.66278775  0.37577663  1
  Fe  Fe0  1  0.18876475  0.50071707  0.24835024  1
  Fe  Fe1  1  0.18876475  0.49928293  0.75164976  1
  Fe  Fe2  1  0.81123525  0.00071707  0.25164976  1
  Fe  Fe3  1  0.81123525  0.99928293  0.74835024  1
  Fe  Fe4  1  0.81123525  0.49928293  0.75164976  1
  Fe  Fe5  1  0.81123525  0.50071707  0.24835024  1
  Fe  Fe6  1  0.18876475  0.99928293  0.74835024  1
  Fe  Fe7  1  0.18876475  0.00071707  0.25164976  1
  Fe  Fe8  1  0.31015176  0.75169224  0.50312352  1
  Fe  Fe9  1  0.31015176  0.24830776  0.49687648  1
  Fe  Fe10  1  0.68984824  0.25169224  0.99687648  1
  Fe  Fe11  1  0.68984824  0.74830776  0.00312352  1
  Fe  Fe12  1  0.68984824  0.24830776  0.49687648  1
  Fe  Fe13  1  0.68984824  0.75169224  0.50312352  1
  Fe  Fe14  1  0.31015176  0.74830776  0.00312352  1
  Fe  Fe15  1  0.31015176  0.25169224  0.99687648  1
  P  P0  1  0.24954002  0.74884908  0.24839551  1
  P  P1  1  0.24954002  0.25115092  0.75160449  1
  P  P2  1  0.75045998  0.24884908  0.25160449  1
  P  P3  1  0.75045998  0.75115092  0.74839551  1
  P  P4  1  0.75045998  0.25115092  0.75160449  1
  P  P5  1  0.75045998  0.74884908  0.24839551  1
  P  P6  1  0.24954002  0.75115092  0.74839551  1
  P  P7  1  0.24954002  0.24884908  0.25160449  1
  P  P8  1  0.24936120  0.50000000  0.50000000  1
  P  P9  1  0.75063880  0.00000000  0.00000000  1
  P  P10  1  0.75063880  0.50000000  0.50000000  1
  P  P11  1  0.24936120  -0.00000000  0.00000000  1
  P  P12  1  0.24898235  0.50000000  0.00000000  1
  P  P13  1  0.75101765  0.00000000  0.50000000  1
  P  P14  1  0.75101765  0.50000000  0.00000000  1
  P  P15  1  0.24898235  0.00000000  0.50000000  1
  O  O0  1  0.34642277  0.74483216  0.15941345  1
  O  O1  1  0.34642277  0.25516784  0.84058655  1
  O  O2  1  0.65357723  0.24483216  0.34058655  1
  O  O3  1  0.65357723  0.75516784  0.65941345  1
  O  O4  1  0.65357723  0.25516784  0.84058655  1
  O  O5  1  0.65357723  0.74483216  0.15941345  1
  O  O6  1  0.34642277  0.75516784  0.65941345  1
  O  O7  1  0.34642277  0.24483216  0.34058655  1
  O  O8  1  0.84247828  0.65650130  0.24079562  1
  O  O9  1  0.84247828  0.34349870  0.75920438  1
  O  O10  1  0.15752172  0.15650130  0.25920438  1
  O  O11  1  0.15752172  0.84349870  0.74079562  1
  O  O12  1  0.15752172  0.34349870  0.75920438  1
  O  O13  1  0.15752172  0.65650130  0.24079562  1
  O  O14  1  0.84247828  0.84349870  0.74079562  1
  O  O15  1  0.84247828  0.15650130  0.25920438  1
  O  O16  1  0.32362579  0.75604378  0.85040387  1
  O  O17  1  0.32362579  0.24395622  0.14959613  1
  O  O18  1  0.67637421  0.25604378  0.64959613  1
  O  O19  1  0.67637421  0.74395622  0.35040387  1
  O  O20  1  0.67637421  0.24395622  0.14959613  1
  O  O21  1  0.67637421  0.75604378  0.85040387  1
  O  O22  1  0.32362579  0.74395622  0.35040387  1
  O  O23  1  0.32362579  0.25604378  0.64959613  1
  O  O24  1  0.17036335  0.84797696  0.24030187  1
  O  O25  1  0.17036335  0.15202304  0.75969813  1
  O  O26  1  0.82963665  0.34797696  0.25969813  1
  O  O27  1  0.82963665  0.65202304  0.74030187  1
  O  O28  1  0.82963665  0.15202304  0.75969813  1
  O  O29  1  0.82963665  0.84797696  0.24030187  1
  O  O30  1  0.17036335  0.65202304  0.74030187  1
  O  O31  1  0.17036335  0.34797696  0.25969813  1
  O  O32  1  0.16235655  0.51061437  0.40496540  1
  O  O33  1  0.16235655  0.48938563  0.59503460  1
  O  O34  1  0.83764345  0.01061437  0.09503460  1
  O  O35  1  0.83764345  0.98938563  0.90496540  1
  O  O36  1  0.83764345  0.48938563  0.59503460  1
  O  O37  1  0.83764345  0.51061437  0.40496540  1
  O  O38  1  0.16235655  0.98938563  0.90496540  1
  O  O39  1  0.16235655  0.01061437  0.09503460  1
  O  O40  1  0.33441643  0.90406835  0.50638057  1
  O  O41  1  0.33441643  0.09593165  0.49361943  1
  O  O42  1  0.66558357  0.40406835  0.99361943  1
  O  O43  1  0.66558357  0.59593165  0.00638057  1
  O  O44  1  0.66558357  0.09593165  0.49361943  1
  O  O45  1  0.66558357  0.90406835  0.50638057  1
  O  O46  1  0.33441643  0.59593165  0.00638057  1
  O  O47  1  0.33441643  0.40406835  0.99361943  1
  O  O48  1  0.16322154  0.49436317  0.09555990  1
  O  O49  1  0.16322154  0.50563683  0.90444010  1
  O  O50  1  0.83677846  0.99436317  0.40444010  1
  O  O51  1  0.83677846  0.00563683  0.59555990  1
  O  O52  1  0.83677846  0.50563683  0.90444010  1
  O  O53  1  0.83677846  0.49436317  0.09555990  1
  O  O54  1  0.16322154  0.00563683  0.59555990  1
  O  O55  1  0.16322154  0.99436317  0.40444010  1
  O  O56  1  0.33686787  0.59516335  0.51028456  1
  O  O57  1  0.33686787  0.40483665  0.48971544  1
  O  O58  1  0.66313213  0.09516335  0.98971544  1
  O  O59  1  0.66313213  0.90483665  0.01028456  1
  O  O60  1  0.66313213  0.40483665  0.48971544  1
  O  O61  1  0.66313213  0.59516335  0.51028456  1
  O  O62  1  0.33686787  0.90483665  0.01028456  1
  O  O63  1  0.33686787  0.09516335  0.98971544  1
  F  F0  1  0.00000000  0.50154872  0.25287014  1
  F  F1  1  0.00000000  0.49845128  0.74712986  1
  F  F2  1  0.00000000  0.00154872  0.24712986  1
  F  F3  1  0.00000000  0.99845128  0.75287014  1
  F  F4  1  0.50000000  0.74742126  0.50053823  1
  F  F5  1  0.50000000  0.25257874  0.49946177  1
  F  F6  1  0.50000000  0.24742126  0.99946177  1
  F  F7  1  0.50000000  0.75257874  0.00053823  1
  F  F8  1  0.36917571  0.51113300  0.25726839  1
  F  F9  1  0.36917571  0.48886700  0.74273161  1
  F  F10  1  0.63082429  0.01113300  0.24273161  1
  F  F11  1  0.63082429  0.98886700  0.75726839  1
  F  F12  1  0.63082429  0.48886700  0.74273161  1
  F  F13  1  0.63082429  0.51113300  0.25726839  1
  F  F14  1  0.36917571  0.98886700  0.75726839  1
  F  F15  1  0.36917571  0.01113300  0.24273161  1
  F  F16  1  0.12968742  0.74342429  0.51245301  1
  F  F17  1  0.12968742  0.25657571  0.48754699  1
  F  F18  1  0.87031258  0.24342429  0.98754699  1
  F  F19  1  0.87031258  0.75657571  0.01245301  1
  F  F20  1  0.87031258  0.25657571  0.48754699  1
  F  F21  1  0.87031258  0.74342429  0.51245301  1
  F  F22  1  0.12968742  0.75657571  0.01245301  1
  F  F23  1  0.12968742  0.24342429  0.98754699  1
loop_
_geom_bond_atom_site_label_1
_geom_bond_atom_site_label_2
_geom_bond_distance
_geom_bond_site_symmetry_2
Na0 O48 2.408657 1_555
Na0 O53 2.408657 1_455
Na0 O8 2.636145 1_455
Na0 O13 2.636145 1_555
Na1 O49 2.408657 1_555
Na1 O52 2.408657 1_455
Na1 O9 2.636145 1_455
Na1 O12 2.636145 1_555
Na2 O50 2.408657 1_445
Na2 O55 2.408657 1_545
Na2 O15 2.636145 1_455
Na2 O10 2.636145 1_555
Na3 O54 2.408657 1_565
Na3 O51 2.408657 1_465
Na3 O11 2.636145 1_555
Na3 O14 2.636145 1_455
Na4 O19 2.427214 1_555
Na4 O22 2.427214 1_555
Na4 O56 2.591533 1_555
Na4 O61 2.591533 1_555
Na5 O18 2.427214 1_555
Na5 O23 2.427214 1_555
Na5 O57 2.591533 1_555
Na5 O60 2.591533 1_555
Na6 O20 2.427214 1_555
Na6 O17 2.427214 1_555
Na6 O63 2.591533 1_554
Na6 O58 2.591533 1_554
Na7 O21 2.427214 1_555
Na7 O16 2.427214 1_555
Na7 O62 2.591533 1_556
Na7 O59 2.591533 1_556
Na8 O0 2.433603 1_555
Na8 O5 2.433603 1_555
Na8 O62 2.550802 1_555
Na8 O59 2.550802 1_555
Na9 O1 2.433603 1_555
Na9 O4 2.433603 1_555
Na9 O63 2.550802 1_555
Na9 O58 2.550802 1_555
Na10 O2 2.433603 1_555
Na10 O7 2.433603 1_555
Na10 O57 2.550802 1_555
Na10 O60 2.550802 1_555
Na11 O3 2.433603 1_555
Na11 O6 2.433603 1_555
Na11 O56 2.550802 1_555
Na11 O61 2.550802 1_555
Na12 O24 2.432287 1_555
Na12 O29 2.432287 1_455
Na12 O34 2.535040 1_465
Na12 O39 2.535040 1_565
Na13 O25 2.432287 1_555
Na13 O28 2.432287 1_455
Na13 O38 2.535040 1_545
Na13 O35 2.535040 1_445
Na14 O31 2.432287 1_555
Na14 O26 2.432287 1_455
Na14 O32 2.535040 1_555
Na14 O37 2.535040 1_455
Na15 O30 2.432287 1_555
Na15 O27 2.432287 1_455
Na15 O33 2.535040 1_555
Na15 O36 2.535040 1_455
Na16 O43 2.372075 1_555
Na16 O46 2.372075 1_555
Na16 O0 2.570554 1_555
Na16 O5 2.570554 1_555
Na17 O47 2.372075 1_555
Na17 O42 2.372075 1_555
Na17 O1 2.570554 1_555
Na17 O4 2.570554 1_555
Na18 O41 2.372075 1_555
Na18 O44 2.372075 1_555
Na18 O2 2.570554 1_555
Na18 O7 2.570554 1_555
Na19 O45 2.372075 1_555
Na19 O40 2.372075 1_555
Na19 O3 2.570554 1_555
Na19 O6 2.570554 1_555
Na20 O11 2.436236 1_555
Na20 O14 2.436236 1_455
Na20 O38 2.658726 1_555
Na20 O35 2.658726 1_455
Na21 O10 2.436236 1_555
Na21 O15 2.436236 1_455
Na21 O39 2.658726 1_555
Na21 O34 2.658726 1_455
Na22 O9 2.436236 1_455
Na22 O12 2.436236 1_555
Na22 O33 2.658726 1_555
Na22 O36 2.658726 1_455
Na23 O13 2.436236 1_555
Na23 O8 2.436236 1_455
Na23 O32 2.658726 1_555
Na23 O37 2.658726 1_455
Fe0 O31 1.991500 1_555
Fe0 O48 2.000130 1_555
Fe0 O13 2.045729 1_555
Fe0 O32 2.052800 1_555
Fe1 O30 1.991500 1_555
Fe1 O49 2.000130 1_555
Fe1 O12 2.045729 1_555
Fe1 O33 2.052800 1_555
Fe2 O29 1.991500 1_545
Fe2 O50 2.000130 1_545
Fe2 O15 2.045729 1_555
Fe2 O34 2.052800 1_555
Fe3 O28 1.991500 1_565
Fe3 O51 2.000130 1_565
Fe3 O14 2.045729 1_555
Fe3 O35 2.052800 1_555
Fe4 O27 1.991500 1_555
Fe4 O52 2.000130 1_555
Fe4 O9 2.045729 1_555
Fe4 O36 2.052800 1_555
Fe5 O26 1.991500 1_555
Fe5 O53 2.000130 1_555
Fe5 O8 2.045729 1_555
Fe5 O37 2.052800 1_555
Fe6 O25 1.991500 1_565
Fe6 O54 2.000130 1_565
Fe6 O11 2.045729 1_555
Fe6 O38 2.052800 1_555
Fe7 O24 1.991500 1_545
Fe7 O55 2.000130 1_545
Fe7 O10 2.045729 1_555
Fe7 O39 2.052800 1_555
Fe8 O22 1.986373 1_555
Fe8 O40 1.989118 1_555
Fe8 O56 2.047587 1_555
Fe8 O6 2.062534 1_555
Fe9 O23 1.986373 1_555
Fe9 O41 1.989118 1_555
Fe9 O57 2.047587 1_555
Fe9 O7 2.062534 1_555
Fe10 O20 1.986373 1_556
Fe10 O42 1.989118 1_555
Fe10 O58 2.047587 1_555
Fe10 O4 2.062534 1_555
Fe11 O21 1.986373 1_554
Fe11 O43 1.989118 1_555
Fe11 O59 2.047587 1_555
Fe11 O5 2.062534 1_555
Fe12 O18 1.986373 1_555
Fe12 O44 1.989118 1_555
Fe12 O60 2.047587 1_555
Fe12 O2 2.062534 1_555
Fe13 O19 1.986373 1_555
Fe13 O45 1.989118 1_555
Fe13 O61 2.047587 1_555
Fe13 O3 2.062534 1_555
Fe14 O16 1.986373 1_554
Fe14 O46 1.989118 1_555
Fe14 O62 2.047587 1_555
Fe14 O0 2.062534 1_555
Fe15 O17 1.986373 1_556
Fe15 O47 1.989118 1_555
Fe15 O63 2.047587 1_555
Fe15 O1 2.062534 1_555
O0 P0 1.554837 1_555
O1 P1 1.554837 1_555
O2 P2 1.554837 1_555
O3 P3 1.554837 1_555
O4 P4 1.554837 1_555
O5 P5 1.554837 1_555
O6 P6 1.554837 1_555
O7 P7 1.554837 1_555
O8 P5 1.554617 1_555
O9 P4 1.554617 1_555
O10 P7 1.554617 1_555
O11 P6 1.554617 1_555
O12 P1 1.554617 1_555
O13 P0 1.554617 1_555
O14 P3 1.554617 1_555
O15 P2 1.554617 1_555
O16 P6 1.544508 1_555
O17 P7 1.544508 1_555
O18 P4 1.544508 1_555
O19 P5 1.544508 1_555
O20 P2 1.544508 1_555
O21 P3 1.544508 1_555
O22 P0 1.544508 1_555
O23 P1 1.544508 1_555
O24 P0 1.543090 1_555
O25 P1 1.543090 1_555
O26 P2 1.543090 1_555
O27 P3 1.543090 1_555
O28 P4 1.543090 1_555
O29 P5 1.543090 1_555
O30 P6 1.543090 1_555
O31 P7 1.543090 1_555
O32 P8 1.552571 1_555
O33 P8 1.552571 1_555
O34 P9 1.552571 1_555
O35 P9 1.552571 1_566
O36 P10 1.552571 1_555
O37 P10 1.552571 1_555
O38 P11 1.552571 1_566
O39 P11 1.552571 1_555
O40 P15 1.546532 1_565
O41 P15 1.546532 1_555
O42 P14 1.546532 1_556
O43 P14 1.546532 1_555
O44 P13 1.546532 1_555
O45 P13 1.546532 1_565
O46 P12 1.546532 1_555
O47 P12 1.546532 1_556
O48 P12 1.545600 1_555
O49 P12 1.545600 1_556
O50 P13 1.545600 1_565
O51 P13 1.545600 1_555
O52 P14 1.545600 1_556
O53 P14 1.545600 1_555
O54 P15 1.545600 1_555
O55 P15 1.545600 1_565
O56 P8 1.555497 1_555
O57 P8 1.555497 1_555
O58 P9 1.555497 1_556
O59 P9 1.555497 1_565
O60 P10 1.555497 1_555
O61 P10 1.555497 1_555
O62 P11 1.555497 1_565
O63 P11 1.555497 1_556
F0 Fe0 2.031185 1_555
F0 Fe5 2.031185 1_455
F0 Na14 2.372467 1_555
F0 Na23 2.624390 1_555
F0 Na0 2.632522 1_555
F1 Fe1 2.031185 1_555
F1 Fe4 2.031185 1_455
F1 Na15 2.372467 1_555
F1 Na22 2.624390 1_555
F1 Na1 2.632522 1_555
F2 Fe7 2.031185 1_555
F2 Fe2 2.031185 1_455
F2 Na12 2.372467 1_545
F2 Na21 2.624390 1_555
F2 Na2 2.632522 1_555
F3 Fe6 2.031185 1_555
F3 Fe3 2.031185 1_455
F3 Na13 2.372467 1_565
F3 Na20 2.624390 1_555
F3 Na3 2.632522 1_555
F4 Fe13 2.042988 1_555
F4 Fe8 2.042988 1_555
F4 Na4 2.320857 1_555
F4 Na11 2.580639 1_555
F4 Na19 2.607675 1_555
F5 Fe12 2.042988 1_555
F5 Fe9 2.042988 1_555
F5 Na5 2.320857 1_555
F5 Na10 2.580639 1_555
F5 Na18 2.607675 1_555
F6 Fe15 2.042988 1_555
F6 Fe10 2.042988 1_555
F6 Na6 2.320857 1_556
F6 Na9 2.580639 1_555
F6 Na17 2.607675 1_555
F7 Fe14 2.042988 1_555
F7 Fe11 2.042988 1_555
F7 Na7 2.320857 1_554
F7 Na8 2.580639 1_555
F7 Na16 2.607675 1_555
F8 Fe0 1.948563 1_555
F8 Na16 2.453778 1_555
F8 Na10 2.477386 1_555
F8 Na4 2.506567 1_555
F9 Fe1 1.948563 1_555
F9 Na17 2.453778 1_555
F9 Na11 2.477386 1_555
F9 Na5 2.506567 1_555
F10 Fe2 1.948563 1_555
F10 Na18 2.453778 1_555
F10 Na8 2.477386 1_545
F10 Na6 2.506567 1_555
F11 Fe3 1.948563 1_555
F11 Na19 2.453778 1_555
F11 Na9 2.477386 1_565
F11 Na7 2.506567 1_555
F12 Fe4 1.948563 1_555
F12 Na17 2.453778 1_555
F12 Na11 2.477386 1_555
F12 Na5 2.506567 1_555
F13 Fe5 1.948563 1_555
F13 Na16 2.453778 1_555
F13 Na10 2.477386 1_555
F13 Na4 2.506567 1_555
F14 Fe6 1.948563 1_555
F14 Na19 2.453778 1_555
F14 Na9 2.477386 1_565
F14 Na7 2.506567 1_555
F15 Fe7 1.948563 1_555
F15 Na18 2.453778 1_555
F15 Na8 2.477386 1_545
F15 Na6 2.506567 1_555
F16 Fe8 1.947734 1_555
F16 Na3 2.443929 1_555
F16 Na15 2.454662 1_555
F16 Na23 2.483859 1_555
F17 Fe9 1.947734 1_555
F17 Na2 2.443929 1_555
F17 Na14 2.454662 1_555
F17 Na22 2.483859 1_555
F18 Fe10 1.947734 1_555
F18 Na1 2.443929 1_655
F18 Na13 2.454662 1_655
F18 Na21 2.483859 1_656
F19 Fe11 1.947734 1_555
F19 Na0 2.443929 1_655
F19 Na12 2.454662 1_655
F19 Na20 2.483859 1_654
F20 Fe12 1.947734 1_555
F20 Na2 2.443929 1_655
F20 Na14 2.454662 1_655
F20 Na22 2.483859 1_655
F21 Fe13 1.947734 1_555
F21 Na3 2.443929 1_655
F21 Na15 2.454662 1_655
F21 Na23 2.483859 1_655
F22 Fe14 1.947734 1_555
F22 Na0 2.443929 1_555
F22 Na12 2.454662 1_555
F22 Na20 2.483859 1_554
F23 Fe15 1.947734 1_555
F23 Na1 2.443929 1_555
F23 Na13 2.454662 1_555
F23 Na21 2.483859 1_556
