# generated using pymatgen
data_Li2Mn3NbO8
_symmetry_space_group_name_H-M   'P 1'
_cell_length_a   6.23475463
_cell_length_b   11.03628836
_cell_length_c   5.84002559
_cell_angle_alpha   90.00094098
_cell_angle_beta   117.92766084
_cell_angle_gamma   68.35032709
_symmetry_Int_Tables_number   1
_chemical_formula_structural   Li2Mn3NbO8
_chemical_formula_sum   'Li4 Mn6 Nb2 O16'
_cell_volume   322.61272925
_cell_formula_units_Z   2
loop_
 _symmetry_equiv_pos_site_id
 _symmetry_equiv_pos_as_xyz
  1  'x, y, z'
loop_
 _atom_site_type_symbol
 _atom_site_label
 _atom_site_symmetry_multiplicity
 _atom_site_fract_x
 _atom_site_fract_y
 _atom_site_fract_z
 _atom_site_occupancy
  Li  Li0  1  0.88340100  0.19411000  0.93872500  1
  Li  Li1  1  0.88336900  0.69410700  0.44459900  1
  Li  Li2  1  0.11649800  0.30593700  0.55534300  1
  Li  Li3  1  0.11655300  0.80594600  0.06113400  1
  Mn  Mn0  1  0.00012000  0.00006600  0.50019400  1
  Mn  Mn1  1  0.50005500  0.49981600  0.50006800  1
  Mn  Mn2  1  0.50007600  0.99992800  0.99977400  1
  Mn  Mn3  1  0.50002300  0.49990500  0.00013100  1
  Mn  Mn4  1  0.49998300  0.00020800  0.50020300  1
  Mn  Mn5  1  0.00006600  0.49986100  0.00004600  1
  Nb  Nb0  1  0.49985500  0.74997600  0.75403100  1
  Nb  Nb1  1  0.49984600  0.24997300  0.24560400  1
  O  O0  1  0.72304800  0.39757900  0.86075900  1
  O  O1  1  0.72310800  0.89771100  0.36237800  1
  O  O2  1  0.27706800  0.10242500  0.63779600  1
  O  O3  1  0.27700200  0.60230300  0.13931400  1
  O  O4  1  0.75196100  0.62457000  0.10479900  1
  O  O5  1  0.75326000  0.12442800  0.60051700  1
  O  O6  1  0.29888900  0.62548200  0.65055200  1
  O  O7  1  0.29886800  0.12554200  0.14822100  1
  O  O8  1  0.75329000  0.62433400  0.65283800  1
  O  O9  1  0.75211100  0.12463300  0.14722000  1
  O  O10  1  0.24799400  0.87551100  0.85288400  1
  O  O11  1  0.24668100  0.37561300  0.34727300  1
  O  O12  1  0.70117300  0.87447600  0.85163000  1
  O  O13  1  0.70120300  0.37440500  0.34945400  1
  O  O14  1  0.24665500  0.87571900  0.39947600  1
  O  O15  1  0.24784400  0.37543900  0.89503900  1
loop_
_geom_bond_atom_site_label_1
_geom_bond_atom_site_label_2
_geom_bond_distance
_geom_bond_site_symmetry_2
Li0 O5 2.027346 1_555
Li0 O9 2.034042 1_556
Li0 O0 2.041183 1_555
Li0 O7 2.089117 1_656
Li1 O8 2.028384 1_555
Li1 O4 2.034486 1_555
Li1 O1 2.042563 1_555
Li1 O6 2.089335 1_655
Li2 O11 2.027575 1_555
Li2 O15 2.033772 1_555
Li2 O2 2.041587 1_555
Li2 O13 2.088328 1_455
Li3 O14 2.028471 1_555
Li3 O10 2.034201 1_554
Li3 O3 2.042929 1_555
Li3 O12 2.088706 1_454
Mn0 O5 1.970241 1_455
Mn0 O14 1.970361 1_545
Mn0 O10 1.992807 1_545
Mn0 O9 1.994004 1_455
Mn0 O2 2.245638 1_555
Mn0 O1 2.245915 1_445
Mn1 O0 1.934552 1_555
Mn1 O3 1.935705 1_555
Mn1 O13 2.003649 1_555
Mn1 O6 2.004454 1_555
Mn1 O11 2.334096 1_555
Mn1 O8 2.336378 1_555
Mn2 O2 1.941124 1_565
Mn2 O1 1.942898 1_556
Mn2 O12 1.993138 1_555
Mn2 O7 1.995653 1_566
Mn2 O10 2.328270 1_555
Mn2 O9 2.330898 1_566
Mn3 O3 1.941767 1_555
Mn3 O0 1.942365 1_554
Mn3 O13 1.993688 1_555
Mn3 O6 1.995202 1_554
Mn3 O15 2.329223 1_554
Mn3 O4 2.330042 1_555
Mn4 O2 1.933678 1_555
Mn4 O1 1.936595 1_545
Mn4 O12 2.003832 1_545
Mn4 O7 2.004233 1_555
Mn4 O5 2.333891 1_555
Mn4 O14 2.336465 1_545
Mn5 O11 1.969840 1_555
Mn5 O8 1.970822 1_454
Mn5 O15 1.992560 1_554
Mn5 O4 1.994199 1_455
Mn5 O0 2.245311 1_454
Mn5 O3 2.246299 1_555
Nb0 O4 1.990300 1_556
Nb0 O10 1.990585 1_555
Nb0 O8 2.006666 1_555
Nb0 O14 2.006764 1_555
Nb0 O6 2.093760 1_555
Nb0 O12 2.095379 1_555
Nb1 O9 1.989593 1_555
Nb1 O15 1.989753 1_554
Nb1 O5 2.007341 1_555
Nb1 O11 2.007374 1_555
Nb1 O7 2.093210 1_555
Nb1 O13 2.094899 1_555
