# generated using pymatgen
data_Tb2(SiIr)3
_symmetry_space_group_name_H-M   'P 1'
_cell_length_a   2.94194072
_cell_length_b   3.45701778
_cell_length_c   22.06734097
_cell_angle_alpha   51.18608198
_cell_angle_beta   60.85984505
_cell_angle_gamma   90.00056753
_symmetry_Int_Tables_number   1
_chemical_formula_structural   Tb2(SiIr)3
_chemical_formula_sum   'Tb2 Si3 Ir3'
_cell_volume   136.51806683
_cell_formula_units_Z   1
loop_
 _symmetry_equiv_pos_site_id
 _symmetry_equiv_pos_as_xyz
  1  'x, y, z'
loop_
 _atom_site_type_symbol
 _atom_site_label
 _atom_site_symmetry_multiplicity
 _atom_site_fract_x
 _atom_site_fract_y
 _atom_site_fract_z
 _atom_site_occupancy
  Tb  Tb0  1  0.53854300  0.49024200  0.75248200  1
  Tb  Tb1  1  0.45249600  0.50708700  0.24841300  1
  Si  Si0  1  0.35635700  0.38436500  0.40422200  1
  Si  Si1  1  0.63782000  0.61614700  0.59565800  1
  Si  Si2  1  0.48441000  0.49736600  0.00080700  1
  Ir  Ir0  1  0.49766300  0.60962000  0.09791400  1
  Ir  Ir1  1  0.51265600  0.39590300  0.90069300  1
  Ir  Ir2  1  0.52005500  0.49927000  0.49981300  1
loop_
_geom_bond_atom_site_label_1
_geom_bond_atom_site_label_2
_geom_bond_distance
_geom_bond_site_symmetry_2
Si0 Si1 2.570314 1_445
Si0 Tb1 3.047944 1_565
Si0 Tb1 3.050595 1_555
Si0 Tb1 3.123737 1_665
Si0 Tb1 3.126356 1_655
Si1 Tb0 3.056359 1_545
Si1 Tb0 3.062432 1_555
Si1 Tb0 3.130374 1_445
Si1 Tb0 3.136336 1_455
Ir0 Si2 2.418517 1_565
Ir0 Si2 2.422381 1_555
Ir0 Si2 2.852185 1_665
Ir0 Si2 2.855497 1_655
Ir0 Tb1 3.031330 1_455
Ir0 Tb1 3.032796 1_445
Ir0 Tb1 3.044271 1_555
Ir0 Tb1 3.045764 1_545
Ir1 Si2 2.398958 1_546
Ir1 Si2 2.409015 1_556
Ir1 Tb0 2.993612 1_655
Ir1 Tb0 2.998927 1_665
Ir1 Tb0 3.037994 1_555
Ir1 Tb0 3.043265 1_565
Ir2 Si1 2.555998 1_545
Ir2 Si1 2.557660 1_555
Ir2 Si0 2.580079 1_655
Ir2 Si0 2.592209 1_665
Ir2 Si0 2.622829 1_555
Ir2 Si0 2.634800 1_565
Ir2 Si1 2.662620 1_445
Ir2 Si1 2.664253 1_455
