# generated using pymatgen
data_ZrZn2
_symmetry_space_group_name_H-M   'P 1'
_cell_length_a   5.20224308
_cell_length_b   5.20224172
_cell_length_c   5.20224172
_cell_angle_alpha   59.99998319
_cell_angle_beta   59.99997111
_cell_angle_gamma   59.99999372
_symmetry_Int_Tables_number   1
_chemical_formula_structural   ZrZn2
_chemical_formula_sum   'Zr2 Zn4'
_cell_volume   99.55349873
_cell_formula_units_Z   2
loop_
 _symmetry_equiv_pos_site_id
 _symmetry_equiv_pos_as_xyz
  1  'x, y, z'
loop_
 _atom_site_type_symbol
 _atom_site_label
 _atom_site_symmetry_multiplicity
 _atom_site_fract_x
 _atom_site_fract_y
 _atom_site_fract_z
 _atom_site_occupancy
  Zr  Zr0  1  0.87500000  0.87500000  0.87500000  1
  Zr  Zr1  1  0.12500000  0.12500000  0.12500000  1
  Zn  Zn0  1  0.50000000  0.50000000  0.50000000  1
  Zn  Zn1  1  0.50000000  0.50000000  -0.00000000  1
  Zn  Zn2  1  0.00000000  0.50000000  0.50000000  1
  Zn  Zn3  1  0.50000000  0.00000000  0.50000000  1
loop_
_geom_bond_atom_site_label_1
_geom_bond_atom_site_label_2
_geom_bond_distance
_geom_bond_site_symmetry_2
Zr0 Zr1 3.185708 1_665
Zr0 Zr1 3.185709 1_656
Zr0 Zr1 3.185710 1_566
Zr0 Zr1 3.185710 1_666
Zn0 Zn3 2.601121 1_555
Zn0 Zn3 2.601121 1_565
Zn0 Zn1 2.601121 1_555
Zn0 Zn1 2.601121 1_556
Zn0 Zn2 2.601122 1_655
Zn0 Zn2 2.601122 1_555
Zn0 Zr0 3.050083 1_554
Zn0 Zr1 3.050083 1_556
Zn0 Zr0 3.050084 1_455
Zn0 Zr1 3.050084 1_655
Zn0 Zr1 3.050085 1_565
Zn0 Zr0 3.050085 1_545
Zn1 Zn2 2.601120 1_555
Zn1 Zn2 2.601120 1_654
Zn1 Zn3 2.601120 1_555
Zn1 Zn3 2.601120 1_564
Zn1 Zr1 3.050084 1_565
Zn1 Zr0 3.050084 1_544
Zn1 Zr0 3.050085 1_554
Zn1 Zr1 3.050085 1_555
Zn1 Zr1 3.050085 1_655
Zn1 Zr0 3.050085 1_454
Zn2 Zn3 2.601121 1_555
Zn2 Zn3 2.601121 1_465
Zn2 Zr1 3.050084 1_565
Zn2 Zr0 3.050084 1_445
Zn2 Zr0 3.050084 1_454
Zn2 Zr1 3.050084 1_556
Zn2 Zr1 3.050085 1_555
Zn2 Zr0 3.050085 1_455
Zn3 Zr0 3.050084 1_544
Zn3 Zr1 3.050084 1_556
Zn3 Zr0 3.050084 1_445
Zn3 Zr1 3.050084 1_655
Zn3 Zr1 3.050085 1_555
Zn3 Zr0 3.050085 1_545
