# generated using pymatgen
data_ScGa2
_symmetry_space_group_name_H-M   'P 1'
_cell_length_a   4.08505321
_cell_length_b   4.11470088
_cell_length_c   6.64762999
_cell_angle_alpha   89.99999891
_cell_angle_beta   108.06167922
_cell_angle_gamma   90.00000194
_symmetry_Int_Tables_number   1
_chemical_formula_structural   ScGa2
_chemical_formula_sum   'Sc2 Ga4'
_cell_volume   106.23239351
_cell_formula_units_Z   2
loop_
 _symmetry_equiv_pos_site_id
 _symmetry_equiv_pos_as_xyz
  1  'x, y, z'
loop_
 _atom_site_type_symbol
 _atom_site_label
 _atom_site_symmetry_multiplicity
 _atom_site_fract_x
 _atom_site_fract_y
 _atom_site_fract_z
 _atom_site_occupancy
  Sc  Sc0  1  0.34706556  0.00000001  0.69421515  1
  Sc  Sc1  1  0.65293444  1.00000000  0.30578485  1
  Ga  Ga0  1  0.82317516  0.50000000  0.64644419  1
  Ga  Ga1  1  0.17682484  0.50000000  0.35355581  1
  Ga  Ga2  1  0.50000000  0.50000000  1.00000000  1
  Ga  Ga3  1  1.00000000  -0.00000000  1.00000000  1
loop_
_geom_bond_atom_site_label_1
_geom_bond_atom_site_label_2
_geom_bond_distance
_geom_bond_site_symmetry_2
Sc0 Sc1 3.188690 1_445
Sc0 Sc1 3.198325 1_545
Ga0 Ga1 2.752218 1_555
Ga0 Ga1 2.760820 1_655
Ga0 Sc0 2.914143 1_665
Ga0 Sc0 2.914143 1_655
Ga0 Sc0 2.915354 1_555
Ga0 Sc0 2.915354 1_565
Ga0 Sc1 2.977933 1_555
Ga0 Sc1 2.977933 1_545
Ga0 Ga2 3.023072 1_655
Ga0 Ga2 3.031643 1_555
Ga0 Ga3 3.037382 1_555
Ga0 Ga3 3.037382 1_565
Ga1 Sc1 2.914143 1_445
Ga1 Sc1 2.914143 1_455
Ga1 Sc1 2.915354 1_555
Ga1 Sc1 2.915354 1_545
Ga1 Sc0 2.977933 1_555
Ga1 Sc0 2.977933 1_565
Ga1 Ga2 3.023072 1_454
Ga1 Ga2 3.031643 1_554
Ga1 Ga3 3.037382 1_464
Ga1 Ga3 3.037382 1_454
Ga2 Sc0 2.822690 1_555
Ga2 Sc1 2.822690 1_546
Ga2 Sc1 2.822690 1_556
Ga2 Sc0 2.822690 1_565
Ga2 Ga3 2.899070 1_565
Ga2 Ga3 2.899070 1_455
Ga2 Ga3 2.899070 1_465
Ga2 Ga3 2.899070 1_555
Ga3 Sc1 2.807914 1_646
Ga3 Sc0 2.807914 1_555
Ga3 Sc0 2.815887 1_655
Ga3 Sc1 2.815887 1_546
