# generated using pymatgen
data_NdInNi
_symmetry_space_group_name_H-M   'P 1'
_cell_length_a   7.57190230
_cell_length_b   7.57190230
_cell_length_c   3.87246237
_cell_angle_alpha   90.00000000
_cell_angle_beta   90.00000000
_cell_angle_gamma   120.00000179
_symmetry_Int_Tables_number   1
_chemical_formula_structural   NdInNi
_chemical_formula_sum   'Nd3 In3 Ni3'
_cell_volume   192.27721983
_cell_formula_units_Z   3
loop_
 _symmetry_equiv_pos_site_id
 _symmetry_equiv_pos_as_xyz
  1  'x, y, z'
loop_
 _atom_site_type_symbol
 _atom_site_label
 _atom_site_symmetry_multiplicity
 _atom_site_fract_x
 _atom_site_fract_y
 _atom_site_fract_z
 _atom_site_occupancy
  Nd  Nd0  1  0.41622222  0.41622222  0.50000000  1
  Nd  Nd1  1  0.58377778  -0.00000000  0.50000000  1
  Nd  Nd2  1  -0.00000000  0.58377778  0.50000000  1
  In  In0  1  0.75329144  0.75329144  -0.00000000  1
  In  In1  1  0.24670856  -0.00000000  0.00000000  1
  In  In2  1  -0.00000000  0.24670856  -0.00000000  1
  Ni  Ni0  1  0.00000000  -0.00000000  0.50000000  1
  Ni  Ni1  1  0.66666700  0.33333300  0.00000000  1
  Ni  Ni2  1  0.33333300  0.66666700  -0.00000000  1
loop_
_geom_bond_atom_site_label_1
_geom_bond_atom_site_label_2
_geom_bond_distance
_geom_bond_site_symmetry_2
Nd0 Ni2 2.988181 1_555
Nd0 Ni1 2.988181 1_556
Nd0 Ni1 2.988181 1_555
Nd0 Ni2 2.988181 1_556
Nd0 Ni0 3.151594 1_555
Nd1 Ni1 2.988176 1_555
Nd1 Ni1 2.988176 1_556
Nd1 Ni2 2.988177 1_545
Nd1 Ni2 2.988177 1_546
Nd1 Ni0 3.151594 1_655
Nd2 Ni2 2.988176 1_556
Nd2 Ni2 2.988176 1_555
Nd2 Ni1 2.988177 1_456
Nd2 Ni1 2.988177 1_455
Nd2 Ni0 3.151594 1_565
In0 Ni0 2.690467 1_665
In0 Ni0 2.690467 1_664
In0 Ni2 2.907948 1_555
In0 Ni1 2.907948 1_555
In0 Nd0 3.203591 1_554
In0 Nd0 3.203591 1_555
In0 Nd2 3.359139 1_654
In0 Nd1 3.359139 1_564
In0 Nd2 3.359139 1_655
In0 Nd1 3.359139 1_565
In1 Ni0 2.690467 1_555
In1 Ni0 2.690467 1_554
In1 Ni2 2.907940 1_545
In1 Ni1 2.907945 1_555
In1 Nd1 3.203591 1_555
In1 Nd1 3.203591 1_554
In1 Nd2 3.359139 1_545
In1 Nd2 3.359139 1_544
In1 Nd0 3.359139 1_555
In1 Nd0 3.359139 1_554
In2 Ni0 2.690467 1_555
In2 Ni0 2.690467 1_554
In2 Ni1 2.907940 1_455
In2 Ni2 2.907945 1_555
In2 Nd2 3.203591 1_554
In2 Nd2 3.203591 1_555
In2 Nd1 3.359139 1_454
In2 Nd1 3.359139 1_455
In2 Nd0 3.359139 1_555
In2 Nd0 3.359139 1_554
