# generated using pymatgen
data_Sr3(WN2)2
_symmetry_space_group_name_H-M   'P 1'
_cell_length_a   7.42583875
_cell_length_b   8.96040492
_cell_length_c   5.75827778
_cell_angle_alpha   89.99999275
_cell_angle_beta   91.03013161
_cell_angle_gamma   127.10849027
_symmetry_Int_Tables_number   1
_chemical_formula_structural   Sr3(WN2)2
_chemical_formula_sum   'Sr6 W4 N8'
_cell_volume   305.48022019
_cell_formula_units_Z   2
loop_
 _symmetry_equiv_pos_site_id
 _symmetry_equiv_pos_as_xyz
  1  'x, y, z'
loop_
 _atom_site_type_symbol
 _atom_site_label
 _atom_site_symmetry_multiplicity
 _atom_site_fract_x
 _atom_site_fract_y
 _atom_site_fract_z
 _atom_site_occupancy
  Sr  Sr0  1  0.23451200  0.98834300  0.02397000  1
  Sr  Sr1  1  0.76548800  0.75383100  0.47603000  1
  Sr  Sr2  1  0.76548800  0.01165700  0.97603000  1
  Sr  Sr3  1  0.23451200  0.24616900  0.52397000  1
  Sr  Sr4  1  0.00000000  0.60294200  0.75000000  1
  Sr  Sr5  1  0.00000000  0.39705800  0.25000000  1
  W  W0  1  0.60048900  0.17302200  0.59426200  1
  W  W1  1  0.39951100  0.57253300  0.90573800  1
  W  W2  1  0.39951100  0.82697800  0.40573800  1
  W  W3  1  0.60048900  0.42746700  0.09426200  1
  N  N0  1  0.26445000  0.95945300  0.50868100  1
  N  N1  1  0.73555000  0.69500300  0.99131900  1
  N  N2  1  0.73555000  0.04054700  0.49131900  1
  N  N3  1  0.26445000  0.30499700  0.00868100  1
  N  N4  1  0.65948500  0.26804600  0.91671500  1
  N  N5  1  0.34051500  0.60856200  0.58328500  1
  N  N6  1  0.34051500  0.73195400  0.08328500  1
  N  N7  1  0.65948500  0.39143800  0.41671500  1
loop_
_geom_bond_atom_site_label_1
_geom_bond_atom_site_label_2
_geom_bond_distance
_geom_bond_site_symmetry_2
N0 W2 2.055294 1_555
N0 W0 2.079782 1_565
N0 Sr3 2.710588 1_565
N0 Sr0 2.820250 1_555
N0 Sr4 2.919000 1_555
N0 Sr1 2.982632 1_455
N0 Sr0 3.002289 1_556
N1 W3 2.055294 1_556
N1 W1 2.079782 1_555
N1 Sr2 2.710588 1_565
N1 Sr1 2.820250 1_556
N1 Sr4 2.919000 1_655
N1 Sr0 2.982632 1_656
N1 Sr1 3.002289 1_555
N2 W0 2.055294 1_555
N2 W2 2.079782 1_545
N2 Sr1 2.710588 1_545
N2 Sr2 2.820250 1_555
N2 Sr5 2.919000 1_655
N2 Sr3 2.982632 1_655
N2 Sr2 3.002289 1_554
N3 W1 2.055294 1_554
N3 W3 2.079782 1_555
N3 Sr0 2.710588 1_545
N3 Sr3 2.820250 1_554
N3 Sr5 2.919000 1_555
N3 Sr2 2.982632 1_454
N3 Sr3 3.002289 1_555
N4 W0 1.971081 1_555
N4 W3 2.012198 1_556
N4 Sr0 2.673599 1_546
N4 Sr4 2.692888 1_655
N4 Sr5 2.776996 1_656
N4 Sr2 2.861209 1_555
N5 W1 1.971083 1_555
N5 W2 2.012190 1_555
N5 Sr1 2.673602 1_555
N5 Sr4 2.692883 1_555
N5 Sr5 2.776998 1_555
N5 Sr3 2.861218 1_555
N6 W2 1.971081 1_555
N6 W1 2.012198 1_554
N6 Sr2 2.673599 1_564
N6 Sr5 2.692888 1_555
N6 Sr4 2.776996 1_554
N6 Sr0 2.861209 1_555
N7 W3 1.971083 1_555
N7 W0 2.012190 1_555
N7 Sr3 2.673602 1_555
N7 Sr5 2.692883 1_655
N7 Sr4 2.776998 1_655
N7 Sr1 2.861218 1_555
