# generated using pymatgen
data_La3(P3Pd10)2
_symmetry_space_group_name_H-M   'P 1'
_cell_length_a   8.72783869
_cell_length_b   8.72783871
_cell_length_c   8.72783572
_cell_angle_alpha   60.00004540
_cell_angle_beta   60.00002570
_cell_angle_gamma   60.00000962
_symmetry_Int_Tables_number   1
_chemical_formula_structural   La3(P3Pd10)2
_chemical_formula_sum   'La3 P6 Pd20'
_cell_volume   470.11623882
_cell_formula_units_Z   1
loop_
 _symmetry_equiv_pos_site_id
 _symmetry_equiv_pos_as_xyz
  1  'x, y, z'
loop_
 _atom_site_type_symbol
 _atom_site_label
 _atom_site_symmetry_multiplicity
 _atom_site_fract_x
 _atom_site_fract_y
 _atom_site_fract_z
 _atom_site_occupancy
  La  La0  1  0.25000072  0.25000028  0.25000142  1
  La  La1  1  0.75000022  0.74999914  0.74999857  1
  La  La2  1  0.00000038  -0.00000028  0.99999974  1
  P  P0  1  0.73644469  0.26355539  0.26355502  1
  P  P1  1  0.26355526  0.73644455  0.73644487  1
  P  P2  1  0.26355561  0.73644434  0.26355542  1
  P  P3  1  0.73644547  0.26355483  0.73644505  1
  P  P4  1  0.26355633  0.26355569  0.73644365  1
  P  P5  1  0.73644566  0.73644578  0.26355452  1
  Pd  Pd0  1  0.38620497  0.38620808  0.38620965  1
  Pd  Pd1  1  0.61379070  0.61379255  0.61379306  1
  Pd  Pd2  1  0.38620710  0.38620945  0.84137233  1
  Pd  Pd3  1  0.38620530  0.84137189  0.38621147  1
  Pd  Pd4  1  0.61378667  0.61378899  0.15862746  1
  Pd  Pd5  1  0.61378673  0.15862633  0.61378976  1
  Pd  Pd6  1  0.84137241  0.38620797  0.38621050  1
  Pd  Pd7  1  0.15862575  0.61378748  0.61378934  1
  Pd  Pd8  1  0.34729179  0.00000003  0.99999889  1
  Pd  Pd9  1  0.65270499  0.00000242  -0.00000006  1
  Pd  Pd10  1  0.00000366  0.34729268  0.65270797  1
  Pd  Pd11  1  0.00000356  0.65270760  0.34729439  1
  Pd  Pd12  1  -0.00000124  0.34729337  0.99999852  1
  Pd  Pd13  1  0.65270769  0.00000165  0.34729524  1
  Pd  Pd14  1  0.00000419  0.65270452  0.00000041  1
  Pd  Pd15  1  0.34729235  0.00000159  0.65270976  1
  Pd  Pd16  1  0.00000049  0.99999802  0.34729123  1
  Pd  Pd17  1  0.00000473  0.00000216  0.65270428  1
  Pd  Pd18  1  0.65270932  0.34729483  -0.00000032  1
  Pd  Pd19  1  0.34729351  0.65270968  -0.00000013  1
loop_
_geom_bond_atom_site_label_1
_geom_bond_atom_site_label_2
_geom_bond_distance
_geom_bond_site_symmetry_2
La0 Pd0 2.911930 1_555
La0 Pd6 2.911988 1_455
La0 Pd3 2.911989 1_545
La0 Pd2 2.911994 1_554
La0 Pd17 3.361252 1_555
La0 Pd14 3.361270 1_555
La0 Pd9 3.361276 1_555
La0 Pd10 3.361282 1_555
La0 Pd11 3.361290 1_555
La0 Pd13 3.361291 1_555
La0 Pd15 3.361293 1_555
La0 Pd19 3.361307 1_555
La0 Pd18 3.361307 1_555
La0 Pd8 3.361314 1_554
La0 Pd16 3.361318 1_545
La0 Pd12 3.361323 1_554
La1 Pd1 2.911939 1_555
La1 Pd7 2.911968 1_655
La1 Pd5 2.911981 1_565
La1 Pd4 2.911992 1_556
La1 Pd13 3.361259 1_565
La1 Pd11 3.361261 1_655
La1 Pd18 3.361262 1_556
La1 Pd19 3.361273 1_556
La1 Pd10 3.361274 1_655
La1 Pd15 3.361278 1_565
La1 Pd12 3.361279 1_655
La1 Pd16 3.361288 1_655
La1 Pd8 3.361298 1_565
La1 Pd9 3.361313 1_566
La1 Pd14 3.361325 1_656
La1 Pd17 3.361340 1_665
La2 Pd16 3.031096 1_546
La2 Pd15 3.031100 1_555
La2 Pd8 3.031101 1_555
La2 Pd19 3.031105 1_546
La2 Pd17 3.031108 1_555
La2 Pd12 3.031111 1_555
La2 Pd10 3.031113 1_555
La2 Pd14 3.031117 1_546
La2 Pd18 3.031118 1_456
La2 Pd11 3.031122 1_546
La2 Pd9 3.031125 1_456
La2 Pd13 3.031128 1_456
La2 P5 3.253060 1_446
La2 P3 3.253064 1_455
La2 P1 3.253066 1_545
La2 P0 3.253072 1_456
La2 P2 3.253072 1_546
La2 P4 3.253080 1_555
P0 Pd13 2.413558 1_555
P0 Pd18 2.413563 1_555
P0 Pd12 2.413580 1_654
P0 Pd16 2.413586 1_645
P0 Pd4 2.497451 1_555
P0 Pd5 2.497458 1_555
P0 Pd6 2.497465 1_555
P0 Pd0 2.497493 1_555
P1 Pd14 2.413566 1_556
P1 Pd17 2.413570 1_565
P1 Pd19 2.413589 1_556
P1 Pd15 2.413600 1_565
P1 Pd3 2.497449 1_555
P1 Pd2 2.497462 1_555
P1 Pd1 2.497463 1_555
P1 Pd7 2.497510 1_555
P2 Pd11 2.413546 1_555
P2 Pd19 2.413565 1_555
P2 Pd16 2.413567 1_555
P2 Pd8 2.413584 1_564
P2 Pd4 2.497432 1_555
P2 Pd3 2.497447 1_555
P2 Pd7 2.497452 1_555
P2 Pd0 2.497469 1_555
P3 Pd9 2.413573 1_556
P3 Pd17 2.413586 1_655
P3 Pd18 2.413592 1_556
P3 Pd10 2.413608 1_655
P3 Pd6 2.497458 1_555
P3 Pd1 2.497480 1_555
P3 Pd2 2.497485 1_555
P3 Pd5 2.497513 1_555
P4 Pd10 2.413550 1_555
P4 Pd15 2.413555 1_555
P4 Pd8 2.413577 1_555
P4 Pd12 2.413585 1_555
P4 Pd5 2.497427 1_555
P4 Pd7 2.497437 1_555
P4 Pd2 2.497446 1_555
P4 Pd0 2.497452 1_555
P5 Pd9 2.413590 1_565
P5 Pd14 2.413593 1_655
P5 Pd13 2.413601 1_565
P5 Pd11 2.413613 1_655
P5 Pd6 2.497482 1_555
P5 Pd1 2.497485 1_555
P5 Pd3 2.497500 1_555
P5 Pd4 2.497516 1_555
Pd0 Pd10 3.066237 1_555
Pd0 Pd11 3.066239 1_555
Pd0 Pd15 3.066269 1_555
Pd0 Pd13 3.066275 1_555
Pd0 Pd19 3.066289 1_555
Pd0 Pd18 3.066298 1_555
Pd1 Pd19 3.066276 1_556
Pd1 Pd18 3.066280 1_556
Pd1 Pd15 3.066292 1_565
Pd1 Pd13 3.066294 1_565
Pd1 Pd11 3.066315 1_655
Pd1 Pd10 3.066317 1_655
Pd2 Pd9 3.066283 1_556
Pd2 Pd8 3.066292 1_555
Pd3 Pd8 3.066307 1_564
Pd3 Pd9 3.066317 1_565
Pd4 Pd8 3.066291 1_564
Pd4 Pd9 3.066335 1_565
Pd5 Pd8 3.066278 1_555
Pd5 Pd9 3.066312 1_556
Pd8 Pd9 2.665612 1_556
Pd10 Pd11 2.665608 1_555
Pd10 Pd12 3.031076 1_555
Pd10 Pd15 3.031091 1_555
Pd10 Pd17 3.031107 1_555
Pd10 Pd18 3.031118 1_456
Pd10 Pd7 3.066219 1_555
Pd10 Pd6 3.066316 1_455
Pd11 Pd16 3.031068 1_555
Pd11 Pd19 3.031111 1_555
Pd11 Pd13 3.031135 1_465
Pd11 Pd14 3.031135 1_555
Pd11 Pd7 3.066214 1_555
Pd11 Pd6 3.066331 1_455
Pd12 Pd14 2.665611 1_556
Pd12 Pd18 3.031075 1_456
Pd12 Pd8 3.031119 1_555
Pd12 Pd16 3.031128 1_546
Pd12 Pd7 3.066277 1_555
Pd12 Pd2 3.066286 1_555
Pd12 Pd4 3.066299 1_456
Pd12 Pd6 3.066309 1_456
Pd13 Pd15 2.665613 1_555
Pd13 Pd16 3.031082 1_645
Pd13 Pd18 3.031131 1_555
Pd13 Pd9 3.031145 1_555
Pd13 Pd5 3.066223 1_555
Pd13 Pd3 3.066343 1_545
Pd14 Pd19 3.031105 1_555
Pd14 Pd17 3.031153 1_564
Pd14 Pd9 3.031166 1_465
Pd14 Pd2 3.066255 1_554
Pd14 Pd6 3.066302 1_455
Pd14 Pd7 3.066317 1_554
Pd14 Pd4 3.066358 1_455
Pd15 Pd8 3.031073 1_555
Pd15 Pd17 3.031092 1_555
Pd15 Pd19 3.031101 1_546
Pd15 Pd5 3.066228 1_555
Pd15 Pd3 3.066322 1_545
Pd16 Pd17 2.665631 1_565
Pd16 Pd8 3.031108 1_564
Pd16 Pd3 3.066273 1_555
Pd16 Pd7 3.066294 1_555
Pd16 Pd6 3.066308 1_465
Pd16 Pd5 3.066315 1_465
Pd17 Pd9 3.031159 1_456
Pd17 Pd3 3.066242 1_545
Pd17 Pd6 3.066274 1_455
Pd17 Pd7 3.066340 1_545
Pd17 Pd5 3.066361 1_455
Pd18 Pd19 2.665616 1_555
Pd18 Pd9 3.031130 1_555
Pd18 Pd4 3.066234 1_555
Pd18 Pd2 3.066331 1_554
Pd19 Pd8 3.031082 1_564
Pd19 Pd4 3.066233 1_555
Pd19 Pd2 3.066321 1_554
