# generated using pymatgen
data_HoFeCo
_symmetry_space_group_name_H-M   'P 1'
_cell_length_a   5.06659984
_cell_length_b   5.06659984
_cell_length_c   5.06659984
_cell_angle_alpha   118.42535342
_cell_angle_beta   118.03721559
_cell_angle_gamma   93.09212815
_symmetry_Int_Tables_number   1
_chemical_formula_structural   HoFeCo
_chemical_formula_sum   'Ho2 Fe2 Co2'
_cell_volume   94.27648399
_cell_formula_units_Z   2
loop_
 _symmetry_equiv_pos_site_id
 _symmetry_equiv_pos_as_xyz
  1  'x, y, z'
loop_
 _atom_site_type_symbol
 _atom_site_label
 _atom_site_symmetry_multiplicity
 _atom_site_fract_x
 _atom_site_fract_y
 _atom_site_fract_z
 _atom_site_occupancy
  Ho  Ho0  1  0.12063814  0.87063814  0.25000000  1
  Ho  Ho1  1  0.87936186  0.12936186  0.75000000  1
  Fe  Fe0  1  0.50000000  0.50000000  0.50000000  1
  Fe  Fe1  1  0.50000000  0.00000000  0.00000000  1
  Co  Co0  1  0.50000000  0.50000000  0.00000000  1
  Co  Co1  1  0.00000000  0.50000000  0.50000000  1
loop_
_geom_bond_atom_site_label_1
_geom_bond_atom_site_label_2
_geom_bond_distance
_geom_bond_site_symmetry_2
Fe0 Fe1 2.593353 1_566
Fe0 Fe1 2.593353 1_555
Fe0 Ho1 2.944750 1_565
Fe0 Ho0 2.944750 1_545
Fe0 Ho1 3.031558 1_454
Fe0 Ho0 3.031558 1_555
Fe0 Ho1 3.031558 1_555
Fe0 Ho0 3.031558 1_656
Fe1 Ho0 2.944750 1_545
Fe1 Ho1 2.944750 1_554
Fe1 Ho0 3.031558 1_645
Fe1 Ho1 3.031558 1_454
Fe1 Ho0 3.031558 1_544
Fe1 Ho1 3.031558 1_555
Co0 Fe0 2.533300 1_554
Co0 Fe1 2.533300 1_555
Co0 Fe1 2.533300 1_565
Co0 Fe0 2.533300 1_555
Co0 Co1 2.608081 1_655
Co0 Co1 2.608081 1_554
Co0 Ho1 2.893598 1_454
Co0 Ho0 2.893598 1_655
Co0 Ho1 3.039543 1_565
Co0 Ho0 3.039543 1_555
Co0 Ho1 3.039543 1_554
Co0 Ho0 3.039543 1_544
Co1 Fe1 2.533300 1_455
Co1 Fe1 2.533300 1_566
Co1 Fe0 2.533300 1_455
Co1 Fe0 2.533300 1_555
Co1 Ho1 2.893598 1_455
Co1 Ho0 2.893598 1_555
Co1 Ho0 3.039543 1_556
Co1 Ho0 3.039543 1_545
Co1 Ho1 3.039543 1_465
Co1 Ho1 3.039543 1_454
