# generated using pymatgen
data_Na3(CoO2)5
_symmetry_space_group_name_H-M   'P 1'
_cell_length_a   4.94583037
_cell_length_b   11.28144400
_cell_length_c   7.78733790
_cell_angle_alpha   87.61939400
_cell_angle_beta   108.52994108
_cell_angle_gamma   97.60430549
_symmetry_Int_Tables_number   1
_chemical_formula_structural   Na3(CoO2)5
_chemical_formula_sum   'Na6 Co10 O20'
_cell_volume   408.35435445
_cell_formula_units_Z   2
loop_
 _symmetry_equiv_pos_site_id
 _symmetry_equiv_pos_as_xyz
  1  'x, y, z'
loop_
 _atom_site_type_symbol
 _atom_site_label
 _atom_site_symmetry_multiplicity
 _atom_site_fract_x
 _atom_site_fract_y
 _atom_site_fract_z
 _atom_site_occupancy
  Na  Na0  1  0.81208400  0.25138000  0.79997200  1
  Na  Na1  1  0.31787400  0.75076400  0.80021100  1
  Na  Na2  1  0.01876900  0.24911400  0.19492900  1
  Na  Na3  1  0.50535500  0.74419400  0.19350700  1
  Na  Na4  1  0.62278100  0.24871800  0.40450800  1
  Na  Na5  1  0.11114600  0.74442400  0.40684700  1
  Co  Co0  1  0.90895700  0.50738800  0.79993800  1
  Co  Co1  1  0.39767300  0.01528600  0.80018100  1
  Co  Co2  1  0.49611000  0.49809500  0.99604800  1
  Co  Co3  1  0.99462700  0.99032500  0.99847800  1
  Co  Co4  1  0.29996400  0.49806700  0.60382800  1
  Co  Co5  1  0.79749800  0.99013700  0.60240100  1
  Co  Co6  1  0.60494400  0.00296100  0.20469100  1
  Co  Co7  1  0.09860100  0.50214700  0.19583700  1
  Co  Co8  1  0.19945700  0.00269500  0.39420600  1
  Co  Co9  1  0.70270600  0.50200400  0.40414000  1
  O  O0  1  0.08827500  0.09432600  0.79984600  1
  O  O1  1  0.58886200  0.58571700  0.79999200  1
  O  O2  1  0.20962600  0.41604500  0.79987900  1
  O  O3  1  0.68381400  0.90763600  0.80118300  1
  O  O4  1  0.30598800  0.09284300  0.21397900  1
  O  O5  1  0.78649700  0.58687100  0.20009800  1
  O  O6  1  0.89282000  0.09238800  0.38470500  1
  O  O7  1  0.38646300  0.58697000  0.40010100  1
  O  O8  1  0.70780400  0.09478900  0.01845000  1
  O  O9  1  0.21156000  0.59498300  0.98807300  1
  O  O10  1  0.49108600  0.09458800  0.58204400  1
  O  O11  1  0.02344700  0.59491000  0.61195200  1
  O  O12  1  0.81118500  0.41609800  0.99544300  1
  O  O13  1  0.32515500  0.91083200  0.01838800  1
  O  O14  1  0.61552400  0.41604300  0.60429700  1
  O  O15  1  0.10635100  0.91028500  0.58277000  1
  O  O16  1  0.00446500  0.40755500  0.41607900  1
  O  O17  1  0.48700300  0.90816400  0.38226000  1
  O  O18  1  0.38824900  0.40774400  0.18373800  1
  O  O19  1  0.90528100  0.90751800  0.21700000  1
loop_
_geom_bond_atom_site_label_1
_geom_bond_atom_site_label_2
_geom_bond_distance
_geom_bond_site_symmetry_2
Na0 O0 2.376289 1_655
Na0 O12 2.451878 1_555
Na0 O14 2.453380 1_555
Na0 O10 2.514561 1_555
Na0 O8 2.519586 1_556
Na0 O2 2.520092 1_655
Na1 O9 2.352877 1_555
Na1 O11 2.353897 1_555
Na1 O3 2.356351 1_555
Na1 O1 2.434217 1_555
Na1 O15 2.513865 1_555
Na1 O13 2.519454 1_556
Na2 O8 2.330637 1_455
Na2 O4 2.378046 1_555
Na2 O18 2.402555 1_555
Na2 O6 2.403080 1_455
Na2 O12 2.504223 1_454
Na2 O16 2.555868 1_555
Na3 O9 2.367087 1_554
Na3 O13 2.376142 1_555
Na3 O5 2.384600 1_555
Na3 O17 2.438389 1_555
Na3 O7 2.483609 1_555
Na3 O19 2.484792 1_555
Na4 O10 2.330666 1_555
Na4 O6 2.386379 1_555
Na4 O4 2.399701 1_555
Na4 O16 2.406798 1_655
Na4 O14 2.506506 1_555
Na4 O18 2.558669 1_555
Na5 O11 2.367956 1_555
Na5 O15 2.371486 1_555
Na5 O7 2.388629 1_555
Na5 O19 2.433269 1_455
Na5 O5 2.483716 1_455
Na5 O17 2.488480 1_555
Co0 O1 1.912560 1_555
Co0 O2 1.918142 1_655
Co0 O11 1.922863 1_655
Co0 O9 1.923030 1_655
Co0 O12 1.954037 1_555
Co0 O14 1.954103 1_555
Co1 O0 1.869521 1_555
Co1 O3 1.981114 1_545
Co1 O8 2.037571 1_556
Co1 O10 2.040249 1_555
Co1 O15 2.123681 1_545
Co1 O13 2.124586 1_546
Co2 O9 1.877528 1_555
Co2 O2 1.895438 1_555
Co2 O12 1.915879 1_555
Co2 O18 1.920347 1_556
Co2 O1 1.928296 1_555
Co2 O5 1.972730 1_556
Co3 O13 1.927691 1_656
Co3 O3 1.957599 1_555
Co3 O8 2.005828 1_566
Co3 O0 2.035810 1_665
Co3 O19 2.049486 1_556
Co3 O4 2.138364 1_666
Co4 O11 1.877271 1_555
Co4 O2 1.895652 1_555
Co4 O14 1.915831 1_555
Co4 O16 1.920196 1_555
Co4 O1 1.927986 1_555
Co4 O7 1.972698 1_555
Co5 O15 1.921540 1_655
Co5 O3 1.968163 1_555
Co5 O10 2.003669 1_565
Co5 O0 2.027615 1_665
Co5 O17 2.057883 1_555
Co5 O6 2.151386 1_565
Co6 O6 1.865163 1_555
Co6 O13 1.889057 1_545
Co6 O17 1.902841 1_545
Co6 O8 1.907903 1_555
Co6 O4 1.921070 1_555
Co6 O19 1.923339 1_545
Co7 O18 1.921775 1_555
Co7 O5 1.929530 1_455
Co7 O12 1.936234 1_454
Co7 O7 1.949198 1_555
Co7 O9 2.074991 1_554
Co7 O16 2.126288 1_555
Co8 O4 1.868500 1_555
Co8 O19 1.899358 1_445
Co8 O15 1.905434 1_545
Co8 O6 1.912577 1_455
Co8 O17 1.913691 1_545
Co8 O10 1.919372 1_555
Co9 O16 1.922455 1_655
Co9 O7 1.931104 1_555
Co9 O14 1.935670 1_555
Co9 O5 1.949431 1_555
Co9 O11 2.074384 1_655
Co9 O18 2.124316 1_555
