# generated using pymatgen
data_Na7Zn3Ga(SiO4)4
_symmetry_space_group_name_H-M   'P 1'
_cell_length_a   5.20813958
_cell_length_b   10.43855400
_cell_length_c   15.16826035
_cell_angle_alpha   90.00000000
_cell_angle_beta   90.51702939
_cell_angle_gamma   90.00000000
_symmetry_Int_Tables_number   1
_chemical_formula_structural   Na7Zn3Ga(SiO4)4
_chemical_formula_sum   'Na14 Zn6 Ga2 Si8 O32'
_cell_volume   824.59566731
_cell_formula_units_Z   2
loop_
 _symmetry_equiv_pos_site_id
 _symmetry_equiv_pos_as_xyz
  1  'x, y, z'
loop_
 _atom_site_type_symbol
 _atom_site_label
 _atom_site_symmetry_multiplicity
 _atom_site_fract_x
 _atom_site_fract_y
 _atom_site_fract_z
 _atom_site_occupancy
  Na  Na0  1  0.04799000  0.00883500  0.44068200  1
  Na  Na1  1  0.04799000  0.49116500  0.94068200  1
  Na  Na2  1  0.07075700  0.22938600  0.31446000  1
  Na  Na3  1  0.07075700  0.27061400  0.81446000  1
  Na  Na4  1  0.48275700  0.56376300  0.08811100  1
  Na  Na5  1  0.48275700  0.93623700  0.58811100  1
  Na  Na6  1  0.51888100  0.98071700  0.07565600  1
  Na  Na7  1  0.51888100  0.51928300  0.57565600  1
  Na  Na8  1  0.53227200  0.25788800  0.17790400  1
  Na  Na9  1  0.53227200  0.24211200  0.67790400  1
  Na  Na10  1  0.91891800  0.70830300  0.30030400  1
  Na  Na11  1  0.91891800  0.79169700  0.80030400  1
  Na  Na12  1  0.94884500  0.98470200  0.94144600  1
  Na  Na13  1  0.94884500  0.51529800  0.44144600  1
  Zn  Zn0  1  0.03310100  0.22556400  0.06077200  1
  Zn  Zn1  1  0.03310100  0.27443600  0.56077200  1
  Zn  Zn2  1  0.97596000  0.73218000  0.06160600  1
  Zn  Zn3  1  0.97596000  0.76782000  0.56160600  1
  Zn  Zn4  1  0.97703800  0.03471400  0.68644300  1
  Zn  Zn5  1  0.97703800  0.46528600  0.18644300  1
  Ga  Ga0  1  0.04332800  0.52539600  0.68993600  1
  Ga  Ga1  1  0.04332800  0.97460400  0.18993600  1
  Si  Si0  1  0.44062900  0.73036500  0.42980400  1
  Si  Si1  1  0.44062900  0.76963500  0.92980400  1
  Si  Si2  1  0.43046100  0.48109000  0.31228400  1
  Si  Si3  1  0.43046100  0.01891000  0.81228400  1
  Si  Si4  1  0.55963200  0.50959200  0.81543900  1
  Si  Si5  1  0.55963200  0.99040800  0.31543900  1
  Si  Si6  1  0.56415900  0.23326800  0.43891700  1
  Si  Si7  1  0.56415900  0.26673200  0.93891700  1
  O  O0  1  0.02476600  0.80374600  0.17808600  1
  O  O1  1  0.02476600  0.69625400  0.67808600  1
  O  O2  1  0.02291500  0.54967100  0.07630600  1
  O  O3  1  0.02291500  0.95032900  0.57630600  1
  O  O4  1  0.13020500  0.72904000  0.43679800  1
  O  O5  1  0.13020500  0.77096000  0.93679800  1
  O  O6  1  0.12306800  0.50434700  0.30855900  1
  O  O7  1  0.12306800  0.99565300  0.80855900  1
  O  O8  1  0.39643800  0.02108800  0.22403100  1
  O  O9  1  0.39643800  0.47891200  0.72403100  1
  O  O10  1  0.42730700  0.23193500  0.03143400  1
  O  O11  1  0.42730700  0.26806500  0.53143400  1
  O  O12  1  0.45954300  0.08884400  0.39754300  1
  O  O13  1  0.45954300  0.41115600  0.89754300  1
  O  O14  1  0.47863900  0.33448600  0.35740300  1
  O  O15  1  0.47863900  0.16551400  0.85740300  1
  O  O16  1  0.52261400  0.65718400  0.85447900  1
  O  O17  1  0.52261400  0.84281600  0.35447900  1
  O  O18  1  0.54933700  0.58944300  0.38646500  1
  O  O19  1  0.54933700  0.91055700  0.88646500  1
  O  O20  1  0.58687300  0.75595200  0.02438500  1
  O  O21  1  0.58687300  0.74404800  0.52438500  1
  O  O22  1  0.57825900  0.48279900  0.21915800  1
  O  O23  1  0.57825900  0.01720100  0.71915800  1
  O  O24  1  0.86566600  0.01698200  0.30132600  1
  O  O25  1  0.86566600  0.48301800  0.80132600  1
  O  O26  1  0.87571900  0.22719400  0.44412400  1
  O  O27  1  0.87571900  0.27280600  0.94412400  1
  O  O28  1  0.96558500  0.04007900  0.08083400  1
  O  O29  1  0.96558500  0.45992100  0.58083400  1
  O  O30  1  0.00533700  0.21830800  0.67930500  1
  O  O31  1  0.00533700  0.28169200  0.17930500  1
loop_
_geom_bond_atom_site_label_1
_geom_bond_atom_site_label_2
_geom_bond_distance
_geom_bond_site_symmetry_2
Na0 O3 2.151016 1_545
Na0 O24 2.311015 1_455
Na0 O12 2.396930 1_555
Na0 O26 2.450307 1_455
Na1 O2 2.151016 1_556
Na1 O25 2.311015 1_455
Na1 O13 2.396930 1_555
Na1 O27 2.450307 1_455
Na2 O31 2.145779 1_555
Na2 O26 2.221849 1_455
Na2 O24 2.468342 1_455
Na2 O14 2.472974 1_555
Na2 O12 2.791843 1_555
Na3 O30 2.145779 1_555
Na3 O27 2.221849 1_455
Na3 O25 2.468342 1_455
Na3 O15 2.472974 1_555
Na3 O13 2.791843 1_555
Na4 O22 2.212464 1_555
Na4 O20 2.294030 1_555
Na4 O2 2.404498 1_555
Na4 O2 2.824356 1_655
Na5 O23 2.212464 1_565
Na5 O21 2.294030 1_555
Na5 O3 2.404498 1_555
Na5 O3 2.824356 1_655
Na6 O8 2.382291 1_565
Na6 O28 2.408200 1_565
Na6 O20 2.497984 1_555
Na6 O10 2.747427 1_565
Na7 O9 2.382291 1_555
Na7 O29 2.408200 1_555
Na7 O21 2.497984 1_555
Na7 O11 2.747427 1_555
Na8 O10 2.299185 1_555
Na8 O22 2.440929 1_555
Na8 O31 2.476187 1_655
Na8 O8 2.666267 1_555
Na8 O31 2.755850 1_555
Na8 O14 2.853786 1_555
Na9 O11 2.299185 1_555
Na9 O23 2.440929 1_555
Na9 O30 2.476187 1_655
Na9 O9 2.666267 1_555
Na9 O30 2.755850 1_555
Na9 O15 2.853786 1_555
Na10 O0 2.179824 1_655
Na10 O4 2.345870 1_655
Na10 O6 2.382525 1_655
Na10 O17 2.633922 1_555
Na10 O18 2.645334 1_555
Na11 O1 2.179824 1_655
Na11 O5 2.345870 1_655
Na11 O7 2.382525 1_655
Na11 O16 2.633922 1_555
Na11 O19 2.645334 1_555
Na12 O28 2.192846 1_566
Na12 O7 2.220881 1_655
Na12 O19 2.364845 1_555
Na12 O5 2.424130 1_655
Na13 O29 2.192846 1_555
Na13 O6 2.220881 1_655
Na13 O18 2.364845 1_555
Na13 O4 2.424130 1_655
Ga0 O1 1.795063 1_555
Ga0 O29 1.832382 1_455
Ga0 O9 1.966679 1_555
Ga0 O25 1.983629 1_455
Ga1 O0 1.795063 1_555
Ga1 O28 1.832382 1_465
Ga1 O8 1.966679 1_565
Ga1 O24 1.983629 1_465
O0 Zn2 1.932915 1_455
O1 Zn3 1.932915 1_455
O2 Zn5 1.905535 1_455
O2 Zn2 1.933406 1_455
O3 Zn4 1.905535 1_465
O3 Zn3 1.933406 1_455
O4 Si0 1.621222 1_555
O4 Zn3 2.102512 1_455
O5 Si1 1.621222 1_555
O5 Zn2 2.102512 1_456
O6 Si2 1.619730 1_555
O6 Zn5 2.037210 1_455
O7 Si3 1.619730 1_565
O7 Zn4 2.037210 1_465
O8 Si5 1.651082 1_545
O9 Si4 1.651082 1_555
O10 Si7 1.620896 1_554
O10 Zn0 2.105725 1_555
O11 Si6 1.620896 1_555
O11 Zn1 2.105725 1_555
O12 Si5 1.700065 1_545
O12 Si6 1.719690 1_555
O13 Si4 1.700065 1_555
O13 Si7 1.719690 1_555
O14 Si6 1.683309 1_555
O14 Si2 1.694153 1_555
O15 Si7 1.683309 1_555
O15 Si3 1.694153 1_555
O16 Si4 1.662374 1_555
O16 Si1 1.695409 1_555
O17 Si5 1.662374 1_555
O17 Si0 1.695409 1_555
O18 Si2 1.707653 1_555
O18 Si0 1.709769 1_555
O19 Si3 1.707653 1_565
O19 Si1 1.709769 1_555
O20 Si1 1.624489 1_554
O20 Zn2 2.113304 1_555
O21 Si0 1.624489 1_555
O21 Zn3 2.113304 1_555
O22 Si2 1.614864 1_555
O22 Zn5 2.147502 1_555
O23 Si3 1.614864 1_555
O23 Zn4 2.147502 1_555
O24 Si5 1.633813 1_545
O25 Si4 1.633813 1_555
O26 Si6 1.625094 1_555
O26 Zn1 2.004858 1_655
O27 Si7 1.625094 1_555
O27 Zn0 2.004858 1_656
O28 Zn0 1.991741 1_655
O29 Zn1 1.991741 1_655
O30 Zn1 1.897751 1_555
O30 Zn4 1.925237 1_455
O31 Zn0 1.897751 1_555
O31 Zn5 1.925237 1_455
