# generated using pymatgen
data_RbHSO2
_symmetry_space_group_name_H-M   'P 1'
_cell_length_a   5.99261000
_cell_length_b   6.12996614
_cell_length_c   11.66980220
_cell_angle_alpha   101.85721766
_cell_angle_beta   90.00000000
_cell_angle_gamma   119.26149900
_symmetry_Int_Tables_number   1
_chemical_formula_structural   RbHSO2
_chemical_formula_sum   'Rb4 H4 S4 O8'
_cell_volume   363.46230693
_cell_formula_units_Z   4
loop_
 _symmetry_equiv_pos_site_id
 _symmetry_equiv_pos_as_xyz
  1  'x, y, z'
loop_
 _atom_site_type_symbol
 _atom_site_label
 _atom_site_symmetry_multiplicity
 _atom_site_fract_x
 _atom_site_fract_y
 _atom_site_fract_z
 _atom_site_occupancy
  Rb  Rb0  1  0.24777100  0.49554200  0.67789900  1
  Rb  Rb1  1  0.75222900  0.50445800  0.32210100  1
  Rb  Rb2  1  0.35045800  0.70091700  0.08203100  1
  Rb  Rb3  1  0.64954200  0.29908300  0.91796900  1
  H  H0  1  0.43286100  0.86572100  0.40548800  1
  H  H1  1  0.56713900  0.13427900  0.59451200  1
  H  H2  1  0.28039000  0.56078100  0.36207300  1
  H  H3  1  0.71961000  0.43921900  0.63792700  1
  S  S0  1  0.08373900  0.16747800  0.36609400  1
  S  S1  1  0.91626100  0.83252200  0.63390600  1
  S  S2  1  0.04010100  0.08020200  0.18372900  1
  S  S3  1  0.95989900  0.91979800  0.81627100  1
  O  O0  1  0.89156500  0.19228000  0.14421100  1
  O  O1  1  0.30071500  0.19228000  0.14421100  1
  O  O2  1  0.10843500  0.80772000  0.85578900  1
  O  O3  1  0.69928500  0.80772000  0.85578900  1
  O  O4  1  0.10260500  0.20521000  0.85689600  1
  O  O5  1  0.89739500  0.79479000  0.14310400  1
  O  O6  1  0.36304100  0.72608100  0.33511300  1
  O  O7  1  0.63695900  0.27391900  0.66488700  1
loop_
_geom_bond_atom_site_label_1
_geom_bond_atom_site_label_2
_geom_bond_distance
_geom_bond_site_symmetry_2
H0 O6 0.971202 1_555
H1 O7 0.971202 1_555
H2 O6 1.005696 1_555
H3 O7 1.005696 1_555
O0 S2 1.484939 1_655
O0 Rb1 2.932283 1_555
O0 Rb2 3.109238 1_545
O0 Rb2 3.218385 1_655
O0 Rb3 3.337873 1_554
O1 S2 1.484939 1_555
O1 Rb1 2.932283 1_555
O1 Rb2 3.109234 1_545
O1 Rb2 3.218387 1_555
O1 Rb3 3.337877 1_554
O2 S3 1.484939 1_455
O2 Rb0 2.932283 1_555
O2 Rb3 3.109238 1_565
O2 Rb3 3.218385 1_455
O2 Rb2 3.337873 1_556
O3 S3 1.484939 1_555
O3 Rb0 2.932283 1_555
O3 Rb3 3.109234 1_565
O3 Rb3 3.218387 1_555
O3 Rb2 3.337877 1_556
O4 S3 1.487799 1_445
O4 Rb0 2.881271 1_555
O4 Rb3 3.093422 1_455
O4 Rb3 3.093428 1_555
O4 Rb2 3.263319 1_556
O5 S2 1.487799 1_665
O5 Rb1 2.881271 1_555
O5 Rb2 3.093422 1_655
O5 Rb2 3.093428 1_555
O5 Rb3 3.263319 1_554
O6 Rb2 2.924647 1_555
O7 Rb3 2.924647 1_555
