# generated using pymatgen
data_NpFe(OF2)3
_symmetry_space_group_name_H-M   'P 1'
_cell_length_a   6.67602973
_cell_length_b   6.67602973
_cell_length_c   8.97022100
_cell_angle_alpha   79.83412175
_cell_angle_beta   79.83412175
_cell_angle_gamma   63.25122551
_symmetry_Int_Tables_number   1
_chemical_formula_structural   NpFe(OF2)3
_chemical_formula_sum   'Np2 Fe2 O6 F12'
_cell_volume   349.26039898
_cell_formula_units_Z   2
loop_
 _symmetry_equiv_pos_site_id
 _symmetry_equiv_pos_as_xyz
  1  'x, y, z'
loop_
 _atom_site_type_symbol
 _atom_site_label
 _atom_site_symmetry_multiplicity
 _atom_site_fract_x
 _atom_site_fract_y
 _atom_site_fract_z
 _atom_site_occupancy
  Np  Np0  1  0.88807700  0.11192300  0.75000000  1
  Np  Np1  1  0.11192300  0.88807700  0.25000000  1
  Fe  Fe0  1  0.00000000  0.50000000  0.00000000  1
  Fe  Fe1  1  0.50000000  0.00000000  0.50000000  1
  O  O0  1  0.36968800  0.63031200  0.25000000  1
  O  O1  1  0.27894500  0.36541400  0.99640600  1
  O  O2  1  0.63458600  0.72105500  0.50359400  1
  O  O3  1  0.63031200  0.36968800  0.75000000  1
  O  O4  1  0.72105500  0.63458600  0.00359400  1
  O  O5  1  0.36541400  0.27894500  0.49640600  1
  F  F0  1  0.98513000  0.67956800  0.17153600  1
  F  F1  1  0.32043200  0.01487000  0.32846400  1
  F  F2  1  0.03160300  0.75949000  0.82030400  1
  F  F3  1  0.24051000  0.96839700  0.67969600  1
  F  F4  1  0.01487000  0.32043200  0.82846400  1
  F  F5  1  0.67956800  0.98513000  0.67153600  1
  F  F6  1  0.21967200  0.92057300  0.02345000  1
  F  F7  1  0.07942700  0.78032800  0.47655000  1
  F  F8  1  0.96839700  0.24051000  0.17969600  1
  F  F9  1  0.75949000  0.03160300  0.32030400  1
  F  F10  1  0.78032800  0.07942700  0.97655000  1
  F  F11  1  0.92057300  0.21967200  0.52345000  1
loop_
_geom_bond_atom_site_label_1
_geom_bond_atom_site_label_2
_geom_bond_distance
_geom_bond_site_symmetry_2
Np0 O3 1.804709 1_555
Np1 O0 1.804709 1_555
Fe0 O4 1.661072 1_455
Fe0 O1 1.661072 1_554
Fe1 O2 1.661072 1_545
Fe1 O5 1.661072 1_555
F0 Fe0 2.074783 1_655
F0 Np1 2.183214 1_655
F1 Fe1 2.074783 1_555
F1 Np1 2.183214 1_545
F2 Np0 2.124122 1_465
F2 Fe0 2.206150 1_556
F3 Np0 2.124122 1_465
F3 Fe1 2.206150 1_565
F4 Fe0 2.074783 1_556
F4 Np0 2.183214 1_455
F5 Fe1 2.074783 1_565
F5 Np0 2.183214 1_565
F6 Np1 2.040388 1_555
F7 Np1 2.040388 1_555
F8 Np1 2.124122 1_645
F8 Fe0 2.206150 1_655
F9 Np1 2.124122 1_645
F9 Fe1 2.206150 1_555
F10 Np0 2.040388 1_555
F11 Np0 2.040388 1_555
