# generated using pymatgen
data_Ba3SrZn2(WO6)2
_symmetry_space_group_name_H-M   'P 1'
_cell_length_a   10.06097224
_cell_length_b   10.06097224
_cell_length_c   10.06097238
_cell_angle_alpha   33.56802308
_cell_angle_beta   33.56802308
_cell_angle_gamma   33.56802223
_symmetry_Int_Tables_number   1
_chemical_formula_structural   Ba3SrZn2(WO6)2
_chemical_formula_sum   'Ba3 Sr1 Zn2 W2 O12'
_cell_volume   277.33546759
_cell_formula_units_Z   1
loop_
 _symmetry_equiv_pos_site_id
 _symmetry_equiv_pos_as_xyz
  1  'x, y, z'
loop_
 _atom_site_type_symbol
 _atom_site_label
 _atom_site_symmetry_multiplicity
 _atom_site_fract_x
 _atom_site_fract_y
 _atom_site_fract_z
 _atom_site_occupancy
  Ba  Ba0  1  0.12498800  0.12498800  0.12498800  1
  Ba  Ba1  1  0.87517300  0.87517300  0.87517300  1
  Ba  Ba2  1  0.37482000  0.37482000  0.37482000  1
  Sr  Sr0  1  0.62500400  0.62500400  0.62500400  1
  Zn  Zn0  1  0.25014100  0.25014100  0.25014100  1
  Zn  Zn1  1  0.74984900  0.74984900  0.74984900  1
  W  W0  1  0.99961400  0.99961400  0.99961400  1
  W  W1  1  0.50038400  0.50038400  0.50038400  1
  O  O0  1  0.64128200  0.11943900  0.11943900  1
  O  O1  1  0.14246800  0.61931500  0.61931500  1
  O  O2  1  0.11943900  0.11943900  0.64128200  1
  O  O3  1  0.61931500  0.61931500  0.14246800  1
  O  O4  1  0.38206000  0.85719400  0.38206000  1
  O  O5  1  0.87915800  0.35913900  0.87915800  1
  O  O6  1  0.38206000  0.38206000  0.85719400  1
  O  O7  1  0.87915800  0.87915800  0.35913900  1
  O  O8  1  0.11943900  0.64128200  0.11943900  1
  O  O9  1  0.61931500  0.14246800  0.61931500  1
  O  O10  1  0.85719400  0.38206000  0.38206000  1
  O  O11  1  0.35913900  0.87915800  0.87915800  1
loop_
_geom_bond_atom_site_label_1
_geom_bond_atom_site_label_2
_geom_bond_distance
_geom_bond_site_symmetry_2
Ba0 O3 2.906873 1_545
Ba0 O3 2.906873 1_455
Ba0 O1 2.906873 1_545
Ba0 O9 2.906873 1_455
Ba0 O9 2.906873 1_554
Ba0 O1 2.906873 1_554
Ba0 O7 2.925517 1_445
Ba0 O11 2.925517 1_544
Ba0 O5 2.925517 1_454
Ba0 O6 2.925812 1_554
Ba0 O10 2.925812 1_455
Ba0 O4 2.925812 1_545
Ba1 O2 2.899454 1_665
Ba1 O8 2.899454 1_656
Ba1 O0 2.899454 1_566
Ba1 O6 2.906724 1_565
Ba1 O6 2.906724 1_655
Ba1 O4 2.906724 1_655
Ba1 O10 2.906724 1_565
Ba1 O10 2.906724 1_556
Ba1 O4 2.906724 1_556
Ba1 O3 2.907748 1_556
Ba1 O9 2.907748 1_565
Ba1 O1 2.907748 1_655
Ba2 O2 2.904182 1_555
Ba2 O0 2.904182 1_555
Ba2 O8 2.904182 1_555
Ba2 O7 2.906789 1_455
Ba2 O7 2.906789 1_545
Ba2 O11 2.906789 1_554
Ba2 O5 2.906789 1_554
Ba2 O11 2.906789 1_545
Ba2 O5 2.906789 1_455
Ba2 O3 2.912836 1_555
Ba2 O9 2.912836 1_555
Ba2 O1 2.912836 1_555
O0 W0 1.959668 1_544
O0 Zn0 2.139865 1_555
O0 Sr0 2.906587 1_554
O0 Sr0 2.906587 1_545
O1 W1 1.963591 1_555
O1 Zn1 2.153386 1_455
O2 W0 1.959668 1_445
O2 Zn0 2.139865 1_555
O2 Sr0 2.906587 1_455
O2 Sr0 2.906587 1_545
O3 W1 1.963591 1_555
O3 Zn1 2.153386 1_554
O4 W1 1.959508 1_555
O4 Zn0 2.144763 1_565
O4 Sr0 2.886394 1_555
O5 W0 1.964305 1_545
O5 Zn1 2.147815 1_555
O5 Sr0 2.886445 1_555
O6 W1 1.959508 1_555
O6 Zn0 2.144763 1_556
O6 Sr0 2.886394 1_555
O7 W0 1.964305 1_554
O7 Zn1 2.147815 1_555
O7 Sr0 2.886445 1_555
O8 W0 1.959668 1_454
O8 Zn0 2.139865 1_555
O8 Sr0 2.906587 1_554
O8 Sr0 2.906587 1_455
O9 W1 1.963591 1_555
O9 Zn1 2.153386 1_545
O10 W1 1.959508 1_555
O10 Zn0 2.144763 1_655
O10 Sr0 2.886394 1_555
O11 W0 1.964305 1_455
O11 Zn1 2.147815 1_555
O11 Sr0 2.886445 1_555
