# generated using pymatgen
data_Al2O3
_symmetry_space_group_name_H-M   'P 1'
_cell_length_a   10.68917266
_cell_length_b   10.55568000
_cell_length_c   10.08483131
_cell_angle_alpha   96.49248425
_cell_angle_beta   92.99268557
_cell_angle_gamma   88.60639423
_symmetry_Int_Tables_number   1
_chemical_formula_structural   Al2O3
_chemical_formula_sum   'Al40 O60'
_cell_volume   1128.85249343
_cell_formula_units_Z   20
loop_
 _symmetry_equiv_pos_site_id
 _symmetry_equiv_pos_as_xyz
  1  'x, y, z'
loop_
 _atom_site_type_symbol
 _atom_site_label
 _atom_site_symmetry_multiplicity
 _atom_site_fract_x
 _atom_site_fract_y
 _atom_site_fract_z
 _atom_site_occupancy
  Al  Al0  1  0.34503600  0.59966300  0.39461100  1
  Al  Al1  1  0.51164900  0.96329300  0.97913800  1
  Al  Al2  1  0.03099700  0.79009200  0.52742500  1
  Al  Al3  1  0.09639900  0.62214800  0.87714700  1
  Al  Al4  1  0.31317400  0.15958400  0.77798400  1
  Al  Al5  1  0.87065000  0.18008400  0.73026900  1
  Al  Al6  1  0.08961800  0.22727100  0.54129800  1
  Al  Al7  1  0.75785600  0.02547900  0.12974600  1
  Al  Al8  1  0.34439400  0.89849100  0.23282200  1
  Al  Al9  1  0.12405500  0.52593000  0.55445000  1
  Al  Al10  1  0.87551000  0.47657600  0.02849500  1
  Al  Al11  1  0.66730600  0.23768900  0.96477800  1
  Al  Al12  1  0.74212600  0.16232000  0.41985000  1
  Al  Al13  1  0.51788400  0.80136300  0.68525900  1
  Al  Al14  1  0.99660200  0.89408100  0.83175200  1
  Al  Al15  1  0.91650800  0.27833700  0.20759000  1
  Al  Al16  1  0.96546400  0.41041100  0.79369500  1
  Al  Al17  1  0.04591100  0.04284400  0.19323100  1
  Al  Al18  1  0.47382400  0.00232200  0.54357900  1
  Al  Al19  1  0.29934100  0.09307000  0.05830800  1
  Al  Al20  1  0.45913500  0.28284700  0.39354500  1
  Al  Al21  1  0.73247700  0.81939600  0.87587000  1
  Al  Al22  1  0.61835400  0.64796300  0.33113600  1
  Al  Al23  1  0.82191500  0.87488800  0.32580600  1
  Al  Al24  1  0.26135700  0.79176800  0.63958900  1
  Al  Al25  1  0.21317100  0.02188600  0.46589600  1
  Al  Al26  1  0.77592300  0.93582500  0.61138900  1
  Al  Al27  1  0.44130100  0.34553300  0.12488000  1
  Al  Al28  1  0.69312400  0.40857400  0.25603600  1
  Al  Al29  1  0.65262700  0.53782600  0.79240300  1
  Al  Al30  1  0.24867100  0.60658900  0.12892100  1
  Al  Al31  1  0.56805700  0.52749600  0.53308800  1
  Al  Al32  1  0.41188100  0.68411400  0.91812400  1
  Al  Al33  1  0.20919600  0.30387900  0.29657300  1
  Al  Al34  1  0.04484500  0.13632500  0.91396300  1
  Al  Al35  1  0.05183300  0.55708800  0.28187600  1
  Al  Al36  1  0.40152500  0.41609700  0.89584800  1
  Al  Al37  1  0.95740000  0.75391600  0.09681000  1
  Al  Al38  1  0.67276500  0.69743000  0.08870700  1
  Al  Al39  1  0.58771500  0.24233000  0.66239100  1
  O  O0  1  0.36906700  0.98080800  0.39789100  1
  O  O1  1  0.39098200  0.05405400  0.90261200  1
  O  O2  1  0.87757300  0.85282500  0.49136300  1
  O  O3  1  0.61019400  0.65100200  0.66549100  1
  O  O4  1  0.02776600  0.49463200  0.95086000  1
  O  O5  1  0.96389500  0.28939700  0.64718900  1
  O  O6  1  0.31146300  0.22398600  0.40534200  1
  O  O7  1  0.76507400  0.34294100  0.08586800  1
  O  O8  1  0.95618300  0.88512100  0.22860800  1
  O  O9  1  0.61802300  0.55243600  0.17175100  1
  O  O10  1  0.43084100  0.99284800  0.13298100  1
  O  O11  1  0.07002300  0.09655800  0.40400200  1
  O  O12  1  0.70629000  0.20691100  0.79137900  1
  O  O13  1  0.60496000  0.40895700  0.65567100  1
  O  O14  1  0.61599300  0.90921700  0.57000500  1
  O  O15  1  0.49427900  0.53998200  0.86301600  1
  O  O16  1  0.99555600  0.75379700  0.92648900  1
  O  O17  1  0.64065200  0.08990400  0.02881400  1
  O  O18  1  0.80577500  0.46179800  0.84310400  1
  O  O19  1  0.32033100  0.24885600  0.15802700  1
  O  O20  1  0.55257900  0.31423200  0.25196500  1
  O  O21  1  0.97788300  0.04950900  0.75814400  1
  O  O22  1  0.32797000  0.72246300  0.24844500  1
  O  O23  1  0.51659200  0.31101300  0.97008300  1
  O  O24  1  0.58966500  0.89251900  0.83143600  1
  O  O25  1  0.38764300  0.89347800  0.61897000  1
  O  O26  1  0.68908600  0.51817100  0.41130100  1
  O  O27  1  0.21846200  0.49723000  0.28368000  1
  O  O28  1  0.11873800  0.37117100  0.46491800  1
  O  O29  1  0.24866700  0.65514500  0.95790300  1
  O  O30  1  0.73804700  0.02094200  0.30639100  1
  O  O31  1  0.35588200  0.47699500  0.06688700  1
  O  O32  1  0.02261900  0.62530400  0.44991800  1
  O  O33  1  0.06652600  0.52964000  0.71649400  1
  O  O34  1  0.83281000  0.86460000  0.75763600  1
  O  O35  1  0.25565700  0.62933000  0.54436200  1
  O  O36  1  0.88951100  0.11663400  0.14601400  1
  O  O37  1  0.49467300  0.67238400  0.43890800  1
  O  O38  1  0.20163500  0.16468400  0.92392100  1
  O  O39  1  0.69567300  0.66868500  0.90976700  1
  O  O40  1  0.08786900  0.66291200  0.16577900  1
  O  O41  1  0.07960900  0.22797600  0.20275800  1
  O  O42  1  0.20443500  0.12491800  0.62450300  1
  O  O43  1  0.46169700  0.13839000  0.66859400  1
  O  O44  1  0.79739100  0.09957200  0.57323700  1
  O  O45  1  0.20773900  0.98959000  0.17544900  1
  O  O46  1  0.69744800  0.77220300  0.27426800  1
  O  O47  1  0.80174400  0.28808800  0.33903700  1
  O  O48  1  0.37607200  0.74484400  0.76873700  1
  O  O49  1  0.16698400  0.86364100  0.48900400  1
  O  O50  1  0.09638600  0.80075500  0.70416300  1
  O  O51  1  0.03222300  0.99381800  0.98999600  1
  O  O52  1  0.94812600  0.44406000  0.20291300  1
  O  O53  1  0.51087900  0.77492000  0.03910500  1
  O  O54  1  0.31145500  0.32923600  0.77994600  1
  O  O55  1  0.94151000  0.26608200  0.89208100  1
  O  O56  1  0.84149900  0.63689100  0.10519700  1
  O  O57  1  0.58660500  0.19862500  0.47713800  1
  O  O58  1  0.43276100  0.45031800  0.44381100  1
  O  O59  1  0.76841600  0.86824400  0.04882200  1
loop_
_geom_bond_atom_site_label_1
_geom_bond_atom_site_label_2
_geom_bond_distance
_geom_bond_site_symmetry_2
Al0 O37 1.804094 1_555
Al0 O35 1.822287 1_555
Al0 O58 1.914953 1_555
Al0 O27 1.972494 1_555
Al0 O22 2.068547 1_555
Al1 O1 1.783332 1_565
Al1 O10 1.807729 1_556
Al1 O24 1.822100 1_555
Al1 O17 1.950557 1_566
Al1 O53 2.143084 1_556
Al2 O49 1.745714 1_555
Al2 O2 1.788753 1_455
Al2 O32 1.826873 1_555
Al2 O50 1.872548 1_555
Al3 O16 1.779725 1_455
Al3 O4 1.798293 1_555
Al3 O29 1.805198 1_555
Al3 O33 1.812118 1_555
Al4 O54 1.788321 1_555
Al4 O42 1.893525 1_555
Al4 O1 1.916944 1_555
Al4 O38 1.937166 1_555
Al4 O43 1.974152 1_555
Al5 O21 1.808241 1_555
Al5 O5 1.840820 1_555
Al5 O44 1.855238 1_555
Al5 O12 1.896309 1_555
Al5 O55 1.905271 1_555
Al6 O28 1.819367 1_555
Al6 O5 1.823474 1_455
Al6 O42 1.846789 1_555
Al6 O11 1.848377 1_555
Al7 O36 1.714425 1_555
Al7 O17 1.746436 1_555
Al7 O59 1.768513 1_545
Al7 O30 1.811025 1_555
Al8 O10 1.796774 1_555
Al8 O0 1.798321 1_555
Al8 O45 1.833699 1_555
Al8 O22 1.895553 1_555
Al9 O33 1.771873 1_555
Al9 O28 1.775580 1_555
Al9 O35 1.815273 1_555
Al9 O32 1.860823 1_555
Al10 O56 1.815925 1_555
Al10 O4 1.865456 1_654
Al10 O52 1.948155 1_555
Al10 O18 1.967153 1_554
Al10 O7 2.013700 1_555
Al11 O23 1.770945 1_555
Al11 O17 1.788962 1_556
Al11 O12 1.810571 1_555
Al11 O7 1.853145 1_556
Al12 O30 1.774826 1_555
Al12 O47 1.781237 1_555
Al12 O57 1.806492 1_555
Al12 O44 1.815977 1_555
Al13 O24 1.812395 1_555
Al13 O25 1.820565 1_555
Al13 O3 1.845331 1_555
Al13 O48 1.911358 1_555
Al13 O14 2.057057 1_555
Al14 O51 1.837452 1_655
Al14 O16 1.851361 1_555
Al14 O21 1.877965 1_565
Al14 O34 1.886287 1_555
Al14 O50 1.889255 1_655
Al15 O36 1.774232 1_555
Al15 O52 1.796009 1_555
Al15 O41 1.811738 1_655
Al15 O47 1.845410 1_555
Al15 O7 2.126088 1_555
Al16 O4 1.829190 1_655
Al16 O5 1.840275 1_555
Al16 O18 1.854404 1_555
Al16 O33 1.931996 1_655
Al16 O55 1.938661 1_555
Al17 O45 1.817328 1_545
Al17 O36 1.888311 1_455
Al17 O41 1.986459 1_555
Al17 O8 2.016612 1_445
Al17 O51 2.054883 1_544
Al17 O11 2.140886 1_555
Al18 O25 1.751817 1_545
Al18 O0 1.797008 1_545
Al18 O43 1.807689 1_555
Al18 O14 1.813996 1_545
Al19 O19 1.840168 1_555
Al19 O38 1.882670 1_554
Al19 O1 1.894553 1_554
Al19 O10 1.912949 1_545
Al19 O45 2.003012 1_545
Al20 O6 1.725067 1_555
Al20 O58 1.802633 1_555
Al20 O57 1.829811 1_555
Al20 O20 1.848799 1_555
Al21 O39 1.723346 1_555
Al21 O24 1.753962 1_555
Al21 O34 1.756906 1_555
Al21 O59 1.786599 1_556
Al22 O46 1.743046 1_555
Al22 O37 1.750894 1_555
Al22 O9 1.798186 1_555
Al22 O26 1.799589 1_555
Al23 O46 1.756598 1_555
Al23 O2 1.781369 1_555
Al23 O30 1.789290 1_565
Al23 O8 1.791851 1_555
Al24 O25 1.779999 1_555
Al24 O48 1.842512 1_555
Al24 O35 1.868842 1_555
Al24 O50 1.908003 1_555
Al24 O49 1.990672 1_555
Al25 O49 1.796771 1_545
Al25 O11 1.817986 1_555
Al25 O42 1.835012 1_555
Al25 O0 1.858006 1_545
Al26 O14 1.760077 1_555
Al26 O34 1.801428 1_555
Al26 O2 1.806809 1_555
Al26 O44 1.834988 1_565
Al27 O19 1.735408 1_555
Al27 O20 1.756146 1_555
Al27 O31 1.779748 1_555
Al27 O23 1.790473 1_554
Al28 O20 1.818629 1_555
Al28 O26 1.840376 1_555
Al28 O47 1.932268 1_555
Al28 O9 1.958143 1_555
Al28 O7 1.964572 1_555
Al29 O39 1.767751 1_555
Al29 O15 1.868924 1_555
Al29 O18 1.877987 1_555
Al29 O3 1.878785 1_555
Al29 O13 1.883509 1_555
Al30 O22 1.810472 1_555
Al30 O31 1.838765 1_555
Al30 O40 1.847450 1_555
Al30 O29 1.853954 1_554
Al30 O27 2.085867 1_555
Al31 O3 1.804854 1_555
Al31 O58 1.822437 1_555
Al31 O26 1.823240 1_555
Al31 O13 1.877338 1_555
Al31 O37 2.012162 1_555
Al32 O48 1.724349 1_555
Al32 O53 1.782469 1_556
Al32 O15 1.787183 1_555
Al32 O29 1.850653 1_555
Al33 O6 1.774416 1_555
Al33 O41 1.789271 1_555
Al33 O19 1.912322 1_555
Al33 O28 2.046230 1_555
Al33 O27 2.064797 1_555
Al34 O38 1.705448 1_555
Al34 O55 1.764676 1_455
Al34 O51 1.774955 1_545
Al34 O21 1.846684 1_455
Al35 O52 1.744638 1_455
Al35 O40 1.769397 1_555
Al35 O32 1.804520 1_555
Al35 O27 1.875218 1_555
Al36 O54 1.678358 1_555
Al36 O15 1.731457 1_555
Al36 O23 1.824551 1_555
Al36 O31 1.856986 1_556
Al37 O56 1.782390 1_555
Al37 O16 1.785871 1_554
Al37 O8 1.808198 1_555
Al37 O40 1.826505 1_655
Al37 O59 2.383852 1_555
Al38 O39 1.824071 1_554
Al38 O56 1.904137 1_555
Al38 O9 1.941865 1_555
Al38 O46 1.954248 1_555
Al38 O53 1.961368 1_555
Al38 O59 2.180550 1_555
Al39 O43 1.765888 1_555
Al39 O13 1.782189 1_555
Al39 O12 1.831167 1_555
Al39 O57 1.872525 1_555
