# generated using pymatgen
data_MnGaN2
_symmetry_space_group_name_H-M   'P 1'
_cell_length_a   5.28954400
_cell_length_b   10.83495100
_cell_length_c   13.12858600
_cell_angle_alpha   90.00000000
_cell_angle_beta   90.00000000
_cell_angle_gamma   90.00000000
_symmetry_Int_Tables_number   1
_chemical_formula_structural   MnGaN2
_chemical_formula_sum   'Mn16 Ga16 N32'
_cell_volume   752.42486509
_cell_formula_units_Z   16
loop_
 _symmetry_equiv_pos_site_id
 _symmetry_equiv_pos_as_xyz
  1  'x, y, z'
loop_
 _atom_site_type_symbol
 _atom_site_label
 _atom_site_symmetry_multiplicity
 _atom_site_fract_x
 _atom_site_fract_y
 _atom_site_fract_z
 _atom_site_occupancy
  Mn  Mn0  1  0.65084400  0.95381300  0.44023300  1
  Mn  Mn1  1  0.15084400  0.54618700  0.55976700  1
  Mn  Mn2  1  0.34915600  0.45381300  0.05976700  1
  Mn  Mn3  1  0.84915600  0.04618700  0.94023300  1
  Mn  Mn4  1  0.34915600  0.04618700  0.55976700  1
  Mn  Mn5  1  0.84915600  0.45381300  0.44023300  1
  Mn  Mn6  1  0.65084400  0.54618700  0.94023300  1
  Mn  Mn7  1  0.15084400  0.95381300  0.05976700  1
  Mn  Mn8  1  0.81096100  0.29963400  0.30689600  1
  Mn  Mn9  1  0.31096100  0.20036600  0.69310400  1
  Mn  Mn10  1  0.18903900  0.79963400  0.19310400  1
  Mn  Mn11  1  0.68903900  0.70036600  0.80689600  1
  Mn  Mn12  1  0.18903900  0.70036600  0.69310400  1
  Mn  Mn13  1  0.68903900  0.79963400  0.30689600  1
  Mn  Mn14  1  0.81096100  0.20036600  0.80689600  1
  Mn  Mn15  1  0.31096100  0.29963400  0.19310400  1
  Ga  Ga0  1  0.62242800  0.04387300  0.18474100  1
  Ga  Ga1  1  0.12242800  0.45612700  0.81525900  1
  Ga  Ga2  1  0.37757200  0.54387300  0.31525900  1
  Ga  Ga3  1  0.87757200  0.95612700  0.68474100  1
  Ga  Ga4  1  0.37757200  0.95612700  0.81525900  1
  Ga  Ga5  1  0.87757200  0.54387300  0.18474100  1
  Ga  Ga6  1  0.62242800  0.45612700  0.68474100  1
  Ga  Ga7  1  0.12242800  0.04387300  0.31525900  1
  Ga  Ga8  1  0.81307400  0.29273100  0.06331500  1
  Ga  Ga9  1  0.31307400  0.20726900  0.93668500  1
  Ga  Ga10  1  0.18692600  0.79273100  0.43668500  1
  Ga  Ga11  1  0.68692600  0.70726900  0.56331500  1
  Ga  Ga12  1  0.18692600  0.70726900  0.93668500  1
  Ga  Ga13  1  0.68692600  0.79273100  0.06331500  1
  Ga  Ga14  1  0.81307400  0.20726900  0.56331500  1
  Ga  Ga15  1  0.31307400  0.29273100  0.43668500  1
  N  N0  1  0.72014600  0.47630100  0.30724000  1
  N  N1  1  0.22014600  0.02369900  0.69276000  1
  N  N2  1  0.27985400  0.97630100  0.19276000  1
  N  N3  1  0.77985400  0.52369900  0.80724000  1
  N  N4  1  0.27985400  0.52369900  0.69276000  1
  N  N5  1  0.77985400  0.97630100  0.30724000  1
  N  N6  1  0.72014600  0.02369900  0.80724000  1
  N  N7  1  0.22014600  0.47630100  0.19276000  1
  N  N8  1  0.68330900  0.29429200  0.44455700  1
  N  N9  1  0.18330900  0.20570800  0.55544300  1
  N  N10  1  0.31669100  0.79429200  0.05544300  1
  N  N11  1  0.81669100  0.70570800  0.94455700  1
  N  N12  1  0.31669100  0.70570800  0.55544300  1
  N  N13  1  0.81669100  0.79429200  0.44455700  1
  N  N14  1  0.68330900  0.20570800  0.94455700  1
  N  N15  1  0.18330900  0.29429200  0.05544300  1
  N  N16  1  0.70686500  0.46882600  0.06779900  1
  N  N17  1  0.20686500  0.03117400  0.93220100  1
  N  N18  1  0.29313500  0.96882600  0.43220100  1
  N  N19  1  0.79313500  0.53117400  0.56779900  1
  N  N20  1  0.29313500  0.53117400  0.93220100  1
  N  N21  1  0.79313500  0.96882600  0.06779900  1
  N  N22  1  0.70686500  0.03117400  0.56779900  1
  N  N23  1  0.20686500  0.46882600  0.43220100  1
  N  N24  1  0.64736200  0.22250000  0.18458500  1
  N  N25  1  0.14736200  0.27750000  0.81541500  1
  N  N26  1  0.35263800  0.72250000  0.31541500  1
  N  N27  1  0.85263800  0.77750000  0.68458500  1
  N  N28  1  0.35263800  0.77750000  0.81541500  1
  N  N29  1  0.85263800  0.72250000  0.18458500  1
  N  N30  1  0.64736200  0.27750000  0.68458500  1
  N  N31  1  0.14736200  0.22250000  0.31541500  1
loop_
_geom_bond_atom_site_label_1
_geom_bond_atom_site_label_2
_geom_bond_distance
_geom_bond_site_symmetry_2
Mn0 N5 1.890395 1_555
Mn0 N22 1.896106 1_565
Mn0 N18 1.902022 1_555
Mn0 N13 1.939117 1_555
Mn1 N4 1.890395 1_555
Mn1 N23 1.896106 1_555
Mn1 N19 1.902022 1_455
Mn1 N12 1.939117 1_555
Mn2 N7 1.890395 1_555
Mn2 N20 1.896106 1_554
Mn2 N16 1.902022 1_555
Mn2 N15 1.939117 1_555
Mn3 N6 1.890395 1_555
Mn3 N21 1.896106 1_546
Mn3 N17 1.902022 1_655
Mn3 N14 1.939117 1_555
Mn4 N1 1.890395 1_555
Mn4 N18 1.896106 1_545
Mn4 N22 1.902022 1_555
Mn4 N9 1.939117 1_555
Mn5 N0 1.890395 1_555
Mn5 N19 1.896106 1_555
Mn5 N23 1.902022 1_655
Mn5 N8 1.939117 1_555
Mn6 N3 1.890395 1_555
Mn6 N16 1.896106 1_556
Mn6 N20 1.902022 1_555
Mn6 N11 1.939117 1_555
Mn7 N2 1.890395 1_555
Mn7 N17 1.896106 1_564
Mn7 N21 1.902022 1_455
Mn7 N10 1.939117 1_555
Mn8 N8 1.930178 1_555
Mn8 N31 1.969078 1_655
Mn8 N0 1.973538 1_555
Mn8 N24 2.006445 1_555
Mn9 N9 1.930178 1_555
Mn9 N30 1.969078 1_555
Mn9 N1 1.973538 1_555
Mn9 N25 2.006445 1_555
Mn10 N10 1.930178 1_555
Mn10 N29 1.969078 1_455
Mn10 N2 1.973538 1_555
Mn10 N26 2.006445 1_555
Mn11 N11 1.930178 1_555
Mn11 N28 1.969078 1_555
Mn11 N3 1.973538 1_555
Mn11 N27 2.006445 1_555
Mn12 N12 1.930178 1_555
Mn12 N27 1.969078 1_455
Mn12 N4 1.973538 1_555
Mn12 N28 2.006445 1_555
Mn13 N13 1.930178 1_555
Mn13 N26 1.969078 1_555
Mn13 N5 1.973538 1_555
Mn13 N29 2.006445 1_555
Mn14 N14 1.930178 1_555
Mn14 N25 1.969078 1_655
Mn14 N6 1.973538 1_555
Mn14 N30 2.006445 1_555
Mn15 N15 1.930178 1_555
Mn15 N24 1.969078 1_555
Mn15 N7 1.973538 1_555
Mn15 N31 2.006445 1_555
Ga0 N24 1.939904 1_555
Ga0 N5 1.953425 1_545
Ga0 N2 1.957211 1_545
Ga0 N21 1.957962 1_545
Ga1 N25 1.939904 1_555
Ga1 N4 1.953425 1_555
Ga1 N3 1.957211 1_455
Ga1 N20 1.957962 1_555
Ga2 N26 1.939904 1_555
Ga2 N7 1.953425 1_555
Ga2 N0 1.957211 1_555
Ga2 N23 1.957962 1_555
Ga3 N27 1.939904 1_555
Ga3 N6 1.953425 1_565
Ga3 N1 1.957211 1_665
Ga3 N22 1.957962 1_565
Ga4 N28 1.939904 1_555
Ga4 N1 1.953425 1_565
Ga4 N6 1.957211 1_565
Ga4 N17 1.957962 1_565
Ga5 N29 1.939904 1_555
Ga5 N0 1.953425 1_555
Ga5 N7 1.957211 1_655
Ga5 N16 1.957962 1_555
Ga6 N30 1.939904 1_555
Ga6 N3 1.953425 1_555
Ga6 N4 1.957211 1_555
Ga6 N19 1.957962 1_555
Ga7 N31 1.939904 1_555
Ga7 N2 1.953425 1_545
Ga7 N5 1.957211 1_445
Ga7 N18 1.957962 1_545
Ga8 N14 1.947063 1_554
Ga8 N15 1.961172 1_655
Ga8 N24 1.970320 1_555
Ga8 N16 1.989842 1_555
Ga9 N15 1.947063 1_556
Ga9 N14 1.961172 1_555
Ga9 N25 1.970320 1_555
Ga9 N17 1.989842 1_555
Ga10 N12 1.947063 1_555
Ga10 N13 1.961172 1_455
Ga10 N26 1.970320 1_555
Ga10 N18 1.989842 1_555
Ga11 N13 1.947063 1_555
Ga11 N12 1.961172 1_555
Ga11 N27 1.970320 1_555
Ga11 N19 1.989842 1_555
Ga12 N10 1.947063 1_556
Ga12 N11 1.961172 1_455
Ga12 N28 1.970320 1_555
Ga12 N20 1.989842 1_555
Ga13 N11 1.947063 1_554
Ga13 N10 1.961172 1_555
Ga13 N29 1.970320 1_555
Ga13 N21 1.989842 1_555
Ga14 N8 1.947063 1_555
Ga14 N9 1.961172 1_655
Ga14 N30 1.970320 1_555
Ga14 N22 1.989842 1_555
Ga15 N9 1.947063 1_555
Ga15 N8 1.961172 1_555
Ga15 N31 1.970320 1_555
Ga15 N23 1.989842 1_555
