# generated using pymatgen
data_Ca3Si4(SnO7)2
_symmetry_space_group_name_H-M   'P 1'
_cell_length_a   7.52889403
_cell_length_b   10.92469187
_cell_length_c   9.07705880
_cell_angle_alpha   69.82241233
_cell_angle_beta   65.49824578
_cell_angle_gamma   69.84374526
_symmetry_Int_Tables_number   1
_chemical_formula_structural   Ca3Si4(SnO7)2
_chemical_formula_sum   'Ca6 Si8 Sn4 O28'
_cell_volume   619.66434566
_cell_formula_units_Z   2
loop_
 _symmetry_equiv_pos_site_id
 _symmetry_equiv_pos_as_xyz
  1  'x, y, z'
loop_
 _atom_site_type_symbol
 _atom_site_label
 _atom_site_symmetry_multiplicity
 _atom_site_fract_x
 _atom_site_fract_y
 _atom_site_fract_z
 _atom_site_occupancy
  Ca  Ca0  1  0.78292300  0.00361600  0.46670300  1
  Ca  Ca1  1  0.25324300  0.49638300  0.03329700  1
  Ca  Ca2  1  0.74675700  0.50361700  0.96670300  1
  Ca  Ca3  1  0.68352200  0.25000000  0.75000000  1
  Ca  Ca4  1  0.21707700  0.99638300  0.53329700  1
  Ca  Ca5  1  0.31647800  0.75000000  0.25000000  1
  Si  Si0  1  0.45898500  0.29237600  0.31793100  1
  Si  Si1  1  0.93070800  0.79237600  0.81793100  1
  Si  Si2  1  0.51272500  0.92161400  0.82728800  1
  Si  Si3  1  0.73837400  0.42161400  0.32728800  1
  Si  Si4  1  0.06929200  0.20762400  0.18206900  1
  Si  Si5  1  0.48727500  0.07838600  0.17271200  1
  Si  Si6  1  0.26162600  0.57838600  0.67271200  1
  Si  Si7  1  0.54101500  0.70762400  0.68206900  1
  Sn  Sn0  1  0.19536400  0.25000000  0.75000000  1
  Sn  Sn1  1  0.80463600  0.75000000  0.25000000  1
  Sn  Sn2  1  0.00000000  0.00000000  0.00000000  1
  Sn  Sn3  1  0.00000000  0.50000000  0.50000000  1
  O  O0  1  0.20641900  0.58329300  0.51535000  1
  O  O1  1  0.08347600  0.60293300  0.25682900  1
  O  O2  1  0.41433600  0.94049600  0.26885200  1
  O  O3  1  0.05676200  0.10293300  0.75682900  1
  O  O4  1  0.77064300  0.67399000  0.55197400  1
  O  O5  1  0.95700800  0.37320100  0.17204000  1
  O  O6  1  0.37631500  0.44049600  0.76885200  1
  O  O7  1  0.99660600  0.82601000  0.94802600  1
  O  O8  1  0.04299200  0.62679900  0.82796000  1
  O  O9  1  0.38113700  0.70250700  0.60264700  1
  O  O10  1  0.91652400  0.39706700  0.74317100  1
  O  O11  1  0.22935700  0.32601000  0.44802600  1
  O  O12  1  0.50225100  0.12679900  0.32796000  1
  O  O13  1  0.69493700  0.08329300  0.01535000  1
  O  O14  1  0.31371000  0.20250700  0.10264700  1
  O  O15  1  0.00339400  0.17399000  0.05197300  1
  O  O16  1  0.01277800  0.12290800  0.37168400  1
  O  O17  1  0.61886300  0.29749300  0.39735300  1
  O  O18  1  0.50736900  0.37709200  0.12831600  1
  O  O19  1  0.68629000  0.79749300  0.89735300  1
  O  O20  1  0.49774900  0.87320100  0.67204000  1
  O  O21  1  0.94323800  0.89706700  0.24317100  1
  O  O22  1  0.49263100  0.62290800  0.87168400  1
  O  O23  1  0.58566400  0.05950400  0.73114800  1
  O  O24  1  0.98722200  0.87709200  0.62831600  1
  O  O25  1  0.62368500  0.55950400  0.23114800  1
  O  O26  1  0.30506300  0.91670700  0.98465000  1
  O  O27  1  0.79358100  0.41670700  0.48465000  1
loop_
_geom_bond_atom_site_label_1
_geom_bond_atom_site_label_2
_geom_bond_distance
_geom_bond_site_symmetry_2
Ca0 O16 2.231132 1_655
Ca0 O24 2.331520 1_545
Ca0 O21 2.357631 1_545
Ca0 O23 2.401982 1_555
Ca0 O12 2.634544 1_555
Ca0 O20 2.659062 1_545
Ca0 O17 2.957557 1_555
Ca1 O18 2.231118 1_555
Ca1 O22 2.331527 1_554
Ca1 O1 2.357637 1_555
Ca1 O6 2.401978 1_554
Ca1 O5 2.634556 1_455
Ca1 O8 2.659058 1_554
Ca1 O14 2.957546 1_555
Ca2 O22 2.231118 1_555
Ca2 O18 2.331527 1_556
Ca2 O10 2.357637 1_555
Ca2 O25 2.401978 1_556
Ca2 O8 2.634556 1_655
Ca2 O5 2.659058 1_556
Ca2 O19 2.957546 1_555
Ca3 O13 2.482592 1_556
Ca3 O27 2.482593 1_555
Ca3 O23 2.511981 1_555
Ca3 O6 2.511986 1_555
Ca3 O3 2.728751 1_655
Ca3 O10 2.728751 1_555
Ca4 O24 2.231124 1_455
Ca4 O16 2.331522 1_565
Ca4 O3 2.357637 1_565
Ca4 O2 2.401977 1_555
Ca4 O20 2.634544 1_555
Ca4 O12 2.659068 1_565
Ca4 O9 2.957547 1_555
Ca5 O26 2.482592 1_554
Ca5 O0 2.482593 1_555
Ca5 O2 2.511981 1_555
Ca5 O25 2.511986 1_555
Ca5 O21 2.728751 1_455
Ca5 O1 2.728751 1_555
O0 Si6 1.624864 1_555
O0 Sn3 2.122340 1_555
O1 Sn3 2.038554 1_555
O1 Sn1 2.169613 1_455
O2 Si5 1.611863 1_565
O3 Sn2 2.038554 1_556
O3 Sn0 2.169613 1_555
O4 Si7 1.639080 1_555
O4 Sn3 2.120919 1_655
O4 Sn1 2.502540 1_555
O5 Si4 1.700401 1_655
O5 Si3 1.722002 1_555
O6 Si6 1.611863 1_555
O7 Si1 1.639075 1_555
O7 Sn2 2.120922 1_666
O7 Sn1 2.502538 1_556
O8 Si1 1.700401 1_455
O8 Si6 1.722002 1_555
O9 Si7 1.663038 1_555
O9 Si6 1.680492 1_555
O10 Sn3 2.038554 1_655
O10 Sn0 2.169613 1_655
O11 Si0 1.639080 1_555
O11 Sn3 2.120919 1_555
O11 Sn0 2.502540 1_555
O12 Si0 1.700399 1_555
O12 Si5 1.722014 1_555
O13 Si5 1.624863 1_555
O13 Sn2 2.122347 1_655
O14 Si4 1.663045 1_555
O14 Si5 1.680482 1_555
O15 Si4 1.639084 1_555
O15 Sn2 2.120917 1_555
O15 Sn0 2.502532 1_554
O16 Si4 1.601561 1_555
O17 Si0 1.663038 1_555
O17 Si3 1.680492 1_555
O18 Si0 1.601561 1_555
O19 Si1 1.663045 1_555
O19 Si2 1.680482 1_555
O20 Si7 1.700399 1_555
O20 Si2 1.722014 1_555
O21 Sn2 2.038554 1_665
O21 Sn1 2.169613 1_555
O22 Si7 1.601561 1_555
O23 Si2 1.611863 1_545
O24 Si1 1.601561 1_555
O25 Si3 1.611863 1_555
O26 Si2 1.624863 1_555
O26 Sn2 2.122347 1_566
O27 Si3 1.624864 1_555
O27 Sn3 2.122340 1_655
