# generated using pymatgen
data_Cs4BiAs3Se7
_symmetry_space_group_name_H-M   'P 1'
_cell_length_a   13.74845035
_cell_length_b   14.29513307
_cell_length_c   24.27285753
_cell_angle_alpha   90.00000000
_cell_angle_beta   90.00000000
_cell_angle_gamma   98.41237695
_symmetry_Int_Tables_number   1
_chemical_formula_structural   Cs4BiAs3Se7
_chemical_formula_sum   'Cs32 Bi8 As24 Se56'
_cell_volume   4719.16169907
_cell_formula_units_Z   8
loop_
 _symmetry_equiv_pos_site_id
 _symmetry_equiv_pos_as_xyz
  1  'x, y, z'
loop_
 _atom_site_type_symbol
 _atom_site_label
 _atom_site_symmetry_multiplicity
 _atom_site_fract_x
 _atom_site_fract_y
 _atom_site_fract_z
 _atom_site_occupancy
  Cs  Cs0  1  0.23383832  0.90731792  0.72604384  1
  Cs  Cs1  1  0.73383832  0.40731792  0.77395616  1
  Cs  Cs2  1  0.76616168  0.09268208  0.27395616  1
  Cs  Cs3  1  0.26616168  0.59268208  0.22604384  1
  Cs  Cs4  1  0.53808604  0.39446397  0.07354671  1
  Cs  Cs5  1  0.03808604  0.89446397  0.42645329  1
  Cs  Cs6  1  0.46191396  0.60553603  0.92645329  1
  Cs  Cs7  1  0.96191396  0.10553603  0.57354671  1
  Cs  Cs8  1  0.54989732  0.11266885  0.68679183  1
  Cs  Cs9  1  0.04989732  0.61266885  0.81320817  1
  Cs  Cs10  1  0.45010268  0.88733115  0.31320817  1
  Cs  Cs11  1  0.95010268  0.38733115  0.18679183  1
  Cs  Cs12  1  0.84286236  0.57496692  0.02159370  1
  Cs  Cs13  1  0.34286236  0.07496692  0.47840630  1
  Cs  Cs14  1  0.15713764  0.42503308  0.97840630  1
  Cs  Cs15  1  0.65713764  0.92503308  0.52159370  1
  Cs  Cs16  1  0.07429297  0.37969975  0.65806630  1
  Cs  Cs17  1  0.57429297  0.87969975  0.84193370  1
  Cs  Cs18  1  0.92570703  0.62030025  0.34193370  1
  Cs  Cs19  1  0.42570703  0.12030025  0.15806630  1
  Cs  Cs20  1  0.87647095  0.04633086  0.76479291  1
  Cs  Cs21  1  0.37647095  0.54633086  0.73520709  1
  Cs  Cs22  1  0.12352905  0.95366914  0.23520709  1
  Cs  Cs23  1  0.62352905  0.45366914  0.26479291  1
  Cs  Cs24  1  0.01405372  0.12904392  0.06575257  1
  Cs  Cs25  1  0.51405372  0.62904392  0.43424743  1
  Cs  Cs26  1  0.98594628  0.87095608  0.93424743  1
  Cs  Cs27  1  0.48594628  0.37095608  0.56575257  1
  Cs  Cs28  1  0.68914723  0.92969095  0.03317241  1
  Cs  Cs29  1  0.18914723  0.42969095  0.46682759  1
  Cs  Cs30  1  0.31085277  0.07030905  0.96682759  1
  Cs  Cs31  1  0.81085277  0.57030905  0.53317241  1
  Bi  Bi0  1  0.75119087  0.25489479  0.94451723  1
  Bi  Bi1  1  0.25119087  0.75489479  0.55548277  1
  Bi  Bi2  1  0.24880913  0.74510521  0.05548277  1
  Bi  Bi3  1  0.74880913  0.24510521  0.44451723  1
  Bi  Bi4  1  0.25256743  0.22183821  0.79555731  1
  Bi  Bi5  1  0.75256743  0.72183821  0.70444269  1
  Bi  Bi6  1  0.74743257  0.77816179  0.20444269  1
  Bi  Bi7  1  0.24743257  0.27816179  0.29555731  1
  As  As0  1  0.27400548  0.16852612  0.64359828  1
  As  As1  1  0.77400548  0.66852612  0.85640172  1
  As  As2  1  0.72599452  0.83147388  0.35640172  1
  As  As3  1  0.22599452  0.33147388  0.14359828  1
  As  As4  1  0.74343074  0.19123636  0.09505072  1
  As  As5  1  0.24343074  0.69123636  0.40494928  1
  As  As6  1  0.25656926  0.80876364  0.90494928  1
  As  As7  1  0.75656926  0.30876364  0.59505072  1
  As  As8  1  0.97523496  0.28743362  0.83321758  1
  As  As9  1  0.47523496  0.78743362  0.66678242  1
  As  As10  1  0.02476504  0.71256638  0.16678242  1
  As  As11  1  0.52476504  0.21256638  0.33321758  1
  As  As12  1  0.02933641  0.19265832  0.91177661  1
  As  As13  1  0.52933641  0.69265832  0.58822339  1
  As  As14  1  0.97066359  0.80734168  0.08822339  1
  As  As15  1  0.47066359  0.30734168  0.41177661  1
  As  As16  1  0.48462062  0.27982038  0.91722795  1
  As  As17  1  0.98462062  0.77982038  0.58277205  1
  As  As18  1  0.51537938  0.72017962  0.08277205  1
  As  As19  1  0.01537938  0.22017962  0.41722795  1
  As  As20  1  0.52407373  0.22246520  0.82363592  1
  As  As21  1  0.02407373  0.72246520  0.67636408  1
  As  As22  1  0.47592627  0.77753480  0.17636408  1
  As  As23  1  0.97592627  0.27753480  0.32363592  1
  Se  Se0  1  0.13153370  0.13376011  0.70479643  1
  Se  Se1  1  0.63153370  0.63376011  0.79520357  1
  Se  Se2  1  0.86846630  0.86623989  0.29520357  1
  Se  Se3  1  0.36846630  0.36623989  0.20479643  1
  Se  Se4  1  0.36904252  0.29607862  0.69753530  1
  Se  Se5  1  0.86904252  0.79607862  0.80246470  1
  Se  Se6  1  0.63095748  0.70392138  0.30246470  1
  Se  Se7  1  0.13095748  0.20392138  0.19753530  1
  Se  Se8  1  0.21974640  0.24101211  0.56348791  1
  Se  Se9  1  0.71974640  0.74101211  0.93651209  1
  Se  Se10  1  0.78025360  0.75898789  0.43651209  1
  Se  Se11  1  0.28025360  0.25898789  0.06348791  1
  Se  Se12  1  0.60881082  0.16363595  0.02739269  1
  Se  Se13  1  0.10881082  0.66363595  0.47260731  1
  Se  Se14  1  0.39118918  0.83636405  0.97260731  1
  Se  Se15  1  0.89118918  0.33636405  0.52739269  1
  Se  Se16  1  0.85112245  0.32036864  0.04854171  1
  Se  Se17  1  0.35112245  0.82036864  0.45145829  1
  Se  Se18  1  0.14887755  0.67963136  0.95145829  1
  Se  Se19  1  0.64887755  0.17963136  0.54854171  1
  Se  Se20  1  0.67928541  0.26123442  0.17289636  1
  Se  Se21  1  0.17928541  0.76123442  0.32710364  1
  Se  Se22  1  0.32071459  0.73876558  0.82710364  1
  Se  Se23  1  0.82071459  0.23876558  0.67289636  1
  Se  Se24  1  0.13273613  0.37928529  0.81258775  1
  Se  Se25  1  0.63273613  0.87928529  0.68741225  1
  Se  Se26  1  0.86726387  0.62071471  0.18741225  1
  Se  Se27  1  0.36726387  0.12071471  0.31258775  1
  Se  Se28  1  0.90730941  0.39683560  0.89240534  1
  Se  Se29  1  0.40730941  0.89683560  0.60759466  1
  Se  Se30  1  0.09269059  0.60316440  0.10759466  1
  Se  Se31  1  0.59269059  0.10316440  0.39240534  1
  Se  Se32  1  0.11072288  0.08392396  0.85927485  1
  Se  Se33  1  0.61072288  0.58392396  0.64072515  1
  Se  Se34  1  0.88927712  0.91607604  0.14072515  1
  Se  Se35  1  0.38927712  0.41607604  0.35927485  1
  Se  Se36  1  0.87251425  0.09554401  0.92814439  1
  Se  Se37  1  0.37251425  0.59554401  0.57185561  1
  Se  Se38  1  0.12748575  0.90445599  0.07185561  1
  Se  Se39  1  0.62748575  0.40445599  0.42814439  1
  Se  Se40  1  0.35040076  0.35446262  0.88295061  1
  Se  Se41  1  0.85040076  0.85446262  0.61704939  1
  Se  Se42  1  0.64959924  0.64553738  0.11704939  1
  Se  Se43  1  0.14959924  0.14553738  0.38295061  1
  Se  Se44  1  0.62608187  0.40275743  0.92194191  1
  Se  Se45  1  0.12608187  0.90275743  0.57805809  1
  Se  Se46  1  0.37391813  0.59724257  0.07805809  1
  Se  Se47  1  0.87391813  0.09724257  0.42194191  1
  Se  Se48  1  0.66848261  0.15116341  0.84440689  1
  Se  Se49  1  0.16848261  0.65116341  0.65559311  1
  Se  Se50  1  0.33151739  0.84883659  0.15559311  1
  Se  Se51  1  0.83151739  0.34883659  0.34440689  1
  Se  Se52  1  0.39395441  0.08761457  0.82022018  1
  Se  Se53  1  0.89395441  0.58761457  0.67977982  1
  Se  Se54  1  0.60604559  0.91238543  0.17977982  1
  Se  Se55  1  0.10604559  0.41238543  0.32022018  1
loop_
_geom_bond_atom_site_label_1
_geom_bond_atom_site_label_2
_geom_bond_distance
_geom_bond_site_symmetry_2
Cs0 Se0 3.748971 1_565
Cs0 Se29 3.752499 1_555
Cs0 Se22 3.753868 1_555
Cs0 Se52 3.879965 1_565
Cs0 Se45 3.882463 1_555
Cs0 Se49 4.022116 1_555
Cs1 Se1 3.748971 1_555
Cs1 Se28 3.752499 1_555
Cs1 Se23 3.753868 1_555
Cs1 Se53 3.879965 1_555
Cs1 Se44 3.882463 1_555
Cs1 Se48 4.022116 1_555
Cs2 Se2 3.748971 1_545
Cs2 Se31 3.752499 1_555
Cs2 Se20 3.753868 1_555
Cs2 Se54 3.879965 1_545
Cs2 Se47 3.882463 1_555
Cs2 Se51 4.022116 1_555
Cs3 Se3 3.748971 1_555
Cs3 Se30 3.752499 1_555
Cs3 Se21 3.753868 1_555
Cs3 Se55 3.879965 1_555
Cs3 Se46 3.882463 1_555
Cs3 Se50 4.022116 1_555
Cs4 Se12 3.745323 1_555
Cs4 Se20 3.780596 1_555
Cs4 Se11 3.790401 1_555
Cs4 Se42 3.838920 1_555
Cs4 Se44 3.870045 1_554
Cs4 Se46 3.927257 1_555
Cs4 Se3 3.933842 1_555
Cs5 Se13 3.745323 1_555
Cs5 Se21 3.780596 1_555
Cs5 Se10 3.790401 1_455
Cs5 Se43 3.838920 1_565
Cs5 Se45 3.870045 1_555
Cs5 Se47 3.927257 1_465
Cs5 Se2 3.933842 1_455
Cs6 Se14 3.745323 1_555
Cs6 Se22 3.780596 1_555
Cs6 Se9 3.790401 1_555
Cs6 Se40 3.838920 1_555
Cs6 Se46 3.870045 1_556
Cs6 Se44 3.927257 1_555
Cs6 Se1 3.933842 1_555
Cs7 Se15 3.745323 1_555
Cs7 Se23 3.780596 1_555
Cs7 Se8 3.790401 1_655
Cs7 Se41 3.838920 1_545
Cs7 Se47 3.870045 1_555
Cs7 Se45 3.927257 1_645
Cs7 Se0 3.933842 1_655
Cs8 Se25 3.679626 1_545
Cs8 Se19 3.694306 1_555
Cs8 Se52 3.871604 1_555
Cs8 Se4 3.877140 1_555
Cs8 Se23 3.906707 1_555
Cs8 Se29 3.910008 1_545
Cs8 Se48 4.163520 1_555
Cs9 Se24 3.679626 1_555
Cs9 Se18 3.694306 1_555
Cs9 Se53 3.871604 1_455
Cs9 Se5 3.877140 1_455
Cs9 Se22 3.906707 1_555
Cs9 Se28 3.910008 1_455
Cs9 Se49 4.163520 1_555
Cs10 Se27 3.679626 1_565
Cs10 Se17 3.694306 1_555
Cs10 Se54 3.871604 1_555
Cs10 Se6 3.877140 1_555
Cs10 Se21 3.906707 1_555
Cs10 Se31 3.910008 1_565
Cs10 Se50 4.163520 1_555
Cs11 Se26 3.679626 1_555
Cs11 Se16 3.694306 1_555
Cs11 Se55 3.871604 1_655
Cs11 Se7 3.877140 1_655
Cs11 Se20 3.906707 1_555
Cs11 Se30 3.910008 1_655
Cs11 Se51 4.163520 1_555
Cs12 Se16 3.715880 1_555
Cs12 Se9 3.733597 1_554
Cs12 Se42 3.772323 1_555
Cs12 Se30 3.989048 1_655
Cs12 Se26 4.083598 1_555
Cs12 Se28 4.214559 1_554
Cs12 Se44 4.318218 1_554
Cs13 Se17 3.715880 1_545
Cs13 Se8 3.733597 1_555
Cs13 Se43 3.772323 1_555
Cs13 Se31 3.989048 1_555
Cs13 Se27 4.083598 1_555
Cs13 Se29 4.214559 1_545
Cs13 Se45 4.318218 1_545
Cs14 Se18 3.715880 1_555
Cs14 Se11 3.733597 1_556
Cs14 Se40 3.772323 1_555
Cs14 Se28 3.989048 1_455
Cs14 Se24 4.083598 1_555
Cs14 Se30 4.214559 1_556
Cs14 Se46 4.318218 1_556
Cs15 Se19 3.715880 1_565
Cs15 Se10 3.733597 1_555
Cs15 Se41 3.772323 1_555
Cs15 Se29 3.989048 1_555
Cs15 Se25 4.083598 1_555
Cs15 Se31 4.214559 1_565
Cs15 Se47 4.318218 1_565
Cs16 Se23 3.779911 1_455
Cs16 Se8 3.789431 1_555
Cs16 Se24 3.835965 1_555
Cs16 Se0 3.882766 1_555
Cs16 Se49 3.907596 1_555
Cs16 Se15 4.040445 1_455
Cs16 Se53 4.173133 1_455
Cs17 Se22 3.779911 1_555
Cs17 Se9 3.789431 1_555
Cs17 Se25 3.835965 1_555
Cs17 Se1 3.882766 1_555
Cs17 Se48 3.907596 1_565
Cs17 Se14 4.040445 1_555
Cs17 Se52 4.173133 1_565
Cs18 Se21 3.779911 1_655
Cs18 Se10 3.789431 1_555
Cs18 Se26 3.835965 1_555
Cs18 Se2 3.882766 1_555
Cs18 Se51 3.907596 1_555
Cs18 Se13 4.040445 1_655
Cs18 Se55 4.173133 1_655
Cs19 Se20 3.779911 1_555
Cs19 Se11 3.789431 1_555
Cs19 Se27 3.835965 1_555
Cs19 Se3 3.882766 1_555
Cs19 Se50 3.907596 1_545
Cs19 Se12 4.040445 1_555
Cs19 Se54 4.173133 1_545
Cs20 Se5 3.679317 1_545
Cs20 Se23 3.707762 1_555
Cs20 Se0 3.833733 1_655
Cs20 Se48 3.925667 1_555
Cs20 Se32 3.926080 1_655
Cs20 Se36 4.028692 1_555
Cs20 Se25 4.256501 1_545
Cs21 Se4 3.679317 1_555
Cs21 Se22 3.707762 1_555
Cs21 Se1 3.833733 1_555
Cs21 Se49 3.925667 1_555
Cs21 Se33 3.926080 1_555
Cs21 Se37 4.028692 1_555
Cs21 Se24 4.256501 1_555
Cs22 Se7 3.679317 1_565
Cs22 Se21 3.707762 1_555
Cs22 Se2 3.833733 1_455
Cs22 Se50 3.925667 1_555
Cs22 Se34 3.926080 1_455
Cs22 Se38 4.028692 1_555
Cs22 Se27 4.256501 1_565
Cs23 Se6 3.679317 1_555
Cs23 Se20 3.707762 1_555
Cs23 Se3 3.833733 1_555
Cs23 Se51 3.925667 1_555
Cs23 Se35 3.926080 1_555
Cs23 Se39 4.028692 1_555
Cs23 Se26 4.256501 1_555
Cs24 Se7 3.668453 1_555
Cs24 Se34 3.740969 1_445
Cs24 Se38 3.771790 1_545
Cs24 Se16 3.803320 1_455
Cs24 Se11 3.854713 1_555
Cs24 Se36 3.860044 1_454
Cs25 Se6 3.668453 1_555
Cs25 Se35 3.740969 1_555
Cs25 Se39 3.771790 1_555
Cs25 Se17 3.803320 1_555
Cs25 Se10 3.854713 1_555
Cs25 Se37 3.860044 1_555
Cs26 Se5 3.668453 1_555
Cs26 Se32 3.740969 1_665
Cs26 Se36 3.771790 1_565
Cs26 Se18 3.803320 1_655
Cs26 Se9 3.854713 1_555
Cs26 Se38 3.860044 1_656
Cs27 Se4 3.668453 1_555
Cs27 Se33 3.740969 1_555
Cs27 Se37 3.771790 1_555
Cs27 Se19 3.803320 1_555
Cs27 Se8 3.854713 1_555
Cs27 Se39 3.860044 1_555
Cs28 Se9 3.645349 1_554
Cs28 Se12 3.674853 1_565
Cs28 Se54 3.734615 1_555
Cs28 Se34 3.818440 1_555
Cs28 Se36 4.089850 1_564
Cs28 Se14 4.372981 1_554
Cs29 Se8 3.645349 1_555
Cs29 Se13 3.674853 1_555
Cs29 Se55 3.734615 1_555
Cs29 Se35 3.818440 1_555
Cs29 Se37 4.089850 1_555
Cs29 Se15 4.372981 1_455
Cs30 Se11 3.645349 1_556
Cs30 Se14 3.674853 1_545
Cs30 Se52 3.734615 1_555
Cs30 Se32 3.818440 1_555
Cs30 Se38 4.089850 1_546
Cs30 Se12 4.372981 1_556
Cs31 Se10 3.645349 1_555
Cs31 Se15 3.674853 1_555
Cs31 Se53 3.734615 1_555
Cs31 Se33 3.818440 1_555
Cs31 Se39 4.089850 1_555
Cs31 Se13 4.372981 1_655
Bi0 Se16 2.960213 1_556
Bi0 Se44 2.964867 1_555
Bi0 Se12 2.972060 1_556
Bi0 Se48 2.983830 1_555
Bi0 Se28 3.008284 1_555
Bi0 Se36 3.039893 1_555
Bi1 Se17 2.960213 1_555
Bi1 Se45 2.964867 1_555
Bi1 Se13 2.972060 1_555
Bi1 Se49 2.983830 1_555
Bi1 Se29 3.008284 1_555
Bi1 Se37 3.039893 1_555
Bi2 Se18 2.960213 1_554
Bi2 Se46 2.964867 1_555
Bi2 Se14 2.972060 1_554
Bi2 Se50 2.983830 1_555
Bi2 Se30 3.008284 1_555
Bi2 Se38 3.039893 1_555
Bi3 Se19 2.960213 1_555
Bi3 Se47 2.964867 1_555
Bi3 Se15 2.972060 1_555
Bi3 Se51 2.983830 1_555
Bi3 Se31 3.008284 1_555
Bi3 Se39 3.039893 1_555
Bi4 Se0 2.931652 1_555
Bi4 Se4 2.975622 1_555
Bi4 Se52 2.984931 1_555
Bi4 Se32 2.992814 1_555
Bi4 Se24 3.005968 1_555
Bi4 Se40 3.026098 1_555
Bi5 Se1 2.931652 1_555
Bi5 Se5 2.975622 1_555
Bi5 Se53 2.984931 1_555
Bi5 Se33 2.992814 1_555
Bi5 Se25 3.005968 1_555
Bi5 Se41 3.026098 1_555
Bi6 Se2 2.931652 1_555
Bi6 Se6 2.975622 1_555
Bi6 Se54 2.984931 1_555
Bi6 Se34 2.992814 1_555
Bi6 Se26 3.005968 1_555
Bi6 Se42 3.026098 1_555
Bi7 Se3 2.931652 1_555
Bi7 Se7 2.975622 1_555
Bi7 Se55 2.984931 1_555
Bi7 Se35 2.992814 1_555
Bi7 Se27 3.005968 1_555
Bi7 Se43 3.026098 1_555
As0 Se8 2.374335 1_555
As0 Se0 2.450612 1_555
As0 Se4 2.459447 1_555
As0 Cs8 4.124375 1_555
As0 Cs0 4.201093 1_545
As1 Se9 2.374335 1_555
As1 Se1 2.450612 1_555
As1 Se5 2.459447 1_555
As1 Cs9 4.124375 1_655
As1 Cs1 4.201093 1_555
As2 Se10 2.374335 1_555
As2 Se2 2.450612 1_555
As2 Se6 2.459447 1_555
As2 Cs10 4.124375 1_555
As2 Cs2 4.201093 1_565
As3 Se11 2.374335 1_555
As3 Se3 2.450612 1_555
As3 Se7 2.459447 1_555
As3 Cs11 4.124375 1_455
As3 Cs3 4.201093 1_555
As4 Se20 2.368028 1_555
As4 Se12 2.462625 1_555
As4 Se16 2.464645 1_555
As4 Cs28 3.996907 1_545
As4 Cs24 4.013378 1_655
As5 Se21 2.368028 1_555
As5 Se13 2.462625 1_555
As5 Se17 2.464645 1_555
As5 Cs29 3.996907 1_555
As5 Cs25 4.013378 1_555
As6 Se22 2.368028 1_555
As6 Se14 2.462625 1_555
As6 Se18 2.464645 1_555
As6 Cs30 3.996907 1_565
As6 Cs26 4.013378 1_455
As7 Se23 2.368028 1_555
As7 Se15 2.462625 1_555
As7 Se19 2.464645 1_555
As7 Cs31 3.996907 1_555
As7 Cs27 4.013378 1_555
As8 Se28 2.410241 1_555
As8 Se24 2.414918 1_655
As8 Cs20 3.887406 1_555
As8 Cs1 4.205343 1_555
As9 Se29 2.410241 1_555
As9 Se25 2.414918 1_555
As9 Cs21 3.887406 1_555
As9 Cs0 4.205343 1_555
As10 Se30 2.410241 1_555
As10 Se26 2.414918 1_455
As10 As14 2.513911 1_455
As10 Cs22 3.887406 1_555
As10 Cs3 4.205343 1_555
As11 Se31 2.410241 1_555
As11 Se27 2.414918 1_555
As11 As15 2.513911 1_555
As11 Cs23 3.887406 1_555
As11 Cs2 4.205343 1_555
As12 Se32 2.408526 1_555
As12 Se36 2.420316 1_455
As12 As8 2.513911 1_455
As12 Cs24 3.844950 1_556
As12 Cs14 3.876815 1_555
As13 Se33 2.408526 1_555
As13 Se37 2.420316 1_555
As13 As9 2.513911 1_555
As13 Cs25 3.844950 1_555
As13 Cs15 3.876815 1_555
As14 Se34 2.408526 1_555
As14 Se38 2.420316 1_655
As14 Cs26 3.844950 1_554
As14 Cs12 3.876815 1_555
As15 Se35 2.408526 1_555
As15 Se39 2.420316 1_555
As15 Cs27 3.844950 1_555
As15 Cs13 3.876815 1_555
As16 Se40 2.410824 1_555
As16 Se44 2.425700 1_555
As16 As20 2.501481 1_555
As16 Cs30 3.746114 1_555
As17 Se41 2.410824 1_555
As17 Se45 2.425700 1_655
As17 As21 2.501481 1_655
As17 Cs31 3.746114 1_555
As18 Se42 2.410824 1_555
As18 Se46 2.425700 1_555
As18 As22 2.501481 1_555
As18 Cs28 3.746114 1_555
As19 Se43 2.410824 1_555
As19 Se47 2.425700 1_455
As19 As23 2.501481 1_455
As19 Cs29 3.746114 1_555
As20 Se48 2.413920 1_555
As20 Se52 2.431915 1_555
As20 Cs8 3.712897 1_555
As20 Cs1 3.811063 1_555
As21 Se49 2.413920 1_555
As21 Se53 2.431915 1_455
As21 Cs9 3.712897 1_555
As21 Cs0 3.811063 1_555
As22 Se50 2.413920 1_555
As22 Se54 2.431915 1_555
As22 Cs10 3.712897 1_555
As22 Cs3 3.811063 1_555
As23 Se51 2.413920 1_555
As23 Se55 2.431915 1_655
As23 Cs11 3.712897 1_555
As23 Cs2 3.811063 1_555
