# generated using pymatgen
data_SbPb3
_symmetry_space_group_name_H-M   'P 1'
_cell_length_a   6.92190066
_cell_length_b   6.92190066
_cell_length_c   23.50857000
_cell_angle_alpha   90.00000000
_cell_angle_beta   90.00000000
_cell_angle_gamma   120.00000627
_symmetry_Int_Tables_number   1
_chemical_formula_structural   SbPb3
_chemical_formula_sum   'Sb8 Pb24'
_cell_volume   975.45567667
_cell_formula_units_Z   8
loop_
 _symmetry_equiv_pos_site_id
 _symmetry_equiv_pos_as_xyz
  1  'x, y, z'
loop_
 _atom_site_type_symbol
 _atom_site_label
 _atom_site_symmetry_multiplicity
 _atom_site_fract_x
 _atom_site_fract_y
 _atom_site_fract_z
 _atom_site_occupancy
  Sb  Sb0_0  1  0.16666650  0.33333350  0.25000000  1
  Sb  Sb0_1  1  0.16666650  0.33333350  0.75000000  1
  Sb  Sb0_2  1  0.16666650  0.83333350  0.25000000  1
  Sb  Sb0_3  1  0.16666650  0.83333350  0.75000000  1
  Sb  Sb0_4  1  0.66666650  0.33333350  0.25000000  1
  Sb  Sb0_5  1  0.66666650  0.33333350  0.75000000  1
  Sb  Sb0_6  1  0.66666650  0.83333350  0.25000000  1
  Sb  Sb0_7  1  0.66666650  0.83333350  0.75000000  1
  Pb  Pb0_0  1  0.16666650  0.33333350  0.00000000  1
  Pb  Pb0_1  1  0.16666650  0.33333350  0.50000000  1
  Pb  Pb0_2  1  0.16666650  0.83333350  0.00000000  1
  Pb  Pb0_3  1  0.16666650  0.83333350  0.50000000  1
  Pb  Pb0_4  1  0.66666650  0.33333350  0.00000000  1
  Pb  Pb0_5  1  0.66666650  0.33333350  0.50000000  1
  Pb  Pb0_6  1  0.66666650  0.83333350  0.00000000  1
  Pb  Pb0_7  1  0.66666650  0.83333350  0.50000000  1
  Pb  Pb1_0  1  0.00000000  0.00000000  0.37297300  1
  Pb  Pb1_1  1  0.00000000  0.00000000  0.87297300  1
  Pb  Pb1_2  1  0.00000000  0.50000000  0.37297300  1
  Pb  Pb1_3  1  0.00000000  0.50000000  0.87297300  1
  Pb  Pb1_4  1  0.50000000  0.00000000  0.37297300  1
  Pb  Pb1_5  1  0.50000000  0.00000000  0.87297300  1
  Pb  Pb1_6  1  0.50000000  0.50000000  0.37297300  1
  Pb  Pb1_7  1  0.50000000  0.50000000  0.87297300  1
  Pb  Pb2_0  1  0.00000000  0.00000000  0.12702700  1
  Pb  Pb2_1  1  0.00000000  0.00000000  0.62702700  1
  Pb  Pb2_2  1  0.00000000  0.50000000  0.12702700  1
  Pb  Pb2_3  1  0.00000000  0.50000000  0.62702700  1
  Pb  Pb2_4  1  0.50000000  0.00000000  0.12702700  1
  Pb  Pb2_5  1  0.50000000  0.00000000  0.62702700  1
  Pb  Pb2_6  1  0.50000000  0.50000000  0.12702700  1
  Pb  Pb2_7  1  0.50000000  0.50000000  0.62702700  1
loop_
_geom_bond_atom_site_label_1
_geom_bond_atom_site_label_2
_geom_bond_distance
_geom_bond_site_symmetry_2
Sb0_0 Sb0_6 3.460950 1_445
Sb0_0 Sb0_6 3.460950 1_555
Sb0_0 Sb0_4 3.460950 1_455
Sb0_0 Sb0_4 3.460950 1_555
Sb0_0 Sb0_2 3.460950 1_555
Sb0_0 Sb0_2 3.460950 1_545
Sb0_1 Sb0_7 3.460950 1_445
Sb0_1 Sb0_7 3.460950 1_555
Sb0_1 Sb0_5 3.460950 1_455
Sb0_1 Sb0_3 3.460950 1_555
Sb0_1 Sb0_5 3.460950 1_555
Sb0_1 Sb0_3 3.460950 1_545
Sb0_2 Sb0_4 3.460950 1_565
Sb0_2 Sb0_4 3.460950 1_455
Sb0_2 Sb0_6 3.460950 1_455
Sb0_2 Sb0_6 3.460950 1_555
Sb0_3 Sb0_5 3.460950 1_565
Sb0_3 Sb0_5 3.460950 1_455
Sb0_3 Sb0_7 3.460950 1_555
Sb0_3 Sb0_7 3.460950 1_455
Sb0_4 Sb0_6 3.460950 1_555
Sb0_4 Sb0_6 3.460950 1_545
Sb0_5 Sb0_7 3.460950 1_555
Sb0_5 Sb0_7 3.460950 1_545
Pb0_0 Pb0_6 3.460950 1_445
Pb0_0 Pb0_6 3.460950 1_555
Pb0_0 Pb0_4 3.460950 1_455
Pb0_0 Pb0_2 3.460950 1_555
Pb0_0 Pb0_4 3.460950 1_555
Pb0_0 Pb0_2 3.460950 1_545
Pb0_0 Pb1_3 3.593083 1_554
Pb0_0 Pb2_2 3.593083 1_555
Pb0_0 Pb1_7 3.593085 1_554
Pb0_0 Pb1_1 3.593085 1_554
Pb0_0 Pb2_0 3.593085 1_555
Pb0_0 Pb2_6 3.593085 1_555
Pb0_1 Pb0_7 3.460950 1_445
Pb0_1 Pb0_7 3.460950 1_555
Pb0_1 Pb0_5 3.460950 1_555
Pb0_1 Pb0_3 3.460950 1_555
Pb0_1 Pb0_5 3.460950 1_455
Pb0_1 Pb0_3 3.460950 1_545
Pb0_1 Pb1_2 3.593083 1_555
Pb0_1 Pb2_3 3.593083 1_555
Pb0_1 Pb1_0 3.593085 1_555
Pb0_1 Pb1_6 3.593085 1_555
Pb0_1 Pb2_7 3.593085 1_555
Pb0_1 Pb2_1 3.593085 1_555
Pb0_2 Pb0_4 3.460950 1_565
Pb0_2 Pb0_4 3.460950 1_455
Pb0_2 Pb0_6 3.460950 1_555
Pb0_2 Pb0_6 3.460950 1_455
Pb0_2 Pb1_1 3.593083 1_564
Pb0_2 Pb2_0 3.593083 1_565
Pb0_2 Pb1_5 3.593085 1_564
Pb0_2 Pb1_3 3.593085 1_554
Pb0_2 Pb2_4 3.593085 1_565
Pb0_2 Pb2_2 3.593085 1_555
Pb0_3 Pb0_5 3.460950 1_565
Pb0_3 Pb0_5 3.460950 1_455
Pb0_3 Pb0_7 3.460950 1_555
Pb0_3 Pb0_7 3.460950 1_455
Pb0_3 Pb1_0 3.593083 1_565
Pb0_3 Pb2_1 3.593083 1_565
Pb0_3 Pb1_4 3.593085 1_565
Pb0_3 Pb1_2 3.593085 1_555
Pb0_3 Pb2_5 3.593085 1_565
Pb0_3 Pb2_3 3.593085 1_555
Pb0_4 Pb0_6 3.460950 1_555
Pb0_4 Pb0_6 3.460950 1_545
Pb0_4 Pb1_7 3.593083 1_554
Pb0_4 Pb2_6 3.593083 1_555
Pb0_4 Pb1_5 3.593085 1_554
Pb0_4 Pb1_3 3.593085 1_654
Pb0_4 Pb2_4 3.593085 1_555
Pb0_4 Pb2_2 3.593085 1_655
Pb0_5 Pb0_7 3.460950 1_555
Pb0_5 Pb0_7 3.460950 1_545
Pb0_5 Pb1_6 3.593083 1_555
Pb0_5 Pb2_7 3.593083 1_555
Pb0_5 Pb1_4 3.593085 1_555
Pb0_5 Pb1_2 3.593085 1_655
Pb0_5 Pb2_5 3.593085 1_555
Pb0_5 Pb2_3 3.593085 1_655
Pb0_6 Pb1_5 3.593083 1_564
Pb0_6 Pb2_4 3.593083 1_565
Pb0_6 Pb1_1 3.593085 1_664
Pb0_6 Pb1_7 3.593085 1_554
Pb0_6 Pb2_6 3.593085 1_555
Pb0_6 Pb2_0 3.593085 1_665
Pb0_7 Pb1_4 3.593083 1_565
Pb0_7 Pb2_5 3.593083 1_565
Pb0_7 Pb1_0 3.593085 1_665
Pb0_7 Pb1_6 3.593085 1_555
Pb0_7 Pb2_7 3.593085 1_555
Pb0_7 Pb2_1 3.593085 1_665
Pb1_0 Pb1_6 3.460950 1_555
Pb1_0 Pb1_6 3.460950 1_445
Pb1_0 Pb1_4 3.460950 1_555
Pb1_0 Pb1_2 3.460950 1_545
Pb1_0 Pb1_2 3.460950 1_555
Pb1_0 Pb1_4 3.460950 1_455
Pb1_0 Sb0_2 3.514276 1_545
Pb1_0 Sb0_0 3.514277 1_555
Pb1_0 Sb0_6 3.514277 1_445
Pb1_1 Pb1_7 3.460950 1_445
Pb1_1 Pb1_7 3.460950 1_555
Pb1_1 Pb1_3 3.460950 1_545
Pb1_1 Pb1_5 3.460950 1_555
Pb1_1 Pb1_5 3.460950 1_455
Pb1_1 Pb1_3 3.460950 1_555
Pb1_1 Sb0_3 3.514276 1_545
Pb1_1 Sb0_1 3.514277 1_555
Pb1_1 Sb0_7 3.514277 1_445
Pb1_2 Pb1_4 3.460950 1_565
Pb1_2 Pb1_4 3.460950 1_455
Pb1_2 Pb1_6 3.460950 1_555
Pb1_2 Pb1_6 3.460950 1_455
Pb1_2 Sb0_0 3.514276 1_555
Pb1_2 Sb0_2 3.514277 1_555
Pb1_2 Sb0_4 3.514277 1_455
Pb1_3 Pb1_5 3.460950 1_565
Pb1_3 Pb1_5 3.460950 1_455
Pb1_3 Pb1_7 3.460950 1_455
Pb1_3 Pb1_7 3.460950 1_555
Pb1_3 Sb0_1 3.514276 1_555
Pb1_3 Sb0_3 3.514277 1_555
Pb1_3 Sb0_5 3.514277 1_455
Pb1_4 Pb1_6 3.460950 1_555
Pb1_4 Pb1_6 3.460950 1_545
Pb1_4 Sb0_6 3.514276 1_545
Pb1_4 Sb0_2 3.514277 1_545
Pb1_4 Sb0_4 3.514277 1_555
Pb1_5 Pb1_7 3.460950 1_555
Pb1_5 Pb1_7 3.460950 1_545
Pb1_5 Sb0_7 3.514276 1_545
Pb1_5 Sb0_3 3.514277 1_545
Pb1_5 Sb0_5 3.514277 1_555
Pb1_6 Sb0_4 3.514276 1_555
Pb1_6 Sb0_6 3.514277 1_555
Pb1_6 Sb0_0 3.514277 1_555
Pb1_7 Sb0_5 3.514276 1_555
Pb1_7 Sb0_1 3.514277 1_555
Pb1_7 Sb0_7 3.514277 1_555
Pb2_0 Pb2_6 3.460950 1_445
Pb2_0 Pb2_6 3.460950 1_555
Pb2_0 Pb2_2 3.460950 1_545
Pb2_0 Pb2_4 3.460950 1_455
Pb2_0 Pb2_4 3.460950 1_555
Pb2_0 Pb2_2 3.460950 1_555
Pb2_0 Sb0_2 3.514276 1_545
Pb2_0 Sb0_0 3.514277 1_555
Pb2_0 Sb0_6 3.514277 1_445
Pb2_1 Pb2_7 3.460950 1_445
Pb2_1 Pb2_7 3.460950 1_555
Pb2_1 Pb2_5 3.460950 1_555
Pb2_1 Pb2_3 3.460950 1_555
Pb2_1 Pb2_5 3.460950 1_455
Pb2_1 Pb2_3 3.460950 1_545
Pb2_1 Sb0_3 3.514276 1_545
Pb2_1 Sb0_7 3.514277 1_445
Pb2_1 Sb0_1 3.514277 1_555
Pb2_2 Pb2_4 3.460950 1_565
Pb2_2 Pb2_4 3.460950 1_455
Pb2_2 Pb2_6 3.460950 1_555
Pb2_2 Pb2_6 3.460950 1_455
Pb2_2 Sb0_0 3.514276 1_555
Pb2_2 Sb0_2 3.514277 1_555
Pb2_2 Sb0_4 3.514277 1_455
Pb2_3 Pb2_5 3.460950 1_565
Pb2_3 Pb2_5 3.460950 1_455
Pb2_3 Pb2_7 3.460950 1_455
Pb2_3 Pb2_7 3.460950 1_555
Pb2_3 Sb0_1 3.514276 1_555
Pb2_3 Sb0_3 3.514277 1_555
Pb2_3 Sb0_5 3.514277 1_455
Pb2_4 Pb2_6 3.460950 1_555
Pb2_4 Pb2_6 3.460950 1_545
Pb2_4 Sb0_6 3.514276 1_545
Pb2_4 Sb0_2 3.514277 1_545
Pb2_4 Sb0_4 3.514277 1_555
Pb2_5 Pb2_7 3.460950 1_555
Pb2_5 Pb2_7 3.460950 1_545
Pb2_5 Sb0_7 3.514276 1_545
Pb2_5 Sb0_3 3.514277 1_545
Pb2_5 Sb0_5 3.514277 1_555
Pb2_6 Sb0_4 3.514276 1_555
Pb2_6 Sb0_0 3.514277 1_555
Pb2_6 Sb0_6 3.514277 1_555
Pb2_7 Sb0_5 3.514276 1_555
Pb2_7 Sb0_7 3.514277 1_555
Pb2_7 Sb0_1 3.514277 1_555
