# generated using pymatgen
data_Ba3SrNd2(IrO6)2
_symmetry_space_group_name_H-M   'P 1'
_cell_length_a   6.02487800
_cell_length_b   6.06584109
_cell_length_c   8.56013544
_cell_angle_alpha   90.51217864
_cell_angle_beta   90.10952966
_cell_angle_gamma   90.30168584
_symmetry_Int_Tables_number   1
_chemical_formula_structural   Ba3SrNd2(IrO6)2
_chemical_formula_sum   'Ba3 Sr1 Nd2 Ir2 O12'
_cell_volume   312.82086729
_cell_formula_units_Z   1
loop_
 _symmetry_equiv_pos_site_id
 _symmetry_equiv_pos_as_xyz
  1  'x, y, z'
loop_
 _atom_site_type_symbol
 _atom_site_label
 _atom_site_symmetry_multiplicity
 _atom_site_fract_x
 _atom_site_fract_y
 _atom_site_fract_z
 _atom_site_occupancy
  Ba  Ba0  1  0.75135900  0.74678000  0.50246900  1
  Ba  Ba1  1  0.25118500  0.24660100  0.00208600  1
  Ba  Ba2  1  0.24894000  0.25286700  0.49763400  1
  Sr  Sr0  1  0.74325900  0.75568100  0.99426600  1
  Nd  Nd0  1  0.75040100  0.24993700  0.75132400  1
  Nd  Nd1  1  0.24926900  0.74971900  0.24866600  1
  Ir  Ir0  1  0.74997800  0.24992400  0.24837900  1
  Ir  Ir1  1  0.25089600  0.74966700  0.75215900  1
  O  O0  1  0.22426200  0.72193600  0.52006700  1
  O  O1  1  0.72451900  0.21390200  0.01935600  1
  O  O2  1  0.00737800  0.04625200  0.24810900  1
  O  O3  1  0.51249300  0.54940700  0.75404200  1
  O  O4  1  0.77598500  0.27861000  0.48006500  1
  O  O5  1  0.28474800  0.77780700  0.98094100  1
  O  O6  1  0.98892300  0.95058900  0.75658000  1
  O  O7  1  0.49251200  0.45396800  0.25016600  1
  O  O8  1  0.45419600  0.00535200  0.72525400  1
  O  O9  1  0.94832300  0.50980400  0.21797000  1
  O  O10  1  0.54693200  0.99382500  0.27309600  1
  O  O11  1  0.04444200  0.49737100  0.77736900  1
loop_
_geom_bond_atom_site_label_1
_geom_bond_atom_site_label_2
_geom_bond_distance
_geom_bond_site_symmetry_2
Ba0 O10 2.771380 1_555
Ba0 O4 2.849267 1_555
Ba0 O0 2.857715 1_655
Ba0 O3 2.860392 1_555
Ba0 O6 2.868791 1_555
Ba0 O8 3.048204 1_565
Ba0 O9 3.061350 1_555
Ba0 O0 3.182395 1_555
Ba0 O7 3.184447 1_555
Ba0 O4 3.236043 1_565
Ba0 O2 3.236361 1_665
Ba0 O11 3.319662 1_655
Ba1 O11 2.762016 1_554
Ba1 O2 2.847558 1_555
Ba1 O7 2.850801 1_555
Ba1 O5 2.856025 1_544
Ba1 O1 2.863339 1_555
Ba1 O8 3.036609 1_554
Ba1 O9 3.047037 1_455
Ba1 O6 3.166589 1_444
Ba1 O1 3.182050 1_455
Ba1 O3 3.226875 1_554
Ba1 O5 3.234193 1_554
Ba1 O10 3.314268 1_545
Ba2 O8 2.764521 1_555
Ba2 O0 2.854733 1_555
Ba2 O7 2.858013 1_555
Ba2 O4 2.858338 1_455
Ba2 O2 2.858721 1_555
Ba2 O10 3.061964 1_545
Ba2 O11 3.068983 1_555
Ba2 O4 3.182307 1_555
Ba2 O0 3.230635 1_545
Ba2 O3 3.234261 1_555
Ba2 O6 3.284081 1_445
Ba2 O9 3.394161 1_455
Nd0 O1 2.312206 1_556
Nd0 O3 2.319845 1_555
Nd0 O6 2.322282 1_545
Nd0 O8 2.323872 1_555
Nd0 O11 2.324936 1_655
Nd0 O4 2.335394 1_555
Nd1 O5 2.309841 1_554
Nd1 O2 2.321005 1_565
Nd1 O7 2.322556 1_555
Nd1 O10 2.327556 1_555
Nd1 O9 2.331956 1_455
Nd1 O0 2.335929 1_555
Ir0 O1 1.976245 1_555
Ir0 O10 1.985290 1_545
Ir0 O2 1.987826 1_655
Ir0 O7 1.989555 1_555
Ir0 O9 1.992358 1_555
Ir0 O4 1.995124 1_555
Ir1 O5 1.974389 1_555
Ir1 O11 1.980588 1_555
Ir1 O8 1.986506 1_565
Ir1 O3 1.995079 1_555
Ir1 O0 1.998424 1_555
Ir1 O6 1.999419 1_455
O1 Sr0 2.788763 1_544
O1 Sr0 3.296626 1_554
O2 Sr0 3.201436 1_444
O3 Sr0 2.766212 1_555
O5 Sr0 2.768619 1_555
O5 Sr0 3.266710 1_455
O6 Sr0 2.786442 1_555
O7 Sr0 3.238112 1_554
O8 Sr0 3.271735 1_545
O9 Sr0 2.734822 1_554
O10 Sr0 3.024880 1_554
O11 Sr0 3.030815 1_455
