# generated using pymatgen
data_V9O13
_symmetry_space_group_name_H-M   'P 1'
_cell_length_a   5.36411185
_cell_length_b   5.36411185
_cell_length_c   17.71924116
_cell_angle_alpha   82.04411768
_cell_angle_beta   82.04411768
_cell_angle_gamma   31.82345943
_symmetry_Int_Tables_number   1
_chemical_formula_structural   V9O13
_chemical_formula_sum   'V9 O13'
_cell_volume   266.04573382
_cell_formula_units_Z   1
loop_
 _symmetry_equiv_pos_site_id
 _symmetry_equiv_pos_as_xyz
  1  'x, y, z'
loop_
 _atom_site_type_symbol
 _atom_site_label
 _atom_site_symmetry_multiplicity
 _atom_site_fract_x
 _atom_site_fract_y
 _atom_site_fract_z
 _atom_site_occupancy
  V  V0  1  0.50000000  0.50000000  0.50000000  1
  V  V1  1  0.35711100  0.35711100  0.04239000  1
  V  V2  1  0.64288900  0.64288900  0.95761000  1
  V  V3  1  0.25840600  0.25840600  0.41805400  1
  V  V4  1  0.74159400  0.74159400  0.58194600  1
  V  V5  1  0.06997600  0.06997600  0.12468100  1
  V  V6  1  0.93002400  0.93002400  0.87531900  1
  V  V7  1  0.02848200  0.02848200  0.32297700  1
  V  V8  1  0.97151800  0.97151800  0.67702300  1
  O  O0  1  0.00000000  0.00000000  0.00000000  1
  O  O1  1  0.10482000  0.10482000  0.23204000  1
  O  O2  1  0.89518000  0.89518000  0.76796000  1
  O  O3  1  0.70959400  0.70959400  0.07004000  1
  O  O4  1  0.29040600  0.29040600  0.92996000  1
  O  O5  1  0.45034100  0.45034100  0.13519200  1
  O  O6  1  0.54965900  0.54965900  0.86480800  1
  O  O7  1  0.40638400  0.40638400  0.32833300  1
  O  O8  1  0.59361600  0.59361600  0.67166700  1
  O  O9  1  0.62021000  0.62021000  0.38694900  1
  O  O10  1  0.37979000  0.37979000  0.61305100  1
  O  O11  1  0.86826400  0.86826400  0.47228600  1
  O  O12  1  0.13173600  0.13173600  0.52771400  1
loop_
_geom_bond_atom_site_label_1
_geom_bond_atom_site_label_2
_geom_bond_distance
_geom_bond_site_symmetry_2
O0 V1 2.140424 1_545
O0 V1 2.140424 1_455
O0 V2 2.140424 1_454
O0 V2 2.140424 1_544
O0 V5 2.420977 1_555
O0 V6 2.420977 1_444
O1 V7 1.688608 1_555
O1 V5 1.986179 1_555
O2 V8 1.688608 1_555
O2 V6 1.986179 1_555
O3 V1 2.122365 1_655
O3 V1 2.122365 1_565
O3 V5 2.184849 1_565
O3 V5 2.184849 1_655
O3 V2 2.199327 1_554
O4 V2 2.122365 1_455
O4 V2 2.122365 1_545
O4 V6 2.184849 1_545
O4 V6 2.184849 1_455
O4 V1 2.199327 1_556
O5 V5 1.911721 1_655
O5 V5 1.911721 1_565
O5 V1 2.021007 1_555
O6 V6 1.911721 1_545
O6 V6 1.911721 1_455
O6 V2 2.021007 1_555
O7 V7 1.929801 1_565
O7 V7 1.929801 1_655
O7 V3 2.039517 1_555
O8 V8 1.929801 1_455
O8 V8 1.929801 1_545
O8 V4 2.039517 1_555
O9 V7 2.156848 1_655
O9 V7 2.156848 1_565
O9 V3 2.173830 1_655
O9 V3 2.173830 1_565
O9 V0 2.199034 1_555
O10 V8 2.156848 1_545
O10 V8 2.156848 1_455
O10 V4 2.173830 1_455
O10 V4 2.173830 1_545
O10 V0 2.199034 1_555
O11 V0 2.107894 1_655
O11 V0 2.107894 1_565
O11 V3 2.164317 1_565
O11 V3 2.164317 1_655
O11 V4 2.180039 1_555
O12 V0 2.107894 1_545
O12 V0 2.107894 1_455
O12 V4 2.164317 1_455
O12 V4 2.164317 1_545
O12 V3 2.180039 1_555
