# generated using pymatgen
data_U2SnIr2
_symmetry_space_group_name_H-M   'P 1'
_cell_length_a   7.65041158
_cell_length_b   7.65041158
_cell_length_c   3.62489030
_cell_angle_alpha   90.00000000
_cell_angle_beta   90.00000000
_cell_angle_gamma   90.00426363
_symmetry_Int_Tables_number   1
_chemical_formula_structural   U2SnIr2
_chemical_formula_sum   'U4 Sn2 Ir4'
_cell_volume   212.16046891
_cell_formula_units_Z   2
loop_
 _symmetry_equiv_pos_site_id
 _symmetry_equiv_pos_as_xyz
  1  'x, y, z'
loop_
 _atom_site_type_symbol
 _atom_site_label
 _atom_site_symmetry_multiplicity
 _atom_site_fract_x
 _atom_site_fract_y
 _atom_site_fract_z
 _atom_site_occupancy
  U  U0  1  0.16948152  0.33051848  0.00000000  1
  U  U1  1  0.83051848  0.66948152  0.00000000  1
  U  U2  1  0.66942902  0.16942902  0.00000000  1
  U  U3  1  0.33057098  0.83057098  0.00000000  1
  Sn  Sn0  1  0.00000000  -0.00000000  0.50000000  1
  Sn  Sn1  1  0.50000000  0.50000000  0.50000000  1
  Ir  Ir0  1  0.36366820  0.13633180  0.50000000  1
  Ir  Ir1  1  0.63633180  0.86366820  0.50000000  1
  Ir  Ir2  1  0.86360014  0.36360014  0.50000000  1
  Ir  Ir3  1  0.13639986  0.63639986  0.50000000  1
loop_
_geom_bond_atom_site_label_1
_geom_bond_atom_site_label_2
_geom_bond_distance
_geom_bond_site_symmetry_2
Sn0 U1 3.370383 1_446
Sn0 U1 3.370383 1_445
Sn0 U0 3.370383 1_556
Sn0 U0 3.370383 1_555
Sn0 U2 3.370674 1_455
Sn0 U3 3.370674 1_545
Sn0 U2 3.370674 1_456
Sn0 U3 3.370674 1_546
Sn1 U1 3.370383 1_556
Sn1 U1 3.370383 1_555
Sn1 U0 3.370383 1_555
Sn1 U0 3.370383 1_556
Sn1 U2 3.370674 1_555
Sn1 U2 3.370674 1_556
Sn1 U3 3.370674 1_555
Sn1 U3 3.370674 1_556
Ir0 U0 2.774770 1_556
Ir0 U0 2.774770 1_555
Ir0 U3 2.969987 1_545
Ir0 U3 2.969987 1_546
Ir0 U2 2.969987 1_555
Ir0 U2 2.969987 1_556
Ir0 Sn0 2.971213 1_555
Ir0 Sn1 2.971213 1_555
Ir1 U1 2.774770 1_556
Ir1 U1 2.774770 1_555
Ir1 U2 2.969987 1_566
Ir1 U2 2.969987 1_565
Ir1 U3 2.969987 1_555
Ir1 U3 2.969987 1_556
Ir1 Sn0 2.971213 1_665
Ir1 Sn1 2.971213 1_555
Ir2 U2 2.774524 1_555
Ir2 U2 2.774524 1_556
Ir2 U0 2.970733 1_655
Ir2 U0 2.970733 1_656
Ir2 U1 2.970733 1_555
Ir2 U1 2.970733 1_556
Ir2 Sn0 2.971054 1_655
Ir2 Sn1 2.971054 1_555
Ir3 U3 2.774524 1_555
Ir3 U3 2.774524 1_556
Ir3 U1 2.970733 1_456
Ir3 U1 2.970733 1_455
Ir3 U0 2.970733 1_555
Ir3 U0 2.970733 1_556
Ir3 Sn1 2.971054 1_555
Ir3 Sn0 2.971054 1_565
