# generated using pymatgen
data_HfNiGe
_symmetry_space_group_name_H-M   'P 1'
_cell_length_a   3.84461896
_cell_length_b   6.47917456
_cell_length_c   7.25909859
_cell_angle_alpha   90.00000000
_cell_angle_beta   90.00000000
_cell_angle_gamma   90.00000000
_symmetry_Int_Tables_number   1
_chemical_formula_structural   HfNiGe
_chemical_formula_sum   'Hf4 Ni4 Ge4'
_cell_volume   180.82383634
_cell_formula_units_Z   4
loop_
 _symmetry_equiv_pos_site_id
 _symmetry_equiv_pos_as_xyz
  1  'x, y, z'
loop_
 _atom_site_type_symbol
 _atom_site_label
 _atom_site_symmetry_multiplicity
 _atom_site_fract_x
 _atom_site_fract_y
 _atom_site_fract_z
 _atom_site_occupancy
  Hf  Hf0  1  0.25000000  0.01832341  0.19013868  1
  Hf  Hf1  1  0.25000000  0.51832341  0.30986132  1
  Hf  Hf2  1  0.75000000  0.98167659  0.80986132  1
  Hf  Hf3  1  0.75000000  0.48167659  0.69013868  1
  Ni  Ni0  1  0.25000000  0.13948230  0.56226568  1
  Ni  Ni1  1  0.25000000  0.63948230  0.93773432  1
  Ni  Ni2  1  0.75000000  0.86051770  0.43773432  1
  Ni  Ni3  1  0.75000000  0.36051770  0.06226568  1
  Ge  Ge0  1  0.25000000  0.76508528  0.61510689  1
  Ge  Ge1  1  0.25000000  0.26508528  0.88489311  1
  Ge  Ge2  1  0.75000000  0.23491472  0.38489311  1
  Ge  Ge3  1  0.75000000  0.73491472  0.11510689  1
loop_
_geom_bond_atom_site_label_1
_geom_bond_atom_site_label_2
_geom_bond_distance
_geom_bond_site_symmetry_2
Hf0 Ni0 2.813058 1_555
Hf0 Ni2 2.823303 1_545
Hf0 Ni2 2.823303 1_445
Hf0 Ni1 3.063007 1_544
Hf0 Ni3 3.077759 1_555
Hf0 Ni3 3.077759 1_455
Hf1 Ni1 2.813058 1_554
Hf1 Ni3 2.823303 1_455
Hf1 Ni3 2.823303 1_555
Hf1 Ni0 3.063007 1_555
Hf1 Ni2 3.077759 1_555
Hf1 Ni2 3.077759 1_455
Hf2 Ni2 2.813058 1_555
Hf2 Ni0 2.823303 1_565
Hf2 Ni0 2.823303 1_665
Hf2 Ni3 3.063007 1_566
Hf2 Ni1 3.077759 1_555
Hf2 Ni1 3.077759 1_655
Hf3 Ni3 2.813058 1_556
Hf3 Ni1 2.823303 1_555
Hf3 Ni1 2.823303 1_655
Hf3 Ni2 3.063007 1_555
Hf3 Ni0 3.077759 1_555
Hf3 Ni0 3.077759 1_655
Ni0 Ni2 2.789153 1_545
Ni0 Ni2 2.789153 1_445
Ni1 Ni3 2.789153 1_556
Ni1 Ni3 2.789153 1_456
Ge0 Ni2 2.394874 1_455
Ge0 Ni2 2.394874 1_555
Ge0 Ni0 2.455923 1_565
Ge0 Ni1 2.479348 1_555
Ge0 Hf3 2.713625 1_455
Ge0 Hf3 2.713625 1_555
Ge0 Hf1 2.732400 1_555
Ge0 Hf2 2.768263 1_555
Ge0 Hf2 2.768263 1_455
Ge1 Ni3 2.394874 1_556
Ge1 Ni3 2.394874 1_456
Ge1 Ni1 2.455923 1_555
Ge1 Ni0 2.479348 1_555
Ge1 Hf2 2.713625 1_545
Ge1 Hf2 2.713625 1_445
Ge1 Hf0 2.732400 1_556
Ge1 Hf3 2.768263 1_455
Ge1 Hf3 2.768263 1_555
Ge2 Ni0 2.394874 1_655
Ge2 Ni0 2.394874 1_555
Ge2 Ni2 2.455923 1_545
Ge2 Ni3 2.479348 1_555
Ge2 Hf1 2.713625 1_655
Ge2 Hf1 2.713625 1_555
Ge2 Hf3 2.732400 1_555
Ge2 Hf0 2.768263 1_655
Ge2 Hf0 2.768263 1_555
Ge3 Ni1 2.394874 1_654
Ge3 Ni1 2.394874 1_554
Ge3 Ni3 2.455923 1_555
Ge3 Ni2 2.479348 1_555
Ge3 Hf0 2.713625 1_565
Ge3 Hf0 2.713625 1_665
Ge3 Hf2 2.732400 1_554
Ge3 Hf1 2.768263 1_655
Ge3 Hf1 2.768263 1_555
