# generated using pymatgen
data_La5Sm3Ni7AgO24
_symmetry_space_group_name_H-M   'P 1'
_cell_length_a   7.73425200
_cell_length_b   7.73425200
_cell_length_c   7.73237714
_cell_angle_alpha   89.99234589
_cell_angle_beta   89.99234589
_cell_angle_gamma   90.01315858
_symmetry_Int_Tables_number   1
_chemical_formula_structural   La5Sm3Ni7AgO24
_chemical_formula_sum   'La5 Sm3 Ni7 Ag1 O24'
_cell_volume   462.54037207
_cell_formula_units_Z   1
loop_
 _symmetry_equiv_pos_site_id
 _symmetry_equiv_pos_as_xyz
  1  'x, y, z'
loop_
 _atom_site_type_symbol
 _atom_site_label
 _atom_site_symmetry_multiplicity
 _atom_site_fract_x
 _atom_site_fract_y
 _atom_site_fract_z
 _atom_site_occupancy
  La  La0  1  0.74658400  0.25340700  0.25355600  1
  La  La1  1  0.74657700  0.74657700  0.25358400  1
  La  La2  1  0.25361700  0.25361700  0.25361200  1
  La  La3  1  0.25340700  0.74658400  0.25355600  1
  La  La4  1  0.25336200  0.25336200  0.74681900  1
  Sm  Sm0  1  0.74539300  0.25504200  0.74539400  1
  Sm  Sm1  1  0.74532400  0.74532400  0.74571600  1
  Sm  Sm2  1  0.25504200  0.74539300  0.74539400  1
  Ni  Ni0  1  0.99967400  0.50065200  0.99890600  1
  Ni  Ni1  1  0.50065200  0.99967400  0.99890600  1
  Ni  Ni2  1  0.50053100  0.50053100  0.99874600  1
  Ni  Ni3  1  0.99960900  0.99960900  0.50186300  1
  Ni  Ni4  1  0.99955600  0.50053100  0.50158300  1
  Ni  Ni5  1  0.50053100  0.99955600  0.50158300  1
  Ni  Ni6  1  0.50045200  0.50045200  0.50137800  1
  Ag  Ag0  1  0.99992200  0.99992200  0.99977300  1
  O  O0  1  0.99975100  0.99975100  0.25840300  1
  O  O1  1  0.99974300  0.50033500  0.25071400  1
  O  O2  1  0.50033500  0.99974300  0.25071400  1
  O  O3  1  0.50028900  0.50028900  0.25041100  1
  O  O4  1  0.99693000  0.99693000  0.74251500  1
  O  O5  1  0.99744900  0.50225300  0.74951000  1
  O  O6  1  0.50225300  0.99744900  0.74951000  1
  O  O7  1  0.50287200  0.50287200  0.74978900  1
  O  O8  1  0.74209100  0.99966800  0.99333600  1
  O  O9  1  0.74936200  0.50047600  0.99437800  1
  O  O10  1  0.25819000  0.99666400  0.99616800  1
  O  O11  1  0.25074500  0.50250000  0.99665900  1
  O  O12  1  0.74946000  0.99959300  0.50515000  1
  O  O13  1  0.74966900  0.50039400  0.50633300  1
  O  O14  1  0.25056000  0.99725200  0.50325500  1
  O  O15  1  0.25041600  0.50310700  0.50375300  1
  O  O16  1  0.99666400  0.25819000  0.99616800  1
  O  O17  1  0.99966800  0.74209100  0.99333600  1
  O  O18  1  0.50250000  0.25074500  0.99665900  1
  O  O19  1  0.50047600  0.74936200  0.99437800  1
  O  O20  1  0.99725200  0.25056000  0.50325500  1
  O  O21  1  0.99959300  0.74946000  0.50515000  1
  O  O22  1  0.50310700  0.25041600  0.50375300  1
  O  O23  1  0.50039400  0.74966900  0.50633300  1
loop_
_geom_bond_atom_site_label_1
_geom_bond_atom_site_label_2
_geom_bond_distance
_geom_bond_site_symmetry_2
La0 O3 2.697578 1_555
La0 O22 2.699701 1_555
La0 O13 2.733310 1_555
La0 O2 2.734075 1_545
La0 O1 2.734929 1_555
La0 O20 2.736426 1_555
La0 O18 2.740642 1_554
La0 O12 2.763652 1_545
La0 O9 2.768969 1_554
La0 O0 2.772359 1_545
La0 O16 2.775307 1_554
La0 O8 2.811086 1_544
La1 O3 2.693677 1_555
La1 O23 2.728456 1_555
La1 O13 2.728456 1_555
La1 O1 2.731899 1_555
La1 O2 2.731899 1_555
La1 O21 2.759481 1_555
La1 O12 2.759481 1_555
La1 O9 2.764341 1_554
La1 O19 2.764341 1_554
La1 O0 2.769128 1_555
La1 O17 2.807380 1_554
La1 O8 2.807380 1_554
La2 O3 2.697869 1_555
La2 O15 2.732420 1_555
La2 O22 2.732420 1_555
La2 O1 2.738394 1_455
La2 O2 2.738394 1_545
La2 O11 2.766304 1_554
La2 O18 2.766304 1_554
La2 O20 2.767156 1_455
La2 O14 2.767156 1_545
La2 O0 2.776678 1_445
La2 O10 2.813280 1_544
La2 O16 2.813280 1_454
La3 O3 2.697578 1_555
La3 O15 2.699701 1_555
La3 O23 2.733310 1_555
La3 O1 2.734075 1_455
La3 O2 2.734929 1_555
La3 O14 2.736426 1_555
La3 O11 2.740642 1_554
La3 O21 2.763652 1_455
La3 O19 2.768969 1_554
La3 O0 2.772359 1_455
La3 O10 2.775307 1_554
La3 O17 2.811086 1_454
La4 O15 2.695007 1_555
La4 O22 2.695007 1_555
La4 O11 2.728811 1_555
La4 O18 2.728811 1_555
La4 O7 2.728899 1_555
La4 O14 2.733501 1_545
La4 O20 2.733501 1_455
La4 O6 2.761406 1_545
La4 O5 2.761406 1_455
La4 O16 2.767585 1_455
La4 O10 2.767585 1_545
La4 O4 2.804705 1_445
Ni0 O17 1.867841 1_555
Ni0 O16 1.875524 1_555
Ni0 O5 1.928541 1_555
Ni0 O9 1.936298 1_555
Ni0 O11 1.941971 1_655
Ni0 O1 1.947076 1_556
Ni1 O8 1.867841 1_555
Ni1 O10 1.875524 1_555
Ni1 O6 1.928541 1_555
Ni1 O19 1.936298 1_555
Ni1 O18 1.941971 1_565
Ni1 O2 1.947076 1_556
Ni2 O9 1.924814 1_555
Ni2 O19 1.924814 1_555
Ni2 O7 1.925195 1_555
Ni2 O11 1.932041 1_555
Ni2 O18 1.932041 1_555
Ni2 O3 1.945970 1_556
Ni3 O4 1.861037 1_555
Ni3 O0 1.882525 1_555
Ni3 O21 1.934879 1_555
Ni3 O12 1.934879 1_555
Ni3 O20 1.941039 1_565
Ni3 O14 1.941039 1_655
Ni4 O5 1.917180 1_555
Ni4 O21 1.925481 1_555
Ni4 O13 1.933033 1_555
Ni4 O20 1.933458 1_555
Ni4 O1 1.939815 1_555
Ni4 O15 1.940387 1_655
Ni5 O6 1.917180 1_555
Ni5 O12 1.925481 1_555
Ni5 O23 1.933033 1_555
Ni5 O14 1.933458 1_555
Ni5 O2 1.939815 1_555
Ni5 O22 1.940387 1_565
Ni6 O7 1.920995 1_555
Ni6 O13 1.927893 1_555
Ni6 O23 1.927893 1_555
Ni6 O15 1.934040 1_555
Ni6 O22 1.934040 1_555
Ni6 O3 1.940573 1_555
Ag0 O4 1.989491 1_555
Ag0 O17 1.994758 1_555
Ag0 O8 1.994758 1_555
Ag0 O10 1.997865 1_655
Ag0 O16 1.997865 1_565
Ag0 O0 1.999825 1_556
O4 Sm1 2.751828 1_555
O4 Sm2 2.787882 1_655
O4 Sm0 2.787882 1_565
O5 Sm1 2.709121 1_555
O5 Sm0 2.730469 1_555
O5 Sm2 2.739485 1_655
O6 Sm1 2.709121 1_555
O6 Sm2 2.730469 1_555
O6 Sm0 2.739485 1_565
O7 Sm1 2.651788 1_555
O7 Sm0 2.682382 1_555
O7 Sm2 2.682382 1_555
O8 Sm1 2.745433 1_555
O8 Sm0 2.752510 1_565
O9 Sm1 2.698734 1_555
O9 Sm0 2.704033 1_555
O10 Sm2 2.745614 1_555
O11 Sm2 2.702586 1_555
O12 Sm1 2.706952 1_555
O12 Sm0 2.712248 1_565
O13 Sm1 2.648932 1_555
O13 Sm0 2.649158 1_555
O14 Sm2 2.701906 1_555
O15 Sm2 2.646667 1_555
O16 Sm0 2.745614 1_555
O17 Sm1 2.745433 1_555
O17 Sm2 2.752510 1_655
O18 Sm0 2.702586 1_555
O19 Sm1 2.698734 1_555
O19 Sm2 2.704033 1_555
O20 Sm0 2.701906 1_555
O21 Sm1 2.706952 1_555
O21 Sm2 2.712248 1_655
O22 Sm0 2.646667 1_555
O23 Sm1 2.648932 1_555
O23 Sm2 2.649158 1_555
