# generated using pymatgen
data_CaMn25FeSi4SbO44
_symmetry_space_group_name_H-M   'P 1'
_cell_length_a   6.78797481
_cell_length_b   13.22869697
_cell_length_c   11.75171353
_cell_angle_alpha   63.58900131
_cell_angle_beta   89.99529006
_cell_angle_gamma   104.86354835
_symmetry_Int_Tables_number   1
_chemical_formula_structural   CaMn25FeSi4SbO44
_chemical_formula_sum   'Ca1 Mn25 Fe1 Si4 Sb1 O44'
_cell_volume   905.51088919
_cell_formula_units_Z   1
loop_
 _symmetry_equiv_pos_site_id
 _symmetry_equiv_pos_as_xyz
  1  'x, y, z'
loop_
 _atom_site_type_symbol
 _atom_site_label
 _atom_site_symmetry_multiplicity
 _atom_site_fract_x
 _atom_site_fract_y
 _atom_site_fract_z
 _atom_site_occupancy
  Ca  Ca0  1  0.49969200  0.99955500  0.49986100  1
  Mn  Mn0  1  0.24936700  0.99990900  0.75078100  1
  Mn  Mn1  1  0.75050100  0.99995600  0.24923000  1
  Mn  Mn2  1  0.99904200  0.99811200  0.50090200  1
  Mn  Mn3  1  0.50097100  0.00184200  0.99909500  1
  Mn  Mn4  1  0.75052600  0.99991400  0.75080900  1
  Mn  Mn5  1  0.24945400  0.99995500  0.24924000  1
  Mn  Mn6  1  0.00389200  0.49955200  0.99455400  1
  Mn  Mn7  1  0.49594200  0.50031900  0.50545100  1
  Mn  Mn8  1  0.74987200  0.49978900  0.75000800  1
  Mn  Mn9  1  0.25020200  0.50045500  0.24978500  1
  Mn  Mn10  1  0.49568500  0.49956600  0.99451400  1
  Mn  Mn11  1  0.00440500  0.50030800  0.50551700  1
  Mn  Mn12  1  0.00008200  0.99992700  0.00056500  1
  Mn  Mn13  1  0.36498600  0.23274600  0.46730600  1
  Mn  Mn14  1  0.86726300  0.23419900  0.96652500  1
  Mn  Mn15  1  0.86762300  0.23266800  0.46731400  1
  Mn  Mn16  1  0.36692500  0.23429300  0.96645800  1
  Mn  Mn17  1  0.11667800  0.23330900  0.71672200  1
  Mn  Mn18  1  0.61684300  0.23375200  0.21543200  1
  Mn  Mn19  1  0.63284200  0.76428500  0.53384100  1
  Mn  Mn20  1  0.13455100  0.76877000  0.03246300  1
  Mn  Mn21  1  0.13130100  0.76415900  0.53387000  1
  Mn  Mn22  1  0.63428000  0.76885100  0.03247700  1
  Mn  Mn23  1  0.88394000  0.76781900  0.28266300  1
  Mn  Mn24  1  0.38251000  0.76504300  0.78501500  1
  Fe  Fe0  1  0.25014300  0.50019400  0.74993700  1
  Si  Si0  1  0.86788800  0.73581000  0.79825000  1
  Si  Si1  1  0.36801300  0.73600900  0.29918700  1
  Si  Si2  1  0.13207200  0.26416000  0.20028700  1
  Si  Si3  1  0.63208000  0.26406700  0.70228800  1
  Sb  Sb0  1  0.74993200  0.49982500  0.25016200  1
  O  O0  1  0.96666700  0.40673200  0.87541600  1
  O  O1  1  0.47390300  0.41028300  0.37100700  1
  O  O2  1  0.44033700  0.40706600  0.87521200  1
  O  O3  1  0.93608200  0.40996100  0.37122700  1
  O  O4  1  0.70590800  0.41213600  0.14065100  1
  O  O5  1  0.20276000  0.40534000  0.63898400  1
  O  O6  1  0.02496300  0.59089500  0.12899200  1
  O  O7  1  0.53408700  0.59169300  0.62490300  1
  O  O8  1  0.56631900  0.59125300  0.12868700  1
  O  O9  1  0.05740800  0.59148600  0.62508300  1
  O  O10  1  0.29641400  0.59299800  0.86290700  1
  O  O11  1  0.79451900  0.58881900  0.35775300  1
  O  O12  1  0.79562400  0.59116900  0.87156100  1
  O  O13  1  0.29534000  0.59082500  0.37106200  1
  O  O14  1  0.20471900  0.40934500  0.12915800  1
  O  O15  1  0.70428900  0.40856700  0.62831100  1
  O  O16  1  0.73959600  0.05777300  0.06729600  1
  O  O17  1  0.23074100  0.05505800  0.57161600  1
  O  O18  1  0.31842900  0.05766700  0.06743400  1
  O  O19  1  0.82429200  0.05522700  0.57155800  1
  O  O20  1  0.52759700  0.05514000  0.27344700  1
  O  O21  1  0.02861900  0.05727900  0.77972400  1
  O  O22  1  0.26543900  0.94697700  0.92973300  1
  O  O23  1  0.76496300  0.94053800  0.43099900  1
  O  O24  1  0.68157400  0.94673500  0.92986000  1
  O  O25  1  0.17536800  0.94052500  0.43096700  1
  O  O26  1  0.47027900  0.94047500  0.72723200  1
  O  O27  1  0.97384400  0.94772500  0.21953400  1
  O  O28  1  0.60268000  0.20508700  0.39818300  1
  O  O29  1  0.09944300  0.19923700  0.89980100  1
  O  O30  1  0.90276300  0.80590200  0.09600100  1
  O  O31  1  0.39545400  0.79083400  0.60526500  1
  O  O32  1  0.09214500  0.78579600  0.83891000  1
  O  O33  1  0.59096500  0.78473200  0.34181000  1
  O  O34  1  0.89197900  0.78428400  0.64075500  1
  O  O35  1  0.39322400  0.78622500  0.14182300  1
  O  O36  1  0.69353800  0.78571300  0.83905600  1
  O  O37  1  0.19380300  0.78480000  0.34169900  1
  O  O38  1  0.90924700  0.21559500  0.15725400  1
  O  O39  1  0.40747300  0.21403700  0.66190400  1
  O  O40  1  0.10662800  0.21352800  0.35753200  1
  O  O41  1  0.60815800  0.21585000  0.85996500  1
  O  O42  1  0.30627300  0.21548800  0.15745800  1
  O  O43  1  0.80664500  0.21408500  0.66176100  1
loop_
_geom_bond_atom_site_label_1
_geom_bond_atom_site_label_2
_geom_bond_distance
_geom_bond_site_symmetry_2
Ca0 O28 2.333137 1_565
Ca0 O31 2.369314 1_555
Ca0 O23 2.406198 1_555
Ca0 O25 2.406792 1_555
Ca0 O17 2.412742 1_565
Ca0 O19 2.413914 1_565
Ca0 O20 2.417459 1_565
Ca0 O26 2.419160 1_555
Mn0 O22 1.911546 1_555
Mn0 O17 1.913688 1_565
Mn0 O26 1.934360 1_555
Mn0 O21 1.936478 1_565
Mn0 O32 2.464469 1_555
Mn0 O39 2.464689 1_565
Mn1 O27 1.910347 1_555
Mn1 O20 1.911730 1_565
Mn1 O16 1.932869 1_565
Mn1 O23 1.932956 1_555
Mn1 O33 2.474854 1_555
Mn1 O38 2.479257 1_565
Mn2 O17 1.918581 1_665
Mn2 O19 1.919669 1_565
Mn2 O25 1.926902 1_655
Mn2 O23 1.927572 1_555
Mn2 O34 2.457645 1_555
Mn2 O40 2.480629 1_665
Mn3 O22 1.917945 1_545
Mn3 O24 1.918937 1_545
Mn3 O18 1.929403 1_556
Mn3 O16 1.930390 1_556
Mn3 O41 2.458184 1_555
Mn3 O35 2.481426 1_546
Mn4 O24 1.911935 1_555
Mn4 O19 1.914193 1_565
Mn4 O26 1.933992 1_555
Mn4 O21 1.936308 1_665
Mn4 O43 2.464934 1_565
Mn4 O36 2.465314 1_555
Mn5 O27 1.910707 1_455
Mn5 O20 1.912126 1_565
Mn5 O18 1.931892 1_565
Mn5 O25 1.932650 1_555
Mn5 O37 2.474147 1_555
Mn5 O42 2.478204 1_565
Mn6 O12 2.208523 1_455
Mn6 O0 2.214050 1_455
Mn6 O10 2.214309 1_555
Mn6 O14 2.222657 1_556
Mn6 O4 2.325828 1_456
Mn6 O6 2.363526 1_556
Mn7 O7 2.201749 1_555
Mn7 O15 2.209055 1_555
Mn7 O13 2.221815 1_555
Mn7 O5 2.228083 1_555
Mn7 O11 2.337799 1_555
Mn7 O1 2.349456 1_555
Mn8 O15 2.222867 1_555
Mn8 O12 2.223029 1_555
Mn8 O9 2.258466 1_655
Mn8 O7 2.260287 1_555
Mn8 O2 2.270654 1_555
Mn8 O0 2.273495 1_555
Mn9 O13 2.209561 1_555
Mn9 O14 2.210571 1_555
Mn9 O1 2.275077 1_555
Mn9 O3 2.277361 1_455
Mn9 O6 2.282973 1_555
Mn9 O8 2.286688 1_555
Mn10 O12 2.208511 1_555
Mn10 O2 2.212355 1_555
Mn10 O10 2.215129 1_555
Mn10 O14 2.222416 1_556
Mn10 O4 2.324528 1_556
Mn10 O8 2.364384 1_556
Mn11 O9 2.200854 1_555
Mn11 O15 2.208724 1_455
Mn11 O13 2.221183 1_555
Mn11 O5 2.228554 1_555
Mn11 O11 2.337426 1_455
Mn11 O3 2.351114 1_455
Mn12 O30 2.202563 1_455
Mn12 O29 2.262491 1_564
Mn12 O27 2.342275 1_455
Mn12 O21 2.349761 1_564
Mn12 O16 2.356856 1_465
Mn12 O18 2.357547 1_565
Mn12 O22 2.365107 1_554
Mn12 O24 2.366395 1_454
Mn13 O28 1.990993 1_555
Mn13 O1 2.021814 1_555
Mn13 O17 2.048372 1_555
Mn13 O40 2.206303 1_555
Mn13 O39 2.215259 1_555
Mn14 O0 1.961317 1_555
Mn14 O29 2.002252 1_655
Mn14 O16 2.025795 1_556
Mn14 O38 2.170480 1_556
Mn14 O41 2.184537 1_555
Mn15 O28 1.988658 1_555
Mn15 O3 2.019024 1_555
Mn15 O19 2.045658 1_555
Mn15 O40 2.204900 1_655
Mn15 O43 2.213884 1_555
Mn16 O2 1.963992 1_555
Mn16 O29 2.004176 1_555
Mn16 O18 2.028454 1_556
Mn16 O42 2.172574 1_556
Mn16 O41 2.187080 1_555
Mn17 O5 1.955301 1_555
Mn17 O29 1.988963 1_555
Mn17 O21 2.019927 1_555
Mn17 O39 2.186410 1_555
Mn17 O43 2.186897 1_455
Mn18 O28 2.005531 1_555
Mn18 O4 2.032120 1_555
Mn18 O20 2.060862 1_555
Mn18 O42 2.202761 1_555
Mn18 O38 2.203437 1_555
Mn19 O7 1.961756 1_555
Mn19 O31 1.994189 1_555
Mn19 O23 2.030146 1_555
Mn19 O33 2.177879 1_555
Mn19 O34 2.190901 1_555
Mn20 O30 1.999227 1_455
Mn20 O6 2.025902 1_555
Mn20 O22 2.048848 1_554
Mn20 O35 2.201000 1_555
Mn20 O32 2.210184 1_554
Mn21 O9 1.962705 1_555
Mn21 O31 1.995636 1_555
Mn21 O25 2.031534 1_555
Mn21 O37 2.178642 1_555
Mn21 O34 2.192418 1_455
Mn22 O30 1.996578 1_555
Mn22 O8 2.022765 1_555
Mn22 O24 2.045142 1_554
Mn22 O35 2.199274 1_555
Mn22 O36 2.209292 1_554
Mn23 O30 2.016386 1_555
Mn23 O11 2.039087 1_555
Mn23 O27 2.066622 1_555
Mn23 O37 2.202797 1_655
Mn23 O33 2.203303 1_555
Mn24 O10 1.955374 1_555
Mn24 O31 1.982341 1_555
Mn24 O26 2.022505 1_555
Mn24 O32 2.189384 1_555
Mn24 O36 2.189520 1_555
Fe0 O2 2.134167 1_555
Fe0 O9 2.134815 1_555
Fe0 O7 2.135287 1_555
Fe0 O0 2.136069 1_455
Fe0 O10 2.149539 1_555
Fe0 O5 2.150955 1_555
O1 Sb0 2.072433 1_555
O3 Sb0 2.073719 1_555
O4 Sb0 2.059476 1_555
O6 Sb0 2.069764 1_455
O8 Sb0 2.071664 1_555
O11 Sb0 2.053705 1_555
O12 Si0 1.641921 1_555
O13 Si1 1.648081 1_555
O14 Si2 1.648167 1_555
O15 Si3 1.640399 1_555
O32 Si0 1.657589 1_455
O33 Si1 1.656376 1_555
O34 Si0 1.659474 1_555
O35 Si1 1.655061 1_555
O36 Si0 1.657935 1_555
O37 Si1 1.656173 1_555
O38 Si2 1.657366 1_655
O39 Si3 1.658191 1_555
O40 Si2 1.653086 1_555
O41 Si3 1.661956 1_555
O42 Si2 1.656783 1_555
O43 Si3 1.658342 1_555
