# generated using pymatgen
data_Na2YbPWO8
_symmetry_space_group_name_H-M   'P 1'
_cell_length_a   11.57637127
_cell_length_b   11.57637127
_cell_length_c   11.57637127
_cell_angle_alpha   144.94785132
_cell_angle_beta   115.79999124
_cell_angle_gamma   75.29391816
_symmetry_Int_Tables_number   1
_chemical_formula_structural   Na2YbPWO8
_chemical_formula_sum   'Na8 Yb4 P4 W4 O32'
_cell_volume   786.27695733
_cell_formula_units_Z   4
loop_
 _symmetry_equiv_pos_site_id
 _symmetry_equiv_pos_as_xyz
  1  'x, y, z'
loop_
 _atom_site_type_symbol
 _atom_site_label
 _atom_site_symmetry_multiplicity
 _atom_site_fract_x
 _atom_site_fract_y
 _atom_site_fract_z
 _atom_site_occupancy
  Na  Na0  1  0.28314400  0.33836800  0.92751900  1
  Na  Na1  1  0.91084900  0.35562500  0.57248100  1
  Na  Na2  1  0.58915100  0.16163200  0.44477600  1
  Na  Na3  1  0.21685600  0.14437500  0.05522400  1
  Na  Na4  1  0.71685600  0.66163200  0.07248100  1
  Na  Na5  1  0.08915100  0.64437500  0.42751900  1
  Na  Na6  1  0.41084900  0.83836800  0.55522400  1
  Na  Na7  1  0.78314400  0.85562500  0.94477600  1
  Yb  Yb0  1  0.32005000  0.75000000  0.07005000  1
  Yb  Yb1  1  0.17995000  0.25000000  0.42995000  1
  Yb  Yb2  1  0.67995000  0.25000000  0.92995000  1
  Yb  Yb3  1  0.82005000  0.75000000  0.57005000  1
  P  P0  1  0.93140300  0.25000000  0.18140300  1
  P  P1  1  0.56859700  0.75000000  0.31859700  1
  P  P2  1  0.06859700  0.75000000  0.81859700  1
  P  P3  1  0.43140300  0.25000000  0.68140300  1
  W  W0  1  0.92682200  0.17682200  0.75000000  1
  W  W1  1  0.57317800  0.32317800  0.25000000  1
  W  W2  1  0.07317800  0.82317800  0.25000000  1
  W  W3  1  0.42682200  0.67682200  0.75000000  1
  O  O0  1  0.93531100  0.19587600  0.26829600  1
  O  O1  1  0.42758000  0.66701500  0.23170400  1
  O  O2  1  0.07242000  0.30412400  0.23943500  1
  O  O3  1  0.56468900  0.83298500  0.26056500  1
  O  O4  1  0.06468900  0.80412400  0.73170400  1
  O  O5  1  0.57242000  0.33298500  0.76829600  1
  O  O6  1  0.92758000  0.69587600  0.76056500  1
  O  O7  1  0.43531100  0.16701500  0.73943500  1
  O  O8  1  0.84652100  0.06498100  0.92947900  1
  O  O9  1  0.63550200  0.91704200  0.57052100  1
  O  O10  1  0.86449800  0.43501900  0.28154000  1
  O  O11  1  0.65347900  0.58295800  0.21846000  1
  O  O12  1  0.15347900  0.93501900  0.07052100  1
  O  O13  1  0.36449800  0.08295800  0.42947900  1
  O  O14  1  0.13550200  0.56498100  0.71846000  1
  O  O15  1  0.34652100  0.41704200  0.78154000  1
  O  O16  1  0.84611700  0.33246800  0.93709700  1
  O  O17  1  0.89537000  0.90902000  0.56290300  1
  O  O18  1  0.60463000  0.16753200  0.01364900  1
  O  O19  1  0.65388300  0.59098000  0.48635100  1
  O  O20  1  0.15388300  0.66753200  0.06290300  1
  O  O21  1  0.10463000  0.09098000  0.43709700  1
  O  O22  1  0.39537000  0.83246800  0.98635100  1
  O  O23  1  0.34611700  0.40902000  0.51364900  1
  O  O24  1  0.86060100  0.18872500  0.58696300  1
  O  O25  1  0.10176200  0.27363800  0.91303700  1
  O  O26  1  0.39823800  0.31127500  0.17187600  1
  O  O27  1  0.63939900  0.22636200  0.32812400  1
  O  O28  1  0.13939900  0.81127500  0.41303700  1
  O  O29  1  0.89823800  0.72636200  0.08696300  1
  O  O30  1  0.60176200  0.68872500  0.82812400  1
  O  O31  1  0.36060100  0.77363800  0.67187600  1
loop_
_geom_bond_atom_site_label_1
_geom_bond_atom_site_label_2
_geom_bond_distance
_geom_bond_site_symmetry_2
Na0 O25 2.298978 1_555
Na0 O1 2.416661 1_556
Na0 O7 2.504344 1_555
Na0 O26 2.799141 1_556
Na0 O15 2.856913 1_555
Na0 O20 2.929863 1_556
Na1 O24 2.298978 1_555
Na1 O0 2.416661 1_555
Na1 O6 2.504344 1_555
Na1 O27 2.799141 1_555
Na1 O14 2.856913 1_655
Na1 O21 2.929872 1_655
Na2 O27 2.298978 1_555
Na2 O3 2.416661 1_545
Na2 O5 2.504344 1_555
Na2 O24 2.799141 1_555
Na2 O13 2.856913 1_555
Na2 O22 2.929867 1_544
Na3 O26 2.298978 1_555
Na3 O2 2.416661 1_555
Na3 O4 2.504344 1_544
Na3 O25 2.799141 1_554
Na3 O12 2.856913 1_545
Na3 O23 2.929863 1_555
Na4 O29 2.298978 1_555
Na4 O5 2.416661 1_554
Na4 O3 2.504344 1_555
Na4 O30 2.799141 1_554
Na4 O11 2.856913 1_555
Na4 O16 2.929863 1_554
Na5 O28 2.298978 1_555
Na5 O4 2.416661 1_555
Na5 O2 2.504344 1_555
Na5 O31 2.799141 1_555
Na5 O10 2.856913 1_455
Na5 O17 2.929872 1_455
Na6 O31 2.298978 1_555
Na6 O7 2.416661 1_565
Na6 O1 2.504344 1_555
Na6 O28 2.799141 1_555
Na6 O9 2.856913 1_555
Na6 O18 2.929867 1_566
Na7 O30 2.298978 1_555
Na7 O6 2.416661 1_555
Na7 O0 2.504344 1_566
Na7 O29 2.799141 1_556
Na7 O8 2.856913 1_565
Na7 O19 2.929863 1_555
O0 P0 1.544139 1_555
O0 Yb1 2.506580 1_655
O1 P1 1.544139 1_555
O1 Yb0 2.506580 1_555
O2 P0 1.544139 1_455
O2 Yb1 2.506580 1_555
O3 P1 1.544139 1_555
O3 Yb0 2.506580 1_555
O4 P2 1.544139 1_555
O4 Yb3 2.506580 1_455
O5 P3 1.544139 1_555
O5 Yb2 2.506580 1_555
O6 P2 1.544139 1_655
O6 Yb3 2.506580 1_555
O7 P3 1.544139 1_555
O7 Yb2 2.506580 1_555
O8 P0 1.550918 1_556
O8 Yb3 2.306423 1_545
O8 Yb2 2.489765 1_555
O9 P1 1.550918 1_555
O9 Yb2 2.306423 1_565
O9 Yb3 2.489765 1_555
O10 P0 1.550918 1_555
O10 Yb3 2.306423 1_555
O10 Yb2 2.489765 1_554
O11 P1 1.550918 1_555
O11 Yb2 2.306423 1_554
O11 Yb3 2.489765 1_555
O12 P2 1.550918 1_554
O12 Yb1 2.306423 1_565
O12 Yb0 2.489765 1_555
O13 P3 1.550918 1_555
O13 Yb0 2.306423 1_545
O13 Yb1 2.489765 1_555
O14 P2 1.550918 1_555
O14 Yb1 2.306423 1_555
O14 Yb0 2.489765 1_556
O15 P3 1.550918 1_555
O15 Yb0 2.306423 1_556
O15 Yb1 2.489765 1_555
O16 W0 1.824217 1_555
O16 Yb2 2.298494 1_555
O17 W0 1.824218 1_565
O17 Yb3 2.298487 1_555
O18 W1 1.824224 1_555
O18 Yb2 2.298487 1_554
O19 W1 1.824217 1_555
O19 Yb3 2.298494 1_555
O20 W2 1.824217 1_555
O20 Yb0 2.298494 1_555
O21 W2 1.824218 1_545
O21 Yb1 2.298487 1_555
O22 W3 1.824224 1_555
O22 Yb0 2.298487 1_556
O23 W3 1.824217 1_555
O23 Yb1 2.298494 1_555
O24 W0 1.811514 1_555
O25 W0 1.811514 1_455
O26 W1 1.811514 1_555
O27 W1 1.811514 1_555
O28 W2 1.811514 1_555
O29 W2 1.811514 1_655
O30 W3 1.811514 1_555
O31 W3 1.811514 1_555
