# generated using pymatgen
data_BaPrEuSbO6
_symmetry_space_group_name_H-M   'P 1'
_cell_length_a   6.05079463
_cell_length_b   6.11609868
_cell_length_c   8.60548791
_cell_angle_alpha   90.34132859
_cell_angle_beta   90.38152249
_cell_angle_gamma   90.27319767
_symmetry_Int_Tables_number   1
_chemical_formula_structural   BaPrEuSbO6
_chemical_formula_sum   'Ba2 Pr2 Eu2 Sb2 O12'
_cell_volume   318.44911093
_cell_formula_units_Z   2
loop_
 _symmetry_equiv_pos_site_id
 _symmetry_equiv_pos_as_xyz
  1  'x, y, z'
loop_
 _atom_site_type_symbol
 _atom_site_label
 _atom_site_symmetry_multiplicity
 _atom_site_fract_x
 _atom_site_fract_y
 _atom_site_fract_z
 _atom_site_occupancy
  Ba  Ba0  1  0.50767633  0.53118062  0.24974139  1
  Ba  Ba1  1  0.49232367  0.46881938  0.75025861  1
  Pr  Pr0  1  -0.00000000  0.50000000  -0.00000000  1
  Pr  Pr1  1  0.50000000  -0.00000000  0.50000000  1
  Eu  Eu0  1  0.99097938  0.04095664  0.25203356  1
  Eu  Eu1  1  0.00902062  0.95904336  0.74796644  1
  Sb  Sb0  1  0.50000000  -0.00000000  -0.00000000  1
  Sb  Sb1  1  -0.00000000  0.50000000  0.50000000  1
  O  O0  1  0.23135248  0.19023699  0.95269161  1
  O  O1  1  0.26377870  0.69810098  0.53641796  1
  O  O2  1  0.76864752  0.80976301  0.04730839  1
  O  O3  1  0.73622130  0.30189902  0.46358204  1
  O  O4  1  0.30502867  0.73569626  0.95846332  1
  O  O5  1  0.18505287  0.22684983  0.54418367  1
  O  O6  1  0.69497133  0.26430374  0.04153668  1
  O  O7  1  0.81494713  0.77315017  0.45581633  1
  O  O8  1  0.40797086  0.99128232  0.22868270  1
  O  O9  1  0.06716662  0.46638711  0.27026551  1
  O  O10  1  0.59202914  0.00871768  0.77131730  1
  O  O11  1  0.93283338  0.53361289  0.72973449  1
loop_
_geom_bond_atom_site_label_1
_geom_bond_atom_site_label_2
_geom_bond_distance
_geom_bond_site_symmetry_2
Ba0 O6 2.677423 1_555
Ba0 O3 2.698244 1_555
Ba0 O9 2.699964 1_555
Ba0 O8 2.887277 1_555
Ba0 O2 2.911630 1_555
Ba0 O7 2.947935 1_555
Ba0 O1 3.055985 1_555
Ba0 O4 3.059764 1_554
Ba1 O4 2.677423 1_555
Ba1 O1 2.698244 1_555
Ba1 O11 2.699964 1_555
Ba1 O10 2.887277 1_555
Ba1 O0 2.911630 1_555
Ba1 O5 2.947935 1_555
Ba1 O3 3.055985 1_555
Ba1 O6 3.059764 1_556
Eu0 O8 2.551901 1_645
Eu0 O2 2.614117 1_545
Eu0 O7 2.633454 1_545
Eu0 O9 2.643887 1_655
Eu0 O3 2.874648 1_555
Eu0 O6 2.892205 1_555
Eu0 O5 2.984322 1_655
Eu0 O0 3.106438 1_654
Eu1 O10 2.551901 1_465
Eu1 O0 2.614117 1_565
Eu1 O5 2.633454 1_565
Eu1 O11 2.643887 1_455
Eu1 O1 2.874648 1_555
Eu1 O4 2.892205 1_555
Eu1 O7 2.984322 1_455
Eu1 O2 3.106438 1_456
O0 Sb0 2.043700 1_556
O0 Pr0 2.395484 1_556
O1 Sb1 2.020895 1_555
O1 Pr1 2.353346 1_565
O2 Sb0 2.043700 1_565
O2 Pr0 2.395484 1_655
O3 Sb1 2.020895 1_655
O3 Pr1 2.353346 1_555
O4 Sb0 2.025325 1_566
O4 Pr0 2.366821 1_556
O5 Sb1 2.051590 1_555
O5 Pr1 2.393688 1_555
O6 Sb0 2.025325 1_555
O6 Pr0 2.366821 1_655
O7 Sb1 2.051590 1_655
O7 Pr1 2.393688 1_565
O8 Sb0 2.049687 1_565
O8 Pr1 2.396918 1_565
O9 Sb1 2.030401 1_555
O9 Pr0 2.368656 1_555
O10 Sb0 2.049687 1_556
O10 Pr1 2.396918 1_555
O11 Sb1 2.030401 1_655
O11 Pr0 2.368656 1_656
