# generated using pymatgen
data_Ca2MgAs2(H2O5)2
_symmetry_space_group_name_H-M   'P 1'
_cell_length_a   5.63184618
_cell_length_b   5.79878231
_cell_length_c   12.90879838
_cell_angle_alpha   90.00000000
_cell_angle_beta   90.00000000
_cell_angle_gamma   107.68684301
_symmetry_Int_Tables_number   1
_chemical_formula_structural   Ca2MgAs2(H2O5)2
_chemical_formula_sum   'Ca4 Mg2 As4 H8 O20'
_cell_volume   401.64635274
_cell_formula_units_Z   2
loop_
 _symmetry_equiv_pos_site_id
 _symmetry_equiv_pos_as_xyz
  1  'x, y, z'
loop_
 _atom_site_type_symbol
 _atom_site_label
 _atom_site_symmetry_multiplicity
 _atom_site_fract_x
 _atom_site_fract_y
 _atom_site_fract_z
 _atom_site_occupancy
  Ca  Ca0  1  0.23444705  0.56470008  0.12100909  1
  Ca  Ca1  1  0.76555295  0.43529992  0.87899091  1
  Ca  Ca2  1  0.26555295  0.43529992  0.62100909  1
  Ca  Ca3  1  0.73444705  0.56470008  0.37899091  1
  Mg  Mg0  1  0.00000000  0.00000000  -0.00000000  1
  Mg  Mg1  1  0.50000000  0.00000000  0.50000000  1
  As  As0  1  0.06918333  0.21841373  0.37903281  1
  As  As1  1  0.93081667  0.78158627  0.62096719  1
  As  As2  1  0.43081667  0.78158627  0.87903281  1
  As  As3  1  0.56918333  0.21841373  0.12096719  1
  H  H0  1  -0.00027335  0.09967538  0.79252713  1
  H  H1  1  0.00027335  0.90032462  0.20747287  1
  H  H2  1  0.50027335  0.90032462  0.29252713  1
  H  H3  1  0.49972665  0.09967538  0.70747287  1
  H  H4  1  0.29758126  0.70013265  0.35051877  1
  H  H5  1  0.70241874  0.29986735  0.64948123  1
  H  H6  1  0.20241874  0.29986735  0.85051877  1
  H  H7  1  0.79758126  0.70013265  0.14948123  1
  O  O0  1  0.34354487  0.23716735  0.03578396  1
  O  O1  1  0.65645513  0.76283265  0.96421604  1
  O  O2  1  0.15645513  0.76283265  0.53578396  1
  O  O3  1  0.84354487  0.23716735  0.46421604  1
  O  O4  1  0.49617486  0.94456397  0.17661730  1
  O  O5  1  0.50382514  0.05543603  0.82338270  1
  O  O6  1  0.00382514  0.05543603  0.67661730  1
  O  O7  1  0.99617486  0.94456397  0.32338270  1
  O  O8  1  0.34329316  0.27852711  0.44610726  1
  O  O9  1  0.65670684  0.72147289  0.55389274  1
  O  O10  1  0.15670684  0.72147289  0.94610726  1
  O  O11  1  0.84329316  0.27852711  0.05389274  1
  O  O12  1  0.53551270  0.18326924  0.63761327  1
  O  O13  1  0.46448730  0.81673076  0.36238673  1
  O  O14  1  0.96448730  0.81673076  0.13761327  1
  O  O15  1  0.03551270  0.18326924  0.86238673  1
  O  O16  1  0.07889035  0.44770250  0.29479954  1
  O  O17  1  0.92110965  0.55229750  0.70520046  1
  O  O18  1  0.42110965  0.55229750  0.79479954  1
  O  O19  1  0.57889035  0.44770250  0.20520046  1
loop_
_geom_bond_atom_site_label_1
_geom_bond_atom_site_label_2
_geom_bond_distance
_geom_bond_site_symmetry_2
Ca0 O4 2.359492 1_555
Ca0 O14 2.417335 1_455
Ca0 O16 2.428908 1_555
Ca0 O0 2.429865 1_555
Ca0 O11 2.477095 1_455
Ca0 O19 2.490814 1_555
Ca0 O10 2.521412 1_554
Ca1 O5 2.359492 1_555
Ca1 O15 2.417335 1_655
Ca1 O17 2.428908 1_555
Ca1 O1 2.429865 1_555
Ca1 O10 2.477095 1_655
Ca1 O18 2.490814 1_555
Ca1 O11 2.521412 1_556
Ca2 O6 2.359492 1_555
Ca2 O12 2.417335 1_555
Ca2 O18 2.428908 1_555
Ca2 O2 2.429865 1_555
Ca2 O9 2.477095 1_555
Ca2 O17 2.490814 1_455
Ca2 O8 2.521412 1_555
Ca3 O7 2.359492 1_555
Ca3 O13 2.417335 1_555
Ca3 O19 2.428908 1_555
Ca3 O3 2.429865 1_555
Ca3 O8 2.477095 1_555
Ca3 O16 2.490814 1_655
Ca3 O9 2.521412 1_555
Mg0 O15 2.048399 1_554
Mg0 O14 2.048399 1_445
Mg0 O1 2.057029 1_444
Mg0 O0 2.057029 1_555
Mg0 O11 2.176605 1_455
Mg0 O10 2.176605 1_544
Mg1 O13 2.048399 1_545
Mg1 O12 2.048399 1_555
Mg1 O3 2.057029 1_555
Mg1 O2 2.057029 1_545
Mg1 O8 2.176605 1_555
Mg1 O9 2.176605 1_545
As0 O7 1.676338 1_445
As0 O16 1.705572 1_555
As0 O3 1.708736 1_455
As0 O8 1.710957 1_555
As1 O6 1.676338 1_665
As1 O17 1.705572 1_555
As1 O2 1.708736 1_655
As1 O9 1.710957 1_555
As2 O5 1.676338 1_565
As2 O18 1.705572 1_555
As2 O1 1.708736 1_555
As2 O10 1.710957 1_555
As3 O4 1.676338 1_545
As3 O19 1.705572 1_555
As3 O0 1.708736 1_555
As3 O11 1.710957 1_555
H0 O15 1.014634 1_555
H0 O6 1.519449 1_555
H1 O14 1.014634 1_455
H1 O7 1.519449 1_455
H2 O13 1.014634 1_555
H2 O4 1.519449 1_555
H3 O12 1.014634 1_555
H3 O5 1.519449 1_555
H4 O13 0.988948 1_555
H4 O16 1.755414 1_555
H5 O12 0.988948 1_555
H5 O17 1.755414 1_555
H6 O15 0.988948 1_555
H6 O18 1.755414 1_555
H7 O14 0.988948 1_555
H7 O19 1.755414 1_555
