# generated using pymatgen
data_Li4MnCo2O7
_symmetry_space_group_name_H-M   'P 1'
_cell_length_a   3.02146500
_cell_length_b   6.39538304
_cell_length_c   13.57241926
_cell_angle_alpha   96.18543567
_cell_angle_beta   88.87100446
_cell_angle_gamma   103.40550181
_symmetry_Int_Tables_number   1
_chemical_formula_structural   Li4MnCo2O7
_chemical_formula_sum   'Li8 Mn2 Co4 O14'
_cell_volume   253.63086492
_cell_formula_units_Z   2
loop_
 _symmetry_equiv_pos_site_id
 _symmetry_equiv_pos_as_xyz
  1  'x, y, z'
loop_
 _atom_site_type_symbol
 _atom_site_label
 _atom_site_symmetry_multiplicity
 _atom_site_fract_x
 _atom_site_fract_y
 _atom_site_fract_z
 _atom_site_occupancy
  Li  Li0  1  0.85656400  0.93242400  0.21460000  1
  Li  Li1  1  0.99628300  0.49727700  0.50249800  1
  Li  Li2  1  0.14761300  0.07370900  0.78509800  1
  Li  Li3  1  0.42237000  0.20774300  0.35805400  1
  Li  Li4  1  0.57397000  0.78893000  0.64101100  1
  Li  Li5  1  0.71686700  0.36053600  0.92739200  1
  Li  Li6  1  0.28477300  0.63930500  0.07144700  1
  Li  Li7  1  0.28612900  0.14366700  0.57177600  1
  Mn  Mn0  1  0.99979400  0.99832500  0.99960000  1
  Mn  Mn1  1  0.14245000  0.57395600  0.28678100  1
  Co  Co0  1  0.42727500  0.71054800  0.85489800  1
  Co  Co1  1  0.57140100  0.28621100  0.14299600  1
  Co  Co2  1  0.71232400  0.86949900  0.43612700  1
  Co  Co3  1  0.85553000  0.41801800  0.70810900  1
  O  O0  1  0.41245000  0.97854700  0.10616200  1
  O  O1  1  0.56281600  0.55863400  0.39321400  1
  O  O2  1  0.72177800  0.13629500  0.68453600  1
  O  O3  1  0.98533400  0.26340000  0.24574600  1
  O  O4  1  0.13072500  0.82521700  0.52773000  1
  O  O5  1  0.27514600  0.41040100  0.81687100  1
  O  O6  1  0.83768300  0.68813000  0.95899400  1
  O  O7  1  0.29992400  0.88090000  0.32655000  1
  O  O8  1  0.44518600  0.46255200  0.61627300  1
  O  O9  1  0.58477000  0.01822100  0.89272600  1
  O  O10  1  0.85298600  0.15066800  0.45877000  1
  O  O11  1  0.01028000  0.72443400  0.75265100  1
  O  O12  1  0.15840300  0.30907200  0.03964300  1
  O  O13  1  0.72917600  0.59338200  0.17974800  1
loop_
_geom_bond_atom_site_label_1
_geom_bond_atom_site_label_2
_geom_bond_distance
_geom_bond_site_symmetry_2
Li0 O3 2.059699 1_565
Li0 O0 2.099678 1_555
Li0 O13 2.114855 1_555
Li0 O7 2.145823 1_655
Li0 O0 2.200123 1_655
Li0 O7 2.235207 1_555
Li1 O4 2.033872 1_655
Li1 O1 2.123584 1_555
Li1 O8 2.137675 1_655
Li1 O10 2.176016 1_555
Li1 O1 2.235630 1_655
Li1 O8 2.237770 1_555
Li2 O2 2.025896 1_455
Li2 O5 2.095890 1_555
Li2 O9 2.099887 1_555
Li2 O11 2.172829 1_545
Li2 O2 2.176033 1_555
Li2 O9 2.210395 1_455
Li3 O10 2.022987 1_555
Li3 O7 2.035694 1_545
Li3 O3 2.146633 1_455
Li3 O10 2.164527 1_455
Li3 O1 2.186175 1_555
Li3 O3 2.253328 1_555
Li4 O8 2.024484 1_555
Li4 O4 2.124497 1_555
Li4 O11 2.160898 1_655
Li4 O2 2.179722 1_565
Li4 O4 2.245340 1_655
Li4 O11 2.252570 1_555
Li5 O6 2.040717 1_555
Li5 O5 2.124246 1_555
Li5 O9 2.133941 1_555
Li5 O12 2.144987 1_656
Li5 O5 2.225111 1_655
Li5 O12 2.241856 1_556
Li6 O12 2.056368 1_555
Li6 O13 2.098456 1_555
Li6 O0 2.115821 1_555
Li6 O6 2.152057 1_454
Li6 O13 2.198216 1_455
Li6 O6 2.231190 1_554
Li7 O4 2.007714 1_545
Li7 O8 2.011562 1_555
Li7 O10 2.046527 1_455
Li7 O2 2.049580 1_555
Li7 O2 2.264388 1_455
Li7 O10 2.272363 1_555
Mn0 O6 1.950295 1_555
Mn0 O12 1.952045 1_666
Mn0 O0 1.961117 1_656
Mn0 O9 1.969304 1_565
Mn0 O9 2.253600 1_665
Mn0 O0 2.256399 1_556
Mn1 O7 1.928705 1_555
Mn1 O3 1.953228 1_455
Mn1 O13 1.966546 1_455
Mn1 O1 1.967247 1_555
Mn1 O1 2.239369 1_455
Mn1 O13 2.259152 1_555
Co0 O5 1.883902 1_555
Co0 O11 1.915329 1_555
Co0 O9 1.928624 1_565
Co0 O6 1.936354 1_555
Co0 O11 2.212325 1_655
Co0 O6 2.239687 1_455
Co1 O13 1.923333 1_555
Co1 O0 1.926515 1_545
Co1 O3 1.930669 1_555
Co1 O12 1.934943 1_555
Co1 O3 2.220024 1_455
Co1 O12 2.227258 1_655
Co2 O10 1.743627 1_565
Co2 O4 1.878274 1_655
Co2 O1 1.959655 1_555
Co2 O7 1.976948 1_555
Co2 O4 2.114945 1_555
Co2 O7 2.286599 1_655
Co3 O2 1.747900 1_555
Co3 O8 1.863615 1_555
Co3 O11 1.937859 1_655
Co3 O5 1.976556 1_655
Co3 O8 2.136028 1_655
Co3 O5 2.265051 1_555
