# generated using pymatgen
data_YInCu
_symmetry_space_group_name_H-M   'P 1'
_cell_length_a   7.42988163
_cell_length_b   7.42988163
_cell_length_c   3.94742332
_cell_angle_alpha   90.00000000
_cell_angle_beta   90.00000000
_cell_angle_gamma   119.99999600
_symmetry_Int_Tables_number   1
_chemical_formula_structural   YInCu
_chemical_formula_sum   'Y3 In3 Cu3'
_cell_volume   188.71574738
_cell_formula_units_Z   3
loop_
 _symmetry_equiv_pos_site_id
 _symmetry_equiv_pos_as_xyz
  1  'x, y, z'
loop_
 _atom_site_type_symbol
 _atom_site_label
 _atom_site_symmetry_multiplicity
 _atom_site_fract_x
 _atom_site_fract_y
 _atom_site_fract_z
 _atom_site_occupancy
  Y  Y0  1  0.40960928  0.00000000  0.50000000  1
  Y  Y1  1  0.00000000  0.40960928  0.50000000  1
  Y  Y2  1  0.59039072  0.59039072  0.50000000  1
  In  In0  1  0.74649886  0.00000000  -0.00000000  1
  In  In1  1  0.00000000  0.74649886  0.00000000  1
  In  In2  1  0.25350114  0.25350114  -0.00000000  1
  Cu  Cu0  1  0.33333300  0.66666700  0.00000000  1
  Cu  Cu1  1  0.66666700  0.33333300  0.00000000  1
  Cu  Cu2  1  -0.00000000  0.00000000  0.50000000  1
loop_
_geom_bond_atom_site_label_1
_geom_bond_atom_site_label_2
_geom_bond_distance
_geom_bond_site_symmetry_2
In0 Y0 3.187600 1_554
In0 Y0 3.187600 1_555
In0 In1 3.262289 1_645
In0 In2 3.262289 1_655
In0 Y2 3.312540 1_544
In0 Y2 3.312540 1_545
In0 Y1 3.312540 1_655
In0 Y1 3.312540 1_654
In1 Y1 3.187600 1_555
In1 Y1 3.187600 1_554
In1 In2 3.262289 1_565
In1 Y2 3.312540 1_455
In1 Y2 3.312540 1_454
In1 Y0 3.312540 1_565
In1 Y0 3.312540 1_564
In2 Y2 3.187600 1_555
In2 Y2 3.187600 1_554
In2 Y1 3.312540 1_555
In2 Y0 3.312540 1_554
In2 Y0 3.312540 1_555
In2 Y1 3.312540 1_554
Cu0 In1 2.820368 1_555
Cu0 In0 2.820373 1_565
Cu0 In2 2.820375 1_555
Cu0 Y0 2.991124 1_564
Cu0 Y0 2.991124 1_565
Cu0 Y1 2.991126 1_555
Cu0 Y1 2.991126 1_554
Cu0 Y2 2.991129 1_554
Cu0 Y2 2.991129 1_555
Cu1 In0 2.820368 1_555
Cu1 In1 2.820373 1_655
Cu1 In2 2.820375 1_555
Cu1 Y1 2.991124 1_655
Cu1 Y1 2.991124 1_654
Cu1 Y0 2.991126 1_554
Cu1 Y0 2.991126 1_555
Cu1 Y2 2.991129 1_554
Cu1 Y2 2.991129 1_555
Cu2 In1 2.728195 1_545
Cu2 In0 2.728195 1_455
Cu2 In1 2.728195 1_546
Cu2 In0 2.728195 1_456
Cu2 In2 2.728195 1_556
Cu2 In2 2.728195 1_555
Cu2 Y0 3.043348 1_555
Cu2 Y1 3.043348 1_555
Cu2 Y2 3.043349 1_445
