# generated using pymatgen
data_RbAs4(HO4)3
_symmetry_space_group_name_H-M   'P 1'
_cell_length_a   5.26937400
_cell_length_b   7.25033539
_cell_length_c   7.98950948
_cell_angle_alpha   116.34648500
_cell_angle_beta   94.44216118
_cell_angle_gamma   95.25161554
_symmetry_Int_Tables_number   1
_chemical_formula_structural   RbAs4(HO4)3
_chemical_formula_sum   'Rb1 As4 H3 O12'
_cell_volume   269.98799212
_cell_formula_units_Z   1
loop_
 _symmetry_equiv_pos_site_id
 _symmetry_equiv_pos_as_xyz
  1  'x, y, z'
loop_
 _atom_site_type_symbol
 _atom_site_label
 _atom_site_symmetry_multiplicity
 _atom_site_fract_x
 _atom_site_fract_y
 _atom_site_fract_z
 _atom_site_occupancy
  Rb  Rb0  1  0.00308900  0.00549300  0.99869200  1
  As  As0  1  0.84515700  0.31191800  0.32116900  1
  As  As1  1  0.14750900  0.67566000  0.68934700  1
  As  As2  1  0.39993700  0.11958900  0.56608800  1
  As  As3  1  0.59692600  0.87411900  0.43740300  1
  H  H0  1  0.49072200  0.34229500  0.70012000  1
  H  H1  1  0.50844000  0.65732400  0.29746100  1
  H  H2  1  0.97686400  0.50012400  0.02039200  1
  O  O0  1  0.88698800  0.53146700  0.11529700  1
  O  O1  1  0.09136400  0.46567900  0.88998300  1
  O  O2  1  0.78011000  0.10787500  0.26388600  1
  O  O3  1  0.22022600  0.88937500  0.73588600  1
  O  O4  1  0.58465200  0.36816100  0.39619700  1
  O  O5  1  0.41382900  0.63157500  0.60756200  1
  O  O6  1  0.31389300  0.03833500  0.37805100  1
  O  O7  1  0.69010300  0.96527400  0.61964600  1
  O  O8  1  0.11244400  0.28999100  0.48717500  1
  O  O9  1  0.88868900  0.71285300  0.51035400  1
  O  O10  1  0.49576600  0.18885800  0.75441100  1
  O  O11  1  0.50029300  0.81003400  0.24588100  1
loop_
_geom_bond_atom_site_label_1
_geom_bond_atom_site_label_2
_geom_bond_distance
_geom_bond_site_symmetry_2
As0 O2 1.340681 1_555
As0 O4 1.556560 1_555
As0 O8 1.925313 1_655
As1 O3 1.429651 1_555
As1 O5 1.592879 1_555
As1 O9 2.021213 1_455
As2 O6 1.367345 1_555
As2 O10 1.391485 1_555
As3 O7 1.331772 1_555
As3 O11 1.421800 1_555
H0 O10 1.363221 1_555
H1 O11 1.344807 1_555
H2 O0 0.879346 1_555
H2 O1 1.185732 1_654
O2 Rb0 2.360093 1_654
O3 Rb0 2.325100 1_565
