# generated using pymatgen
data_Li2SeO4
_symmetry_space_group_name_H-M   'P 1'
_cell_length_a   8.89189400
_cell_length_b   8.93876898
_cell_length_c   9.87082052
_cell_angle_alpha   71.18925074
_cell_angle_beta   72.49191714
_cell_angle_gamma   66.47254098
_symmetry_Int_Tables_number   1
_chemical_formula_structural   Li2SeO4
_chemical_formula_sum   'Li12 Se6 O24'
_cell_volume   667.39112205
_cell_formula_units_Z   6
loop_
 _symmetry_equiv_pos_site_id
 _symmetry_equiv_pos_as_xyz
  1  'x, y, z'
loop_
 _atom_site_type_symbol
 _atom_site_label
 _atom_site_symmetry_multiplicity
 _atom_site_fract_x
 _atom_site_fract_y
 _atom_site_fract_z
 _atom_site_occupancy
  Li  Li0  1  0.57891500  0.51526500  0.58868300  1
  Li  Li1  1  0.38861300  0.48769400  0.41884400  1
  Li  Li2  1  0.10352300  0.25871000  0.05486200  1
  Li  Li3  1  0.23011800  0.13697400  0.37406400  1
  Li  Li4  1  0.38649600  0.20709700  0.75409400  1
  Li  Li5  1  0.77039700  0.86500900  0.63287900  1
  Li  Li6  1  0.94137600  0.25049800  0.79630400  1
  Li  Li7  1  0.32002200  0.56495200  0.89621300  1
  Li  Li8  1  0.60832200  0.79558800  0.24745500  1
  Li  Li9  1  0.88973600  0.74444000  0.94972200  1
  Li  Li10  1  0.06156000  0.74264300  0.20174800  1
  Li  Li11  1  0.69013200  0.43342100  0.09918400  1
  Se  Se0  1  0.32422400  0.38305200  0.20466600  1
  Se  Se1  1  0.69093200  0.60727100  0.78645200  1
  Se  Se2  1  0.14160400  0.50485700  0.70936000  1
  Se  Se3  1  0.30363000  0.85623100  0.22547500  1
  Se  Se4  1  0.85547800  0.50139600  0.29431000  1
  Se  Se5  1  0.68877400  0.15077300  0.77507500  1
  O  O0  1  0.64288300  0.55254200  0.36991400  1
  O  O1  1  0.24313500  0.36134000  0.38563200  1
  O  O2  1  0.85777300  0.70379200  0.19018200  1
  O  O3  1  0.88314000  0.40381700  0.16077400  1
  O  O4  1  0.35461800  0.45318500  0.63111100  1
  O  O5  1  0.51083900  0.22448600  0.88804900  1
  O  O6  1  0.62999800  0.07840600  0.66695100  1
  O  O7  1  0.98562800  0.93474700  0.50660500  1
  O  O8  1  0.14749800  0.99687500  0.14202500  1
  O  O9  1  0.26688900  0.25081500  0.16105700  1
  O  O10  1  0.01975000  0.05585400  0.50673600  1
  O  O11  1  0.76464600  0.41906400  0.89631700  1
  O  O12  1  0.79005600  0.63568700  0.61073600  1
  O  O13  1  0.36247700  0.92210900  0.33835100  1
  O  O14  1  0.22332700  0.70476100  0.33263000  1
  O  O15  1  0.52767400  0.33135900  0.19265400  1
  O  O16  1  0.49397600  0.64536400  0.77758900  1
  O  O17  1  0.76645300  0.30243100  0.66428300  1
  O  O18  1  0.48158300  0.78290200  0.11268100  1
  O  O19  1  0.72206200  0.74557200  0.84635100  1
  O  O20  1  0.11771100  0.60163500  0.84223200  1
  O  O21  1  0.14001700  0.30178800  0.81053200  1
  O  O22  1  0.24699700  0.57447600  0.10023500  1
  O  O23  1  0.84701400  0.01112700  0.85698200  1
loop_
_geom_bond_atom_site_label_1
_geom_bond_atom_site_label_2
_geom_bond_distance
_geom_bond_site_symmetry_2
Li0 O0 2.011456 1_555
Li0 O17 2.063344 1_555
Li0 O4 2.166154 1_555
Li0 O16 2.291199 1_555
Li0 O12 2.596408 1_555
Li1 O4 1.962947 1_555
Li1 O14 2.014949 1_555
Li1 O1 2.171831 1_555
Li1 O0 2.426911 1_555
Li2 O9 2.000135 1_555
Li2 O3 2.056211 1_455
Li2 O8 2.131703 1_545
Li2 O21 2.258327 1_554
Li3 O13 1.892233 1_545
Li3 O9 2.008825 1_555
Li3 O1 2.095150 1_555
Li3 O10 2.176333 1_555
Li4 O21 1.979542 1_555
Li4 O5 2.035758 1_555
Li4 O6 2.068872 1_555
Li4 O4 2.092834 1_555
Li5 O6 1.889470 1_565
Li5 O19 2.033536 1_555
Li5 O12 2.064002 1_555
Li5 O7 2.149649 1_555
Li6 O11 1.962107 1_555
Li6 O21 2.046219 1_655
Li6 O17 2.141483 1_555
Li6 O23 2.438340 1_555
Li7 O16 1.880258 1_555
Li7 O20 1.902813 1_555
Li7 O22 1.940145 1_556
Li8 O2 2.001103 1_555
Li8 O18 2.038140 1_555
Li8 O0 2.066979 1_555
Li8 O13 2.088829 1_555
Li9 O19 2.039794 1_555
Li9 O20 2.092337 1_655
Li9 O23 2.178075 1_565
Li9 O2 2.228650 1_556
Li10 O22 1.995212 1_555
Li10 O2 2.017331 1_455
Li10 O14 2.073611 1_555
Li10 O8 2.519373 1_555
Li11 O15 1.864870 1_555
Li11 O3 1.883196 1_555
Li11 O11 1.940329 1_554
O0 Se4 1.738006 1_555
O1 Se0 1.691618 1_555
O2 Se4 1.774155 1_555
O3 Se4 1.712828 1_555
O4 Se2 1.746104 1_555
O5 Se5 1.661610 1_555
O6 Se5 1.697469 1_555
O8 Se3 1.677265 1_555
O9 Se0 1.668444 1_555
O10 O7 1.235855 1_445
O11 Se1 1.675321 1_555
O12 Se1 1.680639 1_555
O13 Se3 1.697606 1_555
O14 Se3 1.689884 1_555
O15 Se0 1.655038 1_555
O16 Se1 1.669602 1_555
O17 Se5 1.687548 1_555
O18 Se3 1.660000 1_555
O19 Se1 1.672583 1_555
O20 Se2 1.712007 1_555
O21 Se2 1.770697 1_555
O22 Se0 1.676999 1_555
O23 Se5 1.680181 1_555
