# generated using pymatgen
data_U2Si5Rh3
_symmetry_space_group_name_H-M   'P 1'
_cell_length_a   8.12044770
_cell_length_b   8.12044770
_cell_length_c   8.12044770
_cell_angle_alpha   137.99515081
_cell_angle_beta   104.82968612
_cell_angle_gamma   90.05529925
_symmetry_Int_Tables_number   1
_chemical_formula_structural   U2Si5Rh3
_chemical_formula_sum   'U4 Si10 Rh6'
_cell_volume   330.93241409
_cell_formula_units_Z   2
loop_
 _symmetry_equiv_pos_site_id
 _symmetry_equiv_pos_as_xyz
  1  'x, y, z'
loop_
 _atom_site_type_symbol
 _atom_site_label
 _atom_site_symmetry_multiplicity
 _atom_site_fract_x
 _atom_site_fract_y
 _atom_site_fract_z
 _atom_site_occupancy
  U  U0  1  0.40278200  0.63336600  0.76941600  1
  U  U1  1  0.86395000  0.13336600  0.73058400  1
  U  U2  1  0.59721800  0.36663400  0.23058400  1
  U  U3  1  0.13605000  0.86663400  0.26941600  1
  Si  Si0  1  0.50000000  0.25000000  0.75000000  1
  Si  Si1  1  0.50000000  0.75000000  0.25000000  1
  Si  Si2  1  0.22212700  0.97212700  0.75000000  1
  Si  Si3  1  0.77787300  0.02787300  0.25000000  1
  Si  Si4  1  0.73862600  0.89407500  0.84455100  1
  Si  Si5  1  0.04952400  0.39407500  0.65544900  1
  Si  Si6  1  0.26137400  0.10592500  0.15544900  1
  Si  Si7  1  0.95047600  0.60592500  0.34455100  1
  Si  Si8  1  0.77787300  0.52787300  0.75000000  1
  Si  Si9  1  0.22212700  0.47212700  0.25000000  1
  Rh  Rh0  1  0.24987200  0.36009600  0.88977600  1
  Rh  Rh1  1  0.47032000  0.86009600  0.61022400  1
  Rh  Rh2  1  0.52968000  0.13990400  0.38977600  1
  Rh  Rh3  1  0.75012800  0.63990400  0.11022400  1
  Rh  Rh4  1  0.00000000  0.75000000  0.75000000  1
  Rh  Rh5  1  0.00000000  0.25000000  0.25000000  1
loop_
_geom_bond_atom_site_label_1
_geom_bond_atom_site_label_2
_geom_bond_distance
_geom_bond_site_symmetry_2
Si0 U2 3.111030 1_556
Si0 U3 3.111030 1_545
Si0 U1 3.111030 1_555
Si0 U0 3.111030 1_555
Si1 U0 3.111030 1_554
Si1 U1 3.111030 1_565
Si1 U2 3.111030 1_555
Si1 U3 3.111030 1_555
Si2 Si6 2.503587 1_566
Si2 Si7 2.503587 1_455
Si2 U3 3.175908 1_555
Si2 U2 3.175908 1_566
Si2 U0 3.205983 1_555
Si2 U1 3.205983 1_465
Si3 Si5 2.503587 1_655
Si3 Si4 2.503587 1_544
Si3 U1 3.175908 1_555
Si3 U0 3.175908 1_544
Si3 U3 3.205983 1_645
Si3 U2 3.205983 1_555
Si4 Si8 2.503587 1_555
Si4 U1 2.969665 1_565
Si4 U0 3.083717 1_555
Si4 U2 3.137570 1_566
Si4 U2 3.137570 1_555
Si5 Si8 2.503587 1_455
Si5 U0 2.969665 1_555
Si5 U1 3.083717 1_455
Si5 U3 3.137570 1_545
Si5 U3 3.137570 1_556
Si6 Si9 2.503587 1_555
Si6 U3 2.969665 1_545
Si6 U2 3.083717 1_555
Si6 U0 3.137570 1_544
Si6 U0 3.137570 1_555
Si7 Si9 2.503587 1_655
Si7 U2 2.969665 1_555
Si7 U3 3.083717 1_655
Si7 U1 3.137570 1_554
Si7 U1 3.137570 1_565
Si8 U0 3.175908 1_555
Si8 U1 3.175908 1_555
Si8 U2 3.205983 1_555
Si8 U3 3.205983 1_656
Si9 U3 3.175908 1_555
Si9 U2 3.175908 1_555
Si9 U1 3.205983 1_454
Si9 U0 3.205983 1_555
Rh0 Si5 2.353776 1_555
Rh0 Si9 2.412028 1_556
Rh0 Si2 2.412028 1_545
Rh0 Si1 2.426668 1_556
Rh0 Si0 2.426668 1_555
Rh0 U1 3.043007 1_455
Rh0 U3 3.146072 1_556
Rh0 U3 3.146072 1_545
Rh0 U0 3.355684 1_555
Rh0 U2 3.376868 1_556
Rh1 Si4 2.353776 1_555
Rh1 Si9 2.412028 1_555
Rh1 Si2 2.412028 1_555
Rh1 Si0 2.426668 1_565
Rh1 Si1 2.426668 1_555
Rh1 U0 3.043007 1_555
Rh1 U2 3.146072 1_566
Rh1 U2 3.146072 1_555
Rh1 U1 3.355684 1_565
Rh1 U3 3.376868 1_555
Rh2 Si6 2.353776 1_555
Rh2 Si3 2.412028 1_555
Rh2 Si8 2.412028 1_555
Rh2 Si0 2.426668 1_555
Rh2 Si1 2.426668 1_545
Rh2 U2 3.043007 1_555
Rh2 U0 3.146072 1_555
Rh2 U0 3.146072 1_544
Rh2 U3 3.355684 1_545
Rh2 U1 3.376868 1_555
Rh3 Si7 2.353776 1_555
Rh3 Si3 2.412028 1_565
Rh3 Si8 2.412028 1_554
Rh3 Si1 2.426668 1_555
Rh3 Si0 2.426668 1_554
Rh3 U3 3.043007 1_655
Rh3 U1 3.146072 1_554
Rh3 U1 3.146072 1_565
Rh3 U2 3.355684 1_555
Rh3 U0 3.376868 1_554
Rh4 Si5 2.442780 1_555
Rh4 Si7 2.442780 1_455
Rh4 Si4 2.442780 1_455
Rh4 Si6 2.442780 1_566
Rh4 Si8 2.549686 1_455
Rh4 Si2 2.549686 1_555
Rh4 U0 3.403493 1_555
Rh4 U2 3.403493 1_455
Rh4 U3 3.403493 1_556
Rh4 U1 3.403493 1_465
Rh5 Si5 2.442780 1_555
Rh5 Si4 2.442780 1_444
Rh5 Si7 2.442780 1_455
Rh5 Si6 2.442780 1_555
Rh5 Si3 2.549686 1_455
Rh5 Si9 2.549686 1_555
Rh5 U3 3.403493 1_545
Rh5 U2 3.403493 1_455
Rh5 U1 3.403493 1_454
Rh5 U0 3.403493 1_555
