# generated using pymatgen
data_Dy2Ga8Co
_symmetry_space_group_name_H-M   'P 1'
_cell_length_a   4.18959799
_cell_length_b   4.18959799
_cell_length_c   11.02859759
_cell_angle_alpha   90.00000000
_cell_angle_beta   90.00000000
_cell_angle_gamma   90.00000000
_symmetry_Int_Tables_number   1
_chemical_formula_structural   Dy2Ga8Co
_chemical_formula_sum   'Dy2 Ga8 Co1'
_cell_volume   193.58201031
_cell_formula_units_Z   1
loop_
 _symmetry_equiv_pos_site_id
 _symmetry_equiv_pos_as_xyz
  1  'x, y, z'
loop_
 _atom_site_type_symbol
 _atom_site_label
 _atom_site_symmetry_multiplicity
 _atom_site_fract_x
 _atom_site_fract_y
 _atom_site_fract_z
 _atom_site_occupancy
  Dy  Dy0  1  -0.00000000  -0.00000000  0.69464144  1
  Dy  Dy1  1  0.00000000  -0.00000000  0.30535856  1
  Ga  Ga0  1  0.50000000  -0.00000000  0.88488807  1
  Ga  Ga1  1  -0.00000000  0.50000000  0.88488807  1
  Ga  Ga2  1  0.50000000  -0.00000000  0.11511193  1
  Ga  Ga3  1  0.00000000  0.50000000  0.11511193  1
  Ga  Ga4  1  0.50000000  -0.00000000  0.50000000  1
  Ga  Ga5  1  -0.00000000  0.50000000  0.50000000  1
  Ga  Ga6  1  0.50000000  0.50000000  0.69554305  1
  Ga  Ga7  1  0.50000000  0.50000000  0.30445695  1
  Co  Co0  1  -0.00000000  -0.00000000  -0.00000000  1
loop_
_geom_bond_atom_site_label_1
_geom_bond_atom_site_label_2
_geom_bond_distance
_geom_bond_site_symmetry_2
Dy0 Ga6 2.962510 1_545
Dy0 Ga6 2.962510 1_445
Dy0 Ga6 2.962510 1_555
Dy0 Ga6 2.962510 1_455
Dy0 Ga0 2.964866 1_555
Dy0 Ga1 2.964866 1_555
Dy0 Ga1 2.964866 1_545
Dy0 Ga0 2.964866 1_455
Dy0 Ga5 2.999361 1_545
Dy0 Ga4 2.999361 1_455
Dy0 Ga5 2.999361 1_555
Dy0 Ga4 2.999361 1_555
Dy1 Ga7 2.962510 1_545
Dy1 Ga7 2.962510 1_445
Dy1 Ga7 2.962510 1_555
Dy1 Ga7 2.962510 1_455
Dy1 Ga2 2.964866 1_455
Dy1 Ga3 2.964866 1_545
Dy1 Ga3 2.964866 1_555
Dy1 Ga2 2.964866 1_555
Dy1 Ga5 2.999361 1_545
Dy1 Ga4 2.999361 1_455
Dy1 Ga5 2.999361 1_555
Dy1 Ga4 2.999361 1_555
Ga0 Ga2 2.539046 1_556
Ga0 Ga6 2.957838 1_545
Ga0 Ga6 2.957838 1_555
Ga0 Ga1 2.962493 1_545
Ga0 Ga1 2.962493 1_655
Ga0 Ga1 2.962493 1_645
Ga0 Ga1 2.962493 1_555
Ga1 Ga3 2.539046 1_556
Ga1 Ga6 2.957838 1_455
Ga1 Ga6 2.957838 1_555
Ga2 Ga7 2.957838 1_545
Ga2 Ga7 2.957838 1_555
Ga2 Ga3 2.962493 1_645
Ga2 Ga3 2.962493 1_655
Ga2 Ga3 2.962493 1_545
Ga2 Ga3 2.962493 1_555
Ga3 Ga7 2.957838 1_555
Ga3 Ga7 2.957838 1_455
Ga4 Ga5 2.962493 1_545
Ga4 Ga5 2.962493 1_555
Ga4 Ga5 2.962493 1_645
Ga4 Ga5 2.962493 1_655
Ga4 Ga7 3.006486 1_545
Ga4 Ga7 3.006486 1_555
Ga4 Ga6 3.006486 1_545
Ga4 Ga6 3.006486 1_555
Ga5 Ga7 3.006486 1_555
Ga5 Ga7 3.006486 1_455
Ga5 Ga6 3.006486 1_455
Ga5 Ga6 3.006486 1_555
Co0 Ga0 2.449464 1_554
Co0 Ga2 2.449464 1_555
Co0 Ga0 2.449464 1_454
Co0 Ga3 2.449464 1_555
Co0 Ga1 2.449464 1_554
Co0 Ga3 2.449464 1_545
Co0 Ga1 2.449464 1_544
Co0 Ga2 2.449464 1_455
