# generated using pymatgen
data_Mg6ZnCo
_symmetry_space_group_name_H-M   'P 1'
_cell_length_a   4.81737600
_cell_length_b   6.07482700
_cell_length_c   10.43229400
_cell_angle_alpha   90.00000000
_cell_angle_beta   90.00000000
_cell_angle_gamma   90.00000000
_symmetry_Int_Tables_number   1
_chemical_formula_structural   Mg6ZnCo
_chemical_formula_sum   'Mg12 Zn2 Co2'
_cell_volume   305.29822331
_cell_formula_units_Z   2
loop_
 _symmetry_equiv_pos_site_id
 _symmetry_equiv_pos_as_xyz
  1  'x, y, z'
loop_
 _atom_site_type_symbol
 _atom_site_label
 _atom_site_symmetry_multiplicity
 _atom_site_fract_x
 _atom_site_fract_y
 _atom_site_fract_z
 _atom_site_occupancy
  Mg  Mg0  1  0.00000000  0.26513800  0.09232800  1
  Mg  Mg1  1  0.00000000  0.73486200  0.09232800  1
  Mg  Mg2  1  0.00000000  0.50000000  0.83400000  1
  Mg  Mg3  1  0.50000000  0.24325500  0.91241800  1
  Mg  Mg4  1  0.50000000  0.75674500  0.91241800  1
  Mg  Mg5  1  0.50000000  0.50000000  0.66562500  1
  Mg  Mg6  1  0.00000000  0.76513800  0.59232800  1
  Mg  Mg7  1  0.00000000  0.23486200  0.59232800  1
  Mg  Mg8  1  0.00000000  0.00000000  0.33400000  1
  Mg  Mg9  1  0.50000000  0.74325500  0.41241800  1
  Mg  Mg10  1  0.50000000  0.25674500  0.41241800  1
  Mg  Mg11  1  0.50000000  0.00000000  0.16562500  1
  Zn  Zn0  1  0.00000000  0.50000000  0.32489600  1
  Zn  Zn1  1  0.00000000  0.00000000  0.82489600  1
  Co  Co0  1  0.50000000  0.50000000  0.16598700  1
  Co  Co1  1  0.50000000  0.00000000  0.66598700  1
loop_
_geom_bond_atom_site_label_1
_geom_bond_atom_site_label_2
_geom_bond_distance
_geom_bond_site_symmetry_2
Mg0 Zn0 2.814629 1_555
Mg0 Mg1 2.853492 1_555
Mg0 Mg8 2.991766 1_555
Mg0 Mg11 2.996786 1_455
Mg0 Mg11 2.996786 1_555
Mg0 Mg2 3.049324 1_554
Mg0 Mg3 3.056486 1_554
Mg0 Mg3 3.056486 1_454
Mg0 Mg1 3.221335 1_545
Mg0 Zn1 3.221483 1_554
Mg1 Zn0 2.814629 1_555
Mg1 Mg8 2.991766 1_565
Mg1 Mg11 2.996786 1_565
Mg1 Mg11 2.996786 1_465
Mg1 Mg2 3.049324 1_554
Mg1 Mg4 3.056486 1_454
Mg1 Mg4 3.056486 1_554
Mg1 Zn1 3.221483 1_564
Mg2 Mg5 2.981141 1_455
Mg2 Mg5 2.981141 1_555
Mg2 Mg4 2.983897 1_555
Mg2 Mg3 2.983897 1_455
Mg2 Mg4 2.983897 1_455
Mg2 Mg3 2.983897 1_555
Mg2 Mg6 2.991766 1_555
Mg2 Mg7 2.991766 1_555
Mg2 Zn1 3.038898 1_555
Mg2 Zn1 3.038898 1_565
Mg3 Mg4 2.955464 1_545
Mg3 Zn1 2.969704 1_555
Mg3 Zn1 2.969704 1_655
Mg3 Mg5 3.010193 1_555
Mg3 Mg4 3.119363 1_555
Mg4 Zn1 2.969704 1_565
Mg4 Zn1 2.969704 1_665
Mg4 Mg5 3.010193 1_555
Mg5 Mg7 2.996786 1_655
Mg5 Mg6 2.996786 1_555
Mg5 Mg6 2.996786 1_655
Mg5 Mg7 2.996786 1_555
Mg5 Mg9 3.026776 1_555
Mg6 Zn1 2.814629 1_565
Mg6 Mg7 2.853492 1_565
Mg6 Mg8 3.049324 1_565
Mg6 Mg9 3.056486 1_455
Mg6 Mg9 3.056486 1_555
Mg6 Mg7 3.221335 1_555
Mg6 Zn0 3.221483 1_555
Mg7 Zn1 2.814629 1_555
Mg7 Mg8 3.049324 1_555
Mg7 Zn0 3.221483 1_555
Mg8 Mg9 2.983897 1_445
Mg8 Mg9 2.983897 1_545
Mg8 Zn0 3.038898 1_555
Mg8 Zn0 3.038898 1_545
Mg9 Zn0 2.969704 1_555
Mg9 Zn0 2.969704 1_655
Mg10 Mg9 2.955464 1_555
Mg10 Zn0 2.969704 1_555
Mg10 Zn0 2.969704 1_655
Mg10 Mg8 2.983897 1_555
Mg10 Mg8 2.983897 1_655
Mg10 Mg11 3.010193 1_555
Mg10 Mg5 3.026776 1_555
Mg10 Mg7 3.056486 1_655
Mg10 Mg7 3.056486 1_555
Mg10 Mg9 3.119363 1_545
Mg11 Mg8 2.981141 1_655
Mg11 Mg8 2.981141 1_555
Mg11 Mg9 3.010193 1_545
Mg11 Mg4 3.026776 1_544
Mg11 Mg3 3.026776 1_554
Co0 Mg0 2.903079 1_555
Co0 Mg0 2.903079 1_655
Co0 Mg1 2.903079 1_655
Co0 Mg1 2.903079 1_555
Co0 Zn0 2.924043 1_555
Co0 Zn0 2.924043 1_655
Co0 Mg10 2.965285 1_555
Co0 Mg9 2.965285 1_555
Co0 Mg11 3.037416 1_555
Co0 Mg11 3.037416 1_565
Co0 Mg4 3.070872 1_554
Co0 Mg3 3.070872 1_554
Co1 Mg6 2.903079 1_645
Co1 Mg6 2.903079 1_545
Co1 Mg7 2.903079 1_555
Co1 Mg7 2.903079 1_655
Co1 Zn1 2.924043 1_655
Co1 Zn1 2.924043 1_555
Co1 Mg3 2.965285 1_555
Co1 Mg4 2.965285 1_545
Co1 Mg5 3.037416 1_545
Co1 Mg5 3.037416 1_555
Co1 Mg9 3.070872 1_545
Co1 Mg10 3.070872 1_555
