# generated using pymatgen
data_Mg14SnC
_symmetry_space_group_name_H-M   'P 1'
_cell_length_a   6.32171943
_cell_length_b   6.32171943
_cell_length_c   9.90601300
_cell_angle_alpha   90.00000000
_cell_angle_beta   90.00000000
_cell_angle_gamma   110.94294216
_symmetry_Int_Tables_number   1
_chemical_formula_structural   Mg14SnC
_chemical_formula_sum   'Mg14 Sn1 C1'
_cell_volume   369.73182676
_cell_formula_units_Z   1
loop_
 _symmetry_equiv_pos_site_id
 _symmetry_equiv_pos_as_xyz
  1  'x, y, z'
loop_
 _atom_site_type_symbol
 _atom_site_label
 _atom_site_symmetry_multiplicity
 _atom_site_fract_x
 _atom_site_fract_y
 _atom_site_fract_z
 _atom_site_occupancy
  Mg  Mg0  1  0.85961200  0.14038800  0.00000000  1
  Mg  Mg1  1  0.35858500  0.64141500  0.00000000  1
  Mg  Mg2  1  0.42462600  0.16246000  0.50000000  1
  Mg  Mg3  1  0.34206900  0.12725000  0.00000000  1
  Mg  Mg4  1  0.83754000  0.57537400  0.50000000  1
  Mg  Mg5  1  0.87275000  0.65793100  0.00000000  1
  Mg  Mg6  1  0.17755100  0.35133600  0.25329600  1
  Mg  Mg7  1  0.17755100  0.35133600  0.74670400  1
  Mg  Mg8  1  0.64866400  0.82244900  0.25329600  1
  Mg  Mg9  1  0.64866400  0.82244900  0.74670400  1
  Mg  Mg10  1  0.67061100  0.32938900  0.23602500  1
  Mg  Mg11  1  0.67061100  0.32938900  0.76397500  1
  Mg  Mg12  1  0.15948600  0.84051400  0.28066100  1
  Mg  Mg13  1  0.15948600  0.84051400  0.71933900  1
  Sn  Sn0  1  0.88606400  0.11393600  0.50000000  1
  C  C0  1  0.10613100  0.89386900  0.50000000  1
loop_
_geom_bond_atom_site_label_1
_geom_bond_atom_site_label_2
_geom_bond_distance
_geom_bond_site_symmetry_2
Mg0 Mg10 3.056508 1_555
Mg0 Mg11 3.056508 1_554
Mg0 Mg5 3.080621 1_545
Mg0 Mg3 3.080621 1_655
Mg0 Mg8 3.193414 1_545
Mg0 Mg6 3.193414 1_655
Mg0 Mg9 3.193414 1_544
Mg0 Mg7 3.193414 1_654
Mg0 Mg3 3.243002 1_555
Mg0 Mg5 3.243002 1_555
Mg1 Mg6 3.077032 1_555
Mg1 Mg8 3.077032 1_555
Mg1 Mg7 3.077032 1_554
Mg1 Mg9 3.077032 1_554
Mg1 Mg5 3.110162 1_455
Mg1 Mg3 3.110162 1_565
Mg1 Mg3 3.214566 1_555
Mg1 Mg5 3.214566 1_555
Mg3 Mg6 3.230720 1_555
Mg3 Mg7 3.230720 1_554
Mg3 Mg5 3.363379 1_445
Mg5 Mg8 3.230720 1_555
Mg5 Mg9 3.230720 1_554
Mg6 Sn0 3.105368 1_455
Mg7 Sn0 3.105368 1_455
Mg8 Sn0 3.105368 1_565
Mg9 Sn0 3.105368 1_565
Mg10 Mg4 3.032586 1_555
Mg10 Mg2 3.032586 1_555
Mg10 Mg5 3.084784 1_555
Mg10 Mg3 3.084784 1_555
Mg10 Mg8 3.162431 1_545
Mg10 Mg6 3.162431 1_655
Mg10 Mg8 3.173844 1_555
Mg10 Mg6 3.173844 1_555
Mg10 Sn0 3.445921 1_555
Mg11 Mg4 3.032586 1_555
Mg11 Mg2 3.032586 1_555
Mg11 Mg5 3.084784 1_556
Mg11 Mg3 3.084784 1_556
Mg11 Mg9 3.162431 1_545
Mg11 Mg7 3.162431 1_655
Mg11 Mg9 3.173844 1_555
Mg11 Mg7 3.173844 1_555
Mg11 Sn0 3.445921 1_555
Mg12 Mg3 3.294239 1_565
Mg12 Mg5 3.294239 1_455
Mg13 Mg3 3.294239 1_566
Mg13 Mg5 3.294239 1_456
C0 Mg4 2.119673 1_455
C0 Mg2 2.119673 1_565
C0 Mg13 2.242725 1_555
C0 Mg12 2.242725 1_555
C0 Sn0 2.292267 1_465
