# generated using pymatgen
data_Ca(FeO2)2
_symmetry_space_group_name_H-M   'P 1'
_cell_length_a   5.40913000
_cell_length_b   5.40913000
_cell_length_c   3.37071100
_cell_angle_alpha   90.00000000
_cell_angle_beta   90.00000000
_cell_angle_gamma   90.00000000
_symmetry_Int_Tables_number   1
_chemical_formula_structural   Ca(FeO2)2
_chemical_formula_sum   'Ca1 Fe2 O4'
_cell_volume   98.62257932
_cell_formula_units_Z   1
loop_
 _symmetry_equiv_pos_site_id
 _symmetry_equiv_pos_as_xyz
  1  'x, y, z'
loop_
 _atom_site_type_symbol
 _atom_site_label
 _atom_site_symmetry_multiplicity
 _atom_site_fract_x
 _atom_site_fract_y
 _atom_site_fract_z
 _atom_site_occupancy
  Ca  Ca0  1  0.50000000  0.50000000  0.50000000  1
  Fe  Fe0  1  0.50000000  0.00000000  0.00000000  1
  Fe  Fe1  1  0.00000000  0.50000000  0.00000000  1
  O  O0  1  0.73669300  0.73669300  0.00000000  1
  O  O1  1  0.73669300  0.26330700  0.00000000  1
  O  O2  1  0.26330700  0.73669300  0.00000000  1
  O  O3  1  0.26330700  0.26330700  0.00000000  1
loop_
_geom_bond_atom_site_label_1
_geom_bond_atom_site_label_2
_geom_bond_distance
_geom_bond_site_symmetry_2
Ca0 O2 2.473616 1_555
Ca0 O2 2.473616 1_556
Ca0 O3 2.473616 1_556
Ca0 O1 2.473616 1_555
Ca0 O3 2.473616 1_555
Ca0 O1 2.473616 1_556
Ca0 O0 2.473616 1_556
Ca0 O0 2.473616 1_555
Fe0 O2 1.915123 1_545
Fe0 O3 1.915123 1_555
Fe0 O0 1.915123 1_545
Fe0 O1 1.915123 1_555
Fe1 O1 1.915123 1_455
Fe1 O3 1.915123 1_555
Fe1 O0 1.915123 1_455
Fe1 O2 1.915123 1_555
