# generated using pymatgen
data_LiTmO2
_symmetry_space_group_name_H-M   'P 1'
_cell_length_a   6.08391039
_cell_length_b   5.99725680
_cell_length_c   6.06438639
_cell_angle_alpha   61.54478586
_cell_angle_beta   90.00000000
_cell_angle_gamma   90.00000000
_symmetry_Int_Tables_number   1
_chemical_formula_structural   LiTmO2
_chemical_formula_sum   'Li4 Tm4 O8'
_cell_volume   194.53823432
_cell_formula_units_Z   4
loop_
 _symmetry_equiv_pos_site_id
 _symmetry_equiv_pos_as_xyz
  1  'x, y, z'
loop_
 _atom_site_type_symbol
 _atom_site_label
 _atom_site_symmetry_multiplicity
 _atom_site_fract_x
 _atom_site_fract_y
 _atom_site_fract_z
 _atom_site_occupancy
  Li  Li0  1  0.15042932  0.71832623  0.55245810  1
  Li  Li1  1  0.65042932  0.28167377  0.94754190  1
  Li  Li2  1  0.34957068  0.71832623  0.05245810  1
  Li  Li3  1  0.84957068  0.28167377  0.44754190  1
  Tm  Tm0  1  0.87069414  0.76249595  0.98381830  1
  Tm  Tm1  1  0.62930586  0.76249595  0.48381830  1
  Tm  Tm2  1  0.37069414  0.23750405  0.51618170  1
  Tm  Tm3  1  0.12930586  0.23750405  0.01618170  1
  O  O0  1  0.16381549  0.99448552  0.83042451  1
  O  O1  1  0.33618451  0.99448552  0.33042451  1
  O  O2  1  0.88859293  0.54205859  0.76445811  1
  O  O3  1  0.38859293  0.45794141  0.73554189  1
  O  O4  1  0.61140707  0.54205859  0.26445811  1
  O  O5  1  0.11140707  0.45794141  0.23554189  1
  O  O6  1  0.66381549  0.00551448  0.66957549  1
  O  O7  1  0.83618451  0.00551448  0.16957549  1
loop_
_geom_bond_atom_site_label_1
_geom_bond_atom_site_label_2
_geom_bond_distance
_geom_bond_site_symmetry_2
Li0 O1 1.925639 1_555
Li0 O2 2.003218 1_455
Li0 O3 2.029431 1_555
Li1 O7 1.925639 1_556
Li1 O3 2.003218 1_555
Li1 O2 2.029431 1_555
Li2 O0 1.925639 1_554
Li2 O4 2.003218 1_555
Li2 O5 2.029431 1_555
Li3 O6 1.925639 1_555
Li3 O5 2.003218 1_655
Li3 O4 2.029431 1_555
O0 Tm2 2.166382 1_565
O0 Tm0 2.178983 1_455
O0 Tm3 2.236469 1_566
O1 Tm3 2.166382 1_565
O1 Tm1 2.178983 1_555
O1 Tm2 2.236469 1_565
O2 Tm1 2.233515 1_555
O2 Tm3 2.270262 1_656
O2 Tm0 2.281481 1_555
O3 Tm3 2.233515 1_556
O3 Tm1 2.270262 1_555
O3 Tm2 2.281481 1_555
O4 Tm0 2.233515 1_554
O4 Tm2 2.270262 1_555
O4 Tm1 2.281481 1_555
O5 Tm2 2.233515 1_555
O5 Tm0 2.270262 1_454
O5 Tm3 2.281481 1_555
O6 Tm0 2.166382 1_545
O6 Tm2 2.178983 1_555
O6 Tm1 2.236469 1_545
O7 Tm1 2.166382 1_545
O7 Tm3 2.178983 1_655
O7 Tm0 2.236469 1_544
