# generated using pymatgen
data_CaCr(SiO3)2
_symmetry_space_group_name_H-M   'P 1'
_cell_length_a   5.46075900
_cell_length_b   9.70125100
_cell_length_c   19.28602100
_cell_angle_alpha   90.00000000
_cell_angle_beta   90.00000000
_cell_angle_gamma   90.00000000
_symmetry_Int_Tables_number   1
_chemical_formula_structural   CaCr(SiO3)2
_chemical_formula_sum   'Ca8 Cr8 Si16 O48'
_cell_volume   1021.69998438
_cell_formula_units_Z   8
loop_
 _symmetry_equiv_pos_site_id
 _symmetry_equiv_pos_as_xyz
  1  'x, y, z'
loop_
 _atom_site_type_symbol
 _atom_site_label
 _atom_site_symmetry_multiplicity
 _atom_site_fract_x
 _atom_site_fract_y
 _atom_site_fract_z
 _atom_site_occupancy
  Ca  Ca0  1  0.61778800  0.14643000  0.37631700  1
  Ca  Ca1  1  0.38221200  0.85357000  0.62368300  1
  Ca  Ca2  1  0.61778800  0.64643000  0.12368300  1
  Ca  Ca3  1  0.11778800  0.85357000  0.12368300  1
  Ca  Ca4  1  0.88221200  0.14643000  0.87631700  1
  Ca  Ca5  1  0.38221200  0.35357000  0.87631700  1
  Ca  Ca6  1  0.11778800  0.35357000  0.37631700  1
  Ca  Ca7  1  0.88221200  0.64643000  0.62368300  1
  Cr  Cr0  1  0.37396800  0.97510400  0.87484300  1
  Cr  Cr1  1  0.62603200  0.02489600  0.12515700  1
  Cr  Cr2  1  0.87396800  0.02489600  0.62515700  1
  Cr  Cr3  1  0.12603200  0.97510400  0.37484300  1
  Cr  Cr4  1  0.37396800  0.47510400  0.62515700  1
  Cr  Cr5  1  0.62603200  0.52489600  0.37484300  1
  Cr  Cr6  1  0.87396800  0.52489600  0.87484300  1
  Cr  Cr7  1  0.12603200  0.47510400  0.12515700  1
  Si  Si0  1  0.56481700  0.66763300  0.77522000  1
  Si  Si1  1  0.74654700  0.83466000  0.47773400  1
  Si  Si2  1  0.75345300  0.83466000  0.97773400  1
  Si  Si3  1  0.93518300  0.16763300  0.22478000  1
  Si  Si4  1  0.06481700  0.33236700  0.72478000  1
  Si  Si5  1  0.43518300  0.83236700  0.27522000  1
  Si  Si6  1  0.24654700  0.66534000  0.47773400  1
  Si  Si7  1  0.74654700  0.33466000  0.02226600  1
  Si  Si8  1  0.75345300  0.33466000  0.52226600  1
  Si  Si9  1  0.93518300  0.66763300  0.27522000  1
  Si  Si10  1  0.43518300  0.33236700  0.22478000  1
  Si  Si11  1  0.56481700  0.16763300  0.72478000  1
  Si  Si12  1  0.25345300  0.16534000  0.52226600  1
  Si  Si13  1  0.06481700  0.83236700  0.77522000  1
  Si  Si14  1  0.25345300  0.66534000  0.97773400  1
  Si  Si15  1  0.24654700  0.16534000  0.02226600  1
  O  O0  1  0.93233600  0.52059700  0.31434200  1
  O  O1  1  0.31257300  0.03271500  0.06886300  1
  O  O2  1  0.06766400  0.47940300  0.68565800  1
  O  O3  1  0.74860500  0.35511300  0.93772000  1
  O  O4  1  0.24860500  0.14488700  0.93772000  1
  O  O5  1  0.96048600  0.21632000  0.04205500  1
  O  O6  1  0.95477700  0.66381700  0.19154900  1
  O  O7  1  0.04522300  0.83618300  0.69154900  1
  O  O8  1  0.74860500  0.85511300  0.56228000  1
  O  O9  1  0.95477700  0.16381700  0.30845100  1
  O  O10  1  0.43233600  0.47940300  0.18565800  1
  O  O11  1  0.75139500  0.35511300  0.43772000  1
  O  O12  1  0.68742700  0.96728500  0.93113700  1
  O  O13  1  0.45477700  0.83618300  0.19154900  1
  O  O14  1  0.56766400  0.02059700  0.68565800  1
  O  O15  1  0.31257300  0.53271500  0.43113700  1
  O  O16  1  0.43233600  0.97940300  0.31434200  1
  O  O17  1  0.16043900  0.77139100  0.30437700  1
  O  O18  1  0.33956100  0.77139100  0.80437700  1
  O  O19  1  0.53951400  0.71632000  0.95794500  1
  O  O20  1  0.75139500  0.85511300  0.06228000  1
  O  O21  1  0.54522300  0.66381700  0.69154900  1
  O  O22  1  0.81257300  0.46728500  0.06886300  1
  O  O23  1  0.16043900  0.27139100  0.19562300  1
  O  O24  1  0.25139500  0.14488700  0.43772000  1
  O  O25  1  0.54522300  0.16381700  0.80845100  1
  O  O26  1  0.68742700  0.46728500  0.56886300  1
  O  O27  1  0.24860500  0.64488700  0.56228000  1
  O  O28  1  0.18742700  0.53271500  0.93113700  1
  O  O29  1  0.66043900  0.72860900  0.30437700  1
  O  O30  1  0.06766400  0.97940300  0.81434200  1
  O  O31  1  0.83956100  0.72860900  0.80437700  1
  O  O32  1  0.83956100  0.22860900  0.69562300  1
  O  O33  1  0.81257300  0.96728500  0.43113700  1
  O  O34  1  0.25139500  0.64488700  0.06228000  1
  O  O35  1  0.18742700  0.03271500  0.56886300  1
  O  O36  1  0.33956100  0.27139100  0.69562300  1
  O  O37  1  0.03951400  0.78368000  0.95794500  1
  O  O38  1  0.46048600  0.78368000  0.45794500  1
  O  O39  1  0.66043900  0.22860900  0.19562300  1
  O  O40  1  0.46048600  0.28368000  0.04205500  1
  O  O41  1  0.53951400  0.21632000  0.54205500  1
  O  O42  1  0.03951400  0.28368000  0.54205500  1
  O  O43  1  0.45477700  0.33618300  0.30845100  1
  O  O44  1  0.56766400  0.52059700  0.81434200  1
  O  O45  1  0.96048600  0.71632000  0.45794500  1
  O  O46  1  0.04522300  0.33618300  0.80845100  1
  O  O47  1  0.93233600  0.02059700  0.18565800  1
loop_
_geom_bond_atom_site_label_1
_geom_bond_atom_site_label_2
_geom_bond_distance
_geom_bond_site_symmetry_2
Ca0 O16 2.253842 1_545
Ca0 O9 2.264503 1_555
Ca0 O33 2.295562 1_545
Ca0 O24 2.325024 1_555
Ca0 O43 2.427801 1_555
Ca0 O11 2.456263 1_555
Ca1 O14 2.253842 1_565
Ca1 O7 2.264503 1_555
Ca1 O35 2.295562 1_565
Ca1 O8 2.325024 1_555
Ca1 O21 2.427801 1_555
Ca1 O27 2.456263 1_555
Ca2 O10 2.253842 1_555
Ca2 O6 2.264503 1_555
Ca2 O22 2.295562 1_555
Ca2 O34 2.325024 1_555
Ca2 O13 2.427801 1_555
Ca2 O20 2.456263 1_555
Ca3 O47 2.253842 1_465
Ca3 O13 2.264503 1_555
Ca3 O1 2.295562 1_565
Ca3 O20 2.325024 1_455
Ca3 O6 2.427801 1_455
Ca3 O34 2.456263 1_555
Ca4 O30 2.253842 1_645
Ca4 O25 2.264503 1_555
Ca4 O12 2.295562 1_545
Ca4 O4 2.325024 1_655
Ca4 O46 2.427801 1_655
Ca4 O3 2.456263 1_555
Ca5 O44 2.253842 1_555
Ca5 O46 2.264503 1_555
Ca5 O28 2.295562 1_555
Ca5 O3 2.325024 1_555
Ca5 O25 2.427801 1_555
Ca5 O4 2.456263 1_555
Ca6 O0 2.253842 1_455
Ca6 O43 2.264503 1_555
Ca6 O15 2.295562 1_555
Ca6 O11 2.325024 1_455
Ca6 O9 2.427801 1_455
Ca6 O24 2.456263 1_555
Ca7 O2 2.253842 1_655
Ca7 O21 2.264503 1_555
Ca7 O26 2.295562 1_555
Ca7 O27 2.325024 1_655
Ca7 O7 2.427801 1_655
Ca7 O8 2.456263 1_555
Cr0 O12 2.028416 1_555
Cr0 O30 2.039849 1_555
Cr0 O4 2.156878 1_565
Cr0 O18 2.405796 1_555
Cr0 O25 2.421929 1_565
Cr1 O1 2.028416 1_555
Cr1 O47 2.039849 1_555
Cr1 O20 2.156878 1_545
Cr1 O39 2.405796 1_555
Cr1 O13 2.421929 1_545
Cr2 O35 2.028416 1_655
Cr2 O14 2.039849 1_555
Cr2 O8 2.156878 1_545
Cr2 O32 2.405796 1_555
Cr2 O7 2.421929 1_645
Cr3 O33 2.028416 1_455
Cr3 O16 2.039849 1_555
Cr3 O24 2.156878 1_565
Cr3 O17 2.405796 1_555
Cr3 O9 2.421929 1_465
Cr4 O26 2.028416 1_555
Cr4 O2 2.039849 1_555
Cr4 O27 2.156878 1_555
Cr4 O36 2.405796 1_555
Cr4 O21 2.421929 1_555
Cr5 O15 2.028416 1_555
Cr5 O0 2.039849 1_555
Cr5 O11 2.156878 1_555
Cr5 O29 2.405796 1_555
Cr5 O43 2.421929 1_555
Cr6 O28 2.028416 1_655
Cr6 O44 2.039849 1_555
Cr6 O3 2.156878 1_555
Cr6 O31 2.405796 1_555
Cr6 O46 2.421929 1_655
Cr7 O22 2.028416 1_455
Cr7 O10 2.039849 1_555
Cr7 O34 2.156878 1_555
Cr7 O23 2.405796 1_555
Cr7 O6 2.421929 1_455
O0 Si9 1.613764 1_555
O1 Si15 1.610286 1_555
O2 Si4 1.613764 1_555
O3 Si7 1.642623 1_556
O4 Si15 1.642623 1_556
O5 Si7 1.681821 1_555
O5 Si15 1.682393 1_655
O6 Si9 1.617648 1_555
O7 Si13 1.617648 1_555
O8 Si1 1.642623 1_555
O9 Si3 1.617648 1_555
O10 Si10 1.613764 1_555
O11 Si8 1.642623 1_555
O12 Si2 1.610286 1_555
O13 Si5 1.617648 1_555
O14 Si11 1.613764 1_555
O15 Si6 1.610286 1_555
O16 Si5 1.613764 1_555
O17 Si9 1.685967 1_455
O17 Si5 1.707941 1_555
O18 Si0 1.685967 1_555
O18 Si13 1.707941 1_555
O19 Si2 1.681821 1_555
O19 Si14 1.682393 1_555
O20 Si2 1.642623 1_554
O21 Si0 1.617648 1_555
O22 Si7 1.610286 1_555
O23 Si3 1.685967 1_455
O23 Si10 1.707941 1_555
O24 Si12 1.642623 1_555
O25 Si11 1.617648 1_555
O26 Si8 1.610286 1_555
O27 Si6 1.642623 1_555
O28 Si14 1.610286 1_555
O29 Si5 1.685967 1_555
O29 Si9 1.707941 1_555
O30 Si13 1.613764 1_555
O31 Si13 1.685967 1_655
O31 Si0 1.707941 1_555
O32 Si4 1.685967 1_655
O32 Si11 1.707941 1_555
O33 Si1 1.610286 1_555
O34 Si14 1.642623 1_554
O35 Si12 1.610286 1_555
O36 Si11 1.685967 1_555
O36 Si4 1.707941 1_555
O37 Si14 1.681821 1_555
O37 Si2 1.682393 1_455
O38 Si6 1.681821 1_555
O38 Si1 1.682393 1_555
O39 Si10 1.685967 1_555
O39 Si3 1.707941 1_555
O40 Si15 1.681821 1_555
O40 Si7 1.682393 1_555
O41 Si8 1.681821 1_555
O41 Si12 1.682393 1_555
O42 Si12 1.681821 1_555
O42 Si8 1.682393 1_455
O43 Si10 1.617648 1_555
O44 Si0 1.613764 1_555
O45 Si1 1.681821 1_555
O45 Si6 1.682393 1_655
O46 Si4 1.617648 1_555
O47 Si3 1.613764 1_555
