# generated using pymatgen
data_Ca65Ga24Sn19
_symmetry_space_group_name_H-M   'P 1'
_cell_length_a   11.48769487
_cell_length_b   11.48769487
_cell_length_c   28.16072439
_cell_angle_alpha   90.00000000
_cell_angle_beta   90.00000000
_cell_angle_gamma   120.00000000
_symmetry_Int_Tables_number   1
_chemical_formula_structural   Ca65Ga24Sn19
_chemical_formula_sum   'Ca65 Ga24 Sn19'
_cell_volume   3218.40160937
_cell_formula_units_Z   1
loop_
 _symmetry_equiv_pos_site_id
 _symmetry_equiv_pos_as_xyz
  1  'x, y, z'
loop_
 _atom_site_type_symbol
 _atom_site_label
 _atom_site_symmetry_multiplicity
 _atom_site_fract_x
 _atom_site_fract_y
 _atom_site_fract_z
 _atom_site_occupancy
  Ca  Ca0  1  0.33353513  0.33379183  0.83354292  1
  Ca  Ca1  1  0.01454943  0.66666700  0.16666700  1
  Ca  Ca2  1  0.66640930  0.99954117  0.49979008  1
  Ca  Ca3  1  0.55504454  0.44495546  0.94575810  1
  Ca  Ca4  1  0.22739022  0.77260978  0.27186212  1
  Ca  Ca5  1  0.88909094  0.11090906  0.61094274  1
  Ca  Ca6  1  0.66620817  0.66646487  0.83354292  1
  Ca  Ca7  1  0.33333300  0.98545057  0.16666700  1
  Ca  Ca8  1  0.00045883  0.33359070  0.49979008  1
  Ca  Ca9  1  0.55504454  0.11008808  0.94575810  1
  Ca  Ca10  1  0.22739022  0.45478145  0.27186212  1
  Ca  Ca11  1  0.88909094  0.77818188  0.61094274  1
  Ca  Ca12  1  0.33353513  0.99974230  0.83354292  1
  Ca  Ca13  1  0.01454943  0.34788343  0.16666700  1
  Ca  Ca14  1  0.66640930  0.66686813  0.49979008  1
  Ca  Ca15  1  0.66620817  0.99974230  0.83354292  1
  Ca  Ca16  1  0.33333300  0.34788343  0.16666700  1
  Ca  Ca17  1  0.00045883  0.66686813  0.49979008  1
  Ca  Ca18  1  0.77757606  0.55515112  0.72239026  1
  Ca  Ca19  1  0.43927578  0.87855255  0.06147188  1
  Ca  Ca20  1  0.11162246  0.22324492  0.38757490  1
  Ca  Ca21  1  0.77757606  0.22242394  0.72239026  1
  Ca  Ca22  1  0.43927578  0.56072422  0.06147188  1
  Ca  Ca23  1  0.11162246  0.88837754  0.38757490  1
  Ca  Ca24  1  0.44484888  0.22242394  0.72239026  1
  Ca  Ca25  1  0.12144745  0.56072422  0.06147188  1
  Ca  Ca26  1  0.77675508  0.88837754  0.38757490  1
  Ca  Ca27  1  0.00025770  0.33379183  0.83354292  1
  Ca  Ca28  1  0.65211657  0.66666700  0.16666700  1
  Ca  Ca29  1  0.33313187  0.99954117  0.49979008  1
  Ca  Ca30  1  0.00025770  0.66646487  0.83354292  1
  Ca  Ca31  1  0.65211657  0.98545057  0.16666700  1
  Ca  Ca32  1  0.33313187  0.33359070  0.49979008  1
  Ca  Ca33  1  0.88991192  0.44495546  0.94575810  1
  Ca  Ca34  1  0.54521855  0.77260978  0.27186212  1
  Ca  Ca35  1  0.22181812  0.11090906  0.61094274  1
  Ca  Ca36  1  0.33333300  0.66666700  0.66666700  1
  Ca  Ca37  1  -0.00000000  -0.00000000  0.00150521  1
  Ca  Ca38  1  0.66666700  0.33333300  0.33182779  1
  Ca  Ca39  1  0.15962552  0.84037448  0.71012197  1
  Ca  Ca40  1  0.82694550  0.17305450  0.04432569  1
  Ca  Ca41  1  0.49274883  0.50725117  0.37589179  1
  Ca  Ca42  1  0.15962552  0.31925004  0.71012197  1
  Ca  Ca43  1  0.82694550  0.65389199  0.04432569  1
  Ca  Ca44  1  0.49274883  0.98549766  0.37589179  1
  Ca  Ca45  1  -0.00000000  0.00000000  0.86975366  1
  Ca  Ca46  1  0.66666700  0.33333300  0.20360478  1
  Ca  Ca47  1  0.33333300  0.66666700  0.53618532  1
  Ca  Ca48  1  0.68074996  0.84037448  0.71012197  1
  Ca  Ca49  1  0.34610801  0.17305450  0.04432569  1
  Ca  Ca50  1  0.01450234  0.50725117  0.37589179  1
  Ca  Ca51  1  0.17391817  0.82608183  0.95744121  1
  Ca  Ca52  1  0.83972050  0.16027950  0.28900831  1
  Ca  Ca53  1  0.50704148  0.49295852  0.62321103  1
  Ca  Ca54  1  0.17391817  0.34783534  0.95744121  1
  Ca  Ca55  1  0.83972050  0.67944201  0.28900831  1
  Ca  Ca56  1  0.50704148  0.01408296  0.62321103  1
  Ca  Ca57  1  0.33333300  0.66666700  0.79714868  1
  Ca  Ca58  1  -0.00000000  -0.00000000  0.12972822  1
  Ca  Ca59  1  0.66666700  0.33333300  0.46357934  1
  Ca  Ca60  1  0.65216466  0.82608183  0.95744121  1
  Ca  Ca61  1  0.32055799  0.16027950  0.28900831  1
  Ca  Ca62  1  0.98591704  0.49295852  0.62321103  1
  Ca  Ca63  1  -0.00000000  0.00000000  0.49911690  1
  Ca  Ca64  1  0.66666700  0.33333300  0.83421610  1
  Ga  Ga0  1  0.92127723  0.07872277  0.76963742  1
  Ga  Ga1  1  0.58763106  0.41236894  0.10314841  1
  Ga  Ga2  1  0.25457021  0.74542979  0.43670460  1
  Ga  Ga3  1  0.92127723  0.84255546  0.76963742  1
  Ga  Ga4  1  0.58763106  0.17526212  0.10314841  1
  Ga  Ga5  1  0.25457021  0.50913943  0.43670460  1
  Ga  Ga6  1  -0.00000000  -0.00000000  0.69061989  1
  Ga  Ga7  1  0.66666700  0.33333300  0.02443960  1
  Ga  Ga8  1  0.33333300  0.66666700  0.35744763  1
  Ga  Ga9  1  0.15744454  0.07872277  0.76963742  1
  Ga  Ga10  1  0.82473788  0.41236894  0.10314841  1
  Ga  Ga11  1  0.49086057  0.74542979  0.43670460  1
  Ga  Ga12  1  0.41209679  0.58790321  0.89662840  1
  Ga  Ga13  1  0.07903594  0.92096406  0.23018459  1
  Ga  Ga14  1  0.74538877  0.25461123  0.56369658  1
  Ga  Ga15  1  0.41209679  0.82419357  0.89662840  1
  Ga  Ga16  1  0.07903594  0.15807088  0.23018459  1
  Ga  Ga17  1  0.74538877  0.49077854  0.56369658  1
  Ga  Ga18  1  0.33333300  0.66666700  0.97588637  1
  Ga  Ga19  1  0.00000000  -0.00000000  0.30889340  1
  Ga  Ga20  1  0.66666700  0.33333300  0.64271311  1
  Ga  Ga21  1  0.17580643  0.58790321  0.89662840  1
  Ga  Ga22  1  0.84192912  0.92096406  0.23018459  1
  Ga  Ga23  1  0.50922146  0.25461123  0.56369658  1
  Sn  Sn0  1  0.47800073  0.95600045  0.73868810  1
  Sn  Sn1  1  0.14118759  0.28237619  0.06952392  1
  Sn  Sn2  1  0.81176085  0.62352170  0.40689399  1
  Sn  Sn3  1  0.85490615  0.14509385  0.92643901  1
  Sn  Sn4  1  0.52547841  0.47452159  0.26381008  1
  Sn  Sn5  1  0.18866627  0.81133373  0.59464490  1
  Sn  Sn6  1  0.04399955  0.52199927  0.73868810  1
  Sn  Sn7  1  0.71762381  0.85881241  0.06952392  1
  Sn  Sn8  1  0.37647830  0.18823915  0.40689399  1
  Sn  Sn9  1  0.85490615  0.70981130  0.92643901  1
  Sn  Sn10  1  0.52547841  0.05095781  0.26381008  1
  Sn  Sn11  1  0.18866627  0.37733255  0.59464490  1
  Sn  Sn12  1  0.47800073  0.52199927  0.73868810  1
  Sn  Sn13  1  0.14118759  0.85881241  0.06952392  1
  Sn  Sn14  1  0.81176085  0.18823915  0.40689399  1
  Sn  Sn15  1  0.29018870  0.14509385  0.92643901  1
  Sn  Sn16  1  0.94904219  0.47452159  0.26381008  1
  Sn  Sn17  1  0.62266745  0.81133373  0.59464490  1
  Sn  Sn18  1  0.33333300  0.66666700  0.16666700  1
loop_
_geom_bond_atom_site_label_1
_geom_bond_atom_site_label_2
_geom_bond_distance
_geom_bond_site_symmetry_2
Ca0 Ga12 3.139667 1_555
Ca0 Ga9 3.160561 1_555
Ca0 Sn15 3.272775 1_555
Ca0 Sn12 3.312978 1_555
Ca0 Ca64 3.829602 1_555
Ca1 Ga13 3.180890 1_555
Ca1 Ga10 3.180915 1_455
Ca1 Sn13 3.355750 1_555
Ca1 Sn16 3.355750 1_455
Ca1 Sn18 3.662088 1_555
Ca2 Ga11 3.139665 1_555
Ca2 Ga14 3.160584 1_565
Ca2 Sn14 3.272775 1_565
Ca2 Sn17 3.312978 1_555
Ca2 Ca63 3.829602 1_665
Ca3 Ga7 3.137230 1_556
Ca3 Ga12 3.162914 1_555
Ca3 Sn9 3.307346 1_555
Ca3 Sn15 3.307346 1_555
Ca3 Ca64 3.846985 1_555
Ca4 Ga13 3.176616 1_555
Ca4 Ga8 3.201932 1_555
Ca4 Sn16 3.324523 1_455
Ca4 Sn10 3.324523 1_565
Ca4 Sn18 3.635820 1_555
Ca5 Ga6 3.147125 1_655
Ca5 Ga14 3.153677 1_555
Ca5 Sn11 3.299772 1_655
Ca5 Sn17 3.299772 1_545
Ca5 Ca63 3.845351 1_655
Ca6 Ga12 3.139667 1_555
Ca6 Ga3 3.160561 1_555
Ca6 Sn9 3.272775 1_555
Ca6 Sn12 3.312978 1_555
Ca6 Ca64 3.829602 1_555
Ca7 Ga13 3.180890 1_555
Ca7 Ga4 3.180915 1_565
Ca7 Sn13 3.355750 1_555
Ca7 Sn10 3.355750 1_565
Ca7 Sn18 3.662088 1_555
Ca8 Ga5 3.139665 1_555
Ca8 Ga14 3.160584 1_455
Ca8 Sn14 3.272775 1_455
Ca8 Sn11 3.312978 1_555
Ca9 Ga7 3.137230 1_556
Ca9 Ga15 3.162905 1_545
Ca9 Sn3 3.307346 1_555
Ca9 Sn15 3.307346 1_555
Ca10 Ga16 3.176635 1_555
Ca10 Ga8 3.201932 1_555
Ca10 Sn16 3.324523 1_455
Ca10 Sn4 3.324523 1_555
Ca10 Sn18 3.635820 1_555
Ca11 Ga6 3.147125 1_665
Ca11 Ga17 3.153668 1_555
Ca11 Sn5 3.299772 1_655
Ca11 Sn17 3.299772 1_555
Ca11 Ca63 3.845351 1_665
Ca12 Ga15 3.139658 1_555
Ca12 Ga9 3.160575 1_565
Ca12 Sn15 3.272775 1_565
Ca12 Sn0 3.312978 1_555
Ca12 Ca64 3.829602 1_565
Ca13 Ga16 3.180909 1_555
Ca13 Ga10 3.180909 1_455
Ca13 Sn1 3.355750 1_555
Ca13 Sn16 3.355750 1_455
Ca13 Sn18 3.662088 1_555
Ca14 Ga11 3.139658 1_555
Ca14 Ga17 3.160575 1_555
Ca14 Sn2 3.272775 1_555
Ca14 Sn17 3.312978 1_555
Ca14 Ca63 3.829602 1_665
Ca15 Ga15 3.139665 1_555
Ca15 Ga0 3.160557 1_565
Ca15 Sn3 3.272775 1_565
Ca15 Sn0 3.312978 1_555
Ca15 Ca64 3.829602 1_565
Ca16 Ga16 3.180896 1_555
Ca16 Ga1 3.180918 1_555
Ca16 Sn4 3.355750 1_555
Ca16 Sn1 3.355750 1_555
Ca16 Sn18 3.662088 1_555
Ca17 Ga2 3.139667 1_555
Ca17 Ga17 3.160582 1_455
Ca17 Sn2 3.272775 1_455
Ca17 Sn5 3.312978 1_555
Ca17 Ca63 3.829602 1_565
Ca18 Ga20 3.147125 1_555
Ca18 Ga3 3.153689 1_555
Ca18 Sn12 3.299772 1_555
Ca18 Sn6 3.299772 1_655
Ca18 Ca64 3.845351 1_555
Ca19 Ga4 3.176615 1_565
Ca19 Ga18 3.201932 1_554
Ca19 Sn7 3.324523 1_555
Ca19 Sn13 3.324523 1_555
Ca19 Sn18 3.635820 1_555
Ca20 Ga19 3.137230 1_555
Ca20 Ga5 3.162905 1_555
Ca20 Sn8 3.307346 1_555
Ca20 Sn14 3.307346 1_455
Ca20 Ca63 3.846985 1_555
Ca21 Ga20 3.147125 1_555
Ca21 Ga0 3.153671 1_555
Ca21 Sn0 3.299772 1_545
Ca21 Sn6 3.299772 1_655
Ca21 Ca64 3.845351 1_555
Ca22 Ga1 3.176624 1_555
Ca22 Ga18 3.201932 1_554
Ca22 Sn7 3.324523 1_555
Ca22 Sn1 3.324523 1_555
Ca22 Sn18 3.635820 1_555
Ca23 Ga19 3.137230 1_565
Ca23 Ga2 3.162914 1_555
Ca23 Sn8 3.307346 1_565
Ca23 Sn2 3.307346 1_455
Ca23 Ca63 3.846985 1_565
Ca24 Ga20 3.147125 1_555
Ca24 Ga9 3.153689 1_555
Ca24 Sn12 3.299772 1_555
Ca24 Sn0 3.299772 1_545
Ca24 Ca64 3.845351 1_555
Ca25 Ga10 3.176615 1_455
Ca25 Ga18 3.201932 1_554
Ca25 Sn1 3.324523 1_555
Ca25 Sn13 3.324523 1_555
Ca25 Sn18 3.635820 1_555
Ca26 Ga19 3.137230 1_665
Ca26 Ga11 3.162905 1_555
Ca26 Sn14 3.307346 1_565
Ca26 Sn2 3.307346 1_555
Ca26 Ca63 3.846985 1_665
Ca27 Ga21 3.139665 1_555
Ca27 Ga0 3.160557 1_455
Ca27 Sn3 3.272775 1_455
Ca27 Sn6 3.312978 1_555
Ca27 Ca64 3.829602 1_455
Ca28 Ga22 3.180896 1_555
Ca28 Ga1 3.180918 1_555
Ca28 Sn4 3.355750 1_555
Ca28 Sn7 3.355750 1_555
Ca28 Sn18 3.662088 1_555
Ca29 Ga2 3.139667 1_555
Ca29 Ga23 3.160582 1_565
Ca29 Sn8 3.272775 1_565
Ca29 Sn5 3.312978 1_555
Ca29 Ca63 3.829602 1_565
Ca30 Ga21 3.139658 1_555
Ca30 Ga3 3.160575 1_455
Ca30 Sn9 3.272775 1_455
Ca30 Sn6 3.312978 1_555
Ca30 Ca64 3.829602 1_455
Ca31 Ga22 3.180909 1_555
Ca31 Ga4 3.180909 1_565
Ca31 Sn7 3.355750 1_555
Ca31 Sn10 3.355750 1_565
Ca31 Sn18 3.662088 1_555
Ca32 Ga5 3.139658 1_555
Ca32 Ga23 3.160575 1_555
Ca32 Sn8 3.272775 1_555
Ca32 Sn11 3.312978 1_555
Ca32 Ca63 3.829602 1_555
Ca33 Ga7 3.137230 1_556
Ca33 Ga21 3.162905 1_655
Ca33 Sn9 3.307346 1_555
Ca33 Sn3 3.307346 1_555
Ca33 Ca64 3.846985 1_555
Ca34 Ga22 3.176635 1_555
Ca34 Ga8 3.201932 1_555
Ca34 Sn10 3.324523 1_565
Ca34 Sn4 3.324523 1_555
Ca34 Sn18 3.635820 1_555
Ca35 Ga6 3.147125 1_555
Ca35 Ga23 3.153668 1_555
Ca35 Sn5 3.299772 1_545
Ca35 Sn11 3.299772 1_555
Ca35 Ca63 3.845351 1_555
Ca36 Sn0 3.521231 1_555
Ca36 Sn6 3.521231 1_555
Ca36 Sn5 3.521247 1_555
Ca36 Sn12 3.521247 1_555
Ca36 Sn17 3.521255 1_555
Ca36 Sn11 3.521255 1_555
Ca37 Sn13 3.400124 1_545
Ca37 Sn7 3.400133 1_445
Ca37 Sn1 3.400133 1_555
Ca37 Sn3 3.578164 1_454
Ca37 Sn15 3.578172 1_554
Ca37 Sn9 3.578172 1_444
Ca38 Sn16 3.400109 1_555
Ca38 Sn10 3.400109 1_555
Ca38 Sn4 3.400125 1_555
Ca38 Sn14 3.578164 1_555
Ca38 Sn2 3.578172 1_555
Ca38 Sn8 3.578172 1_555
Ca39 Ga9 3.221062 1_565
Ca39 Ga3 3.221062 1_455
Ca39 Ga6 3.223244 1_565
Ca39 Sn5 3.302856 1_555
Ca39 Sn6 3.306050 1_555
Ca39 Sn0 3.306050 1_555
Ca40 Ga10 3.220600 1_555
Ca40 Ga4 3.220600 1_555
Ca40 Ga7 3.237900 1_555
Ca40 Sn1 3.252488 1_655
Ca40 Sn7 3.252488 1_545
Ca40 Sn3 3.366068 1_554
Ca41 Ga8 3.214184 1_555
Ca41 Sn4 3.222785 1_555
Ca41 Ga5 3.237122 1_555
Ca41 Ga11 3.237122 1_555
Ca41 Sn8 3.328886 1_555
Ca41 Sn2 3.328886 1_555
Ca42 Ga9 3.221042 1_555
Ca42 Ga0 3.221052 1_455
Ca42 Ga6 3.223234 1_555
Ca42 Sn11 3.302858 1_555
Ca42 Sn6 3.306050 1_555
Ca42 Sn12 3.306050 1_555
Ca43 Ga1 3.220605 1_555
Ca43 Ga10 3.220610 1_555
Ca43 Ga7 3.237920 1_555
Ca43 Sn13 3.252488 1_655
Ca43 Sn7 3.252488 1_555
Ca43 Sn9 3.366065 1_554
Ca44 Ga8 3.214174 1_555
Ca44 Sn10 3.222787 1_565
Ca44 Ga2 3.237127 1_555
Ca44 Ga11 3.237132 1_555
Ca44 Sn14 3.328886 1_565
Ca44 Sn8 3.328886 1_565
Ca45 Ga3 3.225243 1_445
Ca45 Ga9 3.225243 1_555
Ca45 Ga0 3.225247 1_455
Ca45 Sn3 3.298906 1_455
Ca45 Sn15 3.298915 1_555
Ca45 Sn9 3.298915 1_445
Ca46 Ga10 3.236642 1_555
Ca46 Ga4 3.236642 1_555
Ca46 Ga1 3.236647 1_555
Ca46 Sn10 3.281210 1_555
Ca46 Sn16 3.281210 1_555
Ca46 Sn4 3.281227 1_555
Ca47 Ga2 3.210003 1_555
Ca47 Ga5 3.210013 1_555
Ca47 Ga11 3.210013 1_555
Ca47 Sn5 3.315991 1_555
Ca47 Sn17 3.315999 1_555
Ca47 Sn11 3.315999 1_555
Ca48 Ga3 3.221042 1_555
Ca48 Ga0 3.221052 1_565
Ca48 Ga6 3.223234 1_665
Ca48 Sn17 3.302858 1_555
Ca48 Sn0 3.306050 1_555
Ca48 Sn12 3.306050 1_555
Ca49 Ga1 3.220605 1_555
Ca49 Ga4 3.220610 1_555
Ca49 Ga7 3.237920 1_555
Ca49 Sn13 3.252488 1_545
Ca49 Sn1 3.252488 1_555
Ca49 Sn15 3.366065 1_554
Ca50 Ga8 3.214174 1_555
Ca50 Sn16 3.222787 1_455
Ca50 Ga2 3.237127 1_555
Ca50 Ga5 3.237132 1_555
Ca50 Sn14 3.328886 1_455
Ca50 Sn2 3.328886 1_455
Ca51 Ga18 3.214169 1_555
Ca51 Sn13 3.222817 1_556
Ca51 Ga15 3.237122 1_555
Ca51 Ga21 3.237122 1_555
Ca51 Sn9 3.328886 1_455
Ca51 Sn15 3.328886 1_565
Ca52 Ga16 3.220630 1_655
Ca52 Ga22 3.220630 1_545
Ca52 Ga19 3.237915 1_655
Ca52 Sn10 3.252488 1_555
Ca52 Sn16 3.252488 1_555
Ca52 Sn14 3.366037 1_555
Ca53 Ga23 3.221032 1_555
Ca53 Ga17 3.221032 1_555
Ca53 Ga20 3.223244 1_555
Ca53 Sn12 3.302856 1_555
Ca53 Sn17 3.306050 1_555
Ca53 Sn11 3.306050 1_555
Ca54 Ga18 3.214189 1_555
Ca54 Sn1 3.222813 1_556
Ca54 Ga12 3.237127 1_555
Ca54 Ga21 3.237132 1_555
Ca54 Sn15 3.328886 1_555
Ca54 Sn3 3.328886 1_455
Ca55 Ga22 3.220610 1_555
Ca55 Ga13 3.220620 1_655
Ca55 Ga19 3.237905 1_665
Ca55 Sn4 3.252488 1_555
Ca55 Sn16 3.252488 1_555
Ca55 Sn2 3.366039 1_555
Ca56 Ga14 3.221037 1_555
Ca56 Ga23 3.221042 1_555
Ca56 Ga20 3.223234 1_555
Ca56 Sn0 3.302858 1_545
Ca56 Sn17 3.306050 1_545
Ca56 Sn5 3.306050 1_545
Ca57 Ga21 3.209984 1_555
Ca57 Ga15 3.209984 1_555
Ca57 Ga12 3.209989 1_555
Ca57 Sn6 3.316004 1_555
Ca57 Sn0 3.316004 1_555
Ca57 Sn12 3.316022 1_555
Ca58 Ga16 3.236642 1_555
Ca58 Ga22 3.236642 1_445
Ca58 Ga13 3.236647 1_545
Ca58 Sn13 3.281195 1_545
Ca58 Sn1 3.281204 1_555
Ca58 Sn7 3.281204 1_445
Ca59 Ga14 3.225262 1_555
Ca59 Ga17 3.225272 1_555
Ca59 Ga23 3.225272 1_555
Ca59 Sn14 3.298906 1_555
Ca59 Sn2 3.298915 1_555
Ca59 Sn8 3.298915 1_555
Ca60 Ga18 3.214189 1_555
Ca60 Sn7 3.222813 1_556
Ca60 Ga12 3.237127 1_555
Ca60 Ga15 3.237132 1_555
Ca60 Sn3 3.328886 1_565
Ca60 Sn9 3.328886 1_555
Ca61 Ga16 3.220610 1_555
Ca61 Ga13 3.220620 1_545
Ca61 Ga19 3.237905 1_555
Ca61 Sn4 3.252488 1_555
Ca61 Sn10 3.252488 1_555
Ca61 Sn8 3.366039 1_555
Ca62 Ga14 3.221037 1_555
Ca62 Ga17 3.221042 1_555
Ca62 Ga20 3.223234 1_555
Ca62 Sn6 3.302858 1_655
Ca62 Sn11 3.306050 1_655
Ca62 Sn5 3.306050 1_655
Ca63 Ca8 3.829602 1_555
Ca64 Ca9 3.846985 1_555
Ga0 Ga9 2.713018 1_655
Ga0 Ga3 2.713018 1_545
Ga0 Ga6 2.721210 1_655
Ga1 Ga7 2.717707 1_555
Ga1 Ga4 2.723811 1_555
Ga1 Ga10 2.723811 1_555
Ga2 Ga5 2.714432 1_555
Ga2 Ga8 2.727184 1_555
Ga3 Ga9 2.713018 1_665
Ga3 Ga6 2.721204 1_665
Ga4 Ga7 2.717701 1_555
Ga5 Ga8 2.727195 1_555
Ga6 Ga9 2.721204 1_555
Ga10 Ga7 2.717701 1_555
Ga10 Ga4 2.723811 1_555
Ga11 Ga5 2.714432 1_555
Ga11 Ga2 2.714432 1_555
Ga11 Ga8 2.727195 1_555
Ga12 Ga21 2.714432 1_555
Ga12 Ga15 2.714432 1_555
Ga12 Ga18 2.727219 1_555
Ga13 Ga19 2.717707 1_565
Ga13 Ga16 2.723811 1_565
Ga13 Ga22 2.723811 1_455
Ga14 Ga17 2.713018 1_555
Ga14 Ga23 2.713018 1_555
Ga14 Ga20 2.721176 1_555
Ga15 Ga21 2.714432 1_555
Ga15 Ga18 2.727213 1_555
Ga16 Ga19 2.717701 1_555
Ga16 Ga22 2.723811 1_445
Ga17 Ga23 2.713018 1_555
Ga17 Ga20 2.721187 1_555
Ga18 Ga21 2.727213 1_555
Ga19 Ga22 2.717701 1_445
Ga20 Ga23 2.721187 1_555
