# generated using pymatgen
data_Lu2Ga3Cu
_symmetry_space_group_name_H-M   'P 1'
_cell_length_a   4.28198434
_cell_length_b   4.28198434
_cell_length_c   6.97996754
_cell_angle_alpha   90.00000000
_cell_angle_beta   90.00000000
_cell_angle_gamma   119.99999224
_symmetry_Int_Tables_number   1
_chemical_formula_structural   Lu2Ga3Cu
_chemical_formula_sum   'Lu2 Ga3 Cu1'
_cell_volume   110.83430887
_cell_formula_units_Z   1
loop_
 _symmetry_equiv_pos_site_id
 _symmetry_equiv_pos_as_xyz
  1  'x, y, z'
loop_
 _atom_site_type_symbol
 _atom_site_label
 _atom_site_symmetry_multiplicity
 _atom_site_fract_x
 _atom_site_fract_y
 _atom_site_fract_z
 _atom_site_occupancy
  Lu  Lu0  1  0.66666700  0.33333300  0.73017589  1
  Lu  Lu1  1  0.66666700  0.33333300  0.26153473  1
  Ga  Ga0  1  0.00000000  0.00000000  0.47569462  1
  Ga  Ga1  1  0.00000000  0.00000000  0.04673307  1
  Ga  Ga2  1  0.33333300  0.66666700  0.94714889  1
  Cu  Cu0  1  0.33333300  0.66666700  0.53871480  1
loop_
_geom_bond_atom_site_label_1
_geom_bond_atom_site_label_2
_geom_bond_distance
_geom_bond_site_symmetry_2
Lu0 Lu1 3.271100 1_555
Ga0 Lu1 2.888996 1_455
Ga0 Lu1 2.888999 1_445
Ga0 Lu1 2.888999 1_555
Ga0 Ga1 2.994138 1_555
Ga0 Lu0 3.044162 1_455
Ga0 Lu0 3.044165 1_555
Ga0 Lu0 3.044165 1_445
Ga1 Ga2 2.568062 1_544
Ga1 Ga2 2.568065 1_554
Ga1 Ga2 2.568065 1_444
Ga1 Lu1 2.891316 1_455
Ga1 Lu1 2.891320 1_445
Ga1 Lu1 2.891320 1_555
Ga1 Lu0 3.315710 1_454
Ga1 Lu0 3.315713 1_554
Ga1 Lu0 3.315713 1_444
Ga2 Lu0 2.899205 1_455
Ga2 Lu0 2.899205 1_565
Ga2 Lu0 2.899211 1_555
Cu0 Ga0 2.511031 1_565
Cu0 Ga0 2.511035 1_555
Cu0 Ga0 2.511035 1_665
Cu0 Lu0 2.810290 1_455
Cu0 Lu0 2.810290 1_565
Cu0 Lu0 2.810296 1_555
Cu0 Ga2 2.850857 1_555
Cu0 Lu1 3.139248 1_455
Cu0 Lu1 3.139248 1_565
Cu0 Lu1 3.139254 1_555
