# generated using pymatgen
data_NbRu3
_symmetry_space_group_name_H-M   'P 1'
_cell_length_a   5.56043930
_cell_length_b   5.56043930
_cell_length_c   4.38105983
_cell_angle_alpha   90.00000000
_cell_angle_beta   90.00000000
_cell_angle_gamma   119.99999243
_symmetry_Int_Tables_number   1
_chemical_formula_structural   NbRu3
_chemical_formula_sum   'Nb2 Ru6'
_cell_volume   117.30811546
_cell_formula_units_Z   2
loop_
 _symmetry_equiv_pos_site_id
 _symmetry_equiv_pos_as_xyz
  1  'x, y, z'
loop_
 _atom_site_type_symbol
 _atom_site_label
 _atom_site_symmetry_multiplicity
 _atom_site_fract_x
 _atom_site_fract_y
 _atom_site_fract_z
 _atom_site_occupancy
  Nb  Nb0  1  0.66666700  0.33333300  0.25000000  1
  Nb  Nb1  1  0.33333300  0.66666700  0.75000000  1
  Ru  Ru0  1  0.83526918  0.16473082  0.75000000  1
  Ru  Ru1  1  0.32946165  0.16473082  0.75000000  1
  Ru  Ru2  1  0.83526918  0.67053835  0.75000000  1
  Ru  Ru3  1  0.16473082  0.83526918  0.25000000  1
  Ru  Ru4  1  0.67053835  0.83526918  0.25000000  1
  Ru  Ru5  1  0.16473082  0.32946165  0.25000000  1
loop_
_geom_bond_atom_site_label_1
_geom_bond_atom_site_label_2
_geom_bond_distance
_geom_bond_site_symmetry_2
Nb0 Ru0 2.726748 1_555
Nb0 Ru0 2.726748 1_554
Nb0 Ru1 2.726750 1_555
Nb0 Ru2 2.726750 1_555
Nb0 Ru1 2.726750 1_554
Nb0 Ru2 2.726750 1_554
Nb0 Ru5 2.780279 1_655
Nb0 Ru4 2.780279 1_545
Nb0 Ru3 2.780283 1_655
Nb0 Ru3 2.780283 1_545
Nb0 Ru5 2.780285 1_555
Nb0 Ru4 2.780285 1_555
Nb1 Ru3 2.726748 1_556
Nb1 Ru3 2.726748 1_555
Nb1 Ru4 2.726750 1_556
Nb1 Ru5 2.726750 1_555
Nb1 Ru5 2.726750 1_556
Nb1 Ru4 2.726750 1_555
Nb1 Ru2 2.780279 1_455
Nb1 Ru1 2.780279 1_565
Nb1 Ru0 2.780283 1_455
Nb1 Ru0 2.780283 1_565
Nb1 Ru1 2.780285 1_555
Nb1 Ru2 2.780285 1_555
Ru0 Ru4 2.704710 1_546
Ru0 Ru5 2.704710 1_656
Ru0 Ru5 2.704710 1_655
Ru0 Ru4 2.704710 1_545
Ru0 Ru1 2.747927 1_655
Ru0 Ru2 2.747927 1_545
Ru0 Ru1 2.812512 1_555
Ru0 Ru2 2.812512 1_555
Ru1 Ru5 2.704710 1_556
Ru1 Ru5 2.704710 1_555
Ru1 Ru3 2.704710 1_546
Ru1 Ru3 2.704710 1_545
Ru1 Ru2 2.747928 1_445
Ru1 Ru2 2.812512 1_555
Ru2 Ru4 2.704710 1_556
Ru2 Ru4 2.704710 1_555
Ru2 Ru3 2.704710 1_656
Ru2 Ru3 2.704710 1_655
Ru3 Ru5 2.747927 1_565
Ru3 Ru4 2.747927 1_455
Ru3 Ru5 2.812512 1_555
Ru3 Ru4 2.812512 1_555
Ru4 Ru5 2.747928 1_665
Ru4 Ru5 2.812512 1_555
