# generated using pymatgen
data_PdN2
_symmetry_space_group_name_H-M   'P 1'
_cell_length_a   5.13657200
_cell_length_b   5.13657200
_cell_length_c   5.13657200
_cell_angle_alpha   90.00000000
_cell_angle_beta   90.00000000
_cell_angle_gamma   90.00000000
_symmetry_Int_Tables_number   1
_chemical_formula_structural   PdN2
_chemical_formula_sum   'Pd4 N8'
_cell_volume   135.52522600
_cell_formula_units_Z   4
loop_
 _symmetry_equiv_pos_site_id
 _symmetry_equiv_pos_as_xyz
  1  'x, y, z'
loop_
 _atom_site_type_symbol
 _atom_site_label
 _atom_site_symmetry_multiplicity
 _atom_site_fract_x
 _atom_site_fract_y
 _atom_site_fract_z
 _atom_site_occupancy
  Pd  Pd0  1  0.50000000  0.50000000  0.00000000  1
  Pd  Pd1  1  0.50000000  0.00000000  0.50000000  1
  Pd  Pd2  1  0.00000000  0.50000000  0.50000000  1
  Pd  Pd3  1  0.00000000  0.00000000  0.00000000  1
  N  N0  1  0.06819300  0.93180700  0.43180700  1
  N  N1  1  0.93180700  0.43180700  0.06819300  1
  N  N2  1  0.43180700  0.06819300  0.93180700  1
  N  N3  1  0.56819300  0.56819300  0.56819300  1
  N  N4  1  0.93180700  0.06819300  0.56819300  1
  N  N5  1  0.06819300  0.56819300  0.93180700  1
  N  N6  1  0.56819300  0.93180700  0.06819300  1
  N  N7  1  0.43180700  0.43180700  0.43180700  1
loop_
_geom_bond_atom_site_label_1
_geom_bond_atom_site_label_2
_geom_bond_distance
_geom_bond_site_symmetry_2
N0 N4 1.213399 1_465
N0 Pd2 2.272652 1_555
N0 Pd1 2.272652 1_565
N0 Pd3 2.272652 1_565
N1 N5 1.213399 1_654
N1 Pd0 2.272652 1_555
N1 Pd2 2.272652 1_655
N1 Pd3 2.272652 1_655
N2 N6 1.213399 1_546
N2 Pd1 2.272652 1_555
N2 Pd0 2.272652 1_556
N2 Pd3 2.272652 1_556
N3 N7 1.213399 1_555
N3 Pd2 2.272652 1_655
N3 Pd0 2.272652 1_556
N3 Pd1 2.272652 1_565
N4 Pd1 2.272652 1_555
N4 Pd2 2.272652 1_655
N4 Pd3 2.272652 1_656
N5 Pd2 2.272652 1_555
N5 Pd0 2.272652 1_556
N5 Pd3 2.272652 1_566
N6 Pd0 2.272652 1_555
N6 Pd1 2.272652 1_565
N6 Pd3 2.272652 1_665
N7 Pd1 2.272652 1_555
N7 Pd0 2.272652 1_555
N7 Pd2 2.272652 1_555
