# generated using pymatgen
data_Ca2VBiO6
_symmetry_space_group_name_H-M   'P 1'
_cell_length_a   5.85525865
_cell_length_b   5.85525865
_cell_length_c   5.85525865
_cell_angle_alpha   60.00000000
_cell_angle_beta   60.00000000
_cell_angle_gamma   60.00000000
_symmetry_Int_Tables_number   1
_chemical_formula_structural   Ca2VBiO6
_chemical_formula_sum   'Ca2 V1 Bi1 O6'
_cell_volume   141.94603183
_cell_formula_units_Z   1
loop_
 _symmetry_equiv_pos_site_id
 _symmetry_equiv_pos_as_xyz
  1  'x, y, z'
loop_
 _atom_site_type_symbol
 _atom_site_label
 _atom_site_symmetry_multiplicity
 _atom_site_fract_x
 _atom_site_fract_y
 _atom_site_fract_z
 _atom_site_occupancy
  Ca  Ca0  1  0.25000000  0.25000000  0.25000000  1
  Ca  Ca1  1  0.75000000  0.75000000  0.75000000  1
  V  V0  1  0.50000000  0.50000000  0.50000000  1
  Bi  Bi0  1  0.00000000  -0.00000000  -0.00000000  1
  O  O0  1  0.72778300  0.27221700  0.27221700  1
  O  O1  1  0.27221700  0.72778300  0.72778300  1
  O  O2  1  0.72778300  0.27221700  0.72778300  1
  O  O3  1  0.27221700  0.72778300  0.27221700  1
  O  O4  1  0.72778300  0.72778300  0.27221700  1
  O  O5  1  0.27221700  0.27221700  0.72778300  1
loop_
_geom_bond_atom_site_label_1
_geom_bond_atom_site_label_2
_geom_bond_distance
_geom_bond_site_symmetry_2
Ca0 O5 2.933404 1_555
Ca0 O0 2.933404 1_555
Ca0 O3 2.933404 1_555
Ca0 O4 2.933404 1_455
Ca0 O4 2.933404 1_545
Ca0 O1 2.933404 1_545
Ca0 O2 2.933404 1_554
Ca0 O1 2.933404 1_554
Ca0 O2 2.933404 1_455
Ca0 O3 2.933404 1_545
Ca0 O5 2.933404 1_554
Ca0 O0 2.933404 1_455
Ca1 O4 2.933404 1_556
Ca1 O3 2.933404 1_556
Ca1 O0 2.933404 1_556
Ca1 O2 2.933404 1_565
Ca1 O0 2.933404 1_565
Ca1 O3 2.933404 1_655
Ca1 O5 2.933404 1_565
Ca1 O1 2.933404 1_655
Ca1 O5 2.933404 1_655
Ca1 O1 2.933404 1_555
Ca1 O4 2.933404 1_555
Ca1 O2 2.933404 1_555
Bi0 O3 2.254116 1_545
Bi0 O5 2.254116 1_554
Bi0 O0 2.254116 1_455
Bi0 O4 2.254116 1_445
Bi0 O1 2.254116 1_544
Bi0 O2 2.254116 1_454
O0 V0 1.886177 1_555
O1 V0 1.886177 1_555
O2 V0 1.886177 1_555
O3 V0 1.886177 1_555
O4 V0 1.886177 1_555
O5 V0 1.886177 1_555
