# generated using pymatgen
data_Zr4Sc5N10
_symmetry_space_group_name_H-M   'P 1'
_cell_length_a   5.56212491
_cell_length_b   5.56212491
_cell_length_c   10.16226214
_cell_angle_alpha   89.92802944
_cell_angle_beta   89.92802944
_cell_angle_gamma   47.55519630
_symmetry_Int_Tables_number   1
_chemical_formula_structural   Zr4Sc5N10
_chemical_formula_sum   'Zr4 Sc5 N10'
_cell_volume   231.99859202
_cell_formula_units_Z   1
loop_
 _symmetry_equiv_pos_site_id
 _symmetry_equiv_pos_as_xyz
  1  'x, y, z'
loop_
 _atom_site_type_symbol
 _atom_site_label
 _atom_site_symmetry_multiplicity
 _atom_site_fract_x
 _atom_site_fract_y
 _atom_site_fract_z
 _atom_site_occupancy
  Zr  Zr0  1  0.69931823  0.69931823  0.09689442  1
  Zr  Zr1  1  0.40629279  0.40629279  0.19522961  1
  Zr  Zr2  1  0.59370721  0.59370721  0.80477039  1
  Zr  Zr3  1  0.30068177  0.30068177  0.90310558  1
  Sc  Sc0  1  0.09959116  0.09959116  0.29875919  1
  Sc  Sc1  1  0.80161578  0.80161578  0.40360930  1
  Sc  Sc2  1  0.50000000  0.50000000  0.50000000  1
  Sc  Sc3  1  0.19838422  0.19838422  0.59639070  1
  Sc  Sc4  1  0.90040884  0.90040884  0.70124081  1
  N  N0  1  0.40108028  0.40108028  0.70327313  1
  N  N1  1  0.30083867  0.30083867  0.39995549  1
  N  N2  1  0.10681738  0.10681738  0.78793172  1
  N  N3  1  0.00000000  0.00000000  0.50000000  1
  N  N4  1  0.69916133  0.69916133  0.60004451  1
  N  N5  1  0.89318262  0.89318262  0.21206828  1
  N  N6  1  0.59891972  0.59891972  0.29672687  1
  N  N7  1  0.78383929  0.78383929  0.89616506  1
  N  N8  1  0.50000000  0.50000000  0.00000000  1
  N  N9  1  0.21616071  0.21616071  0.10383494  1
loop_
_geom_bond_atom_site_label_1
_geom_bond_atom_site_label_2
_geom_bond_distance
_geom_bond_site_symmetry_2
N0 Zr2 2.216916 1_555
N0 Sc4 2.242685 1_545
N0 Sc4 2.242685 1_455
N0 Zr3 2.272190 1_555
N0 Sc2 2.296850 1_555
N0 Sc3 2.333177 1_555
N1 Sc1 2.242901 1_545
N1 Sc1 2.242901 1_455
N1 Sc3 2.251005 1_555
N1 Sc2 2.269338 1_555
N1 Sc0 2.293583 1_555
N1 Zr1 2.339809 1_555
N2 Sc3 2.157022 1_555
N2 Zr2 2.253041 1_545
N2 Zr2 2.253041 1_455
N2 Sc4 2.279561 1_445
N2 Zr3 2.295886 1_555
N3 Sc2 2.242579 1_455
N3 Sc2 2.242579 1_545
N3 Sc1 2.245780 1_445
N3 Sc3 2.245780 1_555
N3 Sc0 2.281327 1_555
N3 Sc4 2.281327 1_445
N4 Sc3 2.242901 1_655
N4 Sc3 2.242901 1_565
N4 Sc1 2.251005 1_555
N4 Sc2 2.269338 1_555
N4 Sc4 2.293583 1_555
N4 Zr2 2.339809 1_555
N5 Sc1 2.157022 1_555
N5 Zr1 2.253041 1_565
N5 Zr1 2.253041 1_655
N5 Sc0 2.279561 1_665
N5 Zr0 2.295886 1_555
N6 Zr1 2.216916 1_555
N6 Sc0 2.242685 1_655
N6 Sc0 2.242685 1_565
N6 Zr0 2.272190 1_555
N6 Sc2 2.296850 1_555
N6 Sc1 2.333177 1_555
N7 Zr2 2.147997 1_555
N7 Zr0 2.212817 1_556
N7 Zr3 2.250237 1_565
N7 Zr3 2.250237 1_655
N7 Sc4 2.307726 1_555
N8 Zr1 2.200218 1_555
N8 Zr2 2.200218 1_554
N8 Zr3 2.256575 1_554
N8 Zr0 2.256575 1_555
N9 Zr1 2.147997 1_555
N9 Zr3 2.212817 1_554
N9 Zr0 2.250237 1_545
N9 Zr0 2.250237 1_455
N9 Sc0 2.307726 1_555
