# generated using pymatgen
data_Mg6CrW
_symmetry_space_group_name_H-M   'P 1'
_cell_length_a   4.92616200
_cell_length_b   5.86044200
_cell_length_c   10.79178200
_cell_angle_alpha   90.00000000
_cell_angle_beta   90.00000000
_cell_angle_gamma   90.00000000
_symmetry_Int_Tables_number   1
_chemical_formula_structural   Mg6CrW
_chemical_formula_sum   'Mg12 Cr2 W2'
_cell_volume   311.55320674
_cell_formula_units_Z   2
loop_
 _symmetry_equiv_pos_site_id
 _symmetry_equiv_pos_as_xyz
  1  'x, y, z'
loop_
 _atom_site_type_symbol
 _atom_site_label
 _atom_site_symmetry_multiplicity
 _atom_site_fract_x
 _atom_site_fract_y
 _atom_site_fract_z
 _atom_site_occupancy
  Mg  Mg0  1  0.50000000  0.25029000  0.42112800  1
  Mg  Mg1  1  0.50000000  0.74971000  0.42112800  1
  Mg  Mg2  1  0.00000000  0.74342400  0.08614600  1
  Mg  Mg3  1  0.00000000  0.25657600  0.08614600  1
  Mg  Mg4  1  0.00000000  0.00000000  0.32224400  1
  Mg  Mg5  1  0.00000000  0.50000000  0.32170800  1
  Mg  Mg6  1  0.50000000  0.75029000  0.92112800  1
  Mg  Mg7  1  0.50000000  0.24971000  0.92112800  1
  Mg  Mg8  1  0.00000000  0.24342400  0.58614600  1
  Mg  Mg9  1  0.00000000  0.75657600  0.58614600  1
  Mg  Mg10  1  0.00000000  0.50000000  0.82224400  1
  Mg  Mg11  1  0.00000000  0.00000000  0.82170800  1
  Cr  Cr0  1  0.50000000  0.00000000  0.16856300  1
  Cr  Cr1  1  0.50000000  0.50000000  0.66856300  1
  W  W0  1  0.50000000  0.50000000  0.17293400  1
  W  W1  1  0.50000000  0.00000000  0.67293400  1
loop_
_geom_bond_atom_site_label_1
_geom_bond_atom_site_label_2
_geom_bond_distance
_geom_bond_site_symmetry_2
Mg0 Mg1 2.926822 1_555
Mg0 Mg1 2.933620 1_545
Mg0 Mg8 3.039699 1_555
Mg0 Mg8 3.039699 1_655
Mg0 W0 3.052162 1_555
Mg0 Mg4 3.058934 1_555
Mg0 Mg4 3.058934 1_655
Mg0 Mg5 3.059329 1_555
Mg0 Mg5 3.059329 1_655
Mg0 W1 3.088039 1_555
Mg1 Mg9 3.039699 1_555
Mg1 Mg9 3.039699 1_655
Mg1 W0 3.052162 1_555
Mg1 Mg4 3.058934 1_565
Mg1 Mg4 3.058934 1_665
Mg1 Mg5 3.059329 1_555
Mg1 Mg5 3.059329 1_655
Mg1 W1 3.088039 1_565
Mg2 Mg3 2.853144 1_555
Mg2 Mg5 2.915056 1_555
Mg2 Mg4 2.958521 1_565
Mg2 W0 2.996513 1_455
Mg2 W0 2.996513 1_555
Mg2 Mg3 3.007298 1_565
Mg2 Mg6 3.039699 1_554
Mg2 Mg6 3.039699 1_454
Mg3 Mg5 2.915056 1_555
Mg3 Mg4 2.958521 1_555
Mg3 W0 2.996513 1_455
Mg3 W0 2.996513 1_555
Mg3 Mg7 3.039699 1_554
Mg3 Mg7 3.039699 1_454
Mg4 Mg5 2.930227 1_555
Mg4 Mg5 2.930227 1_545
Mg4 Mg8 3.185288 1_555
Mg4 Mg9 3.185288 1_545
Mg5 W0 2.940156 1_555
Mg5 W0 2.940156 1_455
Mg5 Mg9 3.225661 1_555
Mg5 Mg8 3.225661 1_555
Mg6 Mg7 2.926822 1_565
Mg6 Mg7 2.933620 1_555
Mg6 W1 3.052162 1_565
Mg6 W0 3.088039 1_556
Mg7 W1 3.052162 1_555
Mg7 W0 3.088039 1_556
Mg8 Mg9 2.853144 1_545
Mg8 W1 2.996513 1_555
Mg8 W1 2.996513 1_455
Mg8 Mg9 3.007298 1_555
Mg9 W1 2.996513 1_565
Mg9 W1 2.996513 1_465
Mg10 Mg11 2.930227 1_555
Mg10 Mg11 2.930227 1_565
Mg10 Mg9 2.958521 1_555
Mg10 Mg8 2.958521 1_555
Mg10 Mg6 3.058934 1_455
Mg10 Mg6 3.058934 1_555
Mg10 Mg7 3.058934 1_455
Mg10 Mg7 3.058934 1_555
Mg10 Mg2 3.185288 1_556
Mg10 Mg3 3.185288 1_556
Mg11 Mg8 2.915056 1_555
Mg11 Mg9 2.915056 1_545
Mg11 W1 2.940156 1_555
Mg11 W1 2.940156 1_455
Mg11 Mg6 3.059329 1_545
Mg11 Mg6 3.059329 1_445
Mg11 Mg7 3.059329 1_455
Mg11 Mg7 3.059329 1_555
Mg11 Mg3 3.225661 1_556
Mg11 Mg2 3.225661 1_546
Cr0 W0 2.930601 1_545
Cr0 W0 2.930601 1_555
Cr0 Mg4 2.969405 1_655
Cr0 Mg4 2.969405 1_555
Cr0 Mg3 3.019736 1_555
Cr0 Mg3 3.019736 1_655
Cr0 Mg2 3.019736 1_545
Cr0 Mg2 3.019736 1_645
Cr0 Mg6 3.044977 1_544
Cr0 Mg7 3.044977 1_554
Cr0 Mg1 3.095250 1_545
Cr0 Mg0 3.095250 1_555
Cr1 W1 2.930601 1_555
Cr1 W1 2.930601 1_565
Cr1 Mg10 2.969405 1_555
Cr1 Mg10 2.969405 1_655
Cr1 Mg9 3.019736 1_555
Cr1 Mg9 3.019736 1_655
Cr1 Mg8 3.019736 1_655
Cr1 Mg8 3.019736 1_555
Cr1 Mg1 3.044977 1_555
Cr1 Mg0 3.044977 1_555
Cr1 Mg7 3.095250 1_555
Cr1 Mg6 3.095250 1_555
