# generated using pymatgen
data_Ba3U2As4O19
_symmetry_space_group_name_H-M   'P 1'
_cell_length_a   10.95086681
_cell_length_b   10.95086681
_cell_length_c   9.84020157
_cell_angle_alpha   84.46103302
_cell_angle_beta   84.46103302
_cell_angle_gamma   52.61167741
_symmetry_Int_Tables_number   1
_chemical_formula_structural   Ba3U2As4O19
_chemical_formula_sum   'Ba6 U4 As8 O38'
_cell_volume   932.14541616
_cell_formula_units_Z   2
loop_
 _symmetry_equiv_pos_site_id
 _symmetry_equiv_pos_as_xyz
  1  'x, y, z'
loop_
 _atom_site_type_symbol
 _atom_site_label
 _atom_site_symmetry_multiplicity
 _atom_site_fract_x
 _atom_site_fract_y
 _atom_site_fract_z
 _atom_site_occupancy
  Ba  Ba0  1  0.82307700  0.91205700  0.10545300  1
  Ba  Ba1  1  0.08794300  0.17692300  0.39454700  1
  Ba  Ba2  1  0.17692300  0.08794300  0.89454700  1
  Ba  Ba3  1  0.91205700  0.82307700  0.60545300  1
  Ba  Ba4  1  0.61926500  0.38073500  0.75000000  1
  Ba  Ba5  1  0.38073500  0.61926500  0.25000000  1
  U  U0  1  0.71269600  0.64914600  0.92322800  1
  U  U1  1  0.35085400  0.28730400  0.57677200  1
  U  U2  1  0.28730400  0.35085400  0.07677200  1
  U  U3  1  0.64914600  0.71269600  0.42322800  1
  As  As0  1  0.93825500  0.44162700  0.67510000  1
  As  As1  1  0.55837300  0.06174500  0.82490000  1
  As  As2  1  0.06174500  0.55837300  0.32490000  1
  As  As3  1  0.44162700  0.93825500  0.17510000  1
  As  As4  1  0.79174300  0.29167600  0.09439700  1
  As  As5  1  0.70832400  0.20825700  0.40560300  1
  As  As6  1  0.20825700  0.70832400  0.90560300  1
  As  As7  1  0.29167600  0.79174300  0.59439700  1
  O  O0  1  0.66877800  0.47930400  0.02818900  1
  O  O1  1  0.52069600  0.33122200  0.47181100  1
  O  O2  1  0.33122200  0.52069600  0.97181100  1
  O  O3  1  0.47930400  0.66877800  0.52818900  1
  O  O4  1  0.12675600  0.30031200  0.62807500  1
  O  O5  1  0.69968800  0.87324400  0.87192500  1
  O  O6  1  0.87324400  0.69968800  0.37192500  1
  O  O7  1  0.30031200  0.12675600  0.12807500  1
  O  O8  1  0.89782000  0.60400400  0.73643300  1
  O  O9  1  0.39599600  0.10218000  0.76356700  1
  O  O10  1  0.10218000  0.39599600  0.26356700  1
  O  O11  1  0.60400400  0.89782000  0.23643300  1
  O  O12  1  0.83703200  0.48127800  0.53251400  1
  O  O13  1  0.51872200  0.16296800  0.96748600  1
  O  O14  1  0.16296800  0.51872200  0.46748600  1
  O  O15  1  0.48127800  0.83703200  0.03251400  1
  O  O16  1  0.83694400  0.62131700  0.05162800  1
  O  O17  1  0.37868300  0.16305600  0.44837200  1
  O  O18  1  0.16305600  0.37868300  0.94837200  1
  O  O19  1  0.62131700  0.83694400  0.55162800  1
  O  O20  1  0.97025600  0.22203900  0.13617000  1
  O  O21  1  0.77796100  0.02974400  0.36383000  1
  O  O22  1  0.02974400  0.77796100  0.86383000  1
  O  O23  1  0.22203900  0.97025600  0.63617000  1
  O  O24  1  0.58922000  0.67623500  0.79415400  1
  O  O25  1  0.32376500  0.41078000  0.70584600  1
  O  O26  1  0.41078000  0.32376500  0.20584600  1
  O  O27  1  0.67623500  0.58922000  0.29415400  1
  O  O28  1  0.88272500  0.36966800  0.80956000  1
  O  O29  1  0.63033200  0.11727500  0.69044000  1
  O  O30  1  0.11727500  0.63033200  0.19044000  1
  O  O31  1  0.36966800  0.88272500  0.30956000  1
  O  O32  1  0.79002700  0.17571400  0.99306200  1
  O  O33  1  0.82428600  0.20997300  0.50693800  1
  O  O34  1  0.20997300  0.82428600  0.00693800  1
  O  O35  1  0.17571400  0.79002700  0.49306200  1
  O  O36  1  0.67479100  0.32520900  0.25000000  1
  O  O37  1  0.32520900  0.67479100  0.75000000  1
loop_
_geom_bond_atom_site_label_1
_geom_bond_atom_site_label_2
_geom_bond_distance
_geom_bond_site_symmetry_2
Ba0 O11 2.694330 1_555
Ba0 O32 2.807534 1_564
Ba0 O21 2.825959 1_565
Ba0 O22 2.920729 1_654
Ba0 O30 2.923737 1_655
Ba0 O5 2.961841 1_554
Ba0 O13 3.087599 1_564
Ba0 O6 3.183588 1_555
Ba0 O16 3.188004 1_555
Ba1 O10 2.694330 1_555
Ba1 O33 2.807534 1_455
Ba1 O20 2.825959 1_455
Ba1 O23 2.920729 1_545
Ba1 O31 2.923737 1_545
Ba1 O4 2.961841 1_555
Ba1 O12 3.087599 1_455
Ba1 O7 3.183588 1_555
Ba1 O17 3.188004 1_555
Ba2 O9 2.694330 1_555
Ba2 O34 2.807534 1_546
Ba2 O23 2.825959 1_545
Ba2 O20 2.920729 1_456
Ba2 O28 2.923737 1_455
Ba2 O7 2.961841 1_556
Ba2 O15 3.087599 1_546
Ba2 O4 3.183588 1_555
Ba2 O18 3.188004 1_555
Ba3 O8 2.694330 1_555
Ba3 O35 2.807534 1_655
Ba3 O22 2.825959 1_655
Ba3 O21 2.920729 1_565
Ba3 O29 2.923737 1_565
Ba3 O6 2.961841 1_555
Ba3 O14 3.087599 1_655
Ba3 O5 3.183588 1_555
Ba3 O19 3.188004 1_555
Ba4 O37 2.854116 1_555
Ba4 O28 2.927482 1_555
Ba4 O29 2.927482 1_555
Ba4 O33 2.997716 1_555
Ba4 O32 2.997716 1_555
Ba4 O24 3.117599 1_555
Ba4 O25 3.117599 1_555
Ba4 O3 3.241659 1_555
Ba4 O2 3.241659 1_555
Ba4 O0 3.243517 1_556
Ba4 O1 3.243517 1_555
Ba5 O36 2.854116 1_555
Ba5 O31 2.927482 1_555
Ba5 O30 2.927482 1_555
Ba5 O34 2.997716 1_555
Ba5 O35 2.997716 1_555
Ba5 O27 3.117599 1_555
Ba5 O26 3.117599 1_555
Ba5 O0 3.241659 1_555
Ba5 O1 3.241659 1_555
Ba5 O3 3.243517 1_555
Ba5 O2 3.243517 1_554
As0 O8 1.709263 1_555
As0 O4 1.715943 1_655
As0 O28 1.722420 1_555
As0 O12 1.727424 1_555
As1 O9 1.709263 1_555
As1 O5 1.715943 1_545
As1 O29 1.722420 1_555
As1 O13 1.727424 1_555
As2 O10 1.709263 1_555
As2 O6 1.715943 1_455
As2 O30 1.722420 1_555
As2 O14 1.727424 1_555
As3 O11 1.709263 1_555
As3 O7 1.715943 1_565
As3 O31 1.722420 1_555
As3 O15 1.727424 1_555
As4 O20 1.690036 1_555
As4 O32 1.698331 1_554
As4 O0 1.735032 1_555
As4 O36 1.810636 1_555
As5 O21 1.690036 1_555
As5 O33 1.698331 1_555
As5 O1 1.735032 1_555
As5 O36 1.810636 1_555
As6 O22 1.690036 1_555
As6 O34 1.698331 1_556
As6 O2 1.735032 1_555
As6 O37 1.810636 1_555
As7 O23 1.690036 1_555
As7 O35 1.698331 1_555
As7 O3 1.735032 1_555
As7 O37 1.810636 1_555
O0 U0 2.318822 1_554
O1 U1 2.318822 1_555
O2 U2 2.318822 1_556
O3 U3 2.318822 1_555
O4 U1 2.376505 1_555
O5 U0 2.376505 1_555
O6 U3 2.376505 1_555
O7 U2 2.376505 1_555
O8 U0 2.443728 1_555
O9 U1 2.443728 1_555
O10 U2 2.443728 1_555
O11 U3 2.443728 1_555
O12 U3 2.319678 1_555
O13 U2 2.319678 1_556
O14 U1 2.319678 1_555
O15 U0 2.319678 1_554
O16 U0 1.815083 1_554
O17 U1 1.815083 1_555
O18 U2 1.815083 1_556
O19 U3 1.815083 1_555
O24 U0 1.816927 1_555
O25 U1 1.816927 1_555
O26 U2 1.816927 1_555
O27 U3 1.816927 1_555
O28 U0 2.724533 1_555
O29 U1 2.724533 1_555
O30 U2 2.724533 1_555
O31 U3 2.724533 1_555
