# generated using pymatgen
data_Zr12Ti4Ni8O
_symmetry_space_group_name_H-M   'P 1'
_cell_length_a   8.41141318
_cell_length_b   8.41141318
_cell_length_c   8.41141306
_cell_angle_alpha   60.01488094
_cell_angle_beta   60.01488094
_cell_angle_gamma   60.01488845
_symmetry_Int_Tables_number   1
_chemical_formula_structural   Zr12Ti4Ni8O
_chemical_formula_sum   'Zr12 Ti4 Ni8 O1'
_cell_volume   420.95765126
_cell_formula_units_Z   1
loop_
 _symmetry_equiv_pos_site_id
 _symmetry_equiv_pos_as_xyz
  1  'x, y, z'
loop_
 _atom_site_type_symbol
 _atom_site_label
 _atom_site_symmetry_multiplicity
 _atom_site_fract_x
 _atom_site_fract_y
 _atom_site_fract_z
 _atom_site_occupancy
  Zr  Zr0  1  0.43281700  0.43281700  0.81941700  1
  Zr  Zr1  1  0.81941700  0.43281700  0.43281700  1
  Zr  Zr2  1  0.43281700  0.81941700  0.43281700  1
  Zr  Zr3  1  0.81859300  0.81859300  0.42930300  1
  Zr  Zr4  1  0.42930300  0.81859300  0.81859300  1
  Zr  Zr5  1  0.81859300  0.42930300  0.81859300  1
  Zr  Zr6  1  0.56718300  0.56718300  0.18058300  1
  Zr  Zr7  1  0.18058300  0.56718300  0.56718300  1
  Zr  Zr8  1  0.56718300  0.18058300  0.56718300  1
  Zr  Zr9  1  0.18140700  0.18140700  0.57069700  1
  Zr  Zr10  1  0.57069700  0.18140700  0.18140700  1
  Zr  Zr11  1  0.18140700  0.57069700  0.18140700  1
  Ti  Ti0  1  0.00000000  0.00000000  0.00000000  1
  Ti  Ti1  1  0.00000000  0.50000000  0.00000000  1
  Ti  Ti2  1  0.50000000  0.00000000  0.00000000  1
  Ti  Ti3  1  0.00000000  0.00000000  0.50000000  1
  Ni  Ni0  1  0.79058700  0.79058700  0.79058700  1
  Ni  Ni1  1  0.79641000  0.11034000  0.79641000  1
  Ni  Ni2  1  0.11034000  0.79641000  0.79641000  1
  Ni  Ni3  1  0.79641000  0.79641000  0.11034000  1
  Ni  Ni4  1  0.20941300  0.20941300  0.20941300  1
  Ni  Ni5  1  0.20359000  0.88966000  0.20359000  1
  Ni  Ni6  1  0.88966000  0.20359000  0.20359000  1
  Ni  Ni7  1  0.20359000  0.20359000  0.88966000  1
  O  O0  1  0.50000000  0.50000000  0.50000000  1
loop_
_geom_bond_atom_site_label_1
_geom_bond_atom_site_label_2
_geom_bond_distance
_geom_bond_site_symmetry_2
Zr0 Zr10 3.119348 1_556
Zr0 Zr11 3.119348 1_556
Zr0 Zr4 3.226808 1_555
Zr0 Zr5 3.226808 1_555
Zr1 Zr11 3.119348 1_655
Zr1 Zr9 3.119349 1_655
Zr1 Zr5 3.226808 1_555
Zr1 Zr3 3.226808 1_555
Zr2 Zr9 3.119349 1_565
Zr2 Zr4 3.226808 1_555
Zr2 Zr3 3.226808 1_555
Zr3 Zr8 3.119349 1_565
Zr3 Zr7 3.119349 1_655
Zr3 Zr5 3.275215 1_555
Zr3 Zr4 3.275215 1_555
Zr4 Zr9 3.103849 1_565
Zr4 Zr8 3.119348 1_565
Zr4 Zr6 3.119348 1_556
Zr4 Zr5 3.275216 1_555
Zr5 Zr9 3.103849 1_655
Zr5 Zr7 3.119348 1_655
Zr5 Zr6 3.119348 1_556
Zr7 Zr9 3.226808 1_555
Zr8 Zr9 3.226808 1_555
Zr10 Zr5 3.103849 1_554
Zr10 Zr3 3.103849 1_545
Zr10 Zr2 3.119348 1_545
Zr10 Zr8 3.226808 1_555
Zr10 Zr6 3.226808 1_555
Zr10 Zr9 3.275215 1_555
Zr10 Zr11 3.275216 1_555
Zr11 Zr4 3.103849 1_554
Zr11 Zr3 3.103849 1_455
Zr11 Zr7 3.226808 1_555
Zr11 Zr6 3.226808 1_555
Zr11 Zr9 3.275215 1_555
Ti0 Zr9 3.001410 1_554
Ti0 Zr3 3.001410 1_445
Ti0 Zr11 3.001410 1_545
Ti0 Zr10 3.001410 1_455
Ti0 Zr5 3.001410 1_454
Ti0 Zr4 3.001410 1_544
Ti1 Zr11 3.025153 1_555
Ti1 Zr5 3.025153 1_454
Ti1 Zr7 3.025676 1_554
Ti1 Zr1 3.025676 1_455
Ti1 Zr6 3.025677 1_455
Ti1 Zr0 3.025677 1_554
Ti2 Zr10 3.025153 1_555
Ti2 Zr4 3.025153 1_544
Ti2 Zr8 3.025676 1_554
Ti2 Zr2 3.025676 1_545
Ti2 Zr6 3.025677 1_545
Ti2 Zr0 3.025677 1_554
Ti3 Zr9 3.025152 1_555
Ti3 Zr3 3.025152 1_445
Ti3 Zr8 3.025677 1_455
Ti3 Zr1 3.025677 1_455
Ti3 Zr7 3.025677 1_545
Ti3 Zr2 3.025677 1_545
Ni0 Ti3 2.583438 1_665
Ni0 Ti1 2.583439 1_656
Ni0 Ti2 2.583439 1_566
Ni0 Ni3 2.739408 1_556
Ni0 Ni2 2.739408 1_655
Ni0 Ni1 2.739408 1_565
Ni0 Zr3 2.823175 1_555
Ni0 Zr4 2.823175 1_555
Ni0 Zr5 2.823175 1_555
Ni0 Zr6 3.004977 1_556
Ni0 Zr7 3.004977 1_655
Ni0 Zr8 3.004977 1_565
Ni1 Ti2 2.542987 1_556
Ni1 Ti3 2.542987 1_655
Ni1 Ti0 2.545685 1_656
Ni1 Ni3 2.641189 1_546
Ni1 Ni2 2.641189 1_645
Ni1 Zr5 2.881547 1_555
Ni1 Zr1 2.896476 1_555
Ni1 Zr0 2.896477 1_555
Ni1 Zr9 3.017278 1_655
Ni1 Zr10 3.017278 1_556
Ni1 Zr8 3.036937 1_555
Ni2 Ti1 2.542987 1_556
Ni2 Ti3 2.542987 1_565
Ni2 Ti0 2.545685 1_566
Ni2 Ni3 2.641189 1_456
Ni2 Zr4 2.881547 1_555
Ni2 Zr2 2.896476 1_555
Ni2 Zr0 2.896477 1_555
Ni2 Zr9 3.017278 1_565
Ni2 Zr11 3.017278 1_556
Ni2 Zr7 3.036937 1_555
Ni3 Ti1 2.542987 1_655
Ni3 Ti2 2.542987 1_565
Ni3 Ti0 2.545685 1_665
Ni3 Zr3 2.881547 1_555
Ni3 Zr2 2.896477 1_555
Ni3 Zr1 2.896477 1_555
Ni3 Zr11 3.017278 1_655
Ni3 Zr10 3.017278 1_565
Ni3 Zr6 3.036937 1_555
Ni4 Ti3 2.583438 1_555
Ni4 Ti1 2.583439 1_555
Ni4 Ti2 2.583439 1_555
Ni4 Ni7 2.739408 1_554
Ni4 Ni5 2.739408 1_545
Ni4 Ni6 2.739408 1_455
Ni4 Zr9 2.823175 1_555
Ni4 Zr10 2.823175 1_555
Ni4 Zr11 2.823175 1_555
Ni4 Zr0 3.004977 1_554
Ni4 Zr2 3.004977 1_545
Ni4 Zr1 3.004977 1_455
Ni5 Ti2 2.542987 1_565
Ni5 Ti3 2.542987 1_565
Ni5 Ti0 2.545685 1_565
Ni5 Ni7 2.641189 1_564
Ni5 Ni6 2.641189 1_465
Ni5 Zr11 2.881547 1_555
Ni5 Zr7 2.896476 1_555
Ni5 Zr6 2.896477 1_555
Ni5 Zr3 3.017278 1_455
Ni5 Zr4 3.017278 1_554
Ni5 Zr2 3.036937 1_555
Ni6 Ti1 2.542987 1_655
Ni6 Ti3 2.542987 1_655
Ni6 Ti0 2.545685 1_655
Ni6 Ni7 2.641189 1_654
Ni6 Zr10 2.881547 1_555
Ni6 Zr8 2.896476 1_555
Ni6 Zr6 2.896477 1_555
Ni6 Zr3 3.017278 1_545
Ni6 Zr5 3.017278 1_554
Ni6 Zr1 3.036937 1_555
Ni7 Ti1 2.542987 1_556
Ni7 Ti2 2.542987 1_556
Ni7 Ti0 2.545685 1_556
Ni7 Zr9 2.881547 1_555
Ni7 Zr7 2.896477 1_555
Ni7 Zr8 2.896477 1_555
Ni7 Zr4 3.017278 1_545
Ni7 Zr5 3.017278 1_455
Ni7 Zr0 3.036937 1_555
O0 Zr0 2.267440 1_555
O0 Zr6 2.267440 1_555
O0 Zr2 2.267440 1_555
O0 Zr1 2.267440 1_555
O0 Zr7 2.267440 1_555
O0 Zr8 2.267440 1_555
