# generated using pymatgen
data_K6Na2Pt(WO6)6
_symmetry_space_group_name_H-M   'P 1'
_cell_length_a   9.59696066
_cell_length_b   9.59696066
_cell_length_c   9.59696069
_cell_angle_alpha   81.53596045
_cell_angle_beta   81.53596045
_cell_angle_gamma   81.53596228
_symmetry_Int_Tables_number   1
_chemical_formula_structural   K6Na2Pt(WO6)6
_chemical_formula_sum   'K6 Na2 Pt1 W6 O36'
_cell_volume   857.59958620
_cell_formula_units_Z   1
loop_
 _symmetry_equiv_pos_site_id
 _symmetry_equiv_pos_as_xyz
  1  'x, y, z'
loop_
 _atom_site_type_symbol
 _atom_site_label
 _atom_site_symmetry_multiplicity
 _atom_site_fract_x
 _atom_site_fract_y
 _atom_site_fract_z
 _atom_site_occupancy
  K  K0  1  0.32464100  0.87710400  0.32464100  1
  K  K1  1  0.87710400  0.32464100  0.32464100  1
  K  K2  1  0.32464100  0.32464100  0.87710400  1
  K  K3  1  0.67535900  0.12289600  0.67535900  1
  K  K4  1  0.12289600  0.67535900  0.67535900  1
  K  K5  1  0.67535900  0.67535900  0.12289600  1
  Na  Na0  1  0.60160900  0.60160900  0.60160900  1
  Na  Na1  1  0.39839100  0.39839100  0.39839100  1
  Pt  Pt0  1  0.00000000  0.00000000  0.00000000  1
  W  W0  1  0.26101900  0.00000000  0.73898100  1
  W  W1  1  0.73898100  0.00000000  0.26101900  1
  W  W2  1  0.00000000  0.73898100  0.26101900  1
  W  W3  1  0.00000000  0.26101900  0.73898100  1
  W  W4  1  0.73898100  0.26101900  0.00000000  1
  W  W5  1  0.26101900  0.73898100  0.00000000  1
  O  O0  1  0.90170500  0.35702600  0.90170500  1
  O  O1  1  0.35702600  0.90170500  0.90170500  1
  O  O2  1  0.90170500  0.90170500  0.35702600  1
  O  O3  1  0.09829500  0.64297400  0.09829500  1
  O  O4  1  0.64297400  0.09829500  0.09829500  1
  O  O5  1  0.09829500  0.09829500  0.64297400  1
  O  O6  1  0.13478900  0.88771400  0.13478900  1
  O  O7  1  0.88771400  0.13478900  0.13478900  1
  O  O8  1  0.13478900  0.13478900  0.88771400  1
  O  O9  1  0.86521100  0.11228600  0.86521100  1
  O  O10  1  0.11228600  0.86521100  0.86521100  1
  O  O11  1  0.86521100  0.86521100  0.11228600  1
  O  O12  1  0.68528100  0.38477100  0.13021400  1
  O  O13  1  0.13021400  0.38477100  0.68528100  1
  O  O14  1  0.38477100  0.13021400  0.68528100  1
  O  O15  1  0.38477100  0.68528100  0.13021400  1
  O  O16  1  0.13021400  0.68528100  0.38477100  1
  O  O17  1  0.68528100  0.13021400  0.38477100  1
  O  O18  1  0.31471900  0.61522900  0.86978600  1
  O  O19  1  0.86978600  0.61522900  0.31471900  1
  O  O20  1  0.61522900  0.86978600  0.31471900  1
  O  O21  1  0.61522900  0.31471900  0.86978600  1
  O  O22  1  0.86978600  0.31471900  0.61522900  1
  O  O23  1  0.31471900  0.86978600  0.61522900  1
  O  O24  1  0.80375300  0.61903700  0.80375300  1
  O  O25  1  0.61903700  0.80375300  0.80375300  1
  O  O26  1  0.80375300  0.80375300  0.61903700  1
  O  O27  1  0.19624700  0.38096300  0.19624700  1
  O  O28  1  0.38096300  0.19624700  0.19624700  1
  O  O29  1  0.19624700  0.19624700  0.38096300  1
  O  O30  1  0.64950200  0.83231700  0.64950200  1
  O  O31  1  0.83231700  0.64950200  0.64950200  1
  O  O32  1  0.64950200  0.64950200  0.83231700  1
  O  O33  1  0.35049800  0.16768300  0.35049800  1
  O  O34  1  0.16768300  0.35049800  0.35049800  1
  O  O35  1  0.35049800  0.35049800  0.16768300  1
loop_
_geom_bond_atom_site_label_1
_geom_bond_atom_site_label_2
_geom_bond_distance
_geom_bond_site_symmetry_2
K0 O6 2.741855 1_555
K0 O16 2.754102 1_555
K0 O15 2.754103 1_555
K0 O20 2.767188 1_555
K0 O23 2.767188 1_555
K0 O33 2.885379 1_565
K0 O28 3.220486 1_565
K0 O29 3.220486 1_565
K1 O7 2.741855 1_555
K1 O17 2.754102 1_555
K1 O12 2.754103 1_555
K1 O19 2.767188 1_555
K1 O22 2.767188 1_555
K1 O34 2.885379 1_655
K1 O27 3.220486 1_655
K1 O29 3.220486 1_655
K2 O8 2.741854 1_555
K2 O14 2.754103 1_555
K2 O13 2.754103 1_555
K2 O21 2.767188 1_555
K2 O18 2.767188 1_555
K2 O35 2.885379 1_556
K2 O28 3.220486 1_556
K2 O27 3.220486 1_556
K3 O9 2.741855 1_555
K3 O22 2.754102 1_555
K3 O21 2.754103 1_555
K3 O14 2.767188 1_555
K3 O17 2.767188 1_555
K3 O30 2.885379 1_545
K3 O25 3.220486 1_545
K3 O26 3.220486 1_545
K4 O10 2.741855 1_555
K4 O23 2.754102 1_555
K4 O18 2.754103 1_555
K4 O13 2.767188 1_555
K4 O16 2.767188 1_555
K4 O31 2.885379 1_455
K4 O24 3.220486 1_455
K4 O26 3.220486 1_455
K5 O11 2.741854 1_555
K5 O20 2.754103 1_555
K5 O19 2.754103 1_555
K5 O12 2.767188 1_555
K5 O15 2.767188 1_555
K5 O32 2.885379 1_554
K5 O24 3.220486 1_554
K5 O25 3.220486 1_554
Na0 O30 2.446645 1_555
Na0 O31 2.446645 1_555
Na0 O32 2.446646 1_555
Na1 O33 2.446645 1_555
Na1 O34 2.446645 1_555
Na1 O35 2.446646 1_555
O0 W4 1.977782 1_556
O0 W3 1.977782 1_655
O1 W5 1.977782 1_556
O1 W0 1.977782 1_565
O2 W1 1.977782 1_565
O2 W2 1.977782 1_655
O3 W5 1.977782 1_555
O3 W2 1.977782 1_555
O4 W4 1.977782 1_555
O4 W1 1.977782 1_555
O5 W3 1.977782 1_555
O5 W0 1.977782 1_555
O6 Pt0 2.044441 1_565
O6 W2 2.179792 1_555
O6 W5 2.179792 1_555
O7 Pt0 2.044441 1_655
O7 W1 2.179792 1_555
O7 W4 2.179792 1_555
O8 Pt0 2.044441 1_556
O8 W3 2.179792 1_555
O8 W0 2.179792 1_555
O9 Pt0 2.044441 1_656
O9 W3 2.179792 1_655
O9 W4 2.179792 1_556
O10 Pt0 2.044441 1_566
O10 W0 2.179792 1_565
O10 W5 2.179792 1_556
O11 Pt0 2.044441 1_665
O11 W2 2.179792 1_655
O11 W1 2.179792 1_565
O12 W4 1.817931 1_555
O13 W3 1.817931 1_555
O14 W0 1.817931 1_555
O15 W5 1.817931 1_555
O16 W2 1.817931 1_555
O17 W1 1.817931 1_555
O18 W5 1.817931 1_556
O19 W2 1.817931 1_655
O20 W1 1.817931 1_565
O21 W4 1.817931 1_556
O22 W3 1.817931 1_655
O23 W0 1.817931 1_565
O24 O31 1.459027 1_555
O24 O32 1.459027 1_555
O25 O30 1.459027 1_555
O25 O32 1.459027 1_555
O26 O31 1.459027 1_555
O26 O30 1.459027 1_555
O27 O34 1.459027 1_555
O27 O35 1.459027 1_555
O28 O33 1.459027 1_555
O28 O35 1.459027 1_555
O29 O33 1.459027 1_555
O29 O34 1.459027 1_555
