# generated using pymatgen
data_Sr3CaHf4O12
_symmetry_space_group_name_H-M   'P 1'
_cell_length_a   8.20083300
_cell_length_b   5.74993000
_cell_length_c   5.81383874
_cell_angle_alpha   89.95568175
_cell_angle_beta   90.00000000
_cell_angle_gamma   90.00000000
_symmetry_Int_Tables_number   1
_chemical_formula_structural   Sr3CaHf4O12
_chemical_formula_sum   'Sr3 Ca1 Hf4 O12'
_cell_volume   274.14692389
_cell_formula_units_Z   1
loop_
 _symmetry_equiv_pos_site_id
 _symmetry_equiv_pos_as_xyz
  1  'x, y, z'
loop_
 _atom_site_type_symbol
 _atom_site_label
 _atom_site_symmetry_multiplicity
 _atom_site_fract_x
 _atom_site_fract_y
 _atom_site_fract_z
 _atom_site_occupancy
  Sr  Sr0  1  0.50000000  0.00375100  0.02961600  1
  Sr  Sr1  1  0.00000000  0.50694600  0.47307800  1
  Sr  Sr2  1  0.00000000  0.99287700  0.96652000  1
  Ca  Ca0  1  0.50000000  0.50195600  0.53882600  1
  Hf  Hf0  1  0.25251200  0.99990100  0.49914800  1
  Hf  Hf1  1  0.74802600  0.50024500  0.00113700  1
  Hf  Hf2  1  0.74748800  0.99990100  0.49914800  1
  Hf  Hf3  1  0.25197400  0.50024500  0.00113700  1
  O  O0  1  0.50000000  0.56501600  0.96358400  1
  O  O1  1  0.50000000  0.91368300  0.48479900  1
  O  O2  1  0.00000000  0.43286800  0.02223600  1
  O  O3  1  0.00000000  0.06384500  0.50900900  1
  O  O4  1  0.28232700  0.20911700  0.79056000  1
  O  O5  1  0.70313900  0.29725300  0.29725000  1
  O  O6  1  0.78200400  0.79263800  0.20743700  1
  O  O7  1  0.21620600  0.71037400  0.71063400  1
  O  O8  1  0.21799600  0.79263800  0.20743700  1
  O  O9  1  0.78379400  0.71037400  0.71063400  1
  O  O10  1  0.71767300  0.20911700  0.79056000  1
  O  O11  1  0.29686100  0.29725300  0.29725000  1
loop_
_geom_bond_atom_site_label_1
_geom_bond_atom_site_label_2
_geom_bond_distance
_geom_bond_site_symmetry_2
Ca0 O1 2.387907 1_555
Ca0 O5 2.477051 1_555
Ca0 O11 2.477051 1_555
Ca0 O0 2.496229 1_555
Ca0 O9 2.802189 1_555
Ca0 O7 2.802189 1_555
Ca0 O10 2.856557 1_555
Ca0 O4 2.856557 1_555
Hf0 O7 2.090141 1_555
Hf0 O1 2.090956 1_555
Hf0 O8 2.092796 1_555
Hf0 O4 2.092960 1_565
Hf0 O3 2.103985 1_565
Hf0 O11 2.104814 1_565
Hf1 O0 2.079298 1_554
Hf1 O6 2.084677 1_555
Hf1 O10 2.089523 1_554
Hf1 O9 2.096475 1_554
Hf1 O2 2.105958 1_655
Hf1 O5 2.111510 1_555
Hf2 O9 2.090141 1_555
Hf2 O1 2.090956 1_555
Hf2 O6 2.092796 1_555
Hf2 O10 2.092960 1_565
Hf2 O3 2.103985 1_665
Hf2 O5 2.104814 1_565
Hf3 O0 2.079298 1_554
Hf3 O8 2.084677 1_555
Hf3 O4 2.089523 1_554
Hf3 O7 2.096475 1_554
Hf3 O2 2.105958 1_555
Hf3 O11 2.111510 1_555
O0 Sr0 2.552032 1_566
O1 Sr0 2.696166 1_565
O2 Sr2 2.550819 1_544
O2 Sr1 2.655831 1_555
O3 Sr1 2.556188 1_555
O3 Sr2 2.690702 1_545
O4 Sr0 2.551482 1_556
O4 Sr2 2.819790 1_545
O5 Sr0 2.836977 1_555
O5 Sr1 2.903009 1_655
O6 Sr2 2.545783 1_654
O6 Sr0 2.808700 1_565
O6 Sr1 2.876763 1_655
O7 Sr1 2.534154 1_555
O7 Sr2 2.828302 1_555
O8 Sr2 2.545783 1_554
O8 Sr0 2.808700 1_565
O8 Sr1 2.876763 1_555
O9 Sr1 2.534154 1_655
O9 Sr2 2.828302 1_655
O10 Sr0 2.551482 1_556
O10 Sr2 2.819790 1_645
O11 Sr0 2.836977 1_555
O11 Sr1 2.903009 1_555
