# generated using pymatgen
data_Ca3Mn2O7
_symmetry_space_group_name_H-M   'P 1'
_cell_length_a   5.25315589
_cell_length_b   5.24880880
_cell_length_c   10.02426852
_cell_angle_alpha   74.81605708
_cell_angle_beta   90.00004892
_cell_angle_gamma   89.99996912
_symmetry_Int_Tables_number   1
_chemical_formula_structural   Ca3Mn2O7
_chemical_formula_sum   'Ca6 Mn4 O14'
_cell_volume   266.74821360
_cell_formula_units_Z   2
loop_
 _symmetry_equiv_pos_site_id
 _symmetry_equiv_pos_as_xyz
  1  'x, y, z'
loop_
 _atom_site_type_symbol
 _atom_site_label
 _atom_site_symmetry_multiplicity
 _atom_site_fract_x
 _atom_site_fract_y
 _atom_site_fract_z
 _atom_site_occupancy
  Ca  Ca0  1  0.28196782  0.75264724  -0.00000176  1
  Ca  Ca1  1  0.78197051  0.24734659  0.00001189  1
  Ca  Ca2  1  0.22337457  0.56833340  0.37283752  1
  Ca  Ca3  1  0.72338487  0.05861505  0.37285158  1
  Ca  Ca4  1  0.72338810  0.43166888  0.62715626  1
  Ca  Ca5  1  0.22339363  0.94138953  0.62713954  1
  Mn  Mn0  1  0.24988515  0.15193742  0.19615045  1
  Mn  Mn1  1  0.74989248  0.65186426  0.19611947  1
  Mn  Mn2  1  0.74988831  0.84805461  0.80385671  1
  Mn  Mn3  1  0.24989614  0.34813169  0.80387552  1
  O  O0  1  0.24050592  0.30706097  -0.00002285  1
  O  O1  1  0.74049906  0.69293780  0.00002110  1
  O  O2  1  0.03864553  0.04760398  0.82747523  1
  O  O3  1  0.53864988  0.12505484  0.82745909  1
  O  O4  1  0.53864755  0.95240261  0.17252958  1
  O  O5  1  0.03865470  0.87493498  0.17254636  1
  O  O6  1  0.96255074  0.57003416  0.78457446  1
  O  O7  1  0.46252656  0.64554308  0.78452397  1
  O  O8  1  0.46254380  0.42997465  0.21542876  1
  O  O9  1  0.96251749  0.35445937  0.21547205  1
  O  O10  1  0.25428795  0.40471528  0.60945964  1
  O  O11  1  0.75432123  0.98597969  0.60942696  1
  O  O12  1  0.75428941  0.59529612  0.39053957  1
  O  O13  1  0.25432061  0.01401180  0.39056991  1
loop_
_geom_bond_atom_site_label_1
_geom_bond_atom_site_label_2
_geom_bond_distance
_geom_bond_site_symmetry_2
Ca0 O0 2.348972 1_555
Ca0 O2 2.370441 1_564
Ca0 O5 2.370446 1_555
Ca0 O1 2.429031 1_555
Ca0 O8 2.552630 1_555
Ca0 O7 2.552891 1_554
Ca0 O4 2.618873 1_555
Ca0 O3 2.619056 1_564
Ca1 O1 2.348972 1_555
Ca1 O4 2.370385 1_545
Ca1 O3 2.370514 1_554
Ca1 O0 2.429053 1_655
Ca1 O6 2.552722 1_554
Ca1 O9 2.552759 1_555
Ca1 O2 2.618864 1_654
Ca1 O5 2.619050 1_645
Ca2 O8 2.279469 1_555
Ca2 O10 2.307172 1_555
Ca2 O13 2.397515 1_565
Ca2 O5 2.422809 1_555
Ca2 O12 2.477265 1_455
Ca2 O9 2.560085 1_455
Ca2 O12 2.800549 1_555
Ca2 O13 2.872709 1_555
Ca2 O4 2.952666 1_555
Ca3 O9 2.279236 1_555
Ca3 O11 2.306975 1_545
Ca3 O12 2.397065 1_545
Ca3 O4 2.423095 1_545
Ca3 O13 2.477136 1_555
Ca3 O8 2.560442 1_555
Ca3 O13 2.800640 1_655
Ca3 O12 2.873076 1_555
Ca3 O5 2.952650 1_645
Ca4 O6 2.279540 1_555
Ca4 O12 2.307122 1_555
Ca4 O11 2.397557 1_545
Ca4 O3 2.422956 1_555
Ca4 O10 2.477335 1_555
Ca4 O7 2.560116 1_555
Ca4 O10 2.800463 1_655
Ca4 O11 2.872655 1_555
Ca4 O2 2.952661 1_655
Ca5 O7 2.279265 1_555
Ca5 O13 2.306922 1_565
Ca5 O10 2.397113 1_565
Ca5 O2 2.423246 1_565
Ca5 O11 2.477170 1_455
Ca5 O6 2.560487 1_455
Ca5 O11 2.800591 1_555
Ca5 O10 2.873011 1_555
Ca5 O3 2.952680 1_565
Mn0 O9 1.885254 1_455
Mn0 O8 1.887539 1_555
Mn0 O5 1.892456 1_545
Mn0 O13 1.893097 1_555
Mn0 O4 1.893113 1_545
Mn0 O0 1.921908 1_555
Mn1 O8 1.885300 1_555
Mn1 O9 1.887689 1_555
Mn1 O4 1.892183 1_555
Mn1 O5 1.892838 1_655
Mn1 O12 1.893107 1_555
Mn1 O1 1.921213 1_555
Mn2 O7 1.885226 1_555
Mn2 O6 1.887492 1_555
Mn2 O3 1.892465 1_565
Mn2 O2 1.893130 1_665
Mn2 O11 1.893192 1_555
Mn2 O1 1.921822 1_556
Mn3 O6 1.885329 1_455
Mn3 O7 1.887735 1_555
Mn3 O2 1.892148 1_555
Mn3 O3 1.892816 1_555
Mn3 O10 1.893055 1_555
Mn3 O0 1.921248 1_556
