# generated using pymatgen
data_PrSiPd2
_symmetry_space_group_name_H-M   'P 1'
_cell_length_a   5.72857980
_cell_length_b   6.91070467
_cell_length_c   7.59099018
_cell_angle_alpha   90.00000000
_cell_angle_beta   90.00000000
_cell_angle_gamma   90.00000000
_symmetry_Int_Tables_number   1
_chemical_formula_structural   PrSiPd2
_chemical_formula_sum   'Pr4 Si4 Pd8'
_cell_volume   300.51609067
_cell_formula_units_Z   4
loop_
 _symmetry_equiv_pos_site_id
 _symmetry_equiv_pos_as_xyz
  1  'x, y, z'
loop_
 _atom_site_type_symbol
 _atom_site_label
 _atom_site_symmetry_multiplicity
 _atom_site_fract_x
 _atom_site_fract_y
 _atom_site_fract_z
 _atom_site_occupancy
  Pr  Pr0  1  0.35345013  0.75000000  0.03099340  1
  Pr  Pr1  1  0.14654987  0.75000000  0.53099340  1
  Pr  Pr2  1  0.64654987  0.25000000  0.96900660  1
  Pr  Pr3  1  0.85345013  0.25000000  0.46900660  1
  Si  Si0  1  0.64941486  0.75000000  0.37362562  1
  Si  Si1  1  0.85058514  0.75000000  0.87362562  1
  Si  Si2  1  0.35058514  0.25000000  0.62637438  1
  Si  Si3  1  0.14941486  0.25000000  0.12637438  1
  Pd  Pd0  1  0.90770073  0.55261958  0.17317167  1
  Pd  Pd1  1  0.59229927  0.94738042  0.67317167  1
  Pd  Pd2  1  0.09229927  0.05261958  0.82682833  1
  Pd  Pd3  1  0.40770073  0.44738042  0.32682833  1
  Pd  Pd4  1  0.09229927  0.44738042  0.82682833  1
  Pd  Pd5  1  0.40770073  0.05261958  0.32682833  1
  Pd  Pd6  1  0.90770073  0.94738042  0.17317167  1
  Pd  Pd7  1  0.59229927  0.55261958  0.67317167  1
loop_
_geom_bond_atom_site_label_1
_geom_bond_atom_site_label_2
_geom_bond_distance
_geom_bond_site_symmetry_2
Pr0 Si1 3.088272 1_554
Pr0 Si0 3.104730 1_555
Pr0 Si1 3.118567 1_454
Pr1 Si0 3.088272 1_455
Pr1 Si1 3.104730 1_455
Pr1 Si0 3.118567 1_555
Pr2 Si3 3.088272 1_556
Pr2 Si2 3.104730 1_555
Pr2 Si3 3.118567 1_656
Pr3 Si2 3.088272 1_655
Pr3 Si3 3.104730 1_655
Pr3 Si2 3.118567 1_555
Pd0 Si0 2.522944 1_555
Pd0 Si3 2.533205 1_655
Pd0 Si1 2.671713 1_554
Pd0 Pd6 2.728076 1_555
Pd0 Pd4 2.925631 1_654
Pd0 Pr2 3.002267 1_554
Pd0 Pr3 3.084357 1_555
Pd0 Pr0 3.089636 1_655
Pd0 Pd3 3.177041 1_655
Pd0 Pd3 3.177041 1_555
Pd0 Pr1 3.333258 1_655
Pd0 Pr0 3.620289 1_555
Pd1 Si1 2.522944 1_555
Pd1 Si2 2.533205 1_565
Pd1 Si0 2.671713 1_555
Pd1 Pd7 2.728076 1_555
Pd1 Pd5 2.925631 1_565
Pd1 Pr3 3.002267 1_565
Pd1 Pr2 3.084357 1_565
Pd1 Pr1 3.089636 1_555
Pd1 Pd2 3.177041 1_665
Pd1 Pd2 3.177041 1_565
Pd1 Pr0 3.333258 1_556
Pd1 Pr1 3.620289 1_655
Pd2 Si2 2.522944 1_555
Pd2 Si1 2.533205 1_445
Pd2 Si3 2.671713 1_556
Pd2 Pd4 2.728076 1_555
Pd2 Pd6 2.925631 1_446
Pd2 Pr0 3.002267 1_546
Pd2 Pr1 3.084357 1_545
Pd2 Pr2 3.089636 1_455
Pd2 Pr3 3.333258 1_455
Pd2 Pr2 3.620289 1_555
Pd3 Si3 2.522944 1_555
Pd3 Si0 2.533205 1_555
Pd3 Si2 2.671713 1_555
Pd3 Pd5 2.728076 1_555
Pd3 Pd7 2.925631 1_555
Pd3 Pr1 3.002267 1_555
Pd3 Pr0 3.084357 1_555
Pd3 Pr3 3.089636 1_555
Pd3 Pr2 3.333258 1_554
Pd3 Pr3 3.620289 1_455
Pd4 Si2 2.522944 1_555
Pd4 Si1 2.533205 1_455
Pd4 Si3 2.671713 1_556
Pd4 Pr0 3.002267 1_556
Pd4 Pr1 3.084357 1_555
Pd4 Pr2 3.089636 1_455
Pd4 Pd7 3.177041 1_455
Pd4 Pd7 3.177041 1_555
Pd4 Pr3 3.333258 1_455
Pd4 Pr2 3.620289 1_555
Pd5 Si3 2.522944 1_555
Pd5 Si0 2.533205 1_545
Pd5 Si2 2.671713 1_555
Pd5 Pr1 3.002267 1_545
Pd5 Pr0 3.084357 1_545
Pd5 Pr3 3.089636 1_555
Pd5 Pd6 3.177041 1_445
Pd5 Pd6 3.177041 1_545
Pd5 Pr2 3.333258 1_554
Pd5 Pr3 3.620289 1_455
Pd6 Si0 2.522944 1_555
Pd6 Si3 2.533205 1_665
Pd6 Si1 2.671713 1_554
Pd6 Pr2 3.002267 1_564
Pd6 Pr3 3.084357 1_565
Pd6 Pr0 3.089636 1_655
Pd6 Pr1 3.333258 1_655
Pd6 Pr0 3.620289 1_555
Pd7 Si1 2.522944 1_555
Pd7 Si2 2.533205 1_555
Pd7 Si0 2.671713 1_555
Pd7 Pr3 3.002267 1_555
Pd7 Pr2 3.084357 1_555
Pd7 Pr1 3.089636 1_555
Pd7 Pr0 3.333258 1_556
Pd7 Pr1 3.620289 1_655
