# generated using pymatgen
data_Ce2MgS4
_symmetry_space_group_name_H-M   'P 1'
_cell_length_a   16.23279411
_cell_length_b   16.23330448
_cell_length_c   16.23330448
_cell_angle_alpha   59.99791998
_cell_angle_beta   60.00104001
_cell_angle_gamma   60.00104001
_symmetry_Int_Tables_number   1
_chemical_formula_structural   Ce2MgS4
_chemical_formula_sum   'Ce32 Mg16 S64'
_cell_volume   3024.76856101
_cell_formula_units_Z   16
loop_
 _symmetry_equiv_pos_site_id
 _symmetry_equiv_pos_as_xyz
  1  'x, y, z'
loop_
 _atom_site_type_symbol
 _atom_site_label
 _atom_site_symmetry_multiplicity
 _atom_site_fract_x
 _atom_site_fract_y
 _atom_site_fract_z
 _atom_site_occupancy
  Ce  Ce0  1  0.31250000  0.06250000  0.31250000  1
  Ce  Ce1  1  0.31250000  0.06250000  0.81250000  1
  Ce  Ce2  1  0.31250000  0.56250000  0.31250000  1
  Ce  Ce3  1  0.31250000  0.56250000  0.81250000  1
  Ce  Ce4  1  0.81250000  0.06250000  0.31250000  1
  Ce  Ce5  1  0.81250000  0.06250000  0.81250000  1
  Ce  Ce6  1  0.81250000  0.56250000  0.31250000  1
  Ce  Ce7  1  0.81250000  0.56250000  0.81250000  1
  Ce  Ce8  1  0.31250000  0.31250000  0.06250000  1
  Ce  Ce9  1  0.31250000  0.31250000  0.56250000  1
  Ce  Ce10  1  0.31250000  0.81250000  0.06250000  1
  Ce  Ce11  1  0.31250000  0.81250000  0.56250000  1
  Ce  Ce12  1  0.81250000  0.31250000  0.06250000  1
  Ce  Ce13  1  0.81250000  0.31250000  0.56250000  1
  Ce  Ce14  1  0.81250000  0.81250000  0.06250000  1
  Ce  Ce15  1  0.81250000  0.81250000  0.56250000  1
  Ce  Ce16  1  0.06250000  0.31250000  0.31250000  1
  Ce  Ce17  1  0.06250000  0.31250000  0.81250000  1
  Ce  Ce18  1  0.06250000  0.81250000  0.31250000  1
  Ce  Ce19  1  0.06250000  0.81250000  0.81250000  1
  Ce  Ce20  1  0.56250000  0.31250000  0.31250000  1
  Ce  Ce21  1  0.56250000  0.31250000  0.81250000  1
  Ce  Ce22  1  0.56250000  0.81250000  0.31250000  1
  Ce  Ce23  1  0.56250000  0.81250000  0.81250000  1
  Ce  Ce24  1  0.31250000  0.31250000  0.31250000  1
  Ce  Ce25  1  0.31250000  0.31250000  0.81250000  1
  Ce  Ce26  1  0.31250000  0.81250000  0.31250000  1
  Ce  Ce27  1  0.31250000  0.81250000  0.81250000  1
  Ce  Ce28  1  0.81250000  0.31250000  0.31250000  1
  Ce  Ce29  1  0.81250000  0.31250000  0.81250000  1
  Ce  Ce30  1  0.81250000  0.81250000  0.31250000  1
  Ce  Ce31  1  0.81250000  0.81250000  0.81250000  1
  Mg  Mg0  1  0.00000000  -0.00000000  -0.00000000  1
  Mg  Mg1  1  0.00000000  -0.00000000  0.50000000  1
  Mg  Mg2  1  0.00000000  0.50000000  -0.00000000  1
  Mg  Mg3  1  0.00000000  0.50000000  0.50000000  1
  Mg  Mg4  1  0.50000000  -0.00000000  -0.00000000  1
  Mg  Mg5  1  0.50000000  -0.00000000  0.50000000  1
  Mg  Mg6  1  0.50000000  0.50000000  -0.00000000  1
  Mg  Mg7  1  0.50000000  0.50000000  0.50000000  1
  Mg  Mg8  1  0.12500000  0.12500000  0.12500000  1
  Mg  Mg9  1  0.12500000  0.12500000  0.62500000  1
  Mg  Mg10  1  0.12500000  0.62500000  0.12500000  1
  Mg  Mg11  1  0.12500000  0.62500000  0.62500000  1
  Mg  Mg12  1  0.62500000  0.12500000  0.12500000  1
  Mg  Mg13  1  0.62500000  0.12500000  0.62500000  1
  Mg  Mg14  1  0.62500000  0.62500000  0.12500000  1
  Mg  Mg15  1  0.62500000  0.62500000  0.62500000  1
  S  S0  1  0.18838772  0.18840863  0.18840863  1
  S  S1  1  0.18838772  0.18840863  0.68840863  1
  S  S2  1  0.18838772  0.68840863  0.18840863  1
  S  S3  1  0.18838772  0.68840863  0.68840863  1
  S  S4  1  0.68838772  0.18840863  0.18840863  1
  S  S5  1  0.68838772  0.18840863  0.68840863  1
  S  S6  1  0.68838772  0.68840863  0.18840863  1
  S  S7  1  0.68838772  0.68840863  0.68840863  1
  S  S8  1  0.43479602  0.18840863  0.18840863  1
  S  S9  1  0.43479602  0.18840863  0.68840863  1
  S  S10  1  0.43479602  0.68840863  0.18840863  1
  S  S11  1  0.43479602  0.68840863  0.68840863  1
  S  S12  1  0.93479602  0.18840863  0.18840863  1
  S  S13  1  0.93479602  0.18840863  0.68840863  1
  S  S14  1  0.93479602  0.68840863  0.18840863  1
  S  S15  1  0.93479602  0.68840863  0.68840863  1
  S  S16  1  0.18840863  0.43479602  0.18838772  1
  S  S17  1  0.18840863  0.43479602  0.68838772  1
  S  S18  1  0.18840863  0.93479602  0.18838772  1
  S  S19  1  0.18840863  0.93479602  0.68838772  1
  S  S20  1  0.68840863  0.43479602  0.18838772  1
  S  S21  1  0.68840863  0.43479602  0.68838772  1
  S  S22  1  0.68840863  0.93479602  0.18838772  1
  S  S23  1  0.68840863  0.93479602  0.68838772  1
  S  S24  1  0.18840863  0.18838772  0.43479602  1
  S  S25  1  0.18840863  0.18838772  0.93479602  1
  S  S26  1  0.18840863  0.68838772  0.43479602  1
  S  S27  1  0.18840863  0.68838772  0.93479602  1
  S  S28  1  0.68840863  0.18838772  0.43479602  1
  S  S29  1  0.68840863  0.18838772  0.93479602  1
  S  S30  1  0.68840863  0.68838772  0.43479602  1
  S  S31  1  0.68840863  0.68838772  0.93479602  1
  S  S32  1  0.43659137  0.43661228  0.19020398  1
  S  S33  1  0.43659137  0.43661228  0.69020398  1
  S  S34  1  0.43659137  0.93661228  0.19020398  1
  S  S35  1  0.43659137  0.93661228  0.69020398  1
  S  S36  1  0.93659137  0.43661228  0.19020398  1
  S  S37  1  0.93659137  0.43661228  0.69020398  1
  S  S38  1  0.93659137  0.93661228  0.19020398  1
  S  S39  1  0.93659137  0.93661228  0.69020398  1
  S  S40  1  0.43659137  0.19020398  0.43661228  1
  S  S41  1  0.43659137  0.19020398  0.93661228  1
  S  S42  1  0.43659137  0.69020398  0.43661228  1
  S  S43  1  0.43659137  0.69020398  0.93661228  1
  S  S44  1  0.93659137  0.19020398  0.43661228  1
  S  S45  1  0.93659137  0.19020398  0.93661228  1
  S  S46  1  0.93659137  0.69020398  0.43661228  1
  S  S47  1  0.93659137  0.69020398  0.93661228  1
  S  S48  1  0.19020398  0.43659137  0.43659137  1
  S  S49  1  0.19020398  0.43659137  0.93659137  1
  S  S50  1  0.19020398  0.93659137  0.43659137  1
  S  S51  1  0.19020398  0.93659137  0.93659137  1
  S  S52  1  0.69020398  0.43659137  0.43659137  1
  S  S53  1  0.69020398  0.43659137  0.93659137  1
  S  S54  1  0.69020398  0.93659137  0.43659137  1
  S  S55  1  0.69020398  0.93659137  0.93659137  1
  S  S56  1  0.43661228  0.43659137  0.43659137  1
  S  S57  1  0.43661228  0.43659137  0.93659137  1
  S  S58  1  0.43661228  0.93659137  0.43659137  1
  S  S59  1  0.43661228  0.93659137  0.93659137  1
  S  S60  1  0.93661228  0.43659137  0.43659137  1
  S  S61  1  0.93661228  0.43659137  0.93659137  1
  S  S62  1  0.93661228  0.93659137  0.43659137  1
  S  S63  1  0.93661228  0.93659137  0.93659137  1
loop_
_geom_bond_atom_site_label_1
_geom_bond_atom_site_label_2
_geom_bond_distance
_geom_bond_site_symmetry_2
Ce0 S24 2.849060 1_555
Ce0 S34 2.849060 1_545
Ce0 S58 2.849112 1_545
Ce0 S0 2.849112 1_555
Ce0 S50 2.849123 1_545
Ce0 S8 2.849123 1_555
Ce1 S25 2.849060 1_555
Ce1 S35 2.849060 1_545
Ce1 S1 2.849112 1_555
Ce1 S59 2.849112 1_545
Ce1 S51 2.849123 1_545
Ce1 S9 2.849123 1_555
Ce2 S26 2.849060 1_555
Ce2 S32 2.849060 1_555
Ce2 S2 2.849112 1_555
Ce2 S56 2.849112 1_555
Ce2 S10 2.849123 1_555
Ce2 S48 2.849123 1_555
Ce3 S33 2.849060 1_555
Ce3 S27 2.849060 1_555
Ce3 S3 2.849112 1_555
Ce3 S57 2.849112 1_555
Ce3 S11 2.849123 1_555
Ce3 S49 2.849123 1_555
Ce4 S38 2.849060 1_545
Ce4 S28 2.849060 1_555
Ce4 S62 2.849112 1_545
Ce4 S4 2.849112 1_555
Ce4 S54 2.849123 1_545
Ce4 S12 2.849123 1_555
Ce5 S29 2.849060 1_555
Ce5 S39 2.849060 1_545
Ce5 S63 2.849112 1_545
Ce5 S5 2.849112 1_555
Ce5 S55 2.849123 1_545
Ce5 S13 2.849123 1_555
Ce6 S36 2.849060 1_555
Ce6 S30 2.849060 1_555
Ce6 S60 2.849112 1_555
Ce6 S6 2.849112 1_555
Ce6 S14 2.849123 1_555
Ce6 S52 2.849123 1_555
Ce7 S37 2.849060 1_555
Ce7 S31 2.849060 1_555
Ce7 S7 2.849112 1_555
Ce7 S61 2.849112 1_555
Ce7 S15 2.849123 1_555
Ce7 S53 2.849123 1_555
Ce8 S41 2.849060 1_554
Ce8 S16 2.849060 1_555
Ce8 S57 2.849112 1_554
Ce8 S0 2.849112 1_555
Ce8 S49 2.849123 1_554
Ce8 S8 2.849123 1_555
Ce9 S17 2.849060 1_555
Ce9 S40 2.849060 1_555
Ce9 S1 2.849112 1_555
Ce9 S56 2.849112 1_555
Ce9 S9 2.849123 1_555
Ce9 S48 2.849123 1_555
Ce10 S18 2.849060 1_555
Ce10 S43 2.849060 1_554
Ce10 S2 2.849112 1_555
Ce10 S59 2.849112 1_554
Ce10 S51 2.849123 1_554
Ce10 S10 2.849123 1_555
Ce11 S42 2.849060 1_555
Ce11 S19 2.849060 1_555
Ce11 S3 2.849112 1_555
Ce11 S58 2.849112 1_555
Ce11 S11 2.849123 1_555
Ce11 S50 2.849123 1_555
Ce12 S20 2.849060 1_555
Ce12 S45 2.849060 1_554
Ce12 S61 2.849112 1_554
Ce12 S4 2.849112 1_555
Ce12 S53 2.849123 1_554
Ce12 S12 2.849123 1_555
Ce13 S21 2.849060 1_555
Ce13 S44 2.849060 1_555
Ce13 S60 2.849112 1_555
Ce13 S5 2.849112 1_555
Ce13 S13 2.849123 1_555
Ce13 S52 2.849123 1_555
Ce14 S22 2.849060 1_555
Ce14 S47 2.849060 1_554
Ce14 S63 2.849112 1_554
Ce14 S6 2.849112 1_555
Ce14 S55 2.849123 1_554
Ce14 S14 2.849123 1_555
Ce15 S46 2.849060 1_555
Ce15 S23 2.849060 1_555
Ce15 S7 2.849112 1_555
Ce15 S62 2.849112 1_555
Ce15 S15 2.849123 1_555
Ce15 S54 2.849123 1_555
Ce16 S60 2.849049 1_455
Ce16 S0 2.849049 1_555
Ce16 S44 2.849123 1_455
Ce16 S24 2.849123 1_555
Ce16 S16 2.849123 1_555
Ce16 S36 2.849123 1_455
Ce17 S61 2.849049 1_455
Ce17 S1 2.849049 1_555
Ce17 S37 2.849123 1_455
Ce17 S25 2.849123 1_555
Ce17 S17 2.849123 1_555
Ce17 S45 2.849123 1_455
Ce18 S2 2.849049 1_555
Ce18 S62 2.849049 1_455
Ce18 S46 2.849123 1_455
Ce18 S18 2.849123 1_555
Ce18 S26 2.849123 1_555
Ce18 S38 2.849123 1_455
Ce19 S63 2.849049 1_455
Ce19 S3 2.849049 1_555
Ce19 S39 2.849123 1_455
Ce19 S27 2.849123 1_555
Ce19 S47 2.849123 1_455
Ce19 S19 2.849123 1_555
Ce20 S56 2.849049 1_555
Ce20 S4 2.849049 1_555
Ce20 S32 2.849123 1_555
Ce20 S20 2.849123 1_555
Ce20 S28 2.849123 1_555
Ce20 S40 2.849123 1_555
Ce21 S57 2.849049 1_555
Ce21 S5 2.849049 1_555
Ce21 S29 2.849123 1_555
Ce21 S33 2.849123 1_555
Ce21 S21 2.849123 1_555
Ce21 S41 2.849123 1_555
Ce22 S6 2.849049 1_555
Ce22 S58 2.849049 1_555
Ce22 S22 2.849123 1_555
Ce22 S30 2.849123 1_555
Ce22 S34 2.849123 1_555
Ce22 S42 2.849123 1_555
Ce23 S7 2.849049 1_555
Ce23 S59 2.849049 1_555
Ce23 S23 2.849123 1_555
Ce23 S31 2.849123 1_555
Ce23 S43 2.849123 1_555
Ce23 S35 2.849123 1_555
Ce24 S48 2.849049 1_555
Ce24 S8 2.849049 1_555
Ce24 S24 2.849111 1_555
Ce24 S40 2.849111 1_555
Ce24 S16 2.849111 1_555
Ce24 S32 2.849111 1_555
Ce25 S49 2.849049 1_555
Ce25 S9 2.849049 1_555
Ce25 S41 2.849111 1_555
Ce25 S17 2.849111 1_555
Ce25 S33 2.849111 1_555
Ce25 S25 2.849111 1_555
Ce26 S50 2.849049 1_555
Ce26 S10 2.849049 1_555
Ce26 S34 2.849111 1_555
Ce26 S26 2.849111 1_555
Ce26 S18 2.849111 1_555
Ce26 S42 2.849111 1_555
Ce27 S51 2.849049 1_555
Ce27 S11 2.849049 1_555
Ce27 S19 2.849111 1_555
Ce27 S35 2.849111 1_555
Ce27 S27 2.849111 1_555
Ce27 S43 2.849111 1_555
Ce28 S52 2.849049 1_555
Ce28 S12 2.849049 1_555
Ce28 S28 2.849111 1_555
Ce28 S44 2.849111 1_555
Ce28 S20 2.849111 1_555
Ce28 S36 2.849111 1_555
Ce29 S53 2.849049 1_555
Ce29 S13 2.849049 1_555
Ce29 S21 2.849111 1_555
Ce29 S45 2.849111 1_555
Ce29 S37 2.849111 1_555
Ce29 S29 2.849111 1_555
Ce30 S54 2.849049 1_555
Ce30 S14 2.849049 1_555
Ce30 S30 2.849111 1_555
Ce30 S38 2.849111 1_555
Ce30 S22 2.849111 1_555
Ce30 S46 2.849111 1_555
Ce31 S55 2.849049 1_555
Ce31 S15 2.849049 1_555
Ce31 S39 2.849111 1_555
Ce31 S47 2.849111 1_555
Ce31 S31 2.849111 1_555
Ce31 S23 2.849111 1_555
Mg0 S45 2.521020 1_454
Mg0 S38 2.521020 1_445
Mg0 S51 2.521020 1_544
Mg0 S63 2.521034 1_444
Mg1 S44 2.521020 1_455
Mg1 S39 2.521020 1_445
Mg1 S50 2.521020 1_545
Mg1 S62 2.521034 1_445
Mg2 S36 2.521020 1_455
Mg2 S47 2.521020 1_454
Mg2 S49 2.521020 1_554
Mg2 S61 2.521034 1_454
Mg3 S37 2.521020 1_455
Mg3 S46 2.521020 1_455
Mg3 S48 2.521020 1_555
Mg3 S60 2.521034 1_455
Mg4 S34 2.521020 1_545
Mg4 S41 2.521020 1_554
Mg4 S55 2.521020 1_544
Mg4 S59 2.521034 1_544
Mg5 S40 2.521020 1_555
Mg5 S35 2.521020 1_545
Mg5 S54 2.521020 1_545
Mg5 S58 2.521034 1_545
Mg6 S32 2.521020 1_555
Mg6 S43 2.521020 1_554
Mg6 S53 2.521020 1_554
Mg6 S57 2.521034 1_554
Mg7 S33 2.521020 1_555
Mg7 S42 2.521020 1_555
Mg7 S52 2.521020 1_555
Mg7 S56 2.521034 1_555
Mg8 S18 2.521020 1_545
Mg8 S25 2.521020 1_554
Mg8 S12 2.521020 1_455
Mg8 S0 2.521034 1_555
Mg9 S24 2.521020 1_555
Mg9 S19 2.521020 1_545
Mg9 S13 2.521020 1_455
Mg9 S1 2.521034 1_555
Mg10 S16 2.521020 1_555
Mg10 S27 2.521020 1_554
Mg10 S14 2.521020 1_455
Mg10 S2 2.521034 1_555
Mg11 S17 2.521020 1_555
Mg11 S26 2.521020 1_555
Mg11 S15 2.521020 1_455
Mg11 S3 2.521034 1_555
Mg12 S29 2.521020 1_554
Mg12 S22 2.521020 1_545
Mg12 S8 2.521020 1_555
Mg12 S4 2.521034 1_555
Mg13 S28 2.521020 1_555
Mg13 S23 2.521020 1_545
Mg13 S9 2.521020 1_555
Mg13 S5 2.521034 1_555
Mg14 S20 2.521020 1_555
Mg14 S31 2.521020 1_554
Mg14 S10 2.521020 1_555
Mg14 S6 2.521034 1_555
Mg15 S21 2.521020 1_555
Mg15 S30 2.521020 1_555
Mg15 S11 2.521020 1_555
Mg15 S7 2.521034 1_555
