# generated using pymatgen
data_YbZnPb
_symmetry_space_group_name_H-M   'P 1'
_cell_length_a   4.79814262
_cell_length_b   4.79814262
_cell_length_c   6.80112670
_cell_angle_alpha   90.00000000
_cell_angle_beta   90.00000000
_cell_angle_gamma   119.99999595
_symmetry_Int_Tables_number   1
_chemical_formula_structural   YbZnPb
_chemical_formula_sum   'Yb2 Zn2 Pb2'
_cell_volume   135.59941670
_cell_formula_units_Z   2
loop_
 _symmetry_equiv_pos_site_id
 _symmetry_equiv_pos_as_xyz
  1  'x, y, z'
loop_
 _atom_site_type_symbol
 _atom_site_label
 _atom_site_symmetry_multiplicity
 _atom_site_fract_x
 _atom_site_fract_y
 _atom_site_fract_z
 _atom_site_occupancy
  Yb  Yb0  1  0.00000000  0.00000000  0.25368629  1
  Yb  Yb1  1  0.00000000  0.00000000  0.75368629  1
  Zn  Zn0  1  0.33333300  0.66666700  0.47646337  1
  Zn  Zn1  1  0.66666700  0.33333300  0.97646337  1
  Pb  Pb0  1  0.33333300  0.66666700  0.01085033  1
  Pb  Pb1  1  0.66666700  0.33333300  0.51085033  1
loop_
_geom_bond_atom_site_label_1
_geom_bond_atom_site_label_2
_geom_bond_distance
_geom_bond_site_symmetry_2
Yb0 Zn0 3.157479 1_545
Yb0 Zn0 3.157483 1_555
Yb0 Zn0 3.157483 1_445
Yb0 Zn1 3.350952 1_454
Yb0 Zn1 3.350956 1_554
Yb0 Zn1 3.350956 1_444
Yb0 Yb1 3.400563 1_554
Yb0 Yb1 3.400563 1_555
Yb1 Zn1 3.157479 1_455
Yb1 Zn1 3.157483 1_555
Yb1 Zn1 3.157483 1_445
Yb1 Zn0 3.350952 1_545
Yb1 Zn0 3.350956 1_555
Yb1 Zn0 3.350956 1_445
Pb0 Zn1 2.780061 1_454
Pb0 Zn1 2.780061 1_564
Pb0 Zn1 2.780069 1_554
Pb0 Zn0 3.166693 1_555
Pb0 Yb0 3.225165 1_565
Pb0 Yb0 3.225168 1_555
Pb0 Yb0 3.225168 1_665
Pb0 Yb1 3.276135 1_564
Pb0 Yb1 3.276139 1_554
Pb0 Yb1 3.276139 1_664
Pb1 Zn0 2.780061 1_655
Pb1 Zn0 2.780061 1_545
Pb1 Zn0 2.780069 1_555
Pb1 Zn1 3.166693 1_555
Pb1 Yb1 3.225165 1_655
Pb1 Yb1 3.225168 1_555
Pb1 Yb1 3.225168 1_665
Pb1 Yb0 3.276135 1_655
Pb1 Yb0 3.276139 1_555
Pb1 Yb0 3.276139 1_665
