# generated using pymatgen
data_Li4MnCo2O7
_symmetry_space_group_name_H-M   'P 1'
_cell_length_a   2.93648700
_cell_length_b   6.51601776
_cell_length_c   13.61131404
_cell_angle_alpha   83.81612598
_cell_angle_beta   84.76673621
_cell_angle_gamma   77.09857220
_symmetry_Int_Tables_number   1
_chemical_formula_structural   Li4MnCo2O7
_chemical_formula_sum   'Li8 Mn2 Co4 O14'
_cell_volume   251.78295086
_cell_formula_units_Z   2
loop_
 _symmetry_equiv_pos_site_id
 _symmetry_equiv_pos_as_xyz
  1  'x, y, z'
loop_
 _atom_site_type_symbol
 _atom_site_label
 _atom_site_symmetry_multiplicity
 _atom_site_fract_x
 _atom_site_fract_y
 _atom_site_fract_z
 _atom_site_occupancy
  Li  Li0  1  0.71112400  0.66016400  0.42738900  1
  Li  Li1  1  0.58018000  0.21214900  0.14177200  1
  Li  Li2  1  0.41982000  0.78785100  0.85822800  1
  Li  Li3  1  0.13387200  0.92976200  0.29179800  1
  Li  Li4  1  0.00000000  0.50000000  0.00000000  1
  Li  Li5  1  0.86612800  0.07023800  0.70820200  1
  Li  Li6  1  0.28887600  0.33983600  0.57261100  1
  Li  Li7  1  0.00000000  0.00000000  0.50000000  1
  Mn  Mn0  1  0.57130700  0.72557400  0.63899300  1
  Mn  Mn1  1  0.42869300  0.27442600  0.36100700  1
  Co  Co0  1  0.28577400  0.86205400  0.07194200  1
  Co  Co1  1  0.14400500  0.42113000  0.78454400  1
  Co  Co2  1  0.85599500  0.57887000  0.21545600  1
  Co  Co3  1  0.71422600  0.13794600  0.92805800  1
  O  O0  1  0.13485900  0.67957200  0.54901100  1
  O  O1  1  0.97924200  0.26224300  0.26142600  1
  O  O2  1  0.84730800  0.83424100  0.96568300  1
  O  O3  1  0.56179700  0.98664300  0.38864400  1
  O  O4  1  0.43585700  0.55092500  0.11152000  1
  O  O5  1  0.26936200  0.11429700  0.82699900  1
  O  O6  1  0.71787900  0.40877600  0.68367800  1
  O  O7  1  0.28212100  0.59122400  0.31632200  1
  O  O8  1  0.15269200  0.16575900  0.03431700  1
  O  O9  1  0.02075800  0.73775700  0.73857400  1
  O  O10  1  0.73063800  0.88570300  0.17300100  1
  O  O11  1  0.56414300  0.44907500  0.88848000  1
  O  O12  1  0.43820300  0.01335700  0.61135600  1
  O  O13  1  0.86514100  0.32042800  0.45098900  1
loop_
_geom_bond_atom_site_label_1
_geom_bond_atom_site_label_2
_geom_bond_distance
_geom_bond_site_symmetry_2
Li0 O3 2.092825 1_555
Li0 O13 2.152797 1_555
Li0 O7 2.155504 1_655
Li0 O0 2.189943 1_655
Li0 O7 2.195600 1_555
Li0 O0 2.249111 1_555
Li1 O10 2.078547 1_545
Li1 O8 2.099051 1_555
Li1 O8 2.115820 1_655
Li1 O4 2.154144 1_555
Li1 O1 2.183058 1_555
Li1 O1 2.281679 1_455
Li2 O5 2.078547 1_565
Li2 O2 2.099051 1_555
Li2 O2 2.115820 1_455
Li2 O11 2.154144 1_555
Li2 O9 2.183058 1_555
Li2 O9 2.281679 1_655
Li3 O3 2.017292 1_555
Li3 O3 2.029858 1_455
Li3 O1 2.114854 1_465
Li3 O7 2.146175 1_555
Li3 O10 2.167997 1_455
Li3 O10 2.264154 1_555
Li4 O2 2.132025 1_454
Li4 O8 2.132025 1_555
Li4 O11 2.136089 1_554
Li4 O4 2.136089 1_455
Li4 O11 2.169082 1_454
Li4 O4 2.169082 1_555
Li5 O12 2.017292 1_555
Li5 O12 2.029858 1_655
Li5 O9 2.114854 1_645
Li5 O6 2.146175 1_555
Li5 O5 2.167997 1_655
Li5 O5 2.264154 1_555
Li6 O12 2.092825 1_555
Li6 O0 2.152797 1_555
Li6 O6 2.155504 1_455
Li6 O13 2.189943 1_455
Li6 O6 2.195600 1_555
Li6 O13 2.249111 1_555
Li7 O13 2.083299 1_455
Li7 O0 2.083299 1_545
Li7 O12 2.096412 1_555
Li7 O3 2.096412 1_445
Li7 O12 2.129468 1_455
Li7 O3 2.129468 1_545
Mn0 O12 1.832541 1_565
Mn0 O0 1.941512 1_555
Mn0 O0 1.953545 1_655
Mn0 O9 1.995415 1_655
Mn0 O9 2.005810 1_555
Mn0 O6 2.048628 1_555
Mn1 O3 1.832541 1_545
Mn1 O13 1.941512 1_555
Mn1 O13 1.953545 1_455
Mn1 O1 1.995415 1_455
Mn1 O1 2.005810 1_555
Mn1 O7 2.048628 1_555
Co0 O8 1.950397 1_565
Co0 O4 2.000878 1_555
Co0 O10 2.021323 1_555
Co0 O10 2.024278 1_455
Co0 O2 2.069507 1_454
Co0 O2 2.081264 1_554
Co1 O6 1.959427 1_455
Co1 O5 1.981919 1_555
Co1 O11 2.007696 1_555
Co1 O9 2.051545 1_555
Co1 O6 2.066973 1_555
Co1 O11 2.100366 1_455
Co2 O7 1.959427 1_655
Co2 O10 1.981919 1_555
Co2 O4 2.007696 1_555
Co2 O1 2.051545 1_555
Co2 O7 2.066973 1_555
Co2 O4 2.100366 1_655
Co3 O2 1.950397 1_545
Co3 O11 2.000878 1_555
Co3 O5 2.021323 1_555
Co3 O5 2.024278 1_655
Co3 O8 2.069507 1_656
Co3 O8 2.081264 1_556
