# generated using pymatgen
data_CaP4WO12
_symmetry_space_group_name_H-M   'P 1'
_cell_length_a   7.76545261
_cell_length_b   7.76545261
_cell_length_c   10.97696808
_cell_angle_alpha   64.54080240
_cell_angle_beta   64.54080240
_cell_angle_gamma   70.82593531
_symmetry_Int_Tables_number   1
_chemical_formula_structural   CaP4WO12
_chemical_formula_sum   'Ca2 P8 W2 O24'
_cell_volume   531.17489813
_cell_formula_units_Z   2
loop_
 _symmetry_equiv_pos_site_id
 _symmetry_equiv_pos_as_xyz
  1  'x, y, z'
loop_
 _atom_site_type_symbol
 _atom_site_label
 _atom_site_symmetry_multiplicity
 _atom_site_fract_x
 _atom_site_fract_y
 _atom_site_fract_z
 _atom_site_occupancy
  Ca  Ca0  1  0.97184900  0.02815100  0.25000000  1
  Ca  Ca1  1  0.02815100  0.97184900  0.75000000  1
  P  P0  1  0.70830000  0.67072200  0.29824000  1
  P  P1  1  0.32927800  0.29170000  0.20176000  1
  P  P2  1  0.29170000  0.32927800  0.70176000  1
  P  P3  1  0.67072200  0.70830000  0.79824000  1
  P  P4  1  0.72866700  0.27880000  0.52502700  1
  P  P5  1  0.72120000  0.27133300  0.97497300  1
  P  P6  1  0.27133300  0.72120000  0.47497300  1
  P  P7  1  0.27880000  0.72866700  0.02502700  1
  W  W0  1  0.00000000  0.50000000  0.00000000  1
  W  W1  1  0.50000000  0.00000000  0.50000000  1
  O  O0  1  0.47715800  0.68479300  0.34767200  1
  O  O1  1  0.31520700  0.52284200  0.15232800  1
  O  O2  1  0.52284200  0.31520700  0.65232800  1
  O  O3  1  0.68479300  0.47715800  0.84767200  1
  O  O4  1  0.76608600  0.49666700  0.43066500  1
  O  O5  1  0.50333300  0.23391400  0.06933500  1
  O  O6  1  0.23391400  0.50333300  0.56933500  1
  O  O7  1  0.49666700  0.76608600  0.93066500  1
  O  O8  1  0.79726000  0.61724300  0.16600800  1
  O  O9  1  0.38275700  0.20274000  0.33399200  1
  O  O10  1  0.20274000  0.38275700  0.83399200  1
  O  O11  1  0.61724300  0.79726000  0.66600800  1
  O  O12  1  0.75168600  0.84960100  0.29199300  1
  O  O13  1  0.15039900  0.24831400  0.20800700  1
  O  O14  1  0.24831400  0.15039900  0.70800700  1
  O  O15  1  0.84960100  0.75168600  0.79199300  1
  O  O16  1  0.70151900  0.19287600  0.43352400  1
  O  O17  1  0.80712400  0.29848100  0.06647600  1
  O  O18  1  0.29848100  0.80712400  0.56647600  1
  O  O19  1  0.19287600  0.70151900  0.93352400  1
  O  O20  1  0.88519100  0.17707800  0.58765400  1
  O  O21  1  0.82292200  0.11480900  0.91234600  1
  O  O22  1  0.11480900  0.82292200  0.41234600  1
  O  O23  1  0.17707800  0.88519100  0.08765400  1
loop_
_geom_bond_atom_site_label_1
_geom_bond_atom_site_label_2
_geom_bond_distance
_geom_bond_site_symmetry_2
Ca0 O23 2.246116 1_645
Ca0 O22 2.246116 1_645
Ca0 O13 2.321202 1_655
Ca0 O12 2.321202 1_545
Ca0 O16 2.630052 1_555
Ca0 O17 2.630052 1_555
Ca1 O20 2.246116 1_465
Ca1 O21 2.246116 1_465
Ca1 O14 2.321202 1_565
Ca1 O15 2.321202 1_455
Ca1 O19 2.630052 1_555
Ca1 O18 2.630052 1_555
O0 P0 1.616452 1_555
O0 P6 1.646168 1_555
O1 P1 1.616452 1_555
O1 P7 1.646168 1_555
O2 P2 1.616452 1_555
O2 P4 1.646168 1_555
O3 P3 1.616452 1_555
O3 P5 1.646168 1_555
O4 P4 1.605362 1_555
O4 P0 1.616937 1_555
O5 P5 1.605362 1_554
O5 P1 1.616937 1_555
O6 P6 1.605362 1_555
O6 P2 1.616937 1_555
O7 P7 1.605362 1_556
O7 P3 1.616937 1_555
O8 P0 1.491401 1_555
O8 W0 2.155573 1_655
O9 P1 1.491401 1_555
O9 W1 2.155573 1_555
O10 P2 1.491401 1_555
O10 W0 2.155573 1_556
O11 P3 1.491401 1_555
O11 W1 2.155573 1_565
O12 P0 1.501135 1_555
O12 W1 2.711809 1_565
O13 P1 1.501135 1_555
O13 W0 2.711809 1_555
O14 P2 1.501135 1_555
O14 W1 2.711809 1_555
O15 P3 1.501135 1_555
O15 W0 2.711809 1_656
O16 P4 1.532696 1_555
O16 W1 2.200659 1_555
O17 P5 1.532696 1_554
O17 W0 2.200659 1_655
O18 P6 1.532696 1_555
O18 W1 2.200659 1_565
O19 P7 1.532696 1_556
O19 W0 2.200659 1_556
O20 P4 1.481481 1_555
O21 P5 1.481481 1_555
O22 P6 1.481481 1_555
O23 P7 1.481481 1_555
