# generated using pymatgen
data_Tb2Ge(BO4)2
_symmetry_space_group_name_H-M   'P 1'
_cell_length_a   4.38807688
_cell_length_b   9.24186052
_cell_length_c   13.43383859
_cell_angle_alpha   90.00000000
_cell_angle_beta   90.00000000
_cell_angle_gamma   90.00000000
_symmetry_Int_Tables_number   1
_chemical_formula_structural   Tb2Ge(BO4)2
_chemical_formula_sum   'Tb8 Ge4 B8 O32'
_cell_volume   544.79581597
_cell_formula_units_Z   4
loop_
 _symmetry_equiv_pos_site_id
 _symmetry_equiv_pos_as_xyz
  1  'x, y, z'
loop_
 _atom_site_type_symbol
 _atom_site_label
 _atom_site_symmetry_multiplicity
 _atom_site_fract_x
 _atom_site_fract_y
 _atom_site_fract_z
 _atom_site_occupancy
  Tb  Tb0  1  0.45952689  0.52508723  0.63991863  1
  Tb  Tb1  1  0.04047311  0.02508723  0.86008137  1
  Tb  Tb2  1  0.04047311  0.47491277  0.13991863  1
  Tb  Tb3  1  0.45952689  0.97491277  0.36008137  1
  Tb  Tb4  1  0.54047311  0.47491277  0.36008137  1
  Tb  Tb5  1  0.95952689  0.97491277  0.13991863  1
  Tb  Tb6  1  0.95952689  0.52508723  0.86008137  1
  Tb  Tb7  1  0.54047311  0.02508723  0.63991863  1
  Ge  Ge0  1  0.92716527  0.75000000  0.50000000  1
  Ge  Ge1  1  0.57283473  0.25000000  -0.00000000  1
  Ge  Ge2  1  0.07283473  0.25000000  0.50000000  1
  Ge  Ge3  1  0.42716527  0.75000000  -0.00000000  1
  B  B0  1  0.52996217  0.70327570  0.20031344  1
  B  B1  1  0.97003783  0.20327570  0.29968656  1
  B  B2  1  0.97003783  0.29672430  0.70031344  1
  B  B3  1  0.52996217  0.79672430  0.79968656  1
  B  B4  1  0.47003783  0.29672430  0.79968656  1
  B  B5  1  0.02996217  0.79672430  0.70031344  1
  B  B6  1  0.02996217  0.70327570  0.29968656  1
  B  B7  1  0.47003783  0.20327570  0.20031344  1
  O  O0  1  0.53766725  0.54791604  0.19209311  1
  O  O1  1  0.96233275  0.04791604  0.30790689  1
  O  O2  1  0.96233275  0.45208396  0.69209311  1
  O  O3  1  0.53766725  0.95208396  0.80790689  1
  O  O4  1  0.46233275  0.45208396  0.80790689  1
  O  O5  1  0.03766725  0.95208396  0.69209311  1
  O  O6  1  0.03766725  0.54791604  0.30790689  1
  O  O7  1  0.46233275  0.04791604  0.19209311  1
  O  O8  1  0.66230162  0.76810183  0.10716211  1
  O  O9  1  0.83769838  0.26810183  0.39283789  1
  O  O10  1  0.83769838  0.23189817  0.60716211  1
  O  O11  1  0.66230162  0.73189817  0.89283789  1
  O  O12  1  0.33769838  0.23189817  0.89283789  1
  O  O13  1  0.16230162  0.73189817  0.60716211  1
  O  O14  1  0.16230162  0.76810183  0.39283789  1
  O  O15  1  0.33769838  0.26810183  0.10716211  1
  O  O16  1  0.21352985  0.75846956  0.21404620  1
  O  O17  1  0.28647015  0.25846956  0.28595380  1
  O  O18  1  0.28647015  0.24153044  0.71404620  1
  O  O19  1  0.21352985  0.74153044  0.78595380  1
  O  O20  1  0.78647015  0.24153044  0.78595380  1
  O  O21  1  0.71352985  0.74153044  0.71404620  1
  O  O22  1  0.71352985  0.75846956  0.28595380  1
  O  O23  1  0.78647015  0.25846956  0.21404620  1
  O  O24  1  0.70327872  0.59646969  0.49569985  1
  O  O25  1  0.79672128  0.09646969  0.00430015  1
  O  O26  1  0.79672128  0.40353031  0.99569985  1
  O  O27  1  0.70327872  0.90353031  0.50430015  1
  O  O28  1  0.29672128  0.40353031  0.50430015  1
  O  O29  1  0.20327872  0.90353031  0.99569985  1
  O  O30  1  0.20327872  0.59646969  0.00430015  1
  O  O31  1  0.29672128  0.09646969  0.49569985  1
loop_
_geom_bond_atom_site_label_1
_geom_bond_atom_site_label_2
_geom_bond_distance
_geom_bond_site_symmetry_2
Ge0 O24 1.726789 1_555
Ge0 O27 1.726789 1_555
Ge0 O14 1.779055 1_655
Ge0 O13 1.779055 1_655
Ge1 O25 1.726789 1_555
Ge1 O26 1.726789 1_554
Ge1 O12 1.779055 1_554
Ge1 O15 1.779055 1_555
Ge2 O31 1.726789 1_555
Ge2 O28 1.726789 1_555
Ge2 O10 1.779055 1_455
Ge2 O9 1.779055 1_455
Ge3 O30 1.726789 1_555
Ge3 O29 1.726789 1_554
Ge3 O11 1.779055 1_554
Ge3 O8 1.779055 1_555
B0 O0 1.440450 1_555
B0 O16 1.490719 1_555
B0 O22 1.494203 1_555
B0 O8 1.504035 1_555
B1 O1 1.440450 1_555
B1 O17 1.490719 1_655
B1 O23 1.494203 1_555
B1 O9 1.504035 1_555
B2 O2 1.440450 1_555
B2 O18 1.490719 1_655
B2 O20 1.494203 1_555
B2 O10 1.504035 1_555
B3 O3 1.440450 1_555
B3 O19 1.490719 1_555
B3 O21 1.494203 1_555
B3 O11 1.504035 1_555
B4 O4 1.440450 1_555
B4 O20 1.490719 1_555
B4 O18 1.494203 1_555
B4 O12 1.504035 1_555
B5 O5 1.440450 1_555
B5 O21 1.490719 1_455
B5 O19 1.494203 1_555
B5 O13 1.504035 1_555
B6 O6 1.440450 1_555
B6 O22 1.490719 1_455
B6 O16 1.494203 1_555
B6 O14 1.504035 1_555
B7 O7 1.440450 1_555
B7 O23 1.490719 1_555
B7 O17 1.494203 1_555
B7 O15 1.504035 1_555
O0 Tb4 2.355455 1_555
O0 Tb2 2.388806 1_555
O0 Tb2 2.411317 1_655
O1 Tb5 2.355455 1_545
O1 Tb3 2.388806 1_645
O1 Tb3 2.411317 1_545
O2 Tb6 2.355455 1_555
O2 Tb0 2.388806 1_655
O2 Tb0 2.411317 1_555
O3 Tb7 2.355455 1_565
O3 Tb1 2.388806 1_565
O3 Tb1 2.411317 1_665
O4 Tb0 2.355455 1_555
O4 Tb6 2.388806 1_555
O4 Tb6 2.411317 1_455
O5 Tb1 2.355455 1_565
O5 Tb7 2.388806 1_465
O5 Tb7 2.411317 1_565
O6 Tb2 2.355455 1_555
O6 Tb4 2.388806 1_455
O6 Tb4 2.411317 1_555
O7 Tb3 2.355455 1_545
O7 Tb5 2.388806 1_545
O7 Tb5 2.411317 1_445
O8 Tb5 2.355385 1_555
O9 Tb4 2.355385 1_555
O10 Tb7 2.355385 1_555
O11 Tb6 2.355385 1_555
O12 Tb1 2.355385 1_555
O13 Tb0 2.355385 1_555
O14 Tb3 2.355385 1_555
O15 Tb2 2.355385 1_555
O16 Tb5 2.497059 1_455
O17 Tb4 2.497059 1_555
O18 Tb7 2.497059 1_555
O19 Tb6 2.497059 1_455
O20 Tb1 2.497059 1_655
O21 Tb0 2.497059 1_555
O22 Tb3 2.497059 1_555
O23 Tb2 2.497059 1_655
O24 Tb4 2.256471 1_555
O24 Tb0 2.309291 1_555
O25 Tb5 2.256471 1_545
O25 Tb1 2.309291 1_654
O26 Tb6 2.256471 1_555
O26 Tb2 2.309291 1_656
O27 Tb7 2.256471 1_565
O27 Tb3 2.309291 1_555
O28 Tb0 2.256471 1_555
O28 Tb4 2.309291 1_555
O29 Tb1 2.256471 1_565
O29 Tb5 2.309291 1_456
O30 Tb2 2.256471 1_555
O30 Tb6 2.309291 1_454
O31 Tb3 2.256471 1_545
O31 Tb7 2.309291 1_555
