# generated using pymatgen
data_MgCoCu3Se4
_symmetry_space_group_name_H-M   'P 1'
_cell_length_a   5.73104600
_cell_length_b   5.73104600
_cell_length_c   5.73104600
_cell_angle_alpha   90.00000000
_cell_angle_beta   90.00000000
_cell_angle_gamma   90.00000000
_symmetry_Int_Tables_number   1
_chemical_formula_structural   MgCoCu3Se4
_chemical_formula_sum   'Mg1 Co1 Cu3 Se4'
_cell_volume   188.23556545
_cell_formula_units_Z   1
loop_
 _symmetry_equiv_pos_site_id
 _symmetry_equiv_pos_as_xyz
  1  'x, y, z'
loop_
 _atom_site_type_symbol
 _atom_site_label
 _atom_site_symmetry_multiplicity
 _atom_site_fract_x
 _atom_site_fract_y
 _atom_site_fract_z
 _atom_site_occupancy
  Mg  Mg0  1  0.50000000  0.50000000  0.50000000  1
  Co  Co0  1  0.00000000  0.00000000  0.00000000  1
  Cu  Cu0  1  0.00000000  0.50000000  0.00000000  1
  Cu  Cu1  1  0.00000000  0.00000000  0.50000000  1
  Cu  Cu2  1  0.50000000  0.00000000  0.00000000  1
  Se  Se0  1  0.24202600  0.24202600  0.24202600  1
  Se  Se1  1  0.75797400  0.75797400  0.24202600  1
  Se  Se2  1  0.24202600  0.75797400  0.75797400  1
  Se  Se3  1  0.75797400  0.24202600  0.75797400  1
loop_
_geom_bond_atom_site_label_1
_geom_bond_atom_site_label_2
_geom_bond_distance
_geom_bond_site_symmetry_2
Mg0 Se0 2.560769 1_555
Mg0 Se1 2.560769 1_555
Mg0 Se3 2.560769 1_555
Mg0 Se2 2.560769 1_555
Co0 Se2 2.402462 1_544
Co0 Se0 2.402462 1_555
Co0 Se3 2.402462 1_454
Co0 Se1 2.402462 1_445
Cu0 Se3 2.456365 1_454
Cu0 Se2 2.456365 1_554
Cu0 Se1 2.456365 1_455
Cu0 Se0 2.456365 1_555
Cu1 Se1 2.456365 1_445
Cu1 Se2 2.456365 1_545
Cu1 Se3 2.456365 1_455
Cu1 Se0 2.456365 1_555
Cu2 Se3 2.456365 1_554
Cu2 Se2 2.456365 1_544
Cu2 Se1 2.456365 1_545
Cu2 Se0 2.456365 1_555
