# generated using pymatgen
data_ZrCrCuS4
_symmetry_space_group_name_H-M   'P 1'
_cell_length_a   7.03718600
_cell_length_b   7.08351800
_cell_length_c   12.13292400
_cell_angle_alpha   90.00000000
_cell_angle_beta   90.00000000
_cell_angle_gamma   90.00000000
_symmetry_Int_Tables_number   1
_chemical_formula_structural   ZrCrCuS4
_chemical_formula_sum   'Zr4 Cr4 Cu4 S16'
_cell_volume   604.80240444
_cell_formula_units_Z   4
loop_
 _symmetry_equiv_pos_site_id
 _symmetry_equiv_pos_as_xyz
  1  'x, y, z'
loop_
 _atom_site_type_symbol
 _atom_site_label
 _atom_site_symmetry_multiplicity
 _atom_site_fract_x
 _atom_site_fract_y
 _atom_site_fract_z
 _atom_site_occupancy
  Zr  Zr0  1  0.99206600  0.75000000  0.31997100  1
  Zr  Zr1  1  0.00793400  0.25000000  0.68002900  1
  Zr  Zr2  1  0.50793400  0.25000000  0.81997100  1
  Zr  Zr3  1  0.49206600  0.75000000  0.18002900  1
  Cr  Cr0  1  0.13565800  0.25000000  0.93119600  1
  Cr  Cr1  1  0.86434100  0.75000000  0.06880400  1
  Cr  Cr2  1  0.36434100  0.75000000  0.43119600  1
  Cr  Cr3  1  0.63565900  0.25000000  0.56880400  1
  Cu  Cu0  1  0.21481400  0.25000000  0.39966700  1
  Cu  Cu1  1  0.78518600  0.75000000  0.60033300  1
  Cu  Cu2  1  0.28518600  0.75000000  0.89966700  1
  Cu  Cu3  1  0.71481400  0.25000000  0.10033300  1
  S  S0  1  0.21254500  0.48036000  0.80692500  1
  S  S1  1  0.78745500  0.51964000  0.19307500  1
  S  S2  1  0.28745500  0.51964000  0.30692500  1
  S  S3  1  0.71254500  0.48036000  0.69307500  1
  S  S4  1  0.71254500  0.01964000  0.69307500  1
  S  S5  1  0.28745500  0.98036000  0.30692500  1
  S  S6  1  0.78745500  0.98036000  0.19307500  1
  S  S7  1  0.21254500  0.01964000  0.80692500  1
  S  S8  1  0.90597200  0.25000000  0.47247300  1
  S  S9  1  0.09402800  0.75000000  0.52752700  1
  S  S10  1  0.59402800  0.75000000  0.97247300  1
  S  S11  1  0.40597200  0.25000000  0.02752700  1
  S  S12  1  0.17708200  0.75000000  0.07845200  1
  S  S13  1  0.82291800  0.25000000  0.92154800  1
  S  S14  1  0.32291800  0.25000000  0.57845200  1
  S  S15  1  0.67708200  0.75000000  0.42154800  1
loop_
_geom_bond_atom_site_label_1
_geom_bond_atom_site_label_2
_geom_bond_distance
_geom_bond_site_symmetry_2
Cr0 S13 2.203920 1_455
Cr0 S11 2.232620 1_556
Cr0 S0 2.286649 1_555
Cr0 S7 2.286649 1_555
Cr1 S12 2.203927 1_655
Cr1 S10 2.232614 1_554
Cr1 S6 2.286648 1_555
Cr1 S1 2.286648 1_555
Cr2 S15 2.203927 1_555
Cr2 S9 2.232614 1_555
Cr2 S5 2.286648 1_555
Cr2 S2 2.286648 1_555
Cr3 S14 2.203927 1_555
Cr3 S8 2.232614 1_555
Cr3 S4 2.286648 1_555
Cr3 S3 2.286648 1_555
Cu0 S2 2.274985 1_555
Cu0 S5 2.274985 1_545
Cu0 S14 2.298717 1_555
Cu0 S8 2.346035 1_455
Cu1 S3 2.274985 1_555
Cu1 S4 2.274985 1_565
Cu1 S15 2.298717 1_555
Cu1 S9 2.346035 1_655
Cu2 S0 2.274985 1_555
Cu2 S7 2.274985 1_565
Cu2 S12 2.298717 1_556
Cu2 S10 2.346035 1_555
Cu3 S6 2.274985 1_545
Cu3 S1 2.274985 1_555
Cu3 S13 2.298717 1_554
Cu3 S11 2.346035 1_555
S0 Zr2 2.647398 1_555
S0 Zr1 2.665771 1_555
S1 Zr3 2.647398 1_555
S1 Zr0 2.665771 1_555
S2 Zr0 2.647398 1_455
S2 Zr3 2.665771 1_555
S3 Zr1 2.647398 1_655
S3 Zr2 2.665771 1_555
S4 Zr1 2.647398 1_655
S4 Zr2 2.665771 1_555
S5 Zr0 2.647398 1_455
S5 Zr3 2.665771 1_555
S6 Zr3 2.647398 1_555
S6 Zr0 2.665771 1_555
S7 Zr2 2.647398 1_555
S7 Zr1 2.665771 1_555
S8 Zr1 2.618489 1_655
S9 Zr0 2.618489 1_455
S10 Zr3 2.618489 1_556
S11 Zr2 2.618489 1_554
S12 Zr3 2.536177 1_555
S13 Zr2 2.536177 1_555
S14 Zr1 2.536177 1_555
S15 Zr0 2.536177 1_555
