# generated using pymatgen
data_MnFe2Pb8F24
_symmetry_space_group_name_H-M   'P 1'
_cell_length_a   5.73335700
_cell_length_b   9.56957600
_cell_length_c   20.45005373
_cell_angle_alpha   75.41398329
_cell_angle_beta   90.00000000
_cell_angle_gamma   90.00000000
_symmetry_Int_Tables_number   1
_chemical_formula_structural   MnFe2Pb8F24
_chemical_formula_sum   'Mn2 Fe4 Pb16 F48'
_cell_volume   1085.84687476
_cell_formula_units_Z   2
loop_
 _symmetry_equiv_pos_site_id
 _symmetry_equiv_pos_as_xyz
  1  'x, y, z'
loop_
 _atom_site_type_symbol
 _atom_site_label
 _atom_site_symmetry_multiplicity
 _atom_site_fract_x
 _atom_site_fract_y
 _atom_site_fract_z
 _atom_site_occupancy
  Mn  Mn0  1  0.50000000  0.00000000  0.50000000  1
  Mn  Mn1  1  0.00000000  0.00000000  0.00000000  1
  Fe  Fe0  1  0.49822200  0.25084000  0.04705500  1
  Fe  Fe1  1  0.99822200  0.74916000  0.45294500  1
  Fe  Fe2  1  0.50177800  0.74916000  0.95294500  1
  Fe  Fe3  1  0.00177800  0.25084000  0.54705500  1
  Pb  Pb0  1  0.50007000  0.44084900  0.41154100  1
  Pb  Pb1  1  0.00007000  0.55915100  0.08845900  1
  Pb  Pb2  1  0.49993000  0.55915100  0.58845900  1
  Pb  Pb3  1  0.99993000  0.44084900  0.91154100  1
  Pb  Pb4  1  0.47044500  0.82464300  0.13137400  1
  Pb  Pb5  1  0.97044500  0.17535700  0.36862600  1
  Pb  Pb6  1  0.52955500  0.17535700  0.86862600  1
  Pb  Pb7  1  0.02955500  0.82464300  0.63137400  1
  Pb  Pb8  1  0.50197000  0.90224700  0.32066300  1
  Pb  Pb9  1  0.00197000  0.09775300  0.17933700  1
  Pb  Pb10  1  0.49803000  0.09775300  0.67933700  1
  Pb  Pb11  1  0.99803000  0.90224700  0.82066300  1
  Pb  Pb12  1  0.47154600  0.35721500  0.22570500  1
  Pb  Pb13  1  0.97154600  0.64278500  0.27429500  1
  Pb  Pb14  1  0.52845400  0.64278500  0.77429500  1
  Pb  Pb15  1  0.02845400  0.35721500  0.72570500  1
  F  F0  1  0.24159400  0.12505800  0.27540600  1
  F  F1  1  0.74159400  0.87494200  0.22459400  1
  F  F2  1  0.75840600  0.87494200  0.72459400  1
  F  F3  1  0.25840600  0.12505800  0.77540600  1
  F  F4  1  0.74392000  0.13202200  0.27146100  1
  F  F5  1  0.24392000  0.86797800  0.22853900  1
  F  F6  1  0.25608000  0.86797800  0.72853900  1
  F  F7  1  0.75608000  0.13202200  0.77146100  1
  F  F8  1  0.24799300  0.39102600  0.32097200  1
  F  F9  1  0.74799300  0.60897400  0.17902800  1
  F  F10  1  0.75200700  0.60897400  0.67902800  1
  F  F11  1  0.25200700  0.39102600  0.82097200  1
  F  F12  1  0.75997600  0.39119300  0.31632400  1
  F  F13  1  0.25997600  0.60880700  0.18367600  1
  F  F14  1  0.24002400  0.60880700  0.68367600  1
  F  F15  1  0.74002400  0.39119300  0.81632400  1
  F  F16  1  0.56326400  0.64538100  0.32061100  1
  F  F17  1  0.06326400  0.35461900  0.17938900  1
  F  F18  1  0.43673600  0.35461900  0.67938900  1
  F  F19  1  0.93673600  0.64538100  0.82061100  1
  F  F20  1  0.42589600  0.13689300  0.14022700  1
  F  F21  1  0.92589600  0.86310700  0.35977300  1
  F  F22  1  0.57410400  0.86310700  0.85977300  1
  F  F23  1  0.07410400  0.13689300  0.64022700  1
  F  F24  1  0.21373100  0.36641400  0.04247100  1
  F  F25  1  0.71373100  0.63358600  0.45752900  1
  F  F26  1  0.78626900  0.63358600  0.95752900  1
  F  F27  1  0.28626900  0.36641400  0.54247100  1
  F  F28  1  0.92593900  0.33927000  0.45286400  1
  F  F29  1  0.42593900  0.66073000  0.04713600  1
  F  F30  1  0.07406100  0.66073000  0.54713600  1
  F  F31  1  0.57406100  0.33927000  0.95286400  1
  F  F32  1  0.55746000  0.14486400  0.40544800  1
  F  F33  1  0.05746000  0.85513600  0.09455200  1
  F  F34  1  0.44254000  0.85513600  0.59455200  1
  F  F35  1  0.94254000  0.14486400  0.90544800  1
  F  F36  1  0.78246700  0.12642900  0.05271100  1
  F  F37  1  0.28246700  0.87357100  0.44728900  1
  F  F38  1  0.21753300  0.87357100  0.94728900  1
  F  F39  1  0.71753300  0.12642900  0.55271100  1
  F  F40  1  0.17888500  0.62271000  0.41089200  1
  F  F41  1  0.67888500  0.37729000  0.08910800  1
  F  F42  1  0.82111500  0.37729000  0.58910800  1
  F  F43  1  0.32111500  0.62271000  0.91089200  1
  F  F44  1  0.31751100  0.10691300  0.01443800  1
  F  F45  1  0.81751100  0.89308700  0.48556200  1
  F  F46  1  0.68248900  0.89308700  0.98556200  1
  F  F47  1  0.18248900  0.10691300  0.51443800  1
loop_
_geom_bond_atom_site_label_1
_geom_bond_atom_site_label_2
_geom_bond_distance
_geom_bond_site_symmetry_2
F0 Pb9 2.464551 1_555
F0 Pb12 2.563126 1_555
F0 Pb8 2.576332 1_545
F0 Pb5 2.597076 1_455
F1 Pb8 2.464551 1_555
F1 Pb13 2.563126 1_555
F1 Pb9 2.576332 1_665
F1 Pb4 2.597076 1_555
F2 Pb11 2.464551 1_555
F2 Pb14 2.563126 1_555
F2 Pb10 2.576332 1_565
F2 Pb7 2.597076 1_655
F3 Pb10 2.464551 1_555
F3 Pb15 2.563126 1_555
F3 Pb11 2.576332 1_445
F3 Pb6 2.597076 1_555
F4 Pb9 2.481300 1_655
F4 Pb5 2.494401 1_555
F4 Pb8 2.580173 1_545
F4 Pb12 2.634884 1_555
F5 Pb8 2.481300 1_555
F5 Pb4 2.494401 1_555
F5 Pb9 2.580173 1_565
F5 Pb13 2.634884 1_455
F6 Pb11 2.481300 1_455
F6 Pb7 2.494401 1_555
F6 Pb10 2.580173 1_565
F6 Pb14 2.634884 1_555
F7 Pb10 2.481300 1_555
F7 Pb6 2.494401 1_555
F7 Pb11 2.580173 1_545
F7 Pb15 2.634884 1_655
F8 Pb12 2.420847 1_555
F8 Pb0 2.488225 1_555
F8 Pb5 2.593913 1_455
F9 Pb13 2.420847 1_555
F9 Pb1 2.488225 1_655
F9 Pb4 2.593913 1_555
F10 Pb14 2.420847 1_555
F10 Pb2 2.488225 1_555
F10 Pb7 2.593913 1_655
F11 Pb15 2.420847 1_555
F11 Pb3 2.488225 1_455
F11 Pb6 2.593913 1_555
F12 Pb5 2.398655 1_555
F12 Pb12 2.564774 1_555
F12 Pb0 2.589188 1_555
F12 Pb13 2.639040 1_555
F13 Pb4 2.398655 1_555
F13 Pb13 2.564774 1_455
F13 Pb1 2.589188 1_555
F13 Pb12 2.639040 1_555
F14 Pb7 2.398655 1_555
F14 Pb14 2.564774 1_555
F14 Pb2 2.589188 1_555
F14 Pb15 2.639040 1_555
F15 Pb6 2.398655 1_555
F15 Pb15 2.564774 1_655
F15 Pb3 2.589188 1_555
F15 Pb14 2.639040 1_555
F16 Pb0 2.363664 1_555
F16 Pb8 2.483357 1_555
F16 Pb13 2.527659 1_555
F17 Pb1 2.363664 1_555
F17 Pb9 2.483357 1_555
F17 Pb12 2.527659 1_555
F18 Pb2 2.363664 1_555
F18 Pb10 2.483357 1_555
F18 Pb15 2.527659 1_555
F19 Pb3 2.363664 1_555
F19 Pb11 2.483357 1_555
F19 Pb14 2.527659 1_555
F20 Fe0 1.986195 1_555
F20 Pb9 2.556661 1_555
F21 Fe1 1.986195 1_555
F21 Pb8 2.556661 1_555
F22 Fe2 1.986195 1_555
F22 Pb11 2.556661 1_555
F23 Fe3 1.986195 1_555
F23 Pb10 2.556661 1_555
F24 Fe0 1.959653 1_555
F24 Pb1 2.580810 1_555
F25 Fe1 1.959653 1_555
F25 Pb0 2.580810 1_555
F26 Fe2 1.959653 1_555
F26 Pb3 2.580810 1_555
F27 Fe3 1.959653 1_555
F27 Pb2 2.580810 1_555
F28 Fe3 1.947942 1_655
F28 Pb5 2.618038 1_555
F28 Pb0 2.684585 1_555
F29 Fe2 1.947942 1_554
F29 Pb4 2.618038 1_555
F29 Pb1 2.684585 1_555
F30 Fe1 1.947942 1_455
F30 Pb7 2.618038 1_555
F30 Pb2 2.684585 1_555
F31 Fe0 1.947942 1_556
F31 Pb6 2.618038 1_555
F31 Pb3 2.684585 1_555
F32 Mn0 2.102146 1_555
F32 Pb5 2.479503 1_555
F33 Mn1 2.102146 1_565
F33 Pb4 2.479503 1_555
F34 Mn0 2.102146 1_565
F34 Pb7 2.479503 1_555
F35 Mn1 2.102146 1_656
F35 Pb6 2.479503 1_555
F36 Fe0 2.004322 1_555
F36 Mn1 2.199571 1_655
F37 Fe1 2.004322 1_455
F37 Mn0 2.199571 1_565
F38 Fe2 2.004322 1_555
F38 Mn1 2.199571 1_566
F39 Fe3 2.004322 1_655
F39 Mn0 2.199571 1_555
F40 Fe1 1.949586 1_455
F40 Pb0 2.531463 1_555
F41 Fe0 1.949586 1_555
F41 Pb1 2.531463 1_655
F42 Fe3 1.949586 1_655
F42 Pb2 2.531463 1_555
F43 Fe2 1.949586 1_555
F43 Pb3 2.531463 1_455
F44 Fe0 1.969291 1_555
F44 Mn1 2.144750 1_555
F45 Fe1 1.969291 1_555
F45 Mn0 2.144750 1_565
F46 Fe2 1.969291 1_555
F46 Mn1 2.144750 1_666
F47 Fe3 1.969291 1_555
F47 Mn0 2.144750 1_555
