# generated using pymatgen
data_Ge2Sb2Te5
_symmetry_space_group_name_H-M   'P 1'
_cell_length_a   4.29406442
_cell_length_b   4.29406442
_cell_length_c   17.10134600
_cell_angle_alpha   90.00000000
_cell_angle_beta   90.00000000
_cell_angle_gamma   120.00000655
_symmetry_Int_Tables_number   1
_chemical_formula_structural   Ge2Sb2Te5
_chemical_formula_sum   'Ge2 Sb2 Te5'
_cell_volume   273.08510247
_cell_formula_units_Z   1
loop_
 _symmetry_equiv_pos_site_id
 _symmetry_equiv_pos_as_xyz
  1  'x, y, z'
loop_
 _atom_site_type_symbol
 _atom_site_label
 _atom_site_symmetry_multiplicity
 _atom_site_fract_x
 _atom_site_fract_y
 _atom_site_fract_z
 _atom_site_occupancy
  Ge  Ge0  1  0.33333300  0.66666700  0.89710500  1
  Ge  Ge1  1  0.66666700  0.33333300  0.10289500  1
  Sb  Sb0  1  0.00000000  0.00000000  0.67993200  1
  Sb  Sb1  1  0.00000000  0.00000000  0.32006800  1
  Te  Te0  1  0.00000000  0.00000000  0.00000000  1
  Te  Te1  1  0.66666700  0.33333300  0.79845800  1
  Te  Te2  1  0.33333300  0.66666700  0.20154200  1
  Te  Te3  1  0.33333300  0.66666700  0.58010800  1
  Te  Te4  1  0.66666700  0.33333300  0.41989200  1
loop_
_geom_bond_atom_site_label_1
_geom_bond_atom_site_label_2
_geom_bond_distance
_geom_bond_site_symmetry_2
Ge0 Te1 2.998712 1_565
Ge0 Te1 2.998712 1_455
Ge0 Te1 2.998718 1_555
Ge0 Te0 3.040175 1_566
Ge0 Te0 3.040177 1_666
Ge0 Te0 3.040177 1_556
Ge1 Te2 2.998712 1_545
Ge1 Te2 2.998712 1_655
Ge1 Te2 2.998718 1_555
Ge1 Te0 3.040175 1_655
Ge1 Te0 3.040177 1_555
Ge1 Te0 3.040177 1_665
Sb0 Te3 3.010082 1_545
Sb0 Te3 3.010085 1_445
Sb0 Te3 3.010085 1_555
Sb0 Te1 3.202321 1_455
Sb0 Te1 3.202324 1_555
Sb0 Te1 3.202324 1_445
Sb1 Te4 3.010082 1_455
Sb1 Te4 3.010085 1_555
Sb1 Te4 3.010085 1_445
Sb1 Te2 3.202321 1_545
Sb1 Te2 3.202324 1_445
Sb1 Te2 3.202324 1_555
