# generated using pymatgen
data_Lu2Zn17
_symmetry_space_group_name_H-M   'P 1'
_cell_length_a   8.64994400
_cell_length_b   8.95491100
_cell_length_c   8.98986725
_cell_angle_alpha   60.12854059
_cell_angle_beta   90.00000000
_cell_angle_gamma   90.00000000
_symmetry_Int_Tables_number   1
_chemical_formula_structural   Lu2Zn17
_chemical_formula_sum   'Lu4 Zn34'
_cell_volume   603.83676028
_cell_formula_units_Z   2
loop_
 _symmetry_equiv_pos_site_id
 _symmetry_equiv_pos_as_xyz
  1  'x, y, z'
loop_
 _atom_site_type_symbol
 _atom_site_label
 _atom_site_symmetry_multiplicity
 _atom_site_fract_x
 _atom_site_fract_y
 _atom_site_fract_z
 _atom_site_occupancy
  Lu  Lu0  1  0.25000000  0.99943100  0.00113800  1
  Lu  Lu1  1  0.75000000  0.00056900  0.99886200  1
  Lu  Lu2  1  0.75000000  0.66619300  0.66761400  1
  Lu  Lu3  1  0.25000000  0.33380700  0.33238600  1
  Zn  Zn0  1  0.40264500  0.66679400  0.66641200  1
  Zn  Zn1  1  0.59735500  0.33320600  0.33358800  1
  Zn  Zn2  1  0.90264500  0.33320600  0.33358800  1
  Zn  Zn3  1  0.09735500  0.66679400  0.66641200  1
  Zn  Zn4  1  0.50000000  0.00000000  0.50000000  1
  Zn  Zn5  1  0.50000000  0.50000000  0.00000000  1
  Zn  Zn6  1  0.50000000  0.50000000  0.50000000  1
  Zn  Zn7  1  0.00000000  0.00000000  0.50000000  1
  Zn  Zn8  1  0.00000000  0.50000000  0.00000000  1
  Zn  Zn9  1  0.00000000  0.50000000  0.50000000  1
  Zn  Zn10  1  0.25000000  0.97126300  0.35937300  1
  Zn  Zn11  1  0.25000000  0.66977800  0.97110900  1
  Zn  Zn12  1  0.25000000  0.35858100  0.66961600  1
  Zn  Zn13  1  0.25000000  0.97180300  0.66961600  1
  Zn  Zn14  1  0.25000000  0.66936400  0.35937300  1
  Zn  Zn15  1  0.25000000  0.35911300  0.97110900  1
  Zn  Zn16  1  0.75000000  0.02873700  0.64062700  1
  Zn  Zn17  1  0.75000000  0.33022200  0.02889100  1
  Zn  Zn18  1  0.75000000  0.64141900  0.33038400  1
  Zn  Zn19  1  0.75000000  0.02819700  0.33038400  1
  Zn  Zn20  1  0.75000000  0.33063600  0.64062700  1
  Zn  Zn21  1  0.75000000  0.64088700  0.02889100  1
  Zn  Zn22  1  0.51557300  0.32365400  0.83812800  1
  Zn  Zn23  1  0.51574500  0.83801200  0.32397600  1
  Zn  Zn24  1  0.51557300  0.83821700  0.83812800  1
  Zn  Zn25  1  0.48442700  0.67634600  0.16187200  1
  Zn  Zn26  1  0.48425500  0.16198800  0.67602400  1
  Zn  Zn27  1  0.48442700  0.16178300  0.16187200  1
  Zn  Zn28  1  0.01557300  0.67634600  0.16187200  1
  Zn  Zn29  1  0.01574500  0.16198800  0.67602400  1
  Zn  Zn30  1  0.01557300  0.16178300  0.16187200  1
  Zn  Zn31  1  0.98442700  0.32365400  0.83812800  1
  Zn  Zn32  1  0.98425500  0.83801200  0.32397600  1
  Zn  Zn33  1  0.98442700  0.83821700  0.83812800  1
loop_
_geom_bond_atom_site_label_1
_geom_bond_atom_site_label_2
_geom_bond_distance
_geom_bond_site_symmetry_2
Lu0 Zn15 3.095331 1_564
Lu0 Zn11 3.095331 1_554
Lu0 Zn14 3.102574 1_555
Lu0 Zn10 3.102574 1_555
Lu0 Zn12 3.110967 1_564
Lu0 Zn13 3.110967 1_554
Lu0 Zn28 3.225848 1_555
Lu0 Zn25 3.225848 1_555
Lu0 Zn30 3.225854 1_565
Lu0 Zn27 3.225854 1_565
Lu0 Zn29 3.244874 1_564
Lu0 Zn26 3.244874 1_564
Lu0 Zn22 3.408235 1_564
Lu0 Zn31 3.408235 1_464
Lu0 Zn24 3.408241 1_554
Lu0 Zn33 3.408241 1_454
Lu0 Zn23 3.408468 1_555
Lu0 Zn32 3.408468 1_455
Lu1 Zn21 3.095331 1_546
Lu1 Zn17 3.095331 1_556
Lu1 Zn20 3.102574 1_555
Lu1 Zn16 3.102574 1_555
Lu1 Zn18 3.110967 1_546
Lu1 Zn19 3.110967 1_556
Lu1 Zn31 3.225848 1_555
Lu1 Zn22 3.225848 1_555
Lu1 Zn33 3.225854 1_545
Lu1 Zn24 3.225854 1_545
Lu1 Zn23 3.244874 1_546
Lu1 Zn32 3.244874 1_546
Lu1 Zn25 3.408235 1_546
Lu1 Zn28 3.408235 1_646
Lu1 Zn27 3.408241 1_556
Lu1 Zn30 3.408241 1_656
Lu1 Zn29 3.408468 1_655
Lu1 Zn26 3.408468 1_555
Lu2 Zn0 3.004616 1_555
Lu2 Zn3 3.004616 1_655
Lu2 Zn16 3.132788 1_565
Lu2 Zn20 3.132788 1_555
Lu2 Zn17 3.141119 1_556
Lu2 Zn21 3.141119 1_556
Lu2 Zn19 3.148029 1_565
Lu2 Zn18 3.148030 1_555
Lu2 Zn33 3.344678 1_555
Lu2 Zn24 3.344678 1_555
Lu2 Zn31 3.344684 1_555
Lu2 Zn22 3.344684 1_555
Lu2 Zn23 3.358873 1_555
Lu2 Zn32 3.358873 1_555
Lu2 Zn8 3.374945 1_656
Lu2 Zn5 3.374945 1_556
Lu2 Zn7 3.375730 1_665
Lu2 Zn4 3.375730 1_565
Lu2 Zn9 3.375730 1_655
Lu2 Zn6 3.375730 1_555
Lu3 Zn1 3.004616 1_555
Lu3 Zn2 3.004616 1_455
Lu3 Zn10 3.132788 1_545
Lu3 Zn14 3.132788 1_555
Lu3 Zn11 3.141119 1_554
Lu3 Zn15 3.141119 1_554
Lu3 Zn13 3.148029 1_545
Lu3 Zn12 3.148030 1_555
Lu3 Zn27 3.344678 1_555
Lu3 Zn30 3.344678 1_555
Lu3 Zn28 3.344684 1_555
Lu3 Zn25 3.344684 1_555
Lu3 Zn29 3.358873 1_555
Lu3 Zn26 3.358873 1_555
Lu3 Zn8 3.374945 1_555
Lu3 Zn5 3.374945 1_555
Lu3 Zn7 3.375730 1_555
Lu3 Zn4 3.375730 1_555
Lu3 Zn9 3.375730 1_555
Lu3 Zn6 3.375730 1_555
Zn0 Zn3 2.640741 1_555
Zn0 Zn4 2.721022 1_565
Zn0 Zn6 2.721023 1_555
Zn0 Zn5 2.733443 1_556
Zn0 Zn24 2.837985 1_555
Zn0 Zn22 2.837992 1_555
Zn0 Zn23 2.843086 1_555
Zn0 Zn12 3.046757 1_555
Zn0 Zn13 3.046757 1_555
Zn0 Zn10 3.049517 1_555
Zn0 Zn14 3.049517 1_555
Zn0 Zn15 3.052890 1_555
Zn0 Zn11 3.052891 1_555
Zn1 Zn2 2.640741 1_555
Zn1 Zn4 2.721022 1_555
Zn1 Zn6 2.721023 1_555
Zn1 Zn5 2.733443 1_555
Zn1 Zn27 2.837985 1_555
Zn1 Zn25 2.837992 1_555
Zn1 Zn26 2.843086 1_555
Zn1 Zn18 3.046757 1_555
Zn1 Zn19 3.046757 1_555
Zn1 Zn16 3.049517 1_555
Zn1 Zn20 3.049517 1_555
Zn1 Zn21 3.052890 1_555
Zn1 Zn17 3.052891 1_555
Zn2 Zn7 2.721022 1_655
Zn2 Zn9 2.721023 1_655
Zn2 Zn8 2.733443 1_655
Zn2 Zn30 2.837985 1_655
Zn2 Zn28 2.837992 1_655
Zn2 Zn29 2.843086 1_655
Zn2 Zn20 3.049517 1_555
Zn2 Zn21 3.052890 1_555
Zn3 Zn7 2.721022 1_565
Zn3 Zn9 2.721023 1_555
Zn3 Zn8 2.733443 1_556
Zn3 Zn33 2.837985 1_455
Zn3 Zn31 2.837992 1_455
Zn3 Zn32 2.843086 1_455
Zn10 Zn7 2.581643 1_565
Zn10 Zn4 2.581643 1_565
Zn10 Zn30 2.675381 1_565
Zn10 Zn27 2.675381 1_565
Zn10 Zn32 2.680908 1_455
Zn10 Zn23 2.680908 1_555
Zn10 Zn14 2.703479 1_555
Zn10 Zn13 2.791455 1_555
Zn10 Zn3 3.049517 1_555
Zn11 Zn8 2.581069 1_556
Zn11 Zn5 2.581069 1_556
Zn11 Zn25 2.675224 1_556
Zn11 Zn28 2.675224 1_556
Zn11 Zn24 2.680523 1_555
Zn11 Zn33 2.680523 1_455
Zn11 Zn13 2.712758 1_555
Zn11 Zn15 2.781977 1_555
Zn11 Zn3 3.052891 1_555
Zn12 Zn9 2.584893 1_555
Zn12 Zn6 2.584893 1_555
Zn12 Zn29 2.665975 1_555
Zn12 Zn26 2.665975 1_555
Zn12 Zn22 2.682884 1_555
Zn12 Zn31 2.682884 1_455
Zn12 Zn15 2.712758 1_555
Zn12 Zn14 2.791455 1_555
Zn12 Zn3 3.046757 1_555
Zn13 Zn4 2.584893 1_565
Zn13 Zn7 2.584893 1_565
Zn13 Zn26 2.665975 1_565
Zn13 Zn29 2.665975 1_565
Zn13 Zn24 2.682885 1_555
Zn13 Zn33 2.682885 1_455
Zn13 Zn3 3.046757 1_555
Zn14 Zn9 2.581643 1_555
Zn14 Zn6 2.581643 1_555
Zn14 Zn28 2.675379 1_555
Zn14 Zn25 2.675379 1_555
Zn14 Zn23 2.680908 1_555
Zn14 Zn32 2.680908 1_455
Zn14 Zn3 3.049517 1_555
Zn15 Zn8 2.581069 1_556
Zn15 Zn5 2.581069 1_556
Zn15 Zn27 2.675221 1_556
Zn15 Zn30 2.675221 1_556
Zn15 Zn22 2.680526 1_555
Zn15 Zn31 2.680526 1_455
Zn15 Zn3 3.052890 1_555
Zn16 Zn7 2.581643 1_655
Zn16 Zn4 2.581643 1_555
Zn16 Zn33 2.675381 1_545
Zn16 Zn24 2.675381 1_545
Zn16 Zn29 2.680908 1_655
Zn16 Zn26 2.680908 1_555
Zn16 Zn20 2.703479 1_555
Zn16 Zn19 2.791455 1_555
Zn16 Zn2 3.049517 1_555
Zn17 Zn8 2.581069 1_655
Zn17 Zn5 2.581069 1_555
Zn17 Zn31 2.675224 1_554
Zn17 Zn22 2.675224 1_554
Zn17 Zn27 2.680523 1_555
Zn17 Zn30 2.680523 1_655
Zn17 Zn19 2.712758 1_555
Zn17 Zn21 2.781977 1_555
Zn17 Zn2 3.052891 1_555
Zn18 Zn9 2.584893 1_655
Zn18 Zn6 2.584893 1_555
Zn18 Zn32 2.665975 1_555
Zn18 Zn23 2.665975 1_555
Zn18 Zn25 2.682884 1_555
Zn18 Zn28 2.682884 1_655
Zn18 Zn21 2.712758 1_555
Zn18 Zn20 2.791455 1_555
Zn18 Zn2 3.046757 1_555
Zn19 Zn7 2.584893 1_655
Zn19 Zn4 2.584893 1_555
Zn19 Zn23 2.665975 1_545
Zn19 Zn32 2.665975 1_545
Zn19 Zn27 2.682885 1_555
Zn19 Zn30 2.682885 1_655
Zn19 Zn2 3.046757 1_555
Zn20 Zn9 2.581643 1_655
Zn20 Zn6 2.581643 1_555
Zn20 Zn31 2.675379 1_555
Zn20 Zn22 2.675379 1_555
Zn20 Zn29 2.680908 1_655
Zn20 Zn26 2.680908 1_555
Zn21 Zn5 2.581069 1_555
Zn21 Zn8 2.581069 1_655
Zn21 Zn33 2.675221 1_554
Zn21 Zn24 2.675221 1_554
Zn21 Zn25 2.680526 1_555
Zn21 Zn28 2.680526 1_655
Zn22 Zn26 2.528728 1_555
Zn22 Zn27 2.538091 1_556
Zn22 Zn5 2.630324 1_556
Zn22 Zn6 2.640128 1_555
Zn23 Zn25 2.528728 1_555
Zn23 Zn27 2.528736 1_565
Zn23 Zn6 2.629330 1_555
Zn23 Zn4 2.629331 1_565
Zn24 Zn26 2.528736 1_565
Zn24 Zn25 2.538091 1_556
Zn24 Zn5 2.630316 1_556
Zn24 Zn4 2.640128 1_565
Zn25 Zn5 2.630324 1_555
Zn25 Zn6 2.640128 1_555
Zn26 Zn6 2.629330 1_555
Zn26 Zn4 2.629331 1_555
Zn27 Zn5 2.630316 1_555
Zn27 Zn4 2.640128 1_555
Zn28 Zn32 2.528728 1_455
Zn28 Zn33 2.538091 1_454
Zn28 Zn8 2.630324 1_555
Zn28 Zn9 2.640128 1_555
Zn29 Zn31 2.528728 1_455
Zn29 Zn33 2.528736 1_445
Zn29 Zn9 2.629330 1_555
Zn29 Zn7 2.629331 1_555
Zn30 Zn32 2.528736 1_445
Zn30 Zn31 2.538091 1_454
Zn30 Zn8 2.630316 1_555
Zn30 Zn7 2.640128 1_555
Zn31 Zn8 2.630324 1_656
Zn31 Zn9 2.640128 1_655
Zn32 Zn9 2.629330 1_655
Zn32 Zn7 2.629331 1_665
Zn33 Zn8 2.630316 1_656
Zn33 Zn7 2.640128 1_665
