# generated using pymatgen
data_Cr4GaS8
_symmetry_space_group_name_H-M   'P 1'
_cell_length_a   6.98112335
_cell_length_b   6.98266335
_cell_length_c   6.98201765
_cell_angle_alpha   60.00537304
_cell_angle_beta   59.99774519
_cell_angle_gamma   59.99964542
_symmetry_Int_Tables_number   1
_chemical_formula_structural   Cr4GaS8
_chemical_formula_sum   'Cr4 Ga1 S8'
_cell_volume   240.66970589
_cell_formula_units_Z   1
loop_
 _symmetry_equiv_pos_site_id
 _symmetry_equiv_pos_as_xyz
  1  'x, y, z'
loop_
 _atom_site_type_symbol
 _atom_site_label
 _atom_site_symmetry_multiplicity
 _atom_site_fract_x
 _atom_site_fract_y
 _atom_site_fract_z
 _atom_site_occupancy
  Cr  Cr0  1  0.60244513  0.13249089  0.13252109  1
  Cr  Cr1  1  0.13247523  0.60264957  0.13242699  1
  Cr  Cr2  1  0.13250174  0.13243598  0.60257923  1
  Cr  Cr3  1  0.13251660  0.13244659  0.13248084  1
  Ga  Ga0  1  0.75019475  0.74989705  0.74998126  1
  S  S0  1  0.34813302  0.88396284  0.88394859  1
  S  S1  1  0.88394303  0.34810369  0.88397243  1
  S  S2  1  0.88393576  0.88397927  0.34811671  1
  S  S3  1  0.88393932  0.88397464  0.88395639  1
  S  S4  1  0.89297044  0.36904237  0.36900173  1
  S  S5  1  0.36899814  0.89288622  0.36906488  1
  S  S6  1  0.36898046  0.36906982  0.89291921  1
  S  S7  1  0.36896538  0.36905906  0.36902964  1
loop_
_geom_bond_atom_site_label_1
_geom_bond_atom_site_label_2
_geom_bond_distance
_geom_bond_site_symmetry_2
Cr0 S5 2.335597 1_545
Cr0 S6 2.335626 1_554
Cr0 S7 2.335663 1_555
Cr0 S3 2.464795 1_544
Cr0 S2 2.464819 1_545
Cr0 S1 2.464954 1_554
Cr1 S6 2.335705 1_554
Cr1 S7 2.335741 1_555
Cr1 S4 2.335873 1_455
Cr1 S0 2.464337 1_554
Cr1 S3 2.464432 1_454
Cr1 S2 2.464473 1_455
Cr2 S5 2.335597 1_545
Cr2 S7 2.335757 1_555
Cr2 S4 2.335821 1_455
Cr2 S0 2.464438 1_545
Cr2 S3 2.464559 1_445
Cr2 S1 2.464650 1_455
Cr3 S5 2.335618 1_545
Cr3 S6 2.335762 1_554
Cr3 S4 2.335849 1_455
Cr3 S0 2.464504 1_544
Cr3 S2 2.464673 1_445
Cr3 S1 2.464768 1_454
Ga0 S3 2.290521 1_555
Ga0 S1 2.290853 1_555
Ga0 S2 2.291003 1_555
Ga0 S0 2.291701 1_555
