# generated using pymatgen
data_K
_symmetry_space_group_name_H-M   'P 1'
_cell_length_a   11.43513100
_cell_length_b   11.43513100
_cell_length_c   11.43513100
_cell_angle_alpha   90.00000000
_cell_angle_beta   90.00000000
_cell_angle_gamma   90.00000000
_symmetry_Int_Tables_number   1
_chemical_formula_structural   K
_chemical_formula_sum   K20
_cell_volume   1495.28312684
_cell_formula_units_Z   20
loop_
 _symmetry_equiv_pos_site_id
 _symmetry_equiv_pos_as_xyz
  1  'x, y, z'
loop_
 _atom_site_type_symbol
 _atom_site_label
 _atom_site_symmetry_multiplicity
 _atom_site_fract_x
 _atom_site_fract_y
 _atom_site_fract_z
 _atom_site_occupancy
  K  K0  1  0.87500000  0.70274300  0.04725800  1
  K  K1  1  0.06213300  0.06213300  0.06213300  1
  K  K2  1  0.20274300  0.45274200  0.12500000  1
  K  K3  1  0.81213400  0.31213300  0.18786700  1
  K  K4  1  0.45274200  0.12500000  0.20274300  1
  K  K5  1  0.54725700  0.62500000  0.29725700  1
  K  K6  1  0.18786700  0.81213400  0.31213300  1
  K  K7  1  0.79725800  0.95274200  0.37500000  1
  K  K8  1  0.93786700  0.56213300  0.43786700  1
  K  K9  1  0.12500000  0.20274300  0.45274200  1
  K  K10  1  0.62500000  0.29725700  0.54725700  1
  K  K11  1  0.43786700  0.93786700  0.56213300  1
  K  K12  1  0.29725700  0.54725700  0.62500000  1
  K  K13  1  0.68786700  0.68786700  0.68786700  1
  K  K14  1  0.04725800  0.87500000  0.70274300  1
  K  K15  1  0.95274200  0.37500000  0.79725800  1
  K  K16  1  0.31213300  0.18786700  0.81213400  1
  K  K17  1  0.70274300  0.04725800  0.87500000  1
  K  K18  1  0.56213300  0.43786700  0.93786700  1
  K  K19  1  0.37500000  0.79725800  0.95274200  1
loop_
_geom_bond_atom_site_label_1
_geom_bond_atom_site_label_2
_geom_bond_distance
_geom_bond_site_symmetry_2
K0 K1 4.636536 1_665
K0 K13 4.636547 1_554
K1 K3 4.290972 1_455
K1 K16 4.290972 1_554
K1 K6 4.290972 1_545
K1 K14 4.636536 1_544
K1 K17 4.636536 1_454
K2 K6 4.636557 1_555
K3 K8 4.290975 1_555
K3 K7 4.636547 1_545
K3 K4 4.636557 1_555
K5 K6 4.636542 1_555
K6 K8 4.290987 1_455
K8 K9 4.636536 1_655
K10 K11 4.636536 1_545
K10 K3 4.636542 1_555
K11 K6 4.290975 1_555
K11 K13 4.290979 1_555
K11 K16 4.290987 1_565
K11 K4 4.636536 1_565
K11 K7 4.636546 1_555
K12 K8 4.636536 1_455
K12 K16 4.636542 1_555
K13 K8 4.290979 1_555
K13 K18 4.290979 1_555
K13 K14 4.636547 1_655
K13 K17 4.636547 1_565
K15 K8 4.636546 1_555
K15 K16 4.636547 1_655
K16 K18 4.290975 1_555
K16 K9 4.636557 1_555
K18 K3 4.290987 1_556
K18 K2 4.636536 1_556
K18 K5 4.636536 1_556
K18 K19 4.636546 1_555
K19 K6 4.636547 1_556
