# generated using pymatgen
data_KNbV2O8
_symmetry_space_group_name_H-M   'P 1'
_cell_length_a   5.68247000
_cell_length_b   8.70743100
_cell_length_c   15.20182700
_cell_angle_alpha   90.00000000
_cell_angle_beta   90.00000000
_cell_angle_gamma   90.00000000
_symmetry_Int_Tables_number   1
_chemical_formula_structural   KNbV2O8
_chemical_formula_sum   'K4 Nb4 V8 O32'
_cell_volume   752.18207405
_cell_formula_units_Z   4
loop_
 _symmetry_equiv_pos_site_id
 _symmetry_equiv_pos_as_xyz
  1  'x, y, z'
loop_
 _atom_site_type_symbol
 _atom_site_label
 _atom_site_symmetry_multiplicity
 _atom_site_fract_x
 _atom_site_fract_y
 _atom_site_fract_z
 _atom_site_occupancy
  K  K0  1  0.25000000  0.94927500  0.87433700  1
  K  K1  1  0.25000000  0.55072500  0.37433700  1
  K  K2  1  0.75000000  0.05072500  0.12566300  1
  K  K3  1  0.75000000  0.44927500  0.62566300  1
  Nb  Nb0  1  0.25000000  0.81002300  0.61639000  1
  Nb  Nb1  1  0.25000000  0.68997700  0.11639000  1
  Nb  Nb2  1  0.75000000  0.18997700  0.38361000  1
  Nb  Nb3  1  0.75000000  0.31002300  0.88361000  1
  V  V0  1  0.25000000  0.51262900  0.78726600  1
  V  V1  1  0.25000000  0.98737100  0.28726600  1
  V  V2  1  0.75000000  0.48737100  0.21273400  1
  V  V3  1  0.75000000  0.01262900  0.71273400  1
  V  V4  1  0.25000000  0.20951900  0.52898800  1
  V  V5  1  0.25000000  0.29048100  0.02898800  1
  V  V6  1  0.75000000  0.79048100  0.47101200  1
  V  V7  1  0.75000000  0.70951900  0.97101200  1
  O  O0  1  0.00692500  0.89898600  0.69951500  1
  O  O1  1  0.49307500  0.60101400  0.19951500  1
  O  O2  1  0.50692500  0.10101400  0.30048500  1
  O  O3  1  0.99307500  0.39898600  0.80048500  1
  O  O4  1  0.99307500  0.10101400  0.30048500  1
  O  O5  1  0.50692500  0.39898600  0.80048500  1
  O  O6  1  0.49307500  0.89898600  0.69951500  1
  O  O7  1  0.00692500  0.60101400  0.19951500  1
  O  O8  1  0.99886800  0.73120800  0.53604800  1
  O  O9  1  0.50113200  0.76879200  0.03604800  1
  O  O10  1  0.49886800  0.26879200  0.46395200  1
  O  O11  1  0.00113200  0.23120800  0.96395200  1
  O  O12  1  0.00113200  0.26879200  0.46395200  1
  O  O13  1  0.49886800  0.23120800  0.96395200  1
  O  O14  1  0.50113200  0.73120800  0.53604800  1
  O  O15  1  0.99886800  0.76879200  0.03604800  1
  O  O16  1  0.25000000  0.61641700  0.68447100  1
  O  O17  1  0.25000000  0.88358300  0.18447100  1
  O  O18  1  0.75000000  0.38358300  0.31552900  1
  O  O19  1  0.75000000  0.11641700  0.81552900  1
  O  O20  1  0.25000000  0.01177800  0.55162800  1
  O  O21  1  0.25000000  0.48822200  0.05162800  1
  O  O22  1  0.75000000  0.98822200  0.44837200  1
  O  O23  1  0.75000000  0.51177800  0.94837200  1
  O  O24  1  0.25000000  0.64101500  0.86630000  1
  O  O25  1  0.25000000  0.85898500  0.36630000  1
  O  O26  1  0.75000000  0.35898500  0.13370000  1
  O  O27  1  0.75000000  0.14101500  0.63370000  1
  O  O28  1  0.75000000  0.81159800  0.87999400  1
  O  O29  1  0.75000000  0.68840200  0.37999400  1
  O  O30  1  0.25000000  0.18840200  0.12000600  1
  O  O31  1  0.25000000  0.31159800  0.62000600  1
loop_
_geom_bond_atom_site_label_1
_geom_bond_atom_site_label_2
_geom_bond_distance
_geom_bond_site_symmetry_2
K0 O24 2.686932 1_555
K0 O6 3.026971 1_555
K0 O0 3.026971 1_555
K0 O28 3.084990 1_555
K0 O28 3.084990 1_455
K0 O11 3.143629 1_565
K0 O13 3.143629 1_565
K0 O15 3.247995 1_456
K0 O9 3.247995 1_556
K0 O19 3.315110 1_465
K0 O19 3.315110 1_565
K1 O25 2.686932 1_555
K1 O1 3.026971 1_555
K1 O7 3.026971 1_555
K1 O29 3.084990 1_555
K1 O29 3.084990 1_455
K1 O10 3.143629 1_555
K1 O12 3.143629 1_555
K1 O14 3.247995 1_555
K1 O8 3.247995 1_455
K1 O18 3.315110 1_455
K1 O18 3.315110 1_555
K2 O26 2.686932 1_555
K2 O2 3.026971 1_555
K2 O4 3.026971 1_555
K2 O30 3.084990 1_555
K2 O30 3.084990 1_655
K2 O15 3.143629 1_545
K2 O9 3.143629 1_545
K2 O11 3.247995 1_654
K2 O13 3.247995 1_554
K2 O17 3.315110 1_545
K2 O17 3.315110 1_645
K3 O27 2.686932 1_555
K3 O5 3.026971 1_555
K3 O3 3.026971 1_555
K3 O31 3.084990 1_555
K3 O31 3.084990 1_655
K3 O14 3.143629 1_555
K3 O8 3.143629 1_555
K3 O12 3.247995 1_655
K3 O10 3.247995 1_555
K3 O16 3.315110 1_655
K3 O16 3.315110 1_555
Nb0 O16 1.978154 1_555
Nb0 O8 1.999783 1_455
Nb0 O14 1.999783 1_555
Nb0 O20 2.013821 1_565
Nb0 O6 2.026025 1_555
Nb0 O0 2.026025 1_555
Nb1 O17 1.978154 1_555
Nb1 O15 1.999783 1_455
Nb1 O9 1.999783 1_555
Nb1 O21 2.013821 1_555
Nb1 O1 2.026025 1_555
Nb1 O7 2.026025 1_555
Nb2 O18 1.978154 1_555
Nb2 O12 1.999783 1_655
Nb2 O10 1.999783 1_555
Nb2 O22 2.013821 1_545
Nb2 O2 2.026025 1_555
Nb2 O4 2.026025 1_555
Nb3 O19 1.978154 1_555
Nb3 O11 1.999783 1_655
Nb3 O13 1.999783 1_555
Nb3 O23 2.013821 1_555
Nb3 O5 2.026025 1_555
Nb3 O3 2.026025 1_555
O0 V3 1.775127 1_465
O1 V2 1.775127 1_555
O2 V1 1.775127 1_545
O3 V0 1.775127 1_655
O4 V1 1.775127 1_645
O5 V0 1.775127 1_555
O6 V3 1.775127 1_565
O7 V2 1.775127 1_455
O8 V6 1.801043 1_555
O9 V7 1.801043 1_554
O10 V4 1.801043 1_555
O11 V5 1.801043 1_556
O12 V4 1.801043 1_555
O13 V5 1.801043 1_556
O14 V6 1.801043 1_555
O15 V7 1.801043 1_554
O16 V0 1.805177 1_555
O17 V1 1.805177 1_555
O18 V2 1.805177 1_555
O19 V3 1.805177 1_555
O20 V4 1.755877 1_555
O21 V5 1.755877 1_555
O22 V6 1.755877 1_555
O23 V7 1.755877 1_555
O24 V0 1.641108 1_555
O25 V1 1.641108 1_555
O26 V2 1.641108 1_555
O27 V3 1.641108 1_555
O28 V7 1.644538 1_555
O29 V6 1.644538 1_555
O30 V5 1.644538 1_555
O31 V4 1.644538 1_555
