# generated using pymatgen
data_Ca3CoRhO6
_symmetry_space_group_name_H-M   'P 1'
_cell_length_a   6.46557126
_cell_length_b   9.05218686
_cell_length_c   9.25699382
_cell_angle_alpha   89.91715388
_cell_angle_beta   90.00861303
_cell_angle_gamma   91.66938721
_symmetry_Int_Tables_number   1
_chemical_formula_structural   Ca3CoRhO6
_chemical_formula_sum   'Ca12 Co4 Rh4 O24'
_cell_volume   541.55873168
_cell_formula_units_Z   4
loop_
 _symmetry_equiv_pos_site_id
 _symmetry_equiv_pos_as_xyz
  1  'x, y, z'
loop_
 _atom_site_type_symbol
 _atom_site_label
 _atom_site_symmetry_multiplicity
 _atom_site_fract_x
 _atom_site_fract_y
 _atom_site_fract_z
 _atom_site_occupancy
  Ca  Ca0  1  0.61184300  0.56639500  0.68024100  1
  Ca  Ca1  1  0.61531100  0.06823300  0.18313600  1
  Ca  Ca2  1  0.88668100  0.43219400  0.18256700  1
  Ca  Ca3  1  0.88588000  0.93226900  0.68070900  1
  Ca  Ca4  1  0.25144600  0.75072400  0.13786900  1
  Ca  Ca5  1  0.25041300  0.24945800  0.63687600  1
  Ca  Ca6  1  0.11330000  0.56475900  0.82032100  1
  Ca  Ca7  1  0.11408800  0.06935100  0.31786900  1
  Ca  Ca8  1  0.75115400  0.24942900  0.86439900  1
  Ca  Ca9  1  0.74884700  0.75012800  0.36146400  1
  Ca  Ca10  1  0.38736700  0.43251700  0.31872600  1
  Ca  Ca11  1  0.38667700  0.93307600  0.81928700  1
  Co  Co0  1  0.24637500  0.75192600  0.50385600  1
  Co  Co1  1  0.75186700  0.74889600  0.99581500  1
  Co  Co2  1  0.25618800  0.24681600  0.00271300  1
  Co  Co3  1  0.75229800  0.24892400  0.50569700  1
  Rh  Rh0  1  0.49823200  0.50035400  0.00036800  1
  Rh  Rh1  1  0.49980200  0.00037000  0.49917500  1
  Rh  Rh2  1  0.99978900  0.00027500  0.99910200  1
  Rh  Rh3  1  0.00032600  0.49986400  0.49935800  1
  O  O0  1  0.54226700  0.30649300  0.10353000  1
  O  O1  1  0.54301100  0.80643800  0.60050600  1
  O  O2  1  0.20261000  0.48415300  0.06745200  1
  O  O3  1  0.20382100  0.97435000  0.56552800  1
  O  O4  1  0.40595800  0.37195800  0.83097300  1
  O  O5  1  0.41259800  0.87703700  0.32900500  1
  O  O6  1  0.03919200  0.80454000  0.89852300  1
  O  O7  1  0.04845400  0.30956600  0.39472700  1
  O  O8  1  0.90757000  0.37230900  0.66954000  1
  O  O9  1  0.91031900  0.87671700  0.16967800  1
  O  O10  1  0.70370200  0.47774300  0.43274400  1
  O  O11  1  0.70475100  0.97849700  0.93324500  1
  O  O12  1  0.45824400  0.69392200  0.89739400  1
  O  O13  1  0.45347900  0.19220800  0.39652200  1
  O  O14  1  0.79297500  0.52034500  0.93291200  1
  O  O15  1  0.79766500  0.02605600  0.43307300  1
  O  O16  1  0.59172800  0.62705200  0.16891600  1
  O  O17  1  0.58676100  0.12394600  0.67201800  1
  O  O18  1  0.95993500  0.19586700  0.10023500  1
  O  O19  1  0.95598700  0.69169600  0.60301900  1
  O  O20  1  0.09253300  0.62821200  0.33201700  1
  O  O21  1  0.08595200  0.12196500  0.82600300  1
  O  O22  1  0.29512600  0.52174800  0.56725200  1
  O  O23  1  0.29748100  0.02122300  0.06564000  1
loop_
_geom_bond_atom_site_label_1
_geom_bond_atom_site_label_2
_geom_bond_distance
_geom_bond_site_symmetry_2
Ca0 O22 2.324434 1_555
Ca0 O1 2.348621 1_555
Ca0 O10 2.505848 1_555
Ca0 O12 2.536502 1_555
Ca0 O19 2.568973 1_555
Ca0 O4 2.583362 1_555
Ca0 O8 2.636042 1_555
Ca0 O14 2.653468 1_555
Ca1 O0 2.339316 1_555
Ca1 O23 2.353006 1_555
Ca1 O13 2.516260 1_555
Ca1 O11 2.525576 1_544
Ca1 O5 2.529471 1_545
Ca1 O18 2.595494 1_555
Ca1 O9 2.617736 1_545
Ca1 O15 2.629023 1_555
Ca2 O18 2.333571 1_555
Ca2 O2 2.339329 1_655
Ca2 O7 2.498823 1_655
Ca2 O14 2.523331 1_554
Ca2 O0 2.577425 1_555
Ca2 O20 2.588976 1_655
Ca2 O16 2.638059 1_555
Ca2 O10 2.639126 1_555
Ca3 O3 2.337004 1_655
Ca3 O19 2.351010 1_555
Ca3 O21 2.511517 1_665
Ca3 O15 2.514598 1_565
Ca3 O6 2.538572 1_655
Ca3 O1 2.572521 1_555
Ca3 O17 2.636732 1_565
Ca3 O11 2.654007 1_555
Ca4 O20 2.333236 1_555
Ca4 O5 2.336554 1_555
Ca4 O2 2.511477 1_555
Ca4 O16 2.513720 1_555
Ca4 O9 2.529781 1_455
Ca4 O23 2.546407 1_565
Ca4 O12 2.655524 1_554
Ca4 O6 2.657923 1_554
Ca5 O4 2.325859 1_555
Ca5 O21 2.334724 1_555
Ca5 O17 2.503717 1_555
Ca5 O8 2.527169 1_455
Ca5 O22 2.555044 1_555
Ca5 O3 2.586444 1_545
Ca5 O13 2.643229 1_555
Ca5 O7 2.657583 1_555
Ca6 O14 2.342700 1_455
Ca6 O6 2.351624 1_555
Ca6 O2 2.473599 1_556
Ca6 O19 2.542055 1_455
Ca6 O8 2.573690 1_455
Ca6 O12 2.588463 1_555
Ca6 O4 2.613040 1_555
Ca6 O22 2.655528 1_555
Ca7 O15 2.330054 1_455
Ca7 O7 2.339430 1_555
Ca7 O3 2.520918 1_545
Ca7 O18 2.534357 1_455
Ca7 O13 2.538072 1_555
Ca7 O9 2.555547 1_445
Ca7 O5 2.638458 1_545
Ca7 O23 2.661077 1_555
Ca8 O8 2.333019 1_555
Ca8 O17 2.350837 1_555
Ca8 O21 2.508056 1_655
Ca8 O4 2.539751 1_555
Ca8 O14 2.540737 1_555
Ca8 O11 2.542386 1_545
Ca8 O18 2.618690 1_556
Ca8 O0 2.652528 1_556
Ca9 O16 2.321524 1_555
Ca9 O9 2.340927 1_555
Ca9 O5 2.506156 1_555
Ca9 O20 2.524685 1_655
Ca9 O10 2.559997 1_555
Ca9 O15 2.595495 1_565
Ca9 O1 2.640299 1_555
Ca9 O19 2.666537 1_555
Ca10 O10 2.327363 1_555
Ca10 O13 2.341564 1_555
Ca10 O22 2.516893 1_555
Ca10 O0 2.519230 1_555
Ca10 O7 2.528129 1_555
Ca10 O16 2.574485 1_555
Ca10 O20 2.642831 1_555
Ca10 O2 2.661668 1_555
Ca11 O11 2.337207 1_555
Ca11 O12 2.340359 1_555
Ca11 O23 2.490454 1_566
Ca11 O17 2.526024 1_565
Ca11 O1 2.551923 1_555
Ca11 O6 2.604830 1_555
Ca11 O21 2.627177 1_565
Ca11 O3 2.660400 1_555
Co0 O3 2.119232 1_555
Co0 O19 2.145791 1_455
Co0 O1 2.160556 1_555
Co0 O20 2.171096 1_555
Co0 O22 2.195422 1_555
Co0 O5 2.231997 1_555
Co1 O6 2.112024 1_655
Co1 O12 2.151171 1_555
Co1 O14 2.173837 1_555
Co1 O11 2.186630 1_555
Co1 O16 2.187478 1_556
Co1 O9 2.216867 1_556
Co2 O0 2.127623 1_555
Co2 O23 2.146881 1_555
Co2 O18 2.155100 1_455
Co2 O4 2.163272 1_554
Co2 O21 2.257644 1_554
Co2 O2 2.267598 1_555
Co3 O8 2.120095 1_555
Co3 O15 2.155582 1_555
Co3 O17 2.172739 1_555
Co3 O10 2.208830 1_555
Co3 O7 2.227290 1_655
Co3 O13 2.227295 1_555
O0 Rh0 2.024047 1_555
O1 Rh1 2.015806 1_565
O2 Rh0 2.011025 1_555
O3 Rh1 2.017083 1_565
O4 Rh0 2.032310 1_556
O5 Rh1 2.003476 1_565
O6 Rh2 2.025413 1_465
O7 Rh3 2.009601 1_555
O8 Rh3 2.032084 1_655
O9 Rh2 2.009076 1_564
O10 Rh3 2.018935 1_655
O11 Rh2 2.006865 1_565
O12 Rh0 2.016739 1_556
O13 Rh1 2.008422 1_555
O14 Rh0 2.008540 1_556
O15 Rh1 2.027624 1_555
O16 Rh0 2.019817 1_555
O17 Rh1 2.023792 1_555
O18 Rh2 2.027089 1_554
O19 Rh3 2.013040 1_655
O20 Rh3 2.014849 1_555
O21 Rh2 2.012662 1_455
O22 Rh3 2.011287 1_555
O23 Rh2 2.024529 1_454
