# generated using pymatgen
data_Zr3NbZn8
_symmetry_space_group_name_H-M   'P 1'
_cell_length_a   8.97812870
_cell_length_b   8.97812870
_cell_length_c   8.97812906
_cell_angle_alpha   33.72067648
_cell_angle_beta   33.72067648
_cell_angle_gamma   33.72068224
_symmetry_Int_Tables_number   1
_chemical_formula_structural   Zr3NbZn8
_chemical_formula_sum   'Zr3 Nb1 Zn8'
_cell_volume   198.71455592
_cell_formula_units_Z   1
loop_
 _symmetry_equiv_pos_site_id
 _symmetry_equiv_pos_as_xyz
  1  'x, y, z'
loop_
 _atom_site_type_symbol
 _atom_site_label
 _atom_site_symmetry_multiplicity
 _atom_site_fract_x
 _atom_site_fract_y
 _atom_site_fract_z
 _atom_site_occupancy
  Zr  Zr0  1  0.62502900  0.62502900  0.62502900  1
  Zr  Zr1  1  0.00159200  0.00159200  0.00159200  1
  Zr  Zr2  1  0.49867700  0.49867700  0.49867700  1
  Nb  Nb0  1  0.12499000  0.12499000  0.12499000  1
  Zn  Zn0  1  0.56325600  0.06475700  0.56325600  1
  Zn  Zn1  1  0.06270000  0.55838200  0.06270000  1
  Zn  Zn2  1  0.06475700  0.56325600  0.56325600  1
  Zn  Zn3  1  0.55838200  0.06270000  0.06270000  1
  Zn  Zn4  1  0.81208200  0.81208200  0.81208200  1
  Zn  Zn5  1  0.31258000  0.31258000  0.31258000  1
  Zn  Zn6  1  0.56325600  0.56325600  0.06475700  1
  Zn  Zn7  1  0.06270000  0.06270000  0.55838200  1
loop_
_geom_bond_atom_site_label_1
_geom_bond_atom_site_label_2
_geom_bond_distance
_geom_bond_site_symmetry_2
Zr0 Zr1 3.200760 1_665
Zr0 Zr1 3.200761 1_656
Zr0 Zr1 3.200761 1_566
Zr0 Zr2 3.206679 1_555
Nb0 Zn3 3.007702 1_555
Nb0 Zn1 3.007702 1_555
Nb0 Zn7 3.007702 1_555
Nb0 Zn2 3.032486 1_545
Nb0 Zn0 3.032486 1_455
Nb0 Zn0 3.032486 1_554
Nb0 Zn2 3.032486 1_554
Nb0 Zn6 3.032486 1_545
Nb0 Zn6 3.032486 1_455
Nb0 Zn4 3.051213 1_445
Nb0 Zn4 3.051213 1_544
Nb0 Zn4 3.051213 1_454
Nb0 Zr1 3.131710 1_555
Nb0 Zr2 3.176482 1_554
Nb0 Zr2 3.176482 1_545
Nb0 Zr2 3.176482 1_455
Zn0 Zn4 2.562969 1_545
Zn0 Zn6 2.596197 1_555
Zn0 Zn2 2.596198 1_555
Zn0 Zn6 2.611832 1_546
Zn0 Zn2 2.611832 1_645
Zn0 Zn5 2.616633 1_555
Zn0 Zr2 2.982239 1_555
Zn0 Zr1 3.044657 1_556
Zn0 Zr1 3.044658 1_655
Zn0 Zr0 3.070566 1_545
Zn1 Zn7 2.581526 1_555
Zn1 Zn3 2.581527 1_555
Zn1 Zn4 2.585464 1_454
Zn1 Zn5 2.614771 1_555
Zn1 Zn7 2.626503 1_564
Zn1 Zn3 2.626503 1_465
Zn1 Zr2 3.050210 1_455
Zn1 Zr2 3.050210 1_554
Zn1 Zr0 3.065973 1_554
Zn1 Zr0 3.065973 1_455
Zn1 Zr1 3.110212 1_565
Zn2 Zn4 2.562969 1_455
Zn2 Zn6 2.596197 1_555
Zn2 Zn6 2.611832 1_456
Zn2 Zn5 2.616633 1_555
Zn2 Zr2 2.982239 1_555
Zn2 Zr1 3.044657 1_556
Zn2 Zr1 3.044658 1_565
Zn2 Zr0 3.070566 1_455
Zn3 Zn7 2.581526 1_555
Zn3 Zn4 2.585464 1_544
Zn3 Zn5 2.614771 1_555
Zn3 Zn7 2.626503 1_654
Zn3 Zr2 3.050210 1_545
Zn3 Zr2 3.050210 1_554
Zn3 Zr0 3.065973 1_554
Zn3 Zr0 3.065973 1_545
Zn3 Zr1 3.110212 1_655
Zn4 Zn6 2.562968 1_556
Zn4 Zn7 2.585463 1_665
Zn4 Zr2 3.049095 1_556
Zn4 Zr2 3.049096 1_565
Zn4 Zr2 3.049096 1_655
Zn5 Zn7 2.614771 1_555
Zn5 Zn6 2.616632 1_555
Zn5 Zr0 3.053213 1_554
Zn5 Zr0 3.053214 1_545
Zn5 Zr0 3.053214 1_455
Zn5 Zr1 3.059868 1_556
Zn5 Zr1 3.059868 1_565
Zn5 Zr1 3.059868 1_655
Zn6 Zr2 2.982239 1_555
Zn6 Zr1 3.044658 1_565
Zn6 Zr1 3.044658 1_655
Zn6 Zr0 3.070567 1_554
Zn7 Zr2 3.050210 1_455
Zn7 Zr2 3.050210 1_545
Zn7 Zr0 3.065973 1_545
Zn7 Zr0 3.065973 1_455
Zn7 Zr1 3.110213 1_556
