# generated using pymatgen
data_CrAgSnS4
_symmetry_space_group_name_H-M   'P 1'
_cell_length_a   7.45660172
_cell_length_b   7.45660172
_cell_length_c   7.45660172
_cell_angle_alpha   120.88375523
_cell_angle_beta   118.93580622
_cell_angle_gamma   90.16459110
_symmetry_Int_Tables_number   1
_chemical_formula_structural   CrAgSnS4
_chemical_formula_sum   'Cr2 Ag2 Sn2 S8'
_cell_volume   293.45490478
_cell_formula_units_Z   2
loop_
 _symmetry_equiv_pos_site_id
 _symmetry_equiv_pos_as_xyz
  1  'x, y, z'
loop_
 _atom_site_type_symbol
 _atom_site_label
 _atom_site_symmetry_multiplicity
 _atom_site_fract_x
 _atom_site_fract_y
 _atom_site_fract_z
 _atom_site_occupancy
  Cr  Cr0  1  0.50000000  0.00000000  0.00000000  1
  Cr  Cr1  1  0.50000000  0.50000000  0.50000000  1
  Ag  Ag0  1  0.88481900  0.63481900  0.25000000  1
  Ag  Ag1  1  0.11518100  0.36518100  0.75000000  1
  Sn  Sn0  1  0.50000000  0.00000000  0.50000000  1
  Sn  Sn1  1  0.00000000  0.00000000  0.00000000  1
  S  S0  1  0.73000000  0.74001200  0.51001200  1
  S  S1  1  0.73000000  0.21998800  0.98998800  1
  S  S2  1  0.71845800  0.75503900  0.96342000  1
  S  S3  1  0.29161900  0.75503900  0.53658000  1
  S  S4  1  0.27000000  0.25998800  0.48998800  1
  S  S5  1  0.27000000  0.78001200  0.01001200  1
  S  S6  1  0.28154200  0.24496100  0.03658000  1
  S  S7  1  0.70838100  0.24496100  0.46342000  1
loop_
_geom_bond_atom_site_label_1
_geom_bond_atom_site_label_2
_geom_bond_distance
_geom_bond_site_symmetry_2
Cr0 S1 2.423036 1_554
Cr0 S5 2.423036 1_545
Cr0 S6 2.449458 1_555
Cr0 S2 2.449458 1_544
Cr0 S3 2.449463 1_544
Cr0 S7 2.449463 1_555
Cr1 S4 2.423036 1_555
Cr1 S0 2.423036 1_555
Cr1 S3 2.449463 1_555
Cr1 S7 2.449463 1_555
Cr1 S6 2.449463 1_555
Cr1 S2 2.449463 1_555
Ag0 S3 2.513294 1_655
Ag0 S2 2.513294 1_554
Ag0 S1 2.513310 1_554
Ag0 S0 2.513310 1_555
Ag1 S7 2.513294 1_455
Ag1 S6 2.513294 1_556
Ag1 S4 2.513310 1_555
Ag1 S5 2.513310 1_556
S0 Sn0 2.597869 1_565
S0 Sn1 2.597869 1_666
S1 Sn0 2.597869 1_555
S1 Sn1 2.597869 1_656
S2 Sn1 2.594307 1_666
S3 Sn0 2.594302 1_565
S4 Sn0 2.597869 1_555
S4 Sn1 2.597869 1_555
S5 Sn1 2.597869 1_565
S5 Sn0 2.597869 1_565
S6 Sn1 2.594307 1_555
S7 Sn0 2.594302 1_555
