# generated using pymatgen
data_CaB2H13N3
_symmetry_space_group_name_H-M   'P 1'
_cell_length_a   7.43155800
_cell_length_b   10.27179000
_cell_length_c   10.36006322
_cell_angle_alpha   61.82667800
_cell_angle_beta   90.00000000
_cell_angle_gamma   90.00000000
_symmetry_Int_Tables_number   1
_chemical_formula_structural   CaB2H13N3
_chemical_formula_sum   'Ca4 B8 H52 N12'
_cell_volume   697.14360354
_cell_formula_units_Z   4
loop_
 _symmetry_equiv_pos_site_id
 _symmetry_equiv_pos_as_xyz
  1  'x, y, z'
loop_
 _atom_site_type_symbol
 _atom_site_label
 _atom_site_symmetry_multiplicity
 _atom_site_fract_x
 _atom_site_fract_y
 _atom_site_fract_z
 _atom_site_occupancy
  Ca  Ca0  1  0.76537900  0.11172800  0.20661500  1
  Ca  Ca1  1  0.26537900  0.38827200  0.79338500  1
  Ca  Ca2  1  0.23462100  0.88827200  0.79338500  1
  Ca  Ca3  1  0.73462100  0.61172800  0.20661500  1
  B  B0  1  0.41256300  0.72774000  0.65837000  1
  B  B1  1  0.91256300  0.77226000  0.34163000  1
  B  B2  1  0.58743700  0.27226000  0.34163000  1
  B  B3  1  0.08743700  0.22774000  0.65837000  1
  B  B4  1  0.06922200  0.26509000  0.10189300  1
  B  B5  1  0.56922200  0.23491000  0.89810700  1
  B  B6  1  0.93077800  0.73491000  0.89810700  1
  B  B7  1  0.43077800  0.76509000  0.10189300  1
  H  H0  1  0.57201600  0.74676300  0.67470600  1
  H  H1  1  0.07201600  0.75323700  0.32529400  1
  H  H2  1  0.42798400  0.25323700  0.32529400  1
  H  H3  1  0.92798400  0.24676300  0.67470600  1
  H  H4  1  0.34133300  0.84924900  0.57786900  1
  H  H5  1  0.84133300  0.65075100  0.42213100  1
  H  H6  1  0.65866700  0.15075100  0.42213100  1
  H  H7  1  0.15866700  0.34924900  0.57786900  1
  H  H8  1  0.33798300  0.67948100  0.78127800  1
  H  H9  1  0.83798300  0.82051900  0.21872200  1
  H  H10  1  0.66201700  0.32051900  0.21872200  1
  H  H11  1  0.16201700  0.17948100  0.78127800  1
  H  H12  1  0.51286700  0.59588800  0.56420900  1
  H  H13  1  0.01286700  0.90411200  0.43579100  1
  H  H14  1  0.48713300  0.40411200  0.43579100  1
  H  H15  1  0.98713300  0.09588800  0.56420900  1
  H  H16  1  0.30942700  0.65302900  0.50820500  1
  H  H17  1  0.80942700  0.84697100  0.49179500  1
  H  H18  1  0.69057300  0.34697100  0.49179500  1
  H  H19  1  0.19057300  0.15302900  0.50820500  1
  H  H20  1  0.10290100  0.14904100  0.09723800  1
  H  H21  1  0.60290100  0.35095900  0.90276200  1
  H  H22  1  0.89709900  0.85095900  0.90276200  1
  H  H23  1  0.39709900  0.64904100  0.09723800  1
  H  H24  1  0.03619400  0.22827400  0.23333800  1
  H  H25  1  0.53619400  0.27172600  0.76666200  1
  H  H26  1  0.96380600  0.77172600  0.76666200  1
  H  H27  1  0.46380600  0.72827400  0.23333800  1
  H  H28  1  0.92701900  0.31468900  0.03342600  1
  H  H29  1  0.42701900  0.18531100  0.96657400  1
  H  H30  1  0.07298100  0.68531100  0.96657400  1
  H  H31  1  0.57298100  0.81468900  0.03342600  1
  H  H32  1  0.19225500  0.48056000  0.02052600  1
  H  H33  1  0.69225500  0.01944000  0.97947400  1
  H  H34  1  0.80774500  0.51944000  0.97947400  1
  H  H35  1  0.30774500  0.98056000  0.02052600  1
  H  H36  1  0.33667900  0.34559200  0.09240600  1
  H  H37  1  0.83667900  0.15440800  0.90759400  1
  H  H38  1  0.66332100  0.65440800  0.90759400  1
  H  H39  1  0.16332100  0.84559200  0.09240600  1
  H  H40  1  0.86052800  0.44618500  0.75652600  1
  H  H41  1  0.36052800  0.05381500  0.24347400  1
  H  H42  1  0.13947200  0.55381500  0.24347400  1
  H  H43  1  0.63947200  0.94618500  0.75652600  1
  H  H44  1  0.95259200  0.58979400  0.76052600  1
  H  H45  1  0.45259200  0.91020600  0.23947400  1
  H  H46  1  0.04740800  0.41020600  0.23947400  1
  H  H47  1  0.54740800  0.08979400  0.76052600  1
  H  H48  1  0.96020300  0.57361000  0.61047400  1
  H  H49  1  0.46020300  0.92639000  0.38952600  1
  H  H50  1  0.03979700  0.42639000  0.38952600  1
  H  H51  1  0.53979700  0.07361000  0.61047400  1
  N  N0  1  0.39098200  0.61495000  0.59773900  1
  N  N1  1  0.89098200  0.88505000  0.40226100  1
  N  N2  1  0.60901800  0.38505000  0.40226100  1
  N  N3  1  0.10901800  0.11495000  0.59773900  1
  N  N4  1  0.22141700  0.37860700  0.03160900  1
  N  N5  1  0.72141700  0.12139300  0.96839100  1
  N  N6  1  0.77858300  0.62139300  0.96839100  1
  N  N7  1  0.27858300  0.87860700  0.03160900  1
  N  N8  1  0.96998300  0.51490800  0.72241500  1
  N  N9  1  0.46998300  0.98509200  0.27758500  1
  N  N10  1  0.03001700  0.48509200  0.27758500  1
  N  N11  1  0.53001700  0.01490800  0.72241500  1
loop_
_geom_bond_atom_site_label_1
_geom_bond_atom_site_label_2
_geom_bond_distance
_geom_bond_site_symmetry_2
Ca0 H10 2.336523 1_555
Ca0 H28 2.340171 1_555
Ca0 H24 2.423471 1_655
Ca0 N1 2.438147 1_545
Ca0 N5 2.444653 1_554
Ca0 N9 2.479646 1_545
Ca0 H6 2.572915 1_555
Ca0 H20 2.704157 1_655
Ca1 H11 2.336523 1_555
Ca1 H29 2.340171 1_555
Ca1 H25 2.423471 1_555
Ca1 N0 2.438147 1_555
Ca1 N4 2.444653 1_556
Ca1 N8 2.479646 1_455
Ca1 H7 2.572915 1_555
Ca1 H21 2.704157 1_555
Ca2 H8 2.336523 1_555
Ca2 H30 2.340171 1_555
Ca2 H26 2.423471 1_455
Ca2 N3 2.438147 1_565
Ca2 N7 2.444653 1_556
Ca2 N11 2.479646 1_565
Ca2 H4 2.572915 1_555
Ca2 H22 2.704157 1_455
Ca3 H9 2.336523 1_555
Ca3 H31 2.340171 1_555
Ca3 H27 2.423471 1_555
Ca3 N2 2.438147 1_555
Ca3 N6 2.444653 1_554
Ca3 N10 2.479646 1_655
Ca3 H5 2.572915 1_555
Ca3 H23 2.704157 1_555
B0 H0 1.225659 1_555
B0 H4 1.245242 1_555
B0 H8 1.256290 1_555
B0 N0 1.565158 1_555
B1 H1 1.225659 1_655
B1 H5 1.245242 1_555
B1 H9 1.256290 1_555
B1 N1 1.565158 1_555
B2 H2 1.225659 1_555
B2 H6 1.245242 1_555
B2 H10 1.256290 1_555
B2 N2 1.565158 1_555
B3 H3 1.225659 1_455
B3 H7 1.245242 1_555
B3 H11 1.256290 1_555
B3 N3 1.565158 1_555
B4 H28 1.240266 1_455
B4 H20 1.241044 1_555
B4 H24 1.253560 1_555
B4 N4 1.538617 1_555
B5 H29 1.240266 1_555
B5 H21 1.241044 1_555
B5 H25 1.253560 1_555
B5 N5 1.538617 1_555
B6 H30 1.240266 1_655
B6 H22 1.241044 1_555
B6 H26 1.253560 1_555
B6 N6 1.538617 1_555
B7 H31 1.240266 1_555
B7 H23 1.241044 1_555
B7 H27 1.253560 1_555
B7 N7 1.538617 1_555
H12 N0 1.021615 1_555
H13 N1 1.021615 1_455
H14 N2 1.021615 1_555
H15 N3 1.021615 1_655
H16 N0 1.018886 1_555
H17 N1 1.018886 1_555
H18 N2 1.018886 1_555
H19 N3 1.018886 1_555
H32 N4 1.021429 1_555
H33 N5 1.021429 1_555
H34 N6 1.021429 1_555
H35 N7 1.021429 1_555
H36 N4 1.021642 1_555
H37 N5 1.021642 1_555
H38 N6 1.021642 1_555
H39 N7 1.021642 1_555
H40 N8 1.024346 1_555
H41 N9 1.024346 1_545
H42 N10 1.024346 1_555
H43 N11 1.024346 1_565
H44 N8 1.025219 1_555
H45 N9 1.025219 1_555
H46 N10 1.025219 1_555
H47 N11 1.025219 1_555
H48 N8 1.026395 1_555
H49 N9 1.026395 1_555
H50 N10 1.026395 1_555
H51 N11 1.026395 1_555
