# generated using pymatgen
data_HoH8C2O8F
_symmetry_space_group_name_H-M   'P 1'
_cell_length_a   8.19985730
_cell_length_b   8.19985730
_cell_length_c   8.19063766
_cell_angle_alpha   63.86044451
_cell_angle_beta   63.86044451
_cell_angle_gamma   85.66563687
_symmetry_Int_Tables_number   1
_chemical_formula_structural   HoH8C2O8F
_chemical_formula_sum   'Ho2 H16 C4 O16 F2'
_cell_volume   439.00355739
_cell_formula_units_Z   2
loop_
 _symmetry_equiv_pos_site_id
 _symmetry_equiv_pos_as_xyz
  1  'x, y, z'
loop_
 _atom_site_type_symbol
 _atom_site_label
 _atom_site_symmetry_multiplicity
 _atom_site_fract_x
 _atom_site_fract_y
 _atom_site_fract_z
 _atom_site_occupancy
  Ho  Ho0  1  0.06888500  0.93111500  0.75000000  1
  Ho  Ho1  1  0.93111500  0.06888500  0.25000000  1
  H  H0  1  0.65192600  0.83420800  0.93887700  1
  H  H1  1  0.16579200  0.34807400  0.56112300  1
  H  H2  1  0.34807400  0.16579200  0.06112300  1
  H  H3  1  0.83420800  0.65192600  0.43887700  1
  H  H4  1  0.08760100  0.30357100  0.43212100  1
  H  H5  1  0.69642900  0.91239900  0.06787900  1
  H  H6  1  0.91239900  0.69642900  0.56787900  1
  H  H7  1  0.30357100  0.08760100  0.93212100  1
  H  H8  1  0.34034800  0.67969700  0.01483300  1
  H  H9  1  0.32030300  0.65965200  0.48516700  1
  H  H10  1  0.65965200  0.32030300  0.98516700  1
  H  H11  1  0.67969700  0.34034800  0.51483300  1
  H  H12  1  0.44082600  0.67693400  0.13972300  1
  H  H13  1  0.32306600  0.55917400  0.36027700  1
  H  H14  1  0.55917400  0.32306600  0.86027700  1
  H  H15  1  0.67693400  0.44082600  0.63972300  1
  C  C0  1  0.50707900  0.05167100  0.55691300  1
  C  C1  1  0.94832900  0.49292100  0.94308700  1
  C  C2  1  0.49292100  0.94832900  0.44308700  1
  C  C3  1  0.05167100  0.50707900  0.05691300  1
  O  O0  1  0.35845000  0.05098400  0.70109300  1
  O  O1  1  0.94901600  0.64155000  0.79890700  1
  O  O2  1  0.64155000  0.94901600  0.29890700  1
  O  O3  1  0.05098400  0.35845000  0.20109300  1
  O  O4  1  0.12778000  0.66598400  0.99542600  1
  O  O5  1  0.33401600  0.87222000  0.50457400  1
  O  O6  1  0.87222000  0.33401600  0.00457400  1
  O  O7  1  0.66598400  0.12778000  0.49542600  1
  O  O8  1  0.09998700  0.25314400  0.55946100  1
  O  O9  1  0.74685600  0.90001300  0.94053900  1
  O  O10  1  0.90001300  0.74685600  0.44053900  1
  O  O11  1  0.25314400  0.09998700  0.05946100  1
  O  O12  1  0.46210600  0.67700700  0.01344800  1
  O  O13  1  0.32299300  0.53789400  0.48655200  1
  O  O14  1  0.53789400  0.32299300  0.98655200  1
  O  O15  1  0.67700700  0.46210600  0.51344800  1
  F  F0  1  0.00000000  0.00000000  0.50000000  1
  F  F1  1  0.00000000  0.00000000  0.00000000  1
loop_
_geom_bond_atom_site_label_1
_geom_bond_atom_site_label_2
_geom_bond_distance
_geom_bond_site_symmetry_2
Ho0 O9 2.365028 1_455
Ho0 O8 2.365028 1_565
Ho0 O5 2.417959 1_555
Ho0 O4 2.417959 1_555
Ho0 O0 2.435588 1_565
Ho0 O1 2.435588 1_455
Ho1 O10 2.365028 1_545
Ho1 O11 2.365028 1_655
Ho1 O6 2.417959 1_555
Ho1 O7 2.417959 1_555
Ho1 O3 2.435588 1_655
Ho1 O2 2.435588 1_545
H0 O9 0.988214 1_555
H1 O8 0.988214 1_555
H2 O11 0.988214 1_555
H3 O10 0.988214 1_555
H4 O8 0.987988 1_555
H5 O9 0.987988 1_554
H6 O10 0.987988 1_555
H7 O11 0.987988 1_556
H8 O12 0.992132 1_555
H9 O13 0.992132 1_555
H10 O14 0.992132 1_555
H11 O15 0.992132 1_555
H12 O12 0.969856 1_555
H13 O13 0.969856 1_555
H14 O14 0.969856 1_555
H15 O15 0.969856 1_555
C0 O0 1.267665 1_555
C0 O7 1.268343 1_555
C1 O1 1.267665 1_555
C1 O6 1.268343 1_556
C2 O2 1.267665 1_555
C2 O5 1.268343 1_555
C3 O3 1.267665 1_555
C3 O4 1.268343 1_554
F0 Ho0 2.186959 1_545
F0 Ho1 2.186959 1_455
F1 Ho0 2.186959 1_544
F1 Ho1 2.186959 1_455
