# generated using pymatgen
data_BaEu2Mn2O7
_symmetry_space_group_name_H-M   'P 1'
_cell_length_a   10.33971763
_cell_length_b   10.33971763
_cell_length_c   10.33971763
_cell_angle_alpha   158.28577083
_cell_angle_beta   158.28577083
_cell_angle_gamma   30.89815570
_symmetry_Int_Tables_number   1
_chemical_formula_structural   BaEu2Mn2O7
_chemical_formula_sum   'Ba1 Eu2 Mn2 O7'
_cell_volume   151.21073315
_cell_formula_units_Z   1
loop_
 _symmetry_equiv_pos_site_id
 _symmetry_equiv_pos_as_xyz
  1  'x, y, z'
loop_
 _atom_site_type_symbol
 _atom_site_label
 _atom_site_symmetry_multiplicity
 _atom_site_fract_x
 _atom_site_fract_y
 _atom_site_fract_z
 _atom_site_occupancy
  Ba  Ba0  1  0.50000000  0.50000000  0.00000000  1
  Eu  Eu0  1  0.68360110  0.68360110  -0.00000000  1
  Eu  Eu1  1  0.31639890  0.31639890  0.00000000  1
  Mn  Mn0  1  0.89961616  0.89961616  0.00000000  1
  Mn  Mn1  1  0.10038384  0.10038384  -0.00000000  1
  O  O0  1  -0.00000000  -0.00000000  -0.00000000  1
  O  O1  1  0.19938203  0.19938203  0.00000000  1
  O  O2  1  0.80061797  0.80061797  -0.00000000  1
  O  O3  1  0.39484506  0.89484506  0.50000000  1
  O  O4  1  0.10515494  0.60515494  0.50000000  1
  O  O5  1  0.60515494  0.10515494  0.50000000  1
  O  O6  1  0.89484506  0.39484506  0.50000000  1
loop_
_geom_bond_atom_site_label_1
_geom_bond_atom_site_label_2
_geom_bond_distance
_geom_bond_site_symmetry_2
Ba0 O0 2.754313 1_554
Ba0 O0 2.754313 1_666
Ba0 O0 2.754313 1_565
Ba0 O0 2.754313 1_655
Ba0 O6 2.861158 1_555
Ba0 O3 2.861158 1_555
Ba0 O6 2.861158 1_454
Ba0 O3 2.861158 1_544
Ba0 O4 2.861158 1_655
Ba0 O4 2.861158 1_554
Ba0 O5 2.861158 1_554
Ba0 O5 2.861158 1_565
Eu0 O2 2.332408 1_555
Eu0 O5 2.497596 1_565
Eu0 O4 2.497596 1_554
Eu0 O5 2.497596 1_554
Eu0 O4 2.497596 1_655
Eu0 O1 2.772216 1_666
Eu0 O1 2.772216 1_554
Eu0 O1 2.772216 1_655
Eu0 O1 2.772216 1_565
Eu1 O1 2.332408 1_555
Eu1 O6 2.497596 1_555
Eu1 O3 2.497596 1_555
Eu1 O6 2.497596 1_454
Eu1 O3 2.497596 1_544
Eu1 O2 2.772216 1_444
Eu1 O2 2.772216 1_556
Eu1 O2 2.772216 1_455
Eu1 O2 2.772216 1_545
Mn0 O3 1.949914 1_554
Mn0 O6 1.949914 1_554
Mn0 O6 1.949914 1_565
Mn0 O3 1.949914 1_655
Mn0 O2 1.973255 1_555
Mn0 O0 2.000875 1_665
Mn1 O4 1.949914 1_555
Mn1 O5 1.949914 1_454
Mn1 O4 1.949914 1_544
Mn1 O5 1.949914 1_555
Mn1 O1 1.973255 1_555
Mn1 O0 2.000875 1_555
