# generated using pymatgen
data_Sm2MnRhO6
_symmetry_space_group_name_H-M   'P 1'
_cell_length_a   5.86103400
_cell_length_b   5.48202600
_cell_length_c   9.23526780
_cell_angle_alpha   55.27465505
_cell_angle_beta   90.00000000
_cell_angle_gamma   90.00000000
_symmetry_Int_Tables_number   1
_chemical_formula_structural   Sm2MnRhO6
_chemical_formula_sum   'Sm4 Mn2 Rh2 O12'
_cell_volume   243.88194584
_cell_formula_units_Z   2
loop_
 _symmetry_equiv_pos_site_id
 _symmetry_equiv_pos_as_xyz
  1  'x, y, z'
loop_
 _atom_site_type_symbol
 _atom_site_label
 _atom_site_symmetry_multiplicity
 _atom_site_fract_x
 _atom_site_fract_y
 _atom_site_fract_z
 _atom_site_occupancy
  Sm  Sm0  1  0.57417200  0.72674600  0.75098200  1
  Sm  Sm1  1  0.07417200  0.27325400  0.74901800  1
  Sm  Sm2  1  0.42582800  0.27325400  0.24901800  1
  Sm  Sm3  1  0.92582800  0.72674600  0.25098200  1
  Mn  Mn0  1  0.50000000  0.00000000  0.00000000  1
  Mn  Mn1  1  0.00000000  0.00000000  0.50000000  1
  Rh  Rh0  1  0.50000000  0.50000000  0.50000000  1
  Rh  Rh1  1  0.00000000  0.50000000  0.00000000  1
  O  O0  1  0.96188700  0.86806800  0.74413800  1
  O  O1  1  0.46188700  0.13193200  0.75586200  1
  O  O2  1  0.03811300  0.13193200  0.25586200  1
  O  O3  1  0.53811300  0.86806800  0.24413800  1
  O  O4  1  0.80395800  0.24423900  0.94464600  1
  O  O5  1  0.30395800  0.75576100  0.55535400  1
  O  O6  1  0.19501800  0.36518300  0.44742900  1
  O  O7  1  0.69501800  0.63481700  0.05257100  1
  O  O8  1  0.19604200  0.75576100  0.05535400  1
  O  O9  1  0.69604200  0.24423900  0.44464600  1
  O  O10  1  0.80498200  0.63481700  0.55257100  1
  O  O11  1  0.30498200  0.36518300  0.94742900  1
loop_
_geom_bond_atom_site_label_1
_geom_bond_atom_site_label_2
_geom_bond_distance
_geom_bond_site_symmetry_2
Mn0 O1 1.949034 1_554
Mn0 O3 1.949034 1_545
Mn0 O11 2.107752 1_554
Mn0 O7 2.107752 1_545
Mn0 O8 2.109032 1_545
Mn0 O4 2.109032 1_554
Mn1 O0 1.949034 1_445
Mn1 O2 1.949034 1_555
Mn1 O6 2.107752 1_555
Mn1 O10 2.107752 1_445
Mn1 O5 2.109032 1_545
Mn1 O9 2.109032 1_455
O0 Rh1 2.067083 1_656
O0 Sm1 2.341601 1_665
O0 Sm0 2.390035 1_555
O1 Rh0 2.067083 1_555
O1 Sm0 2.341601 1_545
O1 Sm1 2.390035 1_555
O2 Rh1 2.067083 1_555
O2 Sm3 2.341601 1_445
O2 Sm2 2.390035 1_555
O3 Rh0 2.067083 1_555
O3 Sm2 2.341601 1_565
O3 Sm3 2.390035 1_555
O4 Rh1 2.089020 1_656
O4 Sm1 2.338845 1_655
O4 Sm0 2.572838 1_555
O4 Sm3 2.723647 1_546
O5 Rh0 2.089020 1_555
O5 Sm0 2.338845 1_555
O5 Sm1 2.572838 1_555
O5 Sm2 2.723647 1_565
O6 Rh0 2.094263 1_555
O6 Sm3 2.369080 1_455
O6 Sm2 2.548269 1_555
O6 Sm1 2.629472 1_555
O7 Rh1 2.094263 1_655
O7 Sm2 2.369080 1_555
O7 Sm3 2.548269 1_555
O7 Sm0 2.629472 1_554
O8 Rh1 2.089020 1_555
O8 Sm3 2.338845 1_455
O8 Sm2 2.572838 1_555
O8 Sm1 2.723647 1_564
O9 Rh0 2.089020 1_555
O9 Sm2 2.338845 1_555
O9 Sm3 2.572838 1_555
O9 Sm0 2.723647 1_545
O10 Rh0 2.094263 1_555
O10 Sm1 2.369080 1_655
O10 Sm0 2.548269 1_555
O10 Sm3 2.629472 1_555
O11 Rh1 2.094263 1_556
O11 Sm0 2.369080 1_555
O11 Sm1 2.548269 1_555
O11 Sm2 2.629472 1_556
