# generated using pymatgen
data_Tb17Mg11Ni8
_symmetry_space_group_name_H-M   'P 1'
_cell_length_a   3.59617674
_cell_length_b   10.90886728
_cell_length_c   21.85320761
_cell_angle_alpha   90.00000000
_cell_angle_beta   90.00000000
_cell_angle_gamma   90.00000000
_symmetry_Int_Tables_number   1
_chemical_formula_structural   Tb17Mg11Ni8
_chemical_formula_sum   'Tb17 Mg11 Ni8'
_cell_volume   857.30602800
_cell_formula_units_Z   1
loop_
 _symmetry_equiv_pos_site_id
 _symmetry_equiv_pos_as_xyz
  1  'x, y, z'
loop_
 _atom_site_type_symbol
 _atom_site_label
 _atom_site_symmetry_multiplicity
 _atom_site_fract_x
 _atom_site_fract_y
 _atom_site_fract_z
 _atom_site_occupancy
  Tb  Tb0  1  0.50000000  0.31770904  0.16211611  1
  Tb  Tb1  1  0.50000000  0.32655218  0.66023149  1
  Tb  Tb2  1  0.50000000  0.67344782  0.33976851  1
  Tb  Tb3  1  0.50000000  0.68229096  0.83788389  1
  Tb  Tb4  1  0.50000000  0.68229096  0.16211611  1
  Tb  Tb5  1  0.50000000  0.67344782  0.66023149  1
  Tb  Tb6  1  0.50000000  0.32655218  0.33976851  1
  Tb  Tb7  1  0.50000000  0.31770904  0.83788389  1
  Tb  Tb8  1  0.50000000  -0.00000000  0.13870591  1
  Tb  Tb9  1  0.50000000  -0.00000000  0.62803390  1
  Tb  Tb10  1  0.50000000  -0.00000000  0.37196610  1
  Tb  Tb11  1  0.50000000  -0.00000000  0.86129409  1
  Tb  Tb12  1  0.50000000  0.72359510  -0.00000000  1
  Tb  Tb13  1  0.50000000  0.74200158  0.50000000  1
  Tb  Tb14  1  0.50000000  0.27640490  -0.00000000  1
  Tb  Tb15  1  0.50000000  0.25799842  0.50000000  1
  Tb  Tb16  1  -0.00000000  -0.00000000  -0.00000000  1
  Mg  Mg0  1  -0.00000000  0.50000000  0.07288393  1
  Mg  Mg1  1  -0.00000000  0.50000000  0.56824822  1
  Mg  Mg2  1  -0.00000000  0.50000000  0.43175178  1
  Mg  Mg3  1  0.00000000  0.50000000  0.92711607  1
  Mg  Mg4  1  0.00000000  0.85935175  0.25539850  1
  Mg  Mg5  1  0.00000000  0.85935175  0.74460150  1
  Mg  Mg6  1  -0.00000000  0.14064825  0.25539850  1
  Mg  Mg7  1  -0.00000000  0.14064825  0.74460150  1
  Mg  Mg8  1  -0.00000000  0.50000000  0.24928230  1
  Mg  Mg9  1  -0.00000000  0.50000000  0.75071770  1
  Mg  Mg10  1  -0.00000000  -0.00000000  0.50000000  1
  Ni  Ni0  1  0.00000000  0.18876497  0.09415935  1
  Ni  Ni1  1  -0.00000000  0.19179224  0.59604784  1
  Ni  Ni2  1  0.00000000  0.80820776  0.40395216  1
  Ni  Ni3  1  -0.00000000  0.81123503  0.90584065  1
  Ni  Ni4  1  -0.00000000  0.81123503  0.09415935  1
  Ni  Ni5  1  0.00000000  0.80820776  0.59604784  1
  Ni  Ni6  1  -0.00000000  0.19179224  0.40395216  1
  Ni  Ni7  1  0.00000000  0.18876497  0.90584065  1
loop_
_geom_bond_atom_site_label_1
_geom_bond_atom_site_label_2
_geom_bond_distance
_geom_bond_site_symmetry_2
Mg0 Mg3 3.185495 1_554
Mg0 Tb0 3.315138 1_455
Mg0 Tb4 3.315138 1_555
Mg0 Tb4 3.315138 1_455
Mg0 Tb0 3.315138 1_555
Mg0 Tb14 3.423378 1_455
Mg0 Tb14 3.423378 1_555
Mg0 Tb12 3.423378 1_455
Mg0 Tb12 3.423378 1_555
Mg1 Mg2 2.982885 1_555
Mg1 Tb1 3.294519 1_555
Mg1 Tb1 3.294519 1_455
Mg1 Tb5 3.294519 1_455
Mg1 Tb5 3.294519 1_555
Mg1 Tb15 3.525185 1_455
Mg1 Tb15 3.525185 1_555
Mg1 Tb13 3.525185 1_455
Mg1 Tb13 3.525185 1_555
Mg2 Tb6 3.294519 1_555
Mg2 Tb6 3.294519 1_455
Mg2 Tb2 3.294519 1_555
Mg2 Tb2 3.294519 1_455
Mg2 Tb15 3.525185 1_555
Mg2 Tb15 3.525185 1_455
Mg2 Tb13 3.525185 1_455
Mg2 Tb13 3.525185 1_555
Mg3 Tb3 3.315138 1_455
Mg3 Tb3 3.315138 1_555
Mg3 Tb7 3.315138 1_455
Mg3 Tb7 3.315138 1_555
Mg3 Tb14 3.423378 1_556
Mg3 Tb14 3.423378 1_456
Mg3 Tb12 3.423378 1_456
Mg3 Tb12 3.423378 1_556
Mg4 Mg6 3.068626 1_565
Mg4 Tb2 3.278009 1_455
Mg4 Tb2 3.278009 1_555
Mg4 Ni2 3.293968 1_555
Mg4 Tb4 3.334592 1_555
Mg4 Tb4 3.334592 1_455
Mg4 Tb10 3.475106 1_465
Mg4 Tb10 3.475106 1_565
Mg4 Tb8 3.477109 1_465
Mg4 Tb8 3.477109 1_565
Mg5 Mg7 3.068626 1_565
Mg5 Tb5 3.278009 1_455
Mg5 Tb5 3.278009 1_555
Mg5 Ni5 3.293968 1_555
Mg5 Tb3 3.334592 1_455
Mg5 Tb3 3.334592 1_555
Mg5 Tb9 3.475106 1_565
Mg5 Tb9 3.475106 1_465
Mg5 Tb11 3.477109 1_465
Mg5 Tb11 3.477109 1_565
Mg6 Tb6 3.278009 1_555
Mg6 Tb6 3.278009 1_455
Mg6 Ni6 3.293968 1_555
Mg6 Tb0 3.334592 1_555
Mg6 Tb0 3.334592 1_455
Mg6 Tb10 3.475106 1_455
Mg6 Tb10 3.475106 1_555
Mg6 Tb8 3.477109 1_455
Mg6 Tb8 3.477109 1_555
Mg7 Tb1 3.278009 1_555
Mg7 Tb1 3.278009 1_455
Mg7 Ni1 3.293968 1_555
Mg7 Tb7 3.334592 1_455
Mg7 Tb7 3.334592 1_555
Mg7 Tb9 3.475106 1_455
Mg7 Tb9 3.475106 1_555
Mg7 Tb11 3.477109 1_555
Mg7 Tb11 3.477109 1_455
Mg8 Tb6 3.274661 1_455
Mg8 Tb6 3.274661 1_555
Mg8 Tb2 3.274661 1_455
Mg8 Tb2 3.274661 1_555
Mg8 Tb4 3.288784 1_455
Mg8 Tb0 3.288784 1_555
Mg8 Tb0 3.288784 1_455
Mg8 Tb4 3.288784 1_555
Mg9 Tb1 3.274661 1_455
Mg9 Tb1 3.274661 1_555
Mg9 Tb5 3.274661 1_455
Mg9 Tb5 3.274661 1_555
Mg9 Tb3 3.288784 1_455
Mg9 Tb3 3.288784 1_555
Mg9 Tb7 3.288784 1_455
Mg9 Tb7 3.288784 1_555
Mg10 Ni5 2.963622 1_545
Mg10 Ni2 2.963622 1_545
Mg10 Ni6 2.963622 1_555
Mg10 Ni1 2.963622 1_555
Ni0 Tb0 2.723451 1_555
Ni0 Tb0 2.723451 1_455
Ni0 Tb14 2.895034 1_455
Ni0 Tb14 2.895034 1_555
Ni0 Tb8 2.901922 1_455
Ni0 Tb8 2.901922 1_555
Ni0 Tb16 2.911085 1_555
Ni1 Tb1 2.713225 1_455
Ni1 Tb1 2.713225 1_555
Ni1 Tb9 2.845904 1_555
Ni1 Tb9 2.845904 1_455
Ni1 Tb15 2.856633 1_455
Ni1 Tb15 2.856633 1_555
Ni2 Tb2 2.713225 1_555
Ni2 Tb2 2.713225 1_455
Ni2 Tb10 2.845904 1_465
Ni2 Tb10 2.845904 1_565
Ni2 Tb13 2.856633 1_455
Ni2 Tb13 2.856633 1_555
Ni3 Tb3 2.723451 1_555
Ni3 Tb3 2.723451 1_455
Ni3 Tb12 2.895034 1_556
Ni3 Tb12 2.895034 1_456
Ni3 Tb11 2.901922 1_565
Ni3 Tb11 2.901922 1_465
Ni3 Tb16 2.911085 1_566
Ni4 Tb4 2.723451 1_555
Ni4 Tb4 2.723451 1_455
Ni4 Tb12 2.895034 1_455
Ni4 Tb12 2.895034 1_555
Ni4 Tb8 2.901922 1_565
Ni4 Tb8 2.901922 1_465
Ni4 Tb16 2.911085 1_565
Ni5 Tb5 2.713225 1_455
Ni5 Tb5 2.713225 1_555
Ni5 Tb9 2.845904 1_565
Ni5 Tb9 2.845904 1_465
Ni5 Tb13 2.856633 1_455
Ni5 Tb13 2.856633 1_555
Ni6 Tb6 2.713225 1_455
Ni6 Tb6 2.713225 1_555
Ni6 Tb10 2.845904 1_455
Ni6 Tb10 2.845904 1_555
Ni6 Tb15 2.856633 1_455
Ni6 Tb15 2.856633 1_555
Ni7 Tb7 2.723451 1_455
Ni7 Tb7 2.723451 1_555
Ni7 Tb14 2.895034 1_456
Ni7 Tb14 2.895034 1_556
Ni7 Tb11 2.901922 1_455
Ni7 Tb11 2.901922 1_555
Ni7 Tb16 2.911085 1_556
