# generated using pymatgen
data_TeMoWSeS2
_symmetry_space_group_name_H-M   'P 1'
_cell_length_a   3.30932430
_cell_length_b   3.30932430
_cell_length_c   37.71398900
_cell_angle_alpha   90.00000000
_cell_angle_beta   90.00000000
_cell_angle_gamma   120.00000600
_symmetry_Int_Tables_number   1
_chemical_formula_structural   TeMoWSeS2
_chemical_formula_sum   'Te2 Mo2 W2 Se2 S4'
_cell_volume   357.69406328
_cell_formula_units_Z   2
loop_
 _symmetry_equiv_pos_site_id
 _symmetry_equiv_pos_as_xyz
  1  'x, y, z'
loop_
 _atom_site_type_symbol
 _atom_site_label
 _atom_site_symmetry_multiplicity
 _atom_site_fract_x
 _atom_site_fract_y
 _atom_site_fract_z
 _atom_site_occupancy
  Te  Te0  1  0.33333300  0.66666700  0.70848200  1
  Te  Te1  1  0.33333300  0.66666700  0.60663200  1
  Mo  Mo0  1  0.33333300  0.66666700  0.09393100  1
  Mo  Mo1  1  0.33333300  0.66666700  0.46961700  1
  W  W0  1  0.66666700  0.33333300  0.28180500  1
  W  W1  1  0.66666700  0.33333300  0.65756600  1
  Se  Se0  1  0.66666700  0.33333300  0.42528200  1
  Se  Se1  1  0.66666700  0.33333300  0.51399100  1
  S  S0  1  0.33333300  0.66666700  0.32242100  1
  S  S1  1  0.66666700  0.33333300  0.05333600  1
  S  S2  1  0.66666700  0.33333300  0.13451900  1
  S  S3  1  0.33333300  0.66666700  0.24116800  1
loop_
_geom_bond_atom_site_label_1
_geom_bond_atom_site_label_2
_geom_bond_distance
_geom_bond_site_symmetry_2
Te0 W1 2.708852 1_455
Te0 W1 2.708852 1_565
Te0 W1 2.708856 1_555
Te1 W1 2.709333 1_455
Te1 W1 2.709333 1_565
Te1 W1 2.709337 1_555
Mo0 S2 2.448200 1_455
Mo0 S2 2.448200 1_565
Mo0 S2 2.448205 1_555
Mo0 S1 2.448366 1_455
Mo0 S1 2.448366 1_565
Mo0 S1 2.448370 1_555
Mo1 Se0 2.538954 1_455
Mo1 Se0 2.538954 1_565
Mo1 Se0 2.538958 1_555
Mo1 Se1 2.539922 1_455
Mo1 Se1 2.539922 1_565
Mo1 Se1 2.539927 1_555
S0 W0 2.448861 1_455
S0 W0 2.448861 1_565
S0 W0 2.448865 1_555
S3 W0 2.449356 1_565
S3 W0 2.449356 1_455
S3 W0 2.449361 1_555
