# generated using pymatgen
data_CaCr4(PO4)4
_symmetry_space_group_name_H-M   'P 1'
_cell_length_a   9.51728284
_cell_length_b   5.70299139
_cell_length_c   6.38765238
_cell_angle_alpha   100.63322291
_cell_angle_beta   103.69511192
_cell_angle_gamma   78.62412883
_symmetry_Int_Tables_number   1
_chemical_formula_structural   CaCr4(PO4)4
_chemical_formula_sum   'Ca1 Cr4 P4 O16'
_cell_volume   326.75256996
_cell_formula_units_Z   1
loop_
 _symmetry_equiv_pos_site_id
 _symmetry_equiv_pos_as_xyz
  1  'x, y, z'
loop_
 _atom_site_type_symbol
 _atom_site_label
 _atom_site_symmetry_multiplicity
 _atom_site_fract_x
 _atom_site_fract_y
 _atom_site_fract_z
 _atom_site_occupancy
  Ca  Ca0  1  0.34288500  0.40736800  0.10041000  1
  Cr  Cr0  1  0.07084800  0.27671200  0.33743800  1
  Cr  Cr1  1  0.28809000  0.82223200  0.57269700  1
  Cr  Cr2  1  0.70148600  0.12790300  0.42268300  1
  Cr  Cr3  1  0.92731600  0.74750900  0.67321200  1
  P  P0  1  0.02887400  0.18243600  0.79104400  1
  P  P1  1  0.40457500  0.31319200  0.64790200  1
  P  P2  1  0.59745900  0.69715100  0.35133000  1
  P  P3  1  0.96903700  0.81728600  0.20893500  1
  O  O0  1  0.03887100  0.37752200  0.65463000  1
  O  O1  1  0.11036200  0.92039900  0.72101600  1
  O  O2  1  0.09609200  0.26864300  0.02700600  1
  O  O3  1  0.13585700  0.82494600  0.25876800  1
  O  O4  1  0.29266900  0.31451300  0.42164400  1
  O  O5  1  0.37664900  0.12830400  0.77713900  1
  O  O6  1  0.37761000  0.56058900  0.79371000  1
  O  O7  1  0.44028800  0.71957800  0.38528100  1
  O  O8  1  0.55964400  0.26337900  0.60137100  1
  O  O9  1  0.64039600  0.42677600  0.26107800  1
  O  O10  1  0.59809900  0.88954800  0.20437700  1
  O  O11  1  0.70969800  0.78522600  0.56258700  1
  O  O12  1  0.86866200  0.12625300  0.73410500  1
  O  O13  1  0.91294100  0.72817200  0.96882100  1
  O  O14  1  0.88736900  0.07647900  0.28327800  1
  O  O15  1  0.93671900  0.65026700  0.35412100  1
loop_
_geom_bond_atom_site_label_1
_geom_bond_atom_site_label_2
_geom_bond_distance
_geom_bond_site_symmetry_2
Ca0 O4 2.384208 1_555
Ca0 O6 2.400643 1_554
Ca0 O5 2.408270 1_554
Ca0 O7 2.448981 1_555
Ca0 O2 2.537183 1_555
Ca0 O9 2.790809 1_555
Ca0 O3 2.963180 1_555
Cr0 O2 2.044359 1_555
Cr0 O0 2.078787 1_555
Cr0 O4 2.095645 1_555
Cr0 O14 2.197216 1_455
Cr0 O15 2.255494 1_455
Cr0 O3 2.512735 1_545
Cr1 O7 2.025343 1_555
Cr1 O1 2.064376 1_555
Cr1 O6 2.156802 1_555
Cr1 O5 2.163468 1_565
Cr1 O3 2.178853 1_555
Cr2 O8 1.927380 1_555
Cr2 O10 1.984669 1_545
Cr2 O9 2.069553 1_555
Cr2 O14 2.110345 1_555
Cr2 O12 2.234061 1_555
Cr2 O11 2.274896 1_545
Cr3 O13 1.949738 1_555
Cr3 O11 2.005627 1_555
Cr3 O15 2.029688 1_555
Cr3 O1 2.101177 1_655
Cr3 O12 2.108436 1_565
Cr3 O0 2.162645 1_655
O0 P0 1.563629 1_555
O1 P0 1.579604 1_565
O2 P0 1.522097 1_554
O3 P3 1.551407 1_455
O4 P1 1.579600 1_555
O5 P1 1.549060 1_555
O6 P1 1.552208 1_555
O7 P2 1.539099 1_555
O8 P1 1.535672 1_555
O9 P2 1.553018 1_555
O10 P2 1.571796 1_555
O11 P2 1.579023 1_555
O12 P0 1.564301 1_655
O13 P3 1.525578 1_556
O14 P3 1.573889 1_545
O15 P3 1.561595 1_555
