# generated using pymatgen
data_Pr2AlFe16
_symmetry_space_group_name_H-M   'P 1'
_cell_length_a   6.47215976
_cell_length_b   6.47215976
_cell_length_c   6.47215959
_cell_angle_alpha   82.75117038
_cell_angle_beta   82.75117038
_cell_angle_gamma   82.75117239
_symmetry_Int_Tables_number   1
_chemical_formula_structural   Pr2AlFe16
_chemical_formula_sum   'Pr2 Al1 Fe16'
_cell_volume   265.11508887
_cell_formula_units_Z   1
loop_
 _symmetry_equiv_pos_site_id
 _symmetry_equiv_pos_as_xyz
  1  'x, y, z'
loop_
 _atom_site_type_symbol
 _atom_site_label
 _atom_site_symmetry_multiplicity
 _atom_site_fract_x
 _atom_site_fract_y
 _atom_site_fract_z
 _atom_site_occupancy
  Pr  Pr0  1  0.65736900  0.65736900  0.65736900  1
  Pr  Pr1  1  0.34480300  0.34480300  0.34480300  1
  Al  Al0  1  0.09504700  0.09504700  0.09504700  1
  Fe  Fe0  1  0.71499300  0.28481800  0.00050600  1
  Fe  Fe1  1  0.00050600  0.71499300  0.28481800  1
  Fe  Fe2  1  0.28481800  0.00050600  0.71499300  1
  Fe  Fe3  1  0.00050600  0.28481800  0.71499300  1
  Fe  Fe4  1  0.71499300  0.00050600  0.28481800  1
  Fe  Fe5  1  0.28481800  0.71499300  0.00050600  1
  Fe  Fe6  1  0.99990600  0.99990600  0.50047600  1
  Fe  Fe7  1  0.50047600  0.99990600  0.99990600  1
  Fe  Fe8  1  0.99990600  0.50047600  0.99990600  1
  Fe  Fe9  1  0.34137100  0.34137100  0.84513500  1
  Fe  Fe10  1  0.84513500  0.34137100  0.34137100  1
  Fe  Fe11  1  0.34137100  0.84513500  0.34137100  1
  Fe  Fe12  1  0.65869000  0.65869000  0.15548400  1
  Fe  Fe13  1  0.15548400  0.65869000  0.65869000  1
  Fe  Fe14  1  0.65869000  0.15548400  0.65869000  1
  Fe  Fe15  1  0.90111900  0.90111900  0.90111900  1
loop_
_geom_bond_atom_site_label_1
_geom_bond_atom_site_label_2
_geom_bond_distance
_geom_bond_site_symmetry_2
Al0 Fe15 2.432845 1_444
Al0 Fe6 2.631331 1_445
Al0 Fe7 2.631331 1_544
Al0 Fe8 2.631331 1_454
Al0 Fe9 2.653183 1_554
Al0 Fe11 2.653183 1_545
Al0 Fe10 2.653183 1_455
Al0 Fe2 2.713148 1_554
Al0 Fe3 2.713148 1_554
Al0 Fe4 2.713148 1_455
Al0 Fe1 2.713148 1_545
Al0 Fe0 2.713148 1_455
Al0 Fe5 2.713148 1_545
Al0 Pr1 3.133213 1_555
Fe0 Fe4 2.432600 1_555
Fe0 Fe3 2.442876 1_654
Fe0 Fe7 2.444833 1_544
Fe0 Fe8 2.448446 1_554
Fe0 Fe10 2.541845 1_555
Fe0 Fe14 2.544688 1_554
Fe0 Fe9 2.699997 1_554
Fe0 Fe12 2.700345 1_555
Fe0 Fe15 2.735806 1_544
Fe0 Pr1 3.081068 1_555
Fe0 Pr0 3.084781 1_554
Fe1 Fe5 2.432600 1_555
Fe1 Fe4 2.442876 1_465
Fe1 Fe8 2.444833 1_454
Fe1 Fe6 2.448446 1_455
Fe1 Fe11 2.541845 1_555
Fe1 Fe12 2.544688 1_455
Fe1 Fe10 2.699997 1_455
Fe1 Fe13 2.700344 1_555
Fe1 Fe15 2.735806 1_454
Fe1 Pr1 3.081068 1_555
Fe1 Pr0 3.084781 1_455
Fe2 Fe3 2.432600 1_555
Fe2 Fe5 2.442876 1_546
Fe2 Fe6 2.444833 1_445
Fe2 Fe7 2.448446 1_545
Fe2 Fe9 2.541845 1_555
Fe2 Pr1 3.081068 1_555
Fe2 Pr0 3.084782 1_545
Fe3 Fe6 2.444833 1_445
Fe3 Fe8 2.448446 1_455
Fe3 Fe9 2.541845 1_555
Fe3 Pr1 3.081068 1_555
Fe3 Pr0 3.084782 1_455
Fe4 Fe7 2.444833 1_544
Fe4 Fe6 2.448446 1_545
Fe4 Pr1 3.081068 1_555
Fe4 Pr0 3.084781 1_545
Fe5 Fe8 2.444833 1_454
Fe5 Fe7 2.448446 1_554
Fe5 Fe9 2.699997 1_554
Fe5 Pr1 3.081068 1_555
Fe5 Pr0 3.084781 1_554
Fe6 Pr0 3.311342 1_555
Fe6 Pr1 3.332139 1_665
Fe7 Fe9 2.464814 1_565
Fe7 Pr0 3.311342 1_555
Fe7 Pr1 3.332139 1_566
Fe8 Fe9 2.464814 1_655
Fe8 Pr0 3.311342 1_555
Fe8 Pr1 3.332139 1_656
Fe9 Pr0 3.105410 1_555
Fe9 Pr1 3.232790 1_555
Fe9 Pr1 3.239703 1_556
Fe10 Fe8 2.464814 1_554
Fe10 Fe6 2.464814 1_545
Fe10 Fe14 2.497764 1_555
Fe10 Fe12 2.497765 1_555
Fe10 Fe4 2.541845 1_555
Fe10 Fe3 2.699997 1_655
Fe10 Pr0 3.105410 1_555
Fe10 Pr1 3.232790 1_555
Fe10 Pr1 3.239703 1_655
Fe11 Fe7 2.464814 1_554
Fe11 Fe6 2.464814 1_455
Fe11 Fe13 2.497764 1_555
Fe11 Fe12 2.497765 1_555
Fe11 Fe5 2.541845 1_555
Fe11 Fe2 2.699997 1_565
Fe11 Fe4 2.699997 1_565
Fe11 Pr0 3.105410 1_555
Fe11 Pr1 3.232790 1_555
Fe11 Pr1 3.239703 1_565
Fe12 Fe7 2.463302 1_554
Fe12 Fe8 2.463302 1_554
Fe12 Fe4 2.544688 1_565
Fe12 Fe15 2.636587 1_554
Fe12 Fe5 2.700345 1_555
Fe12 Pr1 3.088806 1_555
Fe12 Pr0 3.226062 1_554
Fe12 Pr0 3.246147 1_555
Fe13 Fe8 2.463302 1_455
Fe13 Fe6 2.463302 1_455
Fe13 Fe9 2.497765 1_555
Fe13 Fe5 2.544688 1_556
Fe13 Fe2 2.544688 1_565
Fe13 Fe15 2.636587 1_455
Fe13 Fe3 2.700345 1_555
Fe13 Pr1 3.088806 1_555
Fe13 Pr0 3.226062 1_455
Fe13 Pr0 3.246147 1_555
Fe14 Fe7 2.463302 1_545
Fe14 Fe6 2.463302 1_545
Fe14 Fe9 2.497765 1_555
Fe14 Fe3 2.544688 1_655
Fe14 Fe15 2.636587 1_545
Fe14 Fe4 2.700344 1_555
Fe14 Fe2 2.700345 1_555
Fe14 Pr1 3.088806 1_555
Fe14 Pr0 3.226062 1_545
Fe14 Pr0 3.246147 1_555
Fe15 Fe6 2.609168 1_555
Fe15 Fe8 2.609168 1_555
Fe15 Fe7 2.609168 1_555
Fe15 Fe4 2.735806 1_566
Fe15 Fe3 2.735806 1_665
Fe15 Fe2 2.735806 1_665
Fe15 Fe5 2.735806 1_656
Fe15 Pr0 3.057867 1_555
