# generated using pymatgen
data_Li9Mn2Co5O16
_symmetry_space_group_name_H-M   'P 1'
_cell_length_a   2.97634900
_cell_length_b   6.43756389
_cell_length_c   15.41004482
_cell_angle_alpha   88.66751922
_cell_angle_beta   87.34508452
_cell_angle_gamma   76.96007776
_symmetry_Int_Tables_number   1
_chemical_formula_structural   Li9Mn2Co5O16
_chemical_formula_sum   'Li9 Mn2 Co5 O16'
_cell_volume   287.31564454
_cell_formula_units_Z   1
loop_
 _symmetry_equiv_pos_site_id
 _symmetry_equiv_pos_as_xyz
  1  'x, y, z'
loop_
 _atom_site_type_symbol
 _atom_site_label
 _atom_site_symmetry_multiplicity
 _atom_site_fract_x
 _atom_site_fract_y
 _atom_site_fract_z
 _atom_site_occupancy
  Li  Li0  1  0.55269800  0.88119300  0.68649900  1
  Li  Li1  1  0.81859000  0.37192400  0.44021500  1
  Li  Li2  1  0.07379300  0.87027500  0.19119000  1
  Li  Li3  1  0.18141000  0.62807600  0.55978500  1
  Li  Li4  1  0.44730200  0.11880700  0.31350100  1
  Li  Li5  1  0.68315700  0.63017900  0.06217600  1
  Li  Li6  1  0.31684300  0.36982100  0.93782400  1
  Li  Li7  1  0.92620700  0.12972500  0.80881000  1
  Li  Li8  1  0.50000000  0.00000000  0.50000000  1
  Mn  Mn0  1  0.63238600  0.74774400  0.87693200  1
  Mn  Mn1  1  0.36761400  0.25225600  0.12306800  1
  Co  Co0  1  0.87865600  0.23857700  0.61850300  1
  Co  Co1  1  0.12134400  0.76142300  0.38149700  1
  Co  Co2  1  0.75210300  0.50454100  0.25280600  1
  Co  Co3  1  0.00000000  0.00000000  0.00000000  1
  Co  Co4  1  0.24789700  0.49545900  0.74719400  1
  O  O0  1  0.07149400  0.79881900  0.78405800  1
  O  O1  1  0.32420600  0.30741600  0.53840500  1
  O  O2  1  0.57563600  0.79743700  0.28421900  1
  O  O3  1  0.73190600  0.53799300  0.65745500  1
  O  O4  1  0.97983800  0.03458400  0.40114200  1
  O  O5  1  0.22385100  0.55089700  0.15911300  1
  O  O6  1  0.81526400  0.29697800  0.03225800  1
  O  O7  1  0.49894000  0.04459900  0.91711000  1
  O  O8  1  0.02016200  0.96541600  0.59885800  1
  O  O9  1  0.26809400  0.46200700  0.34254500  1
  O  O10  1  0.50106000  0.95540100  0.08289000  1
  O  O11  1  0.67579400  0.69258400  0.46159500  1
  O  O12  1  0.92850600  0.20118100  0.21594200  1
  O  O13  1  0.18473600  0.70302200  0.96774200  1
  O  O14  1  0.77614900  0.44910300  0.84088700  1
  O  O15  1  0.42436400  0.20256300  0.71578100  1
loop_
_geom_bond_atom_site_label_1
_geom_bond_atom_site_label_2
_geom_bond_distance
_geom_bond_site_symmetry_2
Li0 O8 2.045986 1_655
Li0 O15 2.073756 1_565
Li0 O8 2.099209 1_555
Li0 O0 2.167682 1_555
Li0 O0 2.175812 1_655
Li0 O3 2.204139 1_555
Li1 O11 2.042827 1_555
Li1 O9 2.124741 1_655
Li1 O1 2.150900 1_655
Li1 O1 2.160420 1_555
Li1 O4 2.207409 1_555
Li1 O9 2.246173 1_555
Li2 O5 2.069651 1_555
Li2 O2 2.087366 1_555
Li2 O12 2.115934 1_465
Li2 O2 2.135168 1_455
Li2 O10 2.185887 1_555
Li2 O10 2.406424 1_455
Li3 O1 2.042827 1_555
Li3 O3 2.124741 1_455
Li3 O11 2.150900 1_455
Li3 O11 2.160420 1_555
Li3 O8 2.207409 1_555
Li3 O3 2.246173 1_555
Li4 O4 2.045986 1_455
Li4 O2 2.073756 1_545
Li4 O4 2.099209 1_555
Li4 O12 2.167682 1_555
Li4 O12 2.175812 1_455
Li4 O9 2.204139 1_555
Li5 O10 2.069289 1_555
Li5 O13 2.095861 1_554
Li5 O5 2.109737 1_555
Li5 O6 2.148674 1_555
Li5 O13 2.156196 1_654
Li5 O5 2.213226 1_655
Li6 O7 2.069289 1_555
Li6 O6 2.095861 1_556
Li6 O14 2.109737 1_555
Li6 O13 2.148674 1_555
Li6 O6 2.156196 1_456
Li6 O14 2.213226 1_455
Li7 O14 2.069651 1_555
Li7 O15 2.087366 1_555
Li7 O0 2.115934 1_645
Li7 O15 2.135168 1_655
Li7 O7 2.185887 1_555
Li7 O7 2.406424 1_655
Li8 O1 2.024604 1_555
Li8 O11 2.024604 1_545
Li8 O4 2.082341 1_555
Li8 O8 2.082341 1_545
Li8 O8 2.194171 1_645
Li8 O4 2.194171 1_455
Mn0 O13 1.948844 1_555
Mn0 O14 1.960646 1_555
Mn0 O0 1.965517 1_655
Mn0 O7 1.970490 1_565
Mn0 O13 2.173630 1_655
Mn0 O0 2.212490 1_555
Mn1 O6 1.948844 1_555
Mn1 O5 1.960646 1_555
Mn1 O12 1.965517 1_455
Mn1 O10 1.970490 1_545
Mn1 O6 2.173630 1_455
Mn1 O12 2.212490 1_555
Co0 O8 1.743575 1_645
Co0 O1 1.888546 1_655
Co0 O3 1.978883 1_555
Co0 O15 2.016608 1_555
Co0 O1 2.067958 1_555
Co0 O15 2.231251 1_655
Co1 O4 1.743575 1_465
Co1 O11 1.888546 1_455
Co1 O9 1.978883 1_555
Co1 O2 2.016608 1_555
Co1 O11 2.067958 1_555
Co1 O2 2.231251 1_455
Co2 O2 1.907207 1_555
Co2 O12 1.993353 1_555
Co2 O9 2.009588 1_555
Co2 O5 2.031341 1_655
Co2 O9 2.082139 1_655
Co2 O5 2.150394 1_555
Co3 O6 1.936229 1_455
Co3 O13 1.936229 1_544
Co3 O7 1.975928 1_454
Co3 O10 1.975928 1_545
Co3 O7 1.979627 1_554
Co3 O10 1.979627 1_445
Co4 O15 1.907207 1_555
Co4 O0 1.993353 1_555
Co4 O3 2.009588 1_555
Co4 O14 2.031341 1_455
Co4 O3 2.082139 1_455
Co4 O14 2.150394 1_555
