# generated using pymatgen
data_BaTi(IO3)6
_symmetry_space_group_name_H-M   'P 1'
_cell_length_a   7.66857951
_cell_length_b   7.66857951
_cell_length_c   7.66857964
_cell_angle_alpha   97.77107791
_cell_angle_beta   97.77107791
_cell_angle_gamma   97.77107196
_symmetry_Int_Tables_number   1
_chemical_formula_structural   BaTi(IO3)6
_chemical_formula_sum   'Ba1 Ti1 I6 O18'
_cell_volume   437.27666329
_cell_formula_units_Z   1
loop_
 _symmetry_equiv_pos_site_id
 _symmetry_equiv_pos_as_xyz
  1  'x, y, z'
loop_
 _atom_site_type_symbol
 _atom_site_label
 _atom_site_symmetry_multiplicity
 _atom_site_fract_x
 _atom_site_fract_y
 _atom_site_fract_z
 _atom_site_occupancy
  Ba  Ba0  1  0.62115400  0.62115400  0.62115400  1
  Ti  Ti0  1  0.00929700  0.00929700  0.00929700  1
  I  I0  1  0.62934400  0.84199500  0.19956800  1
  I  I1  1  0.19956800  0.62934400  0.84199500  1
  I  I2  1  0.84199500  0.19956800  0.62934400  1
  I  I3  1  0.37204600  0.16106300  0.79287300  1
  I  I4  1  0.79287300  0.37204600  0.16106300  1
  I  I5  1  0.16106300  0.79287300  0.37204600  1
  O  O0  1  0.79759200  0.83475000  0.04424700  1
  O  O1  1  0.04424700  0.79759200  0.83475000  1
  O  O2  1  0.83475000  0.04424700  0.79759200  1
  O  O3  1  0.20036400  0.16516300  0.94786100  1
  O  O4  1  0.94786100  0.20036400  0.16516300  1
  O  O5  1  0.16516300  0.94786100  0.20036400  1
  O  O6  1  0.58172700  0.60090800  0.18907800  1
  O  O7  1  0.18907800  0.58172700  0.60090800  1
  O  O8  1  0.60090800  0.18907800  0.58172700  1
  O  O9  1  0.42156600  0.40419600  0.81432700  1
  O  O10  1  0.81432700  0.42156600  0.40419600  1
  O  O11  1  0.40419600  0.81432700  0.42156600  1
  O  O12  1  0.78847000  0.88611100  0.41066100  1
  O  O13  1  0.41066100  0.78847000  0.88611100  1
  O  O14  1  0.88611100  0.41066100  0.78847000  1
  O  O15  1  0.20511700  0.10652100  0.59356000  1
  O  O16  1  0.59356000  0.20511700  0.10652100  1
  O  O17  1  0.10652100  0.59356000  0.20511700  1
loop_
_geom_bond_atom_site_label_1
_geom_bond_atom_site_label_2
_geom_bond_distance
_geom_bond_site_symmetry_2
Ba0 O11 2.810009 1_555
Ba0 O10 2.810009 1_555
Ba0 O9 2.810009 1_555
Ba0 O14 3.020312 1_555
Ba0 O13 3.020312 1_555
Ba0 O12 3.020312 1_555
Ba0 O8 3.266721 1_555
Ba0 O7 3.266721 1_555
Ba0 O6 3.266721 1_555
Ba0 O0 3.437569 1_556
Ba0 O1 3.437569 1_655
Ba0 O2 3.437569 1_565
I0 O6 1.824040 1_555
I0 O12 1.852035 1_555
I0 O0 1.871775 1_555
I0 O11 2.591860 1_555
I1 O7 1.824040 1_555
I1 O13 1.852035 1_555
I1 O1 1.871775 1_555
I1 O9 2.591860 1_555
I2 O8 1.824040 1_555
I2 O14 1.852035 1_555
I2 O2 1.871775 1_555
I2 O10 2.591860 1_555
I3 O15 1.817409 1_555
I3 O9 1.832009 1_555
I3 O3 1.889758 1_555
I4 O16 1.817409 1_555
I4 O10 1.832009 1_555
I4 O4 1.889758 1_555
I5 O17 1.817409 1_555
I5 O11 1.832009 1_555
I5 O5 1.889758 1_555
O0 Ti0 2.031302 1_665
O1 Ti0 2.031302 1_566
O2 Ti0 2.031302 1_656
O3 Ti0 1.913853 1_556
O4 Ti0 1.913853 1_655
O5 Ti0 1.913853 1_565
