# generated using pymatgen
data_CsCdN
_symmetry_space_group_name_H-M   'P 1'
_cell_length_a   12.12666500
_cell_length_b   3.92625600
_cell_length_c   7.38117900
_cell_angle_alpha   90.00000000
_cell_angle_beta   90.00000000
_cell_angle_gamma   90.00000000
_symmetry_Int_Tables_number   1
_chemical_formula_structural   CsCdN
_chemical_formula_sum   'Cs4 Cd4 N4'
_cell_volume   351.43558219
_cell_formula_units_Z   4
loop_
 _symmetry_equiv_pos_site_id
 _symmetry_equiv_pos_as_xyz
  1  'x, y, z'
loop_
 _atom_site_type_symbol
 _atom_site_label
 _atom_site_symmetry_multiplicity
 _atom_site_fract_x
 _atom_site_fract_y
 _atom_site_fract_z
 _atom_site_occupancy
  Cs  Cs0  1  0.65612800  0.25000000  0.05594200  1
  Cs  Cs1  1  0.15612800  0.25000000  0.44405800  1
  Cs  Cs2  1  0.34387200  0.75000000  0.94405800  1
  Cs  Cs3  1  0.84387200  0.75000000  0.55594200  1
  Cd  Cd0  1  0.55789200  0.25000000  0.61678200  1
  Cd  Cd1  1  0.05789200  0.25000000  0.88321800  1
  Cd  Cd2  1  0.44210800  0.75000000  0.38321800  1
  Cd  Cd3  1  0.94210800  0.75000000  0.11678200  1
  N  N0  1  0.91544600  0.25000000  0.22087100  1
  N  N1  1  0.41544600  0.25000000  0.27912900  1
  N  N2  1  0.08455400  0.75000000  0.77912900  1
  N  N3  1  0.58455400  0.75000000  0.72087100  1
loop_
_geom_bond_atom_site_label_1
_geom_bond_atom_site_label_2
_geom_bond_distance
_geom_bond_site_symmetry_2
Cs0 N3 3.274756 1_544
Cs0 N3 3.274756 1_554
Cs0 N1 3.351493 1_555
Cs0 N0 3.372076 1_555
Cs1 N2 3.274756 1_555
Cs1 N2 3.274756 1_545
Cs1 N0 3.351493 1_455
Cs1 N1 3.372076 1_555
Cs2 N1 3.274756 1_566
Cs2 N1 3.274756 1_556
Cs2 N3 3.351493 1_555
Cs2 N2 3.372076 1_555
Cs3 N0 3.274756 1_565
Cs3 N0 3.274756 1_555
Cs3 N2 3.351493 1_655
Cs3 N3 3.372076 1_555
Cd0 N3 2.132766 1_545
Cd0 N3 2.132766 1_555
Cd1 N2 2.132766 1_555
Cd1 N2 2.132766 1_545
Cd2 N1 2.132766 1_565
Cd2 N1 2.132766 1_555
Cd3 N0 2.132766 1_555
Cd3 N0 2.132766 1_565
