# generated using pymatgen
data_Yb11AlSb9
_symmetry_space_group_name_H-M   'P 1'
_cell_length_a   12.01074634
_cell_length_b   12.01074634
_cell_length_c   12.01074634
_cell_angle_alpha   121.14367572
_cell_angle_beta   117.68722674
_cell_angle_gamma   91.04109027
_symmetry_Int_Tables_number   1
_chemical_formula_structural   Yb11AlSb9
_chemical_formula_sum   'Yb22 Al2 Sb18'
_cell_volume   1234.39541464
_cell_formula_units_Z   2
loop_
 _symmetry_equiv_pos_site_id
 _symmetry_equiv_pos_as_xyz
  1  'x, y, z'
loop_
 _atom_site_type_symbol
 _atom_site_label
 _atom_site_symmetry_multiplicity
 _atom_site_fract_x
 _atom_site_fract_y
 _atom_site_fract_z
 _atom_site_occupancy
  Yb  Yb0  1  0.04380600  0.28837500  0.12499900  1
  Yb  Yb1  1  0.16337600  0.91880800  0.87500100  1
  Yb  Yb2  1  0.54380600  0.41880800  0.75543200  1
  Yb  Yb3  1  0.66337600  0.78837500  0.24456800  1
  Yb  Yb4  1  0.40040700  0.53051500  0.23638700  1
  Yb  Yb5  1  0.29412800  0.16402000  0.76361300  1
  Yb  Yb6  1  0.90040700  0.66402000  0.86989200  1
  Yb  Yb7  1  0.79412800  0.03051500  0.13010800  1
  Yb  Yb8  1  0.80256900  0.63820400  0.48950900  1
  Yb  Yb9  1  0.14869500  0.31305900  0.51049100  1
  Yb  Yb10  1  0.30256900  0.81305900  0.16436400  1
  Yb  Yb11  1  0.64869500  0.13820400  0.83563600  1
  Yb  Yb12  1  0.86165100  0.54514800  0.13716100  1
  Yb  Yb13  1  0.40798700  0.72449000  0.86283900  1
  Yb  Yb14  1  0.36165100  0.22449000  0.31650300  1
  Yb  Yb15  1  0.90798700  0.04514800  0.68349700  1
  Yb  Yb16  1  0.53901900  0.24541900  0.15387100  1
  Yb  Yb17  1  0.09154700  0.38514800  0.84612900  1
  Yb  Yb18  1  0.03901900  0.88514800  0.29360000  1
  Yb  Yb19  1  0.59154700  0.74541900  0.70640000  1
  Yb  Yb20  1  0.29792000  0.79792000  0.50000000  1
  Yb  Yb21  1  0.79792000  0.29792000  0.50000000  1
  Al  Al0  1  0.58039800  0.08039800  0.50000000  1
  Al  Al1  1  0.08039800  0.58039800  0.50000000  1
  Sb  Sb0  1  0.22325000  0.22325000  0.00000000  1
  Sb  Sb1  1  0.72325000  0.72325000  0.00000000  1
  Sb  Sb2  1  0.58696900  0.84351600  0.48617500  1
  Sb  Sb3  1  0.35734000  0.10079400  0.51382500  1
  Sb  Sb4  1  0.08696900  0.60079400  0.74345400  1
  Sb  Sb5  1  0.85734000  0.34351600  0.25654600  1
  Sb  Sb6  1  0.58750400  0.44190200  0.07434200  1
  Sb  Sb7  1  0.36756100  0.51316200  0.92565800  1
  Sb  Sb8  1  0.08750400  0.01316200  0.14560100  1
  Sb  Sb9  1  0.86756100  0.94190200  0.85439900  1
  Sb  Sb10  1  0.02728100  0.80991800  0.50949200  1
  Sb  Sb11  1  0.30042600  0.51779000  0.49050800  1
  Sb  Sb12  1  0.52728100  0.01779000  0.21736400  1
  Sb  Sb13  1  0.80042600  0.30991800  0.78263600  1
  Sb  Sb14  1  0.47034900  0.97160800  0.85628100  1
  Sb  Sb15  1  0.11532700  0.61406800  0.14371900  1
  Sb  Sb16  1  0.97034900  0.11406800  0.49874100  1
  Sb  Sb17  1  0.61532700  0.47160800  0.50125900  1
loop_
_geom_bond_atom_site_label_1
_geom_bond_atom_site_label_2
_geom_bond_distance
_geom_bond_site_symmetry_2
Al0 Sb2 2.767713 1_545
Al0 Sb3 2.767725 1_555
Al0 Sb12 2.797466 1_555
Al0 Sb13 2.797470 1_555
Al0 Yb10 3.378910 1_545
Al0 Yb11 3.378915 1_555
Al1 Sb5 2.767719 1_455
Al1 Sb4 2.767725 1_555
Al1 Sb11 2.797470 1_555
Al1 Sb10 2.797473 1_555
Al1 Yb8 3.378904 1_455
Al1 Yb9 3.378915 1_555
Sb0 Yb1 3.060131 1_544
Sb0 Yb0 3.060142 1_555
Sb0 Yb4 3.077441 1_555
Sb0 Yb5 3.077441 1_554
Sb0 Yb16 3.288028 1_555
Sb0 Yb17 3.288031 1_554
Sb0 Yb14 3.358962 1_555
Sb0 Yb15 3.358962 1_454
Sb1 Yb3 3.060131 1_555
Sb1 Yb2 3.060134 1_554
Sb1 Yb6 3.077441 1_554
Sb1 Yb7 3.077441 1_565
Sb1 Yb19 3.288028 1_554
Sb1 Yb18 3.288028 1_655
Sb1 Yb13 3.358962 1_554
Sb1 Yb12 3.358962 1_555
Sb2 Yb4 3.151994 1_555
Sb2 Yb3 3.195408 1_555
Sb2 Yb19 3.387976 1_555
Sb2 Yb15 3.402945 1_565
Sb2 Yb11 3.512931 1_565
Sb2 Yb20 3.597336 1_555
Sb2 Yb10 3.600598 1_555
Sb2 Yb8 3.609146 1_555
Sb3 Yb5 3.151985 1_555
Sb3 Yb2 3.195408 1_555
Sb3 Yb18 3.387963 1_545
Sb3 Yb14 3.402949 1_555
Sb3 Yb10 3.512941 1_545
Sb3 Yb20 3.597334 1_545
Sb3 Yb11 3.600609 1_555
Sb3 Yb9 3.609129 1_555
Sb4 Yb6 3.151985 1_455
Sb4 Yb1 3.195411 1_555
Sb4 Yb17 3.387965 1_555
Sb4 Yb13 3.402949 1_555
Sb4 Yb9 3.512936 1_555
Sb4 Yb21 3.597334 1_455
Sb4 Yb8 3.600602 1_455
Sb4 Yb10 3.609130 1_556
Sb5 Yb7 3.151997 1_555
Sb5 Yb0 3.195400 1_655
Sb5 Yb16 3.387965 1_555
Sb5 Yb12 3.402938 1_555
Sb5 Yb8 3.512922 1_555
Sb5 Yb21 3.597341 1_555
Sb5 Yb9 3.600616 1_655
Sb5 Yb11 3.609129 1_554
Sb6 Sb7 2.859949 1_554
Sb6 Yb12 3.086116 1_555
Sb6 Yb16 3.101507 1_555
Sb6 Yb3 3.414385 1_555
Sb6 Yb5 3.457127 1_554
Sb6 Yb4 3.461098 1_555
Sb6 Yb2 3.471529 1_554
Sb6 Yb8 3.569906 1_555
Sb6 Yb11 3.647397 1_554
Sb7 Yb13 3.086113 1_555
Sb7 Yb17 3.101529 1_555
Sb7 Yb2 3.414363 1_555
Sb7 Yb4 3.457131 1_556
Sb7 Yb5 3.461097 1_555
Sb7 Yb3 3.471528 1_556
Sb7 Yb9 3.569906 1_555
Sb7 Yb10 3.647397 1_556
Sb8 Sb9 2.859937 1_444
Sb8 Yb14 3.086113 1_555
Sb8 Yb18 3.101518 1_545
Sb8 Yb1 3.414374 1_544
Sb8 Yb7 3.457131 1_455
Sb8 Yb6 3.461097 1_444
Sb8 Yb0 3.471529 1_555
Sb8 Yb10 3.569915 1_545
Sb8 Yb9 3.647404 1_555
Sb9 Yb15 3.086122 1_565
Sb9 Yb19 3.101523 1_555
Sb9 Yb0 3.414380 1_666
Sb9 Yb6 3.457119 1_555
Sb9 Yb7 3.461095 1_566
Sb9 Yb1 3.471526 1_655
Sb9 Yb11 3.569915 1_565
Sb9 Yb8 3.647404 1_555
Sb10 Yb8 3.206130 1_455
Sb10 Yb18 3.212271 1_555
Sb10 Yb12 3.295723 1_455
Sb10 Yb20 3.308235 1_555
Sb10 Yb1 3.312058 1_555
Sb10 Yb15 3.350408 1_465
Sb10 Yb5 3.829248 1_565
Sb11 Yb9 3.206149 1_555
Sb11 Yb19 3.212257 1_555
Sb11 Yb13 3.295723 1_555
Sb11 Yb20 3.308223 1_555
Sb11 Yb0 3.312063 1_555
Sb11 Yb14 3.350416 1_555
Sb11 Yb4 3.829242 1_555
Sb12 Yb10 3.206131 1_545
Sb12 Yb16 3.212268 1_555
Sb12 Yb14 3.295713 1_555
Sb12 Yb21 3.308229 1_555
Sb12 Yb3 3.312065 1_545
Sb12 Yb13 3.350419 1_544
Sb12 Yb7 3.829254 1_555
Sb13 Yb11 3.206149 1_555
Sb13 Yb17 3.212254 1_655
Sb13 Yb15 3.295723 1_555
Sb13 Yb21 3.308223 1_555
Sb13 Yb2 3.312070 1_555
Sb13 Yb12 3.350416 1_556
Sb13 Yb6 3.829242 1_555
Sb14 Yb16 3.045380 1_566
Sb14 Yb20 3.053877 1_555
Sb14 Yb11 3.082980 1_565
Sb14 Yb13 3.097182 1_555
Sb14 Yb19 3.203179 1_555
Sb14 Yb5 3.421770 1_565
Sb14 Yb7 3.471002 1_566
Sb14 Yb1 3.857382 1_555
Sb15 Yb17 3.045374 1_554
Sb15 Yb20 3.053877 1_555
Sb15 Yb10 3.082988 1_555
Sb15 Yb12 3.097182 1_455
Sb15 Yb18 3.203188 1_555
Sb15 Yb4 3.421770 1_555
Sb15 Yb6 3.471002 1_454
Sb15 Yb0 3.857384 1_555
Sb16 Yb18 3.045380 1_645
Sb16 Yb21 3.053877 1_555
Sb16 Yb9 3.082980 1_655
Sb16 Yb15 3.097182 1_555
Sb16 Yb17 3.203190 1_655
Sb16 Yb7 3.421770 1_555
Sb16 Yb5 3.471002 1_655
Sb16 Yb3 3.857382 1_545
Sb17 Yb19 3.045386 1_555
Sb17 Yb21 3.053877 1_555
Sb17 Yb8 3.082988 1_555
Sb17 Yb14 3.097182 1_555
Sb17 Yb16 3.203188 1_555
Sb17 Yb6 3.421770 1_555
Sb17 Yb4 3.471002 1_555
Sb17 Yb2 3.857389 1_555
