# generated using pymatgen
data_YCoGe2
_symmetry_space_group_name_H-M   'P 1'
_cell_length_a   8.47958438
_cell_length_b   8.47958438
_cell_length_c   4.11708954
_cell_angle_alpha   90.00000000
_cell_angle_beta   90.00000000
_cell_angle_gamma   151.77842577
_symmetry_Int_Tables_number   1
_chemical_formula_structural   YCoGe2
_chemical_formula_sum   'Y2 Co2 Ge4'
_cell_volume   139.98862850
_cell_formula_units_Z   2
loop_
 _symmetry_equiv_pos_site_id
 _symmetry_equiv_pos_as_xyz
  1  'x, y, z'
loop_
 _atom_site_type_symbol
 _atom_site_label
 _atom_site_symmetry_multiplicity
 _atom_site_fract_x
 _atom_site_fract_y
 _atom_site_fract_z
 _atom_site_occupancy
  Y  Y0  1  0.89019308  0.10980692  0.25000000  1
  Y  Y1  1  0.10980692  0.89019308  0.75000000  1
  Co  Co0  1  0.68126405  0.31873595  0.25000000  1
  Co  Co1  1  0.31873595  0.68126405  0.75000000  1
  Ge  Ge0  1  0.54505123  0.45494877  0.25000000  1
  Ge  Ge1  1  0.45494877  0.54505123  0.75000000  1
  Ge  Ge2  1  0.25044638  0.74955362  0.25000000  1
  Ge  Ge3  1  0.74955362  0.25044638  0.75000000  1
loop_
_geom_bond_atom_site_label_1
_geom_bond_atom_site_label_2
_geom_bond_distance
_geom_bond_site_symmetry_2
Co0 Ge0 2.240353 1_555
Co0 Ge3 2.345029 1_555
Co0 Ge3 2.345029 1_554
Co0 Ge2 2.359765 1_545
Co0 Ge2 2.359765 1_655
Co0 Y1 3.145258 1_544
Co0 Y1 3.145258 1_545
Co0 Y1 3.145258 1_655
Co0 Y1 3.145258 1_654
Co1 Ge1 2.240353 1_555
Co1 Ge2 2.345029 1_555
Co1 Ge2 2.345029 1_556
Co1 Ge3 2.359765 1_455
Co1 Ge3 2.359765 1_565
Co1 Y0 3.145258 1_456
Co1 Y0 3.145258 1_455
Co1 Y0 3.145258 1_565
Co1 Y0 3.145258 1_566
Ge0 Ge1 2.536493 1_555
Ge0 Ge1 2.536493 1_554
Ge0 Y1 3.105754 1_544
Ge0 Y1 3.105754 1_545
Ge0 Y1 3.105754 1_655
Ge0 Y1 3.105754 1_654
Ge0 Y0 3.280405 1_565
Ge0 Y0 3.280405 1_455
Ge1 Y0 3.105754 1_456
Ge1 Y0 3.105754 1_455
Ge1 Y0 3.105754 1_566
Ge1 Y0 3.105754 1_565
Ge1 Y1 3.280405 1_545
Ge1 Y1 3.280405 1_655
Ge2 Y0 3.091396 1_565
Ge2 Y0 3.091396 1_455
Ge2 Y1 3.096500 1_555
Ge2 Y1 3.096500 1_554
Ge3 Y1 3.091396 1_545
Ge3 Y1 3.091396 1_655
Ge3 Y0 3.096500 1_555
Ge3 Y0 3.096500 1_556
