# generated using pymatgen
data_TbHo3Fe8
_symmetry_space_group_name_H-M   'P 1'
_cell_length_a   5.10912227
_cell_length_b   5.10912227
_cell_length_c   8.83991108
_cell_angle_alpha   73.20307546
_cell_angle_beta   90.00000000
_cell_angle_gamma   120.00000000
_symmetry_Int_Tables_number   1
_chemical_formula_structural   TbHo3Fe8
_chemical_formula_sum   'Tb1 Ho3 Fe8'
_cell_volume   188.38113619
_cell_formula_units_Z   1
loop_
 _symmetry_equiv_pos_site_id
 _symmetry_equiv_pos_as_xyz
  1  'x, y, z'
loop_
 _atom_site_type_symbol
 _atom_site_label
 _atom_site_symmetry_multiplicity
 _atom_site_fract_x
 _atom_site_fract_y
 _atom_site_fract_z
 _atom_site_occupancy
  Tb  Tb0  1  0.87493300  0.74986500  0.37520200  1
  Ho  Ho0  1  0.37499100  0.74998200  0.87502700  1
  Ho  Ho1  1  0.00016700  0.00033500  0.99949800  1
  Ho  Ho2  1  0.49990300  0.99980700  0.50029000  1
  Fe  Fe0  1  0.43756000  0.37596400  0.18647500  1
  Fe  Fe1  1  0.93760600  0.37393100  0.68846300  1
  Fe  Fe2  1  0.43756000  0.87512100  0.18647500  1
  Fe  Fe3  1  0.93760600  0.87521200  0.68846300  1
  Fe  Fe4  1  0.18726900  0.37453900  0.43819200  1
  Fe  Fe5  1  0.68767400  0.37534800  0.93697800  1
  Fe  Fe6  1  0.93840400  0.37596400  0.18647500  1
  Fe  Fe7  1  0.43632500  0.37393100  0.68846300  1
loop_
_geom_bond_atom_site_label_1
_geom_bond_atom_site_label_2
_geom_bond_distance
_geom_bond_site_symmetry_2
Ho0 Ho2 3.122776 1_555
Ho0 Ho1 3.126806 1_665
Ho0 Ho1 3.126806 1_555
Ho0 Ho1 3.126810 1_565
Ho1 Tb0 3.130834 1_446
Ho2 Tb0 3.128514 1_565
Ho2 Tb0 3.128514 1_455
Ho2 Tb0 3.128523 1_555
Fe0 Fe6 2.550249 1_455
Fe0 Fe2 2.550254 1_555
Fe0 Fe5 2.550558 1_554
Fe0 Fe2 2.558868 1_545
Fe0 Fe6 2.558873 1_555
Fe0 Fe4 2.562800 1_555
Fe0 Ho0 2.983938 1_554
Fe0 Ho1 2.992245 1_554
Fe0 Ho1 2.992249 1_664
Fe0 Tb0 2.999865 1_445
Fe0 Tb0 2.999869 1_555
Fe0 Ho2 3.003553 1_545
Fe1 Fe5 2.544641 1_555
Fe1 Fe3 2.548016 1_545
Fe1 Fe7 2.548016 1_655
Fe1 Fe4 2.552199 1_655
Fe1 Fe3 2.561106 1_555
Fe1 Fe7 2.561106 1_555
Fe1 Ho1 2.980307 1_655
Fe1 Ho0 2.990458 1_655
Fe1 Ho0 2.990458 1_545
Fe1 Ho2 2.997450 1_655
Fe1 Ho2 2.997450 1_545
Fe1 Tb0 3.000170 1_555
Fe2 Fe6 2.550252 1_455
Fe2 Fe5 2.550558 1_564
Fe2 Fe6 2.558871 1_565
Fe2 Fe4 2.562798 1_555
Fe2 Ho0 2.983938 1_554
Fe2 Ho1 2.992247 1_564
Fe2 Ho1 2.992247 1_664
Fe2 Tb0 2.999862 1_455
Fe2 Tb0 2.999871 1_555
Fe2 Ho2 3.003556 1_555
Fe3 Fe5 2.544641 1_555
Fe3 Fe7 2.548016 1_665
Fe3 Fe4 2.552202 1_665
Fe3 Fe7 2.561106 1_555
Fe3 Ho1 2.980309 1_665
Fe3 Ho0 2.990458 1_655
Fe3 Ho0 2.990458 1_555
Fe3 Ho2 2.997448 1_655
Fe3 Ho2 2.997453 1_555
Fe3 Tb0 3.000173 1_555
Fe4 Fe7 2.552202 1_555
Fe4 Fe6 2.562798 1_455
Fe4 Ho2 2.994800 1_555
Fe4 Ho2 2.994800 1_445
Fe4 Ho2 2.994800 1_545
Fe4 Tb0 2.996088 1_455
Fe4 Tb0 2.996096 1_555
Fe4 Tb0 2.996096 1_445
Fe5 Fe7 2.544641 1_555
Fe5 Fe6 2.550558 1_556
Fe5 Ho0 2.994589 1_545
Fe5 Ho0 2.994589 1_655
Fe5 Ho0 2.994589 1_555
Fe5 Ho1 2.995407 1_655
Fe5 Ho1 2.995411 1_555
Fe5 Ho1 2.995411 1_665
Fe6 Ho0 2.983938 1_654
Fe6 Ho1 2.992243 1_654
Fe6 Ho1 2.992252 1_664
Fe6 Tb0 2.999867 1_555
Fe6 Tb0 2.999867 1_545
Fe6 Ho2 3.003556 1_545
Fe7 Ho1 2.980309 1_555
Fe7 Ho0 2.990458 1_555
Fe7 Ho0 2.990458 1_545
Fe7 Ho2 2.997448 1_545
Fe7 Ho2 2.997453 1_555
Fe7 Tb0 3.000173 1_555
