# generated using pymatgen
data_Ba2CdS3
_symmetry_space_group_name_H-M   'P 1'
_cell_length_a   4.38332088
_cell_length_b   9.02697036
_cell_length_c   17.44618602
_cell_angle_alpha   90.00000000
_cell_angle_beta   90.00000000
_cell_angle_gamma   90.00000000
_symmetry_Int_Tables_number   1
_chemical_formula_structural   Ba2CdS3
_chemical_formula_sum   'Ba8 Cd4 S12'
_cell_volume   690.31256673
_cell_formula_units_Z   4
loop_
 _symmetry_equiv_pos_site_id
 _symmetry_equiv_pos_as_xyz
  1  'x, y, z'
loop_
 _atom_site_type_symbol
 _atom_site_label
 _atom_site_symmetry_multiplicity
 _atom_site_fract_x
 _atom_site_fract_y
 _atom_site_fract_z
 _atom_site_occupancy
  Ba  Ba0  1  0.25000000  0.76499383  0.95783176  1
  Ba  Ba1  1  0.75000000  0.73500617  0.45783176  1
  Ba  Ba2  1  0.25000000  0.26499383  0.54216824  1
  Ba  Ba3  1  0.75000000  0.23500617  0.04216824  1
  Ba  Ba4  1  0.25000000  0.41917709  0.28473955  1
  Ba  Ba5  1  0.75000000  0.58082291  0.71526045  1
  Ba  Ba6  1  0.25000000  0.91917709  0.21526045  1
  Ba  Ba7  1  0.75000000  0.08082291  0.78473955  1
  Cd  Cd0  1  0.75000000  0.12098856  0.36890411  1
  Cd  Cd1  1  0.75000000  0.62098856  0.13109589  1
  Cd  Cd2  1  0.25000000  0.87901144  0.63109589  1
  Cd  Cd3  1  0.25000000  0.37901144  0.86890411  1
  S  S0  1  0.25000000  0.98505964  0.40361223  1
  S  S1  1  0.75000000  0.01494036  0.59638777  1
  S  S2  1  0.25000000  0.48505964  0.09638777  1
  S  S3  1  0.75000000  0.51494036  0.90361223  1
  S  S4  1  0.25000000  0.12182817  0.92731841  1
  S  S5  1  0.75000000  0.87817183  0.07268159  1
  S  S6  1  0.25000000  0.62182817  0.57268159  1
  S  S7  1  0.75000000  0.18158643  0.22553961  1
  S  S8  1  0.25000000  0.31841357  0.72553961  1
  S  S9  1  0.75000000  0.68158643  0.27446039  1
  S  S10  1  0.25000000  0.81841357  0.77446039  1
  S  S11  1  0.75000000  0.37817183  0.42731841  1
loop_
_geom_bond_atom_site_label_1
_geom_bond_atom_site_label_2
_geom_bond_distance
_geom_bond_site_symmetry_2
Ba0 S5 3.140371 1_456
Ba0 S5 3.140371 1_556
Ba0 S10 3.235270 1_555
Ba0 S4 3.264825 1_565
Ba0 S3 3.285303 1_455
Ba0 S3 3.285303 1_555
Ba0 S2 3.496960 1_556
Ba1 S6 3.140371 1_655
Ba1 S6 3.140371 1_555
Ba1 S9 3.235270 1_555
Ba1 S11 3.264825 1_555
Ba1 S0 3.285303 1_655
Ba1 S0 3.285303 1_555
Ba1 S1 3.496960 1_565
Ba2 S11 3.140371 1_455
Ba2 S11 3.140371 1_555
Ba2 S8 3.235270 1_555
Ba2 S6 3.264825 1_555
Ba2 S1 3.285303 1_455
Ba2 S1 3.285303 1_555
Ba2 S0 3.496960 1_545
Ba3 S4 3.140371 1_654
Ba3 S4 3.140371 1_554
Ba3 S7 3.235270 1_555
Ba3 S5 3.264825 1_545
Ba3 S2 3.285303 1_555
Ba3 S2 3.285303 1_655
Ba3 S3 3.496960 1_554
Ba4 S9 3.232115 1_555
Ba4 S9 3.232115 1_455
Ba4 S7 3.235725 1_455
Ba4 S7 3.235725 1_555
Ba4 S11 3.335841 1_455
Ba4 S11 3.335841 1_555
Ba4 S2 3.339404 1_555
Ba5 S8 3.232115 1_655
Ba5 S8 3.232115 1_555
Ba5 S10 3.235725 1_555
Ba5 S10 3.235725 1_655
Ba5 S6 3.335841 1_655
Ba5 S6 3.335841 1_555
Ba5 S3 3.339404 1_555
Ba6 S7 3.232115 1_465
Ba6 S7 3.232115 1_565
Ba6 S9 3.235725 1_555
Ba6 S9 3.235725 1_455
Ba6 S5 3.335841 1_455
Ba6 S5 3.335841 1_555
Ba6 S0 3.339404 1_555
Ba7 S10 3.232115 1_545
Ba7 S10 3.232115 1_645
Ba7 S8 3.235725 1_655
Ba7 S8 3.235725 1_555
Ba7 S4 3.335841 1_655
Ba7 S4 3.335841 1_555
Ba7 S1 3.339404 1_555
Cd0 S11 2.535417 1_555
Cd0 S7 2.560282 1_555
Cd0 S0 2.583724 1_645
Cd0 S0 2.583724 1_545
Cd1 S5 2.535417 1_555
Cd1 S9 2.560282 1_555
Cd1 S2 2.583724 1_555
Cd1 S2 2.583724 1_655
Cd2 S6 2.535417 1_555
Cd2 S10 2.560282 1_555
Cd2 S1 2.583724 1_465
Cd2 S1 2.583724 1_565
Cd3 S4 2.535417 1_555
Cd3 S8 2.560282 1_555
Cd3 S3 2.583724 1_555
Cd3 S3 2.583724 1_455
