# generated using pymatgen
data_Li2MnCoO4
_symmetry_space_group_name_H-M   'P 1'
_cell_length_a   2.98377300
_cell_length_b   5.16959770
_cell_length_c   9.91419271
_cell_angle_alpha   79.20829027
_cell_angle_beta   85.36387035
_cell_angle_gamma   88.01930041
_symmetry_Int_Tables_number   1
_chemical_formula_structural   Li2MnCoO4
_chemical_formula_sum   'Li4 Mn2 Co2 O8'
_cell_volume   149.69991627
_cell_formula_units_Z   2
loop_
 _symmetry_equiv_pos_site_id
 _symmetry_equiv_pos_as_xyz
  1  'x, y, z'
loop_
 _atom_site_type_symbol
 _atom_site_label
 _atom_site_symmetry_multiplicity
 _atom_site_fract_x
 _atom_site_fract_y
 _atom_site_fract_z
 _atom_site_occupancy
  Li  Li0  1  0.75307700  0.87571600  0.12716300  1
  Li  Li1  1  0.25219000  0.62695800  0.37564500  1
  Li  Li2  1  0.74781000  0.37304200  0.62435500  1
  Li  Li3  1  0.24692300  0.12428400  0.87283700  1
  Mn  Mn0  1  0.74507000  0.11968100  0.37303500  1
  Mn  Mn1  1  0.25493000  0.88031900  0.62696500  1
  Co  Co0  1  0.75144600  0.63141100  0.87644700  1
  Co  Co1  1  0.24855400  0.36858900  0.12355300  1
  O  O0  1  0.25357500  0.73223700  0.99319900  1
  O  O1  1  0.75585000  0.47330500  0.24587400  1
  O  O2  1  0.27696700  0.23224600  0.50124200  1
  O  O3  1  0.78448800  0.99326900  0.74912300  1
  O  O4  1  0.21551200  0.00673100  0.25087700  1
  O  O5  1  0.72303300  0.76775400  0.49875800  1
  O  O6  1  0.24415000  0.52669500  0.75412600  1
  O  O7  1  0.74642500  0.26776300  0.00680100  1
loop_
_geom_bond_atom_site_label_1
_geom_bond_atom_site_label_2
_geom_bond_distance
_geom_bond_site_symmetry_2
Li0 O4 2.110398 1_565
Li0 O0 2.125089 1_654
Li0 O4 2.125137 1_665
Li0 O7 2.151124 1_565
Li0 O1 2.190070 1_555
Li0 O0 2.302333 1_554
Li1 O5 2.110486 1_455
Li1 O4 2.119936 1_565
Li1 O1 2.128916 1_555
Li1 O5 2.161907 1_555
Li1 O2 2.184626 1_555
Li1 O1 2.291619 1_455
Li2 O2 2.110486 1_655
Li2 O3 2.119936 1_545
Li2 O6 2.128916 1_555
Li2 O2 2.161907 1_555
Li2 O5 2.184626 1_555
Li2 O6 2.291619 1_655
Li3 O3 2.110398 1_545
Li3 O7 2.125089 1_456
Li3 O3 2.125137 1_445
Li3 O0 2.151124 1_545
Li3 O6 2.190070 1_555
Li3 O7 2.302333 1_556
Mn0 O4 1.926500 1_655
Mn0 O2 1.959301 1_555
Mn0 O5 2.003421 1_545
Mn0 O1 2.016626 1_555
Mn0 O4 2.223129 1_555
Mn0 O2 2.267141 1_655
Mn1 O3 1.926500 1_455
Mn1 O5 1.959301 1_555
Mn1 O2 2.003421 1_565
Mn1 O6 2.016626 1_555
Mn1 O3 2.223129 1_555
Mn1 O5 2.267141 1_455
Co0 O0 1.926848 1_555
Co0 O6 1.956423 1_655
Co0 O3 2.052043 1_555
Co0 O7 2.072076 1_556
Co0 O0 2.101540 1_655
Co0 O6 2.157336 1_555
Co1 O7 1.926848 1_555
Co1 O1 1.956423 1_455
Co1 O4 2.052043 1_555
Co1 O0 2.072076 1_554
Co1 O7 2.101540 1_455
Co1 O1 2.157336 1_555
