# generated using pymatgen
data_Mg2Ni
_symmetry_space_group_name_H-M   'P 1'
_cell_length_a   5.09967914
_cell_length_b   6.15688825
_cell_length_c   5.10048059
_cell_angle_alpha   127.12958418
_cell_angle_beta   62.38141186
_cell_angle_gamma   127.13854076
_symmetry_Int_Tables_number   1
_chemical_formula_structural   Mg2Ni
_chemical_formula_sum   'Mg4 Ni2'
_cell_volume   100.53726246
_cell_formula_units_Z   2
loop_
 _symmetry_equiv_pos_site_id
 _symmetry_equiv_pos_as_xyz
  1  'x, y, z'
loop_
 _atom_site_type_symbol
 _atom_site_label
 _atom_site_symmetry_multiplicity
 _atom_site_fract_x
 _atom_site_fract_y
 _atom_site_fract_z
 _atom_site_occupancy
  Mg  Mg0  1  0.90660791  0.08312955  0.07316593  1
  Mg  Mg1  1  0.26006820  0.08353665  0.42682610  1
  Mg  Mg2  1  0.40695258  0.73002730  0.57357351  1
  Mg  Mg3  1  0.75970033  0.43664341  0.92643953  1
  Ni  Ni0  1  0.33312246  0.58337637  0.00026499  1
  Ni  Ni1  1  0.83354653  0.58328973  0.49972394  1
loop_
_geom_bond_atom_site_label_1
_geom_bond_atom_site_label_2
_geom_bond_distance
_geom_bond_site_symmetry_2
Mg0 Ni0 2.626584 1_655
Mg0 Ni1 2.626936 1_555
Mg0 Ni0 2.630613 1_545
Mg0 Ni1 2.631281 1_544
Mg0 Mg1 2.934621 1_654
Mg0 Mg1 2.935163 1_555
Mg0 Mg1 3.083296 1_655
Mg0 Mg3 3.207407 1_544
Mg0 Mg3 3.211530 1_554
Mg0 Mg2 3.217990 1_544
Mg0 Mg2 3.222240 1_655
Mg0 Mg2 3.422305 1_644
Mg0 Mg2 3.422466 1_545
Mg0 Mg3 3.426110 1_654
Mg0 Mg3 3.427787 1_555
Mg1 Ni1 2.626579 1_445
Mg1 Ni0 2.626921 1_545
Mg1 Ni1 2.630597 1_555
Mg1 Ni0 2.631275 1_556
Mg1 Mg2 3.207438 1_555
Mg1 Mg2 3.211495 1_545
Mg1 Mg3 3.217974 1_555
Mg1 Mg3 3.222237 1_444
Mg1 Mg3 3.422397 1_554
Mg1 Mg3 3.422417 1_455
Mg1 Mg2 3.426205 1_445
Mg1 Mg2 3.427701 1_544
Mg2 Ni1 2.625553 1_555
Mg2 Ni0 2.625925 1_556
Mg2 Ni1 2.632369 1_455
Mg2 Ni0 2.632591 1_555
Mg2 Mg3 2.934992 1_554
Mg2 Mg3 2.935051 1_455
Mg2 Mg3 3.082467 1_565
Mg3 Ni0 2.625507 1_556
Mg3 Ni1 2.625986 1_555
Mg3 Ni0 2.632405 1_656
Mg3 Ni1 2.632520 1_556
Ni0 Ni1 2.638722 1_455
Ni0 Ni1 2.643821 1_554
