# generated using pymatgen
data_Mg4Si3
_symmetry_space_group_name_H-M   'P 1'
_cell_length_a   4.84952100
_cell_length_b   7.50287140
_cell_length_c   8.31208307
_cell_angle_alpha   96.05575959
_cell_angle_beta   99.04477813
_cell_angle_gamma   99.27153464
_symmetry_Int_Tables_number   1
_chemical_formula_structural   Mg4Si3
_chemical_formula_sum   'Mg8 Si6'
_cell_volume   292.10791145
_cell_formula_units_Z   2
loop_
 _symmetry_equiv_pos_site_id
 _symmetry_equiv_pos_as_xyz
  1  'x, y, z'
loop_
 _atom_site_type_symbol
 _atom_site_label
 _atom_site_symmetry_multiplicity
 _atom_site_fract_x
 _atom_site_fract_y
 _atom_site_fract_z
 _atom_site_occupancy
  Mg  Mg0  1  0.66934600  0.47389600  0.85150800  1
  Mg  Mg1  1  0.77544000  0.03130100  0.98268100  1
  Mg  Mg2  1  0.79235600  0.02429400  0.60071400  1
  Mg  Mg3  1  0.21902600  0.02251400  0.37311800  1
  Mg  Mg4  1  0.56896300  0.74293400  0.24171400  1
  Mg  Mg5  1  0.08225400  0.41714800  0.55038200  1
  Mg  Mg6  1  0.04364100  0.42090200  0.16474400  1
  Mg  Mg7  1  0.19479500  0.74286900  0.80275600  1
  Si  Si0  1  0.34827900  0.08023800  0.73072200  1
  Si  Si1  1  0.13705500  0.30991000  0.85622500  1
  Si  Si2  1  0.73304400  0.15618900  0.30107800  1
  Si  Si3  1  0.63882500  0.65456000  0.58484700  1
  Si  Si4  1  0.02170000  0.75813200  0.09654900  1
  Si  Si5  1  0.52524700  0.41510200  0.36307100  1
loop_
_geom_bond_atom_site_label_1
_geom_bond_atom_site_label_2
_geom_bond_distance
_geom_bond_site_symmetry_2
Mg0 Si1 2.682786 1_555
Mg0 Si3 2.714335 1_555
Mg0 Si1 2.746153 1_655
Mg0 Si4 2.903676 1_656
Mg0 Si0 3.091414 1_555
Mg1 Si4 2.713911 1_646
Mg1 Si2 2.763040 1_556
Mg1 Si0 2.802753 1_555
Mg1 Si1 2.900298 1_655
Mg2 Si0 2.628509 1_555
Mg2 Si0 2.689949 1_655
Mg2 Si3 2.737442 1_545
Mg2 Si2 2.766156 1_555
Mg2 Si1 2.943870 1_655
Mg3 Si2 2.713583 1_455
Mg3 Si2 2.714527 1_555
Mg3 Si4 2.805318 1_545
Mg3 Si0 2.910487 1_555
Mg3 Si5 3.093521 1_555
Mg4 Si4 2.659083 1_655
Mg4 Si5 2.745037 1_555
Mg4 Si4 2.762636 1_555
Mg4 Si3 2.976034 1_555
Mg4 Si2 3.041234 1_565
Mg5 Si1 2.732909 1_555
Mg5 Si2 2.822723 1_455
Mg5 Si5 2.845479 1_555
Mg5 Si5 2.894853 1_455
Mg5 Si3 2.939415 1_555
Mg5 Si3 3.033085 1_455
Mg6 Si5 2.647952 1_555
Mg6 Si4 2.665503 1_555
Mg6 Si1 2.740670 1_554
Mg6 Si2 2.746849 1_455
Mg6 Si5 3.212848 1_455
Mg7 Si0 2.678149 1_565
Mg7 Si4 2.701437 1_556
Mg7 Si3 2.936812 1_455
Mg7 Si3 3.128800 1_555
Si0 Si1 2.373266 1_555
Si2 Si5 2.374347 1_555
Si3 Si5 2.364853 1_555
