# generated using pymatgen
data_Sr3(WN2)2
_symmetry_space_group_name_H-M   'P 1'
_cell_length_a   6.01096722
_cell_length_b   10.61026417
_cell_length_c   9.86954582
_cell_angle_alpha   90.00000000
_cell_angle_beta   90.00000000
_cell_angle_gamma   90.00000000
_symmetry_Int_Tables_number   1
_chemical_formula_structural   Sr3(WN2)2
_chemical_formula_sum   'Sr12 W8 N16'
_cell_volume   629.45940103
_cell_formula_units_Z   4
loop_
 _symmetry_equiv_pos_site_id
 _symmetry_equiv_pos_as_xyz
  1  'x, y, z'
loop_
 _atom_site_type_symbol
 _atom_site_label
 _atom_site_symmetry_multiplicity
 _atom_site_fract_x
 _atom_site_fract_y
 _atom_site_fract_z
 _atom_site_occupancy
  Sr  Sr0  1  0.61993802  0.15932416  0.41947665  1
  Sr  Sr1  1  0.88006198  0.84067584  0.41947665  1
  Sr  Sr2  1  0.61993802  0.34067584  0.08052335  1
  Sr  Sr3  1  0.88006198  0.65932416  0.08052335  1
  Sr  Sr4  1  0.38006198  0.84067584  0.58052335  1
  Sr  Sr5  1  0.11993802  0.15932416  0.58052335  1
  Sr  Sr6  1  0.38006198  0.65932416  0.91947665  1
  Sr  Sr7  1  0.11993802  0.34067584  0.91947665  1
  Sr  Sr8  1  0.75000000  0.50000000  0.39888787  1
  Sr  Sr9  1  0.75000000  -0.00000000  0.10111213  1
  Sr  Sr10  1  0.25000000  0.50000000  0.60111213  1
  Sr  Sr11  1  0.25000000  -0.00000000  0.89888787  1
  W  W0  1  0.75000000  0.50000000  0.73590399  1
  W  W1  1  0.75000000  0.00000000  0.76409601  1
  W  W2  1  0.25000000  0.50000000  0.26409601  1
  W  W3  1  0.25000000  0.00000000  0.23590399  1
  W  W4  1  0.62040704  0.25000000  0.75000000  1
  W  W5  1  0.87959296  0.75000000  0.75000000  1
  W  W6  1  0.37959296  0.75000000  0.25000000  1
  W  W7  1  0.12040704  0.25000000  0.25000000  1
  N  N0  1  0.82986128  0.34714806  0.62658003  1
  N  N1  1  0.67013872  0.65285194  0.62658003  1
  N  N2  1  0.82986128  0.15285194  0.87341997  1
  N  N3  1  0.67013872  0.84714806  0.87341997  1
  N  N4  1  0.17013872  0.65285194  0.37341997  1
  N  N5  1  0.32986128  0.34714806  0.37341997  1
  N  N6  1  0.17013872  0.84714806  0.12658003  1
  N  N7  1  0.32986128  0.15285194  0.12658003  1
  N  N8  1  0.50879204  0.41749533  0.83862505  1
  N  N9  1  0.99120796  0.58250467  0.83862505  1
  N  N10  1  0.50879204  0.08250467  0.66137495  1
  N  N11  1  0.99120796  0.91749533  0.66137495  1
  N  N12  1  0.49120796  0.58250467  0.16137495  1
  N  N13  1  0.00879204  0.41749533  0.16137495  1
  N  N14  1  0.49120796  0.91749533  0.33862505  1
  N  N15  1  0.00879204  0.08250467  0.33862505  1
loop_
_geom_bond_atom_site_label_1
_geom_bond_atom_site_label_2
_geom_bond_distance
_geom_bond_site_symmetry_2
N0 W0 2.006207 1_555
N0 W4 2.032580 1_555
N0 Sr5 2.686709 1_655
N0 Sr8 2.812590 1_555
N0 Sr10 3.011853 1_655
N0 Sr0 3.121177 1_555
N1 W0 2.006207 1_555
N1 W5 2.032580 1_555
N1 Sr4 2.686709 1_555
N1 Sr8 2.812590 1_555
N1 Sr10 3.011853 1_555
N1 Sr1 3.121177 1_555
N2 W1 2.006207 1_555
N2 W4 2.032580 1_555
N2 Sr7 2.686709 1_655
N2 Sr9 2.812590 1_556
N2 Sr11 3.011853 1_655
N2 Sr2 3.121177 1_556
N3 W1 2.006207 1_565
N3 W5 2.032580 1_555
N3 Sr6 2.686709 1_555
N3 Sr9 2.812590 1_566
N3 Sr11 3.011853 1_565
N3 Sr3 3.121177 1_556
N4 W2 2.006207 1_555
N4 W6 2.032580 1_555
N4 Sr1 2.686709 1_455
N4 Sr10 2.812590 1_555
N4 Sr8 3.011853 1_455
N4 Sr4 3.121177 1_555
N5 W2 2.006207 1_555
N5 W7 2.032580 1_555
N5 Sr0 2.686709 1_555
N5 Sr10 2.812590 1_555
N5 Sr8 3.011853 1_555
N5 Sr5 3.121177 1_555
N6 W3 2.006207 1_565
N6 W6 2.032580 1_555
N6 Sr3 2.686709 1_455
N6 Sr11 2.812590 1_564
N6 Sr9 3.011853 1_465
N6 Sr6 3.121177 1_554
N7 W3 2.006207 1_555
N7 W7 2.032580 1_555
N7 Sr2 2.686709 1_555
N7 Sr11 2.812590 1_554
N7 Sr9 3.011853 1_555
N7 Sr7 3.121177 1_554
N8 W0 1.973910 1_555
N8 W4 2.091301 1_555
N8 Sr7 2.600863 1_555
N8 Sr2 2.609694 1_556
N8 Sr6 2.796281 1_555
N8 Sr10 2.946387 1_555
N9 W0 1.973910 1_555
N9 W5 2.091301 1_555
N9 Sr6 2.600863 1_655
N9 Sr3 2.609694 1_556
N9 Sr7 2.796281 1_655
N9 Sr10 2.946387 1_655
N10 W1 1.973910 1_555
N10 W4 2.091301 1_555
N10 Sr5 2.600863 1_555
N10 Sr0 2.609694 1_555
N10 Sr4 2.796281 1_545
N10 Sr11 2.946387 1_555
N11 W1 1.973910 1_565
N11 W5 2.091301 1_555
N11 Sr4 2.600863 1_655
N11 Sr1 2.609694 1_555
N11 Sr5 2.796281 1_665
N11 Sr11 2.946387 1_665
N12 W2 1.973910 1_555
N12 W6 2.091301 1_555
N12 Sr3 2.600863 1_555
N12 Sr6 2.609694 1_554
N12 Sr2 2.796281 1_555
N12 Sr8 2.946387 1_555
N13 W2 1.973910 1_555
N13 W7 2.091301 1_555
N13 Sr2 2.600863 1_455
N13 Sr7 2.609694 1_554
N13 Sr3 2.796281 1_455
N13 Sr8 2.946387 1_455
N14 W3 1.973910 1_565
N14 W6 2.091301 1_555
N14 Sr1 2.600863 1_555
N14 Sr4 2.609694 1_555
N14 Sr0 2.796281 1_565
N14 Sr9 2.946387 1_565
N15 W3 1.973910 1_555
N15 W7 2.091301 1_555
N15 Sr0 2.600863 1_455
N15 Sr5 2.609694 1_555
N15 Sr1 2.796281 1_445
N15 Sr9 2.946387 1_455
