# generated using pymatgen
data_Pr3RuBr3
_symmetry_space_group_name_H-M   'P 1'
_cell_length_a   4.23569021
_cell_length_b   8.96730073
_cell_length_c   12.14809102
_cell_angle_alpha   87.12087657
_cell_angle_beta   90.00000000
_cell_angle_gamma   90.00000000
_symmetry_Int_Tables_number   1
_chemical_formula_structural   Pr3RuBr3
_chemical_formula_sum   'Pr6 Ru2 Br6'
_cell_volume   460.83495721
_cell_formula_units_Z   2
loop_
 _symmetry_equiv_pos_site_id
 _symmetry_equiv_pos_as_xyz
  1  'x, y, z'
loop_
 _atom_site_type_symbol
 _atom_site_label
 _atom_site_symmetry_multiplicity
 _atom_site_fract_x
 _atom_site_fract_y
 _atom_site_fract_z
 _atom_site_occupancy
  Pr  Pr0  1  0.25000000  0.31990807  0.37915791  1
  Pr  Pr1  1  0.75000000  0.68009193  0.62084209  1
  Pr  Pr2  1  0.25000000  0.89383557  0.38497819  1
  Pr  Pr3  1  0.75000000  0.10616443  0.61502181  1
  Pr  Pr4  1  0.25000000  0.87944705  0.84049590  1
  Pr  Pr5  1  0.75000000  0.12055295  0.15950410  1
  Ru  Ru0  1  0.25000000  0.88988266  0.62220687  1
  Ru  Ru1  1  0.75000000  0.11011734  0.37779313  1
  Br  Br0  1  0.25000000  0.39630351  0.63005095  1
  Br  Br1  1  0.75000000  0.60369649  0.36994905  1
  Br  Br2  1  0.25000000  0.87990473  0.11441183  1
  Br  Br3  1  0.75000000  0.12009527  0.88558817  1
  Br  Br4  1  0.25000000  0.35875905  0.12513599  1
  Br  Br5  1  0.75000000  0.64124095  0.87486401  1
loop_
_geom_bond_atom_site_label_1
_geom_bond_atom_site_label_2
_geom_bond_distance
_geom_bond_site_symmetry_2
Pr0 Ru1 2.833338 1_555
Pr0 Ru1 2.833338 1_455
Pr1 Ru0 2.833338 1_555
Pr1 Ru0 2.833338 1_655
Pr2 Ru1 2.870087 1_565
Pr2 Ru1 2.870087 1_465
Pr2 Ru0 2.880313 1_555
Pr3 Ru0 2.870087 1_645
Pr3 Ru0 2.870087 1_545
Pr3 Ru1 2.880313 1_555
Pr4 Ru0 2.648744 1_555
Pr5 Ru1 2.648744 1_555
Br0 Pr0 3.157306 1_555
Br0 Pr1 3.308364 1_555
Br0 Pr1 3.308364 1_455
Br0 Pr3 3.366823 1_455
Br0 Pr3 3.366823 1_555
Br1 Pr1 3.157306 1_555
Br1 Pr0 3.308364 1_555
Br1 Pr0 3.308364 1_655
Br1 Pr2 3.366823 1_555
Br1 Pr2 3.366823 1_655
Br2 Pr5 3.092071 1_465
Br2 Pr5 3.092071 1_565
Br2 Pr2 3.295502 1_555
Br2 Pr4 3.327764 1_554
Br3 Pr4 3.092071 1_545
Br3 Pr4 3.092071 1_645
Br3 Pr3 3.295502 1_555
Br3 Pr5 3.327764 1_556
Br4 Pr5 3.022047 1_455
Br4 Pr5 3.022047 1_555
Br4 Pr0 3.088048 1_555
Br5 Pr4 3.022047 1_555
Br5 Pr4 3.022047 1_655
Br5 Pr1 3.088048 1_555
