# generated using pymatgen
data_MgSeO5
_symmetry_space_group_name_H-M   'P 1'
_cell_length_a   5.32866797
_cell_length_b   5.32866797
_cell_length_c   7.86902500
_cell_angle_alpha   75.27039094
_cell_angle_beta   75.27039094
_cell_angle_gamma   96.04021187
_symmetry_Int_Tables_number   1
_chemical_formula_structural   MgSeO5
_chemical_formula_sum   'Mg2 Se2 O10'
_cell_volume   205.51838180
_cell_formula_units_Z   2
loop_
 _symmetry_equiv_pos_site_id
 _symmetry_equiv_pos_as_xyz
  1  'x, y, z'
loop_
 _atom_site_type_symbol
 _atom_site_label
 _atom_site_symmetry_multiplicity
 _atom_site_fract_x
 _atom_site_fract_y
 _atom_site_fract_z
 _atom_site_occupancy
  Mg  Mg0  1  0.50000000  0.00000000  0.50000000  1
  Mg  Mg1  1  0.00000000  0.50000000  0.00000000  1
  Se  Se0  1  0.91383500  0.08616500  0.75000000  1
  Se  Se1  1  0.08616500  0.91383500  0.25000000  1
  O  O0  1  0.33247900  0.66752100  0.75000000  1
  O  O1  1  0.66752100  0.33247900  0.25000000  1
  O  O2  1  0.77961900  0.18751200  0.58167900  1
  O  O3  1  0.22038100  0.81248800  0.41832100  1
  O  O4  1  0.81248800  0.22038100  0.91832100  1
  O  O5  1  0.18751200  0.77961900  0.08167900  1
  O  O6  1  0.24595700  0.17166500  0.66487400  1
  O  O7  1  0.75404300  0.82833500  0.33512600  1
  O  O8  1  0.82833500  0.75404300  0.83512600  1
  O  O9  1  0.17166500  0.24595700  0.16487400  1
loop_
_geom_bond_atom_site_label_1
_geom_bond_atom_site_label_2
_geom_bond_distance
_geom_bond_site_symmetry_2
Mg0 O2 2.032689 1_555
Mg0 O3 2.032689 1_545
Mg0 O6 2.079310 1_555
Mg0 O7 2.079310 1_545
Mg0 O1 2.192620 1_555
Mg0 O0 2.192620 1_545
Mg1 O5 2.032689 1_555
Mg1 O4 2.032689 1_454
Mg1 O9 2.079310 1_555
Mg1 O8 2.079310 1_454
Mg1 O0 2.192620 1_554
Mg1 O1 2.192620 1_455
O2 Se0 1.660350 1_555
O3 Se1 1.660350 1_555
O4 Se0 1.660350 1_555
O5 Se1 1.660350 1_555
O6 Se0 1.691342 1_455
O7 Se1 1.691342 1_655
O8 Se0 1.691342 1_565
O9 Se1 1.691342 1_545
