# generated using pymatgen
data_KEr2CuSe4
_symmetry_space_group_name_H-M   'P 1'
_cell_length_a   7.28608858
_cell_length_b   7.28608858
_cell_length_c   14.30799600
_cell_angle_alpha   90.00000000
_cell_angle_beta   90.00000000
_cell_angle_gamma   147.41208461
_symmetry_Int_Tables_number   1
_chemical_formula_structural   KEr2CuSe4
_chemical_formula_sum   'K2 Er4 Cu2 Se8'
_cell_volume   409.09905695
_cell_formula_units_Z   2
loop_
 _symmetry_equiv_pos_site_id
 _symmetry_equiv_pos_as_xyz
  1  'x, y, z'
loop_
 _atom_site_type_symbol
 _atom_site_label
 _atom_site_symmetry_multiplicity
 _atom_site_fract_x
 _atom_site_fract_y
 _atom_site_fract_z
 _atom_site_occupancy
  K  K0  1  0.11284600  0.88715400  0.25000000  1
  K  K1  1  0.88715400  0.11284600  0.75000000  1
  Er  Er0  1  0.36592300  0.63407700  0.43486500  1
  Er  Er1  1  0.63407700  0.36592300  0.56513500  1
  Er  Er2  1  0.63407700  0.36592300  0.93486500  1
  Er  Er3  1  0.36592300  0.63407700  0.06513500  1
  Cu  Cu0  1  0.83946800  0.16053200  0.25000000  1
  Cu  Cu1  1  0.16053200  0.83946800  0.75000000  1
  Se  Se0  1  0.56385200  0.43614800  0.75000000  1
  Se  Se1  1  0.43614800  0.56385200  0.25000000  1
  Se  Se2  1  0.26477400  0.73522600  0.88946800  1
  Se  Se3  1  0.73522600  0.26477400  0.11053200  1
  Se  Se4  1  0.73522600  0.26477400  0.38946800  1
  Se  Se5  1  0.26477400  0.73522600  0.61053200  1
  Se  Se6  1  0.00000000  0.00000000  0.00000000  1
  Se  Se7  1  0.00000000  0.00000000  0.50000000  1
loop_
_geom_bond_atom_site_label_1
_geom_bond_atom_site_label_2
_geom_bond_distance
_geom_bond_site_symmetry_2
K0 Se1 3.207326 1_565
K0 Se1 3.207326 1_455
K0 Se4 3.330296 1_455
K0 Se3 3.330296 1_455
K0 Se4 3.330296 1_565
K0 Se3 3.330296 1_565
K1 Se0 3.207326 1_655
K1 Se0 3.207326 1_545
K1 Se2 3.330296 1_545
K1 Se2 3.330296 1_655
K1 Se5 3.330296 1_545
K1 Se5 3.330296 1_655
Er0 Se4 2.818245 1_455
Er0 Se4 2.818245 1_565
Er0 Se1 2.821533 1_555
Er0 Se5 2.884257 1_555
Er0 Se7 2.926468 1_555
Er0 Se7 2.926468 1_665
Er1 Se5 2.818245 1_545
Er1 Se5 2.818245 1_655
Er1 Se0 2.821533 1_555
Er1 Se4 2.884257 1_555
Er1 Se7 2.926468 1_665
Er1 Se7 2.926468 1_555
Er2 Se2 2.818245 1_545
Er2 Se2 2.818245 1_655
Er2 Se0 2.821533 1_555
Er2 Se3 2.884257 1_556
Er2 Se6 2.926468 1_556
Er2 Se6 2.926468 1_666
Er3 Se3 2.818245 1_455
Er3 Se3 2.818245 1_565
Er3 Se1 2.821533 1_555
Er3 Se2 2.884257 1_554
Er3 Se6 2.926468 1_555
Er3 Se6 2.926468 1_665
Cu0 Se1 2.451008 1_545
Cu0 Se1 2.451008 1_655
Cu0 Se3 2.471412 1_555
Cu0 Se4 2.471412 1_555
Cu1 Se0 2.451008 1_455
Cu1 Se0 2.451008 1_565
Cu1 Se5 2.471412 1_555
Cu1 Se2 2.471412 1_555
