# generated using pymatgen
data_LiMg30SiO32
_symmetry_space_group_name_H-M   'P 1'
_cell_length_a   8.51492800
_cell_length_b   8.51492800
_cell_length_c   8.54265700
_cell_angle_alpha   90.00000000
_cell_angle_beta   90.00000000
_cell_angle_gamma   90.00000000
_symmetry_Int_Tables_number   1
_chemical_formula_structural   LiMg30SiO32
_chemical_formula_sum   'Li1 Mg30 Si1 O32'
_cell_volume   619.37679326
_cell_formula_units_Z   1
loop_
 _symmetry_equiv_pos_site_id
 _symmetry_equiv_pos_as_xyz
  1  'x, y, z'
loop_
 _atom_site_type_symbol
 _atom_site_label
 _atom_site_symmetry_multiplicity
 _atom_site_fract_x
 _atom_site_fract_y
 _atom_site_fract_z
 _atom_site_occupancy
  Li  Li0  1  0.00000000  0.00000000  0.00000000  1
  Mg  Mg0  1  0.00000000  0.50000000  0.00000000  1
  Mg  Mg1  1  0.00000000  0.50000000  0.50000000  1
  Mg  Mg2  1  0.50000000  0.00000000  0.00000000  1
  Mg  Mg3  1  0.50000000  0.00000000  0.50000000  1
  Mg  Mg4  1  0.50000000  0.50000000  0.00000000  1
  Mg  Mg5  1  0.50000000  0.50000000  0.50000000  1
  Mg  Mg6  1  0.00000000  0.24925000  0.24547400  1
  Mg  Mg7  1  0.00000000  0.24925000  0.75452600  1
  Mg  Mg8  1  0.00000000  0.75075000  0.24547400  1
  Mg  Mg9  1  0.00000000  0.75075000  0.75452600  1
  Mg  Mg10  1  0.50000000  0.25003500  0.24824200  1
  Mg  Mg11  1  0.50000000  0.25003500  0.75175800  1
  Mg  Mg12  1  0.50000000  0.74996500  0.24824200  1
  Mg  Mg13  1  0.50000000  0.74996500  0.75175800  1
  Mg  Mg14  1  0.24925000  0.00000000  0.24547400  1
  Mg  Mg15  1  0.24925000  0.00000000  0.75452600  1
  Mg  Mg16  1  0.25003500  0.50000000  0.24824200  1
  Mg  Mg17  1  0.25003500  0.50000000  0.75175800  1
  Mg  Mg18  1  0.75075000  0.00000000  0.24547400  1
  Mg  Mg19  1  0.75075000  0.00000000  0.75452600  1
  Mg  Mg20  1  0.74996500  0.50000000  0.24824200  1
  Mg  Mg21  1  0.74996500  0.50000000  0.75175800  1
  Mg  Mg22  1  0.24724100  0.24724100  0.00000000  1
  Mg  Mg23  1  0.25066200  0.25066200  0.50000000  1
  Mg  Mg24  1  0.24724100  0.75275900  0.00000000  1
  Mg  Mg25  1  0.25066200  0.74933800  0.50000000  1
  Mg  Mg26  1  0.75275900  0.24724100  0.00000000  1
  Mg  Mg27  1  0.74933800  0.25066200  0.50000000  1
  Mg  Mg28  1  0.75275900  0.75275900  0.00000000  1
  Mg  Mg29  1  0.74933800  0.74933800  0.50000000  1
  Si  Si0  1  0.00000000  0.00000000  0.50000000  1
  O  O0  1  0.25178800  0.00000000  0.00000000  1
  O  O1  1  0.22419500  0.00000000  0.50000000  1
  O  O2  1  0.24979200  0.50000000  0.00000000  1
  O  O3  1  0.24647900  0.50000000  0.50000000  1
  O  O4  1  0.74821200  0.00000000  0.00000000  1
  O  O5  1  0.77580500  0.00000000  0.50000000  1
  O  O6  1  0.75020800  0.50000000  0.00000000  1
  O  O7  1  0.75352100  0.50000000  0.50000000  1
  O  O8  1  0.24888000  0.24888000  0.25141700  1
  O  O9  1  0.24888000  0.24888000  0.74858300  1
  O  O10  1  0.24888000  0.75112000  0.25141700  1
  O  O11  1  0.24888000  0.75112000  0.74858300  1
  O  O12  1  0.75112000  0.24888000  0.25141700  1
  O  O13  1  0.75112000  0.24888000  0.74858300  1
  O  O14  1  0.75112000  0.75112000  0.25141700  1
  O  O15  1  0.75112000  0.75112000  0.74858300  1
  O  O16  1  0.00000000  0.00000000  0.28588800  1
  O  O17  1  0.00000000  0.00000000  0.71411200  1
  O  O18  1  0.00000000  0.50000000  0.25485900  1
  O  O19  1  0.00000000  0.50000000  0.74514100  1
  O  O20  1  0.50000000  0.00000000  0.25485900  1
  O  O21  1  0.50000000  0.00000000  0.74514100  1
  O  O22  1  0.50000000  0.50000000  0.25140500  1
  O  O23  1  0.50000000  0.50000000  0.74859500  1
  O  O24  1  0.00000000  0.25178800  0.00000000  1
  O  O25  1  0.00000000  0.22419500  0.50000000  1
  O  O26  1  0.00000000  0.74821200  0.00000000  1
  O  O27  1  0.00000000  0.77580500  0.50000000  1
  O  O28  1  0.50000000  0.24979200  0.00000000  1
  O  O29  1  0.50000000  0.24647900  0.50000000  1
  O  O30  1  0.50000000  0.75020800  0.00000000  1
  O  O31  1  0.50000000  0.75352100  0.50000000  1
loop_
_geom_bond_atom_site_label_1
_geom_bond_atom_site_label_2
_geom_bond_distance
_geom_bond_site_symmetry_2
Li0 O26 2.143957 1_545
Li0 O0 2.143957 1_555
Li0 O24 2.143957 1_555
Li0 O4 2.143957 1_455
Li0 O16 2.442243 1_555
Li0 O17 2.442243 1_554
Mg0 O26 2.113507 1_555
Mg0 O24 2.113507 1_555
Mg0 O6 2.126961 1_455
Mg0 O2 2.126961 1_555
Mg0 O18 2.177173 1_555
Mg0 O19 2.177173 1_554
Mg1 O19 2.094155 1_555
Mg1 O18 2.094155 1_555
Mg1 O3 2.098751 1_555
Mg1 O7 2.098751 1_455
Mg1 O27 2.348460 1_555
Mg1 O25 2.348460 1_555
Mg2 O4 2.113507 1_555
Mg2 O0 2.113507 1_555
Mg2 O28 2.126961 1_555
Mg2 O30 2.126961 1_545
Mg2 O20 2.177173 1_555
Mg2 O21 2.177173 1_554
Mg3 O21 2.094155 1_555
Mg3 O20 2.094155 1_555
Mg3 O29 2.098751 1_555
Mg3 O31 2.098751 1_545
Mg3 O5 2.348460 1_555
Mg3 O1 2.348460 1_555
Mg4 O28 2.130503 1_555
Mg4 O6 2.130503 1_555
Mg4 O30 2.130503 1_555
Mg4 O2 2.130503 1_555
Mg4 O23 2.147667 1_554
Mg4 O22 2.147667 1_555
Mg5 O22 2.123662 1_555
Mg5 O23 2.123662 1_555
Mg5 O31 2.158713 1_555
Mg5 O7 2.158713 1_555
Mg5 O29 2.158713 1_555
Mg5 O3 2.158713 1_555
Mg6 O24 2.097112 1_555
Mg6 O12 2.119806 1_455
Mg6 O8 2.119806 1_555
Mg6 O18 2.136623 1_555
Mg6 O16 2.150243 1_555
Mg6 O25 2.184770 1_555
Mg7 O24 2.097112 1_556
Mg7 O13 2.119806 1_455
Mg7 O9 2.119806 1_555
Mg7 O19 2.136623 1_555
Mg7 O17 2.150243 1_555
Mg7 O25 2.184770 1_555
Mg8 O26 2.097112 1_555
Mg8 O14 2.119806 1_455
Mg8 O10 2.119806 1_555
Mg8 O18 2.136623 1_555
Mg8 O16 2.150243 1_565
Mg8 O27 2.184770 1_555
Mg9 O26 2.097112 1_556
Mg9 O15 2.119806 1_455
Mg9 O11 2.119806 1_555
Mg9 O19 2.136623 1_555
Mg9 O17 2.150243 1_565
Mg9 O27 2.184770 1_555
Mg10 O28 2.120647 1_555
Mg10 O22 2.128605 1_555
Mg10 O20 2.129780 1_555
Mg10 O12 2.138463 1_555
Mg10 O8 2.138463 1_555
Mg10 O29 2.150895 1_555
Mg11 O28 2.120647 1_556
Mg11 O23 2.128605 1_555
Mg11 O21 2.129780 1_555
Mg11 O13 2.138463 1_555
Mg11 O9 2.138463 1_555
Mg11 O29 2.150895 1_555
Mg12 O30 2.120647 1_555
Mg12 O22 2.128605 1_555
Mg12 O20 2.129780 1_565
Mg12 O10 2.138463 1_555
Mg12 O14 2.138463 1_555
Mg12 O31 2.150895 1_555
Mg13 O30 2.120647 1_556
Mg13 O23 2.128605 1_555
Mg13 O21 2.129780 1_565
Mg13 O11 2.138463 1_555
Mg13 O15 2.138463 1_555
Mg13 O31 2.150895 1_555
Mg14 O0 2.097112 1_555
Mg14 O10 2.119806 1_545
Mg14 O8 2.119806 1_555
Mg14 O20 2.136623 1_555
Mg14 O16 2.150243 1_555
Mg14 O1 2.184770 1_555
Mg15 O0 2.097112 1_556
Mg15 O11 2.119806 1_545
Mg15 O9 2.119806 1_555
Mg15 O21 2.136623 1_555
Mg15 O17 2.150243 1_555
Mg15 O1 2.184770 1_555
Mg16 O2 2.120647 1_555
Mg16 O22 2.128605 1_555
Mg16 O18 2.129780 1_555
Mg16 O10 2.138463 1_555
Mg16 O8 2.138463 1_555
Mg16 O3 2.150895 1_555
Mg17 O2 2.120647 1_556
Mg17 O23 2.128605 1_555
Mg17 O19 2.129780 1_555
Mg17 O11 2.138463 1_555
Mg17 O9 2.138463 1_555
Mg17 O3 2.150895 1_555
Mg18 O4 2.097112 1_555
Mg18 O14 2.119806 1_545
Mg18 O12 2.119806 1_555
Mg18 O20 2.136623 1_555
Mg18 O16 2.150243 1_655
Mg18 O5 2.184770 1_555
Mg19 O4 2.097112 1_556
Mg19 O15 2.119806 1_545
Mg19 O13 2.119806 1_555
Mg19 O21 2.136623 1_555
Mg19 O17 2.150243 1_655
Mg19 O5 2.184770 1_555
Mg20 O6 2.120647 1_555
Mg20 O22 2.128605 1_555
Mg20 O18 2.129780 1_655
Mg20 O12 2.138463 1_555
Mg20 O14 2.138463 1_555
Mg20 O7 2.150895 1_555
Mg21 O6 2.120647 1_556
Mg21 O23 2.128605 1_555
Mg21 O19 2.129780 1_655
Mg21 O13 2.138463 1_555
Mg21 O15 2.138463 1_555
Mg21 O7 2.150895 1_555
Mg22 O24 2.105595 1_555
Mg22 O0 2.105595 1_555
Mg22 O8 2.147860 1_555
Mg22 O9 2.147860 1_554
Mg22 O2 2.152334 1_555
Mg22 O28 2.152334 1_555
Mg23 O29 2.123394 1_555
Mg23 O3 2.123394 1_555
Mg23 O8 2.123668 1_555
Mg23 O9 2.123668 1_555
Mg23 O25 2.146234 1_555
Mg23 O1 2.146234 1_555
Mg24 O26 2.105595 1_555
Mg24 O0 2.105595 1_565
Mg24 O10 2.147860 1_555
Mg24 O11 2.147860 1_554
Mg24 O2 2.152334 1_555
Mg24 O30 2.152334 1_555
Mg25 O31 2.123394 1_555
Mg25 O3 2.123394 1_555
Mg25 O11 2.123668 1_555
Mg25 O10 2.123668 1_555
Mg25 O27 2.146234 1_555
Mg25 O1 2.146234 1_565
Mg26 O4 2.105595 1_555
Mg26 O24 2.105595 1_655
Mg26 O12 2.147860 1_555
Mg26 O13 2.147860 1_554
Mg26 O28 2.152334 1_555
Mg26 O6 2.152334 1_555
Mg27 O29 2.123394 1_555
Mg27 O7 2.123394 1_555
Mg27 O13 2.123668 1_555
Mg27 O12 2.123668 1_555
Mg27 O5 2.146234 1_555
Mg27 O25 2.146234 1_655
Mg28 O26 2.105595 1_655
Mg28 O4 2.105595 1_565
Mg28 O14 2.147860 1_555
Mg28 O15 2.147860 1_554
Mg28 O6 2.152334 1_555
Mg28 O30 2.152334 1_555
Mg29 O7 2.123394 1_555
Mg29 O31 2.123394 1_555
Mg29 O14 2.123668 1_555
Mg29 O15 2.123668 1_555
Mg29 O5 2.146234 1_565
Mg29 O27 2.146234 1_655
O1 Si0 1.909004 1_555
O5 Si0 1.909004 1_655
O16 Si0 1.829085 1_555
O17 Si0 1.829085 1_555
O25 Si0 1.909004 1_555
O27 Si0 1.909004 1_565
