# generated using pymatgen
data_FeCo3
_symmetry_space_group_name_H-M   'P 1'
_cell_length_a   4.93202000
_cell_length_b   4.93202000
_cell_length_c   14.12691800
_cell_angle_alpha   90.00000000
_cell_angle_beta   90.00000000
_cell_angle_gamma   90.00000000
_symmetry_Int_Tables_number   1
_chemical_formula_structural   FeCo3
_chemical_formula_sum   'Fe8 Co24'
_cell_volume   343.63475559
_cell_formula_units_Z   8
loop_
 _symmetry_equiv_pos_site_id
 _symmetry_equiv_pos_as_xyz
  1  'x, y, z'
loop_
 _atom_site_type_symbol
 _atom_site_label
 _atom_site_symmetry_multiplicity
 _atom_site_fract_x
 _atom_site_fract_y
 _atom_site_fract_z
 _atom_site_occupancy
  Fe  Fe0_0  1  0.00000000  0.00000000  0.00000000  1
  Fe  Fe0_1  1  0.00000000  0.00000000  0.50000000  1
  Fe  Fe0_2  1  0.00000000  0.50000000  0.00000000  1
  Fe  Fe0_3  1  0.00000000  0.50000000  0.50000000  1
  Fe  Fe0_4  1  0.50000000  0.00000000  0.00000000  1
  Fe  Fe0_5  1  0.50000000  0.00000000  0.50000000  1
  Fe  Fe0_6  1  0.50000000  0.50000000  0.00000000  1
  Fe  Fe0_7  1  0.50000000  0.50000000  0.50000000  1
  Co  Co0_0  1  0.25000000  0.25000000  0.37270200  1
  Co  Co0_1  1  0.25000000  0.25000000  0.87270200  1
  Co  Co0_2  1  0.25000000  0.75000000  0.37270200  1
  Co  Co0_3  1  0.25000000  0.75000000  0.87270200  1
  Co  Co0_4  1  0.75000000  0.25000000  0.37270200  1
  Co  Co0_5  1  0.75000000  0.25000000  0.87270200  1
  Co  Co0_6  1  0.75000000  0.75000000  0.37270200  1
  Co  Co0_7  1  0.75000000  0.75000000  0.87270200  1
  Co  Co1_0  1  0.00000000  0.00000000  0.25000000  1
  Co  Co1_1  1  0.00000000  0.00000000  0.75000000  1
  Co  Co1_2  1  0.00000000  0.50000000  0.25000000  1
  Co  Co1_3  1  0.00000000  0.50000000  0.75000000  1
  Co  Co1_4  1  0.50000000  0.00000000  0.25000000  1
  Co  Co1_5  1  0.50000000  0.00000000  0.75000000  1
  Co  Co1_6  1  0.50000000  0.50000000  0.25000000  1
  Co  Co1_7  1  0.50000000  0.50000000  0.75000000  1
  Co  Co2_0  1  0.25000000  0.25000000  0.12729800  1
  Co  Co2_1  1  0.25000000  0.25000000  0.62729800  1
  Co  Co2_2  1  0.25000000  0.75000000  0.12729800  1
  Co  Co2_3  1  0.25000000  0.75000000  0.62729800  1
  Co  Co2_4  1  0.75000000  0.25000000  0.12729800  1
  Co  Co2_5  1  0.75000000  0.25000000  0.62729800  1
  Co  Co2_6  1  0.75000000  0.75000000  0.12729800  1
  Co  Co2_7  1  0.75000000  0.75000000  0.62729800  1
loop_
_geom_bond_atom_site_label_1
_geom_bond_atom_site_label_2
_geom_bond_distance
_geom_bond_site_symmetry_2
Fe0_0 Fe0_4 2.466010 1_555
Fe0_0 Fe0_4 2.466010 1_455
Fe0_0 Fe0_2 2.466010 1_545
Fe0_0 Fe0_2 2.466010 1_555
Fe0_1 Fe0_5 2.466010 1_555
Fe0_1 Fe0_3 2.466010 1_555
Fe0_1 Fe0_5 2.466010 1_455
Fe0_1 Fe0_3 2.466010 1_545
Fe0_2 Fe0_6 2.466010 1_455
Fe0_2 Fe0_6 2.466010 1_555
Fe0_3 Fe0_7 2.466010 1_455
Fe0_3 Fe0_7 2.466010 1_555
Fe0_4 Fe0_6 2.466010 1_545
Fe0_4 Fe0_6 2.466010 1_555
Fe0_5 Fe0_7 2.466010 1_555
Fe0_5 Fe0_7 2.466010 1_545
Co0_0 Co1_6 2.458716 1_555
Co0_0 Co1_0 2.458716 1_555
Co0_0 Co1_4 2.458716 1_555
Co0_0 Co1_2 2.458716 1_555
Co0_0 Co0_2 2.466010 1_555
Co0_0 Co0_2 2.466010 1_545
Co0_0 Co0_4 2.466010 1_455
Co0_0 Co0_4 2.466010 1_555
Co0_0 Fe0_1 2.504913 1_555
Co0_0 Fe0_3 2.504913 1_555
Co0_0 Fe0_5 2.504913 1_555
Co0_0 Fe0_7 2.504913 1_555
Co0_1 Co1_3 2.458716 1_555
Co0_1 Co1_7 2.458716 1_555
Co0_1 Co1_1 2.458716 1_555
Co0_1 Co1_5 2.458716 1_555
Co0_1 Co0_5 2.466010 1_455
Co0_1 Co0_5 2.466010 1_555
Co0_1 Co0_3 2.466010 1_545
Co0_1 Co0_3 2.466010 1_555
Co0_1 Fe0_2 2.504913 1_556
Co0_1 Fe0_6 2.504913 1_556
Co0_1 Fe0_0 2.504913 1_556
Co0_1 Fe0_4 2.504913 1_556
Co0_2 Co1_6 2.458716 1_555
Co0_2 Co1_0 2.458716 1_565
Co0_2 Co1_2 2.458716 1_555
Co0_2 Co1_4 2.458716 1_565
Co0_2 Co0_6 2.466010 1_455
Co0_2 Co0_6 2.466010 1_555
Co0_2 Fe0_1 2.504913 1_565
Co0_2 Fe0_3 2.504913 1_555
Co0_2 Fe0_5 2.504913 1_565
Co0_2 Fe0_7 2.504913 1_555
Co0_3 Co1_3 2.458716 1_555
Co0_3 Co1_7 2.458716 1_555
Co0_3 Co1_1 2.458716 1_565
Co0_3 Co1_5 2.458716 1_565
Co0_3 Co0_7 2.466010 1_455
Co0_3 Co0_7 2.466010 1_555
Co0_3 Fe0_0 2.504913 1_566
Co0_3 Fe0_4 2.504913 1_566
Co0_3 Fe0_2 2.504913 1_556
Co0_3 Fe0_6 2.504913 1_556
Co0_4 Co1_6 2.458716 1_555
Co0_4 Co1_2 2.458716 1_655
Co0_4 Co1_0 2.458716 1_655
Co0_4 Co1_4 2.458716 1_555
Co0_4 Co0_6 2.466010 1_545
Co0_4 Co0_6 2.466010 1_555
Co0_4 Fe0_1 2.504913 1_655
Co0_4 Fe0_5 2.504913 1_555
Co0_4 Fe0_7 2.504913 1_555
Co0_4 Fe0_3 2.504913 1_655
Co0_5 Co1_3 2.458716 1_655
Co0_5 Co1_7 2.458716 1_555
Co0_5 Co1_1 2.458716 1_655
Co0_5 Co1_5 2.458716 1_555
Co0_5 Co0_7 2.466010 1_545
Co0_5 Co0_7 2.466010 1_555
Co0_5 Fe0_6 2.504913 1_556
Co0_5 Fe0_2 2.504913 1_656
Co0_5 Fe0_0 2.504913 1_656
Co0_5 Fe0_4 2.504913 1_556
Co0_6 Co1_6 2.458716 1_555
Co0_6 Co1_2 2.458716 1_655
Co0_6 Co1_0 2.458716 1_665
Co0_6 Co1_4 2.458716 1_565
Co0_6 Fe0_1 2.504913 1_665
Co0_6 Fe0_5 2.504913 1_565
Co0_6 Fe0_7 2.504913 1_555
Co0_6 Fe0_3 2.504913 1_655
Co0_7 Co1_3 2.458716 1_655
Co0_7 Co1_7 2.458716 1_555
Co0_7 Co1_1 2.458716 1_665
Co0_7 Co1_5 2.458716 1_565
Co0_7 Fe0_4 2.504913 1_566
Co0_7 Fe0_0 2.504913 1_666
Co0_7 Fe0_6 2.504913 1_556
Co0_7 Fe0_2 2.504913 1_656
Co1_0 Co2_6 2.458716 1_445
Co1_0 Co2_4 2.458716 1_455
Co1_0 Co2_2 2.458716 1_545
Co1_0 Co2_0 2.458716 1_555
Co1_0 Co1_4 2.466010 1_455
Co1_0 Co1_2 2.466010 1_545
Co1_0 Co1_4 2.466010 1_555
Co1_0 Co1_2 2.466010 1_555
Co1_1 Co2_7 2.458716 1_445
Co1_1 Co2_3 2.458716 1_545
Co1_1 Co2_5 2.458716 1_455
Co1_1 Co2_1 2.458716 1_555
Co1_1 Co1_3 2.466010 1_555
Co1_1 Co1_5 2.466010 1_455
Co1_1 Co1_3 2.466010 1_545
Co1_1 Co1_5 2.466010 1_555
Co1_2 Co2_6 2.458716 1_455
Co1_2 Co2_2 2.458716 1_555
Co1_2 Co2_4 2.458716 1_455
Co1_2 Co2_0 2.458716 1_555
Co1_2 Co1_6 2.466010 1_555
Co1_2 Co1_6 2.466010 1_455
Co1_3 Co2_7 2.458716 1_455
Co1_3 Co2_3 2.458716 1_555
Co1_3 Co2_5 2.458716 1_455
Co1_3 Co2_1 2.458716 1_555
Co1_3 Co1_7 2.466010 1_455
Co1_3 Co1_7 2.466010 1_555
Co1_4 Co2_4 2.458716 1_555
Co1_4 Co2_2 2.458716 1_545
Co1_4 Co2_6 2.458716 1_545
Co1_4 Co2_0 2.458716 1_555
Co1_4 Co1_6 2.466010 1_555
Co1_4 Co1_6 2.466010 1_545
Co1_5 Co2_3 2.458716 1_545
Co1_5 Co2_7 2.458716 1_545
Co1_5 Co2_1 2.458716 1_555
Co1_5 Co2_5 2.458716 1_555
Co1_5 Co1_7 2.466010 1_545
Co1_5 Co1_7 2.466010 1_555
Co1_6 Co2_4 2.458716 1_555
Co1_6 Co2_2 2.458716 1_555
Co1_6 Co2_6 2.458716 1_555
Co1_6 Co2_0 2.458716 1_555
Co1_7 Co2_3 2.458716 1_555
Co1_7 Co2_7 2.458716 1_555
Co1_7 Co2_1 2.458716 1_555
Co1_7 Co2_5 2.458716 1_555
Co2_0 Co2_4 2.466010 1_555
Co2_0 Co2_2 2.466010 1_555
Co2_0 Co2_2 2.466010 1_545
Co2_0 Co2_4 2.466010 1_455
Co2_0 Fe0_4 2.504913 1_555
Co2_0 Fe0_0 2.504913 1_555
Co2_0 Fe0_2 2.504913 1_555
Co2_0 Fe0_6 2.504913 1_555
Co2_1 Co2_5 2.466010 1_555
Co2_1 Co2_5 2.466010 1_455
Co2_1 Co2_3 2.466010 1_545
Co2_1 Co2_3 2.466010 1_555
Co2_1 Fe0_1 2.504913 1_555
Co2_1 Fe0_3 2.504913 1_555
Co2_1 Fe0_5 2.504913 1_555
Co2_1 Fe0_7 2.504913 1_555
Co2_2 Co2_6 2.466010 1_455
Co2_2 Co2_6 2.466010 1_555
Co2_2 Fe0_0 2.504913 1_565
Co2_2 Fe0_4 2.504913 1_565
Co2_2 Fe0_2 2.504913 1_555
Co2_2 Fe0_6 2.504913 1_555
Co2_3 Co2_7 2.466010 1_455
Co2_3 Co2_7 2.466010 1_555
Co2_3 Fe0_1 2.504913 1_565
Co2_3 Fe0_5 2.504913 1_565
Co2_3 Fe0_3 2.504913 1_555
Co2_3 Fe0_7 2.504913 1_555
Co2_4 Co2_6 2.466010 1_555
Co2_4 Co2_6 2.466010 1_545
Co2_4 Fe0_2 2.504913 1_655
Co2_4 Fe0_0 2.504913 1_655
Co2_4 Fe0_4 2.504913 1_555
Co2_4 Fe0_6 2.504913 1_555
Co2_5 Co2_7 2.466010 1_555
Co2_5 Co2_7 2.466010 1_545
Co2_5 Fe0_1 2.504913 1_655
Co2_5 Fe0_5 2.504913 1_555
Co2_5 Fe0_7 2.504913 1_555
Co2_5 Fe0_3 2.504913 1_655
Co2_6 Fe0_2 2.504913 1_655
Co2_6 Fe0_0 2.504913 1_665
Co2_6 Fe0_4 2.504913 1_565
Co2_6 Fe0_6 2.504913 1_555
Co2_7 Fe0_1 2.504913 1_665
Co2_7 Fe0_5 2.504913 1_565
Co2_7 Fe0_7 2.504913 1_555
Co2_7 Fe0_3 2.504913 1_655
