# generated using pymatgen
data_Hf3AlN
_symmetry_space_group_name_H-M   'P 1'
_cell_length_a   5.89813400
_cell_length_b   5.89813400
_cell_length_c   8.83856158
_cell_angle_alpha   90.00000000
_cell_angle_beta   90.00000000
_cell_angle_gamma   147.47868919
_symmetry_Int_Tables_number   1
_chemical_formula_structural   Hf3AlN
_chemical_formula_sum   'Hf6 Al2 N2'
_cell_volume   165.30303928
_cell_formula_units_Z   2
loop_
 _symmetry_equiv_pos_site_id
 _symmetry_equiv_pos_as_xyz
  1  'x, y, z'
loop_
 _atom_site_type_symbol
 _atom_site_label
 _atom_site_symmetry_multiplicity
 _atom_site_fract_x
 _atom_site_fract_y
 _atom_site_fract_z
 _atom_site_occupancy
  Hf  Hf0  1  0.62821771  0.37178229  0.45804343  1
  Hf  Hf1  1  0.37178229  0.62821771  0.54195657  1
  Hf  Hf2  1  0.62821771  0.37178229  0.04195657  1
  Hf  Hf3  1  0.37178229  0.62821771  0.95804343  1
  Hf  Hf4  1  0.95677956  0.04322044  0.25000000  1
  Hf  Hf5  1  0.04322044  0.95677956  0.75000000  1
  Al  Al0  1  0.25291433  0.74708567  0.25000000  1
  Al  Al1  1  0.74708567  0.25291433  0.75000000  1
  N  N0  1  0.00000000  -0.00000000  0.50000000  1
  N  N1  1  0.00000000  -0.00000000  -0.00000000  1
loop_
_geom_bond_atom_site_label_1
_geom_bond_atom_site_label_2
_geom_bond_distance
_geom_bond_site_symmetry_2
Hf0 N0 2.230092 1_665
Hf0 N0 2.230092 1_555
Hf1 N0 2.230092 1_665
Hf1 N0 2.230092 1_555
Hf2 N1 2.230092 1_665
Hf2 N1 2.230092 1_555
Hf3 N1 2.230092 1_556
Hf3 N1 2.230092 1_666
Hf4 N0 2.263198 1_655
Hf4 N1 2.263198 1_655
Hf5 N1 2.263198 1_566
Hf5 N0 2.263198 1_565
Al0 Hf4 2.838554 1_565
Al0 Hf4 2.838554 1_455
Al0 Hf2 2.846540 1_455
Al0 Hf0 2.846540 1_455
Al0 Hf2 2.846540 1_565
Al0 Hf0 2.846540 1_565
Al0 Hf1 2.910475 1_555
Al0 Hf3 2.910475 1_554
Al1 Hf5 2.838554 1_655
Al1 Hf5 2.838554 1_545
Al1 Hf3 2.846540 1_545
Al1 Hf1 2.846540 1_545
Al1 Hf3 2.846540 1_655
Al1 Hf1 2.846540 1_655
Al1 Hf2 2.910475 1_556
Al1 Hf0 2.910475 1_555
