# generated using pymatgen
data_H5ClO6
_symmetry_space_group_name_H-M   'P 1'
_cell_length_a   6.25080957
_cell_length_b   11.97567026
_cell_length_c   7.44239195
_cell_angle_alpha   90.11173230
_cell_angle_beta   96.45235893
_cell_angle_gamma   90.39611356
_symmetry_Int_Tables_number   1
_chemical_formula_structural   H5ClO6
_chemical_formula_sum   'H20 Cl4 O24'
_cell_volume   553.57554217
_cell_formula_units_Z   4
loop_
 _symmetry_equiv_pos_site_id
 _symmetry_equiv_pos_as_xyz
  1  'x, y, z'
loop_
 _atom_site_type_symbol
 _atom_site_label
 _atom_site_symmetry_multiplicity
 _atom_site_fract_x
 _atom_site_fract_y
 _atom_site_fract_z
 _atom_site_occupancy
  H  H0  1  0.94616300  0.25061200  0.27926100  1
  H  H1  1  0.16771600  0.72005000  0.29248400  1
  H  H2  1  0.52140000  0.05593700  0.75037500  1
  H  H3  1  0.01516700  0.47744900  0.75441100  1
  H  H4  1  0.67982400  0.01706500  0.24271700  1
  H  H5  1  0.52349600  0.44059000  0.74710700  1
  H  H6  1  0.01162900  0.01903500  0.75485100  1
  H  H7  1  0.50176300  0.11572700  0.19158200  1
  H  H8  1  0.97019300  0.53874700  0.25027000  1
  H  H9  1  0.93168500  0.50881800  0.45130200  1
  H  H10  1  0.37650000  0.54074100  0.78153500  1
  H  H11  1  0.51570700  0.47720800  0.01490300  1
  H  H12  1  0.00012800  0.89172900  0.71354300  1
  H  H13  1  0.51946500  0.02059800  0.02805200  1
  H  H14  1  0.39305800  0.94852800  0.78803600  1
  H  H15  1  0.00970500  0.60626000  0.72210700  1
  H  H16  1  0.50026500  0.38083800  0.18225600  1
  H  H17  1  0.66917200  0.48192800  0.23313100  1
  H  H18  1  0.93066200  0.99074300  0.45348500  1
  H  H19  1  0.96587000  0.95835400  0.25101400  1
  Cl  Cl0  1  0.59625300  0.24962800  0.49766800  1
  Cl  Cl1  1  0.04171000  0.24952100  0.00917600  1
  Cl  Cl2  1  0.42857700  0.74879200  0.51025600  1
  Cl  Cl3  1  0.92718800  0.75696800  0.00539400  1
  O  O0  1  0.59437000  0.24982400  0.29523700  1
  O  O1  1  0.08812300  0.25008900  0.23011800  1
  O  O2  1  0.40313100  0.75121500  0.69851000  1
  O  O3  1  0.92538400  0.74296900  0.80883600  1
  O  O4  1  0.81950400  0.25125700  0.57590700  1
  O  O5  1  0.25635200  0.24867800  0.96096800  1
  O  O6  1  0.17674000  0.75097200  0.42061200  1
  O  O7  1  0.71435400  0.74859300  0.05919000  1
  O  O8  1  0.48580900  0.14914000  0.54716800  1
  O  O9  1  0.92681000  0.35042700  0.96010000  1
  O  O10  1  0.51485300  0.64678200  0.44901300  1
  O  O11  1  0.02847500  0.86454000  0.05692900  1
  O  O12  1  0.52846300  0.84693200  0.44835300  1
  O  O13  1  0.06591700  0.66658800  0.09479600  1
  O  O14  1  0.48362400  0.34884600  0.54785400  1
  O  O15  1  0.92065600  0.15027000  0.95963800  1
  O  O16  1  0.52238700  0.03537300  0.16842800  1
  O  O17  1  0.88818200  0.48934000  0.32206300  1
  O  O18  1  0.51023900  0.50322300  0.83109400  1
  O  O19  1  0.05185700  0.96324700  0.66929000  1
  O  O20  1  0.51741200  0.99397200  0.83649600  1
  O  O21  1  0.06356100  0.53549400  0.67617900  1
  O  O22  1  0.51865000  0.46144100  0.15849500  1
  O  O23  1  0.88911800  0.00999100  0.32343700  1
loop_
_geom_bond_atom_site_label_1
_geom_bond_atom_site_label_2
_geom_bond_distance
_geom_bond_site_symmetry_2
H0 O1 0.997113 1_655
H1 O6 1.017777 1_555
H1 O13 1.661246 1_555
H2 O20 0.983512 1_545
H3 O21 0.975685 1_555
H4 O16 1.096993 1_555
H4 O23 1.380109 1_555
H5 O18 0.985319 1_555
H6 O19 0.975564 1_545
H7 O16 0.989133 1_555
H8 O17 0.978249 1_555
H9 O17 0.996478 1_555
H10 O18 0.986565 1_555
H11 O22 1.083725 1_555
H11 O18 1.400320 1_554
H12 O19 0.983759 1_555
H13 O16 1.057381 1_555
H13 O20 1.458880 1_544
H14 O20 0.980227 1_555
H15 O21 0.988458 1_555
H16 O22 0.989916 1_555
H17 O22 1.064339 1_555
H17 O17 1.454140 1_555
H18 O23 1.001272 1_565
H19 O23 0.981844 1_565
Cl0 O4 1.450450 1_555
Cl0 O8 1.451869 1_555
Cl0 O14 1.454618 1_555
Cl0 O0 1.505300 1_555
Cl1 O5 1.427345 1_554
Cl1 O15 1.429831 1_454
Cl1 O9 1.436758 1_454
Cl1 O1 1.637305 1_555
Cl2 O2 1.427971 1_555
Cl2 O12 1.428291 1_555
Cl2 O10 1.432889 1_555
Cl2 O6 1.639646 1_555
Cl3 O7 1.434680 1_555
Cl3 O11 1.462789 1_655
Cl3 O3 1.470886 1_554
Cl3 O13 1.500768 1_655
