# generated using pymatgen
data_NdB5IO11
_symmetry_space_group_name_H-M   'P 1'
_cell_length_a   15.72903900
_cell_length_b   6.53663900
_cell_length_c   11.69070154
_cell_angle_alpha   58.25269109
_cell_angle_beta   90.00000000
_cell_angle_gamma   90.00000000
_symmetry_Int_Tables_number   1
_chemical_formula_structural   NdB5IO11
_chemical_formula_sum   'Nd4 B20 I4 O44'
_cell_volume   1022.13612563
_cell_formula_units_Z   4
loop_
 _symmetry_equiv_pos_site_id
 _symmetry_equiv_pos_as_xyz
  1  'x, y, z'
loop_
 _atom_site_type_symbol
 _atom_site_label
 _atom_site_symmetry_multiplicity
 _atom_site_fract_x
 _atom_site_fract_y
 _atom_site_fract_z
 _atom_site_occupancy
  Nd  Nd0  1  0.83049100  0.55435900  0.30090900  1
  Nd  Nd1  1  0.66950900  0.55435900  0.80090900  1
  Nd  Nd2  1  0.16950900  0.44564100  0.69909100  1
  Nd  Nd3  1  0.33049100  0.44564100  0.19909100  1
  B  B0  1  0.04423600  0.44641500  0.36227900  1
  B  B1  1  0.45576400  0.44641500  0.86227900  1
  B  B2  1  0.95576400  0.55358500  0.63772100  1
  B  B3  1  0.54423600  0.55358500  0.13772100  1
  B  B4  1  0.84527000  0.83192400  0.49961000  1
  B  B5  1  0.65473000  0.83192400  0.99961000  1
  B  B6  1  0.15473000  0.16807600  0.50039000  1
  B  B7  1  0.34527000  0.16807600  0.00039000  1
  B  B8  1  0.77884800  0.11727900  0.27676900  1
  B  B9  1  0.72115200  0.11727900  0.77676900  1
  B  B10  1  0.22115200  0.88272100  0.72323100  1
  B  B11  1  0.27884800  0.88272100  0.22323100  1
  B  B12  1  0.71222700  0.00901100  0.12958800  1
  B  B13  1  0.78777300  0.00901100  0.62958800  1
  B  B14  1  0.28777300  0.99098900  0.87041200  1
  B  B15  1  0.21222700  0.99098900  0.37041200  1
  B  B16  1  0.17857900  0.59585700  0.39890400  1
  B  B17  1  0.32142100  0.59585700  0.89890400  1
  B  B18  1  0.82142100  0.40414300  0.60109600  1
  B  B19  1  0.67857900  0.40414300  0.10109600  1
  I  I0  1  0.54688900  0.29989000  0.46065600  1
  I  I1  1  0.95311100  0.29989000  0.96065600  1
  I  I2  1  0.45311100  0.70011000  0.53934400  1
  I  I3  1  0.04688900  0.70011000  0.03934400  1
  O  O0  1  0.74690600  0.94108000  0.25520700  1
  O  O1  1  0.75309400  0.94108000  0.75520700  1
  O  O2  1  0.25309400  0.05892000  0.74479300  1
  O  O3  1  0.24690600  0.05892000  0.24479300  1
  O  O4  1  0.75279600  0.35251700  0.19626100  1
  O  O5  1  0.74720400  0.35251700  0.69626100  1
  O  O6  1  0.24720400  0.64748300  0.80373900  1
  O  O7  1  0.25279600  0.64748300  0.30373900  1
  O  O8  1  0.81544900  0.63903900  0.47995800  1
  O  O9  1  0.68455100  0.63903900  0.97995800  1
  O  O10  1  0.18455100  0.36096100  0.52004200  1
  O  O11  1  0.31544900  0.36096100  0.02004200  1
  O  O12  1  0.83446200  0.07110600  0.37564000  1
  O  O13  1  0.66553800  0.07110600  0.87564000  1
  O  O14  1  0.16553800  0.92889400  0.62436000  1
  O  O15  1  0.33446200  0.92889400  0.12436000  1
  O  O16  1  0.71393500  0.82849400  0.10520200  1
  O  O17  1  0.78606500  0.82849400  0.60520200  1
  O  O18  1  0.28606500  0.17150600  0.89479800  1
  O  O19  1  0.21393500  0.17150600  0.39479800  1
  O  O20  1  0.10068200  0.63650200  0.32522100  1
  O  O21  1  0.39931800  0.63650200  0.82522100  1
  O  O22  1  0.89931800  0.36349800  0.67477900  1
  O  O23  1  0.60068200  0.36349800  0.17477900  1
  O  O24  1  0.81343800  0.24155700  0.54542400  1
  O  O25  1  0.68656200  0.24155700  0.04542400  1
  O  O26  1  0.18656200  0.75844300  0.45457600  1
  O  O27  1  0.31343800  0.75844300  0.95457600  1
  O  O28  1  0.06894200  0.21284500  0.45007600  1
  O  O29  1  0.43105800  0.21284500  0.95007600  1
  O  O30  1  0.93105800  0.78715500  0.54992400  1
  O  O31  1  0.56894200  0.78715500  0.04992400  1
  O  O32  1  0.96659400  0.50462800  0.29850500  1
  O  O33  1  0.53340600  0.50462800  0.79850500  1
  O  O34  1  0.03340600  0.49537200  0.70149500  1
  O  O35  1  0.46659400  0.49537200  0.20149500  1
  O  O36  1  0.93904300  0.66792600  0.98892700  1
  O  O37  1  0.56095700  0.66792600  0.48892700  1
  O  O38  1  0.06095700  0.33207400  0.01107300  1
  O  O39  1  0.43904300  0.33207400  0.51107300  1
  O  O40  1  0.89954300  0.06850000  0.11469000  1
  O  O41  1  0.60045700  0.06850000  0.61469000  1
  O  O42  1  0.10045700  0.93150000  0.88531000  1
  O  O43  1  0.39954300  0.93150000  0.38531000  1
loop_
_geom_bond_atom_site_label_1
_geom_bond_atom_site_label_2
_geom_bond_distance
_geom_bond_site_symmetry_2
Nd0 O32 2.167711 1_555
Nd0 O8 2.441962 1_555
Nd0 O24 2.504633 1_555
Nd0 O4 2.535652 1_555
Nd0 O0 2.642476 1_555
Nd0 O16 2.737206 1_555
Nd0 O12 2.800231 1_555
Nd0 O40 3.084530 1_565
Nd1 O33 2.167711 1_555
Nd1 O9 2.441962 1_555
Nd1 O25 2.504633 1_556
Nd1 O5 2.535652 1_555
Nd1 O1 2.642476 1_555
Nd1 O17 2.737206 1_555
Nd1 O13 2.800231 1_555
Nd1 O41 3.084530 1_565
Nd2 O34 2.167711 1_555
Nd2 O10 2.441962 1_555
Nd2 O26 2.504633 1_555
Nd2 O6 2.535652 1_555
Nd2 O2 2.642476 1_555
Nd2 O18 2.737206 1_555
Nd2 O14 2.800231 1_555
Nd2 O42 3.084530 1_545
Nd3 O35 2.167711 1_555
Nd3 O11 2.441962 1_555
Nd3 O27 2.504633 1_554
Nd3 O7 2.535652 1_555
Nd3 O3 2.642476 1_555
Nd3 O19 2.737206 1_555
Nd3 O15 2.800231 1_555
Nd3 O43 3.084530 1_545
B0 O28 1.373468 1_555
B0 O32 1.376052 1_455
B0 O20 1.397623 1_555
B1 O29 1.373468 1_555
B1 O33 1.376052 1_555
B1 O21 1.397623 1_555
B2 O30 1.373468 1_555
B2 O34 1.376052 1_655
B2 O22 1.397623 1_555
B3 O31 1.373468 1_555
B3 O35 1.376052 1_555
B3 O23 1.397623 1_555
B4 O30 1.439188 1_555
B4 O8 1.472173 1_555
B4 O12 1.479599 1_565
B4 O17 1.537021 1_555
B5 O31 1.439188 1_556
B5 O9 1.472173 1_555
B5 O13 1.479599 1_565
B5 O16 1.537021 1_556
B6 O28 1.439188 1_555
B6 O10 1.472173 1_555
B6 O14 1.479599 1_545
B6 O19 1.537021 1_555
B7 O29 1.439188 1_554
B7 O11 1.472173 1_555
B7 O15 1.479599 1_545
B7 O18 1.537021 1_554
B8 O12 1.351001 1_555
B8 O4 1.376653 1_555
B8 O0 1.395713 1_545
B9 O13 1.351001 1_555
B9 O5 1.376653 1_555
B9 O1 1.395713 1_545
B10 O14 1.351001 1_555
B10 O6 1.376653 1_555
B10 O2 1.395713 1_565
B11 O15 1.351001 1_555
B11 O7 1.376653 1_555
B11 O3 1.395713 1_565
B12 O16 1.352163 1_545
B12 O25 1.366659 1_555
B12 O0 1.401847 1_545
B13 O17 1.352163 1_545
B13 O24 1.366659 1_555
B13 O1 1.401847 1_545
B14 O18 1.352163 1_565
B14 O27 1.366659 1_555
B14 O2 1.401847 1_565
B15 O19 1.352163 1_565
B15 O26 1.366659 1_555
B15 O3 1.401847 1_565
B16 O20 1.439789 1_555
B16 O10 1.443493 1_555
B16 O26 1.515500 1_555
B16 O7 1.522918 1_555
B17 O21 1.439789 1_555
B17 O11 1.443493 1_556
B17 O27 1.515500 1_555
B17 O6 1.522918 1_555
B18 O22 1.439789 1_555
B18 O8 1.443493 1_555
B18 O24 1.515500 1_555
B18 O5 1.522918 1_555
B19 O23 1.439789 1_555
B19 O9 1.443493 1_554
B19 O25 1.515500 1_555
B19 O4 1.522918 1_555
I0 O41 1.836878 1_555
I0 O39 1.843809 1_555
I0 O37 2.604306 1_555
I1 O40 1.836878 1_556
I1 O38 1.843809 1_656
I1 O36 2.604306 1_555
I2 O43 1.836878 1_555
I2 O37 1.843809 1_555
I2 O39 2.604306 1_555
I3 O42 1.836878 1_554
I3 O36 1.843809 1_454
I3 O38 2.604306 1_555
