# generated using pymatgen
data_Li6B4O9
_symmetry_space_group_name_H-M   'P 1'
_cell_length_a   23.65045800
_cell_length_b   3.39381500
_cell_length_c   9.73317085
_cell_angle_alpha   72.09944618
_cell_angle_beta   90.00000000
_cell_angle_gamma   90.00000000
_symmetry_Int_Tables_number   1
_chemical_formula_structural   Li6B4O9
_chemical_formula_sum   'Li24 B16 O36'
_cell_volume   743.41717571
_cell_formula_units_Z   4
loop_
 _symmetry_equiv_pos_site_id
 _symmetry_equiv_pos_as_xyz
  1  'x, y, z'
loop_
 _atom_site_type_symbol
 _atom_site_label
 _atom_site_symmetry_multiplicity
 _atom_site_fract_x
 _atom_site_fract_y
 _atom_site_fract_z
 _atom_site_occupancy
  Li  Li0  1  0.11863800  0.62992300  0.17884000  1
  Li  Li1  1  0.38136200  0.62992300  0.67884000  1
  Li  Li2  1  0.88136200  0.37007700  0.82116000  1
  Li  Li3  1  0.61863800  0.37007700  0.32116000  1
  Li  Li4  1  0.94250900  0.13974300  0.54132000  1
  Li  Li5  1  0.55749100  0.13974300  0.04132000  1
  Li  Li6  1  0.05749100  0.86025700  0.45868000  1
  Li  Li7  1  0.44250900  0.86025700  0.95868000  1
  Li  Li8  1  0.95818300  0.75133400  0.98961800  1
  Li  Li9  1  0.54181700  0.75133400  0.48961800  1
  Li  Li10  1  0.04181700  0.24866600  0.01038200  1
  Li  Li11  1  0.45818300  0.24866600  0.51038200  1
  Li  Li12  1  0.14336500  0.34228000  0.47879100  1
  Li  Li13  1  0.35663500  0.34228000  0.97879100  1
  Li  Li14  1  0.85663500  0.65772000  0.52120900  1
  Li  Li15  1  0.64336500  0.65772000  0.02120900  1
  Li  Li16  1  0.20424800  0.68296000  0.64906700  1
  Li  Li17  1  0.29575200  0.68296000  0.14906700  1
  Li  Li18  1  0.79575200  0.31704000  0.35093300  1
  Li  Li19  1  0.70424800  0.31704000  0.85093300  1
  Li  Li20  1  0.20626400  0.11932200  0.19727800  1
  Li  Li21  1  0.29373600  0.11932200  0.69727800  1
  Li  Li22  1  0.79373600  0.88067800  0.80272200  1
  Li  Li23  1  0.70626400  0.88067800  0.30272200  1
  B  B0  1  0.97718900  0.50474300  0.73771700  1
  B  B1  1  0.52281100  0.50474300  0.23771700  1
  B  B2  1  0.02281100  0.49525700  0.26228300  1
  B  B3  1  0.47718900  0.49525700  0.76228300  1
  B  B4  1  0.08645400  0.62187300  0.70331000  1
  B  B5  1  0.41354600  0.62187300  0.20331000  1
  B  B6  1  0.91354600  0.37812700  0.29669000  1
  B  B7  1  0.58645400  0.37812700  0.79669000  1
  B  B8  1  0.14803700  0.37035600  0.93524700  1
  B  B9  1  0.35196300  0.37035600  0.43524700  1
  B  B10  1  0.85196300  0.62964400  0.06475300  1
  B  B11  1  0.64803700  0.62964400  0.56475300  1
  B  B12  1  0.25674600  0.40999200  0.91705600  1
  B  B13  1  0.24325400  0.40999200  0.41705600  1
  B  B14  1  0.74325400  0.59000800  0.08294400  1
  B  B15  1  0.75674600  0.59000800  0.58294400  1
  O  O0  1  0.97377200  0.34127900  0.88269100  1
  O  O1  1  0.52622800  0.34127900  0.38269100  1
  O  O2  1  0.02622800  0.65872100  0.11730900  1
  O  O3  1  0.47377200  0.65872100  0.61730900  1
  O  O4  1  0.93175100  0.54516100  0.64575000  1
  O  O5  1  0.56824900  0.54516100  0.14575000  1
  O  O6  1  0.06824900  0.45483900  0.35425000  1
  O  O7  1  0.43175100  0.45483900  0.85425000  1
  O  O8  1  0.02891900  0.67062500  0.66379900  1
  O  O9  1  0.47108100  0.67062500  0.16379900  1
  O  O10  1  0.97108100  0.32937500  0.33620100  1
  O  O11  1  0.52891900  0.32937500  0.83620100  1
  O  O12  1  0.12414900  0.74268600  0.59477800  1
  O  O13  1  0.37585100  0.74268600  0.09477800  1
  O  O14  1  0.87585100  0.25731400  0.40522200  1
  O  O15  1  0.62414900  0.25731400  0.90522200  1
  O  O16  1  0.09842100  0.44762000  0.84959800  1
  O  O17  1  0.40157900  0.44762000  0.34959800  1
  O  O18  1  0.90157900  0.55238000  0.15040200  1
  O  O19  1  0.59842100  0.55238000  0.65040200  1
  O  O20  1  0.19939200  0.46846700  0.86228400  1
  O  O21  1  0.30060800  0.46846700  0.36228400  1
  O  O22  1  0.80060800  0.53153300  0.13771600  1
  O  O23  1  0.69939200  0.53153300  0.63771600  1
  O  O24  1  0.14006100  0.21281300  0.07804400  1
  O  O25  1  0.35993900  0.21281300  0.57804400  1
  O  O26  1  0.85993900  0.78718700  0.92195600  1
  O  O27  1  0.64006100  0.78718700  0.42195600  1
  O  O28  1  0.29756300  0.51936000  0.81215200  1
  O  O29  1  0.20243700  0.51936000  0.31215200  1
  O  O30  1  0.70243700  0.48064000  0.18784800  1
  O  O31  1  0.79756300  0.48064000  0.68784800  1
  O  O32  1  0.26832300  0.25903800  0.06053300  1
  O  O33  1  0.23167700  0.25903800  0.56053300  1
  O  O34  1  0.73167700  0.74096200  0.93946700  1
  O  O35  1  0.76832300  0.74096200  0.43946700  1
loop_
_geom_bond_atom_site_label_1
_geom_bond_atom_site_label_2
_geom_bond_distance
_geom_bond_site_symmetry_2
Li0 O24 1.984819 1_565
Li0 O6 2.016062 1_555
Li0 O24 2.019118 1_555
Li0 O2 2.260270 1_555
Li0 O29 2.335165 1_555
Li1 O25 1.984819 1_565
Li1 O7 2.016062 1_555
Li1 O25 2.019118 1_555
Li1 O3 2.260270 1_555
Li1 O28 2.335165 1_555
Li2 O26 1.984819 1_545
Li2 O4 2.016062 1_555
Li2 O26 2.019118 1_555
Li2 O0 2.260270 1_555
Li2 O31 2.335165 1_555
Li3 O27 1.984819 1_545
Li3 O5 2.016062 1_555
Li3 O27 2.019118 1_555
Li3 O1 2.260270 1_555
Li3 O30 2.335165 1_555
Li4 O4 1.962328 1_555
Li4 O4 1.977106 1_545
Li4 O10 2.016633 1_555
Li4 O14 2.018503 1_555
Li5 O5 1.962328 1_555
Li5 O5 1.977106 1_545
Li5 O11 2.016633 1_554
Li5 O15 2.018503 1_554
Li6 O6 1.962328 1_555
Li6 O6 1.977106 1_565
Li6 O8 2.016633 1_555
Li6 O12 2.018503 1_555
Li7 O7 1.962328 1_555
Li7 O7 1.977106 1_565
Li7 O9 2.016633 1_556
Li7 O13 2.018503 1_556
Li8 O0 1.986654 1_565
Li8 O2 1.998282 1_656
Li8 O0 2.011493 1_555
Li8 O18 2.011846 1_556
Li8 O26 2.407899 1_555
Li9 O1 1.986654 1_565
Li9 O3 1.998282 1_555
Li9 O1 2.011493 1_555
Li9 O19 2.011846 1_555
Li9 O27 2.407899 1_555
Li10 O2 1.986654 1_545
Li10 O0 1.998282 1_454
Li10 O2 2.011493 1_555
Li10 O16 2.011846 1_554
Li10 O24 2.407899 1_555
Li11 O3 1.986654 1_545
Li11 O1 1.998282 1_555
Li11 O3 2.011493 1_555
Li11 O17 2.011846 1_555
Li11 O25 2.407899 1_555
Li12 O12 2.051749 1_545
Li12 O12 2.066562 1_555
Li12 O29 2.084333 1_555
Li12 O6 2.118183 1_555
Li12 O33 2.221928 1_555
Li13 O13 2.051749 1_546
Li13 O13 2.066562 1_556
Li13 O28 2.084333 1_555
Li13 O7 2.118183 1_555
Li13 O32 2.221928 1_556
Li14 O14 2.051749 1_565
Li14 O14 2.066562 1_555
Li14 O31 2.084333 1_555
Li14 O4 2.118183 1_555
Li14 O35 2.221928 1_555
Li15 O15 2.051749 1_564
Li15 O15 2.066562 1_554
Li15 O30 2.084333 1_555
Li15 O5 2.118183 1_555
Li15 O34 2.221928 1_554
Li16 O12 1.960389 1_555
Li16 O20 1.980203 1_555
Li16 O33 1.987495 1_565
Li16 O33 1.998848 1_555
Li17 O13 1.960389 1_555
Li17 O21 1.980203 1_555
Li17 O32 1.987495 1_565
Li17 O32 1.998848 1_555
Li18 O14 1.960389 1_555
Li18 O22 1.980203 1_555
Li18 O35 1.987495 1_545
Li18 O35 1.998848 1_555
Li19 O15 1.960389 1_555
Li19 O23 1.980203 1_555
Li19 O34 1.987495 1_545
Li19 O34 1.998848 1_555
Li20 O24 1.916415 1_555
Li20 O32 1.939730 1_555
Li20 O29 2.001189 1_545
Li20 O29 2.008654 1_555
Li21 O25 1.916415 1_555
Li21 O33 1.939730 1_555
Li21 O28 2.001189 1_545
Li21 O28 2.008654 1_555
Li22 O26 1.916415 1_555
Li22 O34 1.939730 1_555
Li22 O31 2.001189 1_565
Li22 O31 2.008654 1_555
Li23 O27 1.916415 1_555
Li23 O35 1.939730 1_555
Li23 O30 2.001189 1_565
Li23 O30 2.008654 1_555
B0 O0 1.350615 1_555
B0 O4 1.378195 1_555
B0 O8 1.443042 1_655
B1 O1 1.350615 1_555
B1 O5 1.378195 1_555
B1 O9 1.443042 1_555
B2 O2 1.350615 1_555
B2 O6 1.378195 1_555
B2 O10 1.443042 1_455
B3 O3 1.350615 1_555
B3 O7 1.378195 1_555
B3 O11 1.443042 1_555
B4 O12 1.346304 1_555
B4 O16 1.392676 1_555
B4 O8 1.409871 1_555
B5 O13 1.346304 1_555
B5 O17 1.392676 1_555
B5 O9 1.409871 1_555
B6 O14 1.346304 1_555
B6 O18 1.392676 1_555
B6 O10 1.409871 1_555
B7 O15 1.346304 1_555
B7 O19 1.392676 1_555
B7 O11 1.409871 1_555
B8 O24 1.340287 1_556
B8 O20 1.394638 1_555
B8 O16 1.416437 1_555
B9 O25 1.340287 1_555
B9 O21 1.394638 1_555
B9 O17 1.416437 1_555
B10 O26 1.340287 1_554
B10 O22 1.394638 1_555
B10 O18 1.416437 1_555
B11 O27 1.340287 1_555
B11 O23 1.394638 1_555
B11 O19 1.416437 1_555
B12 O32 1.359339 1_556
B12 O28 1.370846 1_555
B12 O20 1.448620 1_555
B13 O33 1.359339 1_555
B13 O29 1.370846 1_555
B13 O21 1.448620 1_555
B14 O34 1.359339 1_554
B14 O30 1.370846 1_555
B14 O22 1.448620 1_555
B15 O35 1.359339 1_555
B15 O31 1.370846 1_555
B15 O23 1.448620 1_555
