# generated using pymatgen
data_NaLaSiO4
_symmetry_space_group_name_H-M   'P 1'
_cell_length_a   5.50415500
_cell_length_b   7.14629400
_cell_length_c   9.61051700
_cell_angle_alpha   90.00000000
_cell_angle_beta   90.00000000
_cell_angle_gamma   90.00000000
_symmetry_Int_Tables_number   1
_chemical_formula_structural   NaLaSiO4
_chemical_formula_sum   'Na4 La4 Si4 O16'
_cell_volume   378.02305351
_cell_formula_units_Z   4
loop_
 _symmetry_equiv_pos_site_id
 _symmetry_equiv_pos_as_xyz
  1  'x, y, z'
loop_
 _atom_site_type_symbol
 _atom_site_label
 _atom_site_symmetry_multiplicity
 _atom_site_fract_x
 _atom_site_fract_y
 _atom_site_fract_z
 _atom_site_occupancy
  Na  Na0  1  0.25000000  0.66870100  0.92006000  1
  Na  Na1  1  0.75000000  0.33129900  0.07994000  1
  Na  Na2  1  0.75000000  0.83129900  0.42006000  1
  Na  Na3  1  0.25000000  0.16870100  0.57994000  1
  La  La0  1  0.25000000  0.99105300  0.19344600  1
  La  La1  1  0.75000000  0.00894700  0.80655400  1
  La  La2  1  0.75000000  0.50894700  0.69344600  1
  La  La3  1  0.25000000  0.49105300  0.30655400  1
  Si  Si0  1  0.25000000  0.73424000  0.58095100  1
  Si  Si1  1  0.75000000  0.26576000  0.41904900  1
  Si  Si2  1  0.75000000  0.76576000  0.08095100  1
  Si  Si3  1  0.25000000  0.23424000  0.91904900  1
  O  O0  1  0.00372600  0.80500100  0.66094400  1
  O  O1  1  0.99627400  0.19499900  0.33905600  1
  O  O2  1  0.99627400  0.69499900  0.16094400  1
  O  O3  1  0.50372600  0.19499900  0.33905600  1
  O  O4  1  0.00372600  0.30500100  0.83905600  1
  O  O5  1  0.49627400  0.80500100  0.66094400  1
  O  O6  1  0.49627400  0.30500100  0.83905600  1
  O  O7  1  0.50372600  0.69499900  0.16094400  1
  O  O8  1  0.25000000  0.50278800  0.57626100  1
  O  O9  1  0.75000000  0.49721200  0.42373900  1
  O  O10  1  0.75000000  0.99721200  0.07626100  1
  O  O11  1  0.25000000  0.00278800  0.92373900  1
  O  O12  1  0.25000000  0.31056600  0.08153200  1
  O  O13  1  0.75000000  0.68943400  0.91846800  1
  O  O14  1  0.75000000  0.18943400  0.58153200  1
  O  O15  1  0.25000000  0.81056600  0.41846800  1
loop_
_geom_bond_atom_site_label_1
_geom_bond_atom_site_label_2
_geom_bond_distance
_geom_bond_site_symmetry_2
Na0 O11 2.387746 1_565
Na0 O7 2.710162 1_556
Na0 O2 2.710162 1_456
Na0 O13 2.756105 1_555
Na0 O13 2.756105 1_455
Na1 O10 2.387746 1_545
Na1 O4 2.710162 1_654
Na1 O6 2.710162 1_554
Na1 O12 2.756105 1_655
Na1 O12 2.756105 1_555
Na2 O9 2.387746 1_555
Na2 O0 2.710162 1_655
Na2 O5 2.710162 1_555
Na2 O15 2.756105 1_555
Na2 O15 2.756105 1_655
Na3 O8 2.387746 1_555
Na3 O1 2.710162 1_455
Na3 O3 2.710162 1_555
Na3 O14 2.756105 1_555
Na3 O14 2.756105 1_455
La0 O3 2.456179 1_565
La0 O1 2.456179 1_465
La0 O15 2.518007 1_555
La0 O12 2.523970 1_565
La0 O2 2.554223 1_455
La0 O7 2.554223 1_555
La0 O11 2.593380 1_564
La0 O10 2.973922 1_555
La0 O10 2.973922 1_455
La1 O0 2.456179 1_645
La1 O5 2.456179 1_545
La1 O14 2.518007 1_555
La1 O13 2.523970 1_545
La1 O4 2.554223 1_655
La1 O6 2.554223 1_555
La1 O10 2.593380 1_546
La1 O11 2.973922 1_555
La1 O11 2.973922 1_655
La2 O4 2.456179 1_655
La2 O6 2.456179 1_555
La2 O13 2.518007 1_555
La2 O14 2.523970 1_555
La2 O0 2.554223 1_655
La2 O5 2.554223 1_555
La2 O9 2.593380 1_555
La2 O8 2.973922 1_555
La2 O8 2.973922 1_655
La3 O7 2.456179 1_555
La3 O2 2.456179 1_455
La3 O12 2.518007 1_555
La3 O15 2.523970 1_555
La3 O1 2.554223 1_455
La3 O3 2.554223 1_555
La3 O8 2.593380 1_555
La3 O9 2.973922 1_455
La3 O9 2.973922 1_555
O0 Si0 1.638349 1_555
O1 Si1 1.638349 1_555
O2 Si2 1.638349 1_555
O3 Si1 1.638349 1_555
O4 Si3 1.638349 1_555
O5 Si0 1.638349 1_555
O6 Si3 1.638349 1_555
O7 Si2 1.638349 1_555
O8 Si0 1.654638 1_555
O9 Si1 1.654638 1_555
O10 Si2 1.654638 1_555
O11 Si3 1.654638 1_555
O12 Si3 1.654067 1_554
O13 Si2 1.654067 1_556
O14 Si1 1.654067 1_555
O15 Si0 1.654067 1_555
