# generated using pymatgen
data_Ce4Bi8Pd3
_symmetry_space_group_name_H-M   'P 1'
_cell_length_a   4.64729128
_cell_length_b   4.64749122
_cell_length_c   19.50462128
_cell_angle_alpha   90.00000000
_cell_angle_beta   90.00000000
_cell_angle_gamma   90.00000000
_symmetry_Int_Tables_number   1
_chemical_formula_structural   Ce4Bi8Pd3
_chemical_formula_sum   'Ce4 Bi8 Pd3'
_cell_volume   421.26559724
_cell_formula_units_Z   1
loop_
 _symmetry_equiv_pos_site_id
 _symmetry_equiv_pos_as_xyz
  1  'x, y, z'
loop_
 _atom_site_type_symbol
 _atom_site_label
 _atom_site_symmetry_multiplicity
 _atom_site_fract_x
 _atom_site_fract_y
 _atom_site_fract_z
 _atom_site_occupancy
  Ce  Ce0  1  0.50000000  -0.00000000  0.11186258  1
  Ce  Ce1  1  0.50000000  -0.00000000  0.61847838  1
  Ce  Ce2  1  -0.00000000  0.50000000  0.88812174  1
  Ce  Ce3  1  0.00000000  0.50000000  0.38153958  1
  Bi  Bi0  1  0.50000000  -0.00000000  0.92477920  1
  Bi  Bi1  1  0.50000000  0.00000000  0.41918570  1
  Bi  Bi2  1  -0.00000000  0.50000000  0.07504342  1
  Bi  Bi3  1  -0.00000000  0.50000000  0.58079293  1
  Bi  Bi4  1  0.50000000  0.50000000  0.75248520  1
  Bi  Bi5  1  0.50000000  0.50000000  0.24756718  1
  Bi  Bi6  1  -0.00000000  -0.00000000  0.75278506  1
  Bi  Bi7  1  -0.00000000  -0.00000000  0.24725436  1
  Pd  Pd0  1  0.50000000  0.50000000  0.50017678  1
  Pd  Pd1  1  -0.00000000  -0.00000000  0.00002687  1
  Pd  Pd2  1  0.00000000  -0.00000000  0.49990002  1
loop_
_geom_bond_atom_site_label_1
_geom_bond_atom_site_label_2
_geom_bond_distance
_geom_bond_site_symmetry_2
Ce0 Pd1 3.187076 1_555
Ce0 Pd1 3.187076 1_655
Ce1 Pd0 3.274755 1_545
Ce1 Pd0 3.274755 1_555
Ce1 Pd2 3.278489 1_655
Ce1 Pd2 3.278489 1_555
Ce2 Pd1 3.188076 1_566
Ce2 Pd1 3.188076 1_556
Ce3 Pd2 3.275563 1_555
Ce3 Pd2 3.275563 1_565
Ce3 Pd0 3.279299 1_455
Ce3 Pd0 3.279299 1_555
Bi0 Pd1 2.748346 1_556
Bi0 Pd1 2.748346 1_656
Bi0 Ce2 3.363084 1_645
Bi0 Ce2 3.363084 1_545
Bi0 Ce2 3.363084 1_555
Bi0 Ce2 3.363084 1_655
Bi0 Ce0 3.648990 1_556
Bi1 Pd2 2.806734 1_555
Bi1 Pd2 2.806734 1_655
Bi1 Pd0 2.809848 1_545
Bi1 Pd0 2.809848 1_555
Bi1 Ce3 3.367236 1_545
Bi1 Ce3 3.367236 1_555
Bi1 Ce3 3.367236 1_655
Bi1 Ce3 3.367236 1_645
Bi2 Pd1 2.746026 1_565
Bi2 Pd1 2.746026 1_555
Bi2 Ce0 3.363756 1_455
Bi2 Ce0 3.363756 1_465
Bi2 Ce0 3.363756 1_555
Bi2 Ce0 3.363756 1_565
Bi2 Ce2 3.645837 1_554
Bi3 Pd0 2.805661 1_455
Bi3 Pd0 2.805661 1_555
Bi3 Pd2 2.808772 1_565
Bi3 Pd2 2.808772 1_555
Bi3 Ce1 3.367404 1_455
Bi3 Ce1 3.367404 1_465
Bi3 Ce1 3.367404 1_565
Bi3 Ce1 3.367404 1_555
Bi4 Bi6 3.286207 1_665
Bi4 Bi6 3.286207 1_565
Bi4 Bi6 3.286207 1_655
Bi4 Bi6 3.286207 1_555
Bi4 Ce1 3.497355 1_565
Bi4 Ce1 3.497355 1_555
Bi4 Ce2 3.521109 1_655
Bi4 Ce2 3.521109 1_555
Bi5 Bi7 3.286208 1_655
Bi5 Bi7 3.286208 1_665
Bi5 Bi7 3.286208 1_555
Bi5 Bi7 3.286208 1_565
Bi5 Ce3 3.496787 1_555
Bi5 Ce3 3.496787 1_655
Bi5 Ce0 3.522172 1_555
Bi5 Ce0 3.522172 1_565
Bi6 Ce1 3.501662 1_455
Bi6 Ce1 3.501662 1_555
Bi6 Ce2 3.516783 1_545
Bi6 Ce2 3.516783 1_555
Bi7 Ce3 3.501415 1_545
Bi7 Ce3 3.501415 1_555
Bi7 Ce0 3.517523 1_455
Bi7 Ce0 3.517523 1_555
