# generated using pymatgen
data_ErNi4
_symmetry_space_group_name_H-M   'P 1'
_cell_length_a   4.82537829
_cell_length_b   4.84886615
_cell_length_c   10.14718385
_cell_angle_alpha   85.30256228
_cell_angle_beta   80.52687759
_cell_angle_gamma   60.16011456
_symmetry_Int_Tables_number   1
_chemical_formula_structural   ErNi4
_chemical_formula_sum   'Er3 Ni12'
_cell_volume   203.13413050
_cell_formula_units_Z   3
loop_
 _symmetry_equiv_pos_site_id
 _symmetry_equiv_pos_as_xyz
  1  'x, y, z'
loop_
 _atom_site_type_symbol
 _atom_site_label
 _atom_site_symmetry_multiplicity
 _atom_site_fract_x
 _atom_site_fract_y
 _atom_site_fract_z
 _atom_site_occupancy
  Er  Er0  1  0.00000000  0.00000000  0.00000000  1
  Er  Er1  1  0.86778000  0.00000000  0.35542900  1
  Er  Er2  1  0.13222000  0.00000000  0.64457100  1
  Ni  Ni0  1  0.33360800  0.33278500  0.00000000  1
  Ni  Ni1  1  0.66639200  0.66721500  0.00000000  1
  Ni  Ni2  1  0.42181600  0.00000000  0.19995400  1
  Ni  Ni3  1  0.57818400  0.00000000  0.80004600  1
  Ni  Ni4  1  0.92795900  0.50209600  0.19815400  1
  Ni  Ni5  1  0.43005500  0.49790400  0.19815400  1
  Ni  Ni6  1  0.07204100  0.49790400  0.80184600  1
  Ni  Ni7  1  0.56994500  0.50209600  0.80184600  1
  Ni  Ni8  1  0.18891900  0.34443600  0.40470100  1
  Ni  Ni9  1  0.53335500  0.65556400  0.40470100  1
  Ni  Ni10  1  0.81108100  0.65556400  0.59529900  1
  Ni  Ni11  1  0.46664500  0.34443600  0.59529900  1
loop_
_geom_bond_atom_site_label_1
_geom_bond_atom_site_label_2
_geom_bond_distance
_geom_bond_site_symmetry_2
Er0 Ni1 2.789301 1_545
Er0 Ni0 2.789301 1_455
Er0 Ni1 2.789305 1_445
Er0 Ni0 2.789305 1_555
Er0 Ni0 2.806306 1_545
Er0 Ni1 2.806306 1_455
Er0 Ni3 3.101463 1_454
Er0 Ni2 3.101463 1_555
Er0 Ni6 3.130895 1_554
Er0 Ni4 3.130895 1_445
Er0 Ni5 3.130895 1_455
Er0 Ni7 3.130895 1_544
Er0 Ni5 3.133770 1_545
Er0 Ni7 3.133770 1_454
Er0 Ni6 3.133770 1_544
Er0 Ni4 3.133770 1_455
Er0 Ni3 3.168159 1_554
Er0 Ni2 3.168159 1_455
Er1 Ni8 2.801507 1_645
Er1 Ni9 2.801507 1_555
Er1 Ni9 2.814805 1_545
Er1 Ni8 2.814805 1_555
Er1 Ni2 2.870073 1_555
Er1 Ni5 2.870672 1_555
Er1 Ni4 2.870672 1_545
Er1 Ni2 2.871904 1_655
Er1 Ni10 2.891065 1_545
Er1 Ni11 2.891065 1_555
Er1 Ni8 2.899640 1_655
Er1 Ni9 2.899640 1_645
Er1 Ni4 2.910859 1_555
Er1 Ni5 2.910860 1_645
Er2 Ni10 2.801507 1_455
Er2 Ni11 2.801507 1_545
Er2 Ni11 2.814805 1_555
Er2 Ni10 2.814805 1_545
Er2 Ni3 2.870073 1_555
Er2 Ni7 2.870672 1_545
Er2 Ni6 2.870672 1_555
Er2 Ni3 2.871904 1_455
Er2 Ni8 2.891065 1_555
Er2 Ni9 2.891065 1_545
Er2 Ni10 2.899640 1_445
Er2 Ni11 2.899640 1_455
Er2 Ni6 2.910859 1_545
Er2 Ni7 2.910860 1_455
Ni0 Ni5 2.417242 1_555
Ni0 Ni6 2.417244 1_554
Ni0 Ni7 2.433929 1_554
Ni0 Ni4 2.433931 1_455
Ni0 Ni2 2.442586 1_555
Ni0 Ni3 2.442586 1_554
Ni0 Ni1 2.792777 1_555
Ni0 Ni1 2.792786 1_455
Ni0 Ni1 2.799387 1_545
Ni1 Ni7 2.417242 1_554
Ni1 Ni4 2.417244 1_555
Ni1 Ni5 2.433929 1_555
Ni1 Ni6 2.433931 1_654
Ni1 Ni3 2.442586 1_564
Ni1 Ni2 2.442586 1_565
Ni2 Ni5 2.416588 1_545
Ni2 Ni4 2.416588 1_455
Ni2 Ni5 2.432831 1_555
Ni2 Ni4 2.432832 1_545
Ni2 Ni9 2.510111 1_545
Ni2 Ni8 2.510112 1_555
Ni3 Ni7 2.416588 1_555
Ni3 Ni6 2.416588 1_645
Ni3 Ni7 2.432831 1_545
Ni3 Ni6 2.432832 1_555
Ni4 Ni5 2.412754 1_555
Ni4 Ni5 2.412754 1_655
Ni4 Ni9 2.470588 1_555
Ni4 Ni8 2.492204 1_655
Ni5 Ni8 2.470588 1_555
Ni5 Ni9 2.492204 1_555
Ni6 Ni7 2.412754 1_555
Ni6 Ni7 2.412754 1_455
Ni8 Ni9 2.744725 1_555
Ni8 Ni9 2.744725 1_455
Ni8 Ni9 2.897396 1_545
Ni10 Ni8 2.433206 1_655
Ni10 Ni7 2.470588 1_555
Ni10 Ni6 2.492204 1_655
Ni10 Ni3 2.510112 1_565
Ni10 Ni9 2.527766 1_555
Ni10 Ni11 2.744725 1_555
Ni10 Ni11 2.744725 1_655
Ni10 Ni11 2.897396 1_565
Ni11 Ni9 2.433205 1_555
Ni11 Ni6 2.470588 1_555
Ni11 Ni7 2.492204 1_555
Ni11 Ni3 2.510111 1_555
Ni11 Ni8 2.527766 1_555
