# generated using pymatgen
data_KAlSi3O8
_symmetry_space_group_name_H-M   'P 1'
_cell_length_a   6.76967531
_cell_length_b   6.76967531
_cell_length_c   9.41537603
_cell_angle_alpha   47.02433024
_cell_angle_beta   47.02433024
_cell_angle_gamma   23.45673417
_symmetry_Int_Tables_number   1
_chemical_formula_structural   KAlSi3O8
_chemical_formula_sum   'K1 Al1 Si3 O8'
_cell_volume   123.29253218
_cell_formula_units_Z   1
loop_
 _symmetry_equiv_pos_site_id
 _symmetry_equiv_pos_as_xyz
  1  'x, y, z'
loop_
 _atom_site_type_symbol
 _atom_site_label
 _atom_site_symmetry_multiplicity
 _atom_site_fract_x
 _atom_site_fract_y
 _atom_site_fract_z
 _atom_site_occupancy
  K  K0  1  0.49974300  0.49974300  0.99856000  1
  Al  Al0  1  0.34990500  0.34990500  0.81487500  1
  Si  Si0  1  0.65270600  0.65270600  0.17888700  1
  Si  Si1  1  0.16735800  0.16735800  0.48250700  1
  Si  Si2  1  0.83739400  0.83739400  0.51508600  1
  O  O0  1  0.55007800  0.55007800  0.61468000  1
  O  O1  1  0.45886400  0.45886400  0.37753800  1
  O  O2  1  0.16210300  0.16210300  0.29891200  1
  O  O3  1  0.83374400  0.83374400  0.69946500  1
  O  O4  1  0.14309000  0.14309000  0.06643000  1
  O  O5  1  0.83786400  0.83786400  0.96471500  1
  O  O6  1  0.20877700  0.20877700  0.63162300  1
  O  O7  1  0.79837300  0.79837300  0.35672300  1
loop_
_geom_bond_atom_site_label_1
_geom_bond_atom_site_label_2
_geom_bond_distance
_geom_bond_site_symmetry_2
K0 O5 2.748199 1_545
K0 O5 2.748199 1_455
K0 O4 2.757539 1_566
K0 O4 2.757539 1_656
K0 O7 2.802992 1_456
K0 O7 2.802992 1_546
K0 O6 2.859664 1_655
K0 O6 2.859664 1_565
Al0 O3 1.855919 1_545
Al0 O3 1.855919 1_455
Al0 O5 1.896279 1_545
Al0 O5 1.896279 1_455
Al0 O0 1.905209 1_555
Al0 O4 2.021015 1_556
O0 Si1 1.779155 1_565
O0 Si1 1.779155 1_655
O1 Si2 1.805544 1_545
O1 Si2 1.805544 1_455
O1 Si0 1.846387 1_555
O2 Si1 1.777821 1_555
O2 Si0 1.839086 1_545
O2 Si0 1.839086 1_455
O3 Si2 1.702664 1_555
O4 Si0 1.794135 1_545
O4 Si0 1.794135 1_455
O5 Si0 1.788604 1_556
O6 Si1 1.829232 1_555
O6 Si2 1.843816 1_455
O6 Si2 1.843816 1_545
O7 Si1 1.857036 1_565
O7 Si1 1.857036 1_655
O7 Si2 1.888070 1_555
