# generated using pymatgen
data_CdSnN2
_symmetry_space_group_name_H-M   'P 1'
_cell_length_a   6.13445800
_cell_length_b   7.25593000
_cell_length_c   5.81508300
_cell_angle_alpha   90.00000000
_cell_angle_beta   90.00000000
_cell_angle_gamma   90.00000000
_symmetry_Int_Tables_number   1
_chemical_formula_structural   CdSnN2
_chemical_formula_sum   'Cd4 Sn4 N8'
_cell_volume   258.83630985
_cell_formula_units_Z   4
loop_
 _symmetry_equiv_pos_site_id
 _symmetry_equiv_pos_as_xyz
  1  'x, y, z'
loop_
 _atom_site_type_symbol
 _atom_site_label
 _atom_site_symmetry_multiplicity
 _atom_site_fract_x
 _atom_site_fract_y
 _atom_site_fract_z
 _atom_site_occupancy
  Cd  Cd0  1  0.58338500  0.87576500  0.99766600  1
  Cd  Cd1  1  0.41661500  0.12423500  0.49766600  1
  Cd  Cd2  1  0.91661500  0.37576500  0.49766600  1
  Cd  Cd3  1  0.08338500  0.62423500  0.99766600  1
  Sn  Sn0  1  0.57652100  0.37422000  0.99967200  1
  Sn  Sn1  1  0.42347900  0.62578000  0.49967200  1
  Sn  Sn2  1  0.92347900  0.87422000  0.49967200  1
  Sn  Sn3  1  0.07652100  0.12578000  0.99967200  1
  N  N0  1  0.56522800  0.39059700  0.35875300  1
  N  N1  1  0.43477200  0.60940300  0.85875300  1
  N  N2  1  0.93477200  0.89059700  0.85875300  1
  N  N3  1  0.06522800  0.10940300  0.35875300  1
  N  N4  1  0.59804500  0.85928700  0.39390900  1
  N  N5  1  0.40195500  0.14071300  0.89390900  1
  N  N6  1  0.90195500  0.35928700  0.89390900  1
  N  N7  1  0.09804500  0.64071300  0.39390900  1
loop_
_geom_bond_atom_site_label_1
_geom_bond_atom_site_label_2
_geom_bond_distance
_geom_bond_site_symmetry_2
Cd0 N1 2.284512 1_555
Cd0 N5 2.301856 1_565
Cd0 N2 2.304471 1_555
Cd0 N4 2.309038 1_556
Cd1 N0 2.284512 1_555
Cd1 N4 2.301856 1_545
Cd1 N3 2.304471 1_555
Cd1 N5 2.309038 1_555
Cd2 N3 2.284512 1_655
Cd2 N7 2.301856 1_655
Cd2 N0 2.304471 1_555
Cd2 N6 2.309038 1_555
Cd3 N2 2.284512 1_455
Cd3 N6 2.301856 1_455
Cd3 N1 2.304471 1_555
Cd3 N7 2.309038 1_556
N0 Sn1 2.083189 1_555
N0 Sn0 2.092611 1_554
N1 Sn0 2.083189 1_555
N1 Sn1 2.092611 1_555
N2 Sn3 2.083189 1_665
N2 Sn2 2.092611 1_555
N3 Sn2 2.083189 1_445
N3 Sn3 2.092611 1_554
N4 Sn2 2.091757 1_555
N4 Sn1 2.096592 1_555
N5 Sn3 2.091757 1_555
N5 Sn0 2.096592 1_555
N6 Sn0 2.091757 1_555
N6 Sn3 2.096592 1_655
N7 Sn1 2.091757 1_555
N7 Sn2 2.096592 1_455
