# generated using pymatgen
data_Eu3Sc2Al3O12
_symmetry_space_group_name_H-M   'P 1'
_cell_length_a   10.92011707
_cell_length_b   10.92011707
_cell_length_c   10.92011707
_cell_angle_alpha   109.47122063
_cell_angle_beta   109.47122063
_cell_angle_gamma   109.47122063
_symmetry_Int_Tables_number   1
_chemical_formula_structural   Eu3Sc2Al3O12
_chemical_formula_sum   'Eu12 Sc8 Al12 O48'
_cell_volume   1002.44370301
_cell_formula_units_Z   4
loop_
 _symmetry_equiv_pos_site_id
 _symmetry_equiv_pos_as_xyz
  1  'x, y, z'
loop_
 _atom_site_type_symbol
 _atom_site_label
 _atom_site_symmetry_multiplicity
 _atom_site_fract_x
 _atom_site_fract_y
 _atom_site_fract_z
 _atom_site_occupancy
  Eu  Eu0  1  0.87500000  0.62500000  0.75000000  1
  Eu  Eu1  1  0.12500000  0.37500000  0.25000000  1
  Eu  Eu2  1  0.62500000  0.87500000  0.25000000  1
  Eu  Eu3  1  0.62500000  0.75000000  0.87500000  1
  Eu  Eu4  1  0.87500000  0.25000000  0.62500000  1
  Eu  Eu5  1  0.37500000  0.12500000  0.75000000  1
  Eu  Eu6  1  0.37500000  0.25000000  0.12500000  1
  Eu  Eu7  1  0.12500000  0.75000000  0.37500000  1
  Eu  Eu8  1  0.75000000  0.87500000  0.62500000  1
  Eu  Eu9  1  0.25000000  0.12500000  0.37500000  1
  Eu  Eu10  1  0.25000000  0.62500000  0.87500000  1
  Eu  Eu11  1  0.75000000  0.37500000  0.12500000  1
  Sc  Sc0  1  0.00000000  0.00000000  0.00000000  1
  Sc  Sc1  1  0.50000000  0.00000000  0.50000000  1
  Sc  Sc2  1  0.50000000  0.50000000  0.00000000  1
  Sc  Sc3  1  0.00000000  0.00000000  0.50000000  1
  Sc  Sc4  1  0.00000000  0.50000000  0.50000000  1
  Sc  Sc5  1  0.50000000  0.50000000  0.50000000  1
  Sc  Sc6  1  0.50000000  0.00000000  0.00000000  1
  Sc  Sc7  1  0.00000000  0.50000000  0.00000000  1
  Al  Al0  1  0.62500000  0.37500000  0.75000000  1
  Al  Al1  1  0.37500000  0.62500000  0.25000000  1
  Al  Al2  1  0.87500000  0.12500000  0.25000000  1
  Al  Al3  1  0.37500000  0.75000000  0.62500000  1
  Al  Al4  1  0.62500000  0.25000000  0.37500000  1
  Al  Al5  1  0.12500000  0.87500000  0.75000000  1
  Al  Al6  1  0.12500000  0.25000000  0.87500000  1
  Al  Al7  1  0.87500000  0.75000000  0.12500000  1
  Al  Al8  1  0.75000000  0.62500000  0.37500000  1
  Al  Al9  1  0.25000000  0.37500000  0.62500000  1
  Al  Al10  1  0.25000000  0.87500000  0.12500000  1
  Al  Al11  1  0.75000000  0.12500000  0.87500000  1
  O  O0  1  0.70904717  0.62401689  0.52063043  1
  O  O1  1  0.29095283  0.37598311  0.47936957  1
  O  O2  1  0.79095283  0.81158326  0.41496972  1
  O  O3  1  0.39661354  0.87598311  0.08503028  1
  O  O4  1  0.62401689  0.52063043  0.70904717  1
  O  O5  1  0.70904717  0.08503028  0.68841674  1
  O  O6  1  0.20904717  0.18841674  0.58503028  1
  O  O7  1  0.60338646  0.12401689  0.91496972  1
  O  O8  1  0.37598311  0.47936957  0.29095283  1
  O  O9  1  0.29095283  0.91496972  0.31158326  1
  O  O10  1  0.10338646  0.68841674  0.97936957  1
  O  O11  1  0.81158326  0.41496972  0.79095283  1
  O  O12  1  0.79095283  0.97936957  0.87598311  1
  O  O13  1  0.89661354  0.31158326  0.02063043  1
  O  O14  1  0.18841674  0.58503028  0.20904717  1
  O  O15  1  0.20904717  0.02063043  0.12401689  1
  O  O16  1  0.87598311  0.08503028  0.39661354  1
  O  O17  1  0.39661354  0.52063043  0.81158326  1
  O  O18  1  0.12401689  0.91496972  0.60338646  1
  O  O19  1  0.60338646  0.47936957  0.18841674  1
  O  O20  1  0.68841674  0.97936957  0.10338646  1
  O  O21  1  0.10338646  0.41496972  0.62401689  1
  O  O22  1  0.31158326  0.02063043  0.89661354  1
  O  O23  1  0.89661354  0.58503028  0.37598311  1
  O  O24  1  0.52063043  0.70904717  0.62401689  1
  O  O25  1  0.62401689  0.10338646  0.41496972  1
  O  O26  1  0.47936957  0.29095283  0.37598311  1
  O  O27  1  0.37598311  0.89661354  0.58503028  1
  O  O28  1  0.08503028  0.39661354  0.87598311  1
  O  O29  1  0.87598311  0.79095283  0.97936957  1
  O  O30  1  0.91496972  0.60338646  0.12401689  1
  O  O31  1  0.12401689  0.20904717  0.02063043  1
  O  O32  1  0.97936957  0.10338646  0.68841674  1
  O  O33  1  0.68841674  0.70904717  0.08503028  1
  O  O34  1  0.02063043  0.89661354  0.31158326  1
  O  O35  1  0.31158326  0.29095283  0.91496972  1
  O  O36  1  0.41496972  0.79095283  0.81158326  1
  O  O37  1  0.81158326  0.39661354  0.52063043  1
  O  O38  1  0.58503028  0.20904717  0.18841674  1
  O  O39  1  0.18841674  0.60338646  0.47936957  1
  O  O40  1  0.08503028  0.68841674  0.70904717  1
  O  O41  1  0.91496972  0.31158326  0.29095283  1
  O  O42  1  0.97936957  0.87598311  0.79095283  1
  O  O43  1  0.02063043  0.12401689  0.20904717  1
  O  O44  1  0.41496972  0.62401689  0.10338646  1
  O  O45  1  0.58503028  0.37598311  0.89661354  1
  O  O46  1  0.52063043  0.81158326  0.39661354  1
  O  O47  1  0.47936957  0.18841674  0.60338646  1
loop_
_geom_bond_atom_site_label_1
_geom_bond_atom_site_label_2
_geom_bond_distance
_geom_bond_site_symmetry_2
Eu0 O42 2.402364 1_555
Eu0 O4 2.402364 1_555
Eu0 O11 2.402364 1_555
Eu0 O40 2.402364 1_655
Eu0 O37 2.549707 1_555
Eu0 O10 2.549707 1_655
Eu0 O29 2.549707 1_555
Eu0 O0 2.549707 1_555
Eu1 O41 2.402364 1_455
Eu1 O14 2.402364 1_555
Eu1 O43 2.402364 1_555
Eu1 O8 2.402364 1_555
Eu1 O1 2.549707 1_555
Eu1 O13 2.549707 1_455
Eu1 O39 2.549707 1_555
Eu1 O31 2.549707 1_555
Eu2 O44 2.402364 1_555
Eu2 O16 2.402364 1_565
Eu2 O20 2.402364 1_555
Eu2 O46 2.402364 1_555
Eu2 O3 2.549707 1_555
Eu2 O2 2.549707 1_555
Eu2 O33 2.549707 1_555
Eu2 O25 2.549707 1_565
Eu3 O29 2.402364 1_555
Eu3 O24 2.402364 1_555
Eu3 O36 2.402364 1_555
Eu3 O33 2.402364 1_556
Eu3 O17 2.549707 1_555
Eu3 O4 2.549707 1_555
Eu3 O12 2.549707 1_555
Eu3 O20 2.549707 1_556
Eu4 O25 2.402364 1_555
Eu4 O32 2.402364 1_555
Eu4 O28 2.402364 1_655
Eu4 O37 2.402364 1_555
Eu4 O16 2.549707 1_555
Eu4 O5 2.549707 1_555
Eu4 O11 2.549707 1_555
Eu4 O21 2.549707 1_655
Eu5 O45 2.402364 1_555
Eu5 O18 2.402364 1_545
Eu5 O47 2.402364 1_555
Eu5 O22 2.402364 1_555
Eu5 O27 2.549707 1_545
Eu5 O7 2.549707 1_555
Eu5 O6 2.549707 1_555
Eu5 O35 2.549707 1_555
Eu6 O35 2.402364 1_554
Eu6 O38 2.402364 1_555
Eu6 O26 2.402364 1_555
Eu6 O31 2.402364 1_555
Eu6 O22 2.549707 1_554
Eu6 O19 2.549707 1_555
Eu6 O8 2.549707 1_555
Eu6 O15 2.549707 1_555
Eu7 O30 2.402364 1_455
Eu7 O27 2.402364 1_555
Eu7 O39 2.402364 1_555
Eu7 O34 2.402364 1_555
Eu7 O18 2.549707 1_555
Eu7 O23 2.549707 1_455
Eu7 O14 2.549707 1_555
Eu7 O9 2.549707 1_555
Eu8 O0 2.402364 1_555
Eu8 O12 2.402364 1_555
Eu8 O2 2.402364 1_555
Eu8 O5 2.402364 1_565
Eu8 O46 2.549707 1_555
Eu8 O42 2.549707 1_555
Eu8 O32 2.549707 1_565
Eu8 O24 2.549707 1_555
Eu9 O15 2.402364 1_555
Eu9 O6 2.402364 1_555
Eu9 O1 2.402364 1_555
Eu9 O9 2.402364 1_545
Eu9 O26 2.549707 1_555
Eu9 O43 2.549707 1_555
Eu9 O47 2.549707 1_555
Eu9 O34 2.549707 1_545
Eu10 O21 2.402364 1_555
Eu10 O3 2.402364 1_556
Eu10 O10 2.402364 1_555
Eu10 O17 2.402364 1_555
Eu10 O28 2.549707 1_555
Eu10 O44 2.549707 1_556
Eu10 O40 2.549707 1_555
Eu10 O36 2.549707 1_555
Eu11 O7 2.402364 1_554
Eu11 O23 2.402364 1_555
Eu11 O13 2.402364 1_555
Eu11 O19 2.402364 1_555
Eu11 O41 2.549707 1_555
Eu11 O30 2.549707 1_555
Eu11 O45 2.549707 1_554
Eu11 O38 2.549707 1_555
Al0 O4 1.792061 1_555
Al0 O11 1.792061 1_555
Al0 O47 1.792061 1_555
Al0 O45 1.792061 1_555
Al1 O8 1.792061 1_555
Al1 O44 1.792061 1_555
Al1 O46 1.792061 1_555
Al1 O14 1.792061 1_555
Al2 O43 1.792061 1_655
Al2 O41 1.792061 1_555
Al2 O16 1.792061 1_555
Al2 O20 1.792061 1_545
Al3 O24 1.792061 1_555
Al3 O39 1.792061 1_555
Al3 O36 1.792061 1_555
Al3 O27 1.792061 1_555
Al4 O25 1.792061 1_555
Al4 O26 1.792061 1_555
Al4 O37 1.792061 1_555
Al4 O38 1.792061 1_555
Al5 O22 1.792061 1_565
Al5 O42 1.792061 1_455
Al5 O40 1.792061 1_555
Al5 O18 1.792061 1_555
Al6 O35 1.792061 1_555
Al6 O28 1.792061 1_555
Al6 O31 1.792061 1_556
Al6 O32 1.792061 1_455
Al7 O34 1.792061 1_655
Al7 O33 1.792061 1_555
Al7 O29 1.792061 1_554
Al7 O30 1.792061 1_555
Al8 O19 1.792061 1_555
Al8 O0 1.792061 1_555
Al8 O2 1.792061 1_555
Al8 O23 1.792061 1_555
Al9 O1 1.792061 1_555
Al9 O21 1.792061 1_555
Al9 O6 1.792061 1_555
Al9 O17 1.792061 1_555
Al10 O9 1.792061 1_555
Al10 O15 1.792061 1_565
Al10 O10 1.792061 1_554
Al10 O3 1.792061 1_555
Al11 O13 1.792061 1_556
Al11 O5 1.792061 1_555
Al11 O12 1.792061 1_545
Al11 O7 1.792061 1_555
O0 Sc5 2.118674 1_555
O1 Sc5 2.118674 1_555
O2 Sc3 2.118674 1_665
O3 Sc6 2.118674 1_565
O4 Sc5 2.118674 1_555
O5 Sc1 2.118674 1_555
O6 Sc3 2.118674 1_555
O7 Sc6 2.118674 1_556
O8 Sc5 2.118674 1_555
O9 Sc1 2.118674 1_565
O10 Sc7 2.118674 1_556
O11 Sc7 2.118674 1_656
O12 Sc0 2.118674 1_666
O13 Sc7 2.118674 1_655
O14 Sc7 2.118674 1_555
O15 Sc0 2.118674 1_555
O16 Sc3 2.118674 1_655
O17 Sc2 2.118674 1_556
O18 Sc3 2.118674 1_565
O19 Sc2 2.118674 1_555
O20 Sc6 2.118674 1_565
O21 Sc4 2.118674 1_555
O22 Sc6 2.118674 1_556
O23 Sc4 2.118674 1_655
O24 Sc5 2.118674 1_555
O25 Sc1 2.118674 1_555
O26 Sc5 2.118674 1_555
O27 Sc1 2.118674 1_565
O28 Sc7 2.118674 1_556
O29 Sc0 2.118674 1_666
O30 Sc7 2.118674 1_655
O31 Sc0 2.118674 1_555
O32 Sc3 2.118674 1_655
O33 Sc2 2.118674 1_555
O34 Sc3 2.118674 1_565
O35 Sc2 2.118674 1_556
O36 Sc6 2.118674 1_566
O37 Sc4 2.118674 1_655
O38 Sc6 2.118674 1_555
O39 Sc4 2.118674 1_555
O40 Sc4 2.118674 1_555
O41 Sc4 2.118674 1_655
O42 Sc0 2.118674 1_666
O43 Sc0 2.118674 1_555
O44 Sc2 2.118674 1_555
O45 Sc2 2.118674 1_556
O46 Sc1 2.118674 1_565
O47 Sc1 2.118674 1_555
