# generated using pymatgen
data_Lu3Mg2(SiO4)3
_symmetry_space_group_name_H-M   'P 1'
_cell_length_a   10.44302103
_cell_length_b   10.44302103
_cell_length_c   10.44302103
_cell_angle_alpha   109.47122063
_cell_angle_beta   109.47122063
_cell_angle_gamma   109.47122063
_symmetry_Int_Tables_number   1
_chemical_formula_structural   Lu3Mg2(SiO4)3
_chemical_formula_sum   'Lu12 Mg8 Si12 O48'
_cell_volume   876.71122356
_cell_formula_units_Z   4
loop_
 _symmetry_equiv_pos_site_id
 _symmetry_equiv_pos_as_xyz
  1  'x, y, z'
loop_
 _atom_site_type_symbol
 _atom_site_label
 _atom_site_symmetry_multiplicity
 _atom_site_fract_x
 _atom_site_fract_y
 _atom_site_fract_z
 _atom_site_occupancy
  Lu  Lu0  1  0.25000000  0.37500000  0.12500000  1
  Lu  Lu1  1  0.75000000  0.62500000  0.87500000  1
  Lu  Lu2  1  0.75000000  0.12500000  0.37500000  1
  Lu  Lu3  1  0.12500000  0.25000000  0.37500000  1
  Lu  Lu4  1  0.37500000  0.75000000  0.12500000  1
  Lu  Lu5  1  0.25000000  0.87500000  0.62500000  1
  Lu  Lu6  1  0.87500000  0.75000000  0.62500000  1
  Lu  Lu7  1  0.62500000  0.25000000  0.87500000  1
  Lu  Lu8  1  0.37500000  0.12500000  0.25000000  1
  Lu  Lu9  1  0.62500000  0.87500000  0.75000000  1
  Lu  Lu10  1  0.12500000  0.37500000  0.75000000  1
  Lu  Lu11  1  0.87500000  0.62500000  0.25000000  1
  Mg  Mg0  1  0.00000000  0.00000000  0.00000000  1
  Mg  Mg1  1  0.50000000  0.00000000  0.50000000  1
  Mg  Mg2  1  0.00000000  0.50000000  0.50000000  1
  Mg  Mg3  1  0.50000000  0.00000000  0.00000000  1
  Mg  Mg4  1  0.50000000  0.50000000  0.00000000  1
  Mg  Mg5  1  0.50000000  0.50000000  0.50000000  1
  Mg  Mg6  1  0.00000000  0.00000000  0.50000000  1
  Mg  Mg7  1  0.00000000  0.50000000  0.00000000  1
  Si  Si0  1  0.25000000  0.62500000  0.37500000  1
  Si  Si1  1  0.75000000  0.37500000  0.62500000  1
  Si  Si2  1  0.75000000  0.87500000  0.12500000  1
  Si  Si3  1  0.37500000  0.25000000  0.62500000  1
  Si  Si4  1  0.62500000  0.75000000  0.37500000  1
  Si  Si5  1  0.25000000  0.12500000  0.87500000  1
  Si  Si6  1  0.12500000  0.75000000  0.87500000  1
  Si  Si7  1  0.87500000  0.25000000  0.12500000  1
  Si  Si8  1  0.62500000  0.37500000  0.25000000  1
  Si  Si9  1  0.37500000  0.62500000  0.75000000  1
  Si  Si10  1  0.87500000  0.12500000  0.75000000  1
  Si  Si11  1  0.12500000  0.87500000  0.25000000  1
  O  O0  1  0.48291400  0.37818400  0.28644600  1
  O  O1  1  0.51708600  0.62181600  0.71355400  1
  O  O2  1  0.59173800  0.19646800  0.21355400  1
  O  O3  1  0.90826200  0.12181600  0.60473000  1
  O  O4  1  0.28644600  0.48291400  0.37818400  1
  O  O5  1  0.30353200  0.90826200  0.28644600  1
  O  O6  1  0.40826200  0.80353200  0.78644600  1
  O  O7  1  0.09173800  0.87818400  0.39527000  1
  O  O8  1  0.71355400  0.51708600  0.62181600  1
  O  O9  1  0.69646800  0.09173800  0.71355400  1
  O  O10  1  0.01708600  0.30353200  0.89527000  1
  O  O11  1  0.21355400  0.59173800  0.19646800  1
  O  O12  1  0.12181600  0.01708600  0.21355400  1
  O  O13  1  0.98291400  0.69646800  0.10473000  1
  O  O14  1  0.78644600  0.40826200  0.80353200  1
  O  O15  1  0.87818400  0.98291400  0.78644600  1
  O  O16  1  0.60473000  0.90826200  0.12181600  1
  O  O17  1  0.19646800  0.48291400  0.60473000  1
  O  O18  1  0.39527000  0.09173800  0.87818400  1
  O  O19  1  0.80353200  0.51708600  0.39527000  1
  O  O20  1  0.89527000  0.01708600  0.30353200  1
  O  O21  1  0.37818400  0.59173800  0.89527000  1
  O  O22  1  0.10473000  0.98291400  0.69646800  1
  O  O23  1  0.62181600  0.40826200  0.10473000  1
  O  O24  1  0.37818400  0.28644600  0.48291400  1
  O  O25  1  0.59173800  0.89527000  0.37818400  1
  O  O26  1  0.62181600  0.71355400  0.51708600  1
  O  O27  1  0.40826200  0.10473000  0.62181600  1
  O  O28  1  0.12181600  0.60473000  0.90826200  1
  O  O29  1  0.01708600  0.21355400  0.12181600  1
  O  O30  1  0.87818400  0.39527000  0.09173800  1
  O  O31  1  0.98291400  0.78644600  0.87818400  1
  O  O32  1  0.30353200  0.89527000  0.01708600  1
  O  O33  1  0.90826200  0.28644600  0.30353200  1
  O  O34  1  0.69646800  0.10473000  0.98291400  1
  O  O35  1  0.09173800  0.71355400  0.69646800  1
  O  O36  1  0.19646800  0.21355400  0.59173800  1
  O  O37  1  0.48291400  0.60473000  0.19646800  1
  O  O38  1  0.80353200  0.78644600  0.40826200  1
  O  O39  1  0.51708600  0.39527000  0.80353200  1
  O  O40  1  0.28644600  0.30353200  0.90826200  1
  O  O41  1  0.71355400  0.69646800  0.09173800  1
  O  O42  1  0.21355400  0.12181600  0.01708600  1
  O  O43  1  0.78644600  0.87818400  0.98291400  1
  O  O44  1  0.89527000  0.37818400  0.59173800  1
  O  O45  1  0.10473000  0.62181600  0.40826200  1
  O  O46  1  0.60473000  0.19646800  0.48291400  1
  O  O47  1  0.39527000  0.80353200  0.51708600  1
loop_
_geom_bond_atom_site_label_1
_geom_bond_atom_site_label_2
_geom_bond_distance
_geom_bond_site_symmetry_2
Lu0 O4 2.337171 1_555
Lu0 O11 2.337171 1_555
Lu0 O42 2.337171 1_555
Lu0 O40 2.337171 1_554
Lu0 O37 2.436115 1_555
Lu0 O10 2.436115 1_554
Lu0 O0 2.436115 1_555
Lu0 O29 2.436115 1_555
Lu1 O43 2.337171 1_555
Lu1 O41 2.337171 1_556
Lu1 O14 2.337171 1_555
Lu1 O8 2.337171 1_555
Lu1 O13 2.436115 1_556
Lu1 O31 2.436115 1_555
Lu1 O39 2.436115 1_555
Lu1 O1 2.436115 1_555
Lu2 O46 2.337171 1_555
Lu2 O44 2.337171 1_555
Lu2 O16 2.337171 1_545
Lu2 O20 2.337171 1_555
Lu2 O25 2.436115 1_545
Lu2 O2 2.436115 1_555
Lu2 O3 2.436115 1_555
Lu2 O33 2.436115 1_555
Lu3 O24 2.337171 1_555
Lu3 O36 2.337171 1_555
Lu3 O29 2.337171 1_555
Lu3 O33 2.337171 1_455
Lu3 O17 2.436115 1_555
Lu3 O20 2.436115 1_455
Lu3 O4 2.436115 1_555
Lu3 O12 2.436115 1_555
Lu4 O37 2.337171 1_555
Lu4 O25 2.337171 1_555
Lu4 O28 2.337171 1_554
Lu4 O32 2.337171 1_555
Lu4 O21 2.436115 1_554
Lu4 O11 2.436115 1_555
Lu4 O16 2.436115 1_555
Lu4 O5 2.436115 1_555
Lu5 O22 2.337171 1_555
Lu5 O18 2.337171 1_565
Lu5 O45 2.337171 1_555
Lu5 O47 2.337171 1_555
Lu5 O7 2.436115 1_555
Lu5 O35 2.436115 1_555
Lu5 O27 2.436115 1_565
Lu5 O6 2.436115 1_555
Lu6 O31 2.337171 1_555
Lu6 O35 2.337171 1_655
Lu6 O38 2.337171 1_555
Lu6 O26 2.337171 1_555
Lu6 O22 2.436115 1_655
Lu6 O15 2.436115 1_555
Lu6 O8 2.436115 1_555
Lu6 O19 2.436115 1_555
Lu7 O34 2.337171 1_555
Lu7 O30 2.337171 1_556
Lu7 O27 2.337171 1_555
Lu7 O39 2.337171 1_555
Lu7 O9 2.436115 1_555
Lu7 O18 2.436115 1_555
Lu7 O14 2.436115 1_555
Lu7 O23 2.436115 1_556
Lu8 O0 2.337171 1_555
Lu8 O2 2.337171 1_555
Lu8 O5 2.337171 1_545
Lu8 O12 2.337171 1_555
Lu8 O46 2.436115 1_555
Lu8 O32 2.436115 1_545
Lu8 O24 2.436115 1_555
Lu8 O42 2.436115 1_555
Lu9 O15 2.337171 1_555
Lu9 O9 2.337171 1_565
Lu9 O6 2.337171 1_555
Lu9 O1 2.337171 1_555
Lu9 O43 2.436115 1_555
Lu9 O34 2.436115 1_565
Lu9 O47 2.436115 1_555
Lu9 O26 2.436115 1_555
Lu10 O17 2.337171 1_555
Lu10 O21 2.337171 1_555
Lu10 O3 2.337171 1_455
Lu10 O10 2.337171 1_555
Lu10 O44 2.436115 1_455
Lu10 O36 2.436115 1_555
Lu10 O28 2.436115 1_555
Lu10 O40 2.436115 1_555
Lu11 O13 2.337171 1_555
Lu11 O7 2.337171 1_655
Lu11 O19 2.337171 1_555
Lu11 O23 2.337171 1_555
Lu11 O30 2.436115 1_555
Lu11 O41 2.436115 1_555
Lu11 O45 2.436115 1_655
Lu11 O38 2.436115 1_555
Mg0 O15 2.077438 1_444
Mg0 O42 2.077438 1_555
Mg0 O12 2.077438 1_555
Mg0 O43 2.077438 1_444
Mg0 O29 2.077438 1_555
Mg0 O31 2.077438 1_444
Mg1 O9 2.077438 1_555
Mg1 O27 2.077438 1_555
Mg1 O47 2.077438 1_545
Mg1 O25 2.077438 1_545
Mg1 O5 2.077438 1_545
Mg1 O46 2.077438 1_555
Mg2 O35 2.077438 1_555
Mg2 O45 2.077438 1_555
Mg2 O19 2.077438 1_455
Mg2 O33 2.077438 1_455
Mg2 O44 2.077438 1_455
Mg2 O17 2.077438 1_555
Mg3 O2 2.077438 1_555
Mg3 O18 2.077438 1_554
Mg3 O16 2.077438 1_545
Mg3 O34 2.077438 1_554
Mg3 O6 2.077438 1_544
Mg3 O32 2.077438 1_545
Mg4 O41 2.077438 1_555
Mg4 O23 2.077438 1_555
Mg4 O39 2.077438 1_554
Mg4 O40 2.077438 1_554
Mg4 O21 2.077438 1_554
Mg4 O37 2.077438 1_555
Mg5 O4 2.077438 1_555
Mg5 O0 2.077438 1_555
Mg5 O24 2.077438 1_555
Mg5 O8 2.077438 1_555
Mg5 O26 2.077438 1_555
Mg5 O1 2.077438 1_555
Mg6 O36 2.077438 1_555
Mg6 O22 2.077438 1_545
Mg6 O7 2.077438 1_545
Mg6 O3 2.077438 1_455
Mg6 O38 2.077438 1_445
Mg6 O20 2.077438 1_455
Mg7 O11 2.077438 1_555
Mg7 O13 2.077438 1_455
Mg7 O30 2.077438 1_455
Mg7 O28 2.077438 1_554
Mg7 O14 2.077438 1_454
Mg7 O10 2.077438 1_554
O0 Si8 1.657891 1_555
O1 Si9 1.657891 1_555
O2 Si8 1.657891 1_555
O3 Si10 1.657891 1_555
O4 Si0 1.657891 1_555
O5 Si11 1.657891 1_555
O6 Si9 1.657891 1_555
O7 Si11 1.657891 1_555
O8 Si1 1.657891 1_555
O9 Si10 1.657891 1_555
O10 Si10 1.657891 1_455
O11 Si0 1.657891 1_555
O12 Si11 1.657891 1_545
O13 Si11 1.657891 1_655
O14 Si1 1.657891 1_555
O15 Si10 1.657891 1_565
O16 Si2 1.657891 1_555
O17 Si9 1.657891 1_555
O18 Si5 1.657891 1_555
O19 Si8 1.657891 1_555
O20 Si2 1.657891 1_545
O21 Si9 1.657891 1_555
O22 Si5 1.657891 1_565
O23 Si8 1.657891 1_555
O24 Si3 1.657891 1_555
O25 Si4 1.657891 1_555
O26 Si4 1.657891 1_555
O27 Si3 1.657891 1_555
O28 Si6 1.657891 1_555
O29 Si7 1.657891 1_455
O30 Si7 1.657891 1_555
O31 Si6 1.657891 1_655
O32 Si6 1.657891 1_554
O33 Si7 1.657891 1_555
O34 Si7 1.657891 1_556
O35 Si6 1.657891 1_555
O36 Si3 1.657891 1_555
O37 Si4 1.657891 1_555
O38 Si4 1.657891 1_555
O39 Si3 1.657891 1_555
O40 Si5 1.657891 1_555
O41 Si2 1.657891 1_555
O42 Si5 1.657891 1_554
O43 Si2 1.657891 1_556
O44 Si1 1.657891 1_555
O45 Si0 1.657891 1_555
O46 Si1 1.657891 1_555
O47 Si0 1.657891 1_555
