# generated using pymatgen
data_Cs6U5(AsO7)4
_symmetry_space_group_name_H-M   'P 1'
_cell_length_a   8.07000000
_cell_length_b   9.46745463
_cell_length_c   12.08920192
_cell_angle_alpha   75.69099322
_cell_angle_beta   73.88835724
_cell_angle_gamma   86.73298123
_symmetry_Int_Tables_number   1
_chemical_formula_structural   Cs6U5(AsO7)4
_chemical_formula_sum   'Cs6 U5 As4 O28'
_cell_volume   859.76983344
_cell_formula_units_Z   1
loop_
 _symmetry_equiv_pos_site_id
 _symmetry_equiv_pos_as_xyz
  1  'x, y, z'
loop_
 _atom_site_type_symbol
 _atom_site_label
 _atom_site_symmetry_multiplicity
 _atom_site_fract_x
 _atom_site_fract_y
 _atom_site_fract_z
 _atom_site_occupancy
  Cs  Cs0  1  0.87353100  0.29920300  0.53197900  1
  Cs  Cs1  1  0.12646900  0.70079700  0.46802100  1
  Cs  Cs2  1  0.93613600  0.37342100  0.87554300  1
  Cs  Cs3  1  0.06386400  0.62657900  0.12445700  1
  Cs  Cs4  1  0.00977400  0.87869000  0.76672400  1
  Cs  Cs5  1  0.99022600  0.12131000  0.23327600  1
  U  U0  1  0.45201800  0.98310100  0.84308000  1
  U  U1  1  0.54798200  0.01689900  0.15692000  1
  U  U2  1  0.50883100  0.62589000  0.72197500  1
  U  U3  1  0.49116900  0.37411000  0.27802500  1
  U  U4  1  0.50000000  0.00000000  0.50000000  1
  As  As0  1  0.39799400  0.31029900  0.99243400  1
  As  As1  1  0.60200600  0.68970100  0.00756600  1
  As  As2  1  0.36650900  0.32300100  0.61513000  1
  As  As3  1  0.63349100  0.67699900  0.38487000  1
  O  O0  1  0.18881000  0.35420400  0.02528100  1
  O  O1  1  0.81119000  0.64579600  0.97471900  1
  O  O2  1  0.53444600  0.42721000  0.87572200  1
  O  O3  1  0.46555400  0.57279000  0.12427800  1
  O  O4  1  0.43396200  0.13140000  0.97568800  1
  O  O5  1  0.56603800  0.86860000  0.02431200  1
  O  O6  1  0.48108300  0.27602700  0.11611100  1
  O  O7  1  0.51891700  0.72397300  0.88388900  1
  O  O8  1  0.17299300  0.39432800  0.60986200  1
  O  O9  1  0.82700700  0.60567200  0.39013800  1
  O  O10  1  0.51323600  0.43495100  0.63344300  1
  O  O11  1  0.48676400  0.56504900  0.36655700  1
  O  O12  1  0.33977200  0.16474600  0.72916000  1
  O  O13  1  0.66022800  0.83525400  0.27084000  1
  O  O14  1  0.47797200  0.25754800  0.49047600  1
  O  O15  1  0.52202800  0.74245200  0.50952400  1
  O  O16  1  0.22981300  0.91924300  0.92337000  1
  O  O17  1  0.77018700  0.08075700  0.07663000  1
  O  O18  1  0.67419400  0.05006000  0.76488500  1
  O  O19  1  0.32580600  0.94994000  0.23511500  1
  O  O20  1  0.74523800  0.63517500  0.67644100  1
  O  O21  1  0.25476200  0.36482500  0.32355900  1
  O  O22  1  0.27204400  0.61387200  0.76686500  1
  O  O23  1  0.72795600  0.38612800  0.23313500  1
  O  O24  1  0.73442200  0.01623100  0.48069300  1
  O  O25  1  0.26557800  0.98376900  0.51930700  1
  O  O26  1  0.46324100  0.88134000  0.68716600  1
  O  O27  1  0.53675900  0.11866000  0.31283400  1
loop_
_geom_bond_atom_site_label_1
_geom_bond_atom_site_label_2
_geom_bond_distance
_geom_bond_site_symmetry_2
Cs0 O9 3.045285 1_555
Cs0 O8 3.076995 1_655
Cs0 O10 3.159775 1_555
Cs0 O24 3.220555 1_555
Cs0 O18 3.273384 1_555
Cs0 O21 3.367685 1_655
Cs0 O14 3.424527 1_555
Cs1 O8 3.045285 1_555
Cs1 O9 3.076995 1_455
Cs1 O11 3.159775 1_555
Cs1 O25 3.220555 1_555
Cs1 O19 3.273384 1_555
Cs1 O20 3.367685 1_455
Cs1 O15 3.424527 1_555
Cs2 O0 3.051460 1_656
Cs2 O1 3.108827 1_555
Cs2 O8 3.214083 1_655
Cs2 O2 3.252084 1_555
Cs2 O17 3.266025 1_556
Cs2 O22 3.391900 1_655
Cs2 O20 3.603128 1_555
Cs3 O1 3.051460 1_454
Cs3 O0 3.108827 1_555
Cs3 O9 3.214083 1_455
Cs3 O3 3.252084 1_555
Cs3 O16 3.266025 1_554
Cs3 O23 3.391900 1_455
Cs3 O21 3.603128 1_555
Cs4 O1 3.029560 1_455
Cs4 O16 3.031540 1_555
Cs4 O18 3.079214 1_465
Cs4 O25 3.087703 1_555
Cs4 O22 3.187560 1_555
Cs5 O0 3.029560 1_655
Cs5 O17 3.031540 1_555
Cs5 O19 3.079214 1_645
Cs5 O24 3.087703 1_555
Cs5 O23 3.187560 1_555
As0 O0 1.676232 1_556
As0 O2 1.712632 1_555
As0 O4 1.753499 1_555
As0 O6 1.755623 1_556
As1 O1 1.676232 1_554
As1 O3 1.712632 1_555
As1 O5 1.753499 1_555
As1 O7 1.755623 1_554
As2 O8 1.677091 1_555
As2 O10 1.725963 1_555
As2 O12 1.744289 1_555
As2 O14 1.763455 1_555
As3 O9 1.677091 1_555
As3 O11 1.725963 1_555
As3 O13 1.744289 1_555
As3 O15 1.763455 1_555
O2 U2 2.340154 1_555
O3 U3 2.340154 1_555
O4 U0 2.349917 1_545
O4 U1 2.579394 1_556
O5 U1 2.349917 1_565
O5 U0 2.579394 1_554
O6 U3 2.386605 1_555
O6 U1 2.439683 1_555
O7 U2 2.386605 1_555
O7 U0 2.439683 1_555
O10 U2 2.311381 1_555
O11 U3 2.311381 1_555
O12 U0 2.240259 1_545
O13 U1 2.240259 1_565
O14 U4 2.411113 1_555
O14 U3 2.507233 1_555
O15 U4 2.411113 1_565
O15 U2 2.507233 1_555
O16 U0 1.841374 1_555
O17 U1 1.841374 1_555
O18 U0 1.844673 1_545
O19 U1 1.844673 1_565
O20 U2 1.833789 1_555
O21 U3 1.833789 1_555
O22 U2 1.837821 1_555
O23 U3 1.837821 1_555
O24 U4 1.851291 1_555
O25 U4 1.851291 1_565
O26 U4 2.208793 1_565
O26 U0 2.298272 1_555
O26 U2 2.375468 1_555
O27 U4 2.208793 1_555
O27 U1 2.298272 1_555
O27 U3 2.375468 1_555
