# generated using pymatgen
data_TaTiSe4
_symmetry_space_group_name_H-M   'P 1'
_cell_length_a   3.53790582
_cell_length_b   6.14007041
_cell_length_c   6.38712366
_cell_angle_alpha   89.88524115
_cell_angle_beta   90.00000000
_cell_angle_gamma   90.00000000
_symmetry_Int_Tables_number   1
_chemical_formula_structural   TaTiSe4
_chemical_formula_sum   'Ta1 Ti1 Se4'
_cell_volume   138.74715044
_cell_formula_units_Z   1
loop_
 _symmetry_equiv_pos_site_id
 _symmetry_equiv_pos_as_xyz
  1  'x, y, z'
loop_
 _atom_site_type_symbol
 _atom_site_label
 _atom_site_symmetry_multiplicity
 _atom_site_fract_x
 _atom_site_fract_y
 _atom_site_fract_z
 _atom_site_occupancy
  Ta  Ta0  1  -0.00000000  0.00000000  0.00000000  1
  Ti  Ti0  1  0.50000000  0.50000000  0.00000000  1
  Se  Se0  1  -0.00000000  0.66499068  0.75620246  1
  Se  Se1  1  0.50000000  0.16914745  0.75152208  1
  Se  Se2  1  0.50000000  0.83085255  0.24847792  1
  Se  Se3  1  -0.00000000  0.33500932  0.24379754  1
loop_
_geom_bond_atom_site_label_1
_geom_bond_atom_site_label_2
_geom_bond_distance
_geom_bond_site_symmetry_2
Se0 Ti0 2.563965 1_456
Se0 Ti0 2.563965 1_556
Se0 Ta0 2.582395 1_566
Se1 Ti0 2.580406 1_556
Se1 Ta0 2.592295 1_656
Se1 Ta0 2.592295 1_556
Se2 Ti0 2.580406 1_555
Se2 Ta0 2.592295 1_665
Se2 Ta0 2.592295 1_565
Se3 Ti0 2.563965 1_555
Se3 Ti0 2.563965 1_455
Se3 Ta0 2.582395 1_555
