# generated using pymatgen
data_Mg5Sn
_symmetry_space_group_name_H-M   'P 1'
_cell_length_a   6.49725535
_cell_length_b   6.49725535
_cell_length_c   30.97712200
_cell_angle_alpha   90.00000000
_cell_angle_beta   90.00000000
_cell_angle_gamma   119.99999338
_symmetry_Int_Tables_number   1
_chemical_formula_structural   Mg5Sn
_chemical_formula_sum   'Mg40 Sn8'
_cell_volume   1132.48275538
_cell_formula_units_Z   8
loop_
 _symmetry_equiv_pos_site_id
 _symmetry_equiv_pos_as_xyz
  1  'x, y, z'
loop_
 _atom_site_type_symbol
 _atom_site_label
 _atom_site_symmetry_multiplicity
 _atom_site_fract_x
 _atom_site_fract_y
 _atom_site_fract_z
 _atom_site_occupancy
  Mg  Mg0_0  1  0.00000000  0.00000000  0.08206500  1
  Mg  Mg0_1  1  0.00000000  0.00000000  0.58206500  1
  Mg  Mg0_2  1  0.00000000  0.50000000  0.08206500  1
  Mg  Mg0_3  1  0.00000000  0.50000000  0.58206500  1
  Mg  Mg0_4  1  0.50000000  0.00000000  0.08206500  1
  Mg  Mg0_5  1  0.50000000  0.00000000  0.58206500  1
  Mg  Mg0_6  1  0.50000000  0.50000000  0.08206500  1
  Mg  Mg0_7  1  0.50000000  0.50000000  0.58206500  1
  Mg  Mg1_0  1  0.33333350  0.16666650  0.16695400  1
  Mg  Mg1_1  1  0.33333350  0.16666650  0.66695400  1
  Mg  Mg1_2  1  0.33333350  0.66666650  0.16695400  1
  Mg  Mg1_3  1  0.33333350  0.66666650  0.66695400  1
  Mg  Mg1_4  1  0.83333350  0.16666650  0.16695400  1
  Mg  Mg1_5  1  0.83333350  0.16666650  0.66695400  1
  Mg  Mg1_6  1  0.83333350  0.66666650  0.16695400  1
  Mg  Mg1_7  1  0.83333350  0.66666650  0.66695400  1
  Mg  Mg2_0  1  0.00000000  0.00000000  0.25000000  1
  Mg  Mg2_1  1  0.00000000  0.00000000  0.75000000  1
  Mg  Mg2_2  1  0.00000000  0.50000000  0.25000000  1
  Mg  Mg2_3  1  0.00000000  0.50000000  0.75000000  1
  Mg  Mg2_4  1  0.50000000  0.00000000  0.25000000  1
  Mg  Mg2_5  1  0.50000000  0.00000000  0.75000000  1
  Mg  Mg2_6  1  0.50000000  0.50000000  0.25000000  1
  Mg  Mg2_7  1  0.50000000  0.50000000  0.75000000  1
  Mg  Mg3_0  1  0.33333350  0.16666650  0.33304600  1
  Mg  Mg3_1  1  0.33333350  0.16666650  0.83304600  1
  Mg  Mg3_2  1  0.33333350  0.66666650  0.33304600  1
  Mg  Mg3_3  1  0.33333350  0.66666650  0.83304600  1
  Mg  Mg3_4  1  0.83333350  0.16666650  0.33304600  1
  Mg  Mg3_5  1  0.83333350  0.16666650  0.83304600  1
  Mg  Mg3_6  1  0.83333350  0.66666650  0.33304600  1
  Mg  Mg3_7  1  0.83333350  0.66666650  0.83304600  1
  Mg  Mg4_0  1  0.00000000  0.00000000  0.41793500  1
  Mg  Mg4_1  1  0.00000000  0.00000000  0.91793500  1
  Mg  Mg4_2  1  0.00000000  0.50000000  0.41793500  1
  Mg  Mg4_3  1  0.00000000  0.50000000  0.91793500  1
  Mg  Mg4_4  1  0.50000000  0.00000000  0.41793500  1
  Mg  Mg4_5  1  0.50000000  0.00000000  0.91793500  1
  Mg  Mg4_6  1  0.50000000  0.50000000  0.41793500  1
  Mg  Mg4_7  1  0.50000000  0.50000000  0.91793500  1
  Sn  Sn0_0  1  0.33333350  0.16666650  0.00000000  1
  Sn  Sn0_1  1  0.33333350  0.16666650  0.50000000  1
  Sn  Sn0_2  1  0.33333350  0.66666650  0.00000000  1
  Sn  Sn0_3  1  0.33333350  0.66666650  0.50000000  1
  Sn  Sn0_4  1  0.83333350  0.16666650  0.00000000  1
  Sn  Sn0_5  1  0.83333350  0.16666650  0.50000000  1
  Sn  Sn0_6  1  0.83333350  0.66666650  0.00000000  1
  Sn  Sn0_7  1  0.83333350  0.66666650  0.50000000  1
loop_
_geom_bond_atom_site_label_1
_geom_bond_atom_site_label_2
_geom_bond_distance
_geom_bond_site_symmetry_2
Mg0_0 Sn0_4 3.159164 1_455
Mg0_0 Sn0_6 3.159166 1_445
Mg0_0 Sn0_0 3.159166 1_555
Mg0_0 Mg1_4 3.229975 1_455
Mg0_0 Mg1_6 3.229977 1_445
Mg0_0 Mg1_0 3.229977 1_555
Mg0_1 Sn0_5 3.159164 1_455
Mg0_1 Sn0_1 3.159166 1_555
Mg0_1 Sn0_7 3.159166 1_445
Mg0_1 Mg1_5 3.229975 1_455
Mg0_1 Mg1_7 3.229977 1_445
Mg0_1 Mg1_1 3.229977 1_555
Mg0_2 Sn0_6 3.159164 1_455
Mg0_2 Sn0_2 3.159166 1_555
Mg0_2 Sn0_4 3.159166 1_455
Mg0_2 Mg1_6 3.229975 1_455
Mg0_2 Mg1_4 3.229977 1_455
Mg0_2 Mg1_2 3.229977 1_555
Mg0_3 Sn0_7 3.159164 1_455
Mg0_3 Sn0_5 3.159166 1_455
Mg0_3 Sn0_3 3.159166 1_555
Mg0_3 Mg1_7 3.229975 1_455
Mg0_3 Mg1_3 3.229977 1_555
Mg0_3 Mg1_5 3.229977 1_455
Mg0_4 Sn0_0 3.159164 1_555
Mg0_4 Sn0_4 3.159166 1_555
Mg0_4 Sn0_2 3.159166 1_545
Mg0_4 Mg1_0 3.229975 1_555
Mg0_4 Mg1_4 3.229977 1_555
Mg0_4 Mg1_2 3.229977 1_545
Mg0_5 Sn0_1 3.159164 1_555
Mg0_5 Sn0_5 3.159166 1_555
Mg0_5 Sn0_3 3.159166 1_545
Mg0_5 Mg1_1 3.229975 1_555
Mg0_5 Mg1_5 3.229977 1_555
Mg0_5 Mg1_3 3.229977 1_545
Mg0_6 Sn0_2 3.159164 1_555
Mg0_6 Sn0_0 3.159166 1_555
Mg0_6 Sn0_6 3.159166 1_555
Mg0_6 Mg1_2 3.229975 1_555
Mg0_6 Mg1_0 3.229977 1_555
Mg0_6 Mg1_6 3.229977 1_555
Mg0_7 Sn0_3 3.159164 1_555
Mg0_7 Sn0_1 3.159166 1_555
Mg0_7 Sn0_7 3.159166 1_555
Mg0_7 Mg1_3 3.229975 1_555
Mg0_7 Mg1_1 3.229977 1_555
Mg0_7 Mg1_7 3.229977 1_555
Mg1_0 Mg2_4 3.183668 1_555
Mg1_0 Mg2_6 3.183670 1_555
Mg1_0 Mg2_0 3.183670 1_555
Mg1_0 Mg1_4 3.248628 1_455
Mg1_0 Mg1_4 3.248628 1_555
Mg1_0 Mg1_2 3.248628 1_545
Mg1_0 Mg1_2 3.248628 1_555
Mg1_0 Mg1_6 3.248628 1_445
Mg1_0 Mg1_6 3.248628 1_555
Mg1_1 Mg2_5 3.183668 1_555
Mg1_1 Mg2_7 3.183670 1_555
Mg1_1 Mg2_1 3.183670 1_555
Mg1_1 Mg1_3 3.248628 1_555
Mg1_1 Mg1_3 3.248628 1_545
Mg1_1 Mg1_5 3.248628 1_555
Mg1_1 Mg1_5 3.248628 1_455
Mg1_1 Mg1_7 3.248628 1_445
Mg1_1 Mg1_7 3.248628 1_555
Mg1_2 Mg2_6 3.183668 1_555
Mg1_2 Mg2_2 3.183670 1_555
Mg1_2 Mg2_4 3.183670 1_565
Mg1_2 Mg1_6 3.248628 1_455
Mg1_2 Mg1_6 3.248628 1_555
Mg1_2 Mg1_4 3.248628 1_455
Mg1_2 Mg1_4 3.248628 1_565
Mg1_3 Mg2_7 3.183668 1_555
Mg1_3 Mg2_3 3.183670 1_555
Mg1_3 Mg2_5 3.183670 1_565
Mg1_3 Mg1_7 3.248628 1_455
Mg1_3 Mg1_7 3.248628 1_555
Mg1_3 Mg1_5 3.248628 1_455
Mg1_3 Mg1_5 3.248628 1_565
Mg1_4 Mg2_0 3.183668 1_655
Mg1_4 Mg2_2 3.183670 1_655
Mg1_4 Mg2_4 3.183670 1_555
Mg1_4 Mg1_6 3.248628 1_545
Mg1_4 Mg1_6 3.248628 1_555
Mg1_5 Mg2_1 3.183668 1_655
Mg1_5 Mg2_5 3.183670 1_555
Mg1_5 Mg2_3 3.183670 1_655
Mg1_5 Mg1_7 3.248628 1_545
Mg1_5 Mg1_7 3.248628 1_555
Mg1_6 Mg2_2 3.183668 1_655
Mg1_6 Mg2_0 3.183670 1_665
Mg1_6 Mg2_6 3.183670 1_555
Mg1_7 Mg2_3 3.183668 1_655
Mg1_7 Mg2_1 3.183670 1_665
Mg1_7 Mg2_7 3.183670 1_555
Mg2_0 Mg3_4 3.183668 1_455
Mg2_0 Mg3_6 3.183670 1_445
Mg2_0 Mg3_0 3.183670 1_555
Mg2_0 Mg2_4 3.248628 1_555
Mg2_0 Mg2_2 3.248628 1_555
Mg2_0 Mg2_2 3.248628 1_545
Mg2_0 Mg2_4 3.248628 1_455
Mg2_0 Mg2_6 3.248628 1_555
Mg2_0 Mg2_6 3.248628 1_445
Mg2_1 Mg3_5 3.183668 1_455
Mg2_1 Mg3_7 3.183670 1_445
Mg2_1 Mg3_1 3.183670 1_555
Mg2_1 Mg2_5 3.248628 1_455
Mg2_1 Mg2_5 3.248628 1_555
Mg2_1 Mg2_3 3.248628 1_555
Mg2_1 Mg2_3 3.248628 1_545
Mg2_1 Mg2_7 3.248628 1_555
Mg2_1 Mg2_7 3.248628 1_445
Mg2_2 Mg3_6 3.183668 1_455
Mg2_2 Mg3_2 3.183670 1_555
Mg2_2 Mg3_4 3.183670 1_455
Mg2_2 Mg2_6 3.248628 1_455
Mg2_2 Mg2_6 3.248628 1_555
Mg2_2 Mg2_4 3.248628 1_565
Mg2_2 Mg2_4 3.248628 1_455
Mg2_3 Mg3_7 3.183668 1_455
Mg2_3 Mg3_3 3.183670 1_555
Mg2_3 Mg3_5 3.183670 1_455
Mg2_3 Mg2_7 3.248628 1_555
Mg2_3 Mg2_7 3.248628 1_455
Mg2_3 Mg2_5 3.248628 1_455
Mg2_3 Mg2_5 3.248628 1_565
Mg2_4 Mg3_0 3.183668 1_555
Mg2_4 Mg3_2 3.183670 1_545
Mg2_4 Mg3_4 3.183670 1_555
Mg2_4 Mg2_6 3.248628 1_545
Mg2_4 Mg2_6 3.248628 1_555
Mg2_5 Mg3_1 3.183668 1_555
Mg2_5 Mg3_5 3.183670 1_555
Mg2_5 Mg3_3 3.183670 1_545
Mg2_5 Mg2_7 3.248628 1_555
Mg2_5 Mg2_7 3.248628 1_545
Mg2_6 Mg3_2 3.183668 1_555
Mg2_6 Mg3_0 3.183670 1_555
Mg2_6 Mg3_6 3.183670 1_555
Mg2_7 Mg3_3 3.183668 1_555
Mg2_7 Mg3_1 3.183670 1_555
Mg2_7 Mg3_7 3.183670 1_555
Mg3_0 Mg4_4 3.229975 1_555
Mg3_0 Mg4_0 3.229977 1_555
Mg3_0 Mg4_6 3.229977 1_555
Mg3_0 Mg3_2 3.248628 1_545
Mg3_0 Mg3_4 3.248628 1_555
Mg3_0 Mg3_4 3.248628 1_455
Mg3_0 Mg3_2 3.248628 1_555
Mg3_0 Mg3_6 3.248628 1_445
Mg3_0 Mg3_6 3.248628 1_555
Mg3_1 Mg4_5 3.229975 1_555
Mg3_1 Mg4_7 3.229977 1_555
Mg3_1 Mg4_1 3.229977 1_555
Mg3_1 Mg3_5 3.248628 1_455
Mg3_1 Mg3_5 3.248628 1_555
Mg3_1 Mg3_3 3.248628 1_545
Mg3_1 Mg3_3 3.248628 1_555
Mg3_1 Mg3_7 3.248628 1_445
Mg3_1 Mg3_7 3.248628 1_555
Mg3_2 Mg4_6 3.229975 1_555
Mg3_2 Mg4_2 3.229977 1_555
Mg3_2 Mg4_4 3.229977 1_565
Mg3_2 Mg3_6 3.248628 1_455
Mg3_2 Mg3_6 3.248628 1_555
Mg3_2 Mg3_4 3.248628 1_455
Mg3_2 Mg3_4 3.248628 1_565
Mg3_3 Mg4_7 3.229975 1_555
Mg3_3 Mg4_3 3.229977 1_555
Mg3_3 Mg4_5 3.229977 1_565
Mg3_3 Mg3_7 3.248628 1_455
Mg3_3 Mg3_7 3.248628 1_555
Mg3_3 Mg3_5 3.248628 1_455
Mg3_3 Mg3_5 3.248628 1_565
Mg3_4 Mg4_0 3.229975 1_655
Mg3_4 Mg4_4 3.229977 1_555
Mg3_4 Mg4_2 3.229977 1_655
Mg3_4 Mg3_6 3.248628 1_545
Mg3_4 Mg3_6 3.248628 1_555
Mg3_5 Mg4_1 3.229975 1_655
Mg3_5 Mg4_3 3.229977 1_655
Mg3_5 Mg4_5 3.229977 1_555
Mg3_5 Mg3_7 3.248628 1_545
Mg3_5 Mg3_7 3.248628 1_555
Mg3_6 Mg4_2 3.229975 1_655
Mg3_6 Mg4_0 3.229977 1_665
Mg3_6 Mg4_6 3.229977 1_555
Mg3_7 Mg4_3 3.229975 1_655
Mg3_7 Mg4_1 3.229977 1_665
Mg3_7 Mg4_7 3.229977 1_555
Mg4_0 Sn0_5 3.159164 1_455
Mg4_0 Sn0_7 3.159166 1_445
Mg4_0 Sn0_1 3.159166 1_555
Mg4_1 Sn0_4 3.159164 1_456
Mg4_1 Sn0_0 3.159166 1_556
Mg4_1 Sn0_6 3.159166 1_446
Mg4_2 Sn0_7 3.159164 1_455
Mg4_2 Sn0_3 3.159166 1_555
Mg4_2 Sn0_5 3.159166 1_455
Mg4_3 Sn0_6 3.159164 1_456
Mg4_3 Sn0_2 3.159166 1_556
Mg4_3 Sn0_4 3.159166 1_456
Mg4_4 Sn0_1 3.159164 1_555
Mg4_4 Sn0_3 3.159166 1_545
Mg4_4 Sn0_5 3.159166 1_555
Mg4_5 Sn0_0 3.159164 1_556
Mg4_5 Sn0_2 3.159166 1_546
Mg4_5 Sn0_4 3.159166 1_556
Mg4_6 Sn0_3 3.159164 1_555
Mg4_6 Sn0_1 3.159166 1_555
Mg4_6 Sn0_7 3.159166 1_555
Mg4_7 Sn0_2 3.159164 1_556
Mg4_7 Sn0_0 3.159166 1_556
Mg4_7 Sn0_6 3.159166 1_556
