# generated using pymatgen
data_La3Si7Ni3
_symmetry_space_group_name_H-M   'P 1'
_cell_length_a   13.24354185
_cell_length_b   13.24354185
_cell_length_c   4.21600392
_cell_angle_alpha   90.00000000
_cell_angle_beta   90.00000000
_cell_angle_gamma   162.05871329
_symmetry_Int_Tables_number   1
_chemical_formula_structural   La3Si7Ni3
_chemical_formula_sum   'La3 Si7 Ni3'
_cell_volume   227.78209580
_cell_formula_units_Z   1
loop_
 _symmetry_equiv_pos_site_id
 _symmetry_equiv_pos_as_xyz
  1  'x, y, z'
loop_
 _atom_site_type_symbol
 _atom_site_label
 _atom_site_symmetry_multiplicity
 _atom_site_fract_x
 _atom_site_fract_y
 _atom_site_fract_z
 _atom_site_occupancy
  La  La0  1  0.00072108  0.99927892  0.00000000  1
  La  La1  1  0.68597532  0.31402468  0.50000000  1
  La  La2  1  0.31862016  0.68137984  0.50000000  1
  Si  Si0  1  0.59357696  0.40642304  0.00000000  1
  Si  Si1  1  0.40877694  0.59122306  0.00000000  1
  Si  Si2  1  0.77667116  0.22332884  0.00000000  1
  Si  Si3  1  0.22468675  0.77531325  0.00000000  1
  Si  Si4  1  0.90869134  0.09130866  0.50000000  1
  Si  Si5  1  0.09401561  0.90598439  0.50000000  1
  Si  Si6  1  0.53822473  0.46177527  0.50000000  1
  Ni  Ni0  1  0.86655504  0.13344496  -0.00000000  1
  Ni  Ni1  1  0.13246507  0.86753493  0.00000000  1
  Ni  Ni2  1  0.45102084  0.54897916  0.50000000  1
loop_
_geom_bond_atom_site_label_1
_geom_bond_atom_site_label_2
_geom_bond_distance
_geom_bond_site_symmetry_2
La0 Si6 3.109800 1_455
La0 Si6 3.109800 1_454
La0 Si6 3.109800 1_565
La0 Si6 3.109800 1_564
La0 Si1 3.170339 1_565
La0 Si1 3.170339 1_455
La0 Si0 3.188476 1_455
La0 Si0 3.188476 1_565
La0 Si4 3.200171 1_464
La0 Si4 3.200171 1_465
La0 Ni2 3.224731 1_565
La0 Ni2 3.224731 1_564
La0 Ni2 3.224731 1_455
La0 Ni2 3.224731 1_454
La0 Si5 3.225142 1_555
La0 Si5 3.225142 1_554
La1 Si3 3.119914 1_655
La1 Si3 3.119914 1_656
La1 Si3 3.119914 1_545
La1 Si3 3.119914 1_546
La1 Si5 3.170648 1_545
La1 Si5 3.170648 1_655
La1 Si2 3.173996 1_556
La1 Si2 3.173996 1_555
La1 Si0 3.207433 1_555
La1 Si0 3.207433 1_556
La1 Ni1 3.266200 1_656
La1 Ni1 3.266200 1_655
La1 Ni1 3.266200 1_545
La1 Ni1 3.266200 1_546
La2 Si4 3.133320 1_455
La2 Si4 3.133320 1_565
La2 Si2 3.148431 1_566
La2 Si2 3.148431 1_565
La2 Si2 3.148431 1_455
La2 Si2 3.148431 1_456
La2 Si1 3.163467 1_556
La2 Si1 3.163467 1_555
La2 Ni0 3.206386 1_455
La2 Ni0 3.206386 1_456
La2 Ni0 3.206386 1_566
La2 Ni0 3.206386 1_565
La2 Si3 3.237811 1_556
La2 Si3 3.237811 1_555
Si0 Si6 2.557521 1_555
Si0 Si6 2.557521 1_554
Si2 Si3 2.472692 1_545
Si2 Si3 2.472692 1_655
Si5 Si6 2.528838 1_565
Si5 Si6 2.528838 1_455
Ni0 Si1 2.341938 1_545
Ni0 Si1 2.341938 1_655
Ni0 Si2 2.351641 1_555
Ni0 Si4 2.378864 1_555
Ni0 Si4 2.378864 1_554
Ni1 Si0 2.302081 1_565
Ni1 Si0 2.302081 1_455
Ni1 Si5 2.335727 1_554
Ni1 Si5 2.335727 1_555
Ni1 Si3 2.412805 1_555
Ni2 Si6 2.281524 1_555
Ni2 Si4 2.343267 1_455
Ni2 Si4 2.343267 1_565
Ni2 Si1 2.380170 1_556
Ni2 Si1 2.380170 1_555
