# generated using pymatgen
data_La4BrCl3O4
_symmetry_space_group_name_H-M   'P 1'
_cell_length_a   4.13310300
_cell_length_b   4.13310300
_cell_length_c   14.33616500
_cell_angle_alpha   90.00000000
_cell_angle_beta   90.00000000
_cell_angle_gamma   90.00000000
_symmetry_Int_Tables_number   1
_chemical_formula_structural   La4BrCl3O4
_chemical_formula_sum   'La4 Br1 Cl3 O4'
_cell_volume   244.89811792
_cell_formula_units_Z   1
loop_
 _symmetry_equiv_pos_site_id
 _symmetry_equiv_pos_as_xyz
  1  'x, y, z'
loop_
 _atom_site_type_symbol
 _atom_site_label
 _atom_site_symmetry_multiplicity
 _atom_site_fract_x
 _atom_site_fract_y
 _atom_site_fract_z
 _atom_site_occupancy
  La  La0  1  0.00000000  0.00000000  0.08287400  1
  La  La1  1  0.00000000  0.00000000  0.58723800  1
  La  La2  1  0.50000000  0.50000000  0.41858000  1
  La  La3  1  0.50000000  0.50000000  0.91424600  1
  Br  Br0  1  0.00000000  0.00000000  0.31417400  1
  Cl  Cl0  1  0.00000000  0.00000000  0.81656600  1
  Cl  Cl1  1  0.50000000  0.50000000  0.18053700  1
  Cl  Cl2  1  0.50000000  0.50000000  0.68368700  1
  O  O0  1  0.50000000  0.00000000  0.99852800  1
  O  O1  1  0.50000000  0.00000000  0.50252100  1
  O  O2  1  0.00000000  0.50000000  0.99852800  1
  O  O3  1  0.00000000  0.50000000  0.50252100  1
loop_
_geom_bond_atom_site_label_1
_geom_bond_atom_site_label_2
_geom_bond_distance
_geom_bond_site_symmetry_2
La0 O0 2.394326 1_454
La0 O2 2.394326 1_544
La0 O0 2.394326 1_554
La0 O2 2.394326 1_554
La1 O3 2.397016 1_555
La1 O1 2.397016 1_555
La1 O1 2.397016 1_455
La1 O3 2.397016 1_545
La2 O1 2.391399 1_565
La2 O3 2.391399 1_555
La2 O3 2.391399 1_655
La2 O1 2.391399 1_555
La3 O0 2.393862 1_555
La3 O2 2.393862 1_655
La3 O0 2.393862 1_565
La3 O2 2.393862 1_555
Br0 La2 3.283539 1_455
Br0 La2 3.283539 1_555
Br0 La2 3.283539 1_545
Br0 La2 3.283539 1_445
Br0 La0 3.315955 1_555
Cl0 La3 3.240720 1_455
Cl0 La3 3.240720 1_555
Cl0 La3 3.240720 1_545
Cl0 La3 3.240720 1_445
Cl0 La1 3.287684 1_555
Cl1 La0 3.240615 1_555
Cl1 La0 3.240615 1_565
Cl1 La0 3.240615 1_665
Cl1 La0 3.240615 1_655
Cl1 La2 3.412624 1_555
Cl2 La1 3.233134 1_555
Cl2 La1 3.233134 1_655
Cl2 La1 3.233134 1_565
Cl2 La1 3.233134 1_665
Cl2 La3 3.305332 1_555
