# generated using pymatgen
data_Tm3Pt
_symmetry_space_group_name_H-M   'P 1'
_cell_length_a   6.36997790
_cell_length_b   6.93500384
_cell_length_c   9.42924751
_cell_angle_alpha   90.00000000
_cell_angle_beta   90.00000000
_cell_angle_gamma   90.00000000
_symmetry_Int_Tables_number   1
_chemical_formula_structural   Tm3Pt
_chemical_formula_sum   'Tm12 Pt4'
_cell_volume   416.54475203
_cell_formula_units_Z   4
loop_
 _symmetry_equiv_pos_site_id
 _symmetry_equiv_pos_as_xyz
  1  'x, y, z'
loop_
 _atom_site_type_symbol
 _atom_site_label
 _atom_site_symmetry_multiplicity
 _atom_site_fract_x
 _atom_site_fract_y
 _atom_site_fract_z
 _atom_site_occupancy
  Tm  Tm0  1  0.31763644  0.67745784  0.06146825  1
  Tm  Tm1  1  0.18236356  0.17745684  0.43853175  1
  Tm  Tm2  1  0.68236356  0.32254216  0.56146825  1
  Tm  Tm3  1  0.81763644  0.82254316  0.93853175  1
  Tm  Tm4  1  0.68236356  0.32254216  0.93853175  1
  Tm  Tm5  1  0.81763644  0.82254316  0.56146825  1
  Tm  Tm6  1  0.31763644  0.67745784  0.43853175  1
  Tm  Tm7  1  0.18236356  0.17745684  0.06146825  1
  Tm  Tm8  1  0.86980809  0.52703411  0.25000000  1
  Tm  Tm9  1  0.63019191  0.02703411  0.25000000  1
  Tm  Tm10  1  0.13019191  0.47296589  0.75000000  1
  Tm  Tm11  1  0.36980809  0.97296589  0.75000000  1
  Pt  Pt0  1  0.04746795  0.88783183  0.25000000  1
  Pt  Pt1  1  0.45253205  0.38783183  0.25000000  1
  Pt  Pt2  1  0.95253205  0.11216817  0.75000000  1
  Pt  Pt3  1  0.54746795  0.61216817  0.75000000  1
loop_
_geom_bond_atom_site_label_1
_geom_bond_atom_site_label_2
_geom_bond_distance
_geom_bond_site_symmetry_2
Pt0 Tm8 2.746160 1_455
Pt0 Tm1 2.816541 1_565
Pt0 Tm7 2.816541 1_565
Pt0 Tm9 2.827916 1_465
Pt0 Tm6 2.872370 1_555
Pt0 Tm0 2.872370 1_555
Pt0 Tm5 3.312675 1_455
Pt0 Tm3 3.312675 1_454
Pt1 Tm9 2.746160 1_555
Pt1 Tm0 2.816546 1_555
Pt1 Tm6 2.816546 1_555
Pt1 Tm8 2.827916 1_555
Pt1 Tm1 2.872373 1_555
Pt1 Tm7 2.872373 1_555
Pt1 Tm2 3.312676 1_555
Pt1 Tm4 3.312676 1_554
Pt2 Tm10 2.746160 1_655
Pt2 Tm5 2.816541 1_545
Pt2 Tm3 2.816541 1_545
Pt2 Tm11 2.827916 1_645
Pt2 Tm4 2.872370 1_555
Pt2 Tm2 2.872370 1_555
Pt2 Tm7 3.312675 1_656
Pt2 Tm1 3.312675 1_655
Pt3 Tm11 2.746160 1_555
Pt3 Tm4 2.816546 1_555
Pt3 Tm2 2.816546 1_555
Pt3 Tm10 2.827916 1_555
Pt3 Tm3 2.872373 1_555
Pt3 Tm5 2.872373 1_555
Pt3 Tm0 3.312676 1_556
Pt3 Tm6 3.312676 1_555
