# generated using pymatgen
data_LiInSe2
_symmetry_space_group_name_H-M   'P 1'
_cell_length_a   4.01602900
_cell_length_b   4.01602900
_cell_length_c   5.46460700
_cell_angle_alpha   90.00000000
_cell_angle_beta   90.00000000
_cell_angle_gamma   90.00000000
_symmetry_Int_Tables_number   1
_chemical_formula_structural   LiInSe2
_chemical_formula_sum   'Li1 In1 Se2'
_cell_volume   88.13585350
_cell_formula_units_Z   1
loop_
 _symmetry_equiv_pos_site_id
 _symmetry_equiv_pos_as_xyz
  1  'x, y, z'
loop_
 _atom_site_type_symbol
 _atom_site_label
 _atom_site_symmetry_multiplicity
 _atom_site_fract_x
 _atom_site_fract_y
 _atom_site_fract_z
 _atom_site_occupancy
  Li  Li0  1  0.00000000  0.00000000  0.00000000  1
  In  In0  1  0.50000000  0.50000000  0.50000000  1
  Se  Se0  1  0.00000000  0.00000000  0.50000000  1
  Se  Se1  1  0.50000000  0.50000000  0.00000000  1
loop_
_geom_bond_atom_site_label_1
_geom_bond_atom_site_label_2
_geom_bond_distance
_geom_bond_site_symmetry_2
Li0 Se0 2.732303 1_555
Li0 Se0 2.732303 1_554
Li0 Se1 2.839761 1_455
Li0 Se1 2.839761 1_445
Li0 Se1 2.839761 1_555
Li0 Se1 2.839761 1_545
In0 Se1 2.732303 1_555
In0 Se1 2.732303 1_556
In0 Se0 2.839761 1_565
In0 Se0 2.839761 1_555
In0 Se0 2.839761 1_655
In0 Se0 2.839761 1_665
