# generated using pymatgen
data_Na2Co(SO6)2
_symmetry_space_group_name_H-M   'P 1'
_cell_length_a   5.54835089
_cell_length_b   7.86306700
_cell_length_c   11.36888666
_cell_angle_alpha   90.00000000
_cell_angle_beta   102.74554966
_cell_angle_gamma   90.00000000
_symmetry_Int_Tables_number   1
_chemical_formula_structural   Na2Co(SO6)2
_chemical_formula_sum   'Na4 Co2 S4 O24'
_cell_volume   483.76955420
_cell_formula_units_Z   2
loop_
 _symmetry_equiv_pos_site_id
 _symmetry_equiv_pos_as_xyz
  1  'x, y, z'
loop_
 _atom_site_type_symbol
 _atom_site_label
 _atom_site_symmetry_multiplicity
 _atom_site_fract_x
 _atom_site_fract_y
 _atom_site_fract_z
 _atom_site_occupancy
  Na  Na0  1  0.10194600  0.06039700  0.35598200  1
  Na  Na1  1  0.89805400  0.93960300  0.64401800  1
  Na  Na2  1  0.89805400  0.56039700  0.14401800  1
  Na  Na3  1  0.10194600  0.43960300  0.85598200  1
  Co  Co0  1  0.00000000  0.00000000  0.00000000  1
  Co  Co1  1  0.00000000  0.50000000  0.50000000  1
  S  S0  1  0.37173400  0.27409700  0.13440900  1
  S  S1  1  0.62826600  0.72590300  0.86559100  1
  S  S2  1  0.62826600  0.77409700  0.36559100  1
  S  S3  1  0.37173400  0.22590300  0.63440900  1
  O  O0  1  0.32212000  0.24413500  0.25487300  1
  O  O1  1  0.67788000  0.75586500  0.74512700  1
  O  O2  1  0.67788000  0.74413500  0.24512700  1
  O  O3  1  0.32212000  0.25586500  0.75487300  1
  O  O4  1  0.12350600  0.81484000  0.07638700  1
  O  O5  1  0.87649400  0.18516000  0.92361300  1
  O  O6  1  0.87649400  0.31484000  0.42361300  1
  O  O7  1  0.12350600  0.68516000  0.57638700  1
  O  O8  1  0.20328600  0.40683700  0.07076500  1
  O  O9  1  0.79671400  0.59316300  0.92923500  1
  O  O10  1  0.79671400  0.90683700  0.42923500  1
  O  O11  1  0.20328600  0.09316300  0.57076500  1
  O  O12  1  0.63029500  0.31899400  0.14027500  1
  O  O13  1  0.36970500  0.68100600  0.85972500  1
  O  O14  1  0.36970500  0.81899400  0.35972500  1
  O  O15  1  0.63029500  0.18100600  0.64027500  1
  O  O16  1  0.33058300  0.10872000  0.06033600  1
  O  O17  1  0.66941700  0.89128000  0.93966400  1
  O  O18  1  0.66941700  0.60872000  0.43966400  1
  O  O19  1  0.33058300  0.39128000  0.56033600  1
  O  O20  1  0.07830900  0.51817600  0.35908300  1
  O  O21  1  0.92169100  0.48182400  0.64091700  1
  O  O22  1  0.92169100  0.01817600  0.14091700  1
  O  O23  1  0.07830900  0.98182400  0.85908300  1
loop_
_geom_bond_atom_site_label_1
_geom_bond_atom_site_label_2
_geom_bond_distance
_geom_bond_site_symmetry_2
Na0 O0 2.349585 1_555
Na0 O10 2.375266 1_445
Na0 O11 2.395686 1_555
Na0 O14 2.405000 1_545
Na0 O22 2.451475 1_455
Na0 O6 2.565756 1_455
Na1 O1 2.349585 1_555
Na1 O11 2.375266 1_665
Na1 O10 2.395686 1_555
Na1 O15 2.405000 1_565
Na1 O23 2.451475 1_655
Na1 O7 2.565756 1_655
Na2 O2 2.349585 1_555
Na2 O8 2.375266 1_655
Na2 O9 2.395686 1_554
Na2 O12 2.405000 1_555
Na2 O20 2.451475 1_655
Na2 O4 2.565756 1_655
Na3 O3 2.349585 1_555
Na3 O9 2.375266 1_455
Na3 O8 2.395686 1_556
Na3 O13 2.405000 1_555
Na3 O21 2.451475 1_455
Na3 O5 2.565756 1_455
Co0 O5 1.755246 1_454
Co0 O4 1.755246 1_545
Co0 O23 1.755839 1_544
Co0 O22 1.755839 1_455
Co0 O17 2.002607 1_444
Co0 O16 2.002607 1_555
Co1 O7 1.755246 1_555
Co1 O6 1.755246 1_455
Co1 O21 1.755839 1_455
Co1 O20 1.755839 1_555
Co1 O18 2.002607 1_455
Co1 O19 2.002607 1_555
O0 S0 1.474203 1_555
O1 S1 1.474203 1_555
O2 S2 1.474203 1_555
O3 S3 1.474203 1_555
O8 S0 1.479204 1_555
O9 S1 1.479204 1_555
O10 S2 1.479204 1_555
O11 S3 1.479204 1_555
O12 S0 1.464548 1_555
O13 S1 1.464548 1_555
O14 S2 1.464548 1_555
O15 S3 1.464548 1_555
O16 S0 1.538646 1_555
O17 S1 1.538646 1_555
O18 S2 1.538646 1_555
O19 S3 1.538646 1_555
