# generated using pymatgen
data_Tl2CdTe4
_symmetry_space_group_name_H-M   'P 1'
_cell_length_a   7.93157032
_cell_length_b   7.93157032
_cell_length_c   7.93157032
_cell_angle_alpha   132.22687848
_cell_angle_beta   132.22687848
_cell_angle_gamma   69.87093218
_symmetry_Int_Tables_number   1
_chemical_formula_structural   Tl2CdTe4
_chemical_formula_sum   'Tl2 Cd1 Te4'
_cell_volume   268.28593115
_cell_formula_units_Z   1
loop_
 _symmetry_equiv_pos_site_id
 _symmetry_equiv_pos_as_xyz
  1  'x, y, z'
loop_
 _atom_site_type_symbol
 _atom_site_label
 _atom_site_symmetry_multiplicity
 _atom_site_fract_x
 _atom_site_fract_y
 _atom_site_fract_z
 _atom_site_occupancy
  Tl  Tl0  1  0.25000000  0.75000000  0.50000000  1
  Tl  Tl1  1  0.00000000  0.00000000  0.00000000  1
  Cd  Cd0  1  0.50000000  0.50000000  0.00000000  1
  Te  Te0  1  0.42201900  0.91627200  0.06284600  1
  Te  Te1  1  0.85342600  0.35917300  0.93715400  1
  Te  Te2  1  0.08372800  0.14657400  0.50574700  1
  Te  Te3  1  0.64082700  0.57798100  0.49425300  1
loop_
_geom_bond_atom_site_label_1
_geom_bond_atom_site_label_2
_geom_bond_distance
_geom_bond_site_symmetry_2
Cd0 Te1 2.885982 1_554
Cd0 Te0 2.885982 1_555
Cd0 Te3 2.885982 1_555
Cd0 Te2 2.885982 1_554
Te0 Tl1 2.926775 1_565
Te0 Tl0 2.944175 1_554
Te1 Tl1 2.926775 1_656
Te1 Tl0 2.944175 1_656
Te2 Tl1 2.926775 1_555
Te2 Tl0 2.944175 1_545
Te3 Tl1 2.926775 1_666
Te3 Tl0 2.944175 1_555
