# generated using pymatgen
data_Zr6MnTe2
_symmetry_space_group_name_H-M   'P 1'
_cell_length_a   3.74340290
_cell_length_b   7.74961422
_cell_length_c   7.75002272
_cell_angle_alpha   119.99884137
_cell_angle_beta   89.99997470
_cell_angle_gamma   90.00006139
_symmetry_Int_Tables_number   1
_chemical_formula_structural   Zr6MnTe2
_chemical_formula_sum   'Zr6 Mn1 Te2'
_cell_volume   194.70868933
_cell_formula_units_Z   1
loop_
 _symmetry_equiv_pos_site_id
 _symmetry_equiv_pos_as_xyz
  1  'x, y, z'
loop_
 _atom_site_type_symbol
 _atom_site_label
 _atom_site_symmetry_multiplicity
 _atom_site_fract_x
 _atom_site_fract_y
 _atom_site_fract_z
 _atom_site_occupancy
  Zr  Zr0  1  0.50000030  0.75872464  0.75866626  1
  Zr  Zr1  1  0.50000013  0.00001636  0.24136450  1
  Zr  Zr2  1  0.49999940  0.24134113  0.99995800  1
  Zr  Zr3  1  0.99999991  0.40803832  0.40803526  1
  Zr  Zr4  1  0.00000075  0.00000886  0.59197120  1
  Zr  Zr5  1  0.00000046  0.59184182  1.00000373  1
  Mn  Mn0  1  0.99999912  0.00008960  0.99999852  1
  Te  Te0  1  0.49999983  0.66675875  0.33339840  1
  Te  Te1  1  0.50000009  0.33317952  0.66660513  1
loop_
_geom_bond_atom_site_label_1
_geom_bond_atom_site_label_2
_geom_bond_distance
_geom_bond_site_symmetry_2
Mn0 Zr2 2.645615 1_655
Mn0 Zr2 2.645616 1_555
Mn0 Zr0 2.646090 1_545
Mn0 Zr0 2.646098 1_645
Mn0 Zr1 2.646398 1_556
Mn0 Zr1 2.646405 1_656
Mn0 Zr4 3.161908 1_655
Mn0 Zr3 3.161925 1_556
Mn0 Zr5 3.163783 1_645
Te0 Zr4 3.002257 1_565
Te0 Zr4 3.002259 1_665
Te0 Zr5 3.002729 1_554
Te0 Zr5 3.002732 1_654
Te0 Zr3 3.002919 1_455
Te0 Zr3 3.002922 1_555
Te0 Zr1 3.003446 1_565
Te0 Zr0 3.003600 1_555
Te0 Zr2 3.004617 1_554
Te1 Zr4 3.001810 1_555
Te1 Zr4 3.001816 1_655
Te1 Zr3 3.002998 1_555
Te1 Zr3 3.003001 1_455
Te1 Zr5 3.003075 1_555
Te1 Zr5 3.003075 1_655
Te1 Zr1 3.003106 1_555
Te1 Zr2 3.003266 1_555
Te1 Zr0 3.005291 1_555
