# generated using pymatgen
data_TiTl2O3
_symmetry_space_group_name_H-M   'P 1'
_cell_length_a   3.82186766
_cell_length_b   9.74164138
_cell_length_c   12.57036186
_cell_angle_alpha   90.00000000
_cell_angle_beta   90.00000000
_cell_angle_gamma   90.00000000
_symmetry_Int_Tables_number   1
_chemical_formula_structural   TiTl2O3
_chemical_formula_sum   'Ti4 Tl8 O12'
_cell_volume   468.01046281
_cell_formula_units_Z   4
loop_
 _symmetry_equiv_pos_site_id
 _symmetry_equiv_pos_as_xyz
  1  'x, y, z'
loop_
 _atom_site_type_symbol
 _atom_site_label
 _atom_site_symmetry_multiplicity
 _atom_site_fract_x
 _atom_site_fract_y
 _atom_site_fract_z
 _atom_site_occupancy
  Ti  Ti0  1  0.75000000  0.46894661  0.90328906  1
  Ti  Ti1  1  0.25000000  0.96894661  0.59671094  1
  Ti  Ti2  1  0.25000000  0.53105339  0.09671094  1
  Ti  Ti3  1  0.75000000  0.03105339  0.40328906  1
  Tl  Tl0  1  0.25000000  0.73410996  0.34618676  1
  Tl  Tl1  1  0.25000000  0.76589004  0.84618676  1
  Tl  Tl2  1  0.75000000  0.23410996  0.15381324  1
  Tl  Tl3  1  0.75000000  0.26589004  0.65381324  1
  Tl  Tl4  1  0.25000000  0.35839001  0.39728706  1
  Tl  Tl5  1  0.75000000  0.64160999  0.60271294  1
  Tl  Tl6  1  0.75000000  0.85839001  0.10271294  1
  Tl  Tl7  1  0.25000000  0.14160999  0.89728706  1
  O  O0  1  0.25000000  0.02773789  0.44249100  1
  O  O1  1  0.75000000  0.97226211  0.55750900  1
  O  O2  1  0.75000000  0.52773789  0.05750900  1
  O  O3  1  0.25000000  0.47226211  0.94249100  1
  O  O4  1  0.25000000  0.40057336  0.19762738  1
  O  O5  1  0.75000000  0.59942664  0.80237262  1
  O  O6  1  0.75000000  0.90057336  0.30237262  1
  O  O7  1  0.75000000  0.29745053  0.84633206  1
  O  O8  1  0.75000000  0.20254947  0.34633206  1
  O  O9  1  0.25000000  0.79745053  0.65366794  1
  O  O10  1  0.25000000  0.70254947  0.15366794  1
  O  O11  1  0.25000000  0.09942664  0.69762738  1
loop_
_geom_bond_atom_site_label_1
_geom_bond_atom_site_label_2
_geom_bond_distance
_geom_bond_site_symmetry_2
O0 Ti3 1.973714 1_555
O0 Ti3 1.973714 1_455
O0 Ti1 2.021431 1_545
O1 Ti1 1.973714 1_555
O1 Ti1 1.973714 1_655
O1 Ti3 2.021431 1_565
O2 Ti2 1.973714 1_655
O2 Ti2 1.973714 1_555
O2 Ti0 2.021431 1_554
O3 Ti0 1.973714 1_555
O3 Ti0 1.973714 1_455
O3 Ti2 2.021431 1_556
O4 Ti2 1.795802 1_555
O4 Tl4 2.543214 1_555
O4 Tl2 2.566063 1_455
O4 Tl2 2.566063 1_555
O5 Ti0 1.795802 1_555
O5 Tl5 2.543214 1_555
O5 Tl1 2.566063 1_555
O5 Tl1 2.566063 1_655
O6 Ti3 1.795802 1_565
O6 Tl6 2.543214 1_555
O6 Tl0 2.566063 1_655
O6 Tl0 2.566063 1_555
O7 Ti0 1.817607 1_555
O7 Tl3 2.439483 1_555
O7 Tl7 2.523231 1_555
O7 Tl7 2.523231 1_655
O8 Ti3 1.817607 1_555
O8 Tl2 2.439483 1_555
O8 Tl4 2.523231 1_655
O8 Tl4 2.523231 1_555
O9 Ti1 1.817607 1_555
O9 Tl1 2.439483 1_555
O9 Tl5 2.523231 1_455
O9 Tl5 2.523231 1_555
O10 Ti2 1.817607 1_555
O10 Tl0 2.439483 1_555
O10 Tl6 2.523231 1_455
O10 Tl6 2.523231 1_555
O11 Ti1 1.795802 1_545
O11 Tl7 2.543214 1_555
O11 Tl3 2.566063 1_455
O11 Tl3 2.566063 1_555
