# generated using pymatgen
data_BaBiBrO2
_symmetry_space_group_name_H-M   'P 1'
_cell_length_a   7.48071071
_cell_length_b   7.48071071
_cell_length_c   5.84956500
_cell_angle_alpha   90.00000000
_cell_angle_beta   90.00000000
_cell_angle_gamma   132.04795456
_symmetry_Int_Tables_number   1
_chemical_formula_structural   BaBiBrO2
_chemical_formula_sum   'Ba2 Bi2 Br2 O4'
_cell_volume   243.08333569
_cell_formula_units_Z   2
loop_
 _symmetry_equiv_pos_site_id
 _symmetry_equiv_pos_as_xyz
  1  'x, y, z'
loop_
 _atom_site_type_symbol
 _atom_site_label
 _atom_site_symmetry_multiplicity
 _atom_site_fract_x
 _atom_site_fract_y
 _atom_site_fract_z
 _atom_site_occupancy
  Ba  Ba0  1  0.61155500  0.38844500  0.25000000  1
  Ba  Ba1  1  0.38844500  0.61155500  0.75000000  1
  Bi  Bi0  1  0.92769100  0.07230900  0.25000000  1
  Bi  Bi1  1  0.07230900  0.92769100  0.75000000  1
  Br  Br0  1  0.25387900  0.74612100  0.25000000  1
  Br  Br1  1  0.74612100  0.25387900  0.75000000  1
  O  O0  1  0.22574200  0.22574200  0.00000000  1
  O  O1  1  0.77425800  0.77425800  0.00000000  1
  O  O2  1  0.77425800  0.77425800  0.50000000  1
  O  O3  1  0.22574200  0.22574200  0.50000000  1
loop_
_geom_bond_atom_site_label_1
_geom_bond_atom_site_label_2
_geom_bond_distance
_geom_bond_site_symmetry_2
Ba0 O2 2.691549 1_555
Ba0 O3 2.691549 1_555
Ba0 O1 2.691549 1_555
Ba0 O0 2.691549 1_555
Ba0 Br1 3.455201 1_555
Ba0 Br1 3.455201 1_554
Ba0 Br0 3.609156 1_655
Ba0 Br0 3.609156 1_545
Ba1 O3 2.691549 1_555
Ba1 O0 2.691549 1_556
Ba1 O1 2.691549 1_556
Ba1 O2 2.691549 1_555
Ba1 Br0 3.455201 1_555
Ba1 Br0 3.455201 1_556
Ba1 Br1 3.609156 1_565
Ba1 Br1 3.609156 1_455
Bi0 O1 2.235907 1_545
Bi0 O2 2.235907 1_545
Bi0 O3 2.235907 1_655
Bi0 O0 2.235907 1_655
Bi1 O2 2.235907 1_455
Bi1 O1 2.235907 1_456
Bi1 O3 2.235907 1_565
Bi1 O0 2.235907 1_566
