# generated using pymatgen
data_NbV2Os
_symmetry_space_group_name_H-M   'P 1'
_cell_length_a   9.69380214
_cell_length_b   9.69380214
_cell_length_c   9.69380214
_cell_angle_alpha   125.20674596
_cell_angle_beta   119.78951775
_cell_angle_gamma   85.79393783
_symmetry_Int_Tables_number   1
_chemical_formula_structural   NbV2Os
_chemical_formula_sum   'Nb1 V2 Os1'
_cell_volume   616.08793128
_cell_formula_units_Z   1
loop_
 _symmetry_equiv_pos_site_id
 _symmetry_equiv_pos_as_xyz
  1  'x, y, z'
loop_
 _atom_site_type_symbol
 _atom_site_label
 _atom_site_symmetry_multiplicity
 _atom_site_fract_x
 _atom_site_fract_y
 _atom_site_fract_z
 _atom_site_occupancy
  Nb  Nb0  1  0.00000000  0.00000000  0.00000000  1
  V  V0  1  0.00000000  0.25278400  0.25278400  1
  V  V1  1  0.00000000  0.74721600  0.74721600  1
  Os  Os0  1  0.00000000  0.50000000  0.50000000  1
loop_
_geom_bond_atom_site_label_1
_geom_bond_atom_site_label_2
_geom_bond_distance
_geom_bond_site_symmetry_2
Nb0 V0 2.255126 1_555
Nb0 V1 2.255126 1_544
Os0 V0 2.205453 1_555
Os0 V1 2.205453 1_555
