# generated using pymatgen
data_CaMn2O4
_symmetry_space_group_name_H-M   'P 1'
_cell_length_a   6.27310012
_cell_length_b   10.70582465
_cell_length_c   6.35743850
_cell_angle_alpha   73.65884567
_cell_angle_beta   60.96776989
_cell_angle_gamma   89.02010885
_symmetry_Int_Tables_number   1
_chemical_formula_structural   CaMn2O4
_chemical_formula_sum   'Ca4 Mn8 O16'
_cell_volume   354.58003465
_cell_formula_units_Z   4
loop_
 _symmetry_equiv_pos_site_id
 _symmetry_equiv_pos_as_xyz
  1  'x, y, z'
loop_
 _atom_site_type_symbol
 _atom_site_label
 _atom_site_symmetry_multiplicity
 _atom_site_fract_x
 _atom_site_fract_y
 _atom_site_fract_z
 _atom_site_occupancy
  Ca  Ca0  1  0.01238400  0.00166400  0.97753000  1
  Ca  Ca1  1  0.52251100  0.50596900  0.96181600  1
  Ca  Ca2  1  0.93833900  0.31113500  0.11855700  1
  Ca  Ca3  1  0.43420000  0.81199000  0.13305200  1
  Mn  Mn0  1  0.93445100  0.81419500  0.63425900  1
  Mn  Mn1  1  0.18759200  0.56305800  0.63020800  1
  Mn  Mn2  1  0.43170300  0.81348800  0.63372800  1
  Mn  Mn3  1  0.35286300  0.11827700  0.27892400  1
  Mn  Mn4  1  0.85414700  0.61916800  0.28756300  1
  Mn  Mn5  1  0.43822600  0.31012900  0.61542800  1
  Mn  Mn6  1  0.68354100  0.06193400  0.62111600  1
  Mn  Mn7  1  0.95030600  0.31330200  0.61095700  1
  O  O0  1  0.54343600  0.18216700  0.84916900  1
  O  O1  1  0.05377400  0.68874200  0.90052300  1
  O  O2  1  0.34668200  0.41779600  0.38531800  1
  O  O3  1  0.79974600  0.96078700  0.39681600  1
  O  O4  1  0.56006900  0.18480500  0.41890900  1
  O  O5  1  0.05743300  0.68652600  0.43605600  1
  O  O6  1  0.77960900  0.41003500  0.43342800  1
  O  O7  1  0.27494600  0.91487100  0.44154600  1
  O  O8  1  0.00657200  0.18153600  0.43173500  1
  O  O9  1  0.50483800  0.68446700  0.44540500  1
  O  O10  1  0.88403100  0.43793100  0.79902100  1
  O  O11  1  0.37928600  0.94354000  0.81276500  1
  O  O12  1  0.10623800  0.21629000  0.79979000  1
  O  O13  1  0.59963400  0.72198700  0.81083600  1
  O  O14  1  0.31483700  0.43006200  0.81334800  1
  O  O15  1  0.79859700  0.94415200  0.82220600  1
loop_
_geom_bond_atom_site_label_1
_geom_bond_atom_site_label_2
_geom_bond_distance
_geom_bond_site_symmetry_2
Ca0 O11 2.181657 1_545
Ca0 O15 2.192826 1_445
Ca0 O12 2.200601 1_555
Ca0 O3 2.233517 1_446
Ca1 O10 2.198735 1_555
Ca1 O13 2.200492 1_555
Ca1 O14 2.215809 1_555
Ca1 O2 2.253819 1_556
Ca2 O10 2.278078 1_554
Ca2 O14 2.286664 1_654
Ca2 O12 2.301490 1_654
Ca2 O8 2.307547 1_655
Ca2 O6 2.311194 1_555
Ca2 O4 2.316194 1_555
Ca3 O13 2.283588 1_554
Ca3 O15 2.298967 1_554
Ca3 O11 2.301909 1_554
Ca3 O9 2.304632 1_555
Ca3 O7 2.309503 1_555
Ca3 O5 2.309676 1_555
Mn0 O13 1.950629 1_555
Mn0 O15 1.999058 1_555
Mn0 O7 2.005181 1_655
Mn0 O5 2.010130 1_655
Mn0 O1 2.268410 1_655
Mn0 O3 2.305504 1_555
Mn1 O10 1.966512 1_455
Mn1 O14 1.987556 1_555
Mn1 O5 1.990126 1_555
Mn1 O9 1.997521 1_555
Mn1 O1 2.308856 1_555
Mn1 O2 2.374783 1_555
Mn2 O13 1.957661 1_555
Mn2 O11 1.963424 1_555
Mn2 O9 1.981814 1_555
Mn2 O7 2.005296 1_555
Mn2 O1 2.282928 1_555
Mn2 O3 2.344906 1_555
Mn3 O7 2.080601 1_545
Mn3 O8 2.095942 1_555
Mn3 O4 2.121305 1_555
Mn3 O0 2.273280 1_554
Mn4 O1 2.046290 1_654
Mn4 O9 2.122588 1_555
Mn4 O6 2.130272 1_555
Mn4 O5 2.149522 1_655
Mn5 O2 1.908510 1_555
Mn5 O12 1.939071 1_555
Mn5 O14 1.939272 1_555
Mn5 O4 1.981558 1_555
Mn5 O6 2.011429 1_555
Mn5 O0 2.072671 1_555
Mn6 O3 1.889539 1_545
Mn6 O11 1.921076 1_545
Mn6 O15 1.924224 1_545
Mn6 O4 1.990700 1_555
Mn6 O8 2.012122 1_655
Mn6 O0 2.075089 1_555
Mn7 O10 1.943911 1_555
Mn7 O12 1.969801 1_655
Mn7 O8 1.977333 1_655
Mn7 O6 1.992554 1_555
Mn7 O2 2.285184 1_655
Mn7 O0 2.439946 1_555
