# generated using pymatgen
data_LiMnO2
_symmetry_space_group_name_H-M   'P 1'
_cell_length_a   5.92089435
_cell_length_b   5.95643583
_cell_length_c   10.34513921
_cell_angle_alpha   88.61848118
_cell_angle_beta   72.40188251
_cell_angle_gamma   60.46993190
_symmetry_Int_Tables_number   1
_chemical_formula_structural   LiMnO2
_chemical_formula_sum   'Li8 Mn8 O16'
_cell_volume   299.14397790
_cell_formula_units_Z   8
loop_
 _symmetry_equiv_pos_site_id
 _symmetry_equiv_pos_as_xyz
  1  'x, y, z'
loop_
 _atom_site_type_symbol
 _atom_site_label
 _atom_site_symmetry_multiplicity
 _atom_site_fract_x
 _atom_site_fract_y
 _atom_site_fract_z
 _atom_site_occupancy
  Li  Li0  1  0.49964500  0.49988200  0.50000000  1
  Li  Li1  1  0.50012100  0.00022000  0.00005000  1
  Li  Li2  1  0.99873300  0.74708000  0.24965800  1
  Li  Li3  1  0.00124500  0.25301700  0.75036200  1
  Li  Li4  1  0.49957900  0.77103200  0.76147400  1
  Li  Li5  1  0.50110000  0.22897500  0.23881300  1
  Li  Li6  1  0.99794400  0.76493500  0.75198200  1
  Li  Li7  1  0.00256600  0.23508400  0.24775500  1
  Mn  Mn0  1  0.50739200  0.73296400  0.24792000  1
  Mn  Mn1  1  0.49280800  0.26706900  0.75202800  1
  Mn  Mn2  1  0.00014800  0.50010200  0.99988700  1
  Mn  Mn3  1  0.99968200  0.99985900  0.49990400  1
  Mn  Mn4  1  0.50024600  0.50016400  0.00001900  1
  Mn  Mn5  1  0.49959800  0.99988400  0.50012700  1
  Mn  Mn6  1  0.99972800  0.49984700  0.49986100  1
  Mn  Mn7  1  0.00016100  0.99995700  0.00002800  1
  O  O0  1  0.75268400  0.61057100  0.89202200  1
  O  O1  1  0.75349000  0.10710900  0.39361900  1
  O  O2  1  0.24583700  0.89266900  0.60637200  1
  O  O3  1  0.24777100  0.38979200  0.10800800  1
  O  O4  1  0.24615500  0.64606700  0.86614700  1
  O  O5  1  0.23640900  0.10359800  0.36926100  1
  O  O6  1  0.76309000  0.89622700  0.63075400  1
  O  O7  1  0.75430500  0.35405300  0.13383800  1
  O  O8  1  0.74845400  0.64052100  0.39111700  1
  O  O9  1  0.74624200  0.14486800  0.88852900  1
  O  O10  1  0.21894400  0.64851700  0.39089400  1
  O  O11  1  0.23515900  0.14352100  0.88267900  1
  O  O12  1  0.25413300  0.85532800  0.11151100  1
  O  O13  1  0.25101900  0.35925600  0.60891000  1
  O  O14  1  0.76517700  0.85662500  0.11737000  1
  O  O15  1  0.78043500  0.35120600  0.60910100  1
loop_
_geom_bond_atom_site_label_1
_geom_bond_atom_site_label_2
_geom_bond_distance
_geom_bond_site_symmetry_2
Li0 O13 2.074894 1_555
Li0 O8 2.075669 1_555
Li0 O10 2.110862 1_555
Li0 O15 2.111218 1_555
Li0 O1 2.145058 1_555
Li0 O2 2.145089 1_555
Li1 O9 2.090476 1_554
Li1 O12 2.090772 1_545
Li1 O11 2.108535 1_554
Li1 O14 2.108561 1_545
Li1 O3 2.136008 1_555
Li1 O0 2.136606 1_544
Li2 O8 2.076409 1_555
Li2 O12 2.086826 1_655
Li2 O14 2.103040 1_555
Li2 O10 2.129678 1_655
Li2 O3 2.145027 1_655
Li2 O1 2.168430 1_565
Li3 O13 2.073208 1_555
Li3 O9 2.084964 1_455
Li3 O11 2.104789 1_555
Li3 O15 2.132426 1_455
Li3 O0 2.146166 1_455
Li3 O2 2.169970 1_545
Li4 O4 2.014385 1_555
Li4 O11 2.113991 1_565
Li4 O6 2.154440 1_555
Li4 O0 2.175529 1_555
Li4 O2 2.384379 1_555
Li4 O15 2.451380 1_555
Li5 O7 2.014832 1_555
Li5 O14 2.114297 1_545
Li5 O5 2.158998 1_555
Li5 O3 2.178761 1_555
Li5 O1 2.376259 1_555
Li5 O10 2.448670 1_555
Li6 O4 2.009852 1_655
Li6 O6 2.013270 1_555
Li6 O2 2.170464 1_655
Li6 O9 2.212328 1_565
Li6 O0 2.243399 1_555
Li6 O13 2.353109 1_655
Li7 O7 2.008004 1_455
Li7 O5 2.011567 1_555
Li7 O1 2.177165 1_455
Li7 O12 2.210163 1_545
Li7 O3 2.243317 1_555
Li7 O8 2.353087 1_455
Mn0 O5 2.109006 1_565
Mn0 O7 2.111062 1_555
Mn0 O14 2.123678 1_555
Mn0 O10 2.154302 1_555
Mn0 O12 2.218957 1_555
Mn0 O8 2.235929 1_555
Mn1 O6 2.109322 1_545
Mn1 O4 2.111596 1_555
Mn1 O11 2.123084 1_555
Mn1 O15 2.149564 1_555
Mn1 O9 2.220500 1_555
Mn1 O13 2.238456 1_555
Mn2 O0 1.956488 1_455
Mn2 O3 1.959332 1_556
Mn2 O11 2.026878 1_555
Mn2 O14 2.027816 1_456
Mn2 O4 2.182556 1_555
Mn2 O7 2.183183 1_456
Mn3 O1 1.938875 1_565
Mn3 O2 1.940217 1_655
Mn3 O5 1.959855 1_665
Mn3 O6 1.959910 1_555
Mn3 O10 1.971572 1_655
Mn3 O15 1.972369 1_565
Mn4 O3 1.959197 1_555
Mn4 O0 1.959204 1_554
Mn4 O12 1.997920 1_555
Mn4 O9 1.998450 1_554
Mn4 O7 2.201661 1_555
Mn4 O4 2.202189 1_554
Mn5 O2 1.945974 1_555
Mn5 O1 1.947489 1_565
Mn5 O13 2.005919 1_565
Mn5 O8 2.006801 1_555
Mn5 O6 2.219541 1_555
Mn5 O5 2.220183 1_565
Mn6 O8 1.979605 1_555
Mn6 O13 1.982136 1_655
Mn6 O10 1.984890 1_655
Mn6 O15 1.986096 1_555
Mn6 O5 2.260171 1_655
Mn6 O6 2.262100 1_555
Mn7 O9 2.014254 1_464
Mn7 O12 2.014268 1_555
Mn7 O14 2.058622 1_455
Mn7 O11 2.059721 1_564
Mn7 O4 2.092250 1_554
Mn7 O7 2.092736 1_465
