# generated using pymatgen
data_Li2Mn3(BO3)3
_symmetry_space_group_name_H-M   'P 1'
_cell_length_a   6.33822000
_cell_length_b   8.19356373
_cell_length_c   8.83170368
_cell_angle_alpha   117.14211647
_cell_angle_beta   110.53740693
_cell_angle_gamma   90.82468689
_symmetry_Int_Tables_number   1
_chemical_formula_structural   Li2Mn3(BO3)3
_chemical_formula_sum   'Li4 Mn6 B6 O18'
_cell_volume   373.73761849
_cell_formula_units_Z   2
loop_
 _symmetry_equiv_pos_site_id
 _symmetry_equiv_pos_as_xyz
  1  'x, y, z'
loop_
 _atom_site_type_symbol
 _atom_site_label
 _atom_site_symmetry_multiplicity
 _atom_site_fract_x
 _atom_site_fract_y
 _atom_site_fract_z
 _atom_site_occupancy
  Li  Li0  1  0.59419300  0.01856100  0.71804200  1
  Li  Li1  1  0.40291600  0.27737100  0.29631600  1
  Li  Li2  1  0.74072400  0.69987500  0.98364400  1
  Li  Li3  1  0.25056100  0.70124900  0.98298600  1
  Mn  Mn0  1  0.30464500  0.62547100  0.60523800  1
  Mn  Mn1  1  0.82983600  0.66509200  0.63980200  1
  Mn  Mn2  1  0.50688000  0.36976500  0.01455300  1
  Mn  Mn3  1  0.00008600  0.34608000  0.00685900  1
  Mn  Mn4  1  0.68682800  0.00082400  0.36926300  1
  Mn  Mn5  1  0.17471900  0.00034400  0.36348300  1
  B  B0  1  0.09788300  0.34482300  0.67841700  1
  B  B1  1  0.57888700  0.33959500  0.66979000  1
  B  B2  1  0.40965200  0.66586000  0.33283700  1
  B  B3  1  0.91742500  0.66028000  0.32234600  1
  B  B4  1  0.49704300  0.99344000  0.99425000  1
  B  B5  1  0.99824700  0.99042100  0.99910100  1
  O  O0  1  0.91424600  0.06051300  0.87930300  1
  O  O1  1  0.45824300  0.09076100  0.89786800  1
  O  O2  1  0.52542200  0.14654500  0.55976200  1
  O  O3  1  0.02183300  0.15940600  0.54919900  1
  O  O4  1  0.19175900  0.41022900  0.86837800  1
  O  O5  1  0.68183900  0.42203100  0.85997600  1
  O  O6  1  0.11215400  0.10665700  0.18766800  1
  O  O7  1  0.56879200  0.09096300  0.18442000  1
  O  O8  1  0.52934400  0.45058600  0.58328100  1
  O  O9  1  0.07694200  0.48091100  0.62252400  1
  O  O10  1  0.96647300  0.79566600  0.92517400  1
  O  O11  1  0.46121300  0.79748600  0.89884300  1
  O  O12  1  0.35683400  0.47317800  0.22465000  1
  O  O13  1  0.84495100  0.46948600  0.20713700  1
  O  O14  1  0.03987000  0.73195200  0.51423500  1
  O  O15  1  0.49770000  0.74504900  0.52950300  1
  O  O16  1  0.38199000  0.78388100  0.25917500  1
  O  O17  1  0.87170700  0.78563900  0.25564700  1
loop_
_geom_bond_atom_site_label_1
_geom_bond_atom_site_label_2
_geom_bond_distance
_geom_bond_site_symmetry_2
Li0 O1 1.931938 1_555
Li0 O0 1.941073 1_555
Li0 O15 2.002557 1_545
Li0 O2 2.041282 1_555
Li1 O6 1.932364 1_555
Li1 O7 1.952642 1_555
Li1 O12 1.967270 1_555
Li1 O8 2.083270 1_555
Li2 O10 1.945736 1_555
Li2 O5 1.983863 1_555
Li2 O11 1.998872 1_555
Li2 O17 1.999382 1_556
Li3 O10 1.963874 1_455
Li3 O16 2.037990 1_556
Li3 O11 2.038909 1_555
Li3 O4 2.087304 1_555
Mn0 O9 1.944105 1_555
Mn0 O14 1.989739 1_555
Mn0 O15 2.010538 1_555
Mn0 O8 2.029338 1_555
Mn0 O11 2.124809 1_555
Mn1 O10 2.056289 1_555
Mn1 O9 2.186162 1_655
Mn1 O14 2.207095 1_655
Mn1 O15 2.234485 1_555
Mn1 O8 2.324169 1_555
Mn2 O1 1.997586 1_554
Mn2 O13 2.067955 1_555
Mn2 O4 2.089545 1_554
Mn2 O5 2.204262 1_554
Mn2 O12 2.211828 1_555
Mn3 O0 2.041605 1_454
Mn3 O13 2.176001 1_455
Mn3 O4 2.204220 1_554
Mn3 O12 2.224864 1_555
Mn3 O5 2.252905 1_454
Mn4 O7 2.007290 1_555
Mn4 O3 2.095550 1_655
Mn4 O2 2.170881 1_555
Mn4 O17 2.181490 1_545
Mn4 O16 2.200978 1_545
Mn5 O6 2.034467 1_555
Mn5 O3 2.128129 1_555
Mn5 O2 2.169344 1_555
Mn5 O17 2.186566 1_445
Mn5 O16 2.268406 1_545
B0 O3 1.361557 1_555
B0 O4 1.387783 1_555
B0 O9 1.401823 1_555
B1 O5 1.373484 1_555
B1 O2 1.382826 1_555
B1 O8 1.408260 1_555
B2 O16 1.374017 1_555
B2 O12 1.378950 1_555
B2 O15 1.424946 1_555
B3 O13 1.374865 1_555
B3 O17 1.388102 1_555
B3 O14 1.405428 1_655
B4 O7 1.376689 1_566
B4 O1 1.378034 1_565
B4 O11 1.400102 1_555
B5 O6 1.375207 1_666
B5 O0 1.378644 1_565
B5 O10 1.400399 1_555
