# generated using pymatgen
data_Ca8Mn7CrO21
_symmetry_space_group_name_H-M   'P 1'
_cell_length_a   10.96900153
_cell_length_b   15.43534672
_cell_length_c   10.97278386
_cell_angle_alpha   89.86849456
_cell_angle_beta   91.71012460
_cell_angle_gamma   90.52017430
_symmetry_Int_Tables_number   1
_chemical_formula_structural   Ca8Mn7CrO21
_chemical_formula_sum   'Ca32 Mn28 Cr4 O84'
_cell_volume   1856.89798709
_cell_formula_units_Z   4
loop_
 _symmetry_equiv_pos_site_id
 _symmetry_equiv_pos_as_xyz
  1  'x, y, z'
loop_
 _atom_site_type_symbol
 _atom_site_label
 _atom_site_symmetry_multiplicity
 _atom_site_fract_x
 _atom_site_fract_y
 _atom_site_fract_z
 _atom_site_occupancy
  Ca  Ca0  1  0.99708238  0.10741510  0.51157799  1
  Ca  Ca1  1  0.99767110  0.11188955  0.00701916  1
  Ca  Ca2  1  0.01037136  0.62370850  0.51097694  1
  Ca  Ca3  1  0.01636171  0.62215579  0.99180337  1
  Ca  Ca4  1  0.54316988  0.12564131  0.47710975  1
  Ca  Ca5  1  0.54516095  0.12884271  0.98812804  1
  Ca  Ca6  1  0.52846160  0.62923855  0.51198328  1
  Ca  Ca7  1  0.53244047  0.62195555  0.97337762  1
  Ca  Ca8  1  0.51189693  0.38671851  0.98519264  1
  Ca  Ca9  1  0.49544652  0.37989649  0.51190707  1
  Ca  Ca10  1  0.51745343  0.86085684  0.98180449  1
  Ca  Ca11  1  0.49129135  0.86888951  0.51142428  1
  Ca  Ca12  1  0.96443913  0.38636621  0.00558464  1
  Ca  Ca13  1  0.96046020  0.38774160  0.50254233  1
  Ca  Ca14  1  0.95633993  0.88055794  0.00204669  1
  Ca  Ca15  1  0.96856521  0.87253817  0.50974385  1
  Ca  Ca16  1  0.23321676  0.39322893  0.25174143  1
  Ca  Ca17  1  0.23607747  0.40385593  0.77021794  1
  Ca  Ca18  1  0.22935383  0.88924446  0.27067904  1
  Ca  Ca19  1  0.22202528  0.87326578  0.73470529  1
  Ca  Ca20  1  0.74871788  0.37980601  0.24765888  1
  Ca  Ca21  1  0.73295451  0.38405220  0.75291042  1
  Ca  Ca22  1  0.75899013  0.86930212  0.25426629  1
  Ca  Ca23  1  0.73673898  0.86723579  0.74900413  1
  Ca  Ca24  1  0.22665391  0.11877655  0.24081613  1
  Ca  Ca25  1  0.22154628  0.11160187  0.73476002  1
  Ca  Ca26  1  0.23809080  0.62571322  0.26162732  1
  Ca  Ca27  1  0.26586503  0.63118058  0.74040880  1
  Ca  Ca28  1  0.78205335  0.11601779  0.25514393  1
  Ca  Ca29  1  0.78128158  0.12256485  0.75327664  1
  Ca  Ca30  1  0.78289231  0.62215768  0.25408205  1
  Ca  Ca31  1  0.77312118  0.62346908  0.75724187  1
  Mn  Mn0  1  0.99359281  0.99365266  0.75637400  1
  Mn  Mn1  1  0.00136072  0.50132374  0.25306546  1
  Mn  Mn2  1  0.99682018  0.49987702  0.75447846  1
  Mn  Mn3  1  0.50446667  0.98497070  0.23318549  1
  Mn  Mn4  1  0.50714010  0.99559501  0.73622904  1
  Mn  Mn5  1  0.50603784  0.49085620  0.24439476  1
  Mn  Mn6  1  0.49601607  0.50114158  0.74877748  1
  Mn  Mn7  1  0.23973496  0.00334788  0.51150660  1
  Mn  Mn8  1  0.25259996  0.51586876  0.01220752  1
  Mn  Mn9  1  0.23803969  0.49623166  0.51009361  1
  Mn  Mn10  1  0.74225817  0.00132011  0.99708851  1
  Mn  Mn11  1  0.74569451  0.99785684  0.49637371  1
  Mn  Mn12  1  0.75150674  0.50303316  0.00140094  1
  Mn  Mn13  1  0.74430700  0.50301936  0.50134783  1
  Mn  Mn14  1  0.26568880  0.24449338  0.44791877  1
  Mn  Mn15  1  0.26079564  0.75632422  0.97908380  1
  Mn  Mn16  1  0.24899460  0.75188862  0.49822129  1
  Mn  Mn17  1  0.75701520  0.24907586  0.00370829  1
  Mn  Mn18  1  0.75139952  0.25053986  0.50353709  1
  Mn  Mn19  1  0.75395110  0.74615427  0.00048885  1
  Mn  Mn20  1  0.75274354  0.74611417  0.50479690  1
  Mn  Mn21  1  0.99296521  0.25666414  0.76240238  1
  Mn  Mn22  1  0.99829621  0.75096141  0.26260904  1
  Mn  Mn23  1  0.99769966  0.75045892  0.75012471  1
  Mn  Mn24  1  0.51651827  0.25305418  0.25225912  1
  Mn  Mn25  1  0.50941683  0.24751370  0.75139596  1
  Mn  Mn26  1  0.51916555  0.74936362  0.26198025  1
  Mn  Mn27  1  0.50345406  0.74735011  0.74740328  1
  Cr  Cr0  1  0.99539359  0.99710892  0.25409310  1
  Cr  Cr1  1  0.23827039  0.99527296  0.01662304  1
  Cr  Cr2  1  0.26876373  0.23284866  0.94666444  1
  Cr  Cr3  1  0.99222636  0.25304274  0.26702219  1
  O  O0  1  0.09964013  0.77083309  0.60882640  1
  O  O1  1  0.58866301  0.26292450  0.09558484  1
  O  O2  1  0.56965625  0.25099916  0.58695028  1
  O  O3  1  0.59568105  0.75523884  0.10771854  1
  O  O4  1  0.60319836  0.76205507  0.60006448  1
  O  O5  1  0.40089347  0.18753357  0.34215422  1
  O  O6  1  0.39113808  0.18074806  0.85744666  1
  O  O7  1  0.40654723  0.69692353  0.36026802  1
  O  O8  1  0.40809390  0.73103499  0.89556582  1
  O  O9  1  0.92729141  0.23554956  0.41317563  1
  O  O10  1  0.90879217  0.23521781  0.92060353  1
  O  O11  1  0.89392905  0.72906746  0.40773685  1
  O  O12  1  0.89840974  0.73318611  0.90092226  1
  O  O13  1  0.16015416  0.25396833  0.28336108  1
  O  O14  1  0.17288427  0.25071547  0.81083998  1
  O  O15  1  0.16049008  0.74909528  0.33727659  1
  O  O16  1  0.14535020  0.73809505  0.85066766  1
  O  O17  1  0.65980190  0.22344284  0.34422232  1
  O  O18  1  0.65724107  0.22669330  0.85639127  1
  O  O19  1  0.65921542  0.72216117  0.35265637  1
  O  O20  1  0.64928050  0.72802239  0.85422547  1
  O  O21  1  0.35519957  0.76636682  0.64179059  1
  O  O22  1  0.86579295  0.27527020  0.15323815  1
  O  O23  1  0.85542169  0.27761437  0.65276869  1
  O  O24  1  0.86630846  0.77084652  0.14155492  1
  O  O25  1  0.85140682  0.77034928  0.64770005  1
  O  O26  1  0.35412047  0.51075380  0.16649325  1
  O  O27  1  0.35247540  0.48778687  0.64383347  1
  O  O28  1  0.34747999  0.00838948  0.16681047  1
  O  O29  1  0.34652581  0.00192511  0.65862097  1
  O  O30  1  0.85824793  0.48320274  0.14602025  1
  O  O31  1  0.85452121  0.47943639  0.64570378  1
  O  O32  1  0.84536930  0.97937119  0.14263188  1
  O  O33  1  0.84883348  0.97884602  0.64724513  1
  O  O34  1  0.14819284  0.01341832  0.36125221  1
  O  O35  1  0.14947472  0.00864544  0.86262463  1
  O  O36  1  0.14912644  0.51161607  0.35712796  1
  O  O37  1  0.14911668  0.52487630  0.86275629  1
  O  O38  1  0.63242212  0.02257993  0.34226876  1
  O  O39  1  0.63499487  0.03208142  0.85129004  1
  O  O40  1  0.62376454  0.52765388  0.36246943  1
  O  O41  1  0.64211064  0.51627938  0.85676360  1
  O  O42  1  0.39135829  0.50972705  0.90564256  1
  O  O43  1  0.88678458  0.01485507  0.39343745  1
  O  O44  1  0.88703746  0.01453910  0.89577241  1
  O  O45  1  0.89324444  0.52100472  0.38951420  1
  O  O46  1  0.89302409  0.51632727  0.89783906  1
  O  O47  1  0.11096144  0.47690234  0.10723361  1
  O  O48  1  0.09852263  0.47476485  0.61847315  1
  O  O49  1  0.09932691  0.97237912  0.10985838  1
  O  O50  1  0.09563365  0.98069997  0.61877743  1
  O  O51  1  0.60980133  0.48924991  0.10594476  1
  O  O52  1  0.60109182  0.48587697  0.61165576  1
  O  O53  1  0.58633680  0.99206483  0.08054213  1
  O  O54  1  0.59374723  0.99382354  0.58203173  1
  O  O55  1  0.00172840  0.38014632  0.29426757  1
  O  O56  1  0.01550205  0.37826514  0.79981373  1
  O  O57  1  0.00085699  0.87241425  0.29408483  1
  O  O58  1  0.00308795  0.87326359  0.79473129  1
  O  O59  1  0.47310309  0.37455909  0.29346187  1
  O  O60  1  0.49017586  0.37463431  0.77401817  1
  O  O61  1  0.47306308  0.87057409  0.29132723  1
  O  O62  1  0.51534433  0.87127765  0.77369462  1
  O  O63  1  0.48493523  0.62377493  0.71986832  1
  O  O64  1  0.99819874  0.12778279  0.21769057  1
  O  O65  1  0.99919994  0.12989229  0.72452078  1
  O  O66  1  0.00661433  0.62757636  0.21358727  1
  O  O67  1  0.98883867  0.62447606  0.71886188  1
  O  O68  1  0.21858564  0.13728807  0.03036304  1
  O  O69  1  0.22067259  0.13294249  0.52910505  1
  O  O70  1  0.23036054  0.65170405  0.05558892  1
  O  O71  1  0.23263220  0.62345771  0.52592669  1
  O  O72  1  0.75038849  0.12598113  0.04419947  1
  O  O73  1  0.75461455  0.12482050  0.53640175  1
  O  O74  1  0.74698032  0.62442086  0.03833698  1
  O  O75  1  0.74433107  0.62442986  0.54559924  1
  O  O76  1  0.27830384  0.37224942  0.47262714  1
  O  O77  1  0.30244579  0.33193451  0.01625989  1
  O  O78  1  0.27986334  0.88386284  0.47460333  1
  O  O79  1  0.29664615  0.87818808  0.99483097  1
  O  O80  1  0.74240285  0.37743584  0.46146771  1
  O  O81  1  0.74755314  0.37543705  0.96956177  1
  O  O82  1  0.74672921  0.87222571  0.46323889  1
  O  O83  1  0.73989347  0.87433554  0.96561438  1
loop_
_geom_bond_atom_site_label_1
_geom_bond_atom_site_label_2
_geom_bond_distance
_geom_bond_site_symmetry_2
Ca0 O43 2.251423 1_555
Ca0 O65 2.362378 1_555
Ca0 O9 2.373173 1_555
Ca0 O69 2.482327 1_655
Ca0 O50 2.515881 1_645
Ca0 O73 2.697508 1_555
Ca0 O34 2.791255 1_655
Ca0 O33 2.978424 1_545
Ca1 O44 2.259994 1_554
Ca1 O64 2.325022 1_555
Ca1 O10 2.333144 1_554
Ca1 O68 2.457117 1_655
Ca1 O49 2.666677 1_645
Ca1 O72 2.765550 1_555
Ca1 O35 2.835464 1_654
Ca2 O67 2.300341 1_455
Ca2 O11 2.345695 1_455
Ca2 O45 2.410504 1_455
Ca2 O71 2.438640 1_555
Ca2 O0 2.678944 1_555
Ca2 O48 2.751633 1_555
Ca2 O36 2.893868 1_555
Ca2 O75 2.954166 1_455
Ca3 O46 2.333677 1_455
Ca3 O12 2.358154 1_455
Ca3 O66 2.440779 1_556
Ca3 O70 2.468181 1_556
Ca3 O37 2.559829 1_555
Ca3 O47 2.767399 1_556
Ca3 O16 2.770345 1_555
Ca3 O67 3.001293 1_455
Ca3 O74 3.014143 1_456
Ca4 O2 2.293610 1_555
Ca4 O5 2.328893 1_555
Ca4 O73 2.390229 1_555
Ca4 O54 2.396806 1_545
Ca4 O38 2.409100 1_555
Ca4 O17 2.471427 1_555
Ca5 O72 2.316710 1_556
Ca5 O6 2.329615 1_555
Ca5 O39 2.362514 1_555
Ca5 O53 2.381102 1_546
Ca5 O1 2.420930 1_556
Ca5 O18 2.438130 1_555
Ca6 O63 2.345584 1_555
Ca6 O7 2.352799 1_555
Ca6 O75 2.387325 1_555
Ca6 O4 2.395880 1_555
Ca6 O40 2.527226 1_555
Ca6 O52 2.587737 1_555
Ca6 O19 2.696562 1_555
Ca7 O8 2.321582 1_555
Ca7 O42 2.415918 1_555
Ca7 O41 2.425324 1_555
Ca7 O74 2.438413 1_556
Ca7 O20 2.466650 1_555
Ca7 O3 2.610269 1_556
Ca7 O51 2.641212 1_556
Ca7 O63 2.814886 1_555
Ca8 O51 2.303772 1_556
Ca8 O60 2.330036 1_555
Ca8 O1 2.405244 1_556
Ca8 O42 2.466614 1_555
Ca8 O77 2.473819 1_556
Ca8 O81 2.603130 1_555
Ca8 O41 2.842639 1_555
Ca9 O52 2.261622 1_555
Ca9 O2 2.298029 1_555
Ca9 O59 2.403687 1_555
Ca9 O76 2.409712 1_555
Ca9 O27 2.742672 1_555
Ca9 O80 2.781574 1_555
Ca9 O60 2.879339 1_555
Ca10 O62 2.288277 1_555
Ca10 O3 2.290679 1_556
Ca10 O53 2.404110 1_556
Ca10 O79 2.447622 1_555
Ca10 O83 2.458589 1_555
Ca10 O8 2.499420 1_555
Ca11 O4 2.264996 1_555
Ca11 O54 2.344682 1_555
Ca11 O78 2.355527 1_555
Ca11 O61 2.417486 1_555
Ca11 O21 2.617841 1_555
Ca11 O82 2.866795 1_555
Ca12 O56 2.346365 1_654
Ca12 O47 2.374747 1_655
Ca12 O81 2.404442 1_554
Ca12 O46 2.449037 1_554
Ca12 O30 2.472819 1_555
Ca12 O10 2.575902 1_554
Ca12 O22 2.606632 1_555
Ca13 O55 2.346367 1_655
Ca13 O48 2.360472 1_655
Ca13 O80 2.424575 1_555
Ca13 O31 2.443404 1_555
Ca13 O45 2.504819 1_555
Ca13 O9 2.566351 1_555
Ca13 O23 2.645590 1_555
Ca14 O58 2.349958 1_654
Ca14 O49 2.392642 1_655
Ca14 O83 2.396926 1_554
Ca14 O44 2.485779 1_564
Ca14 O24 2.496853 1_555
Ca14 O32 2.518766 1_555
Ca14 O12 2.598597 1_554
Ca15 O0 2.377704 1_655
Ca15 O57 2.403182 1_655
Ca15 O50 2.455354 1_655
Ca15 O82 2.471264 1_555
Ca15 O25 2.549368 1_555
Ca15 O11 2.598258 1_555
Ca15 O33 2.619649 1_555
Ca15 O43 2.685800 1_565
Ca16 O13 2.316259 1_555
Ca16 O36 2.373011 1_555
Ca16 O47 2.424006 1_555
Ca16 O26 2.438664 1_555
Ca16 O76 2.480259 1_555
Ca16 O55 2.601349 1_555
Ca16 O59 2.675387 1_555
Ca16 O77 2.879168 1_555
Ca17 O27 2.301967 1_555
Ca17 O37 2.351421 1_555
Ca17 O48 2.473588 1_555
Ca17 O56 2.478787 1_555
Ca17 O14 2.500090 1_555
Ca17 O42 2.754870 1_555
Ca17 O60 2.826570 1_555
Ca17 O77 2.989098 1_556
Ca18 O78 2.290585 1_555
Ca18 O34 2.355083 1_565
Ca18 O15 2.404218 1_555
Ca18 O28 2.528878 1_565
Ca18 O57 2.538048 1_555
Ca18 O49 2.582145 1_555
Ca18 O61 2.694099 1_555
Ca19 O21 2.456889 1_555
Ca19 O0 2.463863 1_555
Ca19 O50 2.493371 1_555
Ca19 O58 2.509093 1_555
Ca19 O29 2.552837 1_565
Ca19 O16 2.588313 1_555
Ca19 O35 2.660898 1_565
Ca19 O78 2.945990 1_555
Ca19 O79 2.946729 1_555
Ca20 O30 2.295940 1_555
Ca20 O22 2.334699 1_555
Ca20 O80 2.349357 1_555
Ca20 O51 2.736224 1_555
Ca20 O55 2.806912 1_655
Ca20 O17 2.811799 1_555
Ca21 O31 2.319397 1_555
Ca21 O81 2.381375 1_555
Ca21 O23 2.418182 1_555
Ca21 O41 2.563686 1_555
Ca21 O52 2.619346 1_555
Ca21 O60 2.682570 1_555
Ca21 O18 2.808119 1_555
Ca22 O82 2.301525 1_555
Ca22 O32 2.305463 1_555
Ca22 O24 2.313610 1_555
Ca22 O57 2.675895 1_655
Ca22 O19 2.745122 1_555
Ca22 O38 2.933854 1_565
Ca22 O3 2.945880 1_555
Ca23 O25 2.275819 1_555
Ca23 O83 2.378799 1_555
Ca23 O33 2.400224 1_555
Ca23 O62 2.452936 1_555
Ca23 O20 2.624503 1_555
Ca23 O4 2.697853 1_555
Ca24 O13 2.270880 1_555
Ca24 O34 2.272527 1_555
Ca24 O68 2.325376 1_555
Ca24 O28 2.330384 1_555
Ca24 O5 2.420196 1_555
Ca24 O64 2.516264 1_455
Ca25 O35 2.269819 1_555
Ca25 O69 2.279524 1_555
Ca25 O29 2.358019 1_555
Ca25 O14 2.376596 1_555
Ca25 O65 2.456959 1_455
Ca25 O6 2.496603 1_555
Ca25 O50 2.732378 1_545
Ca26 O15 2.262600 1_555
Ca26 O36 2.274495 1_555
Ca26 O70 2.294434 1_555
Ca26 O7 2.375548 1_555
Ca26 O26 2.446830 1_555
Ca26 O66 2.578163 1_555
Ca27 O71 2.373855 1_555
Ca27 O63 2.423967 1_555
Ca27 O16 2.465526 1_555
Ca27 O37 2.487764 1_555
Ca27 O21 2.549724 1_555
Ca27 O27 2.652054 1_555
Ca27 O8 2.741876 1_555
Ca27 O42 2.928958 1_555
Ca27 O67 3.041684 1_455
Ca28 O72 2.335217 1_555
Ca28 O17 2.372569 1_555
Ca28 O38 2.394209 1_555
Ca28 O64 2.423433 1_555
Ca28 O43 2.445057 1_555
Ca28 O32 2.558302 1_545
Ca28 O22 2.853785 1_555
Ca28 O9 2.957271 1_555
Ca29 O73 2.389164 1_555
Ca29 O39 2.395305 1_555
Ca29 O18 2.419637 1_555
Ca29 O65 2.421994 1_555
Ca29 O44 2.546688 1_555
Ca29 O33 2.630002 1_545
Ca29 O23 2.758865 1_555
Ca29 O10 2.857987 1_555
Ca30 O19 2.350800 1_555
Ca30 O74 2.388478 1_555
Ca30 O45 2.455127 1_555
Ca30 O66 2.507543 1_655
Ca30 O40 2.580435 1_555
Ca30 O30 2.606110 1_555
Ca30 O11 2.627344 1_555
Ca30 O24 2.765031 1_555
Ca31 O75 2.334357 1_555
Ca31 O20 2.390842 1_555
Ca31 O67 2.415637 1_555
Ca31 O41 2.457084 1_555
Ca31 O46 2.598361 1_555
Ca31 O12 2.661381 1_555
Ca31 O25 2.708477 1_555
Ca31 O31 2.711359 1_555
Mn0 O58 1.907454 1_655
Mn0 O50 1.917977 1_655
Mn0 O33 1.971956 1_555
Mn0 O44 1.981286 1_565
Mn0 O35 2.052199 1_665
Mn0 O65 2.131600 1_565
Mn1 O55 1.923282 1_555
Mn1 O30 1.950808 1_455
Mn1 O36 1.960075 1_555
Mn1 O45 1.963413 1_455
Mn1 O66 1.996042 1_555
Mn1 O47 2.067318 1_555
Mn2 O48 1.931775 1_655
Mn2 O56 1.951833 1_655
Mn2 O31 1.960118 1_555
Mn2 O67 1.963868 1_555
Mn2 O46 1.987274 1_555
Mn2 O37 2.055029 1_655
Mn3 O28 1.887218 1_565
Mn3 O38 1.904662 1_565
Mn3 O61 1.907996 1_555
Mn3 O53 1.926387 1_555
Mn4 O29 1.936954 1_565
Mn4 O39 1.939396 1_565
Mn4 O62 1.963801 1_555
Mn4 O54 1.965358 1_555
Mn5 O26 1.877472 1_555
Mn5 O40 1.886525 1_555
Mn5 O59 1.907386 1_555
Mn5 O51 1.925584 1_555
Mn6 O63 1.922900 1_555
Mn6 O27 1.932494 1_555
Mn6 O52 1.938518 1_555
Mn6 O60 1.972331 1_555
Mn6 O41 1.976812 1_555
Mn6 O42 2.102352 1_555
Mn7 O34 1.911418 1_555
Mn7 O78 1.946263 1_545
Mn7 O29 1.966188 1_555
Mn7 O69 2.023398 1_555
Mn7 O50 2.026141 1_545
Mn8 O42 1.949934 1_554
Mn8 O37 1.971745 1_554
Mn8 O47 1.984842 1_555
Mn8 O26 2.000203 1_555
Mn8 O70 2.168617 1_555
Mn9 O27 1.907441 1_555
Mn9 O36 1.931185 1_555
Mn9 O71 1.973429 1_555
Mn9 O48 1.990896 1_555
Mn9 O76 2.013989 1_555
Mn10 O32 1.959878 1_546
Mn10 O53 1.967872 1_546
Mn10 O44 1.974339 1_555
Mn10 O83 1.990828 1_545
Mn10 O72 1.994084 1_556
Mn10 O39 2.015809 1_555
Mn11 O54 1.938188 1_555
Mn11 O43 1.958398 1_565
Mn11 O82 1.973967 1_555
Mn11 O33 1.999661 1_555
Mn11 O73 2.010205 1_565
Mn11 O38 2.104516 1_565
Mn12 O74 1.919299 1_555
Mn12 O46 1.959975 1_554
Mn12 O30 1.968788 1_555
Mn12 O51 1.968893 1_555
Mn12 O41 1.972264 1_554
Mn12 O81 2.000883 1_554
Mn13 O75 1.936971 1_555
Mn13 O80 1.987972 1_555
Mn13 O31 1.998525 1_555
Mn13 O40 2.025167 1_555
Mn13 O52 2.026654 1_555
Mn13 O45 2.088474 1_555
Mn14 O76 1.994125 1_555
Mn14 O69 2.001469 1_555
Mn14 O5 2.109590 1_555
Mn14 O13 2.121072 1_555
Mn15 O70 1.850573 1_556
Mn15 O16 1.886029 1_555
Mn15 O8 1.924632 1_555
Mn15 O79 1.925281 1_555
Mn16 O21 1.943238 1_555
Mn16 O15 1.990071 1_555
Mn16 O71 2.012082 1_555
Mn16 O78 2.078881 1_555
Mn16 O0 2.090782 1_555
Mn16 O7 2.487265 1_555
Mn17 O10 1.935709 1_554
Mn17 O72 1.951479 1_555
Mn17 O18 1.954540 1_554
Mn17 O81 1.988299 1_554
Mn17 O22 2.038795 1_555
Mn17 O1 2.142767 1_555
Mn18 O73 1.973369 1_555
Mn18 O23 2.010198 1_555
Mn18 O80 2.013929 1_555
Mn18 O17 2.032552 1_555
Mn18 O9 2.209616 1_555
Mn18 O2 2.218373 1_555
Mn19 O74 1.924748 1_555
Mn19 O12 1.963317 1_554
Mn19 O20 1.964316 1_554
Mn19 O24 1.985060 1_555
Mn19 O83 2.020719 1_554
Mn19 O3 2.131920 1_555
Mn20 O25 1.914156 1_555
Mn20 O11 1.925873 1_555
Mn20 O75 1.931892 1_555
Mn20 O19 1.967187 1_555
Mn20 O4 1.988703 1_555
Mn20 O82 1.999478 1_555
Mn21 O23 1.930470 1_555
Mn21 O56 1.934331 1_655
Mn21 O65 2.003561 1_555
Mn21 O10 2.015664 1_555
Mn21 O14 2.031307 1_655
Mn22 O57 1.906800 1_655
Mn22 O15 1.936785 1_655
Mn22 O24 1.961137 1_555
Mn22 O66 1.983820 1_655
Mn22 O11 2.014947 1_555
Mn23 O16 1.942830 1_655
Mn23 O25 1.957578 1_555
Mn23 O58 1.958725 1_655
Mn23 O0 1.961617 1_655
Mn23 O67 1.976409 1_555
Mn23 O12 2.023719 1_555
Mn24 O17 1.900950 1_555
Mn24 O5 1.910794 1_555
Mn24 O1 1.919049 1_555
Mn24 O59 1.995379 1_555
Mn25 O2 1.940499 1_555
Mn25 O18 1.988986 1_555
Mn25 O60 1.992255 1_555
Mn25 O6 2.039544 1_555
Mn26 O7 1.844361 1_555
Mn26 O19 1.856007 1_555
Mn26 O3 1.913249 1_555
Mn26 O61 1.972170 1_555
Mn27 O62 1.937794 1_555
Mn27 O63 1.939786 1_555
Mn27 O8 1.973693 1_555
Mn27 O20 1.979062 1_555
Mn27 O4 1.990406 1_555
Mn27 O21 1.992057 1_555
Cr0 O57 1.974156 1_655
Cr0 O43 1.987133 1_565
Cr0 O49 2.017071 1_655
Cr0 O34 2.032533 1_665
Cr0 O32 2.037663 1_555
Cr0 O64 2.055403 1_565
Cr1 O49 1.891011 1_555
Cr1 O35 1.936618 1_564
Cr1 O79 1.940480 1_554
Cr1 O28 2.017702 1_565
Cr1 O68 2.210543 1_565
Cr2 O77 1.742719 1_556
Cr2 O14 1.820211 1_555
Cr2 O68 1.825180 1_556
Cr2 O6 1.873121 1_555
Cr3 O9 1.792992 1_555
Cr3 O13 1.845301 1_655
Cr3 O22 1.871685 1_555
Cr3 O55 1.986545 1_655
Cr3 O64 2.011139 1_555
