# generated using pymatgen
data_Ba6Lu2Al4O15
_symmetry_space_group_name_H-M   'P 1'
_cell_length_a   5.90697800
_cell_length_b   7.89467200
_cell_length_c   18.37481977
_cell_angle_alpha   88.40103900
_cell_angle_beta   90.00000000
_cell_angle_gamma   90.00000000
_symmetry_Int_Tables_number   1
_chemical_formula_structural   Ba6Lu2Al4O15
_chemical_formula_sum   'Ba12 Lu4 Al8 O30'
_cell_volume   856.55133111
_cell_formula_units_Z   2
loop_
 _symmetry_equiv_pos_site_id
 _symmetry_equiv_pos_as_xyz
  1  'x, y, z'
loop_
 _atom_site_type_symbol
 _atom_site_label
 _atom_site_symmetry_multiplicity
 _atom_site_fract_x
 _atom_site_fract_y
 _atom_site_fract_z
 _atom_site_occupancy
  Ba  Ba0  1  0.75617600  0.50117000  0.08035600  1
  Ba  Ba1  1  0.24382400  0.49883000  0.91964400  1
  Ba  Ba2  1  0.75617600  0.49883000  0.41964400  1
  Ba  Ba3  1  0.24382400  0.50117000  0.58035600  1
  Ba  Ba4  1  0.74714400  0.97111000  0.08895900  1
  Ba  Ba5  1  0.25285600  0.02889000  0.91104100  1
  Ba  Ba6  1  0.74714400  0.02889000  0.41104100  1
  Ba  Ba7  1  0.25285600  0.97111000  0.58895900  1
  Ba  Ba8  1  0.72090200  0.00000000  0.75000000  1
  Ba  Ba9  1  0.27909800  0.00000000  0.25000000  1
  Ba  Ba10  1  0.67345500  0.50000000  0.75000000  1
  Ba  Ba11  1  0.32654500  0.50000000  0.25000000  1
  Lu  Lu0  1  0.74393700  0.75136300  0.91035900  1
  Lu  Lu1  1  0.25606300  0.24863700  0.08964100  1
  Lu  Lu2  1  0.74393700  0.24863700  0.58964100  1
  Lu  Lu3  1  0.25606300  0.75136300  0.41035900  1
  Al  Al0  1  0.75229700  0.75264300  0.55504800  1
  Al  Al1  1  0.24770300  0.24735700  0.44495200  1
  Al  Al2  1  0.75229700  0.24735700  0.94495200  1
  Al  Al3  1  0.24770300  0.75264300  0.05504800  1
  Al  Al4  1  0.77195400  0.77853000  0.26847700  1
  Al  Al5  1  0.22804600  0.22147000  0.73152300  1
  Al  Al6  1  0.77195400  0.22147000  0.23152300  1
  Al  Al7  1  0.22804600  0.77853000  0.76847700  1
  O  O0  1  0.21026900  0.00000000  0.75000000  1
  O  O1  1  0.78973100  0.00000000  0.25000000  1
  O  O2  1  0.49341600  0.76277800  0.99757400  1
  O  O3  1  0.50658400  0.23722200  0.00242600  1
  O  O4  1  0.49341600  0.23722200  0.50242600  1
  O  O5  1  0.50658400  0.76277800  0.49757400  1
  O  O6  1  0.75730000  0.94795300  0.60372800  1
  O  O7  1  0.24270000  0.05204700  0.39627200  1
  O  O8  1  0.75730000  0.05204700  0.89627200  1
  O  O9  1  0.24270000  0.94795300  0.10372800  1
  O  O10  1  0.00245000  0.76184600  0.99577700  1
  O  O11  1  0.99755000  0.23815400  0.00422300  1
  O  O12  1  0.00245000  0.23815400  0.50422300  1
  O  O13  1  0.99755000  0.76184600  0.49577700  1
  O  O14  1  0.31261100  0.69112500  0.68704600  1
  O  O15  1  0.68738900  0.30887500  0.31295400  1
  O  O16  1  0.31261100  0.30887500  0.81295400  1
  O  O17  1  0.68738900  0.69112500  0.18704600  1
  O  O18  1  0.45365200  0.75296000  0.83380600  1
  O  O19  1  0.54634800  0.24704000  0.16619400  1
  O  O20  1  0.45365200  0.24704000  0.66619400  1
  O  O21  1  0.54634800  0.75296000  0.33380600  1
  O  O22  1  0.96737300  0.73298300  0.81352400  1
  O  O23  1  0.03262700  0.26701700  0.18647600  1
  O  O24  1  0.96737300  0.26701700  0.68647600  1
  O  O25  1  0.03262700  0.73298300  0.31352400  1
  O  O26  1  0.75365800  0.53773800  0.59124100  1
  O  O27  1  0.24634200  0.46226200  0.40875900  1
  O  O28  1  0.75365800  0.46226200  0.90875900  1
  O  O29  1  0.24634200  0.53773800  0.09124100  1
loop_
_geom_bond_atom_site_label_1
_geom_bond_atom_site_label_2
_geom_bond_distance
_geom_bond_site_symmetry_2
Ba0 O17 2.534022 1_555
Ba0 O19 2.805800 1_555
Ba0 O11 2.909215 1_555
Ba0 O29 2.917175 1_655
Ba0 O10 2.930568 1_654
Ba0 O3 2.955134 1_555
Ba0 O2 2.968671 1_554
Ba0 O29 3.032519 1_555
Ba0 O23 3.112061 1_655
Ba0 O28 3.176544 1_554
Ba1 O16 2.534022 1_555
Ba1 O18 2.805800 1_555
Ba1 O10 2.909215 1_555
Ba1 O28 2.917175 1_455
Ba1 O11 2.930568 1_456
Ba1 O2 2.955134 1_555
Ba1 O3 2.968671 1_556
Ba1 O28 3.032519 1_555
Ba1 O22 3.112061 1_455
Ba1 O29 3.176544 1_556
Ba2 O15 2.534022 1_555
Ba2 O21 2.805800 1_555
Ba2 O13 2.909215 1_555
Ba2 O27 2.917175 1_655
Ba2 O12 2.930568 1_655
Ba2 O5 2.955134 1_555
Ba2 O4 2.968671 1_555
Ba2 O27 3.032519 1_555
Ba2 O25 3.112061 1_655
Ba2 O26 3.176544 1_555
Ba3 O14 2.534022 1_555
Ba3 O20 2.805800 1_555
Ba3 O12 2.909215 1_555
Ba3 O26 2.917175 1_455
Ba3 O13 2.930568 1_455
Ba3 O4 2.955134 1_555
Ba3 O5 2.968671 1_555
Ba3 O26 3.032519 1_555
Ba3 O24 3.112061 1_455
Ba3 O27 3.176544 1_555
Ba4 O2 2.815166 1_554
Ba4 O17 2.834869 1_555
Ba4 O10 2.844848 1_654
Ba4 O19 2.887689 1_565
Ba4 O9 2.945000 1_655
Ba4 O3 2.962196 1_565
Ba4 O11 2.978853 1_565
Ba4 O1 2.984834 1_565
Ba4 O9 2.997190 1_555
Ba5 O3 2.815166 1_556
Ba5 O16 2.834869 1_555
Ba5 O11 2.844848 1_456
Ba5 O18 2.887689 1_545
Ba5 O8 2.945000 1_455
Ba5 O2 2.962196 1_545
Ba5 O10 2.978853 1_545
Ba5 O0 2.984834 1_555
Ba5 O8 2.997190 1_555
Ba6 O4 2.815166 1_555
Ba6 O15 2.834869 1_555
Ba6 O12 2.844848 1_655
Ba6 O21 2.887689 1_545
Ba6 O7 2.945000 1_655
Ba6 O5 2.962196 1_545
Ba6 O13 2.978853 1_545
Ba6 O1 2.984834 1_555
Ba6 O7 2.997190 1_555
Ba7 O5 2.815166 1_555
Ba7 O14 2.834869 1_555
Ba7 O13 2.844848 1_455
Ba7 O20 2.887689 1_565
Ba7 O6 2.945000 1_455
Ba7 O4 2.962196 1_565
Ba7 O12 2.978853 1_565
Ba7 O0 2.984834 1_565
Ba7 O6 2.997190 1_555
Ba8 O6 2.738711 1_545
Ba8 O8 2.738711 1_555
Ba8 O22 2.790787 1_545
Ba8 O24 2.790787 1_555
Ba8 O0 2.890680 1_655
Ba8 O18 2.915394 1_545
Ba8 O20 2.915394 1_555
Ba8 O0 3.016298 1_555
Ba9 O9 2.738711 1_545
Ba9 O7 2.738711 1_555
Ba9 O25 2.790787 1_545
Ba9 O23 2.790787 1_555
Ba9 O1 2.890680 1_455
Ba9 O21 2.915394 1_545
Ba9 O19 2.915394 1_555
Ba9 O1 3.016298 1_555
Ba10 O22 2.807073 1_555
Ba10 O24 2.807073 1_555
Ba10 O16 2.839133 1_555
Ba10 O14 2.839133 1_555
Ba10 O20 2.866513 1_555
Ba10 O18 2.866513 1_555
Ba10 O26 2.962191 1_555
Ba10 O28 2.962191 1_555
Ba11 O23 2.807073 1_555
Ba11 O25 2.807073 1_555
Ba11 O17 2.839133 1_555
Ba11 O15 2.839133 1_555
Ba11 O19 2.866513 1_555
Ba11 O21 2.866513 1_555
Ba11 O27 2.962191 1_555
Ba11 O29 2.962191 1_555
Lu0 O2 2.185006 1_555
Lu0 O10 2.193029 1_655
Lu0 O18 2.217667 1_555
Lu0 O22 2.223380 1_555
Lu0 O28 2.284089 1_555
Lu0 O8 2.381990 1_565
Lu1 O3 2.185006 1_555
Lu1 O11 2.193029 1_455
Lu1 O19 2.217667 1_555
Lu1 O23 2.223380 1_555
Lu1 O29 2.284089 1_555
Lu1 O9 2.381990 1_545
Lu2 O4 2.185006 1_555
Lu2 O12 2.193029 1_655
Lu2 O20 2.217667 1_555
Lu2 O24 2.223380 1_555
Lu2 O26 2.284089 1_555
Lu2 O6 2.381990 1_545
Lu3 O5 2.185006 1_555
Lu3 O13 2.193029 1_455
Lu3 O21 2.217667 1_555
Lu3 O25 2.223380 1_555
Lu3 O27 2.284089 1_555
Lu3 O7 2.381990 1_565
Al0 O5 1.795440 1_555
Al0 O6 1.804281 1_555
Al0 O26 1.804949 1_555
Al0 O13 1.812659 1_555
Al1 O4 1.795440 1_555
Al1 O7 1.804281 1_555
Al1 O27 1.804949 1_555
Al1 O12 1.812659 1_555
Al2 O3 1.795440 1_556
Al2 O8 1.804281 1_555
Al2 O28 1.804949 1_555
Al2 O11 1.812659 1_556
Al3 O2 1.795440 1_554
Al3 O9 1.804281 1_555
Al3 O29 1.804949 1_555
Al3 O10 1.812659 1_554
Al4 O17 1.738431 1_555
Al4 O1 1.774876 1_565
Al4 O25 1.780106 1_655
Al4 O21 1.801156 1_555
Al5 O16 1.738431 1_555
Al5 O0 1.774876 1_555
Al5 O24 1.780106 1_455
Al5 O20 1.801156 1_555
Al6 O15 1.738431 1_555
Al6 O1 1.774876 1_555
Al6 O23 1.780106 1_655
Al6 O19 1.801156 1_555
Al7 O14 1.738431 1_555
Al7 O0 1.774876 1_565
Al7 O22 1.780106 1_455
Al7 O18 1.801156 1_555
