# generated using pymatgen
data_K2U(SO6)2
_symmetry_space_group_name_H-M   'P 1'
_cell_length_a   10.50782594
_cell_length_b   10.50782594
_cell_length_c   11.16775400
_cell_angle_alpha   90.00000000
_cell_angle_beta   90.00000000
_cell_angle_gamma   109.46999369
_symmetry_Int_Tables_number   1
_chemical_formula_structural   K2U(SO6)2
_chemical_formula_sum   'K8 U4 S8 O48'
_cell_volume   1162.56864686
_cell_formula_units_Z   4
loop_
 _symmetry_equiv_pos_site_id
 _symmetry_equiv_pos_as_xyz
  1  'x, y, z'
loop_
 _atom_site_type_symbol
 _atom_site_label
 _atom_site_symmetry_multiplicity
 _atom_site_fract_x
 _atom_site_fract_y
 _atom_site_fract_z
 _atom_site_occupancy
  K  K0  1  0.60524600  0.39475400  0.23541600  1
  K  K1  1  0.39475400  0.60524600  0.76458400  1
  K  K2  1  0.89475400  0.10524600  0.73541600  1
  K  K3  1  0.10524600  0.89475400  0.26458400  1
  K  K4  1  0.31037900  0.68962100  0.08174300  1
  K  K5  1  0.68962100  0.31037900  0.91825700  1
  K  K6  1  0.18962100  0.81037900  0.58174300  1
  K  K7  1  0.81037900  0.18962100  0.41825700  1
  U  U0  1  0.19245000  0.30755000  0.25000000  1
  U  U1  1  0.30755000  0.19245000  0.75000000  1
  U  U2  1  0.80755000  0.69245000  0.75000000  1
  U  U3  1  0.69245000  0.80755000  0.25000000  1
  S  S0  1  0.09070600  0.34345600  0.93664100  1
  S  S1  1  0.34345600  0.09070600  0.06335900  1
  S  S2  1  0.84345600  0.59070600  0.43664100  1
  S  S3  1  0.59070600  0.84345600  0.56335900  1
  S  S4  1  0.90929400  0.65654400  0.06335900  1
  S  S5  1  0.65654400  0.90929400  0.93664100  1
  S  S6  1  0.15654400  0.40929400  0.56335900  1
  S  S7  1  0.40929400  0.15654400  0.43664100  1
  O  O0  1  0.07779200  0.29033500  0.06527000  1
  O  O1  1  0.29033500  0.07779200  0.93473000  1
  O  O2  1  0.79033500  0.57779200  0.56527000  1
  O  O3  1  0.57779200  0.79033500  0.43473000  1
  O  O4  1  0.92220800  0.70966500  0.93473000  1
  O  O5  1  0.70966500  0.92220800  0.06527000  1
  O  O6  1  0.20966500  0.42220800  0.43473000  1
  O  O7  1  0.42220800  0.20966500  0.56527000  1
  O  O8  1  0.33060000  0.44001100  0.18076200  1
  O  O9  1  0.44001100  0.33060000  0.81923800  1
  O  O10  1  0.94001100  0.83060000  0.68076200  1
  O  O11  1  0.83060000  0.94001100  0.31923800  1
  O  O12  1  0.66940000  0.55998900  0.81923800  1
  O  O13  1  0.55998900  0.66940000  0.18076200  1
  O  O14  1  0.05998900  0.16940000  0.31923800  1
  O  O15  1  0.16940000  0.05998900  0.68076200  1
  O  O16  1  0.95756600  0.34118300  0.89716100  1
  O  O17  1  0.34118300  0.95756600  0.10283900  1
  O  O18  1  0.84118300  0.45756600  0.39716100  1
  O  O19  1  0.45756600  0.84118300  0.60283900  1
  O  O20  1  0.04243400  0.65881700  0.10283900  1
  O  O21  1  0.65881700  0.04243400  0.89716100  1
  O  O22  1  0.15881700  0.54243400  0.60283900  1
  O  O23  1  0.54243400  0.15881700  0.39716100  1
  O  O24  1  0.19582200  0.47624800  0.92931900  1
  O  O25  1  0.47624800  0.19582200  0.07068100  1
  O  O26  1  0.97624800  0.69582200  0.42931900  1
  O  O27  1  0.69582200  0.97624800  0.57068100  1
  O  O28  1  0.80417800  0.52375200  0.07068100  1
  O  O29  1  0.52375200  0.80417800  0.92931900  1
  O  O30  1  0.02375200  0.30417800  0.57068100  1
  O  O31  1  0.30417800  0.02375200  0.42931900  1
  O  O32  1  0.13053900  0.24086500  0.86456900  1
  O  O33  1  0.24086500  0.13053900  0.13543100  1
  O  O34  1  0.74086500  0.63053900  0.36456900  1
  O  O35  1  0.63053900  0.74086500  0.63543100  1
  O  O36  1  0.86946100  0.75913500  0.13543100  1
  O  O37  1  0.75913500  0.86946100  0.86456900  1
  O  O38  1  0.25913500  0.36946100  0.63543100  1
  O  O39  1  0.36946100  0.25913500  0.36456900  1
  O  O40  1  0.06246800  0.43753200  0.25000000  1
  O  O41  1  0.43753200  0.06246800  0.75000000  1
  O  O42  1  0.93753200  0.56246800  0.75000000  1
  O  O43  1  0.56246800  0.93753200  0.25000000  1
  O  O44  1  0.77991700  0.22008300  0.15754400  1
  O  O45  1  0.22008300  0.77991700  0.84245600  1
  O  O46  1  0.72008300  0.27991700  0.65754400  1
  O  O47  1  0.27991700  0.72008300  0.34245600  1
loop_
_geom_bond_atom_site_label_1
_geom_bond_atom_site_label_2
_geom_bond_distance
_geom_bond_site_symmetry_2
K0 O28 2.775357 1_555
K0 O25 2.775357 1_555
K0 O34 2.809972 1_555
K0 O39 2.809972 1_555
K0 O18 2.958716 1_555
K0 O23 2.958716 1_555
K0 O44 3.120812 1_555
K0 O8 3.137226 1_555
K0 O13 3.137226 1_555
K1 O24 2.775357 1_555
K1 O29 2.775357 1_555
K1 O38 2.809972 1_555
K1 O35 2.809972 1_555
K1 O19 2.958716 1_555
K1 O22 2.958716 1_555
K1 O45 3.120812 1_555
K1 O9 3.137226 1_555
K1 O12 3.137226 1_555
K2 O27 2.775357 1_545
K2 O30 2.775357 1_655
K2 O37 2.809972 1_545
K2 O32 2.809972 1_655
K2 O21 2.958716 1_555
K2 O16 2.958716 1_555
K2 O46 3.120812 1_555
K2 O10 3.137226 1_545
K2 O15 3.137226 1_655
K3 O26 2.775357 1_455
K3 O31 2.775357 1_565
K3 O36 2.809972 1_455
K3 O33 2.809972 1_565
K3 O20 2.958716 1_555
K3 O17 2.958716 1_555
K3 O47 3.120812 1_555
K3 O11 3.137226 1_455
K3 O14 3.137226 1_565
K4 O20 2.734941 1_555
K4 O17 2.734941 1_555
K4 O24 2.752162 1_554
K4 O29 2.752162 1_554
K4 O8 2.918713 1_555
K4 O13 2.918713 1_555
K4 O47 2.958125 1_555
K4 O45 3.088982 1_554
K5 O21 2.734941 1_555
K5 O16 2.734941 1_555
K5 O25 2.752162 1_556
K5 O28 2.752162 1_556
K5 O9 2.918713 1_555
K5 O12 2.918713 1_555
K5 O46 2.958125 1_555
K5 O44 3.088982 1_556
K6 O22 2.734941 1_555
K6 O19 2.734941 1_555
K6 O26 2.752162 1_455
K6 O31 2.752162 1_565
K6 O15 2.918713 1_565
K6 O10 2.918713 1_455
K6 O45 2.958125 1_555
K6 O47 3.088982 1_555
K7 O23 2.734941 1_555
K7 O18 2.734941 1_555
K7 O27 2.752162 1_545
K7 O30 2.752162 1_655
K7 O14 2.918713 1_655
K7 O11 2.918713 1_545
K7 O44 2.958125 1_555
K7 O46 3.088982 1_555
O0 S0 1.530691 1_554
O0 U0 2.365385 1_555
O1 S1 1.530691 1_556
O1 U1 2.365385 1_555
O2 S2 1.530691 1_555
O2 U2 2.365385 1_555
O3 S3 1.530691 1_555
O3 U3 2.365385 1_555
O4 S4 1.530691 1_556
O4 U2 2.365385 1_555
O5 S5 1.530691 1_554
O5 U3 2.365385 1_555
O6 S6 1.530691 1_555
O6 U0 2.365385 1_555
O7 S7 1.530691 1_555
O7 U1 2.365385 1_555
O8 U0 1.815373 1_555
O9 U1 1.815373 1_555
O10 U2 1.815373 1_555
O11 U3 1.815373 1_555
O12 U2 1.815373 1_555
O13 U3 1.815373 1_555
O14 U0 1.815373 1_555
O15 U1 1.815373 1_555
O16 S0 1.459426 1_655
O17 S1 1.459426 1_565
O18 S2 1.459426 1_555
O19 S3 1.459426 1_555
O20 S4 1.459426 1_455
O21 S5 1.459426 1_545
O22 S6 1.459426 1_555
O23 S7 1.459426 1_555
O24 S0 1.465022 1_555
O25 S1 1.465022 1_555
O26 S2 1.465022 1_555
O27 S3 1.465022 1_555
O28 S4 1.465022 1_555
O29 S5 1.465022 1_555
O30 S6 1.465022 1_555
O31 S7 1.465022 1_555
O32 S0 1.511925 1_555
O32 U1 2.446687 1_555
O33 S1 1.511925 1_555
O33 U0 2.446687 1_555
O34 S2 1.511925 1_555
O34 U3 2.446687 1_555
O35 S3 1.511925 1_555
O35 U2 2.446687 1_555
O36 S4 1.511925 1_555
O36 U3 2.446687 1_555
O37 S5 1.511925 1_555
O37 U2 2.446687 1_555
O38 S6 1.511925 1_555
O38 U1 2.446687 1_555
O39 S7 1.511925 1_555
O39 U0 2.446687 1_555
O40 U0 2.230371 1_555
O41 U1 2.230371 1_555
O42 U2 2.230371 1_555
O43 U3 2.230371 1_555
