# generated using pymatgen
data_CuAsH3O5
_symmetry_space_group_name_H-M   'P 1'
_cell_length_a   6.51406200
_cell_length_b   8.20453862
_cell_length_c   15.93274859
_cell_angle_alpha   86.07527694
_cell_angle_beta   84.85895385
_cell_angle_gamma   84.99088440
_symmetry_Int_Tables_number   1
_chemical_formula_structural   CuAsH3O5
_chemical_formula_sum   'Cu8 As8 H24 O40'
_cell_volume   843.28062575
_cell_formula_units_Z   8
loop_
 _symmetry_equiv_pos_site_id
 _symmetry_equiv_pos_as_xyz
  1  'x, y, z'
loop_
 _atom_site_type_symbol
 _atom_site_label
 _atom_site_symmetry_multiplicity
 _atom_site_fract_x
 _atom_site_fract_y
 _atom_site_fract_z
 _atom_site_occupancy
  Cu  Cu0  1  0.63425700  0.63738800  0.95904200  1
  Cu  Cu1  1  0.36574300  0.36261200  0.04095800  1
  Cu  Cu2  1  0.11196300  0.14349600  0.55007700  1
  Cu  Cu3  1  0.88803700  0.85650400  0.44992300  1
  Cu  Cu4  1  0.61793900  0.59033700  0.55978300  1
  Cu  Cu5  1  0.38206100  0.40966300  0.44021700  1
  Cu  Cu6  1  0.14242500  0.08584800  0.93315600  1
  Cu  Cu7  1  0.85757500  0.91415200  0.06684400  1
  As  As0  1  0.09104600  0.55568600  0.60126300  1
  As  As1  1  0.90895400  0.44431400  0.39873700  1
  As  As2  1  0.13432000  0.63522200  0.91076400  1
  As  As3  1  0.86568000  0.36477800  0.08923600  1
  As  As4  1  0.60884100  0.14362400  0.59388400  1
  As  As5  1  0.39115900  0.85637600  0.40611600  1
  As  As6  1  0.64163200  0.02719700  0.89699700  1
  As  As7  1  0.35836800  0.97280300  0.10300300  1
  H  H0  1  0.11201500  0.62446400  0.73942000  1
  H  H1  1  0.88798500  0.37553600  0.26058000  1
  H  H2  1  0.36202300  0.82459900  0.86222900  1
  H  H3  1  0.63797700  0.17540100  0.13777100  1
  H  H4  1  0.80199500  0.33990600  0.64309800  1
  H  H5  1  0.19800500  0.66009400  0.35690200  1
  H  H6  1  0.64843900  0.07508300  0.75143700  1
  H  H7  1  0.35156100  0.92491700  0.24856300  1
  H  H8  1  0.65325600  0.38917700  0.79970900  1
  H  H9  1  0.34674400  0.61082300  0.20029100  1
  H  H10  1  0.83035900  0.50015100  0.81401200  1
  H  H11  1  0.16964100  0.49984900  0.18598800  1
  H  H12  1  0.09620900  0.89869300  0.66562300  1
  H  H13  1  0.90379100  0.10130700  0.33437700  1
  H  H14  1  0.26975900  0.01363000  0.67976200  1
  H  H15  1  0.73024100  0.98637000  0.32023800  1
  H  H16  1  0.61494200  0.62325600  0.72084500  1
  H  H17  1  0.38505800  0.37674400  0.27915500  1
  H  H18  1  0.57421300  0.80592100  0.67249900  1
  H  H19  1  0.42578700  0.19407900  0.32750100  1
  H  H20  1  0.03216800  0.17063900  0.78666200  1
  H  H21  1  0.96783200  0.82936100  0.21333800  1
  H  H22  1  0.13237900  0.32074900  0.82311900  1
  H  H23  1  0.86762100  0.67925100  0.17688100  1
  O  O0  1  0.02667800  0.37079300  0.64410100  1
  O  O1  1  0.97332200  0.62920700  0.35589900  1
  O  O2  1  0.90410500  0.65695700  0.54075300  1
  O  O3  1  0.09589500  0.34304300  0.45924700  1
  O  O4  1  0.32575100  0.55168200  0.54075000  1
  O  O5  1  0.67424900  0.44831800  0.45925000  1
  O  O6  1  0.09238800  0.51957500  0.82990700  1
  O  O7  1  0.90761200  0.48042500  0.17009300  1
  O  O8  1  0.91825000  0.67618400  0.97827900  1
  O  O9  1  0.08175000  0.32381600  0.02172100  1
  O  O10  1  0.34446000  0.56781300  0.96784800  1
  O  O11  1  0.65554000  0.43218700  0.03215200  1
  O  O12  1  0.40757900  0.17967500  0.53074400  1
  O  O13  1  0.59242100  0.82032500  0.46925600  1
  O  O14  1  0.83380500  0.08294400  0.53532700  1
  O  O15  1  0.16619500  0.91705600  0.46467300  1
  O  O16  1  0.54655000  0.01121400  0.67898600  1
  O  O17  1  0.45345000  0.98878600  0.32101400  1
  O  O18  1  0.59770300  0.82923700  0.87713800  1
  O  O19  1  0.40229700  0.17076300  0.12286200  1
  O  O20  1  0.42746300  0.13935100  0.93976700  1
  O  O21  1  0.57253700  0.86064900  0.06023300  1
  O  O22  1  0.84407900  0.04896600  0.95766300  1
  O  O23  1  0.15592100  0.95103400  0.04233700  1
  O  O24  1  0.09701800  0.68877800  0.68291300  1
  O  O25  1  0.90298200  0.31122200  0.31708700  1
  O  O26  1  0.20493100  0.82440700  0.86197100  1
  O  O27  1  0.79506900  0.17559300  0.13802900  1
  O  O28  1  0.64519800  0.32924700  0.63906400  1
  O  O29  1  0.35480200  0.67075300  0.36093600  1
  O  O30  1  0.72050700  0.12368200  0.79936000  1
  O  O31  1  0.27949300  0.87631800  0.20064000  1
  O  O32  1  0.67984400  0.50275300  0.80737000  1
  O  O33  1  0.32015600  0.49724700  0.19263000  1
  O  O34  1  0.12518800  0.01603100  0.66333900  1
  O  O35  1  0.87481200  0.98396900  0.33666100  1
  O  O36  1  0.55908500  0.68566300  0.67016200  1
  O  O37  1  0.44091500  0.31433700  0.32983800  1
  O  O38  1  0.14282300  0.19780300  0.82016200  1
  O  O39  1  0.85717700  0.80219700  0.17983800  1
loop_
_geom_bond_atom_site_label_1
_geom_bond_atom_site_label_2
_geom_bond_distance
_geom_bond_site_symmetry_2
Cu0 O8 1.958409 1_555
Cu0 O11 1.982484 1_556
Cu0 O18 1.986515 1_555
Cu0 O10 2.009702 1_555
Cu0 O21 2.505158 1_556
Cu1 O9 1.958409 1_555
Cu1 O10 1.982484 1_554
Cu1 O19 1.986515 1_555
Cu1 O11 2.009702 1_555
Cu1 O20 2.505158 1_554
Cu2 O14 1.958227 1_455
Cu2 O12 1.967780 1_555
Cu2 O34 2.027653 1_555
Cu2 O3 2.111526 1_555
Cu2 O15 2.360765 1_545
Cu2 O0 2.466356 1_555
Cu3 O15 1.958227 1_655
Cu3 O13 1.967780 1_555
Cu3 O35 2.027653 1_555
Cu3 O2 2.111526 1_555
Cu3 O14 2.360765 1_565
Cu3 O1 2.466356 1_555
Cu4 O36 1.966362 1_555
Cu4 O2 1.979777 1_555
Cu4 O4 2.009285 1_555
Cu4 O5 2.033090 1_555
Cu4 O13 2.298734 1_555
Cu4 O28 2.412296 1_555
Cu5 O37 1.966362 1_555
Cu5 O3 1.979777 1_555
Cu5 O5 2.009285 1_555
Cu5 O4 2.033090 1_555
Cu5 O12 2.298734 1_555
Cu5 O29 2.412296 1_555
Cu6 O20 1.958325 1_555
Cu6 O38 1.964186 1_555
Cu6 O22 1.992870 1_455
Cu6 O23 2.001059 1_546
Cu6 O9 2.470170 1_556
Cu6 O26 2.480105 1_545
Cu7 O21 1.958325 1_555
Cu7 O39 1.964186 1_555
Cu7 O23 1.992870 1_655
Cu7 O22 2.001059 1_564
Cu7 O8 2.470170 1_554
Cu7 O27 2.480105 1_565
As0 O0 1.691413 1_555
As0 O4 1.731911 1_555
As0 O2 1.739769 1_455
As0 O24 1.759886 1_555
As1 O1 1.691413 1_555
As1 O5 1.731911 1_555
As1 O3 1.739769 1_655
As1 O25 1.759886 1_555
As2 O6 1.705928 1_555
As2 O8 1.716583 1_455
As2 O10 1.740381 1_555
As2 O26 1.766518 1_555
As3 O7 1.705928 1_555
As3 O9 1.716583 1_655
As3 O11 1.740381 1_555
As3 O27 1.766518 1_555
As4 O12 1.716460 1_555
As4 O14 1.719574 1_555
As4 O16 1.720481 1_555
As4 O28 1.771229 1_555
As5 O13 1.716460 1_555
As5 O15 1.719574 1_555
As5 O17 1.720481 1_555
As5 O29 1.771229 1_555
As6 O20 1.717176 1_555
As6 O18 1.728487 1_545
As6 O22 1.731612 1_555
As6 O30 1.752090 1_555
As7 O21 1.717176 1_555
As7 O19 1.728487 1_565
As7 O23 1.731612 1_555
As7 O31 1.752090 1_555
H0 O24 1.019934 1_555
H0 O6 1.628428 1_555
H1 O25 1.019934 1_555
H1 O7 1.628428 1_555
H2 O26 1.023823 1_555
H2 O18 1.578485 1_555
H3 O27 1.023823 1_555
H3 O19 1.578485 1_555
H4 O28 1.040740 1_555
H4 O0 1.508679 1_655
H5 O29 1.040740 1_555
H5 O1 1.508679 1_455
H6 O30 1.049277 1_555
H6 O16 1.525929 1_555
H7 O31 1.049277 1_555
H7 O17 1.525929 1_555
H8 O32 0.980184 1_555
H9 O33 0.980184 1_555
H10 O32 0.993778 1_555
H11 O33 0.993778 1_555
H12 O34 0.994719 1_565
H13 O35 0.994719 1_545
H14 O34 0.997976 1_555
H15 O35 0.997976 1_555
H16 O36 1.005071 1_555
H17 O37 1.005071 1_555
H18 O36 1.003625 1_555
H18 O16 1.687491 1_565
H19 O37 1.003625 1_555
H19 O17 1.687491 1_545
H20 O38 0.983573 1_555
H21 O39 0.983573 1_555
H22 O38 1.009109 1_555
H22 O6 1.638753 1_555
H23 O39 1.009109 1_555
H23 O7 1.638753 1_555
