# generated using pymatgen
data_Ba2AlMo3O8
_symmetry_space_group_name_H-M   'P 1'
_cell_length_a   4.20032415
_cell_length_b   4.20032415
_cell_length_c   11.70583600
_cell_angle_alpha   90.00000000
_cell_angle_beta   90.00000000
_cell_angle_gamma   91.05633245
_symmetry_Int_Tables_number   1
_chemical_formula_structural   Ba2AlMo3O8
_chemical_formula_sum   'Ba2 Al1 Mo3 O8'
_cell_volume   206.48772396
_cell_formula_units_Z   1
loop_
 _symmetry_equiv_pos_site_id
 _symmetry_equiv_pos_as_xyz
  1  'x, y, z'
loop_
 _atom_site_type_symbol
 _atom_site_label
 _atom_site_symmetry_multiplicity
 _atom_site_fract_x
 _atom_site_fract_y
 _atom_site_fract_z
 _atom_site_occupancy
  Ba  Ba0  1  0.50615800  0.49384200  0.17762000  1
  Ba  Ba1  1  0.50615800  0.49384200  0.82238000  1
  Al  Al0  1  0.64450800  0.35549200  0.50000000  1
  Mo  Mo0  1  0.99770700  0.00229300  0.36274800  1
  Mo  Mo1  1  0.00227700  0.99772300  0.00000000  1
  Mo  Mo2  1  0.99770700  0.00229300  0.63725200  1
  O  O0  1  0.91353500  0.51156300  0.38399000  1
  O  O1  1  0.48843700  0.08646500  0.38399000  1
  O  O2  1  0.50284500  0.00272600  0.00000000  1
  O  O3  1  0.00422800  0.99577200  0.18080900  1
  O  O4  1  0.91353500  0.51156300  0.61601000  1
  O  O5  1  0.48843700  0.08646500  0.61601000  1
  O  O6  1  0.00422800  0.99577200  0.81919100  1
  O  O7  1  0.99727400  0.49715500  0.00000000  1
loop_
_geom_bond_atom_site_label_1
_geom_bond_atom_site_label_2
_geom_bond_distance
_geom_bond_site_symmetry_2
Ba0 O2 2.928738 1_555
Ba0 O7 2.928738 1_555
Ba0 O3 2.942833 1_545
Ba0 O3 2.942833 1_655
Ba0 O1 2.960495 1_555
Ba0 O0 2.960495 1_555
Ba0 O7 2.982136 1_455
Ba0 O2 2.982136 1_565
Ba0 O3 2.985994 1_645
Ba0 O3 3.009131 1_555
Ba1 O2 2.928738 1_556
Ba1 O7 2.928738 1_556
Ba1 O6 2.942833 1_545
Ba1 O6 2.942833 1_655
Ba1 O4 2.960495 1_555
Ba1 O5 2.960495 1_555
Ba1 O7 2.982136 1_456
Ba1 O2 2.982136 1_566
Ba1 O6 2.985994 1_645
Ba1 O6 3.009131 1_555
Al0 O5 1.877094 1_555
Al0 O4 1.877094 1_555
Al0 O1 1.877094 1_555
Al0 O0 1.877094 1_555
Mo0 O0 2.099668 1_545
Mo0 O1 2.099668 1_655
Mo0 O3 2.130107 1_645
Mo0 O1 2.188711 1_555
Mo0 O0 2.188711 1_555
Mo1 O7 2.098269 1_465
Mo1 O2 2.098269 1_465
Mo1 O2 2.102265 1_565
Mo1 O7 2.102265 1_455
Mo1 O3 2.116553 1_555
Mo1 O6 2.116553 1_554
Mo2 O5 2.099668 1_655
Mo2 O4 2.099668 1_545
Mo2 O6 2.130107 1_645
Mo2 O4 2.188711 1_555
Mo2 O5 2.188711 1_555
