# generated using pymatgen
data_CaHgH16(BrO2)4
_symmetry_space_group_name_H-M   'P 1'
_cell_length_a   11.13995947
_cell_length_b   11.13995947
_cell_length_c   13.99293000
_cell_angle_alpha   90.00000000
_cell_angle_beta   90.00000000
_cell_angle_gamma   110.55667608
_symmetry_Int_Tables_number   1
_chemical_formula_structural   CaHgH16(BrO2)4
_chemical_formula_sum   'Ca4 Hg4 H64 Br16 O32'
_cell_volume   1625.93300484
_cell_formula_units_Z   4
loop_
 _symmetry_equiv_pos_site_id
 _symmetry_equiv_pos_as_xyz
  1  'x, y, z'
loop_
 _atom_site_type_symbol
 _atom_site_label
 _atom_site_symmetry_multiplicity
 _atom_site_fract_x
 _atom_site_fract_y
 _atom_site_fract_z
 _atom_site_occupancy
  Ca  Ca0  1  0.75249400  0.24750600  0.50000000  1
  Ca  Ca1  1  0.25249400  0.74750600  0.00000000  1
  Ca  Ca2  1  0.24750600  0.75249400  0.50000000  1
  Ca  Ca3  1  0.74750600  0.25249400  0.00000000  1
  Hg  Hg0  1  0.75726100  0.75726100  0.19603200  1
  Hg  Hg1  1  0.24273900  0.24273900  0.80396800  1
  Hg  Hg2  1  0.74273900  0.74273900  0.69603200  1
  Hg  Hg3  1  0.25726100  0.25726100  0.30396800  1
  H  H0  1  0.57334400  0.94678500  0.52670500  1
  H  H1  1  0.05321500  0.42665600  0.47329500  1
  H  H2  1  0.55321500  0.92665600  0.02670500  1
  H  H3  1  0.07334400  0.44678500  0.97329500  1
  H  H4  1  0.42665600  0.05321500  0.47329500  1
  H  H5  1  0.94678500  0.57334400  0.52670500  1
  H  H6  1  0.44678500  0.07334400  0.97329500  1
  H  H7  1  0.92665600  0.55321500  0.02670500  1
  H  H8  1  0.64186600  0.00978100  0.61887600  1
  H  H9  1  0.99021900  0.35813400  0.38112400  1
  H  H10  1  0.49021900  0.85813400  0.11887600  1
  H  H11  1  0.14186600  0.50978100  0.88112400  1
  H  H12  1  0.35813400  0.99021900  0.38112400  1
  H  H13  1  0.00978100  0.64186600  0.61887600  1
  H  H14  1  0.50978100  0.14186600  0.88112400  1
  H  H15  1  0.85813400  0.49021900  0.11887600  1
  H  H16  1  0.47315900  0.23441300  0.56046200  1
  H  H17  1  0.76558700  0.52684100  0.43953800  1
  H  H18  1  0.26558700  0.02684100  0.06046200  1
  H  H19  1  0.97315900  0.73441300  0.93953800  1
  H  H20  1  0.52684100  0.76558700  0.43953800  1
  H  H21  1  0.23441300  0.47315900  0.56046200  1
  H  H22  1  0.73441300  0.97315900  0.93953800  1
  H  H23  1  0.02684100  0.26558700  0.06046200  1
  H  H24  1  0.50066500  0.29822100  0.45878200  1
  H  H25  1  0.70177900  0.49933500  0.54121800  1
  H  H26  1  0.20177900  0.99933500  0.95878200  1
  H  H27  1  0.00066500  0.79822100  0.04121800  1
  H  H28  1  0.49933500  0.70177900  0.54121800  1
  H  H29  1  0.29822100  0.50066500  0.45878200  1
  H  H30  1  0.79822100  0.00066500  0.04121800  1
  H  H31  1  0.99933500  0.20177900  0.95878200  1
  H  H32  1  0.75884400  0.38858500  0.70121700  1
  H  H33  1  0.61141500  0.24115600  0.29878300  1
  H  H34  1  0.11141500  0.74115600  0.20121700  1
  H  H35  1  0.25884400  0.88858500  0.79878300  1
  H  H36  1  0.24115600  0.61141500  0.29878300  1
  H  H37  1  0.38858500  0.75884400  0.70121700  1
  H  H38  1  0.88858500  0.25884400  0.79878300  1
  H  H39  1  0.74115600  0.11141500  0.20121700  1
  H  H40  1  0.62973000  0.27691300  0.69728200  1
  H  H41  1  0.72308700  0.37027000  0.30271800  1
  H  H42  1  0.22308700  0.87027000  0.19728200  1
  H  H43  1  0.12973000  0.77691300  0.80271800  1
  H  H44  1  0.37027000  0.72308700  0.30271800  1
  H  H45  1  0.27691300  0.62973000  0.69728200  1
  H  H46  1  0.77691300  0.12973000  0.80271800  1
  H  H47  1  0.87027000  0.22308700  0.19728200  1
  H  H48  1  0.78846600  0.03222000  0.37161100  1
  H  H49  1  0.96778000  0.21153400  0.62838900  1
  H  H50  1  0.46778000  0.71153400  0.87161100  1
  H  H51  1  0.28846600  0.53222000  0.12838900  1
  H  H52  1  0.21153400  0.96778000  0.62838900  1
  H  H53  1  0.03222000  0.78846600  0.37161100  1
  H  H54  1  0.53222000  0.28846600  0.12838900  1
  H  H55  1  0.71153400  0.46778000  0.87161100  1
  H  H56  1  0.92453400  0.11968000  0.40792900  1
  H  H57  1  0.88032000  0.07546600  0.59207100  1
  H  H58  1  0.38032000  0.57546600  0.90792900  1
  H  H59  1  0.42453400  0.61968000  0.09207100  1
  H  H60  1  0.07546600  0.88032000  0.59207100  1
  H  H61  1  0.11968000  0.92453400  0.40792900  1
  H  H62  1  0.61968000  0.42453400  0.09207100  1
  H  H63  1  0.57546600  0.38032000  0.90792900  1
  Br  Br0  1  0.86828700  0.60366200  0.27904500  1
  Br  Br1  1  0.39633800  0.13171300  0.72095500  1
  Br  Br2  1  0.89633800  0.63171300  0.77904500  1
  Br  Br3  1  0.36828700  0.10366200  0.22095500  1
  Br  Br4  1  0.13171300  0.39633800  0.72095500  1
  Br  Br5  1  0.60366200  0.86828700  0.27904500  1
  Br  Br6  1  0.10366200  0.36828700  0.22095500  1
  Br  Br7  1  0.63171300  0.89633800  0.77904500  1
  Br  Br8  1  0.96261000  0.96261000  0.15287300  1
  Br  Br9  1  0.03739000  0.03739000  0.84712700  1
  Br  Br10  1  0.53739000  0.53739000  0.65287300  1
  Br  Br11  1  0.46261000  0.46261000  0.34712700  1
  Br  Br12  1  0.63685700  0.63685700  0.04210000  1
  Br  Br13  1  0.36314300  0.36314300  0.95790000  1
  Br  Br14  1  0.86314300  0.86314300  0.54210000  1
  Br  Br15  1  0.13685700  0.13685700  0.45790000  1
  O  O0  1  0.62130600  0.03120200  0.55470300  1
  O  O1  1  0.96879800  0.37869400  0.44529700  1
  O  O2  1  0.46879800  0.87869400  0.05470300  1
  O  O3  1  0.12130600  0.53120200  0.94529700  1
  O  O4  1  0.37869400  0.96879800  0.44529700  1
  O  O5  1  0.03120200  0.62130600  0.55470300  1
  O  O6  1  0.53120200  0.12130600  0.94529700  1
  O  O7  1  0.87869400  0.46879800  0.05470300  1
  O  O8  1  0.51394100  0.23065000  0.49886000  1
  O  O9  1  0.76935000  0.48605900  0.50114000  1
  O  O10  1  0.26935000  0.98605900  0.99886000  1
  O  O11  1  0.01394100  0.73065000  0.00114000  1
  O  O12  1  0.48605900  0.76935000  0.50114000  1
  O  O13  1  0.23065000  0.51394100  0.49886000  1
  O  O14  1  0.73065000  0.01394100  0.00114000  1
  O  O15  1  0.98605900  0.26935000  0.99886000  1
  O  O16  1  0.81543200  0.21018300  0.83829800  1
  O  O17  1  0.78981700  0.18456800  0.16170200  1
  O  O18  1  0.28981700  0.68456800  0.33829800  1
  O  O19  1  0.31543200  0.71018300  0.66170200  1
  O  O20  1  0.18456800  0.78981700  0.16170200  1
  O  O21  1  0.21018300  0.81543200  0.83829800  1
  O  O22  1  0.71018300  0.31543200  0.66170200  1
  O  O23  1  0.68456800  0.28981700  0.33829800  1
  O  O24  1  0.83949200  0.12061500  0.38892700  1
  O  O25  1  0.87938500  0.16050800  0.61107300  1
  O  O26  1  0.37938500  0.66050800  0.88892700  1
  O  O27  1  0.33949200  0.62061500  0.11107300  1
  O  O28  1  0.16050800  0.87938500  0.61107300  1
  O  O29  1  0.12061500  0.83949200  0.38892700  1
  O  O30  1  0.62061500  0.33949200  0.11107300  1
  O  O31  1  0.66050800  0.37938500  0.88892700  1
loop_
_geom_bond_atom_site_label_1
_geom_bond_atom_site_label_2
_geom_bond_distance
_geom_bond_site_symmetry_2
Ca0 O0 2.460677 1_555
Ca0 O1 2.460677 1_555
Ca0 O23 2.482934 1_555
Ca0 O22 2.482934 1_555
Ca0 O25 2.512995 1_555
Ca0 O24 2.512995 1_555
Ca0 O9 2.597543 1_555
Ca0 O8 2.597543 1_555
Ca1 O3 2.460677 1_554
Ca1 O2 2.460677 1_555
Ca1 O20 2.482934 1_555
Ca1 O21 2.482934 1_554
Ca1 O26 2.512995 1_554
Ca1 O27 2.512995 1_555
Ca1 O11 2.597543 1_555
Ca1 O10 2.597543 1_554
Ca2 O5 2.460677 1_555
Ca2 O4 2.460677 1_555
Ca2 O18 2.482934 1_555
Ca2 O19 2.482934 1_555
Ca2 O28 2.512995 1_555
Ca2 O29 2.512995 1_555
Ca2 O12 2.597543 1_555
Ca2 O13 2.597543 1_555
Ca3 O6 2.460677 1_554
Ca3 O7 2.460677 1_555
Ca3 O17 2.482934 1_555
Ca3 O16 2.482934 1_554
Ca3 O31 2.512995 1_554
Ca3 O30 2.512995 1_555
Ca3 O14 2.597543 1_555
Ca3 O15 2.597543 1_554
H0 O0 0.985118 1_565
H1 O1 0.985118 1_455
H2 O2 0.985118 1_555
H3 O3 0.985118 1_555
H4 O4 0.985118 1_545
H5 O5 0.985118 1_655
H6 O6 0.985118 1_555
H7 O7 0.985118 1_555
H8 O0 0.976797 1_555
H9 O1 0.976797 1_555
H10 O2 0.976797 1_555
H11 O3 0.976797 1_555
H12 O4 0.976797 1_555
H13 O5 0.976797 1_555
H14 O6 0.976797 1_555
H15 O7 0.976797 1_555
H16 O8 0.982120 1_555
H17 O9 0.982120 1_555
H18 O10 0.982120 1_544
H19 O11 0.982120 1_656
H20 O12 0.982120 1_555
H21 O13 0.982120 1_555
H22 O14 0.982120 1_566
H23 O15 0.982120 1_454
H24 O8 0.990542 1_555
H25 O9 0.990542 1_555
H26 O10 0.990542 1_555
H27 O11 0.990542 1_555
H28 O12 0.990542 1_555
H29 O13 0.990542 1_555
H30 O14 0.990542 1_555
H31 O15 0.990542 1_555
H32 O22 0.976449 1_555
H33 O23 0.976449 1_555
H34 O20 0.976449 1_555
H35 O21 0.976449 1_555
H36 O18 0.976449 1_555
H37 O19 0.976449 1_555
H38 O16 0.976449 1_555
H39 O17 0.976449 1_555
H40 O22 0.982433 1_555
H41 O23 0.982433 1_555
H42 O20 0.982433 1_555
H43 O21 0.982433 1_555
H44 O18 0.982433 1_555
H45 O19 0.982433 1_555
H46 O16 0.982433 1_555
H47 O17 0.982433 1_555
H48 O24 0.978979 1_555
H49 O25 0.978979 1_555
H50 O26 0.978979 1_555
H51 O27 0.978979 1_555
H52 O28 0.978979 1_555
H53 O29 0.978979 1_555
H54 O30 0.978979 1_555
H55 O31 0.978979 1_555
H56 O24 0.987541 1_555
H57 O25 0.987541 1_555
H58 O26 0.987541 1_555
H59 O27 0.987541 1_555
H60 O28 0.987541 1_555
H61 O29 0.987541 1_555
H62 O30 0.987541 1_555
H63 O31 0.987541 1_555
Br0 Hg0 2.700570 1_555
Br1 Hg1 2.700570 1_555
Br2 Hg2 2.700570 1_555
Br3 Hg3 2.700570 1_555
Br4 Hg1 2.700570 1_555
Br5 Hg0 2.700570 1_555
Br6 Hg3 2.700570 1_555
Br7 Hg2 2.700570 1_555
Br8 Hg0 2.675029 1_555
Br9 Hg1 2.675029 1_555
Br10 Hg2 2.675029 1_555
Br11 Hg3 2.675029 1_555
Br12 Hg0 2.640882 1_555
Br13 Hg1 2.640882 1_555
Br14 Hg2 2.640882 1_555
Br15 Hg3 2.640882 1_555
