# generated using pymatgen
data_LaTa2CuClO7
_symmetry_space_group_name_H-M   'P 1'
_cell_length_a   3.91520000
_cell_length_b   3.91520000
_cell_length_c   11.76277700
_cell_angle_alpha   90.00000000
_cell_angle_beta   90.00000000
_cell_angle_gamma   90.00000000
_symmetry_Int_Tables_number   1
_chemical_formula_structural   LaTa2CuClO7
_chemical_formula_sum   'La1 Ta2 Cu1 Cl1 O7'
_cell_volume   180.30915068
_cell_formula_units_Z   1
loop_
 _symmetry_equiv_pos_site_id
 _symmetry_equiv_pos_as_xyz
  1  'x, y, z'
loop_
 _atom_site_type_symbol
 _atom_site_label
 _atom_site_symmetry_multiplicity
 _atom_site_fract_x
 _atom_site_fract_y
 _atom_site_fract_z
 _atom_site_occupancy
  La  La0  1  0.00000000  0.00000000  0.00000000  1
  Ta  Ta0  1  0.50000000  0.50000000  0.80930400  1
  Ta  Ta1  1  0.50000000  0.50000000  0.19069600  1
  Cu  Cu0  1  0.50000000  0.50000000  0.50000000  1
  Cl  Cl0  1  0.00000000  0.00000000  0.50000000  1
  O  O0  1  0.50000000  0.00000000  0.84569700  1
  O  O1  1  0.00000000  0.50000000  0.84569700  1
  O  O2  1  0.50000000  0.00000000  0.15430300  1
  O  O3  1  0.00000000  0.50000000  0.15430300  1
  O  O4  1  0.50000000  0.50000000  0.65627100  1
  O  O5  1  0.50000000  0.50000000  0.34372900  1
  O  O6  1  0.50000000  0.50000000  0.00000000  1
loop_
_geom_bond_atom_site_label_1
_geom_bond_atom_site_label_2
_geom_bond_distance
_geom_bond_site_symmetry_2
La0 O0 2.669558 1_554
La0 O1 2.669558 1_554
La0 O0 2.669558 1_454
La0 O1 2.669558 1_544
La0 O2 2.669558 1_455
La0 O3 2.669558 1_555
La0 O3 2.669558 1_545
La0 O2 2.669558 1_555
La0 O6 2.768464 1_555
La0 O6 2.768464 1_455
La0 O6 2.768464 1_445
La0 O6 2.768464 1_545
Cu0 O5 1.838181 1_555
Cu0 O4 1.838181 1_555
Cl0 Cu0 2.768464 1_555
Cl0 Cu0 2.768464 1_455
Cl0 Cu0 2.768464 1_445
Cl0 Cu0 2.768464 1_545
O0 Ta0 2.003859 1_555
O0 Ta0 2.003859 1_545
O1 Ta0 2.003859 1_455
O1 Ta0 2.003859 1_555
O2 Ta1 2.003859 1_545
O2 Ta1 2.003859 1_555
O3 Ta1 2.003859 1_555
O3 Ta1 2.003859 1_455
O4 Ta0 1.800093 1_555
O5 Ta1 1.800093 1_555
O6 Ta0 2.243115 1_554
O6 Ta1 2.243115 1_555
