# generated using pymatgen
data_Ba3AlAs3
_symmetry_space_group_name_H-M   'P 1'
_cell_length_a   10.59960318
_cell_length_b   10.59960318
_cell_length_c   13.41282689
_cell_angle_alpha   90.00000000
_cell_angle_beta   90.00000000
_cell_angle_gamma   141.81973189
_symmetry_Int_Tables_number   1
_chemical_formula_structural   Ba3AlAs3
_chemical_formula_sum   'Ba12 Al4 As12'
_cell_volume   931.50411830
_cell_formula_units_Z   4
loop_
 _symmetry_equiv_pos_site_id
 _symmetry_equiv_pos_as_xyz
  1  'x, y, z'
loop_
 _atom_site_type_symbol
 _atom_site_label
 _atom_site_symmetry_multiplicity
 _atom_site_fract_x
 _atom_site_fract_y
 _atom_site_fract_z
 _atom_site_occupancy
  Ba  Ba0  1  0.83170412  0.83170412  0.34679459  1
  Ba  Ba1  1  0.16829588  0.16829588  0.65320541  1
  Ba  Ba2  1  0.66829588  0.66829588  0.84679459  1
  Ba  Ba3  1  0.33170412  0.33170412  0.15320541  1
  Ba  Ba4  1  0.86352141  0.51165701  0.13005112  1
  Ba  Ba5  1  0.48834299  0.13647859  0.86994888  1
  Ba  Ba6  1  0.98834299  0.63647859  0.63005112  1
  Ba  Ba7  1  0.36352141  0.01165701  0.36994888  1
  Ba  Ba8  1  0.13647859  0.48834299  0.86994888  1
  Ba  Ba9  1  0.51165701  0.86352141  0.13005112  1
  Ba  Ba10  1  0.01165701  0.36352141  0.36994888  1
  Ba  Ba11  1  0.63647859  0.98834299  0.63005112  1
  Al  Al0  1  0.08264183  0.91735817  0.00000000  1
  Al  Al1  1  0.58264183  0.41735817  0.50000000  1
  Al  Al2  1  0.91735817  0.08264183  0.00000000  1
  Al  Al3  1  0.41735817  0.58264183  0.50000000  1
  As  As0  1  0.79862953  0.79862953  0.09528179  1
  As  As1  1  0.20137047  0.20137047  0.90471821  1
  As  As2  1  0.70137047  0.70137047  0.59528179  1
  As  As3  1  0.29862953  0.29862953  0.40471821  1
  As  As4  1  0.03447318  0.34658872  0.11720901  1
  As  As5  1  0.65341128  0.96552682  0.88279099  1
  As  As6  1  0.15341128  0.46552682  0.61720901  1
  As  As7  1  0.53447318  0.84658872  0.38279099  1
  As  As8  1  0.96552682  0.65341128  0.88279099  1
  As  As9  1  0.34658872  0.03447318  0.11720901  1
  As  As10  1  0.84658872  0.53447318  0.38279099  1
  As  As11  1  0.46552682  0.15341128  0.61720901  1
loop_
_geom_bond_atom_site_label_1
_geom_bond_atom_site_label_2
_geom_bond_distance
_geom_bond_site_symmetry_2
Al0 As0 2.514666 1_455
Al0 As1 2.514666 1_564
Al0 As8 2.525814 1_454
Al0 As9 2.525814 1_565
Al0 Ba5 3.350726 1_564
Al0 Ba4 3.350726 1_455
Al0 Ba3 3.500399 1_565
Al0 Ba2 3.500399 1_454
Al1 As3 2.514666 1_555
Al1 As2 2.514666 1_555
Al1 As11 2.525814 1_555
Al1 As10 2.525814 1_555
Al1 Ba7 3.350726 1_555
Al1 Ba6 3.350726 1_555
Al1 Ba1 3.500399 1_555
Al1 Ba0 3.500399 1_555
Al2 As0 2.514666 1_545
Al2 As1 2.514666 1_654
Al2 As5 2.525814 1_544
Al2 As4 2.525814 1_655
Al2 Ba8 3.350726 1_654
Al2 Ba9 3.350726 1_545
Al2 Ba3 3.500399 1_655
Al2 Ba2 3.500399 1_544
Al3 As3 2.514666 1_555
Al3 As2 2.514666 1_555
Al3 As6 2.525814 1_555
Al3 As7 2.525814 1_555
Al3 Ba10 3.350726 1_555
Al3 Ba11 3.350726 1_555
Al3 Ba1 3.500399 1_555
Al3 Ba0 3.500399 1_555
As0 Ba3 3.329259 1_555
As0 Ba0 3.381283 1_555
As0 Ba2 3.453245 1_554
As0 Ba4 3.637635 1_555
As0 Ba9 3.637635 1_555
As0 Ba3 3.776746 1_665
As1 Ba2 3.329259 1_555
As1 Ba1 3.381283 1_555
As1 Ba3 3.453245 1_556
As1 Ba8 3.637635 1_555
As1 Ba5 3.637635 1_555
As1 Ba2 3.776746 1_445
As2 Ba1 3.329259 1_665
As2 Ba2 3.381283 1_555
As2 Ba0 3.453245 1_555
As2 Ba11 3.637635 1_555
As2 Ba6 3.637635 1_555
As2 Ba1 3.776746 1_555
As3 Ba0 3.329259 1_445
As3 Ba3 3.381283 1_555
As3 Ba1 3.453245 1_555
As3 Ba10 3.637635 1_555
As3 Ba7 3.637635 1_555
As3 Ba0 3.776746 1_555
As4 Ba3 3.311388 1_555
As4 Ba4 3.370272 1_455
As4 Ba10 3.413319 1_555
As4 Ba8 3.445503 1_554
As4 Ba9 3.473456 1_555
As4 Ba9 3.513932 1_445
As5 Ba2 3.311388 1_555
As5 Ba5 3.370272 1_565
As5 Ba11 3.413319 1_555
As5 Ba9 3.445503 1_556
As5 Ba8 3.473456 1_555
As5 Ba8 3.513932 1_665
As6 Ba1 3.311388 1_555
As6 Ba6 3.370272 1_455
As6 Ba8 3.413319 1_555
As6 Ba10 3.445503 1_555
As6 Ba11 3.473456 1_445
As6 Ba11 3.513932 1_555
As7 Ba0 3.311388 1_555
As7 Ba7 3.370272 1_565
As7 Ba9 3.413319 1_555
As7 Ba11 3.445503 1_555
As7 Ba10 3.473456 1_665
As7 Ba10 3.513932 1_555
As8 Ba2 3.311388 1_555
As8 Ba8 3.370272 1_655
As8 Ba6 3.413319 1_555
As8 Ba4 3.445503 1_556
As8 Ba5 3.473456 1_555
As8 Ba5 3.513932 1_665
As9 Ba3 3.311388 1_555
As9 Ba9 3.370272 1_545
As9 Ba7 3.413319 1_555
As9 Ba5 3.445503 1_554
As9 Ba4 3.473456 1_555
As9 Ba4 3.513932 1_445
As10 Ba0 3.311388 1_555
As10 Ba10 3.370272 1_655
As10 Ba4 3.413319 1_555
As10 Ba6 3.445503 1_555
As10 Ba7 3.473456 1_665
As10 Ba7 3.513932 1_555
As11 Ba1 3.311388 1_555
As11 Ba11 3.370272 1_545
As11 Ba5 3.413319 1_555
As11 Ba7 3.445503 1_555
As11 Ba6 3.473456 1_445
As11 Ba6 3.513932 1_555
