# generated using pymatgen
data_Cu2GeS3
_symmetry_space_group_name_H-M   'P 1'
_cell_length_a   12.44933202
_cell_length_b   11.86682583
_cell_length_c   6.50465537
_cell_angle_alpha   79.49514968
_cell_angle_beta   69.59203909
_cell_angle_gamma   30.91281122
_symmetry_Int_Tables_number   1
_chemical_formula_structural   Cu2GeS3
_chemical_formula_sum   'Cu8 Ge4 S12'
_cell_volume   448.85800929
_cell_formula_units_Z   4
loop_
 _symmetry_equiv_pos_site_id
 _symmetry_equiv_pos_as_xyz
  1  'x, y, z'
loop_
 _atom_site_type_symbol
 _atom_site_label
 _atom_site_symmetry_multiplicity
 _atom_site_fract_x
 _atom_site_fract_y
 _atom_site_fract_z
 _atom_site_occupancy
  Cu  Cu0  1  0.58676000  0.24753900  0.24196800  1
  Cu  Cu1  1  0.92102900  0.57897100  0.92102900  1
  Cu  Cu2  1  0.24196800  0.92373200  0.58676000  1
  Cu  Cu3  1  0.00246100  0.66324000  0.32626800  1
  Cu  Cu4  1  0.32626800  0.00803200  0.00246100  1
  Cu  Cu5  1  0.67102900  0.32897100  0.67102900  1
  Cu  Cu6  1  0.41595600  0.08404400  0.41595600  1
  Cu  Cu7  1  0.16595600  0.83404400  0.16595600  1
  Ge  Ge0  1  0.76187200  0.40067500  0.07112600  1
  Ge  Ge1  1  0.07112600  0.76632700  0.76187200  1
  Ge  Ge2  1  0.48367300  0.17887400  0.84932500  1
  Ge  Ge3  1  0.84932500  0.48812800  0.48367300  1
  S  S0  1  0.70506300  0.63022500  0.87327300  1
  S  S1  1  0.04379800  0.95342600  0.54073600  1
  S  S2  1  0.37693900  0.29001900  0.21147300  1
  S  S3  1  0.21147300  0.12156900  0.37693900  1
  S  S4  1  0.54073600  0.46204000  0.04379800  1
  S  S5  1  0.87327300  0.79144000  0.70506300  1
  S  S6  1  0.29657400  0.20620200  0.78796000  1
  S  S7  1  0.61977500  0.54493700  0.45856000  1
  S  S8  1  0.95998100  0.87306100  0.12843100  1
  S  S9  1  0.45856000  0.37672700  0.61977500  1
  S  S10  1  0.78796000  0.70926400  0.29657400  1
  S  S11  1  0.12843100  0.03852700  0.95998100  1
loop_
_geom_bond_atom_site_label_1
_geom_bond_atom_site_label_2
_geom_bond_distance
_geom_bond_site_symmetry_2
Cu0 S2 2.276427 1_555
Cu0 S8 2.292607 1_545
Cu0 S4 2.298970 1_555
Cu0 S9 2.318799 1_555
Cu1 S6 2.293927 1_655
Cu1 S10 2.293927 1_556
Cu1 S0 2.324383 1_555
Cu1 S5 2.324392 1_555
Cu2 S3 2.276436 1_565
Cu2 S11 2.292610 1_565
Cu2 S1 2.298960 1_555
Cu2 S7 2.318799 1_555
Cu3 S8 2.276430 1_455
Cu3 S2 2.292607 1_555
Cu3 S10 2.298973 1_455
Cu3 S5 2.318799 1_455
Cu4 S11 2.276440 1_554
Cu4 S3 2.292604 1_555
Cu4 S6 2.298964 1_554
Cu4 S0 2.318799 1_544
Cu5 S1 2.293927 1_645
Cu5 S4 2.293927 1_556
Cu5 S7 2.324386 1_555
Cu5 S9 2.324395 1_555
Cu6 S2 2.281973 1_555
Cu6 S3 2.281973 1_555
Cu6 S10 2.289024 1_545
Cu6 S6 2.289024 1_555
Cu7 S11 2.281973 1_564
Cu7 S8 2.281973 1_455
Cu7 S1 2.289024 1_555
Cu7 S4 2.289024 1_555
Ge0 S4 2.234950 1_555
Ge0 S11 2.235405 1_654
Ge0 S0 2.372239 1_554
Ge0 S7 2.383000 1_555
Ge1 S1 2.234950 1_555
Ge1 S8 2.235405 1_456
Ge1 S5 2.372230 1_455
Ge1 S9 2.383003 1_555
Ge2 S6 2.234950 1_555
Ge2 S2 2.235405 1_556
Ge2 S9 2.372233 1_555
Ge2 S5 2.383003 1_545
Ge3 S10 2.234950 1_555
Ge3 S3 2.235405 1_655
Ge3 S7 2.372242 1_555
Ge3 S0 2.383006 1_555
