# generated using pymatgen
data_RbBa2Ni2F9
_symmetry_space_group_name_H-M   'P 1'
_cell_length_a   7.86331812
_cell_length_b   7.86331812
_cell_length_c   7.86331887
_cell_angle_alpha   43.83380257
_cell_angle_beta   43.83380257
_cell_angle_gamma   43.83380851
_symmetry_Int_Tables_number   1
_chemical_formula_structural   RbBa2Ni2F9
_chemical_formula_sum   'Rb1 Ba2 Ni2 F9'
_cell_volume   211.74311332
_cell_formula_units_Z   1
loop_
 _symmetry_equiv_pos_site_id
 _symmetry_equiv_pos_as_xyz
  1  'x, y, z'
loop_
 _atom_site_type_symbol
 _atom_site_label
 _atom_site_symmetry_multiplicity
 _atom_site_fract_x
 _atom_site_fract_y
 _atom_site_fract_z
 _atom_site_occupancy
  Rb  Rb0  1  0.21301200  0.21301200  0.21301200  1
  Ba  Ba0  1  0.99880000  0.99880000  0.99880000  1
  Ba  Ba1  1  0.79369000  0.79369000  0.79369000  1
  Ni  Ni0  1  0.38964700  0.38964700  0.38964700  1
  Ni  Ni1  1  0.60671400  0.60671400  0.60671400  1
  F  F0  1  0.26814000  0.77244400  0.26814000  1
  F  F1  1  0.77244400  0.26814000  0.26814000  1
  F  F2  1  0.26814000  0.26814000  0.77244400  1
  F  F3  1  0.73195200  0.22076900  0.73195200  1
  F  F4  1  0.22076900  0.73195200  0.73195200  1
  F  F5  1  0.73195200  0.73195200  0.22076900  1
  F  F6  1  0.99263900  0.50605100  0.50605100  1
  F  F7  1  0.50605100  0.50605100  0.99263900  1
  F  F8  1  0.50605100  0.99263900  0.50605100  1
loop_
_geom_bond_atom_site_label_1
_geom_bond_atom_site_label_2
_geom_bond_distance
_geom_bond_site_symmetry_2
Ba0 F5 2.763477 1_556
Ba0 F4 2.763477 1_655
Ba0 F3 2.763477 1_565
Ba0 F2 2.780890 1_665
Ba0 F0 2.780891 1_656
Ba0 F1 2.780891 1_566
Ba0 F8 2.936022 1_655
Ba0 F6 2.936022 1_565
Ba0 F6 2.936022 1_556
Ba0 F8 2.936022 1_556
Ba0 F7 2.936023 1_655
Ba0 F7 2.936023 1_565
Ba1 F4 2.717560 1_655
Ba1 F3 2.717560 1_565
Ba1 F5 2.717560 1_556
Ba1 F1 2.979660 1_556
Ba1 F0 2.979660 1_556
Ba1 F0 2.979661 1_655
Ba1 F1 2.979661 1_565
Ba1 F2 2.979661 1_655
Ba1 F2 2.979661 1_565
Ba1 F7 3.138420 1_555
Ba1 F8 3.138420 1_555
Ba1 F6 3.138420 1_555
F0 Ni0 1.976087 1_555
F0 Rb0 2.883632 1_565
F1 Ni0 1.976087 1_555
F1 Rb0 2.883632 1_655
F2 Ni0 1.976087 1_555
F2 Rb0 2.883632 1_556
F3 Ni1 1.981256 1_555
F3 Rb0 2.953126 1_556
F3 Rb0 2.953126 1_655
F4 Ni1 1.981256 1_555
F4 Rb0 2.953126 1_556
F4 Rb0 2.953126 1_565
F5 Ni1 1.981256 1_555
F5 Rb0 2.953126 1_565
F5 Rb0 2.953126 1_655
F6 Ni0 2.094056 1_655
F6 Ni1 2.105987 1_555
F6 Rb0 3.124243 1_655
F7 Ni0 2.094056 1_556
F7 Ni1 2.105987 1_555
F7 Rb0 3.124243 1_556
F8 Ni0 2.094056 1_565
F8 Ni1 2.105987 1_555
F8 Rb0 3.124243 1_565
