# generated using pymatgen
data_SmVSb3
_symmetry_space_group_name_H-M   'P 1'
_cell_length_a   6.25650800
_cell_length_b   9.01192900
_cell_length_c   9.67723100
_cell_angle_alpha   90.00000000
_cell_angle_beta   90.00000000
_cell_angle_gamma   90.00000000
_symmetry_Int_Tables_number   1
_chemical_formula_structural   SmVSb3
_chemical_formula_sum   'Sm4 V4 Sb12'
_cell_volume   545.63330786
_cell_formula_units_Z   4
loop_
 _symmetry_equiv_pos_site_id
 _symmetry_equiv_pos_as_xyz
  1  'x, y, z'
loop_
 _atom_site_type_symbol
 _atom_site_label
 _atom_site_symmetry_multiplicity
 _atom_site_fract_x
 _atom_site_fract_y
 _atom_site_fract_z
 _atom_site_occupancy
  Sm  Sm0  1  0.75000000  0.97095200  0.67155000  1
  Sm  Sm1  1  0.25000000  0.52904800  0.67155000  1
  Sm  Sm2  1  0.25000000  0.02904800  0.32845000  1
  Sm  Sm3  1  0.75000000  0.47095200  0.32845000  1
  V  V0  1  0.00000000  0.75000000  0.18627600  1
  V  V1  1  0.00000000  0.25000000  0.81372400  1
  V  V2  1  0.50000000  0.25000000  0.81372400  1
  V  V3  1  0.50000000  0.75000000  0.18627600  1
  Sb  Sb0  1  0.50000000  0.75000000  0.46640400  1
  Sb  Sb1  1  0.75000000  0.50345300  0.77450500  1
  Sb  Sb2  1  0.75000000  0.78517300  0.96113800  1
  Sb  Sb3  1  0.00000000  0.75000000  0.46640400  1
  Sb  Sb4  1  0.00000000  0.25000000  0.53359600  1
  Sb  Sb5  1  0.25000000  0.21482700  0.03886200  1
  Sb  Sb6  1  0.25000000  0.49654700  0.22549500  1
  Sb  Sb7  1  0.25000000  0.71482700  0.96113800  1
  Sb  Sb8  1  0.25000000  0.99654700  0.77450500  1
  Sb  Sb9  1  0.50000000  0.25000000  0.53359600  1
  Sb  Sb10  1  0.75000000  0.00345300  0.22549500  1
  Sb  Sb11  1  0.75000000  0.28517300  0.03886200  1
loop_
_geom_bond_atom_site_label_1
_geom_bond_atom_site_label_2
_geom_bond_distance
_geom_bond_site_symmetry_2
Sm0 V1 3.265498 1_665
Sm0 V2 3.265498 1_565
Sm1 V1 3.265498 1_555
Sm1 V2 3.265498 1_555
Sm2 V0 3.265498 1_545
Sm2 V3 3.265498 1_545
Sm3 V3 3.265498 1_555
Sm3 V0 3.265498 1_655
Sb0 V3 2.710863 1_555
Sb0 Sm0 3.217543 1_555
Sb0 Sm1 3.217543 1_555
Sb0 Sm2 3.248503 1_565
Sb0 Sm3 3.248503 1_555
Sb1 V1 2.794218 1_655
Sb1 V2 2.794218 1_555
Sb1 Sm1 3.291174 1_555
Sb1 Sm1 3.291174 1_655
Sb2 V3 2.700695 1_556
Sb2 V0 2.700695 1_656
Sb2 Sm0 3.264435 1_555
Sb3 V0 2.710863 1_555
Sb3 Sm0 3.217543 1_455
Sb3 Sm1 3.217543 1_555
Sb3 Sm2 3.248503 1_565
Sb3 Sm3 3.248503 1_455
Sb4 V1 2.710863 1_555
Sb4 Sm3 3.217543 1_455
Sb4 Sm2 3.217543 1_555
Sb4 Sm1 3.248503 1_555
Sb4 Sm0 3.248503 1_445
Sb5 V2 2.700695 1_554
Sb5 V1 2.700695 1_554
Sb5 Sm2 3.264435 1_555
Sb6 V3 2.794218 1_555
Sb6 V0 2.794218 1_555
Sb6 Sm3 3.291174 1_555
Sb6 Sm3 3.291174 1_455
Sb7 V0 2.700695 1_556
Sb7 V3 2.700695 1_556
Sb7 Sm1 3.264435 1_555
Sb8 V2 2.794218 1_565
Sb8 V1 2.794218 1_565
Sb8 Sm0 3.291174 1_455
Sb8 Sm0 3.291174 1_555
Sb9 V2 2.710863 1_555
Sb9 Sm3 3.217543 1_555
Sb9 Sm2 3.217543 1_555
Sb9 Sm1 3.248503 1_555
Sb9 Sm0 3.248503 1_545
Sb10 V3 2.794218 1_545
Sb10 V0 2.794218 1_645
Sb10 Sm2 3.291174 1_555
Sb10 Sm2 3.291174 1_655
Sb11 V2 2.700695 1_554
Sb11 V1 2.700695 1_654
Sb11 Sm3 3.264435 1_555
