# generated using pymatgen
data_BaHf(BO3)2
_symmetry_space_group_name_H-M   'P 1'
_cell_length_a   5.19131777
_cell_length_b   5.19131777
_cell_length_c   11.85158059
_cell_angle_alpha   77.34888766
_cell_angle_beta   77.34888766
_cell_angle_gamma   60.00000295
_symmetry_Int_Tables_number   1
_chemical_formula_structural   BaHf(BO3)2
_chemical_formula_sum   'Ba2 Hf2 B4 O12'
_cell_volume   267.61488791
_cell_formula_units_Z   2
loop_
 _symmetry_equiv_pos_site_id
 _symmetry_equiv_pos_as_xyz
  1  'x, y, z'
loop_
 _atom_site_type_symbol
 _atom_site_label
 _atom_site_symmetry_multiplicity
 _atom_site_fract_x
 _atom_site_fract_y
 _atom_site_fract_z
 _atom_site_occupancy
  Ba  Ba0  1  0.49990700  0.49990700  0.50027900  1
  Ba  Ba1  1  0.99990700  0.99990700  0.00027900  1
  Hf  Hf0  1  0.25094400  0.25094400  0.24716700  1
  Hf  Hf1  1  0.75094400  0.75094400  0.74716700  1
  B  B0  1  0.38307600  0.38307600  0.85077300  1
  B  B1  1  0.88307600  0.88307600  0.35077300  1
  B  B2  1  0.11960900  0.11960900  0.64117400  1
  B  B3  1  0.61960900  0.61960900  0.14117400  1
  O  O0  1  0.59401000  0.08359600  0.85321500  1
  O  O1  1  0.08359600  0.46917900  0.85321500  1
  O  O2  1  0.46917900  0.59401000  0.85321500  1
  O  O3  1  0.09401000  0.96917900  0.35321500  1
  O  O4  1  0.96917900  0.58359600  0.35321500  1
  O  O5  1  0.58359600  0.09401000  0.35321500  1
  O  O6  1  0.01860600  0.92115800  0.63801100  1
  O  O7  1  0.92115800  0.42222500  0.63801100  1
  O  O8  1  0.42222500  0.01860600  0.63801100  1
  O  O9  1  0.51860600  0.92222500  0.13801100  1
  O  O10  1  0.92222500  0.42115800  0.13801100  1
  O  O11  1  0.42115800  0.51860600  0.13801100  1
loop_
_geom_bond_atom_site_label_1
_geom_bond_atom_site_label_2
_geom_bond_distance
_geom_bond_site_symmetry_2
Ba0 O8 2.828931 1_555
Ba0 O7 2.828931 1_555
Ba0 O6 2.828931 1_555
Ba0 O4 2.833407 1_555
Ba0 O5 2.833407 1_555
Ba0 O3 2.833407 1_555
Ba1 O9 2.828931 1_555
Ba1 O10 2.828931 1_565
Ba1 O11 2.828931 1_655
Ba1 O1 2.833407 1_664
Ba1 O0 2.833407 1_564
Ba1 O2 2.833407 1_654
Hf0 O3 2.078663 1_545
Hf0 O4 2.078666 1_455
Hf0 O5 2.078667 1_555
Hf0 O10 2.079629 1_455
Hf0 O9 2.079629 1_545
Hf0 O11 2.079632 1_555
Hf1 O2 2.078663 1_555
Hf1 O1 2.078666 1_655
Hf1 O0 2.078667 1_565
Hf1 O7 2.079629 1_555
Hf1 O8 2.079629 1_565
Hf1 O6 2.079632 1_655
B0 O2 1.381567 1_555
B0 O0 1.381571 1_555
B0 O1 1.381572 1_555
B1 O3 1.381567 1_655
B1 O5 1.381571 1_565
B1 O4 1.381572 1_555
B2 O8 1.379635 1_555
B2 O7 1.379636 1_455
B2 O6 1.379640 1_545
B3 O9 1.379635 1_555
B3 O10 1.379636 1_555
B3 O11 1.379640 1_555
