# generated using pymatgen
data_Ca2Zn3Si3PbO12
_symmetry_space_group_name_H-M   'P 1'
_cell_length_a   8.38052800
_cell_length_b   8.90914100
_cell_length_c   17.83909233
_cell_angle_alpha   60.08998802
_cell_angle_beta   90.00000000
_cell_angle_gamma   90.00000000
_symmetry_Int_Tables_number   1
_chemical_formula_structural   Ca2Zn3Si3PbO12
_chemical_formula_sum   'Ca8 Zn12 Si12 Pb4 O48'
_cell_volume   1154.52593693
_cell_formula_units_Z   4
loop_
 _symmetry_equiv_pos_site_id
 _symmetry_equiv_pos_as_xyz
  1  'x, y, z'
loop_
 _atom_site_type_symbol
 _atom_site_label
 _atom_site_symmetry_multiplicity
 _atom_site_fract_x
 _atom_site_fract_y
 _atom_site_fract_z
 _atom_site_occupancy
  Ca  Ca0  1  0.96090000  0.33590800  0.42573500  1
  Ca  Ca1  1  0.53910000  0.33590800  0.92573500  1
  Ca  Ca2  1  0.03910000  0.66409200  0.57426500  1
  Ca  Ca3  1  0.46090000  0.66409200  0.07426500  1
  Ca  Ca4  1  0.53805000  0.32788100  0.41153200  1
  Ca  Ca5  1  0.96195000  0.32788100  0.91153200  1
  Ca  Ca6  1  0.46195000  0.67211900  0.58846800  1
  Ca  Ca7  1  0.03805000  0.67211900  0.08846800  1
  Zn  Zn0  1  0.83534900  0.66729000  0.25642000  1
  Zn  Zn1  1  0.66465100  0.66729000  0.75642000  1
  Zn  Zn2  1  0.16465100  0.33271000  0.74358000  1
  Zn  Zn3  1  0.33534900  0.33271000  0.24358000  1
  Zn  Zn4  1  0.83892800  0.01587800  0.40975100  1
  Zn  Zn5  1  0.66107200  0.01587800  0.90975100  1
  Zn  Zn6  1  0.16107200  0.98412200  0.59024900  1
  Zn  Zn7  1  0.33892800  0.98412200  0.09024900  1
  Zn  Zn8  1  0.83952500  0.32385500  0.08379700  1
  Zn  Zn9  1  0.66047500  0.32385500  0.58379700  1
  Zn  Zn10  1  0.16047500  0.67614500  0.91620300  1
  Zn  Zn11  1  0.33952500  0.67614500  0.41620300  1
  Si  Si0  1  0.72828300  0.35437100  0.23471000  1
  Si  Si1  1  0.77171700  0.35437100  0.73471000  1
  Si  Si2  1  0.27171700  0.64562900  0.76529000  1
  Si  Si3  1  0.22828300  0.64562900  0.26529000  1
  Si  Si4  1  0.72941900  0.97276600  0.08783300  1
  Si  Si5  1  0.77058100  0.97276600  0.58783300  1
  Si  Si6  1  0.27058100  0.02723400  0.91216700  1
  Si  Si7  1  0.22941900  0.02723400  0.41216700  1
  Si  Si8  1  0.72566600  0.67913900  0.42551500  1
  Si  Si9  1  0.77433400  0.67913900  0.92551500  1
  Si  Si10  1  0.27433400  0.32086100  0.57448500  1
  Si  Si11  1  0.22566600  0.32086100  0.07448500  1
  Pb  Pb0  1  0.55337200  0.00512000  0.24916200  1
  Pb  Pb1  1  0.94662800  0.00512000  0.74916200  1
  Pb  Pb2  1  0.44662800  0.99488000  0.75083800  1
  Pb  Pb3  1  0.05337200  0.99488000  0.25083800  1
  O  O0  1  0.72989500  0.77179000  0.31838300  1
  O  O1  1  0.77010500  0.77179000  0.81838300  1
  O  O2  1  0.27010500  0.22821000  0.68161700  1
  O  O3  1  0.22989500  0.22821000  0.18161700  1
  O  O4  1  0.23711300  0.86043800  0.20524400  1
  O  O5  1  0.26288700  0.86043800  0.70524400  1
  O  O6  1  0.76288700  0.13956200  0.79475600  1
  O  O7  1  0.73711300  0.13956200  0.29475600  1
  O  O8  1  0.73049900  0.09606400  0.13366000  1
  O  O9  1  0.76950100  0.09606400  0.63366000  1
  O  O10  1  0.26950100  0.90393600  0.86634000  1
  O  O11  1  0.23049900  0.90393600  0.36634000  1
  O  O12  1  0.75012400  0.42913300  0.30231400  1
  O  O13  1  0.74987600  0.42913300  0.80231400  1
  O  O14  1  0.24987600  0.57086700  0.69768600  1
  O  O15  1  0.25012400  0.57086700  0.19768600  1
  O  O16  1  0.74185400  0.10472700  0.48304700  1
  O  O17  1  0.75814600  0.10472700  0.98304700  1
  O  O18  1  0.25814600  0.89527300  0.51695300  1
  O  O19  1  0.24185400  0.89527300  0.01695300  1
  O  O20  1  0.75453400  0.46932000  0.46518200  1
  O  O21  1  0.74546600  0.46932000  0.96518200  1
  O  O22  1  0.24546600  0.53068000  0.53481800  1
  O  O23  1  0.25453400  0.53068000  0.03481800  1
  O  O24  1  0.86762900  0.82147200  0.13178500  1
  O  O25  1  0.63237100  0.82147200  0.63178500  1
  O  O26  1  0.13237100  0.17852800  0.86821500  1
  O  O27  1  0.36762900  0.17852800  0.36821500  1
  O  O28  1  0.86369200  0.76456200  0.45868900  1
  O  O29  1  0.63630800  0.76456200  0.95868900  1
  O  O30  1  0.13630800  0.23543800  0.54131100  1
  O  O31  1  0.36369200  0.23543800  0.04131100  1
  O  O32  1  0.86482100  0.42782000  0.15798300  1
  O  O33  1  0.63517900  0.42782000  0.65798300  1
  O  O34  1  0.13517900  0.57218000  0.84201700  1
  O  O35  1  0.36482100  0.57218000  0.34201700  1
  O  O36  1  0.05179800  0.59825700  0.31242700  1
  O  O37  1  0.44820200  0.59825700  0.81242700  1
  O  O38  1  0.94820200  0.40174300  0.68757300  1
  O  O39  1  0.55179800  0.40174300  0.18757300  1
  O  O40  1  0.05467300  0.12387800  0.39390800  1
  O  O41  1  0.44532700  0.12387800  0.89390800  1
  O  O42  1  0.94532700  0.87612200  0.60609200  1
  O  O43  1  0.55467300  0.87612200  0.10609200  1
  O  O44  1  0.05072200  0.28065600  0.04643700  1
  O  O45  1  0.44927800  0.28065600  0.54643700  1
  O  O46  1  0.94927800  0.71934400  0.95356300  1
  O  O47  1  0.55072200  0.71934400  0.45356300  1
loop_
_geom_bond_atom_site_label_1
_geom_bond_atom_site_label_2
_geom_bond_distance
_geom_bond_site_symmetry_2
Ca0 O30 2.317880 1_655
Ca0 O36 2.327537 1_655
Ca0 O40 2.361753 1_655
Ca0 O20 2.394385 1_555
Ca0 O16 2.560702 1_555
Ca0 O12 2.614179 1_555
Ca1 O31 2.317880 1_556
Ca1 O37 2.327537 1_555
Ca1 O41 2.361753 1_555
Ca1 O21 2.394385 1_555
Ca1 O17 2.560702 1_555
Ca1 O13 2.614179 1_555
Ca2 O28 2.317880 1_455
Ca2 O38 2.327537 1_455
Ca2 O42 2.361753 1_455
Ca2 O22 2.394385 1_555
Ca2 O18 2.560702 1_555
Ca2 O14 2.614179 1_555
Ca3 O29 2.317880 1_554
Ca3 O39 2.327537 1_555
Ca3 O43 2.361753 1_555
Ca3 O23 2.394385 1_555
Ca3 O19 2.560702 1_555
Ca3 O15 2.614179 1_555
Ca4 O27 2.330848 1_555
Ca4 O45 2.347840 1_555
Ca4 O35 2.385545 1_555
Ca4 O16 2.442931 1_555
Ca4 O12 2.452713 1_555
Ca4 O20 2.645383 1_555
Ca5 O26 2.330848 1_655
Ca5 O44 2.347840 1_656
Ca5 O34 2.385545 1_655
Ca5 O17 2.442931 1_555
Ca5 O13 2.452713 1_555
Ca5 O21 2.645383 1_555
Ca6 O25 2.330848 1_555
Ca6 O47 2.347840 1_555
Ca6 O33 2.385545 1_555
Ca6 O18 2.442931 1_555
Ca6 O14 2.452713 1_555
Ca6 O22 2.645383 1_555
Ca7 O24 2.330848 1_455
Ca7 O46 2.347840 1_454
Ca7 O32 2.385545 1_455
Ca7 O19 2.442931 1_555
Ca7 O15 2.452713 1_555
Ca7 O23 2.645383 1_555
O0 Si8 1.661872 1_555
O0 Zn0 1.973811 1_555
O0 Pb0 2.339796 1_565
O1 Si9 1.661872 1_555
O1 Zn1 1.973811 1_555
O1 Pb1 2.339796 1_565
O2 Si10 1.661872 1_555
O2 Zn2 1.973811 1_555
O2 Pb2 2.339796 1_545
O3 Si11 1.661872 1_555
O3 Zn3 1.973811 1_555
O3 Pb3 2.339796 1_545
O4 Si3 1.664627 1_555
O4 Zn7 1.973885 1_555
O4 Pb3 2.332138 1_555
O5 Si2 1.664627 1_555
O5 Zn6 1.973885 1_555
O5 Pb2 2.332138 1_555
O6 Si1 1.664627 1_555
O6 Zn5 1.973885 1_555
O6 Pb1 2.332138 1_555
O7 Si0 1.664627 1_555
O7 Zn4 1.973885 1_555
O7 Pb0 2.332138 1_555
O8 Si4 1.664524 1_545
O8 Zn8 1.986037 1_555
O8 Pb0 2.332494 1_555
O9 Si5 1.664524 1_545
O9 Zn9 1.986037 1_555
O9 Pb1 2.332494 1_555
O10 Si6 1.664524 1_565
O10 Zn10 1.986037 1_555
O10 Pb2 2.332494 1_555
O11 Si7 1.664524 1_565
O11 Zn11 1.986037 1_555
O11 Pb3 2.332494 1_555
O12 Si0 1.653074 1_555
O12 Zn0 1.987448 1_555
O13 Si1 1.653074 1_555
O13 Zn1 1.987448 1_555
O14 Si2 1.653074 1_555
O14 Zn2 1.987448 1_555
O15 Si3 1.653074 1_555
O15 Zn3 1.987448 1_555
O16 Si5 1.656111 1_545
O16 Zn4 2.007547 1_555
O17 Si4 1.656111 1_546
O17 Zn5 2.007547 1_555
O18 Si7 1.656111 1_565
O18 Zn6 2.007547 1_555
O19 Si6 1.656111 1_564
O19 Zn7 2.007547 1_555
O20 Si8 1.653603 1_555
O20 Zn9 2.010845 1_555
O21 Si9 1.653603 1_555
O21 Zn8 2.010845 1_556
O22 Si10 1.653603 1_555
O22 Zn11 2.010845 1_555
O23 Si11 1.653603 1_555
O23 Zn10 2.010845 1_554
O24 Si4 1.649006 1_555
O24 Zn0 1.964092 1_555
O25 Si5 1.649006 1_555
O25 Zn1 1.964092 1_555
O26 Si6 1.649006 1_555
O26 Zn2 1.964092 1_555
O27 Si7 1.649006 1_555
O27 Zn3 1.964092 1_555
O28 Si8 1.648209 1_555
O28 Zn4 1.966983 1_565
O29 Si9 1.648209 1_555
O29 Zn5 1.966983 1_565
O30 Si10 1.648209 1_555
O30 Zn6 1.966983 1_545
O31 Si11 1.648209 1_555
O31 Zn7 1.966983 1_545
O32 Si0 1.648562 1_555
O32 Zn8 1.968943 1_555
O33 Si1 1.648562 1_555
O33 Zn9 1.968943 1_555
O34 Si2 1.648562 1_555
O34 Zn10 1.968943 1_555
O35 Si3 1.648562 1_555
O35 Zn11 1.968943 1_555
O36 Si3 1.648888 1_555
O36 Zn0 2.013484 1_455
O37 Si2 1.648888 1_555
O37 Zn1 2.013484 1_555
O38 Si1 1.648888 1_555
O38 Zn2 2.013484 1_655
O39 Si0 1.648888 1_555
O39 Zn3 2.013484 1_555
O40 Si7 1.646939 1_555
O40 Zn4 2.000888 1_455
O41 Si6 1.646939 1_555
O41 Zn5 2.000888 1_555
O42 Si5 1.646939 1_555
O42 Zn6 2.000888 1_655
O43 Si4 1.646939 1_555
O43 Zn7 2.000888 1_555
O44 Si11 1.645267 1_555
O44 Zn8 1.995194 1_455
O45 Si10 1.645267 1_555
O45 Zn9 1.995194 1_555
O46 Si9 1.645267 1_555
O46 Zn10 1.995194 1_655
O47 Si8 1.645267 1_555
O47 Zn11 1.995194 1_555
