# generated using pymatgen
data_Cs2Hg(BSe)9
_symmetry_space_group_name_H-M   'P 1'
_cell_length_a   10.11274400
_cell_length_b   10.95044036
_cell_length_c   11.27099281
_cell_angle_alpha   100.09265820
_cell_angle_beta   90.47927536
_cell_angle_gamma   116.07080375
_symmetry_Int_Tables_number   1
_chemical_formula_structural   Cs2Hg(BSe)9
_chemical_formula_sum   'Cs4 Hg2 B18 Se18'
_cell_volume   1098.63722285
_cell_formula_units_Z   2
loop_
 _symmetry_equiv_pos_site_id
 _symmetry_equiv_pos_as_xyz
  1  'x, y, z'
loop_
 _atom_site_type_symbol
 _atom_site_label
 _atom_site_symmetry_multiplicity
 _atom_site_fract_x
 _atom_site_fract_y
 _atom_site_fract_z
 _atom_site_occupancy
  Cs  Cs0  1  0.20473600  0.82656700  0.99812000  1
  Cs  Cs1  1  0.79526400  0.17343300  0.00188000  1
  Cs  Cs2  1  0.82328900  0.65438100  0.48524300  1
  Cs  Cs3  1  0.17671100  0.34561900  0.51475700  1
  Hg  Hg0  1  0.67202000  0.67489200  0.92548000  1
  Hg  Hg1  1  0.32798000  0.32510800  0.07452000  1
  B  B0  1  0.48668900  0.83979500  0.45032100  1
  B  B1  1  0.51331100  0.16020500  0.54967900  1
  B  B2  1  0.34032600  0.88030300  0.41432000  1
  B  B3  1  0.65967400  0.11969700  0.58568000  1
  B  B4  1  0.51394300  0.95649300  0.35119500  1
  B  B5  1  0.48605700  0.04350700  0.64880500  1
  B  B6  1  0.66033700  0.99281800  0.46165100  1
  B  B7  1  0.33966300  0.00718200  0.53834900  1
  B  B8  1  0.57763600  0.93957000  0.59613600  1
  B  B9  1  0.42236400  0.06043000  0.40386400  1
  B  B10  1  0.38209300  0.87158400  0.56639100  1
  B  B11  1  0.61790700  0.12841600  0.43360900  1
  B  B12  1  0.25667500  0.58979100  0.28807100  1
  B  B13  1  0.74332500  0.41020900  0.71192900  1
  B  B14  1  0.43478100  0.72031600  0.74184700  1
  B  B15  1  0.56521900  0.27968400  0.25815300  1
  B  B16  1  0.74593800  0.90822500  0.22015000  1
  B  B17  1  0.25406200  0.09177500  0.77985000  1
  Se  Se0  1  0.44870200  0.64419300  0.37680200  1
  Se  Se1  1  0.55129800  0.35580700  0.62319800  1
  Se  Se2  1  0.16699900  0.72039900  0.30808900  1
  Se  Se3  1  0.83300100  0.27960100  0.69191100  1
  Se  Se4  1  0.55222700  0.89999600  0.17983300  1
  Se  Se5  1  0.44777300  0.10000400  0.82016700  1
  Se  Se6  1  0.83546200  0.97488200  0.39022800  1
  Se  Se7  1  0.16453800  0.02511800  0.60977200  1
  Se  Se8  1  0.63800600  0.84879700  0.71404100  1
  Se  Se9  1  0.36199400  0.15120300  0.28595900  1
  Se  Se10  1  0.26278700  0.72064600  0.65709800  1
  Se  Se11  1  0.73721300  0.27935400  0.34290200  1
  Se  Se12  1  0.14015800  0.40739100  0.18773400  1
  Se  Se13  1  0.85984200  0.59260900  0.81226600  1
  Se  Se14  1  0.86390200  0.86463900  0.10045000  1
  Se  Se15  1  0.13609800  0.13536100  0.89955000  1
  Se  Se16  1  0.39596300  0.59327300  0.85304100  1
  Se  Se17  1  0.60403700  0.40672700  0.14695900  1
loop_
_geom_bond_atom_site_label_1
_geom_bond_atom_site_label_2
_geom_bond_distance
_geom_bond_site_symmetry_2
Cs0 Se13 3.641329 1_455
Cs0 Se4 3.742836 1_556
Cs0 Se14 3.813828 1_456
Cs0 Se5 3.840303 1_565
Cs0 Se2 3.841714 1_556
Cs0 Se10 3.941750 1_555
Cs0 Se16 3.983846 1_555
Cs0 Se15 4.064103 1_565
Cs0 Se9 4.073569 1_566
Cs1 Se12 3.641329 1_655
Cs1 Se5 3.742836 1_554
Cs1 Se15 3.813828 1_654
Cs1 Se4 3.840303 1_545
Cs1 Se3 3.841714 1_554
Cs1 Se11 3.941750 1_555
Cs1 Se17 3.983846 1_555
Cs1 Se14 4.064103 1_545
Cs1 Se8 4.073569 1_544
Cs2 Se6 3.797266 1_555
Cs2 Se1 3.823850 1_555
Cs2 Se11 3.836934 1_555
Cs2 Se2 3.873545 1_655
Cs2 Se13 3.905212 1_555
Cs2 Se0 3.919097 1_555
Cs2 Se7 3.996024 1_665
Cs2 Se8 4.044281 1_555
Cs2 Se17 4.213964 1_555
Cs3 Se7 3.797266 1_555
Cs3 Se0 3.823850 1_555
Cs3 Se10 3.836934 1_555
Cs3 Se3 3.873545 1_455
Cs3 Se12 3.905212 1_555
Cs3 Se1 3.919097 1_555
Cs3 Se6 3.996024 1_445
Cs3 Se9 4.044281 1_555
Cs3 Se16 4.213964 1_555
Hg0 Se16 2.602302 1_555
Hg0 Se14 2.632060 1_556
Hg0 Se13 2.681360 1_555
Hg1 Se17 2.602302 1_555
Hg1 Se15 2.632060 1_554
Hg1 Se12 2.681360 1_555
B0 B10 1.771623 1_555
B0 B4 1.775722 1_555
B0 B2 1.783907 1_555
B0 B8 1.789631 1_555
B0 B6 1.800765 1_555
B0 Se0 2.017781 1_555
B1 B11 1.771623 1_555
B1 B5 1.775722 1_555
B1 B3 1.783907 1_555
B1 B9 1.789631 1_555
B1 B7 1.800765 1_555
B1 Se1 2.017781 1_555
B2 B7 1.792276 1_565
B2 B4 1.796197 1_555
B2 B9 1.799324 1_565
B2 Se2 2.025928 1_555
B3 B6 1.792276 1_545
B3 B5 1.796197 1_555
B3 B8 1.799324 1_545
B3 Se3 2.025928 1_555
B4 B6 1.782649 1_555
B4 B9 1.790074 1_565
B4 Se4 2.016747 1_555
B5 B7 1.782649 1_555
B5 B8 1.790074 1_545
B5 Se5 2.016747 1_555
B6 B8 1.799827 1_555
B6 Se6 2.024156 1_555
B7 B9 1.799827 1_555
B7 Se7 2.024156 1_555
B8 Se8 2.027200 1_555
B9 Se9 2.027200 1_555
B10 B5 1.772992 1_565
B10 B8 1.784514 1_555
B10 B2 1.790524 1_555
B10 B7 1.791937 1_565
B10 Se10 2.023075 1_555
B11 B4 1.772992 1_545
B11 B9 1.784514 1_555
B11 B3 1.790524 1_555
B11 B6 1.791937 1_545
B11 Se11 2.023075 1_555
B12 Se12 1.942725 1_555
B12 Se0 1.966720 1_555
B12 Se2 1.987258 1_555
B12 Cs3 3.854787 1_555
B13 Se13 1.942725 1_555
B13 Se1 1.966720 1_555
B13 Se3 1.987258 1_555
B13 Cs2 3.854787 1_555
B14 Se16 1.949214 1_555
B14 Se10 1.979051 1_555
B14 Se8 1.981206 1_555
B15 Se17 1.949214 1_555
B15 Se11 1.979051 1_555
B15 Se9 1.981206 1_555
B16 Se14 1.942365 1_555
B16 Se4 1.966645 1_555
B16 Se6 1.981623 1_555
B17 Se15 1.942365 1_555
B17 Se5 1.966645 1_555
B17 Se7 1.981623 1_555
