# generated using pymatgen
data_C8Cl3F2
_symmetry_space_group_name_H-M   'P 1'
_cell_length_a   4.93036400
_cell_length_b   11.16204500
_cell_length_c   15.63452673
_cell_angle_alpha   65.99694688
_cell_angle_beta   90.00000000
_cell_angle_gamma   90.00000000
_symmetry_Int_Tables_number   1
_chemical_formula_structural   C8Cl3F2
_chemical_formula_sum   'C32 Cl12 F8'
_cell_volume   786.00869499
_cell_formula_units_Z   4
loop_
 _symmetry_equiv_pos_site_id
 _symmetry_equiv_pos_as_xyz
  1  'x, y, z'
loop_
 _atom_site_type_symbol
 _atom_site_label
 _atom_site_symmetry_multiplicity
 _atom_site_fract_x
 _atom_site_fract_y
 _atom_site_fract_z
 _atom_site_occupancy
  C  C0  1  0.98862600  0.81643400  0.03192000  1
  C  C1  1  0.01137400  0.18356600  0.96808000  1
  C  C2  1  0.48862600  0.18356600  0.46808000  1
  C  C3  1  0.51137400  0.81643400  0.53192000  1
  C  C4  1  0.32739000  0.85853200  0.13231700  1
  C  C5  1  0.67261000  0.14146800  0.86768300  1
  C  C6  1  0.82739000  0.14146800  0.36768300  1
  C  C7  1  0.17261000  0.85853200  0.63231700  1
  C  C8  1  0.27230100  0.99733800  0.08788200  1
  C  C9  1  0.72769900  0.00266200  0.91211800  1
  C  C10  1  0.77230100  0.00266200  0.41211800  1
  C  C11  1  0.22769900  0.99733800  0.58788200  1
  C  C12  1  0.57048700  0.95460400  0.48583500  1
  C  C13  1  0.42951300  0.04539600  0.51416500  1
  C  C14  1  0.07048700  0.04539600  0.01416500  1
  C  C15  1  0.92951300  0.95460400  0.98583500  1
  C  C16  1  0.85170600  0.77565400  0.43133200  1
  C  C17  1  0.14829400  0.22434600  0.56866800  1
  C  C18  1  0.35170600  0.22434600  0.06866800  1
  C  C19  1  0.64829400  0.77565400  0.93133200  1
  C  C20  1  0.18850900  0.77136700  0.10615500  1
  C  C21  1  0.81149100  0.22863300  0.89384500  1
  C  C22  1  0.68850900  0.22863300  0.39384500  1
  C  C23  1  0.31149100  0.77136700  0.60615500  1
  C  C24  1  0.84301600  0.73115700  0.00229000  1
  C  C25  1  0.15698400  0.26884300  0.99771000  1
  C  C26  1  0.34301600  0.26884300  0.49771000  1
  C  C27  1  0.65698400  0.73115700  0.50229000  1
  C  C28  1  0.90560000  0.90921000  0.38777100  1
  C  C29  1  0.09440000  0.09079000  0.61222900  1
  C  C30  1  0.40560000  0.09079000  0.11222900  1
  C  C31  1  0.59440000  0.90921000  0.88777100  1
  Cl  Cl0  1  0.76082800  0.39302900  0.33468800  1
  Cl  Cl1  1  0.23917200  0.60697100  0.66531200  1
  Cl  Cl2  1  0.26082800  0.60697100  0.16531200  1
  Cl  Cl3  1  0.73917200  0.39302900  0.83468800  1
  Cl  Cl4  1  0.52514700  0.33253700  0.10045800  1
  Cl  Cl5  1  0.47485300  0.66746300  0.89954200  1
  Cl  Cl6  1  0.02514700  0.66746300  0.39954200  1
  Cl  Cl7  1  0.97485300  0.33253700  0.60045800  1
  Cl  Cl8  1  0.56899700  0.79608000  0.21900700  1
  Cl  Cl9  1  0.43100300  0.20392000  0.78099300  1
  Cl  Cl10  1  0.06899700  0.20392000  0.28099300  1
  Cl  Cl11  1  0.93100300  0.79608000  0.71900700  1
  F  F0  1  0.09766100  0.94389500  0.32006000  1
  F  F1  1  0.90233900  0.05610500  0.67994000  1
  F  F2  1  0.59766100  0.05610500  0.17994000  1
  F  F3  1  0.40233900  0.94389500  0.82006000  1
  F  F4  1  0.88235500  0.60059100  0.04127800  1
  F  F5  1  0.11764500  0.39940900  0.95872200  1
  F  F6  1  0.38235500  0.39940900  0.45872200  1
  F  F7  1  0.61764500  0.60059100  0.54127800  1
loop_
_geom_bond_atom_site_label_1
_geom_bond_atom_site_label_2
_geom_bond_distance
_geom_bond_site_symmetry_2
C0 C24 1.412371 1_555
C0 C15 1.441733 1_554
C0 C20 1.447865 1_655
C1 C25 1.412371 1_555
C1 C14 1.441733 1_556
C1 C21 1.447865 1_455
C2 C26 1.412371 1_555
C2 C22 1.447865 1_555
C4 C8 1.442642 1_555
C4 Cl8 1.724310 1_555
C5 C9 1.442642 1_555
C5 Cl9 1.724310 1_555
C6 Cl10 1.724310 1_655
C7 Cl11 1.724310 1_455
C10 C28 1.409949 1_545
C10 C6 1.442642 1_555
C10 C12 1.450224 1_545
C11 C29 1.409949 1_565
C11 C7 1.442642 1_555
C11 C13 1.450224 1_565
C12 C13 1.439271 1_565
C12 C3 1.441733 1_555
C13 C2 1.441733 1_555
C14 C15 1.439271 1_444
C14 C8 1.450224 1_545
C15 C9 1.450224 1_565
C16 C28 1.389530 1_555
C16 C27 1.396730 1_555
C16 Cl6 1.710255 1_655
C17 C29 1.389530 1_555
C17 C26 1.396730 1_555
C17 Cl7 1.710255 1_455
C18 C30 1.389530 1_555
C18 C25 1.396730 1_554
C18 Cl4 1.710255 1_555
C19 C31 1.389530 1_555
C19 C24 1.396730 1_556
C19 Cl5 1.710255 1_555
C20 C4 1.380778 1_555
C20 Cl2 1.723078 1_555
C21 C5 1.380778 1_555
C21 Cl3 1.723078 1_555
C22 C6 1.380778 1_555
C22 Cl0 1.723078 1_555
C23 C7 1.380778 1_555
C23 C3 1.447865 1_555
C23 Cl1 1.723078 1_555
C24 F4 1.345512 1_555
C25 F5 1.345512 1_555
C26 F6 1.345512 1_555
C27 F7 1.345512 1_555
C27 C3 1.412371 1_555
C28 F0 1.354185 1_655
C29 F1 1.354185 1_455
C30 F2 1.354185 1_555
C30 C8 1.409949 1_545
C31 F3 1.354185 1_555
C31 C9 1.409949 1_565
