# generated using pymatgen
data_SrMgO2
_symmetry_space_group_name_H-M   'P 1'
_cell_length_a   3.35649363
_cell_length_b   3.35649363
_cell_length_c   5.85170507
_cell_angle_alpha   106.66625243
_cell_angle_beta   73.33374757
_cell_angle_gamma   119.99999986
_symmetry_Int_Tables_number   1
_chemical_formula_structural   SrMgO2
_chemical_formula_sum   'Sr1 Mg1 O2'
_cell_volume   53.87165800
_cell_formula_units_Z   1
loop_
 _symmetry_equiv_pos_site_id
 _symmetry_equiv_pos_as_xyz
  1  'x, y, z'
loop_
 _atom_site_type_symbol
 _atom_site_label
 _atom_site_symmetry_multiplicity
 _atom_site_fract_x
 _atom_site_fract_y
 _atom_site_fract_z
 _atom_site_occupancy
  Sr  Sr0  1  0.50000000  0.50000000  0.50000000  1
  Mg  Mg0  1  0.00000000  0.00000000  -0.00000000  1
  O  O0  1  0.26230443  0.73769557  0.21308670  1
  O  O1  1  0.73769557  0.26230443  0.78691330  1
loop_
_geom_bond_atom_site_label_1
_geom_bond_atom_site_label_2
_geom_bond_distance
_geom_bond_site_symmetry_2
Mg0 O0 2.267079 1_445
Mg0 O0 2.267079 1_555
Mg0 O1 2.267079 1_554
Mg0 O1 2.267079 1_444
Mg0 O0 2.267079 1_545
Mg0 O1 2.267079 1_454
O0 Sr0 2.503003 1_565
O0 Sr0 2.503003 1_455
O0 Sr0 2.503003 1_555
O1 Sr0 2.503003 1_655
O1 Sr0 2.503003 1_545
O1 Sr0 2.503003 1_555
