# generated using pymatgen
data_VCl2O
_symmetry_space_group_name_H-M   'P 1'
_cell_length_a   3.50306006
_cell_length_b   14.75448449
_cell_length_c   7.06839250
_cell_angle_alpha   81.28355868
_cell_angle_beta   104.36570380
_cell_angle_gamma   83.17630852
_symmetry_Int_Tables_number   1
_chemical_formula_structural   VCl2O
_chemical_formula_sum   'V4 Cl8 O4'
_cell_volume   345.12617565
_cell_formula_units_Z   4
loop_
 _symmetry_equiv_pos_site_id
 _symmetry_equiv_pos_as_xyz
  1  'x, y, z'
loop_
 _atom_site_type_symbol
 _atom_site_label
 _atom_site_symmetry_multiplicity
 _atom_site_fract_x
 _atom_site_fract_y
 _atom_site_fract_z
 _atom_site_occupancy
  V  V0  1  0.26537600  0.73451600  0.26533500  1
  V  V1  1  0.01543700  0.98442700  0.01561900  1
  V  V2  1  0.76547300  0.23453100  0.76556700  1
  V  V3  1  0.51538800  0.48441300  0.51566000  1
  Cl  Cl0  1  0.15663100  0.21760100  0.53115300  1
  Cl  Cl1  1  0.90701600  0.46724400  0.28167200  1
  Cl  Cl2  1  0.65664900  0.71751000  0.03110100  1
  Cl  Cl3  1  0.40692200  0.96736300  0.78142200  1
  Cl  Cl4  1  0.34549100  0.28044400  0.97110400  1
  Cl  Cl5  1  0.09555100  0.53011700  0.72120800  1
  Cl  Cl6  1  0.84549300  0.78029700  0.47087700  1
  Cl  Cl7  1  0.59553100  0.03021700  0.22120400  1
  O  O0  1  0.62871400  0.37148400  0.62851300  1
  O  O1  1  0.37837500  0.62157100  0.37810000  1
  O  O2  1  0.12865300  0.87153100  0.12837700  1
  O  O3  1  0.87840200  0.12163200  0.87818600  1
loop_
_geom_bond_atom_site_label_1
_geom_bond_atom_site_label_2
_geom_bond_distance
_geom_bond_site_symmetry_2
Cl0 V2 2.419739 1_555
Cl0 V2 2.419945 1_455
Cl1 V3 2.418199 1_655
Cl1 V3 2.419101 1_555
Cl2 V0 2.419185 1_655
Cl2 V0 2.419323 1_555
Cl3 V1 2.418788 1_656
Cl3 V1 2.419761 1_556
Cl4 V2 2.419950 1_555
Cl4 V2 2.420439 1_455
Cl5 V3 2.418725 1_555
Cl5 V3 2.419391 1_455
Cl6 V0 2.419146 1_655
Cl6 V0 2.419789 1_555
Cl7 V1 2.419486 1_645
Cl7 V1 2.419925 1_545
O0 V3 1.689082 1_555
O0 V2 2.048771 1_555
O1 V0 1.689126 1_555
O1 V3 2.052403 1_555
O2 V1 1.688472 1_555
O2 V0 2.049403 1_555
O3 V2 1.688252 1_555
O3 V1 2.052779 1_646
