# generated using pymatgen
data_RbMo2P3O13
_symmetry_space_group_name_H-M   'P 1'
_cell_length_a   6.49584176
_cell_length_b   9.92708187
_cell_length_c   19.72600900
_cell_angle_alpha   90.00000000
_cell_angle_beta   90.00000000
_cell_angle_gamma   107.06833380
_symmetry_Int_Tables_number   1
_chemical_formula_structural   RbMo2P3O13
_chemical_formula_sum   'Rb4 Mo8 P12 O52'
_cell_volume   1216.00087873
_cell_formula_units_Z   4
loop_
 _symmetry_equiv_pos_site_id
 _symmetry_equiv_pos_as_xyz
  1  'x, y, z'
loop_
 _atom_site_type_symbol
 _atom_site_label
 _atom_site_symmetry_multiplicity
 _atom_site_fract_x
 _atom_site_fract_y
 _atom_site_fract_z
 _atom_site_occupancy
  Rb  Rb0  1  0.78560200  0.37332600  0.01825400  1
  Rb  Rb1  1  0.22474300  0.01529700  0.33792300  1
  Rb  Rb2  1  0.21439800  0.62667400  0.51825400  1
  Rb  Rb3  1  0.77525700  0.98470300  0.83792300  1
  Mo  Mo0  1  0.56008400  0.37345900  0.46354600  1
  Mo  Mo1  1  0.43991600  0.62654100  0.96354600  1
  Mo  Mo2  1  0.14103700  0.07175300  0.00632900  1
  Mo  Mo3  1  0.85896300  0.92824600  0.50632900  1
  Mo  Mo4  1  0.36226400  0.94605500  0.68100400  1
  Mo  Mo5  1  0.63773600  0.05394500  0.18100400  1
  Mo  Mo6  1  0.06353900  0.39162400  0.71800300  1
  Mo  Mo7  1  0.93646100  0.60837700  0.21800300  1
  P  P0  1  0.48101200  0.69841900  0.25210100  1
  P  P1  1  0.51898900  0.30158100  0.75210100  1
  P  P2  1  0.01292700  0.28415400  0.43084300  1
  P  P3  1  0.98707400  0.71584600  0.93084300  1
  P  P4  1  0.75639900  0.29261800  0.30834600  1
  P  P5  1  0.24360100  0.70738200  0.80834600  1
  P  P6  1  0.59746700  0.97070000  0.01850900  1
  P  P7  1  0.90471000  0.04059100  0.66567600  1
  P  P8  1  0.73940800  0.69385800  0.37478600  1
  P  P9  1  0.26059200  0.30614200  0.87478600  1
  P  P10  1  0.09528900  0.95940900  0.16567600  1
  P  P11  1  0.40253300  0.02930000  0.51850900  1
  O  O0  1  0.44407100  0.57824000  0.04627500  1
  O  O1  1  0.55593000  0.42176000  0.54627500  1
  O  O2  1  0.17679600  0.93378400  0.49686900  1
  O  O3  1  0.82320500  0.06621700  0.99686900  1
  O  O4  1  0.45454900  0.16177800  0.47369500  1
  O  O5  1  0.54545100  0.83822300  0.97369500  1
  O  O6  1  0.20865400  0.22617200  0.05049900  1
  O  O7  1  0.79134600  0.77382800  0.55049900  1
  O  O8  1  0.93252600  0.55558300  0.13557900  1
  O  O9  1  0.06747400  0.44441700  0.63557900  1
  O  O10  1  0.07742900  0.93802600  0.08822600  1
  O  O11  1  0.92257200  0.06197400  0.58822600  1
  O  O12  1  0.71412500  0.20781100  0.13590400  1
  O  O13  1  0.28587500  0.79218900  0.63590400  1
  O  O14  1  0.97120600  0.29067000  0.35025400  1
  O  O15  1  0.02879400  0.70933000  0.85025400  1
  O  O16  1  0.52438100  0.69471100  0.33359900  1
  O  O17  1  0.47561900  0.30528900  0.83359900  1
  O  O18  1  0.82267500  0.83961100  0.40885200  1
  O  O19  1  0.33084900  0.85516300  0.77727600  1
  O  O20  1  0.66421400  0.58087500  0.42939500  1
  O  O21  1  0.33578500  0.41912500  0.92939500  1
  O  O22  1  0.58251600  0.93015200  0.09390600  1
  O  O23  1  0.41748400  0.06984800  0.59390600  1
  O  O24  1  0.12204100  0.63353100  0.96700800  1
  O  O25  1  0.87795900  0.36646900  0.46700800  1
  O  O26  1  0.37725400  0.37951700  0.71728000  1
  O  O27  1  0.62274600  0.62048200  0.21728000  1
  O  O28  1  0.05981500  0.96234000  0.69380700  1
  O  O29  1  0.94018500  0.03765900  0.19380700  1
  O  O30  1  0.03675000  0.87032500  0.94922300  1
  O  O31  1  0.96325100  0.12967500  0.44922300  1
  O  O32  1  0.74963600  0.62902900  0.93864400  1
  O  O33  1  0.25036400  0.37097100  0.43864400  1
  O  O34  1  0.67858700  0.94985400  0.68827000  1
  O  O35  1  0.32141300  0.05014600  0.18827100  1
  O  O36  1  0.09430000  0.32932100  0.82544200  1
  O  O37  1  0.90570000  0.67067900  0.32544200  1
  O  O38  1  0.46967300  0.14643000  0.73356500  1
  O  O39  1  0.53032700  0.85357000  0.23356500  1
  O  O40  1  0.75645800  0.38640000  0.74551000  1
  O  O41  1  0.24354300  0.61360000  0.24551000  1
  O  O42  1  0.40626700  0.68140700  0.85854000  1
  O  O43  1  0.59373300  0.31859300  0.35854000  1
  O  O44  1  0.95157000  0.18280600  0.70219300  1
  O  O45  1  0.04843000  0.81719400  0.20219300  1
  O  O46  1  0.16839700  0.59493600  0.75472700  1
  O  O47  1  0.83160200  0.40506400  0.25472700  1
  O  O48  1  0.55272200  0.94043900  0.49804300  1
  O  O49  1  0.44727900  0.05956100  0.99804300  1
  O  O50  1  0.17732500  0.16038900  0.90885200  1
  O  O51  1  0.66915100  0.14483700  0.27727600  1
loop_
_geom_bond_atom_site_label_1
_geom_bond_atom_site_label_2
_geom_bond_distance
_geom_bond_site_symmetry_2
Mo0 O1 1.703341 1_555
Mo0 O4 2.019942 1_555
Mo0 O33 2.064084 1_555
Mo0 O20 2.081682 1_555
Mo0 O25 2.087405 1_555
Mo0 O43 2.169056 1_555
Mo1 O0 1.703342 1_556
Mo1 O5 2.019952 1_555
Mo1 O32 2.064084 1_555
Mo1 O21 2.081682 1_555
Mo1 O24 2.087405 1_555
Mo1 O42 2.169056 1_555
Mo2 O6 1.704907 1_555
Mo2 O49 2.034702 1_554
Mo2 O10 2.054479 1_545
Mo2 O3 2.057609 1_454
Mo2 O50 2.098883 1_554
Mo2 O30 2.220597 1_544
Mo3 O7 1.704899 1_555
Mo3 O48 2.034699 1_555
Mo3 O11 2.054485 1_565
Mo3 O2 2.057610 1_655
Mo3 O18 2.098880 1_555
Mo3 O31 2.220605 1_565
Mo4 O13 1.710509 1_555
Mo4 O28 2.033779 1_555
Mo4 O34 2.049052 1_555
Mo4 O23 2.081336 1_565
Mo4 O19 2.086654 1_555
Mo4 O38 2.168818 1_565
Mo5 O12 1.710509 1_555
Mo5 O29 2.033782 1_555
Mo5 O35 2.049053 1_555
Mo5 O22 2.081336 1_545
Mo5 O51 2.086654 1_555
Mo5 O39 2.168818 1_545
Mo6 O9 1.706162 1_555
Mo6 O44 2.009562 1_455
Mo6 O40 2.053146 1_455
Mo6 O46 2.062824 1_555
Mo6 O26 2.076350 1_555
Mo6 O36 2.233073 1_555
Mo7 O8 1.706165 1_555
Mo7 O45 2.009553 1_655
Mo7 O41 2.053155 1_655
Mo7 O47 2.062833 1_555
Mo7 O27 2.076343 1_555
Mo7 O37 2.233070 1_555
O2 P11 1.554120 1_565
O2 Rb2 3.157429 1_555
O2 Rb1 3.230230 1_565
O3 P6 1.554128 1_546
O3 Rb0 3.157421 1_556
O3 Rb3 3.230233 1_545
O4 P11 1.537633 1_555
O4 Rb1 3.200251 1_555
O5 P6 1.537625 1_556
O5 Rb3 3.200248 1_555
O8 Rb0 2.920093 1_555
O9 Rb2 2.920093 1_555
O10 P10 1.542132 1_555
O11 P7 1.542133 1_555
O12 Rb0 2.802393 1_555
O13 Rb2 2.802393 1_555
O14 P2 1.617117 1_655
O14 P4 1.626843 1_555
O14 Rb1 3.589886 1_655
O15 P3 1.617116 1_455
O15 P5 1.626843 1_555
O15 Rb3 3.589886 1_455
O16 P8 1.618053 1_555
O16 P0 1.634406 1_555
O17 P9 1.618053 1_555
O17 P1 1.634407 1_555
O18 P8 1.542154 1_555
O18 Rb1 3.024357 1_665
O19 P5 1.536538 1_555
O19 Rb3 3.039621 1_555
O20 P8 1.528186 1_555
O21 P9 1.528185 1_555
O22 P6 1.536397 1_555
O23 P11 1.536397 1_555
O24 P3 1.538133 1_455
O24 Rb0 3.025972 1_456
O25 P2 1.538138 1_655
O25 Rb2 3.025972 1_655
O26 P1 1.528461 1_555
O27 P0 1.528463 1_555
O28 P7 1.544644 1_465
O28 Rb3 3.433456 1_455
O29 P10 1.544632 1_645
O29 Rb1 3.433453 1_655
O30 P3 1.515517 1_455
O30 Rb3 3.182286 1_455
O31 P2 1.515517 1_655
O31 Rb1 3.182282 1_655
O32 P3 1.537859 1_555
O32 Rb0 3.051594 1_556
O33 P2 1.537853 1_555
O33 Rb2 3.051594 1_555
O34 P7 1.546242 1_565
O34 Rb3 3.016806 1_555
O35 P10 1.546253 1_545
O35 Rb1 3.016787 1_555
O36 P9 1.520898 1_555
O36 Rb3 3.449244 1_445
O37 P8 1.520898 1_555
O37 Rb1 3.449244 1_665
O38 P1 1.522789 1_555
O38 Rb3 3.553361 1_545
O39 P0 1.522789 1_555
O39 Rb1 3.553361 1_565
O40 P1 1.530659 1_555
O41 P0 1.530659 1_555
O42 P5 1.524237 1_555
O42 Rb3 3.277093 1_555
O43 P4 1.524237 1_555
O43 Rb1 3.277093 1_555
O44 P7 1.533752 1_555
O44 Rb3 3.320471 1_545
O45 P10 1.533752 1_555
O45 Rb1 3.320471 1_565
O46 P5 1.511053 1_555
O47 P4 1.511052 1_555
O48 P11 1.548593 1_565
O48 Rb2 3.266842 1_555
O49 P6 1.548588 1_546
O49 Rb0 3.266839 1_556
O50 P9 1.542154 1_555
O50 Rb3 3.024357 1_445
O51 P4 1.536538 1_555
O51 Rb1 3.039621 1_555
