# generated using pymatgen
data_Eu2(CuNi)5
_symmetry_space_group_name_H-M   'P 1'
_cell_length_a   3.93784560
_cell_length_b   5.00273969
_cell_length_c   8.70111468
_cell_angle_alpha   89.99989468
_cell_angle_beta   90.00000000
_cell_angle_gamma   90.00000000
_symmetry_Int_Tables_number   1
_chemical_formula_structural   Eu2(CuNi)5
_chemical_formula_sum   'Eu2 Cu5 Ni5'
_cell_volume   171.41210256
_cell_formula_units_Z   1
loop_
 _symmetry_equiv_pos_site_id
 _symmetry_equiv_pos_as_xyz
  1  'x, y, z'
loop_
 _atom_site_type_symbol
 _atom_site_label
 _atom_site_symmetry_multiplicity
 _atom_site_fract_x
 _atom_site_fract_y
 _atom_site_fract_z
 _atom_site_occupancy
  Eu  Eu0  1  0.00000000  0.50000000  0.00000000  1
  Eu  Eu1  1  -0.00000000  0.00000000  0.50000000  1
  Cu  Cu0  1  -0.00000000  0.50000085  0.33352736  1
  Cu  Cu1  1  0.00000000  0.00000049  0.82787578  1
  Cu  Cu2  1  0.00000000  -0.00000049  0.17212422  1
  Cu  Cu3  1  -0.00000000  0.49999915  0.66647264  1
  Cu  Cu4  1  0.50000000  0.00000000  0.00000000  1
  Ni  Ni0  1  0.50000000  0.50000000  0.50000000  1
  Ni  Ni1  1  0.50000000  0.75042271  0.25265515  1
  Ni  Ni2  1  0.50000000  0.24957729  0.74734485  1
  Ni  Ni3  1  0.50000000  0.24957996  0.25265521  1
  Ni  Ni4  1  0.50000000  0.75042004  0.74734479  1
loop_
_geom_bond_atom_site_label_1
_geom_bond_atom_site_label_2
_geom_bond_distance
_geom_bond_site_symmetry_2
Eu0 Ni4 3.206089 1_454
Eu0 Ni3 3.206089 1_455
Eu0 Ni4 3.206089 1_554
Eu0 Ni3 3.206089 1_555
Eu0 Ni2 3.206097 1_554
Eu0 Ni2 3.206097 1_454
Eu0 Ni1 3.206097 1_555
Eu0 Ni1 3.206097 1_455
Eu1 Ni2 3.172925 1_455
Eu1 Ni2 3.172925 1_555
Eu1 Ni1 3.172925 1_545
Eu1 Ni1 3.172925 1_445
Eu1 Ni3 3.172927 1_455
Eu1 Ni3 3.172927 1_555
Eu1 Ni4 3.172927 1_545
Eu1 Ni4 3.172927 1_445
Eu1 Ni0 3.183317 1_555
Eu1 Ni0 3.183317 1_445
Eu1 Ni0 3.183317 1_545
Eu1 Ni0 3.183317 1_455
Cu0 Ni3 2.437480 1_455
Cu0 Ni3 2.437480 1_555
Cu0 Ni1 2.437481 1_455
Cu0 Ni1 2.437481 1_555
Cu0 Ni0 2.444341 1_555
Cu0 Ni0 2.444341 1_455
Cu0 Eu1 2.890500 1_565
Cu0 Eu1 2.890502 1_555
Cu0 Eu0 2.902060 1_555
Cu1 Ni2 2.434454 1_555
Cu1 Ni2 2.434454 1_455
Cu1 Ni4 2.434465 1_545
Cu1 Ni4 2.434465 1_445
Cu1 Cu4 2.473799 1_556
Cu1 Cu4 2.473799 1_456
Cu1 Eu1 2.852885 1_555
Cu1 Eu0 2.915454 1_546
Cu1 Eu0 2.915455 1_556
Cu2 Ni1 2.434454 1_545
Cu2 Ni1 2.434454 1_445
Cu2 Ni3 2.434465 1_455
Cu2 Ni3 2.434465 1_555
Cu2 Cu4 2.473799 1_555
Cu2 Cu4 2.473799 1_455
Cu2 Eu1 2.852885 1_555
Cu2 Eu0 2.915454 1_555
Cu2 Eu0 2.915455 1_545
Cu3 Ni4 2.437480 1_455
Cu3 Ni4 2.437480 1_555
Cu3 Ni2 2.437481 1_555
Cu3 Ni2 2.437481 1_455
Cu3 Ni0 2.444341 1_555
Cu3 Ni0 2.444341 1_455
Cu3 Eu1 2.890500 1_555
Cu3 Eu1 2.890502 1_565
Cu3 Eu0 2.902060 1_556
Cu4 Ni1 2.528201 1_545
Cu4 Ni2 2.528201 1_554
Cu4 Ni3 2.528212 1_555
Cu4 Ni4 2.528212 1_544
Cu4 Eu0 3.183317 1_555
Cu4 Eu0 3.183317 1_545
Cu4 Eu0 3.183317 1_655
Cu4 Eu0 3.183317 1_645
Ni0 Ni3 2.490249 1_555
Ni0 Ni4 2.490249 1_555
Ni0 Ni2 2.490253 1_555
Ni0 Ni1 2.490253 1_555
Ni1 Ni3 2.497154 1_565
Ni1 Ni3 2.505586 1_555
Ni2 Ni4 2.497154 1_545
Ni2 Ni4 2.505586 1_555
