# generated using pymatgen
data_Y2WO6
_symmetry_space_group_name_H-M   'P 1'
_cell_length_a   5.38082200
_cell_length_b   5.43589900
_cell_length_c   8.21511100
_cell_angle_alpha   90.00000000
_cell_angle_beta   90.00000000
_cell_angle_gamma   90.00000000
_symmetry_Int_Tables_number   1
_chemical_formula_structural   Y2WO6
_chemical_formula_sum   'Y4 W2 O12'
_cell_volume   240.28875120
_cell_formula_units_Z   2
loop_
 _symmetry_equiv_pos_site_id
 _symmetry_equiv_pos_as_xyz
  1  'x, y, z'
loop_
 _atom_site_type_symbol
 _atom_site_label
 _atom_site_symmetry_multiplicity
 _atom_site_fract_x
 _atom_site_fract_y
 _atom_site_fract_z
 _atom_site_occupancy
  Y  Y0  1  0.00000000  0.50000000  0.00458400  1
  Y  Y1  1  0.50000000  0.00000000  0.99541600  1
  Y  Y2  1  0.50000000  0.50000000  0.67320800  1
  Y  Y3  1  0.00000000  0.00000000  0.32679200  1
  W  W0  1  0.50000000  0.50000000  0.27566700  1
  W  W1  1  0.00000000  0.00000000  0.72433300  1
  O  O0  1  0.26619000  0.25533500  0.16981000  1
  O  O1  1  0.73381000  0.25533500  0.16981000  1
  O  O2  1  0.26619000  0.74466500  0.16981000  1
  O  O3  1  0.73381000  0.74466500  0.16981000  1
  O  O4  1  0.23381000  0.24466500  0.83019000  1
  O  O5  1  0.76619000  0.24466500  0.83019000  1
  O  O6  1  0.23381000  0.75533500  0.83019000  1
  O  O7  1  0.76619000  0.75533500  0.83019000  1
  O  O8  1  0.26770900  0.50000000  0.44592200  1
  O  O9  1  0.73229100  0.50000000  0.44592200  1
  O  O10  1  0.23229100  0.00000000  0.55407800  1
  O  O11  1  0.76770900  0.00000000  0.55407800  1
loop_
_geom_bond_atom_site_label_1
_geom_bond_atom_site_label_2
_geom_bond_distance
_geom_bond_site_symmetry_2
O0 W0 2.026789 1_555
O0 Y1 2.358346 1_554
O0 Y3 2.375111 1_555
O0 Y0 2.379658 1_555
O1 W0 2.026789 1_555
O1 Y1 2.358346 1_554
O1 Y3 2.375111 1_655
O1 Y0 2.379658 1_655
O2 W0 2.026789 1_555
O2 Y1 2.358346 1_564
O2 Y3 2.375111 1_565
O2 Y0 2.379658 1_555
O3 W0 2.026789 1_555
O3 Y1 2.358346 1_564
O3 Y3 2.375111 1_665
O3 Y0 2.379658 1_655
O4 W1 2.026789 1_555
O4 Y0 2.358346 1_556
O4 Y2 2.375111 1_555
O4 Y1 2.379658 1_555
O5 W1 2.026789 1_655
O5 Y0 2.358346 1_656
O5 Y2 2.375111 1_555
O5 Y1 2.379658 1_555
O6 W1 2.026789 1_565
O6 Y0 2.358346 1_556
O6 Y2 2.375111 1_555
O6 Y1 2.379658 1_565
O7 W1 2.026789 1_665
O7 Y0 2.358346 1_656
O7 Y2 2.375111 1_555
O7 Y1 2.379658 1_565
O8 W0 1.875780 1_555
O8 Y2 2.246920 1_555
O9 W0 1.875780 1_555
O9 Y2 2.246920 1_555
O10 W1 1.875780 1_555
O10 Y3 2.246920 1_555
O11 W1 1.875780 1_655
O11 Y3 2.246920 1_655
