# generated using pymatgen
data_KLiTm2(MoO4)4
_symmetry_space_group_name_H-M   'P 1'
_cell_length_a   6.84324093
_cell_length_b   6.84324093
_cell_length_c   19.68718371
_cell_angle_alpha   88.57795335
_cell_angle_beta   88.57795335
_cell_angle_gamma   135.12999614
_symmetry_Int_Tables_number   1
_chemical_formula_structural   KLiTm2(MoO4)4
_chemical_formula_sum   'K2 Li2 Tm4 Mo8 O32'
_cell_volume   649.05946620
_cell_formula_units_Z   2
loop_
 _symmetry_equiv_pos_site_id
 _symmetry_equiv_pos_as_xyz
  1  'x, y, z'
loop_
 _atom_site_type_symbol
 _atom_site_label
 _atom_site_symmetry_multiplicity
 _atom_site_fract_x
 _atom_site_fract_y
 _atom_site_fract_z
 _atom_site_occupancy
  K  K0  1  0.53014900  0.46985100  0.25000000  1
  K  K1  1  0.46985100  0.53014900  0.75000000  1
  Li  Li0  1  0.81291100  0.18708900  0.25000000  1
  Li  Li1  1  0.18708900  0.81291100  0.75000000  1
  Tm  Tm0  1  0.64926000  0.35497700  0.03143900  1
  Tm  Tm1  1  0.35074000  0.64502300  0.96856100  1
  Tm  Tm2  1  0.64502300  0.35074000  0.46856100  1
  Tm  Tm3  1  0.35497700  0.64926000  0.53143900  1
  Mo  Mo0  1  0.91842200  0.04319300  0.09146100  1
  Mo  Mo1  1  0.08157800  0.95680700  0.90853900  1
  Mo  Mo2  1  0.95680700  0.08157800  0.40853900  1
  Mo  Mo3  1  0.04319300  0.91842200  0.59146100  1
  Mo  Mo4  1  0.23061300  0.74604400  0.14582100  1
  Mo  Mo5  1  0.76938700  0.25395600  0.85417900  1
  Mo  Mo6  1  0.25395600  0.76938700  0.35417900  1
  Mo  Mo7  1  0.74604400  0.23061300  0.64582100  1
  O  O0  1  0.66304000  0.00170800  0.04097400  1
  O  O1  1  0.33696000  0.99829200  0.95902600  1
  O  O2  1  0.99829200  0.33696000  0.45902600  1
  O  O3  1  0.00170800  0.66304000  0.54097400  1
  O  O4  1  0.49325800  0.77077700  0.17147300  1
  O  O5  1  0.50674200  0.22922300  0.82852700  1
  O  O6  1  0.22922300  0.50674200  0.32852700  1
  O  O7  1  0.77077700  0.49325800  0.67147300  1
  O  O8  1  0.71639000  0.75659900  0.46367200  1
  O  O9  1  0.28361000  0.24340100  0.53632800  1
  O  O10  1  0.24340100  0.28361000  0.03632800  1
  O  O11  1  0.75659900  0.71639000  0.96367200  1
  O  O12  1  0.44627900  0.92376200  0.43423000  1
  O  O13  1  0.55372100  0.07623800  0.56577000  1
  O  O14  1  0.07623800  0.55372100  0.06577000  1
  O  O15  1  0.92376200  0.44627900  0.93423000  1
  O  O16  1  0.79924300  0.98022200  0.32979700  1
  O  O17  1  0.20075700  0.01977800  0.67020300  1
  O  O18  1  0.01977800  0.20075700  0.17020300  1
  O  O19  1  0.98022200  0.79924300  0.82979700  1
  O  O20  1  0.72089100  0.81901500  0.60053400  1
  O  O21  1  0.27910900  0.18098500  0.39946600  1
  O  O22  1  0.18098500  0.27910900  0.89946600  1
  O  O23  1  0.81901500  0.72089100  0.10053400  1
  O  O24  1  0.40371400  0.10197300  0.12855300  1
  O  O25  1  0.59628600  0.89802700  0.87144700  1
  O  O26  1  0.89802700  0.59628600  0.37144700  1
  O  O27  1  0.10197300  0.40371400  0.62855300  1
  O  O28  1  0.43251700  0.02697000  0.28670900  1
  O  O29  1  0.56748300  0.97303000  0.71329100  1
  O  O30  1  0.97303000  0.56748300  0.21329100  1
  O  O31  1  0.02697000  0.43251700  0.78670900  1
loop_
_geom_bond_atom_site_label_1
_geom_bond_atom_site_label_2
_geom_bond_distance
_geom_bond_site_symmetry_2
K0 O28 2.674184 1_555
K0 O30 2.674184 1_555
K0 O6 2.700513 1_555
K0 O4 2.700513 1_555
K0 O18 3.058915 1_555
K0 O16 3.058915 1_555
K0 O26 3.180720 1_555
K0 O24 3.180720 1_555
K0 O23 3.188182 1_555
K0 O21 3.188182 1_555
K1 O31 2.674184 1_555
K1 O29 2.674184 1_555
K1 O7 2.700513 1_555
K1 O5 2.700513 1_555
K1 O19 3.058915 1_555
K1 O17 3.058915 1_555
K1 O25 3.180720 1_555
K1 O27 3.180720 1_555
K1 O20 3.188182 1_555
K1 O22 3.188182 1_555
Li0 O16 2.043381 1_545
Li0 O18 2.043381 1_655
Li0 O28 2.079319 1_555
Li0 O30 2.079319 1_555
Li1 O19 2.043381 1_455
Li1 O17 2.043381 1_565
Li1 O31 2.079319 1_555
Li1 O29 2.079319 1_555
Mo0 O18 1.767237 1_655
Mo0 O23 1.790819 1_545
Mo0 O10 1.853679 1_655
Mo0 O0 1.876101 1_555
Mo1 O19 1.767237 1_455
Mo1 O22 1.790819 1_565
Mo1 O11 1.853679 1_455
Mo1 O1 1.876101 1_555
Mo2 O16 1.767237 1_545
Mo2 O21 1.790819 1_655
Mo2 O8 1.853679 1_545
Mo2 O2 1.876101 1_555
Mo3 O17 1.767237 1_565
Mo3 O20 1.790819 1_455
Mo3 O9 1.853679 1_565
Mo3 O3 1.876101 1_555
Mo4 O30 1.764894 1_455
Mo4 O4 1.769812 1_555
Mo4 O24 1.816792 1_565
Mo4 O14 1.883278 1_555
Mo5 O31 1.764894 1_655
Mo5 O5 1.769812 1_555
Mo5 O25 1.816792 1_545
Mo5 O15 1.883278 1_555
Mo6 O28 1.764894 1_565
Mo6 O6 1.769812 1_555
Mo6 O26 1.816792 1_455
Mo6 O12 1.883278 1_555
Mo7 O29 1.764894 1_545
Mo7 O7 1.769812 1_555
Mo7 O27 1.816792 1_655
Mo7 O13 1.883278 1_555
O0 Tm1 2.342561 1_544
O0 Tm0 2.487960 1_555
O1 Tm0 2.342561 1_566
O1 Tm1 2.487960 1_555
O2 Tm3 2.342561 1_655
O2 Tm2 2.487960 1_555
O3 Tm2 2.342561 1_455
O3 Tm3 2.487960 1_555
O8 Tm3 2.376750 1_555
O8 Tm2 2.454273 1_555
O9 Tm2 2.376750 1_555
O9 Tm3 2.454273 1_555
O10 Tm1 2.376750 1_554
O10 Tm0 2.454273 1_555
O11 Tm0 2.376750 1_556
O11 Tm1 2.454273 1_555
O12 Tm2 2.314092 1_565
O12 Tm3 2.383322 1_555
O13 Tm3 2.314092 1_545
O13 Tm2 2.383322 1_555
O14 Tm0 2.314092 1_455
O14 Tm1 2.383322 1_554
O15 Tm1 2.314092 1_655
O15 Tm0 2.383322 1_556
O20 Tm3 2.365263 1_555
O21 Tm2 2.365263 1_555
O22 Tm1 2.365263 1_555
O23 Tm0 2.365263 1_555
O24 Tm0 2.242567 1_555
O25 Tm1 2.242567 1_555
O26 Tm2 2.242567 1_555
O27 Tm3 2.242567 1_555
