# generated using pymatgen
data_W3O8
_symmetry_space_group_name_H-M   'P 1'
_cell_length_a   5.16773400
_cell_length_b   5.45444989
_cell_length_c   6.95298596
_cell_angle_alpha   108.37311366
_cell_angle_beta   94.22067212
_cell_angle_gamma   104.67213540
_symmetry_Int_Tables_number   1
_chemical_formula_structural   W3O8
_chemical_formula_sum   'W3 O8'
_cell_volume   177.39860831
_cell_formula_units_Z   1
loop_
 _symmetry_equiv_pos_site_id
 _symmetry_equiv_pos_as_xyz
  1  'x, y, z'
loop_
 _atom_site_type_symbol
 _atom_site_label
 _atom_site_symmetry_multiplicity
 _atom_site_fract_x
 _atom_site_fract_y
 _atom_site_fract_z
 _atom_site_occupancy
  W  W0  1  0.50000000  0.00000000  0.00000000  1
  W  W1  1  0.24076200  0.53171900  0.18677300  1
  W  W2  1  0.75923800  0.46828100  0.81322700  1
  O  O0  1  0.16839100  0.70115000  0.42206800  1
  O  O1  1  0.36661700  0.25893000  0.22705900  1
  O  O2  1  0.12345900  0.70363400  0.97368500  1
  O  O3  1  0.42473500  0.22959500  0.83046400  1
  O  O4  1  0.63338300  0.74107000  0.77294100  1
  O  O5  1  0.83160900  0.29885000  0.57793200  1
  O  O6  1  0.87654100  0.29636600  0.02631500  1
  O  O7  1  0.57526500  0.77040500  0.16953600  1
loop_
_geom_bond_atom_site_label_1
_geom_bond_atom_site_label_2
_geom_bond_distance
_geom_bond_site_symmetry_2
O0 W1 1.726980 1_555
O1 W1 1.855126 1_555
O1 W0 2.051804 1_555
O2 W2 1.999837 1_455
O2 W1 2.115055 1_556
O2 W0 2.144919 1_566
O3 W2 1.919963 1_555
O3 W0 2.054013 1_556
O4 W2 1.855126 1_555
O4 W0 2.051804 1_566
O5 W2 1.726980 1_555
O6 W1 1.999837 1_655
O6 W2 2.115055 1_554
O6 W0 2.144919 1_555
O7 W1 1.919963 1_555
O7 W0 2.054013 1_565
