# generated using pymatgen
data_Na3Tm(SiO3)3
_symmetry_space_group_name_H-M   'P 1'
_cell_length_a   15.13168150
_cell_length_b   15.22311150
_cell_length_c   15.31244234
_cell_angle_alpha   90.00000000
_cell_angle_beta   90.00000000
_cell_angle_gamma   90.00000000
_symmetry_Int_Tables_number   1
_chemical_formula_structural   Na3Tm(SiO3)3
_chemical_formula_sum   'Na48 Tm16 Si48 O144'
_cell_volume   3527.24061113
_cell_formula_units_Z   16
loop_
 _symmetry_equiv_pos_site_id
 _symmetry_equiv_pos_as_xyz
  1  'x, y, z'
loop_
 _atom_site_type_symbol
 _atom_site_label
 _atom_site_symmetry_multiplicity
 _atom_site_fract_x
 _atom_site_fract_y
 _atom_site_fract_z
 _atom_site_occupancy
  Na  Na0  1  0.89010782  0.13111625  0.15261113  1
  Na  Na1  1  0.39010782  0.86888375  0.34738887  1
  Na  Na2  1  0.10989218  0.36888375  0.65261113  1
  Na  Na3  1  0.60989218  0.63111625  0.84738887  1
  Na  Na4  1  0.12737761  0.33151771  0.11730402  1
  Na  Na5  1  0.62737761  0.66848229  0.38269598  1
  Na  Na6  1  0.87262239  0.16848229  0.61730402  1
  Na  Na7  1  0.37262239  0.83151771  0.88269598  1
  Na  Na8  1  0.13813154  0.40798140  0.39265430  1
  Na  Na9  1  0.63813154  0.59201860  0.10734570  1
  Na  Na10  1  0.86186846  0.09201860  0.89265430  1
  Na  Na11  1  0.36186846  0.90798140  0.60734570  1
  Na  Na12  1  0.49683151  0.05305900  0.44753181  1
  Na  Na13  1  0.99683151  0.94694100  0.05246819  1
  Na  Na14  1  0.50316849  0.44694100  0.94753181  1
  Na  Na15  1  0.00316849  0.55305900  0.55246819  1
  Na  Na16  1  0.39788315  0.37705332  0.16186829  1
  Na  Na17  1  0.89788315  0.62294668  0.33813171  1
  Na  Na18  1  0.60211685  0.12294668  0.66186829  1
  Na  Na19  1  0.10211685  0.87705332  0.83813171  1
  Na  Na20  1  0.34787199  0.09846705  0.12051067  1
  Na  Na21  1  0.84787199  0.90153295  0.37948933  1
  Na  Na22  1  0.65212801  0.40153295  0.62051067  1
  Na  Na23  1  0.15212801  0.59846705  0.87948933  1
  Na  Na24  1  0.85292929  0.38073825  0.14960401  1
  Na  Na25  1  0.35292929  0.61926175  0.35039599  1
  Na  Na26  1  0.14707071  0.11926175  0.64960401  1
  Na  Na27  1  0.64707071  0.88073825  0.85039599  1
  Na  Na28  1  0.99565550  0.49268975  0.00412145  1
  Na  Na29  1  0.49565550  0.50731025  0.49587855  1
  Na  Na30  1  0.00434450  0.00731025  0.50412145  1
  Na  Na31  1  0.50434450  0.99268975  0.99587855  1
  Na  Na32  1  0.62931628  0.15602272  0.09804298  1
  Na  Na33  1  0.12931628  0.84397728  0.40195702  1
  Na  Na34  1  0.37068372  0.34397728  0.59804298  1
  Na  Na35  1  0.87068372  0.65602272  0.90195702  1
  Na  Na36  1  0.70153835  0.25208265  0.29476358  1
  Na  Na37  1  0.20153835  0.74791735  0.20523642  1
  Na  Na38  1  0.29846165  0.24791735  0.79476358  1
  Na  Na39  1  0.79846165  0.75208265  0.70523642  1
  Na  Na40  1  0.87956567  0.37096036  0.41111008  1
  Na  Na41  1  0.37956567  0.62903964  0.08888992  1
  Na  Na42  1  0.12043433  0.12903964  0.91111008  1
  Na  Na43  1  0.62043433  0.87096036  0.58888992  1
  Na  Na44  1  0.24925363  0.20847005  0.28975625  1
  Na  Na45  1  0.74925363  0.79152995  0.21024375  1
  Na  Na46  1  0.75074637  0.29152995  0.78975625  1
  Na  Na47  1  0.25074637  0.70847005  0.71024375  1
  Tm  Tm0  1  0.86673371  0.12498632  0.37794984  1
  Tm  Tm1  1  0.36673371  0.87501368  0.12205016  1
  Tm  Tm2  1  0.13326629  0.37501368  0.87794984  1
  Tm  Tm3  1  0.63326629  0.62498632  0.62205016  1
  Tm  Tm4  1  0.61369655  0.37017521  0.12874328  1
  Tm  Tm5  1  0.11369655  0.62982479  0.37125672  1
  Tm  Tm6  1  0.38630345  0.12982479  0.62874328  1
  Tm  Tm7  1  0.88630345  0.87017521  0.87125672  1
  Tm  Tm8  1  0.35909512  0.38712153  0.37930480  1
  Tm  Tm9  1  0.85909512  0.61287847  0.12069520  1
  Tm  Tm10  1  0.64090488  0.11287847  0.87930480  1
  Tm  Tm11  1  0.14090488  0.88712153  0.62069520  1
  Tm  Tm12  1  0.12052970  0.11533561  0.13398737  1
  Tm  Tm13  1  0.62052970  0.88466439  0.36601263  1
  Tm  Tm14  1  0.87947030  0.38466439  0.63398737  1
  Tm  Tm15  1  0.37947030  0.61533561  0.86601263  1
  Si  Si0  1  0.25577452  0.03233159  0.46723662  1
  Si  Si1  1  0.75577452  0.96766841  0.03276338  1
  Si  Si2  1  0.74422548  0.46766841  0.96723662  1
  Si  Si3  1  0.24422548  0.53233159  0.53276338  1
  Si  Si4  1  0.52326179  0.25363091  0.47751701  1
  Si  Si5  1  0.02326179  0.74636909  0.02248299  1
  Si  Si6  1  0.47673821  0.24636909  0.97751701  1
  Si  Si7  1  0.97673821  0.75363091  0.52248299  1
  Si  Si8  1  0.51152445  0.02754109  0.22905852  1
  Si  Si9  1  0.01152445  0.97245891  0.27094148  1
  Si  Si10  1  0.48847555  0.47245891  0.72905852  1
  Si  Si11  1  0.98847555  0.52754109  0.77094148  1
  Si  Si12  1  0.27700784  0.46839393  0.02202794  1
  Si  Si13  1  0.77700784  0.53160607  0.47797206  1
  Si  Si14  1  0.72299216  0.03160607  0.52202794  1
  Si  Si15  1  0.22299216  0.96839393  0.97797206  1
  Si  Si16  1  0.22516502  0.22626586  0.49420738  1
  Si  Si17  1  0.72516502  0.77373414  0.00579262  1
  Si  Si18  1  0.77483498  0.27373414  0.99420738  1
  Si  Si19  1  0.27483498  0.72626586  0.50579262  1
  Si  Si20  1  0.72113578  0.02523157  0.22467334  1
  Si  Si21  1  0.22113578  0.97476843  0.27532666  1
  Si  Si22  1  0.27886422  0.47476843  0.72467334  1
  Si  Si23  1  0.77886422  0.52523157  0.77532666  1
  Si  Si24  1  0.72226529  0.49698233  0.28378468  1
  Si  Si25  1  0.22226529  0.50301767  0.21621532  1
  Si  Si26  1  0.27773471  0.00301767  0.78378468  1
  Si  Si27  1  0.77773471  0.99698233  0.71621532  1
  Si  Si28  1  0.49149740  0.22488066  0.27927027  1
  Si  Si29  1  0.99149740  0.77511934  0.22072973  1
  Si  Si30  1  0.50850260  0.27511934  0.77927027  1
  Si  Si31  1  0.00850260  0.72488066  0.72072973  1
  Si  Si32  1  0.02167827  0.24948369  0.48889181  1
  Si  Si33  1  0.52167827  0.75051631  0.01110819  1
  Si  Si34  1  0.97832173  0.25051631  0.98889181  1
  Si  Si35  1  0.47832173  0.74948369  0.51110819  1
  Si  Si36  1  0.02191744  0.47241907  0.23007053  1
  Si  Si37  1  0.52191744  0.52758093  0.26992947  1
  Si  Si38  1  0.97808256  0.02758093  0.73007053  1
  Si  Si39  1  0.47808256  0.97241907  0.76992947  1
  Si  Si40  1  0.27674880  0.25939226  0.01269366  1
  Si  Si41  1  0.77674880  0.74060774  0.48730634  1
  Si  Si42  1  0.72325120  0.24060774  0.51269366  1
  Si  Si43  1  0.22325120  0.75939226  0.98730634  1
  Si  Si44  1  0.01531371  0.26673042  0.28271279  1
  Si  Si45  1  0.51531371  0.73326958  0.21728721  1
  Si  Si46  1  0.98468629  0.23326958  0.78271279  1
  Si  Si47  1  0.48468629  0.76673042  0.71728721  1
  O  O0  1  0.95859608  0.01478387  0.35225643  1
  O  O1  1  0.45859608  0.98521613  0.14774357  1
  O  O2  1  0.04140392  0.48521613  0.85225643  1
  O  O3  1  0.54140392  0.51478387  0.64774357  1
  O  O4  1  0.22646255  0.20721801  0.09039559  1
  O  O5  1  0.72646255  0.79278199  0.40960441  1
  O  O6  1  0.77353745  0.29278199  0.59039559  1
  O  O7  1  0.27353745  0.70721801  0.90960441  1
  O  O8  1  0.77958712  0.23779349  0.42273746  1
  O  O9  1  0.27958712  0.76220651  0.07726254  1
  O  O10  1  0.22041288  0.26220651  0.92273746  1
  O  O11  1  0.72041288  0.73779349  0.57726254  1
  O  O12  1  0.45874703  0.33867374  0.47606084  1
  O  O13  1  0.95874703  0.66132626  0.02393916  1
  O  O14  1  0.54125297  0.16132626  0.97606084  1
  O  O15  1  0.04125297  0.83867374  0.52393916  1
  O  O16  1  0.03966623  0.28801240  0.38762323  1
  O  O17  1  0.53966623  0.71198760  0.11237677  1
  O  O18  1  0.96033377  0.21198760  0.88762323  1
  O  O19  1  0.46033377  0.78801240  0.61237677  1
  O  O20  1  0.26603338  0.42542189  0.27421248  1
  O  O21  1  0.76603338  0.57457811  0.22578752  1
  O  O22  1  0.73396662  0.07457811  0.77421248  1
  O  O23  1  0.23396662  0.92542189  0.72578752  1
  O  O24  1  0.46375863  0.12545342  0.24328052  1
  O  O25  1  0.96375863  0.87454658  0.25671948  1
  O  O26  1  0.53624137  0.37454658  0.74328052  1
  O  O27  1  0.03624137  0.62545342  0.75671948  1
  O  O28  1  0.40184742  0.28357396  0.28391006  1
  O  O29  1  0.90184742  0.71642604  0.21608994  1
  O  O30  1  0.59815258  0.21642604  0.78391006  1
  O  O31  1  0.09815258  0.78357396  0.71608994  1
  O  O32  1  0.02152488  0.17041026  0.04366977  1
  O  O33  1  0.52152488  0.82958974  0.45633023  1
  O  O34  1  0.97847512  0.32958974  0.54366977  1
  O  O35  1  0.47847512  0.67041026  0.95633023  1
  O  O36  1  0.77800653  0.48549817  0.37752139  1
  O  O37  1  0.27800653  0.51450183  0.12247861  1
  O  O38  1  0.22199347  0.01450183  0.87752139  1
  O  O39  1  0.72199347  0.98549817  0.62247861  1
  O  O40  1  0.71666968  0.28008391  0.08271451  1
  O  O41  1  0.21666968  0.71991609  0.41728549  1
  O  O42  1  0.28333032  0.21991609  0.58271451  1
  O  O43  1  0.78333032  0.78008391  0.91728549  1
  O  O44  1  0.12188118  0.46921057  0.18433297  1
  O  O45  1  0.62188118  0.53078943  0.31566703  1
  O  O46  1  0.87811882  0.03078943  0.68433297  1
  O  O47  1  0.37811882  0.96921057  0.81566703  1
  O  O48  1  0.87882668  0.26855097  0.03215920  1
  O  O49  1  0.37882668  0.73144903  0.46784080  1
  O  O50  1  0.12117332  0.23144903  0.53215920  1
  O  O51  1  0.62117332  0.76855097  0.96784080  1
  O  O52  1  0.61592768  0.04933297  0.20100662  1
  O  O53  1  0.11592768  0.95066703  0.29899338  1
  O  O54  1  0.38407232  0.45066703  0.70100662  1
  O  O55  1  0.88407232  0.54933297  0.79899338  1
  O  O56  1  0.32573971  0.49069045  0.47787546  1
  O  O57  1  0.82573971  0.50930955  0.02212454  1
  O  O58  1  0.67426029  0.00930955  0.97787546  1
  O  O59  1  0.17426029  0.99069045  0.52212454  1
  O  O60  1  0.53270573  0.20754503  0.37899791  1
  O  O61  1  0.03270573  0.79245497  0.12100209  1
  O  O62  1  0.46729427  0.29245497  0.87899791  1
  O  O63  1  0.96729427  0.70754503  0.62100209  1
  O  O64  1  0.81637840  0.02601632  0.47243341  1
  O  O65  1  0.31637840  0.97398368  0.02756659  1
  O  O66  1  0.18362160  0.47398368  0.97243341  1
  O  O67  1  0.68362160  0.52601632  0.52756659  1
  O  O68  1  0.22618794  0.06698918  0.22306536  1
  O  O69  1  0.72618794  0.93301082  0.27693464  1
  O  O70  1  0.77381206  0.43301082  0.72306536  1
  O  O71  1  0.27381206  0.56698918  0.77693464  1
  O  O72  1  0.99424717  0.36686421  0.24255194  1
  O  O73  1  0.49424717  0.63313579  0.25744806  1
  O  O74  1  0.00575283  0.13313579  0.74255194  1
  O  O75  1  0.50575283  0.86686421  0.75744806  1
  O  O76  1  0.37514094  0.21216257  0.00297808  1
  O  O77  1  0.87514094  0.78783743  0.49702192  1
  O  O78  1  0.62485906  0.28783743  0.50297808  1
  O  O79  1  0.12485906  0.71216257  0.99702192  1
  O  O80  1  0.23248545  0.13493690  0.43520809  1
  O  O81  1  0.73248545  0.86506310  0.06479191  1
  O  O82  1  0.76751455  0.36506310  0.93520809  1
  O  O83  1  0.26751455  0.63493690  0.56479191  1
  O  O84  1  0.96228772  0.16143369  0.48737395  1
  O  O85  1  0.46228772  0.83856631  0.01262605  1
  O  O86  1  0.03771228  0.33856631  0.98737395  1
  O  O87  1  0.53771228  0.66143369  0.51262605  1
  O  O88  1  0.01116111  0.03007051  0.18171922  1
  O  O89  1  0.51116111  0.96992949  0.31828078  1
  O  O90  1  0.98883889  0.46992949  0.68171922  1
  O  O91  1  0.48883889  0.53007051  0.81828078  1
  O  O92  1  0.65128268  0.46701370  0.02141732  1
  O  O93  1  0.15128268  0.53298630  0.47858268  1
  O  O94  1  0.34871732  0.03298630  0.52141732  1
  O  O95  1  0.84871732  0.96701370  0.97858268  1
  O  O96  1  0.52736393  0.47945870  0.17561790  1
  O  O97  1  0.02736393  0.52054130  0.32438210  1
  O  O98  1  0.47263607  0.02054130  0.67561790  1
  O  O99  1  0.97263607  0.97945870  0.82438210  1
  O  O100  1  0.29608397  0.36247021  0.04727777  1
  O  O101  1  0.79608397  0.63752979  0.45272223  1
  O  O102  1  0.70391603  0.13752979  0.54727777  1
  O  O103  1  0.20391603  0.86247021  0.95272223  1
  O  O104  1  0.71740754  0.40368339  0.23265129  1
  O  O105  1  0.21740754  0.59631661  0.26734871  1
  O  O106  1  0.28259246  0.09631661  0.73265129  1
  O  O107  1  0.78259246  0.90368339  0.76734871  1
  O  O108  1  0.76986044  0.02263929  0.12611933  1
  O  O109  1  0.26986044  0.97736071  0.37388067  1
  O  O110  1  0.23013956  0.47736071  0.62611933  1
  O  O111  1  0.73013956  0.52263929  0.87388067  1
  O  O112  1  0.14078156  0.01572260  0.02702660  1
  O  O113  1  0.64078156  0.98427740  0.47297340  1
  O  O114  1  0.85921844  0.48427740  0.52702660  1
  O  O115  1  0.35921844  0.51572260  0.97297340  1
  O  O116  1  0.24747563  0.30703280  0.42982266  1
  O  O117  1  0.74747563  0.69296720  0.07017734  1
  O  O118  1  0.75252437  0.19296720  0.92982266  1
  O  O119  1  0.25252437  0.80703280  0.57017734  1
  O  O120  1  0.50579386  0.32443918  0.04405068  1
  O  O121  1  0.00579386  0.67556082  0.45594932  1
  O  O122  1  0.49420614  0.17556082  0.54405068  1
  O  O123  1  0.99420614  0.82443918  0.95594932  1
  O  O124  1  0.56929126  0.26530714  0.21825794  1
  O  O125  1  0.06929126  0.73469286  0.28174206  1
  O  O126  1  0.43070874  0.23469286  0.71825794  1
  O  O127  1  0.93070874  0.76530714  0.78174206  1
  O  O128  1  0.76784263  0.10747661  0.27291723  1
  O  O129  1  0.26784263  0.89252339  0.22708277  1
  O  O130  1  0.23215737  0.39252339  0.77291723  1
  O  O131  1  0.73215737  0.60747661  0.72708277  1
  O  O132  1  0.92307139  0.21443222  0.27887434  1
  O  O133  1  0.42307139  0.78556778  0.22112566  1
  O  O134  1  0.07692861  0.28556778  0.77887434  1
  O  O135  1  0.57692861  0.71443222  0.72112566  1
  O  O136  1  0.45109702  0.49101001  0.33882693  1
  O  O137  1  0.95109702  0.50898999  0.16117307  1
  O  O138  1  0.54890298  0.00898999  0.83882693  1
  O  O139  1  0.04890298  0.99101001  0.66117307  1
  O  O140  1  0.09830380  0.22552593  0.23082542  1
  O  O141  1  0.59830380  0.77447407  0.26917458  1
  O  O142  1  0.90169620  0.27447407  0.73082542  1
  O  O143  1  0.40169620  0.72552593  0.76917458  1
loop_
_geom_bond_atom_site_label_1
_geom_bond_atom_site_label_2
_geom_bond_distance
_geom_bond_site_symmetry_2
Na0 O132 2.365477 1_555
Na0 O88 2.433123 1_655
Na0 O108 2.490438 1_555
Na0 O128 2.635512 1_555
Na0 O32 2.663633 1_655
Na0 O48 2.794322 1_555
Na1 O133 2.365477 1_555
Na1 O89 2.433123 1_555
Na1 O109 2.490438 1_555
Na1 O129 2.635512 1_555
Na1 O33 2.663633 1_555
Na1 O49 2.794322 1_555
Na2 O134 2.365477 1_555
Na2 O90 2.433123 1_455
Na2 O110 2.490438 1_555
Na2 O130 2.635512 1_555
Na2 O34 2.663633 1_455
Na2 O50 2.794322 1_555
Na3 O135 2.365477 1_555
Na3 O91 2.433123 1_555
Na3 O111 2.490438 1_555
Na3 O131 2.635512 1_555
Na3 O35 2.663633 1_555
Na3 O51 2.794322 1_555
Na4 O44 2.335393 1_555
Na4 O86 2.410535 1_554
Na4 O140 2.412189 1_555
Na4 O4 2.449136 1_555
Na4 O100 2.808672 1_555
Na4 O72 2.832993 1_455
Na5 O45 2.335393 1_555
Na5 O87 2.410535 1_555
Na5 O141 2.412189 1_555
Na5 O5 2.449136 1_555
Na5 O101 2.808672 1_555
Na5 O73 2.832993 1_555
Na6 O46 2.335393 1_555
Na6 O84 2.410535 1_555
Na6 O142 2.412189 1_555
Na6 O6 2.449136 1_555
Na6 O102 2.808672 1_555
Na6 O74 2.832993 1_655
Na7 O47 2.335393 1_555
Na7 O85 2.410535 1_556
Na7 O143 2.412189 1_555
Na7 O7 2.449136 1_555
Na7 O103 2.808672 1_555
Na7 O75 2.832993 1_555
Na8 O93 2.322096 1_555
Na8 O116 2.328754 1_555
Na8 O16 2.358230 1_555
Na8 O97 2.615019 1_555
Na8 O20 2.665598 1_555
Na9 O92 2.322096 1_555
Na9 O117 2.328754 1_555
Na9 O17 2.358230 1_555
Na9 O96 2.615019 1_555
Na9 O21 2.665598 1_555
Na10 O95 2.322096 1_545
Na10 O118 2.328754 1_555
Na10 O18 2.358230 1_555
Na10 O99 2.615019 1_545
Na10 O22 2.665598 1_555
Na11 O94 2.322096 1_565
Na11 O119 2.328754 1_555
Na11 O19 2.358230 1_555
Na11 O98 2.615019 1_565
Na11 O23 2.665598 1_555
Na12 O89 2.359133 1_545
Na12 O122 2.379828 1_555
Na12 O113 2.448000 1_545
Na12 O94 2.529114 1_555
Na12 O60 2.631867 1_555
Na13 O88 2.359133 1_665
Na13 O123 2.379828 1_554
Na13 O112 2.448000 1_665
Na13 O95 2.529114 1_554
Na13 O61 2.631867 1_655
Na14 O91 2.359133 1_555
Na14 O120 2.379828 1_556
Na14 O115 2.448000 1_555
Na14 O92 2.529114 1_556
Na14 O62 2.631867 1_555
Na15 O90 2.359133 1_455
Na15 O121 2.379828 1_555
Na15 O114 2.448000 1_455
Na15 O93 2.529114 1_555
Na15 O63 2.631867 1_455
Na16 O100 2.345406 1_555
Na16 O28 2.349663 1_555
Na16 O96 2.512627 1_555
Na16 O120 2.561733 1_555
Na16 O20 2.735312 1_555
Na16 O37 2.834125 1_555
Na17 O101 2.345406 1_555
Na17 O29 2.349663 1_555
Na17 O97 2.512627 1_655
Na17 O121 2.561733 1_655
Na17 O21 2.735312 1_555
Na17 O36 2.834125 1_555
Na18 O102 2.345406 1_555
Na18 O30 2.349663 1_555
Na18 O98 2.512627 1_555
Na18 O122 2.561733 1_555
Na18 O22 2.735312 1_555
Na18 O39 2.834125 1_545
Na19 O103 2.345406 1_555
Na19 O31 2.349663 1_555
Na19 O99 2.512627 1_455
Na19 O123 2.561733 1_455
Na19 O23 2.735312 1_555
Na19 O38 2.834125 1_565
Na20 O65 2.417378 1_545
Na20 O1 2.439934 1_545
Na20 O68 2.466980 1_555
Na20 O4 2.515643 1_555
Na20 O76 2.530788 1_555
Na20 O24 2.603419 1_555
Na21 O64 2.417378 1_565
Na21 O0 2.439934 1_565
Na21 O69 2.466980 1_555
Na21 O5 2.515643 1_555
Na21 O77 2.530788 1_555
Na21 O25 2.603419 1_555
Na22 O67 2.417378 1_555
Na22 O3 2.439934 1_555
Na22 O70 2.466980 1_555
Na22 O6 2.515643 1_555
Na22 O78 2.530788 1_555
Na22 O26 2.603419 1_555
Na23 O66 2.417378 1_555
Na23 O2 2.439934 1_555
Na23 O71 2.466980 1_555
Na23 O7 2.515643 1_555
Na23 O79 2.530788 1_555
Na23 O27 2.603419 1_555
Na24 O104 2.438109 1_555
Na24 O137 2.459624 1_555
Na24 O48 2.510857 1_555
Na24 O72 2.577389 1_555
Na24 O40 2.765520 1_555
Na24 O57 2.794729 1_555
Na25 O105 2.438109 1_555
Na25 O136 2.459624 1_555
Na25 O49 2.510857 1_555
Na25 O73 2.577389 1_555
Na25 O41 2.765520 1_555
Na25 O56 2.794729 1_555
Na26 O106 2.438109 1_555
Na26 O139 2.459624 1_545
Na26 O50 2.510857 1_555
Na26 O74 2.577389 1_555
Na26 O42 2.765520 1_555
Na26 O59 2.794729 1_545
Na27 O107 2.438109 1_555
Na27 O138 2.459624 1_565
Na27 O51 2.510857 1_555
Na27 O75 2.577389 1_555
Na27 O43 2.765520 1_555
Na27 O58 2.794729 1_565
Na28 O2 2.428941 1_654
Na28 O86 2.444502 1_654
Na28 O137 2.509871 1_555
Na28 O57 2.598196 1_555
Na28 O13 2.644687 1_555
Na28 O66 2.899353 1_654
Na29 O3 2.428941 1_555
Na29 O87 2.444502 1_555
Na29 O136 2.509871 1_555
Na29 O56 2.598196 1_555
Na29 O12 2.644687 1_555
Na29 O67 2.899353 1_555
Na30 O0 2.428941 1_455
Na30 O84 2.444502 1_455
Na30 O139 2.509871 1_545
Na30 O59 2.598196 1_545
Na30 O15 2.644687 1_545
Na30 O64 2.899353 1_455
Na31 O1 2.428941 1_556
Na31 O85 2.444502 1_556
Na31 O138 2.509871 1_565
Na31 O58 2.598196 1_565
Na31 O14 2.644687 1_565
Na31 O65 2.899353 1_556
Na32 O52 2.272587 1_555
Na32 O14 2.295875 1_554
Na32 O40 2.317123 1_555
Na32 O124 2.642194 1_555
Na32 O58 2.972631 1_554
Na33 O53 2.272587 1_555
Na33 O15 2.295875 1_555
Na33 O41 2.317123 1_555
Na33 O125 2.642194 1_555
Na33 O59 2.972631 1_555
Na34 O54 2.272587 1_555
Na34 O12 2.295875 1_555
Na34 O42 2.317123 1_555
Na34 O126 2.642194 1_555
Na34 O56 2.972631 1_555
Na35 O55 2.272587 1_555
Na35 O13 2.295875 1_556
Na35 O43 2.317123 1_555
Na35 O127 2.642194 1_555
Na35 O57 2.972631 1_556
Na36 O8 2.298283 1_555
Na36 O124 2.327530 1_555
Na36 O128 2.442225 1_555
Na36 O104 2.507656 1_555
Na36 O60 2.941081 1_555
Na37 O9 2.298283 1_555
Na37 O125 2.327530 1_555
Na37 O129 2.442225 1_555
Na37 O105 2.507656 1_555
Na37 O61 2.941081 1_555
Na38 O10 2.298283 1_555
Na38 O126 2.327530 1_555
Na38 O130 2.442225 1_555
Na38 O106 2.507656 1_555
Na38 O62 2.941081 1_555
Na39 O11 2.298283 1_555
Na39 O127 2.327530 1_555
Na39 O131 2.442225 1_555
Na39 O107 2.507656 1_555
Na39 O63 2.941081 1_555
Na40 O36 2.380416 1_555
Na40 O114 2.494204 1_555
Na40 O8 2.535743 1_555
Na40 O34 2.599381 1_555
Na40 O16 2.755497 1_655
Na41 O37 2.380416 1_555
Na41 O115 2.494204 1_554
Na41 O9 2.535743 1_555
Na41 O35 2.599381 1_554
Na41 O17 2.755497 1_555
Na42 O38 2.380416 1_555
Na42 O112 2.494204 1_556
Na42 O10 2.535743 1_555
Na42 O32 2.599381 1_556
Na42 O18 2.755497 1_455
Na43 O39 2.380416 1_555
Na43 O113 2.494204 1_555
Na43 O11 2.535743 1_555
Na43 O33 2.599381 1_555
Na43 O19 2.755497 1_555
Na44 O68 2.409031 1_555
Na44 O140 2.469599 1_555
Na44 O80 2.505587 1_555
Na44 O28 2.578113 1_555
Na44 O116 2.617634 1_555
Na45 O69 2.409031 1_555
Na45 O141 2.469599 1_555
Na45 O81 2.505587 1_555
Na45 O29 2.578113 1_555
Na45 O117 2.617634 1_555
Na46 O70 2.409031 1_555
Na46 O142 2.469599 1_555
Na46 O82 2.505587 1_555
Na46 O30 2.578113 1_555
Na46 O118 2.617634 1_555
Na47 O71 2.409031 1_555
Na47 O143 2.469599 1_555
Na47 O83 2.505587 1_555
Na47 O31 2.578113 1_555
Na47 O119 2.617634 1_555
O0 Si9 1.614598 1_645
O0 Tm0 2.213910 1_555
O1 Si8 1.614598 1_565
O1 Tm1 2.213910 1_555
O2 Si11 1.614598 1_455
O2 Tm2 2.213910 1_555
O3 Si10 1.614598 1_555
O3 Tm3 2.213910 1_555
O4 Si40 1.620331 1_555
O4 Tm12 2.229672 1_555
O5 Si41 1.620331 1_555
O5 Tm13 2.229672 1_555
O6 Si42 1.620331 1_555
O6 Tm14 2.229672 1_555
O7 Si43 1.620331 1_555
O7 Tm15 2.229672 1_555
O8 Si42 1.620458 1_555
O8 Tm0 2.271183 1_555
O9 Si43 1.620458 1_554
O9 Tm1 2.271183 1_555
O10 Si40 1.620458 1_556
O10 Tm2 2.271183 1_555
O11 Si41 1.620458 1_555
O11 Tm3 2.271183 1_555
O12 Si4 1.621582 1_555
O12 Tm8 2.238920 1_555
O13 Si5 1.621582 1_655
O13 Tm9 2.238920 1_555
O14 Si6 1.621582 1_555
O14 Tm10 2.238920 1_555
O15 Si7 1.621582 1_455
O15 Tm11 2.238920 1_555
O16 Si44 1.679697 1_555
O16 Si32 1.680082 1_555
O17 Si45 1.679697 1_555
O17 Si33 1.680082 1_555
O18 Si46 1.679697 1_555
O18 Si34 1.680082 1_555
O19 Si47 1.679697 1_555
O19 Si35 1.680082 1_555
O20 Si25 1.619461 1_555
O20 Tm8 2.216418 1_555
O21 Si24 1.619461 1_555
O21 Tm9 2.216418 1_555
O22 Si27 1.619461 1_545
O22 Tm10 2.216418 1_555
O23 Si26 1.619461 1_565
O23 Tm11 2.216418 1_555
O24 Si28 1.664584 1_555
O24 Si8 1.670782 1_555
O25 Si29 1.664584 1_555
O25 Si9 1.670782 1_655
O26 Si30 1.664584 1_555
O26 Si10 1.670782 1_555
O27 Si31 1.664584 1_555
O27 Si11 1.670782 1_455
O28 Si28 1.625922 1_555
O28 Tm8 2.244325 1_555
O29 Si29 1.625922 1_555
O29 Tm9 2.244325 1_555
O30 Si30 1.625922 1_555
O30 Tm10 2.244325 1_555
O31 Si31 1.625922 1_555
O31 Tm11 2.244325 1_555
O32 Si34 1.618030 1_454
O32 Tm12 2.204518 1_555
O33 Si35 1.618030 1_555
O33 Tm13 2.204518 1_555
O34 Si32 1.618030 1_655
O34 Tm14 2.204518 1_555
O35 Si33 1.618030 1_556
O35 Tm15 2.204518 1_555
O36 Si24 1.673972 1_555
O36 Si13 1.690796 1_555
O37 Si25 1.673972 1_555
O37 Si12 1.690796 1_555
O38 Si26 1.673972 1_555
O38 Si15 1.690796 1_545
O39 Si27 1.673972 1_555
O39 Si14 1.690796 1_565
O40 Si18 1.618863 1_554
O40 Tm4 2.192155 1_555
O41 Si19 1.618863 1_555
O41 Tm5 2.192155 1_555
O42 Si16 1.618863 1_555
O42 Tm6 2.192155 1_555
O43 Si17 1.618863 1_556
O43 Tm7 2.192155 1_555
O44 Si36 1.667603 1_555
O44 Si25 1.676455 1_555
O45 Si37 1.667603 1_555
O45 Si24 1.676455 1_555
O46 Si38 1.667603 1_555
O46 Si27 1.676455 1_545
O47 Si39 1.667603 1_555
O47 Si26 1.676455 1_565
O48 Si34 1.667613 1_554
O48 Si18 1.679305 1_554
O49 Si35 1.667613 1_555
O49 Si19 1.679305 1_555
O50 Si32 1.667613 1_555
O50 Si16 1.679305 1_555
O51 Si33 1.667613 1_556
O51 Si17 1.679305 1_556
O52 Si8 1.670424 1_555
O52 Si20 1.673419 1_555
O53 Si9 1.670424 1_555
O53 Si21 1.673419 1_555
O54 Si10 1.670424 1_555
O54 Si22 1.673419 1_555
O55 Si11 1.670424 1_555
O55 Si23 1.673419 1_555
O56 Si3 1.621610 1_555
O56 Tm8 2.240246 1_555
O57 Si2 1.621610 1_554
O57 Tm9 2.240246 1_555
O58 Si1 1.621610 1_546
O58 Tm10 2.240246 1_555
O59 Si0 1.621610 1_565
O59 Tm11 2.240246 1_555
O60 Si4 1.669850 1_555
O60 Si28 1.670453 1_555
O61 Si5 1.669850 1_555
O61 Si29 1.670453 1_455
O62 Si6 1.669850 1_555
O62 Si30 1.670453 1_555
O63 Si7 1.669850 1_555
O63 Si31 1.670453 1_655
O64 Si14 1.606479 1_555
O64 Tm0 2.223438 1_555
O65 Si15 1.606479 1_554
O65 Tm1 2.223438 1_555
O66 Si12 1.606479 1_556
O66 Tm2 2.223438 1_555
O67 Si13 1.606479 1_555
O67 Tm3 2.223438 1_555
O68 Si21 1.617758 1_545
O68 Tm12 2.226722 1_555
O69 Si20 1.617758 1_565
O69 Tm13 2.226722 1_555
O70 Si23 1.617758 1_555
O70 Tm14 2.226722 1_555
O71 Si22 1.617758 1_555
O71 Tm15 2.226722 1_555
O72 Si36 1.671489 1_655
O72 Si44 1.674344 1_655
O73 Si37 1.671489 1_555
O73 Si45 1.674344 1_555
O74 Si38 1.671489 1_455
O74 Si46 1.674344 1_455
O75 Si39 1.671489 1_555
O75 Si47 1.674344 1_555
O76 Si40 1.660033 1_555
O76 Si6 1.669301 1_554
O77 Si41 1.660033 1_555
O77 Si7 1.669301 1_555
O78 Si42 1.660033 1_555
O78 Si4 1.669301 1_555
O79 Si43 1.660033 1_555
O79 Si5 1.669301 1_556
O80 Si16 1.661749 1_555
O80 Si0 1.674655 1_555
O81 Si17 1.661749 1_555
O81 Si1 1.674655 1_555
O82 Si18 1.661749 1_555
O82 Si2 1.674655 1_555
O83 Si19 1.661749 1_555
O83 Si3 1.674655 1_555
O84 Si32 1.613946 1_655
O84 Tm0 2.281650 1_555
O85 Si33 1.613946 1_555
O85 Tm1 2.281650 1_555
O86 Si34 1.613946 1_455
O86 Tm2 2.281650 1_555
O87 Si35 1.613946 1_555
O87 Tm3 2.281650 1_555
O88 Si9 1.623496 1_545
O88 Tm12 2.226612 1_555
O89 Si8 1.623496 1_565
O89 Tm13 2.226612 1_555
O90 Si11 1.623496 1_555
O90 Tm14 2.226612 1_555
O91 Si10 1.623496 1_555
O91 Tm15 2.226612 1_555
O92 Si2 1.632883 1_554
O92 Tm4 2.279807 1_555
O93 Si3 1.632883 1_555
O93 Tm5 2.279807 1_555
O94 Si0 1.632883 1_555
O94 Tm6 2.279807 1_555
O95 Si1 1.632883 1_556
O95 Tm7 2.279807 1_555
O96 Si37 1.621417 1_555
O96 Tm4 2.233705 1_555
O97 Si36 1.621417 1_555
O97 Tm5 2.233705 1_555
O98 Si39 1.621417 1_545
O98 Tm6 2.233705 1_555
O99 Si38 1.621417 1_565
O99 Tm7 2.233705 1_555
O100 Si40 1.681763 1_555
O100 Si12 1.683131 1_555
O101 Si41 1.681763 1_555
O101 Si13 1.683131 1_555
O102 Si42 1.681763 1_555
O102 Si14 1.683131 1_555
O103 Si43 1.681763 1_555
O103 Si15 1.683131 1_555
O104 Si24 1.623487 1_555
O104 Tm4 2.292275 1_555
O105 Si25 1.623487 1_555
O105 Tm5 2.292275 1_555
O106 Si26 1.623487 1_555
O106 Tm6 2.292275 1_555
O107 Si27 1.623487 1_555
O107 Tm7 2.292275 1_555
O108 Si1 1.670091 1_545
O108 Si20 1.680041 1_555
O109 Si0 1.670091 1_565
O109 Si21 1.680041 1_555
O110 Si3 1.670091 1_555
O110 Si22 1.680041 1_555
O111 Si2 1.670091 1_555
O111 Si23 1.680041 1_555
O112 Si15 1.621981 1_544
O112 Tm12 2.252982 1_555
O113 Si14 1.621981 1_565
O113 Tm13 2.252982 1_555
O114 Si13 1.621981 1_555
O114 Tm14 2.252982 1_555
O115 Si12 1.621981 1_556
O115 Tm15 2.252982 1_555
O116 Si16 1.611730 1_555
O116 Tm8 2.222053 1_555
O117 Si17 1.611730 1_555
O117 Tm9 2.222053 1_555
O118 Si18 1.611730 1_555
O118 Tm10 2.222053 1_555
O119 Si19 1.611730 1_555
O119 Tm11 2.222053 1_555
O120 Si6 1.625946 1_554
O120 Tm4 2.198283 1_555
O121 Si7 1.625946 1_455
O121 Tm5 2.198283 1_555
O122 Si4 1.625946 1_555
O122 Tm6 2.198283 1_555
O123 Si5 1.625946 1_656
O123 Tm7 2.198283 1_555
O124 Si28 1.623959 1_555
O124 Tm4 2.208806 1_555
O125 Si29 1.623959 1_455
O125 Tm5 2.208806 1_555
O126 Si30 1.623959 1_555
O126 Tm6 2.208806 1_555
O127 Si31 1.623959 1_655
O127 Tm7 2.208806 1_555
O128 Si20 1.616413 1_555
O128 Tm0 2.212889 1_555
O129 Si21 1.616413 1_555
O129 Tm1 2.212889 1_555
O130 Si22 1.616413 1_555
O130 Tm2 2.212889 1_555
O131 Si23 1.616413 1_555
O131 Tm3 2.212889 1_555
O132 Si44 1.607949 1_655
O132 Tm0 2.209607 1_555
O133 Si45 1.607949 1_555
O133 Tm1 2.209607 1_555
O134 Si46 1.607949 1_455
O134 Tm2 2.209607 1_555
O135 Si47 1.607949 1_555
O135 Tm3 2.209607 1_555
O136 Si37 1.603539 1_555
O136 Tm8 2.196223 1_555
O137 Si36 1.603539 1_655
O137 Tm9 2.196223 1_555
O138 Si39 1.603539 1_545
O138 Tm10 2.196223 1_555
O139 Si38 1.603539 1_465
O139 Tm11 2.196223 1_555
O140 Si44 1.612980 1_555
O140 Tm12 2.263998 1_555
O141 Si45 1.612980 1_555
O141 Tm13 2.263998 1_555
O142 Si46 1.612980 1_555
O142 Tm14 2.263998 1_555
O143 Si47 1.612980 1_555
O143 Tm15 2.263998 1_555
