# generated using pymatgen
data_CaHoV2O6
_symmetry_space_group_name_H-M   'P 1'
_cell_length_a   5.58104300
_cell_length_b   5.34993000
_cell_length_c   9.27197990
_cell_angle_alpha   55.50744720
_cell_angle_beta   90.00000000
_cell_angle_gamma   90.00000000
_symmetry_Int_Tables_number   1
_chemical_formula_structural   CaHoV2O6
_chemical_formula_sum   'Ca2 Ho2 V4 O12'
_cell_volume   228.17520832
_cell_formula_units_Z   2
loop_
 _symmetry_equiv_pos_site_id
 _symmetry_equiv_pos_as_xyz
  1  'x, y, z'
loop_
 _atom_site_type_symbol
 _atom_site_label
 _atom_site_symmetry_multiplicity
 _atom_site_fract_x
 _atom_site_fract_y
 _atom_site_fract_z
 _atom_site_occupancy
  Ca  Ca0  1  0.69684100  0.26537100  0.24845700  1
  Ca  Ca1  1  0.30315900  0.26537100  0.74845700  1
  Ho  Ho0  1  0.18372400  0.72726300  0.25113500  1
  Ho  Ho1  1  0.81627600  0.72726300  0.75113500  1
  V  V0  1  0.74650400  0.00148000  0.00005700  1
  V  V1  1  0.74622500  0.49916600  0.50010300  1
  V  V2  1  0.25349600  0.00148000  0.50005700  1
  V  V3  1  0.25377500  0.49916600  0.00010300  1
  O  O0  1  0.72009800  0.12723600  0.76133800  1
  O  O1  1  0.44622900  0.75519300  0.05561200  1
  O  O2  1  0.44305500  0.35850700  0.44700700  1
  O  O3  1  0.95922400  0.65761100  0.04969700  1
  O  O4  1  0.96091800  0.25830700  0.44771100  1
  O  O5  1  0.21571000  0.84987600  0.73887500  1
  O  O6  1  0.27990200  0.12723600  0.26133800  1
  O  O7  1  0.55377100  0.75519300  0.55561200  1
  O  O8  1  0.55694500  0.35850700  0.94700700  1
  O  O9  1  0.03908200  0.25830700  0.94771100  1
  O  O10  1  0.04077600  0.65761100  0.54969700  1
  O  O11  1  0.78429000  0.84987600  0.23887500  1
loop_
_geom_bond_atom_site_label_1
_geom_bond_atom_site_label_2
_geom_bond_distance
_geom_bond_site_symmetry_2
Ca0 O11 2.326137 1_545
Ca0 O4 2.346847 1_555
Ca0 O3 2.358844 1_555
Ca0 O6 2.423872 1_555
Ca0 O2 2.585046 1_555
Ca0 O1 2.591061 1_555
Ca0 O8 2.663222 1_554
Ca0 O7 2.719210 1_545
Ca1 O5 2.326137 1_545
Ca1 O9 2.346847 1_555
Ca1 O10 2.358844 1_555
Ca1 O0 2.423872 1_555
Ca1 O8 2.585046 1_555
Ca1 O7 2.591061 1_555
Ca1 O2 2.663222 1_555
Ca1 O1 2.719210 1_546
Ho0 O6 2.259471 1_565
Ho0 O1 2.269020 1_555
Ho0 O2 2.286293 1_555
Ho0 O11 2.308324 1_455
Ho0 O4 2.446149 1_455
Ho0 O3 2.446508 1_455
Ho0 O10 2.696346 1_555
Ho0 O9 2.754165 1_564
Ho1 O0 2.259471 1_565
Ho1 O7 2.269020 1_555
Ho1 O8 2.286293 1_555
Ho1 O5 2.308324 1_655
Ho1 O9 2.446149 1_655
Ho1 O10 2.446508 1_655
Ho1 O3 2.696346 1_556
Ho1 O4 2.754165 1_565
O0 V0 1.920127 1_556
O0 V1 2.094935 1_555
O1 V0 2.010276 1_565
O1 V3 2.023158 1_555
O2 V2 1.986313 1_555
O2 V1 2.022651 1_555
O3 V0 2.011636 1_565
O3 V3 2.018385 1_655
O4 V2 2.008604 1_655
O4 V1 2.010246 1_555
O5 V2 1.889813 1_565
O5 V3 2.070021 1_556
O6 V2 1.920127 1_555
O6 V3 2.094935 1_555
O7 V2 2.010276 1_565
O7 V1 2.023158 1_555
O8 V0 1.986313 1_556
O8 V3 2.022651 1_556
O9 V0 2.008604 1_456
O9 V3 2.010246 1_556
O10 V2 2.011636 1_565
O10 V1 2.018385 1_455
O11 V0 1.889813 1_565
O11 V1 2.070021 1_555
