# generated using pymatgen
data_Mg3B2SO14
_symmetry_space_group_name_H-M   'P 1'
_cell_length_a   7.54865000
_cell_length_b   10.57866500
_cell_length_c   13.21825000
_cell_angle_alpha   90.00000000
_cell_angle_beta   90.00000000
_cell_angle_gamma   90.00000000
_symmetry_Int_Tables_number   1
_chemical_formula_structural   Mg3B2SO14
_chemical_formula_sum   'Mg12 B8 S4 O56'
_cell_volume   1055.53858926
_cell_formula_units_Z   4
loop_
 _symmetry_equiv_pos_site_id
 _symmetry_equiv_pos_as_xyz
  1  'x, y, z'
loop_
 _atom_site_type_symbol
 _atom_site_label
 _atom_site_symmetry_multiplicity
 _atom_site_fract_x
 _atom_site_fract_y
 _atom_site_fract_z
 _atom_site_occupancy
  Mg  Mg0  1  0.96654400  0.68226600  0.25000000  1
  Mg  Mg1  1  0.53345600  0.18226600  0.25000000  1
  Mg  Mg2  1  0.03345600  0.31773400  0.75000000  1
  Mg  Mg3  1  0.46654400  0.81773400  0.75000000  1
  Mg  Mg4  1  0.25164500  0.93673200  0.12296400  1
  Mg  Mg5  1  0.24835500  0.43673200  0.37703600  1
  Mg  Mg6  1  0.74835500  0.06326800  0.62296400  1
  Mg  Mg7  1  0.75164500  0.56326800  0.87703600  1
  Mg  Mg8  1  0.74835500  0.06326800  0.87703600  1
  Mg  Mg9  1  0.75164500  0.56326800  0.62296400  1
  Mg  Mg10  1  0.25164500  0.93673200  0.37703600  1
  Mg  Mg11  1  0.24835500  0.43673200  0.12296400  1
  B  B0  1  0.08303900  0.68547000  0.00063500  1
  B  B1  1  0.41696100  0.18547000  0.49936500  1
  B  B2  1  0.91696100  0.31453000  0.50063500  1
  B  B3  1  0.58303900  0.81453000  0.99936500  1
  B  B4  1  0.91696100  0.31453000  0.99936500  1
  B  B5  1  0.58303900  0.81453000  0.50063500  1
  B  B6  1  0.08303900  0.68547000  0.49936500  1
  B  B7  1  0.41696100  0.18547000  0.00063500  1
  S  S0  1  0.89647700  0.98462900  0.25000000  1
  S  S1  1  0.60352300  0.48462900  0.25000000  1
  S  S2  1  0.10352300  0.01537100  0.75000000  1
  S  S3  1  0.39647700  0.51537100  0.75000000  1
  O  O0  1  0.83014400  0.85107000  0.25000000  1
  O  O1  1  0.66985600  0.35107000  0.25000000  1
  O  O2  1  0.16985600  0.14893000  0.75000000  1
  O  O3  1  0.33014400  0.64893000  0.75000000  1
  O  O4  1  0.75380900  0.57128100  0.25000000  1
  O  O5  1  0.74619100  0.07128100  0.25000000  1
  O  O6  1  0.24619100  0.42871900  0.75000000  1
  O  O7  1  0.25380900  0.92871900  0.75000000  1
  O  O8  1  0.00484900  0.00566300  0.15711800  1
  O  O9  1  0.49515100  0.50566300  0.34288200  1
  O  O10  1  0.99515100  0.99433700  0.65711800  1
  O  O11  1  0.50484900  0.49433700  0.84288200  1
  O  O12  1  0.99515100  0.99433700  0.84288200  1
  O  O13  1  0.50484900  0.49433700  0.65711800  1
  O  O14  1  0.00484900  0.00566300  0.34288200  1
  O  O15  1  0.49515100  0.50566300  0.15711800  1
  O  O16  1  0.20363400  0.58360800  0.01935800  1
  O  O17  1  0.29636600  0.08360800  0.48064200  1
  O  O18  1  0.79636600  0.41639200  0.51935800  1
  O  O19  1  0.70363400  0.91639200  0.98064200  1
  O  O20  1  0.79636600  0.41639200  0.98064200  1
  O  O21  1  0.70363400  0.91639200  0.51935800  1
  O  O22  1  0.20363400  0.58360800  0.48064200  1
  O  O23  1  0.29636600  0.08360800  0.01935800  1
  O  O24  1  0.97705700  0.68394900  0.09240300  1
  O  O25  1  0.52294300  0.18394900  0.40759700  1
  O  O26  1  0.02294300  0.31605100  0.59240300  1
  O  O27  1  0.47705700  0.81605100  0.90759700  1
  O  O28  1  0.02294300  0.31605100  0.90759700  1
  O  O29  1  0.47705700  0.81605100  0.59240300  1
  O  O30  1  0.97705700  0.68394900  0.40759700  1
  O  O31  1  0.52294300  0.18394900  0.09240300  1
  O  O32  1  0.16120100  0.80942800  0.01297100  1
  O  O33  1  0.33879900  0.30942800  0.48702900  1
  O  O34  1  0.83879900  0.19057200  0.51297100  1
  O  O35  1  0.66120100  0.69057200  0.98702900  1
  O  O36  1  0.83879900  0.19057200  0.98702900  1
  O  O37  1  0.66120100  0.69057200  0.51297100  1
  O  O38  1  0.16120100  0.80942800  0.48702900  1
  O  O39  1  0.33879900  0.30942800  0.01297100  1
  O  O40  1  0.97858400  0.65851800  0.91347000  1
  O  O41  1  0.52141600  0.15851800  0.58653000  1
  O  O42  1  0.02141600  0.34148200  0.41347000  1
  O  O43  1  0.47858400  0.84148200  0.08653000  1
  O  O44  1  0.02141600  0.34148200  0.08653000  1
  O  O45  1  0.47858400  0.84148200  0.41347000  1
  O  O46  1  0.97858400  0.65851800  0.58653000  1
  O  O47  1  0.52141600  0.15851800  0.91347000  1
  O  O48  1  0.14172600  0.53174000  0.25000000  1
  O  O49  1  0.35827400  0.03174000  0.25000000  1
  O  O50  1  0.85827400  0.46826000  0.75000000  1
  O  O51  1  0.64172600  0.96826000  0.75000000  1
  O  O52  1  0.18222500  0.81221800  0.25000000  1
  O  O53  1  0.31777500  0.31221800  0.25000000  1
  O  O54  1  0.81777500  0.18778200  0.75000000  1
  O  O55  1  0.68222500  0.68778200  0.75000000  1
loop_
_geom_bond_atom_site_label_1
_geom_bond_atom_site_label_2
_geom_bond_distance
_geom_bond_site_symmetry_2
Mg0 O4 1.989281 1_555
Mg0 O0 2.061298 1_555
Mg0 O48 2.069863 1_655
Mg0 O24 2.084744 1_555
Mg0 O30 2.084744 1_555
Mg0 O52 2.130860 1_655
Mg1 O5 1.989281 1_555
Mg1 O1 2.061298 1_555
Mg1 O49 2.069863 1_555
Mg1 O31 2.084744 1_555
Mg1 O25 2.084744 1_555
Mg1 O53 2.130860 1_555
Mg2 O6 1.989281 1_555
Mg2 O2 2.061298 1_555
Mg2 O50 2.069863 1_455
Mg2 O28 2.084744 1_555
Mg2 O26 2.084744 1_555
Mg2 O54 2.130860 1_455
Mg3 O7 1.989281 1_555
Mg3 O3 2.061298 1_555
Mg3 O51 2.069863 1_555
Mg3 O27 2.084744 1_555
Mg3 O29 2.084744 1_555
Mg3 O55 2.130860 1_555
Mg4 O43 2.044965 1_555
Mg4 O8 2.050908 1_565
Mg4 O32 2.096093 1_555
Mg4 O23 2.098478 1_565
Mg4 O49 2.116059 1_565
Mg4 O52 2.197565 1_555
Mg5 O42 2.044965 1_555
Mg5 O9 2.050908 1_555
Mg5 O33 2.096093 1_555
Mg5 O22 2.098478 1_555
Mg5 O48 2.116059 1_555
Mg5 O53 2.197565 1_555
Mg6 O41 2.044965 1_555
Mg6 O10 2.050908 1_545
Mg6 O34 2.096093 1_555
Mg6 O21 2.098478 1_545
Mg6 O51 2.116059 1_545
Mg6 O54 2.197565 1_555
Mg7 O40 2.044965 1_555
Mg7 O11 2.050908 1_555
Mg7 O35 2.096093 1_555
Mg7 O20 2.098478 1_555
Mg7 O50 2.116059 1_555
Mg7 O55 2.197565 1_555
Mg8 O47 2.044965 1_555
Mg8 O12 2.050908 1_545
Mg8 O36 2.096093 1_555
Mg8 O19 2.098478 1_545
Mg8 O51 2.116059 1_545
Mg8 O54 2.197565 1_555
Mg9 O46 2.044965 1_555
Mg9 O13 2.050908 1_555
Mg9 O37 2.096093 1_555
Mg9 O18 2.098478 1_555
Mg9 O50 2.116059 1_555
Mg9 O55 2.197565 1_555
Mg10 O45 2.044965 1_555
Mg10 O14 2.050908 1_565
Mg10 O38 2.096093 1_555
Mg10 O17 2.098478 1_565
Mg10 O49 2.116059 1_565
Mg10 O52 2.197565 1_555
Mg11 O44 2.044965 1_555
Mg11 O15 2.050908 1_555
Mg11 O39 2.096093 1_555
Mg11 O16 2.098478 1_555
Mg11 O48 2.116059 1_555
Mg11 O53 2.197565 1_555
B0 O40 1.424959 1_454
B0 O16 1.432164 1_555
B0 O32 1.447150 1_555
B0 O24 1.453166 1_455
B1 O41 1.424959 1_555
B1 O17 1.432164 1_555
B1 O33 1.447150 1_555
B1 O25 1.453166 1_555
B2 O42 1.424959 1_655
B2 O18 1.432164 1_555
B2 O34 1.447150 1_555
B2 O26 1.453166 1_655
B3 O43 1.424959 1_556
B3 O19 1.432164 1_555
B3 O35 1.447150 1_555
B3 O27 1.453166 1_555
B4 O44 1.424959 1_656
B4 O20 1.432164 1_555
B4 O36 1.447150 1_555
B4 O28 1.453166 1_655
B5 O45 1.424959 1_555
B5 O21 1.432164 1_555
B5 O37 1.447150 1_555
B5 O29 1.453166 1_555
B6 O46 1.424959 1_455
B6 O22 1.432164 1_555
B6 O38 1.447150 1_555
B6 O30 1.453166 1_455
B7 O47 1.424959 1_554
B7 O23 1.432164 1_555
B7 O39 1.447150 1_555
B7 O31 1.453166 1_555
O0 S0 1.498981 1_555
O1 S1 1.498981 1_555
O2 S2 1.498981 1_555
O3 S3 1.498981 1_555
O4 S1 1.458513 1_555
O5 S0 1.458513 1_545
O6 S3 1.458513 1_555
O7 S2 1.458513 1_565
O8 S0 1.492004 1_445
O9 S1 1.492004 1_555
O10 S2 1.492004 1_665
O11 S3 1.492004 1_555
O12 S2 1.492004 1_665
O13 S3 1.492004 1_555
O14 S0 1.492004 1_445
O15 S1 1.492004 1_555
