# generated using pymatgen
data_VZn2IrO6
_symmetry_space_group_name_H-M   'P 1'
_cell_length_a   5.18679000
_cell_length_b   5.19876500
_cell_length_c   9.17081676
_cell_angle_alpha   56.21428481
_cell_angle_beta   90.00000000
_cell_angle_gamma   90.00000000
_symmetry_Int_Tables_number   1
_chemical_formula_structural   VZn2IrO6
_chemical_formula_sum   'V2 Zn4 Ir2 O12'
_cell_volume   205.52858870
_cell_formula_units_Z   2
loop_
 _symmetry_equiv_pos_site_id
 _symmetry_equiv_pos_as_xyz
  1  'x, y, z'
loop_
 _atom_site_type_symbol
 _atom_site_label
 _atom_site_symmetry_multiplicity
 _atom_site_fract_x
 _atom_site_fract_y
 _atom_site_fract_z
 _atom_site_occupancy
  V  V0  1  0.50000000  0.00000000  0.00000000  1
  V  V1  1  0.00000000  0.00000000  0.50000000  1
  Zn  Zn0  1  0.96363900  0.74481900  0.24986000  1
  Zn  Zn1  1  0.46363900  0.25518100  0.25014000  1
  Zn  Zn2  1  0.53636100  0.74481900  0.74986000  1
  Zn  Zn3  1  0.03636100  0.25518100  0.75014000  1
  Ir  Ir0  1  0.50000000  0.50000000  0.50000000  1
  Ir  Ir1  1  0.00000000  0.50000000  0.00000000  1
  O  O0  1  0.42783200  0.36521500  0.75561800  1
  O  O1  1  0.18731500  0.10309200  0.06460100  1
  O  O2  1  0.17100300  0.74918600  0.43791500  1
  O  O3  1  0.67100300  0.25081400  0.06208500  1
  O  O4  1  0.68731500  0.89690800  0.43539900  1
  O  O5  1  0.92783200  0.63478500  0.74438200  1
  O  O6  1  0.07216800  0.36521500  0.25561800  1
  O  O7  1  0.31268500  0.10309200  0.56460100  1
  O  O8  1  0.32899700  0.74918600  0.93791500  1
  O  O9  1  0.81268500  0.89690800  0.93539900  1
  O  O10  1  0.82899700  0.25081400  0.56208500  1
  O  O11  1  0.57216800  0.63478500  0.24438200  1
loop_
_geom_bond_atom_site_label_1
_geom_bond_atom_site_label_2
_geom_bond_distance
_geom_bond_site_symmetry_2
Ir0 O2 2.023362 1_555
Ir0 O10 2.023362 1_555
Ir0 O7 2.047700 1_555
Ir0 O4 2.047700 1_555
Ir0 O0 2.073550 1_555
Ir0 O11 2.073550 1_555
Ir1 O8 2.023362 1_554
Ir1 O3 2.023362 1_455
Ir1 O9 2.047700 1_454
Ir1 O1 2.047700 1_555
Ir1 O6 2.073550 1_555
Ir1 O5 2.073550 1_454
O0 V0 2.008818 1_556
O0 Zn2 2.024440 1_555
O0 Zn3 2.117677 1_555
O1 V0 1.903079 1_555
O1 Zn0 2.045050 1_445
O2 V1 1.907036 1_565
O2 Zn0 2.043327 1_455
O3 V0 1.907036 1_555
O3 Zn1 2.043327 1_555
O4 V1 1.903079 1_665
O4 Zn1 2.045050 1_565
O5 V1 2.008818 1_665
O5 Zn3 2.024440 1_655
O5 Zn2 2.117677 1_555
O6 V1 2.008818 1_555
O6 Zn0 2.024440 1_455
O6 Zn1 2.117677 1_555
O7 V1 1.903079 1_555
O7 Zn2 2.045050 1_545
O8 V0 1.907036 1_566
O8 Zn2 2.043327 1_555
O9 V0 1.903079 1_566
O9 Zn3 2.045050 1_665
O10 V1 1.907036 1_655
O10 Zn3 2.043327 1_655
O11 V0 2.008818 1_565
O11 Zn1 2.024440 1_555
O11 Zn0 2.117677 1_555
