# generated using pymatgen
data_Ca4Be2Al2Si9(HO14)2
_symmetry_space_group_name_H-M   'P 1'
_cell_length_a   5.07088489
_cell_length_b   12.08959389
_cell_length_c   19.63681758
_cell_angle_alpha   90.00000000
_cell_angle_beta   90.00000000
_cell_angle_gamma   102.10600613
_symmetry_Int_Tables_number   1
_chemical_formula_structural   Ca4Be2Al2Si9(HO14)2
_chemical_formula_sum   'Ca8 Be4 Al4 Si18 H4 O56'
_cell_volume   1177.06215191
_cell_formula_units_Z   2
loop_
 _symmetry_equiv_pos_site_id
 _symmetry_equiv_pos_as_xyz
  1  'x, y, z'
loop_
 _atom_site_type_symbol
 _atom_site_label
 _atom_site_symmetry_multiplicity
 _atom_site_fract_x
 _atom_site_fract_y
 _atom_site_fract_z
 _atom_site_occupancy
  Ca  Ca0  1  0.31218424  0.16592327  0.84807666  1
  Ca  Ca1  1  0.68781576  0.83407673  0.15192334  1
  Ca  Ca2  1  0.68781576  0.83407673  0.34807666  1
  Ca  Ca3  1  0.14626097  0.83407673  0.65192334  1
  Ca  Ca4  1  0.31218424  0.16592327  0.65192334  1
  Ca  Ca5  1  0.85373903  0.16592327  0.34807666  1
  Ca  Ca6  1  0.85373903  0.16592327  0.15192334  1
  Ca  Ca7  1  0.14626097  0.83407673  0.84807666  1
  Be  Be0  1  0.67512778  0.75144389  0.75000000  1
  Be  Be1  1  0.32487222  0.24855611  0.25000000  1
  Be  Be2  1  0.92368388  0.24855611  0.75000000  1
  Be  Be3  1  0.07631612  0.75144389  0.25000000  1
  Al  Al0  1  0.59538305  0.19076611  -0.00000000  1
  Al  Al1  1  0.40461695  0.80923389  -0.00000000  1
  Al  Al2  1  0.40461695  0.80923389  0.50000000  1
  Al  Al3  1  0.59538305  0.19076611  0.50000000  1
  Si  Si0  1  0.83090053  0.66180106  -0.00000000  1
  Si  Si1  1  0.16909947  0.33819894  -0.00000000  1
  Si  Si2  1  0.16909947  0.33819894  0.50000000  1
  Si  Si3  1  0.83090053  0.66180106  0.50000000  1
  Si  Si4  1  0.77001276  0.00000000  0.75000000  1
  Si  Si5  1  0.22998724  0.00000000  0.25000000  1
  Si  Si6  1  0.71562864  0.00000000  0.89499597  1
  Si  Si7  1  0.28437136  0.00000000  0.10500403  1
  Si  Si8  1  0.28437136  0.00000000  0.39499597  1
  Si  Si9  1  0.71562864  0.00000000  0.60500403  1
  Si  Si10  1  0.64052536  0.57296440  0.85698155  1
  Si  Si11  1  0.35947464  0.42703560  0.14301845  1
  Si  Si12  1  0.35947464  0.42703560  0.35698155  1
  Si  Si13  1  0.06756096  0.42703560  0.64301845  1
  Si  Si14  1  0.64052536  0.57296440  0.64301845  1
  Si  Si15  1  0.93243904  0.57296440  0.35698155  1
  Si  Si16  1  0.93243904  0.57296440  0.14301845  1
  Si  Si17  1  0.06756096  0.42703560  0.85698155  1
  H  H0  1  0.55898506  0.31305557  0.75000000  1
  H  H1  1  0.44101494  0.68694443  0.25000000  1
  H  H2  1  0.24592949  0.68694443  0.75000000  1
  H  H3  1  0.75407051  0.31305557  0.25000000  1
  O  O0  1  0.59182931  0.23625443  0.75000000  1
  O  O1  1  0.40817069  0.76374557  0.25000000  1
  O  O2  1  0.35557488  0.76374557  0.75000000  1
  O  O3  1  0.64442512  0.23625443  0.25000000  1
  O  O4  1  0.56673447  0.00000000  0.81700354  1
  O  O5  1  0.43326553  0.00000000  0.18299646  1
  O  O6  1  0.43326553  0.00000000  0.31700354  1
  O  O7  1  0.56673447  0.00000000  0.68299646  1
  O  O8  1  0.32310775  0.52926118  0.83574963  1
  O  O9  1  0.67689225  0.47073882  0.16425037  1
  O  O10  1  0.67689225  0.47073882  0.33574963  1
  O  O11  1  0.79384656  0.47073882  0.66425037  1
  O  O12  1  0.32310775  0.52926118  0.66425037  1
  O  O13  1  0.20615344  0.52926118  0.33574963  1
  O  O14  1  0.20615344  0.52926118  0.16425037  1
  O  O15  1  0.79384656  0.47073882  0.83574963  1
  O  O16  1  0.53644386  0.88517999  0.92776152  1
  O  O17  1  0.46355614  0.11482001  0.07223848  1
  O  O18  1  0.46355614  0.11482001  0.42776152  1
  O  O19  1  0.65126387  0.11482001  0.57223848  1
  O  O20  1  0.53644386  0.88517999  0.57223848  1
  O  O21  1  0.34873613  0.88517999  0.42776152  1
  O  O22  1  0.34873613  0.88517999  0.07223848  1
  O  O23  1  0.65126387  0.11482001  0.92776152  1
  O  O24  1  0.88073779  0.88239333  0.75000000  1
  O  O25  1  0.11926221  0.11760667  0.25000000  1
  O  O26  1  0.99834446  0.11760667  0.75000000  1
  O  O27  1  0.00165554  0.88239333  0.25000000  1
  O  O28  1  0.76302188  0.69173673  0.81927809  1
  O  O29  1  0.23697812  0.30826327  0.18072191  1
  O  O30  1  0.23697812  0.30826327  0.31927809  1
  O  O31  1  0.07128516  0.30826327  0.68072191  1
  O  O32  1  0.76302188  0.69173673  0.68072191  1
  O  O33  1  0.92871484  0.69173673  0.31927809  1
  O  O34  1  0.92871484  0.69173673  0.18072191  1
  O  O35  1  0.07128516  0.30826327  0.81927809  1
  O  O36  1  0.35960559  0.26126455  0.96320724  1
  O  O37  1  0.64039441  0.73873545  0.03679276  1
  O  O38  1  0.64039441  0.73873545  0.46320724  1
  O  O39  1  0.09834103  0.73873545  0.53679276  1
  O  O40  1  0.35960559  0.26126455  0.53679276  1
  O  O41  1  0.90165897  0.26126455  0.46320724  1
  O  O42  1  0.90165897  0.26126455  0.03679276  1
  O  O43  1  0.09834103  0.73873545  0.96320724  1
  O  O44  1  0.97026529  0.00000000  0.38598576  1
  O  O45  1  0.02973471  0.00000000  0.61401424  1
  O  O46  1  0.02973471  0.00000000  0.88598576  1
  O  O47  1  0.97026529  0.00000000  0.11401424  1
  O  O48  1  0.65545724  0.58662175  0.94024371  1
  O  O49  1  0.34454276  0.41337825  0.05975629  1
  O  O50  1  0.34454276  0.41337825  0.44024371  1
  O  O51  1  0.06883549  0.41337825  0.55975629  1
  O  O52  1  0.65545724  0.58662175  0.55975629  1
  O  O53  1  0.93116451  0.58662175  0.44024371  1
  O  O54  1  0.93116451  0.58662175  0.05975629  1
  O  O55  1  0.06883549  0.41337825  0.94024371  1
loop_
_geom_bond_atom_site_label_1
_geom_bond_atom_site_label_2
_geom_bond_distance
_geom_bond_site_symmetry_2
Ca0 O46 2.329009 1_555
Ca0 O35 2.378030 1_555
Ca0 O0 2.436644 1_555
Ca0 O26 2.488600 1_455
Ca0 O23 2.496435 1_555
Ca0 O36 2.526133 1_555
Ca0 O4 2.673636 1_555
Ca1 O47 2.329009 1_565
Ca1 O34 2.378030 1_555
Ca1 O1 2.436644 1_555
Ca1 O27 2.488600 1_655
Ca1 O22 2.496435 1_555
Ca1 O37 2.526133 1_555
Ca1 O5 2.673636 1_565
Ca2 O44 2.329009 1_565
Ca2 O33 2.378030 1_555
Ca2 O1 2.436644 1_555
Ca2 O27 2.488600 1_655
Ca2 O21 2.496435 1_555
Ca2 O38 2.526133 1_555
Ca2 O6 2.673636 1_565
Ca3 O45 2.329009 1_565
Ca3 O32 2.378030 1_455
Ca3 O2 2.436644 1_555
Ca3 O24 2.488600 1_455
Ca3 O20 2.496435 1_555
Ca3 O39 2.526133 1_555
Ca3 O7 2.673636 1_565
Ca4 O45 2.329009 1_555
Ca4 O31 2.378030 1_555
Ca4 O0 2.436644 1_555
Ca4 O26 2.488600 1_455
Ca4 O19 2.496435 1_555
Ca4 O40 2.526133 1_555
Ca4 O7 2.673636 1_555
Ca5 O44 2.329009 1_555
Ca5 O30 2.378030 1_655
Ca5 O3 2.436644 1_555
Ca5 O25 2.488600 1_655
Ca5 O18 2.496435 1_555
Ca5 O41 2.526133 1_555
Ca5 O6 2.673636 1_555
Ca6 O47 2.329009 1_555
Ca6 O29 2.378030 1_655
Ca6 O3 2.436644 1_555
Ca6 O25 2.488600 1_655
Ca6 O17 2.496435 1_555
Ca6 O42 2.526133 1_555
Ca6 O5 2.673636 1_555
Ca7 O46 2.329009 1_565
Ca7 O28 2.378030 1_455
Ca7 O2 2.436644 1_555
Ca7 O24 2.488600 1_455
Ca7 O16 2.496435 1_555
Ca7 O43 2.526133 1_555
Ca7 O4 2.673636 1_565
Be0 O28 1.644789 1_555
Be0 O32 1.644789 1_555
Be0 O2 1.657995 1_555
Be0 O24 1.703238 1_555
Be1 O29 1.644789 1_555
Be1 O30 1.644789 1_555
Be1 O3 1.657995 1_555
Be1 O25 1.703238 1_555
Be2 O35 1.644789 1_655
Be2 O31 1.644789 1_655
Be2 O0 1.657995 1_555
Be2 O26 1.703238 1_555
Be3 O34 1.644789 1_455
Be3 O33 1.644789 1_455
Be3 O1 1.657995 1_555
Be3 O27 1.703238 1_555
Al0 O17 1.744900 1_555
Al0 O23 1.744900 1_554
Al0 O36 1.762181 1_554
Al0 O42 1.762181 1_555
Al1 O16 1.744900 1_554
Al1 O22 1.744900 1_555
Al1 O37 1.762181 1_555
Al1 O43 1.762181 1_554
Al2 O20 1.744900 1_555
Al2 O21 1.744900 1_555
Al2 O38 1.762181 1_555
Al2 O39 1.762181 1_555
Al3 O18 1.744900 1_555
Al3 O19 1.744900 1_555
Al3 O40 1.762181 1_555
Al3 O41 1.762181 1_555
H0 O0 0.977089 1_555
H1 O1 0.977089 1_555
H2 O2 0.977089 1_555
H3 O3 0.977089 1_555
O4 Si4 1.671440 1_555
O4 Si6 1.707520 1_555
O5 Si5 1.671440 1_555
O5 Si7 1.707520 1_555
O6 Si5 1.671440 1_555
O6 Si8 1.707520 1_555
O7 Si4 1.671440 1_555
O7 Si9 1.707520 1_555
O8 Si10 1.639223 1_555
O8 Si17 1.645807 1_555
O9 Si11 1.639223 1_555
O9 Si16 1.645807 1_555
O10 Si12 1.639223 1_555
O10 Si15 1.645807 1_555
O11 Si13 1.639223 1_655
O11 Si14 1.645807 1_555
O12 Si14 1.639223 1_555
O12 Si13 1.645807 1_555
O13 Si15 1.639223 1_455
O13 Si12 1.645807 1_555
O14 Si16 1.639223 1_455
O14 Si11 1.645807 1_555
O15 Si17 1.639223 1_655
O15 Si10 1.645807 1_555
O16 Si6 1.624019 1_565
O17 Si7 1.624019 1_555
O18 Si8 1.624019 1_555
O19 Si9 1.624019 1_555
O20 Si9 1.624019 1_565
O21 Si8 1.624019 1_565
O22 Si7 1.624019 1_565
O23 Si6 1.624019 1_555
O24 Si4 1.634522 1_565
O25 Si5 1.634522 1_555
O26 Si4 1.634522 1_555
O27 Si5 1.634522 1_565
O28 Si10 1.619173 1_555
O29 Si11 1.619173 1_555
O30 Si12 1.619173 1_555
O31 Si13 1.619173 1_555
O32 Si14 1.619173 1_555
O33 Si15 1.619173 1_555
O34 Si16 1.619173 1_555
O35 Si17 1.619173 1_555
O36 Si1 1.642312 1_556
O37 Si0 1.642312 1_555
O38 Si3 1.642312 1_555
O39 Si3 1.642312 1_455
O40 Si2 1.642312 1_555
O41 Si2 1.642312 1_655
O42 Si1 1.642312 1_655
O43 Si0 1.642312 1_456
O44 Si8 1.602593 1_655
O45 Si9 1.602593 1_455
O46 Si6 1.602593 1_455
O47 Si7 1.602593 1_655
O48 Si0 1.629516 1_556
O48 Si10 1.643469 1_555
O49 Si1 1.629516 1_555
O49 Si11 1.643469 1_555
O50 Si2 1.629516 1_555
O50 Si12 1.643469 1_555
O51 Si2 1.629516 1_555
O51 Si13 1.643469 1_555
O52 Si3 1.629516 1_555
O52 Si14 1.643469 1_555
O53 Si3 1.629516 1_555
O53 Si15 1.643469 1_555
O54 Si0 1.629516 1_555
O54 Si16 1.643469 1_555
O55 Si1 1.629516 1_556
O55 Si17 1.643469 1_555
