# generated using pymatgen
data_CsLu(SO4)2
_symmetry_space_group_name_H-M   'P 1'
_cell_length_a   4.53974400
_cell_length_b   9.52638143
_cell_length_c   8.23630361
_cell_angle_alpha   92.56849692
_cell_angle_beta   90.00000000
_cell_angle_gamma   90.00000000
_symmetry_Int_Tables_number   1
_chemical_formula_structural   CsLu(SO4)2
_chemical_formula_sum   'Cs2 Lu2 S4 O16'
_cell_volume   355.84031360
_cell_formula_units_Z   2
loop_
 _symmetry_equiv_pos_site_id
 _symmetry_equiv_pos_as_xyz
  1  'x, y, z'
loop_
 _atom_site_type_symbol
 _atom_site_label
 _atom_site_symmetry_multiplicity
 _atom_site_fract_x
 _atom_site_fract_y
 _atom_site_fract_z
 _atom_site_occupancy
  Cs  Cs0  1  0.42660100  0.50000000  0.75000000  1
  Cs  Cs1  1  0.57339900  0.50000000  0.25000000  1
  Lu  Lu0  1  0.54254500  0.00000000  0.75000000  1
  Lu  Lu1  1  0.45745500  0.00000000  0.25000000  1
  S  S0  1  0.96149200  0.80361700  0.46569600  1
  S  S1  1  0.03850800  0.19638300  0.53430400  1
  S  S2  1  0.96149200  0.19638300  0.03430400  1
  S  S3  1  0.03850800  0.80361700  0.96569600  1
  O  O0  1  0.77417400  0.83845500  0.32256600  1
  O  O1  1  0.22582600  0.16154500  0.67743400  1
  O  O2  1  0.77417400  0.16154500  0.17743400  1
  O  O3  1  0.22582600  0.83845500  0.82256600  1
  O  O4  1  0.93849500  0.65768400  0.94968000  1
  O  O5  1  0.06150500  0.34231600  0.05032000  1
  O  O6  1  0.93849500  0.34231600  0.55032000  1
  O  O7  1  0.06150500  0.65768400  0.44968000  1
  O  O8  1  0.77796900  0.90160400  0.97235000  1
  O  O9  1  0.22203100  0.09839600  0.02765000  1
  O  O10  1  0.77796900  0.09839600  0.52765000  1
  O  O11  1  0.22203100  0.90160400  0.47235000  1
  O  O12  1  0.77585800  0.82529700  0.61472000  1
  O  O13  1  0.22414200  0.17470300  0.38528000  1
  O  O14  1  0.77585800  0.17470300  0.88528000  1
  O  O15  1  0.22414200  0.82529700  0.11472000  1
loop_
_geom_bond_atom_site_label_1
_geom_bond_atom_site_label_2
_geom_bond_distance
_geom_bond_site_symmetry_2
Cs0 O6 3.106438 1_455
Cs0 O4 3.106438 1_455
Cs0 O4 3.184369 1_555
Cs0 O6 3.184369 1_555
Cs0 O1 3.378027 1_555
Cs0 O3 3.378027 1_555
Cs0 O5 3.384516 1_556
Cs0 O7 3.384516 1_555
Cs0 O12 3.697033 1_555
Cs0 O14 3.697033 1_555
Cs1 O5 3.106438 1_655
Cs1 O7 3.106438 1_655
Cs1 O5 3.184369 1_555
Cs1 O7 3.184369 1_555
Cs1 O2 3.378027 1_555
Cs1 O0 3.378027 1_555
Cs1 O6 3.384516 1_555
Cs1 O4 3.384516 1_554
Cs1 O15 3.697033 1_555
Cs1 O13 3.697033 1_555
Lu0 O1 2.208014 1_555
Lu0 O3 2.208014 1_545
Lu0 O14 2.228671 1_555
Lu0 O12 2.228671 1_545
Lu0 O10 2.351291 1_555
Lu0 O8 2.351291 1_545
Lu1 O2 2.208014 1_555
Lu1 O0 2.208014 1_545
Lu1 O13 2.228671 1_555
Lu1 O15 2.228671 1_545
Lu1 O9 2.351291 1_555
Lu1 O11 2.351291 1_545
O0 S0 1.502686 1_555
O1 S1 1.502686 1_555
O2 S2 1.502686 1_555
O3 S3 1.502686 1_555
O4 S3 1.462807 1_655
O5 S2 1.462807 1_455
O6 S1 1.462807 1_655
O7 S0 1.462807 1_455
O8 S3 1.506233 1_655
O9 S2 1.506233 1_455
O10 S1 1.506233 1_655
O11 S0 1.506233 1_455
O12 S0 1.495546 1_555
O13 S1 1.495546 1_555
O14 S2 1.495546 1_556
O15 S3 1.495546 1_554
