# generated using pymatgen
data_Cs2NdAgBr6
_symmetry_space_group_name_H-M   'P 1'
_cell_length_a   8.16912403
_cell_length_b   8.16912403
_cell_length_c   8.16912403
_cell_angle_alpha   60.00000000
_cell_angle_beta   60.00000000
_cell_angle_gamma   60.00000000
_symmetry_Int_Tables_number   1
_chemical_formula_structural   Cs2NdAgBr6
_chemical_formula_sum   'Cs2 Nd1 Ag1 Br6'
_cell_volume   385.48854062
_cell_formula_units_Z   1
loop_
 _symmetry_equiv_pos_site_id
 _symmetry_equiv_pos_as_xyz
  1  'x, y, z'
loop_
 _atom_site_type_symbol
 _atom_site_label
 _atom_site_symmetry_multiplicity
 _atom_site_fract_x
 _atom_site_fract_y
 _atom_site_fract_z
 _atom_site_occupancy
  Cs  Cs0  1  0.75000000  0.75000000  0.75000000  1
  Cs  Cs1  1  0.25000000  0.25000000  0.25000000  1
  Nd  Nd0  1  0.50000000  0.50000000  0.50000000  1
  Ag  Ag0  1  0.00000000  0.00000000  0.00000000  1
  Br  Br0  1  0.75007000  0.24993000  0.24993000  1
  Br  Br1  1  0.24993000  0.24993000  0.75007000  1
  Br  Br2  1  0.24993000  0.75007000  0.75007000  1
  Br  Br3  1  0.24993000  0.75007000  0.24993000  1
  Br  Br4  1  0.75007000  0.24993000  0.75007000  1
  Br  Br5  1  0.75007000  0.75007000  0.24993000  1
loop_
_geom_bond_atom_site_label_1
_geom_bond_atom_site_label_2
_geom_bond_distance
_geom_bond_site_symmetry_2
Ag0 Br0 2.887413 1_455
Ag0 Br5 2.887413 1_445
Ag0 Br3 2.887413 1_545
Ag0 Br4 2.887413 1_454
Ag0 Br1 2.887413 1_554
Ag0 Br2 2.887413 1_544
Br0 Nd0 2.889030 1_555
Br0 Cs1 4.084562 1_655
Br0 Cs0 4.084562 1_545
Br0 Cs0 4.084562 1_554
Br0 Cs1 4.084562 1_555
Br1 Nd0 2.889030 1_555
Br1 Cs0 4.084562 1_455
Br1 Cs0 4.084562 1_545
Br1 Cs1 4.084562 1_555
Br1 Cs1 4.084562 1_556
Br2 Nd0 2.889030 1_555
Br2 Cs1 4.084562 1_565
Br2 Cs0 4.084562 1_455
Br2 Cs0 4.084562 1_555
Br2 Cs1 4.084562 1_556
Br3 Nd0 2.889030 1_555
Br3 Cs1 4.084562 1_565
Br3 Cs0 4.084562 1_455
Br3 Cs1 4.084562 1_555
Br3 Cs0 4.084562 1_554
Br4 Nd0 2.889030 1_555
Br4 Cs1 4.084562 1_655
Br4 Cs0 4.084562 1_555
Br4 Cs0 4.084562 1_545
Br4 Cs1 4.084562 1_556
Br5 Nd0 2.889030 1_555
Br5 Cs1 4.084562 1_565
Br5 Cs1 4.084562 1_655
Br5 Cs0 4.084562 1_555
Br5 Cs0 4.084562 1_554
