# generated using pymatgen
data_CsMg6BO8
_symmetry_space_group_name_H-M   'P 1'
_cell_length_a   9.66380253
_cell_length_b   4.41060837
_cell_length_c   4.41060837
_cell_angle_alpha   90.00000000
_cell_angle_beta   90.00000000
_cell_angle_gamma   90.00000000
_symmetry_Int_Tables_number   1
_chemical_formula_structural   CsMg6BO8
_chemical_formula_sum   'Cs1 Mg6 B1 O8'
_cell_volume   187.99445582
_cell_formula_units_Z   1
loop_
 _symmetry_equiv_pos_site_id
 _symmetry_equiv_pos_as_xyz
  1  'x, y, z'
loop_
 _atom_site_type_symbol
 _atom_site_label
 _atom_site_symmetry_multiplicity
 _atom_site_fract_x
 _atom_site_fract_y
 _atom_site_fract_z
 _atom_site_occupancy
  Cs  Cs0  1  -0.00000000  0.00000000  0.00000000  1
  Mg  Mg0  1  0.50000000  0.00000000  0.00000000  1
  Mg  Mg1  1  0.50000000  0.50000000  0.50000000  1
  Mg  Mg2  1  0.28364148  0.00000000  0.50000000  1
  Mg  Mg3  1  0.71635852  -0.00000000  0.50000000  1
  Mg  Mg4  1  0.28364148  0.50000000  -0.00000000  1
  Mg  Mg5  1  0.71635852  0.50000000  0.00000000  1
  B  B0  1  -0.00000000  0.50000000  0.50000000  1
  O  O0  1  0.28939569  -0.00000000  -0.00000000  1
  O  O1  1  0.71060431  0.00000000  0.00000000  1
  O  O2  1  0.27718622  0.50000000  0.50000000  1
  O  O3  1  0.72281378  0.50000000  0.50000000  1
  O  O4  1  -0.00000000  0.00000000  0.50000000  1
  O  O5  1  0.50000000  0.00000000  0.50000000  1
  O  O6  1  -0.00000000  0.50000000  0.00000000  1
  O  O7  1  0.50000000  0.50000000  0.00000000  1
loop_
_geom_bond_atom_site_label_1
_geom_bond_atom_site_label_2
_geom_bond_distance
_geom_bond_site_symmetry_2
Cs0 O4 2.205304 1_555
Cs0 O4 2.205304 1_554
Cs0 O6 2.205304 1_545
Cs0 O6 2.205304 1_555
Cs0 O0 2.796663 1_555
Cs0 O1 2.796663 1_455
Mg0 O0 2.035238 1_555
Mg0 O1 2.035238 1_555
Mg0 O7 2.205304 1_555
Mg0 O5 2.205304 1_554
Mg0 O5 2.205304 1_555
Mg0 O7 2.205304 1_545
Mg1 O3 2.153228 1_555
Mg1 O2 2.153228 1_555
Mg1 O7 2.205304 1_555
Mg1 O7 2.205304 1_556
Mg1 O5 2.205304 1_555
Mg1 O5 2.205304 1_565
Mg2 O5 2.090846 1_555
Mg2 O0 2.206005 1_555
Mg2 O0 2.206005 1_556
Mg2 O2 2.206186 1_555
Mg2 O2 2.206186 1_545
Mg2 O4 2.741055 1_555
Mg3 O5 2.090846 1_555
Mg3 O1 2.206005 1_555
Mg3 O1 2.206005 1_556
Mg3 O3 2.206186 1_545
Mg3 O3 2.206186 1_555
Mg3 O4 2.741055 1_655
Mg4 O7 2.090846 1_555
Mg4 O0 2.206005 1_555
Mg4 O0 2.206005 1_565
Mg4 O2 2.206186 1_555
Mg4 O2 2.206186 1_554
Mg4 O6 2.741055 1_555
Mg5 O7 2.090846 1_555
Mg5 O1 2.206005 1_555
Mg5 O1 2.206005 1_565
Mg5 O3 2.206186 1_555
Mg5 O3 2.206186 1_554
Mg5 O6 2.741055 1_655
B0 O6 2.205304 1_555
B0 O4 2.205304 1_565
B0 O6 2.205304 1_556
B0 O4 2.205304 1_555
