# generated using pymatgen
data_U2(SiGe)3
_symmetry_space_group_name_H-M   'P 1'
_cell_length_a   4.11639200
_cell_length_b   4.13902100
_cell_length_c   8.18339500
_cell_angle_alpha   90.00000000
_cell_angle_beta   90.00000000
_cell_angle_gamma   90.00000000
_symmetry_Int_Tables_number   1
_chemical_formula_structural   U2(SiGe)3
_chemical_formula_sum   'U2 Si3 Ge3'
_cell_volume   139.42731683
_cell_formula_units_Z   1
loop_
 _symmetry_equiv_pos_site_id
 _symmetry_equiv_pos_as_xyz
  1  'x, y, z'
loop_
 _atom_site_type_symbol
 _atom_site_label
 _atom_site_symmetry_multiplicity
 _atom_site_fract_x
 _atom_site_fract_y
 _atom_site_fract_z
 _atom_site_occupancy
  U  U0  1  0.00000000  0.00000000  0.24594000  1
  U  U1  1  0.00000000  0.00000000  0.75406000  1
  Si  Si0  1  0.00000000  0.50000000  0.00000000  1
  Si  Si1  1  0.50000000  0.00000000  0.50000000  1
  Si  Si2  1  0.50000000  0.00000000  0.00000000  1
  Ge  Ge0  1  0.50000000  0.50000000  0.24499300  1
  Ge  Ge1  1  0.50000000  0.50000000  0.75500700  1
  Ge  Ge2  1  0.00000000  0.50000000  0.50000000  1
loop_
_geom_bond_atom_site_label_1
_geom_bond_atom_site_label_2
_geom_bond_distance
_geom_bond_site_symmetry_2
Si0 U1 2.886785 1_564
Si0 U1 2.886785 1_554
Si0 U0 2.886785 1_555
Si0 U0 2.886785 1_565
Si1 U0 2.925528 1_655
Si1 U0 2.925528 1_555
Si1 U1 2.925528 1_555
Si1 U1 2.925528 1_655
Si2 U1 2.878685 1_554
Si2 U0 2.878685 1_655
Si2 U0 2.878685 1_555
Si2 U1 2.878685 1_654
Ge0 Si0 2.873272 1_555
Ge0 Si0 2.873272 1_655
Ge0 Si2 2.881388 1_555
Ge0 Si2 2.881388 1_565
Ge0 U0 2.918751 1_655
Ge0 U0 2.918751 1_565
Ge0 U0 2.918751 1_555
Ge0 U0 2.918751 1_665
Ge0 Ge2 2.931041 1_555
Ge0 Ge2 2.931041 1_655
Ge0 Si1 2.938997 1_555
Ge0 Si1 2.938997 1_565
Ge1 Si0 2.873272 1_656
Ge1 Si0 2.873272 1_556
Ge1 Si2 2.881388 1_556
Ge1 Si2 2.881388 1_566
Ge1 U1 2.918751 1_555
Ge1 U1 2.918751 1_565
Ge1 U1 2.918751 1_655
Ge1 U1 2.918751 1_665
Ge1 Ge2 2.931041 1_555
Ge1 Ge2 2.931041 1_655
Ge1 Si1 2.938997 1_555
Ge1 Si1 2.938997 1_565
Ge2 Si1 2.918740 1_465
Ge2 Si1 2.918740 1_565
Ge2 Si1 2.918740 1_555
Ge2 Si1 2.918740 1_455
Ge2 U0 2.933500 1_555
Ge2 U0 2.933500 1_565
Ge2 U1 2.933500 1_565
Ge2 U1 2.933500 1_555
