# generated using pymatgen
data_Gd3ScS6
_symmetry_space_group_name_H-M   'P 1'
_cell_length_a   3.84601308
_cell_length_b   13.61906127
_cell_length_c   16.40360296
_cell_angle_alpha   90.00332555
_cell_angle_beta   89.99949777
_cell_angle_gamma   89.99963604
_symmetry_Int_Tables_number   1
_chemical_formula_structural   Gd3ScS6
_chemical_formula_sum   'Gd12 Sc4 S24'
_cell_volume   859.20575843
_cell_formula_units_Z   4
loop_
 _symmetry_equiv_pos_site_id
 _symmetry_equiv_pos_as_xyz
  1  'x, y, z'
loop_
 _atom_site_type_symbol
 _atom_site_label
 _atom_site_symmetry_multiplicity
 _atom_site_fract_x
 _atom_site_fract_y
 _atom_site_fract_z
 _atom_site_occupancy
  Gd  Gd0  1  0.00000050  0.31697035  0.14945422  1
  Gd  Gd1  1  0.00001210  0.68301964  0.85051738  1
  Gd  Gd2  1  0.49999709  0.18304524  0.64946176  1
  Gd  Gd3  1  0.50001296  0.81698473  0.35054644  1
  Gd  Gd4  1  0.00000786  0.75117823  0.10184111  1
  Gd  Gd5  1  -0.00000172  0.24886650  0.89818035  1
  Gd  Gd6  1  0.49999822  0.74887077  0.60184848  1
  Gd  Gd7  1  0.50000570  0.25117013  0.39812212  1
  Gd  Gd8  1  -0.00001152  0.54626077  0.28034086  1
  Gd  Gd9  1  0.00000678  0.45371824  0.71963369  1
  Gd  Gd10  1  0.49999901  0.95378321  0.78038468  1
  Gd  Gd11  1  0.50000559  0.04627186  0.21964984  1
  Sc  Sc0  1  0.00000232  0.99999402  0.50000665  1
  Sc  Sc1  1  0.50000631  0.50002705  0.00000721  1
  Sc  Sc2  1  -0.00002385  -0.00001749  0.00001526  1
  Sc  Sc3  1  0.49999646  0.50001970  0.50001267  1
  S  S0  1  0.00000152  0.18616165  0.28957596  1
  S  S1  1  0.00000546  0.81379431  0.71044683  1
  S  S2  1  0.49999573  0.31376204  0.78954222  1
  S  S3  1  0.49997021  0.68626791  0.21045476  1
  S  S4  1  -0.00000361  0.10607161  0.75233068  1
  S  S5  1  0.00000205  0.89395679  0.24766339  1
  S  S6  1  0.50000054  0.39397635  0.25227972  1
  S  S7  1  0.50002472  0.60595224  0.74772403  1
  S  S8  1  0.00000570  0.40824993  0.42226919  1
  S  S9  1  0.00000034  0.59176581  0.57775231  1
  S  S10  1  0.49999570  0.09172776  0.92225822  1
  S  S11  1  0.49997314  0.90824023  0.07775758  1
  S  S12  1  -0.00000045  0.18637822  0.52236656  1
  S  S13  1  0.00000638  0.81354146  0.47762771  1
  S  S14  1  0.49999977  0.31356723  0.02238211  1
  S  S15  1  0.50000366  0.68639019  0.97761094  1
  S  S16  1  0.00000068  0.12151397  0.11200998  1
  S  S17  1  -0.00000004  0.87850524  0.88798263  1
  S  S18  1  0.50000620  0.37849917  0.61200118  1
  S  S19  1  0.49998884  0.62149125  0.38795739  1
  S  S20  1  0.00000237  0.52077594  0.10407231  1
  S  S21  1  0.00000534  0.47924334  0.89592237  1
  S  S22  1  0.50000238  0.97925813  0.60407615  1
  S  S23  1  0.49999958  0.02074427  0.39591404  1
loop_
_geom_bond_atom_site_label_1
_geom_bond_atom_site_label_2
_geom_bond_distance
_geom_bond_site_symmetry_2
Gd0 S16 2.731842 1_555
Gd0 S6 2.764512 1_455
Gd0 S6 2.764542 1_555
Gd0 S14 2.836353 1_555
Gd0 S14 2.836382 1_455
Gd0 S20 2.873777 1_555
Gd0 S0 2.908143 1_555
Gd1 S17 2.732307 1_555
Gd1 S7 2.764504 1_455
Gd1 S7 2.764542 1_555
Gd1 S15 2.836610 1_555
Gd1 S15 2.836629 1_455
Gd1 S21 2.873490 1_555
Gd1 S1 2.907196 1_555
Gd2 S18 2.731939 1_555
Gd2 S4 2.764865 1_555
Gd2 S4 2.764873 1_655
Gd2 S12 2.836629 1_655
Gd2 S12 2.836641 1_555
Gd2 S22 2.873466 1_545
Gd2 S2 2.906678 1_555
Gd3 S19 2.732281 1_555
Gd3 S5 2.764967 1_655
Gd3 S5 2.765037 1_555
Gd3 S13 2.836486 1_655
Gd3 S13 2.836496 1_555
Gd3 S23 2.873027 1_565
Gd3 S3 2.906824 1_555
Gd4 S3 2.766478 1_555
Gd4 S3 2.766665 1_455
Gd4 S11 2.903296 1_555
Gd4 S11 2.903459 1_455
Gd4 S15 2.937492 1_554
Gd4 S15 2.937544 1_454
Gd4 S5 3.082579 1_555
Gd4 S20 3.138078 1_555
Gd5 S2 2.766752 1_555
Gd5 S2 2.766780 1_455
Gd5 S10 2.904122 1_555
Gd5 S10 2.904148 1_455
Gd5 S14 2.936819 1_456
Gd5 S14 2.936857 1_556
Gd5 S4 3.083068 1_555
Gd5 S21 3.137737 1_555
Gd6 S1 2.766367 1_555
Gd6 S1 2.766436 1_655
Gd6 S9 2.903797 1_655
Gd6 S9 2.903809 1_555
Gd6 S13 2.936990 1_555
Gd6 S13 2.937015 1_655
Gd6 S7 3.084635 1_555
Gd6 S22 3.137870 1_555
Gd7 S0 2.766194 1_655
Gd7 S0 2.766246 1_555
Gd7 S8 2.903653 1_555
Gd7 S8 2.903676 1_655
Gd7 S12 2.937760 1_655
Gd7 S12 2.937775 1_555
Gd7 S6 3.083248 1_555
Gd7 S23 3.138391 1_555
Gd8 S19 2.804224 1_455
Gd8 S19 2.804257 1_555
Gd8 S6 2.865478 1_455
Gd8 S6 2.865517 1_555
Gd8 S20 2.912176 1_555
Gd8 S3 2.940731 1_555
Gd8 S3 2.940820 1_455
Gd8 S8 2.992246 1_555
Gd9 S18 2.804332 1_555
Gd9 S18 2.804365 1_455
Gd9 S7 2.865020 1_455
Gd9 S7 2.865136 1_555
Gd9 S21 2.912569 1_555
Gd9 S2 2.940440 1_555
Gd9 S2 2.940498 1_455
Gd9 S9 2.991962 1_555
Gd10 S17 2.804351 1_555
Gd10 S17 2.804369 1_655
Gd10 S4 2.865556 1_665
Gd10 S4 2.865558 1_565
Gd10 S22 2.912851 1_555
Gd10 S1 2.940857 1_555
Gd10 S1 2.940861 1_655
Gd10 S10 2.990810 1_565
Gd11 S16 2.804595 1_655
Gd11 S16 2.804633 1_555
Gd11 S5 2.865698 1_645
Gd11 S5 2.865729 1_545
Gd11 S23 2.912215 1_555
Gd11 S0 2.939905 1_555
Gd11 S0 2.939913 1_655
Gd11 S11 2.991794 1_545
S8 Sc3 2.624133 1_555
S8 Sc3 2.624157 1_455
S9 Sc3 2.623936 1_555
S9 Sc3 2.623986 1_455
S10 Sc2 2.624112 1_656
S10 Sc2 2.624217 1_556
S11 Sc2 2.624022 1_565
S11 Sc2 2.624034 1_665
S12 Sc0 2.564719 1_545
S13 Sc0 2.565685 1_555
S14 Sc1 2.565816 1_555
S15 Sc1 2.564563 1_556
S16 Sc2 2.472680 1_555
S17 Sc2 2.472649 1_566
S18 Sc3 2.472648 1_555
S19 Sc3 2.473015 1_555
S20 Sc1 2.586839 1_555
S20 Sc1 2.586842 1_455
S21 Sc1 2.587091 1_456
S21 Sc1 2.587121 1_556
S22 Sc0 2.586881 1_655
S22 Sc0 2.586900 1_555
S23 Sc0 2.587144 1_545
S23 Sc0 2.587180 1_645
