# generated using pymatgen
data_Ca2MgPb
_symmetry_space_group_name_H-M   'P 1'
_cell_length_a   12.96455340
_cell_length_b   13.22058356
_cell_length_c   13.22058354
_cell_angle_alpha   60.45943105
_cell_angle_beta   60.63858099
_cell_angle_gamma   60.63858393
_symmetry_Int_Tables_number   1
_chemical_formula_structural   Ca2MgPb
_chemical_formula_sum   'Ca2 Mg1 Pb1'
_cell_volume   1623.24047457
_cell_formula_units_Z   1
loop_
 _symmetry_equiv_pos_site_id
 _symmetry_equiv_pos_as_xyz
  1  'x, y, z'
loop_
 _atom_site_type_symbol
 _atom_site_label
 _atom_site_symmetry_multiplicity
 _atom_site_fract_x
 _atom_site_fract_y
 _atom_site_fract_z
 _atom_site_occupancy
  Ca  Ca0  1  0.73189158  0.00000000  1.00000000  1
  Ca  Ca1  1  0.26810842  1.00000000  0.00000000  1
  Mg  Mg0  1  0.00000000  0.00000000  -0.00000000  1
  Pb  Pb0  1  0.50000000  0.00000000  -0.00000000  1
loop_
_geom_bond_atom_site_label_1
_geom_bond_atom_site_label_2
_geom_bond_distance
_geom_bond_site_symmetry_2
Ca0 Pb0 3.006371 1_556
Ca0 Mg0 3.475906 1_656
Ca1 Pb0 3.006371 1_565
Ca1 Mg0 3.475906 1_565
