# generated using pymatgen
data_Sr2CoCu2O7
_symmetry_space_group_name_H-M   'P 1'
_cell_length_a   12.84684886
_cell_length_b   12.84684886
_cell_length_c   12.84684886
_cell_angle_alpha   156.92233821
_cell_angle_beta   156.77538340
_cell_angle_gamma   32.97160391
_symmetry_Int_Tables_number   1
_chemical_formula_structural   Sr2CoCu2O7
_chemical_formula_sum   'Sr4 Co2 Cu4 O14'
_cell_volume   327.44382219
_cell_formula_units_Z   2
loop_
 _symmetry_equiv_pos_site_id
 _symmetry_equiv_pos_as_xyz
  1  'x, y, z'
loop_
 _atom_site_type_symbol
 _atom_site_label
 _atom_site_symmetry_multiplicity
 _atom_site_fract_x
 _atom_site_fract_y
 _atom_site_fract_z
 _atom_site_occupancy
  Sr  Sr0  1  0.64631700  0.62691400  0.97736100  1
  Sr  Sr1  1  0.35368300  0.33104400  0.98059700  1
  Sr  Sr2  1  0.14955300  0.12691400  0.98059700  1
  Sr  Sr3  1  0.85044700  0.83104400  0.97736100  1
  Co  Co0  1  0.18422100  0.77193300  0.45615400  1
  Co  Co1  1  0.81577900  0.27193300  0.58771200  1
  Cu  Cu0  1  0.55966200  0.03779600  0.48061700  1
  Cu  Cu1  1  0.44033800  0.92095500  0.47813400  1
  Cu  Cu2  1  0.05717800  0.53779600  0.47813400  1
  Cu  Cu3  1  0.94282200  0.42095500  0.48061700  1
  O  O0  1  0.84528800  0.63906100  0.98434900  1
  O  O1  1  0.15471200  0.13906100  0.79377300  1
  O  O2  1  0.32596900  0.30499600  0.48133100  1
  O  O3  1  0.67403100  0.15536200  0.97902700  1
  O  O4  1  0.32366600  0.80499600  0.97902700  1
  O  O5  1  0.67633400  0.65536200  0.48133100  1
  O  O6  1  0.82537400  0.80417400  0.47898800  1
  O  O7  1  0.17462600  0.65361400  0.97880000  1
  O  O8  1  0.82518600  0.30417400  0.97880000  1
  O  O9  1  0.17481400  0.15361400  0.47898800  1
  O  O10  1  0.19008900  0.65805300  0.48534300  1
  O  O11  1  0.80991100  0.29525300  0.46796400  1
  O  O12  1  0.67271100  0.15805300  0.46796400  1
  O  O13  1  0.32728900  0.79525300  0.48534300  1
loop_
_geom_bond_atom_site_label_1
_geom_bond_atom_site_label_2
_geom_bond_distance
_geom_bond_site_symmetry_2
Co0 O13 1.748994 1_555
Co0 O10 1.749018 1_555
Co0 O0 1.881235 1_454
Co0 O1 1.893039 1_565
Co1 O12 1.749006 1_555
Co1 O11 1.749006 1_555
Co1 O1 1.881235 1_655
Co1 O0 1.893039 1_555
Cu0 O8 1.863078 1_555
Cu0 O6 1.867158 1_545
Cu0 O2 1.870216 1_555
Cu0 O4 1.872821 1_544
Cu1 O9 1.863078 1_565
Cu1 O7 1.867158 1_554
Cu1 O3 1.870216 1_565
Cu1 O5 1.872818 1_555
Cu2 O6 1.863077 1_455
Cu2 O8 1.867161 1_454
Cu2 O4 1.870221 1_555
Cu2 O2 1.872825 1_555
Cu3 O7 1.863081 1_655
Cu3 O9 1.867158 1_655
Cu3 O5 1.870228 1_555
Cu3 O3 1.872821 1_554
O0 Sr0 2.605392 1_555
O0 Sr3 2.605392 1_555
O1 Sr2 2.605392 1_555
O1 Sr1 2.605392 1_555
O2 Sr0 2.552494 1_555
O2 Sr2 2.564671 1_554
O3 Sr1 2.552494 1_555
O3 Sr3 2.564671 1_545
O4 Sr2 2.552488 1_565
O4 Sr0 2.564660 1_555
O5 Sr3 2.552485 1_555
O5 Sr1 2.564662 1_554
O6 Sr2 2.558999 1_665
O6 Sr0 2.559054 1_554
O7 Sr3 2.558999 1_455
O7 Sr1 2.559054 1_555
O8 Sr0 2.558999 1_555
O8 Sr2 2.559054 1_655
O9 Sr1 2.558999 1_555
O9 Sr3 2.559054 1_444
O10 Sr0 2.663463 1_555
O10 Sr2 2.687674 1_554
O10 Sr2 2.710433 1_565
O10 Sr0 2.765039 1_454
O11 Sr1 2.663469 1_554
O11 Sr3 2.687676 1_544
O11 Sr3 2.710440 1_555
O11 Sr1 2.765041 1_655
O12 Sr2 2.663469 1_554
O12 Sr0 2.687676 1_544
O12 Sr0 2.710440 1_555
O12 Sr2 2.765041 1_655
O13 Sr3 2.663470 1_555
O13 Sr1 2.687682 1_554
O13 Sr1 2.710441 1_565
O13 Sr3 2.765047 1_454
