# generated using pymatgen
data_Te(I3O4)2
_symmetry_space_group_name_H-M   'P 1'
_cell_length_a   14.09891500
_cell_length_b   7.73370900
_cell_length_c   10.34938296
_cell_angle_alpha   54.01013855
_cell_angle_beta   90.00000000
_cell_angle_gamma   90.00000000
_symmetry_Int_Tables_number   1
_chemical_formula_structural   Te(I3O4)2
_chemical_formula_sum   'Te2 I12 O16'
_cell_volume   913.06447280
_cell_formula_units_Z   2
loop_
 _symmetry_equiv_pos_site_id
 _symmetry_equiv_pos_as_xyz
  1  'x, y, z'
loop_
 _atom_site_type_symbol
 _atom_site_label
 _atom_site_symmetry_multiplicity
 _atom_site_fract_x
 _atom_site_fract_y
 _atom_site_fract_z
 _atom_site_occupancy
  Te  Te0  1  0.00000000  0.00000000  0.50000000  1
  Te  Te1  1  0.50000000  0.00000000  0.00000000  1
  I  I0  1  0.12615700  0.71459300  0.46896000  1
  I  I1  1  0.87384300  0.28540700  0.53104000  1
  I  I2  1  0.62615700  0.28540700  0.03104000  1
  I  I3  1  0.37384300  0.71459300  0.96896000  1
  I  I4  1  0.13937500  0.41291800  0.31281100  1
  I  I5  1  0.91891300  0.17154900  0.18904700  1
  I  I6  1  0.63937500  0.58708200  0.18718900  1
  I  I7  1  0.41891300  0.82845100  0.31095300  1
  I  I8  1  0.86062500  0.58708200  0.68718900  1
  I  I9  1  0.08108700  0.82845100  0.81095300  1
  I  I10  1  0.36062500  0.41291800  0.81281100  1
  I  I11  1  0.58108700  0.17154900  0.68904700  1
  O  O0  1  0.12638200  0.20504300  0.94772300  1
  O  O1  1  0.87361800  0.79495700  0.05227700  1
  O  O2  1  0.62638200  0.79495700  0.55227700  1
  O  O3  1  0.37361800  0.20504300  0.44772300  1
  O  O4  1  0.37269500  0.24824800  0.55148900  1
  O  O5  1  0.62730500  0.75175200  0.44851100  1
  O  O6  1  0.87269500  0.75175200  0.94851100  1
  O  O7  1  0.12730500  0.24824800  0.05148900  1
  O  O8  1  0.19313100  0.46982600  0.45851200  1
  O  O9  1  0.80686900  0.53017400  0.54148800  1
  O  O10  1  0.69313100  0.53017400  0.04148800  1
  O  O11  1  0.30686900  0.46982600  0.95851200  1
  O  O12  1  0.42788900  0.32366200  0.32310700  1
  O  O13  1  0.92788900  0.67633800  0.17689300  1
  O  O14  1  0.57211100  0.67633800  0.67689300  1
  O  O15  1  0.07211100  0.32366200  0.82310700  1
loop_
_geom_bond_atom_site_label_1
_geom_bond_atom_site_label_2
_geom_bond_distance
_geom_bond_site_symmetry_2
I0 O8 2.174206 1_555
I0 Te0 2.995367 1_565
I1 O9 2.174206 1_555
I1 Te0 2.995367 1_655
I2 O10 2.174206 1_555
I2 Te1 2.995367 1_555
I3 O11 2.174206 1_555
I3 Te1 2.995367 1_566
I4 O8 1.954967 1_555
I4 Te0 3.246732 1_555
I5 Te0 2.899278 1_655
I6 O10 1.954967 1_555
I6 Te1 3.246732 1_565
I7 Te1 2.899278 1_565
I8 O9 1.954967 1_555
I8 Te0 3.246732 1_665
I9 Te0 2.899278 1_565
I10 O11 1.954967 1_555
I10 Te1 3.246732 1_556
I11 Te1 2.899278 1_556
O0 O7 1.298783 1_556
O0 O15 1.303782 1_555
O1 O6 1.298783 1_554
O1 O13 1.303782 1_555
O2 O5 1.298783 1_555
O3 O4 1.298783 1_555
O12 O3 1.303782 1_555
O14 O2 1.303782 1_555
