# generated using pymatgen
data_EuH3CSO7
_symmetry_space_group_name_H-M   'P 1'
_cell_length_a   7.08669900
_cell_length_b   7.08669900
_cell_length_c   12.04861000
_cell_angle_alpha   90.00000000
_cell_angle_beta   90.00000000
_cell_angle_gamma   90.00000000
_symmetry_Int_Tables_number   1
_chemical_formula_structural   EuH3CSO7
_chemical_formula_sum   'Eu4 H12 C4 S4 O28'
_cell_volume   605.09689012
_cell_formula_units_Z   4
loop_
 _symmetry_equiv_pos_site_id
 _symmetry_equiv_pos_as_xyz
  1  'x, y, z'
loop_
 _atom_site_type_symbol
 _atom_site_label
 _atom_site_symmetry_multiplicity
 _atom_site_fract_x
 _atom_site_fract_y
 _atom_site_fract_z
 _atom_site_occupancy
  Eu  Eu0  1  0.87122500  0.61500700  0.91608100  1
  Eu  Eu1  1  0.12877500  0.38499300  0.41608100  1
  Eu  Eu2  1  0.61500700  0.12877500  0.66608100  1
  Eu  Eu3  1  0.38499300  0.87122500  0.16608100  1
  H  H0  1  0.08762300  0.67320900  0.70043300  1
  H  H1  1  0.91237700  0.32679100  0.20043300  1
  H  H2  1  0.67320900  0.91237700  0.45043300  1
  H  H3  1  0.32679100  0.08762300  0.95043300  1
  H  H4  1  0.03189100  0.88270900  0.73163000  1
  H  H5  1  0.96810900  0.11729100  0.23163000  1
  H  H6  1  0.88270900  0.96810900  0.48163000  1
  H  H7  1  0.11729100  0.03189100  0.98163000  1
  H  H8  1  0.36865200  0.58653800  0.86424400  1
  H  H9  1  0.63134800  0.41346200  0.36424400  1
  H  H10  1  0.58653800  0.63134800  0.61424400  1
  H  H11  1  0.41346200  0.36865200  0.11424400  1
  C  C0  1  0.37119100  0.63730400  0.95051400  1
  C  C1  1  0.62880900  0.36269600  0.45051400  1
  C  C2  1  0.63730400  0.62880900  0.70051400  1
  C  C3  1  0.36269600  0.37119100  0.20051400  1
  S  S0  1  0.72507000  0.10953000  0.96854200  1
  S  S1  1  0.27493000  0.89047000  0.46854200  1
  S  S2  1  0.10953000  0.27493000  0.71854200  1
  S  S3  1  0.89047000  0.72507000  0.21854200  1
  O  O0  1  0.60109200  0.11779100  0.86960900  1
  O  O1  1  0.39890800  0.88220900  0.36960900  1
  O  O2  1  0.11779100  0.39890800  0.61960900  1
  O  O3  1  0.88220900  0.60109200  0.11960900  1
  O  O4  1  0.82012900  0.29271700  0.98597200  1
  O  O5  1  0.17987100  0.70728300  0.48597200  1
  O  O6  1  0.29271700  0.17987100  0.73597200  1
  O  O7  1  0.70728300  0.82012900  0.23597200  1
  O  O8  1  0.87019100  0.95752800  0.95495600  1
  O  O9  1  0.12980900  0.04247200  0.45495600  1
  O  O10  1  0.95752800  0.12980900  0.70495600  1
  O  O11  1  0.04247200  0.87019100  0.20495600  1
  O  O12  1  0.60940200  0.06963600  0.06802500  1
  O  O13  1  0.39059800  0.93036400  0.56802500  1
  O  O14  1  0.06963600  0.39059800  0.81802500  1
  O  O15  1  0.93036400  0.60940200  0.31802500  1
  O  O16  1  0.21629400  0.66317200  0.00094600  1
  O  O17  1  0.78370600  0.33682800  0.50094600  1
  O  O18  1  0.66317200  0.78370600  0.75094600  1
  O  O19  1  0.33682800  0.21629400  0.25094600  1
  O  O20  1  0.53047000  0.67029500  0.99680600  1
  O  O21  1  0.46953000  0.32970500  0.49680600  1
  O  O22  1  0.67029500  0.46953000  0.74680600  1
  O  O23  1  0.32970500  0.53047000  0.24680600  1
  O  O24  1  0.06364700  0.75821300  0.76289100  1
  O  O25  1  0.93635300  0.24178700  0.26289100  1
  O  O26  1  0.75821300  0.93635300  0.51289100  1
  O  O27  1  0.24178700  0.06364700  0.01289100  1
loop_
_geom_bond_atom_site_label_1
_geom_bond_atom_site_label_2
_geom_bond_distance
_geom_bond_site_symmetry_2
Eu0 O14 2.429397 1_655
Eu0 O3 2.455446 1_556
Eu0 O4 2.461049 1_555
Eu0 O8 2.472132 1_555
Eu0 O24 2.509213 1_655
Eu0 O20 2.632662 1_555
Eu0 O16 2.672453 1_656
Eu0 O22 2.692604 1_555
Eu0 O18 2.749881 1_555
Eu1 O15 2.429397 1_455
Eu1 O2 2.455446 1_555
Eu1 O5 2.461049 1_555
Eu1 O9 2.472132 1_555
Eu1 O25 2.509213 1_455
Eu1 O21 2.632662 1_555
Eu1 O17 2.672453 1_455
Eu1 O23 2.692604 1_555
Eu1 O19 2.749881 1_555
Eu2 O13 2.429397 1_545
Eu2 O0 2.455446 1_555
Eu2 O6 2.461049 1_555
Eu2 O10 2.472132 1_555
Eu2 O26 2.509213 1_545
Eu2 O22 2.632662 1_555
Eu2 O18 2.672453 1_545
Eu2 O21 2.692604 1_555
Eu2 O17 2.749881 1_555
Eu3 O12 2.429397 1_565
Eu3 O1 2.455446 1_555
Eu3 O7 2.461049 1_555
Eu3 O11 2.472132 1_555
Eu3 O27 2.509213 1_565
Eu3 O23 2.632662 1_555
Eu3 O19 2.672453 1_565
Eu3 O20 2.692604 1_554
Eu3 O16 2.749881 1_555
H0 O24 0.978804 1_555
H1 O25 0.978804 1_555
H2 O26 0.978804 1_555
H3 O27 0.978804 1_556
H4 O24 0.985345 1_555
H5 O25 0.985345 1_555
H6 O26 0.985345 1_555
H7 O27 0.985345 1_556
C0 H8 1.100080 1_555
C0 O16 1.267987 1_556
C0 O20 1.280568 1_555
C1 H9 1.100080 1_555
C1 O17 1.267987 1_555
C1 O21 1.280568 1_555
C2 H10 1.100080 1_555
C2 O18 1.267987 1_555
C2 O22 1.280568 1_555
C3 H11 1.100080 1_555
C3 O19 1.267987 1_555
C3 O23 1.280568 1_555
O0 S0 1.481969 1_555
O1 S1 1.481969 1_555
O2 S2 1.481969 1_555
O3 S3 1.481969 1_555
O4 S0 1.477570 1_555
O5 S1 1.477570 1_555
O6 S2 1.477570 1_555
O7 S3 1.477570 1_555
O8 S0 1.498267 1_565
O9 S1 1.498267 1_545
O10 S2 1.498267 1_655
O11 S3 1.498267 1_455
O12 S0 1.479379 1_554
O13 S1 1.479379 1_555
O14 S2 1.479379 1_555
O15 S3 1.479379 1_555
