# generated using pymatgen
data_Sr2FeCu(PbO3)2
_symmetry_space_group_name_H-M   'P 1'
_cell_length_a   5.55651800
_cell_length_b   5.58996600
_cell_length_c   12.44122200
_cell_angle_alpha   90.00000000
_cell_angle_beta   90.00000000
_cell_angle_gamma   90.00000000
_symmetry_Int_Tables_number   1
_chemical_formula_structural   Sr2FeCu(PbO3)2
_chemical_formula_sum   'Sr4 Fe2 Cu2 Pb4 O12'
_cell_volume   386.43364516
_cell_formula_units_Z   2
loop_
 _symmetry_equiv_pos_site_id
 _symmetry_equiv_pos_as_xyz
  1  'x, y, z'
loop_
 _atom_site_type_symbol
 _atom_site_label
 _atom_site_symmetry_multiplicity
 _atom_site_fract_x
 _atom_site_fract_y
 _atom_site_fract_z
 _atom_site_occupancy
  Sr  Sr0  1  0.74525900  0.75062700  0.35862100  1
  Sr  Sr1  1  0.74525900  0.75062700  0.64137900  1
  Sr  Sr2  1  0.24525900  0.24937300  0.64137900  1
  Sr  Sr3  1  0.24525900  0.24937300  0.35862100  1
  Fe  Fe0  1  0.74698200  0.25105200  0.50000000  1
  Fe  Fe1  1  0.24698200  0.74894800  0.50000000  1
  Cu  Cu0  1  0.70806000  0.79278500  0.00000000  1
  Cu  Cu1  1  0.20806000  0.20721500  0.00000000  1
  Pb  Pb0  1  0.75365200  0.23927800  0.14883200  1
  Pb  Pb1  1  0.75365200  0.23927800  0.85116800  1
  Pb  Pb2  1  0.25365200  0.76072200  0.85116800  1
  Pb  Pb3  1  0.25365200  0.76072200  0.14883200  1
  O  O0  1  0.69424900  0.81129000  0.14893500  1
  O  O1  1  0.69424900  0.81129000  0.85106500  1
  O  O2  1  0.19424900  0.18871000  0.85106500  1
  O  O3  1  0.19424900  0.18871000  0.14893500  1
  O  O4  1  0.74554400  0.25398300  0.32509900  1
  O  O5  1  0.74554400  0.25398300  0.67490100  1
  O  O6  1  0.24554400  0.74601700  0.67490100  1
  O  O7  1  0.24554400  0.74601700  0.32509900  1
  O  O8  1  0.49764900  0.99965100  0.50000000  1
  O  O9  1  0.99764900  0.00034900  0.50000000  1
  O  O10  1  0.99790100  0.49930700  0.50000000  1
  O  O11  1  0.49790100  0.50069300  0.50000000  1
loop_
_geom_bond_atom_site_label_1
_geom_bond_atom_site_label_2
_geom_bond_distance
_geom_bond_site_symmetry_2
Fe0 O11 1.965425 1_555
Fe0 O10 1.967157 1_555
Fe0 O8 1.973406 1_545
Fe0 O9 1.975847 1_555
Fe0 O4 2.176059 1_555
Fe0 O5 2.176059 1_555
Fe1 O10 1.965425 1_455
Fe1 O11 1.967157 1_555
Fe1 O9 1.973406 1_465
Fe1 O8 1.975847 1_555
Fe1 O6 2.176059 1_555
Fe1 O7 2.176059 1_555
Cu0 O0 1.857405 1_555
Cu0 O1 1.857405 1_554
Cu1 O3 1.857405 1_555
Cu1 O2 1.857405 1_554
O0 Pb0 2.415101 1_565
O0 Pb3 2.464451 1_555
O0 Sr0 2.645922 1_555
O1 Pb1 2.415101 1_565
O1 Pb2 2.464451 1_555
O1 Sr1 2.645922 1_555
O2 Pb2 2.415101 1_545
O2 Pb1 2.464451 1_455
O2 Sr2 2.645922 1_555
O3 Pb3 2.415101 1_545
O3 Pb0 2.464451 1_455
O3 Sr3 2.645922 1_555
O4 Pb0 2.194979 1_555
O4 Sr0 2.807375 1_555
O4 Sr3 2.807940 1_655
O4 Sr3 2.811072 1_555
O4 Sr0 2.844483 1_545
O5 Pb1 2.194979 1_555
O5 Sr1 2.807375 1_555
O5 Sr2 2.807940 1_655
O5 Sr2 2.811072 1_555
O5 Sr1 2.844483 1_545
O6 Pb2 2.194979 1_555
O6 Sr2 2.807375 1_555
O6 Sr1 2.807940 1_555
O6 Sr1 2.811072 1_455
O6 Sr2 2.844483 1_565
O7 Pb3 2.194979 1_555
O7 Sr3 2.807375 1_555
O7 Sr0 2.807940 1_555
O7 Sr0 2.811072 1_455
O7 Sr3 2.844483 1_565
O8 Sr0 2.631454 1_555
O8 Sr1 2.631454 1_555
O8 Sr3 2.647493 1_565
O8 Sr2 2.647493 1_565
O9 Sr3 2.631454 1_655
O9 Sr2 2.631454 1_655
O9 Sr0 2.647493 1_545
O9 Sr1 2.647493 1_545
O10 Sr3 2.633418 1_655
O10 Sr2 2.633418 1_655
O10 Sr0 2.652955 1_555
O10 Sr1 2.652955 1_555
O11 Sr0 2.633418 1_555
O11 Sr1 2.633418 1_555
O11 Sr3 2.652955 1_555
O11 Sr2 2.652955 1_555
