# generated using pymatgen
data_Li7Co5O12
_symmetry_space_group_name_H-M   'P 1'
_cell_length_a   7.62266980
_cell_length_b   8.64250270
_cell_length_c   7.62190186
_cell_angle_alpha   72.50681053
_cell_angle_beta   110.79586461
_cell_angle_gamma   74.48833898
_symmetry_Int_Tables_number   1
_chemical_formula_structural   Li7Co5O12
_chemical_formula_sum   'Li14 Co10 O24'
_cell_volume   406.37455717
_cell_formula_units_Z   2
loop_
 _symmetry_equiv_pos_site_id
 _symmetry_equiv_pos_as_xyz
  1  'x, y, z'
loop_
 _atom_site_type_symbol
 _atom_site_label
 _atom_site_symmetry_multiplicity
 _atom_site_fract_x
 _atom_site_fract_y
 _atom_site_fract_z
 _atom_site_occupancy
  Li  Li0  1  0.57836300  0.25020700  0.82833000  1
  Li  Li1  1  0.07996100  0.75000500  0.82992600  1
  Li  Li2  1  0.95535300  0.12233500  0.58588300  1
  Li  Li3  1  0.45956900  0.61898000  0.58817900  1
  Li  Li4  1  0.20818400  0.37782600  0.07767200  1
  Li  Li5  1  0.70701300  0.88110700  0.07856800  1
  Li  Li6  1  0.12228700  0.62906300  0.24598500  1
  Li  Li7  1  0.61591500  0.12923200  0.24144300  1
  Li  Li8  1  0.29282000  0.13252900  0.91429000  1
  Li  Li9  1  0.79079400  0.63381200  0.91367400  1
  Li  Li10  1  0.37495200  0.87091500  0.75115100  1
  Li  Li11  1  0.87039700  0.37088100  0.74517900  1
  Li  Li12  1  0.54687500  0.36756500  0.42529500  1
  Li  Li13  1  0.04776100  0.86616200  0.42480700  1
  Co  Co0  1  0.16686100  0.49766900  0.66771500  1
  Co  Co1  1  0.66543200  0.00239300  0.66462500  1
  Co  Co2  1  0.25402600  0.24983400  0.50405800  1
  Co  Co3  1  0.75699500  0.74989100  0.50699800  1
  Co  Co4  1  0.41830100  0.74994400  0.16826400  1
  Co  Co5  1  0.83514200  0.50185100  0.33474500  1
  Co  Co6  1  0.33677400  0.99796500  0.33716500  1
  Co  Co7  1  0.99580400  0.00093000  0.99019900  1
  Co  Co8  1  0.49129500  0.49916700  0.99631800  1
  Co  Co9  1  0.91218400  0.24977400  0.16233500  1
  O  O0  1  0.02440900  0.42529900  0.22994100  1
  O  O1  1  0.52655700  0.92359100  0.23518600  1
  O  O2  1  0.15605000  0.07405100  0.45040500  1
  O  O3  1  0.65919100  0.57609300  0.45043000  1
  O  O4  1  0.76725200  0.17550400  0.70620300  1
  O  O5  1  0.27557000  0.66468800  0.71835200  1
  O  O6  1  0.38134200  0.32474800  0.94252400  1
  O  O7  1  0.88293500  0.83559900  0.94023300  1
  O  O8  1  0.18374900  0.93667000  0.89932800  1
  O  O9  1  0.67998500  0.44278600  0.89613800  1
  O  O10  1  0.33285400  0.42750100  0.53971900  1
  O  O11  1  0.83511600  0.92892400  0.53981900  1
  O  O12  1  0.33598600  0.56365000  0.12036100  1
  O  O13  1  0.83899100  0.05778200  0.12299500  1
  O  O14  1  0.46732600  0.07256300  0.76054300  1
  O  O15  1  0.96869900  0.57113400  0.76409800  1
  O  O16  1  0.43252900  0.17337800  0.39177000  1
  O  O17  1  0.93655000  0.67259300  0.39509900  1
  O  O18  1  0.11259900  0.16926200  0.05986200  1
  O  O19  1  0.60874000  0.68403700  0.06497700  1
  O  O20  1  0.06499200  0.32649900  0.60573000  1
  O  O21  1  0.56778700  0.82728300  0.60917300  1
  O  O22  1  0.72874400  0.33055700  0.28156000  1
  O  O23  1  0.24899200  0.81576800  0.29275000  1
loop_
_geom_bond_atom_site_label_1
_geom_bond_atom_site_label_2
_geom_bond_distance
_geom_bond_site_symmetry_2
Li0 O4 2.042596 1_555
Li0 O6 2.043487 1_555
Li0 O14 2.049841 1_555
Li0 O10 2.050793 1_555
Li0 O9 2.135348 1_555
Li0 O13 2.139107 1_556
Li1 O5 2.044370 1_555
Li1 O7 2.045960 1_455
Li1 O15 2.055777 1_455
Li1 O11 2.057696 1_455
Li1 O8 2.099246 1_555
Li1 O12 2.100176 1_556
Li2 O4 1.985616 1_555
Li2 O8 2.135667 1_645
Li2 O22 2.141327 1_555
Li2 O2 2.149453 1_655
Li2 O20 2.166612 1_655
Li2 O11 2.168212 1_545
Li3 O5 2.008740 1_555
Li3 O23 2.051919 1_555
Li3 O9 2.081737 1_555
Li3 O3 2.149842 1_555
Li3 O10 2.185645 1_555
Li3 O21 2.195627 1_555
Li4 O6 1.984787 1_554
Li4 O12 2.135414 1_555
Li4 O18 2.139555 1_555
Li4 O0 2.147318 1_555
Li4 O15 2.169336 1_454
Li4 O16 2.170610 1_555
Li5 O7 2.008945 1_554
Li5 O19 2.050874 1_555
Li5 O13 2.085372 1_565
Li5 O1 2.147391 1_555
Li5 O14 2.186006 1_564
Li5 O17 2.198125 1_555
Li6 O10 2.057020 1_555
Li6 O0 2.107196 1_555
Li6 O17 2.133663 1_455
Li6 O23 2.144404 1_555
Li6 O7 2.164247 1_454
Li6 O12 2.197789 1_555
Li7 O1 2.073704 1_545
Li7 O11 2.085304 1_545
Li7 O6 2.102383 1_554
Li7 O16 2.127752 1_555
Li7 O22 2.189553 1_555
Li7 O13 2.225183 1_555
Li8 O6 1.993182 1_555
Li8 O18 2.068794 1_556
Li8 O8 2.090692 1_545
Li8 O14 2.124732 1_555
Li8 O20 2.128318 1_555
Li8 O1 2.224174 1_546
Li9 O9 2.062835 1_555
Li9 O7 2.083760 1_555
Li9 O21 2.101720 1_555
Li9 O15 2.123289 1_555
Li9 O19 2.135245 1_556
Li9 O0 2.203019 1_656
Li10 O14 2.057583 1_565
Li10 O2 2.102066 1_565
Li10 O21 2.133596 1_555
Li10 O19 2.148714 1_556
Li10 O5 2.160698 1_555
Li10 O8 2.198724 1_555
Li11 O3 2.072098 1_555
Li11 O15 2.084348 1_555
Li11 O4 2.098433 1_555
Li11 O20 2.130109 1_655
Li11 O18 2.195444 1_656
Li11 O9 2.224865 1_555
Li12 O4 1.994837 1_555
Li12 O22 2.067930 1_555
Li12 O12 2.092814 1_555
Li12 O10 2.126105 1_555
Li12 O16 2.126888 1_555
Li12 O3 2.221262 1_555
Li13 O13 2.065792 1_465
Li13 O5 2.082075 1_555
Li13 O17 2.102032 1_455
Li13 O11 2.124761 1_455
Li13 O23 2.134996 1_555
Li13 O2 2.199348 1_565
Co0 O5 1.914890 1_555
Co0 O6 1.916572 1_555
Co0 O10 1.934498 1_555
Co0 O15 1.944186 1_455
Co0 O17 1.945950 1_455
Co0 O20 1.946459 1_555
Co1 O7 1.915123 1_545
Co1 O4 1.916414 1_555
Co1 O14 1.934756 1_555
Co1 O11 1.943859 1_545
Co1 O21 1.945929 1_545
Co1 O16 1.946303 1_555
Co2 O10 1.849617 1_555
Co2 O14 1.850012 1_555
Co2 O16 1.925229 1_555
Co2 O20 1.925298 1_555
Co2 O2 1.948454 1_555
Co2 O0 1.951211 1_555
Co3 O11 1.852310 1_555
Co3 O15 1.852553 1_555
Co3 O21 1.930991 1_555
Co3 O17 1.931161 1_555
Co3 O3 1.938532 1_555
Co3 O1 1.940859 1_555
Co4 O19 1.921014 1_555
Co4 O23 1.921151 1_555
Co4 O12 1.962228 1_555
Co4 O8 1.966807 1_554
Co4 O1 2.004264 1_555
Co4 O3 2.007997 1_555
Co5 O3 1.925512 1_555
Co5 O17 1.937098 1_555
Co5 O20 1.939283 1_655
Co5 O19 1.940573 1_555
Co5 O0 1.944933 1_655
Co5 O22 1.945056 1_555
Co6 O1 1.926543 1_555
Co6 O21 1.937732 1_555
Co6 O16 1.939002 1_565
Co6 O23 1.940362 1_555
Co6 O2 1.943220 1_565
Co6 O18 1.944252 1_565
Co7 O8 1.830539 1_645
Co7 O13 1.881129 1_556
Co7 O7 1.918063 1_545
Co7 O4 1.987438 1_555
Co7 O18 2.003122 1_656
Co7 O23 2.138378 1_646
Co8 O12 1.834295 1_556
Co8 O9 1.875603 1_555
Co8 O5 1.919627 1_555
Co8 O6 1.986505 1_555
Co8 O22 2.004151 1_556
Co8 O19 2.136151 1_556
Co9 O13 1.957017 1_555
Co9 O9 1.966734 1_554
Co9 O22 2.007483 1_555
Co9 O18 2.008349 1_655
Co9 O0 2.037048 1_655
Co9 O2 2.042051 1_655
