# generated using pymatgen
data_LaMoO5
_symmetry_space_group_name_H-M   'P 1'
_cell_length_a   13.04961800
_cell_length_b   5.58552000
_cell_length_c   7.26978253
_cell_angle_alpha   64.60336021
_cell_angle_beta   90.00000000
_cell_angle_gamma   90.00000000
_symmetry_Int_Tables_number   1
_chemical_formula_structural   LaMoO5
_chemical_formula_sum   'La4 Mo4 O20'
_cell_volume   478.67847761
_cell_formula_units_Z   4
loop_
 _symmetry_equiv_pos_site_id
 _symmetry_equiv_pos_as_xyz
  1  'x, y, z'
loop_
 _atom_site_type_symbol
 _atom_site_label
 _atom_site_symmetry_multiplicity
 _atom_site_fract_x
 _atom_site_fract_y
 _atom_site_fract_z
 _atom_site_occupancy
  La  La0  1  0.56286400  0.65468900  0.21674300  1
  La  La1  1  0.43713600  0.34531100  0.78325700  1
  La  La2  1  0.06286400  0.34531100  0.28325700  1
  La  La3  1  0.93713600  0.65468900  0.71674300  1
  Mo  Mo0  1  0.86569000  0.92191600  0.14201200  1
  Mo  Mo1  1  0.13431000  0.07808400  0.85798800  1
  Mo  Mo2  1  0.36569000  0.07808400  0.35798800  1
  Mo  Mo3  1  0.63431000  0.92191600  0.64201200  1
  O  O0  1  0.94653800  0.46407200  0.48167000  1
  O  O1  1  0.05346200  0.53592800  0.51833000  1
  O  O2  1  0.44653800  0.53592800  0.01833000  1
  O  O3  1  0.55346200  0.46407200  0.98167000  1
  O  O4  1  0.42754400  0.99060600  0.16830300  1
  O  O5  1  0.57245600  0.00939400  0.83169700  1
  O  O6  1  0.92754400  0.00939400  0.33169700  1
  O  O7  1  0.07245600  0.99060600  0.66830300  1
  O  O8  1  0.93871500  0.71520100  0.04643800  1
  O  O9  1  0.06128500  0.28479900  0.95356200  1
  O  O10  1  0.43871500  0.28479900  0.45356200  1
  O  O11  1  0.56128500  0.71520100  0.54643800  1
  O  O12  1  0.74174500  0.78559600  0.22691800  1
  O  O13  1  0.25825500  0.21440400  0.77308200  1
  O  O14  1  0.24174500  0.21440400  0.27308200  1
  O  O15  1  0.75825500  0.78559600  0.72691800  1
  O  O16  1  0.15546100  0.77407800  0.07232700  1
  O  O17  1  0.84453900  0.22592200  0.92767300  1
  O  O18  1  0.65546100  0.22592200  0.42767300  1
  O  O19  1  0.34453900  0.77407800  0.57232700  1
loop_
_geom_bond_atom_site_label_1
_geom_bond_atom_site_label_2
_geom_bond_distance
_geom_bond_site_symmetry_2
La0 O3 2.372712 1_554
La0 O2 2.376063 1_555
La0 O12 2.456743 1_555
La0 O4 2.489170 1_555
La0 O18 2.529220 1_555
La0 O11 2.560125 1_555
La0 O10 2.608864 1_555
La0 O5 2.649414 1_564
La1 O2 2.372712 1_556
La1 O3 2.376063 1_555
La1 O13 2.456743 1_555
La1 O5 2.489170 1_555
La1 O19 2.529220 1_555
La1 O10 2.560125 1_555
La1 O11 2.608864 1_555
La1 O4 2.649414 1_546
La2 O1 2.372712 1_555
La2 O0 2.376063 1_455
La2 O14 2.456743 1_555
La2 O6 2.489170 1_455
La2 O16 2.529220 1_555
La2 O9 2.560125 1_554
La2 O8 2.608864 1_455
La2 O7 2.649414 1_545
La3 O0 2.372712 1_555
La3 O1 2.376063 1_655
La3 O15 2.456743 1_555
La3 O7 2.489170 1_655
La3 O17 2.529220 1_555
La3 O8 2.560125 1_556
La3 O9 2.608864 1_655
La3 O6 2.649414 1_565
Mo0 O17 1.765770 1_564
Mo0 O12 1.781492 1_555
Mo0 O6 1.835691 1_565
Mo0 O8 1.847189 1_555
Mo1 O16 1.765770 1_546
Mo1 O13 1.781492 1_555
Mo1 O7 1.835691 1_545
Mo1 O9 1.847189 1_555
Mo2 O19 1.765770 1_545
Mo2 O14 1.781492 1_555
Mo2 O4 1.835691 1_545
Mo2 O10 1.847189 1_555
Mo3 O18 1.765770 1_565
Mo3 O15 1.781492 1_555
Mo3 O5 1.835691 1_565
Mo3 O11 1.847189 1_555
O0 O1 1.506908 1_655
O2 O3 1.506908 1_554
