# generated using pymatgen
data_Ba2Re6S11
_symmetry_space_group_name_H-M   'P 1'
_cell_length_a   11.98777167
_cell_length_b   11.98777167
_cell_length_c   11.98777194
_cell_angle_alpha   45.51852894
_cell_angle_beta   45.51852894
_cell_angle_gamma   45.51852754
_symmetry_Int_Tables_number   1
_chemical_formula_structural   Ba2Re6S11
_chemical_formula_sum   'Ba4 Re12 S22'
_cell_volume   799.06402702
_cell_formula_units_Z   2
loop_
 _symmetry_equiv_pos_site_id
 _symmetry_equiv_pos_as_xyz
  1  'x, y, z'
loop_
 _atom_site_type_symbol
 _atom_site_label
 _atom_site_symmetry_multiplicity
 _atom_site_fract_x
 _atom_site_fract_y
 _atom_site_fract_z
 _atom_site_occupancy
  Ba  Ba0  1  0.31159331  0.31159331  0.31159331  1
  Ba  Ba1  1  0.18840669  0.18840669  0.18840669  1
  Ba  Ba2  1  0.68840669  0.68840669  0.68840669  1
  Ba  Ba3  1  0.81159331  0.81159331  0.81159331  1
  Re  Re0  1  0.61675339  0.29379797  0.48830330  1
  Re  Re1  1  0.48830330  0.61675339  0.29379797  1
  Re  Re2  1  0.79379797  0.11675339  0.98830330  1
  Re  Re3  1  0.98830330  0.79379797  0.11675339  1
  Re  Re4  1  0.11675339  0.98830330  0.79379797  1
  Re  Re5  1  0.70620203  0.51169670  0.38324661  1
  Re  Re6  1  0.38324661  0.70620203  0.51169670  1
  Re  Re7  1  0.51169670  0.38324661  0.70620203  1
  Re  Re8  1  0.29379797  0.48830330  0.61675339  1
  Re  Re9  1  0.88324661  0.01169670  0.20620203  1
  Re  Re10  1  0.01169670  0.20620203  0.88324661  1
  Re  Re11  1  0.20620203  0.88324661  0.01169670  1
  S  S0  1  0.09076230  0.09076230  0.09076230  1
  S  S1  1  0.40923770  0.40923770  0.40923770  1
  S  S2  1  0.90923770  0.90923770  0.90923770  1
  S  S3  1  0.59076230  0.59076230  0.59076230  1
  S  S4  1  0.25000000  0.98098351  0.51901649  1
  S  S5  1  0.51901649  0.25000000  0.98098351  1
  S  S6  1  0.98098351  0.51901649  0.25000000  1
  S  S7  1  0.75000000  0.01901649  0.48098351  1
  S  S8  1  0.48098351  0.75000000  0.01901649  1
  S  S9  1  0.01901649  0.48098351  0.75000000  1
  S  S10  1  0.07161153  0.71040509  0.30857707  1
  S  S11  1  0.30857707  0.07161153  0.71040509  1
  S  S12  1  0.71040509  0.30857707  0.07161153  1
  S  S13  1  0.42838847  0.19142293  0.78959491  1
  S  S14  1  0.78959491  0.42838847  0.19142293  1
  S  S15  1  0.19142293  0.78959491  0.42838847  1
  S  S16  1  0.80857707  0.21040509  0.57161153  1
  S  S17  1  0.21040509  0.57161153  0.80857707  1
  S  S18  1  0.57161153  0.80857707  0.21040509  1
  S  S19  1  0.28959491  0.69142293  0.92838847  1
  S  S20  1  0.69142293  0.92838847  0.28959491  1
  S  S21  1  0.92838847  0.28959491  0.69142293  1
loop_
_geom_bond_atom_site_label_1
_geom_bond_atom_site_label_2
_geom_bond_distance
_geom_bond_site_symmetry_2
Ba0 S1 3.141773 1_555
Ba0 S6 3.186449 1_455
Ba0 S4 3.186449 1_545
Ba0 S5 3.186449 1_554
Ba0 S10 3.429830 1_555
Ba0 S12 3.429830 1_555
Ba0 S11 3.429831 1_555
Ba0 S20 3.550756 1_545
Ba0 S21 3.550756 1_455
Ba0 S19 3.550756 1_554
Ba1 S0 3.141773 1_555
Ba1 S6 3.186449 1_455
Ba1 S5 3.186449 1_554
Ba1 S4 3.186449 1_545
Ba1 S14 3.429830 1_455
Ba1 S15 3.429830 1_545
Ba1 S13 3.429831 1_554
Ba1 S18 3.550756 1_545
Ba1 S17 3.550756 1_554
Ba1 S16 3.550756 1_455
Ba2 S3 3.141773 1_555
Ba2 S9 3.186449 1_655
Ba2 S7 3.186449 1_565
Ba2 S8 3.186449 1_556
Ba2 S21 3.429830 1_555
Ba2 S19 3.429830 1_555
Ba2 S20 3.429831 1_555
Ba2 S11 3.550756 1_565
Ba2 S10 3.550756 1_655
Ba2 S12 3.550756 1_556
Ba3 S2 3.141773 1_555
Ba3 S9 3.186449 1_655
Ba3 S8 3.186449 1_556
Ba3 S7 3.186449 1_565
Ba3 S17 3.429830 1_655
Ba3 S16 3.429830 1_565
Ba3 S18 3.429831 1_556
Ba3 S13 3.550756 1_565
Ba3 S14 3.550756 1_556
Ba3 S15 3.550756 1_655
Re0 S1 2.375640 1_555
Re0 S14 2.422113 1_555
Re0 S16 2.425341 1_555
Re0 S13 2.427540 1_555
Re0 S7 2.498984 1_555
Re1 S1 2.375640 1_555
Re1 S15 2.422113 1_555
Re1 S18 2.425341 1_555
Re1 S14 2.427540 1_555
Re1 S8 2.498985 1_555
Re2 S2 2.375640 1_545
Re2 S21 2.422113 1_555
Re2 S12 2.425341 1_556
Re2 S20 2.427540 1_546
Re2 S5 2.498984 1_555
Re3 S2 2.375640 1_554
Re3 S20 2.422113 1_555
Re3 S10 2.425341 1_655
Re3 S19 2.427540 1_654
Re3 S6 2.498984 1_555
Re4 S2 2.375640 1_455
Re4 S19 2.422113 1_555
Re4 S11 2.425341 1_565
Re4 S21 2.427540 1_465
Re4 S4 2.498985 1_555
Re5 S3 2.375640 1_555
Re5 S18 2.422113 1_555
Re5 S14 2.425341 1_555
Re5 S16 2.427540 1_555
Re5 S6 2.498984 1_555
Re6 S3 2.375640 1_555
Re6 S17 2.422113 1_555
Re6 S15 2.425341 1_555
Re6 S18 2.427540 1_555
Re6 S4 2.498984 1_555
Re7 S3 2.375640 1_555
Re7 S16 2.422113 1_555
Re7 S13 2.425341 1_555
Re7 S17 2.427540 1_555
Re7 S5 2.498985 1_555
Re8 S1 2.375640 1_555
Re8 S13 2.422113 1_555
Re8 S17 2.425341 1_555
Re8 S15 2.427540 1_555
Re8 S9 2.498984 1_555
Re9 S0 2.375640 1_655
Re9 S12 2.422113 1_555
Re9 S20 2.425341 1_545
Re9 S10 2.427540 1_645
Re9 S7 2.498985 1_555
Re10 S0 2.375640 1_556
Re10 S11 2.422113 1_555
Re10 S21 2.425341 1_455
Re10 S12 2.427540 1_456
Re10 S9 2.498984 1_555
Re11 S0 2.375640 1_565
Re11 S10 2.422113 1_555
Re11 S19 2.425341 1_554
Re11 S11 2.427540 1_564
Re11 S8 2.498984 1_555
