# generated using pymatgen
data_CaGd2BeO5
_symmetry_space_group_name_H-M   'P 1'
_cell_length_a   6.42739000
_cell_length_b   7.06003100
_cell_length_c   9.36728700
_cell_angle_alpha   90.00000000
_cell_angle_beta   90.00000000
_cell_angle_gamma   90.00000000
_symmetry_Int_Tables_number   1
_chemical_formula_structural   CaGd2BeO5
_chemical_formula_sum   'Ca4 Gd8 Be4 O20'
_cell_volume   425.06474637
_cell_formula_units_Z   4
loop_
 _symmetry_equiv_pos_site_id
 _symmetry_equiv_pos_as_xyz
  1  'x, y, z'
loop_
 _atom_site_type_symbol
 _atom_site_label
 _atom_site_symmetry_multiplicity
 _atom_site_fract_x
 _atom_site_fract_y
 _atom_site_fract_z
 _atom_site_occupancy
  Ca  Ca0  1  0.58052600  0.98169800  0.67636500  1
  Ca  Ca1  1  0.41947400  0.48169800  0.32363500  1
  Ca  Ca2  1  0.08052600  0.48169800  0.82363500  1
  Ca  Ca3  1  0.91947400  0.98169800  0.17636500  1
  Gd  Gd0  1  0.09626400  0.74582200  0.52191000  1
  Gd  Gd1  1  0.40373600  0.74582200  0.02191000  1
  Gd  Gd2  1  0.90373600  0.24582200  0.47809000  1
  Gd  Gd3  1  0.59626400  0.24582200  0.97809000  1
  Gd  Gd4  1  0.92816400  0.52793800  0.17354400  1
  Gd  Gd5  1  0.07183600  0.02793800  0.82645600  1
  Gd  Gd6  1  0.42816400  0.02793800  0.32645600  1
  Gd  Gd7  1  0.57183600  0.52793800  0.67354400  1
  Be  Be0  1  0.69405800  0.74845800  0.39680200  1
  Be  Be1  1  0.80594200  0.74845800  0.89680200  1
  Be  Be2  1  0.30594200  0.24845800  0.60319800  1
  Be  Be3  1  0.19405800  0.24845800  0.10319800  1
  O  O0  1  0.16426100  0.74735300  0.27697900  1
  O  O1  1  0.33573900  0.74735300  0.77697900  1
  O  O2  1  0.83573900  0.24735300  0.72302100  1
  O  O3  1  0.66426100  0.24735300  0.22302100  1
  O  O4  1  0.02045800  0.75003300  0.99034200  1
  O  O5  1  0.47954200  0.75003300  0.49034200  1
  O  O6  1  0.97954200  0.25003300  0.00965800  1
  O  O7  1  0.52045800  0.25003300  0.50965800  1
  O  O8  1  0.31666400  0.05465000  0.07250400  1
  O  O9  1  0.19223500  0.44494700  0.57262100  1
  O  O10  1  0.68333600  0.55465000  0.92749600  1
  O  O11  1  0.80776500  0.94494700  0.42737900  1
  O  O12  1  0.69223500  0.94494700  0.92737900  1
  O  O13  1  0.81666400  0.55465000  0.42749600  1
  O  O14  1  0.30776500  0.44494700  0.07262100  1
  O  O15  1  0.18333600  0.05465000  0.57250400  1
  O  O16  1  0.63895700  0.74910100  0.22106200  1
  O  O17  1  0.86104300  0.74910100  0.72106200  1
  O  O18  1  0.36104300  0.24910100  0.77893800  1
  O  O19  1  0.13895700  0.24910100  0.27893800  1
loop_
_geom_bond_atom_site_label_1
_geom_bond_atom_site_label_2
_geom_bond_distance
_geom_bond_site_symmetry_2
Ca0 O1 2.470017 1_555
Ca0 O12 2.472155 1_555
Ca0 O17 2.474411 1_555
Ca0 O5 2.476441 1_555
Ca0 O7 2.485273 1_565
Ca0 O2 2.529701 1_565
Ca0 O18 2.545063 1_565
Ca0 O11 2.764104 1_555
Ca0 O15 2.780120 1_565
Ca1 O3 2.470017 1_555
Ca1 O14 2.472155 1_555
Ca1 O19 2.474411 1_555
Ca1 O7 2.476441 1_555
Ca1 O5 2.485273 1_555
Ca1 O0 2.529701 1_555
Ca1 O16 2.545063 1_555
Ca1 O9 2.764104 1_555
Ca1 O13 2.780120 1_555
Ca2 O2 2.470017 1_455
Ca2 O9 2.472155 1_555
Ca2 O18 2.474411 1_555
Ca2 O6 2.476441 1_456
Ca2 O4 2.485273 1_555
Ca2 O1 2.529701 1_555
Ca2 O17 2.545063 1_455
Ca2 O14 2.764104 1_556
Ca2 O10 2.780120 1_455
Ca3 O0 2.470017 1_655
Ca3 O11 2.472155 1_555
Ca3 O16 2.474411 1_555
Ca3 O4 2.476441 1_654
Ca3 O6 2.485273 1_565
Ca3 O3 2.529701 1_565
Ca3 O19 2.545063 1_665
Ca3 O12 2.764104 1_554
Ca3 O8 2.780120 1_665
Gd0 O9 2.262369 1_555
Gd0 O15 2.300364 1_565
Gd0 O0 2.335619 1_555
Gd0 O17 2.401331 1_455
Gd0 O13 2.415237 1_455
Gd0 O5 2.481340 1_555
Gd0 O11 2.489754 1_455
Gd0 O1 2.842187 1_555
Gd1 O14 2.262369 1_555
Gd1 O8 2.300364 1_565
Gd1 O1 2.335619 1_554
Gd1 O16 2.401331 1_555
Gd1 O10 2.415237 1_554
Gd1 O4 2.481340 1_554
Gd1 O12 2.489754 1_554
Gd1 O0 2.842187 1_555
Gd2 O11 2.262369 1_545
Gd2 O13 2.300364 1_555
Gd2 O2 2.335619 1_555
Gd2 O19 2.401331 1_655
Gd2 O15 2.415237 1_655
Gd2 O7 2.481340 1_555
Gd2 O9 2.489754 1_655
Gd2 O3 2.842187 1_555
Gd3 O12 2.262369 1_545
Gd3 O10 2.300364 1_555
Gd3 O3 2.335619 1_556
Gd3 O18 2.401331 1_555
Gd3 O8 2.415237 1_556
Gd3 O6 2.481340 1_556
Gd3 O14 2.489754 1_556
Gd3 O2 2.842187 1_555
Gd4 O0 2.375118 1_655
Gd4 O4 2.399069 1_654
Gd4 O16 2.468089 1_555
Gd4 O13 2.491595 1_555
Gd4 O6 2.513026 1_555
Gd4 O19 2.585666 1_655
Gd4 O3 2.648781 1_555
Gd4 O14 2.681394 1_655
Gd4 O10 2.797126 1_554
Gd5 O2 2.375118 1_455
Gd5 O6 2.399069 1_456
Gd5 O18 2.468089 1_555
Gd5 O15 2.491595 1_555
Gd5 O4 2.513026 1_545
Gd5 O17 2.585666 1_445
Gd5 O1 2.648781 1_545
Gd5 O12 2.681394 1_445
Gd5 O8 2.797126 1_556
Gd6 O3 2.375118 1_555
Gd6 O7 2.399069 1_555
Gd6 O19 2.468089 1_555
Gd6 O8 2.491595 1_555
Gd6 O5 2.513026 1_545
Gd6 O16 2.585666 1_545
Gd6 O0 2.648781 1_545
Gd6 O11 2.681394 1_545
Gd6 O15 2.797126 1_555
Gd7 O1 2.375118 1_555
Gd7 O5 2.399069 1_555
Gd7 O17 2.468089 1_555
Gd7 O10 2.491595 1_555
Gd7 O7 2.513026 1_555
Gd7 O18 2.585666 1_555
Gd7 O2 2.648781 1_555
Gd7 O9 2.681394 1_555
Gd7 O13 2.797126 1_555
Be0 O11 1.593907 1_555
Be0 O13 1.604957 1_555
Be0 O5 1.633679 1_555
Be0 O16 1.683878 1_555
Be1 O12 1.593907 1_555
Be1 O10 1.604957 1_555
Be1 O4 1.633679 1_655
Be1 O17 1.683878 1_555
Be2 O9 1.593907 1_555
Be2 O15 1.604957 1_555
Be2 O7 1.633679 1_555
Be2 O18 1.683878 1_555
Be3 O14 1.593907 1_555
Be3 O8 1.604957 1_555
Be3 O6 1.633679 1_455
Be3 O19 1.683878 1_555
