# generated using pymatgen
data_Sr3BeB6O13
_symmetry_space_group_name_H-M   'P 1'
_cell_length_a   8.14213900
_cell_length_b   10.13451500
_cell_length_c   12.91145000
_cell_angle_alpha   90.00000000
_cell_angle_beta   90.00000000
_cell_angle_gamma   90.00000000
_symmetry_Int_Tables_number   1
_chemical_formula_structural   Sr3BeB6O13
_chemical_formula_sum   'Sr12 Be4 B24 O52'
_cell_volume   1065.40934019
_cell_formula_units_Z   4
loop_
 _symmetry_equiv_pos_site_id
 _symmetry_equiv_pos_as_xyz
  1  'x, y, z'
loop_
 _atom_site_type_symbol
 _atom_site_label
 _atom_site_symmetry_multiplicity
 _atom_site_fract_x
 _atom_site_fract_y
 _atom_site_fract_z
 _atom_site_occupancy
  Sr  Sr0  1  0.76640700  0.49800900  0.99134600  1
  Sr  Sr1  1  0.73359300  0.00199100  0.49134600  1
  Sr  Sr2  1  0.23359300  0.99800900  0.00865400  1
  Sr  Sr3  1  0.26640700  0.50199100  0.50865400  1
  Sr  Sr4  1  0.23359300  0.50199100  0.00865400  1
  Sr  Sr5  1  0.26640700  0.99800900  0.50865400  1
  Sr  Sr6  1  0.76640700  0.00199100  0.99134600  1
  Sr  Sr7  1  0.73359300  0.49800900  0.49134600  1
  Sr  Sr8  1  0.59370500  0.75000000  0.76209100  1
  Sr  Sr9  1  0.90629500  0.75000000  0.26209100  1
  Sr  Sr10  1  0.40629500  0.25000000  0.23790900  1
  Sr  Sr11  1  0.09370500  0.25000000  0.73790900  1
  Be  Be0  1  0.79265900  0.25000000  0.15957700  1
  Be  Be1  1  0.70734100  0.25000000  0.65957700  1
  Be  Be2  1  0.20734100  0.75000000  0.84042300  1
  Be  Be3  1  0.29265900  0.75000000  0.34042300  1
  B  B0  1  0.97331400  0.12513200  0.31151300  1
  B  B1  1  0.52668600  0.37486800  0.81151300  1
  B  B2  1  0.02668600  0.62513200  0.68848700  1
  B  B3  1  0.47331400  0.87486800  0.18848700  1
  B  B4  1  0.02668600  0.87486800  0.68848700  1
  B  B5  1  0.47331400  0.62513200  0.18848700  1
  B  B6  1  0.97331400  0.37486800  0.31151300  1
  B  B7  1  0.52668600  0.12513200  0.81151300  1
  B  B8  1  0.28598500  0.51930400  0.76285500  1
  B  B9  1  0.21401500  0.98069600  0.26285500  1
  B  B10  1  0.71401500  0.01930400  0.23714500  1
  B  B11  1  0.78598500  0.48069600  0.73714500  1
  B  B12  1  0.71401500  0.48069600  0.23714500  1
  B  B13  1  0.78598500  0.01930400  0.73714500  1
  B  B14  1  0.28598500  0.98069600  0.76285500  1
  B  B15  1  0.21401500  0.51930400  0.26285500  1
  B  B16  1  0.97424000  0.25000000  0.96032900  1
  B  B17  1  0.52576000  0.25000000  0.46032900  1
  B  B18  1  0.02576000  0.75000000  0.03967100  1
  B  B19  1  0.47424000  0.75000000  0.53967100  1
  B  B20  1  0.56371600  0.75000000  0.02959700  1
  B  B21  1  0.93628400  0.75000000  0.52959700  1
  B  B22  1  0.43628400  0.25000000  0.97040300  1
  B  B23  1  0.06371600  0.25000000  0.47040300  1
  O  O0  1  0.37374100  0.40327700  0.75468600  1
  O  O1  1  0.12625900  0.09672300  0.25468600  1
  O  O2  1  0.62625900  0.90327700  0.24531400  1
  O  O3  1  0.87374100  0.59672300  0.74531400  1
  O  O4  1  0.62625900  0.59672300  0.24531400  1
  O  O5  1  0.87374100  0.90327700  0.74531400  1
  O  O6  1  0.37374100  0.09672300  0.75468600  1
  O  O7  1  0.12625900  0.40327700  0.25468600  1
  O  O8  1  0.66644400  0.75000000  0.94876700  1
  O  O9  1  0.83355600  0.75000000  0.44876700  1
  O  O10  1  0.33355600  0.25000000  0.05123300  1
  O  O11  1  0.16644400  0.25000000  0.55123300  1
  O  O12  1  0.90494600  0.25000000  0.27168700  1
  O  O13  1  0.59505400  0.25000000  0.77168700  1
  O  O14  1  0.09505400  0.75000000  0.72831300  1
  O  O15  1  0.40494600  0.75000000  0.22831300  1
  O  O16  1  0.64880100  0.48160000  0.80180900  1
  O  O17  1  0.85119900  0.01840000  0.30180900  1
  O  O18  1  0.35119900  0.98160000  0.19819100  1
  O  O19  1  0.14880100  0.51840000  0.69819100  1
  O  O20  1  0.35119900  0.51840000  0.19819100  1
  O  O21  1  0.14880100  0.98160000  0.69819100  1
  O  O22  1  0.64880100  0.01840000  0.80180900  1
  O  O23  1  0.85119900  0.48160000  0.30180900  1
  O  O24  1  0.67753600  0.38157200  0.17057600  1
  O  O25  1  0.82246400  0.11842800  0.67057600  1
  O  O26  1  0.32246400  0.88157200  0.82942400  1
  O  O27  1  0.17753600  0.61842800  0.32942400  1
  O  O28  1  0.32246400  0.61842800  0.82942400  1
  O  O29  1  0.17753600  0.88157200  0.32942400  1
  O  O30  1  0.67753600  0.11842800  0.17057600  1
  O  O31  1  0.82246400  0.38157200  0.67057600  1
  O  O32  1  0.87063500  0.25000000  0.04640700  1
  O  O33  1  0.62936500  0.25000000  0.54640700  1
  O  O34  1  0.12936500  0.75000000  0.95359300  1
  O  O35  1  0.37063500  0.75000000  0.45359300  1
  O  O36  1  0.98205200  0.63029100  0.08469700  1
  O  O37  1  0.51794800  0.86970900  0.58469700  1
  O  O38  1  0.01794800  0.13029100  0.91530300  1
  O  O39  1  0.48205200  0.36970900  0.41530300  1
  O  O40  1  0.01794800  0.36970900  0.91530300  1
  O  O41  1  0.48205200  0.13029100  0.41530300  1
  O  O42  1  0.98205200  0.86970900  0.08469700  1
  O  O43  1  0.51794800  0.63029100  0.58469700  1
  O  O44  1  0.51084200  0.86823200  0.07546800  1
  O  O45  1  0.98915800  0.63176800  0.57546800  1
  O  O46  1  0.48915800  0.36823200  0.92453200  1
  O  O47  1  0.01084200  0.13176800  0.42453200  1
  O  O48  1  0.48915800  0.13176800  0.92453200  1
  O  O49  1  0.01084200  0.36823200  0.42453200  1
  O  O50  1  0.51084200  0.63176800  0.07546800  1
  O  O51  1  0.98915800  0.86823200  0.57546800  1
loop_
_geom_bond_atom_site_label_1
_geom_bond_atom_site_label_2
_geom_bond_distance
_geom_bond_site_symmetry_2
Be0 O32 1.593160 1_555
Be0 O24 1.636091 1_555
Be0 O30 1.636091 1_555
Be0 O12 1.712054 1_555
Be1 O33 1.593160 1_555
Be1 O31 1.636091 1_555
Be1 O25 1.636091 1_555
Be1 O13 1.712054 1_555
Be2 O34 1.593160 1_555
Be2 O26 1.636091 1_555
Be2 O28 1.636091 1_555
Be2 O14 1.712054 1_555
Be3 O35 1.593160 1_555
Be3 O29 1.636091 1_555
Be3 O27 1.636091 1_555
Be3 O15 1.712054 1_555
B0 O1 1.473773 1_655
B0 O17 1.474554 1_555
B0 O12 1.475031 1_555
B0 O47 1.492403 1_655
B1 O0 1.473773 1_555
B1 O16 1.474554 1_555
B1 O13 1.475031 1_555
B1 O46 1.492403 1_555
B2 O3 1.473773 1_455
B2 O19 1.474554 1_555
B2 O14 1.475031 1_555
B2 O45 1.492403 1_455
B3 O2 1.473773 1_555
B3 O18 1.474554 1_555
B3 O15 1.475031 1_555
B3 O44 1.492403 1_555
B4 O5 1.473773 1_455
B4 O21 1.474554 1_555
B4 O14 1.475031 1_555
B4 O51 1.492403 1_455
B5 O4 1.473773 1_555
B5 O20 1.474554 1_555
B5 O15 1.475031 1_555
B5 O50 1.492403 1_555
B6 O7 1.473773 1_655
B6 O23 1.474554 1_555
B6 O12 1.475031 1_555
B6 O49 1.492403 1_655
B7 O6 1.473773 1_555
B7 O22 1.474554 1_555
B7 O13 1.475031 1_555
B7 O48 1.492403 1_555
B8 O28 1.355039 1_555
B8 O0 1.379983 1_555
B8 O19 1.394552 1_555
B9 O29 1.355039 1_555
B9 O1 1.379983 1_565
B9 O18 1.394552 1_555
B10 O30 1.355039 1_555
B10 O2 1.379983 1_545
B10 O17 1.394552 1_555
B11 O31 1.355039 1_555
B11 O3 1.379983 1_555
B11 O16 1.394552 1_555
B12 O24 1.355039 1_555
B12 O4 1.379983 1_555
B12 O23 1.394552 1_555
B13 O25 1.355039 1_555
B13 O5 1.379983 1_545
B13 O22 1.394552 1_555
B14 O26 1.355039 1_555
B14 O6 1.379983 1_565
B14 O21 1.394552 1_555
B15 O27 1.355039 1_555
B15 O7 1.379983 1_555
B15 O20 1.394552 1_555
B16 O40 1.391565 1_655
B16 O38 1.391565 1_655
B16 O32 1.395276 1_556
B17 O41 1.391565 1_555
B17 O39 1.391565 1_555
B17 O33 1.395276 1_555
B18 O42 1.391565 1_455
B18 O36 1.391565 1_455
B18 O34 1.395276 1_554
B19 O37 1.391565 1_555
B19 O43 1.391565 1_555
B19 O35 1.395276 1_555
B20 O8 1.337452 1_554
B20 O44 1.404226 1_555
B20 O50 1.404226 1_555
B21 O9 1.337452 1_555
B21 O45 1.404226 1_555
B21 O51 1.404226 1_555
B22 O10 1.337452 1_556
B22 O46 1.404226 1_555
B22 O48 1.404226 1_555
B23 O11 1.337452 1_555
B23 O49 1.404226 1_555
B23 O47 1.404226 1_555
O0 Sr11 2.767446 1_555
O1 Sr10 2.767446 1_555
O2 Sr9 2.767446 1_555
O3 Sr8 2.767446 1_555
O4 Sr9 2.767446 1_555
O5 Sr8 2.767446 1_555
O6 Sr11 2.767446 1_555
O7 Sr10 2.767446 1_555
O8 Sr8 2.481956 1_555
O8 Sr6 2.736168 1_565
O8 Sr0 2.736168 1_555
O9 Sr9 2.481956 1_555
O9 Sr1 2.736168 1_565
O9 Sr7 2.736168 1_555
O10 Sr10 2.481956 1_555
O10 Sr4 2.736168 1_555
O10 Sr2 2.736168 1_545
O11 Sr11 2.481956 1_555
O11 Sr3 2.736168 1_555
O11 Sr5 2.736168 1_545
O16 Sr0 2.633127 1_555
O16 Sr8 2.804138 1_555
O17 Sr1 2.633127 1_555
O17 Sr9 2.804138 1_545
O18 Sr2 2.633127 1_555
O18 Sr10 2.804138 1_565
O19 Sr3 2.633127 1_555
O19 Sr11 2.804138 1_555
O20 Sr4 2.633127 1_555
O20 Sr10 2.804138 1_555
O21 Sr5 2.633127 1_555
O21 Sr11 2.804138 1_565
O22 Sr6 2.633127 1_555
O22 Sr8 2.804138 1_545
O23 Sr7 2.633127 1_555
O23 Sr9 2.804138 1_555
O24 Sr0 2.696520 1_554
O24 Sr10 2.722351 1_555
O25 Sr1 2.696520 1_555
O25 Sr11 2.722351 1_655
O26 Sr2 2.696520 1_556
O26 Sr8 2.722351 1_555
O27 Sr3 2.696520 1_555
O27 Sr9 2.722351 1_455
O28 Sr4 2.696520 1_556
O28 Sr8 2.722351 1_555
O29 Sr5 2.696520 1_555
O29 Sr9 2.722351 1_455
O30 Sr6 2.696520 1_554
O30 Sr10 2.722351 1_555
O31 Sr7 2.696520 1_555
O31 Sr11 2.722351 1_655
O32 Sr0 2.746457 1_554
O32 Sr6 2.746457 1_554
O33 Sr7 2.746457 1_555
O33 Sr1 2.746457 1_555
O34 Sr2 2.746457 1_556
O34 Sr4 2.746457 1_556
O35 Sr5 2.746457 1_555
O35 Sr3 2.746457 1_555
O36 Sr0 2.516517 1_554
O36 Sr4 2.617115 1_655
O36 Sr9 2.664264 1_555
O37 Sr1 2.516517 1_565
O37 Sr5 2.617115 1_555
O37 Sr8 2.664264 1_555
O38 Sr2 2.516517 1_546
O38 Sr6 2.617115 1_455
O38 Sr11 2.664264 1_555
O39 Sr3 2.516517 1_555
O39 Sr7 2.617115 1_555
O39 Sr10 2.664264 1_555
O40 Sr4 2.516517 1_556
O40 Sr0 2.617115 1_455
O40 Sr11 2.664264 1_555
O41 Sr5 2.516517 1_545
O41 Sr1 2.617115 1_555
O41 Sr10 2.664264 1_555
O42 Sr6 2.516517 1_564
O42 Sr2 2.617115 1_655
O42 Sr9 2.664264 1_555
O43 Sr7 2.516517 1_555
O43 Sr3 2.617115 1_555
O43 Sr8 2.664264 1_555
O44 Sr6 2.710575 1_564
O44 Sr2 2.751339 1_555
O45 Sr7 2.710575 1_555
O45 Sr3 2.751339 1_655
O46 Sr4 2.710575 1_556
O46 Sr0 2.751339 1_555
O47 Sr5 2.710575 1_545
O47 Sr1 2.751339 1_455
O48 Sr2 2.710575 1_546
O48 Sr6 2.751339 1_555
O49 Sr3 2.710575 1_555
O49 Sr7 2.751339 1_455
O50 Sr0 2.710575 1_554
O50 Sr4 2.751339 1_555
O51 Sr1 2.710575 1_565
O51 Sr5 2.751339 1_655
