# generated using pymatgen
data_CeMgNi4
_symmetry_space_group_name_H-M   'P 1'
_cell_length_a   4.92006716
_cell_length_b   4.92006060
_cell_length_c   4.92006127
_cell_angle_alpha   59.99995992
_cell_angle_beta   60.00000738
_cell_angle_gamma   60.00000330
_symmetry_Int_Tables_number   1
_chemical_formula_structural   CeMgNi4
_chemical_formula_sum   'Ce1 Mg1 Ni4'
_cell_volume   84.21644405
_cell_formula_units_Z   1
loop_
 _symmetry_equiv_pos_site_id
 _symmetry_equiv_pos_as_xyz
  1  'x, y, z'
loop_
 _atom_site_type_symbol
 _atom_site_label
 _atom_site_symmetry_multiplicity
 _atom_site_fract_x
 _atom_site_fract_y
 _atom_site_fract_z
 _atom_site_occupancy
  Ce  Ce0  1  0.00000100  0.00000000  -0.00000000  1
  Mg  Mg0  1  0.25000000  0.25000000  0.25000000  1
  Ni  Ni0  1  0.62357901  0.62358001  0.62358001  1
  Ni  Ni1  1  0.62358001  0.12925998  0.62358001  1
  Ni  Ni2  1  0.62358001  0.62358001  0.12925998  1
  Ni  Ni3  1  0.12926098  0.62358001  0.62358001  1
loop_
_geom_bond_atom_site_label_1
_geom_bond_atom_site_label_2
_geom_bond_distance
_geom_bond_site_symmetry_2
Ce0 Ni0 2.887668 1_544
Ce0 Ni2 2.887669 1_545
Ce0 Ni3 2.887669 1_554
Ce0 Ni1 2.887669 1_554
Ce0 Ni3 2.887669 1_545
Ce0 Ni2 2.887670 1_455
Ce0 Ni3 2.887670 1_544
Ce0 Ni1 2.887670 1_455
Ce0 Ni0 2.887674 1_454
Ce0 Ni0 2.887674 1_445
Ce0 Ni2 2.887675 1_445
Ce0 Ni1 2.887676 1_454
Ce0 Mg0 3.012907 1_555
Ce0 Mg0 3.012909 1_545
Ce0 Mg0 3.012909 1_554
Ce0 Mg0 3.012918 1_455
Mg0 Ni3 2.881709 1_545
Mg0 Ni3 2.881709 1_554
Mg0 Ni0 2.881709 1_545
Mg0 Ni0 2.881710 1_554
Mg0 Ni2 2.881712 1_545
Mg0 Ni1 2.881712 1_554
Mg0 Ni2 2.881713 1_555
Mg0 Ni1 2.881713 1_555
Mg0 Ni3 2.881714 1_555
Mg0 Ni2 2.881715 1_455
Mg0 Ni1 2.881715 1_455
Mg0 Ni0 2.881717 1_455
Ni0 Ni3 2.432078 1_555
Ni0 Ni1 2.432082 1_555
Ni0 Ni2 2.432082 1_555
Ni0 Ni1 2.487979 1_565
Ni0 Ni2 2.487979 1_556
Ni0 Ni3 2.487989 1_655
Ni1 Ni2 2.432083 1_555
Ni1 Ni3 2.432084 1_555
Ni1 Ni2 2.487975 1_546
Ni1 Ni3 2.487980 1_645
Ni2 Ni3 2.432084 1_555
Ni2 Ni3 2.487981 1_654
