# generated using pymatgen
data_K3Al3OF12
_symmetry_space_group_name_H-M   'P 1'
_cell_length_a   6.76015300
_cell_length_b   7.17330500
_cell_length_c   12.26738800
_cell_angle_alpha   90.00000000
_cell_angle_beta   90.00000000
_cell_angle_gamma   90.00000000
_symmetry_Int_Tables_number   1
_chemical_formula_structural   K3Al3OF12
_chemical_formula_sum   'K6 Al6 O2 F24'
_cell_volume   594.87802163
_cell_formula_units_Z   2
loop_
 _symmetry_equiv_pos_site_id
 _symmetry_equiv_pos_as_xyz
  1  'x, y, z'
loop_
 _atom_site_type_symbol
 _atom_site_label
 _atom_site_symmetry_multiplicity
 _atom_site_fract_x
 _atom_site_fract_y
 _atom_site_fract_z
 _atom_site_occupancy
  K  K0  1  0.47946300  0.00000000  0.32582800  1
  K  K1  1  0.47946300  0.00000000  0.67417200  1
  K  K2  1  0.52053700  0.50000000  0.17417200  1
  K  K3  1  0.52053700  0.50000000  0.82582800  1
  K  K4  1  0.82879000  0.00000000  0.00000000  1
  K  K5  1  0.17121000  0.50000000  0.50000000  1
  Al  Al0  1  0.00000000  0.75000000  0.75000000  1
  Al  Al1  1  0.00000000  0.25000000  0.75000000  1
  Al  Al2  1  0.00000000  0.75000000  0.25000000  1
  Al  Al3  1  0.00000000  0.25000000  0.25000000  1
  Al  Al4  1  0.95337100  0.00000000  0.50000000  1
  Al  Al5  1  0.04662900  0.50000000  0.00000000  1
  O  O0  1  0.38903300  0.00000000  0.00000000  1
  O  O1  1  0.61096700  0.50000000  0.50000000  1
  F  F0  1  0.95024700  0.81252400  0.60575300  1
  F  F1  1  0.95024700  0.18747600  0.60575300  1
  F  F2  1  0.95024700  0.81252400  0.39424700  1
  F  F3  1  0.95024700  0.18747600  0.39424700  1
  F  F4  1  0.04975300  0.68747600  0.89424700  1
  F  F5  1  0.04975300  0.31252400  0.89424700  1
  F  F6  1  0.04975300  0.68747600  0.10575300  1
  F  F7  1  0.04975300  0.31252400  0.10575300  1
  F  F8  1  0.74696000  0.78879400  0.78460800  1
  F  F9  1  0.74696000  0.21120600  0.78460800  1
  F  F10  1  0.74696000  0.78879400  0.21539200  1
  F  F11  1  0.74696000  0.21120600  0.21539200  1
  F  F12  1  0.25304000  0.71120600  0.71539200  1
  F  F13  1  0.25304000  0.28879400  0.71539200  1
  F  F14  1  0.25304000  0.71120600  0.28460800  1
  F  F15  1  0.25304000  0.28879400  0.28460800  1
  F  F16  1  0.94233300  0.50000000  0.71525400  1
  F  F17  1  0.94233300  0.50000000  0.28474600  1
  F  F18  1  0.05766700  0.00000000  0.78474600  1
  F  F19  1  0.05766700  0.00000000  0.21525400  1
  F  F20  1  0.69156500  0.00000000  0.50000000  1
  F  F21  1  0.30843500  0.50000000  0.00000000  1
  F  F22  1  0.21646900  0.00000000  0.50000000  1
  F  F23  1  0.78353100  0.50000000  0.00000000  1
loop_
_geom_bond_atom_site_label_1
_geom_bond_atom_site_label_2
_geom_bond_distance
_geom_bond_site_symmetry_2
K4 O0 2.972825 1_555
K5 O1 2.972825 1_555
Al0 F8 1.784320 1_455
Al0 F12 1.784320 1_555
Al0 F0 1.856214 1_455
Al0 F4 1.856214 1_555
Al0 F18 1.884058 1_565
Al0 F16 1.884058 1_455
Al1 F9 1.784320 1_455
Al1 F13 1.784320 1_555
Al1 F5 1.856214 1_555
Al1 F1 1.856214 1_455
Al1 F18 1.884058 1_555
Al1 F16 1.884058 1_455
Al2 F14 1.784320 1_555
Al2 F10 1.784320 1_455
Al2 F2 1.856214 1_455
Al2 F6 1.856214 1_555
Al2 F19 1.884058 1_565
Al2 F17 1.884058 1_455
Al3 F15 1.784320 1_555
Al3 F11 1.784320 1_455
Al3 F3 1.856214 1_455
Al3 F7 1.856214 1_555
Al3 F19 1.884058 1_555
Al3 F17 1.884058 1_455
Al4 F20 1.769849 1_555
Al4 F22 1.778583 1_655
Al4 F1 1.868693 1_555
Al4 F0 1.868693 1_545
Al4 F3 1.868693 1_555
Al4 F2 1.868693 1_545
Al5 F21 1.769849 1_555
Al5 F23 1.778583 1_455
Al5 F4 1.868693 1_554
Al5 F6 1.868693 1_555
Al5 F5 1.868693 1_554
Al5 F7 1.868693 1_555
F0 K5 2.989999 1_655
F1 K5 2.989999 1_655
F2 K5 2.989999 1_655
F3 K5 2.989999 1_655
F4 K4 2.989999 1_466
F5 K4 2.989999 1_456
F6 K4 2.989999 1_465
F7 K4 2.989999 1_455
F8 K3 2.624910 1_555
F8 K1 2.720434 1_565
F8 K4 3.095660 1_566
F9 K3 2.624910 1_555
F9 K1 2.720434 1_555
F9 K4 3.095660 1_556
F10 K2 2.624910 1_555
F10 K0 2.720434 1_565
F10 K4 3.095660 1_565
F11 K2 2.624910 1_555
F11 K0 2.720434 1_555
F11 K4 3.095660 1_555
F12 K1 2.624910 1_565
F12 K3 2.720434 1_555
F12 K5 3.095660 1_555
F13 K1 2.624910 1_555
F13 K3 2.720434 1_555
F13 K5 3.095660 1_555
F14 K0 2.624910 1_565
F14 K2 2.720434 1_555
F14 K5 3.095660 1_555
F15 K0 2.624910 1_555
F15 K2 2.720434 1_555
F15 K5 3.095660 1_555
F16 K5 3.060515 1_655
F17 K5 3.060515 1_655
F18 K4 3.060515 1_456
F19 K4 3.060515 1_455
F20 K0 2.573153 1_555
F20 K1 2.573153 1_555
F21 K3 2.573153 1_554
F21 K2 2.573153 1_555
F22 K0 2.779580 1_555
F22 K1 2.779580 1_555
F23 K3 2.779580 1_554
F23 K2 2.779580 1_555
