# generated using pymatgen
data_Tm4Ga21Ni10
_symmetry_space_group_name_H-M   'P 1'
_cell_length_a   10.58066380
_cell_length_b   10.58066380
_cell_length_c   15.50642452
_cell_angle_alpha   57.03230332
_cell_angle_beta   57.03230332
_cell_angle_gamma   22.04826213
_symmetry_Int_Tables_number   1
_chemical_formula_structural   Tm4Ga21Ni10
_chemical_formula_sum   'Tm4 Ga21 Ni10'
_cell_volume   542.34101331
_cell_formula_units_Z   1
loop_
 _symmetry_equiv_pos_site_id
 _symmetry_equiv_pos_as_xyz
  1  'x, y, z'
loop_
 _atom_site_type_symbol
 _atom_site_label
 _atom_site_symmetry_multiplicity
 _atom_site_fract_x
 _atom_site_fract_y
 _atom_site_fract_z
 _atom_site_occupancy
  Tm  Tm0  1  0.87951700  0.87951700  0.33307800  1
  Tm  Tm1  1  0.12048300  0.12048300  0.66692200  1
  Tm  Tm2  1  0.23091200  0.23091200  0.17331800  1
  Tm  Tm3  1  0.76908800  0.76908800  0.82668200  1
  Ga  Ga0  1  0.46039200  0.46039200  0.36673400  1
  Ga  Ga1  1  0.53960800  0.53960800  0.63326600  1
  Ga  Ga2  1  0.79814600  0.79814600  0.00367900  1
  Ga  Ga3  1  0.20185400  0.20185400  0.99632100  1
  Ga  Ga4  1  0.70193400  0.70193400  0.49714500  1
  Ga  Ga5  1  0.29806600  0.29806600  0.50285500  1
  Ga  Ga6  1  0.88286200  0.88286200  0.55166500  1
  Ga  Ga7  1  0.11713800  0.11713800  0.44833500  1
  Ga  Ga8  1  0.61497400  0.61497400  0.29650000  1
  Ga  Ga9  1  0.38502600  0.38502600  0.70350000  1
  Ga  Ga10  1  0.75252700  0.75252700  0.29322600  1
  Ga  Ga11  1  0.24747300  0.24747300  0.70677400  1
  Ga  Ga12  1  0.60167800  0.60167800  0.00355000  1
  Ga  Ga13  1  0.39832200  0.39832200  0.99645000  1
  Ga  Ga14  1  0.99311600  0.99311600  0.09082200  1
  Ga  Ga15  1  0.00688400  0.00688400  0.90917800  1
  Ga  Ga16  1  0.93533900  0.93533900  0.79556800  1
  Ga  Ga17  1  0.06466100  0.06466100  0.20443200  1
  Ga  Ga18  1  0.50000000  0.50000000  0.50000000  1
  Ga  Ga19  1  0.37225500  0.37225500  0.19635000  1
  Ga  Ga20  1  0.62774500  0.62774500  0.80365000  1
  Ni  Ni0  1  0.49795600  0.49795600  0.18487300  1
  Ni  Ni1  1  0.50204400  0.50204400  0.81512700  1
  Ni  Ni2  1  0.86558500  0.86558500  0.10532700  1
  Ni  Ni3  1  0.13441500  0.13441500  0.89467300  1
  Ni  Ni4  1  0.74912700  0.74912700  0.61543000  1
  Ni  Ni5  1  0.25087300  0.25087300  0.38457000  1
  Ni  Ni6  1  0.65307200  0.65307200  0.11403700  1
  Ni  Ni7  1  0.34692800  0.34692800  0.88596300  1
  Ni  Ni8  1  0.97574200  0.97574200  0.60664200  1
  Ni  Ni9  1  0.02425800  0.02425800  0.39335800  1
loop_
_geom_bond_atom_site_label_1
_geom_bond_atom_site_label_2
_geom_bond_distance
_geom_bond_site_symmetry_2
Ga0 Ni0 2.474186 1_555
Ga0 Ni9 2.575072 1_655
Ga0 Ni9 2.575072 1_565
Ga0 Ga18 2.613845 1_555
Ga0 Ga5 2.816436 1_555
Ga0 Tm0 2.856549 1_545
Ga0 Tm0 2.856549 1_455
Ga1 Ni1 2.474186 1_555
Ga1 Ni8 2.575072 1_545
Ga1 Ni8 2.575072 1_455
Ga1 Ga18 2.613845 1_555
Ga1 Ga4 2.816436 1_555
Ga1 Tm1 2.856549 1_655
Ga1 Tm1 2.856549 1_565
Ga2 Ni6 2.508163 1_555
Ga2 Ni7 2.530102 1_564
Ga2 Ni7 2.530102 1_654
Ga2 Ni2 2.625761 1_555
Ga2 Ga3 2.891347 1_564
Ga2 Ga3 2.891347 1_654
Ga2 Tm2 2.981637 1_565
Ga2 Tm2 2.981637 1_655
Ga2 Tm3 3.119904 1_554
Ga3 Ni7 2.508163 1_555
Ga3 Ni6 2.530102 1_456
Ga3 Ni6 2.530102 1_546
Ga3 Ni3 2.625761 1_555
Ga3 Tm3 2.981637 1_545
Ga3 Tm3 2.981637 1_455
Ga3 Tm2 3.119904 1_556
Ga4 Ni5 2.491307 1_565
Ga4 Ni5 2.491307 1_655
Ga4 Ni4 2.513684 1_555
Ga4 Ga5 2.878268 1_565
Ga4 Ga5 2.878268 1_655
Ga4 Tm1 2.991336 1_565
Ga4 Tm1 2.991336 1_655
Ga4 Ga7 3.040829 1_655
Ga4 Ga7 3.040829 1_565
Ga4 Tm0 3.110123 1_555
Ga5 Ni4 2.491307 1_455
Ga5 Ni4 2.491307 1_545
Ga5 Ni5 2.513684 1_555
Ga5 Tm0 2.991336 1_545
Ga5 Tm0 2.991336 1_455
Ga5 Ga6 3.040829 1_545
Ga5 Ga6 3.040829 1_455
Ga5 Tm1 3.110123 1_555
Ga6 Ni4 2.376630 1_555
Ga6 Ni8 2.504416 1_555
Ga6 Ni9 2.580228 1_665
Ga6 Tm0 3.428509 1_555
Ga7 Ni5 2.376630 1_555
Ga7 Ni9 2.504416 1_555
Ga7 Ni8 2.580228 1_445
Ga7 Tm1 3.428509 1_555
Ga8 Ni6 2.479696 1_555
Ga8 Ni9 2.600358 1_655
Ga8 Ni9 2.600358 1_565
Ga8 Tm2 2.905335 1_655
Ga8 Tm2 2.905335 1_565
Ga9 Ni7 2.479696 1_555
Ga9 Ni8 2.600358 1_545
Ga9 Ni8 2.600358 1_455
Ga9 Tm3 2.905335 1_545
Ga9 Tm3 2.905335 1_455
Ga10 Ni5 2.459075 1_565
Ga10 Ni5 2.459075 1_655
Ga10 Ni2 2.533250 1_555
Ga10 Ga4 2.723695 1_555
Ga10 Ga8 2.829260 1_555
Ga10 Ga19 2.896971 1_655
Ga10 Ga19 2.896971 1_565
Ga10 Tm2 2.945828 1_565
Ga10 Tm2 2.945828 1_655
Ga10 Tm0 3.024334 1_555
Ga11 Ni4 2.459075 1_455
Ga11 Ni4 2.459075 1_545
Ga11 Ni3 2.533250 1_555
Ga11 Ga5 2.723695 1_555
Ga11 Ga9 2.829260 1_555
Ga11 Ga20 2.896971 1_455
Ga11 Ga20 2.896971 1_545
Ga11 Tm3 2.945828 1_455
Ga11 Tm3 2.945828 1_545
Ga11 Tm1 3.024334 1_555
Ga12 Ni0 2.414633 1_555
Ga12 Ni6 2.470358 1_555
Ga12 Ni3 2.476568 1_564
Ga12 Ni3 2.476568 1_654
Ga12 Ga14 2.761539 1_455
Ga12 Ga14 2.761539 1_545
Ga12 Ga20 2.835598 1_554
Ga12 Ga3 2.859546 1_654
Ga12 Ga3 2.859546 1_564
Ga12 Tm3 3.006469 1_554
Ga13 Ni1 2.414633 1_555
Ga13 Ni7 2.470358 1_555
Ga13 Ni2 2.476568 1_456
Ga13 Ni2 2.476568 1_546
Ga13 Ga15 2.761539 1_565
Ga13 Ga15 2.761539 1_655
Ga13 Ga19 2.835598 1_556
Ga13 Ga2 2.859546 1_456
Ga13 Ga2 2.859546 1_546
Ga13 Tm2 3.006469 1_556
Ga14 Ni0 2.528471 1_565
Ga14 Ni0 2.528471 1_655
Ga14 Ni2 2.531161 1_555
Ga14 Ga15 2.668740 1_664
Ga14 Ni3 2.822572 1_664
Ga14 Ga17 2.866120 1_665
Ga14 Ga19 2.918644 1_565
Ga14 Ga19 2.918644 1_655
Ga14 Tm0 3.138619 1_555
Ga15 Ni1 2.528471 1_455
Ga15 Ni1 2.528471 1_545
Ga15 Ni3 2.531161 1_555
Ga15 Ni2 2.822572 1_446
Ga15 Ga16 2.866120 1_445
Ga15 Ga20 2.918644 1_545
Ga15 Ga20 2.918644 1_455
Ga15 Tm1 3.138619 1_555
Ga16 Ni8 2.561377 1_555
Ga16 Ni1 2.563427 1_565
Ga16 Ni1 2.563427 1_655
Ga16 Ni7 2.564473 1_655
Ga16 Ni7 2.564473 1_565
Ga16 Ga2 2.887539 1_556
Ga16 Tm1 3.203444 1_665
Ga16 Tm3 3.210899 1_555
Ga17 Ni9 2.561377 1_555
Ga17 Ni0 2.563427 1_455
Ga17 Ni0 2.563427 1_545
Ga17 Ni6 2.564473 1_455
Ga17 Ni6 2.564473 1_545
Ga17 Ga3 2.887539 1_554
Ga17 Tm0 3.203444 1_445
Ga17 Tm2 3.210899 1_555
Ga18 Ni9 2.481556 1_655
Ga18 Ni8 2.481556 1_455
Ga18 Ni9 2.481556 1_565
Ga18 Ni8 2.481556 1_545
Ga18 Ga8 2.702766 1_555
Ga18 Ga9 2.702766 1_555
Ga18 Ga6 2.914426 1_545
Ga18 Ga7 2.914426 1_565
Ga18 Ga6 2.914426 1_455
Ga18 Ga7 2.914426 1_655
Ga19 Ni2 2.514311 1_455
Ga19 Ni2 2.514311 1_545
Ga19 Ni0 2.516612 1_555
Ga19 Ni5 2.591492 1_555
Ga19 Tm0 2.994330 1_545
Ga19 Tm0 2.994330 1_455
Ga19 Tm2 3.147875 1_555
Ga20 Ni3 2.514311 1_655
Ga20 Ni3 2.514311 1_565
Ga20 Ni1 2.516612 1_555
Ga20 Ni4 2.591492 1_555
Ga20 Tm1 2.994330 1_655
Ga20 Tm1 2.994330 1_565
Ga20 Tm3 3.147875 1_555
Ni0 Ni6 2.768230 1_555
Ni0 Tm0 3.026270 1_545
Ni0 Tm0 3.026270 1_455
Ni1 Ni7 2.768230 1_555
Ni1 Tm1 3.026270 1_655
Ni1 Tm1 3.026270 1_565
Ni2 Tm2 3.124075 1_565
Ni2 Tm2 3.124075 1_655
Ni3 Tm3 3.124075 1_455
Ni3 Tm3 3.124075 1_545
Ni4 Tm1 3.083068 1_655
Ni4 Tm1 3.083068 1_565
Ni5 Tm0 3.083068 1_545
Ni5 Tm0 3.083068 1_455
Ni6 Tm2 3.033239 1_565
Ni6 Tm2 3.033239 1_655
Ni7 Tm3 3.033239 1_545
Ni7 Tm3 3.033239 1_455
