# generated using pymatgen
data_Hf2BIr6
_symmetry_space_group_name_H-M   'P 1'
_cell_length_a   4.06871502
_cell_length_b   4.06871502
_cell_length_c   7.95180805
_cell_angle_alpha   90.00000000
_cell_angle_beta   90.00000000
_cell_angle_gamma   90.00000000
_symmetry_Int_Tables_number   1
_chemical_formula_structural   Hf2BIr6
_chemical_formula_sum   'Hf2 B1 Ir6'
_cell_volume   131.63774447
_cell_formula_units_Z   1
loop_
 _symmetry_equiv_pos_site_id
 _symmetry_equiv_pos_as_xyz
  1  'x, y, z'
loop_
 _atom_site_type_symbol
 _atom_site_label
 _atom_site_symmetry_multiplicity
 _atom_site_fract_x
 _atom_site_fract_y
 _atom_site_fract_z
 _atom_site_occupancy
  Hf  Hf0  1  -0.00000000  -0.00000000  0.98623147  1
  Hf  Hf1  1  0.00000000  -0.00000000  0.51376853  1
  B  B0  1  0.50000000  0.50000000  0.25000000  1
  Ir  Ir0  1  0.00000000  0.50000000  0.25000000  1
  Ir  Ir1  1  0.00000000  0.50000000  0.75000000  1
  Ir  Ir2  1  0.50000000  0.50000000  0.98927078  1
  Ir  Ir3  1  0.50000000  0.50000000  0.51072922  1
  Ir  Ir4  1  0.50000000  -0.00000000  0.25000000  1
  Ir  Ir5  1  0.50000000  -0.00000000  0.75000000  1
loop_
_geom_bond_atom_site_label_1
_geom_bond_atom_site_label_2
_geom_bond_distance
_geom_bond_site_symmetry_2
Hf0 Ir5 2.768980 1_555
Hf0 Ir5 2.768980 1_455
Hf0 Ir1 2.768980 1_555
Hf0 Ir1 2.768980 1_545
Hf0 Ir2 2.877117 1_555
Hf0 Ir2 2.877117 1_545
Hf0 Ir2 2.877117 1_445
Hf0 Ir2 2.877117 1_455
Hf0 Ir4 2.921960 1_456
Hf0 Ir4 2.921960 1_556
Hf0 Ir0 2.921960 1_556
Hf0 Ir0 2.921960 1_546
Hf1 Ir5 2.768980 1_555
Hf1 Ir5 2.768980 1_455
Hf1 Ir1 2.768980 1_555
Hf1 Ir1 2.768980 1_545
Hf1 Ir3 2.877117 1_455
Hf1 Ir3 2.877117 1_445
Hf1 Ir3 2.877117 1_545
Hf1 Ir3 2.877117 1_555
Hf1 Ir0 2.921960 1_545
Hf1 Ir4 2.921960 1_455
Hf1 Ir0 2.921960 1_555
Hf1 Ir4 2.921960 1_555
B0 Ir4 2.034358 1_565
B0 Ir0 2.034358 1_655
B0 Ir0 2.034358 1_555
B0 Ir4 2.034358 1_555
B0 Ir2 2.073269 1_554
B0 Ir3 2.073269 1_555
