# generated using pymatgen
data_BaSrEr4O8
_symmetry_space_group_name_H-M   'P 1'
_cell_length_a   3.42544500
_cell_length_b   10.28413200
_cell_length_c   12.03065100
_cell_angle_alpha   90.00000000
_cell_angle_beta   90.00000000
_cell_angle_gamma   90.00000000
_symmetry_Int_Tables_number   1
_chemical_formula_structural   BaSrEr4O8
_chemical_formula_sum   'Ba2 Sr2 Er8 O16'
_cell_volume   423.81250757
_cell_formula_units_Z   2
loop_
 _symmetry_equiv_pos_site_id
 _symmetry_equiv_pos_as_xyz
  1  'x, y, z'
loop_
 _atom_site_type_symbol
 _atom_site_label
 _atom_site_symmetry_multiplicity
 _atom_site_fract_x
 _atom_site_fract_y
 _atom_site_fract_z
 _atom_site_occupancy
  Ba  Ba0  1  0.75000000  0.74743200  0.14892200  1
  Ba  Ba1  1  0.75000000  0.24743200  0.35107800  1
  Sr  Sr0  1  0.25000000  0.25376500  0.85214300  1
  Sr  Sr1  1  0.25000000  0.75376500  0.64785700  1
  Er  Er0  1  0.75000000  0.07699000  0.10699500  1
  Er  Er1  1  0.75000000  0.57699000  0.39300500  1
  Er  Er2  1  0.25000000  0.92685500  0.88509900  1
  Er  Er3  1  0.25000000  0.42685500  0.61490100  1
  Er  Er4  1  0.75000000  0.07559700  0.61307700  1
  Er  Er5  1  0.75000000  0.57559700  0.88692300  1
  Er  Er6  1  0.25000000  0.92165500  0.39375400  1
  Er  Er7  1  0.25000000  0.42165500  0.10624600  1
  O  O0  1  0.75000000  0.07706600  0.92042500  1
  O  O1  1  0.75000000  0.57706600  0.57957500  1
  O  O2  1  0.25000000  0.93309200  0.07073300  1
  O  O3  1  0.25000000  0.43309200  0.42926700  1
  O  O4  1  0.75000000  0.98137300  0.28405200  1
  O  O5  1  0.75000000  0.48137300  0.21594800  1
  O  O6  1  0.25000000  0.01447900  0.71693900  1
  O  O7  1  0.25000000  0.51447900  0.78306100  1
  O  O8  1  0.75000000  0.37697100  0.97696700  1
  O  O9  1  0.75000000  0.87697100  0.52303300  1
  O  O10  1  0.25000000  0.61452100  0.01421500  1
  O  O11  1  0.25000000  0.11452100  0.48578500  1
  O  O12  1  0.75000000  0.28996700  0.66790600  1
  O  O13  1  0.75000000  0.78996700  0.83209400  1
  O  O14  1  0.25000000  0.71023600  0.34110500  1
  O  O15  1  0.25000000  0.21023600  0.15889500  1
loop_
_geom_bond_atom_site_label_1
_geom_bond_atom_site_label_2
_geom_bond_distance
_geom_bond_site_symmetry_2
Ba0 O10 2.725463 1_555
Ba0 O10 2.725463 1_655
Ba0 O2 2.732013 1_555
Ba0 O2 2.732013 1_655
Ba0 O5 2.852532 1_555
Ba0 O14 2.902670 1_555
Ba0 O14 2.902670 1_655
Ba0 O4 2.903647 1_555
Ba1 O11 2.725463 1_655
Ba1 O11 2.725463 1_555
Ba1 O3 2.732013 1_555
Ba1 O3 2.732013 1_655
Ba1 O4 2.852532 1_545
Ba1 O15 2.902670 1_555
Ba1 O15 2.902670 1_655
Ba1 O5 2.903647 1_555
Er0 O0 2.244559 1_554
Er0 O15 2.280583 1_555
Er0 O15 2.280583 1_655
Er0 O2 2.305155 1_545
Er0 O2 2.305155 1_645
Er0 O4 2.346130 1_545
Er1 O1 2.244559 1_555
Er1 O14 2.280583 1_655
Er1 O14 2.280583 1_555
Er1 O3 2.305155 1_555
Er1 O3 2.305155 1_655
Er1 O5 2.346130 1_555
Er2 O6 2.214696 1_565
Er2 O2 2.234219 1_556
Er2 O13 2.306922 1_455
Er2 O13 2.306922 1_555
Er2 O0 2.345296 1_465
Er2 O0 2.345296 1_565
Er3 O7 2.214696 1_555
Er3 O3 2.234219 1_555
Er3 O12 2.306922 1_455
Er3 O12 2.306922 1_555
Er3 O1 2.345296 1_555
Er3 O1 2.345296 1_455
Er4 O6 2.211291 1_655
Er4 O6 2.211291 1_555
Er4 O12 2.301176 1_555
Er4 O9 2.312168 1_545
Er4 O11 2.332137 1_555
Er4 O11 2.332137 1_655
Er5 O7 2.211291 1_555
Er5 O7 2.211291 1_655
Er5 O13 2.301176 1_555
Er5 O8 2.312168 1_555
Er5 O10 2.332137 1_656
Er5 O10 2.332137 1_556
Er6 O4 2.247762 1_555
Er6 O4 2.247762 1_455
Er6 O14 2.264643 1_555
Er6 O11 2.271561 1_565
Er6 O9 2.358725 1_455
Er6 O9 2.358725 1_555
Er7 O5 2.247762 1_555
Er7 O5 2.247762 1_455
Er7 O15 2.264643 1_555
Er7 O10 2.271561 1_555
Er7 O8 2.358725 1_554
Er7 O8 2.358725 1_454
O0 Sr0 2.628772 1_555
O0 Sr0 2.628772 1_655
O1 Sr1 2.628772 1_555
O1 Sr1 2.628772 1_655
O6 Sr1 2.807072 1_545
O6 Sr0 2.949844 1_555
O7 Sr0 2.807072 1_555
O7 Sr1 2.949844 1_555
O8 Sr0 2.606534 1_555
O8 Sr0 2.606534 1_655
O9 Sr1 2.606534 1_555
O9 Sr1 2.606534 1_655
O12 Sr0 2.825750 1_555
O12 Sr0 2.825750 1_655
O13 Sr1 2.825750 1_555
O13 Sr1 2.825750 1_655
