# generated using pymatgen
data_Mn3Al2V3
_symmetry_space_group_name_H-M   'P 1'
_cell_length_a   7.26133910
_cell_length_b   7.26133910
_cell_length_c   7.26133918
_cell_angle_alpha   33.59451040
_cell_angle_beta   33.59451040
_cell_angle_gamma   33.59451248
_symmetry_Int_Tables_number   1
_chemical_formula_structural   Mn3Al2V3
_chemical_formula_sum   'Mn3 Al2 V3'
_cell_volume   104.41417596
_cell_formula_units_Z   1
loop_
 _symmetry_equiv_pos_site_id
 _symmetry_equiv_pos_as_xyz
  1  'x, y, z'
loop_
 _atom_site_type_symbol
 _atom_site_label
 _atom_site_symmetry_multiplicity
 _atom_site_fract_x
 _atom_site_fract_y
 _atom_site_fract_z
 _atom_site_occupancy
  Mn  Mn0  1  0.24977500  0.24977500  0.24977500  1
  Mn  Mn1  1  0.99859300  0.99859300  0.99859300  1
  Mn  Mn2  1  0.50137200  0.50137200  0.50137200  1
  Al  Al0  1  0.12584700  0.12584700  0.12584700  1
  Al  Al1  1  0.62429100  0.62429100  0.62429100  1
  V  V0  1  0.37465700  0.37465700  0.37465700  1
  V  V1  1  0.87534100  0.87534100  0.87534100  1
  V  V2  1  0.75038800  0.75038800  0.75038800  1
loop_
_geom_bond_atom_site_label_1
_geom_bond_atom_site_label_2
_geom_bond_distance
_geom_bond_site_symmetry_2
Mn0 V0 2.564502 1_555
Mn0 V1 2.565843 1_445
Mn0 V1 2.565843 1_544
Mn0 V1 2.565843 1_454
Mn1 V1 2.531029 1_555
Mn1 V0 2.577047 1_665
Mn1 V0 2.577048 1_656
Mn1 V0 2.577048 1_566
Mn1 V2 2.987841 1_556
Mn1 V2 2.987841 1_655
Mn1 V2 2.987841 1_565
Mn2 V1 2.562718 1_554
Mn2 V1 2.562718 1_545
Mn2 V1 2.562718 1_455
Mn2 V0 2.602144 1_555
Mn2 V2 2.978127 1_554
Mn2 V2 2.978127 1_455
Mn2 V2 2.978127 1_545
Al0 Mn0 2.544911 1_555
Al0 V2 2.572844 1_445
Al0 V2 2.572844 1_454
Al0 V2 2.572844 1_544
Al0 Mn2 2.573300 1_554
Al0 Mn2 2.573300 1_455
Al0 Mn2 2.573300 1_545
Al0 Mn1 2.613212 1_444
Al1 Mn2 2.524191 1_555
Al1 Mn1 2.564953 1_554
Al1 Mn1 2.564953 1_545
Al1 Mn1 2.564953 1_455
Al1 Mn0 2.566397 1_556
Al1 Mn0 2.566398 1_565
Al1 Mn0 2.566398 1_655
Al1 V2 2.589453 1_555
V0 V2 2.574727 1_554
V0 V2 2.574727 1_545
V0 V2 2.574727 1_455
V1 V2 2.565960 1_555
