# generated using pymatgen
data_TbAl3Ni2
_symmetry_space_group_name_H-M   'P 1'
_cell_length_a   8.97894585
_cell_length_b   8.97894585
_cell_length_c   4.04053539
_cell_angle_alpha   90.00000000
_cell_angle_beta   90.00000000
_cell_angle_gamma   120.00000506
_symmetry_Int_Tables_number   1
_chemical_formula_structural   TbAl3Ni2
_chemical_formula_sum   'Tb3 Al9 Ni6'
_cell_volume   282.11113555
_cell_formula_units_Z   3
loop_
 _symmetry_equiv_pos_site_id
 _symmetry_equiv_pos_as_xyz
  1  'x, y, z'
loop_
 _atom_site_type_symbol
 _atom_site_label
 _atom_site_symmetry_multiplicity
 _atom_site_fract_x
 _atom_site_fract_y
 _atom_site_fract_z
 _atom_site_occupancy
  Tb  Tb0  1  0.33333300  0.66666700  0.50000000  1
  Tb  Tb1  1  0.66666700  0.33333300  0.50000000  1
  Tb  Tb2  1  -0.00000000  -0.00000000  0.00000000  1
  Al  Al0  1  0.50000000  -0.00000000  0.00000000  1
  Al  Al1  1  -0.00000000  0.50000000  0.00000000  1
  Al  Al2  1  0.50000000  0.50000000  0.00000000  1
  Al  Al3  1  0.29707919  -0.00000000  0.50000000  1
  Al  Al4  1  0.70292081  0.00000000  0.50000000  1
  Al  Al5  1  -0.00000000  0.29707919  0.50000000  1
  Al  Al6  1  0.00000000  0.70292081  0.50000000  1
  Al  Al7  1  0.70292081  0.70292081  0.50000000  1
  Al  Al8  1  0.29707919  0.29707919  0.50000000  1
  Ni  Ni0  1  0.18080598  0.36161397  0.00000000  1
  Ni  Ni1  1  0.81919402  0.63838603  -0.00000000  1
  Ni  Ni2  1  0.63838603  0.81919402  0.00000000  1
  Ni  Ni3  1  0.36161397  0.18080598  -0.00000000  1
  Ni  Ni4  1  0.18080598  0.81919402  -0.00000000  1
  Ni  Ni5  1  0.81919402  0.18080598  0.00000000  1
loop_
_geom_bond_atom_site_label_1
_geom_bond_atom_site_label_2
_geom_bond_distance
_geom_bond_site_symmetry_2
Al0 Ni3 2.489331 1_555
Al0 Ni2 2.489331 1_545
Al0 Ni5 2.489346 1_555
Al0 Ni4 2.489346 1_545
Al0 Tb0 3.286324 1_544
Al0 Tb1 3.286324 1_555
Al0 Tb1 3.286324 1_554
Al0 Tb0 3.286324 1_545
Al1 Ni0 2.489331 1_555
Al1 Ni1 2.489331 1_455
Al1 Ni5 2.489346 1_455
Al1 Ni4 2.489346 1_555
Al1 Tb0 3.286324 1_555
Al1 Tb0 3.286324 1_554
Al1 Tb1 3.286324 1_455
Al1 Tb1 3.286324 1_454
Al2 Ni2 2.489347 1_555
Al2 Ni3 2.489347 1_555
Al2 Ni0 2.489347 1_555
Al2 Ni1 2.489347 1_555
Al2 Tb0 3.286330 1_554
Al2 Tb1 3.286330 1_554
Al2 Tb1 3.286330 1_555
Al2 Tb0 3.286330 1_555
Al3 Ni3 2.472269 1_556
Al3 Ni3 2.472269 1_555
Al3 Ni4 2.472271 1_546
Al3 Ni4 2.472271 1_545
Al3 Tb0 3.168306 1_545
Al3 Tb1 3.168311 1_555
Al4 Ni2 2.472269 1_545
Al4 Ni2 2.472269 1_546
Al4 Ni5 2.472271 1_555
Al4 Ni5 2.472271 1_556
Al4 Tb1 3.168306 1_555
Al4 Tb0 3.168311 1_545
Al5 Ni0 2.472269 1_556
Al5 Ni0 2.472269 1_555
Al5 Ni5 2.472271 1_456
Al5 Ni5 2.472271 1_455
Al5 Tb1 3.168306 1_455
Al5 Tb0 3.168311 1_555
Al6 Ni1 2.472269 1_456
Al6 Ni1 2.472269 1_455
Al6 Ni4 2.472271 1_555
Al6 Ni4 2.472271 1_556
Al6 Tb0 3.168306 1_555
Al6 Tb1 3.168311 1_455
Al7 Ni1 2.472279 1_556
Al7 Ni2 2.472279 1_555
Al7 Ni1 2.472279 1_555
Al7 Ni2 2.472279 1_556
Al7 Tb0 3.168315 1_555
Al7 Tb1 3.168315 1_555
Al8 Ni3 2.472279 1_555
Al8 Ni0 2.472279 1_555
Al8 Ni3 2.472279 1_556
Al8 Ni0 2.472279 1_556
Al8 Tb1 3.168315 1_555
Al8 Tb0 3.168315 1_555
Ni0 Tb2 2.811908 1_555
Ni0 Tb0 3.115814 1_555
Ni0 Tb0 3.115814 1_554
Ni1 Tb2 2.811908 1_665
Ni1 Tb1 3.115814 1_554
Ni1 Tb1 3.115814 1_555
Ni2 Tb2 2.811908 1_665
Ni2 Tb0 3.115814 1_555
Ni2 Tb0 3.115814 1_554
Ni3 Tb2 2.811908 1_555
Ni3 Tb1 3.115814 1_554
Ni3 Tb1 3.115814 1_555
Ni4 Tb2 2.811893 1_565
Ni4 Tb0 3.115820 1_555
Ni4 Tb0 3.115820 1_554
Ni5 Tb2 2.811893 1_655
Ni5 Tb1 3.115820 1_554
Ni5 Tb1 3.115820 1_555
