# generated using pymatgen
data_LiMn4(CoO6)2
_symmetry_space_group_name_H-M   'P 1'
_cell_length_a   5.05861204
_cell_length_b   5.08053710
_cell_length_c   10.13506069
_cell_angle_alpha   90.04931238
_cell_angle_beta   89.47736216
_cell_angle_gamma   60.00008123
_symmetry_Int_Tables_number   1
_chemical_formula_structural   LiMn4(CoO6)2
_chemical_formula_sum   'Li1 Mn4 Co2 O12'
_cell_volume   225.56502570
_cell_formula_units_Z   1
loop_
 _symmetry_equiv_pos_site_id
 _symmetry_equiv_pos_as_xyz
  1  'x, y, z'
loop_
 _atom_site_type_symbol
 _atom_site_label
 _atom_site_symmetry_multiplicity
 _atom_site_fract_x
 _atom_site_fract_y
 _atom_site_fract_z
 _atom_site_occupancy
  Li  Li0  1  0.82079100  0.69052100  0.25412100  1
  Mn  Mn0  1  0.32665500  0.33773700  0.99881400  1
  Mn  Mn1  1  0.33171700  0.83471000  0.50091900  1
  Mn  Mn2  1  0.66673300  0.16561200  0.50096100  1
  Mn  Mn3  1  0.66702800  0.66553000  0.99119500  1
  Co  Co0  1  0.99929500  0.00085900  0.99525000  1
  Co  Co1  1  0.99882900  0.50094300  0.51468900  1
  O  O0  1  0.99996800  0.15268400  0.59905000  1
  O  O1  1  0.98662600  0.36555300  0.09973900  1
  O  O2  1  0.00442400  0.64830000  0.89737400  1
  O  O3  1  0.32744300  0.00518700  0.90333800  1
  O  O4  1  0.99891300  0.83200200  0.40349200  1
  O  O5  1  0.34205400  0.15798700  0.40421100  1
  O  O6  1  0.34353900  0.49790600  0.59777800  1
  O  O7  1  0.33259300  0.66627500  0.09236900  1
  O  O8  1  0.66628300  0.99260400  0.09435700  1
  O  O9  1  0.66265800  0.33299400  0.90238100  1
  O  O10  1  0.67149700  0.50156600  0.40451900  1
  O  O11  1  0.65295400  0.84478000  0.59891500  1
loop_
_geom_bond_atom_site_label_1
_geom_bond_atom_site_label_2
_geom_bond_distance
_geom_bond_site_symmetry_2
Li0 O4 2.071496 1_555
Li0 O8 2.101432 1_555
Li0 O1 2.112905 1_555
Li0 O10 2.126484 1_555
Mn0 O2 1.914422 1_555
Mn0 O7 1.932344 1_556
Mn0 O1 1.936359 1_456
Mn0 O9 1.942552 1_555
Mn0 O3 1.944550 1_555
Mn0 O8 1.996180 1_546
Mn1 O0 1.915975 1_465
Mn1 O11 1.934481 1_555
Mn1 O5 1.936150 1_565
Mn1 O6 1.948565 1_555
Mn1 O10 1.957285 1_555
Mn1 O4 1.965434 1_455
Mn2 O6 1.921897 1_555
Mn2 O5 1.937399 1_555
Mn2 O0 1.937575 1_555
Mn2 O11 1.939712 1_545
Mn2 O4 1.947049 1_545
Mn2 O10 1.978083 1_555
Mn3 O2 1.909371 1_655
Mn3 O9 1.923566 1_555
Mn3 O1 1.928239 1_556
Mn3 O3 1.946240 1_565
Mn3 O8 1.960907 1_556
Mn3 O7 1.968634 1_556
Co0 O3 1.905801 1_655
Co0 O9 1.947224 1_555
Co0 O7 1.966782 1_646
Co0 O8 1.971890 1_546
Co0 O2 2.035449 1_645
Co0 O1 2.106005 1_556
Co1 O6 1.936485 1_655
Co1 O11 1.937863 1_555
Co1 O0 1.963196 1_555
Co1 O10 2.004265 1_555
Co1 O4 2.025599 1_555
Co1 O5 2.059170 1_655
