# generated using pymatgen
data_Cs2RhCl5O
_symmetry_space_group_name_H-M   'P 1'
_cell_length_a   7.41134600
_cell_length_b   8.45527700
_cell_length_c   9.52516082
_cell_angle_alpha   90.00000000
_cell_angle_beta   112.89480753
_cell_angle_gamma   90.00000000
_symmetry_Int_Tables_number   1
_chemical_formula_structural   Cs2RhCl5O
_chemical_formula_sum   'Cs4 Rh2 Cl10 O2'
_cell_volume   549.87112948
_cell_formula_units_Z   2
loop_
 _symmetry_equiv_pos_site_id
 _symmetry_equiv_pos_as_xyz
  1  'x, y, z'
loop_
 _atom_site_type_symbol
 _atom_site_label
 _atom_site_symmetry_multiplicity
 _atom_site_fract_x
 _atom_site_fract_y
 _atom_site_fract_z
 _atom_site_occupancy
  Cs  Cs0  1  0.53020800  0.25000000  0.06041600  1
  Cs  Cs1  1  0.46979200  0.75000000  0.93958400  1
  Cs  Cs2  1  0.24291900  0.25000000  0.48583800  1
  Cs  Cs3  1  0.75708100  0.75000000  0.51416200  1
  Rh  Rh0  1  0.89188200  0.25000000  0.78376400  1
  Rh  Rh1  1  0.10811800  0.75000000  0.21623600  1
  Cl  Cl0  1  0.75390600  0.25000000  0.50781100  1
  Cl  Cl1  1  0.24609400  0.75000000  0.49218900  1
  Cl  Cl2  1  0.11385200  0.04995800  0.77506400  1
  Cl  Cl3  1  0.33878800  0.95004200  0.22493600  1
  Cl  Cl4  1  0.11385200  0.45004200  0.77506400  1
  Cl  Cl5  1  0.33878800  0.54995800  0.22493600  1
  Cl  Cl6  1  0.88614800  0.95004200  0.22493600  1
  Cl  Cl7  1  0.66121200  0.04995800  0.77506400  1
  Cl  Cl8  1  0.88614800  0.54995800  0.22493600  1
  Cl  Cl9  1  0.66121200  0.45004200  0.77506400  1
  O  O0  1  0.99416000  0.25000000  0.98832000  1
  O  O1  1  0.00584000  0.75000000  0.01168000  1
loop_
_geom_bond_atom_site_label_1
_geom_bond_atom_site_label_2
_geom_bond_distance
_geom_bond_site_symmetry_2
Cs0 O0 3.759286 1_454
Cs0 O0 3.759286 1_554
Cs1 O1 3.759286 1_556
Cs1 O1 3.759286 1_656
Cl0 Rh0 2.421425 1_555
Cl0 Cs2 3.710682 1_655
Cl0 Cs2 3.710689 1_555
Cl0 Cs0 3.925790 1_555
Cl1 Rh1 2.421425 1_555
Cl1 Cs3 3.710682 1_455
Cl1 Cs3 3.710689 1_555
Cl1 Cs1 3.925790 1_555
Cl2 Rh0 2.383307 1_455
Cl2 Cs1 3.553964 1_545
Cl2 Cs0 3.639304 1_556
Cl2 Cs2 3.662775 1_555
Cl2 Cs3 3.806187 1_445
Cl3 Rh1 2.383307 1_555
Cl3 Cs0 3.553964 1_565
Cl3 Cs1 3.639304 1_554
Cl3 Cs3 3.662775 1_555
Cl3 Cs2 3.806187 1_565
Cl4 Rh0 2.383307 1_455
Cl4 Cs1 3.553964 1_555
Cl4 Cs0 3.639304 1_556
Cl4 Cs2 3.662775 1_555
Cl4 Cs3 3.806187 1_455
Cl5 Rh1 2.383307 1_555
Cl5 Cs0 3.553964 1_555
Cl5 Cs1 3.639304 1_554
Cl5 Cs3 3.662775 1_555
Cl5 Cs2 3.806187 1_555
Cl6 Rh1 2.383307 1_655
Cl6 Cs0 3.553964 1_565
Cl6 Cs1 3.639304 1_554
Cl6 Cs3 3.662775 1_555
Cl6 Cs2 3.806187 1_665
Cl7 Rh0 2.383307 1_555
Cl7 Cs1 3.553964 1_545
Cl7 Cs0 3.639304 1_556
Cl7 Cs2 3.662775 1_555
Cl7 Cs3 3.806187 1_545
Cl8 Rh1 2.383307 1_655
Cl8 Cs0 3.553964 1_555
Cl8 Cs1 3.639304 1_554
Cl8 Cs3 3.662775 1_555
Cl8 Cs2 3.806187 1_655
Cl9 Rh0 2.383307 1_555
Cl9 Cs1 3.553964 1_555
Cl9 Cs0 3.639304 1_556
Cl9 Cs2 3.662775 1_555
Cl9 Cs3 3.806187 1_555
O0 Rh0 1.794933 1_555
O1 Rh1 1.794933 1_555
