# generated using pymatgen
data_HfGeIr
_symmetry_space_group_name_H-M   'P 1'
_cell_length_a   4.02330990
_cell_length_b   6.49871405
_cell_length_c   7.52855288
_cell_angle_alpha   90.00000000
_cell_angle_beta   90.00000000
_cell_angle_gamma   90.00000000
_symmetry_Int_Tables_number   1
_chemical_formula_structural   HfGeIr
_chemical_formula_sum   'Hf4 Ge4 Ir4'
_cell_volume   196.84410763
_cell_formula_units_Z   4
loop_
 _symmetry_equiv_pos_site_id
 _symmetry_equiv_pos_as_xyz
  1  'x, y, z'
loop_
 _atom_site_type_symbol
 _atom_site_label
 _atom_site_symmetry_multiplicity
 _atom_site_fract_x
 _atom_site_fract_y
 _atom_site_fract_z
 _atom_site_occupancy
  Hf  Hf0  1  0.75000000  0.47769287  0.18540883  1
  Hf  Hf1  1  0.75000000  0.97769287  0.31459117  1
  Hf  Hf2  1  0.25000000  0.52230713  0.81459117  1
  Hf  Hf3  1  0.25000000  0.02230713  0.68540883  1
  Ge  Ge0  1  0.75000000  0.23082009  0.88095492  1
  Ge  Ge1  1  0.75000000  0.73082009  0.61904508  1
  Ge  Ge2  1  0.25000000  0.76917991  0.11904508  1
  Ge  Ge3  1  0.25000000  0.26917991  0.38095492  1
  Ir  Ir0  1  0.75000000  0.34427539  0.56460412  1
  Ir  Ir1  1  0.75000000  0.84427539  0.93539588  1
  Ir  Ir2  1  0.25000000  0.65572461  0.43539588  1
  Ir  Ir3  1  0.25000000  0.15572461  0.06460412  1
loop_
_geom_bond_atom_site_label_1
_geom_bond_atom_site_label_2
_geom_bond_distance
_geom_bond_site_symmetry_2
Hf0 Ir0 2.983555 1_555
Hf0 Ir2 2.987880 1_655
Hf0 Ir2 2.987880 1_555
Hf0 Ir1 3.036155 1_554
Hf0 Ir3 3.041705 1_655
Hf0 Ir3 3.041705 1_555
Hf1 Ir1 2.983555 1_554
Hf1 Ir3 2.987880 1_665
Hf1 Ir3 2.987880 1_565
Hf1 Ir0 3.036155 1_565
Hf1 Ir2 3.041705 1_555
Hf1 Ir2 3.041705 1_655
Hf2 Ir2 2.983555 1_555
Hf2 Ir0 2.987880 1_455
Hf2 Ir0 2.987880 1_555
Hf2 Ir3 3.036155 1_556
Hf2 Ir1 3.041705 1_455
Hf2 Ir1 3.041705 1_555
Hf3 Ir3 2.983555 1_556
Hf3 Ir1 2.987880 1_445
Hf3 Ir1 2.987880 1_545
Hf3 Ir2 3.036155 1_545
Hf3 Ir0 3.041705 1_555
Hf3 Ir0 3.041705 1_455
Ge0 Ir3 2.489285 1_656
Ge0 Ir3 2.489285 1_556
Ge0 Ir0 2.493181 1_555
Ge0 Ir1 2.545260 1_545
Ge0 Hf0 2.797797 1_556
Ge0 Hf2 2.807974 1_555
Ge0 Hf2 2.807974 1_655
Ge0 Hf3 2.837300 1_555
Ge0 Hf3 2.837300 1_655
Ge1 Ir2 2.489285 1_655
Ge1 Ir2 2.489285 1_555
Ge1 Ir1 2.493181 1_555
Ge1 Ir0 2.545260 1_555
Ge1 Hf1 2.797797 1_555
Ge1 Hf3 2.807974 1_565
Ge1 Hf3 2.807974 1_665
Ge1 Hf2 2.837300 1_655
Ge1 Hf2 2.837300 1_555
Ge2 Ir1 2.489285 1_554
Ge2 Ir1 2.489285 1_454
Ge2 Ir2 2.493181 1_555
Ge2 Ir3 2.545260 1_565
Ge2 Hf2 2.797797 1_554
Ge2 Hf0 2.807974 1_455
Ge2 Hf0 2.807974 1_555
Ge2 Hf1 2.837300 1_455
Ge2 Hf1 2.837300 1_555
Ge3 Ir0 2.489285 1_555
Ge3 Ir0 2.489285 1_455
Ge3 Ir3 2.493181 1_555
Ge3 Ir2 2.545260 1_555
Ge3 Hf3 2.797797 1_555
Ge3 Hf1 2.807974 1_445
Ge3 Hf1 2.807974 1_545
Ge3 Hf0 2.837300 1_455
Ge3 Hf0 2.837300 1_555
