# generated using pymatgen
data_Mg14CrC
_symmetry_space_group_name_H-M   'P 1'
_cell_length_a   6.24767312
_cell_length_b   6.24767264
_cell_length_c   9.79300898
_cell_angle_alpha   90.00000000
_cell_angle_beta   90.00000000
_cell_angle_gamma   120.00000255
_symmetry_Int_Tables_number   1
_chemical_formula_structural   Mg14CrC
_chemical_formula_sum   'Mg14 Cr1 C1'
_cell_volume   331.04218352
_cell_formula_units_Z   1
loop_
 _symmetry_equiv_pos_site_id
 _symmetry_equiv_pos_as_xyz
  1  'x, y, z'
loop_
 _atom_site_type_symbol
 _atom_site_label
 _atom_site_symmetry_multiplicity
 _atom_site_fract_x
 _atom_site_fract_y
 _atom_site_fract_z
 _atom_site_occupancy
  Mg  Mg0  1  0.17196502  0.83598201  0.12500000  1
  Mg  Mg1  1  0.16114550  0.83057225  0.62500000  1
  Mg  Mg2  1  0.66401799  0.32803498  0.12500000  1
  Mg  Mg3  1  0.66942775  0.33885450  0.62500000  1
  Mg  Mg4  1  0.66401799  0.83598201  0.12500000  1
  Mg  Mg5  1  0.66942775  0.83057225  0.62500000  1
  Mg  Mg6  1  0.32514737  0.17485263  0.38537873  1
  Mg  Mg7  1  0.32514737  0.17485263  0.86462127  1
  Mg  Mg8  1  0.32514737  0.65029574  0.38537873  1
  Mg  Mg9  1  0.32514737  0.65029574  0.86462127  1
  Mg  Mg10  1  0.84970426  0.17485263  0.38537873  1
  Mg  Mg11  1  0.84970426  0.17485263  0.86462127  1
  Mg  Mg12  1  0.83333300  0.66666700  0.37077747  1
  Mg  Mg13  1  0.83333300  0.66666700  0.87922253  1
  Cr  Cr0  1  0.16666700  0.33333300  0.12500000  1
  C  C0  1  0.16666700  0.33333300  0.62500000  1
loop_
_geom_bond_atom_site_label_1
_geom_bond_atom_site_label_2
_geom_bond_distance
_geom_bond_site_symmetry_2
Mg0 Mg13 3.024928 1_454
Mg0 Mg12 3.024928 1_455
Mg0 Mg2 3.074186 1_565
Mg0 Mg4 3.074186 1_555
Mg0 Mg8 3.142287 1_555
Mg0 Mg9 3.142287 1_554
Mg0 Mg7 3.142293 1_564
Mg0 Mg6 3.142293 1_565
Mg0 Mg2 3.173487 1_455
Mg0 Mg4 3.173487 1_455
Mg1 Mg12 3.056805 1_455
Mg1 Mg13 3.056805 1_455
Mg2 Mg4 3.074186 1_545
Mg2 Mg7 3.142293 1_554
Mg2 Mg6 3.142293 1_555
Mg2 Mg4 3.173487 1_555
Mg4 Mg8 3.142293 1_555
Mg4 Mg9 3.142293 1_554
Mg10 Mg12 3.128362 1_545
Mg10 Mg12 3.128362 1_555
Mg10 Mg2 3.142287 1_555
Mg10 Mg4 3.142293 1_545
Mg11 Mg13 3.128362 1_545
Mg11 Mg13 3.128362 1_555
Mg11 Mg2 3.142287 1_556
Mg11 Mg4 3.142293 1_546
Mg12 Mg4 3.024922 1_555
Mg12 Mg2 3.024928 1_555
Mg12 Mg5 3.056798 1_555
Mg12 Mg3 3.056805 1_555
Mg12 Mg6 3.128362 1_665
Mg12 Mg6 3.128362 1_555
Mg12 Mg8 3.128362 1_555
Mg12 Mg8 3.128362 1_655
Mg13 Mg4 3.024922 1_556
Mg13 Mg2 3.024928 1_556
Mg13 Mg5 3.056798 1_555
Mg13 Mg3 3.056805 1_555
Mg13 Mg7 3.128362 1_665
Mg13 Mg7 3.128362 1_555
Mg13 Mg9 3.128362 1_555
Mg13 Mg9 3.128362 1_655
Cr0 Mg6 3.072953 1_555
Cr0 Mg7 3.072953 1_554
Cr0 Mg9 3.072959 1_554
Cr0 Mg8 3.072959 1_555
Cr0 Mg11 3.072959 1_454
Cr0 Mg10 3.072959 1_455
Cr0 Mg0 3.123968 1_555
Cr0 Mg4 3.123968 1_555
Cr0 Mg4 3.123968 1_445
Cr0 Mg0 3.123968 1_545
Cr0 Mg2 3.123968 1_455
Cr0 Mg2 3.123968 1_555
C0 Mg7 2.906490 1_555
C0 Mg6 2.906490 1_555
C0 Mg9 2.906497 1_555
C0 Mg8 2.906497 1_555
C0 Mg10 2.906497 1_455
C0 Mg11 2.906497 1_455
