# generated using pymatgen
data_VO3
_symmetry_space_group_name_H-M   'P 1'
_cell_length_a   11.72468700
_cell_length_b   11.72468700
_cell_length_c   8.57534400
_cell_angle_alpha   90.00000000
_cell_angle_beta   90.00000000
_cell_angle_gamma   90.00000000
_symmetry_Int_Tables_number   1
_chemical_formula_structural   VO3
_chemical_formula_sum   'V16 O48'
_cell_volume   1178.83783509
_cell_formula_units_Z   16
loop_
 _symmetry_equiv_pos_site_id
 _symmetry_equiv_pos_as_xyz
  1  'x, y, z'
loop_
 _atom_site_type_symbol
 _atom_site_label
 _atom_site_symmetry_multiplicity
 _atom_site_fract_x
 _atom_site_fract_y
 _atom_site_fract_z
 _atom_site_occupancy
  V  V0  1  0.54146400  0.33538200  0.06756400  1
  V  V1  1  0.45853600  0.66461800  0.06756400  1
  V  V2  1  0.83538200  0.95853600  0.56756400  1
  V  V3  1  0.04146400  0.16461800  0.93243600  1
  V  V4  1  0.95853600  0.16461800  0.43243600  1
  V  V5  1  0.16461800  0.04146400  0.56756400  1
  V  V6  1  0.95853600  0.83538200  0.93243600  1
  V  V7  1  0.04146400  0.83538200  0.43243600  1
  V  V8  1  0.33538200  0.54146400  0.43243600  1
  V  V9  1  0.66461800  0.54146400  0.93243600  1
  V  V10  1  0.66461800  0.45853600  0.43243600  1
  V  V11  1  0.33538200  0.45853600  0.93243600  1
  V  V12  1  0.45853600  0.33538200  0.56756400  1
  V  V13  1  0.54146400  0.66461800  0.56756400  1
  V  V14  1  0.83538200  0.04146400  0.06756400  1
  V  V15  1  0.16461800  0.95853600  0.06756400  1
  O  O0  1  0.08704800  0.20156200  0.61355000  1
  O  O1  1  0.91295200  0.79843800  0.61355000  1
  O  O2  1  0.70156200  0.41295200  0.11355000  1
  O  O3  1  0.58704800  0.29843800  0.38645000  1
  O  O4  1  0.41295200  0.29843800  0.88645000  1
  O  O5  1  0.29843800  0.58704800  0.11355000  1
  O  O6  1  0.41295200  0.70156200  0.38645000  1
  O  O7  1  0.58704800  0.70156200  0.88645000  1
  O  O8  1  0.20156200  0.08704800  0.88645000  1
  O  O9  1  0.79843800  0.08704800  0.38645000  1
  O  O10  1  0.79843800  0.91295200  0.88645000  1
  O  O11  1  0.20156200  0.91295200  0.38645000  1
  O  O12  1  0.91295200  0.20156200  0.11355000  1
  O  O13  1  0.08704800  0.79843800  0.11355000  1
  O  O14  1  0.70156200  0.58704800  0.61355000  1
  O  O15  1  0.29843800  0.41295200  0.61355000  1
  O  O16  1  0.56438700  0.24150200  0.23948600  1
  O  O17  1  0.43561300  0.75849800  0.23948600  1
  O  O18  1  0.74150200  0.93561300  0.73948600  1
  O  O19  1  0.06438700  0.25849800  0.76051400  1
  O  O20  1  0.93561300  0.25849800  0.26051400  1
  O  O21  1  0.25849800  0.06438700  0.73948600  1
  O  O22  1  0.93561300  0.74150200  0.76051400  1
  O  O23  1  0.06438700  0.74150200  0.26051400  1
  O  O24  1  0.24150200  0.56438700  0.26051400  1
  O  O25  1  0.75849800  0.56438700  0.76051400  1
  O  O26  1  0.75849800  0.43561300  0.26051400  1
  O  O27  1  0.24150200  0.43561300  0.76051400  1
  O  O28  1  0.43561300  0.24150200  0.73948600  1
  O  O29  1  0.56438700  0.75849800  0.73948600  1
  O  O30  1  0.74150200  0.06438700  0.23948600  1
  O  O31  1  0.25849800  0.93561300  0.23948600  1
  O  O32  1  0.10364100  0.08767200  0.11310200  1
  O  O33  1  0.89635900  0.91232800  0.11310200  1
  O  O34  1  0.58767200  0.39635900  0.61310200  1
  O  O35  1  0.60364100  0.41232800  0.88689800  1
  O  O36  1  0.39635900  0.41232800  0.38689800  1
  O  O37  1  0.41232800  0.60364100  0.61310200  1
  O  O38  1  0.39635900  0.58767200  0.88689800  1
  O  O39  1  0.60364100  0.58767200  0.38689800  1
  O  O40  1  0.08767200  0.10364100  0.38689800  1
  O  O41  1  0.91232800  0.10364100  0.88689800  1
  O  O42  1  0.91232800  0.89635900  0.38689800  1
  O  O43  1  0.08767200  0.89635900  0.88689800  1
  O  O44  1  0.89635900  0.08767200  0.61310200  1
  O  O45  1  0.10364100  0.91232800  0.61310200  1
  O  O46  1  0.58767200  0.60364100  0.11310200  1
  O  O47  1  0.41232800  0.39635900  0.11310200  1
loop_
_geom_bond_atom_site_label_1
_geom_bond_atom_site_label_2
_geom_bond_distance
_geom_bond_site_symmetry_2
O0 O19 1.450689 1_555
O0 V5 2.122774 1_555
O0 V4 2.206836 1_455
O1 O22 1.450689 1_555
O1 V2 2.122774 1_555
O1 V7 2.206836 1_655
O2 O26 1.450689 1_555
O2 V0 2.122774 1_555
O2 V9 2.206836 1_554
O3 V10 2.122774 1_555
O3 V12 2.206836 1_555
O4 V11 2.122774 1_555
O4 V0 2.206836 1_556
O5 V1 2.122774 1_555
O5 V11 2.206836 1_554
O6 V8 2.122774 1_555
O6 V13 2.206836 1_555
O7 V9 2.122774 1_555
O7 V1 2.206836 1_556
O8 V3 2.122774 1_555
O8 V15 2.206836 1_546
O9 V4 2.122774 1_555
O9 V2 2.206836 1_545
O10 O18 1.450689 1_555
O10 V6 2.122774 1_555
O10 V14 2.206836 1_566
O11 O31 1.450689 1_555
O11 V7 2.122774 1_555
O11 V5 2.206836 1_565
O12 O20 1.450689 1_555
O12 V14 2.122774 1_555
O12 V3 2.206836 1_654
O13 O23 1.450689 1_555
O13 V15 2.122774 1_555
O13 V6 2.206836 1_454
O14 O25 1.450689 1_555
O14 V13 2.122774 1_555
O14 V10 2.206836 1_555
O15 O27 1.450689 1_555
O15 V12 2.122774 1_555
O15 V8 2.206836 1_555
O16 O3 1.450689 1_555
O16 V0 1.859392 1_555
O17 O6 1.450689 1_555
O17 V1 1.859392 1_555
O18 V2 1.859392 1_555
O19 V3 1.859392 1_555
O20 V4 1.859392 1_555
O21 O8 1.450689 1_555
O21 V5 1.859392 1_555
O22 V6 1.859392 1_555
O23 V7 1.859392 1_555
O24 O5 1.450689 1_555
O24 V8 1.859392 1_555
O25 V9 1.859392 1_555
O26 V10 1.859392 1_555
O27 V11 1.859392 1_555
O28 O4 1.450689 1_555
O28 V12 1.859392 1_555
O29 O7 1.450689 1_555
O29 V13 1.859392 1_555
O30 O9 1.450689 1_555
O30 V14 1.859392 1_555
O31 V15 1.859392 1_555
O32 V15 1.719320 1_545
O32 V3 1.935356 1_554
O33 V14 1.719320 1_565
O33 V6 1.935356 1_554
O34 V12 1.719320 1_555
O34 V10 1.935356 1_555
O35 V9 1.719320 1_555
O35 V0 1.935356 1_556
O36 V8 1.719320 1_555
O36 V12 1.935356 1_555
O37 V13 1.719320 1_555
O37 V8 1.935356 1_555
O38 V11 1.719320 1_555
O38 V1 1.935356 1_556
O39 V10 1.719320 1_555
O39 V13 1.935356 1_555
O40 V4 1.719320 1_455
O40 V5 1.935356 1_555
O41 V3 1.719320 1_655
O41 V14 1.935356 1_556
O42 V7 1.719320 1_655
O42 V2 1.935356 1_555
O43 V6 1.719320 1_455
O43 V15 1.935356 1_556
O44 V2 1.719320 1_545
O44 V4 1.935356 1_555
O45 V5 1.719320 1_565
O45 V7 1.935356 1_555
O46 V1 1.719320 1_555
O46 V9 1.935356 1_554
O47 V0 1.719320 1_555
O47 V11 1.935356 1_554
