# generated using pymatgen
data_AlH6BrO4
_symmetry_space_group_name_H-M   'P 1'
_cell_length_a   5.24594196
_cell_length_b   7.54184915
_cell_length_c   8.17337578
_cell_angle_alpha   117.11499515
_cell_angle_beta   108.23296623
_cell_angle_gamma   90.99790437
_symmetry_Int_Tables_number   1
_chemical_formula_structural   AlH6BrO4
_chemical_formula_sum   'Al2 H12 Br2 O8'
_cell_volume   268.43819716
_cell_formula_units_Z   2
loop_
 _symmetry_equiv_pos_site_id
 _symmetry_equiv_pos_as_xyz
  1  'x, y, z'
loop_
 _atom_site_type_symbol
 _atom_site_label
 _atom_site_symmetry_multiplicity
 _atom_site_fract_x
 _atom_site_fract_y
 _atom_site_fract_z
 _atom_site_occupancy
  Al  Al0  1  0.20068100  0.95068100  0.90136200  1
  Al  Al1  1  0.79931900  0.04931900  0.09863800  1
  H  H0  1  0.48491100  0.31515600  0.14420500  1
  H  H1  1  0.15929500  0.82904900  0.14420500  1
  H  H2  1  0.51508900  0.68484400  0.85579500  1
  H  H3  1  0.84070500  0.17095100  0.85579500  1
  H  H4  1  0.87469800  0.59885700  0.70913800  1
  H  H5  1  0.33443900  0.11028000  0.70913800  1
  H  H6  1  0.12530200  0.40114300  0.29086200  1
  H  H7  1  0.66556100  0.88972000  0.29086200  1
  H  H8  1  0.81836600  0.68944600  0.56473200  1
  H  H9  1  0.24636600  0.87528700  0.56473200  1
  H  H10  1  0.18163400  0.31055400  0.43526800  1
  H  H11  1  0.75363400  0.12471300  0.43526800  1
  Br  Br0  1  0.40877400  0.65877400  0.31754900  1
  Br  Br1  1  0.59122600  0.34122600  0.68245100  1
  O  O0  1  0.49432400  0.17252800  0.07530500  1
  O  O1  1  0.08098100  0.90277800  0.07530500  1
  O  O2  1  0.50567600  0.82747200  0.92469500  1
  O  O3  1  0.91901900  0.09722200  0.92469500  1
  O  O4  1  0.96333300  0.69029500  0.67730100  1
  O  O5  1  0.21396800  0.98700600  0.67730100  1
  O  O6  1  0.03666700  0.30970500  0.32269900  1
  O  O7  1  0.78603200  0.01299400  0.32269900  1
loop_
_geom_bond_atom_site_label_1
_geom_bond_atom_site_label_2
_geom_bond_distance
_geom_bond_site_symmetry_2
Al0 O3 1.866052 1_465
Al0 O2 1.866056 1_555
Al0 O1 1.888123 1_556
Al0 O0 1.888127 1_566
Al0 O4 1.992547 1_455
Al0 O5 1.992548 1_555
Al1 O1 1.866052 1_645
Al1 O0 1.866056 1_555
Al1 O3 1.888123 1_554
Al1 O2 1.888127 1_544
Al1 O6 1.992547 1_655
Al1 O7 1.992548 1_555
H0 O0 0.971453 1_555
H1 O1 0.971460 1_555
H2 O2 0.971453 1_555
H3 O3 0.971460 1_555
H4 O4 0.993780 1_555
H5 O5 0.993771 1_545
H6 O6 0.993780 1_555
H7 O7 0.993771 1_565
H8 O4 0.990718 1_555
H9 O5 0.990715 1_555
H10 O6 0.990718 1_555
H11 O7 0.990715 1_555
