# generated using pymatgen
data_LiMg6Ni
_symmetry_space_group_name_H-M   'P 1'
_cell_length_a   6.04750530
_cell_length_b   6.04750530
_cell_length_c   4.95641800
_cell_angle_alpha   90.00000000
_cell_angle_beta   90.00000000
_cell_angle_gamma   118.51042091
_symmetry_Int_Tables_number   1
_chemical_formula_structural   LiMg6Ni
_chemical_formula_sum   'Li1 Mg6 Ni1'
_cell_volume   159.28542901
_cell_formula_units_Z   1
loop_
 _symmetry_equiv_pos_site_id
 _symmetry_equiv_pos_as_xyz
  1  'x, y, z'
loop_
 _atom_site_type_symbol
 _atom_site_label
 _atom_site_symmetry_multiplicity
 _atom_site_fract_x
 _atom_site_fract_y
 _atom_site_fract_z
 _atom_site_occupancy
  Li  Li0  1  0.16994600  0.83005400  0.00000000  1
  Mg  Mg0  1  0.84424500  0.66662100  0.50000000  1
  Mg  Mg1  1  0.33337900  0.15575500  0.50000000  1
  Mg  Mg2  1  0.83559900  0.16440100  0.50000000  1
  Mg  Mg3  1  0.64295500  0.82811400  0.00000000  1
  Mg  Mg4  1  0.17188600  0.35704500  0.00000000  1
  Mg  Mg5  1  0.66382800  0.33617200  0.00000000  1
  Ni  Ni0  1  0.33816200  0.66183800  0.50000000  1
loop_
_geom_bond_atom_site_label_1
_geom_bond_atom_site_label_2
_geom_bond_distance
_geom_bond_site_symmetry_2
Li0 Mg3 2.866143 1_555
Li0 Mg4 2.866143 1_555
Li0 Mg0 3.023172 1_455
Li0 Mg0 3.023172 1_454
Li0 Mg1 3.023172 1_565
Li0 Mg1 3.023172 1_564
Li0 Ni0 3.033017 1_555
Li0 Ni0 3.033017 1_554
Li0 Mg5 3.092229 1_455
Li0 Mg5 3.092229 1_565
Li0 Mg3 3.181398 1_455
Li0 Mg4 3.181398 1_565
Mg0 Ni0 3.000880 1_655
Mg0 Mg2 3.012571 1_555
Mg0 Mg1 3.024389 1_665
Mg0 Mg2 3.035632 1_565
Mg0 Mg5 3.040403 1_556
Mg0 Mg5 3.040403 1_555
Mg0 Ni0 3.046839 1_555
Mg0 Mg3 3.116420 1_555
Mg0 Mg3 3.116420 1_556
Mg0 Mg1 3.158761 1_555
Mg1 Ni0 3.000880 1_545
Mg1 Mg2 3.012571 1_555
Mg1 Mg2 3.035632 1_455
Mg1 Mg5 3.040403 1_555
Mg1 Mg5 3.040403 1_556
Mg1 Ni0 3.046839 1_555
Mg1 Mg4 3.116420 1_555
Mg1 Mg4 3.116420 1_556
Mg2 Mg5 3.054472 1_555
Mg2 Mg5 3.054472 1_556
Mg2 Mg3 3.061518 1_545
Mg2 Mg3 3.061518 1_546
Mg2 Mg4 3.061518 1_656
Mg2 Mg4 3.061518 1_655
Mg2 Ni0 3.091690 1_545
Mg2 Ni0 3.091690 1_655
Mg3 Mg4 2.912690 1_555
Mg3 Ni0 2.963239 1_555
Mg3 Ni0 2.963239 1_554
Mg3 Mg5 3.014273 1_565
Mg3 Mg5 3.037300 1_555
Mg3 Mg4 3.270460 1_665
Mg4 Ni0 2.963239 1_555
Mg4 Ni0 2.963239 1_554
Mg4 Mg5 3.014273 1_455
Mg4 Mg5 3.037300 1_555
