# generated using pymatgen
data_Na3SmTi2Nb2O12
_symmetry_space_group_name_H-M   'P 1'
_cell_length_a   5.50534900
_cell_length_b   5.61044700
_cell_length_c   15.59311300
_cell_angle_alpha   90.00000000
_cell_angle_beta   90.00000000
_cell_angle_gamma   90.00000000
_symmetry_Int_Tables_number   1
_chemical_formula_structural   Na3SmTi2Nb2O12
_chemical_formula_sum   'Na6 Sm2 Ti4 Nb4 O24'
_cell_volume   481.63179099
_cell_formula_units_Z   2
loop_
 _symmetry_equiv_pos_site_id
 _symmetry_equiv_pos_as_xyz
  1  'x, y, z'
loop_
 _atom_site_type_symbol
 _atom_site_label
 _atom_site_symmetry_multiplicity
 _atom_site_fract_x
 _atom_site_fract_y
 _atom_site_fract_z
 _atom_site_occupancy
  Na  Na0  1  0.99939200  0.98462500  0.37215700  1
  Na  Na1  1  0.99939200  0.98462500  0.87784300  1
  Na  Na2  1  0.50060800  0.48462500  0.87784300  1
  Na  Na3  1  0.50060800  0.48462500  0.37215700  1
  Na  Na4  1  0.50523700  0.53033100  0.62500000  1
  Na  Na5  1  0.99476300  0.03033100  0.62500000  1
  Sm  Sm0  1  0.50956300  0.54989400  0.12500000  1
  Sm  Sm1  1  0.99043700  0.04989400  0.12500000  1
  Ti  Ti0  1  0.48984900  0.02027800  0.25302600  1
  Ti  Ti1  1  0.48984900  0.02027800  0.99697400  1
  Ti  Ti2  1  0.01015100  0.52027800  0.25302600  1
  Ti  Ti3  1  0.01015100  0.52027800  0.99697400  1
  Nb  Nb0  1  0.49569800  0.01857000  0.75184700  1
  Nb  Nb1  1  0.49569800  0.01857000  0.49815300  1
  Nb  Nb2  1  0.00430200  0.51857000  0.49815300  1
  Nb  Nb3  1  0.00430200  0.51857000  0.75184700  1
  O  O0  1  0.08199700  0.46775900  0.12500000  1
  O  O1  1  0.06759500  0.47801800  0.62500000  1
  O  O2  1  0.20698000  0.20276200  0.48041300  1
  O  O3  1  0.20672800  0.19680400  0.26031200  1
  O  O4  1  0.20698000  0.20276200  0.76958700  1
  O  O5  1  0.20672800  0.19680400  0.98968800  1
  O  O6  1  0.29327200  0.69680400  0.26031200  1
  O  O7  1  0.29302000  0.70276200  0.48041300  1
  O  O8  1  0.29302000  0.70276200  0.76958700  1
  O  O9  1  0.29327200  0.69680400  0.98968800  1
  O  O10  1  0.41800300  0.96775900  0.12500000  1
  O  O11  1  0.43240500  0.97801800  0.62500000  1
  O  O12  1  0.56774500  0.00829900  0.87878700  1
  O  O13  1  0.56774500  0.00829900  0.37121300  1
  O  O14  1  0.70995400  0.27154300  0.02816600  1
  O  O15  1  0.70995400  0.27154300  0.22183400  1
  O  O16  1  0.70785900  0.28411800  0.73396300  1
  O  O17  1  0.70785900  0.28411800  0.51603700  1
  O  O18  1  0.79004600  0.77154300  0.02816600  1
  O  O19  1  0.79004600  0.77154300  0.22183400  1
  O  O20  1  0.79214100  0.78411800  0.51603700  1
  O  O21  1  0.79214100  0.78411800  0.73396300  1
  O  O22  1  0.93225500  0.50829900  0.37121300  1
  O  O23  1  0.93225500  0.50829900  0.87878700  1
loop_
_geom_bond_atom_site_label_1
_geom_bond_atom_site_label_2
_geom_bond_distance
_geom_bond_site_symmetry_2
Na0 O2 2.377688 1_665
Na0 O13 2.380122 1_565
Na0 O3 2.400333 1_665
Na0 O22 2.697881 1_555
Na0 O20 2.756953 1_555
Na0 O7 2.821952 1_655
Na0 O19 2.872603 1_555
Na0 O6 2.875206 1_655
Na0 O22 2.961240 1_565
Na1 O4 2.377688 1_665
Na1 O12 2.380122 1_565
Na1 O5 2.400333 1_665
Na1 O23 2.697881 1_555
Na1 O21 2.756953 1_555
Na1 O8 2.821952 1_655
Na1 O18 2.872603 1_556
Na1 O9 2.875206 1_655
Na1 O23 2.961240 1_565
Na2 O8 2.377688 1_555
Na2 O23 2.380122 1_555
Na2 O9 2.400333 1_555
Na2 O12 2.697881 1_555
Na2 O16 2.756953 1_555
Na2 O4 2.821952 1_555
Na2 O14 2.872603 1_556
Na2 O5 2.875206 1_555
Na2 O12 2.961240 1_565
Na3 O7 2.377688 1_555
Na3 O22 2.380122 1_555
Na3 O6 2.400333 1_555
Na3 O13 2.697881 1_555
Na3 O17 2.756953 1_555
Na3 O2 2.821952 1_555
Na3 O15 2.872603 1_555
Na3 O3 2.875206 1_555
Na3 O13 2.961240 1_565
Na4 O1 2.427183 1_555
Na4 O16 2.457512 1_555
Na4 O17 2.457512 1_555
Na4 O11 2.543527 1_555
Na4 O8 2.717339 1_555
Na4 O7 2.717339 1_555
Na4 O21 2.721959 1_555
Na4 O20 2.721959 1_555
Na5 O11 2.427183 1_645
Na5 O21 2.457512 1_545
Na5 O20 2.457512 1_545
Na5 O1 2.543527 1_655
Na5 O4 2.717339 1_655
Na5 O2 2.717339 1_655
Na5 O16 2.721959 1_555
Na5 O17 2.721959 1_555
Nb0 O16 1.913549 1_555
Nb0 O4 1.915965 1_555
Nb0 O12 2.019562 1_555
Nb0 O11 2.021244 1_545
Nb0 O8 2.112089 1_545
Nb0 O21 2.114590 1_545
Nb1 O17 1.913549 1_555
Nb1 O2 1.915965 1_555
Nb1 O13 2.019562 1_555
Nb1 O11 2.021244 1_545
Nb1 O7 2.112089 1_545
Nb1 O20 2.114590 1_545
Nb2 O20 1.913549 1_455
Nb2 O7 1.915965 1_555
Nb2 O22 2.019562 1_455
Nb2 O1 2.021244 1_555
Nb2 O2 2.112089 1_555
Nb2 O17 2.114590 1_455
Nb3 O21 1.913549 1_455
Nb3 O8 1.915965 1_555
Nb3 O23 2.019562 1_455
Nb3 O1 2.021244 1_555
Nb3 O4 2.112089 1_555
Nb3 O16 2.114590 1_455
O0 Ti2 2.056351 1_555
O0 Ti3 2.056351 1_554
O0 Sm1 2.397987 1_455
O0 Sm0 2.398582 1_555
O3 Ti0 1.850206 1_555
O3 Ti2 2.116067 1_555
O3 Sm1 2.559118 1_455
O5 Ti1 1.850206 1_555
O5 Ti3 2.116067 1_555
O5 Sm1 2.559118 1_456
O6 Ti2 1.850206 1_555
O6 Ti0 2.116067 1_565
O6 Sm0 2.559118 1_555
O9 Ti3 1.850206 1_555
O9 Ti1 2.116067 1_565
O9 Sm0 2.559118 1_556
O10 Ti0 2.056351 1_565
O10 Ti1 2.056351 1_564
O10 Sm0 2.397987 1_555
O10 Sm1 2.398582 1_465
O12 Ti1 1.893335 1_555
O13 Ti0 1.893335 1_555
O14 Ti1 1.921509 1_554
O14 Ti3 2.217072 1_654
O14 Sm0 2.436361 1_555
O14 Sm1 2.492141 1_555
O15 Ti0 1.921509 1_555
O15 Ti2 2.217072 1_655
O15 Sm0 2.436361 1_555
O15 Sm1 2.492141 1_555
O18 Ti3 1.921509 1_654
O18 Ti1 2.217072 1_564
O18 Sm1 2.436361 1_565
O18 Sm0 2.492141 1_555
O19 Ti2 1.921509 1_655
O19 Ti0 2.217072 1_565
O19 Sm1 2.436361 1_565
O19 Sm0 2.492141 1_555
O22 Ti2 1.893335 1_655
O23 Ti3 1.893335 1_655
