# generated using pymatgen
data_HfSiW
_symmetry_space_group_name_H-M   'P 1'
_cell_length_a   3.49580126
_cell_length_b   6.91400873
_cell_length_c   8.15300933
_cell_angle_alpha   90.00000000
_cell_angle_beta   90.00000000
_cell_angle_gamma   90.00000000
_symmetry_Int_Tables_number   1
_chemical_formula_structural   HfSiW
_chemical_formula_sum   'Hf4 Si4 W4'
_cell_volume   197.05823901
_cell_formula_units_Z   4
loop_
 _symmetry_equiv_pos_site_id
 _symmetry_equiv_pos_as_xyz
  1  'x, y, z'
loop_
 _atom_site_type_symbol
 _atom_site_label
 _atom_site_symmetry_multiplicity
 _atom_site_fract_x
 _atom_site_fract_y
 _atom_site_fract_z
 _atom_site_occupancy
  Hf  Hf0  1  0.25000000  0.54212596  0.16667382  1
  Hf  Hf1  1  0.25000000  0.04212596  0.33332618  1
  Hf  Hf2  1  0.75000000  0.45787404  0.83332618  1
  Hf  Hf3  1  0.75000000  0.95787404  0.66667382  1
  Si  Si0  1  0.25000000  0.75609328  0.86013668  1
  Si  Si1  1  0.25000000  0.25609328  0.63986332  1
  Si  Si2  1  0.75000000  0.24390672  0.13986332  1
  Si  Si3  1  0.75000000  0.74390672  0.36013668  1
  W  W0  1  0.25000000  0.63341077  0.56071673  1
  W  W1  1  0.25000000  0.13341077  0.93928327  1
  W  W2  1  0.75000000  0.36658923  0.43928327  1
  W  W3  1  0.75000000  0.86658923  0.06071673  1
loop_
_geom_bond_atom_site_label_1
_geom_bond_atom_site_label_2
_geom_bond_distance
_geom_bond_site_symmetry_2
Hf0 Si2 2.711887 1_555
Hf0 Si2 2.711887 1_455
Hf0 Si3 2.736675 1_455
Hf0 Si3 2.736675 1_555
Hf0 Si0 2.904228 1_554
Hf0 W3 2.972206 1_555
Hf0 W3 2.972206 1_455
Hf0 W2 3.077016 1_555
Hf0 W2 3.077016 1_455
Hf1 Si3 2.711887 1_545
Hf1 Si3 2.711887 1_445
Hf1 Si2 2.736675 1_455
Hf1 Si2 2.736675 1_555
Hf1 Si1 2.904228 1_555
Hf1 W2 2.972206 1_555
Hf1 W2 2.972206 1_455
Hf1 W3 3.077016 1_445
Hf1 W3 3.077016 1_545
Hf2 Si0 2.711887 1_655
Hf2 Si0 2.711887 1_555
Hf2 Si1 2.736675 1_555
Hf2 Si1 2.736675 1_655
Hf2 Si2 2.904228 1_556
Hf2 W1 2.972206 1_655
Hf2 W1 2.972206 1_555
Hf2 W0 3.077016 1_555
Hf2 W0 3.077016 1_655
Hf3 Si1 2.711887 1_665
Hf3 Si1 2.711887 1_565
Hf3 Si0 2.736675 1_655
Hf3 Si0 2.736675 1_555
Hf3 Si3 2.904228 1_555
Hf3 W0 2.972206 1_555
Hf3 W0 2.972206 1_655
Hf3 W1 3.077016 1_665
Hf3 W1 3.077016 1_565
Si0 W3 2.512591 1_556
Si0 W3 2.512591 1_456
Si0 W0 2.584341 1_555
Si0 W1 2.687397 1_565
Si1 W2 2.512591 1_455
Si1 W2 2.512591 1_555
Si1 W1 2.584341 1_555
Si1 W0 2.687397 1_555
Si2 W1 2.512591 1_554
Si2 W1 2.512591 1_654
Si2 W2 2.584341 1_555
Si2 W3 2.687397 1_545
Si3 W0 2.512591 1_555
Si3 W0 2.512591 1_655
Si3 W3 2.584341 1_555
Si3 W2 2.687397 1_555
