# generated using pymatgen
data_Tb4(FeB2)3
_symmetry_space_group_name_H-M   'P 1'
_cell_length_a   5.33090598
_cell_length_b   5.33090600
_cell_length_c   7.95765529
_cell_angle_alpha   70.43022464
_cell_angle_beta   70.43022466
_cell_angle_gamma   59.99999989
_symmetry_Int_Tables_number   1
_chemical_formula_structural   Tb4(FeB2)3
_chemical_formula_sum   'Tb4 Fe3 B6'
_cell_volume   180.60562734
_cell_formula_units_Z   1
loop_
 _symmetry_equiv_pos_site_id
 _symmetry_equiv_pos_as_xyz
  1  'x, y, z'
loop_
 _atom_site_type_symbol
 _atom_site_label
 _atom_site_symmetry_multiplicity
 _atom_site_fract_x
 _atom_site_fract_y
 _atom_site_fract_z
 _atom_site_occupancy
  Tb  Tb0  1  0.74444000  0.74444000  0.76668100  1
  Tb  Tb1  1  0.25556000  0.25556000  0.23331900  1
  Tb  Tb2  1  0.58782100  0.58782100  0.23653800  1
  Tb  Tb3  1  0.41217900  0.41217900  0.76346200  1
  Fe  Fe0  1  0.00000000  0.00000000  0.00000000  1
  Fe  Fe1  1  0.88652400  0.88652400  0.34042700  1
  Fe  Fe2  1  0.11347600  0.11347600  0.65957300  1
  B  B0  1  0.50000000  0.16727300  0.50000000  1
  B  B1  1  0.83272700  0.50000000  0.50000000  1
  B  B2  1  0.16727200  0.83272800  0.50000000  1
  B  B3  1  0.16727200  0.50000000  0.50000000  1
  B  B4  1  0.83272700  0.16727200  0.50000000  1
  B  B5  1  0.50000000  0.83272800  0.50000000  1
loop_
_geom_bond_atom_site_label_1
_geom_bond_atom_site_label_2
_geom_bond_distance
_geom_bond_site_symmetry_2
Fe0 Fe1 2.498173 1_445
Fe0 Fe2 2.498173 1_554
Fe0 Tb1 3.521986 1_555
Fe0 Tb0 3.521986 1_444
Fe0 Tb1 3.521990 1_455
Fe0 Tb0 3.521990 1_544
Fe0 Tb1 3.521990 1_545
Fe0 Tb0 3.521990 1_454
Fe0 Tb2 3.533530 1_445
Fe0 Tb3 3.533530 1_554
Fe0 Tb3 3.533534 1_454
Fe0 Tb2 3.533534 1_545
Fe0 Tb3 3.533534 1_544
Fe0 Tb2 3.533534 1_455
B0 B4 1.773734 1_555
B0 B3 1.773739 1_555
B0 B5 1.783428 1_545
B0 Fe2 2.129462 1_555
B0 Fe1 2.129465 1_545
B0 Tb3 2.623753 1_555
B0 Tb2 2.623756 1_555
B0 Tb0 2.644469 1_545
B0 Tb1 2.644471 1_555
B1 B5 1.773739 1_555
B1 B4 1.773742 1_555
B1 B3 1.783428 1_655
B1 Fe1 2.129462 1_555
B1 Fe2 2.129465 1_655
B1 Tb2 2.623753 1_555
B1 Tb3 2.623756 1_555
B1 Tb1 2.644469 1_655
B1 Tb0 2.644471 1_555
B2 B5 1.773742 1_555
B2 B3 1.773742 1_555
B2 B4 1.783425 1_465
B2 Fe1 2.129465 1_455
B2 Fe2 2.129465 1_565
B2 Tb2 2.623758 1_555
B2 Tb3 2.623758 1_555
B2 Tb0 2.644466 1_455
B2 Tb1 2.644466 1_565
B3 Fe2 2.129460 1_555
B3 Fe1 2.129462 1_455
B3 Tb3 2.623756 1_555
B3 Tb2 2.623760 1_555
B3 Tb0 2.644468 1_455
B3 Tb1 2.644469 1_555
B4 Fe1 2.129462 1_545
B4 Fe2 2.129469 1_655
B4 Tb3 2.623756 1_555
B4 Tb2 2.623756 1_555
B4 Tb0 2.644464 1_545
B4 Tb1 2.644469 1_655
B5 Fe1 2.129460 1_555
B5 Fe2 2.129462 1_565
B5 Tb2 2.623756 1_555
B5 Tb3 2.623760 1_555
B5 Tb1 2.644468 1_565
B5 Tb0 2.644469 1_555
