# generated using pymatgen
data_CaMgZn
_symmetry_space_group_name_H-M   'P 1'
_cell_length_a   5.84729168
_cell_length_b   5.84729168
_cell_length_c   9.66685100
_cell_angle_alpha   90.00000000
_cell_angle_beta   90.00000000
_cell_angle_gamma   118.83482357
_symmetry_Int_Tables_number   1
_chemical_formula_structural   CaMgZn
_chemical_formula_sum   'Ca4 Mg4 Zn4'
_cell_volume   289.53791749
_cell_formula_units_Z   4
loop_
 _symmetry_equiv_pos_site_id
 _symmetry_equiv_pos_as_xyz
  1  'x, y, z'
loop_
 _atom_site_type_symbol
 _atom_site_label
 _atom_site_symmetry_multiplicity
 _atom_site_fract_x
 _atom_site_fract_y
 _atom_site_fract_z
 _atom_site_occupancy
  Ca  Ca0  1  0.33359800  0.66640200  0.19812700  1
  Ca  Ca1  1  0.66791100  0.33208900  0.32230900  1
  Ca  Ca2  1  0.66791100  0.33208900  0.67769100  1
  Ca  Ca3  1  0.33359800  0.66640200  0.80187300  1
  Mg  Mg0  1  0.99646600  0.00353400  0.26425500  1
  Mg  Mg1  1  0.99646600  0.00353400  0.73574500  1
  Mg  Mg2  1  0.83317600  0.65964400  0.00000000  1
  Mg  Mg3  1  0.34035600  0.16682400  0.00000000  1
  Zn  Zn0  1  0.82936800  0.17063200  0.00000000  1
  Zn  Zn1  1  0.17903800  0.35490300  0.50000000  1
  Zn  Zn2  1  0.64509700  0.82096200  0.50000000  1
  Zn  Zn3  1  0.17725300  0.82274700  0.50000000  1
loop_
_geom_bond_atom_site_label_1
_geom_bond_atom_site_label_2
_geom_bond_distance
_geom_bond_site_symmetry_2
Ca0 Zn3 3.315617 1_555
Ca0 Zn2 3.325992 1_555
Ca0 Zn1 3.325992 1_555
Ca0 Mg0 3.453859 1_465
Ca0 Mg0 3.456570 1_455
Ca0 Mg0 3.456570 1_565
Ca0 Mg3 3.481437 1_565
Ca0 Mg2 3.481437 1_455
Ca0 Mg2 3.509191 1_555
Ca0 Mg3 3.509191 1_555
Ca0 Zn0 3.538443 1_455
Ca0 Zn0 3.538443 1_565
Ca0 Ca1 3.573475 1_555
Ca0 Ca1 3.615825 1_565
Ca0 Ca1 3.615825 1_455
Ca0 Ca3 3.830528 1_554
Ca1 Mg0 3.355103 1_555
Ca1 Zn1 3.392293 1_555
Ca1 Zn2 3.392293 1_555
Ca1 Zn2 3.393544 1_545
Ca1 Zn1 3.393544 1_655
Ca1 Ca2 3.435425 1_555
Ca1 Zn3 3.436555 1_545
Ca1 Zn3 3.436555 1_655
Ca1 Mg0 3.484942 1_455
Ca1 Mg0 3.484942 1_565
Ca1 Zn0 3.514255 1_555
Ca1 Mg3 3.539014 1_555
Ca1 Mg2 3.539014 1_555
Ca2 Mg1 3.355103 1_555
Ca2 Zn1 3.392293 1_555
Ca2 Zn2 3.392293 1_555
Ca2 Zn2 3.393544 1_545
Ca2 Zn1 3.393544 1_655
Ca2 Zn3 3.436555 1_545
Ca2 Zn3 3.436555 1_655
Ca2 Mg1 3.484942 1_455
Ca2 Mg1 3.484942 1_565
Ca2 Zn0 3.514255 1_556
Ca2 Mg3 3.539014 1_556
Ca2 Mg2 3.539014 1_556
Ca2 Ca3 3.573475 1_555
Ca2 Ca3 3.615825 1_545
Ca2 Ca3 3.615825 1_655
Ca3 Zn3 3.315617 1_555
Ca3 Zn2 3.325992 1_555
Ca3 Zn1 3.325992 1_555
Ca3 Mg1 3.453859 1_465
Ca3 Mg1 3.456570 1_455
Ca3 Mg1 3.456570 1_565
Ca3 Mg3 3.481437 1_566
Ca3 Mg2 3.481437 1_456
Ca3 Mg2 3.509191 1_556
Ca3 Mg3 3.509191 1_556
Ca3 Zn0 3.538443 1_456
Ca3 Zn0 3.538443 1_566
Mg0 Zn1 2.904939 1_655
Mg0 Zn2 2.904939 1_545
Mg0 Zn3 2.916560 1_645
Mg0 Zn0 3.058712 1_555
Mg0 Mg2 3.103012 1_545
Mg0 Mg3 3.103012 1_655
Mg1 Zn1 2.904939 1_655
Mg1 Zn2 2.904939 1_545
Mg1 Zn3 2.916560 1_645
Mg1 Zn0 3.058712 1_556
Mg1 Mg3 3.103012 1_656
Mg1 Mg2 3.103012 1_546
Mg2 Zn0 2.848724 1_555
Mg2 Mg3 2.932263 1_555
Mg2 Zn0 2.998698 1_565
Mg2 Mg3 3.017705 1_665
Mg3 Zn0 2.848724 1_555
Mg3 Zn0 2.998698 1_455
Zn1 Zn3 2.740669 1_555
Zn1 Zn2 2.773036 1_555
Zn1 Zn3 3.106651 1_545
Zn2 Zn3 2.740669 1_555
Zn2 Zn3 3.106651 1_655
