# generated using pymatgen
data_LiInS2
_symmetry_space_group_name_H-M   'P 1'
_cell_length_a   6.52043193
_cell_length_b   6.93047068
_cell_length_c   8.08859815
_cell_angle_alpha   90.00000000
_cell_angle_beta   90.00000000
_cell_angle_gamma   90.00000000
_symmetry_Int_Tables_number   1
_chemical_formula_structural   LiInS2
_chemical_formula_sum   'Li4 In4 S8'
_cell_volume   365.52101897
_cell_formula_units_Z   4
loop_
 _symmetry_equiv_pos_site_id
 _symmetry_equiv_pos_as_xyz
  1  'x, y, z'
loop_
 _atom_site_type_symbol
 _atom_site_label
 _atom_site_symmetry_multiplicity
 _atom_site_fract_x
 _atom_site_fract_y
 _atom_site_fract_z
 _atom_site_occupancy
  Li  Li0  1  0.56682874  0.58532271  0.12237690  1
  Li  Li1  1  0.06682874  0.41467729  0.87762310  1
  Li  Li2  1  0.06682874  0.91467729  0.62237690  1
  Li  Li3  1  0.56682874  0.08532271  0.37762310  1
  In  In0  1  0.06420631  0.91870067  0.12560451  1
  In  In1  1  0.56420631  0.08129933  0.87439549  1
  In  In2  1  0.56420631  0.58129933  0.62560451  1
  In  In3  1  0.06420631  0.41870067  0.37439549  1
  S  S0  1  0.19205758  0.08301599  0.37662021  1
  S  S1  1  0.69205758  0.91698401  0.62337979  1
  S  S2  1  0.69205758  0.41698401  0.87662021  1
  S  S3  1  0.19205758  0.58301599  0.12337979  1
  S  S4  1  0.68410737  0.91948936  0.12831713  1
  S  S5  1  0.18410737  0.08051064  0.87168287  1
  S  S6  1  0.18410737  0.58051064  0.62831713  1
  S  S7  1  0.68410737  0.41948936  0.37168287  1
loop_
_geom_bond_atom_site_label_1
_geom_bond_atom_site_label_2
_geom_bond_distance
_geom_bond_site_symmetry_2
Li0 S4 2.439391 1_555
Li0 S3 2.443736 1_555
Li0 S7 2.443786 1_555
Li0 S2 2.445264 1_554
Li1 S5 2.439391 1_555
Li1 S2 2.443736 1_455
Li1 S6 2.443786 1_555
Li1 S3 2.445264 1_556
Li2 S6 2.439391 1_555
Li2 S1 2.443736 1_455
Li2 S5 2.443786 1_565
Li2 S0 2.445264 1_565
Li3 S7 2.439391 1_555
Li3 S0 2.443736 1_555
Li3 S4 2.443786 1_545
Li3 S1 2.445264 1_545
In0 S5 2.467222 1_564
In0 S3 2.471370 1_555
In0 S0 2.472685 1_565
In0 S4 2.478512 1_455
In1 S4 2.467222 1_546
In1 S2 2.471370 1_555
In1 S1 2.472685 1_545
In1 S5 2.478512 1_555
In2 S7 2.467222 1_555
In2 S1 2.471370 1_555
In2 S2 2.472685 1_555
In2 S6 2.478512 1_555
In3 S6 2.467222 1_555
In3 S0 2.471370 1_555
In3 S3 2.472685 1_555
In3 S7 2.478512 1_455
