# generated using pymatgen
data_Cr22WC6
_symmetry_space_group_name_H-M   'P 1'
_cell_length_a   7.49493731
_cell_length_b   7.49493731
_cell_length_c   7.49493731
_cell_angle_alpha   60.00000000
_cell_angle_beta   60.00000000
_cell_angle_gamma   60.00000000
_symmetry_Int_Tables_number   1
_chemical_formula_structural   Cr22WC6
_chemical_formula_sum   'Cr22 W1 C6'
_cell_volume   297.70697982
_cell_formula_units_Z   1
loop_
 _symmetry_equiv_pos_site_id
 _symmetry_equiv_pos_as_xyz
  1  'x, y, z'
loop_
 _atom_site_type_symbol
 _atom_site_label
 _atom_site_symmetry_multiplicity
 _atom_site_fract_x
 _atom_site_fract_y
 _atom_site_fract_z
 _atom_site_occupancy
  Cr  Cr0  1  0.75000000  0.75000000  0.75000000  1
  Cr  Cr1  1  0.25000000  0.25000000  0.25000000  1
  Cr  Cr2  1  0.61881500  0.61881500  0.14355500  1
  Cr  Cr3  1  0.61881500  0.14355500  0.61881500  1
  Cr  Cr4  1  0.14355500  0.61881500  0.61881500  1
  Cr  Cr5  1  0.61881500  0.61881500  0.61881500  1
  Cr  Cr6  1  0.38118500  0.38118500  0.85644500  1
  Cr  Cr7  1  0.38118500  0.85644500  0.38118500  1
  Cr  Cr8  1  0.85644500  0.38118500  0.38118500  1
  Cr  Cr9  1  0.38118500  0.38118500  0.38118500  1
  Cr  Cr10  1  0.00000000  0.00000000  0.34547800  1
  Cr  Cr11  1  0.65452200  0.00000000  0.34547800  1
  Cr  Cr12  1  0.00000000  0.65452200  0.34547800  1
  Cr  Cr13  1  0.65452200  0.34547800  0.00000000  1
  Cr  Cr14  1  0.00000000  0.34547800  0.00000000  1
  Cr  Cr15  1  0.00000000  0.34547800  0.65452200  1
  Cr  Cr16  1  0.34547800  0.65452200  0.00000000  1
  Cr  Cr17  1  0.34547800  0.00000000  0.65452200  1
  Cr  Cr18  1  0.34547800  0.00000000  0.00000000  1
  Cr  Cr19  1  0.00000000  0.00000000  0.65452200  1
  Cr  Cr20  1  0.00000000  0.65452200  0.00000000  1
  Cr  Cr21  1  0.65452200  0.00000000  0.00000000  1
  W  W0  1  0.00000000  0.00000000  0.00000000  1
  C  C0  1  0.72290400  0.72290400  0.27709600  1
  C  C1  1  0.27709600  0.72290400  0.27709600  1
  C  C2  1  0.72290400  0.27709600  0.27709600  1
  C  C3  1  0.27709600  0.27709600  0.72290400  1
  C  C4  1  0.72290400  0.27709600  0.72290400  1
  C  C5  1  0.27709600  0.72290400  0.72290400  1
loop_
_geom_bond_atom_site_label_1
_geom_bond_atom_site_label_2
_geom_bond_distance
_geom_bond_site_symmetry_2
Cr0 Cr5 2.408396 1_555
Cr0 Cr2 2.408396 1_556
Cr0 Cr3 2.408396 1_565
Cr0 Cr4 2.408396 1_655
Cr1 Cr9 2.408396 1_555
Cr1 Cr7 2.408396 1_545
Cr1 Cr8 2.408396 1_455
Cr1 Cr6 2.408396 1_554
Cr10 W0 2.589336 1_555
Cr11 W0 2.589336 1_655
Cr12 W0 2.589336 1_565
Cr13 W0 2.589336 1_655
Cr14 W0 2.589336 1_555
Cr15 W0 2.589336 1_556
Cr16 W0 2.589336 1_565
Cr17 W0 2.589336 1_556
Cr18 W0 2.589336 1_555
Cr19 W0 2.589336 1_556
Cr20 W0 2.589336 1_565
Cr21 W0 2.589336 1_655
C0 Cr7 2.095060 1_555
C0 Cr5 2.095060 1_555
C0 Cr8 2.095060 1_555
C0 Cr2 2.095060 1_555
C0 Cr12 2.139122 1_655
C0 Cr11 2.139122 1_565
C0 Cr20 2.139122 1_655
C0 Cr21 2.139122 1_565
C1 Cr7 2.095060 1_555
C1 Cr4 2.095060 1_555
C1 Cr2 2.095060 1_555
C1 Cr9 2.095060 1_555
C1 Cr10 2.139122 1_565
C1 Cr18 2.139122 1_565
C1 Cr16 2.139122 1_555
C1 Cr12 2.139122 1_555
C2 Cr8 2.095060 1_555
C2 Cr2 2.095060 1_555
C2 Cr9 2.095060 1_555
C2 Cr3 2.095060 1_555
C2 Cr10 2.139122 1_655
C2 Cr14 2.139122 1_655
C2 Cr13 2.139122 1_555
C2 Cr11 2.139122 1_555
C3 Cr4 2.095060 1_555
C3 Cr6 2.095060 1_555
C3 Cr9 2.095060 1_555
C3 Cr3 2.095060 1_555
C3 Cr14 2.139122 1_556
C3 Cr18 2.139122 1_556
C3 Cr15 2.139122 1_555
C3 Cr17 2.139122 1_555
C4 Cr6 2.095060 1_555
C4 Cr5 2.095060 1_555
C4 Cr8 2.095060 1_555
C4 Cr3 2.095060 1_555
C4 Cr15 2.139122 1_655
C4 Cr13 2.139122 1_556
C4 Cr21 2.139122 1_556
C4 Cr19 2.139122 1_655
C5 Cr7 2.095060 1_555
C5 Cr4 2.095060 1_555
C5 Cr6 2.095060 1_555
C5 Cr5 2.095060 1_555
C5 Cr16 2.139122 1_556
C5 Cr17 2.139122 1_565
C5 Cr20 2.139122 1_556
C5 Cr19 2.139122 1_565
