# generated using pymatgen
data_V7S8
_symmetry_space_group_name_H-M   'P 1'
_cell_length_a   6.81893518
_cell_length_b   6.38977578
_cell_length_c   6.81895038
_cell_angle_alpha   76.43571586
_cell_angle_beta   55.88085872
_cell_angle_gamma   103.51545346
_symmetry_Int_Tables_number   1
_chemical_formula_structural   V7S8
_chemical_formula_sum   'V7 S8'
_cell_volume   213.06374925
_cell_formula_units_Z   1
loop_
 _symmetry_equiv_pos_site_id
 _symmetry_equiv_pos_as_xyz
  1  'x, y, z'
loop_
 _atom_site_type_symbol
 _atom_site_label
 _atom_site_symmetry_multiplicity
 _atom_site_fract_x
 _atom_site_fract_y
 _atom_site_fract_z
 _atom_site_occupancy
  V  V0  1  0.00099000  0.00005600  0.99905700  1
  V  V1  1  0.49901000  0.99994400  0.50094300  1
  V  V2  1  0.99768300  0.50040100  0.99684600  1
  V  V3  1  0.50231700  0.49959900  0.50315400  1
  V  V4  1  0.25000000  0.00000000  0.25000000  1
  V  V5  1  0.75000000  0.00000000  0.75000000  1
  V  V6  1  0.25000000  0.50000000  0.25000000  1
  S  S0  1  0.29823300  0.33553200  0.95541600  1
  S  S1  1  0.79100900  0.33558900  0.46262300  1
  S  S2  1  0.29036700  0.83327000  0.95718300  1
  S  S3  1  0.79170900  0.82789700  0.46368300  1
  S  S4  1  0.70829100  0.17210300  0.03631700  1
  S  S5  1  0.20963300  0.16673000  0.54281700  1
  S  S6  1  0.70899100  0.66441100  0.03737700  1
  S  S7  1  0.20176700  0.66446800  0.54458400  1
loop_
_geom_bond_atom_site_label_1
_geom_bond_atom_site_label_2
_geom_bond_distance
_geom_bond_site_symmetry_2
S0 V3 2.352314 1_555
S0 V4 2.376756 1_556
S0 V6 2.378719 1_556
S0 V0 2.405236 1_555
S0 V2 2.426733 1_455
S1 V3 2.353665 1_555
S1 V5 2.377048 1_555
S1 V6 2.378984 1_655
S1 V1 2.406241 1_545
S1 V2 2.428737 1_554
S2 V0 2.367403 1_565
S2 V1 2.368399 1_555
S2 V6 2.390061 1_556
S2 V4 2.390800 1_566
S2 V5 2.391665 1_565
S2 V2 2.391808 1_455
S3 V3 2.360404 1_555
S3 V4 2.373231 1_665
S3 V5 2.373268 1_565
S3 V0 2.417383 1_664
S3 V1 2.417525 1_555
S4 V2 2.360404 1_554
S4 V4 2.373231 1_555
S4 V5 2.373268 1_554
S4 V1 2.417383 1_545
S4 V0 2.417525 1_654
S5 V1 2.367403 1_545
S5 V0 2.368399 1_555
S5 V6 2.390061 1_555
S5 V4 2.390800 1_555
S5 V5 2.391665 1_455
S5 V3 2.391808 1_555
S6 V2 2.353665 1_554
S6 V5 2.377048 1_564
S6 V6 2.378984 1_555
S6 V0 2.406241 1_664
S6 V3 2.428737 1_555
S7 V2 2.352314 1_455
S7 V4 2.376756 1_565
S7 V6 2.378719 1_555
S7 V1 2.405236 1_555
S7 V3 2.426733 1_555
