# generated using pymatgen
data_NdBiRu2O7
_symmetry_space_group_name_H-M   'P 1'
_cell_length_a   7.36630912
_cell_length_b   7.36630912
_cell_length_c   7.36630912
_cell_angle_alpha   120.39028030
_cell_angle_beta   119.52259622
_cell_angle_gamma   90.07710807
_symmetry_Int_Tables_number   1
_chemical_formula_structural   NdBiRu2O7
_chemical_formula_sum   'Nd2 Bi2 Ru4 O14'
_cell_volume   282.80636575
_cell_formula_units_Z   2
loop_
 _symmetry_equiv_pos_site_id
 _symmetry_equiv_pos_as_xyz
  1  'x, y, z'
loop_
 _atom_site_type_symbol
 _atom_site_label
 _atom_site_symmetry_multiplicity
 _atom_site_fract_x
 _atom_site_fract_y
 _atom_site_fract_z
 _atom_site_occupancy
  Nd  Nd0  1  0.50000000  0.50000000  0.00000000  1
  Nd  Nd1  1  0.00000000  0.50000000  0.50000000  1
  Bi  Bi0  1  0.50000000  0.50000000  0.50000000  1
  Bi  Bi1  1  0.50000000  0.00000000  0.00000000  1
  Ru  Ru0  1  0.00000000  0.00000000  0.50000000  1
  Ru  Ru1  1  0.00000000  0.50000000  0.00000000  1
  Ru  Ru2  1  0.00000000  0.00000000  0.00000000  1
  Ru  Ru3  1  0.50000000  0.00000000  0.50000000  1
  O  O0  1  0.62637400  0.37637400  0.25000000  1
  O  O1  1  0.37362600  0.62362600  0.75000000  1
  O  O2  1  0.32750000  0.07386900  0.65453300  1
  O  O3  1  0.91933700  0.07386900  0.24637000  1
  O  O4  1  0.92112500  0.67112500  0.25000000  1
  O  O5  1  0.91933700  0.67296700  0.84546700  1
  O  O6  1  0.32750000  0.67296700  0.25363000  1
  O  O7  1  0.32722800  0.07722800  0.25000000  1
  O  O8  1  0.67250000  0.92613100  0.34546700  1
  O  O9  1  0.08066300  0.92613100  0.75363000  1
  O  O10  1  0.07887500  0.32887500  0.75000000  1
  O  O11  1  0.08066300  0.32703300  0.15453300  1
  O  O12  1  0.67250000  0.32703300  0.74637000  1
  O  O13  1  0.67277200  0.92277200  0.75000000  1
loop_
_geom_bond_atom_site_label_1
_geom_bond_atom_site_label_2
_geom_bond_distance
_geom_bond_site_symmetry_2
Nd0 O0 2.257624 1_555
Nd0 O1 2.257624 1_554
Nd0 O4 2.571811 1_555
Nd0 O10 2.571811 1_554
Nd0 O12 2.581514 1_554
Nd0 O6 2.581514 1_555
Nd0 O8 2.581520 1_555
Nd0 O2 2.581520 1_554
Nd1 O1 2.257624 1_555
Nd1 O0 2.257624 1_455
Nd1 O4 2.571811 1_455
Nd1 O10 2.571811 1_555
Nd1 O11 2.581514 1_555
Nd1 O5 2.581514 1_455
Nd1 O9 2.581521 1_555
Nd1 O3 2.581521 1_455
Bi0 O0 2.254402 1_555
Bi0 O1 2.254402 1_555
Bi0 O13 2.566438 1_555
Bi0 O7 2.566438 1_555
Bi0 O11 2.569606 1_555
Bi0 O5 2.569606 1_555
Bi0 O6 2.569606 1_555
Bi0 O12 2.569606 1_555
Bi1 O1 2.254402 1_544
Bi1 O0 2.254402 1_555
Bi1 O13 2.566438 1_544
Bi1 O7 2.566438 1_555
Bi1 O8 2.569601 1_545
Bi1 O2 2.569601 1_554
Bi1 O9 2.569607 1_544
Bi1 O3 2.569607 1_555
O2 Ru3 2.001812 1_555
O2 Ru0 2.018707 1_555
O3 Ru2 2.001813 1_655
O3 Ru0 2.018702 1_655
O4 Ru0 2.006422 1_665
O4 Ru1 2.006422 1_655
O5 Ru2 2.001811 1_666
O5 Ru1 2.018707 1_656
O6 Ru3 2.001811 1_565
O6 Ru1 2.018707 1_555
O7 Ru2 2.021598 1_555
O7 Ru3 2.021598 1_555
O8 Ru3 2.001812 1_565
O8 Ru0 2.018707 1_665
O9 Ru2 2.001813 1_566
O9 Ru0 2.018702 1_565
O10 Ru0 2.006422 1_555
O10 Ru1 2.006422 1_556
O11 Ru2 2.001811 1_555
O11 Ru1 2.018707 1_555
O12 Ru3 2.001811 1_555
O12 Ru1 2.018707 1_656
O13 Ru3 2.021598 1_565
O13 Ru2 2.021598 1_666
