# generated using pymatgen
data_Yb2(NiB2)3
_symmetry_space_group_name_H-M   'P 1'
_cell_length_a   5.72425598
_cell_length_b   5.72425598
_cell_length_c   3.41565163
_cell_angle_alpha   90.00000000
_cell_angle_beta   90.00000000
_cell_angle_gamma   96.69505719
_symmetry_Int_Tables_number   1
_chemical_formula_structural   Yb2(NiB2)3
_chemical_formula_sum   'Yb2 Ni3 B6'
_cell_volume   111.15779881
_cell_formula_units_Z   1
loop_
 _symmetry_equiv_pos_site_id
 _symmetry_equiv_pos_as_xyz
  1  'x, y, z'
loop_
 _atom_site_type_symbol
 _atom_site_label
 _atom_site_symmetry_multiplicity
 _atom_site_fract_x
 _atom_site_fract_y
 _atom_site_fract_z
 _atom_site_occupancy
  Yb  Yb0  1  0.27572851  0.72427149  0.00000000  1
  Yb  Yb1  1  0.72427149  0.27572851  0.00000000  1
  Ni  Ni0  1  0.77334331  0.77334331  0.00000000  1
  Ni  Ni1  1  0.22665669  0.22665669  0.00000000  1
  Ni  Ni2  1  0.00000000  0.00000000  0.50000000  1
  B  B0  1  0.61255096  0.61255096  0.50000000  1
  B  B1  1  0.38744904  0.38744904  0.50000000  1
  B  B2  1  0.61628352  0.91672930  0.50000000  1
  B  B3  1  0.38371648  0.08327070  0.50000000  1
  B  B4  1  0.91672930  0.61628352  0.50000000  1
  B  B5  1  0.08327070  0.38371648  0.50000000  1
loop_
_geom_bond_atom_site_label_1
_geom_bond_atom_site_label_2
_geom_bond_distance
_geom_bond_site_symmetry_2
Ni0 Ni2 2.427111 1_665
Ni0 Ni2 2.427111 1_664
Ni0 Yb1 2.829513 1_555
Ni0 Yb0 2.829513 1_555
Ni0 Yb0 2.921880 1_655
Ni0 Yb1 2.921880 1_565
Ni1 Ni2 2.427111 1_555
Ni1 Ni2 2.427111 1_554
Ni1 Yb0 2.829513 1_555
Ni1 Yb1 2.829513 1_555
Ni1 Yb0 2.921880 1_545
Ni1 Yb1 2.921880 1_455
Ni2 Yb1 2.912018 1_455
Ni2 Yb0 2.912018 1_546
Ni2 Yb1 2.912018 1_456
Ni2 Yb0 2.912018 1_545
B0 B1 1.712756 1_555
B0 B4 1.738833 1_555
B0 B2 1.738833 1_555
B0 Ni0 2.100826 1_556
B0 Ni0 2.100826 1_555
B0 Yb1 2.707501 1_556
B0 Yb1 2.707501 1_555
B0 Yb0 2.707501 1_555
B0 Yb0 2.707501 1_556
B1 B5 1.738833 1_555
B1 B3 1.738833 1_555
B1 Ni1 2.100826 1_555
B1 Ni1 2.100826 1_556
B1 Yb1 2.707501 1_556
B1 Yb1 2.707501 1_555
B1 Yb0 2.707501 1_555
B1 Yb0 2.707501 1_556
B2 B3 1.725411 1_565
B2 Ni0 2.137919 1_555
B2 Ni0 2.137919 1_556
B2 Ni2 2.192637 1_665
B2 Yb1 2.688052 1_566
B2 Yb1 2.688052 1_565
B2 Yb0 2.725776 1_555
B2 Yb0 2.725776 1_556
B3 Ni1 2.137919 1_556
B3 Ni1 2.137919 1_555
B3 Ni2 2.192637 1_555
B3 Yb0 2.688052 1_545
B3 Yb0 2.688052 1_546
B3 Yb1 2.725776 1_556
B3 Yb1 2.725776 1_555
B4 B5 1.725411 1_655
B4 Ni0 2.137919 1_555
B4 Ni0 2.137919 1_556
B4 Ni2 2.192637 1_665
B4 Yb0 2.688052 1_655
B4 Yb0 2.688052 1_656
B4 Yb1 2.725776 1_556
B4 Yb1 2.725776 1_555
B5 Ni1 2.137919 1_556
B5 Ni1 2.137919 1_555
B5 Ni2 2.192637 1_555
B5 Yb1 2.688052 1_455
B5 Yb1 2.688052 1_456
B5 Yb0 2.725776 1_555
B5 Yb0 2.725776 1_556
