# generated using pymatgen
data_Cr3N4
_symmetry_space_group_name_H-M   'P 1'
_cell_length_a   5.78493957
_cell_length_b   5.78493957
_cell_length_c   5.78493957
_cell_angle_alpha   60.00000000
_cell_angle_beta   60.00000000
_cell_angle_gamma   60.00000000
_symmetry_Int_Tables_number   1
_chemical_formula_structural   Cr3N4
_chemical_formula_sum   'Cr6 N8'
_cell_volume   136.89307608
_cell_formula_units_Z   2
loop_
 _symmetry_equiv_pos_site_id
 _symmetry_equiv_pos_as_xyz
  1  'x, y, z'
loop_
 _atom_site_type_symbol
 _atom_site_label
 _atom_site_symmetry_multiplicity
 _atom_site_fract_x
 _atom_site_fract_y
 _atom_site_fract_z
 _atom_site_occupancy
  Cr  Cr0  1  0.50000000  0.50000000  0.50000000  1
  Cr  Cr1  1  0.75000000  0.75000000  0.75000000  1
  Cr  Cr2  1  0.12500000  0.62500000  0.12500000  1
  Cr  Cr3  1  0.62500000  0.12500000  0.12500000  1
  Cr  Cr4  1  0.12500000  0.12500000  0.12500000  1
  Cr  Cr5  1  0.12500000  0.12500000  0.62500000  1
  N  N0  1  0.37131400  0.88605800  0.37131400  1
  N  N1  1  0.88605800  0.37131400  0.37131400  1
  N  N2  1  0.37131400  0.37131400  0.37131400  1
  N  N3  1  0.37131400  0.37131400  0.88605800  1
  N  N4  1  0.87868600  0.36394200  0.87868600  1
  N  N5  1  0.36394200  0.87868600  0.87868600  1
  N  N6  1  0.87868600  0.87868600  0.87868600  1
  N  N7  1  0.87868600  0.87868600  0.36394200  1
loop_
_geom_bond_atom_site_label_1
_geom_bond_atom_site_label_2
_geom_bond_distance
_geom_bond_site_symmetry_2
Cr0 N3 1.823500 1_555
Cr0 N0 1.823500 1_555
Cr0 N1 1.823500 1_555
Cr0 N2 1.823500 1_555
Cr1 N6 1.823500 1_555
Cr1 N5 1.823500 1_555
Cr1 N7 1.823500 1_555
Cr1 N4 1.823500 1_555
Cr2 N1 2.015581 1_455
Cr2 N7 2.015581 1_455
Cr2 N2 2.015581 1_555
Cr2 N5 2.015581 1_554
Cr2 N3 2.015581 1_554
Cr2 N6 2.015581 1_454
Cr3 N4 2.015581 1_554
Cr3 N2 2.015581 1_555
Cr3 N7 2.015581 1_545
Cr3 N0 2.015581 1_545
Cr3 N3 2.015581 1_554
Cr3 N6 2.015581 1_544
Cr4 N1 2.015581 1_455
Cr4 N0 2.015581 1_545
Cr4 N3 2.015581 1_554
Cr4 N5 2.015581 1_544
Cr4 N4 2.015581 1_454
Cr4 N7 2.015581 1_445
Cr5 N1 2.015581 1_455
Cr5 N2 2.015581 1_555
Cr5 N4 2.015581 1_455
Cr5 N0 2.015581 1_545
Cr5 N5 2.015581 1_545
Cr5 N6 2.015581 1_445
