# generated using pymatgen
data_Eu(Mo3Se4)2
_symmetry_space_group_name_H-M   'P 1'
_cell_length_a   6.86067765
_cell_length_b   6.86067765
_cell_length_c   6.86067851
_cell_angle_alpha   88.84553974
_cell_angle_beta   88.84553974
_cell_angle_gamma   88.84553333
_symmetry_Int_Tables_number   1
_chemical_formula_structural   Eu(Mo3Se4)2
_chemical_formula_sum   'Eu1 Mo6 Se8'
_cell_volume   322.73052998
_cell_formula_units_Z   1
loop_
 _symmetry_equiv_pos_site_id
 _symmetry_equiv_pos_as_xyz
  1  'x, y, z'
loop_
 _atom_site_type_symbol
 _atom_site_label
 _atom_site_symmetry_multiplicity
 _atom_site_fract_x
 _atom_site_fract_y
 _atom_site_fract_z
 _atom_site_occupancy
  Eu  Eu0  1  0.00000000  0.00000000  0.00000000  1
  Mo  Mo0  1  0.76196100  0.57630500  0.43978500  1
  Mo  Mo1  1  0.43978500  0.76196100  0.57630500  1
  Mo  Mo2  1  0.57630500  0.43978500  0.76196100  1
  Mo  Mo3  1  0.23803900  0.42369500  0.56021500  1
  Mo  Mo4  1  0.56021500  0.23803900  0.42369500  1
  Mo  Mo5  1  0.42369500  0.56021500  0.23803900  1
  Se  Se0  1  0.75725100  0.75725100  0.75725100  1
  Se  Se1  1  0.24274900  0.24274900  0.24274900  1
  Se  Se2  1  0.24996100  0.62245800  0.87743800  1
  Se  Se3  1  0.87743800  0.24996100  0.62245800  1
  Se  Se4  1  0.62245800  0.87743800  0.24996100  1
  Se  Se5  1  0.75003900  0.37754200  0.12256200  1
  Se  Se6  1  0.12256200  0.75003900  0.37754200  1
  Se  Se7  1  0.37754200  0.12256200  0.75003900  1
loop_
_geom_bond_atom_site_label_1
_geom_bond_atom_site_label_2
_geom_bond_distance
_geom_bond_site_symmetry_2
Eu0 Se1 2.942141 1_555
Eu0 Se0 2.942141 1_444
Eu0 Se5 3.194950 1_455
Eu0 Se2 3.194950 1_544
Eu0 Se7 3.194950 1_554
Eu0 Se4 3.194950 1_445
Eu0 Se6 3.194950 1_545
Eu0 Se3 3.194950 1_454
Mo0 Se0 2.527938 1_555
Mo0 Se5 2.595005 1_555
Mo0 Se4 2.596621 1_555
Mo0 Se3 2.658316 1_555
Mo0 Se6 2.789142 1_655
Mo1 Se0 2.527938 1_555
Mo1 Se6 2.595005 1_555
Mo1 Se2 2.596622 1_555
Mo1 Se4 2.658316 1_555
Mo1 Se7 2.789142 1_565
Mo2 Se0 2.527938 1_555
Mo2 Se7 2.595005 1_555
Mo2 Se3 2.596621 1_555
Mo2 Se2 2.658316 1_555
Mo2 Se5 2.789143 1_556
Mo3 Se1 2.527938 1_555
Mo3 Se2 2.595005 1_555
Mo3 Se7 2.596621 1_555
Mo3 Se6 2.658316 1_555
Mo3 Se3 2.789142 1_455
Mo4 Se1 2.527938 1_555
Mo4 Se3 2.595005 1_555
Mo4 Se5 2.596622 1_555
Mo4 Se7 2.658316 1_555
Mo4 Se4 2.789142 1_545
Mo5 Se1 2.527938 1_555
Mo5 Se4 2.595005 1_555
Mo5 Se6 2.596621 1_555
Mo5 Se5 2.658316 1_555
Mo5 Se2 2.789143 1_554
