# generated using pymatgen
data_La2P3H7O11
_symmetry_space_group_name_H-M   'P 1'
_cell_length_a   8.34734406
_cell_length_b   8.59407877
_cell_length_c   9.38097318
_cell_angle_alpha   115.20114226
_cell_angle_beta   99.16552284
_cell_angle_gamma   105.92212084
_symmetry_Int_Tables_number   1
_chemical_formula_structural   La2P3H7O11
_chemical_formula_sum   'La4 P6 H14 O22'
_cell_volume   555.29367328
_cell_formula_units_Z   2
loop_
 _symmetry_equiv_pos_site_id
 _symmetry_equiv_pos_as_xyz
  1  'x, y, z'
loop_
 _atom_site_type_symbol
 _atom_site_label
 _atom_site_symmetry_multiplicity
 _atom_site_fract_x
 _atom_site_fract_y
 _atom_site_fract_z
 _atom_site_occupancy
  La  La0  1  0.40246500  0.20409900  0.64269400  1
  La  La1  1  0.17297600  0.23367000  0.00586500  1
  La  La2  1  0.82702400  0.76633000  0.99413500  1
  La  La3  1  0.59753500  0.79590100  0.35730600  1
  P  P0  1  0.00544100  0.16456600  0.34313200  1
  P  P1  1  0.99455900  0.83543400  0.65686800  1
  P  P2  1  0.83511300  0.27365600  0.73823500  1
  P  P3  1  0.16488700  0.72634400  0.26176500  1
  P  P4  1  0.61675500  0.39821700  0.10594300  1
  P  P5  1  0.38324500  0.60178300  0.89405700  1
  H  H0  1  0.67454400  0.40038900  0.53314600  1
  H  H1  1  0.53264600  0.38925200  0.39194300  1
  H  H2  1  0.73072300  0.33443100  0.17255800  1
  H  H3  1  0.60323400  0.89499900  0.78102300  1
  H  H4  1  0.94522900  0.31165600  0.40068600  1
  H  H5  1  0.32545600  0.59961100  0.46685400  1
  H  H6  1  0.36117600  0.93151600  0.05514900  1
  H  H7  1  0.46735400  0.61074700  0.60805700  1
  H  H8  1  0.03755300  0.71251200  0.34233300  1
  H  H9  1  0.96244700  0.28748800  0.65766700  1
  H  H10  1  0.63882400  0.06848400  0.94485100  1
  H  H11  1  0.26927700  0.66556900  0.82744200  1
  H  H12  1  0.05477100  0.68834400  0.59931400  1
  H  H13  1  0.39676600  0.10500100  0.21897700  1
  O  O0  1  0.49097200  0.43240100  0.21203900  1
  O  O1  1  0.97593200  0.87020700  0.82837600  1
  O  O2  1  0.21589500  0.55598200  0.22060200  1
  O  O3  1  0.91229400  0.25533900  0.88613400  1
  O  O4  1  0.33258500  0.90158700  0.39102400  1
  O  O5  1  0.51629600  0.24651400  0.92495400  1
  O  O6  1  0.81929600  0.76830300  0.52752900  1
  O  O7  1  0.64154300  0.94401700  0.90103500  1
  O  O8  1  0.44662000  0.67123000  0.54155500  1
  O  O9  1  0.35845700  0.05598300  0.09896500  1
  O  O10  1  0.78410500  0.44401800  0.77939800  1
  O  O11  1  0.55338000  0.32877000  0.45844500  1
  O  O12  1  0.27412800  0.41067200  0.86761000  1
  O  O13  1  0.14009200  0.01316500  0.68750100  1
  O  O14  1  0.72587200  0.58932800  0.13239000  1
  O  O15  1  0.48370400  0.75348600  0.07504600  1
  O  O16  1  0.50902800  0.56759900  0.78796100  1
  O  O17  1  0.08770600  0.74466100  0.11386600  1
  O  O18  1  0.66741500  0.09841300  0.60897600  1
  O  O19  1  0.85990800  0.98683500  0.31249900  1
  O  O20  1  0.02406800  0.12979300  0.17162400  1
  O  O21  1  0.18070400  0.23169700  0.47247100  1
loop_
_geom_bond_atom_site_label_1
_geom_bond_atom_site_label_2
_geom_bond_distance
_geom_bond_site_symmetry_2
La0 O21 2.377932 1_555
La0 O4 2.485031 1_545
La0 O5 2.496687 1_555
La0 O13 2.564124 1_555
La0 O16 2.621299 1_555
La0 O18 2.626147 1_555
La0 O11 2.693062 1_555
La0 O12 2.706438 1_555
La0 O10 2.981167 1_555
La1 O3 2.377618 1_454
La1 O20 2.439063 1_555
La1 O12 2.456276 1_554
La1 O2 2.516514 1_555
La1 O0 2.601487 1_555
La1 O1 2.667267 1_444
La1 O13 2.686966 1_554
La1 O9 2.737517 1_555
La2 O17 2.377618 1_656
La2 O1 2.439063 1_555
La2 O14 2.456276 1_556
La2 O10 2.516514 1_555
La2 O16 2.601487 1_555
La2 O20 2.667267 1_666
La2 O19 2.686966 1_556
La2 O7 2.737517 1_555
La3 O6 2.377932 1_555
La3 O18 2.485031 1_565
La3 O15 2.496687 1_555
La3 O19 2.564124 1_555
La3 O0 2.621299 1_555
La3 O4 2.626147 1_555
La3 O8 2.693062 1_555
La3 O14 2.706438 1_555
La3 O2 2.981167 1_555
H0 O11 0.978871 1_555
H1 O11 0.990169 1_555
H2 P4 1.408727 1_555
H3 O7 0.977100 1_555
H4 P0 1.412765 1_655
H5 O8 0.978871 1_555
H6 O9 0.977520 1_565
H7 O8 0.990176 1_555
H8 P3 1.406501 1_555
H9 P2 1.406501 1_555
H10 O7 0.977520 1_545
H11 P5 1.408727 1_555
H12 P1 1.412765 1_455
H13 O9 0.977100 1_555
O0 P4 1.559630 1_555
O1 P1 1.548488 1_555
O2 P3 1.544976 1_555
O3 P2 1.523713 1_555
O4 P3 1.563788 1_555
O5 P4 1.532050 1_556
O6 P1 1.523357 1_555
O10 P2 1.544976 1_555
O12 P5 1.532626 1_555
O13 P1 1.545423 1_445
O14 P4 1.532626 1_555
O15 P5 1.532050 1_554
O16 P5 1.559630 1_555
O17 P3 1.523713 1_555
O18 P2 1.563788 1_555
O19 P0 1.545423 1_665
O20 P0 1.548488 1_555
O21 P0 1.523357 1_555
