# generated using pymatgen
data_ErAgTe2
_symmetry_space_group_name_H-M   'P 1'
_cell_length_a   4.48963975
_cell_length_b   4.48963975
_cell_length_c   7.29218900
_cell_angle_alpha   90.00000000
_cell_angle_beta   90.00000000
_cell_angle_gamma   119.99999625
_symmetry_Int_Tables_number   1
_chemical_formula_structural   ErAgTe2
_chemical_formula_sum   'Er1 Ag1 Te2'
_cell_volume   127.29506069
_cell_formula_units_Z   1
loop_
 _symmetry_equiv_pos_site_id
 _symmetry_equiv_pos_as_xyz
  1  'x, y, z'
loop_
 _atom_site_type_symbol
 _atom_site_label
 _atom_site_symmetry_multiplicity
 _atom_site_fract_x
 _atom_site_fract_y
 _atom_site_fract_z
 _atom_site_occupancy
  Er  Er0  1  0.66666700  0.33333300  0.98640200  1
  Ag  Ag0  1  0.00000000  0.00000000  0.38511900  1
  Te  Te0  1  0.00000000  0.00000000  0.76774400  1
  Te  Te1  1  0.33333300  0.66666700  0.23073500  1
loop_
_geom_bond_atom_site_label_1
_geom_bond_atom_site_label_2
_geom_bond_distance
_geom_bond_site_symmetry_2
Er0 Te0 3.043248 1_655
Er0 Te0 3.043251 1_665
Er0 Te0 3.043251 1_555
Er0 Te1 3.145390 1_546
Er0 Te1 3.145390 1_656
Er0 Te1 3.145396 1_556
Ag0 Te0 2.790174 1_555
Ag0 Te1 2.826015 1_545
Ag0 Te1 2.826019 1_445
Ag0 Te1 2.826019 1_555
