# generated using pymatgen
data_MnCd4O5
_symmetry_space_group_name_H-M   'P 1'
_cell_length_a   3.28088853
_cell_length_b   13.66119586
_cell_length_c   11.44570346
_cell_angle_alpha   98.35374829
_cell_angle_beta   89.99997322
_cell_angle_gamma   89.99978699
_symmetry_Int_Tables_number   1
_chemical_formula_structural   MnCd4O5
_chemical_formula_sum   'Mn4 Cd16 O20'
_cell_volume   507.56325098
_cell_formula_units_Z   4
loop_
 _symmetry_equiv_pos_site_id
 _symmetry_equiv_pos_as_xyz
  1  'x, y, z'
loop_
 _atom_site_type_symbol
 _atom_site_label
 _atom_site_symmetry_multiplicity
 _atom_site_fract_x
 _atom_site_fract_y
 _atom_site_fract_z
 _atom_site_occupancy
  Mn  Mn0  1  0.49999539  0.99991108  0.75091961  1
  Mn  Mn1  1  0.00000255  0.00009357  0.49903536  1
  Mn  Mn2  1  0.49999372  0.99991006  0.25091794  1
  Mn  Mn3  1  0.99998661  0.00009327  0.99906257  1
  Cd  Cd0  1  -0.00000436  0.19289642  0.69625672  1
  Cd  Cd1  1  0.00002065  0.19289622  0.19626995  1
  Cd  Cd2  1  0.50000830  0.19354057  0.44668672  1
  Cd  Cd3  1  0.49999216  0.19353496  0.94669330  1
  Cd  Cd4  1  0.49999696  0.80712875  0.05371866  1
  Cd  Cd5  1  0.50000333  0.80713152  0.55371715  1
  Cd  Cd6  1  0.99999243  0.80645141  0.80331705  1
  Cd  Cd7  1  -0.00000246  0.80644736  0.30330960  1
  Cd  Cd8  1  0.00001040  0.39772667  0.89907101  1
  Cd  Cd9  1  0.00001075  0.39773544  0.39907082  1
  Cd  Cd10  1  0.50001423  0.39786546  0.64934645  1
  Cd  Cd11  1  0.49998940  0.39785982  0.14935103  1
  Cd  Cd12  1  0.50000468  0.60225636  0.85089097  1
  Cd  Cd13  1  0.50000242  0.60226100  0.35089219  1
  Cd  Cd14  1  0.00001026  0.60217236  0.60075727  1
  Cd  Cd15  1  0.00000390  0.60216125  0.10074924  1
  O  O0  1  0.00000585  0.50006156  0.75009271  1
  O  O1  1  0.00000205  0.50005649  0.25008799  1
  O  O2  1  0.50001566  0.49993133  0.49995521  1
  O  O3  1  0.50000421  0.49991781  0.99994773  1
  O  O4  1  0.49998277  0.91377303  0.90632551  1
  O  O5  1  0.49999894  0.91376562  0.40632011  1
  O  O6  1  0.00000167  0.91409948  0.65702488  1
  O  O7  1  0.99999032  0.91408781  0.15702218  1
  O  O8  1  0.99997527  0.08630975  0.84361421  1
  O  O9  1  0.99998339  0.08631432  0.34361495  1
  O  O10  1  0.50000138  0.08580314  0.59295945  1
  O  O11  1  0.49998252  0.08580344  0.09296900  1
  O  O12  1  -0.00000067  0.70597996  0.95214233  1
  O  O13  1  0.00000282  0.70598481  0.45214612  1
  O  O14  1  0.50000233  0.70571046  0.70189750  1
  O  O15  1  0.50000180  0.70569736  0.20188814  1
  O  O16  1  0.50000729  0.29399962  0.79786054  1
  O  O17  1  0.50000431  0.29400673  0.29786378  1
  O  O18  1  0.00001744  0.29431800  0.54811632  1
  O  O19  1  0.99999134  0.29430375  0.04811871  1
loop_
_geom_bond_atom_site_label_1
_geom_bond_atom_site_label_2
_geom_bond_distance
_geom_bond_site_symmetry_2
Mn0 O8 2.201305 1_565
Mn0 O8 2.201397 1_465
Mn0 O6 2.203215 1_555
Mn0 O6 2.203238 1_655
Mn0 O4 2.270862 1_555
Mn0 O10 2.293906 1_565
Mn1 O5 2.200984 1_545
Mn1 O5 2.201009 1_445
Mn1 O10 2.202721 1_455
Mn1 O10 2.202723 1_555
Mn1 O9 2.271718 1_455
Mn1 O6 2.295068 1_545
Mn2 O9 2.201376 1_565
Mn2 O9 2.201419 1_465
Mn2 O7 2.203287 1_555
Mn2 O7 2.203310 1_455
Mn2 O5 2.270880 1_555
Mn2 O11 2.293806 1_565
Mn3 O4 2.201035 1_645
Mn3 O4 2.201061 1_545
Mn3 O11 2.202637 1_656
Mn3 O11 2.202649 1_556
Mn3 O8 2.271956 1_555
Mn3 O7 2.294871 1_546
Cd0 O18 2.340365 1_555
Cd0 O16 2.341854 1_455
Cd0 O16 2.341916 1_555
Cd0 O8 2.382957 1_455
Cd0 O10 2.393052 1_455
Cd0 O10 2.393069 1_555
Cd1 O19 2.340332 1_455
Cd1 O17 2.341856 1_555
Cd1 O17 2.341923 1_455
Cd1 O9 2.382797 1_455
Cd1 O11 2.392984 1_555
Cd1 O11 2.393164 1_455
Cd2 O17 2.337638 1_555
Cd2 O18 2.338740 1_555
Cd2 O18 2.338790 1_655
Cd2 O10 2.384362 1_555
Cd2 O9 2.392937 1_555
Cd2 O9 2.393057 1_455
Cd3 O16 2.337715 1_555
Cd3 O19 2.338682 1_456
Cd3 O19 2.338686 1_556
Cd3 O11 2.384331 1_556
Cd3 O8 2.392981 1_555
Cd3 O8 2.393065 1_455
Cd4 O15 2.340729 1_555
Cd4 O12 2.342077 1_554
Cd4 O12 2.342080 1_654
Cd4 O4 2.383844 1_554
Cd4 O7 2.392090 1_555
Cd4 O7 2.392111 1_455
Cd5 O14 2.340731 1_555
Cd5 O13 2.342034 1_655
Cd5 O13 2.342044 1_555
Cd5 O5 2.383780 1_555
Cd5 O6 2.392185 1_555
Cd5 O6 2.392186 1_655
Cd6 O12 2.337710 1_655
Cd6 O14 2.338441 1_555
Cd6 O14 2.338479 1_655
Cd6 O6 2.383660 1_655
Cd6 O4 2.393391 1_655
Cd6 O4 2.393427 1_555
Cd7 O13 2.337730 1_555
Cd7 O15 2.338527 1_455
Cd7 O15 2.338539 1_555
Cd7 O7 2.383542 1_455
Cd7 O5 2.393386 1_455
Cd7 O5 2.393401 1_555
Cd8 O3 2.346214 1_555
Cd8 O3 2.346235 1_455
Cd8 O0 2.356841 1_555
Cd8 O16 2.358806 1_555
Cd8 O16 2.358828 1_455
Cd8 O19 2.367885 1_456
Cd9 O2 2.346279 1_455
Cd9 O2 2.346309 1_555
Cd9 O1 2.356751 1_555
Cd9 O17 2.358795 1_555
Cd9 O17 2.358832 1_455
Cd9 O18 2.367812 1_555
Cd10 O0 2.345639 1_655
Cd10 O0 2.345670 1_555
Cd10 O18 2.357607 1_555
Cd10 O18 2.357614 1_655
Cd10 O2 2.358107 1_555
Cd10 O16 2.367212 1_555
Cd11 O1 2.345583 1_555
Cd11 O1 2.345649 1_655
Cd11 O19 2.357682 1_455
Cd11 O19 2.357683 1_555
Cd11 O3 2.358144 1_554
Cd11 O17 2.367077 1_555
Cd12 O0 2.345885 1_655
Cd12 O0 2.345888 1_555
Cd12 O3 2.357603 1_555
Cd12 O12 2.358973 1_655
Cd12 O12 2.358989 1_555
Cd12 O14 2.367683 1_555
Cd13 O1 2.345979 1_655
Cd13 O1 2.345988 1_555
Cd13 O2 2.357576 1_555
Cd13 O13 2.358990 1_555
Cd13 O13 2.359000 1_655
Cd13 O15 2.367610 1_555
Cd14 O2 2.346227 1_455
Cd14 O2 2.346243 1_555
Cd14 O14 2.357113 1_555
Cd14 O14 2.357141 1_455
Cd14 O0 2.358017 1_555
Cd14 O13 2.367594 1_555
Cd15 O3 2.346246 1_554
Cd15 O3 2.346253 1_454
Cd15 O15 2.357106 1_555
Cd15 O15 2.357107 1_455
Cd15 O1 2.357990 1_555
Cd15 O12 2.367615 1_554
