# generated using pymatgen
data_ZrTiPd
_symmetry_space_group_name_H-M   'P 1'
_cell_length_a   5.36951210
_cell_length_b   5.48048527
_cell_length_c   8.69888400
_cell_angle_alpha   90.00000000
_cell_angle_beta   90.00000000
_cell_angle_gamma   120.66137672
_symmetry_Int_Tables_number   1
_chemical_formula_structural   ZrTiPd
_chemical_formula_sum   'Zr4 Ti4 Pd4'
_cell_volume   220.19878457
_cell_formula_units_Z   4
loop_
 _symmetry_equiv_pos_site_id
 _symmetry_equiv_pos_as_xyz
  1  'x, y, z'
loop_
 _atom_site_type_symbol
 _atom_site_label
 _atom_site_symmetry_multiplicity
 _atom_site_fract_x
 _atom_site_fract_y
 _atom_site_fract_z
 _atom_site_occupancy
  Zr  Zr0  1  0.64961900  0.32479700  0.56346000  1
  Zr  Zr1  1  0.32164400  0.66082200  0.44051600  1
  Zr  Zr2  1  0.32164400  0.66082200  0.05948400  1
  Zr  Zr3  1  0.64961900  0.32479700  0.93654000  1
  Ti  Ti0  1  0.69376400  0.84687300  0.75000000  1
  Ti  Ti1  1  0.82099600  0.65241000  0.25000000  1
  Ti  Ti2  1  0.82095100  0.16855700  0.25000000  1
  Ti  Ti3  1  0.34596900  0.17297600  0.25000000  1
  Pd  Pd0  1  0.98890400  0.99448900  0.49585000  1
  Pd  Pd1  1  0.98890400  0.99448900  0.00415000  1
  Pd  Pd2  1  0.19897200  0.35628000  0.75000000  1
  Pd  Pd3  1  0.19901500  0.84268800  0.75000000  1
loop_
_geom_bond_atom_site_label_1
_geom_bond_atom_site_label_2
_geom_bond_distance
_geom_bond_site_symmetry_2
Zr0 Zr3 3.245380 1_555
Zr0 Zr1 3.283051 1_655
Zr0 Zr1 3.308219 1_555
Zr0 Zr1 3.309187 1_545
Zr1 Zr2 3.314553 1_555
Zr2 Zr3 3.283051 1_454
Zr2 Zr3 3.308219 1_554
Zr2 Zr3 3.309187 1_564
Ti0 Zr3 3.191088 1_565
Ti0 Zr0 3.191088 1_565
Ti0 Zr0 3.191271 1_555
Ti0 Zr3 3.191271 1_555
Ti0 Zr1 3.194040 1_555
Ti0 Zr2 3.194040 1_556
Ti1 Ti3 2.564042 1_555
Ti1 Ti3 2.807661 1_665
Ti1 Zr3 3.133778 1_554
Ti1 Zr0 3.133778 1_555
Ti1 Zr1 3.138296 1_655
Ti1 Zr2 3.138296 1_655
Ti1 Zr2 3.172382 1_555
Ti1 Zr1 3.172382 1_555
Ti2 Ti3 2.562857 1_555
Ti2 Ti3 2.806817 1_655
Ti2 Zr0 3.133394 1_555
Ti2 Zr3 3.133394 1_554
Ti2 Zr2 3.139305 1_655
Ti2 Zr1 3.139305 1_655
Ti2 Zr2 3.173101 1_545
Ti2 Zr1 3.173101 1_545
Ti3 Zr3 3.066302 1_554
Ti3 Zr0 3.066302 1_555
Ti3 Zr1 3.204389 1_555
Ti3 Zr2 3.204389 1_555
Ti3 Zr2 3.204392 1_545
Ti3 Zr1 3.204392 1_545
Pd0 Ti0 2.597317 1_555
Pd0 Ti2 2.678530 1_565
Pd0 Ti1 2.679056 1_555
Pd0 Ti3 2.700674 1_665
Pd0 Pd3 2.794634 1_655
Pd0 Pd2 2.794711 1_665
Pd0 Zr0 3.107889 1_665
Pd0 Zr1 3.119326 1_555
Pd0 Zr1 3.178062 1_655
Pd0 Zr1 3.178854 1_665
Pd0 Zr0 3.210210 1_565
Pd0 Zr0 3.211825 1_555
Pd1 Ti0 2.597317 1_554
Pd1 Ti2 2.678530 1_565
Pd1 Ti1 2.679056 1_555
Pd1 Ti3 2.700674 1_665
Pd1 Pd3 2.794634 1_654
Pd1 Pd2 2.794711 1_664
Pd1 Zr3 3.107889 1_664
Pd1 Zr2 3.119326 1_555
Pd1 Zr2 3.178062 1_655
Pd1 Zr2 3.178854 1_665
Pd1 Zr3 3.210210 1_564
Pd1 Zr3 3.211825 1_554
Pd2 Ti0 2.646122 1_555
Pd2 Pd3 2.665634 1_555
Pd2 Ti0 2.725566 1_445
Pd2 Pd3 2.814851 1_545
Pd2 Zr3 2.990641 1_555
Pd2 Zr0 2.990641 1_555
Pd2 Zr1 3.057128 1_555
Pd2 Zr2 3.057128 1_556
Pd2 Zr3 3.293154 1_455
Pd2 Zr0 3.293154 1_455
Pd3 Ti0 2.644938 1_555
Pd3 Ti0 2.724719 1_455
Pd3 Zr0 2.991348 1_565
Pd3 Zr3 2.991348 1_565
Pd3 Zr1 3.056817 1_555
Pd3 Zr2 3.056817 1_556
Pd3 Zr3 3.294190 1_455
Pd3 Zr0 3.294190 1_455
