# generated using pymatgen
data_LiSm2OsO6
_symmetry_space_group_name_H-M   'P 1'
_cell_length_a   5.82385600
_cell_length_b   5.41668900
_cell_length_c   9.39443343
_cell_angle_alpha   55.52612457
_cell_angle_beta   90.00000000
_cell_angle_gamma   90.00000000
_symmetry_Int_Tables_number   1
_chemical_formula_structural   LiSm2OsO6
_chemical_formula_sum   'Li2 Sm4 Os2 O12'
_cell_volume   244.31203829
_cell_formula_units_Z   2
loop_
 _symmetry_equiv_pos_site_id
 _symmetry_equiv_pos_as_xyz
  1  'x, y, z'
loop_
 _atom_site_type_symbol
 _atom_site_label
 _atom_site_symmetry_multiplicity
 _atom_site_fract_x
 _atom_site_fract_y
 _atom_site_fract_z
 _atom_site_occupancy
  Li  Li0  1  0.00000000  0.00000000  0.00000000  1
  Li  Li1  1  0.50000000  0.00000000  0.50000000  1
  Sm  Sm0  1  0.07489100  0.77114300  0.74829000  1
  Sm  Sm1  1  0.57489200  0.22885700  0.75171000  1
  Sm  Sm2  1  0.42510900  0.77114300  0.24829000  1
  Sm  Sm3  1  0.92510900  0.22885700  0.25171000  1
  Os  Os0  1  0.50000000  0.50000000  0.00000000  1
  Os  Os1  1  0.00000000  0.50000000  0.50000000  1
  O  O0  1  0.29085900  0.26536500  0.55867000  1
  O  O1  1  0.79085900  0.73463500  0.94133000  1
  O  O2  1  0.70914100  0.73463500  0.44133000  1
  O  O3  1  0.20914100  0.26536500  0.05867000  1
  O  O4  1  0.03813400  0.63454300  0.25607100  1
  O  O5  1  0.53813400  0.36545700  0.24392900  1
  O  O6  1  0.31715100  0.85195600  0.94830500  1
  O  O7  1  0.81715100  0.14804400  0.55169500  1
  O  O8  1  0.68284900  0.14804400  0.05169500  1
  O  O9  1  0.18284900  0.85195600  0.44830500  1
  O  O10  1  0.46186600  0.63454300  0.75607100  1
  O  O11  1  0.96186600  0.36545700  0.74392900  1
loop_
_geom_bond_atom_site_label_1
_geom_bond_atom_site_label_2
_geom_bond_distance
_geom_bond_site_symmetry_2
Li0 O11 2.089043 1_454
Li0 O4 2.089043 1_545
Li0 O6 2.175165 1_544
Li0 O8 2.175165 1_455
Li0 O3 2.179525 1_555
Li0 O1 2.179525 1_444
Li1 O10 2.089043 1_545
Li1 O5 2.089043 1_555
Li1 O7 2.175165 1_555
Li1 O9 2.175165 1_545
Li1 O0 2.179525 1_555
Li1 O2 2.179525 1_545
O0 Os1 1.998860 1_555
O0 Sm1 2.378693 1_555
O0 Sm0 2.554066 1_545
O0 Sm2 2.752410 1_555
O1 Os0 1.998860 1_556
O1 Sm0 2.378689 1_655
O1 Sm1 2.554063 1_565
O1 Sm3 2.752410 1_556
O2 Os1 1.998860 1_655
O2 Sm2 2.378689 1_555
O2 Sm3 2.554066 1_565
O2 Sm1 2.752408 1_555
O3 Os0 1.998860 1_555
O3 Sm3 2.378689 1_455
O3 Sm2 2.554066 1_545
O3 Sm0 2.752410 1_554
O4 Os1 1.985235 1_555
O4 Sm3 2.316414 1_455
O4 Sm2 2.360233 1_555
O5 Os0 1.985235 1_555
O5 Sm2 2.316414 1_555
O5 Sm3 2.360233 1_555
O6 Os0 1.989023 1_556
O6 Sm1 2.358736 1_565
O6 Sm0 2.577617 1_555
O6 Sm2 2.670686 1_556
O7 Os1 1.989023 1_655
O7 Sm0 2.358732 1_645
O7 Sm1 2.577614 1_555
O7 Sm3 2.670686 1_555
O8 Os0 1.989023 1_555
O8 Sm2 2.358732 1_545
O8 Sm3 2.577617 1_555
O8 Sm1 2.670685 1_554
O9 Os1 1.989023 1_555
O9 Sm3 2.358732 1_465
O9 Sm2 2.577617 1_555
O9 Sm0 2.670686 1_555
O10 Os0 1.985235 1_556
O10 Sm1 2.316416 1_555
O10 Sm0 2.360233 1_555
O11 Os1 1.985235 1_655
O11 Sm0 2.316414 1_655
O11 Sm1 2.360227 1_555
