# generated using pymatgen
data_Nb3Pb3N5
_symmetry_space_group_name_H-M   'P 1'
_cell_length_a   6.38022584
_cell_length_b   7.95680505
_cell_length_c   9.24835502
_cell_angle_alpha   104.97785735
_cell_angle_beta   96.23365096
_cell_angle_gamma   104.06418794
_symmetry_Int_Tables_number   1
_chemical_formula_structural   Nb3Pb3N5
_chemical_formula_sum   'Nb6 Pb6 N10'
_cell_volume   432.53603512
_cell_formula_units_Z   2
loop_
 _symmetry_equiv_pos_site_id
 _symmetry_equiv_pos_as_xyz
  1  'x, y, z'
loop_
 _atom_site_type_symbol
 _atom_site_label
 _atom_site_symmetry_multiplicity
 _atom_site_fract_x
 _atom_site_fract_y
 _atom_site_fract_z
 _atom_site_occupancy
  Nb  Nb0  1  0.91809500  0.30100500  0.96074400  1
  Nb  Nb1  1  0.08190500  0.69899500  0.03925600  1
  Nb  Nb2  1  0.67119700  0.98471600  0.62218600  1
  Nb  Nb3  1  0.32880300  0.01528400  0.37781400  1
  Nb  Nb4  1  0.10059900  0.92422500  0.71279900  1
  Nb  Nb5  1  0.89940100  0.07577500  0.28720100  1
  Pb  Pb0  1  0.74679800  0.45440100  0.51203100  1
  Pb  Pb1  1  0.25320200  0.54559900  0.48796900  1
  Pb  Pb2  1  0.51785500  0.79237000  0.87460300  1
  Pb  Pb3  1  0.48214500  0.20763000  0.12539700  1
  Pb  Pb4  1  0.52583900  0.65082100  0.22096100  1
  Pb  Pb5  1  0.47416100  0.34917900  0.77903900  1
  N  N0  1  0.96562600  0.12918900  0.77013700  1
  N  N1  1  0.03437400  0.87081100  0.22986300  1
  N  N2  1  0.81754100  0.78742400  0.58342000  1
  N  N3  1  0.18245900  0.21257600  0.41658000  1
  N  N4  1  0.80030800  0.51835500  0.96294000  1
  N  N5  1  0.19969200  0.48164500  0.03706000  1
  N  N6  1  0.32315800  0.94990300  0.57103700  1
  N  N7  1  0.67684200  0.05009700  0.42896300  1
  N  N8  1  0.14730600  0.81744700  0.87943200  1
  N  N9  1  0.85269400  0.18255300  0.12056800  1
loop_
_geom_bond_atom_site_label_1
_geom_bond_atom_site_label_2
_geom_bond_distance
_geom_bond_site_symmetry_2
N0 Nb4 2.004301 1_645
N0 Nb0 2.034780 1_555
N0 Nb2 2.074077 1_545
N1 Nb5 2.004301 1_465
N1 Nb1 2.034780 1_555
N1 Nb3 2.074077 1_565
N2 Nb4 1.944267 1_655
N2 Nb2 1.989680 1_555
N2 Pb0 2.471999 1_555
N3 Nb5 1.944267 1_455
N3 Nb3 1.989680 1_555
N3 Pb1 2.471999 1_555
N4 Nb1 1.933177 1_656
N4 Nb0 2.042758 1_555
N4 Pb5 2.391947 1_555
N5 Nb0 1.933177 1_454
N5 Nb1 2.042758 1_555
N5 Pb4 2.391947 1_555
N6 Nb3 1.987630 1_565
N6 Nb4 2.044192 1_555
N6 Nb2 2.153282 1_555
N7 Nb2 1.987630 1_545
N7 Nb5 2.044192 1_555
N7 Nb3 2.153282 1_555
N8 Nb4 1.971211 1_555
N8 Nb1 1.977403 1_556
N8 Pb2 2.424619 1_555
N9 Nb5 1.971211 1_555
N9 Nb0 1.977403 1_554
N9 Pb3 2.424619 1_555
