# generated using pymatgen
data_Tb2Fe17
_symmetry_space_group_name_H-M   'P 1'
_cell_length_a   8.24966400
_cell_length_b   8.47918515
_cell_length_c   8.47918515
_cell_angle_alpha   119.97090323
_cell_angle_beta   90.00000000
_cell_angle_gamma   90.00000000
_symmetry_Int_Tables_number   1
_chemical_formula_structural   Tb2Fe17
_chemical_formula_sum   'Tb4 Fe34'
_cell_volume   513.80980662
_cell_formula_units_Z   2
loop_
 _symmetry_equiv_pos_site_id
 _symmetry_equiv_pos_as_xyz
  1  'x, y, z'
loop_
 _atom_site_type_symbol
 _atom_site_label
 _atom_site_symmetry_multiplicity
 _atom_site_fract_x
 _atom_site_fract_y
 _atom_site_fract_z
 _atom_site_occupancy
  Tb  Tb0  1  0.75000000  0.00002300  0.99997700  1
  Tb  Tb1  1  0.25000000  0.99997700  0.00002300  1
  Tb  Tb2  1  0.25000000  0.66659700  0.33340300  1
  Tb  Tb3  1  0.75000000  0.33340300  0.66659700  1
  Fe  Fe0  1  0.60676800  0.66666200  0.33333800  1
  Fe  Fe1  1  0.39323200  0.33333800  0.66666200  1
  Fe  Fe2  1  0.10676800  0.33333800  0.66666200  1
  Fe  Fe3  1  0.89323200  0.66666200  0.33333800  1
  Fe  Fe4  1  0.50000000  0.50000000  0.00000000  1
  Fe  Fe5  1  0.50000000  0.50000000  0.50000000  1
  Fe  Fe6  1  0.50000000  0.00000000  0.50000000  1
  Fe  Fe7  1  0.00000000  0.50000000  0.00000000  1
  Fe  Fe8  1  0.00000000  0.50000000  0.50000000  1
  Fe  Fe9  1  0.00000000  0.00000000  0.50000000  1
  Fe  Fe10  1  0.75000000  0.67011200  0.03857700  1
  Fe  Fe11  1  0.75000000  0.36850200  0.32999300  1
  Fe  Fe12  1  0.75000000  0.96142000  0.63151400  1
  Fe  Fe13  1  0.75000000  0.36848600  0.03858000  1
  Fe  Fe14  1  0.75000000  0.96142300  0.32988800  1
  Fe  Fe15  1  0.75000000  0.67000600  0.63149800  1
  Fe  Fe16  1  0.25000000  0.32988800  0.96142300  1
  Fe  Fe17  1  0.25000000  0.63149800  0.67000600  1
  Fe  Fe18  1  0.25000000  0.03858000  0.36848600  1
  Fe  Fe19  1  0.25000000  0.63151400  0.96142000  1
  Fe  Fe20  1  0.25000000  0.03857700  0.67011200  1
  Fe  Fe21  1  0.25000000  0.32999300  0.36850200  1
  Fe  Fe22  1  0.48544400  0.83378900  0.66776100  1
  Fe  Fe23  1  0.48539100  0.83388000  0.16612000  1
  Fe  Fe24  1  0.48544400  0.33223900  0.16621100  1
  Fe  Fe25  1  0.51455600  0.16621100  0.33223900  1
  Fe  Fe26  1  0.51460900  0.16612000  0.83388000  1
  Fe  Fe27  1  0.51455600  0.66776100  0.83378900  1
  Fe  Fe28  1  0.98544400  0.16621100  0.33223900  1
  Fe  Fe29  1  0.98539100  0.16612000  0.83388000  1
  Fe  Fe30  1  0.98544400  0.66776100  0.83378900  1
  Fe  Fe31  1  0.01455600  0.83378900  0.66776100  1
  Fe  Fe32  1  0.01460900  0.83388000  0.16612000  1
  Fe  Fe33  1  0.01455600  0.33223900  0.16621100  1
loop_
_geom_bond_atom_site_label_1
_geom_bond_atom_site_label_2
_geom_bond_distance
_geom_bond_site_symmetry_2
Fe0 Fe3 2.363232 1_555
Fe0 Fe5 2.600980 1_555
Fe0 Fe4 2.602090 1_555
Fe0 Fe6 2.602090 1_565
Fe0 Fe23 2.651784 1_555
Fe0 Fe24 2.652531 1_555
Fe0 Fe22 2.652531 1_555
Fe0 Fe10 2.777911 1_555
Fe0 Fe14 2.777911 1_555
Fe0 Fe11 2.777938 1_555
Fe0 Fe15 2.777942 1_555
Fe0 Fe13 2.778775 1_555
Fe0 Fe12 2.778775 1_555
Fe0 Tb2 2.943216 1_555
Fe1 Fe2 2.363232 1_555
Fe1 Fe5 2.600980 1_555
Fe1 Fe6 2.602090 1_555
Fe1 Fe4 2.602090 1_556
Fe1 Fe26 2.651784 1_555
Fe1 Fe25 2.652531 1_555
Fe1 Fe27 2.652531 1_555
Fe1 Fe20 2.777911 1_555
Fe1 Fe16 2.777911 1_555
Fe1 Fe21 2.777938 1_555
Fe1 Fe17 2.777942 1_555
Fe1 Fe18 2.778775 1_555
Fe1 Fe19 2.778775 1_555
Fe1 Tb3 2.943216 1_555
Fe2 Fe8 2.600980 1_555
Fe2 Fe9 2.602090 1_555
Fe2 Fe7 2.602090 1_556
Fe2 Fe29 2.651784 1_455
Fe2 Fe28 2.652531 1_455
Fe2 Fe30 2.652531 1_455
Fe2 Fe20 2.777911 1_555
Fe2 Fe21 2.777938 1_555
Fe2 Tb3 2.943216 1_455
Fe3 Fe8 2.600980 1_655
Fe3 Fe7 2.602090 1_655
Fe3 Fe9 2.602090 1_665
Fe3 Fe32 2.651784 1_655
Fe3 Fe33 2.652531 1_655
Fe3 Fe31 2.652531 1_655
Fe3 Tb2 2.943216 1_655
Fe4 Tb2 3.201712 1_555
Fe4 Tb3 3.201712 1_554
Fe5 Tb2 3.199715 1_555
Fe5 Tb3 3.199715 1_555
Fe6 Tb3 3.201712 1_555
Fe6 Tb2 3.201712 1_545
Fe7 Tb2 3.201712 1_555
Fe7 Tb3 3.201712 1_454
Fe8 Tb2 3.199715 1_555
Fe8 Tb3 3.199715 1_455
Fe9 Tb2 3.201712 1_545
Fe9 Tb3 3.201712 1_455
Fe10 Fe4 2.443298 1_555
Fe10 Fe7 2.443298 1_655
Fe10 Fe14 2.471166 1_555
Fe10 Fe32 2.522422 1_655
Fe10 Fe23 2.522422 1_555
Fe10 Fe13 2.557555 1_555
Fe10 Fe27 2.598785 1_554
Fe10 Fe30 2.598785 1_554
Fe10 Fe3 2.777911 1_555
Fe10 Tb0 2.974425 1_564
Fe10 Tb3 3.017008 1_554
Fe11 Fe5 2.443130 1_555
Fe11 Fe8 2.443130 1_655
Fe11 Fe13 2.470877 1_555
Fe11 Fe33 2.521865 1_655
Fe11 Fe24 2.521865 1_555
Fe11 Fe15 2.557637 1_555
Fe11 Fe25 2.597650 1_555
Fe11 Fe28 2.597650 1_555
Fe11 Fe3 2.777938 1_555
Fe11 Tb0 2.976065 1_554
Fe11 Tb3 3.013850 1_555
Fe12 Fe9 2.443063 1_665
Fe12 Fe6 2.443063 1_565
Fe12 Fe15 2.470885 1_555
Fe12 Fe22 2.522152 1_555
Fe12 Fe31 2.522152 1_655
Fe12 Fe14 2.557555 1_555
Fe12 Fe29 2.598508 1_565
Fe12 Fe26 2.598508 1_565
Fe12 Fe3 2.778775 1_555
Fe12 Tb0 2.974296 1_565
Fe12 Tb3 3.016533 1_565
Fe13 Fe4 2.443063 1_555
Fe13 Fe7 2.443063 1_655
Fe13 Fe24 2.522152 1_555
Fe13 Fe33 2.522152 1_655
Fe13 Fe29 2.598508 1_554
Fe13 Fe26 2.598508 1_554
Fe13 Fe3 2.778775 1_555
Fe13 Tb0 2.974296 1_554
Fe13 Tb3 3.016533 1_554
Fe14 Fe6 2.443298 1_565
Fe14 Fe9 2.443298 1_665
Fe14 Fe32 2.522422 1_655
Fe14 Fe23 2.522422 1_555
Fe14 Fe28 2.598785 1_565
Fe14 Fe25 2.598785 1_565
Fe14 Fe3 2.777911 1_555
Fe14 Tb0 2.974425 1_564
Fe14 Tb3 3.017008 1_565
Fe15 Fe5 2.443126 1_555
Fe15 Fe8 2.443126 1_655
Fe15 Fe22 2.521869 1_555
Fe15 Fe31 2.521869 1_655
Fe15 Fe27 2.597648 1_555
Fe15 Fe30 2.597648 1_555
Fe15 Fe3 2.777942 1_555
Fe15 Tb0 2.976069 1_565
Fe15 Tb3 3.013841 1_555
Fe16 Fe4 2.443298 1_556
Fe16 Fe7 2.443298 1_556
Fe16 Fe20 2.471166 1_555
Fe16 Fe26 2.522422 1_555
Fe16 Fe29 2.522422 1_455
Fe16 Fe19 2.557555 1_555
Fe16 Fe24 2.598785 1_556
Fe16 Fe33 2.598785 1_556
Fe16 Fe2 2.777911 1_555
Fe16 Tb1 2.974425 1_546
Fe16 Tb2 3.017008 1_556
Fe17 Fe5 2.443126 1_555
Fe17 Fe8 2.443126 1_555
Fe17 Fe19 2.470885 1_555
Fe17 Fe27 2.521869 1_555
Fe17 Fe30 2.521869 1_455
Fe17 Fe21 2.557637 1_555
Fe17 Fe22 2.597648 1_555
Fe17 Fe31 2.597648 1_555
Fe17 Fe2 2.777942 1_555
Fe17 Tb1 2.976069 1_556
Fe17 Tb2 3.013841 1_555
Fe18 Fe6 2.443063 1_555
Fe18 Fe9 2.443063 1_555
Fe18 Fe21 2.470877 1_555
Fe18 Fe25 2.522152 1_555
Fe18 Fe28 2.522152 1_455
Fe18 Fe20 2.557555 1_555
Fe18 Fe23 2.598508 1_545
Fe18 Fe32 2.598508 1_545
Fe18 Fe2 2.778775 1_555
Fe18 Tb1 2.974296 1_545
Fe18 Tb2 3.016533 1_545
Fe19 Fe7 2.443063 1_556
Fe19 Fe4 2.443063 1_556
Fe19 Fe30 2.522152 1_455
Fe19 Fe27 2.522152 1_555
Fe19 Fe23 2.598508 1_556
Fe19 Fe32 2.598508 1_556
Fe19 Fe2 2.778775 1_555
Fe19 Tb1 2.974296 1_556
Fe19 Tb2 3.016533 1_556
Fe20 Fe6 2.443298 1_555
Fe20 Fe9 2.443298 1_555
Fe20 Fe26 2.522422 1_555
Fe20 Fe29 2.522422 1_455
Fe20 Fe31 2.598785 1_545
Fe20 Fe22 2.598785 1_545
Fe20 Tb1 2.974425 1_546
Fe20 Tb2 3.017008 1_545
Fe21 Fe8 2.443130 1_555
Fe21 Fe5 2.443130 1_555
Fe21 Fe28 2.521865 1_455
Fe21 Fe25 2.521865 1_555
Fe21 Fe24 2.597650 1_555
Fe21 Fe33 2.597650 1_555
Fe21 Tb1 2.976065 1_545
Fe21 Tb2 3.013850 1_555
Fe22 Fe27 2.449793 1_555
Fe22 Fe26 2.452914 1_565
Fe22 Fe5 2.454748 1_555
Fe22 Fe6 2.455008 1_565
Fe22 Tb1 3.119148 1_556
Fe22 Tb2 3.131209 1_555
Fe22 Tb0 3.273847 1_565
Fe23 Fe25 2.452914 1_565
Fe23 Fe27 2.452914 1_554
Fe23 Fe6 2.455429 1_565
Fe23 Fe4 2.455429 1_555
Fe23 Tb1 3.117645 1_555
Fe23 Tb2 3.131289 1_555
Fe23 Tb0 3.273721 1_564
Fe24 Fe25 2.449793 1_555
Fe24 Fe26 2.452914 1_554
Fe24 Fe5 2.454748 1_555
Fe24 Fe4 2.455008 1_555
Fe24 Tb1 3.119148 1_545
Fe24 Tb2 3.131209 1_555
Fe24 Tb0 3.273847 1_554
Fe25 Fe5 2.454748 1_555
Fe25 Fe6 2.455008 1_555
Fe25 Tb0 3.119148 1_554
Fe25 Tb3 3.131209 1_555
Fe25 Tb1 3.273847 1_545
Fe26 Fe4 2.455429 1_556
Fe26 Fe6 2.455429 1_555
Fe26 Tb0 3.117645 1_555
Fe26 Tb3 3.131289 1_555
Fe26 Tb1 3.273721 1_546
Fe27 Fe5 2.454748 1_555
Fe27 Fe4 2.455008 1_556
Fe27 Tb0 3.119148 1_565
Fe27 Tb3 3.131209 1_555
Fe27 Tb1 3.273847 1_556
Fe28 Fe33 2.449793 1_655
Fe28 Fe32 2.452914 1_645
Fe28 Fe8 2.454748 1_655
Fe28 Fe9 2.455008 1_655
Fe28 Tb0 3.119148 1_554
Fe28 Tb3 3.131209 1_555
Fe28 Tb1 3.273847 1_645
Fe29 Fe31 2.452914 1_645
Fe29 Fe33 2.452914 1_656
Fe29 Fe7 2.455429 1_656
Fe29 Fe9 2.455429 1_655
Fe29 Tb0 3.117645 1_555
Fe29 Tb3 3.131289 1_555
Fe29 Tb1 3.273721 1_646
Fe30 Fe31 2.449793 1_655
Fe30 Fe32 2.452914 1_656
Fe30 Fe8 2.454748 1_655
Fe30 Fe7 2.455008 1_656
Fe30 Tb0 3.119148 1_565
Fe30 Tb3 3.131209 1_555
Fe30 Tb1 3.273847 1_656
Fe31 Fe8 2.454748 1_555
Fe31 Fe9 2.455008 1_565
Fe31 Tb1 3.119148 1_556
Fe31 Tb2 3.131209 1_555
Fe31 Tb0 3.273847 1_465
Fe32 Fe9 2.455429 1_565
Fe32 Fe7 2.455429 1_555
Fe32 Tb1 3.117645 1_555
Fe32 Tb2 3.131289 1_555
Fe32 Tb0 3.273721 1_464
Fe33 Fe8 2.454748 1_555
Fe33 Fe7 2.455008 1_555
Fe33 Tb1 3.119148 1_545
Fe33 Tb2 3.131209 1_555
Fe33 Tb0 3.273847 1_454
