# generated using pymatgen
data_LiBrO
_symmetry_space_group_name_H-M   'P 1'
_cell_length_a   3.82632600
_cell_length_b   4.20347100
_cell_length_c   6.68211500
_cell_angle_alpha   90.00000000
_cell_angle_beta   90.00000000
_cell_angle_gamma   90.00000000
_symmetry_Int_Tables_number   1
_chemical_formula_structural   LiBrO
_chemical_formula_sum   'Li2 Br2 O2'
_cell_volume   107.47413787
_cell_formula_units_Z   2
loop_
 _symmetry_equiv_pos_site_id
 _symmetry_equiv_pos_as_xyz
  1  'x, y, z'
loop_
 _atom_site_type_symbol
 _atom_site_label
 _atom_site_symmetry_multiplicity
 _atom_site_fract_x
 _atom_site_fract_y
 _atom_site_fract_z
 _atom_site_occupancy
  Li  Li0  1  0.00000000  0.75878500  0.25000000  1
  Li  Li1  1  0.00000000  0.24121500  0.75000000  1
  Br  Br0  1  0.50000000  0.29414300  0.25000000  1
  Br  Br1  1  0.50000000  0.70585700  0.75000000  1
  O  O0  1  0.00000000  0.00000000  0.50000000  1
  O  O1  1  0.00000000  0.00000000  0.00000000  1
loop_
_geom_bond_atom_site_label_1
_geom_bond_atom_site_label_2
_geom_bond_distance
_geom_bond_site_symmetry_2
Li0 O0 1.954160 1_565
Li0 O1 1.954160 1_565
Li1 O1 1.954160 1_556
Li1 O0 1.954160 1_555
Br0 Li0 2.734013 1_555
Br0 Li0 2.734013 1_655
Br0 Li0 2.953696 1_645
Br0 Li0 2.953696 1_545
Br1 Li1 2.734013 1_655
Br1 Li1 2.734013 1_555
Br1 Li1 2.953696 1_565
Br1 Li1 2.953696 1_665
