# generated using pymatgen
data_Sr(MgBi)2
_symmetry_space_group_name_H-M   'P 1'
_cell_length_a   4.82971329
_cell_length_b   4.82971329
_cell_length_c   7.98288813
_cell_angle_alpha   90.00000000
_cell_angle_beta   90.00000000
_cell_angle_gamma   119.99999658
_symmetry_Int_Tables_number   1
_chemical_formula_structural   Sr(MgBi)2
_chemical_formula_sum   'Sr1 Mg2 Bi2'
_cell_volume   161.26250074
_cell_formula_units_Z   1
loop_
 _symmetry_equiv_pos_site_id
 _symmetry_equiv_pos_as_xyz
  1  'x, y, z'
loop_
 _atom_site_type_symbol
 _atom_site_label
 _atom_site_symmetry_multiplicity
 _atom_site_fract_x
 _atom_site_fract_y
 _atom_site_fract_z
 _atom_site_occupancy
  Sr  Sr0  1  0.00000000  0.00000000  0.00000000  1
  Mg  Mg0  1  0.66666700  0.33333300  0.37504416  1
  Mg  Mg1  1  0.33333300  0.66666700  0.62495584  1
  Bi  Bi0  1  0.66666700  0.33333300  0.74673486  1
  Bi  Bi1  1  0.33333300  0.66666700  0.25326514  1
loop_
_geom_bond_atom_site_label_1
_geom_bond_atom_site_label_2
_geom_bond_distance
_geom_bond_site_symmetry_2
Bi0 Mg1 2.953038 1_545
Bi0 Mg1 2.953038 1_655
Bi0 Mg1 2.953046 1_555
Bi0 Mg0 2.967165 1_555
Bi0 Sr0 3.444268 1_656
Bi0 Sr0 3.444272 1_556
Bi0 Sr0 3.444272 1_666
Bi1 Mg0 2.953038 1_455
Bi1 Mg0 2.953038 1_565
Bi1 Mg0 2.953046 1_555
Bi1 Mg1 2.967165 1_555
Bi1 Sr0 3.444268 1_565
Bi1 Sr0 3.444272 1_555
Bi1 Sr0 3.444272 1_665
