# generated using pymatgen
data_ScAgSn
_symmetry_space_group_name_H-M   'P 1'
_cell_length_a   4.38823600
_cell_length_b   7.19768693
_cell_length_c   7.19768693
_cell_angle_alpha   120.00000856
_cell_angle_beta   90.00000000
_cell_angle_gamma   90.00000000
_symmetry_Int_Tables_number   1
_chemical_formula_structural   ScAgSn
_chemical_formula_sum   'Sc3 Ag3 Sn3'
_cell_volume   196.88221003
_cell_formula_units_Z   3
loop_
 _symmetry_equiv_pos_site_id
 _symmetry_equiv_pos_as_xyz
  1  'x, y, z'
loop_
 _atom_site_type_symbol
 _atom_site_label
 _atom_site_symmetry_multiplicity
 _atom_site_fract_x
 _atom_site_fract_y
 _atom_site_fract_z
 _atom_site_occupancy
  Sc  Sc0  1  0.00000000  0.43776900  0.43776900  1
  Sc  Sc1  1  0.00000000  0.00000000  0.56223100  1
  Sc  Sc2  1  0.00000000  0.56223100  0.00000000  1
  Ag  Ag0  1  0.50000000  0.75501800  0.75501800  1
  Ag  Ag1  1  0.50000000  0.00000000  0.24498200  1
  Ag  Ag2  1  0.50000000  0.24498200  0.00000000  1
  Sn  Sn0  1  0.50000000  0.66666700  0.33333300  1
  Sn  Sn1  1  0.50000000  0.33333300  0.66666700  1
  Sn  Sn2  1  0.00000000  0.00000000  0.00000000  1
loop_
_geom_bond_atom_site_label_1
_geom_bond_atom_site_label_2
_geom_bond_distance
_geom_bond_site_symmetry_2
Sc0 Sn1 3.054837 1_555
Sc0 Sn1 3.054837 1_455
Sc0 Sn0 3.054837 1_555
Sc0 Sn0 3.054837 1_455
Sc0 Sn2 3.150924 1_555
Sc0 Sc2 3.681517 1_556
Sc0 Sc1 3.681517 1_565
Sc0 Sc2 3.681517 1_555
Sc0 Sc1 3.681517 1_555
Sc1 Sn1 3.054832 1_555
Sc1 Sn1 3.054832 1_455
Sc1 Sn0 3.054833 1_445
Sc1 Sn0 3.054833 1_545
Sc1 Sn2 3.150924 1_556
Sc1 Sc2 3.681517 1_556
Sc1 Sc2 3.681517 1_545
Sc2 Sn0 3.054832 1_555
Sc2 Sn0 3.054832 1_455
Sc2 Sn1 3.054833 1_454
Sc2 Sn1 3.054833 1_554
Sc2 Sn2 3.150924 1_565
Ag0 Sn0 2.772444 1_555
Ag0 Sn1 2.772444 1_555
Ag0 Sn2 2.814852 1_566
Ag0 Sn2 2.814852 1_666
Ag0 Ag1 3.054131 1_566
Ag0 Ag2 3.054131 1_566
Ag0 Sc0 3.166755 1_555
Ag0 Sc0 3.166755 1_655
Ag0 Sc2 3.506520 1_556
Ag0 Sc1 3.506520 1_565
Ag0 Sc2 3.506520 1_656
Ag0 Sc1 3.506520 1_665
Ag1 Sn0 2.772437 1_545
Ag1 Sn1 2.772442 1_555
Ag1 Sn2 2.814852 1_555
Ag1 Sn2 2.814852 1_655
Ag1 Ag2 3.054132 1_555
Ag1 Sc1 3.166755 1_655
Ag1 Sc1 3.166755 1_555
Ag1 Sc2 3.506520 1_545
Ag1 Sc2 3.506520 1_645
Ag1 Sc0 3.506520 1_655
Ag1 Sc0 3.506520 1_555
Ag2 Sn1 2.772437 1_554
Ag2 Sn0 2.772442 1_555
Ag2 Sn2 2.814852 1_555
Ag2 Sn2 2.814852 1_655
Ag2 Sc2 3.166755 1_555
Ag2 Sc2 3.166755 1_655
Ag2 Sc1 3.506520 1_654
Ag2 Sc1 3.506520 1_554
Ag2 Sc0 3.506520 1_655
Ag2 Sc0 3.506520 1_555
