# generated using pymatgen
data_Li7Mn4CoO12
_symmetry_space_group_name_H-M   'P 1'
_cell_length_a   2.87405900
_cell_length_b   29.24750240
_cell_length_c   5.20916215
_cell_angle_alpha   87.18637122
_cell_angle_beta   90.00031128
_cell_angle_gamma   89.99910836
_symmetry_Int_Tables_number   1
_chemical_formula_structural   Li7Mn4CoO12
_chemical_formula_sum   'Li14 Mn8 Co2 O24'
_cell_volume   437.34934253
_cell_formula_units_Z   2
loop_
 _symmetry_equiv_pos_site_id
 _symmetry_equiv_pos_as_xyz
  1  'x, y, z'
loop_
 _atom_site_type_symbol
 _atom_site_label
 _atom_site_symmetry_multiplicity
 _atom_site_fract_x
 _atom_site_fract_y
 _atom_site_fract_z
 _atom_site_occupancy
  Li  Li0  1  0.00000100  0.08329400  0.66650500  1
  Li  Li1  1  0.00000200  0.58335400  0.66667700  1
  Li  Li2  1  0.50000200  0.33331600  0.16661400  1
  Li  Li3  1  0.50000100  0.83334100  0.16661200  1
  Li  Li4  1  0.50000100  0.08331900  0.16657300  1
  Li  Li5  1  0.50000100  0.58335000  0.16670000  1
  Li  Li6  1  0.50000400  0.00370000  0.49401100  1
  Li  Li7  1  0.50000300  0.50374000  0.49388300  1
  Li  Li8  1  0.49999800  0.16291600  0.83948700  1
  Li  Li9  1  0.50000000  0.66298200  0.83933000  1
  Li  Li10  1  0.00000000  0.24924200  0.99731200  1
  Li  Li11  1  0.99999400  0.74928200  0.99732200  1
  Li  Li12  1  0.00000200  0.41740100  0.33610000  1
  Li  Li13  1  0.00000800  0.91739700  0.33607900  1
  Mn  Mn0  1  0.00001500  0.50375000  0.02120700  1
  Mn  Mn1  1  0.00000600  0.16289500  0.31218400  1
  Mn  Mn2  1  0.49999700  0.24929200  0.49164600  1
  Mn  Mn3  1  0.49998100  0.41735600  0.84166600  1
  Mn  Mn4  1  0.99999700  0.00369200  0.02142300  1
  Mn  Mn5  1  0.00000100  0.66298500  0.31199300  1
  Mn  Mn6  1  0.49997100  0.74937100  0.49161700  1
  Mn  Mn7  1  0.49999300  0.91732000  0.84175300  1
  Co  Co0  1  0.00000200  0.33332600  0.66655500  1
  Co  Co1  1  0.00000200  0.83335100  0.66660300  1
  O  O0  1  0.50001500  0.46384500  0.16397200  1
  O  O1  1  0.50001300  0.96375900  0.16417400  1
  O  O2  1  0.49999200  0.20280300  0.16944300  1
  O  O3  1  0.49998900  0.70291300  0.16929300  1
  O  O4  1  0.99999700  0.03790400  0.30207700  1
  O  O5  1  0.00000500  0.53799100  0.30195000  1
  O  O6  1  0.00001600  0.12865700  0.03147300  1
  O  O7  1  0.00000000  0.62876500  0.03138000  1
  O  O8  1  0.50000600  0.12933900  0.48637900  1
  O  O9  1  0.50000600  0.62945000  0.48614300  1
  O  O10  1  0.49999600  0.03722500  0.84728400  1
  O  O11  1  0.49999000  0.53731300  0.84699900  1
  O  O12  1  0.00000600  0.20934000  0.62616200  1
  O  O13  1  0.99999500  0.70943400  0.62620800  1
  O  O14  1  0.99999400  0.45733100  0.70732900  1
  O  O15  1  0.00000800  0.95727200  0.70734700  1
  O  O16  1  0.00000400  0.37892200  0.99292500  1
  O  O17  1  0.00002300  0.87888300  0.99293300  1
  O  O18  1  0.99999400  0.28772100  0.34014300  1
  O  O19  1  0.99996800  0.78779300  0.34025200  1
  O  O20  1  0.50000000  0.29631900  0.81752600  1
  O  O21  1  0.49993800  0.79636700  0.81770700  1
  O  O22  1  0.50000100  0.37034100  0.51558100  1
  O  O23  1  0.50006300  0.87034000  0.51546900  1
loop_
_geom_bond_atom_site_label_1
_geom_bond_atom_site_label_2
_geom_bond_distance
_geom_bond_site_symmetry_2
Li0 O8 2.152883 1_455
Li0 O8 2.152937 1_555
Li0 O10 2.154687 1_555
Li0 O10 2.154741 1_455
Li0 O4 2.369299 1_455
Li0 O6 2.371158 1_556
Li1 O11 2.153212 1_555
Li1 O11 2.153293 1_455
Li1 O9 2.154648 1_455
Li1 O9 2.154698 1_555
Li1 O5 2.370117 1_555
Li1 O7 2.370854 1_556
Li2 O18 2.131199 1_555
Li2 O18 2.131264 1_455
Li2 O16 2.131733 1_554
Li2 O16 2.131775 1_654
Li2 O22 2.161110 1_555
Li2 O20 2.161212 1_554
Li3 O17 2.130542 1_554
Li3 O19 2.130547 1_555
Li3 O17 2.130662 1_654
Li3 O19 2.130709 1_455
Li3 O21 2.160021 1_554
Li3 O23 2.160201 1_555
Li4 O6 2.055932 1_555
Li4 O6 2.056026 1_655
Li4 O4 2.058023 1_555
Li4 O4 2.058074 1_455
Li4 O10 2.191786 1_554
Li4 O8 2.192502 1_555
Li5 O5 2.056599 1_655
Li5 O5 2.056617 1_555
Li5 O7 2.057735 1_555
Li5 O7 2.057766 1_655
Li5 O11 2.192394 1_554
Li5 O9 2.192534 1_555
Li6 O4 1.991796 1_455
Li6 O4 1.991797 1_555
Li6 O1 2.124572 1_545
Li6 O10 2.127232 1_555
Li6 O15 2.235118 1_645
Li6 O15 2.235138 1_545
Li7 O5 1.992432 1_555
Li7 O5 1.992470 1_655
Li7 O0 2.124101 1_555
Li7 O11 2.127213 1_555
Li7 O14 2.235038 1_555
Li7 O14 2.235106 1_455
Li8 O6 1.992673 1_556
Li8 O6 1.992717 1_656
Li8 O2 2.124159 1_556
Li8 O8 2.127235 1_555
Li8 O12 2.235001 1_555
Li8 O12 2.235065 1_655
Li9 O7 1.992252 1_656
Li9 O7 1.992282 1_556
Li9 O3 2.124948 1_556
Li9 O9 2.126937 1_555
Li9 O13 2.235008 1_455
Li9 O13 2.235025 1_555
Li10 O2 2.143390 1_556
Li10 O2 2.143456 1_456
Li10 O18 2.157122 1_456
Li10 O20 2.170550 1_455
Li10 O20 2.170586 1_555
Li10 O12 2.306825 1_555
Li11 O3 2.141818 1_656
Li11 O3 2.141872 1_556
Li11 O19 2.158089 1_556
Li11 O21 2.170266 1_655
Li11 O21 2.170444 1_555
Li11 O13 2.305800 1_555
Li12 O0 2.143464 1_455
Li12 O0 2.143549 1_555
Li12 O16 2.158652 1_554
Li12 O22 2.169608 1_555
Li12 O22 2.169647 1_455
Li12 O14 2.307628 1_455
Li13 O1 2.141560 1_455
Li13 O1 2.141614 1_555
Li13 O17 2.159099 1_554
Li13 O23 2.169297 1_455
Li13 O23 2.169471 1_555
Li13 O15 2.306924 1_555
Mn0 O5 1.812576 1_555
Mn0 O11 1.940250 1_554
Mn0 O11 1.940327 1_454
Mn0 O0 1.973580 1_555
Mn0 O0 1.973613 1_455
Mn0 O14 2.175885 1_454
Mn1 O6 1.812385 1_555
Mn1 O8 1.940145 1_555
Mn1 O8 1.940175 1_455
Mn1 O2 1.973590 1_555
Mn1 O2 1.973616 1_455
Mn1 O12 2.176795 1_555
Mn2 O12 1.959858 1_555
Mn2 O12 1.959864 1_655
Mn2 O18 1.965717 1_455
Mn2 O18 1.965736 1_555
Mn2 O2 2.211300 1_555
Mn2 O20 2.236678 1_555
Mn3 O14 1.959901 1_455
Mn3 O14 1.959988 1_555
Mn3 O16 1.965301 1_555
Mn3 O16 1.965366 1_655
Mn3 O0 2.211723 1_556
Mn3 O22 2.237292 1_555
Mn4 O4 1.811687 1_555
Mn4 O10 1.939693 1_554
Mn4 O10 1.939719 1_654
Mn4 O1 1.974023 1_545
Mn4 O1 1.974058 1_645
Mn4 O15 2.176711 1_644
Mn5 O7 1.811648 1_555
Mn5 O9 1.939755 1_555
Mn5 O9 1.939764 1_455
Mn5 O3 1.973855 1_555
Mn5 O3 1.973873 1_455
Mn5 O13 2.177837 1_455
Mn6 O13 1.959701 1_455
Mn6 O13 1.959770 1_555
Mn6 O19 1.965336 1_455
Mn6 O19 1.965355 1_555
Mn6 O3 2.211206 1_555
Mn6 O21 2.236950 1_555
Mn7 O15 1.959625 1_555
Mn7 O15 1.959721 1_655
Mn7 O17 1.965181 1_555
Mn7 O17 1.965275 1_655
Mn7 O1 2.211243 1_556
Mn7 O23 2.237443 1_555
Co0 O20 1.942008 1_555
Co0 O20 1.942047 1_455
Co0 O22 1.942146 1_455
Co0 O22 1.942173 1_555
Co0 O16 2.211646 1_555
Co0 O18 2.211989 1_455
Co1 O21 1.941776 1_555
Co1 O23 1.941920 1_455
Co1 O21 1.942080 1_455
Co1 O23 1.942211 1_555
Co1 O17 2.210281 1_555
Co1 O19 2.210855 1_455
