# generated using pymatgen
data_CaCoP2O7
_symmetry_space_group_name_H-M   'P 1'
_cell_length_a   6.51933600
_cell_length_b   6.59127590
_cell_length_c   6.71795323
_cell_angle_alpha   113.72205552
_cell_angle_beta   87.24241620
_cell_angle_gamma   97.45140220
_symmetry_Int_Tables_number   1
_chemical_formula_structural   CaCoP2O7
_chemical_formula_sum   'Ca2 Co2 P4 O14'
_cell_volume   262.05016372
_cell_formula_units_Z   2
loop_
 _symmetry_equiv_pos_site_id
 _symmetry_equiv_pos_as_xyz
  1  'x, y, z'
loop_
 _atom_site_type_symbol
 _atom_site_label
 _atom_site_symmetry_multiplicity
 _atom_site_fract_x
 _atom_site_fract_y
 _atom_site_fract_z
 _atom_site_occupancy
  Ca  Ca0  1  0.14265100  0.27107800  0.82628500  1
  Ca  Ca1  1  0.85734900  0.72892200  0.17371500  1
  Co  Co0  1  0.35162700  0.09918300  0.22420400  1
  Co  Co1  1  0.64837300  0.90081700  0.77579600  1
  P  P0  1  0.85658900  0.22843000  0.24873600  1
  P  P1  1  0.14341100  0.77157000  0.75126400  1
  P  P2  1  0.37335900  0.64250900  0.33222300  1
  P  P3  1  0.62664100  0.35749100  0.66777700  1
  O  O0  1  0.22264600  0.61053500  0.52036600  1
  O  O1  1  0.77735400  0.38946500  0.47963400  1
  O  O2  1  0.02554800  0.10116800  0.28033300  1
  O  O3  1  0.97445200  0.89883200  0.71966700  1
  O  O4  1  0.41180600  0.25412000  0.56288600  1
  O  O5  1  0.58819400  0.74588000  0.43711400  1
  O  O6  1  0.62504300  0.59751600  0.83820300  1
  O  O7  1  0.37495700  0.40248400  0.16179700  1
  O  O8  1  0.06819400  0.61632700  0.86216200  1
  O  O9  1  0.93180600  0.38367300  0.13783800  1
  O  O10  1  0.32877200  0.94917300  0.86690500  1
  O  O11  1  0.67122800  0.05082700  0.13309500  1
  O  O12  1  0.72708700  0.20588700  0.74576800  1
  O  O13  1  0.27291300  0.79411300  0.25423200  1
loop_
_geom_bond_atom_site_label_1
_geom_bond_atom_site_label_2
_geom_bond_distance
_geom_bond_site_symmetry_2
Ca0 O8 2.303510 1_555
Ca0 O9 2.357719 1_456
Ca0 O3 2.387305 1_445
Ca0 O4 2.411559 1_555
Ca0 O7 2.557658 1_556
Ca0 O10 2.685913 1_545
Ca0 O12 2.732956 1_455
Ca1 O9 2.303510 1_555
Ca1 O8 2.357719 1_654
Ca1 O2 2.387305 1_665
Ca1 O5 2.411559 1_555
Ca1 O6 2.557658 1_554
Ca1 O11 2.685913 1_565
Ca1 O13 2.732956 1_655
Co0 O13 2.096694 1_545
Co0 O4 2.118026 1_555
Co0 O2 2.141862 1_555
Co0 O11 2.170281 1_555
Co0 O7 2.187425 1_555
Co0 O10 2.201814 1_544
Co1 O12 2.096694 1_565
Co1 O5 2.118026 1_555
Co1 O3 2.141862 1_555
Co1 O10 2.170281 1_555
Co1 O6 2.187425 1_555
Co1 O11 2.201814 1_566
O0 P1 1.593720 1_555
O0 P2 1.627413 1_555
O1 P0 1.593720 1_555
O1 P3 1.627413 1_555
O2 P0 1.538631 1_455
O3 P1 1.538631 1_655
O4 P3 1.543875 1_555
O5 P2 1.543875 1_555
O6 P3 1.536103 1_555
O7 P2 1.536103 1_555
O8 P1 1.513476 1_555
O9 P0 1.513476 1_555
O10 P1 1.557530 1_555
O11 P0 1.557530 1_555
O12 P3 1.525072 1_555
O13 P2 1.525072 1_555
