# generated using pymatgen
data_Rb3P11
_symmetry_space_group_name_H-M   'P 1'
_cell_length_a   11.46437953
_cell_length_b   11.46437953
_cell_length_c   82.15742696
_cell_angle_alpha   85.17338266
_cell_angle_beta   85.17338266
_cell_angle_gamma   34.20223917
_symmetry_Int_Tables_number   1
_chemical_formula_structural   Rb3P11
_chemical_formula_sum   'Rb48 P176'
_cell_volume   6046.22427810
_cell_formula_units_Z   16
loop_
 _symmetry_equiv_pos_site_id
 _symmetry_equiv_pos_as_xyz
  1  'x, y, z'
loop_
 _atom_site_type_symbol
 _atom_site_label
 _atom_site_symmetry_multiplicity
 _atom_site_fract_x
 _atom_site_fract_y
 _atom_site_fract_z
 _atom_site_occupancy
  Rb  Rb0_0  1  0.22375950  0.22375950  0.07227250  1
  Rb  Rb0_1  1  0.22375950  0.22375950  0.57227250  1
  Rb  Rb0_2  1  0.22375950  0.72375950  0.07227250  1
  Rb  Rb0_3  1  0.22375950  0.72375950  0.57227250  1
  Rb  Rb0_4  1  0.72375950  0.22375950  0.07227250  1
  Rb  Rb0_5  1  0.72375950  0.22375950  0.57227250  1
  Rb  Rb0_6  1  0.72375950  0.72375950  0.07227250  1
  Rb  Rb0_7  1  0.72375950  0.72375950  0.57227250  1
  Rb  Rb1_0  1  0.04866450  0.04866450  0.15356200  1
  Rb  Rb1_1  1  0.04866450  0.04866450  0.65356200  1
  Rb  Rb1_2  1  0.04866450  0.54866450  0.15356200  1
  Rb  Rb1_3  1  0.04866450  0.54866450  0.65356200  1
  Rb  Rb1_4  1  0.54866450  0.04866450  0.15356200  1
  Rb  Rb1_5  1  0.54866450  0.04866450  0.65356200  1
  Rb  Rb1_6  1  0.54866450  0.54866450  0.15356200  1
  Rb  Rb1_7  1  0.54866450  0.54866450  0.65356200  1
  Rb  Rb2_0  1  0.32718900  0.32718900  0.22478800  1
  Rb  Rb2_1  1  0.32718900  0.32718900  0.72478800  1
  Rb  Rb2_2  1  0.32718900  0.82718900  0.22478800  1
  Rb  Rb2_3  1  0.32718900  0.82718900  0.72478800  1
  Rb  Rb2_4  1  0.82718900  0.32718900  0.22478800  1
  Rb  Rb2_5  1  0.82718900  0.32718900  0.72478800  1
  Rb  Rb2_6  1  0.82718900  0.82718900  0.22478800  1
  Rb  Rb2_7  1  0.82718900  0.82718900  0.72478800  1
  Rb  Rb3_0  1  0.17281100  0.17281100  0.27521200  1
  Rb  Rb3_1  1  0.17281100  0.17281100  0.77521200  1
  Rb  Rb3_2  1  0.17281100  0.67281100  0.27521200  1
  Rb  Rb3_3  1  0.17281100  0.67281100  0.77521200  1
  Rb  Rb3_4  1  0.67281100  0.17281100  0.27521200  1
  Rb  Rb3_5  1  0.67281100  0.17281100  0.77521200  1
  Rb  Rb3_6  1  0.67281100  0.67281100  0.27521200  1
  Rb  Rb3_7  1  0.67281100  0.67281100  0.77521200  1
  Rb  Rb4_0  1  0.45133550  0.45133550  0.34643800  1
  Rb  Rb4_1  1  0.45133550  0.45133550  0.84643800  1
  Rb  Rb4_2  1  0.45133550  0.95133550  0.34643800  1
  Rb  Rb4_3  1  0.45133550  0.95133550  0.84643800  1
  Rb  Rb4_4  1  0.95133550  0.45133550  0.34643800  1
  Rb  Rb4_5  1  0.95133550  0.45133550  0.84643800  1
  Rb  Rb4_6  1  0.95133550  0.95133550  0.34643800  1
  Rb  Rb4_7  1  0.95133550  0.95133550  0.84643800  1
  Rb  Rb5_0  1  0.27624050  0.27624050  0.42772750  1
  Rb  Rb5_1  1  0.27624050  0.27624050  0.92772750  1
  Rb  Rb5_2  1  0.27624050  0.77624050  0.42772750  1
  Rb  Rb5_3  1  0.27624050  0.77624050  0.92772750  1
  Rb  Rb5_4  1  0.77624050  0.27624050  0.42772750  1
  Rb  Rb5_5  1  0.77624050  0.27624050  0.92772750  1
  Rb  Rb5_6  1  0.77624050  0.77624050  0.42772750  1
  Rb  Rb5_7  1  0.77624050  0.77624050  0.92772750  1
  P  P0_0  1  0.43130300  0.43130300  0.48552250  1
  P  P0_1  1  0.43130300  0.43130300  0.98552250  1
  P  P0_2  1  0.43130300  0.93130300  0.48552250  1
  P  P0_3  1  0.43130300  0.93130300  0.98552250  1
  P  P0_4  1  0.93130300  0.43130300  0.48552250  1
  P  P0_5  1  0.93130300  0.43130300  0.98552250  1
  P  P0_6  1  0.93130300  0.93130300  0.48552250  1
  P  P0_7  1  0.93130300  0.93130300  0.98552250  1
  P  P1_0  1  0.24921100  0.24921100  0.01370300  1
  P  P1_1  1  0.24921100  0.24921100  0.51370300  1
  P  P1_2  1  0.24921100  0.74921100  0.01370300  1
  P  P1_3  1  0.24921100  0.74921100  0.51370300  1
  P  P1_4  1  0.74921100  0.24921100  0.01370300  1
  P  P1_5  1  0.74921100  0.24921100  0.51370300  1
  P  P1_6  1  0.74921100  0.74921100  0.01370300  1
  P  P1_7  1  0.74921100  0.74921100  0.51370300  1
  P  P2_0  1  0.06869700  0.06869700  0.01447750  1
  P  P2_1  1  0.06869700  0.06869700  0.51447750  1
  P  P2_2  1  0.06869700  0.56869700  0.01447750  1
  P  P2_3  1  0.06869700  0.56869700  0.51447750  1
  P  P2_4  1  0.56869700  0.06869700  0.01447750  1
  P  P2_5  1  0.56869700  0.06869700  0.51447750  1
  P  P2_6  1  0.56869700  0.56869700  0.01447750  1
  P  P2_7  1  0.56869700  0.56869700  0.51447750  1
  P  P3_0  1  0.07243900  0.07243900  0.04180000  1
  P  P3_1  1  0.07243900  0.07243900  0.54180000  1
  P  P3_2  1  0.07243900  0.57243900  0.04180000  1
  P  P3_3  1  0.07243900  0.57243900  0.54180000  1
  P  P3_4  1  0.57243900  0.07243900  0.04180000  1
  P  P3_5  1  0.57243900  0.07243900  0.54180000  1
  P  P3_6  1  0.57243900  0.57243900  0.04180000  1
  P  P3_7  1  0.57243900  0.57243900  0.54180000  1
  P  P4_0  1  0.04504450  0.04504450  0.10400050  1
  P  P4_1  1  0.04504450  0.04504450  0.60400050  1
  P  P4_2  1  0.04504450  0.54504450  0.10400050  1
  P  P4_3  1  0.04504450  0.54504450  0.60400050  1
  P  P4_4  1  0.54504450  0.04504450  0.10400050  1
  P  P4_5  1  0.54504450  0.04504450  0.60400050  1
  P  P4_6  1  0.54504450  0.54504450  0.10400050  1
  P  P4_7  1  0.54504450  0.54504450  0.60400050  1
  P  P5_0  1  0.38495600  0.38495600  0.04498150  1
  P  P5_1  1  0.38495600  0.38495600  0.54498150  1
  P  P5_2  1  0.38495600  0.88495600  0.04498150  1
  P  P5_3  1  0.38495600  0.88495600  0.54498150  1
  P  P5_4  1  0.88495600  0.38495600  0.04498150  1
  P  P5_5  1  0.88495600  0.38495600  0.54498150  1
  P  P5_6  1  0.88495600  0.88495600  0.04498150  1
  P  P5_7  1  0.88495600  0.88495600  0.54498150  1
  P  P6_0  1  0.36225450  0.36225450  0.10184050  1
  P  P6_1  1  0.36225450  0.36225450  0.60184050  1
  P  P6_2  1  0.36225450  0.86225450  0.10184050  1
  P  P6_3  1  0.36225450  0.86225450  0.60184050  1
  P  P6_4  1  0.86225450  0.36225450  0.10184050  1
  P  P6_5  1  0.86225450  0.36225450  0.60184050  1
  P  P6_6  1  0.86225450  0.86225450  0.10184050  1
  P  P6_7  1  0.86225450  0.86225450  0.60184050  1
  P  P7_0  1  0.39909500  0.39909500  0.12670750  1
  P  P7_1  1  0.39909500  0.39909500  0.62670750  1
  P  P7_2  1  0.39909500  0.89909500  0.12670750  1
  P  P7_3  1  0.39909500  0.89909500  0.62670750  1
  P  P7_4  1  0.89909500  0.39909500  0.12670750  1
  P  P7_5  1  0.89909500  0.39909500  0.62670750  1
  P  P7_6  1  0.89909500  0.89909500  0.12670750  1
  P  P7_7  1  0.89909500  0.89909500  0.62670750  1
  P  P8_0  1  0.21593150  0.21593150  0.12572050  1
  P  P8_1  1  0.21593150  0.21593150  0.62572050  1
  P  P8_2  1  0.21593150  0.71593150  0.12572050  1
  P  P8_3  1  0.21593150  0.71593150  0.62572050  1
  P  P8_4  1  0.71593150  0.21593150  0.12572050  1
  P  P8_5  1  0.71593150  0.21593150  0.62572050  1
  P  P8_6  1  0.71593150  0.71593150  0.12572050  1
  P  P8_7  1  0.71593150  0.71593150  0.62572050  1
  P  P9_0  1  0.18759300  0.18759300  0.18212000  1
  P  P9_1  1  0.18759300  0.18759300  0.68212000  1
  P  P9_2  1  0.18759300  0.68759300  0.18212000  1
  P  P9_3  1  0.18759300  0.68759300  0.68212000  1
  P  P9_4  1  0.68759300  0.18759300  0.18212000  1
  P  P9_5  1  0.68759300  0.18759300  0.68212000  1
  P  P9_6  1  0.68759300  0.68759300  0.18212000  1
  P  P9_7  1  0.68759300  0.68759300  0.68212000  1
  P  P10_0  1  0.19796850  0.19796850  0.20872000  1
  P  P10_1  1  0.19796850  0.19796850  0.70872000  1
  P  P10_2  1  0.19796850  0.69796850  0.20872000  1
  P  P10_3  1  0.19796850  0.69796850  0.70872000  1
  P  P10_4  1  0.69796850  0.19796850  0.20872000  1
  P  P10_5  1  0.69796850  0.19796850  0.70872000  1
  P  P10_6  1  0.69796850  0.69796850  0.20872000  1
  P  P10_7  1  0.69796850  0.69796850  0.70872000  1
  P  P11_0  1  0.49463800  0.49463800  0.19280150  1
  P  P11_1  1  0.49463800  0.49463800  0.69280150  1
  P  P11_2  1  0.49463800  0.99463800  0.19280150  1
  P  P11_3  1  0.49463800  0.99463800  0.69280150  1
  P  P11_4  1  0.99463800  0.49463800  0.19280150  1
  P  P11_5  1  0.99463800  0.49463800  0.69280150  1
  P  P11_6  1  0.99463800  0.99463800  0.19280150  1
  P  P11_7  1  0.99463800  0.99463800  0.69280150  1
  P  P12_0  1  0.00536200  0.00536200  0.30719850  1
  P  P12_1  1  0.00536200  0.00536200  0.80719850  1
  P  P12_2  1  0.00536200  0.50536200  0.30719850  1
  P  P12_3  1  0.00536200  0.50536200  0.80719850  1
  P  P12_4  1  0.50536200  0.00536200  0.30719850  1
  P  P12_5  1  0.50536200  0.00536200  0.80719850  1
  P  P12_6  1  0.50536200  0.50536200  0.30719850  1
  P  P12_7  1  0.50536200  0.50536200  0.80719850  1
  P  P13_0  1  0.30203150  0.30203150  0.29128000  1
  P  P13_1  1  0.30203150  0.30203150  0.79128000  1
  P  P13_2  1  0.30203150  0.80203150  0.29128000  1
  P  P13_3  1  0.30203150  0.80203150  0.79128000  1
  P  P13_4  1  0.80203150  0.30203150  0.29128000  1
  P  P13_5  1  0.80203150  0.30203150  0.79128000  1
  P  P13_6  1  0.80203150  0.80203150  0.29128000  1
  P  P13_7  1  0.80203150  0.80203150  0.79128000  1
  P  P14_0  1  0.31240700  0.31240700  0.31788000  1
  P  P14_1  1  0.31240700  0.31240700  0.81788000  1
  P  P14_2  1  0.31240700  0.81240700  0.31788000  1
  P  P14_3  1  0.31240700  0.81240700  0.81788000  1
  P  P14_4  1  0.81240700  0.31240700  0.31788000  1
  P  P14_5  1  0.81240700  0.31240700  0.81788000  1
  P  P14_6  1  0.81240700  0.81240700  0.31788000  1
  P  P14_7  1  0.81240700  0.81240700  0.81788000  1
  P  P15_0  1  0.28406850  0.28406850  0.37427950  1
  P  P15_1  1  0.28406850  0.28406850  0.87427950  1
  P  P15_2  1  0.28406850  0.78406850  0.37427950  1
  P  P15_3  1  0.28406850  0.78406850  0.87427950  1
  P  P15_4  1  0.78406850  0.28406850  0.37427950  1
  P  P15_5  1  0.78406850  0.28406850  0.87427950  1
  P  P15_6  1  0.78406850  0.78406850  0.37427950  1
  P  P15_7  1  0.78406850  0.78406850  0.87427950  1
  P  P16_0  1  0.10090500  0.10090500  0.37329250  1
  P  P16_1  1  0.10090500  0.10090500  0.87329250  1
  P  P16_2  1  0.10090500  0.60090500  0.37329250  1
  P  P16_3  1  0.10090500  0.60090500  0.87329250  1
  P  P16_4  1  0.60090500  0.10090500  0.37329250  1
  P  P16_5  1  0.60090500  0.10090500  0.87329250  1
  P  P16_6  1  0.60090500  0.60090500  0.37329250  1
  P  P16_7  1  0.60090500  0.60090500  0.87329250  1
  P  P17_0  1  0.13774550  0.13774550  0.39815950  1
  P  P17_1  1  0.13774550  0.13774550  0.89815950  1
  P  P17_2  1  0.13774550  0.63774550  0.39815950  1
  P  P17_3  1  0.13774550  0.63774550  0.89815950  1
  P  P17_4  1  0.63774550  0.13774550  0.39815950  1
  P  P17_5  1  0.63774550  0.13774550  0.89815950  1
  P  P17_6  1  0.63774550  0.63774550  0.39815950  1
  P  P17_7  1  0.63774550  0.63774550  0.89815950  1
  P  P18_0  1  0.11504400  0.11504400  0.45501850  1
  P  P18_1  1  0.11504400  0.11504400  0.95501850  1
  P  P18_2  1  0.11504400  0.61504400  0.45501850  1
  P  P18_3  1  0.11504400  0.61504400  0.95501850  1
  P  P18_4  1  0.61504400  0.11504400  0.45501850  1
  P  P18_5  1  0.61504400  0.11504400  0.95501850  1
  P  P18_6  1  0.61504400  0.61504400  0.45501850  1
  P  P18_7  1  0.61504400  0.61504400  0.95501850  1
  P  P19_0  1  0.45495550  0.45495550  0.39599950  1
  P  P19_1  1  0.45495550  0.45495550  0.89599950  1
  P  P19_2  1  0.45495550  0.95495550  0.39599950  1
  P  P19_3  1  0.45495550  0.95495550  0.89599950  1
  P  P19_4  1  0.95495550  0.45495550  0.39599950  1
  P  P19_5  1  0.95495550  0.45495550  0.89599950  1
  P  P19_6  1  0.95495550  0.95495550  0.39599950  1
  P  P19_7  1  0.95495550  0.95495550  0.89599950  1
  P  P20_0  1  0.42756100  0.42756100  0.45820000  1
  P  P20_1  1  0.42756100  0.42756100  0.95820000  1
  P  P20_2  1  0.42756100  0.92756100  0.45820000  1
  P  P20_3  1  0.42756100  0.92756100  0.95820000  1
  P  P20_4  1  0.92756100  0.42756100  0.45820000  1
  P  P20_5  1  0.92756100  0.42756100  0.95820000  1
  P  P20_6  1  0.92756100  0.92756100  0.45820000  1
  P  P20_7  1  0.92756100  0.92756100  0.95820000  1
  P  P21_0  1  0.25078900  0.25078900  0.48629700  1
  P  P21_1  1  0.25078900  0.25078900  0.98629700  1
  P  P21_2  1  0.25078900  0.75078900  0.48629700  1
  P  P21_3  1  0.25078900  0.75078900  0.98629700  1
  P  P21_4  1  0.75078900  0.25078900  0.48629700  1
  P  P21_5  1  0.75078900  0.25078900  0.98629700  1
  P  P21_6  1  0.75078900  0.75078900  0.48629700  1
  P  P21_7  1  0.75078900  0.75078900  0.98629700  1
loop_
_geom_bond_atom_site_label_1
_geom_bond_atom_site_label_2
_geom_bond_distance
_geom_bond_site_symmetry_2
Rb1_0 Rb1_6 3.371204 1_545
Rb1_0 Rb1_6 3.371204 1_455
Rb1_1 Rb1_7 3.371204 1_455
Rb1_1 Rb1_7 3.371204 1_545
Rb1_2 Rb1_4 3.371204 1_555
Rb1_2 Rb1_4 3.371204 1_465
Rb1_3 Rb1_5 3.371204 1_555
Rb1_3 Rb1_5 3.371204 1_465
Rb4_0 Rb4_6 3.371204 1_545
Rb4_0 Rb4_6 3.371204 1_455
Rb4_1 Rb4_7 3.371204 1_545
Rb4_1 Rb4_7 3.371204 1_455
Rb4_2 Rb4_4 3.371204 1_555
Rb4_2 Rb4_4 3.371204 1_465
Rb4_3 Rb4_5 3.371204 1_555
Rb4_3 Rb4_5 3.371204 1_465
P0_0 P20_0 2.253447 1_555
P0_0 P21_2 2.276234 1_555
P0_0 P21_4 2.276234 1_555
P0_1 P20_1 2.253447 1_555
P0_1 P21_3 2.276234 1_555
P0_1 P21_5 2.276234 1_555
P0_2 P20_2 2.253447 1_555
P0_2 P21_0 2.276234 1_565
P0_2 P21_6 2.276234 1_555
P0_3 P20_3 2.253447 1_555
P0_3 P21_7 2.276234 1_555
P0_3 P21_1 2.276234 1_565
P0_4 P20_4 2.253447 1_555
P0_4 P21_0 2.276234 1_655
P0_4 P21_6 2.276234 1_555
P0_5 P20_5 2.253447 1_555
P0_5 P21_7 2.276234 1_555
P0_5 P21_1 2.276234 1_655
P0_6 P20_6 2.253447 1_555
P0_6 P21_2 2.276234 1_655
P0_6 P21_4 2.276234 1_565
P0_7 P20_7 2.253447 1_555
P0_7 P21_5 2.276234 1_565
P0_7 P21_3 2.276234 1_655
P1_0 P21_1 2.248826 1_554
P1_0 P2_4 2.276234 1_555
P1_0 P2_2 2.276234 1_555
P1_1 P21_0 2.248826 1_555
P1_1 P2_5 2.276234 1_555
P1_1 P2_3 2.276234 1_555
P1_2 P21_3 2.248826 1_554
P1_2 P2_6 2.276234 1_555
P1_2 P2_0 2.276234 1_565
P1_3 P21_2 2.248826 1_555
P1_3 P2_7 2.276234 1_555
P1_3 P2_1 2.276234 1_565
P1_4 P21_5 2.248826 1_554
P1_4 P2_6 2.276234 1_555
P1_4 P2_0 2.276234 1_655
P1_5 P21_4 2.248826 1_555
P1_5 P2_7 2.276234 1_555
P1_5 P2_1 2.276234 1_655
P1_6 P21_7 2.248826 1_554
P1_6 P2_2 2.276234 1_655
P1_6 P2_4 2.276234 1_565
P1_7 P21_6 2.248826 1_555
P1_7 P2_3 2.276234 1_655
P1_7 P2_5 2.276234 1_565
P2_0 P3_0 2.253447 1_555
P2_1 P3_1 2.253447 1_555
P2_2 P3_2 2.253447 1_555
P2_3 P3_3 2.253447 1_555
P2_4 P3_4 2.253447 1_555
P2_5 P3_5 2.253447 1_555
P2_6 P3_6 2.253447 1_555
P2_7 P3_7 2.253447 1_555
P3_0 P5_4 2.202202 1_455
P3_0 P5_2 2.202202 1_545
P3_0 Rb0_4 3.582237 1_455
P3_0 Rb0_2 3.582237 1_545
P3_1 P5_5 2.202202 1_455
P3_1 P5_3 2.202202 1_545
P3_1 Rb0_3 3.582237 1_545
P3_1 Rb0_5 3.582237 1_455
P3_2 P5_0 2.202202 1_555
P3_2 P5_6 2.202202 1_455
P3_2 Rb0_0 3.582237 1_555
P3_2 Rb0_6 3.582237 1_455
P3_3 P5_7 2.202202 1_455
P3_3 P5_1 2.202202 1_555
P3_3 Rb0_7 3.582237 1_455
P3_3 Rb0_1 3.582237 1_555
P3_4 P5_6 2.202202 1_545
P3_4 P5_0 2.202202 1_555
P3_4 Rb0_0 3.582237 1_555
P3_4 Rb0_6 3.582237 1_545
P3_5 P5_7 2.202202 1_545
P3_5 P5_1 2.202202 1_555
P3_5 Rb0_7 3.582237 1_545
P3_5 Rb0_1 3.582237 1_555
P3_6 P5_4 2.202202 1_555
P3_6 P5_2 2.202202 1_555
P3_6 Rb0_4 3.582237 1_555
P3_6 Rb0_2 3.582237 1_555
P3_7 P5_3 2.202202 1_555
P3_7 P5_5 2.202202 1_555
P3_7 Rb0_5 3.582237 1_555
P3_7 Rb0_3 3.582237 1_555
P4_0 P6_4 2.235215 1_455
P4_0 P6_2 2.235215 1_545
P4_0 Rb0_4 3.576811 1_455
P4_0 Rb0_2 3.576811 1_545
P4_1 P6_5 2.235215 1_455
P4_1 P6_3 2.235215 1_545
P4_1 Rb0_3 3.576811 1_545
P4_1 Rb0_5 3.576811 1_455
P4_2 P6_6 2.235215 1_455
P4_2 P6_0 2.235215 1_555
P4_2 Rb0_0 3.576811 1_555
P4_2 Rb0_6 3.576811 1_455
P4_3 P6_7 2.235215 1_455
P4_3 P6_1 2.235215 1_555
P4_3 Rb0_7 3.576811 1_455
P4_3 Rb0_1 3.576811 1_555
P4_4 P6_0 2.235215 1_555
P4_4 P6_6 2.235215 1_545
P4_4 Rb0_0 3.576811 1_555
P4_4 Rb0_6 3.576811 1_545
P4_5 P6_1 2.235215 1_555
P4_5 P6_7 2.235215 1_545
P4_5 Rb0_7 3.576811 1_545
P4_5 Rb0_1 3.576811 1_555
P4_6 P6_2 2.235215 1_555
P4_6 P6_4 2.235215 1_555
P4_6 Rb0_2 3.576811 1_555
P4_6 Rb0_4 3.576811 1_555
P4_7 P6_5 2.235215 1_555
P4_7 P6_3 2.235215 1_555
P4_7 Rb0_5 3.576811 1_555
P4_7 Rb0_3 3.576811 1_555
P5_0 Rb0_4 3.524801 1_555
P5_0 Rb0_2 3.524801 1_555
P5_1 Rb0_5 3.524801 1_555
P5_1 Rb0_3 3.524801 1_555
P5_2 Rb0_6 3.524801 1_555
P5_2 Rb0_0 3.524801 1_565
P5_3 Rb0_1 3.524801 1_565
P5_3 Rb0_7 3.524801 1_555
P5_4 Rb0_6 3.524801 1_555
P5_4 Rb0_0 3.524801 1_655
P5_5 Rb0_1 3.524801 1_655
P5_5 Rb0_7 3.524801 1_555
P5_6 Rb0_2 3.524801 1_655
P5_6 Rb0_4 3.524801 1_565
P5_7 Rb0_5 3.524801 1_565
P5_7 Rb0_3 3.524801 1_655
P6_0 P7_0 2.261885 1_555
P6_0 Rb0_2 3.697108 1_555
P6_0 Rb0_4 3.697108 1_555
P6_1 P7_1 2.261885 1_555
P6_1 Rb0_5 3.697108 1_555
P6_1 Rb0_3 3.697108 1_555
P6_2 P7_2 2.261885 1_555
P6_2 Rb0_6 3.697108 1_555
P6_2 Rb0_0 3.697108 1_565
P6_3 P7_3 2.261885 1_555
P6_3 Rb0_1 3.697108 1_565
P6_3 Rb0_7 3.697108 1_555
P6_4 P7_4 2.261885 1_555
P6_4 Rb0_6 3.697108 1_555
P6_4 Rb0_0 3.697108 1_655
P6_5 P7_5 2.261885 1_555
P6_5 Rb0_1 3.697108 1_655
P6_5 Rb0_7 3.697108 1_555
P6_6 P7_6 2.261885 1_555
P6_6 Rb0_2 3.697108 1_655
P6_6 Rb0_4 3.697108 1_565
P6_7 P7_7 2.261885 1_555
P6_7 Rb0_3 3.697108 1_655
P6_7 Rb0_5 3.697108 1_565
P7_0 P8_4 2.229872 1_555
P7_0 P8_2 2.229872 1_555
P7_0 Rb1_2 3.420257 1_555
P7_0 Rb1_4 3.420257 1_555
P7_1 P8_5 2.229872 1_555
P7_1 P8_3 2.229872 1_555
P7_1 Rb1_3 3.420257 1_555
P7_1 Rb1_5 3.420257 1_555
P7_2 P8_6 2.229872 1_555
P7_2 P8_0 2.229872 1_565
P7_2 Rb1_0 3.420257 1_565
P7_2 Rb1_6 3.420257 1_555
P7_3 P8_7 2.229872 1_555
P7_3 P8_1 2.229872 1_565
P7_3 Rb1_7 3.420257 1_555
P7_3 Rb1_1 3.420257 1_565
P7_4 P8_6 2.229872 1_555
P7_4 P8_0 2.229872 1_655
P7_4 Rb1_6 3.420257 1_555
P7_4 Rb1_0 3.420257 1_655
P7_5 P8_7 2.229872 1_555
P7_5 P8_1 2.229872 1_655
P7_5 Rb1_7 3.420257 1_555
P7_5 Rb1_1 3.420257 1_655
P7_6 P8_4 2.229872 1_565
P7_6 P8_2 2.229872 1_655
P7_6 Rb1_4 3.420257 1_565
P7_6 Rb1_2 3.420257 1_655
P7_7 P8_3 2.229872 1_655
P7_7 P8_5 2.229872 1_565
P7_7 Rb1_5 3.420257 1_565
P7_7 Rb1_3 3.420257 1_655
P8_0 Rb1_4 3.477196 1_555
P8_0 Rb1_2 3.477196 1_555
P8_1 Rb1_3 3.477196 1_555
P8_1 Rb1_5 3.477196 1_555
P8_2 Rb1_6 3.477196 1_555
P8_2 Rb1_0 3.477196 1_565
P8_3 Rb1_7 3.477196 1_555
P8_3 Rb1_1 3.477196 1_565
P8_4 Rb1_0 3.477196 1_655
P8_4 Rb1_6 3.477196 1_555
P8_5 Rb1_1 3.477196 1_655
P8_5 Rb1_7 3.477196 1_555
P8_6 Rb1_2 3.477196 1_655
P8_6 Rb1_4 3.477196 1_565
P8_7 Rb1_3 3.477196 1_655
P8_7 Rb1_5 3.477196 1_565
P9_0 Rb1_2 3.642201 1_555
P9_0 Rb1_4 3.642201 1_555
P9_0 Rb1_0 4.004039 1_555
P9_1 Rb1_3 3.642201 1_555
P9_1 Rb1_5 3.642201 1_555
P9_1 Rb1_1 4.004039 1_555
P9_2 Rb1_6 3.642201 1_555
P9_2 Rb1_0 3.642201 1_565
P9_2 Rb1_2 4.004039 1_555
P9_3 Rb1_7 3.642201 1_555
P9_3 Rb1_1 3.642201 1_565
P9_3 Rb1_3 4.004039 1_555
P9_4 Rb1_0 3.642201 1_655
P9_4 Rb1_6 3.642201 1_555
P9_4 Rb1_4 4.004039 1_555
P9_5 Rb1_1 3.642201 1_655
P9_5 Rb1_7 3.642201 1_555
P9_5 Rb1_5 4.004039 1_555
P9_6 Rb1_4 3.642201 1_565
P9_6 Rb1_2 3.642201 1_655
P9_6 Rb1_6 4.004039 1_555
P9_7 Rb1_3 3.642201 1_655
P9_7 Rb1_5 3.642201 1_565
P9_7 Rb1_7 4.004039 1_555
P10_0 P9_0 2.217005 1_555
P10_0 P11_2 2.315641 1_545
P10_0 P11_4 2.315641 1_455
P10_0 Rb2_0 3.228058 1_555
P10_0 Rb2_2 3.312813 1_545
P10_0 Rb2_4 3.312813 1_455
P10_1 P9_1 2.217005 1_555
P10_1 P11_3 2.315641 1_545
P10_1 P11_5 2.315641 1_455
P10_1 Rb2_1 3.228058 1_555
P10_1 Rb2_3 3.312813 1_545
P10_1 Rb2_5 3.312813 1_455
P10_2 P9_2 2.217005 1_555
P10_2 P11_0 2.315641 1_555
P10_2 P11_6 2.315641 1_455
P10_2 Rb2_2 3.228058 1_555
P10_2 Rb2_0 3.312813 1_555
P10_2 Rb2_6 3.312813 1_455
P10_3 P9_3 2.217005 1_555
P10_3 P11_7 2.315641 1_455
P10_3 P11_1 2.315641 1_555
P10_3 Rb2_3 3.228058 1_555
P10_3 Rb2_1 3.312813 1_555
P10_3 Rb2_7 3.312813 1_455
P10_4 P9_4 2.217005 1_555
P10_4 P11_0 2.315641 1_555
P10_4 P11_6 2.315641 1_545
P10_4 Rb2_4 3.228058 1_555
P10_4 Rb2_6 3.312813 1_545
P10_4 Rb2_0 3.312813 1_555
P10_5 P9_5 2.217005 1_555
P10_5 P11_7 2.315641 1_545
P10_5 P11_1 2.315641 1_555
P10_5 Rb2_5 3.228058 1_555
P10_5 Rb2_1 3.312813 1_555
P10_5 Rb2_7 3.312813 1_545
P10_6 P9_6 2.217005 1_555
P10_6 P11_2 2.315641 1_555
P10_6 P11_4 2.315641 1_555
P10_6 Rb2_6 3.228058 1_555
P10_6 Rb2_2 3.312813 1_555
P10_6 Rb2_4 3.312813 1_555
P10_7 P9_7 2.217005 1_555
P10_7 P11_3 2.315641 1_555
P10_7 P11_5 2.315641 1_555
P10_7 Rb2_7 3.228058 1_555
P10_7 Rb2_3 3.312813 1_555
P10_7 Rb2_5 3.312813 1_555
P11_0 P9_2 2.316762 1_555
P11_0 P9_4 2.316762 1_555
P11_0 Rb1_6 3.335085 1_555
P11_0 Rb2_4 3.722524 1_555
P11_0 Rb2_2 3.722524 1_555
P11_1 P9_3 2.316762 1_555
P11_1 P9_5 2.316762 1_555
P11_1 Rb1_7 3.335085 1_555
P11_1 Rb2_3 3.722524 1_555
P11_1 Rb2_5 3.722524 1_555
P11_2 P9_6 2.316762 1_555
P11_2 P9_0 2.316762 1_565
P11_2 Rb1_4 3.335085 1_565
P11_2 Rb2_0 3.722524 1_565
P11_2 Rb2_6 3.722524 1_555
P11_3 P9_1 2.316762 1_565
P11_3 P9_7 2.316762 1_555
P11_3 Rb1_5 3.335085 1_565
P11_3 Rb2_1 3.722524 1_565
P11_3 Rb2_7 3.722524 1_555
P11_4 P9_6 2.316762 1_555
P11_4 P9_0 2.316762 1_655
P11_4 Rb1_2 3.335085 1_655
P11_4 Rb2_0 3.722524 1_655
P11_4 Rb2_6 3.722524 1_555
P11_5 P9_7 2.316762 1_555
P11_5 P9_1 2.316762 1_655
P11_5 Rb1_3 3.335085 1_655
P11_5 Rb2_1 3.722524 1_655
P11_5 Rb2_7 3.722524 1_555
P11_6 P9_4 2.316762 1_565
P11_6 P9_2 2.316762 1_655
P11_6 Rb1_0 3.335085 1_665
P11_6 Rb2_2 3.722524 1_655
P11_6 Rb2_4 3.722524 1_565
P11_7 P9_3 2.316762 1_655
P11_7 P9_5 2.316762 1_565
P11_7 Rb1_1 3.335085 1_665
P11_7 Rb2_5 3.722524 1_565
P11_7 Rb2_3 3.722524 1_655
P12_0 P13_4 2.315641 1_455
P12_0 P13_2 2.315641 1_545
P12_0 P14_4 2.316762 1_455
P12_0 P14_2 2.316762 1_545
P12_0 Rb4_6 3.335085 1_445
P12_0 Rb3_2 3.722524 1_545
P12_0 Rb3_4 3.722524 1_455
P12_1 P13_3 2.315641 1_545
P12_1 P13_5 2.315641 1_455
P12_1 P14_3 2.316762 1_545
P12_1 P14_5 2.316762 1_455
P12_1 Rb4_7 3.335085 1_445
P12_1 Rb3_3 3.722524 1_545
P12_1 Rb3_5 3.722524 1_455
P12_2 P13_0 2.315641 1_555
P12_2 P13_6 2.315641 1_455
P12_2 P14_0 2.316762 1_555
P12_2 P14_6 2.316762 1_455
P12_2 Rb4_4 3.335085 1_455
P12_2 Rb3_0 3.722524 1_555
P12_2 Rb3_6 3.722524 1_455
P12_3 P13_7 2.315641 1_455
P12_3 P13_1 2.315641 1_555
P12_3 P14_1 2.316762 1_555
P12_3 P14_7 2.316762 1_455
P12_3 Rb4_5 3.335085 1_455
P12_3 Rb3_1 3.722524 1_555
P12_3 Rb3_7 3.722524 1_455
P12_4 P13_0 2.315641 1_555
P12_4 P13_6 2.315641 1_545
P12_4 P14_0 2.316762 1_555
P12_4 P14_6 2.316762 1_545
P12_4 Rb4_2 3.335085 1_545
P12_4 Rb3_0 3.722524 1_555
P12_4 Rb3_6 3.722524 1_545
P12_5 P13_7 2.315641 1_545
P12_5 P13_1 2.315641 1_555
P12_5 P14_1 2.316762 1_555
P12_5 P14_7 2.316762 1_545
P12_5 Rb4_3 3.335085 1_545
P12_5 Rb3_1 3.722524 1_555
P12_5 Rb3_7 3.722524 1_545
P12_6 P13_4 2.315641 1_555
P12_6 P13_2 2.315641 1_555
P12_6 P14_2 2.316762 1_555
P12_6 P14_4 2.316762 1_555
P12_6 Rb4_0 3.335085 1_555
P12_6 Rb3_2 3.722524 1_555
P12_6 Rb3_4 3.722524 1_555
P12_7 P13_5 2.315641 1_555
P12_7 P13_3 2.315641 1_555
P12_7 P14_3 2.316762 1_555
P12_7 P14_5 2.316762 1_555
P12_7 Rb4_1 3.335085 1_555
P12_7 Rb3_3 3.722524 1_555
P12_7 Rb3_5 3.722524 1_555
P13_0 P14_0 2.217005 1_555
P13_0 Rb3_0 3.228058 1_555
P13_0 Rb3_2 3.312813 1_555
P13_0 Rb3_4 3.312813 1_555
P13_1 P14_1 2.217005 1_555
P13_1 Rb3_1 3.228058 1_555
P13_1 Rb3_5 3.312813 1_555
P13_1 Rb3_3 3.312813 1_555
P13_2 P14_2 2.217005 1_555
P13_2 Rb3_2 3.228058 1_555
P13_2 Rb3_6 3.312813 1_555
P13_2 Rb3_0 3.312813 1_565
P13_3 P14_3 2.217005 1_555
P13_3 Rb3_3 3.228058 1_555
P13_3 Rb3_7 3.312813 1_555
P13_3 Rb3_1 3.312813 1_565
P13_4 P14_4 2.217005 1_555
P13_4 Rb3_4 3.228058 1_555
P13_4 Rb3_6 3.312813 1_555
P13_4 Rb3_0 3.312813 1_655
P13_5 P14_5 2.217005 1_555
P13_5 Rb3_5 3.228058 1_555
P13_5 Rb3_7 3.312813 1_555
P13_5 Rb3_1 3.312813 1_655
P13_6 P14_6 2.217005 1_555
P13_6 Rb3_6 3.228058 1_555
P13_6 Rb3_4 3.312813 1_565
P13_6 Rb3_2 3.312813 1_655
P13_7 P14_7 2.217005 1_555
P13_7 Rb3_7 3.228058 1_555
P13_7 Rb3_5 3.312813 1_565
P13_7 Rb3_3 3.312813 1_655
P14_0 Rb4_4 3.642201 1_455
P14_0 Rb4_2 3.642201 1_545
P14_0 Rb4_0 4.004039 1_555
P14_1 Rb4_3 3.642201 1_545
P14_1 Rb4_5 3.642201 1_455
P14_1 Rb4_1 4.004039 1_555
P14_2 Rb4_6 3.642201 1_455
P14_2 Rb4_0 3.642201 1_555
P14_2 Rb4_2 4.004039 1_555
P14_3 Rb4_7 3.642201 1_455
P14_3 Rb4_1 3.642201 1_555
P14_3 Rb4_3 4.004039 1_555
P14_4 Rb4_6 3.642201 1_545
P14_4 Rb4_0 3.642201 1_555
P14_4 Rb4_4 4.004039 1_555
P14_5 Rb4_7 3.642201 1_545
P14_5 Rb4_1 3.642201 1_555
P14_5 Rb4_5 4.004039 1_555
P14_6 Rb4_2 3.642201 1_555
P14_6 Rb4_4 3.642201 1_555
P14_6 Rb4_6 4.004039 1_555
P14_7 Rb4_3 3.642201 1_555
P14_7 Rb4_5 3.642201 1_555
P14_7 Rb4_7 4.004039 1_555
P15_0 P16_4 2.229872 1_555
P15_0 P16_2 2.229872 1_555
P15_0 Rb4_2 3.477196 1_545
P15_0 Rb4_4 3.477196 1_455
P15_1 P16_3 2.229872 1_555
P15_1 P16_5 2.229872 1_555
P15_1 Rb4_3 3.477196 1_545
P15_1 Rb4_5 3.477196 1_455
P15_2 P16_0 2.229872 1_565
P15_2 P16_6 2.229872 1_555
P15_2 Rb4_6 3.477196 1_455
P15_2 Rb4_0 3.477196 1_555
P15_3 P16_7 2.229872 1_555
P15_3 P16_1 2.229872 1_565
P15_3 Rb4_7 3.477196 1_455
P15_3 Rb4_1 3.477196 1_555
P15_4 P16_0 2.229872 1_655
P15_4 P16_6 2.229872 1_555
P15_4 Rb4_6 3.477196 1_545
P15_4 Rb4_0 3.477196 1_555
P15_5 P16_7 2.229872 1_555
P15_5 P16_1 2.229872 1_655
P15_5 Rb4_1 3.477196 1_555
P15_5 Rb4_7 3.477196 1_545
P15_6 P16_4 2.229872 1_565
P15_6 P16_2 2.229872 1_655
P15_6 Rb4_2 3.477196 1_555
P15_6 Rb4_4 3.477196 1_555
P15_7 P16_5 2.229872 1_565
P15_7 P16_3 2.229872 1_655
P15_7 Rb4_3 3.477196 1_555
P15_7 Rb4_5 3.477196 1_555
P16_0 P17_0 2.261885 1_555
P16_0 Rb4_2 3.420257 1_545
P16_0 Rb4_4 3.420257 1_455
P16_1 P17_1 2.261885 1_555
P16_1 Rb4_5 3.420257 1_455
P16_1 Rb4_3 3.420257 1_545
P16_2 P17_2 2.261885 1_555
P16_2 Rb4_0 3.420257 1_555
P16_2 Rb4_6 3.420257 1_455
P16_3 P17_3 2.261885 1_555
P16_3 Rb4_1 3.420257 1_555
P16_3 Rb4_7 3.420257 1_455
P16_4 P17_4 2.261885 1_555
P16_4 Rb4_0 3.420257 1_555
P16_4 Rb4_6 3.420257 1_545
P16_5 P17_5 2.261885 1_555
P16_5 Rb4_1 3.420257 1_555
P16_5 Rb4_7 3.420257 1_545
P16_6 P17_6 2.261885 1_555
P16_6 Rb4_4 3.420257 1_555
P16_6 Rb4_2 3.420257 1_555
P16_7 P17_7 2.261885 1_555
P16_7 Rb4_3 3.420257 1_555
P16_7 Rb4_5 3.420257 1_555
P17_0 P19_4 2.235215 1_455
P17_0 P19_2 2.235215 1_545
P17_0 Rb5_4 3.697108 1_455
P17_0 Rb5_2 3.697108 1_545
P17_1 P19_5 2.235215 1_455
P17_1 P19_3 2.235215 1_545
P17_1 Rb5_5 3.697108 1_455
P17_1 Rb5_3 3.697108 1_545
P17_2 P19_6 2.235215 1_455
P17_2 P19_0 2.235215 1_555
P17_2 Rb5_6 3.697108 1_455
P17_2 Rb5_0 3.697108 1_555
P17_3 P19_7 2.235215 1_455
P17_3 P19_1 2.235215 1_555
P17_3 Rb5_1 3.697108 1_555
P17_3 Rb5_7 3.697108 1_455
P17_4 P19_6 2.235215 1_545
P17_4 P19_0 2.235215 1_555
P17_4 Rb5_6 3.697108 1_545
P17_4 Rb5_0 3.697108 1_555
P17_5 P19_7 2.235215 1_545
P17_5 P19_1 2.235215 1_555
P17_5 Rb5_1 3.697108 1_555
P17_5 Rb5_7 3.697108 1_545
P17_6 P19_2 2.235215 1_555
P17_6 P19_4 2.235215 1_555
P17_6 Rb5_4 3.697108 1_555
P17_6 Rb5_2 3.697108 1_555
P17_7 P19_3 2.235215 1_555
P17_7 P19_5 2.235215 1_555
P17_7 Rb5_5 3.697108 1_555
P17_7 Rb5_3 3.697108 1_555
P18_0 P20_2 2.202202 1_545
P18_0 P20_4 2.202202 1_455
P18_0 Rb5_4 3.524801 1_455
P18_0 Rb5_2 3.524801 1_545
P18_1 P20_3 2.202202 1_545
P18_1 P20_5 2.202202 1_455
P18_1 Rb5_5 3.524801 1_455
P18_1 Rb5_3 3.524801 1_545
P18_2 P20_6 2.202202 1_455
P18_2 P20_0 2.202202 1_555
P18_2 Rb5_6 3.524801 1_455
P18_2 Rb5_0 3.524801 1_555
P18_3 P20_7 2.202202 1_455
P18_3 P20_1 2.202202 1_555
P18_3 Rb5_1 3.524801 1_555
P18_3 Rb5_7 3.524801 1_455
P18_4 P20_6 2.202202 1_545
P18_4 P20_0 2.202202 1_555
P18_4 Rb5_6 3.524801 1_545
P18_4 Rb5_0 3.524801 1_555
P18_5 P20_7 2.202202 1_545
P18_5 P20_1 2.202202 1_555
P18_5 Rb5_1 3.524801 1_555
P18_5 Rb5_7 3.524801 1_545
P18_6 P20_2 2.202202 1_555
P18_6 P20_4 2.202202 1_555
P18_6 Rb5_4 3.524801 1_555
P18_6 Rb5_2 3.524801 1_555
P18_7 P20_3 2.202202 1_555
P18_7 P20_5 2.202202 1_555
P18_7 Rb5_5 3.524801 1_555
P18_7 Rb5_3 3.524801 1_555
P19_0 Rb5_2 3.576811 1_555
P19_0 Rb5_4 3.576811 1_555
P19_1 Rb5_5 3.576811 1_555
P19_1 Rb5_3 3.576811 1_555
P19_2 Rb5_0 3.576811 1_565
P19_2 Rb5_6 3.576811 1_555
P19_3 Rb5_7 3.576811 1_555
P19_3 Rb5_1 3.576811 1_565
P19_4 Rb5_0 3.576811 1_655
P19_4 Rb5_6 3.576811 1_555
P19_5 Rb5_7 3.576811 1_555
P19_5 Rb5_1 3.576811 1_655
P19_6 Rb5_2 3.576811 1_655
P19_6 Rb5_4 3.576811 1_565
P19_7 Rb5_3 3.576811 1_655
P19_7 Rb5_5 3.576811 1_565
P20_0 Rb5_2 3.582237 1_555
P20_0 Rb5_4 3.582237 1_555
P20_1 Rb5_3 3.582237 1_555
P20_1 Rb5_5 3.582237 1_555
P20_2 Rb5_0 3.582237 1_565
P20_2 Rb5_6 3.582237 1_555
P20_3 Rb5_7 3.582237 1_555
P20_3 Rb5_1 3.582237 1_565
P20_4 Rb5_0 3.582237 1_655
P20_4 Rb5_6 3.582237 1_555
P20_5 Rb5_7 3.582237 1_555
P20_5 Rb5_1 3.582237 1_655
P20_6 Rb5_2 3.582237 1_655
P20_6 Rb5_4 3.582237 1_565
P20_7 Rb5_5 3.582237 1_565
P20_7 Rb5_3 3.582237 1_655
