# generated using pymatgen
data_Li6V3Cu(PO4)6
_symmetry_space_group_name_H-M   'P 1'
_cell_length_a   8.45956331
_cell_length_b   8.50528486
_cell_length_c   8.62561834
_cell_angle_alpha   61.74335670
_cell_angle_beta   62.52707666
_cell_angle_gamma   62.89876039
_symmetry_Int_Tables_number   1
_chemical_formula_structural   Li6V3Cu(PO4)6
_chemical_formula_sum   'Li6 V3 Cu1 P6 O24'
_cell_volume   462.14528722
_cell_formula_units_Z   1
loop_
 _symmetry_equiv_pos_site_id
 _symmetry_equiv_pos_as_xyz
  1  'x, y, z'
loop_
 _atom_site_type_symbol
 _atom_site_label
 _atom_site_symmetry_multiplicity
 _atom_site_fract_x
 _atom_site_fract_y
 _atom_site_fract_z
 _atom_site_occupancy
  Li  Li0  1  0.01455483  0.98954535  0.99068755  1
  Li  Li1  1  0.74393056  0.14603115  0.35257584  1
  Li  Li2  1  0.47997862  0.50926154  0.49870131  1
  Li  Li3  1  0.21881086  0.85186795  0.65616585  1
  Li  Li4  1  0.66032517  0.21012364  0.85254060  1
  Li  Li5  1  0.84793702  0.66869257  0.20247287  1
  V  V0  1  0.14122314  0.14718226  0.13417827  1
  V  V1  1  0.35949616  0.36062204  0.35897307  1
  V  V2  1  0.64336177  0.64581025  0.64439570  1
  Cu  Cu0  1  0.85397524  0.85311025  0.83600319  1
  P  P0  1  0.05891964  0.75156687  0.44624153  1
  P  P1  1  0.44845484  0.05340166  0.75698230  1
  P  P2  1  0.75249946  0.45729263  0.04669298  1
  P  P3  1  0.25439303  0.54221139  0.95935696  1
  P  P4  1  0.54190559  0.96404462  0.25682742  1
  P  P5  1  0.95215421  0.25035482  0.53592706  1
  O  O0  1  0.11718794  0.30832365  0.49069186  1
  O  O1  1  0.33173584  0.48879006  0.11029051  1
  O  O2  1  0.05417157  0.92316153  0.26026091  1
  O  O3  1  0.51777398  0.11160487  0.32794865  1
  O  O4  1  0.24783306  0.59793519  0.41088805  1
  O  O5  1  0.05001982  0.80418888  0.59654272  1
  O  O6  1  0.25391681  0.07176491  0.91292399  1
  O  O7  1  0.44084159  0.23956237  0.59002262  1
  O  O8  1  0.60565243  0.42243669  0.24304056  1
  O  O9  1  0.18246444  0.38304391  0.99984768  1
  O  O10  1  0.09818524  0.73278160  0.94705696  1
  O  O11  1  0.37012158  0.01830602  0.19873832  1
  O  O12  1  0.60010335  0.02863545  0.82465442  1
  O  O13  1  0.91097872  0.26189147  0.06670142  1
  O  O14  1  0.81138471  0.61704648  0.01869232  1
  O  O15  1  0.40665949  0.56089134  0.76398436  1
  O  O16  1  0.55294261  0.76738959  0.41175860  1
  O  O17  1  0.72989710  0.95003012  0.10003855  1
  O  O18  1  0.97208781  0.19626081  0.37721711  1
  O  O19  1  0.75997798  0.40675006  0.56538131  1
  O  O20  1  0.48742170  0.88797238  0.70183755  1
  O  O21  1  0.94275336  0.08399713  0.72465782  1
  O  O22  1  0.69611469  0.48956240  0.88688079  1
  O  O23  1  0.88785204  0.69555410  0.49221941  1
loop_
_geom_bond_atom_site_label_1
_geom_bond_atom_site_label_2
_geom_bond_distance
_geom_bond_site_symmetry_2
Li0 O10 2.129827 1_555
Li0 O6 2.152213 1_565
Li0 O2 2.267457 1_556
Li0 O17 2.267826 1_456
Li0 O21 2.318581 1_465
Li0 O13 2.371071 1_466
Li1 O8 2.049101 1_555
Li1 O3 2.176101 1_555
Li1 O13 2.191210 1_555
Li1 O18 2.273499 1_555
Li1 O2 2.466459 1_645
Li1 O7 2.498156 1_555
Li2 O4 2.116910 1_555
Li2 O7 2.175414 1_555
Li2 O16 2.238768 1_555
Li2 O8 2.280814 1_555
Li2 O15 2.281947 1_555
Li2 O19 2.366875 1_555
Li3 O5 1.967344 1_555
Li3 O10 2.129762 1_555
Li3 O15 2.261869 1_555
Li3 O21 2.308946 1_465
Li4 O12 1.970088 1_555
Li4 O21 2.104622 1_555
Li4 O19 2.253543 1_555
Li4 O17 2.301957 1_546
Li5 O14 2.009187 1_555
Li5 O17 2.034381 1_555
Li5 O10 2.289887 1_654
Li5 O16 2.358119 1_555
Cu0 O14 1.945188 1_556
Cu0 O12 1.996254 1_565
Cu0 O5 2.052872 1_655
Cu0 O21 2.057974 1_565
Cu0 O10 2.281277 1_655
Cu0 O17 2.398275 1_556
O0 P5 1.512242 1_455
O0 V1 1.973303 1_555
O1 P3 1.511439 1_554
O1 V1 1.965245 1_555
O2 P0 1.579342 1_555
O2 V0 1.983165 1_565
O3 P4 1.540504 1_545
O3 V1 1.993088 1_555
O4 P0 1.542528 1_555
O4 V1 1.973615 1_555
O5 P0 1.521637 1_555
O6 P1 1.569816 1_555
O6 V0 1.971230 1_556
O7 P1 1.555238 1_555
O7 V1 2.045089 1_555
O8 P2 1.555121 1_555
O8 V1 2.047215 1_555
O9 P3 1.559388 1_555
O9 V0 1.884793 1_556
O10 P3 1.549084 1_555
O11 P4 1.554894 1_545
O11 V0 1.935005 1_555
O12 P1 1.535955 1_555
O13 P2 1.581465 1_555
O13 V0 1.965021 1_655
O14 P2 1.532206 1_555
O15 P3 1.566686 1_555
O15 V2 2.074083 1_555
O16 P4 1.564818 1_555
O16 V2 2.100425 1_555
O17 P4 1.538777 1_555
O18 P5 1.557843 1_555
O18 V0 2.032994 1_655
O19 P5 1.563807 1_555
O19 V2 2.106202 1_555
O20 P1 1.543065 1_565
O20 V2 2.028675 1_555
O21 P5 1.568624 1_555
O22 P2 1.527157 1_556
O22 V2 2.007231 1_555
O23 P0 1.548625 1_655
O23 V2 1.986535 1_555
