# generated using pymatgen
data_NaEu3
_symmetry_space_group_name_H-M   'P 1'
_cell_length_a   7.08623483
_cell_length_b   7.08623483
_cell_length_c   7.08623483
_cell_angle_alpha   134.61706972
_cell_angle_beta   134.61706972
_cell_angle_gamma   66.12577246
_symmetry_Int_Tables_number   1
_chemical_formula_structural   NaEu3
_chemical_formula_sum   'Na1 Eu3'
_cell_volume   177.51778681
_cell_formula_units_Z   1
loop_
 _symmetry_equiv_pos_site_id
 _symmetry_equiv_pos_as_xyz
  1  'x, y, z'
loop_
 _atom_site_type_symbol
 _atom_site_label
 _atom_site_symmetry_multiplicity
 _atom_site_fract_x
 _atom_site_fract_y
 _atom_site_fract_z
 _atom_site_occupancy
  Na  Na0  1  0.00000000  0.00000000  0.00000000  1
  Eu  Eu0  1  0.75000000  0.25000000  0.50000000  1
  Eu  Eu1  1  0.25000000  0.75000000  0.50000000  1
  Eu  Eu2  1  0.50000000  0.50000000  0.00000000  1
loop_
_geom_bond_atom_site_label_1
_geom_bond_atom_site_label_2
_geom_bond_distance
_geom_bond_site_symmetry_2
Eu0 Eu1 3.865961 1_656
Eu0 Eu1 3.865961 1_555
Eu0 Eu1 3.865961 1_544
Eu0 Eu1 3.865961 1_645
Eu0 Na0 4.036099 1_555
Eu0 Na0 4.036099 1_656
Eu0 Eu2 4.036099 1_545
Eu0 Na0 4.036099 1_655
Eu0 Eu2 4.036099 1_555
Eu0 Na0 4.036099 1_666
Eu0 Eu2 4.036099 1_556
Eu0 Eu2 4.036099 1_656
Eu1 Na0 4.036099 1_555
Eu1 Na0 4.036099 1_565
Eu1 Na0 4.036099 1_566
Eu1 Eu2 4.036099 1_555
Eu1 Eu2 4.036099 1_566
Eu1 Na0 4.036099 1_666
Eu1 Eu2 4.036099 1_556
Eu1 Eu2 4.036099 1_455
Eu2 Na0 3.865961 1_565
Eu2 Na0 3.865961 1_554
Eu2 Na0 3.865961 1_655
Eu2 Na0 3.865961 1_666
