# generated using pymatgen
data_Sm3Mg2MoS8
_symmetry_space_group_name_H-M   'P 1'
_cell_length_a   7.95181926
_cell_length_b   7.77727371
_cell_length_c   7.95210938
_cell_angle_alpha   59.25726017
_cell_angle_beta   59.99933241
_cell_angle_gamma   59.25321030
_symmetry_Int_Tables_number   1
_chemical_formula_structural   Sm3Mg2MoS8
_chemical_formula_sum   'Sm3 Mg2 Mo1 S8'
_cell_volume   343.77741279
_cell_formula_units_Z   1
loop_
 _symmetry_equiv_pos_site_id
 _symmetry_equiv_pos_as_xyz
  1  'x, y, z'
loop_
 _atom_site_type_symbol
 _atom_site_label
 _atom_site_symmetry_multiplicity
 _atom_site_fract_x
 _atom_site_fract_y
 _atom_site_fract_z
 _atom_site_occupancy
  Sm  Sm0  1  0.50000155  0.50001839  0.49998220  1
  Sm  Sm1  1  0.49999839  0.49999234  0.00000075  1
  Sm  Sm2  1  0.00000186  0.49998958  0.50001162  1
  Mg  Mg0  1  0.87494973  0.87512858  0.87496575  1
  Mg  Mg1  1  0.12505174  0.12487300  0.12503502  1
  Mo  Mo0  1  0.50000204  0.99999817  0.50000495  1
  S  S0  1  0.73167152  0.77167456  0.73170136  1
  S  S1  1  0.26831614  0.22833613  0.73505078  1
  S  S2  1  0.25343032  0.73965417  0.25346449  1
  S  S3  1  0.73504582  0.22832637  0.26830299  1
  S  S4  1  0.74655246  0.26034711  0.74652392  1
  S  S5  1  0.26495416  0.77167289  0.73169656  1
  S  S6  1  0.26832727  0.22831379  0.26831357  1
  S  S7  1  0.73170101  0.77166991  0.26494704  1
loop_
_geom_bond_atom_site_label_1
_geom_bond_atom_site_label_2
_geom_bond_distance
_geom_bond_site_symmetry_2
Mg0 S4 2.418288 1_565
Mg0 S5 2.532901 1_655
Mg0 S7 2.532922 1_556
Mg0 S0 2.532936 1_555
Mg1 S2 2.418290 1_545
Mg1 S3 2.532913 1_455
Mg1 S6 2.532932 1_555
Mg1 S1 2.532939 1_554
Mo0 S1 2.577988 1_565
Mo0 S7 2.578005 1_555
Mo0 S0 2.578012 1_555
Mo0 S6 2.578016 1_565
Mo0 S3 2.578030 1_565
Mo0 S5 2.578037 1_555
S0 Sm2 2.801929 1_655
S0 Sm1 2.801956 1_556
S1 Sm2 2.801938 1_555
S1 Sm0 2.802008 1_555
S2 Sm2 2.744583 1_555
S2 Sm0 2.744588 1_555
S2 Sm1 2.744661 1_555
S3 Sm0 2.801920 1_555
S3 Sm1 2.801938 1_555
S4 Sm2 2.744585 1_655
S4 Sm0 2.744595 1_555
S4 Sm1 2.744647 1_556
S5 Sm0 2.801898 1_555
S5 Sm1 2.801935 1_556
S6 Sm2 2.801920 1_555
S6 Sm1 2.801930 1_555
S7 Sm0 2.801921 1_555
S7 Sm2 2.802001 1_655
