# generated using pymatgen
data_U2Al3Os
_symmetry_space_group_name_H-M   'P 1'
_cell_length_a   5.34317810
_cell_length_b   5.34317810
_cell_length_c   8.89349700
_cell_angle_alpha   90.00000000
_cell_angle_beta   90.00000000
_cell_angle_gamma   120.00000123
_symmetry_Int_Tables_number   1
_chemical_formula_structural   U2Al3Os
_chemical_formula_sum   'U4 Al6 Os2'
_cell_volume   219.88848648
_cell_formula_units_Z   2
loop_
 _symmetry_equiv_pos_site_id
 _symmetry_equiv_pos_as_xyz
  1  'x, y, z'
loop_
 _atom_site_type_symbol
 _atom_site_label
 _atom_site_symmetry_multiplicity
 _atom_site_fract_x
 _atom_site_fract_y
 _atom_site_fract_z
 _atom_site_occupancy
  U  U0  1  0.33333300  0.66666700  0.05166600  1
  U  U1  1  0.66666700  0.33333300  0.55166600  1
  U  U2  1  0.66666700  0.33333300  0.94833400  1
  U  U3  1  0.33333300  0.66666700  0.44833400  1
  Al  Al0  1  0.83447500  0.66895100  0.25000000  1
  Al  Al1  1  0.16552500  0.83447500  0.75000000  1
  Al  Al2  1  0.66895100  0.83447500  0.75000000  1
  Al  Al3  1  0.33104900  0.16552500  0.25000000  1
  Al  Al4  1  0.83447500  0.16552500  0.25000000  1
  Al  Al5  1  0.16552500  0.33104900  0.75000000  1
  Os  Os0  1  0.00000000  0.00000000  0.00000000  1
  Os  Os1  1  0.00000000  0.00000000  0.50000000  1
loop_
_geom_bond_atom_site_label_1
_geom_bond_atom_site_label_2
_geom_bond_distance
_geom_bond_site_symmetry_2
U0 U2 3.218855 1_454
U0 U2 3.218855 1_564
U0 U2 3.218864 1_554
U0 U3 3.527766 1_555
U1 U3 3.218855 1_545
U1 U3 3.218855 1_655
U1 U3 3.218864 1_555
U1 U2 3.527766 1_555
Al0 Al3 2.653283 1_665
Al0 Al4 2.653283 1_565
Al0 Al3 2.689895 1_555
Al0 Al4 2.689895 1_555
Al0 Os0 2.700005 1_665
Al0 Os1 2.700005 1_665
Al0 U1 3.099939 1_555
Al0 U2 3.099939 1_554
Al0 U0 3.201372 1_555
Al0 U3 3.201372 1_555
Al0 U3 3.201372 1_655
Al0 U0 3.201372 1_655
Al1 Al5 2.653283 1_565
Al1 Al2 2.653283 1_455
Al1 Al2 2.689895 1_555
Al1 Al5 2.689895 1_555
Al1 Os0 2.700007 1_566
Al1 Os1 2.700007 1_565
Al1 U3 3.099934 1_555
Al1 U0 3.099934 1_556
Al1 U1 3.201372 1_455
Al1 U2 3.201372 1_455
Al1 U1 3.201372 1_565
Al1 U2 3.201372 1_565
Al2 Al5 2.653283 1_665
Al2 Al5 2.689895 1_555
Al2 Os1 2.700005 1_665
Al2 Os0 2.700005 1_666
Al2 U3 3.099939 1_555
Al2 U0 3.099939 1_556
Al2 U1 3.201372 1_555
Al2 U2 3.201372 1_555
Al2 U2 3.201372 1_565
Al2 U1 3.201372 1_565
Al3 Al4 2.653283 1_455
Al3 Al4 2.689895 1_555
Al3 Os0 2.700005 1_555
Al3 Os1 2.700005 1_555
Al3 U1 3.099939 1_555
Al3 U2 3.099939 1_554
Al3 U0 3.201372 1_555
Al3 U3 3.201372 1_555
Al3 U0 3.201372 1_545
Al3 U3 3.201372 1_545
Al4 Os1 2.700007 1_655
Al4 Os0 2.700007 1_655
Al4 U2 3.099934 1_554
Al4 U1 3.099934 1_555
Al4 U0 3.201372 1_545
Al4 U3 3.201372 1_545
Al4 U0 3.201372 1_655
Al4 U3 3.201372 1_655
Al5 Os0 2.700005 1_556
Al5 Os1 2.700005 1_555
Al5 U3 3.099939 1_555
Al5 U0 3.099939 1_556
Al5 U1 3.201372 1_555
Al5 U2 3.201372 1_555
Al5 U1 3.201372 1_455
Al5 U2 3.201372 1_455
Os0 U0 3.118915 1_545
Os0 U2 3.118915 1_454
Os0 U2 3.118920 1_444
Os0 U2 3.118920 1_554
Os0 U0 3.118920 1_555
Os0 U0 3.118920 1_445
Os1 U1 3.118915 1_455
Os1 U3 3.118915 1_545
Os1 U3 3.118920 1_555
Os1 U1 3.118920 1_555
Os1 U3 3.118920 1_445
Os1 U1 3.118920 1_445
