# generated using pymatgen
data_Yb2Be2SiO7
_symmetry_space_group_name_H-M   'P 1'
_cell_length_a   7.29173700
_cell_length_b   7.29173700
_cell_length_c   4.93855100
_cell_angle_alpha   90.00000000
_cell_angle_beta   90.00000000
_cell_angle_gamma   90.00000000
_symmetry_Int_Tables_number   1
_chemical_formula_structural   Yb2Be2SiO7
_chemical_formula_sum   'Yb4 Be4 Si2 O14'
_cell_volume   262.57993418
_cell_formula_units_Z   2
loop_
 _symmetry_equiv_pos_site_id
 _symmetry_equiv_pos_as_xyz
  1  'x, y, z'
loop_
 _atom_site_type_symbol
 _atom_site_label
 _atom_site_symmetry_multiplicity
 _atom_site_fract_x
 _atom_site_fract_y
 _atom_site_fract_z
 _atom_site_occupancy
  Yb  Yb0  1  0.16517700  0.33482300  0.50787800  1
  Yb  Yb1  1  0.83482300  0.66517700  0.50787800  1
  Yb  Yb2  1  0.66517700  0.16517700  0.49212200  1
  Yb  Yb3  1  0.33482300  0.83482300  0.49212200  1
  Be  Be0  1  0.63666200  0.86333800  0.94657100  1
  Be  Be1  1  0.36333800  0.13666200  0.94657100  1
  Be  Be2  1  0.13666200  0.63666200  0.05342900  1
  Be  Be3  1  0.86333800  0.36333800  0.05342900  1
  Si  Si0  1  0.00000000  0.00000000  0.00000000  1
  Si  Si1  1  0.50000000  0.50000000  0.00000000  1
  O  O0  1  0.00000000  0.50000000  0.19366800  1
  O  O1  1  0.50000000  0.00000000  0.80633200  1
  O  O2  1  0.62404600  0.87595400  0.27218300  1
  O  O3  1  0.37595400  0.12404600  0.27218300  1
  O  O4  1  0.12404600  0.62404600  0.72781700  1
  O  O5  1  0.87595400  0.37595400  0.72781700  1
  O  O6  1  0.07921200  0.83513900  0.19421300  1
  O  O7  1  0.92078800  0.16486100  0.19421300  1
  O  O8  1  0.16486100  0.07921200  0.80578700  1
  O  O9  1  0.42078800  0.33513900  0.80578700  1
  O  O10  1  0.83513900  0.92078800  0.80578700  1
  O  O11  1  0.57921200  0.66486100  0.80578700  1
  O  O12  1  0.33513900  0.57921200  0.19421300  1
  O  O13  1  0.66486100  0.42078800  0.19421300  1
loop_
_geom_bond_atom_site_label_1
_geom_bond_atom_site_label_2
_geom_bond_distance
_geom_bond_site_symmetry_2
Be0 O1 1.570255 1_565
Be0 O2 1.613306 1_556
Be0 O11 1.659336 1_555
Be0 O10 1.659336 1_555
Be1 O1 1.570255 1_555
Be1 O3 1.613306 1_556
Be1 O8 1.659336 1_555
Be1 O9 1.659336 1_555
Be2 O0 1.570255 1_555
Be2 O4 1.613306 1_554
Be2 O6 1.659336 1_555
Be2 O12 1.659336 1_555
Be3 O0 1.570255 1_655
Be3 O5 1.613306 1_554
Be3 O7 1.659336 1_555
Be3 O13 1.659336 1_555
O0 Yb1 2.304169 1_455
O0 Yb0 2.304169 1_555
O1 Yb3 2.304169 1_545
O1 Yb2 2.304169 1_555
O2 Yb2 2.391099 1_565
O2 Yb3 2.391099 1_555
O2 Yb1 2.465601 1_555
O3 Yb2 2.391099 1_555
O3 Yb3 2.391099 1_545
O3 Yb0 2.465601 1_555
O4 Yb1 2.391099 1_455
O4 Yb0 2.391099 1_555
O4 Yb3 2.465601 1_555
O5 Yb0 2.391099 1_655
O5 Yb1 2.391099 1_555
O5 Yb2 2.465601 1_555
O6 Si0 1.642755 1_565
O6 Yb3 2.374548 1_555
O6 Yb1 2.666658 1_455
O7 Si0 1.642755 1_655
O7 Yb2 2.374548 1_555
O7 Yb0 2.666658 1_655
O8 Si0 1.642755 1_556
O8 Yb0 2.374548 1_555
O8 Yb3 2.666658 1_545
O9 Si1 1.642755 1_556
O9 Yb0 2.374548 1_555
O9 Yb2 2.666658 1_555
O10 Si0 1.642755 1_666
O10 Yb1 2.374548 1_555
O10 Yb2 2.666658 1_565
O11 Si1 1.642755 1_556
O11 Yb1 2.374548 1_555
O11 Yb3 2.666658 1_555
O12 Si1 1.642755 1_555
O12 Yb3 2.374548 1_555
O12 Yb0 2.666658 1_555
O13 Si1 1.642755 1_555
O13 Yb2 2.374548 1_555
O13 Yb1 2.666658 1_555
