# generated using pymatgen
data_Pr2AlZn
_symmetry_space_group_name_H-M   'P 1'
_cell_length_a   3.69767826
_cell_length_b   3.69767826
_cell_length_c   7.60142172
_cell_angle_alpha   90.00000000
_cell_angle_beta   90.00000000
_cell_angle_gamma   90.00000000
_symmetry_Int_Tables_number   1
_chemical_formula_structural   Pr2AlZn
_chemical_formula_sum   'Pr2 Al1 Zn1'
_cell_volume   103.93290524
_cell_formula_units_Z   1
loop_
 _symmetry_equiv_pos_site_id
 _symmetry_equiv_pos_as_xyz
  1  'x, y, z'
loop_
 _atom_site_type_symbol
 _atom_site_label
 _atom_site_symmetry_multiplicity
 _atom_site_fract_x
 _atom_site_fract_y
 _atom_site_fract_z
 _atom_site_occupancy
  Pr  Pr0  1  0.50000000  0.50000000  0.25616196  1
  Pr  Pr1  1  0.50000000  0.50000000  0.74383804  1
  Al  Al0  1  0.00000000  0.00000000  0.00000000  1
  Zn  Zn0  1  0.00000000  0.00000000  0.50000000  1
loop_
_geom_bond_atom_site_label_1
_geom_bond_atom_site_label_2
_geom_bond_distance
_geom_bond_site_symmetry_2
Pr0 Zn0 3.204986 1_565
Pr0 Zn0 3.204986 1_555
Pr0 Zn0 3.204986 1_655
Pr0 Zn0 3.204986 1_665
Pr1 Zn0 3.204986 1_565
Pr1 Zn0 3.204986 1_555
Pr1 Zn0 3.204986 1_655
Pr1 Zn0 3.204986 1_665
Al0 Pr0 3.260058 1_555
Al0 Pr0 3.260058 1_445
Al0 Pr1 3.260058 1_444
Al0 Pr1 3.260058 1_454
Al0 Pr0 3.260058 1_455
Al0 Pr0 3.260058 1_545
Al0 Pr1 3.260058 1_544
Al0 Pr1 3.260058 1_554
