# generated using pymatgen
data_ThAl2Fe3
_symmetry_space_group_name_H-M   'P 1'
_cell_length_a   5.19482182
_cell_length_b   5.19482182
_cell_length_c   4.13807167
_cell_angle_alpha   90.00000000
_cell_angle_beta   90.00000000
_cell_angle_gamma   117.22184231
_symmetry_Int_Tables_number   1
_chemical_formula_structural   ThAl2Fe3
_chemical_formula_sum   'Th1 Al2 Fe3'
_cell_volume   99.30230124
_cell_formula_units_Z   1
loop_
 _symmetry_equiv_pos_site_id
 _symmetry_equiv_pos_as_xyz
  1  'x, y, z'
loop_
 _atom_site_type_symbol
 _atom_site_label
 _atom_site_symmetry_multiplicity
 _atom_site_fract_x
 _atom_site_fract_y
 _atom_site_fract_z
 _atom_site_occupancy
  Th  Th0  1  0.50000000  0.50000000  -0.00000000  1
  Al  Al0  1  -0.00000000  0.50000000  0.50000000  1
  Al  Al1  1  0.50000000  0.00000000  0.50000000  1
  Fe  Fe0  1  0.15826446  0.84173554  -0.00000000  1
  Fe  Fe1  1  0.84173554  0.15826446  0.00000000  1
  Fe  Fe2  1  -0.00000000  0.00000000  0.50000000  1
loop_
_geom_bond_atom_site_label_1
_geom_bond_atom_site_label_2
_geom_bond_distance
_geom_bond_site_symmetry_2
Al0 Fe2 2.597411 1_555
Al0 Fe2 2.597411 1_565
Al0 Fe0 2.602516 1_555
Al0 Fe0 2.602516 1_556
Al0 Fe1 2.602516 1_456
Al0 Fe1 2.602516 1_455
Al0 Al1 2.705707 1_565
Al0 Al1 2.705707 1_455
Al0 Th0 3.320761 1_555
Al0 Th0 3.320761 1_556
Al0 Th0 3.320761 1_455
Al0 Th0 3.320761 1_456
Al1 Fe2 2.597411 1_555
Al1 Fe2 2.597411 1_655
Al1 Fe1 2.602516 1_556
Al1 Fe0 2.602516 1_546
Al1 Fe0 2.602516 1_545
Al1 Fe1 2.602516 1_555
Al1 Th0 3.320761 1_555
Al1 Th0 3.320761 1_545
Al1 Th0 3.320761 1_546
Al1 Th0 3.320761 1_556
Fe0 Fe2 2.500238 1_564
Fe0 Fe2 2.500238 1_565
Fe0 Th0 3.030894 1_555
Fe0 Th0 3.048135 1_565
Fe0 Th0 3.048135 1_455
Fe1 Fe2 2.500238 1_655
Fe1 Fe2 2.500238 1_654
Fe1 Th0 3.030894 1_555
Fe1 Th0 3.048135 1_655
Fe1 Th0 3.048135 1_545
Fe2 Th0 3.406136 1_446
Fe2 Th0 3.406136 1_556
Fe2 Th0 3.406136 1_555
Fe2 Th0 3.406136 1_445
