# generated using pymatgen
data_Ca4Mn3AlO10
_symmetry_space_group_name_H-M   'P 1'
_cell_length_a   10.95302787
_cell_length_b   15.44194420
_cell_length_c   10.86632322
_cell_angle_alpha   89.91279386
_cell_angle_beta   90.49287572
_cell_angle_gamma   89.88121999
_symmetry_Int_Tables_number   1
_chemical_formula_structural   Ca4Mn3AlO10
_chemical_formula_sum   'Ca32 Mn24 Al8 O80'
_cell_volume   1837.81280723
_cell_formula_units_Z   8
loop_
 _symmetry_equiv_pos_site_id
 _symmetry_equiv_pos_as_xyz
  1  'x, y, z'
loop_
 _atom_site_type_symbol
 _atom_site_label
 _atom_site_symmetry_multiplicity
 _atom_site_fract_x
 _atom_site_fract_y
 _atom_site_fract_z
 _atom_site_occupancy
  Ca  Ca0  1  0.02038376  0.12832251  0.48378203  1
  Ca  Ca1  1  0.02507984  0.12305862  0.00034760  1
  Ca  Ca2  1  -0.00042406  0.60781823  0.51775771  1
  Ca  Ca3  1  0.01895230  0.61060204  0.97764946  1
  Ca  Ca4  1  0.50773551  0.12636538  0.51249826  1
  Ca  Ca5  1  0.52205762  0.11800698  0.97529789  1
  Ca  Ca6  1  0.53131866  0.62232057  0.49479319  1
  Ca  Ca7  1  0.54406248  0.62796313  0.00235279  1
  Ca  Ca8  1  0.49055635  0.36319103  0.01251414  1
  Ca  Ca9  1  0.47207362  0.38620916  0.50720399  1
  Ca  Ca10  1  0.50027178  0.87236364  0.98608647  1
  Ca  Ca11  1  0.48930491  0.87140060  0.49866190  1
  Ca  Ca12  1  0.97114851  0.38153947  0.00175016  1
  Ca  Ca13  1  0.98727475  0.38201301  0.50705431  1
  Ca  Ca14  1  0.98574432  0.86963307  0.00564092  1
  Ca  Ca15  1  0.96199000  0.88133094  0.52145642  1
  Ca  Ca16  1  0.25597572  0.39310842  0.26270513  1
  Ca  Ca17  1  0.24329604  0.38535285  0.75096933  1
  Ca  Ca18  1  0.23022078  0.89799401  0.25548347  1
  Ca  Ca19  1  0.24535498  0.88697316  0.78457519  1
  Ca  Ca20  1  0.73781051  0.39102917  0.24922661  1
  Ca  Ca21  1  0.71318169  0.38514604  0.75340008  1
  Ca  Ca22  1  0.73681541  0.86577884  0.24081866  1
  Ca  Ca23  1  0.72136498  0.87391990  0.74599818  1
  Ca  Ca24  1  0.26332660  0.12583669  0.27031569  1
  Ca  Ca25  1  0.27942593  0.12412309  0.74871424  1
  Ca  Ca26  1  0.27715411  0.61778921  0.26239793  1
  Ca  Ca27  1  0.25025931  0.61734931  0.73207200  1
  Ca  Ca28  1  0.73434767  0.11294825  0.23877877  1
  Ca  Ca29  1  0.71185481  0.11140683  0.73124564  1
  Ca  Ca30  1  0.76452931  0.61927269  0.25614522  1
  Ca  Ca31  1  0.77680555  0.62249534  0.75790440  1
  Mn  Mn0  1  0.99970422  0.00931473  0.25136303  1
  Mn  Mn1  1  0.99890711  0.99703384  0.74960317  1
  Mn  Mn2  1  0.99735123  0.48583587  0.24870471  1
  Mn  Mn3  1  0.00461178  0.49451031  0.75394469  1
  Mn  Mn4  1  0.49980270  0.50337315  0.24360969  1
  Mn  Mn5  1  0.50041385  0.50375546  0.74266316  1
  Mn  Mn6  1  0.25281672  0.99894811  0.00713461  1
  Mn  Mn7  1  0.24677967  0.50307660  0.50022679  1
  Mn  Mn8  1  0.74505477  0.99575438  0.00290394  1
  Mn  Mn9  1  0.72557245  0.00013317  0.50372718  1
  Mn  Mn10  1  0.74779155  0.49951537  0.00100364  1
  Mn  Mn11  1  0.75242728  0.49412965  0.50111434  1
  Mn  Mn12  1  0.26237640  0.73872922  0.98775927  1
  Mn  Mn13  1  0.24538794  0.75892544  0.46274974  1
  Mn  Mn14  1  0.74683649  0.24259773  0.98764804  1
  Mn  Mn15  1  0.75260409  0.25049561  0.49669471  1
  Mn  Mn16  1  0.76324020  0.74997952  0.00538246  1
  Mn  Mn17  1  0.75860298  0.74709499  0.50589328  1
  Mn  Mn18  1  0.98902859  0.25106182  0.76289683  1
  Mn  Mn19  1  0.00021970  0.76560009  0.27281363  1
  Mn  Mn20  1  0.00326553  0.75071273  0.76148826  1
  Mn  Mn21  1  0.49167004  0.25181284  0.74892587  1
  Mn  Mn22  1  0.51166618  0.74775286  0.25685831  1
  Mn  Mn23  1  0.50933549  0.74466289  0.75712864  1
  Al  Al0  1  0.49973504  0.98085748  0.23381692  1
  Al  Al1  1  0.48170321  0.99116516  0.74772919  1
  Al  Al2  1  0.22984482  0.00176454  0.52211343  1
  Al  Al3  1  0.23307062  0.49484991  0.01977835  1
  Al  Al4  1  0.23753113  0.25743284  0.97253177  1
  Al  Al5  1  0.27806779  0.24438709  0.48217398  1
  Al  Al6  1  0.04693678  0.23844222  0.24253232  1
  Al  Al7  1  0.52345818  0.26232216  0.27172666  1
  O  O0  1  0.54962355  0.23098388  0.11885460  1
  O  O1  1  0.59913561  0.26926170  0.60794719  1
  O  O2  1  0.61208699  0.77512060  0.10792597  1
  O  O3  1  0.60056119  0.76794308  0.60727501  1
  O  O4  1  0.40374479  0.21984524  0.36620367  1
  O  O5  1  0.38130429  0.22349514  0.91018401  1
  O  O6  1  0.41067734  0.72673769  0.39660360  1
  O  O7  1  0.41887416  0.72798649  0.91325027  1
  O  O8  1  0.95557859  0.14173718  0.25327617  1
  O  O9  1  0.91091642  0.23645281  0.93258420  1
  O  O10  1  0.92346944  0.72980782  0.41792786  1
  O  O11  1  0.91634734  0.73430824  0.92294457  1
  O  O12  1  0.13840601  0.23056180  0.37770279  1
  O  O13  1  0.14241886  0.21541443  0.85354367  1
  O  O14  1  0.16978157  0.74940105  0.28147354  1
  O  O15  1  0.16781352  0.73841312  0.82905993  1
  O  O16  1  0.66948476  0.24048300  0.33637338  1
  O  O17  1  0.63866134  0.23486409  0.84502616  1
  O  O18  1  0.66631543  0.73224671  0.35867894  1
  O  O19  1  0.66542331  0.73644488  0.85899254  1
  O  O20  1  0.34572500  0.26263148  0.64037908  1
  O  O21  1  0.91772560  0.24336627  0.59031915  1
  O  O22  1  0.87401892  0.76727680  0.15470323  1
  O  O23  1  0.86364299  0.77669794  0.65046532  1
  O  O24  1  0.35813541  0.48716489  0.12981306  1
  O  O25  1  0.35579710  0.48526046  0.64631050  1
  O  O26  1  0.35738880  0.01811836  0.17066834  1
  O  O27  1  0.33586038  0.98940535  0.65462273  1
  O  O28  1  0.85301677  0.49364711  0.14989124  1
  O  O29  1  0.85824883  0.47414217  0.64183756  1
  O  O30  1  0.84841912  0.98702223  0.15908076  1
  O  O31  1  0.84118434  0.99086853  0.65197717  1
  O  O32  1  0.14147311  0.02830816  0.35799844  1
  O  O33  1  0.13916884  0.02801079  0.86669259  1
  O  O34  1  0.14135824  0.50886620  0.34550951  1
  O  O35  1  0.18316745  0.51451586  0.86479750  1
  O  O36  1  0.58113364  0.03101879  0.35742820  1
  O  O37  1  0.63853341  0.00417543  0.85618943  1
  O  O38  1  0.64156204  0.51619669  0.34881197  1
  O  O39  1  0.63882873  0.52214513  0.85304018  1
  O  O40  1  0.39062088  0.00947479  0.89751889  1
  O  O41  1  0.38645834  0.51908332  0.39506750  1
  O  O42  1  0.89737176  0.51307391  0.38990007  1
  O  O43  1  0.89530077  0.50714309  0.89492265  1
  O  O44  1  0.09376543  0.48592120  0.10315550  1
  O  O45  1  0.10824941  0.48280754  0.60784015  1
  O  O46  1  0.10766111  0.99648844  0.10217639  1
  O  O47  1  0.08232386  0.00387543  0.58957867  1
  O  O48  1  0.60520202  0.48161496  0.09780711  1
  O  O49  1  0.61254268  0.47515812  0.59951325  1
  O  O50  1  0.59732659  0.98310374  0.10963146  1
  O  O51  1  0.58164258  0.98553924  0.61382036  1
  O  O52  1  0.97995706  0.34071502  0.22971403  1
  O  O53  1  0.02615426  0.37489600  0.78364038  1
  O  O54  1  0.00872429  0.89158440  0.30146230  1
  O  O55  1  0.02882169  0.87278312  0.78673617  1
  O  O56  1  0.49177053  0.37436206  0.27691754  1
  O  O57  1  0.49139442  0.37858107  0.79682927  1
  O  O58  1  0.47372176  0.87244572  0.27708895  1
  O  O59  1  0.47553240  0.86829452  0.77239501  1
  O  O60  1  0.49521133  0.12503521  0.72672562  1
  O  O61  1  0.48956520  0.62912111  0.20545324  1
  O  O62  1  0.47167118  0.62763742  0.71035452  1
  O  O63  1  0.99595882  0.62428623  0.73177498  1
  O  O64  1  0.16223588  0.21618087  0.11535832  1
  O  O65  1  0.26733592  0.12242318  0.51622842  1
  O  O66  1  0.22687532  0.62762377  0.04788970  1
  O  O67  1  0.20573514  0.64591875  0.53053915  1
  O  O68  1  0.74873862  0.12064328  0.02417616  1
  O  O69  1  0.74219668  0.12498230  0.51203224  1
  O  O70  1  0.75145007  0.62927941  0.03927220  1
  O  O71  1  0.75158268  0.61929156  0.54153660  1
  O  O72  1  0.25883836  0.36146377  0.46742299  1
  O  O73  1  0.25508650  0.37004414  0.99059143  1
  O  O74  1  0.26695646  0.89024603  0.46824922  1
  O  O75  1  0.26537486  0.86173122  0.01149558  1
  O  O76  1  0.77836745  0.36938806  0.45839093  1
  O  O77  1  0.75087671  0.36460457  0.99187068  1
  O  O78  1  0.75939319  0.88446912  0.45468912  1
  O  O79  1  0.78287730  0.87911076  0.96111183  1
loop_
_geom_bond_atom_site_label_1
_geom_bond_atom_site_label_2
_geom_bond_distance
_geom_bond_site_symmetry_2
Ca0 O47 2.334373 1_555
Ca0 O12 2.349650 1_555
Ca0 O21 2.404336 1_455
Ca0 O32 2.457958 1_555
Ca0 O8 2.605330 1_455
Ca0 O65 2.726064 1_555
Ca0 O69 3.065574 1_455
Ca1 O9 2.267826 1_454
Ca1 O46 2.414829 1_545
Ca1 O33 2.419743 1_554
Ca1 O64 2.422524 1_555
Ca1 O13 2.503271 1_554
Ca1 O8 2.872963 1_455
Ca1 O68 3.040347 1_455
Ca2 O42 2.304371 1_455
Ca2 O10 2.322044 1_455
Ca2 O67 2.337664 1_555
Ca2 O63 2.340493 1_455
Ca2 O45 2.462955 1_555
Ca2 O71 2.736153 1_455
Ca2 O34 2.880731 1_555
Ca2 O29 2.918176 1_455
Ca3 O43 2.277525 1_455
Ca3 O11 2.289459 1_455
Ca3 O66 2.410668 1_556
Ca3 O44 2.490876 1_556
Ca3 O35 2.640622 1_555
Ca3 O63 2.689390 1_455
Ca4 O60 2.333141 1_555
Ca4 O36 2.383148 1_555
Ca4 O4 2.421408 1_555
Ca4 O51 2.562536 1_545
Ca4 O69 2.568153 1_555
Ca4 O65 2.634592 1_555
Ca4 O1 2.635392 1_555
Ca5 O5 2.344814 1_555
Ca5 O0 2.360188 1_556
Ca5 O40 2.364114 1_555
Ca5 O37 2.533483 1_555
Ca5 O68 2.534968 1_556
Ca5 O17 2.631370 1_555
Ca5 O50 2.667010 1_546
Ca5 O60 2.716489 1_555
Ca6 O6 2.333664 1_555
Ca6 O62 2.438628 1_555
Ca6 O71 2.461502 1_555
Ca6 O41 2.493868 1_555
Ca6 O38 2.586992 1_555
Ca6 O3 2.669315 1_555
Ca6 O49 2.686412 1_555
Ca6 O18 2.701066 1_555
Ca7 O7 2.273122 1_554
Ca7 O61 2.291291 1_555
Ca7 O70 2.303412 1_555
Ca7 O39 2.531782 1_554
Ca7 O48 2.570233 1_555
Ca7 O2 2.652400 1_555
Ca7 O19 2.652696 1_554
Ca8 O57 2.355458 1_554
Ca8 O48 2.403041 1_555
Ca8 O0 2.428201 1_555
Ca8 O73 2.589974 1_554
Ca8 O5 2.704978 1_554
Ca8 O24 2.724143 1_555
Ca8 O77 2.862155 1_554
Ca8 O56 2.878447 1_555
Ca9 O49 2.290488 1_555
Ca9 O72 2.403040 1_555
Ca9 O25 2.505685 1_555
Ca9 O56 2.520391 1_555
Ca9 O1 2.520687 1_555
Ca9 O41 2.557131 1_555
Ca9 O20 2.772702 1_555
Ca10 O59 2.336436 1_555
Ca10 O2 2.337960 1_556
Ca10 O50 2.417960 1_556
Ca10 O7 2.528489 1_555
Ca10 O75 2.595475 1_556
Ca10 O40 2.610520 1_565
Ca10 O37 2.910238 1_565
Ca11 O3 2.321987 1_555
Ca11 O51 2.384864 1_555
Ca11 O58 2.412288 1_555
Ca11 O74 2.471425 1_555
Ca11 O6 2.638342 1_555
Ca11 O59 2.979909 1_555
Ca12 O44 2.367470 1_655
Ca12 O43 2.401969 1_554
Ca12 O77 2.428786 1_554
Ca12 O53 2.452692 1_654
Ca12 O9 2.454040 1_554
Ca12 O52 2.556125 1_555
Ca12 O28 2.701373 1_555
Ca13 O45 2.316567 1_655
Ca13 O76 2.352591 1_555
Ca13 O21 2.448557 1_555
Ca13 O29 2.489942 1_555
Ca13 O42 2.578470 1_555
Ca14 O79 2.274380 1_554
Ca14 O11 2.398450 1_554
Ca14 O55 2.429445 1_654
Ca14 O22 2.579477 1_555
Ca14 O46 2.591103 1_655
Ca14 O30 2.892985 1_555
Ca14 O75 3.065087 1_655
Ca15 O78 2.329087 1_555
Ca15 O23 2.400511 1_555
Ca15 O47 2.421538 1_665
Ca15 O54 2.453966 1_655
Ca15 O31 2.579484 1_555
Ca15 O10 2.631015 1_555
Ca16 O72 2.276781 1_555
Ca16 O24 2.339873 1_555
Ca16 O34 2.365571 1_555
Ca16 O56 2.601484 1_555
Ca16 O41 2.807152 1_555
Ca16 O44 2.854013 1_555
Ca17 O25 2.284408 1_555
Ca17 O53 2.413431 1_555
Ca17 O35 2.440874 1_555
Ca17 O20 2.513033 1_555
Ca17 O45 2.610675 1_555
Ca17 O73 2.616220 1_555
Ca17 O57 2.760263 1_555
Ca18 O74 2.346151 1_555
Ca18 O14 2.406358 1_555
Ca18 O54 2.483318 1_555
Ca18 O32 2.500502 1_565
Ca18 O26 2.501589 1_565
Ca18 O46 2.614542 1_555
Ca18 O58 2.703446 1_555
Ca18 O75 2.740829 1_555
Ca19 O27 2.345732 1_555
Ca19 O55 2.382562 1_555
Ca19 O15 2.495887 1_555
Ca19 O75 2.503508 1_556
Ca19 O59 2.541594 1_555
Ca19 O33 2.627818 1_565
Ca19 O40 2.757203 1_565
Ca20 O28 2.301076 1_555
Ca20 O76 2.335497 1_555
Ca20 O38 2.456774 1_555
Ca20 O48 2.591729 1_555
Ca20 O16 2.621805 1_555
Ca20 O56 2.726860 1_555
Ca20 O52 2.772112 1_555
Ca20 O77 2.831534 1_554
Ca21 O49 2.428605 1_555
Ca21 O29 2.433113 1_555
Ca21 O57 2.480886 1_555
Ca21 O39 2.515153 1_555
Ca21 O77 2.639026 1_555
Ca21 O17 2.656636 1_555
Ca21 O1 2.691584 1_555
Ca22 O22 2.338101 1_555
Ca22 O78 2.353256 1_555
Ca22 O30 2.410706 1_555
Ca22 O2 2.427271 1_555
Ca22 O18 2.550273 1_555
Ca22 O50 2.755340 1_555
Ca22 O58 2.913486 1_555
Ca23 O23 2.404773 1_555
Ca23 O79 2.428567 1_555
Ca23 O31 2.460641 1_555
Ca23 O37 2.514159 1_565
Ca23 O19 2.529830 1_555
Ca23 O3 2.585213 1_555
Ca23 O51 2.705470 1_555
Ca23 O59 2.711855 1_555
Ca24 O32 2.232288 1_555
Ca24 O26 2.240158 1_555
Ca24 O4 2.354733 1_555
Ca24 O12 2.423435 1_555
Ca24 O64 2.441697 1_555
Ca24 O65 2.672588 1_555
Ca25 O13 2.358458 1_555
Ca25 O60 2.377663 1_555
Ca25 O27 2.401484 1_545
Ca25 O33 2.498762 1_555
Ca25 O65 2.528776 1_555
Ca25 O20 2.549756 1_555
Ca25 O5 2.580704 1_555
Ca25 O40 2.679673 1_555
Ca26 O14 2.356279 1_555
Ca26 O66 2.394994 1_555
Ca26 O41 2.406426 1_555
Ca26 O61 2.419183 1_555
Ca26 O34 2.426074 1_555
Ca26 O24 2.637134 1_555
Ca26 O6 2.660250 1_555
Ca27 O35 2.271068 1_555
Ca27 O67 2.281667 1_555
Ca27 O15 2.331615 1_555
Ca27 O62 2.444078 1_555
Ca27 O25 2.525798 1_555
Ca27 O63 2.787171 1_455
Ca27 O45 2.922997 1_555
Ca28 O68 2.341468 1_555
Ca28 O16 2.349761 1_555
Ca28 O8 2.468240 1_555
Ca28 O30 2.471029 1_545
Ca28 O36 2.473890 1_555
Ca28 O50 2.868246 1_545
Ca28 O0 3.007691 1_555
Ca29 O37 2.290754 1_555
Ca29 O60 2.381860 1_555
Ca29 O17 2.413226 1_555
Ca29 O69 2.416798 1_555
Ca29 O31 2.495616 1_545
Ca29 O51 2.725380 1_545
Ca30 O38 2.321382 1_555
Ca30 O18 2.336824 1_555
Ca30 O70 2.364532 1_555
Ca30 O28 2.460475 1_555
Ca30 O42 2.620178 1_555
Ca30 O22 2.811240 1_555
Ca30 O10 3.000564 1_555
Ca31 O71 2.365541 1_555
Ca31 O39 2.405326 1_555
Ca31 O19 2.410639 1_555
Ca31 O63 2.419760 1_555
Ca31 O43 2.650145 1_555
Ca31 O29 2.766614 1_555
Ca31 O23 2.820944 1_555
Ca31 O11 2.916611 1_555
Mn0 O54 1.899082 1_645
Mn0 O32 1.952393 1_655
Mn0 O30 1.960771 1_545
Mn0 O46 2.024454 1_645
Mn0 O8 2.100399 1_555
Mn1 O47 1.974036 1_665
Mn1 O55 1.986010 1_655
Mn1 O31 2.021954 1_555
Mn1 O33 2.044285 1_665
Mn2 O28 1.906913 1_555
Mn2 O44 1.909277 1_655
Mn2 O34 1.922454 1_655
Mn2 O42 1.938831 1_555
Mn2 O52 2.259033 1_555
Mn3 O53 1.888535 1_555
Mn3 O43 1.962091 1_455
Mn3 O45 1.967937 1_555
Mn3 O63 2.019988 1_455
Mn3 O29 2.030409 1_455
Mn3 O35 2.309626 1_555
Mn4 O38 1.930885 1_555
Mn4 O61 1.987685 1_555
Mn4 O24 1.992228 1_555
Mn4 O48 1.996805 1_555
Mn4 O56 2.026476 1_555
Mn4 O41 2.084185 1_555
Mn5 O25 1.913389 1_555
Mn5 O39 1.946578 1_555
Mn5 O62 1.968606 1_555
Mn5 O57 2.022564 1_555
Mn5 O49 2.038552 1_555
Mn6 O46 1.903724 1_555
Mn6 O40 1.937719 1_564
Mn6 O33 2.010664 1_564
Mn6 O75 2.123501 1_555
Mn6 O26 2.127272 1_565
Mn7 O41 1.933453 1_555
Mn7 O45 1.949110 1_555
Mn7 O25 1.996499 1_555
Mn7 O34 2.033092 1_555
Mn7 O72 2.220020 1_555
Mn7 O67 2.275220 1_555
Mn8 O79 1.903896 1_554
Mn8 O68 1.943141 1_565
Mn8 O37 1.971430 1_564
Mn8 O50 2.008534 1_555
Mn8 O30 2.036076 1_555
Mn9 O78 1.901261 1_545
Mn9 O69 1.939034 1_555
Mn9 O51 2.000072 1_545
Mn9 O31 2.045125 1_545
Mn9 O36 2.282294 1_555
Mn10 O48 1.910823 1_555
Mn10 O28 1.980167 1_555
Mn10 O43 1.996354 1_554
Mn10 O39 2.023640 1_554
Mn10 O70 2.047526 1_555
Mn10 O77 2.086016 1_554
Mn11 O49 1.898866 1_555
Mn11 O29 1.934830 1_555
Mn11 O71 1.982699 1_555
Mn11 O76 2.002354 1_555
Mn11 O42 2.024919 1_555
Mn11 O38 2.071611 1_555
Mn12 O66 1.877611 1_556
Mn12 O7 1.909021 1_555
Mn12 O75 1.917522 1_556
Mn12 O15 2.003982 1_555
Mn13 O67 1.944519 1_555
Mn13 O6 2.015201 1_555
Mn13 O74 2.042951 1_555
Mn13 O14 2.135619 1_555
Mn14 O77 1.885253 1_555
Mn14 O9 1.901265 1_555
Mn14 O68 1.924032 1_556
Mn14 O17 1.946659 1_555
Mn14 O0 2.604732 1_556
Mn15 O76 1.904036 1_555
Mn15 O69 1.948726 1_555
Mn15 O16 1.965144 1_555
Mn15 O21 2.070089 1_555
Mn15 O1 2.098812 1_555
Mn16 O70 1.904188 1_555
Mn16 O19 1.922127 1_554
Mn16 O11 1.923050 1_554
Mn16 O22 2.035954 1_555
Mn16 O2 2.040508 1_555
Mn16 O79 2.062645 1_554
Mn17 O18 1.899362 1_555
Mn17 O23 1.993448 1_555
Mn17 O71 2.012355 1_555
Mn17 O10 2.067431 1_555
Mn17 O3 2.084546 1_555
Mn17 O78 2.192313 1_555
Mn18 O53 1.968702 1_655
Mn18 O13 2.015433 1_655
Mn18 O21 2.028945 1_555
Mn18 O9 2.051693 1_555
Mn19 O14 1.875013 1_555
Mn19 O10 1.876361 1_455
Mn19 O22 1.878239 1_455
Mn19 O54 1.972925 1_555
Mn20 O55 1.925955 1_555
Mn20 O15 1.949070 1_555
Mn20 O23 1.979749 1_455
Mn20 O63 1.980943 1_455
Mn20 O11 2.019143 1_455
Mn21 O17 1.928618 1_555
Mn21 O1 1.958561 1_555
Mn21 O60 1.973207 1_555
Mn21 O20 1.985025 1_555
Mn21 O57 2.026342 1_555
Mn21 O5 2.181583 1_555
Mn22 O6 1.914059 1_555
Mn22 O61 1.931092 1_555
Mn22 O58 1.981956 1_555
Mn22 O2 2.009458 1_555
Mn22 O18 2.028788 1_555
Mn23 O62 1.922605 1_555
Mn23 O3 1.951123 1_555
Mn23 O59 1.951513 1_555
Mn23 O7 1.988643 1_555
Mn23 O19 2.032306 1_555
Al0 O50 1.729050 1_555
Al0 O58 1.762593 1_555
Al0 O36 1.784512 1_565
Al0 O26 1.791496 1_565
Al1 O51 1.830432 1_555
Al1 O27 1.883756 1_555
Al1 O59 1.917207 1_555
Al1 O40 1.937177 1_565
Al1 O37 2.085046 1_565
Al1 O60 2.085130 1_565
Al2 O47 1.780321 1_555
Al2 O27 1.851364 1_545
Al2 O74 1.864825 1_545
Al2 O65 1.909844 1_555
Al2 O32 2.061940 1_555
Al3 O44 1.786682 1_555
Al3 O35 1.791368 1_554
Al3 O24 1.814081 1_555
Al3 O73 1.968312 1_554
Al3 O66 2.074434 1_555
Al4 O73 1.761012 1_555
Al4 O13 1.777700 1_555
Al4 O5 1.797079 1_555
Al4 O64 1.875053 1_556
Al5 O72 1.826331 1_555
Al5 O20 1.887931 1_555
Al5 O12 1.909595 1_555
Al5 O4 1.911978 1_555
Al5 O65 1.922847 1_555
Al6 O52 1.744862 1_455
Al6 O12 1.774702 1_555
Al6 O8 1.803493 1_455
Al6 O64 1.911120 1_555
Al7 O0 1.756651 1_555
Al7 O56 1.764959 1_555
Al7 O16 1.772878 1_555
Al7 O4 1.796710 1_555
