# generated using pymatgen
data_CdH3Cl3O
_symmetry_space_group_name_H-M   'P 1'
_cell_length_a   4.07502600
_cell_length_b   8.49162200
_cell_length_c   15.74793800
_cell_angle_alpha   90.00000000
_cell_angle_beta   90.00000000
_cell_angle_gamma   90.00000000
_symmetry_Int_Tables_number   1
_chemical_formula_structural   CdH3Cl3O
_chemical_formula_sum   'Cd4 H12 Cl12 O4'
_cell_volume   544.93503922
_cell_formula_units_Z   4
loop_
 _symmetry_equiv_pos_site_id
 _symmetry_equiv_pos_as_xyz
  1  'x, y, z'
loop_
 _atom_site_type_symbol
 _atom_site_label
 _atom_site_symmetry_multiplicity
 _atom_site_fract_x
 _atom_site_fract_y
 _atom_site_fract_z
 _atom_site_occupancy
  Cd  Cd0  1  0.25000000  0.82565700  0.55277600  1
  Cd  Cd1  1  0.25000000  0.32565700  0.94722400  1
  Cd  Cd2  1  0.75000000  0.17434300  0.44722400  1
  Cd  Cd3  1  0.75000000  0.67434300  0.05277600  1
  H  H0  1  0.95313700  0.50970200  0.68815100  1
  H  H1  1  0.54686300  0.00970200  0.81184900  1
  H  H2  1  0.45313700  0.49029800  0.31184900  1
  H  H3  1  0.04686300  0.99029800  0.18815100  1
  H  H4  1  0.04686300  0.49029800  0.31184900  1
  H  H5  1  0.45313700  0.99029800  0.18815100  1
  H  H6  1  0.54686300  0.50970200  0.68815100  1
  H  H7  1  0.95313700  0.00970200  0.81184900  1
  H  H8  1  0.75000000  0.33338700  0.68160400  1
  H  H9  1  0.75000000  0.83338700  0.81839600  1
  H  H10  1  0.25000000  0.66661300  0.31839600  1
  H  H11  1  0.25000000  0.16661300  0.18160400  1
  Cl  Cl0  1  0.25000000  0.67731800  0.71069600  1
  Cl  Cl1  1  0.25000000  0.17731800  0.78930400  1
  Cl  Cl2  1  0.75000000  0.32268200  0.28930400  1
  Cl  Cl3  1  0.75000000  0.82268200  0.21069600  1
  Cl  Cl4  1  0.75000000  0.67043300  0.49589300  1
  Cl  Cl5  1  0.75000000  0.17043300  0.00410700  1
  Cl  Cl6  1  0.25000000  0.32956700  0.50410700  1
  Cl  Cl7  1  0.25000000  0.82956700  0.99589300  1
  Cl  Cl8  1  0.75000000  0.02186400  0.60407300  1
  Cl  Cl9  1  0.75000000  0.52186400  0.89592700  1
  Cl  Cl10  1  0.25000000  0.97813600  0.39592700  1
  Cl  Cl11  1  0.25000000  0.47813600  0.10407300  1
  O  O0  1  0.75000000  0.44660400  0.66755900  1
  O  O1  1  0.75000000  0.94660400  0.83244100  1
  O  O2  1  0.25000000  0.55339600  0.33244100  1
  O  O3  1  0.25000000  0.05339600  0.16755900  1
loop_
_geom_bond_atom_site_label_1
_geom_bond_atom_site_label_2
_geom_bond_distance
_geom_bond_site_symmetry_2
Cd0 Cl4 2.586754 1_555
Cd0 Cl4 2.586754 1_455
Cd0 Cl8 2.753176 1_565
Cd0 Cl8 2.753176 1_465
Cd0 Cl0 2.787729 1_555
Cd0 Cl10 2.788840 1_555
Cd1 Cl5 2.586754 1_456
Cd1 Cl5 2.586754 1_556
Cd1 Cl9 2.753176 1_455
Cd1 Cl9 2.753176 1_555
Cd1 Cl1 2.787729 1_555
Cd1 Cl11 2.788840 1_556
Cd2 Cl6 2.586754 1_655
Cd2 Cl6 2.586754 1_555
Cd2 Cl10 2.753176 1_645
Cd2 Cl10 2.753176 1_545
Cd2 Cl2 2.787729 1_555
Cd2 Cl8 2.788840 1_555
Cd3 Cl7 2.586754 1_554
Cd3 Cl7 2.586754 1_654
Cd3 Cl11 2.753176 1_655
Cd3 Cl11 2.753176 1_555
Cd3 Cl3 2.787729 1_555
Cd3 Cl9 2.788840 1_554
H0 O0 1.038017 1_555
H1 O1 1.038017 1_545
H2 O2 1.038017 1_555
H3 O3 1.038017 1_565
H4 O2 1.038017 1_555
H5 O3 1.038017 1_565
H6 O0 1.038017 1_555
H7 O1 1.038017 1_545
H8 O0 0.986510 1_555
H9 O1 0.986510 1_555
H10 O2 0.986510 1_555
H11 O3 0.986510 1_555
Cl0 H6 1.901409 1_555
Cl0 H0 1.901409 1_455
Cl1 H1 1.901409 1_555
Cl1 H7 1.901409 1_455
Cl2 H4 1.901409 1_655
Cl2 H2 1.901409 1_555
Cl3 H3 1.901409 1_655
Cl3 H5 1.901409 1_555
