# generated using pymatgen
data_NiMoP2O9
_symmetry_space_group_name_H-M   'P 1'
_cell_length_a   6.43940600
_cell_length_b   8.03409700
_cell_length_c   14.00968100
_cell_angle_alpha   90.00000000
_cell_angle_beta   90.00000000
_cell_angle_gamma   90.00000000
_symmetry_Int_Tables_number   1
_chemical_formula_structural   NiMoP2O9
_chemical_formula_sum   'Ni4 Mo4 P8 O36'
_cell_volume   724.78821869
_cell_formula_units_Z   4
loop_
 _symmetry_equiv_pos_site_id
 _symmetry_equiv_pos_as_xyz
  1  'x, y, z'
loop_
 _atom_site_type_symbol
 _atom_site_label
 _atom_site_symmetry_multiplicity
 _atom_site_fract_x
 _atom_site_fract_y
 _atom_site_fract_z
 _atom_site_occupancy
  Ni  Ni0  1  0.50000000  0.50000000  0.00000000  1
  Ni  Ni1  1  0.50000000  0.00000000  0.50000000  1
  Ni  Ni2  1  0.00000000  0.00000000  0.50000000  1
  Ni  Ni3  1  0.00000000  0.50000000  0.00000000  1
  Mo  Mo0  1  0.75000000  0.14521100  0.12522600  1
  Mo  Mo1  1  0.25000000  0.85478900  0.87477400  1
  Mo  Mo2  1  0.25000000  0.64521100  0.37477400  1
  Mo  Mo3  1  0.75000000  0.35478900  0.62522600  1
  P  P0  1  0.25000000  0.15940700  0.05679700  1
  P  P1  1  0.75000000  0.84059300  0.94320300  1
  P  P2  1  0.75000000  0.65940700  0.44320300  1
  P  P3  1  0.25000000  0.34059300  0.55679700  1
  P  P4  1  0.75000000  0.10538400  0.31760500  1
  P  P5  1  0.25000000  0.89461600  0.68239500  1
  P  P6  1  0.25000000  0.60538400  0.18239500  1
  P  P7  1  0.75000000  0.39461600  0.81760500  1
  O  O0  1  0.04946400  0.89810500  0.62611000  1
  O  O1  1  0.54946400  0.10189500  0.37389000  1
  O  O2  1  0.95053600  0.39810500  0.87389000  1
  O  O3  1  0.45053600  0.60189500  0.12611000  1
  O  O4  1  0.95053600  0.10189500  0.37389000  1
  O  O5  1  0.45053600  0.89810500  0.62611000  1
  O  O6  1  0.04946400  0.60189500  0.12611000  1
  O  O7  1  0.54946400  0.39810500  0.87389000  1
  O  O8  1  0.25000000  0.16374000  0.51847900  1
  O  O9  1  0.75000000  0.83626000  0.48152100  1
  O  O10  1  0.75000000  0.66374000  0.98152100  1
  O  O11  1  0.25000000  0.33626000  0.01847900  1
  O  O12  1  0.75000000  0.33620700  0.05969300  1
  O  O13  1  0.25000000  0.66379300  0.94030700  1
  O  O14  1  0.25000000  0.83620700  0.44030700  1
  O  O15  1  0.75000000  0.16379300  0.55969300  1
  O  O16  1  0.75000000  0.26624500  0.24638500  1
  O  O17  1  0.25000000  0.73375500  0.75361500  1
  O  O18  1  0.25000000  0.76624500  0.25361500  1
  O  O19  1  0.75000000  0.23375500  0.74638500  1
  O  O20  1  0.44270100  0.37246100  0.62020600  1
  O  O21  1  0.94270100  0.62753900  0.37979400  1
  O  O22  1  0.55729900  0.87246100  0.87979400  1
  O  O23  1  0.05729900  0.12753900  0.12020600  1
  O  O24  1  0.55729900  0.62753900  0.37979400  1
  O  O25  1  0.05729900  0.37246100  0.62020600  1
  O  O26  1  0.44270100  0.12753900  0.12020600  1
  O  O27  1  0.94270100  0.87246100  0.87979400  1
  O  O28  1  0.75000000  0.52464500  0.73122800  1
  O  O29  1  0.25000000  0.47535500  0.26877200  1
  O  O30  1  0.25000000  0.02464500  0.76877200  1
  O  O31  1  0.75000000  0.97535500  0.23122800  1
  O  O32  1  0.75000000  0.52611800  0.52305900  1
  O  O33  1  0.25000000  0.47388200  0.47694100  1
  O  O34  1  0.25000000  0.02611800  0.97694100  1
  O  O35  1  0.75000000  0.97388200  0.02305900  1
loop_
_geom_bond_atom_site_label_1
_geom_bond_atom_site_label_2
_geom_bond_distance
_geom_bond_site_symmetry_2
Ni0 O3 1.973084 1_555
Ni0 O7 1.973084 1_554
Ni0 O10 2.095040 1_554
Ni0 O11 2.095040 1_555
Ni0 O13 2.241128 1_554
Ni0 O12 2.241128 1_555
Ni1 O1 1.973084 1_555
Ni1 O5 1.973084 1_545
Ni1 O8 2.095040 1_555
Ni1 O9 2.095040 1_545
Ni1 O14 2.241128 1_545
Ni1 O15 2.241128 1_555
Ni2 O4 1.973084 1_455
Ni2 O0 1.973084 1_545
Ni2 O8 2.095040 1_555
Ni2 O9 2.095040 1_445
Ni2 O14 2.241128 1_545
Ni2 O15 2.241128 1_455
Ni3 O6 1.973084 1_555
Ni3 O2 1.973084 1_454
Ni3 O10 2.095040 1_454
Ni3 O11 2.095040 1_555
Ni3 O13 2.241128 1_554
Ni3 O12 2.241128 1_455
Mo0 O12 1.788164 1_555
Mo0 O16 1.956201 1_555
Mo0 O26 1.985156 1_555
Mo0 O23 1.985156 1_655
Mo0 O35 1.985794 1_545
Mo0 O31 2.016836 1_545
Mo1 O13 1.788164 1_555
Mo1 O17 1.956201 1_555
Mo1 O22 1.985156 1_555
Mo1 O27 1.985156 1_455
Mo1 O34 1.985794 1_565
Mo1 O30 2.016836 1_565
Mo2 O14 1.788164 1_555
Mo2 O18 1.956201 1_555
Mo2 O24 1.985156 1_555
Mo2 O21 1.985156 1_455
Mo2 O33 1.985794 1_555
Mo2 O29 2.016836 1_555
Mo3 O15 1.788164 1_555
Mo3 O19 1.956201 1_555
Mo3 O25 1.985156 1_655
Mo3 O20 1.985156 1_555
Mo3 O32 1.985794 1_555
Mo3 O28 2.016836 1_555
O0 P5 1.513312 1_555
O1 P4 1.513312 1_555
O2 P7 1.513312 1_555
O3 P6 1.513312 1_555
O4 P4 1.513312 1_555
O5 P5 1.513312 1_555
O6 P6 1.513312 1_555
O7 P7 1.513312 1_555
O8 P3 1.518883 1_555
O9 P2 1.518883 1_555
O10 P1 1.518883 1_555
O11 P0 1.518883 1_555
O16 P4 1.632719 1_555
O17 P5 1.632719 1_555
O18 P6 1.632719 1_555
O19 P7 1.632719 1_555
O20 P3 1.547412 1_555
O21 P2 1.547412 1_555
O22 P1 1.547412 1_555
O23 P0 1.547412 1_555
O24 P2 1.547412 1_555
O25 P3 1.547412 1_555
O26 P0 1.547412 1_555
O27 P1 1.547412 1_555
O28 P7 1.598657 1_555
O29 P6 1.598657 1_555
O30 P5 1.598657 1_545
O31 P4 1.598657 1_565
O32 P2 1.548661 1_555
O33 P3 1.548661 1_555
O34 P0 1.548661 1_556
O35 P1 1.548661 1_554
