# generated using pymatgen
data_Rb3DyV2O8
_symmetry_space_group_name_H-M   'P 1'
_cell_length_a   6.08471632
_cell_length_b   6.08471632
_cell_length_c   7.88796700
_cell_angle_alpha   90.00000000
_cell_angle_beta   90.00000000
_cell_angle_gamma   120.00000348
_symmetry_Int_Tables_number   1
_chemical_formula_structural   Rb3DyV2O8
_chemical_formula_sum   'Rb3 Dy1 V2 O8'
_cell_volume   252.91603950
_cell_formula_units_Z   1
loop_
 _symmetry_equiv_pos_site_id
 _symmetry_equiv_pos_as_xyz
  1  'x, y, z'
loop_
 _atom_site_type_symbol
 _atom_site_label
 _atom_site_symmetry_multiplicity
 _atom_site_fract_x
 _atom_site_fract_y
 _atom_site_fract_z
 _atom_site_occupancy
  Rb  Rb0  1  0.66666700  0.33333300  0.30885400  1
  Rb  Rb1  1  0.33333300  0.66666700  0.69114600  1
  Rb  Rb2  1  0.00000000  0.00000000  0.00000000  1
  Dy  Dy0  1  0.00000000  0.00000000  0.50000000  1
  V  V0  1  0.66666700  0.33333300  0.74768100  1
  V  V1  1  0.33333300  0.66666700  0.25231900  1
  O  O0  1  0.66666700  0.33333300  0.96048800  1
  O  O1  1  0.33333300  0.66666700  0.03951200  1
  O  O2  1  0.82472400  0.64944800  0.67022200  1
  O  O3  1  0.17527600  0.35055200  0.32977800  1
  O  O4  1  0.82472400  0.17527600  0.67022200  1
  O  O5  1  0.17527600  0.82472400  0.32977800  1
  O  O6  1  0.35055200  0.17527600  0.67022200  1
  O  O7  1  0.64944800  0.82472400  0.32977800  1
loop_
_geom_bond_atom_site_label_1
_geom_bond_atom_site_label_2
_geom_bond_distance
_geom_bond_site_symmetry_2
Dy0 O7 2.283671 1_445
Dy0 O2 2.283671 1_445
Dy0 O3 2.283671 1_555
Dy0 O6 2.283671 1_555
Dy0 O5 2.283671 1_545
Dy0 O4 2.283671 1_455
O0 V0 1.678615 1_555
O0 Rb0 2.747900 1_556
O0 Rb2 3.526807 1_656
O0 Rb2 3.526813 1_556
O0 Rb2 3.526813 1_666
O1 V1 1.678615 1_555
O1 Rb1 2.747900 1_554
O1 Rb2 3.526807 1_565
O1 Rb2 3.526813 1_555
O1 Rb2 3.526813 1_665
O2 V0 1.774293 1_555
O2 Rb1 3.048180 1_655
O2 Rb1 3.048186 1_555
O2 Rb2 3.190446 1_666
O2 Rb0 3.301502 1_555
O3 V1 1.774293 1_555
O3 Rb0 3.048180 1_455
O3 Rb0 3.048186 1_555
O3 Rb2 3.190446 1_555
O3 Rb1 3.301502 1_555
O4 V0 1.774288 1_555
O4 Rb1 3.048182 1_545
O4 Rb1 3.048182 1_655
O4 Rb2 3.190446 1_656
O4 Rb0 3.301500 1_555
O5 V1 1.774288 1_555
O5 Rb0 3.048182 1_455
O5 Rb0 3.048182 1_565
O5 Rb2 3.190446 1_565
O5 Rb1 3.301500 1_555
O6 V0 1.774293 1_555
O6 Rb1 3.048180 1_545
O6 Rb1 3.048186 1_555
O6 Rb2 3.190446 1_556
O6 Rb0 3.301502 1_555
O7 V1 1.774293 1_555
O7 Rb0 3.048180 1_565
O7 Rb0 3.048186 1_555
O7 Rb2 3.190446 1_665
O7 Rb1 3.301502 1_555
