# generated using pymatgen
data_Al9Rh2
_symmetry_space_group_name_H-M   'P 1'
_cell_length_a   6.32186369
_cell_length_b   6.42180331
_cell_length_c   8.65777510
_cell_angle_alpha   90.00003105
_cell_angle_beta   95.22700587
_cell_angle_gamma   90.00000724
_symmetry_Int_Tables_number   1
_chemical_formula_structural   Al9Rh2
_chemical_formula_sum   'Al18 Rh4'
_cell_volume   350.02468877
_cell_formula_units_Z   2
loop_
 _symmetry_equiv_pos_site_id
 _symmetry_equiv_pos_as_xyz
  1  'x, y, z'
loop_
 _atom_site_type_symbol
 _atom_site_label
 _atom_site_symmetry_multiplicity
 _atom_site_fract_x
 _atom_site_fract_y
 _atom_site_fract_z
 _atom_site_occupancy
  Al  Al0  1  -0.00000000  0.50000000  0.50000000  1
  Al  Al1  1  -0.00000000  0.00000000  -0.00000000  1
  Al  Al2  1  0.78788430  0.39456786  0.96122061  1
  Al  Al3  1  0.21211570  0.89456786  0.53877839  1
  Al  Al4  1  0.59738402  0.47684085  0.23004081  1
  Al  Al5  1  0.40261598  0.97683985  0.26996119  1
  Al  Al6  1  0.40261598  0.52315915  0.76995919  1
  Al  Al7  1  0.59738402  0.02316015  0.73003881  1
  Al  Al8  1  0.61130581  0.69561412  0.50374699  1
  Al  Al9  1  0.38869419  0.19561412  0.99625301  1
  Al  Al10  1  0.38869419  0.30438588  0.49625301  1
  Al  Al11  1  0.61130581  0.80438588  0.00374699  1
  Al  Al12  1  0.90231909  0.78658964  0.27290445  1
  Al  Al13  1  0.09768191  0.28659064  0.22709655  1
  Al  Al14  1  0.09768091  0.21341036  0.72709555  1
  Al  Al15  1  0.90231809  0.71340936  0.77290345  1
  Al  Al16  1  0.78788430  0.10543214  0.46122161  1
  Al  Al17  1  0.21211570  0.60543214  0.03877939  1
  Rh  Rh0  1  0.73619241  0.37716791  0.66901131  1
  Rh  Rh1  1  0.26380659  0.87716691  0.83098569  1
  Rh  Rh2  1  0.26380759  0.62283209  0.33098869  1
  Rh  Rh3  1  0.73619341  0.12283309  0.16901431  1
loop_
_geom_bond_atom_site_label_1
_geom_bond_atom_site_label_2
_geom_bond_distance
_geom_bond_site_symmetry_2
Al0 Rh2 2.447325 1_555
Al0 Rh0 2.447325 1_455
Al1 Rh1 2.447339 1_544
Al1 Rh3 2.447339 1_455
Al2 Rh0 2.523677 1_555
Al2 Rh3 2.548635 1_556
Al3 Rh1 2.523660 1_555
Al3 Rh2 2.548614 1_555
Al4 Rh3 2.510359 1_555
Al4 Rh2 2.534909 1_555
Al5 Rh2 2.510360 1_555
Al5 Rh3 2.534916 1_565
Al6 Rh1 2.510359 1_555
Al6 Rh0 2.534909 1_555
Al7 Rh0 2.510360 1_555
Al7 Rh1 2.534916 1_545
Al8 Rh0 2.578135 1_555
Al8 Rh2 2.585146 1_555
Al9 Rh1 2.578154 1_545
Al9 Rh3 2.585164 1_556
Al10 Rh2 2.578135 1_555
Al10 Rh0 2.585146 1_555
Al11 Rh3 2.578154 1_565
Al11 Rh1 2.585164 1_554
Al12 Rh2 2.524264 1_655
Al12 Rh3 2.530299 1_565
Al13 Rh3 2.524261 1_455
Al13 Rh2 2.530292 1_555
Al14 Rh0 2.524264 1_455
Al14 Rh1 2.530299 1_545
Al15 Rh1 2.524261 1_655
Al15 Rh0 2.530292 1_555
Al16 Rh3 2.523660 1_555
Al16 Rh0 2.548614 1_555
Al17 Rh2 2.523677 1_555
Al17 Rh1 2.548635 1_554
