# generated using pymatgen
data_Dy13Mg7Co4
_symmetry_space_group_name_H-M   'P 1'
_cell_length_a   9.44463423
_cell_length_b   9.44463423
_cell_length_c   9.44463420
_cell_angle_alpha   60.42564566
_cell_angle_beta   60.42564566
_cell_angle_gamma   60.42564402
_symmetry_Int_Tables_number   1
_chemical_formula_structural   Dy13Mg7Co4
_chemical_formula_sum   'Dy13 Mg7 Co4'
_cell_volume   601.45090055
_cell_formula_units_Z   1
loop_
 _symmetry_equiv_pos_site_id
 _symmetry_equiv_pos_as_xyz
  1  'x, y, z'
loop_
 _atom_site_type_symbol
 _atom_site_label
 _atom_site_symmetry_multiplicity
 _atom_site_fract_x
 _atom_site_fract_y
 _atom_site_fract_z
 _atom_site_occupancy
  Dy  Dy0  1  0.18844800  0.18844800  0.81203600  1
  Dy  Dy1  1  0.81203600  0.18844800  0.18844800  1
  Dy  Dy2  1  0.18844800  0.81203600  0.18844800  1
  Dy  Dy3  1  0.80975500  0.80975500  0.18858400  1
  Dy  Dy4  1  0.18858400  0.80975500  0.80975500  1
  Dy  Dy5  1  0.80975500  0.18858400  0.80975500  1
  Dy  Dy6  1  0.34459900  0.34459900  0.34459900  1
  Dy  Dy7  1  0.34199000  0.96735900  0.34199000  1
  Dy  Dy8  1  0.96735900  0.34199000  0.34199000  1
  Dy  Dy9  1  0.34199000  0.34199000  0.96735900  1
  Dy  Dy10  1  0.56171900  0.56171900  0.94037600  1
  Dy  Dy11  1  0.94037600  0.56171900  0.56171900  1
  Dy  Dy12  1  0.56171900  0.94037600  0.56171900  1
  Mg  Mg0  1  0.58007300  0.58007300  0.58007300  1
  Mg  Mg1  1  0.58297200  0.25577700  0.58297200  1
  Mg  Mg2  1  0.25577700  0.58297200  0.58297200  1
  Mg  Mg3  1  0.58297200  0.58297200  0.25577700  1
  Mg  Mg4  1  0.93908000  0.93908000  0.55860900  1
  Mg  Mg5  1  0.55860900  0.93908000  0.93908000  1
  Mg  Mg6  1  0.93908000  0.55860900  0.93908000  1
  Co  Co0  1  0.13993500  0.13993500  0.13993500  1
  Co  Co1  1  0.14054400  0.58363600  0.14054400  1
  Co  Co2  1  0.58363600  0.14054400  0.14054400  1
  Co  Co3  1  0.14054400  0.14054400  0.58363600  1
loop_
_geom_bond_atom_site_label_1
_geom_bond_atom_site_label_2
_geom_bond_distance
_geom_bond_site_symmetry_2
Dy0 Mg2 3.463019 1_555
Dy0 Mg1 3.463019 1_555
Dy0 Mg5 3.525972 1_545
Dy0 Mg6 3.525972 1_455
Dy0 Dy12 3.548848 1_545
Dy0 Dy11 3.548848 1_455
Dy1 Mg3 3.463019 1_555
Dy1 Mg1 3.463019 1_555
Dy1 Mg4 3.525972 1_545
Dy1 Mg6 3.525972 1_554
Dy1 Dy10 3.548848 1_554
Dy1 Dy12 3.548848 1_545
Dy2 Mg3 3.463019 1_555
Dy2 Mg2 3.463019 1_555
Dy2 Mg4 3.525972 1_455
Dy2 Mg5 3.525972 1_554
Dy3 Mg3 3.379805 1_555
Dy3 Mg0 3.448622 1_555
Dy3 Mg6 3.533780 1_554
Dy3 Mg5 3.533780 1_554
Dy4 Mg2 3.379805 1_555
Dy4 Mg0 3.448622 1_555
Dy4 Mg4 3.533780 1_455
Dy4 Mg6 3.533780 1_455
Dy5 Mg1 3.379805 1_555
Dy5 Mg0 3.448622 1_555
Dy5 Mg4 3.533780 1_545
Dy5 Mg5 3.533780 1_545
Dy6 Mg1 3.480732 1_555
Dy6 Mg2 3.480732 1_555
Dy6 Mg3 3.480732 1_555
Dy7 Mg5 3.393603 1_554
Dy7 Mg4 3.393603 1_455
Dy7 Mg3 3.457645 1_555
Dy7 Mg2 3.457645 1_555
Dy7 Mg0 3.499305 1_555
Dy8 Mg6 3.393603 1_554
Dy8 Mg4 3.393603 1_545
Dy8 Mg3 3.457645 1_555
Dy8 Mg1 3.457645 1_555
Dy8 Mg0 3.499305 1_555
Dy9 Mg5 3.393603 1_545
Dy9 Mg6 3.393603 1_455
Dy9 Mg2 3.457645 1_555
Dy9 Mg1 3.457645 1_555
Dy9 Mg0 3.499305 1_555
Dy10 Mg3 3.189723 1_556
Dy10 Mg0 3.241162 1_555
Dy10 Dy6 3.417669 1_556
Dy10 Dy9 3.447525 1_555
Dy10 Mg5 3.543632 1_555
Dy10 Mg6 3.543632 1_555
Dy10 Dy2 3.548848 1_556
Dy10 Dy5 3.566344 1_555
Dy10 Dy4 3.566344 1_555
Dy10 Dy11 3.599261 1_555
Dy10 Dy12 3.599261 1_555
Dy11 Mg2 3.189723 1_655
Dy11 Mg0 3.241162 1_555
Dy11 Dy6 3.417669 1_655
Dy11 Dy8 3.447525 1_555
Dy11 Mg6 3.543632 1_555
Dy11 Mg4 3.543632 1_555
Dy11 Dy2 3.548848 1_655
Dy11 Dy3 3.566344 1_555
Dy11 Dy5 3.566344 1_555
Dy11 Dy12 3.599260 1_555
Dy12 Mg1 3.189723 1_565
Dy12 Mg0 3.241162 1_555
Dy12 Dy6 3.417669 1_565
Dy12 Dy7 3.447525 1_555
Dy12 Mg5 3.543632 1_555
Dy12 Mg4 3.543632 1_555
Dy12 Dy3 3.566344 1_555
Dy12 Dy4 3.566344 1_555
Mg0 Mg3 3.036079 1_555
Mg0 Mg2 3.036079 1_555
Mg0 Mg1 3.036079 1_555
Mg1 Mg2 3.110097 1_555
Mg1 Mg3 3.110097 1_555
Mg1 Mg4 3.208835 1_545
Mg1 Mg5 3.208836 1_545
Mg2 Mg3 3.110097 1_555
Mg2 Mg4 3.208835 1_455
Mg2 Mg6 3.208836 1_455
Mg3 Mg6 3.208836 1_554
Mg3 Mg5 3.208836 1_554
Co0 Dy7 2.719239 1_545
Co0 Dy8 2.719239 1_455
Co0 Dy9 2.719239 1_554
Co0 Dy2 2.723323 1_545
Co0 Dy1 2.723323 1_455
Co0 Dy0 2.723323 1_554
Co0 Mg5 3.402417 1_544
Co0 Mg6 3.402417 1_454
Co0 Mg4 3.402417 1_445
Co1 Dy2 2.681706 1_555
Co1 Dy3 2.738330 1_455
Co1 Dy4 2.738330 1_554
Co1 Dy6 2.757148 1_555
Co1 Dy9 2.798349 1_554
Co1 Dy8 2.798349 1_455
Co1 Dy11 3.404472 1_455
Co1 Dy10 3.404472 1_554
Co1 Mg6 3.429069 1_454
Co2 Dy1 2.681706 1_555
Co2 Dy3 2.738330 1_545
Co2 Dy5 2.738330 1_554
Co2 Dy6 2.757148 1_555
Co2 Dy9 2.798349 1_554
Co2 Dy7 2.798349 1_545
Co2 Dy12 3.404472 1_545
Co2 Dy10 3.404472 1_554
Co2 Mg5 3.429069 1_544
Co3 Dy0 2.681706 1_555
Co3 Dy5 2.738330 1_455
Co3 Dy4 2.738330 1_545
Co3 Dy6 2.757148 1_555
Co3 Dy8 2.798349 1_455
Co3 Dy7 2.798349 1_545
Co3 Dy11 3.404472 1_455
Co3 Dy12 3.404472 1_545
Co3 Mg4 3.429069 1_445
