# generated using pymatgen
data_Na2Ca17Al12O36
_symmetry_space_group_name_H-M   'P 1'
_cell_length_a   10.87151700
_cell_length_b   10.96490780
_cell_length_c   15.35955110
_cell_angle_alpha   90.00000000
_cell_angle_beta   90.00000000
_cell_angle_gamma   89.84409110
_symmetry_Int_Tables_number   1
_chemical_formula_structural   Na2Ca17Al12O36
_chemical_formula_sum   'Na4 Ca34 Al24 O72'
_cell_volume   1830.93129897
_cell_formula_units_Z   2
loop_
 _symmetry_equiv_pos_site_id
 _symmetry_equiv_pos_as_xyz
  1  'x, y, z'
loop_
 _atom_site_type_symbol
 _atom_site_label
 _atom_site_symmetry_multiplicity
 _atom_site_fract_x
 _atom_site_fract_y
 _atom_site_fract_z
 _atom_site_occupancy
  Na  Na0  1  0.00051302  0.49943576  0.49927082  1
  Na  Na1  1  0.50102597  0.00022293  0.49934850  1
  Na  Na2  1  0.49897403  0.49977707  0.99934850  1
  Na  Na3  1  0.99948698  0.00056424  0.99927082  1
  Ca  Ca0  1  0.71061937  0.48763255  0.62808404  1
  Ca  Ca1  1  0.77565763  0.98821992  0.36655684  1
  Ca  Ca2  1  0.22434237  0.51178008  0.86655684  1
  Ca  Ca3  1  0.28938063  0.01236745  0.12808404  1
  Ca  Ca4  1  0.28793866  0.51237422  0.37261422  1
  Ca  Ca5  1  0.23432549  0.01199916  0.63568011  1
  Ca  Ca6  1  0.76567451  0.48800084  0.13568011  1
  Ca  Ca7  1  0.71206134  0.98762578  0.87261422  1
  Ca  Ca8  1  0.97378854  0.50707791  0.74067702  1
  Ca  Ca9  1  0.52029827  0.00433603  0.25873638  1
  Ca  Ca10  1  0.47970173  0.49566397  0.75873638  1
  Ca  Ca11  1  0.02621146  0.99292209  0.24067702  1
  Ca  Ca12  1  0.02519923  0.49178620  0.25997898  1
  Ca  Ca13  1  0.48152718  0.99582110  0.74370886  1
  Ca  Ca14  1  0.51847282  0.50417890  0.24370886  1
  Ca  Ca15  1  0.97480077  0.00821380  0.75997898  1
  Ca  Ca16  1  0.75114291  0.22991416  0.99762480  1
  Ca  Ca17  1  0.74118103  0.73663591  0.00367425  1
  Ca  Ca18  1  0.25881897  0.76336409  0.50367425  1
  Ca  Ca19  1  0.24885709  0.27008584  0.49762480  1
  Ca  Ca20  1  0.25067268  0.77065001  0.00272277  1
  Ca  Ca21  1  0.25832492  0.26180374  0.99585937  1
  Ca  Ca22  1  0.74167508  0.23819626  0.49585937  1
  Ca  Ca23  1  0.74932732  0.72934999  0.50272277  1
  Ca  Ca24  1  0.99800381  0.50066241  0.01921586  1
  Ca  Ca25  1  0.00199619  0.99933759  0.51921586  1
  Ca  Ca26  1  0.72720309  0.24534230  0.75425820  1
  Ca  Ca27  1  0.77142445  0.74546491  0.24649703  1
  Ca  Ca28  1  0.22857555  0.75453509  0.74649703  1
  Ca  Ca29  1  0.27279691  0.25465770  0.25425820  1
  Ca  Ca30  1  0.27260834  0.75672639  0.24708524  1
  Ca  Ca31  1  0.22558310  0.25789321  0.75389943  1
  Ca  Ca32  1  0.77441690  0.24210679  0.25389943  1
  Ca  Ca33  1  0.72739166  0.74327361  0.74708524  1
  Al  Al0  1  0.99758111  0.25404882  0.39079836  1
  Al  Al1  1  0.50460832  0.75564024  0.60876300  1
  Al  Al2  1  0.49539168  0.74435976  0.10876300  1
  Al  Al3  1  0.00241889  0.24595118  0.89079836  1
  Al  Al4  1  0.00109890  0.74394709  0.60773038  1
  Al  Al5  1  0.49564237  0.24411379  0.39206755  1
  Al  Al6  1  0.50435763  0.25588621  0.89206755  1
  Al  Al7  1  0.99890110  0.75605291  0.10773038  1
  Al  Al8  1  0.99773631  0.26278186  0.61235122  1
  Al  Al9  1  0.50038047  0.75996524  0.38847536  1
  Al  Al10  1  0.49961953  0.74003476  0.88847536  1
  Al  Al11  1  0.00226369  0.23721814  0.11235122  1
  Al  Al12  1  0.00105231  0.73940596  0.38647084  1
  Al  Al13  1  0.49911888  0.24038208  0.61236395  1
  Al  Al14  1  0.50088112  0.25961792  0.11236395  1
  Al  Al15  1  0.99894769  0.76059404  0.88647084  1
  Al  Al16  1  0.20931815  0.50517855  0.61748940  1
  Al  Al17  1  0.28681539  0.00428777  0.38441451  1
  Al  Al18  1  0.71318461  0.49571223  0.88441451  1
  Al  Al19  1  0.79068185  0.99482145  0.11748940  1
  Al  Al20  1  0.79062773  0.49566440  0.38292400  1
  Al  Al21  1  0.71139448  0.99609802  0.61704775  1
  Al  Al22  1  0.28860552  0.50390198  0.11704775  1
  Al  Al23  1  0.20937227  0.00433560  0.88292400  1
  O  O0  1  0.26728364  0.47261508  0.51487427  1
  O  O1  1  0.20717626  0.97126368  0.48310077  1
  O  O2  1  0.79282374  0.52873632  0.98310077  1
  O  O3  1  0.73271636  0.02738492  0.01487427  1
  O  O4  1  0.73142168  0.52722979  0.48549052  1
  O  O5  1  0.79289662  0.03057455  0.51930554  1
  O  O6  1  0.20710338  0.46942545  0.01930554  1
  O  O7  1  0.26857832  0.97277021  0.98549052  1
  O  O8  1  0.84145253  0.30180896  0.62481828  1
  O  O9  1  0.65692900  0.80311194  0.37262964  1
  O  O10  1  0.34307100  0.69688806  0.87262964  1
  O  O11  1  0.15854747  0.19819104  0.12481828  1
  O  O12  1  0.15773210  0.69959126  0.37576762  1
  O  O13  1  0.34228809  0.19861379  0.62790937  1
  O  O14  1  0.65771191  0.30138621  0.12790937  1
  O  O15  1  0.84226790  0.80040874  0.87576762  1
  O  O16  1  0.08735640  0.39574137  0.63119833  1
  O  O17  1  0.40999455  0.89672861  0.37585583  1
  O  O18  1  0.59000545  0.60327139  0.87585583  1
  O  O19  1  0.91264360  0.10425863  0.13119833  1
  O  O20  1  0.91303051  0.60427782  0.36822649  1
  O  O21  1  0.58753698  0.10233722  0.62557556  1
  O  O22  1  0.41246302  0.39766278  0.12557556  1
  O  O23  1  0.08696949  0.89572218  0.86822649  1
  O  O24  1  0.93370884  0.12691451  0.33751858  1
  O  O25  1  0.56962910  0.63679018  0.67012243  1
  O  O26  1  0.43037090  0.86320982  0.17012243  1
  O  O27  1  0.06629116  0.37308549  0.83751858  1
  O  O28  1  0.06043206  0.88030754  0.65264996  1
  O  O29  1  0.42952731  0.36307978  0.33130783  1
  O  O30  1  0.57047269  0.13692022  0.83130783  1
  O  O31  1  0.93956794  0.61969246  0.15264996  1
  O  O32  1  0.12839376  0.33671182  0.35711259  1
  O  O33  1  0.37065570  0.83923601  0.64229387  1
  O  O34  1  0.62934430  0.66076399  0.14229387  1
  O  O35  1  0.87160624  0.16328818  0.85711259  1
  O  O36  1  0.87091122  0.66224677  0.64252278  1
  O  O37  1  0.63006066  0.16076434  0.35847131  1
  O  O38  1  0.36993934  0.33923566  0.85847131  1
  O  O39  1  0.12908878  0.83775323  0.14252278  1
  O  O40  1  0.13506090  0.65061506  0.60637833  1
  O  O41  1  0.36410961  0.14515937  0.40109363  1
  O  O42  1  0.63589039  0.35484063  0.90109363  1
  O  O43  1  0.86493910  0.84938494  0.10637833  1
  O  O44  1  0.86561497  0.35117609  0.39353313  1
  O  O45  1  0.63598077  0.85461992  0.59957492  1
  O  O46  1  0.36401923  0.64538008  0.09957492  1
  O  O47  1  0.13438503  0.14882391  0.89353313  1
  O  O48  1  0.28148905  0.51380612  0.71951831  1
  O  O49  1  0.22075384  0.01401759  0.28077881  1
  O  O50  1  0.77924616  0.48598241  0.78077881  1
  O  O51  1  0.71851095  0.98619388  0.21951831  1
  O  O52  1  0.71764306  0.48795689  0.28137937  1
  O  O53  1  0.78009529  0.98631636  0.71977488  1
  O  O54  1  0.21990471  0.51368364  0.21977488  1
  O  O55  1  0.28235694  0.01204311  0.78137937  1
  O  O56  1  0.03046597  0.21449656  0.50206979  1
  O  O57  1  0.47036678  0.72132000  0.49856533  1
  O  O58  1  0.52963322  0.77868000  0.99856533  1
  O  O59  1  0.96953403  0.28550344  0.00206979  1
  O  O60  1  0.96541122  0.78617323  0.49656434  1
  O  O61  1  0.53017853  0.27817938  0.50226745  1
  O  O62  1  0.46982147  0.22182062  0.00226745  1
  O  O63  1  0.03458878  0.71382677  0.99656434  1
  O  O64  1  0.06777102  0.14424664  0.67185432  1
  O  O65  1  0.43033682  0.65207243  0.32050510  1
  O  O66  1  0.56966318  0.84792757  0.82050510  1
  O  O67  1  0.93222898  0.35575336  0.17185432  1
  O  O68  1  0.93067841  0.85043919  0.32062746  1
  O  O69  1  0.56864634  0.34820937  0.68062423  1
  O  O70  1  0.43135366  0.15179063  0.18062423  1
  O  O71  1  0.06932159  0.64956081  0.82062746  1
loop_
_geom_bond_atom_site_label_1
_geom_bond_atom_site_label_2
_geom_bond_distance
_geom_bond_site_symmetry_2
Na0 O20 2.504279 1_455
Na0 O16 2.506865 1_555
Na0 O44 2.728393 1_455
Na0 O40 2.758096 1_555
Na0 O0 2.924115 1_555
Na0 O4 2.948046 1_455
Na1 O17 2.423040 1_545
Na1 O21 2.429581 1_555
Na1 O41 2.646859 1_555
Na1 O45 2.656795 1_545
Na2 O18 2.423040 1_555
Na2 O22 2.429581 1_556
Na2 O42 2.646859 1_555
Na2 O46 2.656795 1_556
Na3 O23 2.504279 1_645
Na3 O19 2.506865 1_556
Na3 O47 2.728393 1_655
Na3 O43 2.758096 1_546
Na3 O3 2.924115 1_556
Na3 O7 2.948046 1_645
Ca0 O4 2.244337 1_555
Ca0 O69 2.320231 1_555
Ca0 O25 2.329708 1_555
Ca0 O50 2.461184 1_555
Ca0 O8 2.482217 1_555
Ca0 O36 2.601894 1_555
Ca1 O24 2.340578 1_565
Ca1 O51 2.342461 1_555
Ca1 O68 2.367796 1_555
Ca1 O5 2.399105 1_565
Ca1 O9 2.410118 1_555
Ca1 O37 2.466573 1_565
Ca2 O27 2.340578 1_555
Ca2 O48 2.342461 1_555
Ca2 O71 2.367796 1_555
Ca2 O6 2.399105 1_556
Ca2 O10 2.410118 1_555
Ca2 O38 2.466573 1_555
Ca3 O7 2.244337 1_544
Ca3 O70 2.320231 1_555
Ca3 O26 2.329708 1_545
Ca3 O49 2.461184 1_555
Ca3 O11 2.482217 1_555
Ca3 O39 2.601894 1_545
Ca4 O0 2.239522 1_555
Ca4 O65 2.323017 1_555
Ca4 O29 2.331946 1_555
Ca4 O54 2.461334 1_555
Ca4 O12 2.490854 1_555
Ca4 O32 2.606394 1_555
Ca5 O55 2.297989 1_555
Ca5 O13 2.364723 1_555
Ca5 O64 2.382392 1_555
Ca5 O28 2.396211 1_545
Ca5 O1 2.404073 1_545
Ca5 O33 2.404205 1_545
Ca6 O52 2.297989 1_555
Ca6 O14 2.364723 1_555
Ca6 O67 2.382392 1_555
Ca6 O31 2.396211 1_555
Ca6 O2 2.404073 1_554
Ca6 O34 2.404205 1_555
Ca7 O3 2.239522 1_566
Ca7 O66 2.323017 1_555
Ca7 O30 2.331946 1_565
Ca7 O53 2.461334 1_555
Ca7 O15 2.490854 1_555
Ca7 O35 2.606394 1_565
Ca8 O50 2.215549 1_555
Ca8 O71 2.244172 1_655
Ca8 O27 2.318266 1_655
Ca8 O16 2.415388 1_655
Ca8 O36 2.531445 1_555
Ca9 O70 2.231609 1_555
Ca9 O51 2.245789 1_545
Ca9 O26 2.282783 1_545
Ca9 O17 2.464535 1_545
Ca9 O37 2.593014 1_555
Ca10 O69 2.231609 1_555
Ca10 O48 2.245789 1_555
Ca10 O25 2.282783 1_555
Ca10 O18 2.464535 1_555
Ca10 O38 2.593014 1_555
Ca11 O49 2.215549 1_565
Ca11 O68 2.244172 1_455
Ca11 O24 2.318266 1_465
Ca11 O19 2.415388 1_465
Ca11 O39 2.531445 1_555
Ca12 O54 2.218636 1_555
Ca12 O67 2.255376 1_455
Ca12 O31 2.354599 1_455
Ca12 O20 2.400965 1_455
Ca12 O32 2.522968 1_555
Ca13 O66 2.220518 1_555
Ca13 O55 2.247837 1_565
Ca13 O30 2.268730 1_565
Ca13 O21 2.447847 1_565
Ca13 O33 2.615032 1_555
Ca14 O65 2.220518 1_555
Ca14 O52 2.247837 1_555
Ca14 O29 2.268730 1_555
Ca14 O22 2.447847 1_555
Ca14 O34 2.615032 1_555
Ca15 O53 2.218636 1_545
Ca15 O64 2.255376 1_655
Ca15 O28 2.354599 1_645
Ca15 O23 2.400965 1_645
Ca15 O35 2.522968 1_555
Ca16 O3 2.245956 1_556
Ca16 O42 2.373877 1_555
Ca16 O14 2.376132 1_556
Ca16 O59 2.453792 1_556
Ca16 O35 2.627060 1_555
Ca17 O58 2.345678 1_554
Ca17 O15 2.358069 1_554
Ca17 O2 2.367419 1_554
Ca17 O43 2.415806 1_555
Ca17 O34 2.590189 1_555
Ca18 O57 2.345678 1_555
Ca18 O12 2.358069 1_555
Ca18 O1 2.367419 1_555
Ca18 O40 2.415806 1_555
Ca18 O33 2.590189 1_555
Ca19 O0 2.245956 1_555
Ca19 O41 2.373877 1_555
Ca19 O13 2.376132 1_555
Ca19 O56 2.453792 1_555
Ca19 O32 2.627060 1_555
Ca20 O7 2.240975 1_554
Ca20 O46 2.368312 1_555
Ca20 O10 2.377279 1_554
Ca20 O63 2.433859 1_554
Ca20 O39 2.625640 1_555
Ca21 O62 2.341609 1_556
Ca21 O11 2.364456 1_556
Ca21 O6 2.369720 1_556
Ca21 O47 2.414428 1_555
Ca21 O38 2.579122 1_555
Ca22 O61 2.341609 1_555
Ca22 O8 2.364456 1_555
Ca22 O5 2.369720 1_555
Ca22 O44 2.414428 1_555
Ca22 O37 2.579122 1_555
Ca23 O4 2.240975 1_555
Ca23 O45 2.368312 1_555
Ca23 O9 2.377279 1_555
Ca23 O60 2.433859 1_555
Ca23 O36 2.625640 1_555
Ca24 O6 2.297967 1_655
Ca24 O2 2.318272 1_554
Ca24 O59 2.394774 1_555
Ca24 O63 2.397373 1_654
Ca24 O31 2.510558 1_555
Ca25 O5 2.297967 1_465
Ca25 O1 2.318272 1_555
Ca25 O56 2.394774 1_565
Ca25 O60 2.397373 1_455
Ca25 O28 2.510558 1_555
Ca26 O69 2.347784 1_555
Ca26 O30 2.393360 1_555
Ca26 O35 2.400435 1_555
Ca26 O8 2.425481 1_555
Ca26 O50 2.730634 1_555
Ca26 O42 2.739893 1_555
Ca26 O53 2.944316 1_545
Ca26 O21 2.946823 1_555
Ca27 O68 2.372692 1_555
Ca27 O9 2.387033 1_555
Ca27 O34 2.412028 1_555
Ca27 O43 2.640089 1_555
Ca27 O31 2.703224 1_555
Ca27 O51 2.731610 1_555
Ca27 O20 2.872185 1_555
Ca27 O52 2.934339 1_555
Ca28 O71 2.372692 1_555
Ca28 O10 2.387033 1_555
Ca28 O33 2.412028 1_555
Ca28 O40 2.640089 1_555
Ca28 O28 2.703224 1_555
Ca28 O48 2.731610 1_555
Ca28 O23 2.872185 1_555
Ca28 O55 2.934339 1_565
Ca29 O70 2.347784 1_555
Ca29 O29 2.393360 1_555
Ca29 O32 2.400435 1_555
Ca29 O11 2.425481 1_555
Ca29 O49 2.730634 1_555
Ca29 O41 2.739893 1_555
Ca29 O54 2.944316 1_555
Ca29 O22 2.946823 1_555
Ca30 O65 2.349075 1_555
Ca30 O26 2.390224 1_555
Ca30 O39 2.407406 1_555
Ca30 O12 2.421364 1_555
Ca30 O46 2.757707 1_555
Ca30 O54 2.759434 1_555
Ca30 O17 2.917499 1_555
Ca30 O49 2.921642 1_565
Ca31 O13 2.402616 1_555
Ca31 O38 2.417821 1_555
Ca31 O64 2.469004 1_555
Ca31 O27 2.496388 1_555
Ca31 O47 2.649433 1_555
Ca31 O55 2.795886 1_555
Ca31 O16 2.842939 1_555
Ca31 O48 2.920878 1_555
Ca32 O14 2.402616 1_555
Ca32 O37 2.417821 1_555
Ca32 O67 2.469004 1_555
Ca32 O24 2.496388 1_555
Ca32 O44 2.649433 1_555
Ca32 O52 2.795886 1_555
Ca32 O19 2.842939 1_555
Ca32 O51 2.920878 1_545
Ca33 O66 2.349075 1_555
Ca33 O25 2.390224 1_555
Ca33 O36 2.407406 1_555
Ca33 O15 2.421364 1_555
Ca33 O45 2.757707 1_555
Ca33 O53 2.759434 1_555
Ca33 O18 2.917499 1_555
Ca33 O50 2.921642 1_555
Al0 O24 1.760803 1_555
Al0 O32 1.765990 1_655
Al0 O44 1.784920 1_555
Al0 O56 1.798890 1_655
Al1 O25 1.755322 1_555
Al1 O57 1.773641 1_555
Al1 O33 1.794126 1_555
Al1 O45 1.801677 1_555
Al2 O26 1.755322 1_555
Al2 O58 1.773641 1_554
Al2 O34 1.794126 1_555
Al2 O46 1.801677 1_555
Al3 O27 1.760803 1_555
Al3 O35 1.765990 1_455
Al3 O47 1.784920 1_555
Al3 O59 1.798890 1_456
Al4 O36 1.760165 1_455
Al4 O28 1.770004 1_555
Al4 O40 1.777817 1_555
Al4 O60 1.810896 1_455
Al5 O29 1.756150 1_555
Al5 O61 1.773759 1_555
Al5 O37 1.797150 1_555
Al5 O41 1.802702 1_555
Al6 O30 1.756150 1_555
Al6 O62 1.773759 1_556
Al6 O38 1.797150 1_555
Al6 O42 1.802702 1_555
Al7 O39 1.760165 1_655
Al7 O31 1.770004 1_555
Al7 O43 1.777817 1_555
Al7 O63 1.810896 1_654
Al8 O64 1.760369 1_655
Al8 O8 1.761413 1_555
Al8 O16 1.779394 1_655
Al8 O56 1.809724 1_655
Al9 O65 1.753353 1_555
Al9 O57 1.773705 1_555
Al9 O9 1.784369 1_555
Al9 O17 1.801086 1_555
Al10 O66 1.753353 1_555
Al10 O58 1.773705 1_555
Al10 O10 1.784369 1_555
Al10 O18 1.801086 1_555
Al11 O67 1.760369 1_455
Al11 O11 1.761413 1_555
Al11 O19 1.779394 1_455
Al11 O59 1.809724 1_455
Al12 O68 1.756495 1_455
Al12 O12 1.764925 1_555
Al12 O20 1.788099 1_455
Al12 O60 1.808716 1_455
Al13 O69 1.753087 1_555
Al13 O61 1.773735 1_555
Al13 O13 1.782694 1_555
Al13 O21 1.802325 1_555
Al14 O70 1.753087 1_555
Al14 O62 1.773735 1_555
Al14 O14 1.782694 1_555
Al14 O22 1.802325 1_555
Al15 O71 1.756495 1_655
Al15 O15 1.764925 1_555
Al15 O23 1.788099 1_655
Al15 O63 1.808716 1_655
Al16 O0 1.734227 1_555
Al16 O48 1.755227 1_555
Al16 O40 1.793571 1_555
Al16 O16 1.803041 1_555
Al17 O49 1.749452 1_555
Al17 O41 1.778970 1_555
Al17 O1 1.783259 1_545
Al17 O17 1.786875 1_545
Al18 O50 1.749452 1_555
Al18 O42 1.778970 1_555
Al18 O2 1.783259 1_555
Al18 O18 1.786875 1_555
Al19 O3 1.734227 1_565
Al19 O51 1.755227 1_555
Al19 O43 1.793571 1_555
Al19 O19 1.803041 1_565
Al20 O4 1.736285 1_555
Al20 O52 1.752050 1_555
Al20 O44 1.787212 1_555
Al20 O20 1.802412 1_555
Al21 O53 1.748853 1_555
Al21 O45 1.776973 1_555
Al21 O21 1.782900 1_565
Al21 O5 1.784279 1_565
Al22 O54 1.748853 1_555
Al22 O46 1.776973 1_555
Al22 O22 1.782900 1_555
Al22 O6 1.784279 1_555
Al23 O7 1.736285 1_545
Al23 O55 1.752050 1_555
Al23 O47 1.787212 1_555
Al23 O23 1.802412 1_545
