# generated using pymatgen
data_Li5Mn3O8
_symmetry_space_group_name_H-M   'P 1'
_cell_length_a   2.94413164
_cell_length_b   15.59708025
_cell_length_c   6.45400646
_cell_angle_alpha   92.22622162
_cell_angle_beta   77.41397521
_cell_angle_gamma   93.17591084
_symmetry_Int_Tables_number   1
_chemical_formula_structural   Li5Mn3O8
_chemical_formula_sum   'Li10 Mn6 O16'
_cell_volume   288.69208180
_cell_formula_units_Z   2
loop_
 _symmetry_equiv_pos_site_id
 _symmetry_equiv_pos_as_xyz
  1  'x, y, z'
loop_
 _atom_site_type_symbol
 _atom_site_label
 _atom_site_symmetry_multiplicity
 _atom_site_fract_x
 _atom_site_fract_y
 _atom_site_fract_z
 _atom_site_occupancy
  Li  Li0  1  0.62498200  0.12501200  0.75010300  1
  Li  Li1  1  0.12498500  0.62501500  0.74995900  1
  Li  Li2  1  0.94830600  0.18886200  0.10776800  1
  Li  Li3  1  0.44834900  0.68881200  0.10762600  1
  Li  Li4  1  0.30166100  0.06116800  0.39234900  1
  Li  Li5  1  0.80165200  0.56117100  0.39217500  1
  Li  Li6  1  0.13534500  0.44910000  0.63419800  1
  Li  Li7  1  0.63542800  0.94911500  0.63432600  1
  Li  Li8  1  0.61462600  0.30092600  0.86573800  1
  Li  Li9  1  0.11460600  0.80089300  0.86565500  1
  Mn  Mn0  1  0.87490100  0.37507000  0.25021200  1
  Mn  Mn1  1  0.48022400  0.50538000  0.99438300  1
  Mn  Mn2  1  0.26984600  0.24460400  0.50555100  1
  Mn  Mn3  1  0.37508600  0.87501000  0.24991300  1
  Mn  Mn4  1  0.98016700  0.00534900  0.99467900  1
  Mn  Mn5  1  0.77002100  0.74456900  0.50533300  1
  O  O0  1  0.46784400  0.08283600  0.06064700  1
  O  O1  1  0.96776500  0.58285700  0.06039300  1
  O  O2  1  0.78209800  0.16713300  0.43955100  1
  O  O3  1  0.28222700  0.66709700  0.43942900  1
  O  O4  1  0.77334400  0.33053100  0.54442400  1
  O  O5  1  0.27343200  0.83049200  0.54429000  1
  O  O6  1  0.97653700  0.41948800  0.95558000  1
  O  O7  1  0.47663500  0.91947500  0.95567400  1
  O  O8  1  0.12673000  0.22202000  0.78912700  1
  O  O9  1  0.62679600  0.72200100  0.78899800  1
  O  O10  1  0.12325200  0.02799300  0.71106100  1
  O  O11  1  0.62324600  0.52799600  0.71076900  1
  O  O12  1  0.30778000  0.46635400  0.30156300  1
  O  O13  1  0.80767200  0.96631200  0.30169900  1
  O  O14  1  0.44219000  0.28370500  0.19848100  1
  O  O15  1  0.94226900  0.78365100  0.19834300  1
loop_
_geom_bond_atom_site_label_1
_geom_bond_atom_site_label_2
_geom_bond_distance
_geom_bond_site_symmetry_2
Li0 O2 2.080237 1_555
Li0 O0 2.080481 1_556
Li0 O8 2.102324 1_655
Li0 O10 2.102432 1_555
Li0 O8 2.135390 1_555
Li0 O10 2.135548 1_655
Li1 O1 2.079726 1_456
Li1 O3 2.079896 1_555
Li1 O9 2.102244 1_555
Li1 O11 2.102685 1_455
Li1 O9 2.135000 1_455
Li1 O11 2.135473 1_555
Li2 O8 2.086712 1_654
Li2 O2 2.126253 1_555
Li2 O14 2.132625 1_555
Li2 O14 2.170413 1_655
Li2 O0 2.171945 1_555
Li2 O0 2.281515 1_655
Li3 O9 2.086767 1_554
Li3 O3 2.126336 1_555
Li3 O15 2.132511 1_455
Li3 O15 2.170457 1_555
Li3 O1 2.171561 1_455
Li3 O1 2.280403 1_555
Li4 O10 2.087214 1_555
Li4 O0 2.125573 1_555
Li4 O13 2.132524 1_545
Li4 O13 2.170597 1_445
Li4 O2 2.171346 1_555
Li4 O2 2.280824 1_455
Li5 O11 2.086498 1_555
Li5 O1 2.126122 1_555
Li5 O12 2.132295 1_655
Li5 O12 2.169878 1_555
Li5 O3 2.171253 1_655
Li5 O3 2.280073 1_555
Li6 O11 1.966011 1_455
Li6 O11 1.971830 1_555
Li6 O6 2.088560 1_455
Li6 O12 2.119856 1_555
Li6 O4 2.204336 1_455
Li7 O10 1.966060 1_565
Li7 O10 1.971907 1_665
Li7 O7 2.088459 1_555
Li7 O13 2.119663 1_555
Li7 O5 2.205572 1_555
Li8 O8 1.966141 1_655
Li8 O8 1.972008 1_555
Li8 O4 2.088116 1_555
Li8 O14 2.120450 1_556
Li8 O6 2.204264 1_555
Li9 O9 1.966204 1_555
Li9 O9 1.971807 1_455
Li9 O5 2.088405 1_555
Li9 O15 2.120154 1_456
Li9 O7 2.205070 1_555
Mn0 O12 1.925496 1_655
Mn0 O14 1.926757 1_555
Mn0 O4 2.002406 1_555
Mn0 O6 2.004200 1_554
Mn0 O12 2.215932 1_555
Mn0 O14 2.217067 1_655
Mn1 O11 1.830319 1_555
Mn1 O1 1.932980 1_556
Mn1 O1 1.949353 1_456
Mn1 O6 1.993021 1_455
Mn1 O6 2.005969 1_555
Mn1 O12 2.044404 1_556
Mn2 O8 1.829976 1_555
Mn2 O2 1.933364 1_455
Mn2 O2 1.948827 1_555
Mn2 O4 1.993073 1_555
Mn2 O4 2.006737 1_455
Mn2 O14 2.044117 1_555
Mn3 O13 1.925933 1_555
Mn3 O15 1.926597 1_455
Mn3 O7 2.002136 1_554
Mn3 O5 2.003250 1_555
Mn3 O13 2.216665 1_455
Mn3 O15 2.216808 1_555
Mn4 O10 1.830440 1_655
Mn4 O0 1.933276 1_656
Mn4 O0 1.949144 1_556
Mn4 O7 1.992852 1_545
Mn4 O7 2.006031 1_645
Mn4 O13 2.043505 1_546
Mn5 O9 1.830472 1_555
Mn5 O3 1.933254 1_555
Mn5 O3 1.948718 1_655
Mn5 O5 1.992988 1_655
Mn5 O5 2.006850 1_555
Mn5 O15 2.043537 1_555
