# generated using pymatgen
data_LuNiC2
_symmetry_space_group_name_H-M   'P 1'
_cell_length_a   3.44770319
_cell_length_b   3.70262796
_cell_length_c   3.70262796
_cell_angle_alpha   105.99737621
_cell_angle_beta   90.00000000
_cell_angle_gamma   90.00000000
_symmetry_Int_Tables_number   1
_chemical_formula_structural   LuNiC2
_chemical_formula_sum   'Lu1 Ni1 C2'
_cell_volume   45.43571465
_cell_formula_units_Z   1
loop_
 _symmetry_equiv_pos_site_id
 _symmetry_equiv_pos_as_xyz
  1  'x, y, z'
loop_
 _atom_site_type_symbol
 _atom_site_label
 _atom_site_symmetry_multiplicity
 _atom_site_fract_x
 _atom_site_fract_y
 _atom_site_fract_z
 _atom_site_occupancy
  Lu  Lu0  1  0.00000000  0.99823287  0.00176713  1
  Ni  Ni0  1  0.50000000  0.38890523  0.61109477  1
  C  C0  1  0.50000000  0.85307206  0.45520915  1
  C  C1  1  0.50000000  0.54479085  0.14692794  1
loop_
_geom_bond_atom_site_label_1
_geom_bond_atom_site_label_2
_geom_bond_distance
_geom_bond_site_symmetry_2
C0 C1 1.373926 1_555
C0 Ni0 1.907402 1_565
C0 Ni0 1.957963 1_555
C0 Lu0 2.564512 1_555
C0 Lu0 2.564512 1_655
C0 Lu0 2.599306 1_556
C0 Lu0 2.599306 1_656
C1 Ni0 1.907402 1_554
C1 Ni0 1.957963 1_555
C1 Lu0 2.564512 1_555
C1 Lu0 2.564512 1_655
C1 Lu0 2.599306 1_545
C1 Lu0 2.599306 1_645
