# generated using pymatgen
data_Sn2(PdPt)3
_symmetry_space_group_name_H-M   'P 1'
_cell_length_a   4.01216575
_cell_length_b   4.02665146
_cell_length_c   8.01769674
_cell_angle_alpha   90.00000000
_cell_angle_beta   90.00000000
_cell_angle_gamma   90.00000000
_symmetry_Int_Tables_number   1
_chemical_formula_structural   Sn2(PdPt)3
_chemical_formula_sum   'Sn2 Pd3 Pt3'
_cell_volume   129.53064593
_cell_formula_units_Z   1
loop_
 _symmetry_equiv_pos_site_id
 _symmetry_equiv_pos_as_xyz
  1  'x, y, z'
loop_
 _atom_site_type_symbol
 _atom_site_label
 _atom_site_symmetry_multiplicity
 _atom_site_fract_x
 _atom_site_fract_y
 _atom_site_fract_z
 _atom_site_occupancy
  Sn  Sn0  1  0.00000000  0.00000000  0.25180271  1
  Sn  Sn1  1  -0.00000000  0.00000000  0.74819729  1
  Pd  Pd0  1  0.50000000  0.50000000  0.25011000  1
  Pd  Pd1  1  0.50000000  0.50000000  0.74989000  1
  Pd  Pd2  1  -0.00000000  0.50000000  0.50000000  1
  Pt  Pt0  1  0.00000000  0.50000000  -0.00000000  1
  Pt  Pt1  1  0.50000000  0.00000000  0.50000000  1
  Pt  Pt2  1  0.50000000  0.00000000  -0.00000000  1
loop_
_geom_bond_atom_site_label_1
_geom_bond_atom_site_label_2
_geom_bond_distance
_geom_bond_site_symmetry_2
Pd0 Pd2 2.835234 1_655
Pd0 Pd2 2.835234 1_555
Pd0 Pt0 2.836480 1_655
Pd0 Pt0 2.836480 1_555
Pd0 Pt1 2.840363 1_555
Pd0 Pt1 2.840363 1_565
Pd0 Pt2 2.841607 1_555
Pd0 Pt2 2.841607 1_565
Pd0 Sn0 2.842188 1_665
Pd0 Sn0 2.842188 1_565
Pd0 Sn0 2.842188 1_655
Pd0 Sn0 2.842188 1_555
Pd1 Pd2 2.835234 1_555
Pd1 Pd2 2.835234 1_655
Pd1 Pt0 2.836480 1_656
Pd1 Pt0 2.836480 1_556
Pd1 Pt1 2.840363 1_555
Pd1 Pt1 2.840363 1_565
Pd1 Pt2 2.841607 1_556
Pd1 Pt2 2.841607 1_566
Pd1 Sn1 2.842188 1_555
Pd1 Sn1 2.842188 1_665
Pd1 Sn1 2.842188 1_655
Pd1 Sn1 2.842188 1_565
Pd2 Sn0 2.830806 1_555
Pd2 Sn1 2.830806 1_565
Pd2 Sn1 2.830806 1_555
Pd2 Sn0 2.830806 1_565
Pd2 Pt1 2.842156 1_455
Pd2 Pt1 2.842156 1_465
Pd2 Pt1 2.842156 1_555
Pd2 Pt1 2.842156 1_565
Pt0 Pt2 2.842156 1_455
Pt0 Pt2 2.842156 1_465
Pt0 Pt2 2.842156 1_565
Pt0 Pt2 2.842156 1_555
Pt0 Sn1 2.851201 1_554
Pt0 Sn0 2.851201 1_565
Pt0 Sn1 2.851201 1_564
Pt0 Sn0 2.851201 1_555
Pt1 Sn1 2.825659 1_655
Pt1 Sn0 2.825659 1_655
Pt1 Sn0 2.825659 1_555
Pt1 Sn1 2.825659 1_555
Pt2 Sn0 2.846091 1_655
Pt2 Sn1 2.846091 1_654
Pt2 Sn0 2.846091 1_555
Pt2 Sn1 2.846091 1_554
