# generated using pymatgen
data_Cd3H28C12(N15O)2
_symmetry_space_group_name_H-M   'P 1'
_cell_length_a   9.87358901
_cell_length_b   9.87358901
_cell_length_c   8.44914487
_cell_angle_alpha   73.78218865
_cell_angle_beta   73.78218865
_cell_angle_gamma   101.05175971
_symmetry_Int_Tables_number   1
_chemical_formula_structural   Cd3H28C12(N15O)2
_chemical_formula_sum   'Cd3 H28 C12 N30 O2'
_cell_volume   726.22110190
_cell_formula_units_Z   1
loop_
 _symmetry_equiv_pos_site_id
 _symmetry_equiv_pos_as_xyz
  1  'x, y, z'
loop_
 _atom_site_type_symbol
 _atom_site_label
 _atom_site_symmetry_multiplicity
 _atom_site_fract_x
 _atom_site_fract_y
 _atom_site_fract_z
 _atom_site_occupancy
  Cd  Cd0  1  0.73130300  0.26254800  0.26127500  1
  Cd  Cd1  1  0.73745200  0.26869700  0.73872500  1
  Cd  Cd2  1  0.15068700  0.84931300  0.00000000  1
  H  H0  1  0.51677000  0.43686000  0.87106400  1
  H  H1  1  0.56314000  0.48323000  0.12893600  1
  H  H2  1  0.22701600  0.86985900  0.26743100  1
  H  H3  1  0.13014100  0.77298400  0.73256900  1
  H  H4  1  0.40986100  0.17149300  0.49062200  1
  H  H5  1  0.82850700  0.59013900  0.50937800  1
  H  H6  1  0.90280500  0.56763300  0.19799300  1
  H  H7  1  0.43236700  0.09719500  0.80200700  1
  H  H8  1  0.22983600  0.11435700  0.51788900  1
  H  H9  1  0.88564300  0.77016400  0.48211100  1
  H  H10  1  0.10053600  0.71695200  0.35922900  1
  H  H11  1  0.28304800  0.89946400  0.64077100  1
  H  H12  1  0.40342900  0.51777100  0.21702500  1
  H  H13  1  0.48222900  0.59657100  0.78297500  1
  H  H14  1  0.51545900  0.75397600  0.44221200  1
  H  H15  1  0.24602400  0.48454100  0.55778800  1
  H  H16  1  0.57170100  0.93616900  0.30405400  1
  H  H17  1  0.06383100  0.42829900  0.69594600  1
  H  H18  1  0.89663300  0.05230600  0.37335900  1
  H  H19  1  0.94769400  0.10336700  0.62664100  1
  H  H20  1  0.63234500  0.94589000  0.00085300  1
  H  H21  1  0.05411000  0.36765500  0.99914700  1
  H  H22  1  0.06670100  0.03676500  0.28010700  1
  H  H23  1  0.96323500  0.93329900  0.71989300  1
  H  H24  1  0.56559700  0.76187900  0.03166800  1
  H  H25  1  0.23812100  0.43440300  0.96833200  1
  H  H26  1  0.84872500  0.71716300  0.13138100  1
  H  H27  1  0.28283700  0.15127500  0.86861900  1
  C  C0  1  0.08880000  0.40329800  0.21068800  1
  C  C1  1  0.59670200  0.91120000  0.78931200  1
  C  C2  1  0.50946000  0.47252000  0.63052000  1
  C  C3  1  0.52748000  0.49054000  0.36948000  1
  C  C4  1  0.38539100  0.11082900  0.04309900  1
  C  C5  1  0.88917100  0.61460900  0.95690100  1
  C  C6  1  0.93900400  0.05140000  0.12954400  1
  C  C7  1  0.94860000  0.06099600  0.87045600  1
  C  C8  1  0.37903700  0.12094800  0.29017500  1
  C  C9  1  0.87905200  0.62096300  0.70982500  1
  C  C10  1  0.59451400  0.90806900  0.54052400  1
  C  C11  1  0.09193100  0.40548600  0.45947600  1
  N  N0  1  0.59920500  0.39223600  0.58576500  1
  N  N1  1  0.60776400  0.40079500  0.41423500  1
  N  N2  1  0.13064900  0.42449700  0.03479600  1
  N  N3  1  0.57550300  0.86935100  0.96520400  1
  N  N4  1  0.18451100  0.43329800  0.29326400  1
  N  N5  1  0.56670200  0.81548900  0.70673600  1
  N  N6  1  0.85814300  0.13893900  0.08361700  1
  N  N7  1  0.86106100  0.14185700  0.91638300  1
  N  N8  1  0.64169300  0.05169800  0.51794200  1
  N  N9  1  0.94830200  0.35830700  0.48205800  1
  N  N10  1  0.51390600  0.53660400  0.20501200  1
  N  N11  1  0.46339600  0.48609400  0.79498800  1
  N  N12  1  0.52312100  0.17884800  0.01891600  1
  N  N13  1  0.82115200  0.47687900  0.98108400  1
  N  N14  1  0.64066900  0.05422000  0.68436200  1
  N  N15  1  0.94578000  0.35933100  0.31563800  1
  N  N16  1  0.95695800  0.00946500  0.29150000  1
  N  N17  1  0.99053500  0.04304200  0.70850000  1
  N  N18  1  0.28930400  0.06977100  0.21046100  1
  N  N19  1  0.93022900  0.71069600  0.78953900  1
  N  N20  1  0.33230900  0.10135900  0.46871100  1
  N  N21  1  0.89864100  0.66769100  0.53128900  1
  N  N22  1  0.91956900  0.65970600  0.09175100  1
  N  N23  1  0.34029400  0.08043100  0.90824900  1
  N  N24  1  0.58054000  0.85996900  0.40686000  1
  N  N25  1  0.14003100  0.41946000  0.59314000  1
  N  N26  1  0.46267600  0.53732400  0.50000000  1
  N  N27  1  0.99935200  0.00064800  0.00000000  1
  N  N28  1  0.51973000  0.18525300  0.18225900  1
  N  N29  1  0.81474700  0.48027000  0.81774100  1
  O  O0  1  0.19384000  0.77152700  0.25689700  1
  O  O1  1  0.22847300  0.80616000  0.74310300  1
loop_
_geom_bond_atom_site_label_1
_geom_bond_atom_site_label_2
_geom_bond_distance
_geom_bond_site_symmetry_2
Cd0 N8 2.349471 1_555
Cd0 N15 2.370921 1_555
Cd0 N1 2.400933 1_555
Cd0 N28 2.417521 1_555
Cd0 N6 2.422887 1_555
Cd0 N13 2.485668 1_554
Cd1 N9 2.349471 1_555
Cd1 N14 2.370921 1_555
Cd1 N0 2.400933 1_555
Cd1 N29 2.417521 1_555
Cd1 N7 2.422887 1_555
Cd1 N12 2.485668 1_556
Cd2 O0 2.278948 1_555
Cd2 O1 2.278948 1_554
Cd2 N27 2.306812 1_465
Cd2 N23 2.424132 1_564
Cd2 N22 2.424132 1_455
H0 N11 1.019846 1_555
H1 N10 1.019846 1_555
H2 O0 1.000236 1_555
H3 O1 1.000236 1_555
H4 N20 1.023532 1_555
H5 N21 1.023532 1_555
H6 N22 1.031074 1_555
H7 N23 1.031074 1_555
H8 N20 1.028373 1_555
H9 N21 1.028373 1_555
H10 O0 0.995556 1_555
H11 O1 0.995556 1_555
H12 N10 1.041433 1_555
H13 N11 1.041433 1_555
H14 N24 1.028453 1_555
H15 N25 1.028453 1_555
H16 N24 1.015210 1_555
H17 N25 1.015210 1_555
H18 N16 1.020763 1_555
H19 N17 1.020763 1_555
H20 N3 1.017730 1_554
H21 N2 1.017730 1_556
H22 N16 1.035029 1_455
H23 N17 1.035029 1_565
H24 N3 1.023524 1_554
H25 N2 1.023524 1_556
H26 N22 1.025012 1_555
H27 N23 1.025012 1_555
C0 N15 1.348834 1_455
C0 N4 1.357930 1_555
C0 N2 1.368659 1_555
C1 N14 1.348834 1_565
C1 N5 1.357930 1_555
C1 N3 1.368659 1_555
C2 N0 1.343912 1_555
C2 N26 1.357434 1_555
C2 N11 1.389322 1_555
C3 N1 1.343912 1_555
C3 N26 1.357434 1_555
C3 N10 1.389322 1_555
C4 N12 1.326680 1_555
C4 N18 1.359035 1_555
C4 N23 1.417626 1_554
C5 N13 1.326680 1_555
C5 N19 1.359035 1_555
C5 N22 1.417626 1_556
C6 N6 1.336163 1_555
C6 N27 1.364075 1_555
C6 N16 1.386546 1_555
C7 N7 1.336163 1_555
C7 N27 1.364075 1_556
C7 N17 1.386546 1_555
C8 N28 1.339848 1_555
C8 N18 1.358566 1_555
C8 N20 1.392780 1_555
C9 N29 1.339848 1_555
C9 N19 1.358566 1_555
C9 N21 1.392780 1_555
C10 N8 1.345528 1_565
C10 N5 1.361791 1_555
C10 N24 1.371684 1_555
C11 N9 1.345528 1_455
C11 N4 1.361791 1_555
C11 N25 1.371684 1_555
N0 N1 1.405396 1_555
N6 N7 1.397279 1_554
N12 N28 1.390530 1_555
N13 N29 1.390530 1_555
N14 N8 1.410522 1_555
N15 N9 1.410522 1_555
