# generated using pymatgen
data_Mg5Hg3
_symmetry_space_group_name_H-M   'P 1'
_cell_length_a   8.22667506
_cell_length_b   8.22667412
_cell_length_c   5.86925634
_cell_angle_alpha   90.00000000
_cell_angle_beta   90.00000000
_cell_angle_gamma   120.00000376
_symmetry_Int_Tables_number   1
_chemical_formula_structural   Mg5Hg3
_chemical_formula_sum   'Mg10 Hg6'
_cell_volume   344.00308003
_cell_formula_units_Z   2
loop_
 _symmetry_equiv_pos_site_id
 _symmetry_equiv_pos_as_xyz
  1  'x, y, z'
loop_
 _atom_site_type_symbol
 _atom_site_label
 _atom_site_symmetry_multiplicity
 _atom_site_fract_x
 _atom_site_fract_y
 _atom_site_fract_z
 _atom_site_occupancy
  Mg  Mg0  1  0.74290892  -0.00000000  0.75000000  1
  Mg  Mg1  1  0.74290892  0.74290892  0.25000000  1
  Mg  Mg2  1  -0.00000000  0.25709108  0.25000000  1
  Mg  Mg3  1  0.00000000  0.74290892  0.75000000  1
  Mg  Mg4  1  0.25709108  0.25709108  0.75000000  1
  Mg  Mg5  1  0.25709108  0.00000000  0.25000000  1
  Mg  Mg6  1  0.33333300  0.66666700  -0.00000000  1
  Mg  Mg7  1  0.66666700  0.33333300  0.50000000  1
  Mg  Mg8  1  0.66666700  0.33333300  -0.00000000  1
  Mg  Mg9  1  0.33333300  0.66666700  0.50000000  1
  Hg  Hg0  1  0.38604492  0.00000000  0.75000000  1
  Hg  Hg1  1  0.38604492  0.38604492  0.25000000  1
  Hg  Hg2  1  0.00000000  0.61395508  0.25000000  1
  Hg  Hg3  1  -0.00000000  0.38604492  0.75000000  1
  Hg  Hg4  1  0.61395508  0.61395508  0.75000000  1
  Hg  Hg5  1  0.61395508  -0.00000000  0.25000000  1
loop_
_geom_bond_atom_site_label_1
_geom_bond_atom_site_label_2
_geom_bond_distance
_geom_bond_site_symmetry_2
Hg0 Mg3 2.800428 1_545
Hg0 Mg4 2.800428 1_555
Hg0 Mg0 2.935804 1_555
Hg0 Mg9 2.944774 1_545
Hg0 Mg6 2.944774 1_546
Hg0 Mg7 2.944776 1_555
Hg0 Mg8 2.944776 1_556
Hg0 Mg5 3.120492 1_556
Hg0 Mg5 3.120492 1_555
Hg1 Mg5 2.800428 1_555
Hg1 Mg2 2.800428 1_555
Hg1 Mg1 2.935804 1_555
Hg1 Mg9 2.944781 1_555
Hg1 Mg6 2.944781 1_555
Hg1 Mg7 2.944781 1_555
Hg1 Mg8 2.944781 1_555
Hg1 Mg4 3.120492 1_554
Hg1 Mg4 3.120492 1_555
Hg2 Mg5 2.800428 1_565
Hg2 Mg1 2.800428 1_455
Hg2 Mg2 2.935804 1_555
Hg2 Mg9 2.944774 1_555
Hg2 Mg6 2.944774 1_555
Hg2 Mg7 2.944776 1_455
Hg2 Mg8 2.944776 1_455
Hg2 Mg3 3.120492 1_555
Hg2 Mg3 3.120492 1_554
Hg3 Mg0 2.800428 1_455
Hg3 Mg4 2.800428 1_555
Hg3 Mg3 2.935804 1_555
Hg3 Mg8 2.944774 1_456
Hg3 Mg7 2.944774 1_455
Hg3 Mg6 2.944776 1_556
Hg3 Mg9 2.944776 1_555
Hg3 Mg2 3.120492 1_556
Hg3 Mg2 3.120492 1_555
Hg4 Mg0 2.800428 1_565
Hg4 Mg3 2.800428 1_655
Hg4 Mg4 2.935804 1_555
Hg4 Mg7 2.944781 1_555
Hg4 Mg8 2.944781 1_556
Hg4 Mg9 2.944781 1_555
Hg4 Mg6 2.944781 1_556
Hg4 Mg1 3.120492 1_555
Hg4 Mg1 3.120492 1_556
Hg5 Mg2 2.800428 1_655
Hg5 Mg1 2.800428 1_545
Hg5 Mg5 2.935804 1_555
Hg5 Mg7 2.944774 1_555
Hg5 Mg8 2.944774 1_555
Hg5 Mg9 2.944776 1_545
Hg5 Mg6 2.944776 1_545
Hg5 Mg0 3.120492 1_554
Hg5 Mg0 3.120492 1_555
