# generated using pymatgen
data_Cs6U2(Cu4S5)3
_symmetry_space_group_name_H-M   'P 1'
_cell_length_a   16.63388390
_cell_length_b   16.63388390
_cell_length_c   16.63388390
_cell_angle_alpha   109.47122063
_cell_angle_beta   109.47122063
_cell_angle_gamma   109.47122063
_symmetry_Int_Tables_number   1
_chemical_formula_structural   Cs6U2(Cu4S5)3
_chemical_formula_sum   'Cs24 U8 Cu48 S60'
_cell_volume   3542.90173736
_cell_formula_units_Z   4
loop_
 _symmetry_equiv_pos_site_id
 _symmetry_equiv_pos_as_xyz
  1  'x, y, z'
loop_
 _atom_site_type_symbol
 _atom_site_label
 _atom_site_symmetry_multiplicity
 _atom_site_fract_x
 _atom_site_fract_y
 _atom_site_fract_z
 _atom_site_occupancy
  Cs  Cs0  1  0.81654827  0.90827414  0.15827414  1
  Cs  Cs1  1  0.68345173  0.34172586  0.59172586  1
  Cs  Cs2  1  0.75000000  0.59172586  0.90827414  1
  Cs  Cs3  1  0.75000000  0.15827414  0.34172586  1
  Cs  Cs4  1  0.15827414  0.81654827  0.90827414  1
  Cs  Cs5  1  0.59172586  0.68345173  0.34172586  1
  Cs  Cs6  1  0.90827414  0.75000000  0.59172586  1
  Cs  Cs7  1  0.34172586  0.75000000  0.15827414  1
  Cs  Cs8  1  0.90827414  0.15827414  0.81654827  1
  Cs  Cs9  1  0.34172586  0.59172586  0.68345173  1
  Cs  Cs10  1  0.59172586  0.90827414  0.75000000  1
  Cs  Cs11  1  0.15827414  0.34172586  0.75000000  1
  Cs  Cs12  1  0.18345173  0.09172586  0.84172586  1
  Cs  Cs13  1  0.31654827  0.65827414  0.40827414  1
  Cs  Cs14  1  0.25000000  0.40827414  0.09172586  1
  Cs  Cs15  1  0.25000000  0.84172586  0.65827414  1
  Cs  Cs16  1  0.84172586  0.18345173  0.09172586  1
  Cs  Cs17  1  0.40827414  0.31654827  0.65827414  1
  Cs  Cs18  1  0.09172586  0.25000000  0.40827414  1
  Cs  Cs19  1  0.65827414  0.25000000  0.84172586  1
  Cs  Cs20  1  0.09172586  0.84172586  0.18345173  1
  Cs  Cs21  1  0.65827414  0.40827414  0.31654827  1
  Cs  Cs22  1  0.40827414  0.09172586  0.25000000  1
  Cs  Cs23  1  0.84172586  0.65827414  0.25000000  1
  U  U0  1  -0.00000000  0.50000000  0.00000000  1
  U  U1  1  0.50000000  -0.00000000  0.00000000  1
  U  U2  1  -0.00000000  -0.00000000  0.50000000  1
  U  U3  1  0.50000000  0.50000000  0.50000000  1
  U  U4  1  -0.00000000  0.50000000  0.50000000  1
  U  U5  1  0.50000000  -0.00000000  0.50000000  1
  U  U6  1  0.50000000  0.50000000  0.00000000  1
  U  U7  1  -0.00000000  -0.00000000  0.00000000  1
  Cu  Cu0  1  0.93254707  0.56783579  0.84751006  1
  Cu  Cu1  1  0.56745293  0.91496299  0.13528872  1
  Cu  Cu2  1  0.77967427  0.93216421  0.36471128  1
  Cu  Cu3  1  0.72032573  0.58503701  0.65248994  1
  Cu  Cu4  1  0.84751006  0.93254707  0.56783579  1
  Cu  Cu5  1  0.13528872  0.56745293  0.91496299  1
  Cu  Cu6  1  0.36471128  0.77967427  0.93216421  1
  Cu  Cu7  1  0.65248994  0.72032573  0.58503701  1
  Cu  Cu8  1  0.56783579  0.84751006  0.93254707  1
  Cu  Cu9  1  0.91496299  0.13528872  0.56745293  1
  Cu  Cu10  1  0.93216421  0.36471128  0.77967427  1
  Cu  Cu11  1  0.58503701  0.65248994  0.72032573  1
  Cu  Cu12  1  0.06745293  0.43216421  0.15248994  1
  Cu  Cu13  1  0.43254707  0.08503701  0.86471128  1
  Cu  Cu14  1  0.22032573  0.06783579  0.63528872  1
  Cu  Cu15  1  0.27967427  0.41496299  0.34751006  1
  Cu  Cu16  1  0.15248994  0.06745293  0.43216421  1
  Cu  Cu17  1  0.86471128  0.43254707  0.08503701  1
  Cu  Cu18  1  0.63528872  0.22032573  0.06783579  1
  Cu  Cu19  1  0.34751006  0.27967427  0.41496299  1
  Cu  Cu20  1  0.43216421  0.15248994  0.06745293  1
  Cu  Cu21  1  0.08503701  0.86471128  0.43254707  1
  Cu  Cu22  1  0.06783579  0.63528872  0.22032573  1
  Cu  Cu23  1  0.41496299  0.34751006  0.27967427  1
  Cu  Cu24  1  0.06783579  0.43254707  0.34751006  1
  Cu  Cu25  1  0.41496299  0.06745293  0.63528872  1
  Cu  Cu26  1  0.43216421  0.27967427  0.86471128  1
  Cu  Cu27  1  0.08503701  0.22032573  0.15248994  1
  Cu  Cu28  1  0.43254707  0.34751006  0.06783579  1
  Cu  Cu29  1  0.06745293  0.63528872  0.41496299  1
  Cu  Cu30  1  0.27967427  0.86471128  0.43216421  1
  Cu  Cu31  1  0.22032573  0.15248994  0.08503701  1
  Cu  Cu32  1  0.34751006  0.06783579  0.43254707  1
  Cu  Cu33  1  0.63528872  0.41496299  0.06745293  1
  Cu  Cu34  1  0.86471128  0.43216421  0.27967427  1
  Cu  Cu35  1  0.15248994  0.08503701  0.22032573  1
  Cu  Cu36  1  0.93216421  0.56745293  0.65248994  1
  Cu  Cu37  1  0.58503701  0.93254707  0.36471128  1
  Cu  Cu38  1  0.56783579  0.72032573  0.13528872  1
  Cu  Cu39  1  0.91496299  0.77967427  0.84751006  1
  Cu  Cu40  1  0.56745293  0.65248994  0.93216421  1
  Cu  Cu41  1  0.93254707  0.36471128  0.58503701  1
  Cu  Cu42  1  0.72032573  0.13528872  0.56783579  1
  Cu  Cu43  1  0.77967427  0.84751006  0.91496299  1
  Cu  Cu44  1  0.65248994  0.93216421  0.56745293  1
  Cu  Cu45  1  0.36471128  0.58503701  0.93254707  1
  Cu  Cu46  1  0.13528872  0.56783579  0.72032573  1
  Cu  Cu47  1  0.84751006  0.91496299  0.77967427  1
  S  S0  1  0.07784155  0.65655439  0.66914492  1
  S  S1  1  0.42215845  0.59130337  0.07871284  1
  S  S2  1  0.51259053  0.84344561  0.42128716  1
  S  S3  1  0.98740947  0.90869663  0.83085508  1
  S  S4  1  0.66914492  0.07784155  0.65655439  1
  S  S5  1  0.07871284  0.42215845  0.59130337  1
  S  S6  1  0.42128716  0.51259053  0.84344561  1
  S  S7  1  0.83085508  0.98740947  0.90869663  1
  S  S8  1  0.65655439  0.66914492  0.07784155  1
  S  S9  1  0.59130337  0.07871284  0.42215845  1
  S  S10  1  0.84344561  0.42128716  0.51259053  1
  S  S11  1  0.90869663  0.83085508  0.98740947  1
  S  S12  1  0.92215845  0.34344561  0.33085508  1
  S  S13  1  0.57784155  0.40869663  0.92128716  1
  S  S14  1  0.48740947  0.15655439  0.57871284  1
  S  S15  1  0.01259053  0.09130337  0.16914492  1
  S  S16  1  0.33085508  0.92215845  0.34344561  1
  S  S17  1  0.92128716  0.57784155  0.40869663  1
  S  S18  1  0.57871284  0.48740947  0.15655439  1
  S  S19  1  0.16914492  0.01259053  0.09130337  1
  S  S20  1  0.34344561  0.33085508  0.92215845  1
  S  S21  1  0.40869663  0.92128716  0.57784155  1
  S  S22  1  0.15655439  0.57871284  0.48740947  1
  S  S23  1  0.09130337  0.16914492  0.01259053  1
  S  S24  1  0.15655439  0.57784155  0.16914492  1
  S  S25  1  0.09130337  0.92215845  0.57871284  1
  S  S26  1  0.34344561  0.01259053  0.92128716  1
  S  S27  1  0.40869663  0.48740947  0.33085508  1
  S  S28  1  0.57784155  0.16914492  0.15655439  1
  S  S29  1  0.92215845  0.57871284  0.09130337  1
  S  S30  1  0.01259053  0.92128716  0.34344561  1
  S  S31  1  0.48740947  0.33085508  0.40869663  1
  S  S32  1  0.16914492  0.15655439  0.57784155  1
  S  S33  1  0.57871284  0.09130337  0.92215845  1
  S  S34  1  0.92128716  0.34344561  0.01259053  1
  S  S35  1  0.33085508  0.40869663  0.48740947  1
  S  S36  1  0.84344561  0.42215845  0.83085508  1
  S  S37  1  0.90869663  0.07784155  0.42128716  1
  S  S38  1  0.65655439  0.98740947  0.07871284  1
  S  S39  1  0.59130337  0.51259053  0.66914492  1
  S  S40  1  0.42215845  0.83085508  0.84344561  1
  S  S41  1  0.07784155  0.42128716  0.90869663  1
  S  S42  1  0.98740947  0.07871284  0.65655439  1
  S  S43  1  0.51259053  0.66914492  0.59130337  1
  S  S44  1  0.83085508  0.84344561  0.42215845  1
  S  S45  1  0.42128716  0.90869663  0.07784155  1
  S  S46  1  0.07871284  0.65655439  0.98740947  1
  S  S47  1  0.66914492  0.59130337  0.51259053  1
  S  S48  1  0.25000000  0.62500000  0.87500000  1
  S  S49  1  0.75000000  0.87500000  0.62500000  1
  S  S50  1  0.87500000  0.25000000  0.62500000  1
  S  S51  1  0.62500000  0.75000000  0.87500000  1
  S  S52  1  0.62500000  0.87500000  0.25000000  1
  S  S53  1  0.87500000  0.62500000  0.75000000  1
  S  S54  1  0.75000000  0.37500000  0.12500000  1
  S  S55  1  0.25000000  0.12500000  0.37500000  1
  S  S56  1  0.12500000  0.75000000  0.37500000  1
  S  S57  1  0.37500000  0.25000000  0.12500000  1
  S  S58  1  0.37500000  0.12500000  0.75000000  1
  S  S59  1  0.12500000  0.37500000  0.25000000  1
loop_
_geom_bond_atom_site_label_1
_geom_bond_atom_site_label_2
_geom_bond_distance
_geom_bond_site_symmetry_2
Cs0 S38 3.422800 1_555
Cs0 S8 3.422800 1_555
Cs0 S30 3.543535 1_655
Cs0 S15 3.543535 1_665
Cs0 Cu2 3.603105 1_555
Cs0 Cu43 3.603105 1_554
Cs0 S37 3.723672 1_565
Cs0 S11 3.723673 1_554
Cs1 S10 3.422800 1_555
Cs1 S36 3.422800 1_555
Cs1 S14 3.543535 1_555
Cs1 S31 3.543535 1_555
Cs1 Cu42 3.603105 1_555
Cs1 Cu3 3.603105 1_555
Cs1 S9 3.723672 1_555
Cs1 S39 3.723673 1_555
Cs2 S11 3.422800 1_555
Cs2 S39 3.422800 1_555
Cs2 S13 3.543535 1_555
Cs2 S29 3.543535 1_556
Cs2 Cu40 3.603105 1_555
Cs2 Cu0 3.603105 1_555
Cs2 S8 3.723672 1_556
Cs2 S36 3.723672 1_555
Cs3 S37 3.422800 1_555
Cs3 S9 3.422800 1_555
Cs3 S28 3.543535 1_555
Cs3 S12 3.543535 1_555
Cs3 Cu1 3.603105 1_545
Cs3 Cu41 3.603105 1_555
Cs3 S10 3.723672 1_555
Cs3 S38 3.723672 1_545
Cs4 S46 3.422800 1_555
Cs4 S0 3.422800 1_555
Cs4 S26 3.543535 1_565
Cs4 S19 3.543535 1_566
Cs4 Cu6 3.603105 1_555
Cs4 Cu39 3.603105 1_455
Cs4 S45 3.723672 1_556
Cs4 S3 3.723673 1_455
Cs5 S2 3.422800 1_555
Cs5 S44 3.422800 1_555
Cs5 S18 3.543535 1_555
Cs5 S27 3.543535 1_555
Cs5 Cu38 3.603105 1_555
Cs5 Cu7 3.603105 1_555
Cs5 S1 3.723672 1_555
Cs5 S47 3.723673 1_555
Cs6 S3 3.422800 1_555
Cs6 S47 3.422800 1_555
Cs6 S17 3.543535 1_555
Cs6 S25 3.543535 1_655
Cs6 Cu36 3.603105 1_555
Cs6 Cu4 3.603105 1_555
Cs6 S0 3.723672 1_655
Cs6 S44 3.723672 1_555
Cs7 S1 3.422800 1_555
Cs7 S45 3.422800 1_555
Cs7 S24 3.543535 1_555
Cs7 S16 3.543535 1_555
Cs7 Cu37 3.603105 1_555
Cs7 Cu5 3.603105 1_554
Cs7 S2 3.723672 1_555
Cs7 S46 3.723672 1_554
Cs8 S42 3.422800 1_555
Cs8 S4 3.422800 1_555
Cs8 S34 3.543535 1_556
Cs8 S23 3.543535 1_656
Cs8 Cu10 3.603105 1_555
Cs8 Cu47 3.603105 1_545
Cs8 S41 3.723672 1_655
Cs8 S7 3.723673 1_545
Cs9 S6 3.422800 1_555
Cs9 S40 3.422800 1_555
Cs9 S22 3.543535 1_555
Cs9 S35 3.543535 1_555
Cs9 Cu46 3.603105 1_555
Cs9 Cu11 3.603105 1_555
Cs9 S5 3.723672 1_555
Cs9 S43 3.723673 1_555
Cs10 S7 3.422800 1_555
Cs10 S43 3.422800 1_555
Cs10 S21 3.543535 1_555
Cs10 S33 3.543535 1_565
Cs10 Cu44 3.603105 1_555
Cs10 Cu8 3.603105 1_555
Cs10 S4 3.723672 1_565
Cs10 S40 3.723672 1_555
Cs11 S41 3.422800 1_555
Cs11 S5 3.422800 1_555
Cs11 S32 3.543535 1_555
Cs11 S20 3.543535 1_555
Cs11 Cu45 3.603105 1_555
Cs11 Cu9 3.603105 1_455
Cs11 S6 3.723672 1_555
Cs11 S42 3.723672 1_455
Cs12 S26 3.422800 1_555
Cs12 S20 3.422800 1_555
Cs12 S42 3.543535 1_455
Cs12 S3 3.543535 1_445
Cs12 Cu14 3.603105 1_555
Cs12 Cu31 3.603105 1_556
Cs12 S25 3.723672 1_545
Cs12 S23 3.723673 1_556
Cs13 S22 3.422800 1_555
Cs13 S24 3.422800 1_555
Cs13 S2 3.543535 1_555
Cs13 S43 3.543535 1_555
Cs13 Cu30 3.603105 1_555
Cs13 Cu15 3.603105 1_555
Cs13 S21 3.723672 1_555
Cs13 S27 3.723673 1_555
Cs14 S23 3.422800 1_555
Cs14 S27 3.422800 1_555
Cs14 S41 3.543535 1_554
Cs14 S1 3.543535 1_555
Cs14 Cu12 3.603105 1_555
Cs14 Cu28 3.603105 1_555
Cs14 S20 3.723672 1_554
Cs14 S24 3.723672 1_555
Cs15 S21 3.422800 1_555
Cs15 S25 3.422800 1_555
Cs15 S0 3.543535 1_555
Cs15 S40 3.543535 1_555
Cs15 Cu13 3.603105 1_565
Cs15 Cu29 3.603105 1_555
Cs15 S26 3.723672 1_565
Cs15 S22 3.723672 1_555
Cs16 S34 3.422800 1_555
Cs16 S12 3.422800 1_555
Cs16 S38 3.543535 1_545
Cs16 S7 3.543535 1_544
Cs16 Cu18 3.603105 1_555
Cs16 Cu27 3.603105 1_655
Cs16 S33 3.723672 1_554
Cs16 S15 3.723673 1_655
Cs17 S14 3.422800 1_555
Cs17 S32 3.422800 1_555
Cs17 S6 3.543535 1_555
Cs17 S39 3.543535 1_555
Cs17 Cu26 3.603105 1_555
Cs17 Cu19 3.603105 1_555
Cs17 S13 3.723672 1_555
Cs17 S35 3.723673 1_555
Cs18 S15 3.422800 1_555
Cs18 S35 3.422800 1_555
Cs18 S37 3.543535 1_455
Cs18 S5 3.543535 1_555
Cs18 Cu16 3.603105 1_555
Cs18 Cu24 3.603105 1_555
Cs18 S12 3.723672 1_455
Cs18 S32 3.723672 1_555
Cs19 S13 3.422800 1_555
Cs19 S33 3.422800 1_555
Cs19 S4 3.543535 1_555
Cs19 S36 3.543535 1_555
Cs19 Cu17 3.603105 1_556
Cs19 Cu25 3.603105 1_555
Cs19 S34 3.723672 1_556
Cs19 S14 3.723672 1_555
Cs20 S30 3.422800 1_555
Cs20 S16 3.422800 1_555
Cs20 S46 3.543535 1_554
Cs20 S11 3.543535 1_454
Cs20 Cu22 3.603105 1_555
Cs20 Cu35 3.603105 1_565
Cs20 S29 3.723672 1_455
Cs20 S19 3.723673 1_565
Cs21 S18 3.422800 1_555
Cs21 S28 3.422800 1_555
Cs21 S10 3.543535 1_555
Cs21 S47 3.543535 1_555
Cs21 Cu34 3.603105 1_555
Cs21 Cu23 3.603105 1_555
Cs21 S17 3.723672 1_555
Cs21 S31 3.723673 1_555
Cs22 S19 3.422800 1_555
Cs22 S31 3.422800 1_555
Cs22 S45 3.543535 1_545
Cs22 S9 3.543535 1_555
Cs22 Cu20 3.603105 1_555
Cs22 Cu32 3.603105 1_555
Cs22 S16 3.723672 1_545
Cs22 S28 3.723672 1_555
Cs23 S17 3.422800 1_555
Cs23 S29 3.422800 1_555
Cs23 S8 3.543535 1_555
Cs23 S44 3.543535 1_555
Cs23 Cu21 3.603105 1_655
Cs23 Cu33 3.603105 1_555
Cs23 S30 3.723672 1_655
Cs23 S18 3.723672 1_555
Cu0 S36 2.242686 1_555
Cu0 S46 2.247446 1_655
Cu0 S53 2.247473 1_555
Cu1 S38 2.242686 1_555
Cu1 S45 2.247446 1_555
Cu1 S52 2.247473 1_555
Cu2 S37 2.242686 1_565
Cu2 S44 2.247446 1_555
Cu2 S52 2.247473 1_555
Cu3 S39 2.242686 1_555
Cu3 S47 2.247446 1_555
Cu3 S53 2.247473 1_555
Cu4 S44 2.242686 1_555
Cu4 S42 2.247446 1_565
Cu4 S49 2.247473 1_555
Cu5 S46 2.242686 1_555
Cu5 S41 2.247446 1_555
Cu5 S48 2.247473 1_555
Cu6 S45 2.242686 1_556
Cu6 S40 2.247446 1_555
Cu6 S48 2.247473 1_555
Cu7 S47 2.242686 1_555
Cu7 S43 2.247446 1_555
Cu7 S49 2.247473 1_555
Cu8 S40 2.242686 1_555
Cu8 S38 2.247446 1_556
Cu8 S51 2.247473 1_555
Cu9 S42 2.242686 1_555
Cu9 S37 2.247446 1_555
Cu9 S50 2.247473 1_555
Cu10 S41 2.242686 1_655
Cu10 S36 2.247446 1_555
Cu10 S50 2.247473 1_555
Cu11 S43 2.242686 1_555
Cu11 S39 2.247446 1_555
Cu11 S51 2.247473 1_555
Cu12 S24 2.242686 1_555
Cu12 S34 2.247446 1_455
Cu12 S59 2.247473 1_555
Cu13 S26 2.242686 1_555
Cu13 S33 2.247446 1_555
Cu13 S58 2.247473 1_555
Cu14 S25 2.242686 1_545
Cu14 S32 2.247446 1_555
Cu14 S58 2.247473 1_555
Cu15 S27 2.242686 1_555
Cu15 S35 2.247446 1_555
Cu15 S59 2.247473 1_555
Cu16 S32 2.242686 1_555
Cu16 S30 2.247446 1_545
Cu16 S55 2.247473 1_555
Cu17 S34 2.242686 1_555
Cu17 S29 2.247446 1_555
Cu17 S54 2.247473 1_555
Cu18 S33 2.242686 1_554
Cu18 S28 2.247446 1_555
Cu18 S54 2.247473 1_555
Cu19 S35 2.242686 1_555
Cu19 S31 2.247446 1_555
Cu19 S55 2.247473 1_555
Cu20 S28 2.242686 1_555
Cu20 S26 2.247446 1_554
Cu20 S57 2.247473 1_555
Cu21 S30 2.242686 1_555
Cu21 S25 2.247446 1_555
Cu21 S56 2.247473 1_555
Cu22 S29 2.242686 1_455
Cu22 S24 2.247446 1_555
Cu22 S56 2.247473 1_555
Cu23 S31 2.242686 1_555
Cu23 S27 2.247446 1_555
Cu23 S57 2.247473 1_555
Cu24 S12 2.242686 1_455
Cu24 S22 2.247446 1_555
Cu24 S59 2.247473 1_555
Cu25 S14 2.242686 1_555
Cu25 S21 2.247446 1_545
Cu25 S58 2.247473 1_555
Cu26 S13 2.242686 1_555
Cu26 S20 2.247446 1_555
Cu26 S58 2.247473 1_555
Cu27 S15 2.242686 1_555
Cu27 S23 2.247446 1_555
Cu27 S59 2.247473 1_555
Cu28 S20 2.242686 1_554
Cu28 S18 2.247446 1_555
Cu28 S57 2.247473 1_555
Cu29 S22 2.242686 1_555
Cu29 S17 2.247446 1_455
Cu29 S56 2.247473 1_555
Cu30 S21 2.242686 1_555
Cu30 S16 2.247446 1_555
Cu30 S56 2.247473 1_555
Cu31 S23 2.242686 1_555
Cu31 S19 2.247446 1_555
Cu31 S57 2.247473 1_555
Cu32 S16 2.242686 1_545
Cu32 S14 2.247446 1_555
Cu32 S55 2.247473 1_555
Cu33 S18 2.242686 1_555
Cu33 S13 2.247446 1_554
Cu33 S54 2.247473 1_555
Cu34 S17 2.242686 1_555
Cu34 S12 2.247446 1_555
Cu34 S54 2.247473 1_555
Cu35 S19 2.242686 1_555
Cu35 S15 2.247446 1_555
Cu35 S55 2.247473 1_555
Cu36 S0 2.242686 1_655
Cu36 S10 2.247446 1_555
Cu36 S53 2.247473 1_555
Cu37 S2 2.242686 1_555
Cu37 S9 2.247446 1_565
Cu37 S52 2.247473 1_555
Cu38 S1 2.242686 1_555
Cu38 S8 2.247446 1_555
Cu38 S52 2.247473 1_555
Cu39 S3 2.242686 1_555
Cu39 S11 2.247446 1_555
Cu39 S53 2.247473 1_555
Cu40 S8 2.242686 1_556
Cu40 S6 2.247446 1_555
Cu40 S51 2.247473 1_555
Cu41 S10 2.242686 1_555
Cu41 S5 2.247446 1_655
Cu41 S50 2.247473 1_555
Cu42 S9 2.242686 1_555
Cu42 S4 2.247446 1_555
Cu42 S50 2.247473 1_555
Cu43 S11 2.242686 1_555
Cu43 S7 2.247446 1_555
Cu43 S51 2.247473 1_555
Cu44 S4 2.242686 1_565
Cu44 S2 2.247446 1_555
Cu44 S49 2.247473 1_555
Cu45 S6 2.242686 1_555
Cu45 S1 2.247446 1_556
Cu45 S48 2.247473 1_555
Cu46 S5 2.242686 1_555
Cu46 S0 2.247446 1_555
Cu46 S48 2.247473 1_555
Cu47 S7 2.242686 1_555
Cu47 S3 2.247446 1_555
Cu47 S49 2.247473 1_555
S0 U4 2.610144 1_555
S1 U6 2.610144 1_555
S2 U5 2.610144 1_565
S3 U7 2.610144 1_666
S4 U5 2.610144 1_555
S5 U4 2.610144 1_555
S6 U6 2.610144 1_556
S7 U7 2.610144 1_666
S8 U6 2.610144 1_555
S9 U5 2.610144 1_555
S10 U4 2.610144 1_655
S11 U7 2.610144 1_666
S12 U4 2.610144 1_655
S13 U6 2.610144 1_556
S14 U5 2.610144 1_555
S15 U7 2.610144 1_555
S16 U5 2.610144 1_565
S17 U4 2.610144 1_655
S18 U6 2.610144 1_555
S19 U7 2.610144 1_555
S20 U6 2.610144 1_556
S21 U5 2.610144 1_565
S22 U4 2.610144 1_555
S23 U7 2.610144 1_555
S24 U0 2.610144 1_555
S25 U2 2.610144 1_565
S26 U1 2.610144 1_556
S27 U3 2.610144 1_555
S28 U1 2.610144 1_555
S29 U0 2.610144 1_655
S30 U2 2.610144 1_565
S31 U3 2.610144 1_555
S32 U2 2.610144 1_555
S33 U1 2.610144 1_556
S34 U0 2.610144 1_655
S35 U3 2.610144 1_555
S36 U0 2.610144 1_656
S37 U2 2.610144 1_655
S38 U1 2.610144 1_565
S39 U3 2.610144 1_555
S40 U1 2.610144 1_566
S41 U0 2.610144 1_556
S42 U2 2.610144 1_655
S43 U3 2.610144 1_555
S44 U2 2.610144 1_665
S45 U1 2.610144 1_565
S46 U0 2.610144 1_556
S47 U3 2.610144 1_555
