# generated using pymatgen
data_Ag2TeO4
_symmetry_space_group_name_H-M   'P 1'
_cell_length_a   8.39987696
_cell_length_b   6.25915077
_cell_length_c   7.31425773
_cell_angle_alpha   76.65208317
_cell_angle_beta   46.49266529
_cell_angle_gamma   57.65706605
_symmetry_Int_Tables_number   1
_chemical_formula_structural   Ag2TeO4
_chemical_formula_sum   'Ag4 Te2 O8'
_cell_volume   229.63802607
_cell_formula_units_Z   2
loop_
 _symmetry_equiv_pos_site_id
 _symmetry_equiv_pos_as_xyz
  1  'x, y, z'
loop_
 _atom_site_type_symbol
 _atom_site_label
 _atom_site_symmetry_multiplicity
 _atom_site_fract_x
 _atom_site_fract_y
 _atom_site_fract_z
 _atom_site_occupancy
  Ag  Ag0  1  0.22147900  0.22873500  0.52898500  1
  Ag  Ag1  1  0.52844100  0.53378000  0.22081700  1
  Ag  Ag2  1  0.77782600  0.78085800  0.47097300  1
  Ag  Ag3  1  0.47511500  0.47259800  0.77357900  1
  Te  Te0  1  0.12711700  0.12704900  0.12358700  1
  Te  Te1  1  0.87232300  0.87849800  0.87639300  1
  O  O0  1  0.15182000  0.31862500  0.25604800  1
  O  O1  1  0.78105900  0.26075200  0.30976500  1
  O  O2  1  0.25699300  0.78130500  0.15021100  1
  O  O3  1  0.31832700  0.14901300  0.77668800  1
  O  O4  1  0.68153100  0.85671700  0.22361100  1
  O  O5  1  0.74216300  0.22501600  0.85087500  1
  O  O6  1  0.22064600  0.73945400  0.68539000  1
  O  O7  1  0.84368200  0.68941400  0.74714400  1
loop_
_geom_bond_atom_site_label_1
_geom_bond_atom_site_label_2
_geom_bond_distance
_geom_bond_site_symmetry_2
Ag0 O3 2.317522 1_555
Ag0 O0 2.319864 1_555
Ag0 O4 2.496655 1_545
Ag0 O7 2.508513 1_455
Ag1 O2 2.310441 1_555
Ag1 O1 2.313846 1_555
Ag1 O6 2.500051 1_555
Ag1 O5 2.508638 1_554
Ag2 O4 2.315299 1_555
Ag2 O7 2.319465 1_555
Ag2 O3 2.487311 1_565
Ag2 O0 2.507209 1_655
Ag3 O6 2.314254 1_555
Ag3 O5 2.318441 1_555
Ag3 O1 2.509611 1_555
Ag3 O2 2.529723 1_556
O0 Te0 1.870570 1_555
O1 Te0 1.864802 1_655
O2 Te0 1.866312 1_565
O3 Te0 1.870961 1_556
O4 Te1 1.872590 1_554
O5 Te1 1.868468 1_545
O6 Te1 1.865087 1_455
O7 Te1 1.867264 1_555
