# generated using pymatgen
data_RbAuCl3
_symmetry_space_group_name_H-M   'P 1'
_cell_length_a   5.16353300
_cell_length_b   5.16353300
_cell_length_c   5.16353300
_cell_angle_alpha   90.00000000
_cell_angle_beta   90.00000000
_cell_angle_gamma   90.00000000
_symmetry_Int_Tables_number   1
_chemical_formula_structural   RbAuCl3
_chemical_formula_sum   'Rb1 Au1 Cl3'
_cell_volume   137.67049400
_cell_formula_units_Z   1
loop_
 _symmetry_equiv_pos_site_id
 _symmetry_equiv_pos_as_xyz
  1  'x, y, z'
loop_
 _atom_site_type_symbol
 _atom_site_label
 _atom_site_symmetry_multiplicity
 _atom_site_fract_x
 _atom_site_fract_y
 _atom_site_fract_z
 _atom_site_occupancy
  Rb  Rb0  1  0.50000000  0.50000000  0.50000000  1
  Au  Au0  1  0.00000000  0.00000000  0.00000000  1
  Cl  Cl0  1  0.00000000  0.00000000  0.50000000  1
  Cl  Cl1  1  0.50000000  0.00000000  0.00000000  1
  Cl  Cl2  1  0.00000000  0.50000000  0.00000000  1
loop_
_geom_bond_atom_site_label_1
_geom_bond_atom_site_label_2
_geom_bond_distance
_geom_bond_site_symmetry_2
Au0 Cl0 2.581767 1_554
Au0 Cl2 2.581767 1_555
Au0 Cl0 2.581767 1_555
Au0 Cl2 2.581767 1_545
Au0 Cl1 2.581767 1_455
Au0 Cl1 2.581767 1_555
Cl0 Rb0 3.651169 1_555
Cl0 Rb0 3.651169 1_545
Cl0 Rb0 3.651169 1_445
Cl0 Rb0 3.651169 1_455
Cl1 Rb0 3.651169 1_555
Cl1 Rb0 3.651169 1_545
Cl1 Rb0 3.651169 1_544
Cl1 Rb0 3.651169 1_554
Cl2 Rb0 3.651169 1_555
Cl2 Rb0 3.651169 1_454
Cl2 Rb0 3.651169 1_554
Cl2 Rb0 3.651169 1_455
