# generated using pymatgen
data_Mg7GaAg12
_symmetry_space_group_name_H-M   'P 1'
_cell_length_a   19.32466814
_cell_length_b   19.32466814
_cell_length_c   19.32466755
_cell_angle_alpha   13.91992563
_cell_angle_beta   13.91992563
_cell_angle_gamma   13.91992567
_symmetry_Int_Tables_number   1
_chemical_formula_structural   Mg7GaAg12
_chemical_formula_sum   'Mg7 Ga1 Ag12'
_cell_volume   363.46669603
_cell_formula_units_Z   1
loop_
 _symmetry_equiv_pos_site_id
 _symmetry_equiv_pos_as_xyz
  1  'x, y, z'
loop_
 _atom_site_type_symbol
 _atom_site_label
 _atom_site_symmetry_multiplicity
 _atom_site_fract_x
 _atom_site_fract_y
 _atom_site_fract_z
 _atom_site_occupancy
  Mg  Mg0  1  0.39999000  0.39999000  0.39999000  1
  Mg  Mg1  1  0.20003500  0.20003500  0.20003500  1
  Mg  Mg2  1  0.80017200  0.80017200  0.80017200  1
  Mg  Mg3  1  0.00001100  0.00001100  0.00001100  1
  Mg  Mg4  1  0.59976200  0.59976200  0.59976200  1
  Mg  Mg5  1  0.10000800  0.10000800  0.10000800  1
  Mg  Mg6  1  0.70006600  0.70006600  0.70006600  1
  Ga  Ga0  1  0.29995700  0.29995700  0.29995700  1
  Ag  Ag0  1  0.04995000  0.04995000  0.04995000  1
  Ag  Ag1  1  0.85005500  0.85005500  0.85005500  1
  Ag  Ag2  1  0.44995000  0.44995000  0.44995000  1
  Ag  Ag3  1  0.64995500  0.64995500  0.64995500  1
  Ag  Ag4  1  0.25014300  0.25014300  0.25014300  1
  Ag  Ag5  1  0.34990800  0.34990800  0.34990800  1
  Ag  Ag6  1  0.14989600  0.14989600  0.14989600  1
  Ag  Ag7  1  0.75003200  0.75003200  0.75003200  1
  Ag  Ag8  1  0.95010100  0.95010100  0.95010100  1
  Ag  Ag9  1  0.54998400  0.54998400  0.54998400  1
  Ag  Ag10  1  0.90001500  0.90001500  0.90001500  1
  Ag  Ag11  1  0.50000700  0.50000700  0.50000700  1
loop_
_geom_bond_atom_site_label_1
_geom_bond_atom_site_label_2
_geom_bond_distance
_geom_bond_site_symmetry_2
Ag0 Mg6 2.865994 1_454
Ag0 Mg6 2.865994 1_544
Ag0 Mg6 2.865995 1_445
Ag0 Mg3 2.866683 1_555
Ag0 Mg0 2.868975 1_455
Ag0 Mg0 2.868975 1_545
Ag0 Mg0 2.868976 1_554
Ag0 Mg5 2.873514 1_555
Ag1 Mg2 2.863468 1_555
Ag1 Mg1 2.867826 1_566
Ag1 Mg1 2.867826 1_656
Ag1 Mg1 2.867826 1_665
Ag1 Ag10 2.867888 1_555
Ag1 Ag11 2.869129 1_565
Ag1 Ag11 2.869129 1_655
Ag1 Ag11 2.869129 1_556
Ag2 Mg5 2.867100 1_565
Ag2 Mg5 2.867100 1_655
Ag2 Mg5 2.867100 1_556
Ag2 Mg0 2.867888 1_555
Ag2 Mg2 2.872485 1_455
Ag2 Mg2 2.872485 1_545
Ag2 Mg2 2.872485 1_554
Ag3 Ga0 2.868170 1_655
Ag3 Ga0 2.868170 1_565
Ag3 Ga0 2.868171 1_556
Ag3 Mg3 2.869283 1_566
Ag3 Mg3 2.869283 1_656
Ag3 Mg3 2.869283 1_665
Ag3 Mg6 2.876556 1_555
Ag3 Mg4 2.881263 1_555
Ag4 Ga0 2.859507 1_555
Ag4 Mg4 2.860988 1_545
Ag4 Mg4 2.860988 1_455
Ag4 Mg4 2.860988 1_554
Ag4 Mg1 2.876384 1_555
Ag5 Mg3 2.866242 1_565
Ag5 Mg3 2.866242 1_655
Ag5 Mg3 2.866242 1_556
Ag5 Ga0 2.867372 1_555
Ag5 Mg6 2.871247 1_545
Ag5 Mg6 2.871247 1_455
Ag5 Mg6 2.871247 1_554
Ag5 Mg0 2.874892 1_555
Ag6 Mg2 2.862963 1_454
Ag6 Mg2 2.862963 1_544
Ag6 Mg2 2.862963 1_445
Ag6 Mg5 2.863755 1_555
Ag6 Mg1 2.878164 1_555
Ag7 Mg5 2.867750 1_656
Ag7 Mg5 2.867750 1_566
Ag7 Mg5 2.867750 1_665
Ag7 Mg6 2.868233 1_555
Ag7 Mg0 2.869014 1_655
Ag7 Mg0 2.869014 1_565
Ag7 Mg0 2.869014 1_556
Ag7 Mg2 2.878221 1_555
Ag8 Mg3 2.865018 1_666
Ag8 Ga0 2.865462 1_656
Ag8 Ga0 2.865462 1_566
Ag8 Ga0 2.865462 1_665
Ag8 Mg4 2.874758 1_655
Ag8 Mg4 2.874758 1_565
Ag8 Mg4 2.874759 1_556
Ag9 Mg4 2.857441 1_555
Ag9 Mg1 2.867234 1_655
Ag9 Mg1 2.867234 1_565
Ag9 Mg1 2.867234 1_556
Ag10 Ag9 2.868803 1_565
Ag10 Ag9 2.868803 1_655
Ag10 Ag9 2.868803 1_556
Ag10 Ag4 2.870668 1_566
Ag10 Ag4 2.870668 1_656
Ag10 Ag4 2.870668 1_665
Ag10 Ag8 2.875121 1_555
Ag10 Mg4 3.304124 1_556
Ag10 Mg4 3.304125 1_565
Ag10 Mg4 3.304125 1_655
Ag10 Mg1 3.311829 1_665
Ag10 Mg1 3.311830 1_566
Ag10 Mg1 3.311830 1_656
Ag11 Ag9 2.868864 1_555
Ag11 Ag6 2.870340 1_655
Ag11 Ag6 2.870340 1_565
Ag11 Ag6 2.870341 1_556
Ag11 Ag2 2.873456 1_555
Ag11 Mg2 3.307030 1_554
Ag11 Mg2 3.307031 1_545
Ag11 Mg2 3.307031 1_455
Ag11 Mg1 3.313421 1_556
Ag11 Mg1 3.313422 1_655
Ag11 Mg1 3.313422 1_565
