# generated using pymatgen
data_MnTlCuSe2
_symmetry_space_group_name_H-M   'P 1'
_cell_length_a   7.70326117
_cell_length_b   7.70326117
_cell_length_c   7.70326117
_cell_angle_alpha   149.71437482
_cell_angle_beta   149.71437482
_cell_angle_gamma   43.36083157
_symmetry_Int_Tables_number   1
_chemical_formula_structural   MnTlCuSe2
_chemical_formula_sum   'Mn1 Tl1 Cu1 Se2'
_cell_volume   115.94523696
_cell_formula_units_Z   1
loop_
 _symmetry_equiv_pos_site_id
 _symmetry_equiv_pos_as_xyz
  1  'x, y, z'
loop_
 _atom_site_type_symbol
 _atom_site_label
 _atom_site_symmetry_multiplicity
 _atom_site_fract_x
 _atom_site_fract_y
 _atom_site_fract_z
 _atom_site_occupancy
  Mn  Mn0  1  0.75000000  0.25000000  0.50000000  1
  Tl  Tl0  1  0.00000000  0.00000000  0.00000000  1
  Cu  Cu0  1  0.25000000  0.75000000  0.50000000  1
  Se  Se0  1  0.64150300  0.64150300  0.00000000  1
  Se  Se1  1  0.35849700  0.35849700  0.00000000  1
loop_
_geom_bond_atom_site_label_1
_geom_bond_atom_site_label_2
_geom_bond_distance
_geom_bond_site_symmetry_2
Mn0 Se1 2.542066 1_555
Mn0 Se1 2.542066 1_656
Mn0 Se0 2.542066 1_545
Mn0 Se0 2.542066 1_556
Cu0 Se1 2.542066 1_555
Cu0 Se1 2.542066 1_566
Cu0 Se0 2.542066 1_556
Cu0 Se0 2.542066 1_455
Cu0 Mn0 2.845809 1_566
Cu0 Mn0 2.845809 1_555
Cu0 Mn0 2.845809 1_454
Cu0 Mn0 2.845809 1_465
