# generated using pymatgen
data_Tb(Fe5Re)2
_symmetry_space_group_name_H-M   'P 1'
_cell_length_a   4.69327100
_cell_length_b   6.48583575
_cell_length_c   6.48583575
_cell_angle_alpha   96.51264822
_cell_angle_beta   111.21134640
_cell_angle_gamma   68.78865360
_symmetry_Int_Tables_number   1
_chemical_formula_structural   Tb(Fe5Re)2
_chemical_formula_sum   'Tb1 Fe10 Re2'
_cell_volume   171.54830720
_cell_formula_units_Z   1
loop_
 _symmetry_equiv_pos_site_id
 _symmetry_equiv_pos_as_xyz
  1  'x, y, z'
loop_
 _atom_site_type_symbol
 _atom_site_label
 _atom_site_symmetry_multiplicity
 _atom_site_fract_x
 _atom_site_fract_y
 _atom_site_fract_z
 _atom_site_occupancy
  Tb  Tb0  1  0.00000000  0.00000000  0.00000000  1
  Fe  Fe0  1  0.72069800  0.77930200  0.22069800  1
  Fe  Fe1  1  0.27930200  0.22069800  0.77930200  1
  Fe  Fe2  1  0.50000000  0.77089200  0.77089200  1
  Fe  Fe3  1  0.50000000  0.22910800  0.22910800  1
  Fe  Fe4  1  0.50000000  0.00000000  0.50000000  1
  Fe  Fe5  1  0.00000000  0.00000000  0.50000000  1
  Fe  Fe6  1  0.50000000  0.50000000  0.00000000  1
  Fe  Fe7  1  0.00000000  0.50000000  0.00000000  1
  Fe  Fe8  1  0.64128500  0.35871500  0.64128500  1
  Fe  Fe9  1  0.35871500  0.64128500  0.35871500  1
  Re  Re0  1  0.00000000  0.35715600  0.35715600  1
  Re  Re1  1  0.00000000  0.64284400  0.64284400  1
loop_
_geom_bond_atom_site_label_1
_geom_bond_atom_site_label_2
_geom_bond_distance
_geom_bond_site_symmetry_2
Fe0 Fe6 2.469827 1_555
Fe0 Fe4 2.469827 1_565
Fe0 Fe7 2.469827 1_655
Fe0 Fe5 2.469827 1_665
Fe0 Fe9 2.621354 1_555
Fe0 Fe9 2.621354 1_655
Fe0 Re0 2.666679 1_655
Fe0 Re1 2.666679 1_655
Fe0 Fe2 2.721220 1_554
Fe0 Fe3 2.721220 1_565
Fe0 Tb0 2.999415 1_665
Fe0 Tb0 2.999416 1_565
Fe1 Fe4 2.469827 1_555
Fe1 Fe6 2.469827 1_556
Fe1 Fe5 2.469827 1_555
Fe1 Fe7 2.469827 1_556
Fe1 Fe8 2.621354 1_555
Fe1 Fe8 2.621354 1_455
Fe1 Re0 2.666679 1_555
Fe1 Re1 2.666679 1_555
Fe1 Fe3 2.721220 1_556
Fe1 Fe2 2.721220 1_545
Fe1 Tb0 2.999415 1_556
Fe1 Tb0 2.999416 1_656
Fe2 Fe4 2.426359 1_565
Fe2 Fe6 2.426359 1_556
Fe2 Fe7 2.426360 1_656
Fe2 Fe5 2.426360 1_565
Fe2 Re1 2.594165 1_655
Fe2 Re1 2.594165 1_555
Fe2 Fe8 2.627502 1_555
Fe2 Fe9 2.627502 1_555
Fe2 Tb0 3.069519 1_666
Fe2 Tb0 3.069519 1_566
Fe3 Fe6 2.426359 1_555
Fe3 Fe4 2.426359 1_555
Fe3 Fe5 2.426360 1_655
Fe3 Fe7 2.426360 1_555
Fe3 Re0 2.594165 1_555
Fe3 Re0 2.594165 1_655
Fe3 Fe8 2.627502 1_555
Fe3 Fe9 2.627502 1_555
Fe3 Tb0 3.069519 1_655
Fe3 Tb0 3.069519 1_555
Fe4 Fe5 2.346636 1_555
Fe4 Fe5 2.346636 1_655
Fe4 Re1 2.590585 1_645
Fe4 Re0 2.590585 1_555
Fe4 Fe9 2.623991 1_545
Fe4 Fe8 2.623991 1_555
Fe4 Tb0 3.242918 1_656
Fe4 Tb0 3.242918 1_555
Fe5 Re1 2.590585 1_545
Fe5 Re0 2.590585 1_555
Fe5 Fe9 2.623991 1_545
Fe5 Fe8 2.623991 1_455
Fe5 Tb0 3.242918 1_555
Fe5 Tb0 3.242918 1_556
Fe6 Fe7 2.346636 1_655
Fe6 Fe7 2.346636 1_555
Fe6 Re0 2.590585 1_655
Fe6 Re1 2.590585 1_554
Fe6 Fe8 2.623991 1_554
Fe6 Fe9 2.623991 1_555
Fe6 Tb0 3.242918 1_655
Fe6 Tb0 3.242918 1_565
Fe7 Re1 2.590585 1_554
Fe7 Re0 2.590585 1_555
Fe7 Fe8 2.623991 1_454
Fe7 Fe9 2.623991 1_555
Fe7 Tb0 3.242918 1_555
Fe7 Tb0 3.242918 1_565
Fe8 Fe9 2.391815 1_555
Fe8 Re1 2.908410 1_655
Fe8 Re0 2.908410 1_655
Fe8 Re0 2.908410 1_555
Fe8 Re1 2.908410 1_555
Fe8 Tb0 3.036345 1_656
Fe9 Re1 2.908410 1_555
Fe9 Re0 2.908410 1_555
Fe9 Re0 2.908410 1_655
Fe9 Re1 2.908410 1_655
Fe9 Tb0 3.036345 1_565
Re0 Re1 2.467353 1_555
Re0 Tb0 3.084589 1_555
Re1 Tb0 3.084589 1_566
