# generated using pymatgen
data_Te2W2N2O15
_symmetry_space_group_name_H-M   'P 1'
_cell_length_a   7.34313568
_cell_length_b   7.34313568
_cell_length_c   7.34313568
_cell_angle_alpha   120.08081572
_cell_angle_beta   119.49211742
_cell_angle_gamma   90.37100158
_symmetry_Int_Tables_number   1
_chemical_formula_structural   Te2W2N2O15
_chemical_formula_sum   'Te2 W2 N2 O15'
_cell_volume   280.86979613
_cell_formula_units_Z   1
loop_
 _symmetry_equiv_pos_site_id
 _symmetry_equiv_pos_as_xyz
  1  'x, y, z'
loop_
 _atom_site_type_symbol
 _atom_site_label
 _atom_site_symmetry_multiplicity
 _atom_site_fract_x
 _atom_site_fract_y
 _atom_site_fract_z
 _atom_site_occupancy
  Te  Te0  1  0.78545600  0.53620300  0.75074700  1
  Te  Te1  1  0.78545600  0.03471000  0.24925300  1
  W  W0  1  0.28431400  0.53415600  0.75015700  1
  W  W1  1  0.78399900  0.53415600  0.24984300  1
  N  N0  1  0.71307100  0.00616000  0.70691200  1
  N  N1  1  0.29924800  0.00616000  0.29308800  1
  O  O0  1  0.85564800  0.85564800  0.00000000  1
  O  O1  1  0.23185200  0.23185200  0.00000000  1
  O  O2  1  0.84591000  0.84639200  0.37230000  1
  O  O3  1  0.47409200  0.47361000  0.62770000  1
  O  O4  1  0.47409200  0.84639200  0.00048200  1
  O  O5  1  0.84591000  0.47361000  0.99951800  1
  O  O6  1  0.71693800  0.21693800  0.50000000  1
  O  O7  1  0.08798800  0.58798800  0.50000000  1
  O  O8  1  0.71607300  0.22083900  0.12416600  1
  O  O9  1  0.09667300  0.59190700  0.87583400  1
  O  O10  1  0.09667300  0.22083900  0.50476600  1
  O  O11  1  0.71607300  0.59190700  0.49523400  1
  O  O12  1  0.16811900  0.01837300  0.85025400  1
  O  O13  1  0.16811900  0.31786400  0.14974600  1
  O  O14  1  0.47929600  0.47929600  0.00000000  1
loop_
_geom_bond_atom_site_label_1
_geom_bond_atom_site_label_2
_geom_bond_distance
_geom_bond_site_symmetry_2
O0 Te0 1.967157 1_554
O0 Te1 1.967158 1_565
O1 O13 1.281167 1_555
O1 O12 1.281168 1_554
O2 W1 1.946638 1_555
O2 Te1 1.947118 1_565
O3 W0 1.946631 1_555
O3 Te0 1.947111 1_555
O4 W0 1.946637 1_554
O4 Te1 1.947113 1_565
O5 W1 1.946638 1_556
O5 Te0 1.947111 1_555
O6 Te1 1.971041 1_555
O6 Te0 1.971042 1_555
O7 W1 1.933073 1_455
O7 W0 1.933075 1_555
O8 Te1 1.943725 1_555
O8 W1 1.948663 1_555
O9 Te0 1.943732 1_455
O9 W0 1.948670 1_555
O10 Te1 1.943730 1_455
O10 W0 1.948665 1_555
O11 Te0 1.943732 1_555
O11 W1 1.948663 1_555
O14 W0 1.933944 1_554
O14 W1 1.933946 1_555
