# generated using pymatgen
data_BiSb3(PO4)6
_symmetry_space_group_name_H-M   'P 1'
_cell_length_a   12.32428727
_cell_length_b   12.32428727
_cell_length_c   12.32428792
_cell_angle_alpha   89.34905708
_cell_angle_beta   89.34905708
_cell_angle_gamma   89.34905536
_symmetry_Int_Tables_number   1
_chemical_formula_structural   BiSb3(PO4)6
_chemical_formula_sum   'Bi4 Sb12 P24 O96'
_cell_volume   1871.55244379
_cell_formula_units_Z   4
loop_
 _symmetry_equiv_pos_site_id
 _symmetry_equiv_pos_as_xyz
  1  'x, y, z'
loop_
 _atom_site_type_symbol
 _atom_site_label
 _atom_site_symmetry_multiplicity
 _atom_site_fract_x
 _atom_site_fract_y
 _atom_site_fract_z
 _atom_site_occupancy
  Bi  Bi0  1  0.50000000  0.00000000  0.50000000  1
  Bi  Bi1  1  0.00000000  0.50000000  0.50000000  1
  Bi  Bi2  1  0.50000000  0.50000000  0.00000000  1
  Bi  Bi3  1  0.00000000  0.00000000  0.00000000  1
  Sb  Sb0  1  0.75184200  0.21266700  0.74662200  1
  Sb  Sb1  1  0.21266700  0.74662200  0.75184200  1
  Sb  Sb2  1  0.74662200  0.75184200  0.21266700  1
  Sb  Sb3  1  0.24815800  0.78733300  0.25337800  1
  Sb  Sb4  1  0.78733300  0.25337800  0.24815800  1
  Sb  Sb5  1  0.25337800  0.24815800  0.78733300  1
  Sb  Sb6  1  0.50000000  0.50000000  0.50000000  1
  Sb  Sb7  1  0.28227800  0.28227800  0.28227800  1
  Sb  Sb8  1  0.71772200  0.71772200  0.71772200  1
  Sb  Sb9  1  0.00000000  0.50000000  0.00000000  1
  Sb  Sb10  1  0.50000000  0.00000000  0.00000000  1
  Sb  Sb11  1  0.00000000  0.00000000  0.50000000  1
  P  P0  1  0.35967600  0.02846000  0.23190600  1
  P  P1  1  0.02846000  0.23190600  0.35967600  1
  P  P2  1  0.23190600  0.35967600  0.02846000  1
  P  P3  1  0.64032400  0.97154000  0.76809400  1
  P  P4  1  0.97154000  0.76809400  0.64032400  1
  P  P5  1  0.76809400  0.64032400  0.97154000  1
  P  P6  1  0.48835000  0.75066000  0.13114100  1
  P  P7  1  0.75066000  0.13114100  0.48835000  1
  P  P8  1  0.13114100  0.48835000  0.75066000  1
  P  P9  1  0.51165000  0.24934000  0.86885900  1
  P  P10  1  0.24934000  0.86885900  0.51165000  1
  P  P11  1  0.86885900  0.51165000  0.24934000  1
  P  P12  1  0.36382700  0.26615600  0.53723100  1
  P  P13  1  0.26615600  0.53723100  0.36382700  1
  P  P14  1  0.53723100  0.36382700  0.26615600  1
  P  P15  1  0.63617300  0.73384400  0.46276900  1
  P  P16  1  0.73384400  0.46276900  0.63617300  1
  P  P17  1  0.46276900  0.63617300  0.73384400  1
  P  P18  1  0.12739700  0.73304200  0.01260700  1
  P  P19  1  0.73304200  0.01260700  0.12739700  1
  P  P20  1  0.01260700  0.12739700  0.73304200  1
  P  P21  1  0.87260300  0.26695800  0.98739300  1
  P  P22  1  0.26695800  0.98739300  0.87260300  1
  P  P23  1  0.98739300  0.87260300  0.26695800  1
  O  O0  1  0.61638700  0.43899400  0.59542200  1
  O  O1  1  0.43899400  0.59542200  0.61638700  1
  O  O2  1  0.59542200  0.61638700  0.43899400  1
  O  O3  1  0.38361300  0.56100600  0.40457800  1
  O  O4  1  0.56100600  0.40457800  0.38361300  1
  O  O5  1  0.40457800  0.38361300  0.56100600  1
  O  O6  1  0.09182000  0.80295000  0.29236100  1
  O  O7  1  0.80295000  0.29236100  0.09182000  1
  O  O8  1  0.29236100  0.09182000  0.80295000  1
  O  O9  1  0.90818000  0.19705000  0.70763900  1
  O  O10  1  0.19705000  0.70763900  0.90818000  1
  O  O11  1  0.70763900  0.90818000  0.19705000  1
  O  O12  1  0.45049000  0.67496000  0.04436300  1
  O  O13  1  0.67496000  0.04436300  0.45049000  1
  O  O14  1  0.04436300  0.45049000  0.67496000  1
  O  O15  1  0.54951000  0.32504000  0.95563700  1
  O  O16  1  0.32504000  0.95563700  0.54951000  1
  O  O17  1  0.95563700  0.54951000  0.32504000  1
  O  O18  1  0.00775400  0.96289400  0.18812100  1
  O  O19  1  0.96289400  0.18812100  0.00775400  1
  O  O20  1  0.18812100  0.00775400  0.96289400  1
  O  O21  1  0.99224600  0.03710600  0.81187900  1
  O  O22  1  0.03710600  0.81187900  0.99224600  1
  O  O23  1  0.81187900  0.99224600  0.03710600  1
  O  O24  1  0.28043300  0.27524900  0.44242000  1
  O  O25  1  0.27524900  0.44242000  0.28043300  1
  O  O26  1  0.44242000  0.28043300  0.27524900  1
  O  O27  1  0.71956700  0.72475100  0.55758000  1
  O  O28  1  0.72475100  0.55758000  0.71956700  1
  O  O29  1  0.55758000  0.71956700  0.72475100  1
  O  O30  1  0.69006200  0.55205500  0.00415700  1
  O  O31  1  0.55205500  0.00415700  0.69006200  1
  O  O32  1  0.00415700  0.69006200  0.55205500  1
  O  O33  1  0.30993800  0.44794500  0.99584300  1
  O  O34  1  0.44794500  0.99584300  0.30993800  1
  O  O35  1  0.99584300  0.30993800  0.44794500  1
  O  O36  1  0.59369400  0.70848200  0.18759600  1
  O  O37  1  0.70848200  0.18759600  0.59369400  1
  O  O38  1  0.18759600  0.59369400  0.70848200  1
  O  O39  1  0.40630600  0.29151800  0.81240400  1
  O  O40  1  0.29151800  0.81240400  0.40630600  1
  O  O41  1  0.81240400  0.40630600  0.29151800  1
  O  O42  1  0.94061000  0.91821400  0.37766700  1
  O  O43  1  0.91821400  0.37766700  0.94061000  1
  O  O44  1  0.37766700  0.94061000  0.91821400  1
  O  O45  1  0.05939000  0.08178600  0.62233300  1
  O  O46  1  0.08178600  0.62233300  0.05939000  1
  O  O47  1  0.62233300  0.05939000  0.08178600  1
  O  O48  1  0.40550200  0.76082600  0.22694300  1
  O  O49  1  0.76082600  0.22694300  0.40550200  1
  O  O50  1  0.22694300  0.40550200  0.76082600  1
  O  O51  1  0.59449800  0.23917400  0.77305700  1
  O  O52  1  0.23917400  0.77305700  0.59449800  1
  O  O53  1  0.77305700  0.59449800  0.23917400  1
  O  O54  1  0.54498700  0.81372300  0.48264700  1
  O  O55  1  0.81372300  0.48264700  0.54498700  1
  O  O56  1  0.48264700  0.54498700  0.81372300  1
  O  O57  1  0.45501300  0.18627700  0.51735300  1
  O  O58  1  0.18627700  0.51735300  0.45501300  1
  O  O59  1  0.51735300  0.45501300  0.18627700  1
  O  O60  1  0.23119300  0.63181700  0.28620500  1
  O  O61  1  0.63181700  0.28620500  0.23119300  1
  O  O62  1  0.28620500  0.23119300  0.63181700  1
  O  O63  1  0.76880700  0.36818300  0.71379500  1
  O  O64  1  0.36818300  0.71379500  0.76880700  1
  O  O65  1  0.71379500  0.76880700  0.36818300  1
  O  O66  1  0.06234900  0.11566800  0.40207700  1
  O  O67  1  0.11566800  0.40207700  0.06234900  1
  O  O68  1  0.40207700  0.06234900  0.11566800  1
  O  O69  1  0.93765100  0.88433200  0.59792300  1
  O  O70  1  0.88433200  0.59792300  0.93765100  1
  O  O71  1  0.59792300  0.93765100  0.88433200  1
  O  O72  1  0.28726600  0.12353800  0.27488200  1
  O  O73  1  0.12353800  0.27488200  0.28726600  1
  O  O74  1  0.27488200  0.28726600  0.12353800  1
  O  O75  1  0.71273400  0.87646200  0.72511800  1
  O  O76  1  0.87646200  0.72511800  0.71273400  1
  O  O77  1  0.72511800  0.71273400  0.87646200  1
  O  O78  1  0.73079400  0.05892300  0.78581300  1
  O  O79  1  0.05892300  0.78581300  0.73079400  1
  O  O80  1  0.78581300  0.73079400  0.05892300  1
  O  O81  1  0.26920600  0.94107700  0.21418700  1
  O  O82  1  0.94107700  0.21418700  0.26920600  1
  O  O83  1  0.21418700  0.26920600  0.94107700  1
  O  O84  1  0.13564600  0.91647600  0.48528300  1
  O  O85  1  0.91647600  0.48528300  0.13564600  1
  O  O86  1  0.48528300  0.13564600  0.91647600  1
  O  O87  1  0.86435400  0.08352400  0.51471700  1
  O  O88  1  0.08352400  0.51471700  0.86435400  1
  O  O89  1  0.51471700  0.86435400  0.08352400  1
  O  O90  1  0.78590300  0.23322600  0.90305800  1
  O  O91  1  0.23322600  0.90305800  0.78590300  1
  O  O92  1  0.90305800  0.78590300  0.23322600  1
  O  O93  1  0.21409700  0.76677400  0.09694200  1
  O  O94  1  0.76677400  0.09694200  0.21409700  1
  O  O95  1  0.09694200  0.21409700  0.76677400  1
loop_
_geom_bond_atom_site_label_1
_geom_bond_atom_site_label_2
_geom_bond_distance
_geom_bond_site_symmetry_2
Bi0 O13 2.304343 1_555
Bi0 O16 2.304343 1_545
Bi0 O57 2.367077 1_555
Bi0 O54 2.367077 1_545
Bi0 O31 2.436915 1_555
Bi0 O34 2.436915 1_545
Bi1 O17 2.304344 1_455
Bi1 O14 2.304344 1_555
Bi1 O58 2.367078 1_555
Bi1 O55 2.367078 1_455
Bi1 O32 2.436915 1_555
Bi1 O35 2.436915 1_455
Bi2 O12 2.304343 1_555
Bi2 O15 2.304343 1_554
Bi2 O59 2.367078 1_555
Bi2 O56 2.367078 1_554
Bi2 O30 2.436915 1_555
Bi2 O33 2.436915 1_554
Bi3 O19 2.360817 1_455
Bi3 O22 2.360817 1_544
Bi3 O23 2.360817 1_445
Bi3 O20 2.360817 1_554
Bi3 O18 2.360817 1_545
Bi3 O21 2.360817 1_454
O0 P16 1.569413 1_555
O0 Sb6 1.999870 1_555
O1 P17 1.569413 1_555
O1 Sb6 1.999870 1_555
O2 P15 1.569413 1_555
O2 Sb6 1.999870 1_555
O3 P13 1.569413 1_555
O3 Sb6 1.999870 1_555
O4 P14 1.569413 1_555
O4 Sb6 1.999870 1_555
O5 P12 1.569413 1_555
O5 Sb6 1.999870 1_555
O6 P23 1.571366 1_455
O6 Sb3 1.988187 1_555
O7 P21 1.571366 1_554
O7 Sb4 1.988187 1_555
O8 P22 1.571366 1_545
O8 Sb5 1.988187 1_555
O9 P20 1.571366 1_655
O9 Sb0 1.988187 1_555
O10 P18 1.571366 1_556
O10 Sb1 1.988187 1_555
O11 P19 1.571366 1_565
O11 Sb2 1.988187 1_555
O12 P6 1.508571 1_555
O13 P7 1.508571 1_555
O14 P8 1.508571 1_555
O15 P9 1.508571 1_555
O16 P10 1.508571 1_555
O17 P11 1.508571 1_555
O18 P23 1.490468 1_455
O19 P21 1.490468 1_554
O20 P22 1.490468 1_545
O21 P20 1.490468 1_655
O22 P18 1.490468 1_556
O23 P19 1.490468 1_565
O24 P12 1.567134 1_555
O24 Sb7 1.974437 1_555
O25 P13 1.567134 1_555
O25 Sb7 1.974437 1_555
O26 P14 1.567134 1_555
O26 Sb7 1.974437 1_555
O27 P15 1.567134 1_555
O27 Sb8 1.974437 1_555
O28 P16 1.567134 1_555
O28 Sb8 1.974437 1_555
O29 P17 1.567134 1_555
O29 Sb8 1.974437 1_555
O30 P5 1.508280 1_554
O31 P3 1.508280 1_545
O32 P4 1.508280 1_455
O33 P2 1.508280 1_556
O34 P0 1.508280 1_565
O35 P1 1.508280 1_655
O36 P6 1.561034 1_555
O36 Sb2 1.993264 1_555
O37 P7 1.561034 1_555
O37 Sb0 1.993265 1_555
O38 P8 1.561034 1_555
O38 Sb1 1.993264 1_555
O39 P9 1.561034 1_555
O39 Sb5 1.993264 1_555
O40 P10 1.561034 1_555
O40 Sb3 1.993265 1_555
O41 P11 1.561034 1_555
O41 Sb4 1.993264 1_555
O42 P23 1.581839 1_555
O42 Sb11 1.975129 1_665
O43 P21 1.581839 1_555
O43 Sb9 1.975129 1_656
O44 P22 1.581839 1_555
O44 Sb10 1.975129 1_566
O45 P20 1.581839 1_555
O45 Sb11 1.975129 1_555
O46 P18 1.581839 1_555
O46 Sb9 1.975129 1_555
O47 P19 1.581839 1_555
O47 Sb10 1.975129 1_555
O48 P6 1.557344 1_555
O48 Sb3 1.986666 1_555
O49 P7 1.557344 1_555
O49 Sb4 1.986666 1_555
O50 P8 1.557344 1_555
O50 Sb5 1.986666 1_555
O51 P9 1.557344 1_555
O51 Sb0 1.986666 1_555
O52 P10 1.557344 1_555
O52 Sb1 1.986666 1_555
O53 P11 1.557344 1_555
O53 Sb2 1.986666 1_555
O54 P15 1.505384 1_555
O55 P16 1.505384 1_555
O56 P17 1.505384 1_555
O57 P12 1.505384 1_555
O58 P13 1.505384 1_555
O59 P14 1.505384 1_555
O60 P13 1.559585 1_555
O60 Sb3 1.967334 1_555
O61 P14 1.559585 1_555
O61 Sb4 1.967334 1_555
O62 P12 1.559585 1_555
O62 Sb5 1.967334 1_555
O63 P16 1.559585 1_555
O63 Sb0 1.967334 1_555
O64 P17 1.559585 1_555
O64 Sb1 1.967334 1_555
O65 P15 1.559585 1_555
O65 Sb2 1.967334 1_555
O66 P1 1.572916 1_555
O66 Sb11 2.010906 1_555
O67 P2 1.572916 1_555
O67 Sb9 2.010906 1_555
O68 P0 1.572916 1_555
O68 Sb10 2.010906 1_555
O69 P4 1.572916 1_555
O69 Sb11 2.010906 1_665
O70 P5 1.572916 1_555
O70 Sb9 2.010906 1_656
O71 P3 1.572916 1_555
O71 Sb10 2.010906 1_566
O72 P0 1.558702 1_555
O72 Sb7 1.959748 1_555
O73 P1 1.558702 1_555
O73 Sb7 1.959748 1_555
O74 P2 1.558702 1_555
O74 Sb7 1.959748 1_555
O75 P3 1.558702 1_555
O75 Sb8 1.959748 1_555
O76 P4 1.558702 1_555
O76 Sb8 1.959748 1_555
O77 P5 1.558702 1_555
O77 Sb8 1.959748 1_555
O78 P3 1.577596 1_545
O78 Sb0 1.969344 1_555
O79 P4 1.577596 1_455
O79 Sb1 1.969344 1_555
O80 P5 1.577596 1_554
O80 Sb2 1.969344 1_555
O81 P0 1.577596 1_565
O81 Sb3 1.969344 1_555
O82 P1 1.577596 1_655
O82 Sb4 1.969344 1_555
O83 P2 1.577596 1_556
O83 Sb5 1.969344 1_555
O84 P10 1.549408 1_555
O84 Sb11 1.960988 1_565
O85 P11 1.549409 1_555
O85 Sb9 1.960988 1_655
O86 P9 1.549409 1_555
O86 Sb10 1.960988 1_556
O87 P7 1.549408 1_555
O87 Sb11 1.960988 1_655
O88 P8 1.549409 1_555
O88 Sb9 1.960988 1_556
O89 P6 1.549409 1_555
O89 Sb10 1.960988 1_565
O90 P21 1.562045 1_555
O90 Sb0 1.997337 1_555
O91 P22 1.562045 1_555
O91 Sb1 1.997337 1_555
O92 P23 1.562045 1_555
O92 Sb2 1.997337 1_555
O93 P18 1.562045 1_555
O93 Sb3 1.997337 1_555
O94 P19 1.562045 1_555
O94 Sb4 1.997337 1_555
O95 P20 1.562045 1_555
O95 Sb5 1.997337 1_555
