# generated using pymatgen
data_Ba2Y2Mn4O11
_symmetry_space_group_name_H-M   'P 1'
_cell_length_a   3.85549933
_cell_length_b   8.19348075
_cell_length_c   8.73000331
_cell_angle_alpha   62.78894104
_cell_angle_beta   89.98684927
_cell_angle_gamma   90.07912341
_symmetry_Int_Tables_number   1
_chemical_formula_structural   Ba2Y2Mn4O11
_chemical_formula_sum   'Ba2 Y2 Mn4 O11'
_cell_volume   245.25896472
_cell_formula_units_Z   1
loop_
 _symmetry_equiv_pos_site_id
 _symmetry_equiv_pos_as_xyz
  1  'x, y, z'
loop_
 _atom_site_type_symbol
 _atom_site_label
 _atom_site_symmetry_multiplicity
 _atom_site_fract_x
 _atom_site_fract_y
 _atom_site_fract_z
 _atom_site_occupancy
  Ba  Ba0  1  0.50000000  0.50000000  0.50000000  1
  Ba  Ba1  1  0.50000000  0.00000000  0.50000000  1
  Y  Y0  1  0.50471000  0.71884300  0.00875100  1
  Y  Y1  1  0.49529000  0.28115700  0.99124900  1
  Mn  Mn0  1  0.00386700  0.88183800  0.22743900  1
  Mn  Mn1  1  0.99613300  0.11816200  0.77256100  1
  Mn  Mn2  1  0.99882500  0.62943300  0.75132800  1
  Mn  Mn3  1  0.00117500  0.37056700  0.24867200  1
  O  O0  1  0.49894000  0.61804100  0.77624400  1
  O  O1  1  0.50106000  0.38195900  0.22375600  1
  O  O2  1  0.00147000  0.65651100  0.20786700  1
  O  O3  1  0.99853000  0.34348900  0.79213300  1
  O  O4  1  0.00799700  0.13369000  0.18848900  1
  O  O5  1  0.99200300  0.86631000  0.81151100  1
  O  O6  1  0.00056100  0.75402100  0.50226400  1
  O  O7  1  0.99943900  0.24597900  0.49773600  1
  O  O8  1  0.00000000  0.50000000  0.00000000  1
  O  O9  1  0.50400400  0.89714000  0.17769100  1
  O  O10  1  0.49599600  0.10286000  0.82230900  1
loop_
_geom_bond_atom_site_label_1
_geom_bond_atom_site_label_2
_geom_bond_distance
_geom_bond_site_symmetry_2
Ba0 O7 2.843128 1_455
Ba0 O6 2.843128 1_655
Ba0 O7 2.844086 1_555
Ba0 O6 2.844086 1_555
Ba0 O2 2.976762 1_555
Ba0 O3 2.976762 1_555
Ba0 O1 2.980671 1_555
Ba0 O0 2.980671 1_555
Ba0 O3 2.981048 1_455
Ba0 O2 2.981048 1_655
Ba0 O10 3.183108 1_555
Ba0 O9 3.183108 1_555
Ba1 O6 2.779036 1_545
Ba1 O7 2.779036 1_555
Ba1 O6 2.785896 1_645
Ba1 O7 2.785896 1_455
Ba1 O1 2.950892 1_555
Ba1 O0 2.950892 1_545
Ba1 O4 3.078570 1_555
Ba1 O5 3.078570 1_545
Ba1 O4 3.114300 1_655
Ba1 O5 3.114300 1_445
Ba1 O9 3.285802 1_545
Ba1 O10 3.285802 1_555
Mn0 O2 1.930343 1_555
Mn0 O4 1.931914 1_565
Mn0 O9 1.967174 1_455
Mn0 O9 1.967674 1_555
Mn0 O6 2.134304 1_555
Mn1 O3 1.930343 1_555
Mn1 O5 1.931914 1_545
Mn1 O10 1.967174 1_655
Mn1 O10 1.967674 1_555
Mn1 O7 2.134304 1_555
Mn2 O8 1.931850 1_656
Mn2 O6 1.933880 1_655
Mn2 O0 1.936822 1_555
Mn2 O0 1.938060 1_655
Mn2 O3 2.202882 1_555
Mn2 O5 2.230768 1_555
Mn3 O8 1.931850 1_555
Mn3 O7 1.933880 1_455
Mn3 O1 1.936822 1_555
Mn3 O1 1.938060 1_455
Mn3 O2 2.202882 1_555
Mn3 O4 2.230768 1_555
O0 Y0 2.517104 1_556
O0 Y1 2.530607 1_555
O1 Y1 2.517104 1_554
O1 Y0 2.530607 1_555
O2 Y0 2.478508 1_455
O2 Y0 2.496159 1_555
O3 Y1 2.478508 1_655
O3 Y1 2.496159 1_555
O4 Y1 2.458481 1_554
O4 Y1 2.537285 1_454
O5 Y0 2.458481 1_556
O5 Y0 2.537285 1_656
O8 Y0 2.646166 1_455
O8 Y1 2.646166 1_554
O8 Y1 2.668945 1_454
O8 Y0 2.668945 1_555
O9 Y0 2.505947 1_555
O9 Y1 2.804838 1_564
O10 Y1 2.505947 1_555
O10 Y0 2.804838 1_546
