# generated using pymatgen
data_C12BrF9
_symmetry_space_group_name_H-M   'P 1'
_cell_length_a   8.06831174
_cell_length_b   12.71757778
_cell_length_c   23.68557553
_cell_angle_alpha   90.00000000
_cell_angle_beta   90.00000000
_cell_angle_gamma   90.00000000
_symmetry_Int_Tables_number   1
_chemical_formula_structural   C12BrF9
_chemical_formula_sum   'C96 Br8 F72'
_cell_volume   2430.36226998
_cell_formula_units_Z   8
loop_
 _symmetry_equiv_pos_site_id
 _symmetry_equiv_pos_as_xyz
  1  'x, y, z'
loop_
 _atom_site_type_symbol
 _atom_site_label
 _atom_site_symmetry_multiplicity
 _atom_site_fract_x
 _atom_site_fract_y
 _atom_site_fract_z
 _atom_site_occupancy
  C  C0  1  0.17652333  0.10008171  0.03894266  1
  C  C1  1  0.82347667  0.89991829  0.96105734  1
  C  C2  1  0.32347667  0.89991829  0.53894266  1
  C  C3  1  0.82347667  0.60008171  0.46105734  1
  C  C4  1  0.67652333  0.10008171  0.46105734  1
  C  C5  1  0.17652333  0.39991829  0.53894266  1
  C  C6  1  0.67652333  0.39991829  0.96105734  1
  C  C7  1  0.32347667  0.60008171  0.03894266  1
  C  C8  1  0.38645559  0.04737131  0.10447833  1
  C  C9  1  0.61354441  0.95262869  0.89552167  1
  C  C10  1  0.11354441  0.95262869  0.60447833  1
  C  C11  1  0.61354441  0.54737131  0.39552167  1
  C  C12  1  0.88645559  0.04737131  0.39552167  1
  C  C13  1  0.38645559  0.45262869  0.60447833  1
  C  C14  1  0.88645559  0.45262869  0.89552167  1
  C  C15  1  0.11354441  0.54737131  0.10447833  1
  C  C16  1  0.08764287  0.01547159  0.13022429  1
  C  C17  1  0.91235713  0.98452841  0.86977571  1
  C  C18  1  0.41235713  0.98452841  0.63022429  1
  C  C19  1  0.91235713  0.51547159  0.36977571  1
  C  C20  1  0.58764287  0.01547159  0.36977571  1
  C  C21  1  0.08764287  0.48452841  0.63022429  1
  C  C22  1  0.58764287  0.48452841  0.86977571  1
  C  C23  1  0.41235713  0.51547159  0.13022429  1
  C  C24  1  0.44550596  0.40775629  0.13256381  1
  C  C25  1  0.55449404  0.59224371  0.86743619  1
  C  C26  1  0.05449404  0.59224371  0.63256381  1
  C  C27  1  0.55449404  0.90775629  0.36743619  1
  C  C28  1  0.94550596  0.40775629  0.36743619  1
  C  C29  1  0.44550596  0.09224371  0.63256381  1
  C  C30  1  0.94550596  0.09224371  0.86743619  1
  C  C31  1  0.05449404  0.90775629  0.13256381  1
  C  C32  1  0.49599146  0.08201389  0.33403752  1
  C  C33  1  0.50400854  0.91798611  0.66596248  1
  C  C34  1  0.00400854  0.91798611  0.83403752  1
  C  C35  1  0.50400854  0.58201389  0.16596248  1
  C  C36  1  0.99599146  0.08201389  0.16596248  1
  C  C37  1  0.49599146  0.41798611  0.83403752  1
  C  C38  1  0.99599146  0.41798611  0.66596248  1
  C  C39  1  0.00400854  0.58201389  0.33403752  1
  C  C40  1  0.00902703  0.08366646  0.43221538  1
  C  C41  1  0.99097297  0.91633354  0.56778462  1
  C  C42  1  0.49097297  0.91633354  0.93221538  1
  C  C43  1  0.99097297  0.58366646  0.06778462  1
  C  C44  1  0.50902703  0.08366646  0.06778462  1
  C  C45  1  0.00902703  0.41633354  0.93221538  1
  C  C46  1  0.50902703  0.41633354  0.56778462  1
  C  C47  1  0.49097297  0.58366646  0.43221538  1
  C  C48  1  0.46379010  0.12718590  0.01593578  1
  C  C49  1  0.53620990  0.87281410  0.98406422  1
  C  C50  1  0.03620990  0.87281410  0.51593578  1
  C  C51  1  0.53620990  0.62718590  0.48406422  1
  C  C52  1  0.96379010  0.12718590  0.48406422  1
  C  C53  1  0.46379010  0.37281410  0.51593578  1
  C  C54  1  0.96379010  0.37281410  0.98406422  1
  C  C55  1  0.03620990  0.62718590  0.01593578  1
  C  C56  1  0.37787780  0.04061324  0.29700857  1
  C  C57  1  0.62212220  0.95938676  0.70299143  1
  C  C58  1  0.12212220  0.95938676  0.79700857  1
  C  C59  1  0.62212220  0.54061324  0.20299143  1
  C  C60  1  0.87787780  0.04061324  0.20299143  1
  C  C61  1  0.37787780  0.45938676  0.79700857  1
  C  C62  1  0.87787780  0.45938676  0.70299143  1
  C  C63  1  0.12212220  0.54061324  0.29700857  1
  C  C64  1  0.15199146  0.43250462  0.29514686  1
  C  C65  1  0.84800854  0.56749538  0.70485314  1
  C  C66  1  0.34800854  0.56749538  0.79514686  1
  C  C67  1  0.84800854  0.93250462  0.20485314  1
  C  C68  1  0.65199146  0.43250462  0.20485314  1
  C  C69  1  0.15199146  0.06749538  0.79514686  1
  C  C70  1  0.65199146  0.06749538  0.70485314  1
  C  C71  1  0.34800854  0.93250462  0.29514686  1
  C  C72  1  0.21773448  0.05529814  0.09118011  1
  C  C73  1  0.78226552  0.94470186  0.90881989  1
  C  C74  1  0.28226552  0.94470186  0.59118011  1
  C  C75  1  0.78226552  0.55529814  0.40881989  1
  C  C76  1  0.71773448  0.05529814  0.40881989  1
  C  C77  1  0.21773448  0.44470186  0.59118011  1
  C  C78  1  0.71773448  0.44470186  0.90881989  1
  C  C79  1  0.28226552  0.55529814  0.09118011  1
  C  C80  1  0.29716654  0.13540358  0.00123705  1
  C  C81  1  0.70283346  0.86459642  0.99876295  1
  C  C82  1  0.20283346  0.86459642  0.50123705  1
  C  C83  1  0.70283346  0.63540358  0.49876295  1
  C  C84  1  0.79716654  0.13540358  0.49876295  1
  C  C85  1  0.29716654  0.36459642  0.50123705  1
  C  C86  1  0.79716654  0.36459642  0.99876295  1
  C  C87  1  0.20283346  0.63540358  0.00123705  1
  C  C88  1  0.06359497  0.36550225  0.33066755  1
  C  C89  1  0.93640503  0.63449775  0.66933245  1
  C  C90  1  0.43640503  0.63449775  0.83066755  1
  C  C91  1  0.93640503  0.86550225  0.16933245  1
  C  C92  1  0.56359497  0.36550225  0.16933245  1
  C  C93  1  0.06359497  0.13449775  0.83066755  1
  C  C94  1  0.56359497  0.13449775  0.66933245  1
  C  C95  1  0.43640503  0.86550225  0.33066755  1
  Br  Br0  1  0.03340315  0.22814238  0.16611420  1
  Br  Br1  1  0.96659685  0.77185762  0.83388580  1
  Br  Br2  1  0.46659685  0.77185762  0.66611420  1
  Br  Br3  1  0.96659685  0.72814238  0.33388580  1
  Br  Br4  1  0.53340315  0.22814238  0.33388580  1
  Br  Br5  1  0.03340315  0.27185762  0.66611420  1
  Br  Br6  1  0.53340315  0.27185762  0.83388580  1
  Br  Br7  1  0.46659685  0.72814238  0.16611420  1
  F  F0  1  0.08882334  0.26100984  0.32893902  1
  F  F1  1  0.91117666  0.73899016  0.67106098  1
  F  F2  1  0.41117666  0.73899016  0.82893902  1
  F  F3  1  0.91117666  0.76100984  0.17106098  1
  F  F4  1  0.58882334  0.26100984  0.17106098  1
  F  F5  1  0.08882334  0.23899016  0.82893902  1
  F  F6  1  0.58882334  0.23899016  0.67106098  1
  F  F7  1  0.41117666  0.76100984  0.32893902  1
  F  F8  1  0.25364468  0.32400150  0.45073844  1
  F  F9  1  0.74635532  0.67599850  0.54926156  1
  F  F10  1  0.24635532  0.67599850  0.95073844  1
  F  F11  1  0.74635532  0.82400150  0.04926156  1
  F  F12  1  0.75364468  0.32400150  0.04926156  1
  F  F13  1  0.25364468  0.17599850  0.95073844  1
  F  F14  1  0.75364468  0.17599850  0.54926156  1
  F  F15  1  0.24635532  0.82400150  0.45073844  1
  F  F16  1  0.01589393  0.10890263  0.02363307  1
  F  F17  1  0.98410607  0.89109737  0.97636693  1
  F  F18  1  0.48410607  0.89109737  0.52363307  1
  F  F19  1  0.98410607  0.60890263  0.47636693  1
  F  F20  1  0.51589393  0.10890263  0.47636693  1
  F  F21  1  0.01589393  0.39109737  0.52363307  1
  F  F22  1  0.51589393  0.39109737  0.97636693  1
  F  F23  1  0.48410607  0.60890263  0.02363307  1
  F  F24  1  0.17058361  0.07514549  0.41867339  1
  F  F25  1  0.82941639  0.92485451  0.58132661  1
  F  F26  1  0.32941639  0.92485451  0.91867339  1
  F  F27  1  0.82941639  0.57514549  0.08132661  1
  F  F28  1  0.67058361  0.07514549  0.08132661  1
  F  F29  1  0.17058361  0.42485451  0.91867339  1
  F  F30  1  0.67058361  0.42485451  0.58132661  1
  F  F31  1  0.32941639  0.57514549  0.41867339  1
  F  F32  1  0.08218684  0.34053027  0.02020954  1
  F  F33  1  0.91781316  0.65946973  0.97979046  1
  F  F34  1  0.41781316  0.65946973  0.52020954  1
  F  F35  1  0.91781316  0.84053027  0.47979046  1
  F  F36  1  0.58218684  0.34053027  0.47979046  1
  F  F37  1  0.08218684  0.15946973  0.52020954  1
  F  F38  1  0.58218684  0.15946973  0.97979046  1
  F  F39  1  0.41781316  0.84053027  0.02020954  1
  F  F40  1  0.29052985  0.10372941  0.26235087  1
  F  F41  1  0.70947015  0.89627059  0.73764913  1
  F  F42  1  0.20947015  0.89627059  0.76235087  1
  F  F43  1  0.70947015  0.60372941  0.23764913  1
  F  F44  1  0.79052985  0.10372941  0.23764913  1
  F  F45  1  0.29052985  0.39627059  0.76235087  1
  F  F46  1  0.79052985  0.39627059  0.73764913  1
  F  F47  1  0.20947015  0.60372941  0.26235087  1
  F  F48  1  0.36295920  0.34074971  0.09827111  1
  F  F49  1  0.63704080  0.65925029  0.90172889  1
  F  F50  1  0.13704080  0.65925029  0.59827111  1
  F  F51  1  0.63704080  0.84074971  0.40172889  1
  F  F52  1  0.86295920  0.34074971  0.40172889  1
  F  F53  1  0.36295920  0.15925029  0.59827111  1
  F  F54  1  0.86295920  0.15925029  0.90172889  1
  F  F55  1  0.13704080  0.84074971  0.09827111  1
  F  F56  1  0.43628255  0.00405493  0.15388659  1
  F  F57  1  0.56371745  0.99594507  0.84611341  1
  F  F58  1  0.06371745  0.99594507  0.65388659  1
  F  F59  1  0.56371745  0.50405493  0.34611341  1
  F  F60  1  0.93628255  0.00405493  0.34611341  1
  F  F61  1  0.43628255  0.49594507  0.65388659  1
  F  F62  1  0.93628255  0.49594507  0.84611341  1
  F  F63  1  0.06371745  0.50405493  0.15388659  1
  F  F64  1  0.26536844  0.39310811  0.25904337  1
  F  F65  1  0.73463156  0.60689189  0.74095663  1
  F  F66  1  0.23463156  0.60689189  0.75904337  1
  F  F67  1  0.73463156  0.89310811  0.24095663  1
  F  F68  1  0.76536844  0.39310811  0.24095663  1
  F  F69  1  0.26536844  0.10689189  0.75904337  1
  F  F70  1  0.76536844  0.10689189  0.74095663  1
  F  F71  1  0.23463156  0.89310811  0.25904337  1
loop_
_geom_bond_atom_site_label_1
_geom_bond_atom_site_label_2
_geom_bond_distance
_geom_bond_site_symmetry_2
C0 F16 1.350449 1_555
C0 C72 1.402063 1_555
C1 F17 1.350449 1_555
C1 C73 1.402063 1_555
C2 F18 1.350449 1_555
C2 C74 1.402063 1_555
C3 F19 1.350449 1_555
C3 C75 1.402063 1_555
C4 F20 1.350449 1_555
C4 C76 1.402063 1_555
C5 F21 1.350449 1_555
C5 C77 1.402063 1_555
C6 F22 1.350449 1_555
C6 C78 1.402063 1_555
C7 F23 1.350449 1_555
C7 C79 1.402063 1_555
C8 F56 1.354475 1_555
C9 F57 1.354475 1_555
C10 F58 1.354475 1_555
C10 C74 1.400891 1_555
C11 F59 1.354475 1_555
C11 C75 1.400891 1_555
C12 F60 1.354475 1_555
C12 C76 1.400891 1_555
C13 F61 1.354475 1_555
C13 C77 1.400891 1_555
C14 F62 1.354475 1_555
C14 C78 1.400891 1_555
C15 F63 1.354475 1_555
C15 C79 1.400891 1_555
C16 C31 1.396842 1_545
C16 C36 1.406946 1_455
C16 C72 1.487772 1_555
C17 C30 1.396842 1_565
C17 C34 1.406946 1_655
C17 C73 1.487772 1_555
C18 C29 1.396842 1_565
C18 C33 1.406946 1_555
C18 C74 1.487772 1_555
C19 C28 1.396842 1_555
C19 C39 1.406946 1_655
C19 C75 1.487772 1_555
C20 C27 1.396842 1_545
C20 C32 1.406946 1_555
C20 C76 1.487772 1_555
C21 C26 1.396842 1_555
C21 C38 1.406946 1_455
C21 C77 1.487772 1_555
C22 C25 1.396842 1_555
C22 C37 1.406946 1_555
C22 C78 1.487772 1_555
C23 C24 1.396842 1_555
C23 C35 1.406946 1_555
C23 C79 1.487772 1_555
C24 F48 1.352586 1_555
C25 F49 1.352586 1_555
C26 F50 1.352586 1_555
C27 F51 1.352586 1_555
C28 F52 1.352586 1_555
C29 F53 1.352586 1_555
C30 F54 1.352586 1_555
C31 F55 1.352586 1_555
C32 C56 1.398072 1_555
C33 C57 1.398072 1_555
C34 C58 1.398072 1_555
C35 C59 1.398072 1_555
C36 C60 1.398072 1_555
C37 C61 1.398072 1_555
C38 C62 1.398072 1_555
C39 C63 1.398072 1_555
C40 F24 1.346739 1_555
C41 F25 1.346739 1_555
C42 F26 1.346739 1_555
C43 F27 1.346739 1_555
C44 F28 1.346739 1_555
C45 F29 1.346739 1_555
C46 F30 1.346739 1_555
C47 F31 1.346739 1_555
C48 F38 1.346863 1_554
C49 F39 1.346863 1_556
C50 F35 1.346863 1_455
C51 F34 1.346863 1_555
C52 F37 1.346863 1_655
C53 F36 1.346863 1_555
C54 F32 1.346863 1_656
C55 F33 1.346863 1_454
C56 F40 1.347157 1_555
C57 F41 1.347157 1_555
C58 F42 1.347157 1_555
C59 F43 1.347157 1_555
C60 F44 1.347157 1_555
C61 F45 1.347157 1_555
C62 F46 1.347157 1_555
C63 F47 1.347157 1_555
C64 F64 1.348728 1_555
C65 F65 1.348728 1_555
C66 F66 1.348728 1_555
C67 F67 1.348728 1_555
C68 F68 1.348728 1_555
C69 F69 1.348728 1_555
C70 F70 1.348728 1_555
C71 F71 1.348728 1_555
C72 C8 1.400891 1_555
C73 C9 1.400891 1_555
C80 F13 1.349247 1_554
C81 F11 1.349247 1_556
C82 F15 1.349247 1_555
C83 F9 1.349247 1_555
C84 F14 1.349247 1_555
C85 F8 1.349247 1_555
C86 F12 1.349247 1_556
C87 F10 1.349247 1_554
C88 F0 1.345012 1_555
C89 F1 1.345012 1_555
C90 F2 1.345012 1_555
C91 F3 1.345012 1_555
C92 F4 1.345012 1_555
C93 F5 1.345012 1_555
C94 F6 1.345012 1_555
C95 F7 1.345012 1_555
Br0 C36 1.882758 1_455
Br1 C34 1.882758 1_655
Br2 C33 1.882758 1_555
Br3 C39 1.882758 1_655
Br4 C32 1.882758 1_555
Br5 C38 1.882758 1_455
Br6 C37 1.882758 1_555
Br7 C35 1.882758 1_555
