# generated using pymatgen
data_MnP3(HO2)6
_symmetry_space_group_name_H-M   'P 1'
_cell_length_a   7.93648600
_cell_length_b   5.01671500
_cell_length_c   12.54021470
_cell_angle_alpha   90.00000000
_cell_angle_beta   94.88349364
_cell_angle_gamma   90.00000000
_symmetry_Int_Tables_number   1
_chemical_formula_structural   MnP3(HO2)6
_chemical_formula_sum   'Mn2 P6 H12 O24'
_cell_volume   497.47726605
_cell_formula_units_Z   2
loop_
 _symmetry_equiv_pos_site_id
 _symmetry_equiv_pos_as_xyz
  1  'x, y, z'
loop_
 _atom_site_type_symbol
 _atom_site_label
 _atom_site_symmetry_multiplicity
 _atom_site_fract_x
 _atom_site_fract_y
 _atom_site_fract_z
 _atom_site_occupancy
  Mn  Mn0  1  0.50000000  0.00000000  0.50000000  1
  Mn  Mn1  1  0.50000000  0.00000000  0.00000000  1
  P  P0  1  0.71720000  0.48613700  0.59734100  1
  P  P1  1  0.28280000  0.48613700  0.90265900  1
  P  P2  1  0.28280000  0.51386300  0.40265900  1
  P  P3  1  0.71720000  0.51386300  0.09734100  1
  P  P4  1  0.50000000  0.75399000  0.75000000  1
  P  P5  1  0.50000000  0.24601000  0.25000000  1
  H  H0  1  0.97713200  0.32476600  0.62783900  1
  H  H1  1  0.02286800  0.32476600  0.87216100  1
  H  H2  1  0.02286800  0.67523400  0.37216100  1
  H  H3  1  0.97713200  0.67523400  0.12783900  1
  H  H4  1  0.81755000  0.97785600  0.36303200  1
  H  H5  1  0.18245000  0.97785600  0.13696800  1
  H  H6  1  0.18245000  0.02214400  0.63696800  1
  H  H7  1  0.81755000  0.02214400  0.86303200  1
  H  H8  1  0.00093500  0.10264500  0.37380300  1
  H  H9  1  0.99906500  0.10264500  0.12619700  1
  H  H10  1  0.99906500  0.89735500  0.62619700  1
  H  H11  1  0.00093500  0.89735500  0.87380300  1
  O  O0  1  0.65112600  0.68259400  0.51202400  1
  O  O1  1  0.34887400  0.68259400  0.98797600  1
  O  O2  1  0.34887400  0.31740600  0.48797600  1
  O  O3  1  0.65112600  0.31740600  0.01202400  1
  O  O4  1  0.41255700  0.90298600  0.65695800  1
  O  O5  1  0.58744300  0.90298600  0.84304200  1
  O  O6  1  0.58744300  0.09701400  0.34304200  1
  O  O7  1  0.41255700  0.09701400  0.15695800  1
  O  O8  1  0.68301000  0.19304200  0.57168600  1
  O  O9  1  0.31699000  0.19304200  0.92831400  1
  O  O10  1  0.31699000  0.80695800  0.42831400  1
  O  O11  1  0.68301000  0.80695800  0.07168600  1
  O  O12  1  0.91152000  0.51034100  0.62397000  1
  O  O13  1  0.08848000  0.51034100  0.87603000  1
  O  O14  1  0.08848000  0.48965900  0.37603000  1
  O  O15  1  0.91152000  0.48965900  0.12397000  1
  O  O16  1  0.63744600  0.55050300  0.70858600  1
  O  O17  1  0.36255400  0.55050300  0.79141400  1
  O  O18  1  0.36255400  0.44949700  0.29141400  1
  O  O19  1  0.63744600  0.44949700  0.20858600  1
  O  O20  1  0.93887300  0.93487600  0.36622700  1
  O  O21  1  0.06112700  0.93487600  0.13377300  1
  O  O22  1  0.06112700  0.06512400  0.63377300  1
  O  O23  1  0.93887300  0.06512400  0.86622700  1
loop_
_geom_bond_atom_site_label_1
_geom_bond_atom_site_label_2
_geom_bond_distance
_geom_bond_site_symmetry_2
Mn0 O10 1.906126 1_545
Mn0 O8 1.906126 1_555
Mn0 O2 1.991497 1_555
Mn0 O0 1.991497 1_545
Mn0 O4 2.196637 1_545
Mn0 O6 2.196637 1_555
Mn1 O9 1.906126 1_554
Mn1 O11 1.906126 1_545
Mn1 O3 1.991497 1_555
Mn1 O1 1.991497 1_544
Mn1 O5 2.196637 1_544
Mn1 O7 2.196637 1_555
H0 O12 1.065800 1_555
H0 O22 1.462230 1_655
H1 O13 1.065800 1_555
H1 O23 1.462230 1_455
H2 O14 1.065800 1_555
H2 O20 1.462230 1_455
H3 O15 1.065800 1_555
H3 O21 1.462230 1_655
H4 O20 0.984207 1_555
H5 O21 0.984207 1_555
H6 O22 0.984207 1_555
H7 O23 0.984207 1_555
H8 O20 0.975726 1_445
H9 O21 0.975726 1_645
H10 O22 0.975726 1_665
H11 O23 0.975726 1_465
O0 P0 1.515086 1_555
O1 P1 1.515086 1_555
O2 P2 1.515086 1_555
O3 P3 1.515086 1_555
O4 P4 1.504598 1_555
O5 P4 1.504598 1_555
O6 P5 1.504598 1_555
O7 P5 1.504598 1_555
O8 P0 1.524556 1_555
O9 P1 1.524556 1_555
O10 P2 1.524556 1_555
O11 P3 1.524556 1_555
O12 P0 1.554673 1_555
O13 P1 1.554673 1_555
O14 P2 1.554673 1_555
O15 P3 1.554673 1_555
O16 P4 1.611895 1_555
O16 P0 1.612880 1_555
O17 P4 1.611895 1_555
O17 P1 1.612880 1_555
O18 P5 1.611895 1_555
O18 P2 1.612880 1_555
O19 P5 1.611895 1_555
O19 P3 1.612880 1_555
