# generated using pymatgen
data_Ca2MgFe(CO3)4
_symmetry_space_group_name_H-M   'P 1'
_cell_length_a   7.79490994
_cell_length_b   7.85535207
_cell_length_c   7.84580385
_cell_angle_alpha   102.86781979
_cell_angle_beta   103.14575024
_cell_angle_gamma   77.24038504
_symmetry_Int_Tables_number   1
_chemical_formula_structural   Ca2MgFe(CO3)4
_chemical_formula_sum   'Ca4 Mg2 Fe2 C8 O24'
_cell_volume   448.68377560
_cell_formula_units_Z   2
loop_
 _symmetry_equiv_pos_site_id
 _symmetry_equiv_pos_as_xyz
  1  'x, y, z'
loop_
 _atom_site_type_symbol
 _atom_site_label
 _atom_site_symmetry_multiplicity
 _atom_site_fract_x
 _atom_site_fract_y
 _atom_site_fract_z
 _atom_site_occupancy
  Ca  Ca0  1  0.24732100  0.99949700  0.74667000  1
  Ca  Ca1  1  0.74715400  0.49956000  0.74658400  1
  Ca  Ca2  1  0.75241500  0.00041100  0.25322500  1
  Ca  Ca3  1  0.25246800  0.50040400  0.25326100  1
  Mg  Mg0  1  0.24831600  0.00180500  0.24820600  1
  Mg  Mg1  1  0.74836800  0.50170200  0.24817600  1
  Fe  Fe0  1  0.25178100  0.49802300  0.75212400  1
  Fe  Fe1  1  0.75189800  0.99803300  0.75219000  1
  C  C0  1  0.49188300  0.74610000  0.00841400  1
  C  C1  1  0.99211500  0.24647400  0.00867900  1
  C  C2  1  0.50741100  0.25530300  0.99573300  1
  C  C3  1  0.00707300  0.75590100  0.99501900  1
  C  C4  1  0.50452600  0.75820800  0.49092500  1
  C  C5  1  0.00472600  0.25851800  0.49141500  1
  C  C6  1  0.49626700  0.23956200  0.50528600  1
  C  C7  1  0.99597500  0.74010100  0.50452400  1
  O  O0  1  0.51991300  0.38322700  0.13258500  1
  O  O1  1  0.01967100  0.88360500  0.13192400  1
  O  O2  1  0.48058900  0.62291900  0.86640800  1
  O  O3  1  0.98159100  0.12368100  0.86653600  1
  O  O4  1  0.62834500  0.61781600  0.47468200  1
  O  O5  1  0.12853400  0.11824100  0.47494800  1
  O  O6  1  0.37458000  0.38177500  0.51762700  1
  O  O7  1  0.87366400  0.88181700  0.51669200  1
  O  O8  1  0.36620400  0.88505000  0.02076600  1
  O  O9  1  0.86627100  0.38536000  0.02082500  1
  O  O10  1  0.63218400  0.11549700  0.98786000  1
  O  O11  1  0.13122900  0.61561800  0.98699100  1
  O  O12  1  0.36258700  0.77534200  0.36741800  1
  O  O13  1  0.86216700  0.27559000  0.36879900  1
  O  O14  1  0.63865200  0.22640100  0.62949500  1
  O  O15  1  0.13842800  0.72752600  0.62847500  1
  O  O16  1  0.51861200  0.87834000  0.63478800  1
  O  O17  1  0.01944400  0.37904400  0.63515400  1
  O  O18  1  0.47970300  0.11472200  0.36635500  1
  O  O19  1  0.97952800  0.61489000  0.36572900  1
  O  O20  1  0.63242200  0.73159900  0.13367600  1
  O  O21  1  0.13202200  0.23197200  0.13482300  1
  O  O22  1  0.36714600  0.26461300  0.86898300  1
  O  O23  1  0.86681300  0.76575100  0.86802900  1
loop_
_geom_bond_atom_site_label_1
_geom_bond_atom_site_label_2
_geom_bond_distance
_geom_bond_site_symmetry_2
Ca0 O22 2.385755 1_565
Ca0 O15 2.388581 1_555
Ca0 O3 2.389853 1_465
Ca0 O16 2.394047 1_555
Ca0 O8 2.424523 1_556
Ca0 O5 2.424593 1_565
Ca1 O23 2.391674 1_555
Ca1 O2 2.394505 1_555
Ca1 O14 2.394530 1_555
Ca1 O17 2.398600 1_655
Ca1 O4 2.423951 1_555
Ca1 O9 2.424769 1_556
Ca2 O10 2.367891 1_554
Ca2 O7 2.369437 1_545
Ca2 O1 2.399175 1_645
Ca2 O18 2.402725 1_555
Ca2 O20 2.409302 1_545
Ca2 O13 2.411999 1_555
Ca3 O11 2.375474 1_554
Ca3 O6 2.376475 1_555
Ca3 O0 2.398273 1_555
Ca3 O19 2.401907 1_455
Ca3 O21 2.407527 1_555
Ca3 O12 2.410613 1_555
Mg0 O18 2.116399 1_555
Mg0 O1 2.117784 1_545
Mg0 O12 2.120160 1_545
Mg0 O21 2.123141 1_555
Mg0 O8 2.124731 1_545
Mg0 O5 2.127595 1_555
Mg1 O19 2.115289 1_555
Mg1 O0 2.116920 1_555
Mg1 O13 2.123263 1_555
Mg1 O9 2.123723 1_555
Mg1 O20 2.125450 1_555
Mg1 O4 2.126674 1_555
Fe0 O2 2.145053 1_555
Fe0 O17 2.145990 1_555
Fe0 O22 2.157890 1_555
Fe0 O15 2.158126 1_555
Fe0 O11 2.185858 1_555
Fe0 O6 2.191274 1_555
Fe1 O23 2.145720 1_555
Fe1 O14 2.146434 1_565
Fe1 O3 2.154132 1_565
Fe1 O16 2.155650 1_555
Fe1 O10 2.187611 1_565
Fe1 O7 2.193593 1_555
C0 O20 1.297675 1_555
C0 O8 1.297779 1_555
C0 O2 1.303158 1_554
C1 O9 1.298108 1_555
C1 O21 1.298541 1_655
C1 O3 1.301953 1_554
C2 O10 1.296592 1_555
C2 O0 1.298940 1_556
C2 O22 1.300854 1_555
C3 O11 1.296397 1_555
C3 O1 1.298202 1_556
C3 O23 1.302114 1_455
C4 O12 1.298413 1_555
C4 O4 1.298915 1_555
C4 O16 1.300604 1_555
C5 O13 1.297571 1_455
C5 O5 1.298405 1_555
C5 O17 1.301891 1_555
C6 O18 1.297044 1_555
C6 O6 1.297157 1_555
C6 O14 1.301700 1_555
C7 O7 1.297155 1_555
C7 O19 1.298008 1_555
C7 O15 1.300639 1_655
