# generated using pymatgen
data_CaMg6MnO8
_symmetry_space_group_name_H-M   'P 1'
_cell_length_a   8.74441258
_cell_length_b   4.39551239
_cell_length_c   4.39551239
_cell_angle_alpha   90.00000000
_cell_angle_beta   90.00000000
_cell_angle_gamma   90.00000000
_symmetry_Int_Tables_number   1
_chemical_formula_structural   CaMg6MnO8
_chemical_formula_sum   'Ca1 Mg6 Mn1 O8'
_cell_volume   168.94667833
_cell_formula_units_Z   1
loop_
 _symmetry_equiv_pos_site_id
 _symmetry_equiv_pos_as_xyz
  1  'x, y, z'
loop_
 _atom_site_type_symbol
 _atom_site_label
 _atom_site_symmetry_multiplicity
 _atom_site_fract_x
 _atom_site_fract_y
 _atom_site_fract_z
 _atom_site_occupancy
  Ca  Ca0  1  0.00000000  0.00000000  0.00000000  1
  Mg  Mg0  1  0.50000000  0.00000000  0.00000000  1
  Mg  Mg1  1  0.50000000  0.50000000  0.50000000  1
  Mg  Mg2  1  0.25902936  0.00000000  0.50000000  1
  Mg  Mg3  1  0.74097064  0.00000000  0.50000000  1
  Mg  Mg4  1  0.25902936  0.50000000  0.00000000  1
  Mg  Mg5  1  0.74097064  0.50000000  0.00000000  1
  Mn  Mn0  1  0.00000000  0.50000000  0.50000000  1
  O  O0  1  0.26462451  0.00000000  0.00000000  1
  O  O1  1  0.73537549  0.00000000  0.00000000  1
  O  O2  1  0.25886728  0.50000000  0.50000000  1
  O  O3  1  0.74113272  0.50000000  0.50000000  1
  O  O4  1  0.00000000  0.00000000  0.50000000  1
  O  O5  1  0.50000000  0.00000000  0.50000000  1
  O  O6  1  0.00000000  0.50000000  0.00000000  1
  O  O7  1  0.50000000  0.50000000  0.00000000  1
loop_
_geom_bond_atom_site_label_1
_geom_bond_atom_site_label_2
_geom_bond_distance
_geom_bond_site_symmetry_2
Ca0 O6 2.197756 1_555
Ca0 O4 2.197756 1_555
Ca0 O4 2.197756 1_554
Ca0 O6 2.197756 1_545
Ca0 O0 2.313986 1_555
Ca0 O1 2.313986 1_455
Mg0 O0 2.058220 1_555
Mg0 O1 2.058220 1_555
Mg0 O5 2.197756 1_555
Mg0 O7 2.197756 1_545
Mg0 O7 2.197756 1_555
Mg0 O5 2.197756 1_554
Mg1 O3 2.108564 1_555
Mg1 O2 2.108564 1_555
Mg1 O5 2.197756 1_555
Mg1 O5 2.197756 1_565
Mg1 O7 2.197756 1_555
Mg1 O7 2.197756 1_556
Mg2 O5 2.107147 1_555
Mg2 O2 2.197757 1_555
Mg2 O2 2.197757 1_545
Mg2 O0 2.198301 1_555
Mg2 O0 2.198301 1_556
Mg2 O4 2.265060 1_555
Mg3 O5 2.107147 1_555
Mg3 O3 2.197757 1_555
Mg3 O3 2.197757 1_545
Mg3 O1 2.198301 1_555
Mg3 O1 2.198301 1_556
Mg3 O4 2.265060 1_655
Mg4 O7 2.107147 1_555
Mg4 O2 2.197757 1_555
Mg4 O2 2.197757 1_554
Mg4 O0 2.198301 1_565
Mg4 O0 2.198301 1_555
Mg4 O6 2.265060 1_555
Mg5 O7 2.107147 1_555
Mg5 O3 2.197757 1_555
Mg5 O3 2.197757 1_554
Mg5 O1 2.198301 1_555
Mg5 O1 2.198301 1_565
Mg5 O6 2.265060 1_655
Mn0 O6 2.197756 1_556
Mn0 O6 2.197756 1_555
Mn0 O4 2.197756 1_555
Mn0 O4 2.197756 1_565
Mn0 O2 2.263642 1_555
Mn0 O3 2.263642 1_455
