# generated using pymatgen
data_CuBrO2
_symmetry_space_group_name_H-M   'P 1'
_cell_length_a   6.22228280
_cell_length_b   6.22228280
_cell_length_c   6.22228301
_cell_angle_alpha   29.78182213
_cell_angle_beta   29.78182213
_cell_angle_gamma   29.78182077
_symmetry_Int_Tables_number   1
_chemical_formula_structural   CuBrO2
_chemical_formula_sum   'Cu1 Br1 O2'
_cell_volume   52.62862259
_cell_formula_units_Z   1
loop_
 _symmetry_equiv_pos_site_id
 _symmetry_equiv_pos_as_xyz
  1  'x, y, z'
loop_
 _atom_site_type_symbol
 _atom_site_label
 _atom_site_symmetry_multiplicity
 _atom_site_fract_x
 _atom_site_fract_y
 _atom_site_fract_z
 _atom_site_occupancy
  Cu  Cu0  1  0.50000000  0.50000000  0.50000000  1
  Br  Br0  1  0.00000000  0.00000000  0.00000000  1
  O  O0  1  0.88766000  0.88766000  0.88766000  1
  O  O1  1  0.11234000  0.11234000  0.11234000  1
loop_
_geom_bond_atom_site_label_1
_geom_bond_atom_site_label_2
_geom_bond_distance
_geom_bond_site_symmetry_2
Cu0 O1 2.084928 1_655
Cu0 O1 2.084928 1_565
Cu0 O0 2.084928 1_545
Cu0 O0 2.084928 1_455
Cu0 O1 2.084928 1_556
Cu0 O0 2.084928 1_554
Br0 O0 2.002584 1_444
Br0 O1 2.002584 1_555
