# generated using pymatgen
data_MgSi2
_symmetry_space_group_name_H-M   'P 1'
_cell_length_a   3.72687000
_cell_length_b   5.52186125
_cell_length_c   11.89565515
_cell_angle_alpha   77.78657812
_cell_angle_beta   81.50635914
_cell_angle_gamma   70.29800786
_symmetry_Int_Tables_number   1
_chemical_formula_structural   MgSi2
_chemical_formula_sum   'Mg4 Si8'
_cell_volume   224.47886545
_cell_formula_units_Z   4
loop_
 _symmetry_equiv_pos_site_id
 _symmetry_equiv_pos_as_xyz
  1  'x, y, z'
loop_
 _atom_site_type_symbol
 _atom_site_label
 _atom_site_symmetry_multiplicity
 _atom_site_fract_x
 _atom_site_fract_y
 _atom_site_fract_z
 _atom_site_occupancy
  Mg  Mg0  1  0.84909800  0.83186400  0.87467800  1
  Mg  Mg1  1  0.22229500  0.86143500  0.12624300  1
  Mg  Mg2  1  0.80467300  0.54563400  0.31882400  1
  Mg  Mg3  1  0.44948100  0.81116000  0.63072800  1
  Si  Si0  1  0.93661500  0.45820800  0.09142300  1
  Si  Si1  1  0.12548100  0.22803900  0.92823700  1
  Si  Si2  1  0.73583800  0.22528300  0.65709800  1
  Si  Si3  1  0.11946100  0.83584800  0.41221100  1
  Si  Si4  1  0.57129800  0.43258900  0.82403900  1
  Si  Si5  1  0.50333400  0.22962200  0.19422700  1
  Si  Si6  1  0.48310800  0.12699400  0.40168100  1
  Si  Si7  1  0.19914600  0.41356500  0.54079400  1
loop_
_geom_bond_atom_site_label_1
_geom_bond_atom_site_label_2
_geom_bond_distance
_geom_bond_site_symmetry_2
Mg0 Si4 2.924040 1_655
Mg0 Si0 2.924905 1_556
Mg0 Si1 2.924981 1_665
Mg0 Si1 2.927249 1_565
Mg0 Si4 2.929314 1_555
Mg0 Si2 2.986974 1_565
Mg0 Si4 3.075913 1_565
Mg0 Si1 3.092480 1_655
Mg1 Si1 2.741754 1_564
Mg1 Si5 2.875087 1_565
Mg1 Si0 2.878223 1_555
Mg1 Si5 2.889550 1_465
Mg1 Si0 2.895100 1_455
Mg1 Si0 3.057985 1_465
Mg2 Si3 2.734860 1_555
Mg2 Si3 2.753971 1_655
Mg2 Si0 2.791392 1_555
Mg2 Si6 2.882104 1_555
Mg2 Si6 2.922238 1_655
Mg2 Si5 2.985354 1_655
Mg2 Si7 3.045386 1_655
Mg2 Si5 3.067626 1_555
Mg3 Si4 2.738346 1_555
Mg3 Si2 2.890948 1_465
Mg3 Si2 2.917937 1_565
Mg3 Si6 2.918388 1_565
Mg3 Si3 2.994942 1_555
Mg3 Si2 3.007493 1_555
Mg3 Si7 3.082970 1_555
Mg3 Si7 3.121777 1_655
Mg3 Si7 3.126742 1_565
Si0 Si5 2.415385 1_555
Si0 Si5 2.421162 1_655
Si0 Si1 2.432311 1_654
Si1 Si4 2.374312 1_555
Si1 Si4 2.380930 1_455
Si2 Si4 2.399771 1_555
Si2 Si7 2.408831 1_555
Si2 Si7 2.423346 1_655
Si3 Si6 2.378355 1_465
Si3 Si6 2.402240 1_565
Si3 Si7 2.454228 1_555
Si5 Si6 2.408113 1_555
Si6 Si7 2.413290 1_555
