# generated using pymatgen
data_Ba2ScO3F
_symmetry_space_group_name_H-M   'P 1'
_cell_length_a   7.41479909
_cell_length_b   7.41479909
_cell_length_c   7.41479909
_cell_angle_alpha   147.40129423
_cell_angle_beta   147.40129423
_cell_angle_gamma   46.76996583
_symmetry_Int_Tables_number   1
_chemical_formula_structural   Ba2ScO3F
_chemical_formula_sum   'Ba2 Sc1 O3 F1'
_cell_volume   117.89142942
_cell_formula_units_Z   1
loop_
 _symmetry_equiv_pos_site_id
 _symmetry_equiv_pos_as_xyz
  1  'x, y, z'
loop_
 _atom_site_type_symbol
 _atom_site_label
 _atom_site_symmetry_multiplicity
 _atom_site_fract_x
 _atom_site_fract_y
 _atom_site_fract_z
 _atom_site_occupancy
  Ba  Ba0  1  0.63659736  0.63659736  -0.00000000  1
  Ba  Ba1  1  0.36134556  0.36134556  0.00000000  1
  Sc  Sc0  1  0.98739628  0.98739628  0.00000000  1
  O  O0  1  0.00597757  0.50597757  0.50000000  1
  O  O1  1  0.50597757  0.00597757  0.50000000  1
  O  O2  1  0.83817429  0.83817429  -0.00000000  1
  F  F0  1  0.16453238  0.16453238  -0.00000000  1
loop_
_geom_bond_atom_site_label_1
_geom_bond_atom_site_label_2
_geom_bond_distance
_geom_bond_site_symmetry_2
Ba0 O0 2.737082 1_655
Ba0 O1 2.737082 1_565
Ba0 O0 2.737082 1_554
Ba0 O1 2.737082 1_554
Ba0 O2 2.743759 1_555
Ba0 F0 2.967450 1_666
Ba0 F0 2.967450 1_655
Ba0 F0 2.967450 1_554
Ba0 F0 2.967450 1_565
Ba1 F0 2.678918 1_555
Ba1 O0 2.864645 1_554
Ba1 O1 2.864645 1_554
Ba1 O0 2.864645 1_655
Ba1 O1 2.864645 1_565
Ba1 O2 2.959840 1_545
Ba1 O2 2.959840 1_444
Ba1 O2 2.959840 1_455
Ba1 O2 2.959840 1_556
O0 Sc0 2.096320 1_445
O0 Sc0 2.096320 1_456
O1 Sc0 2.096320 1_445
O1 Sc0 2.096320 1_546
O2 Sc0 2.031131 1_555
F0 Sc0 2.411084 1_445
