# generated using pymatgen
data_Yb2US3O2
_symmetry_space_group_name_H-M   'P 1'
_cell_length_a   10.58912007
_cell_length_b   10.58912007
_cell_length_c   10.58912007
_cell_angle_alpha   159.42788291
_cell_angle_beta   159.42788291
_cell_angle_gamma   29.25406994
_symmetry_Int_Tables_number   1
_chemical_formula_structural   Yb2US3O2
_chemical_formula_sum   'Yb2 U1 S3 O2'
_cell_volume   146.52544326
_cell_formula_units_Z   1
loop_
 _symmetry_equiv_pos_site_id
 _symmetry_equiv_pos_as_xyz
  1  'x, y, z'
loop_
 _atom_site_type_symbol
 _atom_site_label
 _atom_site_symmetry_multiplicity
 _atom_site_fract_x
 _atom_site_fract_y
 _atom_site_fract_z
 _atom_site_occupancy
  Yb  Yb0  1  0.49491800  0.49491800  0.00000000  1
  Yb  Yb1  1  0.81347000  0.81347000  0.00000000  1
  U  U0  1  0.18861800  0.18861800  0.00000000  1
  S  S0  1  0.62796500  0.62796500  0.00000000  1
  S  S1  1  0.36283900  0.36283900  0.00000000  1
  S  S2  1  0.03537900  0.03537900  0.00000000  1
  O  O0  1  0.73840500  0.23840500  0.50000000  1
  O  O1  1  0.23840500  0.73840500  0.50000000  1
loop_
_geom_bond_atom_site_label_1
_geom_bond_atom_site_label_2
_geom_bond_distance
_geom_bond_site_symmetry_2
S0 Yb0 2.726380 1_555
S0 U0 2.948763 1_666
S0 U0 2.948763 1_565
S0 U0 2.948763 1_655
S0 U0 2.948763 1_554
S1 Yb0 2.706544 1_555
S1 Yb1 2.859001 1_444
S1 Yb1 2.859001 1_455
S1 Yb1 2.859001 1_545
S1 Yb1 2.859001 1_556
S2 Yb0 2.799619 1_556
S2 Yb0 2.799619 1_455
S2 Yb0 2.799619 1_545
S2 Yb0 2.799619 1_444
S2 U0 3.140152 1_555
O0 U0 2.148506 1_555
O0 U0 2.148506 1_656
O0 Yb1 2.437486 1_545
O0 Yb1 2.437486 1_556
O1 U0 2.148506 1_566
O1 U0 2.148506 1_555
O1 Yb1 2.437486 1_455
O1 Yb1 2.437486 1_556
