# generated using pymatgen
data_Te2MoW3(Se2S)2
_symmetry_space_group_name_H-M   'P 1'
_cell_length_a   3.34519848
_cell_length_b   3.34519848
_cell_length_c   38.09247800
_cell_angle_alpha   90.00000000
_cell_angle_beta   90.00000000
_cell_angle_gamma   120.00000944
_symmetry_Int_Tables_number   1
_chemical_formula_structural   Te2MoW3(Se2S)2
_chemical_formula_sum   'Te2 Mo1 W3 Se4 S2'
_cell_volume   369.15911542
_cell_formula_units_Z   1
loop_
 _symmetry_equiv_pos_site_id
 _symmetry_equiv_pos_as_xyz
  1  'x, y, z'
loop_
 _atom_site_type_symbol
 _atom_site_label
 _atom_site_symmetry_multiplicity
 _atom_site_fract_x
 _atom_site_fract_y
 _atom_site_fract_z
 _atom_site_occupancy
  Te  Te0  1  0.00000000  0.00000000  0.70760800  1
  Te  Te1  1  0.00000000  0.00000000  0.60746500  1
  Mo  Mo0  1  0.00000000  0.00000000  0.46966400  1
  W  W0  1  0.00000000  0.00000000  0.09389200  1
  W  W1  1  0.33333300  0.66666700  0.28181300  1
  W  W2  1  0.33333300  0.66666700  0.65756500  1
  Se  Se0  1  0.00000000  0.00000000  0.32577900  1
  Se  Se1  1  0.33333300  0.66666700  0.04994400  1
  Se  Se2  1  0.33333300  0.66666700  0.13786500  1
  Se  Se3  1  0.00000000  0.00000000  0.23783200  1
  S  S0  1  0.33333300  0.66666700  0.42988300  1
  S  S1  1  0.33333300  0.66666700  0.50943800  1
loop_
_geom_bond_atom_site_label_1
_geom_bond_atom_site_label_2
_geom_bond_distance
_geom_bond_site_symmetry_2
Te0 W2 2.713659 1_545
Te0 W2 2.713661 1_445
Te0 W2 2.713661 1_555
Te1 W2 2.715185 1_545
Te1 W2 2.715186 1_445
Te1 W2 2.715186 1_555
Mo0 S1 2.454712 1_545
Mo0 S1 2.454714 1_555
Mo0 S1 2.454714 1_445
Mo0 S0 2.454876 1_545
Mo0 S0 2.454878 1_445
Mo0 S0 2.454878 1_555
Se0 W1 2.556360 1_545
Se0 W1 2.556362 1_555
Se0 W1 2.556362 1_445
Se1 W0 2.555911 1_565
Se1 W0 2.555913 1_665
Se1 W0 2.555913 1_555
Se2 W0 2.556535 1_565
Se2 W0 2.556537 1_555
Se2 W0 2.556537 1_665
Se3 W1 2.556735 1_545
Se3 W1 2.556737 1_445
Se3 W1 2.556737 1_555
