# generated using pymatgen
data_MgZr2H10(S3O14)2
_symmetry_space_group_name_H-M   'P 1'
_cell_length_a   5.19773777
_cell_length_b   9.71426802
_cell_length_c   12.70047461
_cell_angle_alpha   93.82924347
_cell_angle_beta   90.09130297
_cell_angle_gamma   94.09207473
_symmetry_Int_Tables_number   1
_chemical_formula_structural   MgZr2H10(S3O14)2
_chemical_formula_sum   'Mg1 Zr2 H10 S6 O28'
_cell_volume   638.19928668
_cell_formula_units_Z   1
loop_
 _symmetry_equiv_pos_site_id
 _symmetry_equiv_pos_as_xyz
  1  'x, y, z'
loop_
 _atom_site_type_symbol
 _atom_site_label
 _atom_site_symmetry_multiplicity
 _atom_site_fract_x
 _atom_site_fract_y
 _atom_site_fract_z
 _atom_site_occupancy
  Mg  Mg0  1  0.75852203  0.42550975  0.15292001  1
  Zr  Zr0  1  0.77276332  0.88746037  0.81242576  1
  Zr  Zr1  1  0.24572785  0.08009632  0.18553781  1
  H  H0  1  0.42699560  0.67037466  0.54743401  1
  H  H1  1  0.54933040  0.32948489  0.48183587  1
  H  H2  1  0.29026505  0.82166439  0.53248132  1
  H  H3  1  0.68351978  0.17826879  0.48148111  1
  H  H4  1  0.45633372  0.75318797  0.43570375  1
  H  H5  1  0.52588019  0.23592041  0.59060332  1
  H  H6  1  0.10423763  0.38031703  0.83130168  1
  H  H7  1  0.91889253  0.64927535  0.07834130  1
  H  H8  1  0.32102629  0.46947644  0.88798989  1
  H  H9  1  0.60869747  0.64594038  0.07081927  1
  S  S0  1  0.75576495  0.62420760  0.69829940  1
  S  S1  1  0.24803808  0.36144272  0.29760347  1
  S  S2  1  0.28176606  0.04221894  0.67682204  1
  S  S3  1  0.73760503  0.94712341  0.33554877  1
  S  S4  1  0.27136393  0.80870388  0.99058449  1
  S  S5  1  0.74516976  0.17456383  0.01654791  1
  O  O0  1  0.89652292  0.76635084  0.67664699  1
  O  O1  1  0.12099973  0.22123676  0.31743047  1
  O  O2  1  0.56784119  0.58200319  0.61368365  1
  O  O3  1  0.38356991  0.42858831  0.38849826  1
  O  O4  1  0.93134259  0.52123058  0.71757001  1
  O  O5  1  0.05726638  0.44760918  0.25257170  1
  O  O6  1  0.61543855  0.67521925  0.79980954  1
  O  O7  1  0.43902398  0.32079985  0.20922094  1
  O  O8  1  0.25881912  0.97526252  0.57081294  1
  O  O9  1  0.76327792  0.02997733  0.43497106  1
  O  O10  1  0.03321926  0.03182181  0.73610348  1
  O  O11  1  0.98408404  0.95210989  0.27356717  1
  O  O12  1  0.37643960  0.18801616  0.67760924  1
  O  O13  1  0.64699374  0.80310160  0.34413838  1
  O  O14  1  0.46819462  0.96471776  0.74088619  1
  O  O15  1  0.54546783  0.01526361  0.26571488  1
  O  O16  1  0.08526709  0.82582674  0.90385676  1
  O  O17  1  0.93810272  0.15748336  0.10451531  1
  O  O18  1  0.81684745  0.10042440  0.91892502  1
  O  O19  1  0.18830077  0.89593226  0.08472396  1
  O  O20  1  0.26171350  0.66537443  0.02021771  1
  O  O21  1  0.73853999  0.32461968  0.01001543  1
  O  O22  1  0.53442094  0.85685860  0.95782475  1
  O  O23  1  0.49039940  0.11657141  0.05386993  1
  O  O24  1  0.22727955  0.37928435  0.88926525  1
  O  O25  1  0.75529390  0.61689609  0.11118335  1
  O  O26  1  0.33406912  0.72971748  0.49518433  1
  O  O27  1  0.63936453  0.26532244  0.52481912  1
loop_
_geom_bond_atom_site_label_1
_geom_bond_atom_site_label_2
_geom_bond_distance
_geom_bond_site_symmetry_2
Mg0 O25 1.968212 1_555
Mg0 O5 1.992218 1_655
Mg0 O21 2.003168 1_555
Mg0 O7 2.040494 1_555
H0 O26 1.046799 1_555
H0 O2 1.471416 1_555
H1 O27 0.995876 1_555
H2 O26 1.023170 1_555
H2 O8 1.558236 1_555
H3 O27 1.018187 1_555
H3 O9 1.602594 1_555
H4 O26 1.015074 1_555
H4 O13 1.606234 1_555
H5 O27 1.066283 1_555
H5 O12 1.435546 1_555
H6 O24 0.975424 1_555
H7 O25 0.988170 1_555
H8 O24 0.972792 1_555
H9 O25 0.985780 1_555
O0 S0 1.557155 1_555
O0 Zr0 2.147612 1_555
O1 S1 1.507463 1_555
O1 Zr1 2.220285 1_555
O2 S0 1.468921 1_555
O3 S1 1.444171 1_555
O4 S0 1.433780 1_555
O5 S1 1.480393 1_555
O6 S0 1.552067 1_555
O6 Zr0 2.158722 1_555
O7 S1 1.549717 1_555
O7 Zr1 2.477331 1_555
O8 S2 1.456516 1_565
O9 S3 1.452047 1_545
O10 S2 1.496882 1_555
O10 Zr0 2.157255 1_445
O11 S3 1.504253 1_555
O11 Zr1 2.143458 1_665
O12 S2 1.465203 1_555
O13 S3 1.455202 1_555
O14 S2 1.533371 1_565
O14 Zr0 2.037386 1_555
O15 S3 1.546636 1_545
O15 Zr1 2.020265 1_555
O16 S4 1.490170 1_555
O16 Zr0 2.137975 1_455
O17 S5 1.525222 1_555
O17 Zr1 2.109578 1_655
O18 S5 1.454389 1_556
O18 Zr0 2.391549 1_545
O19 S4 1.500818 1_554
O19 Zr1 2.132062 1_565
O20 S4 1.463850 1_554
O21 S5 1.468408 1_555
O22 S4 1.482556 1_555
O22 Zr0 2.249715 1_555
O23 S5 1.492257 1_555
O23 Zr1 2.135621 1_555
