# generated using pymatgen
data_HoMnFe
_symmetry_space_group_name_H-M   'P 1'
_cell_length_a   5.10807786
_cell_length_b   5.10807786
_cell_length_c   5.10807786
_cell_angle_alpha   120.66523795
_cell_angle_beta   119.20184315
_cell_angle_gamma   90.11981237
_symmetry_Int_Tables_number   1
_chemical_formula_structural   HoMnFe
_chemical_formula_sum   'Ho2 Mn2 Fe2'
_cell_volume   94.32009371
_cell_formula_units_Z   2
loop_
 _symmetry_equiv_pos_site_id
 _symmetry_equiv_pos_as_xyz
  1  'x, y, z'
loop_
 _atom_site_type_symbol
 _atom_site_label
 _atom_site_symmetry_multiplicity
 _atom_site_fract_x
 _atom_site_fract_y
 _atom_site_fract_z
 _atom_site_occupancy
  Ho  Ho0  1  0.12650100  0.87650100  0.25000000  1
  Ho  Ho1  1  0.87349900  0.12349900  0.75000000  1
  Mn  Mn0  1  0.50000000  0.50000000  0.00000000  1
  Mn  Mn1  1  0.00000000  0.50000000  0.50000000  1
  Fe  Fe0  1  0.50000000  0.50000000  0.50000000  1
  Fe  Fe1  1  0.50000000  0.00000000  0.00000000  1
loop_
_geom_bond_atom_site_label_1
_geom_bond_atom_site_label_2
_geom_bond_distance
_geom_bond_site_symmetry_2
Ho0 Mn1 2.976058 1_565
Ho0 Mn0 2.976058 1_555
Ho0 Mn0 2.976058 1_566
Ho0 Mn1 2.976058 1_554
Ho0 Mn0 3.008685 1_455
Ho0 Mn1 3.008685 1_555
Ho0 Ho1 3.118613 1_465
Ho0 Ho1 3.118613 1_454
Ho0 Ho1 3.139773 1_565
Ho0 Ho1 3.139773 1_464
Ho1 Mn0 2.976058 1_556
Ho1 Mn1 2.976058 1_656
Ho1 Mn1 2.976058 1_645
Ho1 Mn0 2.976058 1_545
Ho1 Mn1 3.008685 1_655
Ho1 Mn0 3.008685 1_656
Mn0 Mn1 2.584789 1_554
Mn0 Mn1 2.584789 1_655
Fe0 Fe1 2.528315 1_555
Fe0 Fe1 2.528315 1_566
Fe0 Mn0 2.554039 1_556
Fe0 Mn1 2.554039 1_555
Fe0 Mn1 2.554039 1_655
Fe0 Mn0 2.554039 1_555
Fe0 Ho1 2.977036 1_565
Fe0 Ho0 2.977036 1_545
Fe0 Ho1 3.018704 1_454
Fe0 Ho0 3.018704 1_656
Fe0 Ho0 3.018704 1_555
Fe0 Ho1 3.018704 1_555
Fe1 Mn1 2.554039 1_655
Fe1 Mn0 2.554039 1_545
Fe1 Mn1 2.554039 1_544
Fe1 Mn0 2.554039 1_555
Fe1 Ho1 2.977036 1_554
Fe1 Ho0 2.977036 1_545
Fe1 Ho0 3.018704 1_544
Fe1 Ho1 3.018704 1_454
Fe1 Ho0 3.018704 1_645
Fe1 Ho1 3.018704 1_555
