# generated using pymatgen
data_Ta6Nb3Te2S3
_symmetry_space_group_name_H-M   'P 1'
_cell_length_a   3.43973300
_cell_length_b   12.35887900
_cell_length_c   13.65327096
_cell_angle_alpha   67.39300955
_cell_angle_beta   90.00000000
_cell_angle_gamma   90.00000000
_symmetry_Int_Tables_number   1
_chemical_formula_structural   Ta6Nb3Te2S3
_chemical_formula_sum   'Ta12 Nb6 Te4 S6'
_cell_volume   535.82017835
_cell_formula_units_Z   2
loop_
 _symmetry_equiv_pos_site_id
 _symmetry_equiv_pos_as_xyz
  1  'x, y, z'
loop_
 _atom_site_type_symbol
 _atom_site_label
 _atom_site_symmetry_multiplicity
 _atom_site_fract_x
 _atom_site_fract_y
 _atom_site_fract_z
 _atom_site_occupancy
  Ta  Ta0  1  0.25000000  0.66735400  0.71886700  1
  Ta  Ta1  1  0.75000000  0.33264600  0.28113300  1
  Ta  Ta2  1  0.25000000  0.24909200  0.81150200  1
  Ta  Ta3  1  0.75000000  0.75090800  0.18849800  1
  Ta  Ta4  1  0.25000000  0.47998200  0.59153800  1
  Ta  Ta5  1  0.75000000  0.52001800  0.40846200  1
  Ta  Ta6  1  0.25000000  0.54643300  0.23402200  1
  Ta  Ta7  1  0.75000000  0.45356700  0.76597800  1
  Ta  Ta8  1  0.25000000  0.71801300  0.36398700  1
  Ta  Ta9  1  0.75000000  0.28198700  0.63601300  1
  Ta  Ta10  1  0.25000000  0.32264500  0.45272900  1
  Ta  Ta11  1  0.75000000  0.67735500  0.54727100  1
  Nb  Nb0  1  0.25000000  0.09374400  0.41101200  1
  Nb  Nb1  1  0.75000000  0.90625600  0.58898800  1
  Nb  Nb2  1  0.25000000  0.44371000  0.93875700  1
  Nb  Nb3  1  0.75000000  0.55629000  0.06124300  1
  Nb  Nb4  1  0.25000000  0.07925700  0.65490900  1
  Nb  Nb5  1  0.75000000  0.92074300  0.34509100  1
  Te  Te0  1  0.25000000  0.94730100  0.16302500  1
  Te  Te1  1  0.75000000  0.05269900  0.83697500  1
  Te  Te2  1  0.25000000  0.75717300  0.01666200  1
  Te  Te3  1  0.75000000  0.24282700  0.98333800  1
  S  S0  1  0.25000000  0.83943300  0.48739100  1
  S  S1  1  0.75000000  0.16056700  0.51260900  1
  S  S2  1  0.25000000  0.39293400  0.13630700  1
  S  S3  1  0.75000000  0.60706600  0.86369300  1
  S  S4  1  0.25000000  0.86105200  0.73456100  1
  S  S5  1  0.75000000  0.13894800  0.26543900  1
loop_
_geom_bond_atom_site_label_1
_geom_bond_atom_site_label_2
_geom_bond_distance
_geom_bond_site_symmetry_2
Ta2 Te1 2.884647 1_455
Ta2 Te1 2.884647 1_555
Ta2 Te3 2.885926 1_555
Ta2 Te3 2.885926 1_455
Ta3 Te0 2.884647 1_555
Ta3 Te0 2.884647 1_655
Ta3 Te2 2.885926 1_655
Ta3 Te2 2.885926 1_555
Ta4 Ta7 2.852916 1_555
Ta4 Ta7 2.852916 1_455
Ta4 Ta9 2.858686 1_555
Ta4 Ta9 2.858686 1_455
Ta4 Ta5 2.915447 1_455
Ta4 Ta5 2.915447 1_555
Ta5 Ta6 2.852916 1_555
Ta5 Ta6 2.852916 1_655
Ta5 Ta8 2.858686 1_555
Ta5 Ta8 2.858686 1_655
Ta6 Te2 3.106144 1_555
Ta7 Te3 3.106144 1_555
Ta8 Te0 3.095284 1_555
Ta9 Te1 3.095284 1_555
Ta10 Ta5 2.853068 1_455
Ta10 Ta5 2.853068 1_555
Ta11 Ta4 2.853068 1_655
Ta11 Ta4 2.853068 1_555
Nb0 S5 2.523236 1_555
Nb0 S5 2.523236 1_455
Nb0 S1 2.538671 1_455
Nb0 S1 2.538671 1_555
Nb0 S0 2.906210 1_545
Nb1 S4 2.523236 1_555
Nb1 S4 2.523236 1_655
Nb1 S0 2.538671 1_655
Nb1 S0 2.538671 1_555
Nb1 S1 2.906210 1_565
Nb2 S2 2.523374 1_556
Nb2 S3 2.548231 1_555
Nb2 S3 2.548231 1_455
Nb2 Te3 2.886238 1_555
Nb2 Te3 2.886238 1_455
Nb3 S3 2.523374 1_554
Nb3 S2 2.548231 1_555
Nb3 S2 2.548231 1_655
Nb3 Te2 2.886238 1_655
Nb3 Te2 2.886238 1_555
Nb4 S4 2.490078 1_545
Nb4 S1 2.498290 1_555
Nb4 S1 2.498290 1_455
Nb4 Te1 2.935571 1_455
Nb4 Te1 2.935571 1_555
Nb5 S5 2.490078 1_565
Nb5 S0 2.498290 1_555
Nb5 S0 2.498290 1_655
Nb5 Te0 2.935571 1_655
Nb5 Te0 2.935571 1_555
S0 Ta11 2.525808 1_455
S0 Ta11 2.525808 1_555
S0 Ta8 2.652254 1_555
S0 Ta0 3.056735 1_555
S1 Ta10 2.525808 1_555
S1 Ta10 2.525808 1_655
S1 Ta9 2.652254 1_555
S1 Ta1 3.056735 1_555
S2 Ta1 2.508049 1_455
S2 Ta1 2.508049 1_555
S2 Ta6 2.706405 1_555
S3 Ta0 2.508049 1_555
S3 Ta0 2.508049 1_655
S3 Ta7 2.706405 1_555
S4 Ta0 2.484147 1_555
S5 Ta1 2.484147 1_555
