# generated using pymatgen
data_Er2(Ni5B3)3
_symmetry_space_group_name_H-M   'P 1'
_cell_length_a   9.79892652
_cell_length_b   9.79892652
_cell_length_c   11.22329500
_cell_angle_alpha   90.00000000
_cell_angle_beta   90.00000000
_cell_angle_gamma   107.78451009
_symmetry_Int_Tables_number   1
_chemical_formula_structural   Er2(Ni5B3)3
_chemical_formula_sum   'Er8 Ni60 B36'
_cell_volume   1026.15043155
_cell_formula_units_Z   4
loop_
 _symmetry_equiv_pos_site_id
 _symmetry_equiv_pos_as_xyz
  1  'x, y, z'
loop_
 _atom_site_type_symbol
 _atom_site_label
 _atom_site_symmetry_multiplicity
 _atom_site_fract_x
 _atom_site_fract_y
 _atom_site_fract_z
 _atom_site_occupancy
  Er  Er0  1  0.25959700  0.25959700  0.95803700  1
  Er  Er1  1  0.74040300  0.74040300  0.04196300  1
  Er  Er2  1  0.24040300  0.24040300  0.45803700  1
  Er  Er3  1  0.75959700  0.75959700  0.54196300  1
  Er  Er4  1  0.19065100  0.69065100  0.75000000  1
  Er  Er5  1  0.30934900  0.80934900  0.25000000  1
  Er  Er6  1  0.80934900  0.30934900  0.25000000  1
  Er  Er7  1  0.69065100  0.19065100  0.75000000  1
  Ni  Ni0  1  0.50000000  0.50000000  0.00000000  1
  Ni  Ni1  1  0.00000000  0.00000000  0.50000000  1
  Ni  Ni2  1  0.50000000  0.50000000  0.50000000  1
  Ni  Ni3  1  0.00000000  0.00000000  0.00000000  1
  Ni  Ni4  1  0.23380600  0.23380600  0.71209700  1
  Ni  Ni5  1  0.76619400  0.76619400  0.28790300  1
  Ni  Ni6  1  0.26619400  0.26619400  0.21209700  1
  Ni  Ni7  1  0.73380600  0.73380600  0.78790300  1
  Ni  Ni8  1  0.93065300  0.43065300  0.75000000  1
  Ni  Ni9  1  0.56934700  0.06934700  0.25000000  1
  Ni  Ni10  1  0.06934700  0.56934700  0.25000000  1
  Ni  Ni11  1  0.43065300  0.93065300  0.75000000  1
  Ni  Ni12  1  0.98894600  0.18227100  0.83976800  1
  Ni  Ni13  1  0.81772900  0.01105400  0.16023200  1
  Ni  Ni14  1  0.31772900  0.51105400  0.33976800  1
  Ni  Ni15  1  0.48894600  0.68227100  0.66023200  1
  Ni  Ni16  1  0.01105400  0.81772900  0.16023200  1
  Ni  Ni17  1  0.18227100  0.98894600  0.83976800  1
  Ni  Ni18  1  0.68227100  0.48894600  0.66023200  1
  Ni  Ni19  1  0.51105400  0.31772900  0.33976800  1
  Ni  Ni20  1  0.25603600  0.47022600  0.59675300  1
  Ni  Ni21  1  0.52977400  0.74396400  0.40324700  1
  Ni  Ni22  1  0.02977400  0.24396400  0.09675300  1
  Ni  Ni23  1  0.75603600  0.97022600  0.90324700  1
  Ni  Ni24  1  0.74396400  0.52977400  0.40324700  1
  Ni  Ni25  1  0.47022600  0.25603600  0.59675300  1
  Ni  Ni26  1  0.97022600  0.75603600  0.90324700  1
  Ni  Ni27  1  0.24396400  0.02977400  0.09675300  1
  Ni  Ni28  1  0.99576700  0.22766400  0.61796800  1
  Ni  Ni29  1  0.77233600  0.00423300  0.38203200  1
  Ni  Ni30  1  0.27233600  0.50423300  0.11796800  1
  Ni  Ni31  1  0.49576700  0.72766400  0.88203200  1
  Ni  Ni32  1  0.00423300  0.77233600  0.38203200  1
  Ni  Ni33  1  0.22766400  0.99576700  0.61796800  1
  Ni  Ni34  1  0.72766400  0.49576700  0.88203200  1
  Ni  Ni35  1  0.50423300  0.27233600  0.11796800  1
  Ni  Ni36  1  0.10692300  0.44615000  0.91544700  1
  Ni  Ni37  1  0.55385000  0.89307700  0.08455300  1
  Ni  Ni38  1  0.05385000  0.39307700  0.41544700  1
  Ni  Ni39  1  0.60692300  0.94615000  0.58455300  1
  Ni  Ni40  1  0.89307700  0.55385000  0.08455300  1
  Ni  Ni41  1  0.44615000  0.10692300  0.91544700  1
  Ni  Ni42  1  0.94615000  0.60692300  0.58455300  1
  Ni  Ni43  1  0.39307700  0.05385000  0.41544700  1
  Ni  Ni44  1  0.33073800  0.48916100  0.80667700  1
  Ni  Ni45  1  0.51083900  0.66926200  0.19332300  1
  Ni  Ni46  1  0.01083900  0.16926200  0.30667700  1
  Ni  Ni47  1  0.83073800  0.98916100  0.69332300  1
  Ni  Ni48  1  0.66926200  0.51083900  0.19332300  1
  Ni  Ni49  1  0.48916100  0.33073800  0.80667700  1
  Ni  Ni50  1  0.98916100  0.83073800  0.69332300  1
  Ni  Ni51  1  0.16926200  0.01083900  0.30667700  1
  Ni  Ni52  1  0.83757100  0.36329500  0.53003000  1
  Ni  Ni53  1  0.63670500  0.16242900  0.46997000  1
  Ni  Ni54  1  0.13670500  0.66242900  0.03003000  1
  Ni  Ni55  1  0.33757100  0.86329500  0.96997000  1
  Ni  Ni56  1  0.16242900  0.63670500  0.46997000  1
  Ni  Ni57  1  0.36329500  0.83757100  0.53003000  1
  Ni  Ni58  1  0.86329500  0.33757100  0.96997000  1
  Ni  Ni59  1  0.66242900  0.13670500  0.03003000  1
  B  B0  1  0.36470000  0.63530000  0.50000000  1
  B  B1  1  0.86470000  0.13530000  0.00000000  1
  B  B2  1  0.63530000  0.36470000  0.50000000  1
  B  B3  1  0.13530000  0.86470000  0.00000000  1
  B  B4  1  0.45187900  0.45187900  0.67199600  1
  B  B5  1  0.54812100  0.54812100  0.32800400  1
  B  B6  1  0.04812100  0.04812100  0.17199600  1
  B  B7  1  0.95187900  0.95187900  0.82800400  1
  B  B8  1  0.05666800  0.05666800  0.69947400  1
  B  B9  1  0.94333200  0.94333200  0.30052600  1
  B  B10  1  0.44333200  0.44333200  0.19947400  1
  B  B11  1  0.55666800  0.55666800  0.80052600  1
  B  B12  1  0.12014400  0.37827100  0.74483400  1
  B  B13  1  0.62172900  0.87985600  0.25516600  1
  B  B14  1  0.12172900  0.37985600  0.24483400  1
  B  B15  1  0.62014400  0.87827100  0.75516600  1
  B  B16  1  0.87985600  0.62172900  0.25516600  1
  B  B17  1  0.37827100  0.12014400  0.74483400  1
  B  B18  1  0.87827100  0.62014400  0.75516600  1
  B  B19  1  0.37985600  0.12172900  0.24483400  1
  B  B20  1  0.29790600  0.59336100  0.94918600  1
  B  B21  1  0.40663900  0.70209400  0.05081400  1
  B  B22  1  0.90663900  0.20209400  0.44918600  1
  B  B23  1  0.79790600  0.09336100  0.55081400  1
  B  B24  1  0.70209400  0.40663900  0.05081400  1
  B  B25  1  0.59336100  0.29790600  0.94918600  1
  B  B26  1  0.09336100  0.79790600  0.55081400  1
  B  B27  1  0.20209400  0.90663900  0.44918600  1
  B  B28  1  0.04899900  0.45032700  0.60018800  1
  B  B29  1  0.54967300  0.95100100  0.39981200  1
  B  B30  1  0.04967300  0.45100100  0.10018800  1
  B  B31  1  0.54899900  0.95032700  0.89981200  1
  B  B32  1  0.95100100  0.54967300  0.39981200  1
  B  B33  1  0.45032700  0.04899900  0.60018800  1
  B  B34  1  0.95032700  0.54899900  0.89981200  1
  B  B35  1  0.45100100  0.04967300  0.10018800  1
loop_
_geom_bond_atom_site_label_1
_geom_bond_atom_site_label_2
_geom_bond_distance
_geom_bond_site_symmetry_2
Er0 Ni27 2.703350 1_556
Er0 Ni22 2.703350 1_556
Er0 Ni49 2.733856 1_555
Er0 Ni44 2.733856 1_555
Er0 Ni41 2.734757 1_555
Er0 Ni36 2.734757 1_555
Er0 Ni4 2.776282 1_555
Er0 Ni0 2.816105 1_556
Er0 Ni6 2.852408 1_556
Er0 Ni12 2.853427 1_455
Er0 Ni17 2.853427 1_545
Er0 Ni35 2.966659 1_556
Er0 Ni30 2.966659 1_556
Er0 Ni3 3.034883 1_556
Er1 Ni26 2.703350 1_554
Er1 Ni23 2.703350 1_554
Er1 Ni45 2.733856 1_555
Er1 Ni48 2.733856 1_555
Er1 Ni37 2.734757 1_555
Er1 Ni40 2.734757 1_555
Er1 Ni5 2.776282 1_555
Er1 Ni0 2.816105 1_555
Er1 Ni7 2.852408 1_554
Er1 Ni16 2.853427 1_655
Er1 Ni13 2.853427 1_565
Er1 Ni31 2.966659 1_554
Er1 Ni34 2.966659 1_554
Er1 Ni3 3.034883 1_665
Er2 Ni20 2.703350 1_555
Er2 Ni25 2.703350 1_555
Er2 Ni46 2.733856 1_555
Er2 Ni51 2.733856 1_555
Er2 Ni43 2.734757 1_555
Er2 Ni38 2.734757 1_555
Er2 Ni6 2.776282 1_555
Er2 Ni1 2.816105 1_555
Er2 Ni4 2.852408 1_555
Er2 Ni14 2.853427 1_555
Er2 Ni19 2.853427 1_555
Er2 Ni28 2.966659 1_455
Er2 Ni33 2.966659 1_545
Er2 Ni2 3.034883 1_555
Er3 Ni21 2.703350 1_555
Er3 Ni24 2.703350 1_555
Er3 Ni47 2.733856 1_555
Er3 Ni50 2.733856 1_555
Er3 Ni42 2.734757 1_555
Er3 Ni39 2.734757 1_555
Er3 Ni7 2.776282 1_555
Er3 Ni1 2.816105 1_665
Er3 Ni5 2.852408 1_555
Er3 Ni18 2.853427 1_555
Er3 Ni15 2.853427 1_555
Er3 Ni32 2.966659 1_655
Er3 Ni29 2.966659 1_565
Er3 Ni2 3.034883 1_555
Er4 Ni11 2.771813 1_555
Er4 Ni50 2.800493 1_455
Er4 Ni44 2.800493 1_555
Er4 Ni42 2.942851 1_455
Er4 Ni36 2.942851 1_555
Er4 Ni26 2.979823 1_455
Er4 Ni20 2.979823 1_555
Er4 Ni8 3.002749 1_455
Er4 Ni55 3.088960 1_555
Er4 Ni57 3.088960 1_555
Er4 Ni17 3.116435 1_555
Er4 Ni15 3.116435 1_555
Er4 Ni56 3.184992 1_555
Er4 Ni54 3.184992 1_556
Er4 Ni31 3.256366 1_555
Er4 Ni33 3.256366 1_555
Er5 Ni10 2.771813 1_555
Er5 Ni45 2.800493 1_555
Er5 Ni51 2.800493 1_565
Er5 Ni43 2.942851 1_565
Er5 Ni37 2.942851 1_555
Er5 Ni21 2.979823 1_555
Er5 Ni27 2.979823 1_565
Er5 Ni9 3.002749 1_565
Er5 Ni56 3.088960 1_555
Er5 Ni54 3.088960 1_555
Er5 Ni14 3.116435 1_555
Er5 Ni16 3.116435 1_555
Er5 Ni55 3.184992 1_554
Er5 Ni57 3.184992 1_555
Er5 Ni32 3.256366 1_555
Er5 Ni30 3.256366 1_555
Er6 Ni9 2.771813 1_555
Er6 Ni48 2.800493 1_555
Er6 Ni46 2.800493 1_655
Er6 Ni38 2.942851 1_655
Er6 Ni40 2.942851 1_555
Er6 Ni24 2.979823 1_555
Er6 Ni22 2.979823 1_655
Er6 Ni10 3.002749 1_655
Er6 Ni53 3.088960 1_555
Er6 Ni59 3.088960 1_555
Er6 Ni19 3.116435 1_555
Er6 Ni13 3.116435 1_555
Er6 Ni58 3.184992 1_554
Er6 Ni52 3.184992 1_555
Er6 Ni29 3.256366 1_555
Er6 Ni35 3.256366 1_555
Er7 Ni8 2.771813 1_555
Er7 Ni47 2.800493 1_545
Er7 Ni49 2.800493 1_555
Er7 Ni39 2.942851 1_545
Er7 Ni41 2.942851 1_555
Er7 Ni23 2.979823 1_545
Er7 Ni25 2.979823 1_555
Er7 Ni11 3.002749 1_545
Er7 Ni58 3.088960 1_555
Er7 Ni52 3.088960 1_555
Er7 Ni12 3.116435 1_555
Er7 Ni18 3.116435 1_555
Er7 Ni53 3.184992 1_555
Er7 Ni59 3.184992 1_556
Er7 Ni34 3.256366 1_555
Er7 Ni28 3.256366 1_555
B0 Ni20 1.969073 1_555
B0 Ni21 1.969073 1_555
B0 Ni56 2.014678 1_555
B0 Ni57 2.014678 1_555
B0 Ni15 2.141443 1_555
B0 Ni14 2.141443 1_555
B0 Ni2 2.142246 1_555
B1 Ni22 1.969073 1_655
B1 Ni23 1.969073 1_544
B1 Ni58 2.014678 1_554
B1 Ni59 2.014678 1_555
B1 Ni13 2.141443 1_555
B1 Ni12 2.141443 1_554
B1 Ni3 2.142246 1_655
B2 Ni25 1.969073 1_555
B2 Ni24 1.969073 1_555
B2 Ni52 2.014678 1_555
B2 Ni53 2.014678 1_555
B2 Ni18 2.141443 1_555
B2 Ni19 2.141443 1_555
B2 Ni2 2.142246 1_555
B3 Ni27 1.969073 1_565
B3 Ni26 1.969073 1_454
B3 Ni55 2.014678 1_554
B3 Ni54 2.014678 1_555
B3 Ni16 2.141443 1_555
B3 Ni17 2.141443 1_554
B3 Ni3 2.142246 1_565
B4 Ni2 2.008771 1_555
B4 Ni49 2.022941 1_555
B4 Ni44 2.022941 1_555
B4 Ni25 2.153828 1_555
B4 Ni20 2.153828 1_555
B4 Ni15 2.178342 1_555
B4 Ni18 2.178342 1_555
B4 Ni4 2.558449 1_555
B5 Ni2 2.008771 1_555
B5 Ni48 2.022941 1_555
B5 Ni45 2.022941 1_555
B5 Ni21 2.153828 1_555
B5 Ni24 2.153828 1_555
B5 Ni19 2.178342 1_555
B5 Ni14 2.178342 1_555
B5 Ni5 2.558449 1_555
B6 B9 1.882957 1_445
B6 Ni3 2.008771 1_555
B6 Ni46 2.022941 1_555
B6 Ni51 2.022941 1_555
B6 Ni22 2.153828 1_555
B6 Ni27 2.153828 1_555
B6 Ni13 2.178342 1_455
B6 Ni16 2.178342 1_545
B6 Ni6 2.558449 1_555
B7 B8 1.882957 1_665
B7 Ni3 2.008771 1_666
B7 Ni50 2.022941 1_555
B7 Ni47 2.022941 1_555
B7 Ni26 2.153828 1_555
B7 Ni23 2.153828 1_555
B7 Ni12 2.178342 1_565
B7 Ni17 2.178342 1_655
B7 Ni7 2.558449 1_555
B8 Ni4 2.050688 1_555
B8 Ni50 2.109256 1_445
B8 Ni47 2.109256 1_445
B8 Ni33 2.147397 1_545
B8 Ni28 2.147397 1_455
B8 Ni12 2.221114 1_455
B8 Ni17 2.221114 1_545
B8 Ni1 2.332456 1_555
B9 Ni5 2.050688 1_555
B9 Ni46 2.109256 1_665
B9 Ni51 2.109256 1_665
B9 Ni29 2.147397 1_565
B9 Ni32 2.147397 1_655
B9 Ni13 2.221114 1_565
B9 Ni16 2.221114 1_655
B9 Ni1 2.332456 1_665
B10 B5 1.882957 1_555
B10 Ni6 2.050688 1_555
B10 Ni45 2.109256 1_555
B10 Ni48 2.109256 1_555
B10 Ni35 2.147397 1_555
B10 Ni30 2.147397 1_555
B10 Ni14 2.221114 1_555
B10 Ni19 2.221114 1_555
B10 Ni0 2.332456 1_555
B11 B4 1.882957 1_555
B11 Ni7 2.050688 1_555
B11 Ni49 2.109256 1_555
B11 Ni44 2.109256 1_555
B11 Ni31 2.147397 1_555
B11 Ni34 2.147397 1_555
B11 Ni15 2.221114 1_555
B11 Ni18 2.221114 1_555
B11 Ni0 2.332456 1_556
B12 B28 1.980072 1_555
B12 Ni36 2.044125 1_555
B12 Ni8 2.072866 1_455
B12 Ni4 2.083875 1_555
B12 Ni44 2.133333 1_555
B12 Ni28 2.142883 1_455
B12 Ni20 2.148069 1_555
B12 Ni12 2.228978 1_455
B12 Er4 2.925484 1_555
B13 B29 1.980072 1_555
B13 Ni37 2.044125 1_555
B13 Ni9 2.072866 1_565
B13 Ni5 2.083875 1_555
B13 Ni45 2.133333 1_555
B13 Ni29 2.142883 1_565
B13 Ni21 2.148069 1_555
B13 Ni13 2.228978 1_565
B13 Er5 2.925484 1_555
B14 B30 1.980072 1_555
B14 Ni38 2.044125 1_555
B14 Ni10 2.072866 1_555
B14 Ni6 2.083875 1_555
B14 Ni46 2.133333 1_555
B14 Ni30 2.142883 1_555
B14 Ni22 2.148069 1_555
B14 Ni14 2.228978 1_555
B14 Er6 2.925484 1_455
B15 B31 1.980072 1_555
B15 Ni39 2.044125 1_555
B15 Ni11 2.072866 1_555
B15 Ni7 2.083875 1_555
B15 Ni47 2.133333 1_555
B15 Ni31 2.142883 1_555
B15 Ni23 2.148069 1_555
B15 Ni15 2.228978 1_555
B15 Er7 2.925484 1_565
B16 B32 1.980072 1_555
B16 Ni40 2.044125 1_555
B16 Ni10 2.072866 1_655
B16 Ni5 2.083875 1_555
B16 Ni48 2.133333 1_555
B16 Ni32 2.142883 1_655
B16 Ni24 2.148069 1_555
B16 Ni16 2.228978 1_655
B16 Er6 2.925484 1_555
B17 B33 1.980072 1_555
B17 Ni41 2.044125 1_555
B17 Ni11 2.072866 1_545
B17 Ni4 2.083875 1_555
B17 Ni49 2.133333 1_555
B17 Ni33 2.142883 1_545
B17 Ni25 2.148069 1_555
B17 Ni17 2.228978 1_545
B17 Er7 2.925484 1_555
B18 B34 1.980072 1_555
B18 Ni42 2.044125 1_555
B18 Ni8 2.072866 1_555
B18 Ni7 2.083875 1_555
B18 Ni50 2.133333 1_555
B18 Ni34 2.142883 1_555
B18 Ni26 2.148069 1_555
B18 Ni18 2.228978 1_555
B18 Er4 2.925484 1_655
B19 B35 1.980072 1_555
B19 Ni43 2.044125 1_555
B19 Ni9 2.072866 1_555
B19 Ni6 2.083875 1_555
B19 Ni51 2.133333 1_555
B19 Ni35 2.142883 1_555
B19 Ni27 2.148069 1_555
B19 Ni19 2.228978 1_555
B19 Er5 2.925484 1_545
B20 B21 1.696447 1_556
B20 Ni44 1.976071 1_555
B20 Ni36 2.019250 1_555
B20 Ni30 2.068863 1_556
B20 Ni54 2.104636 1_556
B20 Ni31 2.121400 1_555
B20 Ni0 2.488066 1_556
B20 Er4 2.760986 1_555
B21 Ni45 1.976071 1_555
B21 Ni37 2.019250 1_555
B21 Ni31 2.068863 1_554
B21 Ni55 2.104636 1_554
B21 Ni30 2.121400 1_555
B21 Ni0 2.488066 1_555
B21 Er5 2.760986 1_555
B22 B23 1.696447 1_555
B22 Ni46 1.976071 1_655
B22 Ni38 2.019250 1_655
B22 Ni28 2.068863 1_555
B22 Ni52 2.104636 1_555
B22 Ni29 2.121400 1_555
B22 Ni1 2.488066 1_655
B22 Er6 2.760986 1_555
B23 Ni47 1.976071 1_545
B23 Ni39 2.019250 1_545
B23 Ni29 2.068863 1_555
B23 Ni53 2.104636 1_555
B23 Ni28 2.121400 1_555
B23 Ni1 2.488066 1_655
B23 Er7 2.760986 1_555
B24 B25 1.696447 1_554
B24 Ni48 1.976071 1_555
B24 Ni40 2.019250 1_555
B24 Ni34 2.068863 1_554
B24 Ni58 2.104636 1_554
B24 Ni35 2.121400 1_555
B24 Ni0 2.488066 1_555
B24 Er6 2.760986 1_555
B25 Ni49 1.976071 1_555
B25 Ni41 2.019250 1_555
B25 Ni35 2.068863 1_556
B25 Ni59 2.104636 1_556
B25 Ni34 2.121400 1_555
B25 Ni0 2.488066 1_556
B25 Er7 2.760986 1_555
B26 B27 1.696447 1_555
B26 Ni50 1.976071 1_455
B26 Ni42 2.019250 1_455
B26 Ni32 2.068863 1_555
B26 Ni56 2.104636 1_555
B26 Ni33 2.121400 1_555
B26 Ni1 2.488066 1_565
B26 Er4 2.760986 1_555
B27 Ni51 1.976071 1_565
B27 Ni43 2.019250 1_565
B27 Ni33 2.068863 1_555
B27 Ni57 2.104636 1_555
B27 Ni32 2.121400 1_555
B27 Ni1 2.488066 1_565
B27 Er5 2.760986 1_555
B28 Ni20 1.978293 1_555
B28 Ni8 2.018036 1_455
B28 Ni42 2.084651 1_455
B28 Ni28 2.092170 1_455
B28 Ni52 2.135464 1_455
B28 Ni38 2.152268 1_555
B28 Ni56 2.338093 1_555
B28 Er4 2.881416 1_555
B29 Ni21 1.978293 1_555
B29 Ni9 2.018036 1_565
B29 Ni43 2.084651 1_565
B29 Ni29 2.092170 1_565
B29 Ni53 2.135464 1_565
B29 Ni39 2.152268 1_555
B29 Ni57 2.338093 1_555
B29 Er5 2.881416 1_555
B30 Ni22 1.978293 1_555
B30 Ni10 2.018036 1_555
B30 Ni40 2.084651 1_455
B30 Ni30 2.092170 1_555
B30 Ni54 2.135464 1_555
B30 Ni36 2.152268 1_554
B30 Ni58 2.338093 1_454
B30 Er6 2.881416 1_455
B31 Ni23 1.978293 1_555
B31 Ni11 2.018036 1_555
B31 Ni41 2.084651 1_565
B31 Ni31 2.092170 1_555
B31 Ni55 2.135464 1_555
B31 Ni37 2.152268 1_556
B31 Ni59 2.338093 1_566
B31 Er7 2.881416 1_565
B32 Ni24 1.978293 1_555
B32 Ni10 2.018036 1_655
B32 Ni38 2.084651 1_655
B32 Ni32 2.092170 1_655
B32 Ni56 2.135464 1_655
B32 Ni42 2.152268 1_555
B32 Ni52 2.338093 1_555
B32 Er6 2.881416 1_555
B33 Ni25 1.978293 1_555
B33 Ni11 2.018036 1_545
B33 Ni39 2.084651 1_545
B33 Ni33 2.092170 1_545
B33 Ni57 2.135464 1_545
B33 Ni43 2.152268 1_555
B33 Ni53 2.338093 1_555
B33 Er7 2.881416 1_555
B34 Ni26 1.978293 1_555
B34 Ni8 2.018036 1_555
B34 Ni36 2.084651 1_655
B34 Ni34 2.092170 1_555
B34 Ni58 2.135464 1_555
B34 Ni40 2.152268 1_556
B34 Ni54 2.338093 1_656
B34 Er4 2.881416 1_655
B35 Ni27 1.978293 1_555
B35 Ni9 2.018036 1_555
B35 Ni37 2.084651 1_545
B35 Ni35 2.092170 1_555
B35 Ni59 2.135464 1_555
B35 Ni41 2.152268 1_554
B35 Ni55 2.338093 1_544
B35 Er5 2.881416 1_545
