# generated using pymatgen
data_Te4MoW3(SeS)2
_symmetry_space_group_name_H-M   'P 1'
_cell_length_a   3.39846523
_cell_length_b   3.39846523
_cell_length_c   38.66280600
_cell_angle_alpha   90.00000000
_cell_angle_beta   90.00000000
_cell_angle_gamma   119.99998500
_symmetry_Int_Tables_number   1
_chemical_formula_structural   Te4MoW3(SeS)2
_chemical_formula_sum   'Te4 Mo1 W3 Se2 S2'
_cell_volume   386.71385266
_cell_formula_units_Z   1
loop_
 _symmetry_equiv_pos_site_id
 _symmetry_equiv_pos_as_xyz
  1  'x, y, z'
loop_
 _atom_site_type_symbol
 _atom_site_label
 _atom_site_symmetry_multiplicity
 _atom_site_fract_x
 _atom_site_fract_y
 _atom_site_fract_z
 _atom_site_occupancy
  Te  Te0  1  0.00000000  0.00000000  0.33047900  1
  Te  Te1  1  0.00000000  0.00000000  0.70620200  1
  Te  Te2  1  0.00000000  0.00000000  0.23313600  1
  Te  Te3  1  0.00000000  0.00000000  0.60884200  1
  Mo  Mo0  1  0.00000000  0.00000000  0.09391600  1
  W  W0  1  0.00000000  0.00000000  0.46965800  1
  W  W1  1  0.33333300  0.66666700  0.28181500  1
  W  W2  1  0.33333300  0.66666700  0.65753900  1
  Se  Se0  1  0.33333300  0.66666700  0.05131100  1
  Se  Se1  1  0.33333300  0.66666700  0.13653500  1
  S  S0  1  0.33333300  0.66666700  0.43067300  1
  S  S1  1  0.33333300  0.66666700  0.50864100  1
loop_
_geom_bond_atom_site_label_1
_geom_bond_atom_site_label_2
_geom_bond_distance
_geom_bond_site_symmetry_2
Te0 W1 2.718426 1_545
Te0 W1 2.718428 1_445
Te0 W1 2.718428 1_555
Te1 W2 2.718399 1_545
Te1 W2 2.718402 1_555
Te1 W2 2.718402 1_445
Te2 W1 2.718827 1_545
Te2 W1 2.718830 1_555
Te2 W1 2.718830 1_445
Te3 W2 2.719309 1_545
Te3 W2 2.719312 1_555
Te3 W2 2.719312 1_445
Mo0 Se0 2.561876 1_545
Mo0 Se0 2.561879 1_555
Mo0 Se0 2.561879 1_445
Mo0 Se1 2.562224 1_545
Mo0 Se1 2.562227 1_445
Mo0 Se1 2.562227 1_555
S0 W0 2.474209 1_565
S0 W0 2.474211 1_555
S0 W0 2.474211 1_665
S1 W0 2.474162 1_565
S1 W0 2.474164 1_555
S1 W0 2.474164 1_665
