# generated using pymatgen
data_MgSnP2O7
_symmetry_space_group_name_H-M   'P 1'
_cell_length_a   9.24091300
_cell_length_b   7.19463100
_cell_length_c   9.33744306
_cell_angle_alpha   70.16106103
_cell_angle_beta   90.00000000
_cell_angle_gamma   90.00000000
_symmetry_Int_Tables_number   1
_chemical_formula_structural   MgSnP2O7
_chemical_formula_sum   'Mg4 Sn4 P8 O28'
_cell_volume   583.95528056
_cell_formula_units_Z   4
loop_
 _symmetry_equiv_pos_site_id
 _symmetry_equiv_pos_as_xyz
  1  'x, y, z'
loop_
 _atom_site_type_symbol
 _atom_site_label
 _atom_site_symmetry_multiplicity
 _atom_site_fract_x
 _atom_site_fract_y
 _atom_site_fract_z
 _atom_site_occupancy
  Mg  Mg0  1  0.94395600  0.29996600  0.80575200  1
  Mg  Mg1  1  0.44395600  0.70003400  0.69424800  1
  Mg  Mg2  1  0.55604400  0.29996600  0.30575200  1
  Mg  Mg3  1  0.05604400  0.70003400  0.19424800  1
  Sn  Sn0  1  0.08713900  0.77113800  0.57718900  1
  Sn  Sn1  1  0.91286100  0.22886200  0.42281100  1
  Sn  Sn2  1  0.58713900  0.22886200  0.92281100  1
  Sn  Sn3  1  0.41286100  0.77113800  0.07718900  1
  P  P0  1  0.75112900  0.90513600  0.27599400  1
  P  P1  1  0.21121300  0.48549600  0.95488400  1
  P  P2  1  0.74887100  0.90513600  0.77599400  1
  P  P3  1  0.28878700  0.48549600  0.45488400  1
  P  P4  1  0.25112900  0.09486400  0.22400600  1
  P  P5  1  0.71121300  0.51450400  0.54511600  1
  P  P6  1  0.78878700  0.51450400  0.04511600  1
  P  P7  1  0.24887100  0.09486400  0.72400600  1
  O  O0  1  0.18939900  0.26668900  0.07308700  1
  O  O1  1  0.59056600  0.86090400  0.75639800  1
  O  O2  1  0.90943400  0.86090400  0.25639800  1
  O  O3  1  0.36582300  0.51545500  0.89279100  1
  O  O4  1  0.81060100  0.73331100  0.92691300  1
  O  O5  1  0.15154500  0.08787000  0.35439300  1
  O  O6  1  0.63417700  0.48454500  0.10720900  1
  O  O7  1  0.09704600  0.49871700  0.83205300  1
  O  O8  1  0.31530600  0.63221000  0.54098600  1
  O  O9  1  0.84845500  0.91213000  0.64560700  1
  O  O10  1  0.34845500  0.08787000  0.85439300  1
  O  O11  1  0.76741200  0.09594600  0.81832800  1
  O  O12  1  0.26741200  0.90405400  0.68167200  1
  O  O13  1  0.31060100  0.26668900  0.57308700  1
  O  O14  1  0.65154500  0.91213000  0.14560700  1
  O  O15  1  0.09056600  0.13909600  0.74360200  1
  O  O16  1  0.23258800  0.90405400  0.18167200  1
  O  O17  1  0.90295400  0.50128300  0.16794700  1
  O  O18  1  0.18469400  0.63221000  0.04098600  1
  O  O19  1  0.81530600  0.36779000  0.95901400  1
  O  O20  1  0.86582300  0.48454500  0.60720900  1
  O  O21  1  0.40295400  0.49871700  0.33205300  1
  O  O22  1  0.59704600  0.50128300  0.66794700  1
  O  O23  1  0.40943400  0.13909600  0.24360200  1
  O  O24  1  0.73258800  0.09594600  0.31832800  1
  O  O25  1  0.13417700  0.51545500  0.39279100  1
  O  O26  1  0.68469400  0.36779000  0.45901400  1
  O  O27  1  0.68939900  0.73331100  0.42691300  1
loop_
_geom_bond_atom_site_label_1
_geom_bond_atom_site_label_2
_geom_bond_distance
_geom_bond_site_symmetry_2
Mg0 O15 1.991923 1_655
Mg0 O20 2.012632 1_555
Mg0 O19 2.042897 1_555
Mg0 O7 2.084407 1_655
Mg0 O11 2.170929 1_555
Mg1 O1 1.991923 1_555
Mg1 O3 2.012632 1_555
Mg1 O8 2.042897 1_555
Mg1 O22 2.084407 1_555
Mg1 O12 2.170929 1_555
Mg2 O23 1.991923 1_555
Mg2 O6 2.012632 1_555
Mg2 O26 2.042897 1_555
Mg2 O21 2.084407 1_555
Mg2 O24 2.170929 1_555
Mg3 O2 1.991923 1_455
Mg3 O25 2.012632 1_555
Mg3 O18 2.042897 1_555
Mg3 O17 2.084407 1_455
Mg3 O16 2.170929 1_555
O0 P1 1.599280 1_554
O0 P4 1.630041 1_555
O1 P2 1.521283 1_555
O2 P0 1.521283 1_555
O3 P1 1.529406 1_555
O4 P6 1.599280 1_556
O4 P2 1.630041 1_555
O5 P4 1.513296 1_555
O5 Sn0 2.580142 1_545
O5 Sn1 2.596516 1_455
O6 P6 1.529406 1_555
O7 P1 1.537362 1_555
O7 Sn0 2.519384 1_555
O8 P3 1.548107 1_555
O8 Sn0 2.405897 1_555
O9 P2 1.513296 1_555
O9 Sn1 2.580142 1_565
O9 Sn0 2.596516 1_655
O10 P7 1.513296 1_555
O10 Sn3 2.580142 1_546
O10 Sn2 2.596516 1_555
O11 P2 1.561584 1_545
O11 Sn2 2.296672 1_555
O12 P7 1.561584 1_565
O12 Sn0 2.296672 1_555
O13 P3 1.599280 1_555
O13 P7 1.630041 1_555
O14 P0 1.513296 1_555
O14 Sn2 2.580142 1_564
O14 Sn3 2.596516 1_555
O15 P7 1.521283 1_555
O16 P4 1.561584 1_565
O16 Sn3 2.296672 1_555
O17 P6 1.537362 1_555
O17 Sn1 2.519384 1_555
O18 P1 1.548107 1_554
O18 Sn3 2.405897 1_555
O19 P6 1.548107 1_556
O19 Sn2 2.405897 1_555
O20 P5 1.529406 1_555
O21 P3 1.537362 1_555
O21 Sn3 2.519384 1_555
O22 P5 1.537362 1_555
O22 Sn2 2.519384 1_555
O23 P4 1.521283 1_555
O24 P0 1.561584 1_545
O24 Sn1 2.296672 1_555
O25 P3 1.529406 1_555
O26 P5 1.548107 1_555
O26 Sn1 2.405897 1_555
O27 P5 1.599280 1_555
O27 P0 1.630041 1_555
