# generated using pymatgen
data_HoGa3
_symmetry_space_group_name_H-M   'P 1'
_cell_length_a   6.07553899
_cell_length_b   6.07553792
_cell_length_c   9.35141106
_cell_angle_alpha   90.00047314
_cell_angle_beta   89.99947089
_cell_angle_gamma   119.99884500
_symmetry_Int_Tables_number   1
_chemical_formula_structural   HoGa3
_chemical_formula_sum   'Ho4 Ga12'
_cell_volume   298.93886546
_cell_formula_units_Z   4
loop_
 _symmetry_equiv_pos_site_id
 _symmetry_equiv_pos_as_xyz
  1  'x, y, z'
loop_
 _atom_site_type_symbol
 _atom_site_label
 _atom_site_symmetry_multiplicity
 _atom_site_fract_x
 _atom_site_fract_y
 _atom_site_fract_z
 _atom_site_occupancy
  Ho  Ho0  1  0.00000049  0.00000143  0.50000365  1
  Ho  Ho1  1  0.00000045  0.00000002  0.99999331  1
  Ho  Ho2  1  0.66667359  0.33332923  0.74999744  1
  Ho  Ho3  1  0.33332822  0.66667449  0.24999954  1
  Ga  Ga0  1  0.49999982  -0.00000079  0.50000325  1
  Ga  Ga1  1  0.49999768  0.50000022  0.50000431  1
  Ga  Ga2  1  0.00000108  0.49999933  0.50000452  1
  Ga  Ga3  1  0.49999821  -0.00000263  0.99999598  1
  Ga  Ga4  1  0.49999886  0.50000203  0.99999585  1
  Ga  Ga5  1  0.00000196  0.50000198  0.99999545  1
  Ga  Ga6  1  0.18639931  0.81359890  0.74999837  1
  Ga  Ga7  1  0.62721866  0.81361747  0.75000995  1
  Ga  Ga8  1  0.18638181  0.37278151  0.75001003  1
  Ga  Ga9  1  0.81360236  0.18639792  0.24999687  1
  Ga  Ga10  1  0.37278273  0.18638603  0.24999143  1
  Ga  Ga11  1  0.81361376  0.62721286  0.24999805  1
loop_
_geom_bond_atom_site_label_1
_geom_bond_atom_site_label_2
_geom_bond_distance
_geom_bond_site_symmetry_2
Ga0 Ga6 2.867111 1_545
Ga0 Ga7 2.867194 1_545
Ga0 Ga9 2.867202 1_555
Ga0 Ga10 2.867244 1_555
Ga0 Ho2 2.922549 1_555
Ga0 Ho3 2.922603 1_545
Ga0 Ga1 3.037756 1_545
Ga0 Ho0 3.037767 1_655
Ga0 Ho0 3.037772 1_555
Ga0 Ga1 3.037782 1_555
Ga0 Ga2 3.037818 1_545
Ga0 Ga2 3.037826 1_655
Ga1 Ga8 2.867227 1_555
Ga1 Ga7 2.867232 1_555
Ga1 Ga11 2.867234 1_555
Ga1 Ga10 2.867280 1_555
Ga1 Ho2 2.922596 1_555
Ga1 Ho3 2.922673 1_555
Ga1 Ga2 3.037746 1_555
Ga1 Ga2 3.037793 1_655
Ga1 Ho0 3.037810 1_555
Ga1 Ho0 3.037834 1_665
Ga2 Ga6 2.867100 1_555
Ga2 Ga8 2.867179 1_555
Ga2 Ga9 2.867210 1_455
Ga2 Ho2 2.922529 1_455
Ga2 Ho3 2.922618 1_555
Ga2 Ho0 3.037754 1_555
Ga2 Ho0 3.037784 1_565
Ga3 Ga7 2.867008 1_545
Ga3 Ga6 2.867138 1_545
Ga3 Ga9 2.867179 1_556
Ga3 Ho2 2.922599 1_555
Ga3 Ho3 2.922608 1_546
Ga3 Ga4 3.037743 1_545
Ga3 Ho1 3.037764 1_555
Ga3 Ho1 3.037775 1_655
Ga3 Ga4 3.037795 1_555
Ga3 Ga5 3.037797 1_545
Ga3 Ga5 3.037848 1_655
Ga4 Ga7 2.867090 1_555
Ga4 Ga8 2.867097 1_555
Ga4 Ho2 2.922609 1_555
Ga4 Ho3 2.922635 1_556
Ga4 Ga5 3.037751 1_555
Ga4 Ga5 3.037788 1_655
Ga4 Ho1 3.037821 1_665
Ga4 Ho1 3.037824 1_555
Ga5 Ga8 2.867003 1_555
Ga5 Ga6 2.867125 1_555
Ga5 Ga9 2.867179 1_456
Ga5 Ho2 2.922586 1_455
Ga5 Ho3 2.922625 1_556
Ga5 Ho1 3.037762 1_565
Ga5 Ho1 3.037776 1_555
Ga6 Ga8 2.678150 1_555
Ga6 Ga7 2.678159 1_555
Ga6 Ho2 3.044894 1_455
Ga6 Ho2 3.044921 1_565
Ga6 Ho1 3.051677 1_565
Ga6 Ho0 3.051710 1_565
Ga7 Ga8 2.678365 1_555
Ga7 Ho2 3.044763 1_565
Ga7 Ho2 3.044945 1_555
Ga7 Ho1 3.051579 1_665
Ga7 Ho0 3.051725 1_665
Ga8 Ho2 3.044749 1_455
Ga8 Ho2 3.044958 1_555
Ga8 Ho1 3.051574 1_555
Ga8 Ho0 3.051722 1_555
Ga9 Ho3 3.044898 1_545
Ga9 Ho3 3.044912 1_655
Ga9 Ho1 3.051725 1_654
Ga9 Ho0 3.051774 1_655
Ga10 Ga9 2.678181 1_555
Ga10 Ga11 2.678320 1_555
Ga10 Ga3 2.867094 1_554
Ga10 Ga4 2.867167 1_554
Ga10 Ho3 3.044763 1_545
Ga10 Ho3 3.044945 1_555
Ga10 Ho1 3.051686 1_554
Ga10 Ho0 3.051769 1_555
Ga11 Ga9 2.678153 1_555
Ga11 Ga5 2.867133 1_654
Ga11 Ga2 2.867195 1_655
Ga11 Ga4 2.867219 1_554
Ga11 Ho3 3.044762 1_655
Ga11 Ho3 3.044952 1_555
Ga11 Ho0 3.051745 1_665
Ga11 Ho1 3.051747 1_664
