# generated using pymatgen
data_Nb13AgO33
_symmetry_space_group_name_H-M   'P 1'
_cell_length_a   3.84752160
_cell_length_b   11.49677043
_cell_length_c   15.60710857
_cell_angle_alpha   91.87994243
_cell_angle_beta   90.00031315
_cell_angle_gamma   99.62890104
_symmetry_Int_Tables_number   1
_chemical_formula_structural   Nb13AgO33
_chemical_formula_sum   'Nb13 Ag1 O33'
_cell_volume   680.26303777
_cell_formula_units_Z   1
loop_
 _symmetry_equiv_pos_site_id
 _symmetry_equiv_pos_as_xyz
  1  'x, y, z'
loop_
 _atom_site_type_symbol
 _atom_site_label
 _atom_site_symmetry_multiplicity
 _atom_site_fract_x
 _atom_site_fract_y
 _atom_site_fract_z
 _atom_site_occupancy
  Nb  Nb0  1  0.70749941  0.41537958  0.62539930  1
  Nb  Nb1  1  0.29250236  0.58462070  0.37460078  1
  Nb  Nb2  1  0.91405642  0.82765869  0.32468124  1
  Nb  Nb3  1  0.08594130  0.17234118  0.67531863  1
  Nb  Nb4  1  0.15525802  0.31066871  0.90449074  1
  Nb  Nb5  1  0.84473790  0.68932962  0.09550931  1
  Nb  Nb6  1  0.92950140  0.85916801  0.77116664  1
  Nb  Nb7  1  0.07051388  0.14083345  0.22883376  1
  Nb  Nb8  1  0.77566294  0.55053906  0.86283478  1
  Nb  Nb9  1  0.22433621  0.44946048  0.13716534  1
  Nb  Nb10  1  0.86395126  0.72807725  0.53200036  1
  Nb  Nb11  1  0.13604557  0.27192199  0.46799903  1
  Nb  Nb12  1  0.00000819  -0.00000098  0.00000081  1
  Ag  Ag0  1  0.49999954  -0.00000031  0.49999990  1
  O  O0  1  0.08188752  0.16384710  0.95104465  1
  O  O1  1  0.91810869  0.83615238  0.04895537  1
  O  O2  1  0.42878582  0.85777762  0.75334556  1
  O  O3  1  0.57121518  0.14222130  0.24665357  1
  O  O4  1  0.73223134  0.46505802  0.73585040  1
  O  O5  1  0.26776771  0.53494195  0.26414970  1
  O  O6  1  0.67965697  0.35935194  0.89956569  1
  O  O7  1  0.32034116  0.64064792  0.10043450  1
  O  O8  1  0.65228095  0.30452775  0.49706654  1
  O  O9  1  0.34771786  0.69547259  0.50293361  1
  O  O10  1  0.25058028  0.50091299  0.86249158  1
  O  O11  1  0.74941889  0.49908746  0.13750859  1
  O  O12  1  0.80498432  0.60988229  0.97415095  1
  O  O13  1  0.19501463  0.39011780  0.02584932  1
  O  O14  1  0.89994632  0.80031481  0.63516575  1
  O  O15  1  0.10005223  0.19968568  0.36483349  1
  O  O16  1  0.60924481  0.21875963  0.66156231  1
  O  O17  1  0.39075386  0.78124086  0.33843748  1
  O  O18  1  0.96483724  0.92989223  0.88042821  1
  O  O19  1  0.03516089  0.07010786  0.11957147  1
  O  O20  1  0.87194177  0.74365250  0.21389983  1
  O  O21  1  0.12805750  0.25634770  0.78609976  1
  O  O22  1  0.93370923  0.86734117  0.45672026  1
  O  O23  1  0.06628921  0.13265862  0.54327937  1
  O  O24  1  0.84653413  0.69286573  0.80544777  1
  O  O25  1  0.15346585  0.30713442  0.19455253  1
  O  O26  1  0.77783931  0.55550261  0.56899731  1
  O  O27  1  0.22215986  0.44449700  0.43100229  1
  O  O28  1  0.81941170  0.63848047  0.38949241  1
  O  O29  1  0.18058964  0.36151961  0.61050748  1
  O  O30  1  0.49999907  0.00000064  -0.00000026  1
  O  O31  1  0.98915198  0.97792281  0.29057445  1
  O  O32  1  0.01084664  0.02207710  0.70942546  1
loop_
_geom_bond_atom_site_label_1
_geom_bond_atom_site_label_2
_geom_bond_distance
_geom_bond_site_symmetry_2
Nb0 O4 1.795562 1_555
Nb0 O26 1.841335 1_555
Nb0 O29 2.029281 1_555
Nb0 O29 2.029355 1_655
Nb0 O16 2.317138 1_555
Nb0 O8 2.328710 1_555
Nb1 O5 1.795562 1_555
Nb1 O27 1.841338 1_555
Nb1 O28 2.029279 1_555
Nb1 O28 2.029355 1_455
Nb1 O17 2.317142 1_555
Nb1 O9 2.328712 1_555
Nb2 O31 1.801285 1_555
Nb2 O20 1.945886 1_555
Nb2 O17 2.007427 1_655
Nb2 O17 2.008186 1_555
Nb2 O22 2.094590 1_555
Nb2 O28 2.401150 1_555
Nb3 O32 1.801284 1_555
Nb3 O21 1.945884 1_555
Nb3 O16 2.007427 1_455
Nb3 O16 2.008190 1_555
Nb3 O23 2.094594 1_555
Nb3 O29 2.401152 1_555
Nb4 O0 1.837911 1_555
Nb4 O21 1.928093 1_555
Nb4 O6 2.003272 1_455
Nb4 O6 2.003765 1_555
Nb4 O13 2.070002 1_556
Nb4 O10 2.274579 1_555
Nb5 O1 1.837923 1_555
Nb5 O20 1.928092 1_555
Nb5 O7 2.003272 1_655
Nb5 O7 2.003755 1_555
Nb5 O12 2.069991 1_554
Nb5 O11 2.274556 1_555
Nb6 O18 1.859990 1_555
Nb6 O2 1.943675 1_655
Nb6 O2 1.943829 1_555
Nb6 O24 1.976515 1_555
Nb6 O32 2.111080 1_665
Nb6 O14 2.203662 1_555
Nb7 O19 1.860006 1_555
Nb7 O3 1.943721 1_455
Nb7 O3 1.943777 1_555
Nb7 O25 1.976501 1_555
Nb7 O31 2.111092 1_445
Nb7 O15 2.203642 1_555
Nb8 O12 1.842003 1_555
Nb8 O24 1.871068 1_555
Nb8 O10 2.003237 1_655
Nb8 O10 2.005299 1_555
Nb8 O4 2.176871 1_555
Nb8 O6 2.259976 1_555
Nb9 O13 1.841998 1_555
Nb9 O25 1.871064 1_555
Nb9 O11 2.003242 1_455
Nb9 O11 2.005301 1_555
Nb9 O5 2.176873 1_555
Nb9 O7 2.259979 1_555
Nb10 O14 1.781898 1_555
Nb10 O22 1.998895 1_555
Nb10 O9 2.007769 1_555
Nb10 O9 2.008236 1_655
Nb10 O26 2.057887 1_555
Nb10 O28 2.414090 1_555
Nb11 O15 1.781894 1_555
Nb11 O23 1.998892 1_555
Nb11 O8 2.007779 1_555
Nb11 O8 2.008236 1_455
Nb11 O27 2.057890 1_555
Nb11 O29 2.414101 1_555
Nb12 O30 1.923723 1_555
Nb12 O30 1.923799 1_455
Nb12 O19 2.003829 1_555
Nb12 O18 2.003849 1_444
Nb12 O1 2.031567 1_445
Nb12 O0 2.031592 1_554
Ag0 O23 2.519979 1_655
Ag0 O22 2.519980 1_445
Ag0 O22 2.520064 1_545
Ag0 O23 2.520068 1_555
