# generated using pymatgen
data_Ca10TaTi8Al(SiO5)10
_symmetry_space_group_name_H-M   'P 1'
_cell_length_a   6.68373700
_cell_length_b   7.13173749
_cell_length_c   22.16379487
_cell_angle_alpha   86.48638340
_cell_angle_beta   81.41929370
_cell_angle_gamma   65.82122954
_symmetry_Int_Tables_number   1
_chemical_formula_structural   Ca10TaTi8Al(SiO5)10
_chemical_formula_sum   'Ca10 Ta1 Ti8 Al1 Si10 O50'
_cell_volume   953.00356206
_cell_formula_units_Z   1
loop_
 _symmetry_equiv_pos_site_id
 _symmetry_equiv_pos_as_xyz
  1  'x, y, z'
loop_
 _atom_site_type_symbol
 _atom_site_label
 _atom_site_symmetry_multiplicity
 _atom_site_fract_x
 _atom_site_fract_y
 _atom_site_fract_z
 _atom_site_occupancy
  Ca  Ca0  1  0.16555100  0.25031700  0.66889700  1
  Ca  Ca1  1  0.63436200  0.74913000  0.73112100  1
  Ca  Ca2  1  0.76554200  0.25013800  0.46889200  1
  Ca  Ca3  1  0.23445800  0.74986200  0.53110800  1
  Ca  Ca4  1  0.36563800  0.25087000  0.26887900  1
  Ca  Ca5  1  0.83444900  0.74968300  0.33110300  1
  Ca  Ca6  1  0.97877500  0.24064400  0.06894700  1
  Ca  Ca7  1  0.43535500  0.75860400  0.13090300  1
  Ca  Ca8  1  0.56464500  0.24139600  0.86909700  1
  Ca  Ca9  1  0.02122500  0.75935600  0.93105300  1
  Ta  Ta0  1  0.50000000  0.50000000  0.00000000  1
  Ti  Ti0  1  0.09989000  0.49994100  0.80032700  1
  Ti  Ti1  1  0.09978800  0.00036900  0.79981900  1
  Ti  Ti2  1  0.69992300  0.50002100  0.59999000  1
  Ti  Ti3  1  0.69998000  0.00001000  0.60004000  1
  Ti  Ti4  1  0.30007700  0.49997900  0.40001000  1
  Ti  Ti5  1  0.30002000  0.99999000  0.39996000  1
  Ti  Ti6  1  0.90011000  0.50005900  0.19967300  1
  Ti  Ti7  1  0.90021200  0.99963100  0.20018100  1
  Al  Al0  1  0.50000000  0.00000000  0.00000000  1
  Si  Si0  1  0.16375700  0.74993500  0.67188700  1
  Si  Si1  1  0.63560000  0.25007500  0.72825400  1
  Si  Si2  1  0.76403200  0.75011800  0.47181900  1
  Si  Si3  1  0.23596800  0.24988200  0.52818100  1
  Si  Si4  1  0.36440000  0.74992500  0.27174600  1
  Si  Si5  1  0.83624300  0.25006500  0.32811300  1
  Si  Si6  1  0.95484700  0.75677400  0.07146500  1
  Si  Si7  1  0.43465500  0.24588800  0.12814900  1
  Si  Si8  1  0.56534500  0.75411200  0.87185100  1
  Si  Si9  1  0.04515300  0.24322600  0.92853500  1
  O  O0  1  0.42566100  0.40527100  0.77532300  1
  O  O1  1  0.23971800  0.88599600  0.71420300  1
  O  O2  1  0.11363300  0.25020300  0.77250800  1
  O  O3  1  0.04567100  0.61446600  0.71427600  1
  O  O4  1  0.79923500  0.09348700  0.77506700  1
  O  O5  1  0.00075600  0.90593200  0.62482100  1
  O  O6  1  0.75395700  0.38572300  0.68586200  1
  O  O7  1  0.68624300  0.74993900  0.62747900  1
  O  O8  1  0.02567400  0.40594000  0.57511200  1
  O  O9  1  0.56008200  0.11411600  0.68575800  1
  O  O10  1  0.83978700  0.88594700  0.51422800  1
  O  O11  1  0.37426500  0.59400600  0.62492000  1
  O  O12  1  0.71373900  0.25004800  0.57252000  1
  O  O13  1  0.64582200  0.61437500  0.51422700  1
  O  O14  1  0.39920600  0.09414300  0.57516400  1
  O  O15  1  0.60079400  0.90585700  0.42483600  1
  O  O16  1  0.35417800  0.38562500  0.48577300  1
  O  O17  1  0.28626100  0.74995200  0.42748000  1
  O  O18  1  0.62573500  0.40599400  0.37508000  1
  O  O19  1  0.16021300  0.11405300  0.48577200  1
  O  O20  1  0.43991800  0.88588400  0.31424200  1
  O  O21  1  0.97432600  0.59406000  0.42488800  1
  O  O22  1  0.31375700  0.25006100  0.37252100  1
  O  O23  1  0.24604300  0.61427700  0.31413800  1
  O  O24  1  0.99924400  0.09406800  0.37517900  1
  O  O25  1  0.20076500  0.90651300  0.22493300  1
  O  O26  1  0.95432900  0.38553400  0.28572400  1
  O  O27  1  0.88636700  0.74979700  0.22749200  1
  O  O28  1  0.22654800  0.40426800  0.17488800  1
  O  O29  1  0.76028200  0.11400400  0.28579700  1
  O  O30  1  0.03959300  0.88545100  0.11419900  1
  O  O31  1  0.57433900  0.59472900  0.22467700  1
  O  O32  1  0.91419500  0.24940800  0.17251300  1
  O  O33  1  0.84635200  0.61387700  0.11420500  1
  O  O34  1  0.59933700  0.09283700  0.17500700  1
  O  O35  1  0.79545900  0.90775400  0.02432300  1
  O  O36  1  0.55329400  0.38568700  0.08613700  1
  O  O37  1  0.48717700  0.75527600  0.02695900  1
  O  O38  1  0.82996800  0.40364300  0.97470500  1
  O  O39  1  0.36228600  0.11337700  0.08430900  1
  O  O40  1  0.63771400  0.88662300  0.91569100  1
  O  O41  1  0.17003200  0.59635700  0.02529500  1
  O  O42  1  0.51282300  0.24472400  0.97304100  1
  O  O43  1  0.44670600  0.61431300  0.91386300  1
  O  O44  1  0.20454100  0.09224600  0.97567700  1
  O  O45  1  0.40066300  0.90716300  0.82499300  1
  O  O46  1  0.15364800  0.38612300  0.88579500  1
  O  O47  1  0.08580500  0.75059200  0.82748700  1
  O  O48  1  0.96040700  0.11454900  0.88580100  1
  O  O49  1  0.77345200  0.59573200  0.82511200  1
loop_
_geom_bond_atom_site_label_1
_geom_bond_atom_site_label_2
_geom_bond_distance
_geom_bond_site_symmetry_2
Ca0 O2 2.270713 1_555
Ca0 O8 2.423569 1_555
Ca0 O14 2.426096 1_555
Ca0 O9 2.487566 1_555
Ca0 O6 2.490281 1_455
Ca0 O3 2.602532 1_555
Ca0 O1 2.603571 1_545
Ca1 O7 2.271402 1_555
Ca1 O49 2.422026 1_555
Ca1 O45 2.431939 1_555
Ca1 O1 2.488375 1_555
Ca1 O3 2.488795 1_655
Ca1 O6 2.597027 1_555
Ca1 O9 2.608147 1_565
Ca2 O12 2.271084 1_555
Ca2 O18 2.424359 1_555
Ca2 O24 2.425665 1_555
Ca2 O19 2.488593 1_655
Ca2 O16 2.488812 1_555
Ca2 O13 2.602872 1_555
Ca2 O10 2.602891 1_545
Ca3 O17 2.271084 1_555
Ca3 O11 2.424359 1_555
Ca3 O5 2.425665 1_555
Ca3 O10 2.488593 1_455
Ca3 O13 2.488812 1_555
Ca3 O16 2.602872 1_555
Ca3 O19 2.602891 1_565
Ca4 O22 2.271402 1_555
Ca4 O28 2.422026 1_555
Ca4 O34 2.431939 1_555
Ca4 O29 2.488375 1_555
Ca4 O26 2.488795 1_455
Ca4 O23 2.597027 1_555
Ca4 O20 2.608147 1_545
Ca5 O27 2.270713 1_555
Ca5 O21 2.423569 1_555
Ca5 O15 2.426096 1_555
Ca5 O20 2.487566 1_555
Ca5 O23 2.490281 1_655
Ca5 O26 2.602532 1_555
Ca5 O29 2.603571 1_565
Ca6 O32 2.271339 1_555
Ca6 O44 2.387374 1_654
Ca6 O39 2.413897 1_655
Ca6 O38 2.465492 1_554
Ca6 O30 2.560219 1_645
Ca6 O36 2.572480 1_555
Ca6 O33 2.647109 1_555
Ca7 O37 2.278125 1_555
Ca7 O25 2.419495 1_555
Ca7 O31 2.436711 1_555
Ca7 O33 2.483774 1_555
Ca7 O30 2.498664 1_555
Ca7 O39 2.554339 1_565
Ca7 O36 2.655502 1_555
Ca8 O42 2.278125 1_555
Ca8 O4 2.419495 1_555
Ca8 O0 2.436711 1_555
Ca8 O46 2.483774 1_555
Ca8 O48 2.498664 1_555
Ca8 O40 2.554339 1_545
Ca8 O43 2.655502 1_555
Ca9 O47 2.271339 1_555
Ca9 O35 2.387374 1_456
Ca9 O40 2.413897 1_455
Ca9 O41 2.465492 1_556
Ca9 O48 2.560219 1_465
Ca9 O43 2.572480 1_555
Ca9 O46 2.647109 1_555
Al0 O42 1.841167 1_554
Al0 O37 1.841167 1_545
Al0 O35 1.957834 1_545
Al0 O44 1.957834 1_554
Al0 O40 2.013701 1_544
Al0 O39 2.013701 1_555
O0 Si1 1.647655 1_555
O0 Ti0 1.996357 1_555
O1 Si0 1.654138 1_555
O1 Ti1 2.043536 1_565
O2 Ti1 1.880361 1_555
O2 Ti0 1.882680 1_555
O3 Si0 1.652605 1_555
O3 Ti0 2.051523 1_555
O4 Si1 1.647994 1_555
O4 Ti1 1.992164 1_655
O5 Si0 1.648279 1_555
O5 Ti3 1.993134 1_465
O6 Si1 1.654733 1_555
O6 Ti2 2.047203 1_555
O7 Ti2 1.881305 1_555
O7 Ti3 1.882411 1_565
O8 Si3 1.649360 1_555
O8 Ti2 1.996247 1_455
O9 Si1 1.654319 1_555
O9 Ti3 2.044993 1_555
O10 Si2 1.653372 1_555
O10 Ti3 2.046661 1_565
O11 Si0 1.650150 1_555
O11 Ti2 1.995899 1_555
O12 Ti2 1.881167 1_555
O12 Ti3 1.882709 1_555
O13 Si2 1.654780 1_555
O13 Ti2 2.045129 1_555
O14 Si3 1.647099 1_555
O14 Ti3 1.993940 1_555
O15 Si2 1.647099 1_555
O15 Ti5 1.993940 1_555
O16 Si3 1.654780 1_555
O16 Ti4 2.045129 1_555
O17 Ti4 1.881167 1_555
O17 Ti5 1.882709 1_555
O18 Si5 1.650150 1_555
O18 Ti4 1.995899 1_555
O19 Si3 1.653372 1_555
O19 Ti5 2.046661 1_545
O20 Si4 1.654319 1_555
O20 Ti5 2.044993 1_555
O21 Si2 1.649360 1_555
O21 Ti4 1.996247 1_655
O22 Ti4 1.881305 1_555
O22 Ti5 1.882411 1_545
O23 Si4 1.654733 1_555
O23 Ti4 2.047203 1_555
O24 Si5 1.648279 1_555
O24 Ti5 1.993134 1_645
O25 Si4 1.647994 1_555
O25 Ti7 1.992164 1_455
O26 Si5 1.652605 1_555
O26 Ti6 2.051523 1_555
O27 Ti7 1.880361 1_555
O27 Ti6 1.882680 1_555
O28 Si7 1.646237 1_555
O28 Ti6 1.999045 1_455
O29 Si5 1.654138 1_555
O29 Ti7 2.043536 1_545
O30 Si6 1.659068 1_455
O30 Ti7 2.049784 1_455
O31 Si4 1.647655 1_555
O31 Ti6 1.996357 1_555
O32 Ti7 1.882379 1_545
O32 Ti6 1.882496 1_555
O33 Si6 1.656448 1_555
O33 Ti6 2.037661 1_555
O34 Si7 1.643021 1_555
O34 Ti7 1.997876 1_545
O35 Si6 1.624986 1_555
O36 Si7 1.674316 1_555
O36 Ta0 2.051959 1_555
O37 Ta0 1.915476 1_555
O38 Si9 1.667625 1_655
O38 Ta0 2.021680 1_556
O39 Si7 1.642687 1_555
O40 Si8 1.642687 1_555
O41 Si6 1.667625 1_455
O41 Ta0 2.021680 1_555
O42 Ta0 1.915476 1_556
O43 Si8 1.674316 1_555
O43 Ta0 2.051959 1_556
O44 Si9 1.624986 1_555
O45 Si8 1.643021 1_555
O45 Ti1 1.997876 1_565
O46 Si9 1.656448 1_555
O46 Ti0 2.037661 1_555
O47 Ti1 1.882379 1_565
O47 Ti0 1.882496 1_555
O48 Si9 1.659068 1_655
O48 Ti1 2.049784 1_655
O49 Si8 1.646237 1_555
O49 Ti0 1.999045 1_655
