# generated using pymatgen
data_Mg14AlBiO16
_symmetry_space_group_name_H-M   'P 1'
_cell_length_a   4.34985800
_cell_length_b   8.55844600
_cell_length_c   9.03217100
_cell_angle_alpha   90.00000000
_cell_angle_beta   90.00000000
_cell_angle_gamma   90.00000000
_symmetry_Int_Tables_number   1
_chemical_formula_structural   Mg14AlBiO16
_chemical_formula_sum   'Mg14 Al1 Bi1 O16'
_cell_volume   336.24988599
_cell_formula_units_Z   1
loop_
 _symmetry_equiv_pos_site_id
 _symmetry_equiv_pos_as_xyz
  1  'x, y, z'
loop_
 _atom_site_type_symbol
 _atom_site_label
 _atom_site_symmetry_multiplicity
 _atom_site_fract_x
 _atom_site_fract_y
 _atom_site_fract_z
 _atom_site_occupancy
  Mg  Mg0  1  0.00000000  0.50000000  0.00000000  1
  Mg  Mg1  1  0.00000000  0.50000000  0.50000000  1
  Mg  Mg2  1  0.50000000  0.00000000  0.24076400  1
  Mg  Mg3  1  0.50000000  0.00000000  0.75923600  1
  Mg  Mg4  1  0.50000000  0.50000000  0.24830500  1
  Mg  Mg5  1  0.50000000  0.50000000  0.75169500  1
  Mg  Mg6  1  0.50000000  0.25209500  0.00000000  1
  Mg  Mg7  1  0.50000000  0.26132300  0.50000000  1
  Mg  Mg8  1  0.50000000  0.74790500  0.00000000  1
  Mg  Mg9  1  0.50000000  0.73867700  0.50000000  1
  Mg  Mg10  1  0.00000000  0.25130500  0.24564800  1
  Mg  Mg11  1  0.00000000  0.25130500  0.75435200  1
  Mg  Mg12  1  0.00000000  0.74869500  0.24564800  1
  Mg  Mg13  1  0.00000000  0.74869500  0.75435200  1
  Al  Al0  1  0.00000000  0.00000000  0.00000000  1
  Bi  Bi0  1  0.00000000  0.00000000  0.50000000  1
  O  O0  1  0.00000000  0.24889800  0.00000000  1
  O  O1  1  0.00000000  0.27486000  0.50000000  1
  O  O2  1  0.00000000  0.75110200  0.00000000  1
  O  O3  1  0.00000000  0.72514000  0.50000000  1
  O  O4  1  0.50000000  0.24988300  0.25090000  1
  O  O5  1  0.50000000  0.24988300  0.74910000  1
  O  O6  1  0.50000000  0.75011700  0.25090000  1
  O  O7  1  0.50000000  0.75011700  0.74910000  1
  O  O8  1  0.50000000  0.00000000  0.00000000  1
  O  O9  1  0.50000000  0.00000000  0.50000000  1
  O  O10  1  0.50000000  0.50000000  0.00000000  1
  O  O11  1  0.50000000  0.50000000  0.50000000  1
  O  O12  1  0.00000000  0.00000000  0.19311600  1
  O  O13  1  0.00000000  0.00000000  0.80688400  1
  O  O14  1  0.00000000  0.50000000  0.24316700  1
  O  O15  1  0.00000000  0.50000000  0.75683300  1
loop_
_geom_bond_atom_site_label_1
_geom_bond_atom_site_label_2
_geom_bond_distance
_geom_bond_site_symmetry_2
Mg0 O2 2.149043 1_555
Mg0 O0 2.149043 1_555
Mg0 O10 2.174929 1_455
Mg0 O10 2.174929 1_555
Mg0 O14 2.196326 1_555
Mg0 O15 2.196326 1_554
Mg1 O1 1.926849 1_555
Mg1 O3 1.926849 1_555
Mg1 O11 2.174929 1_555
Mg1 O11 2.174929 1_455
Mg1 O15 2.319760 1_555
Mg1 O14 2.319760 1_555
Mg2 O4 2.140569 1_555
Mg2 O6 2.140569 1_545
Mg2 O8 2.174622 1_555
Mg2 O12 2.217099 1_655
Mg2 O12 2.217099 1_555
Mg2 O9 2.341464 1_555
Mg3 O5 2.140569 1_555
Mg3 O7 2.140569 1_545
Mg3 O8 2.174622 1_556
Mg3 O13 2.217099 1_555
Mg3 O13 2.217099 1_655
Mg3 O9 2.341464 1_555
Mg4 O6 2.140741 1_555
Mg4 O4 2.140741 1_555
Mg4 O14 2.175424 1_655
Mg4 O14 2.175424 1_555
Mg4 O10 2.242733 1_555
Mg4 O11 2.273352 1_555
Mg5 O7 2.140741 1_555
Mg5 O5 2.140741 1_555
Mg5 O15 2.175424 1_555
Mg5 O15 2.175424 1_655
Mg5 O10 2.242733 1_556
Mg5 O11 2.273352 1_555
Mg6 O10 2.121682 1_555
Mg6 O8 2.157541 1_555
Mg6 O0 2.175101 1_655
Mg6 O0 2.175101 1_555
Mg6 O4 2.266251 1_555
Mg6 O5 2.266251 1_554
Mg7 O11 2.042704 1_555
Mg7 O1 2.178013 1_555
Mg7 O1 2.178013 1_655
Mg7 O9 2.236519 1_555
Mg7 O4 2.252043 1_555
Mg7 O5 2.252043 1_555
Mg8 O10 2.121682 1_555
Mg8 O8 2.157541 1_565
Mg8 O2 2.175101 1_555
Mg8 O2 2.175101 1_655
Mg8 O6 2.266251 1_555
Mg8 O7 2.266251 1_554
Mg9 O11 2.042704 1_555
Mg9 O3 2.178013 1_655
Mg9 O3 2.178013 1_555
Mg9 O9 2.236519 1_565
Mg9 O6 2.252043 1_555
Mg9 O7 2.252043 1_555
Mg10 O14 2.128561 1_555
Mg10 O4 2.175480 1_555
Mg10 O4 2.175480 1_455
Mg10 O12 2.202495 1_555
Mg10 O0 2.218830 1_555
Mg10 O1 2.306179 1_555
Mg11 O15 2.128561 1_555
Mg11 O5 2.175480 1_455
Mg11 O5 2.175480 1_555
Mg11 O13 2.202495 1_555
Mg11 O0 2.218830 1_556
Mg11 O1 2.306179 1_555
Mg12 O14 2.128561 1_555
Mg12 O6 2.175480 1_555
Mg12 O6 2.175480 1_455
Mg12 O12 2.202495 1_565
Mg12 O2 2.218830 1_555
Mg12 O3 2.306179 1_555
Mg13 O15 2.128561 1_555
Mg13 O7 2.175480 1_555
Mg13 O7 2.175480 1_455
Mg13 O13 2.202495 1_565
Mg13 O2 2.218830 1_556
Mg13 O3 2.306179 1_555
Al0 O12 1.744257 1_555
Al0 O13 1.744257 1_554
Al0 O0 2.130180 1_555
Al0 O2 2.130180 1_545
Al0 O8 2.174929 1_555
Al0 O8 2.174929 1_455
Bi0 O9 2.174929 1_455
Bi0 O9 2.174929 1_555
Bi0 O3 2.352374 1_545
Bi0 O1 2.352374 1_555
