# generated using pymatgen
data_Zn3(GaS3)2
_symmetry_space_group_name_H-M   'P 1'
_cell_length_a   3.78018144
_cell_length_b   3.78018144
_cell_length_c   18.35039900
_cell_angle_alpha   90.00000000
_cell_angle_beta   90.00000000
_cell_angle_gamma   119.99999026
_symmetry_Int_Tables_number   1
_chemical_formula_structural   Zn3(GaS3)2
_chemical_formula_sum   'Zn3 Ga2 S6'
_cell_volume   227.09181311
_cell_formula_units_Z   1
loop_
 _symmetry_equiv_pos_site_id
 _symmetry_equiv_pos_as_xyz
  1  'x, y, z'
loop_
 _atom_site_type_symbol
 _atom_site_label
 _atom_site_symmetry_multiplicity
 _atom_site_fract_x
 _atom_site_fract_y
 _atom_site_fract_z
 _atom_site_occupancy
  Zn  Zn0  1  0.33333300  0.66666700  0.77579200  1
  Zn  Zn1  1  0.00000000  0.00000000  0.37749200  1
  Zn  Zn2  1  0.33333300  0.66666700  0.20308900  1
  Ga  Ga0  1  0.00000000  0.00000000  0.95157000  1
  Ga  Ga1  1  0.66666700  0.33333300  0.57893100  1
  S  S0  1  0.33333300  0.66666700  0.99799900  1
  S  S1  1  0.00000000  0.00000000  0.82471300  1
  S  S2  1  0.33333300  0.66666700  0.65277800  1
  S  S3  1  0.00000000  0.00000000  0.51326500  1
  S  S4  1  0.33333300  0.66666700  0.33833100  1
  S  S5  1  0.00000000  0.00000000  0.16164300  1
loop_
_geom_bond_atom_site_label_1
_geom_bond_atom_site_label_2
_geom_bond_distance
_geom_bond_site_symmetry_2
Ga0 S1 2.327877 1_555
Ga0 S0 2.342890 1_545
Ga0 S0 2.342894 1_445
Ga0 S0 2.342894 1_555
Ga1 S3 2.493043 1_655
Ga1 S3 2.493047 1_665
Ga1 S3 2.493047 1_555
Ga1 S2 2.568969 1_545
Ga1 S2 2.568969 1_655
Ga1 S2 2.568975 1_555
S1 Zn0 2.359904 1_545
S1 Zn0 2.359908 1_555
S1 Zn0 2.359908 1_445
S2 Zn0 2.257356 1_555
S3 Zn1 2.491489 1_555
S4 Zn1 2.297751 1_565
S4 Zn1 2.297755 1_555
S4 Zn1 2.297755 1_665
S4 Zn2 2.481745 1_555
S5 Zn2 2.311208 1_545
S5 Zn2 2.311212 1_445
S5 Zn2 2.311212 1_555
