# generated using pymatgen
data_Mg30NbVO32
_symmetry_space_group_name_H-M   'P 1'
_cell_length_a   8.56766000
_cell_length_b   8.56766000
_cell_length_c   8.56537900
_cell_angle_alpha   90.00000000
_cell_angle_beta   90.00000000
_cell_angle_gamma   90.00000000
_symmetry_Int_Tables_number   1
_chemical_formula_structural   Mg30NbVO32
_chemical_formula_sum   'Mg30 Nb1 V1 O32'
_cell_volume   628.73991422
_cell_formula_units_Z   1
loop_
 _symmetry_equiv_pos_site_id
 _symmetry_equiv_pos_as_xyz
  1  'x, y, z'
loop_
 _atom_site_type_symbol
 _atom_site_label
 _atom_site_symmetry_multiplicity
 _atom_site_fract_x
 _atom_site_fract_y
 _atom_site_fract_z
 _atom_site_occupancy
  Mg  Mg0  1  0.50000000  0.00000000  0.00000000  1
  Mg  Mg1  1  0.00000000  0.50000000  0.00000000  1
  Mg  Mg2  1  0.00000000  0.00000000  0.50000000  1
  Mg  Mg3  1  0.50000000  0.00000000  0.50000000  1
  Mg  Mg4  1  0.00000000  0.50000000  0.50000000  1
  Mg  Mg5  1  0.50000000  0.50000000  0.50000000  1
  Mg  Mg6  1  0.24873800  0.24873800  0.00000000  1
  Mg  Mg7  1  0.75126200  0.24873800  0.00000000  1
  Mg  Mg8  1  0.24873800  0.75126200  0.00000000  1
  Mg  Mg9  1  0.75126200  0.75126200  0.00000000  1
  Mg  Mg10  1  0.24983600  0.24983600  0.50000000  1
  Mg  Mg11  1  0.75016400  0.24983600  0.50000000  1
  Mg  Mg12  1  0.24983600  0.75016400  0.50000000  1
  Mg  Mg13  1  0.75016400  0.75016400  0.50000000  1
  Mg  Mg14  1  0.25046100  0.00000000  0.25058100  1
  Mg  Mg15  1  0.74953900  0.00000000  0.25058100  1
  Mg  Mg16  1  0.24812900  0.50000000  0.25170600  1
  Mg  Mg17  1  0.75187100  0.50000000  0.25170600  1
  Mg  Mg18  1  0.25046100  0.00000000  0.74941900  1
  Mg  Mg19  1  0.74953900  0.00000000  0.74941900  1
  Mg  Mg20  1  0.24812900  0.50000000  0.74829400  1
  Mg  Mg21  1  0.75187100  0.50000000  0.74829400  1
  Mg  Mg22  1  0.00000000  0.25046100  0.25058100  1
  Mg  Mg23  1  0.50000000  0.24812900  0.25170600  1
  Mg  Mg24  1  0.00000000  0.74953900  0.25058100  1
  Mg  Mg25  1  0.50000000  0.75187100  0.25170600  1
  Mg  Mg26  1  0.00000000  0.25046100  0.74941900  1
  Mg  Mg27  1  0.50000000  0.24812900  0.74829400  1
  Mg  Mg28  1  0.00000000  0.74953900  0.74941900  1
  Mg  Mg29  1  0.50000000  0.75187100  0.74829400  1
  Nb  Nb0  1  0.50000000  0.50000000  0.00000000  1
  V  V0  1  0.00000000  0.00000000  0.00000000  1
  O  O0  1  0.00000000  0.00000000  0.25499500  1
  O  O1  1  0.50000000  0.00000000  0.25188900  1
  O  O2  1  0.00000000  0.50000000  0.25188900  1
  O  O3  1  0.50000000  0.50000000  0.26235900  1
  O  O4  1  0.00000000  0.00000000  0.74500500  1
  O  O5  1  0.50000000  0.00000000  0.74811100  1
  O  O6  1  0.00000000  0.50000000  0.74811100  1
  O  O7  1  0.50000000  0.50000000  0.73764100  1
  O  O8  1  0.25000200  0.25000200  0.24955000  1
  O  O9  1  0.74999800  0.25000200  0.24955000  1
  O  O10  1  0.25000200  0.74999800  0.24955000  1
  O  O11  1  0.74999800  0.74999800  0.24955000  1
  O  O12  1  0.25000200  0.25000200  0.75045000  1
  O  O13  1  0.74999800  0.25000200  0.75045000  1
  O  O14  1  0.25000200  0.74999800  0.75045000  1
  O  O15  1  0.74999800  0.74999800  0.75045000  1
  O  O16  1  0.25362800  0.00000000  0.00000000  1
  O  O17  1  0.74637200  0.00000000  0.00000000  1
  O  O18  1  0.23802300  0.50000000  0.00000000  1
  O  O19  1  0.76197700  0.50000000  0.00000000  1
  O  O20  1  0.25003000  0.00000000  0.50000000  1
  O  O21  1  0.74997000  0.00000000  0.50000000  1
  O  O22  1  0.24861000  0.50000000  0.50000000  1
  O  O23  1  0.75139000  0.50000000  0.50000000  1
  O  O24  1  0.00000000  0.25362800  0.00000000  1
  O  O25  1  0.50000000  0.23802300  0.00000000  1
  O  O26  1  0.00000000  0.74637200  0.00000000  1
  O  O27  1  0.50000000  0.76197700  0.00000000  1
  O  O28  1  0.00000000  0.25003000  0.50000000  1
  O  O29  1  0.50000000  0.24861000  0.50000000  1
  O  O30  1  0.00000000  0.74997000  0.50000000  1
  O  O31  1  0.50000000  0.75139000  0.50000000  1
loop_
_geom_bond_atom_site_label_1
_geom_bond_atom_site_label_2
_geom_bond_distance
_geom_bond_site_symmetry_2
Mg0 O25 2.039300 1_555
Mg0 O27 2.039300 1_545
Mg0 O17 2.110832 1_555
Mg0 O16 2.110832 1_555
Mg0 O1 2.157525 1_555
Mg0 O5 2.157525 1_554
Mg1 O18 2.039300 1_555
Mg1 O19 2.039300 1_455
Mg1 O26 2.110832 1_555
Mg1 O24 2.110832 1_555
Mg1 O2 2.157525 1_555
Mg1 O6 2.157525 1_554
Mg2 O4 2.098561 1_555
Mg2 O0 2.098561 1_555
Mg2 O21 2.142172 1_455
Mg2 O30 2.142172 1_545
Mg2 O20 2.142172 1_555
Mg2 O28 2.142172 1_555
Mg3 O5 2.125165 1_555
Mg3 O1 2.125165 1_555
Mg3 O31 2.130006 1_545
Mg3 O29 2.130006 1_555
Mg3 O20 2.141658 1_555
Mg3 O21 2.141658 1_555
Mg4 O6 2.125165 1_555
Mg4 O2 2.125165 1_555
Mg4 O23 2.130006 1_455
Mg4 O22 2.130006 1_555
Mg4 O28 2.141658 1_555
Mg4 O30 2.141658 1_555
Mg5 O3 2.035485 1_555
Mg5 O7 2.035485 1_555
Mg5 O22 2.153824 1_555
Mg5 O29 2.153824 1_555
Mg5 O31 2.153824 1_555
Mg5 O23 2.153824 1_555
Mg6 O24 2.131514 1_555
Mg6 O16 2.131514 1_555
Mg6 O12 2.137545 1_554
Mg6 O8 2.137545 1_555
Mg6 O25 2.154684 1_555
Mg6 O18 2.154684 1_555
Mg7 O24 2.131514 1_655
Mg7 O17 2.131514 1_555
Mg7 O13 2.137545 1_554
Mg7 O9 2.137545 1_555
Mg7 O19 2.154684 1_555
Mg7 O25 2.154684 1_555
Mg8 O16 2.131514 1_565
Mg8 O26 2.131514 1_555
Mg8 O14 2.137545 1_554
Mg8 O10 2.137545 1_555
Mg8 O27 2.154684 1_555
Mg8 O18 2.154684 1_555
Mg9 O17 2.131514 1_565
Mg9 O26 2.131514 1_655
Mg9 O15 2.137545 1_554
Mg9 O11 2.137545 1_555
Mg9 O27 2.154684 1_555
Mg9 O19 2.154684 1_555
Mg10 O20 2.140511 1_555
Mg10 O28 2.140511 1_555
Mg10 O29 2.143346 1_555
Mg10 O22 2.143346 1_555
Mg10 O8 2.145200 1_555
Mg10 O12 2.145200 1_555
Mg11 O21 2.140511 1_555
Mg11 O28 2.140511 1_655
Mg11 O29 2.143346 1_555
Mg11 O23 2.143346 1_555
Mg11 O9 2.145200 1_555
Mg11 O13 2.145200 1_555
Mg12 O30 2.140511 1_555
Mg12 O20 2.140511 1_565
Mg12 O22 2.143346 1_555
Mg12 O31 2.143346 1_555
Mg12 O10 2.145200 1_555
Mg12 O14 2.145200 1_555
Mg13 O21 2.140511 1_565
Mg13 O30 2.140511 1_655
Mg13 O23 2.143346 1_555
Mg13 O31 2.143346 1_555
Mg13 O11 2.145200 1_555
Mg13 O15 2.145200 1_555
Mg14 O20 2.136371 1_555
Mg14 O1 2.137995 1_555
Mg14 O8 2.141954 1_555
Mg14 O10 2.141954 1_545
Mg14 O0 2.146198 1_555
Mg14 O16 2.146493 1_555
Mg15 O21 2.136371 1_555
Mg15 O1 2.137995 1_555
Mg15 O9 2.141954 1_555
Mg15 O11 2.141954 1_545
Mg15 O0 2.146198 1_655
Mg15 O17 2.146493 1_555
Mg16 O2 2.125885 1_555
Mg16 O22 2.126736 1_555
Mg16 O10 2.142038 1_555
Mg16 O8 2.142038 1_555
Mg16 O18 2.157695 1_555
Mg16 O3 2.159873 1_555
Mg17 O2 2.125885 1_655
Mg17 O23 2.126736 1_555
Mg17 O11 2.142038 1_555
Mg17 O9 2.142038 1_555
Mg17 O19 2.157695 1_555
Mg17 O3 2.159873 1_555
Mg18 O20 2.136371 1_555
Mg18 O5 2.137995 1_555
Mg18 O12 2.141954 1_555
Mg18 O14 2.141954 1_545
Mg18 O4 2.146198 1_555
Mg18 O16 2.146493 1_556
Mg19 O21 2.136371 1_555
Mg19 O5 2.137995 1_555
Mg19 O13 2.141954 1_555
Mg19 O15 2.141954 1_545
Mg19 O4 2.146198 1_655
Mg19 O17 2.146493 1_556
Mg20 O6 2.125885 1_555
Mg20 O22 2.126736 1_555
Mg20 O14 2.142038 1_555
Mg20 O12 2.142038 1_555
Mg20 O18 2.157695 1_556
Mg20 O7 2.159873 1_555
Mg21 O6 2.125885 1_655
Mg21 O23 2.126736 1_555
Mg21 O15 2.142038 1_555
Mg21 O13 2.142038 1_555
Mg21 O19 2.157695 1_556
Mg21 O7 2.159873 1_555
Mg22 O28 2.136371 1_555
Mg22 O2 2.137995 1_555
Mg22 O8 2.141954 1_555
Mg22 O9 2.141954 1_455
Mg22 O0 2.146198 1_555
Mg22 O24 2.146493 1_555
Mg23 O1 2.125885 1_555
Mg23 O29 2.126736 1_555
Mg23 O9 2.142038 1_555
Mg23 O8 2.142038 1_555
Mg23 O25 2.157695 1_555
Mg23 O3 2.159873 1_555
Mg24 O30 2.136371 1_555
Mg24 O2 2.137995 1_555
Mg24 O10 2.141954 1_555
Mg24 O11 2.141954 1_455
Mg24 O0 2.146198 1_565
Mg24 O26 2.146493 1_555
Mg25 O1 2.125885 1_565
Mg25 O31 2.126736 1_555
Mg25 O11 2.142038 1_555
Mg25 O10 2.142038 1_555
Mg25 O27 2.157695 1_555
Mg25 O3 2.159873 1_555
Mg26 O28 2.136371 1_555
Mg26 O6 2.137995 1_555
Mg26 O12 2.141954 1_555
Mg26 O13 2.141954 1_455
Mg26 O4 2.146198 1_555
Mg26 O24 2.146493 1_556
Mg27 O5 2.125885 1_555
Mg27 O29 2.126736 1_555
Mg27 O13 2.142038 1_555
Mg27 O12 2.142038 1_555
Mg27 O25 2.157695 1_556
Mg27 O7 2.159873 1_555
Mg28 O30 2.136371 1_555
Mg28 O6 2.137995 1_555
Mg28 O14 2.141954 1_555
Mg28 O15 2.141954 1_455
Mg28 O4 2.146198 1_565
Mg28 O26 2.146493 1_556
Mg29 O5 2.125885 1_565
Mg29 O31 2.126736 1_555
Mg29 O15 2.142038 1_555
Mg29 O14 2.142038 1_555
Mg29 O27 2.157695 1_556
Mg29 O7 2.159873 1_555
Nb0 O19 2.244530 1_555
Nb0 O27 2.244530 1_555
Nb0 O25 2.244530 1_555
Nb0 O18 2.244530 1_555
Nb0 O3 2.247204 1_555
Nb0 O7 2.247204 1_554
O0 V0 2.184129 1_555
O4 V0 2.184129 1_556
O16 V0 2.172998 1_555
O17 V0 2.172998 1_655
O24 V0 2.172998 1_555
O26 V0 2.172998 1_565
