# generated using pymatgen
data_Li3Mn2CoO6
_symmetry_space_group_name_H-M   'P 1'
_cell_length_a   5.09100900
_cell_length_b   5.10306719
_cell_length_c   5.10666674
_cell_angle_alpha   79.00720654
_cell_angle_beta   73.41905090
_cell_angle_gamma   63.97566833
_symmetry_Int_Tables_number   1
_chemical_formula_structural   Li3Mn2CoO6
_chemical_formula_sum   'Li3 Mn2 Co1 O6'
_cell_volume   113.93017780
_cell_formula_units_Z   1
loop_
 _symmetry_equiv_pos_site_id
 _symmetry_equiv_pos_as_xyz
  1  'x, y, z'
loop_
 _atom_site_type_symbol
 _atom_site_label
 _atom_site_symmetry_multiplicity
 _atom_site_fract_x
 _atom_site_fract_y
 _atom_site_fract_z
 _atom_site_occupancy
  Li  Li0  1  0.85753900  0.31224300  0.49261000  1
  Li  Li1  1  0.14246100  0.68775700  0.50739000  1
  Li  Li2  1  0.50000000  0.00000000  0.50000000  1
  Mn  Mn0  1  0.33224400  0.33294500  0.99927700  1
  Mn  Mn1  1  0.66775600  0.66705500  0.00072300  1
  Co  Co0  1  0.00000000  0.00000000  0.00000000  1
  O  O0  1  0.23946400  0.01888400  0.23366600  1
  O  O1  1  0.59971100  0.32865100  0.21592700  1
  O  O2  1  0.90012000  0.67958200  0.23722300  1
  O  O3  1  0.40028900  0.67134900  0.78407300  1
  O  O4  1  0.76053600  0.98111600  0.76633400  1
  O  O5  1  0.09988000  0.32041800  0.76277700  1
loop_
_geom_bond_atom_site_label_1
_geom_bond_atom_site_label_2
_geom_bond_distance
_geom_bond_site_symmetry_2
Li0 O5 2.113280 1_655
Li0 O4 2.119094 1_545
Li0 O0 2.122163 1_655
Li0 O2 2.127134 1_555
Li0 O1 2.154820 1_555
Li0 O3 2.512342 1_555
Li1 O2 2.113280 1_455
Li1 O0 2.119094 1_565
Li1 O4 2.122163 1_455
Li1 O5 2.127134 1_555
Li1 O3 2.154820 1_555
Li1 O1 2.512342 1_555
Li2 O4 2.117990 1_545
Li2 O0 2.117990 1_555
Li2 O1 2.138645 1_555
Li2 O3 2.138645 1_545
Li2 O5 2.231074 1_555
Li2 O2 2.231074 1_545
Mn0 O5 1.942504 1_555
Mn0 O0 1.958155 1_556
Mn0 O3 1.973277 1_555
Mn0 O1 1.975618 1_556
Mn0 O4 2.300384 1_545
Mn0 O2 2.307494 1_456
Mn1 O2 1.942504 1_555
Mn1 O4 1.958155 1_554
Mn1 O1 1.973277 1_555
Mn1 O3 1.975618 1_554
Mn1 O0 2.300384 1_565
Mn1 O5 2.307494 1_654
Co0 O0 1.973977 1_555
Co0 O4 1.973977 1_444
Co0 O2 2.005566 1_445
Co0 O5 2.005566 1_554
Co0 O1 2.145977 1_455
Co0 O3 2.145977 1_544
