# generated using pymatgen
data_SmAu6
_symmetry_space_group_name_H-M   'P 1'
_cell_length_a   9.84325018
_cell_length_b   10.48846260
_cell_length_c   10.48846260
_cell_angle_alpha   90.00000000
_cell_angle_beta   90.00000000
_cell_angle_gamma   90.00000000
_symmetry_Int_Tables_number   1
_chemical_formula_structural   SmAu6
_chemical_formula_sum   'Sm8 Au48'
_cell_volume   1082.83476679
_cell_formula_units_Z   8
loop_
 _symmetry_equiv_pos_site_id
 _symmetry_equiv_pos_as_xyz
  1  'x, y, z'
loop_
 _atom_site_type_symbol
 _atom_site_label
 _atom_site_symmetry_multiplicity
 _atom_site_fract_x
 _atom_site_fract_y
 _atom_site_fract_z
 _atom_site_occupancy
  Sm  Sm0  1  0.28875639  0.92490230  0.92490230  1
  Sm  Sm1  1  0.28875639  0.57509770  0.57509770  1
  Sm  Sm2  1  0.78875639  0.92490230  0.57509770  1
  Sm  Sm3  1  0.78875639  0.57509770  0.92490230  1
  Sm  Sm4  1  0.71124361  0.42490230  0.42490230  1
  Sm  Sm5  1  0.21124361  0.07509770  0.42490230  1
  Sm  Sm6  1  0.21124361  0.42490230  0.07509770  1
  Sm  Sm7  1  0.71124361  0.07509770  0.07509770  1
  Au  Au0  1  0.18150980  0.14594464  0.14594464  1
  Au  Au1  1  0.68150980  0.35405536  0.14594464  1
  Au  Au2  1  0.68150980  0.14594464  0.35405536  1
  Au  Au3  1  0.18150980  0.35405536  0.35405536  1
  Au  Au4  1  0.31849020  0.64594464  0.85405536  1
  Au  Au5  1  0.31849020  0.85405536  0.64594464  1
  Au  Au6  1  0.81849020  0.64594464  0.64594464  1
  Au  Au7  1  0.81849020  0.85405536  0.85405536  1
  Au  Au8  1  0.14475546  0.62396018  0.30241596  1
  Au  Au9  1  0.64475546  0.19758404  0.62396018  1
  Au  Au10  1  0.64475546  0.30241596  0.87603982  1
  Au  Au11  1  0.14475546  0.87603982  0.19758404  1
  Au  Au12  1  0.35524454  0.12396018  0.69758404  1
  Au  Au13  1  0.35524454  0.37603982  0.80241596  1
  Au  Au14  1  0.85524454  0.80241596  0.12396018  1
  Au  Au15  1  0.85524454  0.69758404  0.37603982  1
  Au  Au16  1  0.85524454  0.37603982  0.69758404  1
  Au  Au17  1  0.35524454  0.80241596  0.37603982  1
  Au  Au18  1  0.35524454  0.69758404  0.12396018  1
  Au  Au19  1  0.85524454  0.12396018  0.80241596  1
  Au  Au20  1  0.64475546  0.87603982  0.30241596  1
  Au  Au21  1  0.64475546  0.62396018  0.19758404  1
  Au  Au22  1  0.14475546  0.19758404  0.87603982  1
  Au  Au23  1  0.14475546  0.30241596  0.62396018  1
  Au  Au24  1  0.07783501  0.68049708  0.01346813  1
  Au  Au25  1  0.57783501  0.48653187  0.68049708  1
  Au  Au26  1  0.57783501  0.01346813  0.81950292  1
  Au  Au27  1  0.07783501  0.81950292  0.48653187  1
  Au  Au28  1  0.42216499  0.18049708  0.98653187  1
  Au  Au29  1  0.42216499  0.31950292  0.51346813  1
  Au  Au30  1  0.92216499  0.51346813  0.18049708  1
  Au  Au31  1  0.92216499  0.98653187  0.31950292  1
  Au  Au32  1  0.92216499  0.31950292  0.98653187  1
  Au  Au33  1  0.42216499  0.51346813  0.31950292  1
  Au  Au34  1  0.42216499  0.98653187  0.18049708  1
  Au  Au35  1  0.92216499  0.18049708  0.51346813  1
  Au  Au36  1  0.57783501  0.81950292  0.01346813  1
  Au  Au37  1  0.57783501  0.68049708  0.48653187  1
  Au  Au38  1  0.07783501  0.48653187  0.81950292  1
  Au  Au39  1  0.07783501  0.01346813  0.68049708  1
  Au  Au40  1  0.56287814  0.75000000  0.75000000  1
  Au  Au41  1  0.06287814  0.75000000  0.75000000  1
  Au  Au42  1  0.93712186  0.25000000  0.25000000  1
  Au  Au43  1  0.43712186  0.25000000  0.25000000  1
  Au  Au44  1  0.00000000  0.50000000  0.50000000  1
  Au  Au45  1  0.50000000  -0.00000000  0.50000000  1
  Au  Au46  1  0.50000000  0.50000000  -0.00000000  1
  Au  Au47  1  0.00000000  -0.00000000  -0.00000000  1
loop_
_geom_bond_atom_site_label_1
_geom_bond_atom_site_label_2
_geom_bond_distance
_geom_bond_site_symmetry_2
Au0 Au47 2.806849 1_555
Au0 Au42 2.858146 1_455
Au0 Au11 2.904850 1_545
Au0 Au22 2.904850 1_554
Au0 Au34 2.922029 1_545
Au0 Au28 2.922029 1_554
Au0 Au43 2.951737 1_555
Au0 Sm5 3.032877 1_555
Au0 Sm6 3.032877 1_555
Au0 Au3 3.086891 1_555
Au0 Sm0 3.444461 1_544
Au1 Au46 2.806849 1_555
Au1 Au43 2.858146 1_555
Au1 Au10 2.904850 1_554
Au1 Au21 2.904850 1_555
Au1 Au32 2.922029 1_554
Au1 Au30 2.922029 1_555
Au1 Au42 2.951737 1_555
Au1 Sm4 3.032877 1_555
Au1 Sm7 3.032877 1_555
Au1 Au2 3.086891 1_555
Au1 Sm3 3.444461 1_554
Au2 Au45 2.806849 1_555
Au2 Au43 2.858146 1_555
Au2 Au9 2.904850 1_555
Au2 Au20 2.904850 1_545
Au2 Au31 2.922029 1_545
Au2 Au35 2.922029 1_555
Au2 Au42 2.951737 1_555
Au2 Sm4 3.032877 1_555
Au2 Sm7 3.032877 1_555
Au2 Sm2 3.444461 1_545
Au3 Au44 2.806849 1_555
Au3 Au42 2.858146 1_455
Au3 Au8 2.904850 1_555
Au3 Au33 2.922029 1_555
Au3 Au43 2.951737 1_555
Au3 Sm5 3.032877 1_555
Au3 Sm6 3.032877 1_555
Au3 Sm1 3.444461 1_555
Au4 Au46 2.806849 1_556
Au4 Au40 2.858146 1_555
Au4 Au41 2.951737 1_555
Au4 Sm0 3.032877 1_555
Au4 Sm1 3.032877 1_555
Au4 Au5 3.086891 1_555
Au4 Sm6 3.444461 1_556
Au5 Sm0 3.032877 1_555
Au5 Sm1 3.032877 1_555
Au5 Sm5 3.444461 1_565
Au6 Sm3 3.032877 1_555
Au6 Sm2 3.032877 1_555
Au6 Au7 3.086891 1_555
Au6 Sm4 3.444461 1_555
Au7 Sm2 3.032877 1_555
Au7 Sm3 3.032877 1_555
Au7 Sm7 3.444461 1_566
Au8 Sm1 3.232870 1_555
Au8 Sm6 3.236012 1_555
Au9 Sm2 3.232870 1_545
Au9 Sm4 3.236012 1_555
Au10 Au28 2.789041 1_555
Au10 Au46 2.831127 1_556
Au10 Au9 2.863444 1_555
Au10 Au25 2.892990 1_555
Au10 Au19 2.896966 1_555
Au10 Au16 2.896966 1_555
Au10 Au32 2.971765 1_555
Au10 Au13 3.051809 1_555
Au10 Au26 3.157560 1_555
Au10 Sm3 3.232870 1_555
Au10 Sm7 3.236012 1_556
Au11 Au31 2.789041 1_455
Au11 Au47 2.831127 1_565
Au11 Au8 2.863444 1_555
Au11 Au24 2.892990 1_555
Au11 Au17 2.896966 1_555
Au11 Au18 2.896966 1_555
Au11 Au34 2.971765 1_555
Au11 Au14 3.051809 1_455
Au11 Au27 3.157560 1_555
Au11 Sm0 3.232870 1_554
Au11 Sm5 3.236012 1_565
Au12 Au26 2.789041 1_555
Au12 Au45 2.831127 1_555
Au12 Au13 2.863444 1_555
Au12 Au29 2.892990 1_555
Au12 Au23 2.896966 1_555
Au12 Au22 2.896966 1_555
Au12 Au5 2.904850 1_545
Au12 Au39 2.971765 1_555
Au12 Au9 3.051809 1_555
Au12 Au28 3.157560 1_555
Au12 Sm5 3.232870 1_555
Au12 Sm0 3.236012 1_545
Au13 Au25 2.789041 1_555
Au13 Au46 2.831127 1_556
Au13 Au28 2.892990 1_555
Au13 Au22 2.896966 1_555
Au13 Au23 2.896966 1_555
Au13 Au4 2.904850 1_555
Au13 Au38 2.971765 1_555
Au13 Au29 3.157560 1_555
Au13 Sm6 3.232870 1_556
Au13 Sm1 3.236012 1_555
Au14 Au24 2.789041 1_655
Au14 Au47 2.831127 1_665
Au14 Au15 2.863444 1_555
Au14 Au31 2.892990 1_555
Au14 Au20 2.896966 1_555
Au14 Au21 2.896966 1_555
Au14 Au7 2.904850 1_554
Au14 Au36 2.971765 1_555
Au14 Au30 3.157560 1_555
Au14 Sm7 3.232870 1_565
Au14 Sm3 3.236012 1_554
Au15 Au27 2.789041 1_655
Au15 Au44 2.831127 1_655
Au15 Au30 2.892990 1_555
Au15 Au21 2.896966 1_555
Au15 Au20 2.896966 1_555
Au15 Au6 2.904850 1_555
Au15 Au37 2.971765 1_555
Au15 Au8 3.051809 1_655
Au15 Au31 3.157560 1_555
Au15 Sm4 3.232870 1_555
Au15 Sm2 3.236012 1_555
Au16 Au38 2.789041 1_655
Au16 Au44 2.831127 1_655
Au16 Au19 2.863444 1_555
Au16 Au35 2.892990 1_555
Au16 Au9 2.896966 1_555
Au16 Au6 2.904850 1_555
Au16 Au25 2.971765 1_555
Au16 Au23 3.051809 1_655
Au16 Au32 3.157560 1_555
Au16 Sm4 3.232870 1_555
Au16 Sm3 3.236012 1_555
Au17 Au37 2.789041 1_555
Au17 Au45 2.831127 1_565
Au17 Au18 2.863444 1_555
Au17 Au34 2.892990 1_555
Au17 Au8 2.896966 1_555
Au17 Au5 2.904850 1_555
Au17 Au27 2.971765 1_555
Au17 Au20 3.051809 1_555
Au17 Au33 3.157560 1_555
Au17 Sm5 3.232870 1_565
Au17 Sm1 3.236012 1_555
Au18 Au36 2.789041 1_555
Au18 Au46 2.831127 1_555
Au18 Au33 2.892990 1_555
Au18 Au8 2.896966 1_555
Au18 Au4 2.904850 1_554
Au18 Au24 2.971765 1_555
Au18 Au21 3.051809 1_555
Au18 Au34 3.157560 1_555
Au18 Sm6 3.232870 1_555
Au18 Sm0 3.236012 1_554
Au19 Au39 2.789041 1_655
Au19 Au47 2.831127 1_656
Au19 Au32 2.892990 1_555
Au19 Au9 2.896966 1_555
Au19 Au7 2.904850 1_545
Au19 Au26 2.971765 1_555
Au19 Au22 3.051809 1_655
Au19 Au35 3.157560 1_555
Au19 Sm7 3.232870 1_556
Au19 Sm2 3.236012 1_545
Au20 Au34 2.789041 1_555
Au20 Au45 2.831127 1_565
Au20 Au21 2.863444 1_555
Au20 Au37 2.892990 1_555
Au20 Au31 2.971765 1_555
Au20 Au36 3.157560 1_555
Au20 Sm2 3.232870 1_555
Au20 Sm7 3.236012 1_565
Au21 Au33 2.789041 1_555
Au21 Au46 2.831127 1_555
Au21 Au36 2.892990 1_555
Au21 Au30 2.971765 1_555
Au21 Au37 3.157560 1_555
Au21 Sm3 3.232870 1_554
Au21 Sm4 3.236012 1_555
Au22 Au32 2.789041 1_455
Au22 Au47 2.831127 1_556
Au22 Au23 2.863444 1_555
Au22 Au39 2.892990 1_555
Au22 Au28 2.971765 1_555
Au22 Au38 3.157560 1_555
Au22 Sm0 3.232870 1_545
Au22 Sm6 3.236012 1_556
Au23 Au35 2.789041 1_455
Au23 Au44 2.831127 1_555
Au23 Au38 2.892990 1_555
Au23 Au3 2.904850 1_555
Au23 Au29 2.971765 1_555
Au23 Au39 3.157560 1_555
Au23 Sm1 3.232870 1_555
Au23 Sm5 3.236012 1_555
Au24 Au41 2.861701 1_554
Au24 Au38 2.877072 1_554
Au24 Au30 2.913089 1_455
Au24 Au4 2.922029 1_554
Au24 Sm6 3.054329 1_555
Au24 Au8 3.157560 1_555
Au24 Sm3 3.190876 1_454
Au24 Sm0 3.427025 1_554
Au25 Au40 2.861701 1_555
Au25 Au37 2.877072 1_555
Au25 Au29 2.913089 1_555
Au25 Au6 2.922029 1_555
Au25 Sm4 3.054329 1_555
Au25 Au9 3.157560 1_555
Au25 Sm1 3.190876 1_555
Au25 Sm3 3.427025 1_555
Au26 Au40 2.861701 1_545
Au26 Au36 2.877072 1_546
Au26 Au9 2.892990 1_555
Au26 Au28 2.913089 1_555
Au26 Au7 2.922029 1_545
Au26 Sm7 3.054329 1_556
Au26 Sm0 3.190876 1_545
Au26 Sm2 3.427025 1_545
Au27 Au41 2.861701 1_555
Au27 Au39 2.877072 1_565
Au27 Au8 2.892990 1_555
Au27 Au31 2.913089 1_455
Au27 Au5 2.922029 1_555
Au27 Sm5 3.054329 1_565
Au27 Sm2 3.190876 1_455
Au27 Sm1 3.427025 1_555
Au28 Au43 2.861701 1_556
Au28 Au34 2.877072 1_546
Au28 Sm0 3.054329 1_545
Au28 Sm7 3.190876 1_556
Au28 Sm6 3.427025 1_556
Au29 Au9 2.789041 1_555
Au29 Au43 2.861701 1_555
Au29 Au33 2.877072 1_555
Au29 Au3 2.922029 1_555
Au29 Sm1 3.054329 1_555
Au29 Sm4 3.190876 1_555
Au29 Sm5 3.427025 1_555
Au30 Au8 2.789041 1_655
Au30 Au42 2.861701 1_555
Au30 Au32 2.877072 1_554
Au30 Sm3 3.054329 1_554
Au30 Sm6 3.190876 1_655
Au30 Sm4 3.427025 1_555
Au31 Au42 2.861701 1_565
Au31 Au35 2.877072 1_565
Au31 Sm2 3.054329 1_555
Au31 Sm5 3.190876 1_665
Au31 Sm7 3.427025 1_565
Au32 Au42 2.861701 1_556
Au32 Au38 2.913089 1_655
Au32 Sm3 3.054329 1_555
Au32 Sm6 3.190876 1_656
Au32 Sm7 3.427025 1_556
Au33 Au43 2.861701 1_555
Au33 Au37 2.913089 1_555
Au33 Au8 2.971765 1_555
Au33 Sm1 3.054329 1_555
Au33 Sm4 3.190876 1_555
Au33 Sm6 3.427025 1_555
Au34 Au43 2.861701 1_565
Au34 Au36 2.913089 1_555
Au34 Sm0 3.054329 1_554
Au34 Sm7 3.190876 1_565
Au34 Sm5 3.427025 1_565
Au35 Au42 2.861701 1_555
Au35 Au39 2.913089 1_655
Au35 Au9 2.971765 1_555
Au35 Sm2 3.054329 1_545
Au35 Sm5 3.190876 1_655
Au35 Sm4 3.427025 1_555
Au36 Au40 2.861701 1_554
Au36 Au7 2.922029 1_554
Au36 Sm7 3.054329 1_565
Au36 Sm0 3.190876 1_554
Au36 Sm3 3.427025 1_554
Au37 Au40 2.861701 1_555
Au37 Au6 2.922029 1_555
Au37 Sm4 3.054329 1_555
Au37 Sm1 3.190876 1_555
Au37 Sm2 3.427025 1_555
Au38 Au41 2.861701 1_555
Au38 Au4 2.922029 1_555
Au38 Sm6 3.054329 1_556
Au38 Sm3 3.190876 1_455
Au38 Sm1 3.427025 1_555
Au39 Au41 2.861701 1_545
Au39 Au5 2.922029 1_545
Au39 Sm5 3.054329 1_555
Au39 Sm2 3.190876 1_445
Au39 Sm0 3.427025 1_545
Au40 Au5 2.858146 1_555
Au40 Au7 2.951737 1_555
Au40 Au6 2.951737 1_555
Au40 Sm2 3.416703 1_555
Au40 Sm3 3.416703 1_555
Au41 Au7 2.858146 1_455
Au41 Au6 2.858146 1_455
Au41 Au5 2.951737 1_555
Au41 Sm0 3.416703 1_555
Au41 Sm1 3.416703 1_555
Au42 Sm4 3.416703 1_555
Au42 Sm7 3.416703 1_555
Au43 Sm6 3.416703 1_555
Au43 Sm5 3.416703 1_555
Au44 Au6 2.806849 1_455
Au44 Au8 2.831127 1_555
Au44 Sm1 3.052784 1_555
Au44 Sm4 3.052784 1_455
Au45 Au5 2.806849 1_545
Au45 Au9 2.831127 1_555
Au45 Sm2 3.052784 1_545
Au45 Sm5 3.052784 1_555
Au46 Sm3 3.052784 1_554
Au46 Sm6 3.052784 1_555
Au47 Au7 2.806849 1_444
Au47 Sm7 3.052784 1_455
Au47 Sm0 3.052784 1_544
