# generated using pymatgen
data_Ce4Sm
_symmetry_space_group_name_H-M   'P 1'
_cell_length_a   28.06113826
_cell_length_b   28.06113826
_cell_length_c   28.06113891
_cell_angle_alpha   13.88097219
_cell_angle_beta   13.88097219
_cell_angle_gamma   13.88097042
_symmetry_Int_Tables_number   1
_chemical_formula_structural   Ce4Sm
_chemical_formula_sum   'Ce32 Sm8'
_cell_volume   1106.74184402
_cell_formula_units_Z   8
loop_
 _symmetry_equiv_pos_site_id
 _symmetry_equiv_pos_as_xyz
  1  'x, y, z'
loop_
 _atom_site_type_symbol
 _atom_site_label
 _atom_site_symmetry_multiplicity
 _atom_site_fract_x
 _atom_site_fract_y
 _atom_site_fract_z
 _atom_site_occupancy
  Ce  Ce0_0  1  0.29845200  0.29845200  0.29845200  1
  Ce  Ce0_1  1  0.29845200  0.29845200  0.79845200  1
  Ce  Ce0_2  1  0.29845200  0.79845200  0.29845200  1
  Ce  Ce0_3  1  0.29845200  0.79845200  0.79845200  1
  Ce  Ce0_4  1  0.79845200  0.29845200  0.29845200  1
  Ce  Ce0_5  1  0.79845200  0.29845200  0.79845200  1
  Ce  Ce0_6  1  0.79845200  0.79845200  0.29845200  1
  Ce  Ce0_7  1  0.79845200  0.79845200  0.79845200  1
  Ce  Ce1_0  1  0.09966200  0.09966200  0.09966200  1
  Ce  Ce1_1  1  0.09966200  0.09966200  0.59966200  1
  Ce  Ce1_2  1  0.09966200  0.59966200  0.09966200  1
  Ce  Ce1_3  1  0.09966200  0.59966200  0.59966200  1
  Ce  Ce1_4  1  0.59966200  0.09966200  0.09966200  1
  Ce  Ce1_5  1  0.59966200  0.09966200  0.59966200  1
  Ce  Ce1_6  1  0.59966200  0.59966200  0.09966200  1
  Ce  Ce1_7  1  0.59966200  0.59966200  0.59966200  1
  Ce  Ce2_0  1  0.40033800  0.40033800  0.40033800  1
  Ce  Ce2_1  1  0.40033800  0.40033800  0.90033800  1
  Ce  Ce2_2  1  0.40033800  0.90033800  0.40033800  1
  Ce  Ce2_3  1  0.40033800  0.90033800  0.90033800  1
  Ce  Ce2_4  1  0.90033800  0.40033800  0.40033800  1
  Ce  Ce2_5  1  0.90033800  0.40033800  0.90033800  1
  Ce  Ce2_6  1  0.90033800  0.90033800  0.40033800  1
  Ce  Ce2_7  1  0.90033800  0.90033800  0.90033800  1
  Ce  Ce3_0  1  0.20154800  0.20154800  0.20154800  1
  Ce  Ce3_1  1  0.20154800  0.20154800  0.70154800  1
  Ce  Ce3_2  1  0.20154800  0.70154800  0.20154800  1
  Ce  Ce3_3  1  0.20154800  0.70154800  0.70154800  1
  Ce  Ce3_4  1  0.70154800  0.20154800  0.20154800  1
  Ce  Ce3_5  1  0.70154800  0.20154800  0.70154800  1
  Ce  Ce3_6  1  0.70154800  0.70154800  0.20154800  1
  Ce  Ce3_7  1  0.70154800  0.70154800  0.70154800  1
  Sm  Sm0_0  1  0.00000000  0.00000000  0.00000000  1
  Sm  Sm0_1  1  0.00000000  0.00000000  0.50000000  1
  Sm  Sm0_2  1  0.00000000  0.50000000  0.00000000  1
  Sm  Sm0_3  1  0.00000000  0.50000000  0.50000000  1
  Sm  Sm0_4  1  0.50000000  0.00000000  0.00000000  1
  Sm  Sm0_5  1  0.50000000  0.00000000  0.50000000  1
  Sm  Sm0_6  1  0.50000000  0.50000000  0.00000000  1
  Sm  Sm0_7  1  0.50000000  0.50000000  0.50000000  1
loop_
_geom_bond_atom_site_label_1
_geom_bond_atom_site_label_2
_geom_bond_distance
_geom_bond_site_symmetry_2
Ce0_0 Ce1_1 3.317114 1_555
Ce0_0 Ce1_2 3.317114 1_555
Ce0_0 Ce1_4 3.317114 1_555
Ce0_0 Ce0_6 3.390860 1_455
Ce0_0 Ce0_6 3.390860 1_545
Ce0_0 Ce0_5 3.390860 1_455
Ce0_0 Ce0_3 3.390860 1_545
Ce0_0 Ce0_5 3.390860 1_554
Ce0_0 Ce0_3 3.390860 1_554
Ce0_0 Sm0_6 3.505337 1_555
Ce0_0 Sm0_3 3.505337 1_555
Ce0_0 Sm0_5 3.505337 1_555
Ce0_1 Ce1_0 3.317114 1_556
Ce0_1 Ce1_3 3.317114 1_555
Ce0_1 Ce1_5 3.317114 1_555
Ce0_1 Ce0_7 3.390860 1_455
Ce0_1 Ce0_7 3.390860 1_545
Ce0_1 Ce0_2 3.390860 1_546
Ce0_1 Ce0_4 3.390860 1_456
Ce0_1 Ce0_2 3.390860 1_555
Ce0_1 Ce0_4 3.390860 1_555
Ce0_1 Sm0_7 3.505337 1_555
Ce0_1 Sm0_4 3.505337 1_556
Ce0_1 Sm0_2 3.505337 1_556
Ce0_2 Ce1_3 3.317114 1_555
Ce0_2 Ce1_6 3.317114 1_555
Ce0_2 Ce1_0 3.317114 1_565
Ce0_2 Ce0_4 3.390860 1_555
Ce0_2 Ce0_4 3.390860 1_465
Ce0_2 Ce0_7 3.390860 1_455
Ce0_2 Ce0_7 3.390860 1_554
Ce0_2 Sm0_4 3.505337 1_565
Ce0_2 Sm0_7 3.505337 1_555
Ce0_2 Sm0_1 3.505337 1_565
Ce0_3 Ce1_2 3.317114 1_556
Ce0_3 Ce1_7 3.317114 1_555
Ce0_3 Ce1_1 3.317114 1_565
Ce0_3 Ce0_5 3.390860 1_465
Ce0_3 Ce0_5 3.390860 1_555
Ce0_3 Ce0_6 3.390860 1_555
Ce0_3 Ce0_6 3.390860 1_456
Ce0_3 Sm0_5 3.505337 1_565
Ce0_3 Sm0_0 3.505337 1_566
Ce0_3 Sm0_6 3.505337 1_556
Ce0_4 Ce1_5 3.317114 1_555
Ce0_4 Ce1_6 3.317114 1_555
Ce0_4 Ce1_0 3.317114 1_655
Ce0_4 Ce0_7 3.390860 1_554
Ce0_4 Ce0_7 3.390860 1_545
Ce0_4 Sm0_2 3.505337 1_655
Ce0_4 Sm0_7 3.505337 1_555
Ce0_4 Sm0_1 3.505337 1_655
Ce0_5 Ce1_4 3.317114 1_556
Ce0_5 Ce1_7 3.317114 1_555
Ce0_5 Ce1_1 3.317114 1_655
Ce0_5 Ce0_6 3.390860 1_555
Ce0_5 Ce0_6 3.390860 1_546
Ce0_5 Sm0_3 3.505337 1_655
Ce0_5 Sm0_0 3.505337 1_656
Ce0_5 Sm0_6 3.505337 1_556
Ce0_6 Ce1_7 3.317114 1_555
Ce0_6 Ce1_4 3.317114 1_565
Ce0_6 Ce1_2 3.317114 1_655
Ce0_6 Sm0_0 3.505337 1_665
Ce0_6 Sm0_5 3.505337 1_565
Ce0_6 Sm0_3 3.505337 1_655
Ce0_7 Ce1_6 3.317114 1_556
Ce0_7 Ce1_3 3.317114 1_655
Ce0_7 Ce1_5 3.317114 1_565
Ce0_7 Sm0_1 3.505337 1_665
Ce0_7 Sm0_2 3.505337 1_656
Ce0_7 Sm0_4 3.505337 1_566
Ce1_0 Ce2_6 3.353152 1_445
Ce1_0 Ce2_3 3.353152 1_544
Ce1_0 Ce2_5 3.353152 1_454
Ce1_0 Ce1_6 3.390860 1_455
Ce1_0 Ce1_6 3.390860 1_545
Ce1_0 Ce1_5 3.390860 1_554
Ce1_0 Ce1_3 3.390860 1_554
Ce1_0 Ce1_3 3.390860 1_545
Ce1_0 Ce1_5 3.390860 1_455
Ce1_1 Ce2_7 3.353152 1_445
Ce1_1 Ce2_2 3.353152 1_545
Ce1_1 Ce2_4 3.353152 1_455
Ce1_1 Ce1_7 3.390860 1_545
Ce1_1 Ce1_7 3.390860 1_455
Ce1_1 Ce1_2 3.390860 1_546
Ce1_1 Ce1_4 3.390860 1_456
Ce1_1 Ce1_4 3.390860 1_555
Ce1_1 Ce1_2 3.390860 1_555
Ce1_2 Ce2_4 3.353152 1_455
Ce1_2 Ce2_7 3.353152 1_454
Ce1_2 Ce2_1 3.353152 1_554
Ce1_2 Ce1_4 3.390860 1_465
Ce1_2 Ce1_4 3.390860 1_555
Ce1_2 Ce1_7 3.390860 1_554
Ce1_2 Ce1_7 3.390860 1_455
Ce1_3 Ce2_5 3.353152 1_455
Ce1_3 Ce2_0 3.353152 1_555
Ce1_3 Ce2_6 3.353152 1_455
Ce1_3 Ce1_5 3.390860 1_555
Ce1_3 Ce1_5 3.390860 1_465
Ce1_3 Ce1_6 3.390860 1_456
Ce1_3 Ce1_6 3.390860 1_555
Ce1_4 Ce2_2 3.353152 1_545
Ce1_4 Ce2_7 3.353152 1_544
Ce1_4 Ce2_1 3.353152 1_554
Ce1_4 Ce1_7 3.390860 1_554
Ce1_4 Ce1_7 3.390860 1_545
Ce1_5 Ce2_3 3.353152 1_545
Ce1_5 Ce2_0 3.353152 1_555
Ce1_5 Ce2_6 3.353152 1_545
Ce1_5 Ce1_6 3.390860 1_546
Ce1_5 Ce1_6 3.390860 1_555
Ce1_6 Ce2_0 3.353152 1_555
Ce1_6 Ce2_3 3.353152 1_554
Ce1_6 Ce2_5 3.353152 1_554
Ce1_7 Ce2_1 3.353152 1_555
Ce1_7 Ce2_4 3.353152 1_555
Ce1_7 Ce2_2 3.353152 1_555
Ce2_0 Ce3_1 3.317114 1_555
Ce2_0 Ce3_2 3.317114 1_555
Ce2_0 Ce3_4 3.317114 1_555
Ce2_0 Ce2_6 3.390860 1_455
Ce2_0 Ce2_6 3.390860 1_545
Ce2_0 Ce2_3 3.390860 1_545
Ce2_0 Ce2_5 3.390860 1_554
Ce2_0 Ce2_3 3.390860 1_554
Ce2_0 Ce2_5 3.390860 1_455
Ce2_1 Ce3_0 3.317114 1_556
Ce2_1 Ce3_3 3.317114 1_555
Ce2_1 Ce3_5 3.317114 1_555
Ce2_1 Ce2_7 3.390860 1_455
Ce2_1 Ce2_7 3.390860 1_545
Ce2_1 Ce2_4 3.390860 1_456
Ce2_1 Ce2_2 3.390860 1_546
Ce2_1 Ce2_4 3.390860 1_555
Ce2_1 Ce2_2 3.390860 1_555
Ce2_2 Ce3_3 3.317114 1_555
Ce2_2 Ce3_0 3.317114 1_565
Ce2_2 Ce3_6 3.317114 1_555
Ce2_2 Ce2_4 3.390860 1_465
Ce2_2 Ce2_4 3.390860 1_555
Ce2_2 Ce2_7 3.390860 1_455
Ce2_2 Ce2_7 3.390860 1_554
Ce2_3 Ce3_2 3.317114 1_556
Ce2_3 Ce3_1 3.317114 1_565
Ce2_3 Ce3_7 3.317114 1_555
Ce2_3 Ce2_5 3.390860 1_465
Ce2_3 Ce2_5 3.390860 1_555
Ce2_3 Ce2_6 3.390860 1_555
Ce2_3 Ce2_6 3.390860 1_456
Ce2_4 Ce3_5 3.317114 1_555
Ce2_4 Ce3_6 3.317114 1_555
Ce2_4 Ce3_0 3.317114 1_655
Ce2_4 Ce2_7 3.390860 1_545
Ce2_4 Ce2_7 3.390860 1_554
Ce2_5 Ce3_4 3.317114 1_556
Ce2_5 Ce3_7 3.317114 1_555
Ce2_5 Ce3_1 3.317114 1_655
Ce2_5 Ce2_6 3.390860 1_555
Ce2_5 Ce2_6 3.390860 1_546
Ce2_6 Ce3_7 3.317114 1_555
Ce2_6 Ce3_2 3.317114 1_655
Ce2_6 Ce3_4 3.317114 1_565
Ce2_7 Ce3_6 3.317114 1_556
Ce2_7 Ce3_5 3.317114 1_565
Ce2_7 Ce3_3 3.317114 1_655
Ce3_0 Ce3_6 3.390860 1_545
Ce3_0 Ce3_6 3.390860 1_455
Ce3_0 Ce3_3 3.390860 1_554
Ce3_0 Ce3_3 3.390860 1_545
Ce3_0 Ce3_5 3.390860 1_554
Ce3_0 Ce3_5 3.390860 1_455
Ce3_0 Sm0_1 3.505337 1_555
Ce3_0 Sm0_4 3.505337 1_555
Ce3_0 Sm0_2 3.505337 1_555
Ce3_1 Ce3_7 3.390860 1_455
Ce3_1 Ce3_7 3.390860 1_545
Ce3_1 Ce3_2 3.390860 1_555
Ce3_1 Ce3_4 3.390860 1_555
Ce3_1 Ce3_4 3.390860 1_456
Ce3_1 Ce3_2 3.390860 1_546
Ce3_1 Sm0_0 3.505337 1_556
Ce3_1 Sm0_3 3.505337 1_555
Ce3_1 Sm0_5 3.505337 1_555
Ce3_2 Ce3_4 3.390860 1_555
Ce3_2 Ce3_4 3.390860 1_465
Ce3_2 Ce3_7 3.390860 1_554
Ce3_2 Ce3_7 3.390860 1_455
Ce3_2 Sm0_3 3.505337 1_555
Ce3_2 Sm0_0 3.505337 1_565
Ce3_2 Sm0_6 3.505337 1_555
Ce3_3 Ce3_5 3.390860 1_465
Ce3_3 Ce3_5 3.390860 1_555
Ce3_3 Ce3_6 3.390860 1_555
Ce3_3 Ce3_6 3.390860 1_456
Ce3_3 Sm0_2 3.505337 1_556
Ce3_3 Sm0_7 3.505337 1_555
Ce3_3 Sm0_1 3.505337 1_565
Ce3_4 Ce3_7 3.390860 1_554
Ce3_4 Ce3_7 3.390860 1_545
Ce3_4 Sm0_5 3.505337 1_555
Ce3_4 Sm0_0 3.505337 1_655
Ce3_4 Sm0_6 3.505337 1_555
Ce3_5 Ce3_6 3.390860 1_555
Ce3_5 Ce3_6 3.390860 1_546
Ce3_5 Sm0_4 3.505337 1_556
Ce3_5 Sm0_7 3.505337 1_555
Ce3_5 Sm0_1 3.505337 1_655
Ce3_6 Sm0_7 3.505337 1_555
Ce3_6 Sm0_4 3.505337 1_565
Ce3_6 Sm0_2 3.505337 1_655
Ce3_7 Sm0_6 3.505337 1_556
Ce3_7 Sm0_5 3.505337 1_565
Ce3_7 Sm0_3 3.505337 1_655
Sm0_0 Sm0_6 3.390860 1_455
Sm0_0 Sm0_6 3.390860 1_545
Sm0_0 Sm0_5 3.390860 1_554
Sm0_0 Sm0_3 3.390860 1_545
Sm0_0 Sm0_5 3.390860 1_455
Sm0_0 Sm0_3 3.390860 1_554
Sm0_1 Sm0_7 3.390860 1_455
Sm0_1 Sm0_7 3.390860 1_545
Sm0_1 Sm0_2 3.390860 1_546
Sm0_1 Sm0_2 3.390860 1_555
Sm0_1 Sm0_4 3.390860 1_456
Sm0_1 Sm0_4 3.390860 1_555
Sm0_2 Sm0_4 3.390860 1_555
Sm0_2 Sm0_4 3.390860 1_465
Sm0_2 Sm0_7 3.390860 1_455
Sm0_2 Sm0_7 3.390860 1_554
Sm0_3 Sm0_5 3.390860 1_465
Sm0_3 Sm0_5 3.390860 1_555
Sm0_3 Sm0_6 3.390860 1_456
Sm0_3 Sm0_6 3.390860 1_555
Sm0_4 Sm0_7 3.390860 1_545
Sm0_4 Sm0_7 3.390860 1_554
Sm0_5 Sm0_6 3.390860 1_546
Sm0_5 Sm0_6 3.390860 1_555
