# generated using pymatgen
data_Mg6CrC
_symmetry_space_group_name_H-M   'P 1'
_cell_length_a   6.07803385
_cell_length_b   6.07803385
_cell_length_c   4.63052100
_cell_angle_alpha   90.00000000
_cell_angle_beta   90.00000000
_cell_angle_gamma   118.95079088
_symmetry_Int_Tables_number   1
_chemical_formula_structural   Mg6CrC
_chemical_formula_sum   'Mg6 Cr1 C1'
_cell_volume   149.68624481
_cell_formula_units_Z   1
loop_
 _symmetry_equiv_pos_site_id
 _symmetry_equiv_pos_as_xyz
  1  'x, y, z'
loop_
 _atom_site_type_symbol
 _atom_site_label
 _atom_site_symmetry_multiplicity
 _atom_site_fract_x
 _atom_site_fract_y
 _atom_site_fract_z
 _atom_site_occupancy
  Mg  Mg0  1  0.66396200  0.83585100  0.00000000  1
  Mg  Mg1  1  0.16414900  0.33603800  0.00000000  1
  Mg  Mg2  1  0.84904300  0.66958100  0.50000000  1
  Mg  Mg3  1  0.33041900  0.15095700  0.50000000  1
  Mg  Mg4  1  0.82887500  0.17112500  0.50000000  1
  Mg  Mg5  1  0.32304900  0.67695100  0.50000000  1
  Cr  Cr0  1  0.66644500  0.33355500  0.00000000  1
  C  C0  1  0.17406200  0.82593800  0.00000000  1
loop_
_geom_bond_atom_site_label_1
_geom_bond_atom_site_label_2
_geom_bond_distance
_geom_bond_site_symmetry_2
Mg0 Mg4 2.922383 1_564
Mg0 Mg4 2.922383 1_565
Mg0 Mg5 2.940971 1_555
Mg0 Mg5 2.940971 1_554
Mg0 Mg2 2.957668 1_555
Mg0 Mg2 2.957668 1_554
Mg0 Mg1 3.085929 1_555
Mg0 Mg1 3.088239 1_665
Mg1 Mg4 2.922383 1_455
Mg1 Mg4 2.922383 1_454
Mg1 Mg5 2.940971 1_555
Mg1 Mg5 2.940971 1_554
Mg1 Mg3 2.957668 1_554
Mg1 Mg3 2.957668 1_555
Mg2 Mg5 2.859610 1_655
Mg2 Mg3 2.972096 1_665
Mg2 Mg4 2.972232 1_555
Mg2 Mg4 3.109589 1_565
Mg2 Mg3 3.202072 1_555
Mg2 Mg5 3.218931 1_555
Mg3 Mg5 2.859610 1_545
Mg3 Mg4 2.972232 1_555
Mg3 Mg4 3.109589 1_455
Mg3 Mg5 3.218931 1_555
Mg4 Mg5 3.087687 1_545
Mg4 Mg5 3.087687 1_655
Cr0 Mg4 2.872868 1_555
Cr0 Mg4 2.872868 1_554
Cr0 Mg2 2.927292 1_554
Cr0 Mg2 2.927292 1_555
Cr0 Mg3 2.927292 1_554
Cr0 Mg3 2.927292 1_555
Cr0 Mg0 3.017785 1_545
Cr0 Mg1 3.017785 1_655
Cr0 Mg1 3.060306 1_555
Cr0 Mg0 3.060306 1_555
C0 Mg5 2.791834 1_555
C0 Mg5 2.791834 1_554
C0 Mg3 2.889389 1_565
C0 Mg3 2.889389 1_564
C0 Mg2 2.889389 1_455
C0 Mg2 2.889389 1_454
C0 Mg0 2.948935 1_555
C0 Mg1 2.948935 1_555
