# generated using pymatgen
data_Pr5NiSb2
_symmetry_space_group_name_H-M   'P 1'
_cell_length_a   8.30641000
_cell_length_b   9.09485700
_cell_length_c   12.68869100
_cell_angle_alpha   90.00000000
_cell_angle_beta   90.00000000
_cell_angle_gamma   90.00000000
_symmetry_Int_Tables_number   1
_chemical_formula_structural   Pr5NiSb2
_chemical_formula_sum   'Pr20 Ni4 Sb8'
_cell_volume   958.57491608
_cell_formula_units_Z   4
loop_
 _symmetry_equiv_pos_site_id
 _symmetry_equiv_pos_as_xyz
  1  'x, y, z'
loop_
 _atom_site_type_symbol
 _atom_site_label
 _atom_site_symmetry_multiplicity
 _atom_site_fract_x
 _atom_site_fract_y
 _atom_site_fract_z
 _atom_site_occupancy
  Pr  Pr0  1  0.66390400  0.75000000  0.70792800  1
  Pr  Pr1  1  0.33609600  0.25000000  0.29207200  1
  Pr  Pr2  1  0.16390400  0.25000000  0.79207200  1
  Pr  Pr3  1  0.83609600  0.75000000  0.20792800  1
  Pr  Pr4  1  0.14170200  0.75000000  0.80221300  1
  Pr  Pr5  1  0.85829800  0.25000000  0.19778700  1
  Pr  Pr6  1  0.64170200  0.25000000  0.69778700  1
  Pr  Pr7  1  0.35829800  0.75000000  0.30221300  1
  Pr  Pr8  1  0.53949200  0.75000000  0.99874800  1
  Pr  Pr9  1  0.46050800  0.25000000  0.00125200  1
  Pr  Pr10  1  0.03949200  0.25000000  0.50125200  1
  Pr  Pr11  1  0.96050800  0.75000000  0.49874800  1
  Pr  Pr12  1  0.82071400  0.46511400  0.93287100  1
  Pr  Pr13  1  0.17928600  0.53488600  0.06712900  1
  Pr  Pr14  1  0.32071400  0.53488600  0.56712900  1
  Pr  Pr15  1  0.17928600  0.96511400  0.06712900  1
  Pr  Pr16  1  0.67928600  0.46511400  0.43287100  1
  Pr  Pr17  1  0.82071400  0.03488600  0.93287100  1
  Pr  Pr18  1  0.67928600  0.03488600  0.43287100  1
  Pr  Pr19  1  0.32071400  0.96511400  0.56712900  1
  Ni  Ni0  1  0.92546900  0.75000000  0.99046100  1
  Ni  Ni1  1  0.07453100  0.25000000  0.00953900  1
  Ni  Ni2  1  0.42546900  0.25000000  0.50953900  1
  Ni  Ni3  1  0.57453100  0.75000000  0.49046100  1
  Sb  Sb0  1  0.93924500  0.00525300  0.67541900  1
  Sb  Sb1  1  0.06075500  0.99474700  0.32458100  1
  Sb  Sb2  1  0.43924500  0.99474700  0.82458100  1
  Sb  Sb3  1  0.06075500  0.50525300  0.32458100  1
  Sb  Sb4  1  0.56075500  0.00525300  0.17541900  1
  Sb  Sb5  1  0.93924500  0.49474700  0.67541900  1
  Sb  Sb6  1  0.56075500  0.49474700  0.17541900  1
  Sb  Sb7  1  0.43924500  0.50525300  0.82458100  1
loop_
_geom_bond_atom_site_label_1
_geom_bond_atom_site_label_2
_geom_bond_distance
_geom_bond_site_symmetry_2
Pr0 Sb2 3.260074 1_555
Pr0 Sb7 3.260074 1_555
Pr0 Sb0 3.284855 1_565
Pr0 Sb5 3.284855 1_555
Pr1 Sb4 3.260074 1_555
Pr1 Sb6 3.260074 1_555
Pr1 Sb3 3.284855 1_555
Pr1 Sb1 3.284855 1_545
Pr2 Sb5 3.260074 1_455
Pr2 Sb0 3.260074 1_455
Pr2 Sb7 3.284855 1_555
Pr2 Sb2 3.284855 1_545
Pr3 Sb1 3.260074 1_655
Pr3 Sb3 3.260074 1_655
Pr3 Sb4 3.284855 1_565
Pr3 Sb6 3.284855 1_555
Pr4 Sb0 3.287217 1_465
Pr4 Sb5 3.287217 1_455
Pr4 Sb2 3.338224 1_555
Pr4 Sb7 3.338224 1_555
Pr5 Sb3 3.287217 1_655
Pr5 Sb1 3.287217 1_645
Pr5 Sb6 3.338224 1_555
Pr5 Sb4 3.338224 1_555
Pr6 Sb7 3.287217 1_555
Pr6 Sb2 3.287217 1_545
Pr6 Sb5 3.338224 1_555
Pr6 Sb0 3.338224 1_555
Pr7 Sb4 3.287217 1_565
Pr7 Sb6 3.287217 1_555
Pr7 Sb1 3.338224 1_555
Pr7 Sb3 3.338224 1_555
Pr8 Sb4 3.232001 1_566
Pr8 Sb6 3.232001 1_556
Pr8 Sb2 3.245314 1_555
Pr8 Sb7 3.245314 1_555
Pr9 Sb7 3.232001 1_554
Pr9 Sb2 3.232001 1_544
Pr9 Sb4 3.245314 1_555
Pr9 Sb6 3.245314 1_555
Pr10 Sb3 3.232001 1_555
Pr10 Sb1 3.232001 1_545
Pr10 Sb5 3.245314 1_455
Pr10 Sb0 3.245314 1_455
Pr11 Sb0 3.232001 1_565
Pr11 Sb5 3.232001 1_555
Pr11 Sb1 3.245314 1_655
Pr11 Sb3 3.245314 1_655
Pr12 Sb5 3.422503 1_555
Pr12 Sb7 3.472977 1_555
Pr12 Sb6 3.769224 1_556
Pr13 Sb3 3.422503 1_555
Pr13 Sb6 3.472977 1_555
Pr13 Sb7 3.769224 1_554
Pr14 Sb7 3.422503 1_555
Pr14 Sb5 3.472977 1_455
Pr14 Sb3 3.769224 1_555
Pr15 Sb1 3.422503 1_555
Pr15 Sb4 3.472977 1_565
Pr15 Sb2 3.769224 1_554
Pr16 Sb6 3.422503 1_555
Pr16 Sb3 3.472977 1_655
Pr16 Sb5 3.769224 1_555
Pr17 Sb0 3.422503 1_555
Pr17 Sb2 3.472977 1_545
Pr17 Sb4 3.769224 1_556
Pr18 Sb4 3.422503 1_555
Pr18 Sb1 3.472977 1_645
Pr18 Sb0 3.769224 1_555
Pr19 Sb2 3.422503 1_555
Pr19 Sb0 3.472977 1_465
Pr19 Sb1 3.769224 1_555
Ni0 Pr17 2.829203 1_565
Ni0 Pr12 2.829203 1_555
Ni0 Pr3 2.857489 1_556
Ni0 Pr4 2.988571 1_655
Ni0 Pr15 3.036274 1_656
Ni0 Pr13 3.036274 1_656
Ni0 Pr8 3.207807 1_555
Ni1 Pr13 2.829203 1_555
Ni1 Pr15 2.829203 1_545
Ni1 Pr2 2.857489 1_554
Ni1 Pr5 2.988571 1_455
Ni1 Pr12 3.036274 1_454
Ni1 Pr17 3.036274 1_454
Ni1 Pr9 3.207807 1_555
Ni2 Pr14 2.829203 1_555
Ni2 Pr19 2.829203 1_545
Ni2 Pr1 2.857489 1_555
Ni2 Pr6 2.988571 1_555
Ni2 Pr16 3.036274 1_555
Ni2 Pr18 3.036274 1_555
Ni2 Pr10 3.207807 1_555
Ni3 Pr18 2.829203 1_565
Ni3 Pr16 2.829203 1_555
Ni3 Pr0 2.857489 1_555
Ni3 Pr7 2.988571 1_555
Ni3 Pr19 3.036274 1_555
Ni3 Pr14 3.036274 1_555
Ni3 Pr11 3.207807 1_555
