# generated using pymatgen
data_NaEuHf2O6
_symmetry_space_group_name_H-M   'P 1'
_cell_length_a   5.58267534
_cell_length_b   5.79025770
_cell_length_c   8.00356646
_cell_angle_alpha   90.00000000
_cell_angle_beta   90.00000000
_cell_angle_gamma   90.00000000
_symmetry_Int_Tables_number   1
_chemical_formula_structural   NaEuHf2O6
_chemical_formula_sum   'Na2 Eu2 Hf4 O12'
_cell_volume   258.71631727
_cell_formula_units_Z   2
loop_
 _symmetry_equiv_pos_site_id
 _symmetry_equiv_pos_as_xyz
  1  'x, y, z'
loop_
 _atom_site_type_symbol
 _atom_site_label
 _atom_site_symmetry_multiplicity
 _atom_site_fract_x
 _atom_site_fract_y
 _atom_site_fract_z
 _atom_site_occupancy
  Na  Na0  1  0.49006954  0.78862267  -0.00000000  1
  Na  Na1  1  0.99006954  0.21137733  0.50000000  1
  Eu  Eu0  1  0.51477754  0.68664484  0.50000000  1
  Eu  Eu1  1  0.01477754  0.31335516  -0.00000000  1
  Hf  Hf0  1  0.00032176  0.75784781  0.24926363  1
  Hf  Hf1  1  0.50032176  0.24215219  0.25073637  1
  Hf  Hf2  1  0.00032176  0.75784781  0.75073637  1
  Hf  Hf3  1  0.50032176  0.24215219  0.74926363  1
  O  O0  1  0.41907814  0.28733622  0.50000000  1
  O  O1  1  0.91907814  0.71266378  -0.00000000  1
  O  O2  1  0.61730859  0.21557988  -0.00000000  1
  O  O3  1  0.11730859  0.78442012  0.50000000  1
  O  O4  1  0.18992730  0.05821219  0.19114827  1
  O  O5  1  0.68992730  0.94178781  0.30885173  1
  O  O6  1  0.78913403  0.46339893  0.70484925  1
  O  O7  1  0.28913403  0.53660107  0.79515075  1
  O  O8  1  0.78913403  0.46339893  0.29515075  1
  O  O9  1  0.28913403  0.53660107  0.20484925  1
  O  O10  1  0.18992730  0.05821219  0.80885173  1
  O  O11  1  0.68992730  0.94178781  0.69114827  1
loop_
_geom_bond_atom_site_label_1
_geom_bond_atom_site_label_2
_geom_bond_distance
_geom_bond_site_symmetry_2
Na0 O1 2.435065 1_555
Na0 O7 2.464924 1_554
Na0 O9 2.464924 1_555
Na0 O2 2.572219 1_565
Na0 O4 2.754055 1_565
Na0 O10 2.754055 1_564
Na0 O11 2.853379 1_554
Na0 O5 2.853379 1_555
Na1 O0 2.435065 1_655
Na1 O8 2.464924 1_555
Na1 O6 2.464924 1_555
Na1 O3 2.572219 1_645
Na1 O11 2.754055 1_545
Na1 O5 2.754055 1_545
Na1 O4 2.853379 1_655
Na1 O10 2.853379 1_655
Eu0 O3 2.290025 1_555
Eu0 O11 2.340756 1_555
Eu0 O5 2.340756 1_555
Eu0 O0 2.373023 1_555
Eu0 O6 2.589386 1_555
Eu0 O8 2.589386 1_555
Eu0 O9 2.814586 1_555
Eu0 O7 2.814586 1_555
Eu1 O2 2.290025 1_455
Eu1 O10 2.340756 1_554
Eu1 O4 2.340756 1_555
Eu1 O1 2.373023 1_455
Eu1 O9 2.589386 1_555
Eu1 O7 2.589386 1_554
Eu1 O6 2.814586 1_454
Eu1 O8 2.814586 1_455
Hf0 O1 2.062566 1_455
Hf0 O4 2.088433 1_565
Hf0 O5 2.089140 1_455
Hf0 O9 2.089778 1_555
Hf0 O8 2.105162 1_455
Hf0 O3 2.115986 1_555
Hf1 O0 2.062566 1_555
Hf1 O5 2.088433 1_545
Hf1 O4 2.089140 1_555
Hf1 O8 2.089778 1_555
Hf1 O9 2.105162 1_555
Hf1 O2 2.115986 1_555
Hf2 O1 2.062566 1_456
Hf2 O10 2.088433 1_565
Hf2 O11 2.089140 1_455
Hf2 O7 2.089778 1_555
Hf2 O6 2.105162 1_455
Hf2 O3 2.115986 1_555
Hf3 O0 2.062566 1_555
Hf3 O11 2.088433 1_545
Hf3 O10 2.089140 1_555
Hf3 O6 2.089778 1_555
Hf3 O7 2.105162 1_555
Hf3 O2 2.115986 1_556
