# generated using pymatgen
data_NaVZnO4
_symmetry_space_group_name_H-M   'P 1'
_cell_length_a   8.28031891
_cell_length_b   18.66513152
_cell_length_c   18.66496441
_cell_angle_alpha   119.99911710
_cell_angle_beta   90.00000000
_cell_angle_gamma   90.00000000
_symmetry_Int_Tables_number   1
_chemical_formula_structural   NaVZnO4
_chemical_formula_sum   'Na24 V24 Zn24 O96'
_cell_volume   2498.27233986
_cell_formula_units_Z   24
loop_
 _symmetry_equiv_pos_site_id
 _symmetry_equiv_pos_as_xyz
  1  'x, y, z'
loop_
 _atom_site_type_symbol
 _atom_site_label
 _atom_site_symmetry_multiplicity
 _atom_site_fract_x
 _atom_site_fract_y
 _atom_site_fract_z
 _atom_site_occupancy
  Na  Na0  1  0.56900778  0.18420792  0.33072838  1
  Na  Na1  1  0.56899587  0.66926901  0.85348464  1
  Na  Na2  1  0.56901617  0.14651645  0.81577896  1
  Na  Na3  1  0.06900778  0.81579208  0.66927162  1
  Na  Na4  1  0.06899587  0.33073099  0.14651536  1
  Na  Na5  1  0.06901617  0.85348355  0.18422104  1
  Na  Na6  1  0.57722903  0.00120606  0.52132569  1
  Na  Na7  1  0.57722350  0.47868275  0.47988663  1
  Na  Na8  1  0.57720311  0.52011363  0.99879133  1
  Na  Na9  1  0.07722903  0.99879394  0.47867431  1
  Na  Na10  1  0.07722350  0.52131725  0.52011337  1
  Na  Na11  1  0.07720311  0.47988637  0.00120867  1
  Na  Na12  1  0.57898926  0.80784144  0.14188348  1
  Na  Na13  1  0.57898088  0.85811896  0.66596553  1
  Na  Na14  1  0.57902793  0.33403615  0.19216474  1
  Na  Na15  1  0.07898926  0.19215856  0.85811652  1
  Na  Na16  1  0.07898088  0.14188104  0.33403447  1
  Na  Na17  1  0.07902793  0.66596385  0.80783526  1
  Na  Na18  1  0.09004946  0.00000096  0.99999775  1
  Na  Na19  1  0.59004946  0.99999904  0.00000225  1
  Na  Na20  1  0.06065276  0.33338106  0.66667950  1
  Na  Na21  1  0.56065276  0.66661894  0.33332050  1
  Na  Na22  1  0.55669966  0.33335731  0.66668135  1
  Na  Na23  1  0.05669966  0.66664269  0.33331865  1
  V  V0  1  0.80544025  0.00346310  0.33132177  1
  V  V1  1  0.80540325  0.66866689  0.67214970  1
  V  V2  1  0.80532566  0.32786608  0.99653443  1
  V  V3  1  0.30544025  0.99653690  0.66867823  1
  V  V4  1  0.30540325  0.33133311  0.32785030  1
  V  V5  1  0.30532566  0.67213392  0.00346557  1
  V  V6  1  0.35233312  0.16110047  0.51066032  1
  V  V7  1  0.35229763  0.48931465  0.65041899  1
  V  V8  1  0.35227968  0.34959186  0.83889936  1
  V  V9  1  0.85233312  0.83889953  0.48933968  1
  V  V10  1  0.85229763  0.51068535  0.34958101  1
  V  V11  1  0.85227968  0.65040814  0.16110064  1
  V  V12  1  0.37484887  0.98583008  0.16069719  1
  V  V13  1  0.37486889  0.83931610  0.82513804  1
  V  V14  1  0.37487104  0.17487385  0.01418469  1
  V  V15  1  0.87484887  0.01416992  0.83930281  1
  V  V16  1  0.87486889  0.16068390  0.17486196  1
  V  V17  1  0.87487104  0.82512615  0.98581531  1
  V  V18  1  0.85090755  0.17456814  0.67942260  1
  V  V19  1  0.85085508  0.32061680  0.49512516  1
  V  V20  1  0.85084957  0.50486856  0.82546516  1
  V  V21  1  0.35090755  0.82543186  0.32057740  1
  V  V22  1  0.35085508  0.67938320  0.50487484  1
  V  V23  1  0.35084957  0.49513144  0.17453484  1
  Zn  Zn0  1  0.78147430  0.98714319  0.15545403  1
  Zn  Zn1  1  0.78148845  0.84453662  0.83168930  1
  Zn  Zn2  1  0.78147549  0.16831142  0.01284284  1
  Zn  Zn3  1  0.28147430  0.01285681  0.84454597  1
  Zn  Zn4  1  0.28148845  0.15546338  0.16831070  1
  Zn  Zn5  1  0.28147549  0.83168858  0.98715716  1
  Zn  Zn6  1  0.36534105  0.33520172  0.99963074  1
  Zn  Zn7  1  0.36537407  0.00034492  0.33556596  1
  Zn  Zn8  1  0.36537481  0.66443130  0.66480532  1
  Zn  Zn9  1  0.86534105  0.66479828  0.00036926  1
  Zn  Zn10  1  0.86537407  0.99965508  0.66443404  1
  Zn  Zn11  1  0.86537481  0.33556870  0.33519468  1
  Zn  Zn12  1  0.75995333  0.82695447  0.31865740  1
  Zn  Zn13  1  0.75992570  0.68135059  0.50831740  1
  Zn  Zn14  1  0.75990742  0.49168408  0.17303877  1
  Zn  Zn15  1  0.25995333  0.17304553  0.68134260  1
  Zn  Zn16  1  0.25992570  0.31864941  0.49168260  1
  Zn  Zn17  1  0.25990742  0.50831592  0.82696123  1
  Zn  Zn18  1  0.76294947  0.16308170  0.50523651  1
  Zn  Zn19  1  0.76292271  0.49477153  0.65784005  1
  Zn  Zn20  1  0.76289538  0.34218193  0.83694608  1
  Zn  Zn21  1  0.26294947  0.83691830  0.49476349  1
  Zn  Zn22  1  0.26292271  0.50522847  0.34215995  1
  Zn  Zn23  1  0.26289538  0.65781807  0.16305392  1
  O  O0  1  0.27427335  0.95127506  0.06607679  1
  O  O1  1  0.27429790  0.93392758  0.88520502  1
  O  O2  1  0.27429932  0.11479559  0.04872769  1
  O  O3  1  0.77427335  0.04872494  0.93392321  1
  O  O4  1  0.77429790  0.06607242  0.11479498  1
  O  O5  1  0.77429932  0.88520441  0.95127231  1
  O  O6  1  0.06359321  0.14009321  0.20112502  1
  O  O7  1  0.06358950  0.79885698  0.93895564  1
  O  O8  1  0.06357211  0.06104114  0.85990897  1
  O  O9  1  0.56359321  0.85990679  0.79887498  1
  O  O10  1  0.56358950  0.20114302  0.06104436  1
  O  O11  1  0.56357211  0.93895886  0.14009103  1
  O  O12  1  0.87231723  0.90088178  0.28887455  1
  O  O13  1  0.87232186  0.71113147  0.61200937  1
  O  O14  1  0.87230040  0.38798865  0.09912637  1
  O  O15  1  0.37231723  0.09911822  0.71112545  1
  O  O16  1  0.37232186  0.28886853  0.38799063  1
  O  O17  1  0.37230040  0.61201135  0.90087363  1
  O  O18  1  0.88953431  0.06487292  0.43022440  1
  O  O19  1  0.88954281  0.56977627  0.63464562  1
  O  O20  1  0.88950866  0.36536961  0.93514312  1
  O  O21  1  0.38953431  0.93512708  0.56977560  1
  O  O22  1  0.38954281  0.43022373  0.36535438  1
  O  O23  1  0.38950866  0.63463039  0.06485688  1
  O  O24  1  0.40354848  0.09248063  0.20957935  1
  O  O25  1  0.40356666  0.79042141  0.88291346  1
  O  O26  1  0.40355317  0.11710492  0.90752372  1
  O  O27  1  0.90354848  0.90751937  0.79042065  1
  O  O28  1  0.90356666  0.20957859  0.11708654  1
  O  O29  1  0.90355317  0.88289508  0.09247628  1
  O  O30  1  0.30513948  0.61690359  0.54816616  1
  O  O31  1  0.30512477  0.45184095  0.06875425  1
  O  O32  1  0.30519422  0.93121275  0.38307086  1
  O  O33  1  0.80513948  0.38309641  0.45183384  1
  O  O34  1  0.80512477  0.54815905  0.93124575  1
  O  O35  1  0.80519422  0.06878725  0.61692914  1
  O  O36  1  0.34344385  0.26889306  0.55618645  1
  O  O37  1  0.34338554  0.44379471  0.71269257  1
  O  O38  1  0.34341142  0.28731971  0.73110408  1
  O  O39  1  0.84344385  0.73110694  0.44381355  1
  O  O40  1  0.84338554  0.55620529  0.28730743  1
  O  O41  1  0.84341142  0.71268029  0.26889592  1
  O  O42  1  0.84795572  0.22267522  0.61949495  1
  O  O43  1  0.84793820  0.38051396  0.60313990  1
  O  O44  1  0.84787384  0.39684424  0.77734328  1
  O  O45  1  0.34795572  0.77732478  0.38050505  1
  O  O46  1  0.34793820  0.61948604  0.39686010  1
  O  O47  1  0.34787384  0.60315576  0.22265672  1
  O  O48  1  0.26783474  0.96021533  0.22613977  1
  O  O49  1  0.26784994  0.77386551  0.73409052  1
  O  O50  1  0.26783167  0.26591850  0.03978853  1
  O  O51  1  0.76783474  0.03978467  0.77386023  1
  O  O52  1  0.76784994  0.22613449  0.26590948  1
  O  O53  1  0.76783167  0.73408150  0.96021147  1
  O  O54  1  0.71481137  0.22314281  0.76191963  1
  O  O55  1  0.71478021  0.23807912  0.46119654  1
  O  O56  1  0.71477424  0.53880034  0.77687426  1
  O  O57  1  0.21481137  0.77685719  0.23808037  1
  O  O58  1  0.21478021  0.76192088  0.53880346  1
  O  O59  1  0.21477424  0.46119966  0.22312574  1
  O  O60  1  0.79865455  0.71007942  0.11613199  1
  O  O61  1  0.79867759  0.88388557  0.59398829  1
  O  O62  1  0.79867675  0.40603322  0.28989803  1
  O  O63  1  0.29865455  0.28992058  0.88386801  1
  O  O64  1  0.29867759  0.11611443  0.40601171  1
  O  O65  1  0.29867675  0.59396678  0.71010197  1
  O  O66  1  0.36422605  0.77567724  0.04452107  1
  O  O67  1  0.36425856  0.95549070  0.73117274  1
  O  O68  1  0.36425557  0.26883571  0.22431953  1
  O  O69  1  0.86422605  0.22432276  0.95547893  1
  O  O70  1  0.86425856  0.04450930  0.26882726  1
  O  O71  1  0.86425557  0.73116429  0.77568047  1
  O  O72  1  0.03844013  0.27355573  0.46066308  1
  O  O73  1  0.03841688  0.53931198  0.81285649  1
  O  O74  1  0.03847815  0.18717117  0.72647575  1
  O  O75  1  0.53844013  0.72644427  0.53933692  1
  O  O76  1  0.53841688  0.46068802  0.18714351  1
  O  O77  1  0.53847815  0.81282883  0.27352425  1
  O  O78  1  0.59944540  0.00652783  0.33712759  1
  O  O79  1  0.59947481  0.66285445  0.66939531  1
  O  O80  1  0.59946068  0.33061722  0.99347665  1
  O  O81  1  0.09944540  0.99347217  0.66287241  1
  O  O82  1  0.09947481  0.33714555  0.33060469  1
  O  O83  1  0.09946068  0.66938278  0.00652335  1
  O  O84  1  0.22386275  0.43865443  0.56467690  1
  O  O85  1  0.22384579  0.43533575  0.87398567  1
  O  O86  1  0.22393352  0.12602524  0.56132682  1
  O  O87  1  0.72386275  0.56134557  0.43532310  1
  O  O88  1  0.72384579  0.56466425  0.12601433  1
  O  O89  1  0.72393352  0.87397476  0.43867318  1
  O  O90  1  0.04480106  0.87027206  0.47880329  1
  O  O91  1  0.04474705  0.52122615  0.39147806  1
  O  O92  1  0.04473839  0.60850185  0.12972229  1
  O  O93  1  0.54480106  0.12972794  0.52119671  1
  O  O94  1  0.54474705  0.47877385  0.60852194  1
  O  O95  1  0.54473839  0.39149815  0.87027771  1
loop_
_geom_bond_atom_site_label_1
_geom_bond_atom_site_label_2
_geom_bond_distance
_geom_bond_site_symmetry_2
Na0 O16 2.350122 1_555
Na0 O52 2.394528 1_555
Na0 O55 2.439177 1_555
Na0 O24 2.459713 1_555
Na1 O17 2.349994 1_555
Na1 O53 2.394296 1_555
Na1 O56 2.439251 1_555
Na1 O25 2.459592 1_555
Na2 O15 2.350098 1_555
Na2 O51 2.394258 1_555
Na2 O54 2.439538 1_555
Na2 O26 2.459858 1_555
Na3 O13 2.350122 1_455
Na3 O49 2.394528 1_555
Na3 O58 2.439177 1_555
Na3 O27 2.459713 1_455
Na4 O14 2.349994 1_455
Na4 O50 2.394296 1_555
Na4 O59 2.439251 1_555
Na4 O28 2.459592 1_455
Na5 O12 2.350098 1_455
Na5 O48 2.394258 1_555
Na5 O57 2.439538 1_555
Na5 O29 2.459858 1_455
Na6 O89 2.414892 1_545
Na6 O93 2.415056 1_555
Na6 O21 2.422762 1_545
Na6 O35 2.467316 1_555
Na7 O87 2.414557 1_555
Na7 O94 2.415142 1_555
Na7 O22 2.422728 1_555
Na7 O33 2.466723 1_555
Na8 O88 2.414562 1_556
Na8 O95 2.414706 1_555
Na8 O23 2.422626 1_556
Na8 O34 2.466817 1_555
Na9 O86 2.414892 1_565
Na9 O90 2.415056 1_555
Na9 O18 2.422762 1_465
Na9 O32 2.467316 1_555
Na10 O84 2.414557 1_555
Na10 O91 2.415142 1_555
Na10 O19 2.422728 1_455
Na10 O30 2.466723 1_555
Na11 O85 2.414562 1_554
Na11 O92 2.414706 1_555
Na11 O20 2.422626 1_454
Na11 O31 2.466817 1_555
Na12 O66 2.394637 1_555
Na12 O77 2.435089 1_555
Na12 O60 2.447868 1_555
Na12 O11 2.467526 1_555
Na13 O67 2.394511 1_555
Na13 O75 2.435282 1_555
Na13 O61 2.447775 1_555
Na13 O9 2.467527 1_555
Na14 O68 2.394629 1_555
Na14 O76 2.435525 1_555
Na14 O62 2.447470 1_555
Na14 O10 2.467426 1_555
Na15 O69 2.394637 1_455
Na15 O74 2.435089 1_555
Na15 O63 2.447868 1_555
Na15 O8 2.467526 1_555
Na16 O70 2.394511 1_455
Na16 O72 2.435282 1_555
Na16 O64 2.447775 1_555
Na16 O6 2.467527 1_555
Na17 O71 2.394629 1_455
Na17 O73 2.435525 1_555
Na17 O65 2.447470 1_555
Na17 O7 2.467426 1_555
Na18 O1 2.407681 1_545
Na18 O0 2.407687 1_546
Na18 O2 2.407709 1_556
Na19 O4 2.407681 1_565
Na19 O3 2.407687 1_564
Na19 O5 2.407709 1_554
Na20 O43 2.515175 1_455
Na20 O44 2.515381 1_455
Na20 O42 2.515440 1_455
Na20 O37 2.948858 1_555
Na20 O38 2.949703 1_555
Na20 O36 2.950064 1_555
Na21 O46 2.515175 1_555
Na21 O47 2.515381 1_555
Na21 O45 2.515440 1_555
Na21 O40 2.948858 1_555
Na21 O41 2.949703 1_555
Na21 O39 2.950064 1_555
Na22 O37 2.517189 1_555
Na22 O38 2.517260 1_555
Na22 O36 2.517514 1_555
Na23 O40 2.517189 1_455
Na23 O41 2.517260 1_455
Na23 O39 2.517514 1_455
O0 V12 1.757713 1_555
O0 Zn5 1.966666 1_554
O1 V13 1.757603 1_555
O1 Zn3 1.966685 1_565
O2 V14 1.757736 1_555
O2 Zn4 1.966571 1_555
O3 V15 1.757713 1_555
O3 Zn2 1.966666 1_556
O4 V16 1.757603 1_555
O4 Zn0 1.966685 1_545
O5 V17 1.757736 1_555
O5 Zn1 1.966571 1_555
O6 V16 1.737360 1_455
O6 Zn4 1.971910 1_555
O7 V17 1.737363 1_455
O7 Zn5 1.971967 1_555
O8 V15 1.737477 1_455
O8 Zn3 1.971978 1_555
O9 V13 1.737360 1_555
O9 Zn1 1.971910 1_555
O10 V14 1.737363 1_555
O10 Zn2 1.971967 1_555
O11 V12 1.737477 1_555
O11 Zn0 1.971978 1_555
O12 V0 1.755984 1_565
O12 Zn12 1.961056 1_555
O13 V1 1.756416 1_555
O13 Zn13 1.960905 1_555
O14 V2 1.756363 1_554
O14 Zn14 1.960962 1_555
O15 V3 1.755984 1_545
O15 Zn15 1.961056 1_555
O16 V4 1.756416 1_555
O16 Zn16 1.960905 1_555
O17 V5 1.756363 1_556
O17 Zn17 1.960962 1_555
O18 V0 1.758004 1_555
O18 Zn18 1.962824 1_555
O19 V1 1.757942 1_555
O19 Zn19 1.962822 1_555
O20 V2 1.758127 1_555
O20 Zn20 1.962788 1_555
O21 V3 1.758004 1_555
O21 Zn21 1.962824 1_555
O22 V4 1.757942 1_555
O22 Zn22 1.962822 1_555
O23 V5 1.758127 1_555
O23 Zn23 1.962788 1_555
O24 V12 1.742242 1_545
O24 Zn4 1.975431 1_555
O25 V13 1.742520 1_555
O25 Zn5 1.975459 1_555
O26 V14 1.742372 1_556
O26 Zn3 1.975484 1_555
O27 V15 1.742242 1_565
O27 Zn1 1.975431 1_555
O28 V16 1.742520 1_555
O28 Zn2 1.975459 1_555
O29 V17 1.742372 1_554
O29 Zn0 1.975484 1_555
O30 V22 1.760255 1_555
O30 Zn8 1.960638 1_555
O31 V23 1.760443 1_555
O31 Zn6 1.960645 1_554
O32 V21 1.760454 1_555
O32 Zn7 1.960521 1_565
O33 V19 1.760255 1_555
O33 Zn11 1.960638 1_555
O34 V20 1.760443 1_555
O34 Zn9 1.960645 1_556
O35 V18 1.760454 1_555
O35 Zn10 1.960521 1_545
O36 V6 1.750962 1_555
O36 Zn16 1.976961 1_555
O37 V7 1.750966 1_555
O37 Zn17 1.977009 1_555
O38 V8 1.750995 1_555
O38 Zn15 1.977032 1_555
O39 V9 1.750962 1_555
O39 Zn13 1.976961 1_555
O40 V10 1.750966 1_555
O40 Zn14 1.977009 1_555
O41 V11 1.750995 1_555
O41 Zn12 1.977032 1_555
O42 V18 1.749960 1_555
O42 Zn18 1.977045 1_555
O43 V19 1.749628 1_555
O43 Zn19 1.977058 1_555
O44 V20 1.749802 1_555
O44 Zn20 1.977050 1_555
O45 V21 1.749960 1_555
O45 Zn21 1.977045 1_555
O46 V22 1.749628 1_555
O46 Zn22 1.977058 1_555
O47 V23 1.749802 1_555
O47 Zn23 1.977050 1_555
O48 V12 1.757776 1_555
O48 Zn7 1.963440 1_565
O49 V13 1.757734 1_555
O49 Zn8 1.963490 1_555
O50 V14 1.757748 1_555
O50 Zn6 1.963494 1_554
O51 V15 1.757776 1_555
O51 Zn10 1.963440 1_545
O52 V16 1.757734 1_555
O52 Zn11 1.963490 1_555
O53 V17 1.757748 1_555
O53 Zn9 1.963494 1_556
O54 V18 1.751266 1_555
O54 Zn20 1.986187 1_555
O55 V19 1.751680 1_555
O55 Zn18 1.986193 1_555
O56 V20 1.751464 1_555
O56 Zn19 1.986142 1_555
O57 V21 1.751266 1_555
O57 Zn23 1.986187 1_555
O58 V22 1.751680 1_555
O58 Zn21 1.986193 1_555
O59 V23 1.751464 1_555
O59 Zn22 1.986142 1_555
O60 V11 1.754124 1_555
O60 Zn9 1.965135 1_555
O61 V9 1.754314 1_555
O61 Zn10 1.965198 1_555
O62 V10 1.754342 1_555
O62 Zn11 1.965093 1_555
O63 V8 1.754124 1_555
O63 Zn6 1.965135 1_555
O64 V6 1.754314 1_555
O64 Zn7 1.965198 1_555
O65 V7 1.754342 1_555
O65 Zn8 1.965093 1_555
O66 V5 1.754784 1_555
O66 Zn5 1.956582 1_554
O67 V3 1.754544 1_555
O67 Zn3 1.956665 1_565
O68 V4 1.754505 1_555
O68 Zn4 1.956616 1_555
O69 V2 1.754784 1_555
O69 Zn2 1.956582 1_556
O70 V0 1.754544 1_555
O70 Zn0 1.956665 1_545
O71 V1 1.754505 1_555
O71 Zn1 1.956616 1_555
O72 V19 1.741541 1_455
O72 Zn16 1.979846 1_555
O73 V20 1.741310 1_455
O73 Zn17 1.979881 1_555
O74 V18 1.741355 1_455
O74 Zn15 1.979950 1_555
O75 V22 1.741541 1_555
O75 Zn13 1.979846 1_555
O76 V23 1.741310 1_555
O76 Zn14 1.979881 1_555
O77 V21 1.741355 1_555
O77 Zn12 1.979950 1_555
O78 V0 1.708286 1_555
O78 Zn7 1.940970 1_555
O79 V1 1.707742 1_555
O79 Zn8 1.941188 1_555
O80 V2 1.707214 1_555
O80 Zn6 1.941340 1_555
O81 V3 1.708286 1_555
O81 Zn10 1.940970 1_455
O82 V4 1.707742 1_555
O82 Zn11 1.941188 1_455
O83 V5 1.707214 1_555
O83 Zn9 1.941340 1_455
O84 V7 1.753017 1_555
O84 Zn16 1.977611 1_555
O85 V8 1.753036 1_555
O85 Zn17 1.977537 1_555
O86 V6 1.752832 1_555
O86 Zn15 1.977694 1_555
O87 V10 1.753017 1_555
O87 Zn13 1.977611 1_555
O88 V11 1.753036 1_555
O88 Zn14 1.977537 1_555
O89 V9 1.752832 1_555
O89 Zn12 1.977694 1_555
O90 V9 1.742583 1_455
O90 Zn21 1.981066 1_555
O91 V10 1.742346 1_455
O91 Zn22 1.981246 1_555
O92 V11 1.742515 1_455
O92 Zn23 1.981116 1_555
O93 V6 1.742583 1_555
O93 Zn18 1.981066 1_555
O94 V7 1.742346 1_555
O94 Zn19 1.981246 1_555
O95 V8 1.742515 1_555
O95 Zn20 1.981116 1_555
