# generated using pymatgen
data_TlCu4Se3
_symmetry_space_group_name_H-M   'P 1'
_cell_length_a   3.86703600
_cell_length_b   3.86703600
_cell_length_c   10.13096100
_cell_angle_alpha   90.00000000
_cell_angle_beta   90.00000000
_cell_angle_gamma   90.00000000
_symmetry_Int_Tables_number   1
_chemical_formula_structural   TlCu4Se3
_chemical_formula_sum   'Tl1 Cu4 Se3'
_cell_volume   151.49806078
_cell_formula_units_Z   1
loop_
 _symmetry_equiv_pos_site_id
 _symmetry_equiv_pos_as_xyz
  1  'x, y, z'
loop_
 _atom_site_type_symbol
 _atom_site_label
 _atom_site_symmetry_multiplicity
 _atom_site_fract_x
 _atom_site_fract_y
 _atom_site_fract_z
 _atom_site_occupancy
  Tl  Tl0  1  0.00000000  0.00000000  0.50000000  1
  Cu  Cu0  1  0.00000000  0.50000000  0.16170100  1
  Cu  Cu1  1  0.00000000  0.50000000  0.83829900  1
  Cu  Cu2  1  0.50000000  0.00000000  0.16170100  1
  Cu  Cu3  1  0.50000000  0.00000000  0.83829900  1
  Se  Se0  1  0.50000000  0.50000000  0.30643600  1
  Se  Se1  1  0.50000000  0.50000000  0.69356400  1
  Se  Se2  1  0.00000000  0.00000000  0.00000000  1
loop_
_geom_bond_atom_site_label_1
_geom_bond_atom_site_label_2
_geom_bond_distance
_geom_bond_site_symmetry_2
Cu0 Se0 2.426632 1_455
Cu0 Se0 2.426632 1_555
Cu0 Se2 2.534196 1_565
Cu0 Se2 2.534196 1_555
Cu1 Se1 2.426632 1_555
Cu1 Se1 2.426632 1_455
Cu1 Se2 2.534196 1_566
Cu1 Se2 2.534196 1_556
Cu2 Se0 2.426632 1_555
Cu2 Se0 2.426632 1_545
Cu2 Se2 2.534196 1_555
Cu2 Se2 2.534196 1_655
Cu3 Se1 2.426632 1_555
Cu3 Se1 2.426632 1_545
Cu3 Se2 2.534196 1_656
Cu3 Se2 2.534196 1_556
Se0 Tl0 3.364887 1_565
Se0 Tl0 3.364887 1_655
Se0 Tl0 3.364887 1_665
Se0 Tl0 3.364887 1_555
Se1 Tl0 3.364887 1_555
Se1 Tl0 3.364887 1_565
Se1 Tl0 3.364887 1_655
Se1 Tl0 3.364887 1_665
