# generated using pymatgen
data_Li7Mn4CoO12
_symmetry_space_group_name_H-M   'P 1'
_cell_length_a   5.23355978
_cell_length_b   10.02748929
_cell_length_c   9.68545311
_cell_angle_alpha   63.29737080
_cell_angle_beta   82.68976580
_cell_angle_gamma   101.51917009
_symmetry_Int_Tables_number   1
_chemical_formula_structural   Li7Mn4CoO12
_chemical_formula_sum   'Li14 Mn8 Co2 O24'
_cell_volume   431.04765770
_cell_formula_units_Z   2
loop_
 _symmetry_equiv_pos_site_id
 _symmetry_equiv_pos_as_xyz
  1  'x, y, z'
loop_
 _atom_site_type_symbol
 _atom_site_label
 _atom_site_symmetry_multiplicity
 _atom_site_fract_x
 _atom_site_fract_y
 _atom_site_fract_z
 _atom_site_occupancy
  Li  Li0  1  0.83332500  0.16667600  0.16668600  1
  Li  Li1  1  0.33332300  0.16667600  0.66668300  1
  Li  Li2  1  0.56684000  0.66665500  0.91924100  1
  Li  Li3  1  0.09982700  0.66667100  0.41407300  1
  Li  Li4  1  0.08334100  0.16683000  0.41661600  1
  Li  Li5  1  0.58324400  0.16650800  0.91675700  1
  Li  Li6  1  0.41217600  0.32593100  0.08646600  1
  Li  Li7  1  0.91398300  0.32593500  0.58751800  1
  Li  Li8  1  0.25446900  0.00743700  0.24688700  1
  Li  Li9  1  0.75267100  0.00742000  0.74583000  1
  Li  Li10  1  0.00513600  0.49976000  0.99925100  1
  Li  Li11  1  0.49490000  0.49985300  0.50078800  1
  Li  Li12  1  0.17174900  0.83348800  0.83253900  1
  Li  Li13  1  0.66155200  0.83357400  0.33405400  1
  Mn  Mn0  1  0.00007000  0.99999200  0.99999900  1
  Mn  Mn1  1  0.49985100  0.99950100  0.50022800  1
  Mn  Mn2  1  0.66658900  0.33333300  0.33335100  1
  Mn  Mn3  1  0.16681700  0.33382800  0.83311400  1
  Mn  Mn4  1  0.24820800  0.49692700  0.25162800  1
  Mn  Mn5  1  0.74814300  0.49618900  0.75176800  1
  Mn  Mn6  1  0.41846200  0.83639800  0.08169600  1
  Mn  Mn7  1  0.91855100  0.83714900  0.58154900  1
  Co  Co0  1  0.83334800  0.66666100  0.16665900  1
  Co  Co1  1  0.33334200  0.66667200  0.66666500  1
  O  O0  1  0.48074700  0.16702800  0.29880200  1
  O  O1  1  0.98030300  0.16621100  0.79916700  1
  O  O2  1  0.18591400  0.16631000  0.03455000  1
  O  O3  1  0.68636200  0.16712500  0.53418800  1
  O  O4  1  0.21707200  0.66661400  0.05279500  1
  O  O5  1  0.68344600  0.66666600  0.56356800  1
  O  O6  1  0.98321800  0.66666100  0.76977500  1
  O  O7  1  0.44962100  0.66671000  0.28051500  1
  O  O8  1  0.01461500  0.34011900  0.22375400  1
  O  O9  1  0.51377500  0.33987800  0.72373500  1
  O  O10  1  0.34131900  0.99321600  0.89714500  1
  O  O11  1  0.84069900  0.99330600  0.39711600  1
  O  O12  1  0.82597600  0.34002300  0.93620600  1
  O  O13  1  0.32534300  0.34011600  0.43618700  1
  O  O14  1  0.15289200  0.99344100  0.60959200  1
  O  O15  1  0.65207500  0.99319300  0.10958300  1
  O  O16  1  0.64686900  0.50084300  0.13212200  1
  O  O17  1  0.14157900  0.49875000  0.63261600  1
  O  O18  1  0.81266100  0.83245700  0.96610000  1
  O  O19  1  0.30942400  0.83446900  0.46478900  1
  O  O20  1  0.35723800  0.49886600  0.86853400  1
  O  O21  1  0.85400500  0.50085800  0.36723100  1
  O  O22  1  0.52511400  0.83459500  0.70069300  1
  O  O23  1  0.01982200  0.83248000  0.20119400  1
loop_
_geom_bond_atom_site_label_1
_geom_bond_atom_site_label_2
_geom_bond_distance
_geom_bond_site_symmetry_2
Li0 O0 2.109047 1_555
Li0 O2 2.109253 1_655
Li0 O11 2.136938 1_545
Li0 O12 2.137146 1_554
Li0 O8 2.137493 1_655
Li0 O15 2.137996 1_545
Li1 O1 2.108995 1_455
Li1 O3 2.109199 1_555
Li1 O9 2.133978 1_555
Li1 O14 2.134480 1_545
Li1 O10 2.138485 1_545
Li1 O13 2.138613 1_555
Li2 O20 2.101888 1_555
Li2 O4 2.102549 1_556
Li2 O22 2.103589 1_555
Li2 O18 2.144232 1_555
Li2 O16 2.146639 1_556
Li2 O6 2.457925 1_555
Li3 O19 2.102007 1_555
Li3 O7 2.102685 1_555
Li3 O17 2.103540 1_555
Li3 O21 2.144213 1_455
Li3 O23 2.146556 1_555
Li3 O5 2.458076 1_455
Li4 O13 2.034089 1_555
Li4 O8 2.035080 1_555
Li4 O11 2.037103 1_445
Li4 O14 2.038180 1_545
Li4 O3 2.239781 1_455
Li4 O0 2.240579 1_555
Li5 O10 2.034169 1_545
Li5 O15 2.035265 1_546
Li5 O12 2.036977 1_555
Li5 O9 2.038137 1_555
Li5 O2 2.240156 1_556
Li5 O1 2.240219 1_555
Li6 O2 2.082025 1_555
Li6 O0 2.090058 1_555
Li6 O20 2.146889 1_554
Li6 O16 2.180669 1_555
Li6 O8 2.387813 1_555
Li6 O12 2.391419 1_554
Li7 O1 2.083328 1_555
Li7 O3 2.088068 1_555
Li7 O17 2.144950 1_655
Li7 O21 2.180442 1_555
Li7 O13 2.385540 1_655
Li7 O9 2.393043 1_555
Li8 O0 2.081826 1_555
Li8 O2 2.089920 1_555
Li8 O19 2.146871 1_545
Li8 O23 2.181147 1_545
Li8 O15 2.388350 1_545
Li8 O11 2.390997 1_445
Li9 O3 2.083189 1_555
Li9 O1 2.087994 1_555
Li9 O22 2.145185 1_545
Li9 O18 2.180522 1_545
Li9 O10 2.385341 1_545
Li9 O14 2.393367 1_645
Li10 O8 2.055236 1_556
Li10 O12 2.059744 1_455
Li10 O20 2.102801 1_555
Li10 O4 2.117444 1_556
Li10 O6 2.133666 1_455
Li10 O16 2.139759 1_456
Li11 O13 2.053994 1_555
Li11 O9 2.061626 1_555
Li11 O17 2.104270 1_555
Li11 O7 2.118052 1_555
Li11 O5 2.132830 1_555
Li11 O21 2.137189 1_555
Li12 O10 2.053975 1_555
Li12 O14 2.061524 1_555
Li12 O22 2.104522 1_555
Li12 O4 2.118095 1_556
Li12 O6 2.132811 1_455
Li12 O18 2.137021 1_455
Li13 O15 2.054945 1_555
Li13 O11 2.059795 1_555
Li13 O19 2.103000 1_555
Li13 O7 2.117482 1_555
Li13 O5 2.133902 1_555
Li13 O23 2.139769 1_655
Mn0 O2 1.943177 1_566
Mn0 O1 1.943897 1_465
Mn0 O23 1.951502 1_556
Mn0 O18 1.952338 1_455
Mn0 O15 1.959992 1_456
Mn0 O10 1.960395 1_555
Mn1 O19 1.946393 1_555
Mn1 O22 1.946497 1_555
Mn1 O0 1.951759 1_565
Mn1 O3 1.951802 1_565
Mn1 O11 1.957038 1_555
Mn1 O14 1.957430 1_555
Mn2 O0 1.943052 1_555
Mn2 O3 1.943892 1_555
Mn2 O16 1.951638 1_555
Mn2 O21 1.952153 1_555
Mn2 O8 1.960234 1_655
Mn2 O13 1.960342 1_555
Mn3 O20 1.946317 1_555
Mn3 O17 1.946715 1_555
Mn3 O1 1.951670 1_455
Mn3 O2 1.951769 1_556
Mn3 O12 1.956928 1_455
Mn3 O9 1.957525 1_555
Mn4 O8 1.933291 1_555
Mn4 O13 1.934383 1_555
Mn4 O7 1.968325 1_555
Mn4 O4 1.968784 1_555
Mn4 O21 2.235134 1_455
Mn4 O16 2.237470 1_555
Mn5 O9 1.932446 1_555
Mn5 O12 1.932650 1_555
Mn5 O5 1.986787 1_555
Mn5 O6 1.987127 1_555
Mn5 O17 2.218056 1_655
Mn5 O20 2.219357 1_555
Mn6 O15 1.933318 1_555
Mn6 O10 1.934389 1_554
Mn6 O4 1.968369 1_555
Mn6 O7 1.968753 1_555
Mn6 O18 2.235132 1_554
Mn6 O23 2.237337 1_555
Mn7 O14 1.932291 1_655
Mn7 O11 1.932631 1_555
Mn7 O6 1.986907 1_555
Mn7 O5 1.987145 1_555
Mn7 O22 2.218058 1_555
Mn7 O19 2.219203 1_655
Co0 O23 1.940065 1_655
Co0 O16 1.940078 1_555
Co0 O18 1.942177 1_554
Co0 O21 1.942229 1_555
Co0 O7 2.164822 1_555
Co0 O4 2.164830 1_655
Co1 O22 1.964493 1_555
Co1 O20 1.964519 1_555
Co1 O19 1.964565 1_555
Co1 O17 1.964593 1_555
Co1 O5 1.972020 1_555
Co1 O6 1.972089 1_455
