# generated using pymatgen
data_Lu5Sn3
_symmetry_space_group_name_H-M   'P 1'
_cell_length_a   6.36830755
_cell_length_b   8.70845856
_cell_length_c   8.70847844
_cell_angle_alpha   120.00055511
_cell_angle_beta   90.00013255
_cell_angle_gamma   89.99999618
_symmetry_Int_Tables_number   1
_chemical_formula_structural   Lu5Sn3
_chemical_formula_sum   'Lu10 Sn6'
_cell_volume   418.24985752
_cell_formula_units_Z   2
loop_
 _symmetry_equiv_pos_site_id
 _symmetry_equiv_pos_as_xyz
  1  'x, y, z'
loop_
 _atom_site_type_symbol
 _atom_site_label
 _atom_site_symmetry_multiplicity
 _atom_site_fract_x
 _atom_site_fract_y
 _atom_site_fract_z
 _atom_site_occupancy
  Lu  Lu0  1  0.49999942  0.33333131  0.66665127  1
  Lu  Lu1  1  0.50000667  0.66666034  0.33334613  1
  Lu  Lu2  1  -0.00000600  0.66667352  0.33335570  1
  Lu  Lu3  1  -0.00000174  0.33334170  0.66665490  1
  Lu  Lu4  1  0.74999662  0.23723747  0.00000222  1
  Lu  Lu5  1  0.75000533  0.76274698  0.76273501  1
  Lu  Lu6  1  0.74999523  0.00000376  0.23725326  1
  Lu  Lu7  1  0.25000381  0.76276297  -0.00000091  1
  Lu  Lu8  1  0.24999254  0.23724746  0.23726469  1
  Lu  Lu9  1  0.25000420  0.99997543  0.76273902  1
  Sn  Sn0  1  0.74999000  0.60539736  0.00002942  1
  Sn  Sn1  1  0.75000770  0.39465343  0.39462414  1
  Sn  Sn2  1  0.75000658  0.99996336  0.60534580  1
  Sn  Sn3  1  0.24999058  0.39464821  0.00003336  1
  Sn  Sn4  1  0.25000778  0.60538363  0.60535144  1
  Sn  Sn5  1  0.25000628  0.99997306  0.39461455  1
loop_
_geom_bond_atom_site_label_1
_geom_bond_atom_site_label_2
_geom_bond_distance
_geom_bond_site_symmetry_2
Lu0 Sn5 3.113996 1_545
Lu0 Sn1 3.114008 1_555
Lu0 Sn4 3.114025 1_555
Lu0 Sn0 3.114160 1_556
Lu0 Sn2 3.114170 1_545
Lu0 Sn3 3.114260 1_556
Lu1 Sn4 3.113599 1_555
Lu1 Sn1 3.113616 1_555
Lu1 Sn2 3.113658 1_555
Lu1 Sn3 3.113791 1_555
Lu1 Sn0 3.113833 1_555
Lu1 Sn5 3.113836 1_555
Lu2 Sn2 3.113535 1_455
Lu2 Sn1 3.113621 1_455
Lu2 Sn4 3.113634 1_555
Lu2 Sn5 3.113801 1_555
Lu2 Sn3 3.113814 1_555
Lu2 Sn0 3.113930 1_455
Lu3 Sn1 3.113922 1_455
Lu3 Sn4 3.114026 1_555
Lu3 Sn5 3.114109 1_545
Lu3 Sn0 3.114181 1_456
Lu3 Sn2 3.114186 1_445
Lu3 Sn3 3.114199 1_556
Lu4 Sn1 2.996342 1_555
Lu4 Sn2 2.996645 1_544
Lu4 Sn0 3.205987 1_555
Lu4 Sn3 3.466601 1_655
Lu4 Sn3 3.466672 1_555
Lu5 Sn2 2.996255 1_555
Lu5 Sn0 2.996604 1_556
Lu5 Sn1 3.205580 1_555
Lu5 Sn4 3.466541 1_555
Lu5 Sn4 3.466575 1_655
Lu6 Sn0 2.996239 1_545
Lu6 Sn1 2.996602 1_555
Lu6 Sn2 3.205702 1_545
Lu6 Sn5 3.466512 1_545
Lu6 Sn5 3.466636 1_645
Lu7 Sn5 2.996294 1_555
Lu7 Sn4 2.996585 1_554
Lu7 Sn3 3.205861 1_555
Lu7 Sn0 3.466506 1_555
Lu7 Sn0 3.466668 1_455
Lu8 Sn5 2.996444 1_545
Lu8 Sn3 2.996457 1_555
Lu8 Sn4 3.205660 1_555
Lu8 Sn1 3.466504 1_455
Lu8 Sn1 3.466676 1_555
Lu9 Sn4 2.996123 1_555
Lu9 Sn3 2.996774 1_566
Lu9 Sn5 3.205794 1_555
Lu9 Sn2 3.466594 1_455
Lu9 Sn2 3.466627 1_555
