# generated using pymatgen
data_BaNb4(FeO7)2
_symmetry_space_group_name_H-M   'P 1'
_cell_length_a   8.21328551
_cell_length_b   8.21328551
_cell_length_c   10.95879884
_cell_angle_alpha   82.88894919
_cell_angle_beta   82.88894919
_cell_angle_gamma   88.42884435
_symmetry_Int_Tables_number   1
_chemical_formula_structural   BaNb4(FeO7)2
_chemical_formula_sum   'Ba2 Nb8 Fe4 O28'
_cell_volume   727.87548457
_cell_formula_units_Z   2
loop_
 _symmetry_equiv_pos_site_id
 _symmetry_equiv_pos_as_xyz
  1  'x, y, z'
loop_
 _atom_site_type_symbol
 _atom_site_label
 _atom_site_symmetry_multiplicity
 _atom_site_fract_x
 _atom_site_fract_y
 _atom_site_fract_z
 _atom_site_occupancy
  Ba  Ba0  1  0.50000000  0.00000000  0.50000000  1
  Ba  Ba1  1  0.00000000  0.50000000  0.00000000  1
  Nb  Nb0  1  0.12735500  0.75323100  0.55546700  1
  Nb  Nb1  1  0.24676900  0.87264500  0.94453300  1
  Nb  Nb2  1  0.87264500  0.24676900  0.44453300  1
  Nb  Nb3  1  0.75323100  0.12735500  0.05546700  1
  Nb  Nb4  1  0.75536500  0.66917200  0.71049100  1
  Nb  Nb5  1  0.33082800  0.24463500  0.78950900  1
  Nb  Nb6  1  0.24463500  0.33082800  0.28950900  1
  Nb  Nb7  1  0.66917200  0.75536500  0.21049100  1
  Fe  Fe0  1  0.95075400  0.04924600  0.75000000  1
  Fe  Fe1  1  0.04924600  0.95075400  0.25000000  1
  Fe  Fe2  1  0.50000000  0.50000000  0.50000000  1
  Fe  Fe3  1  0.50000000  0.50000000  0.00000000  1
  O  O0  1  0.14365600  0.95280200  0.61838100  1
  O  O1  1  0.04719800  0.85634400  0.88161900  1
  O  O2  1  0.85634400  0.04719800  0.38161900  1
  O  O3  1  0.95280200  0.14365600  0.11838100  1
  O  O4  1  0.32583800  0.65048800  0.56838300  1
  O  O5  1  0.34951200  0.67416200  0.93161700  1
  O  O6  1  0.67416200  0.34951200  0.43161700  1
  O  O7  1  0.65048800  0.32583800  0.06838300  1
  O  O8  1  0.10372600  0.79087100  0.38879500  1
  O  O9  1  0.20912900  0.89627400  0.11120500  1
  O  O10  1  0.89627400  0.20912900  0.61120500  1
  O  O11  1  0.79087100  0.10372600  0.88879500  1
  O  O12  1  0.97696100  0.60042700  0.66237300  1
  O  O13  1  0.39957300  0.02303900  0.83762700  1
  O  O14  1  0.02303900  0.39957300  0.33762700  1
  O  O15  1  0.60042700  0.97696100  0.16237300  1
  O  O16  1  0.77721800  0.89497800  0.70908400  1
  O  O17  1  0.10502200  0.22278200  0.79091600  1
  O  O18  1  0.22278200  0.10502200  0.29091600  1
  O  O19  1  0.89497800  0.77721800  0.20908400  1
  O  O20  1  0.63734500  0.64259000  0.58329600  1
  O  O21  1  0.35741000  0.36265500  0.91670400  1
  O  O22  1  0.36265500  0.35741000  0.41670400  1
  O  O23  1  0.64259000  0.63734500  0.08329600  1
  O  O24  1  0.68421900  0.54442300  0.85984100  1
  O  O25  1  0.45557700  0.31578100  0.64015900  1
  O  O26  1  0.31578100  0.45557700  0.14015900  1
  O  O27  1  0.54442300  0.68421900  0.35984100  1
loop_
_geom_bond_atom_site_label_1
_geom_bond_atom_site_label_2
_geom_bond_distance
_geom_bond_site_symmetry_2
Ba0 O0 3.065425 1_545
Ba0 O2 3.065425 1_555
Ba0 O25 3.164611 1_555
Ba0 O27 3.164611 1_545
Ba0 O22 3.183221 1_555
Ba0 O20 3.183221 1_545
Ba0 O6 3.205542 1_555
Ba0 O4 3.205542 1_545
Ba0 O16 3.445708 1_545
Ba0 O18 3.445708 1_555
Ba1 O3 3.065425 1_455
Ba1 O1 3.065425 1_554
Ba1 O24 3.164611 1_454
Ba1 O26 3.164611 1_555
Ba1 O23 3.183221 1_455
Ba1 O21 3.183221 1_554
Ba1 O5 3.205542 1_554
Ba1 O7 3.205542 1_455
Ba1 O19 3.445708 1_455
Ba1 O17 3.445708 1_554
Nb0 O4 1.828058 1_555
Nb0 O8 1.847728 1_555
Nb0 O0 1.869420 1_555
Nb0 O12 1.958599 1_455
Nb1 O5 1.828058 1_555
Nb1 O9 1.847728 1_556
Nb1 O1 1.869420 1_555
Nb1 O13 1.958599 1_565
Nb2 O6 1.828058 1_555
Nb2 O10 1.847728 1_555
Nb2 O2 1.869420 1_555
Nb2 O14 1.958599 1_655
Nb3 O7 1.828058 1_555
Nb3 O11 1.847728 1_554
Nb3 O3 1.869420 1_555
Nb3 O15 1.958599 1_545
Nb4 O20 1.830770 1_555
Nb4 O24 1.857656 1_555
Nb4 O16 1.866150 1_555
Nb4 O12 1.920708 1_555
Nb5 O21 1.830770 1_555
Nb5 O25 1.857656 1_555
Nb5 O17 1.866150 1_555
Nb5 O13 1.920708 1_555
Nb6 O22 1.830770 1_555
Nb6 O26 1.857656 1_555
Nb6 O18 1.866150 1_555
Nb6 O14 1.920708 1_555
Nb7 O23 1.830770 1_555
Nb7 O27 1.857656 1_555
Nb7 O19 1.866150 1_555
Nb7 O15 1.920708 1_555
Fe0 O10 1.969749 1_555
Fe0 O11 1.969749 1_555
Fe0 O17 2.058122 1_655
Fe0 O16 2.058122 1_545
Fe0 O0 2.205989 1_645
Fe0 O1 2.205989 1_645
Fe1 O9 1.969749 1_555
Fe1 O8 1.969749 1_555
Fe1 O19 2.058122 1_455
Fe1 O18 2.058122 1_565
Fe1 O2 2.205989 1_465
Fe1 O3 2.205989 1_465
Fe2 O4 2.000607 1_555
Fe2 O6 2.000607 1_555
Fe2 O22 2.017268 1_555
Fe2 O20 2.017268 1_555
Fe2 O27 2.024296 1_555
Fe2 O25 2.024296 1_555
Fe3 O7 2.000607 1_555
Fe3 O5 2.000607 1_554
Fe3 O21 2.017268 1_554
Fe3 O23 2.017268 1_555
Fe3 O26 2.024296 1_555
Fe3 O24 2.024296 1_554
