# generated using pymatgen
data_CsRbAu2
_symmetry_space_group_name_H-M   'P 1'
_cell_length_a   13.34324668
_cell_length_b   13.34324668
_cell_length_c   13.34324668
_cell_angle_alpha   121.01742506
_cell_angle_beta   119.70016791
_cell_angle_gamma   89.38348834
_symmetry_Int_Tables_number   1
_chemical_formula_structural   CsRbAu2
_chemical_formula_sum   'Cs1 Rb1 Au2'
_cell_volume   1670.35164896
_cell_formula_units_Z   1
loop_
 _symmetry_equiv_pos_site_id
 _symmetry_equiv_pos_as_xyz
  1  'x, y, z'
loop_
 _atom_site_type_symbol
 _atom_site_label
 _atom_site_symmetry_multiplicity
 _atom_site_fract_x
 _atom_site_fract_y
 _atom_site_fract_z
 _atom_site_occupancy
  Cs  Cs0  1  0.00000000  0.50000000  0.50000000  1
  Rb  Rb0  1  0.00000000  0.00000000  0.00000000  1
  Au  Au0  1  0.00000000  0.24581900  0.24581900  1
  Au  Au1  1  0.00000000  0.75418100  0.75418100  1
loop_
_geom_bond_atom_site_label_1
_geom_bond_atom_site_label_2
_geom_bond_distance
_geom_bond_site_symmetry_2
Au0 Rb0 3.229454 1_555
Au0 Cs0 3.339309 1_555
Au1 Rb0 3.229454 1_566
Au1 Cs0 3.339309 1_555
