# generated using pymatgen
data_U
_symmetry_space_group_name_H-M   'P 1'
_cell_length_a   5.79102031
_cell_length_b   5.79101890
_cell_length_c   5.79102002
_cell_angle_alpha   109.47121822
_cell_angle_beta   109.47121325
_cell_angle_gamma   109.47123296
_symmetry_Int_Tables_number   1
_chemical_formula_structural   U
_chemical_formula_sum   U8
_cell_volume   149.50070210
_cell_formula_units_Z   8
loop_
 _symmetry_equiv_pos_site_id
 _symmetry_equiv_pos_as_xyz
  1  'x, y, z'
loop_
 _atom_site_type_symbol
 _atom_site_label
 _atom_site_symmetry_multiplicity
 _atom_site_fract_x
 _atom_site_fract_y
 _atom_site_fract_z
 _atom_site_occupancy
  U  U0_0  1  0.00000000  0.00000000  0.00000000  1
  U  U0_1  1  0.00000000  0.00000000  0.50000000  1
  U  U0_2  1  0.00000000  0.50000000  0.00000000  1
  U  U0_3  1  0.00000000  0.50000000  0.50000000  1
  U  U0_4  1  0.50000000  0.00000000  0.00000000  1
  U  U0_5  1  0.50000000  0.00000000  0.50000000  1
  U  U0_6  1  0.50000000  0.50000000  0.00000000  1
  U  U0_7  1  0.50000000  0.50000000  0.50000000  1
loop_
_geom_bond_atom_site_label_1
_geom_bond_atom_site_label_2
_geom_bond_distance
_geom_bond_site_symmetry_2
U0_0 U0_2 2.895509 1_555
U0_0 U0_2 2.895509 1_545
U0_0 U0_7 2.895510 1_444
U0_0 U0_7 2.895510 1_555
U0_0 U0_1 2.895510 1_555
U0_0 U0_1 2.895510 1_554
U0_0 U0_4 2.895510 1_555
U0_0 U0_4 2.895510 1_455
U0_1 U0_3 2.895509 1_555
U0_1 U0_3 2.895509 1_545
U0_1 U0_6 2.895510 1_556
U0_1 U0_6 2.895510 1_445
U0_1 U0_5 2.895510 1_455
U0_1 U0_5 2.895510 1_555
U0_2 U0_5 2.895510 1_454
U0_2 U0_5 2.895510 1_565
U0_2 U0_3 2.895510 1_555
U0_2 U0_3 2.895510 1_554
U0_2 U0_6 2.895510 1_455
U0_2 U0_6 2.895510 1_555
U0_3 U0_4 2.895510 1_566
U0_3 U0_4 2.895510 1_455
U0_3 U0_7 2.895510 1_555
U0_3 U0_7 2.895510 1_455
U0_4 U0_6 2.895509 1_555
U0_4 U0_6 2.895509 1_545
U0_4 U0_5 2.895510 1_554
U0_4 U0_5 2.895510 1_555
U0_5 U0_7 2.895509 1_555
U0_5 U0_7 2.895509 1_545
U0_6 U0_7 2.895510 1_554
U0_6 U0_7 2.895510 1_555
