# generated using pymatgen
data_K2RbCO3F
_symmetry_space_group_name_H-M   'P 1'
_cell_length_a   7.14967642
_cell_length_b   7.14967642
_cell_length_c   7.20879551
_cell_angle_alpha   64.53668685
_cell_angle_beta   64.53668685
_cell_angle_gamma   64.68700922
_symmetry_Int_Tables_number   1
_chemical_formula_structural   K2RbCO3F
_chemical_formula_sum   'K4 Rb2 C2 O6 F2'
_cell_volume   286.75907471
_cell_formula_units_Z   2
loop_
 _symmetry_equiv_pos_site_id
 _symmetry_equiv_pos_as_xyz
  1  'x, y, z'
loop_
 _atom_site_type_symbol
 _atom_site_label
 _atom_site_symmetry_multiplicity
 _atom_site_fract_x
 _atom_site_fract_y
 _atom_site_fract_z
 _atom_site_occupancy
  K  K0  1  0.68346300  0.31653700  0.00000000  1
  K  K1  1  0.18358500  0.25024600  0.06625100  1
  K  K2  1  0.31654800  0.68345200  0.50000000  1
  K  K3  1  0.74975400  0.81641500  0.93374900  1
  Rb  Rb0  1  0.25013200  0.18582200  0.56416000  1
  Rb  Rb1  1  0.81417800  0.74986800  0.43584000  1
  C  C0  1  0.25065400  0.74934600  0.00000000  1
  C  C1  1  0.75003100  0.24996900  0.50000000  1
  O  O0  1  0.25206400  0.57754400  0.17067000  1
  O  O1  1  0.42245600  0.74793600  0.82933000  1
  O  O2  1  0.07903200  0.92096800  0.00000000  1
  O  O3  1  0.58024800  0.25133100  0.67265600  1
  O  O4  1  0.92155700  0.07844300  0.50000000  1
  O  O5  1  0.74866900  0.41975200  0.32734400  1
  F  F0  1  0.49855900  0.00093000  0.24000000  1
  F  F1  1  0.99907000  0.50144100  0.76000000  1
loop_
_geom_bond_atom_site_label_1
_geom_bond_atom_site_label_2
_geom_bond_distance
_geom_bond_site_symmetry_2
K0 O1 2.880741 1_554
K0 O0 2.880741 1_555
K0 O5 3.011293 1_555
K0 O3 3.011293 1_554
K0 O2 3.026130 1_645
K1 O5 2.895986 1_455
K1 O4 2.902368 1_455
K1 O0 3.015544 1_555
K1 O2 3.017936 1_545
K1 O3 3.028914 1_554
K2 O5 2.894682 1_555
K2 O3 2.894682 1_555
K2 O4 3.021708 1_465
K2 O1 3.034400 1_555
K2 O0 3.034400 1_555
K3 O3 2.895986 1_565
K3 O4 2.902368 1_565
K3 O1 3.015544 1_555
K3 O2 3.017936 1_656
K3 O5 3.028914 1_556
C0 O1 1.312708 1_554
C0 O0 1.312708 1_555
C0 O2 1.312920 1_555
C1 O4 1.312186 1_555
C1 O3 1.312989 1_555
C1 O5 1.312989 1_555
O0 Rb1 2.924773 1_455
O0 Rb0 3.009741 1_555
O1 Rb0 2.924773 1_565
O1 Rb1 3.009741 1_555
O2 Rb1 2.917858 1_455
O2 Rb0 2.917858 1_564
O3 Rb0 3.041272 1_555
O4 Rb0 3.017276 1_655
O4 Rb1 3.017276 1_545
O5 Rb1 3.041272 1_555
F0 K1 2.624976 1_555
F0 K3 2.628448 1_544
F0 K0 2.657073 1_555
F0 K2 2.670039 1_545
F0 Rb1 2.721000 1_545
F0 Rb0 2.728069 1_555
F1 K3 2.624976 1_555
F1 K1 2.628448 1_656
F1 K0 2.657073 1_556
F1 K2 2.670039 1_655
F1 Rb0 2.721000 1_655
F1 Rb1 2.728069 1_555
