# generated using pymatgen
data_NaCa3MgFe(Si2O7)2
_symmetry_space_group_name_H-M   'P 1'
_cell_length_a   5.08440200
_cell_length_b   7.88849861
_cell_length_c   7.93436662
_cell_angle_alpha   89.56030098
_cell_angle_beta   89.23033237
_cell_angle_gamma   89.29532791
_symmetry_Int_Tables_number   1
_chemical_formula_structural   NaCa3MgFe(Si2O7)2
_chemical_formula_sum   'Na1 Ca3 Mg1 Fe1 Si4 O14'
_cell_volume   318.17218985
_cell_formula_units_Z   1
loop_
 _symmetry_equiv_pos_site_id
 _symmetry_equiv_pos_as_xyz
  1  'x, y, z'
loop_
 _atom_site_type_symbol
 _atom_site_label
 _atom_site_symmetry_multiplicity
 _atom_site_fract_x
 _atom_site_fract_y
 _atom_site_fract_z
 _atom_site_occupancy
  Na  Na0  1  0.50335100  0.82262500  0.33339900  1
  Ca  Ca0  1  0.49614000  0.34937000  0.18024600  1
  Ca  Ca1  1  0.51302300  0.16537000  0.65262900  1
  Ca  Ca2  1  0.49131500  0.66351200  0.83194000  1
  Mg  Mg0  1  0.99996900  0.50053100  0.50015300  1
  Fe  Fe0  1  0.00367600  0.00110900  0.00071700  1
  Si  Si0  1  0.93981300  0.63384100  0.13416400  1
  Si  Si1  1  0.06283600  0.14493200  0.36366800  1
  Si  Si2  1  0.93541200  0.35692300  0.85503400  1
  Si  Si3  1  0.06045900  0.86248800  0.64582200  1
  O  O0  1  0.25721300  0.62574700  0.12201500  1
  O  O1  1  0.74729800  0.16274800  0.36563700  1
  O  O2  1  0.25176000  0.34965100  0.85089600  1
  O  O3  1  0.74543300  0.87024300  0.66659300  1
  O  O4  1  0.79480900  0.57612300  0.30830700  1
  O  O5  1  0.19797100  0.09385800  0.17932900  1
  O  O6  1  0.78207700  0.41017200  0.68277800  1
  O  O7  1  0.21983800  0.92802000  0.81691300  1
  O  O8  1  0.19814800  0.68017800  0.60446200  1
  O  O9  1  0.78772600  0.18013600  0.91881000  1
  O  O10  1  0.22460800  0.31329600  0.42134000  1
  O  O11  1  0.80134400  0.81515100  0.07359700  1
  O  O12  1  0.17516300  0.99606700  0.49750000  1
  O  O13  1  0.81062000  0.49791000  0.99405100  1
loop_
_geom_bond_atom_site_label_1
_geom_bond_atom_site_label_2
_geom_bond_distance
_geom_bond_site_symmetry_2
Na0 O4 2.438026 1_555
Na0 O12 2.502886 1_555
Na0 O11 2.542447 1_555
Na0 O0 2.633508 1_555
Na0 O8 2.865727 1_555
Na0 O5 2.900395 1_565
Na0 O3 2.959589 1_555
Na0 O1 2.983883 1_565
Ca0 O10 2.361488 1_555
Ca0 O1 2.435711 1_555
Ca0 O13 2.463376 1_554
Ca0 O0 2.525263 1_555
Ca0 O5 2.537064 1_555
Ca0 O4 2.583444 1_555
Ca0 O9 2.862551 1_554
Ca0 O2 2.908553 1_554
Ca1 O6 2.395553 1_555
Ca1 O2 2.506786 1_555
Ca1 O12 2.527456 1_545
Ca1 O9 2.551826 1_555
Ca1 O1 2.555718 1_555
Ca1 O3 2.600114 1_545
Ca1 O10 2.622426 1_555
Ca1 O7 2.721362 1_545
Ca2 O8 2.358085 1_555
Ca2 O13 2.444341 1_555
Ca2 O3 2.454273 1_555
Ca2 O7 2.490578 1_555
Ca2 O0 2.593699 1_556
Ca2 O6 2.738015 1_555
Ca2 O2 2.774835 1_555
Ca2 O11 2.784753 1_556
Mg0 O4 1.942710 1_555
Mg0 O8 1.945275 1_655
Mg0 O6 1.948203 1_555
Mg0 O10 1.957189 1_655
Fe0 O11 1.884856 1_445
Fe0 O9 1.894545 1_454
Fe0 O5 1.894965 1_555
Fe0 O7 1.903008 1_544
O0 Si0 1.615879 1_455
O1 Si1 1.608620 1_655
O2 Si2 1.608661 1_455
O3 Si3 1.608434 1_655
O4 Si0 1.622105 1_555
O5 Si1 1.657975 1_555
O6 Si2 1.632174 1_555
O7 Si3 1.678490 1_555
O8 Si3 1.625538 1_555
O9 Si2 1.664177 1_555
O10 Si1 1.642005 1_555
O11 Si0 1.657114 1_555
O12 Si3 1.677226 1_555
O12 Si1 1.677329 1_565
O13 Si2 1.684880 1_555
O13 Si0 1.694822 1_556
