# generated using pymatgen
data_Li9Mn2Co5O16
_symmetry_space_group_name_H-M   'P 1'
_cell_length_a   2.94710000
_cell_length_b   5.09649319
_cell_length_c   19.37871848
_cell_angle_alpha   94.16527601
_cell_angle_beta   91.18486982
_cell_angle_gamma   91.51229603
_symmetry_Int_Tables_number   1
_chemical_formula_structural   Li9Mn2Co5O16
_chemical_formula_sum   'Li9 Mn2 Co5 O16'
_cell_volume   290.12148345
_cell_formula_units_Z   1
loop_
 _symmetry_equiv_pos_site_id
 _symmetry_equiv_pos_as_xyz
  1  'x, y, z'
loop_
 _atom_site_type_symbol
 _atom_site_label
 _atom_site_symmetry_multiplicity
 _atom_site_fract_x
 _atom_site_fract_y
 _atom_site_fract_z
 _atom_site_occupancy
  Li  Li0  1  0.99482600  0.38406500  0.12637400  1
  Li  Li1  1  0.49140700  0.61750800  0.38547700  1
  Li  Li2  1  0.01162100  0.88111600  0.61913400  1
  Li  Li3  1  0.50113800  0.11998900  0.87174400  1
  Li  Li4  1  0.50363500  0.86855000  0.12512400  1
  Li  Li5  1  0.99078000  0.11873200  0.38163500  1
  Li  Li6  1  0.50092000  0.38763700  0.62022700  1
  Li  Li7  1  0.00107700  0.61548100  0.87211200  1
  Li  Li8  1  0.00020300  0.49999300  0.50073800  1
  Mn  Mn0  1  0.99975700  0.99894800  0.99984900  1
  Mn  Mn1  1  0.49813600  0.25037300  0.25227100  1
  Co  Co0  1  0.50152500  0.75139900  0.74713400  1
  Co  Co1  1  0.49886700  0.49810900  0.99955400  1
  Co  Co2  1  0.99795600  0.75026200  0.25266900  1
  Co  Co3  1  0.50129400  0.00046500  0.50003000  1
  Co  Co4  1  0.00186900  0.25108000  0.74732300  1
  O  O0  1  0.45514900  0.20275000  0.05887500  1
  O  O1  1  0.01131300  0.40843100  0.30856700  1
  O  O2  1  0.50040500  0.73175700  0.55448800  1
  O  O3  1  0.98671600  0.92495300  0.80547500  1
  O  O4  1  0.00536400  0.69899000  0.05881300  1
  O  O5  1  0.50119000  0.94905600  0.30672500  1
  O  O6  1  0.01252100  0.16940100  0.55423900  1
  O  O7  1  0.48360100  0.42715500  0.80573400  1
  O  O8  1  0.49677300  0.55170900  0.19578800  1
  O  O9  1  0.99183000  0.82809500  0.44455400  1
  O  O10  1  0.51887200  0.07907500  0.69100100  1
  O  O11  1  0.99091600  0.30026500  0.94250500  1
  O  O12  1  0.98385000  0.09319500  0.19585200  1
  O  O13  1  0.50225600  0.27134500  0.44533500  1
  O  O14  1  0.02098600  0.57643900  0.68910500  1
  O  O15  1  0.54325100  0.79367700  0.94154800  1
loop_
_geom_bond_atom_site_label_1
_geom_bond_atom_site_label_2
_geom_bond_distance
_geom_bond_site_symmetry_2
Li0 O12 2.073788 1_555
Li0 O0 2.090279 1_655
Li0 O8 2.100420 1_655
Li0 O4 2.143704 1_655
Li0 O8 2.162129 1_555
Li0 O0 2.180669 1_555
Li1 O9 2.075015 1_555
Li1 O9 2.145886 1_455
Li1 O13 2.181225 1_555
Li1 O1 2.227368 1_555
Li1 O5 2.357732 1_555
Li1 O1 2.377890 1_655
Li2 O6 2.002133 1_565
Li2 O2 2.035086 1_455
Li2 O2 2.053739 1_555
Li2 O14 2.134730 1_555
Li2 O10 2.196001 1_565
Li2 O10 2.241238 1_465
Li3 O7 2.093354 1_555
Li3 O11 2.114969 1_555
Li3 O3 2.142463 1_445
Li3 O3 2.156565 1_545
Li3 O15 2.222995 1_545
Li3 O11 2.227266 1_455
Li4 O4 2.061087 1_555
Li4 O4 2.137560 1_655
Li4 O12 2.190570 1_565
Li4 O8 2.191747 1_555
Li4 O0 2.211917 1_565
Li4 O12 2.342527 1_465
Li5 O9 1.985740 1_545
Li5 O13 2.030423 1_655
Li5 O13 2.048100 1_555
Li5 O1 2.119208 1_655
Li5 O5 2.145262 1_545
Li5 O5 2.257084 1_645
Li6 O6 2.139353 1_555
Li6 O14 2.161341 1_555
Li6 O10 2.161380 1_555
Li6 O14 2.169698 1_655
Li6 O2 2.241289 1_555
Li6 O6 2.259917 1_655
Li7 O15 2.101930 1_455
Li7 O3 2.110477 1_455
Li7 O7 2.136326 1_455
Li7 O7 2.136914 1_555
Li7 O11 2.181757 1_455
Li7 O15 2.201234 1_555
Li8 O6 2.042159 1_555
Li8 O9 2.061003 1_455
Li8 O2 2.078246 1_555
Li8 O13 2.080148 1_455
Li8 O2 2.150882 1_455
Li8 O13 2.162130 1_555
Mn0 O11 1.960262 1_565
Mn0 O15 1.967756 1_555
Mn0 O0 1.969460 1_666
Mn0 O4 1.974145 1_656
Mn0 O15 2.219917 1_655
Mn0 O0 2.225901 1_566
Mn1 O5 1.925520 1_545
Mn1 O8 1.949611 1_555
Mn1 O1 1.966255 1_655
Mn1 O12 1.968353 1_455
Mn1 O12 1.970818 1_555
Mn1 O1 1.973712 1_555
Co0 O14 1.946045 1_555
Co0 O3 1.956097 1_555
Co0 O10 2.058269 1_565
Co0 O7 2.072105 1_555
Co0 O3 2.087809 1_455
Co0 O14 2.097835 1_655
Co1 O15 1.947164 1_555
Co1 O0 1.962467 1_556
Co1 O11 2.042011 1_455
Co1 O4 2.067047 1_656
Co1 O11 2.079252 1_555
Co1 O4 2.111646 1_556
Co2 O5 2.006390 1_655
Co2 O8 2.027903 1_555
Co2 O5 2.062693 1_555
Co2 O8 2.093705 1_655
Co2 O1 2.118015 1_655
Co2 O12 2.133110 1_565
Co3 O2 1.788585 1_545
Co3 O13 1.800501 1_555
Co3 O6 1.962010 1_655
Co3 O9 1.976924 1_445
Co3 O6 1.978997 1_555
Co3 O9 2.002877 1_545
Co4 O10 1.927901 1_455
Co4 O7 1.954700 1_555
Co4 O10 2.069191 1_555
Co4 O14 2.072447 1_555
Co4 O3 2.074794 1_445
Co4 O7 2.101365 1_455
