# generated using pymatgen
data_ZnIn2O4
_symmetry_space_group_name_H-M   'P 1'
_cell_length_a   3.18702500
_cell_length_b   9.89524600
_cell_length_c   11.04403600
_cell_angle_alpha   90.00000000
_cell_angle_beta   90.00000000
_cell_angle_gamma   90.00000000
_symmetry_Int_Tables_number   1
_chemical_formula_structural   ZnIn2O4
_chemical_formula_sum   'Zn4 In8 O16'
_cell_volume   348.28909697
_cell_formula_units_Z   4
loop_
 _symmetry_equiv_pos_site_id
 _symmetry_equiv_pos_as_xyz
  1  'x, y, z'
loop_
 _atom_site_type_symbol
 _atom_site_label
 _atom_site_symmetry_multiplicity
 _atom_site_fract_x
 _atom_site_fract_y
 _atom_site_fract_z
 _atom_site_occupancy
  Zn  Zn0  1  0.25000000  0.22833500  0.14281300  1
  Zn  Zn1  1  0.25000000  0.72833500  0.35718700  1
  Zn  Zn2  1  0.75000000  0.77166500  0.85718700  1
  Zn  Zn3  1  0.75000000  0.27166500  0.64281300  1
  In  In0  1  0.25000000  0.93101100  0.12311100  1
  In  In1  1  0.25000000  0.43101100  0.37688900  1
  In  In2  1  0.75000000  0.06898900  0.87688900  1
  In  In3  1  0.75000000  0.56898900  0.62311100  1
  In  In4  1  0.25000000  0.90592600  0.60300000  1
  In  In5  1  0.25000000  0.40592600  0.89700000  1
  In  In6  1  0.75000000  0.09407400  0.39700000  1
  In  In7  1  0.75000000  0.59407400  0.10300000  1
  O  O0  1  0.25000000  0.69814700  0.68538200  1
  O  O1  1  0.25000000  0.19814700  0.81461800  1
  O  O2  1  0.75000000  0.30185300  0.31461800  1
  O  O3  1  0.75000000  0.80185300  0.18538200  1
  O  O4  1  0.25000000  0.62346200  0.95971200  1
  O  O5  1  0.25000000  0.12346200  0.54028800  1
  O  O6  1  0.75000000  0.37653800  0.04028800  1
  O  O7  1  0.75000000  0.87653800  0.45971200  1
  O  O8  1  0.25000000  0.06926900  0.27119000  1
  O  O9  1  0.25000000  0.56926900  0.22881000  1
  O  O10  1  0.75000000  0.93073100  0.72881000  1
  O  O11  1  0.75000000  0.43073100  0.77119000  1
  O  O12  1  0.25000000  0.90166700  0.93162800  1
  O  O13  1  0.25000000  0.40166700  0.56837200  1
  O  O14  1  0.75000000  0.09833300  0.06837200  1
  O  O15  1  0.75000000  0.59833300  0.43162800  1
loop_
_geom_bond_atom_site_label_1
_geom_bond_atom_site_label_2
_geom_bond_distance
_geom_bond_site_symmetry_2
In0 O8 2.132179 1_565
In0 O12 2.134586 1_554
In0 O3 2.155379 1_555
In0 O3 2.155379 1_455
In0 O14 2.376145 1_465
In0 O14 2.376145 1_565
In1 O9 2.132179 1_555
In1 O13 2.134586 1_555
In1 O2 2.155379 1_455
In1 O2 2.155379 1_555
In1 O15 2.376145 1_455
In1 O15 2.376145 1_555
In2 O10 2.132179 1_545
In2 O14 2.134586 1_556
In2 O1 2.155379 1_555
In2 O1 2.155379 1_655
In2 O12 2.376145 1_545
In2 O12 2.376145 1_645
In3 O11 2.132179 1_555
In3 O15 2.134586 1_555
In3 O0 2.155379 1_555
In3 O0 2.155379 1_655
In3 O13 2.376145 1_555
In3 O13 2.376145 1_655
In4 O10 2.128403 1_455
In4 O10 2.128403 1_555
In4 O0 2.248339 1_555
In4 O5 2.261250 1_565
In4 O7 2.264527 1_455
In4 O7 2.264527 1_555
In5 O11 2.128403 1_555
In5 O11 2.128403 1_455
In5 O1 2.248339 1_555
In5 O4 2.261250 1_555
In5 O6 2.264527 1_456
In5 O6 2.264527 1_556
In6 O8 2.128403 1_555
In6 O8 2.128403 1_655
In6 O2 2.248339 1_555
In6 O7 2.261250 1_545
In6 O5 2.264527 1_655
In6 O5 2.264527 1_555
In7 O9 2.128403 1_555
In7 O9 2.128403 1_655
In7 O3 2.248339 1_555
In7 O6 2.261250 1_555
In7 O4 2.264527 1_554
In7 O4 2.264527 1_654
O0 Zn2 2.582385 1_455
O0 Zn2 2.582385 1_555
O1 Zn3 2.582385 1_555
O1 Zn3 2.582385 1_455
O2 Zn0 2.582385 1_655
O2 Zn0 2.582385 1_555
O3 Zn1 2.582385 1_555
O3 Zn1 2.582385 1_655
O4 Zn2 2.443767 1_555
O4 Zn2 2.443767 1_455
O5 Zn3 2.443767 1_455
O5 Zn3 2.443767 1_555
O6 Zn0 2.443767 1_555
O6 Zn0 2.443767 1_655
O7 Zn1 2.443767 1_555
O7 Zn1 2.443767 1_655
O8 Zn0 2.118401 1_555
O9 Zn1 2.118401 1_555
O10 Zn2 2.118401 1_555
O11 Zn3 2.118401 1_555
O12 Zn2 2.206809 1_455
O12 Zn2 2.206809 1_555
O13 Zn3 2.206809 1_455
O13 Zn3 2.206809 1_555
O14 Zn0 2.206809 1_655
O14 Zn0 2.206809 1_555
O15 Zn1 2.206809 1_555
O15 Zn1 2.206809 1_655
