# generated using pymatgen
data_ZrAlCr3
_symmetry_space_group_name_H-M   'P 1'
_cell_length_a   6.37712777
_cell_length_b   5.34676700
_cell_length_c   4.91769700
_cell_angle_alpha   90.00000000
_cell_angle_beta   90.00000000
_cell_angle_gamma   65.21499874
_symmetry_Int_Tables_number   1
_chemical_formula_structural   ZrAlCr3
_chemical_formula_sum   'Zr2 Al2 Cr6'
_cell_volume   152.23344009
_cell_formula_units_Z   2
loop_
 _symmetry_equiv_pos_site_id
 _symmetry_equiv_pos_as_xyz
  1  'x, y, z'
loop_
 _atom_site_type_symbol
 _atom_site_label
 _atom_site_symmetry_multiplicity
 _atom_site_fract_x
 _atom_site_fract_y
 _atom_site_fract_z
 _atom_site_occupancy
  Zr  Zr0  1  0.19949100  0.40025400  0.75000000  1
  Zr  Zr1  1  0.80050900  0.59974600  0.25000000  1
  Al  Al0  1  0.00000000  0.00000000  0.50000000  1
  Al  Al1  1  0.00000000  0.00000000  0.00000000  1
  Cr  Cr0  1  0.65141400  0.38779900  0.75000000  1
  Cr  Cr1  1  0.39248200  0.80375900  0.75000000  1
  Cr  Cr2  1  0.65141400  0.96078600  0.75000000  1
  Cr  Cr3  1  0.34858600  0.61220100  0.25000000  1
  Cr  Cr4  1  0.60751800  0.19624100  0.25000000  1
  Cr  Cr5  1  0.34858600  0.03921400  0.25000000  1
loop_
_geom_bond_atom_site_label_1
_geom_bond_atom_site_label_2
_geom_bond_distance
_geom_bond_site_symmetry_2
Al0 Al1 2.458849 1_555
Al0 Al1 2.458849 1_556
Al0 Cr4 2.583621 1_455
Al0 Cr1 2.583621 1_545
Al0 Cr3 2.624470 1_545
Al0 Cr0 2.624470 1_455
Al0 Cr5 2.624472 1_555
Al0 Cr2 2.624472 1_445
Al0 Zr0 3.161086 1_555
Al0 Zr1 3.161086 1_445
Al0 Zr1 3.161090 1_455
Al0 Zr0 3.161090 1_545
Al1 Cr1 2.583621 1_544
Al1 Cr4 2.583621 1_455
Al1 Cr3 2.624470 1_545
Al1 Cr0 2.624470 1_454
Al1 Cr5 2.624472 1_555
Al1 Cr2 2.624472 1_444
Al1 Zr0 3.161086 1_554
Al1 Zr1 3.161086 1_445
Al1 Zr1 3.161090 1_455
Al1 Zr0 3.161090 1_544
Cr0 Cr1 2.143336 1_555
Cr0 Cr2 2.283139 1_545
Cr0 Cr4 2.722811 1_556
Cr0 Cr4 2.722811 1_555
Cr0 Zr0 2.854694 1_555
Cr0 Zr1 3.022838 1_555
Cr0 Zr1 3.022838 1_556
Cr1 Cr2 2.143332 1_555
Cr1 Cr3 2.722811 1_555
Cr1 Cr3 2.722811 1_556
Cr1 Cr5 2.722813 1_565
Cr1 Cr5 2.722813 1_566
Cr1 Zr0 2.897493 1_565
Cr1 Zr0 2.897498 1_555
Cr2 Cr4 2.722813 1_566
Cr2 Cr4 2.722813 1_565
Cr2 Zr0 2.854694 1_565
Cr2 Zr1 3.022833 1_555
Cr2 Zr1 3.022833 1_556
Cr3 Cr4 2.143336 1_555
Cr3 Cr5 2.283139 1_565
Cr3 Zr1 2.854694 1_555
Cr3 Zr0 3.022838 1_555
Cr3 Zr0 3.022838 1_554
Cr4 Cr5 2.143332 1_555
Cr4 Zr1 2.897493 1_545
Cr4 Zr1 2.897498 1_555
Cr5 Zr1 2.854694 1_545
Cr5 Zr0 3.022833 1_555
Cr5 Zr0 3.022833 1_554
