# generated using pymatgen
data_Eu2MnRhO6
_symmetry_space_group_name_H-M   'P 1'
_cell_length_a   5.75529100
_cell_length_b   5.54404500
_cell_length_c   9.43412980
_cell_angle_alpha   54.70537133
_cell_angle_beta   90.00000000
_cell_angle_gamma   90.00000000
_symmetry_Int_Tables_number   1
_chemical_formula_structural   Eu2MnRhO6
_chemical_formula_sum   'Eu4 Mn2 Rh2 O12'
_cell_volume   245.69034320
_cell_formula_units_Z   2
loop_
 _symmetry_equiv_pos_site_id
 _symmetry_equiv_pos_as_xyz
  1  'x, y, z'
loop_
 _atom_site_type_symbol
 _atom_site_label
 _atom_site_symmetry_multiplicity
 _atom_site_fract_x
 _atom_site_fract_y
 _atom_site_fract_z
 _atom_site_occupancy
  Eu  Eu0  1  0.55930200  0.73631600  0.75000900  1
  Eu  Eu1  1  0.05930200  0.26368400  0.74999100  1
  Eu  Eu2  1  0.44069800  0.26368400  0.24999100  1
  Eu  Eu3  1  0.94069800  0.73631600  0.25000900  1
  Mn  Mn0  1  0.50000000  0.00000000  0.00000000  1
  Mn  Mn1  1  0.00000000  0.00000000  0.50000000  1
  Rh  Rh0  1  0.50000000  0.50000000  0.50000000  1
  Rh  Rh1  1  0.00000000  0.50000000  0.00000000  1
  O  O0  1  0.80269400  0.24730200  0.95180600  1
  O  O1  1  0.30269400  0.75269800  0.54819400  1
  O  O2  1  0.20159600  0.35365800  0.45182800  1
  O  O3  1  0.70159600  0.64634200  0.04817200  1
  O  O4  1  0.19730600  0.75269800  0.04819400  1
  O  O5  1  0.69730600  0.24730200  0.45180600  1
  O  O6  1  0.79840400  0.64634200  0.54817200  1
  O  O7  1  0.29840400  0.35365800  0.95182800  1
  O  O8  1  0.97060400  0.85129500  0.74472200  1
  O  O9  1  0.47060400  0.14870500  0.75527800  1
  O  O10  1  0.02939600  0.14870500  0.25527800  1
  O  O11  1  0.52939600  0.85129500  0.24472200  1
loop_
_geom_bond_atom_site_label_1
_geom_bond_atom_site_label_2
_geom_bond_distance
_geom_bond_site_symmetry_2
Eu0 O1 2.369503 1_555
Eu0 O9 2.370986 1_565
Eu0 O7 2.390154 1_555
Eu0 O8 2.444493 1_555
Eu0 O6 2.620282 1_555
Eu0 O0 2.640542 1_555
Eu0 O3 2.685244 1_556
Eu0 O5 2.713164 1_565
Eu1 O0 2.369503 1_455
Eu1 O8 2.370986 1_445
Eu1 O6 2.390154 1_455
Eu1 O9 2.444493 1_555
Eu1 O7 2.620282 1_555
Eu1 O1 2.640542 1_555
Eu1 O2 2.685244 1_555
Eu1 O4 2.713164 1_546
Eu2 O5 2.369503 1_555
Eu2 O11 2.370986 1_545
Eu2 O3 2.390154 1_555
Eu2 O10 2.444493 1_555
Eu2 O2 2.620282 1_555
Eu2 O4 2.640542 1_555
Eu2 O7 2.685244 1_554
Eu2 O1 2.713164 1_545
Eu3 O4 2.369503 1_655
Eu3 O10 2.370986 1_665
Eu3 O2 2.390154 1_655
Eu3 O11 2.444493 1_555
Eu3 O3 2.620282 1_555
Eu3 O5 2.640542 1_555
Eu3 O6 2.685244 1_555
Eu3 O0 2.713164 1_564
Mn0 O9 1.959361 1_554
Mn0 O11 1.959361 1_545
Mn0 O3 2.089821 1_545
Mn0 O7 2.089821 1_554
Mn0 O4 2.097867 1_545
Mn0 O0 2.097867 1_554
Mn1 O10 1.959361 1_555
Mn1 O8 1.959361 1_445
Mn1 O2 2.089821 1_555
Mn1 O6 2.089821 1_445
Mn1 O1 2.097867 1_545
Mn1 O5 2.097867 1_455
O0 Rh1 2.048166 1_656
O1 Rh0 2.048166 1_555
O2 Rh0 2.059206 1_555
O3 Rh1 2.059206 1_655
O4 Rh1 2.048166 1_555
O5 Rh0 2.048166 1_555
O6 Rh0 2.059206 1_555
O7 Rh1 2.059206 1_556
O8 Rh1 2.049801 1_656
O9 Rh0 2.049801 1_555
O10 Rh1 2.049801 1_555
O11 Rh0 2.049801 1_555
