# generated using pymatgen
data_CrHgO4
_symmetry_space_group_name_H-M   'P 1'
_cell_length_a   5.24557103
_cell_length_b   5.24557146
_cell_length_c   7.15265876
_cell_angle_alpha   90.00000000
_cell_angle_beta   90.00000000
_cell_angle_gamma   113.44459890
_symmetry_Int_Tables_number   1
_chemical_formula_structural   CrHgO4
_chemical_formula_sum   'Cr2 Hg2 O8'
_cell_volume   180.56485485
_cell_formula_units_Z   2
loop_
 _symmetry_equiv_pos_site_id
 _symmetry_equiv_pos_as_xyz
  1  'x, y, z'
loop_
 _atom_site_type_symbol
 _atom_site_label
 _atom_site_symmetry_multiplicity
 _atom_site_fract_x
 _atom_site_fract_y
 _atom_site_fract_z
 _atom_site_occupancy
  Cr  Cr0  1  0.63610567  0.36389433  0.25000000  1
  Cr  Cr1  1  0.36389433  0.63610567  0.75000000  1
  Hg  Hg0  1  0.00000000  -0.00000000  0.50000000  1
  Hg  Hg1  1  0.00000000  -0.00000000  0.00000000  1
  O  O0  1  0.71360755  0.76619578  0.75000000  1
  O  O1  1  0.28639245  0.23380422  0.25000000  1
  O  O2  1  0.76619578  0.71360755  0.25000000  1
  O  O3  1  0.23380422  0.28639245  0.75000000  1
  O  O4  1  0.25907333  0.74092667  0.93726409  1
  O  O5  1  0.74092667  0.25907333  0.43726409  1
  O  O6  1  0.74092667  0.25907333  0.06273591  1
  O  O7  1  0.25907333  0.74092667  0.56273591  1
loop_
_geom_bond_atom_site_label_1
_geom_bond_atom_site_label_2
_geom_bond_distance
_geom_bond_site_symmetry_2
Cr0 O5 1.624599 1_555
Cr0 O6 1.624599 1_555
Cr0 O1 1.683672 1_555
Cr0 O2 1.683672 1_555
Cr1 O4 1.624599 1_555
Cr1 O7 1.624599 1_555
Cr1 O0 1.683672 1_555
Cr1 O3 1.683672 1_555
Hg0 O7 2.316168 1_545
Hg0 O5 2.316168 1_455
Hg0 O0 2.343601 1_445
Hg0 O1 2.343601 1_555
Hg0 O3 2.343601 1_555
Hg0 O2 2.343601 1_445
Hg1 O4 2.316168 1_544
Hg1 O6 2.316168 1_455
Hg1 O1 2.343601 1_555
Hg1 O0 2.343601 1_444
Hg1 O2 2.343601 1_445
Hg1 O3 2.343601 1_554
