# generated using pymatgen
data_Ba2NdGaS5
_symmetry_space_group_name_H-M   'P 1'
_cell_length_a   8.22203963
_cell_length_b   8.22203963
_cell_length_c   8.91794143
_cell_angle_alpha   63.31657414
_cell_angle_beta   63.31657414
_cell_angle_gamma   91.48203111
_symmetry_Int_Tables_number   1
_chemical_formula_structural   Ba2NdGaS5
_chemical_formula_sum   'Ba4 Nd2 Ga2 S10'
_cell_volume   461.33916066
_cell_formula_units_Z   2
loop_
 _symmetry_equiv_pos_site_id
 _symmetry_equiv_pos_as_xyz
  1  'x, y, z'
loop_
 _atom_site_type_symbol
 _atom_site_label
 _atom_site_symmetry_multiplicity
 _atom_site_fract_x
 _atom_site_fract_y
 _atom_site_fract_z
 _atom_site_occupancy
  Ba  Ba0  1  0.25000000  0.25000000  0.50000000  1
  Ba  Ba1  1  0.75000000  0.75000000  0.50000000  1
  Ba  Ba2  1  0.84166800  0.65833200  0.00000000  1
  Ba  Ba3  1  0.15833200  0.34166800  0.00000000  1
  Nd  Nd0  1  0.66640800  0.16640800  0.00000000  1
  Nd  Nd1  1  0.33359200  0.83359200  0.00000000  1
  Ga  Ga0  1  0.75239200  0.25239200  0.49521600  1
  Ga  Ga1  1  0.24760800  0.74760800  0.50478400  1
  S  S0  1  0.22273000  0.00068100  0.27658900  1
  S  S1  1  0.50068100  0.72273000  0.27658900  1
  S  S2  1  0.01192000  0.51192000  0.29202000  1
  S  S3  1  0.69606000  0.19606000  0.29202000  1
  S  S4  1  0.77727000  0.99931900  0.72341100  1
  S  S5  1  0.49931900  0.27727000  0.72341100  1
  S  S6  1  0.98808000  0.48808000  0.70798000  1
  S  S7  1  0.30394000  0.80394000  0.70798000  1
  S  S8  1  0.50000000  0.50000000  0.00000000  1
  S  S9  1  0.00000000  0.00000000  0.00000000  1
loop_
_geom_bond_atom_site_label_1
_geom_bond_atom_site_label_2
_geom_bond_distance
_geom_bond_site_symmetry_2
Ba0 S8 3.413316 1_555
Ba0 S9 3.413316 1_556
Ba0 S7 3.435273 1_545
Ba0 S3 3.435273 1_555
Ba0 S6 3.435273 1_455
Ba0 S2 3.435273 1_555
Ba0 S1 3.502491 1_555
Ba0 S4 3.502491 1_445
Ba0 S5 3.502491 1_555
Ba0 S0 3.502491 1_555
Ba1 S8 3.413316 1_556
Ba1 S9 3.413316 1_665
Ba1 S7 3.435273 1_555
Ba1 S3 3.435273 1_565
Ba1 S2 3.435273 1_655
Ba1 S6 3.435273 1_555
Ba1 S0 3.502491 1_665
Ba1 S5 3.502491 1_555
Ba1 S4 3.502491 1_555
Ba1 S1 3.502491 1_555
Ba2 S4 3.043617 1_554
Ba2 S1 3.043617 1_555
Ba2 S8 3.065484 1_555
Ba2 S9 3.065484 1_665
Ba2 S3 3.276615 1_555
Ba2 S7 3.276615 1_654
Ba2 S6 3.276615 1_554
Ba2 S2 3.276615 1_655
Ba3 S0 3.043617 1_555
Ba3 S5 3.043617 1_554
Ba3 S9 3.065484 1_555
Ba3 S8 3.065484 1_555
Ba3 S3 3.276615 1_455
Ba3 S7 3.276615 1_554
Ba3 S6 3.276615 1_454
Ba3 S2 3.276615 1_555
Nd0 S6 2.835171 1_554
Nd0 S3 2.835172 1_555
Nd0 S9 3.096629 1_655
Nd0 S8 3.096629 1_555
Nd0 S1 3.145038 1_545
Nd0 S0 3.145038 1_555
Nd0 S4 3.145038 1_544
Nd0 S5 3.145038 1_554
Nd1 S2 2.835171 1_555
Nd1 S7 2.835172 1_554
Nd1 S9 3.096629 1_565
Nd1 S8 3.096629 1_555
Nd1 S5 3.145038 1_564
Nd1 S4 3.145038 1_554
Nd1 S1 3.145038 1_555
Nd1 S0 3.145038 1_565
Ga0 S4 2.259567 1_545
Ga0 S5 2.259567 1_555
Ga0 S2 2.282365 1_655
Ga0 S3 2.282365 1_555
Ga1 S1 2.259567 1_555
Ga1 S0 2.259567 1_565
Ga1 S6 2.282365 1_455
Ga1 S7 2.282365 1_555
