# generated using pymatgen
data_LiGd6In2O12
_symmetry_space_group_name_H-M   'P 1'
_cell_length_a   6.81204064
_cell_length_b   6.81187244
_cell_length_c   6.81089749
_cell_angle_alpha   93.07927657
_cell_angle_beta   93.08301546
_cell_angle_gamma   93.07926153
_symmetry_Int_Tables_number   1
_chemical_formula_structural   LiGd6In2O12
_chemical_formula_sum   'Li1 Gd6 In2 O12'
_cell_volume   314.62308000
_cell_formula_units_Z   1
loop_
 _symmetry_equiv_pos_site_id
 _symmetry_equiv_pos_as_xyz
  1  'x, y, z'
loop_
 _atom_site_type_symbol
 _atom_site_label
 _atom_site_symmetry_multiplicity
 _atom_site_fract_x
 _atom_site_fract_y
 _atom_site_fract_z
 _atom_site_occupancy
  Li  Li0  1  0.21409800  0.21408100  0.21391800  1
  Gd  Gd0  1  0.06661900  0.58787400  0.25704700  1
  Gd  Gd1  1  0.25690700  0.06660600  0.58771200  1
  Gd  Gd2  1  0.44081500  0.73974700  0.93579700  1
  Gd  Gd3  1  0.58784900  0.25697800  0.06675600  1
  Gd  Gd4  1  0.73975700  0.93568700  0.44085200  1
  Gd  Gd5  1  0.93577500  0.44091600  0.73961000  1
  In  In0  1  0.98101600  0.98082600  0.98106600  1
  In  In1  1  0.49773400  0.49783900  0.49773400  1
  O  O0  1  0.09805900  0.68567700  0.92817000  1
  O  O1  1  0.07504100  0.93455100  0.31342400  1
  O  O2  1  0.18318500  0.39397100  0.51361400  1
  O  O3  1  0.31333800  0.07508700  0.93457600  1
  O  O4  1  0.39401700  0.51359700  0.18325400  1
  O  O5  1  0.46270400  0.80778800  0.60321600  1
  O  O6  1  0.51359700  0.18317500  0.39401200  1
  O  O7  1  0.60334100  0.46265400  0.80768700  1
  O  O8  1  0.68569200  0.92827200  0.09818300  1
  O  O9  1  0.80768200  0.60330600  0.46266400  1
  O  O10  1  0.92823700  0.09809800  0.68566200  1
  O  O11  1  0.93453500  0.31326800  0.07504500  1
loop_
_geom_bond_atom_site_label_1
_geom_bond_atom_site_label_2
_geom_bond_distance
_geom_bond_site_symmetry_2
Li0 O3 2.233118 1_554
Li0 O11 2.234053 1_455
Li0 O1 2.235222 1_545
Li0 O4 2.347998 1_555
Li0 O6 2.348615 1_555
Li0 O2 2.348967 1_555
Gd0 O11 2.301159 1_455
Gd0 O9 2.313740 1_455
Gd0 O1 2.369211 1_555
Gd0 O2 2.374895 1_555
Gd0 O4 2.386859 1_555
Gd0 O0 2.388239 1_554
Gd1 O1 2.298858 1_545
Gd1 O5 2.313952 1_545
Gd1 O3 2.370141 1_555
Gd1 O6 2.374879 1_555
Gd1 O2 2.386130 1_555
Gd1 O10 2.387614 1_455
Gd2 O8 2.252515 1_556
Gd2 O0 2.341468 1_555
Gd2 O5 2.347290 1_555
Gd2 O4 2.366294 1_556
Gd2 O7 2.387739 1_555
Gd2 O3 2.487272 1_565
Gd3 O3 2.300571 1_554
Gd3 O7 2.314567 1_554
Gd3 O11 2.369303 1_555
Gd3 O4 2.374944 1_555
Gd3 O6 2.385571 1_555
Gd3 O8 2.387491 1_545
Gd4 O10 2.252002 1_565
Gd4 O8 2.340530 1_555
Gd4 O9 2.346014 1_555
Gd4 O6 2.366711 1_565
Gd4 O5 2.386457 1_555
Gd4 O1 2.486809 1_655
Gd5 O0 2.251772 1_655
Gd5 O10 2.341764 1_555
Gd5 O7 2.346638 1_555
Gd5 O2 2.365594 1_655
Gd5 O9 2.386166 1_555
Gd5 O11 2.488033 1_556
In0 O0 2.221027 1_655
In0 O8 2.222056 1_556
In0 O10 2.222868 1_565
In0 O1 2.361385 1_656
In0 O3 2.362219 1_665
In0 O11 2.362470 1_566
In1 O5 2.222704 1_555
In1 O9 2.222798 1_555
In1 O7 2.222852 1_555
In1 O4 2.229006 1_555
In1 O2 2.230208 1_555
In1 O6 2.230590 1_555
