# generated using pymatgen
data_U6P13Rh20
_symmetry_space_group_name_H-M   'P 1'
_cell_length_a   13.46052423
_cell_length_b   13.46052423
_cell_length_c   3.86549700
_cell_angle_alpha   90.00000000
_cell_angle_beta   90.00000000
_cell_angle_gamma   120.00000114
_symmetry_Int_Tables_number   1
_chemical_formula_structural   U6P13Rh20
_chemical_formula_sum   'U6 P13 Rh20'
_cell_volume   606.54065462
_cell_formula_units_Z   1
loop_
 _symmetry_equiv_pos_site_id
 _symmetry_equiv_pos_as_xyz
  1  'x, y, z'
loop_
 _atom_site_type_symbol
 _atom_site_label
 _atom_site_symmetry_multiplicity
 _atom_site_fract_x
 _atom_site_fract_y
 _atom_site_fract_z
 _atom_site_occupancy
  U  U0  1  0.19025400  0.47433000  0.00000000  1
  U  U1  1  0.52567000  0.71592400  0.00000000  1
  U  U2  1  0.28407600  0.80974600  0.00000000  1
  U  U3  1  0.71789700  0.18889200  0.50000000  1
  U  U4  1  0.81110800  0.52900600  0.50000000  1
  U  U5  1  0.47099400  0.28210300  0.50000000  1
  P  P0  1  0.38841700  0.52669500  0.50000000  1
  P  P1  1  0.47330500  0.86172200  0.50000000  1
  P  P2  1  0.13827800  0.61158300  0.50000000  1
  P  P3  1  0.77158600  0.05786700  0.00000000  1
  P  P4  1  0.94213300  0.71371900  0.00000000  1
  P  P5  1  0.28628100  0.22841400  0.00000000  1
  P  P6  1  0.05418800  0.28538000  0.50000000  1
  P  P7  1  0.71462000  0.76880800  0.50000000  1
  P  P8  1  0.23119200  0.94581200  0.50000000  1
  P  P9  1  0.52644600  0.13943400  0.00000000  1
  P  P10  1  0.86056600  0.38701100  0.00000000  1
  P  P11  1  0.61298900  0.47355400  0.00000000  1
  P  P12  1  0.00000000  0.00000000  0.00000000  1
  Rh  Rh0  1  0.43935000  0.02095000  0.50000000  1
  Rh  Rh1  1  0.97905000  0.41839900  0.50000000  1
  Rh  Rh2  1  0.58160100  0.56065000  0.50000000  1
  Rh  Rh3  1  0.66666700  0.33333300  0.00000000  1
  Rh  Rh4  1  0.41738100  0.43703600  0.00000000  1
  Rh  Rh5  1  0.56296400  0.98034500  0.00000000  1
  Rh  Rh6  1  0.01965500  0.58261900  0.00000000  1
  Rh  Rh7  1  0.92422900  0.25280900  0.00000000  1
  Rh  Rh8  1  0.74719100  0.67142000  0.00000000  1
  Rh  Rh9  1  0.32858000  0.07577100  0.00000000  1
  Rh  Rh10  1  0.33333300  0.66666700  0.50000000  1
  Rh  Rh11  1  0.90643000  0.09262500  0.50000000  1
  Rh  Rh12  1  0.90737500  0.81380400  0.50000000  1
  Rh  Rh13  1  0.18619600  0.09357000  0.50000000  1
  Rh  Rh14  1  0.09746500  0.19241900  0.00000000  1
  Rh  Rh15  1  0.80758100  0.90504600  0.00000000  1
  Rh  Rh16  1  0.09495400  0.90253500  0.00000000  1
  Rh  Rh17  1  0.25060300  0.33108000  0.50000000  1
  Rh  Rh18  1  0.66892000  0.91952300  0.50000000  1
  Rh  Rh19  1  0.08047700  0.74939700  0.50000000  1
loop_
_geom_bond_atom_site_label_1
_geom_bond_atom_site_label_2
_geom_bond_distance
_geom_bond_site_symmetry_2
P0 Rh17 2.343038 1_555
P0 Rh10 2.344475 1_555
P0 Rh2 2.404633 1_555
P0 Rh4 2.411335 1_555
P0 Rh4 2.411335 1_556
P0 U1 2.988443 1_556
P0 U1 2.988443 1_555
P0 U0 3.076869 1_556
P0 U0 3.076869 1_555
P1 Rh18 2.343038 1_555
P1 Rh10 2.344465 1_555
P1 Rh0 2.404620 1_565
P1 Rh5 2.411335 1_555
P1 Rh5 2.411335 1_556
P1 U2 2.988443 1_555
P1 U2 2.988443 1_556
P1 U1 3.076869 1_556
P1 U1 3.076869 1_555
P2 Rh19 2.343038 1_555
P2 Rh10 2.344462 1_555
P2 Rh1 2.404628 1_455
P2 Rh6 2.411335 1_555
P2 Rh6 2.411335 1_556
P2 U0 2.988443 1_556
P2 U0 2.988443 1_555
P2 U2 3.076869 1_556
P2 U2 3.076869 1_555
P3 Rh15 2.337279 1_545
P3 Rh7 2.390740 1_555
P3 Rh5 2.458527 1_545
P3 Rh11 2.529761 1_555
P3 Rh11 2.529761 1_554
P3 Rh18 2.557259 1_544
P3 Rh18 2.557259 1_545
P3 U3 2.939876 1_555
P3 U3 2.939876 1_554
P4 Rh16 2.337279 1_655
P4 Rh8 2.390740 1_555
P4 Rh6 2.458527 1_655
P4 Rh12 2.529753 1_554
P4 Rh12 2.529753 1_555
P4 Rh19 2.557259 1_654
P4 Rh19 2.557259 1_655
P4 U4 2.939869 1_554
P4 U4 2.939869 1_555
P5 Rh14 2.337279 1_555
P5 Rh9 2.390740 1_555
P5 Rh4 2.458527 1_555
P5 Rh13 2.529759 1_555
P5 Rh13 2.529759 1_554
P5 Rh17 2.557259 1_554
P5 Rh17 2.557259 1_555
P5 U5 2.939866 1_554
P5 U5 2.939866 1_555
P6 Rh11 2.351004 1_455
P6 Rh17 2.396245 1_555
P6 Rh1 2.457589 1_455
P6 Rh7 2.494173 1_456
P6 Rh7 2.494173 1_455
P6 Rh14 2.523796 1_555
P6 Rh14 2.523796 1_556
P6 U0 2.983365 1_556
P6 U0 2.983365 1_555
P7 Rh12 2.351008 1_555
P7 Rh18 2.396245 1_555
P7 Rh2 2.457600 1_555
P7 Rh8 2.494173 1_556
P7 Rh8 2.494173 1_555
P7 Rh15 2.523796 1_556
P7 Rh15 2.523796 1_555
P7 U1 2.983365 1_556
P7 U1 2.983365 1_555
P8 Rh13 2.350995 1_565
P8 Rh19 2.396245 1_555
P8 Rh0 2.457602 1_565
P8 Rh9 2.494173 1_566
P8 Rh9 2.494173 1_565
P8 Rh16 2.523796 1_556
P8 Rh16 2.523796 1_555
P8 U2 2.983365 1_555
P8 U2 2.983365 1_556
P9 Rh3 2.334151 1_555
P9 Rh9 2.354907 1_555
P9 Rh0 2.404946 1_555
P9 Rh0 2.404946 1_554
P9 Rh5 2.424856 1_545
P9 U3 3.017316 1_554
P9 U3 3.017316 1_555
P9 U5 3.068223 1_554
P9 U5 3.068223 1_555
P10 Rh3 2.334151 1_555
P10 Rh7 2.354894 1_555
P10 Rh1 2.404946 1_555
P10 Rh1 2.404946 1_554
P10 Rh6 2.424865 1_655
P10 U4 3.017336 1_555
P10 U4 3.017336 1_554
P10 U3 3.068208 1_555
P10 U3 3.068208 1_554
P11 Rh3 2.334151 1_555
P11 Rh8 2.354904 1_555
P11 Rh2 2.404946 1_554
P11 Rh2 2.404946 1_555
P11 Rh4 2.424869 1_555
P11 U5 3.017321 1_555
P11 U5 3.017321 1_554
P11 U4 3.068203 1_555
P11 U4 3.068203 1_554
P12 Rh14 2.243122 1_555
P12 Rh15 2.243122 1_445
P12 Rh16 2.243122 1_545
Rh0 Rh9 2.757434 1_555
Rh0 Rh9 2.757434 1_556
Rh0 Rh5 2.777099 1_546
Rh0 Rh5 2.777099 1_545
Rh0 U2 3.200654 1_546
Rh0 U2 3.200654 1_545
Rh0 U3 3.269916 1_555
Rh0 U5 3.322823 1_555
Rh1 Rh7 2.757425 1_555
Rh1 Rh7 2.757425 1_556
Rh1 Rh6 2.777108 1_656
Rh1 Rh6 2.777108 1_655
Rh1 U0 3.200652 1_655
Rh1 U0 3.200652 1_656
Rh1 U4 3.269937 1_555
Rh1 U3 3.322812 1_555
Rh2 Rh8 2.757427 1_556
Rh2 Rh8 2.757427 1_555
Rh2 Rh4 2.777105 1_556
Rh2 Rh4 2.777105 1_555
Rh2 U1 3.200662 1_556
Rh2 U1 3.200662 1_555
Rh2 U5 3.269913 1_555
Rh2 U4 3.322796 1_555
Rh3 U3 3.054812 1_554
Rh3 U3 3.054812 1_555
Rh3 U4 3.054827 1_554
Rh3 U4 3.054827 1_555
Rh3 U5 3.054832 1_554
Rh3 U5 3.054832 1_555
Rh4 U5 3.179707 1_555
Rh4 U5 3.179707 1_554
Rh4 U1 3.277977 1_555
Rh4 U0 3.336690 1_555
Rh5 U3 3.179715 1_565
Rh5 U3 3.179715 1_564
Rh5 U2 3.277977 1_555
Rh5 U1 3.336690 1_555
Rh6 U4 3.179718 1_455
Rh6 U4 3.179718 1_454
Rh6 U0 3.277977 1_555
Rh6 U2 3.336690 1_555
Rh7 U3 3.130468 1_554
Rh7 U3 3.130468 1_555
Rh7 U0 3.322071 1_655
Rh8 U4 3.130458 1_554
Rh8 U4 3.130458 1_555
Rh8 U1 3.322071 1_555
Rh9 U5 3.130466 1_554
Rh9 U5 3.130466 1_555
Rh9 U2 3.322071 1_545
Rh10 U2 3.026750 1_555
Rh10 U2 3.026750 1_556
Rh10 U0 3.026757 1_556
Rh10 U0 3.026757 1_555
Rh10 U1 3.026760 1_556
Rh10 U1 3.026760 1_555
Rh11 Rh7 2.815202 1_556
Rh11 Rh7 2.815202 1_555
Rh11 Rh18 2.863704 1_545
Rh11 U3 3.377533 1_555
Rh12 Rh8 2.815198 1_556
Rh12 Rh8 2.815198 1_555
Rh12 Rh19 2.863694 1_655
Rh12 U4 3.377508 1_555
Rh13 Rh9 2.815193 1_555
Rh13 Rh9 2.815193 1_556
Rh13 Rh17 2.863707 1_555
Rh13 U5 3.377513 1_555
Rh14 Rh17 2.760586 1_554
Rh14 Rh17 2.760586 1_555
Rh14 Rh7 2.827331 1_455
Rh14 U0 3.349626 1_555
Rh15 Rh18 2.760586 1_555
Rh15 Rh18 2.760586 1_554
Rh15 Rh8 2.827331 1_555
Rh15 U1 3.349626 1_555
Rh16 Rh19 2.760586 1_555
Rh16 Rh19 2.760586 1_554
Rh16 Rh9 2.827331 1_565
Rh16 U2 3.349626 1_555
Rh17 Rh4 2.758176 1_556
Rh17 Rh4 2.758176 1_555
Rh17 U0 3.111234 1_556
Rh17 U0 3.111234 1_555
Rh17 U5 3.345286 1_555
Rh18 Rh5 2.758176 1_555
Rh18 Rh5 2.758176 1_556
Rh18 U1 3.111234 1_556
Rh18 U1 3.111234 1_555
Rh18 U3 3.345300 1_565
Rh19 Rh6 2.758176 1_555
Rh19 Rh6 2.758176 1_556
Rh19 U2 3.111234 1_555
Rh19 U2 3.111234 1_556
Rh19 U4 3.345295 1_455
