# generated using pymatgen
data_Li3TiCr2O6
_symmetry_space_group_name_H-M   'P 1'
_cell_length_a   5.87423892
_cell_length_b   6.67855006
_cell_length_c   6.69888046
_cell_angle_alpha   72.06171705
_cell_angle_beta   63.89613706
_cell_angle_gamma   77.38898876
_symmetry_Int_Tables_number   1
_chemical_formula_structural   Li3TiCr2O6
_chemical_formula_sum   'Li6 Ti2 Cr4 O12'
_cell_volume   223.47010446
_cell_formula_units_Z   2
loop_
 _symmetry_equiv_pos_site_id
 _symmetry_equiv_pos_as_xyz
  1  'x, y, z'
loop_
 _atom_site_type_symbol
 _atom_site_label
 _atom_site_symmetry_multiplicity
 _atom_site_fract_x
 _atom_site_fract_y
 _atom_site_fract_z
 _atom_site_occupancy
  Li  Li0  1  0.58336900  0.33321600  0.16669700  1
  Li  Li1  1  0.08338000  0.33320400  0.16669200  1
  Li  Li2  1  0.25327500  0.99501600  0.49533900  1
  Li  Li3  1  0.75179000  0.00019300  0.49740700  1
  Li  Li4  1  0.91337900  0.67168600  0.83798700  1
  Li  Li5  1  0.41485300  0.66655900  0.83589800  1
  Ti  Ti0  1  0.85037700  0.33311900  0.66692800  1
  Ti  Ti1  1  0.31625600  0.33357200  0.66640300  1
  Cr  Cr0  1  0.99797700  0.00132400  0.00132300  1
  Cr  Cr1  1  0.16868400  0.66533600  0.33199200  1
  Cr  Cr2  1  0.49858200  0.00027900  0.99959800  1
  Cr  Cr3  1  0.66809200  0.66641400  0.33371700  1
  O  O0  1  0.86606300  0.01008200  0.76305500  1
  O  O1  1  0.36471700  0.01055800  0.76262300  1
  O  O2  1  0.30059800  0.65658900  0.57028900  1
  O  O3  1  0.80194000  0.65611300  0.57072200  1
  O  O4  1  0.53355400  0.67919900  0.09626400  1
  O  O5  1  0.03392600  0.68062900  0.09560200  1
  O  O6  1  0.63313900  0.98750900  0.23707000  1
  O  O7  1  0.13275500  0.98606000  0.23773600  1
  O  O8  1  0.20958900  0.34192500  0.40878900  1
  O  O9  1  0.69782900  0.34591400  0.43179000  1
  O  O10  1  0.95708300  0.32473900  0.92454800  1
  O  O11  1  0.46878900  0.32077400  0.90153800  1
loop_
_geom_bond_atom_site_label_1
_geom_bond_atom_site_label_2
_geom_bond_distance
_geom_bond_site_symmetry_2
Li0 O10 2.079032 1_554
Li0 O8 2.079240 1_555
Li0 O9 2.186599 1_555
Li0 O11 2.186889 1_554
Li0 O6 2.189623 1_545
Li0 O4 2.191370 1_555
Li1 O8 2.078057 1_555
Li1 O10 2.078128 1_454
Li1 O11 2.181166 1_554
Li1 O9 2.181705 1_455
Li1 O7 2.198606 1_545
Li1 O5 2.200389 1_555
Li2 O6 2.140622 1_555
Li2 O2 2.141802 1_555
Li2 O7 2.154026 1_555
Li2 O8 2.194008 1_565
Li2 O1 2.195644 1_565
Li2 O0 2.195815 1_465
Li3 O7 2.150844 1_645
Li3 O6 2.172745 1_545
Li3 O3 2.178328 1_545
Li3 O0 2.182818 1_555
Li3 O1 2.187093 1_555
Li3 O9 2.191492 1_555
Li4 O4 2.140487 1_556
Li4 O0 2.141609 1_565
Li4 O5 2.154182 1_656
Li4 O10 2.194248 1_555
Li4 O3 2.195585 1_555
Li4 O2 2.195811 1_655
Li5 O5 2.150746 1_556
Li5 O4 2.173026 1_556
Li5 O1 2.177822 1_565
Li5 O2 2.182685 1_555
Li5 O3 2.187081 1_555
Li5 O11 2.191893 1_555
Cr0 O6 2.028246 1_545
Cr0 O7 2.028304 1_645
Cr0 O5 2.029119 1_645
Cr0 O0 2.040250 1_554
Cr0 O1 2.041472 1_654
Cr0 O10 2.045836 1_554
Cr1 O5 2.028021 1_555
Cr1 O4 2.028356 1_555
Cr1 O7 2.029294 1_555
Cr1 O2 2.040455 1_555
Cr1 O3 2.041550 1_455
Cr1 O8 2.045807 1_555
Cr2 O11 2.028577 1_555
Cr2 O4 2.032024 1_546
Cr2 O7 2.037378 1_546
Cr2 O1 2.037384 1_555
Cr2 O6 2.038669 1_546
Cr2 O0 2.040276 1_555
Cr3 O9 2.028612 1_555
Cr3 O6 2.032112 1_555
Cr3 O5 2.037360 1_655
Cr3 O3 2.037458 1_555
Cr3 O4 2.038441 1_555
Cr3 O2 2.040394 1_555
O0 Ti0 2.046279 1_555
O1 Ti1 2.046236 1_555
O2 Ti1 2.046160 1_555
O3 Ti0 2.046101 1_555
O8 Ti0 2.055915 1_455
O8 Ti1 2.061758 1_555
O9 Ti1 2.098049 1_555
O9 Ti0 2.101717 1_555
O10 Ti1 2.055778 1_655
O10 Ti0 2.061896 1_555
O11 Ti0 2.098110 1_555
O11 Ti1 2.101627 1_555
