# generated using pymatgen
data_LaGa2Ni
_symmetry_space_group_name_H-M   'P 1'
_cell_length_a   9.01527059
_cell_length_b   9.01527059
_cell_length_c   4.24326412
_cell_angle_alpha   90.00000000
_cell_angle_beta   90.00000000
_cell_angle_gamma   152.83109645
_symmetry_Int_Tables_number   1
_chemical_formula_structural   LaGa2Ni
_chemical_formula_sum   'La2 Ga4 Ni2'
_cell_volume   157.47365461
_cell_formula_units_Z   2
loop_
 _symmetry_equiv_pos_site_id
 _symmetry_equiv_pos_as_xyz
  1  'x, y, z'
loop_
 _atom_site_type_symbol
 _atom_site_label
 _atom_site_symmetry_multiplicity
 _atom_site_fract_x
 _atom_site_fract_y
 _atom_site_fract_z
 _atom_site_occupancy
  La  La0  1  0.14137000  0.85863000  -0.00000000  1
  La  La1  1  0.85863000  0.14137000  -0.00000000  1
  Ga  Ga0  1  0.50000000  0.50000000  -0.00000000  1
  Ga  Ga1  1  0.00000000  -0.00000000  0.50000000  1
  Ga  Ga2  1  0.29041412  0.70958588  0.50000000  1
  Ga  Ga3  1  0.70958588  0.29041412  0.50000000  1
  Ni  Ni0  1  0.42915902  0.57084098  0.50000000  1
  Ni  Ni1  1  0.57084098  0.42915902  0.50000000  1
loop_
_geom_bond_atom_site_label_1
_geom_bond_atom_site_label_2
_geom_bond_distance
_geom_bond_site_symmetry_2
La0 Ni1 3.242382 1_565
La0 Ni1 3.242382 1_564
La0 Ni1 3.242382 1_455
La0 Ni1 3.242382 1_454
La1 Ni0 3.242382 1_654
La1 Ni0 3.242382 1_655
La1 Ni0 3.242382 1_544
La1 Ni0 3.242382 1_545
Ga0 Ni0 2.458214 1_554
Ga0 Ni1 2.458214 1_554
Ga0 Ni0 2.458214 1_555
Ga0 Ni1 2.458214 1_555
Ga0 La0 3.259236 1_545
Ga0 La1 3.259236 1_455
Ga0 La1 3.259236 1_565
Ga0 La0 3.259236 1_655
Ga1 Ni1 2.454641 1_555
Ga1 Ni1 2.454641 1_445
Ga1 Ni0 2.454641 1_445
Ga1 Ni0 2.454641 1_555
Ga1 La1 3.261927 1_456
Ga1 La0 3.261927 1_546
Ga1 La0 3.261927 1_545
Ga1 La1 3.261927 1_455
Ga2 Ni0 2.431662 1_555
Ga2 Ga3 2.547655 1_565
Ga2 Ga3 2.547655 1_455
Ga2 La1 3.227144 1_455
Ga2 La1 3.227144 1_456
Ga2 La1 3.227144 1_566
Ga2 La1 3.227144 1_565
Ga2 La0 3.365225 1_555
Ga2 La0 3.365225 1_556
Ga3 Ni1 2.431662 1_555
Ga3 La0 3.227144 1_546
Ga3 La0 3.227144 1_545
Ga3 La0 3.227144 1_655
Ga3 La0 3.227144 1_656
Ga3 La1 3.365225 1_556
Ga3 La1 3.365225 1_555
Ni0 Ni1 2.483137 1_555
