# generated using pymatgen
data_Zr3Sn
_symmetry_space_group_name_H-M   'P 1'
_cell_length_a   5.14125056
_cell_length_b   5.71181020
_cell_length_c   6.11438188
_cell_angle_alpha   90.00000000
_cell_angle_beta   90.00000000
_cell_angle_gamma   90.00000000
_symmetry_Int_Tables_number   1
_chemical_formula_structural   Zr3Sn
_chemical_formula_sum   'Zr6 Sn2'
_cell_volume   179.55400517
_cell_formula_units_Z   2
loop_
 _symmetry_equiv_pos_site_id
 _symmetry_equiv_pos_as_xyz
  1  'x, y, z'
loop_
 _atom_site_type_symbol
 _atom_site_label
 _atom_site_symmetry_multiplicity
 _atom_site_fract_x
 _atom_site_fract_y
 _atom_site_fract_z
 _atom_site_occupancy
  Zr  Zr0  1  0.00000000  0.64804417  0.25073375  1
  Zr  Zr1  1  -0.00000000  0.13434866  0.50000000  1
  Zr  Zr2  1  0.00000000  0.64804417  0.74926625  1
  Zr  Zr3  1  0.50000000  0.86565134  0.00000000  1
  Zr  Zr4  1  0.50000000  0.35195583  0.24926625  1
  Zr  Zr5  1  0.50000000  0.35195583  0.75073375  1
  Sn  Sn0  1  -0.00000000  0.16474382  0.00000000  1
  Sn  Sn1  1  0.50000000  0.83525618  0.50000000  1
loop_
_geom_bond_atom_site_label_1
_geom_bond_atom_site_label_2
_geom_bond_distance
_geom_bond_site_symmetry_2
Zr0 Zr2 3.048218 1_555
Zr0 Zr2 3.066164 1_554
Zr0 Zr4 3.077069 1_555
Zr0 Zr4 3.077069 1_455
Zr0 Zr1 3.168345 1_565
Zr0 Zr3 3.240884 1_455
Zr0 Zr3 3.240884 1_555
Zr0 Zr1 3.306363 1_555
Zr1 Zr2 3.168345 1_545
Zr1 Zr4 3.240884 1_455
Zr1 Zr4 3.240884 1_555
Zr1 Zr5 3.240884 1_455
Zr1 Zr5 3.240884 1_555
Zr1 Zr2 3.306363 1_555
Zr2 Zr5 3.077069 1_555
Zr2 Zr5 3.077069 1_455
Zr2 Zr3 3.240884 1_556
Zr2 Zr3 3.240884 1_456
Zr3 Zr5 3.168345 1_564
Zr3 Zr4 3.168345 1_565
Zr3 Zr5 3.306363 1_554
Zr3 Zr4 3.306363 1_555
Zr4 Zr5 3.048218 1_554
Zr4 Zr5 3.066164 1_555
Sn0 Zr1 3.062116 1_555
Sn0 Zr1 3.062116 1_554
Sn0 Zr3 3.086520 1_445
Sn0 Zr3 3.086520 1_545
Sn0 Zr2 3.157659 1_554
Sn0 Zr0 3.157659 1_555
Sn0 Zr5 3.174030 1_454
Sn0 Zr5 3.174030 1_554
Sn0 Zr4 3.174030 1_455
Sn0 Zr4 3.174030 1_555
Sn0 Zr0 3.325726 1_545
Sn0 Zr2 3.325726 1_544
Sn1 Zr3 3.062116 1_555
Sn1 Zr3 3.062116 1_556
Sn1 Zr1 3.086520 1_565
Sn1 Zr1 3.086520 1_665
Sn1 Zr4 3.157659 1_555
Sn1 Zr5 3.157659 1_555
Sn1 Zr0 3.174030 1_555
Sn1 Zr0 3.174030 1_655
Sn1 Zr2 3.174030 1_555
Sn1 Zr2 3.174030 1_655
Sn1 Zr4 3.325726 1_565
Sn1 Zr5 3.325726 1_565
