# generated using pymatgen
data_K3Ta2Cu3S8
_symmetry_space_group_name_H-M   'P 1'
_cell_length_a   12.17404726
_cell_length_b   12.17404726
_cell_length_c   14.38962947
_cell_angle_alpha   60.60863292
_cell_angle_beta   60.60863292
_cell_angle_gamma   26.30129449
_symmetry_Int_Tables_number   1
_chemical_formula_structural   K3Ta2Cu3S8
_chemical_formula_sum   'K6 Ta4 Cu6 S16'
_cell_volume   816.17029562
_cell_formula_units_Z   2
loop_
 _symmetry_equiv_pos_site_id
 _symmetry_equiv_pos_as_xyz
  1  'x, y, z'
loop_
 _atom_site_type_symbol
 _atom_site_label
 _atom_site_symmetry_multiplicity
 _atom_site_fract_x
 _atom_site_fract_y
 _atom_site_fract_z
 _atom_site_occupancy
  K  K0  1  0.73433542  0.65338712  0.40359220  1
  K  K1  1  0.34661288  0.26566458  0.09640780  1
  K  K2  1  0.26566458  0.34661288  0.59640780  1
  K  K3  1  0.65338712  0.73433542  0.90359220  1
  K  K4  1  0.00000000  -0.00000000  0.00000000  1
  K  K5  1  0.00000000  -0.00000000  0.50000000  1
  Ta  Ta0  1  0.15755373  0.59237734  0.27936790  1
  Ta  Ta1  1  0.40762266  0.84244627  0.22063210  1
  Ta  Ta2  1  0.84244627  0.40762266  0.72063210  1
  Ta  Ta3  1  0.59237734  0.15755373  0.77936790  1
  Cu  Cu0  1  0.27865209  0.72134791  0.25000000  1
  Cu  Cu1  1  0.72134791  0.27865209  0.75000000  1
  Cu  Cu2  1  0.90397170  0.33939968  0.21916804  1
  Cu  Cu3  1  0.66060032  0.09602830  0.28083196  1
  Cu  Cu4  1  0.09602830  0.66060032  0.78083196  1
  Cu  Cu5  1  0.33939968  0.90397170  0.71916804  1
  S  S0  1  0.95785968  0.86282844  0.37197946  1
  S  S1  1  0.13717156  0.04214032  0.12802054  1
  S  S2  1  0.04214032  0.13717156  0.62802054  1
  S  S3  1  0.86282844  0.95785968  0.87197946  1
  S  S4  1  0.48126129  0.44138201  0.16149528  1
  S  S5  1  0.55861799  0.51873871  0.33850472  1
  S  S6  1  0.51873871  0.55861799  0.83850472  1
  S  S7  1  0.44138201  0.48126129  0.66149528  1
  S  S8  1  0.87515102  0.81370155  0.18654595  1
  S  S9  1  0.18629845  0.12484898  0.31345405  1
  S  S10  1  0.12484898  0.18629845  0.81345405  1
  S  S11  1  0.81370155  0.87515102  0.68654595  1
  S  S12  1  0.73881944  0.67831138  0.11050704  1
  S  S13  1  0.32168862  0.26118056  0.38949296  1
  S  S14  1  0.26118056  0.32168862  0.88949296  1
  S  S15  1  0.67831138  0.73881944  0.61050704  1
loop_
_geom_bond_atom_site_label_1
_geom_bond_atom_site_label_2
_geom_bond_distance
_geom_bond_site_symmetry_2
K0 S15 3.191618 1_555
K0 S9 3.326933 1_655
K0 S8 3.356006 1_555
K0 S9 3.415673 1_565
K0 S13 3.504434 1_655
K0 S13 3.592810 1_565
K0 S2 3.701345 1_655
K1 S14 3.191618 1_554
K1 S8 3.326933 1_545
K1 S9 3.356006 1_555
K1 S8 3.415673 1_455
K1 S12 3.504434 1_545
K1 S12 3.592810 1_455
K1 S3 3.701345 1_544
K2 S13 3.191618 1_555
K2 S11 3.326933 1_455
K2 S10 3.356006 1_555
K2 S11 3.415673 1_545
K2 S15 3.504434 1_455
K2 S15 3.592810 1_545
K2 S0 3.701345 1_455
K3 S12 3.191618 1_556
K3 S10 3.326933 1_565
K3 S11 3.356006 1_555
K3 S10 3.415673 1_655
K3 S14 3.504434 1_565
K3 S14 3.592810 1_655
K3 S1 3.701345 1_566
K4 S8 3.295432 1_445
K4 S10 3.295432 1_554
K4 S4 3.341409 1_455
K4 S6 3.341409 1_544
K4 S3 3.453785 1_444
K4 S1 3.453785 1_555
K4 S6 3.519765 1_454
K4 S4 3.519765 1_545
K5 S11 3.295432 1_445
K5 S9 3.295432 1_555
K5 S7 3.341409 1_545
K5 S5 3.341409 1_455
K5 S2 3.453785 1_555
K5 S0 3.453785 1_445
K5 S7 3.519765 1_455
K5 S5 3.519765 1_545
Cu0 S4 2.329518 1_555
Cu0 S5 2.329518 1_555
Cu0 S1 2.340504 1_565
Cu0 S0 2.340504 1_455
Cu1 S7 2.329518 1_555
Cu1 S6 2.329518 1_555
Cu1 S2 2.340504 1_655
Cu1 S3 2.340504 1_545
Cu2 S12 2.321765 1_555
Cu2 S1 2.336573 1_655
Cu2 S9 2.340748 1_655
Cu2 S5 2.351070 1_555
Cu3 S13 2.321765 1_555
Cu3 S0 2.336573 1_545
Cu3 S8 2.340748 1_545
Cu3 S4 2.351070 1_555
Cu4 S14 2.321765 1_555
Cu4 S3 2.336573 1_455
Cu4 S11 2.340748 1_455
Cu4 S7 2.351070 1_555
Cu5 S15 2.321765 1_555
Cu5 S2 2.336573 1_565
Cu5 S10 2.340748 1_565
Cu5 S6 2.351070 1_555
S0 Ta0 2.302603 1_655
S1 Ta1 2.302603 1_545
S2 Ta2 2.302603 1_455
S3 Ta3 2.302603 1_565
S4 Ta0 2.301571 1_555
S5 Ta1 2.301571 1_555
S6 Ta2 2.301571 1_555
S7 Ta3 2.301571 1_555
S8 Ta0 2.286857 1_655
S9 Ta1 2.286857 1_545
S10 Ta2 2.286857 1_455
S11 Ta3 2.286857 1_565
S12 Ta1 2.269857 1_555
S13 Ta0 2.269857 1_555
S14 Ta3 2.269857 1_555
S15 Ta2 2.269857 1_555
