# generated using pymatgen
data_Mn3(SeN)2
_symmetry_space_group_name_H-M   'P 1'
_cell_length_a   16.75778400
_cell_length_b   16.12160700
_cell_length_c   3.38937300
_cell_angle_alpha   90.00000000
_cell_angle_beta   90.00000000
_cell_angle_gamma   90.00000000
_symmetry_Int_Tables_number   1
_chemical_formula_structural   Mn3(SeN)2
_chemical_formula_sum   'Mn24 Se16 N16'
_cell_volume   915.68117074
_cell_formula_units_Z   8
loop_
 _symmetry_equiv_pos_site_id
 _symmetry_equiv_pos_as_xyz
  1  'x, y, z'
loop_
 _atom_site_type_symbol
 _atom_site_label
 _atom_site_symmetry_multiplicity
 _atom_site_fract_x
 _atom_site_fract_y
 _atom_site_fract_z
 _atom_site_occupancy
  Mn  Mn0  1  0.06620000  0.01968300  0.03051200  1
  Mn  Mn1  1  0.93380000  0.98031700  0.53051200  1
  Mn  Mn2  1  0.43380000  0.51968300  0.53051200  1
  Mn  Mn3  1  0.56620000  0.48031700  0.03051200  1
  Mn  Mn4  1  0.01321300  0.55667000  0.53037700  1
  Mn  Mn5  1  0.98678700  0.44333000  0.03037700  1
  Mn  Mn6  1  0.48678700  0.05667000  0.03037700  1
  Mn  Mn7  1  0.51321300  0.94333000  0.53037700  1
  Mn  Mn8  1  0.14355300  0.42544100  0.03047100  1
  Mn  Mn9  1  0.85644700  0.57455900  0.53047100  1
  Mn  Mn10  1  0.35644700  0.92544100  0.53047100  1
  Mn  Mn11  1  0.64355300  0.07455900  0.03047100  1
  Mn  Mn12  1  0.10100600  0.87549400  0.53048800  1
  Mn  Mn13  1  0.89899400  0.12450600  0.03048800  1
  Mn  Mn14  1  0.39899400  0.37549400  0.03048800  1
  Mn  Mn15  1  0.60100600  0.62450600  0.53048800  1
  Mn  Mn16  1  0.73726300  0.53423100  0.03051300  1
  Mn  Mn17  1  0.26273700  0.46576900  0.53051300  1
  Mn  Mn18  1  0.76273700  0.03423100  0.53051300  1
  Mn  Mn19  1  0.23726300  0.96576900  0.03051300  1
  Mn  Mn20  1  0.37899000  0.12951800  0.53044900  1
  Mn  Mn21  1  0.62101000  0.87048200  0.03044900  1
  Mn  Mn22  1  0.12101000  0.62951800  0.03044900  1
  Mn  Mn23  1  0.87899000  0.37048200  0.53044900  1
  Se  Se0  1  0.76266200  0.93058300  0.03049300  1
  Se  Se1  1  0.23733800  0.06941700  0.53049300  1
  Se  Se2  1  0.73733800  0.43058300  0.53049300  1
  Se  Se3  1  0.26266200  0.56941700  0.03049300  1
  Se  Se4  1  0.98154800  0.66314900  0.03031000  1
  Se  Se5  1  0.01845200  0.33685100  0.53031000  1
  Se  Se6  1  0.51845200  0.16314900  0.53031000  1
  Se  Se7  1  0.48154800  0.83685100  0.03031000  1
  Se  Se8  1  0.04278200  0.16608100  0.03059600  1
  Se  Se9  1  0.95721800  0.83391900  0.53059600  1
  Se  Se10  1  0.45721800  0.66608100  0.53059600  1
  Se  Se11  1  0.54278200  0.33391900  0.03059600  1
  Se  Se12  1  0.84037200  0.27015400  0.03050700  1
  Se  Se13  1  0.15962800  0.72984600  0.53050700  1
  Se  Se14  1  0.65962800  0.77015400  0.53050700  1
  Se  Se15  1  0.34037200  0.22984600  0.03050700  1
  N  N0  1  0.14483100  0.91470800  0.03050000  1
  N  N1  1  0.85516900  0.08529200  0.53050000  1
  N  N2  1  0.35516900  0.41470800  0.53050000  1
  N  N3  1  0.64483100  0.58529200  0.03050000  1
  N  N4  1  0.18183700  0.39807700  0.53047500  1
  N  N5  1  0.81816300  0.60192300  0.03047500  1
  N  N6  1  0.31816300  0.89807700  0.03047500  1
  N  N7  1  0.68183700  0.10192300  0.53047500  1
  N  N8  1  0.44971300  0.48121900  0.03055200  1
  N  N9  1  0.55028700  0.51878100  0.53055200  1
  N  N10  1  0.05028700  0.98121900  0.53055200  1
  N  N11  1  0.94971300  0.01878100  0.03055200  1
  N  N12  1  0.42757700  0.01895100  0.53035900  1
  N  N13  1  0.57242300  0.98104900  0.03035900  1
  N  N14  1  0.07242300  0.51895100  0.03035900  1
  N  N15  1  0.92757700  0.48104900  0.53035900  1
loop_
_geom_bond_atom_site_label_1
_geom_bond_atom_site_label_2
_geom_bond_distance
_geom_bond_site_symmetry_2
Mn0 N10 1.824045 1_544
Mn0 N10 1.824297 1_545
Mn0 N11 1.952118 1_455
Mn0 N0 2.144851 1_545
Mn0 Se8 2.392574 1_555
Mn1 N11 1.824045 1_565
Mn1 N11 1.824297 1_566
Mn1 N10 1.952118 1_655
Mn1 N1 2.144851 1_565
Mn1 Se9 2.392574 1_555
Mn2 N8 1.824045 1_555
Mn2 N8 1.824297 1_556
Mn2 N9 1.952118 1_555
Mn2 N2 2.144851 1_555
Mn2 Se10 2.392574 1_555
Mn3 N9 1.824045 1_554
Mn3 N9 1.824297 1_555
Mn3 N8 1.952118 1_555
Mn3 N3 2.144851 1_555
Mn3 Se11 2.392574 1_555
Mn4 N15 1.883005 1_455
Mn4 N14 2.055735 1_556
Mn4 N14 2.055836 1_555
Mn4 Se4 2.469722 1_456
Mn4 Se4 2.470033 1_455
Mn5 N14 1.883005 1_655
Mn5 N15 2.055735 1_555
Mn5 N15 2.055836 1_554
Mn5 Se5 2.469722 1_655
Mn5 Se5 2.470033 1_654
Mn6 N13 1.883005 1_545
Mn6 N12 2.055735 1_555
Mn6 N12 2.055836 1_554
Mn6 Se6 2.469722 1_555
Mn6 Se6 2.470033 1_554
Mn7 N12 1.883005 1_565
Mn7 N13 2.055735 1_556
Mn7 N13 2.055836 1_555
Mn7 Se7 2.469722 1_556
Mn7 Se7 2.470033 1_555
Mn8 N4 1.864973 1_554
Mn8 N4 1.864998 1_555
Mn8 N14 1.921840 1_555
Mn9 N5 1.864973 1_555
Mn9 N5 1.864998 1_556
Mn9 N15 1.921840 1_555
Mn10 N6 1.864973 1_555
Mn10 N6 1.864998 1_556
Mn10 N12 1.921840 1_565
Mn11 N7 1.864973 1_554
Mn11 N7 1.864998 1_555
Mn11 N13 1.921840 1_545
Mn12 N10 1.904618 1_555
Mn12 N0 1.952140 1_555
Mn12 N0 1.952210 1_556
Mn12 Se9 2.501052 1_455
Mn12 Se13 2.545297 1_555
Mn13 N11 1.904618 1_555
Mn13 N1 1.952140 1_554
Mn13 N1 1.952210 1_555
Mn13 Se8 2.501052 1_655
Mn13 Se12 2.545297 1_555
Mn14 N8 1.904618 1_555
Mn14 N2 1.952140 1_554
Mn14 N2 1.952210 1_555
Mn14 Se11 2.501052 1_555
Mn14 Se15 2.545297 1_555
Mn15 N9 1.904618 1_555
Mn15 N3 1.952140 1_555
Mn15 N3 1.952210 1_556
Mn15 Se10 2.501052 1_555
Mn15 Se14 2.545297 1_555
Mn16 N5 1.740368 1_555
Mn16 N3 1.754109 1_555
Mn16 Se2 2.379891 1_555
Mn16 Se2 2.379988 1_554
Mn17 N4 1.740368 1_555
Mn17 N2 1.754109 1_555
Mn17 Se3 2.379891 1_556
Mn17 Se3 2.379988 1_555
Mn18 N7 1.740368 1_555
Mn18 N1 1.754109 1_555
Mn18 Se0 2.379891 1_546
Mn18 Se0 2.379988 1_545
Mn19 N6 1.740368 1_555
Mn19 N0 1.754109 1_555
Mn19 Se1 2.379891 1_565
Mn19 Se1 2.379988 1_564
Mn20 N12 1.959670 1_555
Mn20 Se6 2.399142 1_555
Mn20 Se15 2.430276 1_555
Mn20 Se15 2.430550 1_556
Mn20 Se1 2.563906 1_555
Mn21 N13 1.959670 1_555
Mn21 Se7 2.399142 1_555
Mn21 Se14 2.430276 1_554
Mn21 Se14 2.430550 1_555
Mn21 Se0 2.563906 1_555
Mn22 N14 1.959670 1_555
Mn22 Se4 2.399142 1_455
Mn22 Se13 2.430276 1_554
Mn22 Se13 2.430550 1_555
Mn22 Se3 2.563906 1_555
Mn23 N15 1.959670 1_555
Mn23 Se5 2.399142 1_655
Mn23 Se12 2.430276 1_555
Mn23 Se12 2.430550 1_556
Mn23 Se2 2.563906 1_555
