# generated using pymatgen
data_KSrGdWO6
_symmetry_space_group_name_H-M   'P 1'
_cell_length_a   8.42146663
_cell_length_b   8.39916565
_cell_length_c   8.40049908
_cell_angle_alpha   90.00000000
_cell_angle_beta   90.00000000
_cell_angle_gamma   90.00000000
_symmetry_Int_Tables_number   1
_chemical_formula_structural   KSrGdWO6
_chemical_formula_sum   'K4 Sr4 Gd4 W4 O24'
_cell_volume   594.19496480
_cell_formula_units_Z   4
loop_
 _symmetry_equiv_pos_site_id
 _symmetry_equiv_pos_as_xyz
  1  'x, y, z'
loop_
 _atom_site_type_symbol
 _atom_site_label
 _atom_site_symmetry_multiplicity
 _atom_site_fract_x
 _atom_site_fract_y
 _atom_site_fract_z
 _atom_site_occupancy
  K  K0  1  -0.00000000  0.50000000  0.50000000  1
  K  K1  1  0.50000000  0.00000000  0.50000000  1
  K  K2  1  0.50000000  0.00000000  -0.00000000  1
  K  K3  1  -0.00000000  0.50000000  0.00000000  1
  Sr  Sr0  1  0.50000000  0.50000000  0.00000000  1
  Sr  Sr1  1  -0.00000000  0.00000000  0.50000000  1
  Sr  Sr2  1  -0.00000000  0.00000000  -0.00000000  1
  Sr  Sr3  1  0.50000000  0.50000000  0.50000000  1
  Gd  Gd0  1  0.75000000  0.75000000  0.75000000  1
  Gd  Gd1  1  0.25000000  0.25000000  0.75000000  1
  Gd  Gd2  1  0.25000000  0.75000000  0.25000000  1
  Gd  Gd3  1  0.75000000  0.25000000  0.25000000  1
  W  W0  1  0.25000000  0.25000000  0.25000000  1
  W  W1  1  0.75000000  0.75000000  0.25000000  1
  W  W2  1  0.75000000  0.25000000  0.75000000  1
  W  W3  1  0.25000000  0.75000000  0.75000000  1
  O  O0  1  0.01900718  0.21617994  0.27177030  1
  O  O1  1  0.98099282  0.78382006  0.27177030  1
  O  O2  1  0.98099282  0.21617994  0.72822970  1
  O  O3  1  0.01900718  0.78382006  0.72822970  1
  O  O4  1  0.26444150  0.01996356  0.22541109  1
  O  O5  1  0.26444150  0.98003644  0.77458891  1
  O  O6  1  0.73555850  0.98003644  0.22541109  1
  O  O7  1  0.73555850  0.01996356  0.77458891  1
  O  O8  1  0.22686426  0.27008911  0.01982040  1
  O  O9  1  0.77313574  0.27008911  0.98017960  1
  O  O10  1  0.22686426  0.72991089  0.98017960  1
  O  O11  1  0.77313574  0.72991089  0.01982040  1
  O  O12  1  0.48099282  0.28382006  0.22822970  1
  O  O13  1  0.51900718  0.71617994  0.22822970  1
  O  O14  1  0.51900718  0.28382006  0.77177030  1
  O  O15  1  0.48099282  0.71617994  0.77177030  1
  O  O16  1  0.23555850  0.48003644  0.27458891  1
  O  O17  1  0.23555850  0.51996356  0.72541109  1
  O  O18  1  0.76444150  0.51996356  0.27458891  1
  O  O19  1  0.76444150  0.48003644  0.72541109  1
  O  O20  1  0.27313574  0.22991089  0.48017960  1
  O  O21  1  0.72686426  0.22991089  0.51982040  1
  O  O22  1  0.27313574  0.77008911  0.51982040  1
  O  O23  1  0.72686426  0.77008911  0.48017960  1
loop_
_geom_bond_atom_site_label_1
_geom_bond_atom_site_label_2
_geom_bond_distance
_geom_bond_site_symmetry_2
K0 O16 2.747538 1_555
K0 O17 2.747538 1_555
K0 O18 2.747538 1_455
K0 O19 2.747538 1_455
K0 O2 3.063363 1_455
K0 O3 3.063363 1_555
K0 O0 3.063363 1_555
K0 O1 3.063363 1_455
K0 O21 3.234943 1_455
K0 O23 3.234943 1_455
K0 O22 3.234943 1_555
K0 O20 3.234943 1_555
K1 O22 2.721551 1_545
K1 O20 2.721551 1_555
K1 O21 2.721551 1_555
K1 O23 2.721551 1_545
K1 O7 3.046992 1_555
K1 O5 3.046992 1_545
K1 O4 3.046992 1_555
K1 O6 3.046992 1_545
K1 O15 3.304616 1_545
K1 O14 3.304616 1_555
K1 O12 3.304616 1_555
K1 O13 3.304616 1_545
K2 O6 2.747538 1_545
K2 O4 2.747538 1_555
K2 O7 2.747538 1_554
K2 O5 2.747538 1_544
K2 O13 3.063363 1_545
K2 O12 3.063363 1_555
K2 O15 3.063363 1_544
K2 O14 3.063363 1_554
K2 O8 3.234943 1_555
K2 O11 3.234943 1_545
K2 O10 3.234943 1_544
K2 O9 3.234943 1_554
K3 O11 2.721551 1_455
K3 O9 2.721551 1_454
K3 O8 2.721551 1_555
K3 O10 2.721551 1_554
K3 O17 3.046992 1_554
K3 O16 3.046992 1_555
K3 O18 3.046992 1_455
K3 O19 3.046992 1_454
K3 O0 3.304616 1_555
K3 O1 3.304616 1_455
K3 O2 3.304616 1_454
K3 O3 3.304616 1_554
Gd0 O19 2.280103 1_555
Gd0 O7 2.280103 1_565
Gd0 O11 2.281233 1_556
Gd0 O23 2.281233 1_555
Gd0 O3 2.290487 1_655
Gd0 O15 2.290487 1_555
Gd1 O5 2.280103 1_545
Gd1 O17 2.280103 1_555
Gd1 O8 2.281233 1_556
Gd1 O20 2.281233 1_555
Gd1 O2 2.290487 1_455
Gd1 O14 2.290487 1_555
Gd2 O16 2.280103 1_555
Gd2 O4 2.280103 1_565
Gd2 O22 2.281233 1_555
Gd2 O10 2.281233 1_554
Gd2 O1 2.290487 1_455
Gd2 O13 2.290487 1_555
Gd3 O6 2.280103 1_545
Gd3 O18 2.280103 1_555
Gd3 O21 2.281233 1_555
Gd3 O9 2.281233 1_554
Gd3 O0 2.290487 1_655
Gd3 O12 2.290487 1_555
O0 W0 1.974417 1_555
O0 Sr1 2.645434 1_555
O0 Sr2 2.921407 1_555
O1 W1 1.974417 1_555
O1 Sr1 2.645434 1_665
O1 Sr2 2.921407 1_665
O2 W2 1.974417 1_555
O2 Sr1 2.645434 1_655
O2 Sr2 2.921407 1_656
O3 W3 1.974417 1_555
O3 Sr1 2.645434 1_565
O3 Sr2 2.921407 1_566
O4 W0 1.946927 1_555
O4 Sr2 2.927998 1_555
O4 Sr1 3.210665 1_555
O5 W3 1.946927 1_555
O5 Sr2 2.927998 1_566
O5 Sr1 3.210665 1_565
O6 W1 1.946927 1_555
O6 Sr2 2.927998 1_665
O6 Sr1 3.210665 1_665
O7 W2 1.946927 1_555
O7 Sr2 2.927998 1_656
O7 Sr1 3.210665 1_655
O8 W0 1.950726 1_555
O8 Sr2 2.970529 1_555
O8 Sr0 3.007931 1_555
O9 W2 1.950726 1_555
O9 Sr2 2.970529 1_656
O9 Sr0 3.007931 1_556
O10 W3 1.950726 1_555
O10 Sr2 2.970529 1_566
O10 Sr0 3.007931 1_556
O11 W1 1.950726 1_555
O11 Sr2 2.970529 1_665
O11 Sr0 3.007931 1_555
O12 W0 1.974417 1_555
O12 Sr0 2.645434 1_555
O12 Sr3 2.921407 1_555
O13 W1 1.974417 1_555
O13 Sr0 2.645434 1_555
O13 Sr3 2.921407 1_555
O14 W2 1.974417 1_555
O14 Sr0 2.645434 1_556
O14 Sr3 2.921407 1_555
O15 W3 1.974417 1_555
O15 Sr0 2.645434 1_556
O15 Sr3 2.921407 1_555
O16 W0 1.946927 1_555
O16 Sr3 2.927998 1_555
O16 Sr0 3.210665 1_555
O17 W3 1.946927 1_555
O17 Sr3 2.927998 1_555
O17 Sr0 3.210665 1_556
O18 W1 1.946927 1_555
O18 Sr3 2.927998 1_555
O18 Sr0 3.210665 1_555
O19 W2 1.946927 1_555
O19 Sr3 2.927998 1_555
O19 Sr0 3.210665 1_556
O20 W0 1.950726 1_555
O20 Sr3 2.970529 1_555
O20 Sr1 3.007931 1_555
O21 W2 1.950726 1_555
O21 Sr3 2.970529 1_555
O21 Sr1 3.007931 1_655
O22 W3 1.950726 1_555
O22 Sr3 2.970529 1_555
O22 Sr1 3.007931 1_565
O23 W1 1.950726 1_555
O23 Sr3 2.970529 1_555
O23 Sr1 3.007931 1_665
