# generated using pymatgen
data_GdS2
_symmetry_space_group_name_H-M   'P 1'
_cell_length_a   3.95110384
_cell_length_b   7.91220526
_cell_length_c   7.95801151
_cell_angle_alpha   89.83513708
_cell_angle_beta   90.00000000
_cell_angle_gamma   90.00000000
_symmetry_Int_Tables_number   1
_chemical_formula_structural   GdS2
_chemical_formula_sum   'Gd4 S8'
_cell_volume   248.78188487
_cell_formula_units_Z   4
loop_
 _symmetry_equiv_pos_site_id
 _symmetry_equiv_pos_as_xyz
  1  'x, y, z'
loop_
 _atom_site_type_symbol
 _atom_site_label
 _atom_site_symmetry_multiplicity
 _atom_site_fract_x
 _atom_site_fract_y
 _atom_site_fract_z
 _atom_site_occupancy
  Gd  Gd0  1  0.28759717  0.37072303  0.27599013  1
  Gd  Gd1  1  0.78759717  0.12927697  0.72400987  1
  Gd  Gd2  1  0.71240283  0.62927697  0.72400987  1
  Gd  Gd3  1  0.21240283  0.87072303  0.27599013  1
  S  S0  1  0.84231415  0.39088256  0.00329850  1
  S  S1  1  0.34231415  0.10911744  0.99670150  1
  S  S2  1  0.15768585  0.60911744  0.99670150  1
  S  S3  1  0.65768585  0.89088256  0.00329850  1
  S  S4  1  0.26179059  0.37437679  0.63213048  1
  S  S5  1  0.76179059  0.12562321  0.36786952  1
  S  S6  1  0.73820941  0.62562321  0.36786952  1
  S  S7  1  0.23820941  0.87437679  0.63213048  1
loop_
_geom_bond_atom_site_label_1
_geom_bond_atom_site_label_2
_geom_bond_distance
_geom_bond_site_symmetry_2
Gd0 S6 2.789366 1_555
Gd0 S5 2.792418 1_555
Gd0 S0 2.797866 1_455
Gd0 S4 2.836233 1_555
Gd0 S5 2.933145 1_455
Gd0 S2 2.955852 1_554
Gd0 S1 3.049176 1_554
Gd0 S6 3.053288 1_455
Gd0 S0 3.088115 1_555
Gd1 S7 2.789366 1_645
Gd1 S4 2.792418 1_655
Gd1 S1 2.797866 1_555
Gd1 S5 2.836233 1_555
Gd1 S4 2.933145 1_555
Gd1 S3 2.955852 1_546
Gd1 S0 3.049176 1_556
Gd1 S7 3.053288 1_545
Gd1 S1 3.088115 1_655
Gd2 S4 2.789366 1_555
Gd2 S7 2.792418 1_555
Gd2 S2 2.797866 1_655
Gd2 S6 2.836233 1_555
Gd2 S7 2.933145 1_655
Gd2 S0 2.955852 1_556
Gd2 S3 3.049176 1_556
Gd2 S4 3.053288 1_655
Gd2 S2 3.088115 1_555
Gd3 S5 2.789366 1_465
Gd3 S6 2.792418 1_455
Gd3 S3 2.797866 1_555
Gd3 S7 2.836233 1_555
Gd3 S6 2.933145 1_555
Gd3 S1 2.955852 1_564
Gd3 S2 3.049176 1_554
Gd3 S5 3.053288 1_565
Gd3 S3 3.088115 1_455
S0 S2 2.129900 1_654
S1 S3 2.129900 1_546
