# generated using pymatgen
data_MgCrInS4
_symmetry_space_group_name_H-M   'P 1'
_cell_length_a   7.51642019
_cell_length_b   7.47417114
_cell_length_c   7.47443490
_cell_angle_alpha   59.05459687
_cell_angle_beta   59.81265749
_cell_angle_gamma   59.81316862
_symmetry_Int_Tables_number   1
_chemical_formula_structural   MgCrInS4
_chemical_formula_sum   'Mg2 Cr2 In2 S8'
_cell_volume   293.91486141
_cell_formula_units_Z   2
loop_
 _symmetry_equiv_pos_site_id
 _symmetry_equiv_pos_as_xyz
  1  'x, y, z'
loop_
 _atom_site_type_symbol
 _atom_site_label
 _atom_site_symmetry_multiplicity
 _atom_site_fract_x
 _atom_site_fract_y
 _atom_site_fract_z
 _atom_site_occupancy
  Mg  Mg0  1  0.87576500  0.87422000  0.87428400  1
  Mg  Mg1  1  0.12426100  0.12572800  0.12578500  1
  Cr  Cr0  1  0.49981400  0.50016200  0.99985500  1
  Cr  Cr1  1  0.49997500  0.99998900  0.50002700  1
  In  In0  1  0.50004500  0.49999200  0.49997700  1
  In  In1  1  0.00002900  0.49996700  0.50003600  1
  S  S0  1  0.71892700  0.74912700  0.74914000  1
  S  S1  1  0.27093900  0.23611900  0.72208900  1
  S  S2  1  0.27091600  0.72207300  0.23612900  1
  S  S3  1  0.71718700  0.25087300  0.25084300  1
  S  S4  1  0.72911200  0.27790500  0.76387800  1
  S  S5  1  0.28280500  0.74913700  0.74911700  1
  S  S6  1  0.28108100  0.25085000  0.25088300  1
  S  S7  1  0.72914700  0.76385300  0.27795900  1
loop_
_geom_bond_atom_site_label_1
_geom_bond_atom_site_label_2
_geom_bond_distance
_geom_bond_site_symmetry_2
Mg0 S4 2.451343 1_565
Mg0 S7 2.451379 1_556
Mg0 S5 2.500862 1_655
Mg0 S0 2.501114 1_555
Mg1 S2 2.451189 1_545
Mg1 S1 2.451497 1_554
Mg1 S6 2.500897 1_555
Mg1 S3 2.501096 1_455
Cr0 S2 2.432481 1_556
Cr0 S4 2.432690 1_555
Cr0 S5 2.463913 1_555
Cr0 S0 2.465495 1_555
Cr0 S6 2.465497 1_556
Cr0 S3 2.467122 1_556
Cr1 S1 2.432491 1_565
Cr1 S7 2.432555 1_555
Cr1 S5 2.465281 1_555
Cr1 S6 2.465439 1_565
Cr1 S0 2.465567 1_555
Cr1 S3 2.465682 1_565
In0 S7 2.604649 1_555
In0 S1 2.604680 1_555
In0 S4 2.604720 1_555
In0 S2 2.604758 1_555
In0 S3 2.655479 1_555
In0 S5 2.655593 1_555
In1 S7 2.604660 1_455
In1 S1 2.604687 1_555
In1 S4 2.604709 1_455
In1 S2 2.604775 1_555
In1 S6 2.655518 1_555
In1 S0 2.655522 1_455
