# generated using pymatgen
data_Eu3GaP3
_symmetry_space_group_name_H-M   'P 1'
_cell_length_a   9.71213674
_cell_length_b   9.71213674
_cell_length_c   12.16801549
_cell_angle_alpha   90.00000000
_cell_angle_beta   90.00000000
_cell_angle_gamma   142.53287714
_symmetry_Int_Tables_number   1
_chemical_formula_structural   Eu3GaP3
_chemical_formula_sum   'Eu12 Ga4 P12'
_cell_volume   698.18657884
_cell_formula_units_Z   4
loop_
 _symmetry_equiv_pos_site_id
 _symmetry_equiv_pos_as_xyz
  1  'x, y, z'
loop_
 _atom_site_type_symbol
 _atom_site_label
 _atom_site_symmetry_multiplicity
 _atom_site_fract_x
 _atom_site_fract_y
 _atom_site_fract_z
 _atom_site_occupancy
  Eu  Eu0  1  0.81740582  0.81740582  0.64772103  1
  Eu  Eu1  1  0.18259418  0.18259418  0.35227897  1
  Eu  Eu2  1  0.68259418  0.68259418  0.14772103  1
  Eu  Eu3  1  0.31740582  0.31740582  0.85227897  1
  Eu  Eu4  1  0.12975060  0.48245540  0.13188756  1
  Eu  Eu5  1  0.51754460  0.87024940  0.86811244  1
  Eu  Eu6  1  0.01754460  0.37024940  0.63188756  1
  Eu  Eu7  1  0.62975060  0.98245540  0.36811244  1
  Eu  Eu8  1  0.87024940  0.51754460  0.86811244  1
  Eu  Eu9  1  0.48245540  0.12975060  0.13188756  1
  Eu  Eu10  1  0.98245540  0.62975060  0.36811244  1
  Eu  Eu11  1  0.37024940  0.01754460  0.63188756  1
  Ga  Ga0  1  0.91298229  0.08701771  -0.00000000  1
  Ga  Ga1  1  0.41298229  0.58701771  0.50000000  1
  Ga  Ga2  1  0.08701771  0.91298229  -0.00000000  1
  Ga  Ga3  1  0.58701771  0.41298229  0.50000000  1
  P  P0  1  0.28890328  0.28890328  0.60560433  1
  P  P1  1  0.71109672  0.71109672  0.39439567  1
  P  P2  1  0.21109672  0.21109672  0.10560433  1
  P  P3  1  0.78890328  0.78890328  0.89439567  1
  P  P4  1  0.55163589  0.87377503  0.62133171  1
  P  P5  1  0.12622497  0.44836411  0.37866829  1
  P  P6  1  0.62622497  0.94836411  0.12133171  1
  P  P7  1  0.05163589  0.37377503  0.87866829  1
  P  P8  1  0.44836411  0.12622497  0.37866829  1
  P  P9  1  0.87377503  0.55163589  0.62133171  1
  P  P10  1  0.37377503  0.05163589  0.87866829  1
  P  P11  1  0.94836411  0.62622497  0.12133171  1
loop_
_geom_bond_atom_site_label_1
_geom_bond_atom_site_label_2
_geom_bond_distance
_geom_bond_site_symmetry_2
Eu0 P0 2.985724 1_665
Eu0 P3 3.006803 1_555
Eu0 P4 3.050996 1_555
Eu0 P9 3.050996 1_555
Eu0 Ga1 3.116738 1_555
Eu0 Ga3 3.116738 1_555
Eu0 P1 3.153005 1_555
Eu0 P0 3.336628 1_555
Eu1 P1 2.985724 1_445
Eu1 P2 3.006803 1_555
Eu1 P8 3.050996 1_555
Eu1 P5 3.050996 1_555
Eu1 Ga1 3.116738 1_555
Eu1 Ga3 3.116738 1_555
Eu1 P0 3.153005 1_555
Eu1 P1 3.336628 1_555
Eu2 P2 2.985724 1_555
Eu2 P1 3.006803 1_555
Eu2 P11 3.050996 1_555
Eu2 P6 3.050996 1_555
Eu2 Ga2 3.116738 1_655
Eu2 Ga0 3.116738 1_565
Eu2 P3 3.153005 1_554
Eu2 P2 3.336628 1_665
Eu3 P3 2.985724 1_555
Eu3 P0 3.006803 1_555
Eu3 P10 3.050996 1_555
Eu3 P7 3.050996 1_555
Eu3 Ga0 3.116738 1_456
Eu3 Ga2 3.116738 1_546
Eu3 P2 3.153005 1_556
Eu3 P3 3.336628 1_445
Eu4 Ga0 2.987065 1_455
Eu4 P11 2.995714 1_455
Eu4 P6 3.017760 1_555
Eu4 P5 3.018245 1_555
Eu4 P7 3.148360 1_554
Eu4 P6 3.251286 1_445
Eu4 P2 3.313211 1_555
Eu5 Ga0 2.987065 1_566
Eu5 P10 2.995714 1_565
Eu5 P7 3.017760 1_555
Eu5 P4 3.018245 1_555
Eu5 P6 3.148360 1_556
Eu5 P7 3.251286 1_665
Eu5 P3 3.313211 1_555
Eu6 Ga1 2.987065 1_555
Eu6 P9 2.995714 1_455
Eu6 P4 3.017760 1_445
Eu6 P7 3.018245 1_555
Eu6 P5 3.148360 1_555
Eu6 P4 3.251286 1_555
Eu6 P0 3.313211 1_555
Eu7 Ga1 2.987065 1_555
Eu7 P8 2.995714 1_565
Eu7 P5 3.017760 1_665
Eu7 P6 3.018245 1_555
Eu7 P4 3.148360 1_555
Eu7 P5 3.251286 1_555
Eu7 P1 3.313211 1_555
Eu8 Ga2 2.987065 1_656
Eu8 P7 2.995714 1_655
Eu8 P10 3.017760 1_555
Eu8 P9 3.018245 1_555
Eu8 P11 3.148360 1_556
Eu8 P10 3.251286 1_665
Eu8 P3 3.313211 1_555
Eu9 Ga2 2.987065 1_545
Eu9 P6 2.995714 1_545
Eu9 P11 3.017760 1_555
Eu9 P8 3.018245 1_555
Eu9 P10 3.148360 1_554
Eu9 P11 3.251286 1_445
Eu9 P2 3.313211 1_555
Eu10 Ga3 2.987065 1_555
Eu10 P5 2.995714 1_655
Eu10 P8 3.017760 1_665
Eu10 P11 3.018245 1_555
Eu10 P9 3.148360 1_555
Eu10 P8 3.251286 1_555
Eu10 P1 3.313211 1_555
Eu11 Ga3 2.987065 1_555
Eu11 P4 2.995714 1_545
Eu11 P9 3.017760 1_445
Eu11 P10 3.018245 1_555
Eu11 P8 3.148360 1_555
Eu11 P9 3.251286 1_555
Eu11 P0 3.313211 1_555
Ga0 P7 2.407499 1_654
Ga0 P6 2.407499 1_545
Ga0 P3 2.438802 1_544
Ga0 P2 2.438802 1_655
Ga1 P5 2.407499 1_555
Ga1 P4 2.407499 1_555
Ga1 P0 2.438802 1_555
Ga1 P1 2.438802 1_555
Ga2 P10 2.407499 1_564
Ga2 P11 2.407499 1_455
Ga2 P2 2.438802 1_565
Ga2 P3 2.438802 1_454
Ga3 P9 2.407499 1_555
Ga3 P8 2.407499 1_555
Ga3 P0 2.438802 1_555
Ga3 P1 2.438802 1_555
