# generated using pymatgen
data_LuZr6(PO4)9
_symmetry_space_group_name_H-M   'P 1'
_cell_length_a   8.94237482
_cell_length_b   8.94237482
_cell_length_c   22.75504300
_cell_angle_alpha   90.00000000
_cell_angle_beta   90.00000000
_cell_angle_gamma   120.00000606
_symmetry_Int_Tables_number   1
_chemical_formula_structural   LuZr6(PO4)9
_chemical_formula_sum   'Lu2 Zr12 P18 O72'
_cell_volume   1575.84683713
_cell_formula_units_Z   2
loop_
 _symmetry_equiv_pos_site_id
 _symmetry_equiv_pos_as_xyz
  1  'x, y, z'
loop_
 _atom_site_type_symbol
 _atom_site_label
 _atom_site_symmetry_multiplicity
 _atom_site_fract_x
 _atom_site_fract_y
 _atom_site_fract_z
 _atom_site_occupancy
  Lu  Lu0  1  0.00000000  0.00000000  0.50000000  1
  Lu  Lu1  1  0.00000000  0.00000000  0.00000000  1
  Zr  Zr0  1  0.33333300  0.66666700  0.52956900  1
  Zr  Zr1  1  0.66666700  0.33333300  0.47043100  1
  Zr  Zr2  1  0.66666700  0.33333300  0.97043100  1
  Zr  Zr3  1  0.33333300  0.66666700  0.02956900  1
  Zr  Zr4  1  0.00000000  0.00000000  0.64837600  1
  Zr  Zr5  1  0.00000000  0.00000000  0.35162400  1
  Zr  Zr6  1  0.00000000  0.00000000  0.85162400  1
  Zr  Zr7  1  0.00000000  0.00000000  0.14837600  1
  Zr  Zr8  1  0.33333300  0.66666700  0.81302600  1
  Zr  Zr9  1  0.66666700  0.33333300  0.18697400  1
  Zr  Zr10  1  0.66666700  0.33333300  0.68697400  1
  Zr  Zr11  1  0.33333300  0.66666700  0.31302600  1
  P  P0  1  0.37215900  0.31735600  0.57828000  1
  P  P1  1  0.62784100  0.68264400  0.42172000  1
  P  P2  1  0.68264400  0.05480300  0.57828000  1
  P  P3  1  0.31735600  0.37215900  0.92172000  1
  P  P4  1  0.31735600  0.94519700  0.42172000  1
  P  P5  1  0.68264400  0.62784100  0.07828000  1
  P  P6  1  0.94519700  0.62784100  0.57828000  1
  P  P7  1  0.05480300  0.68264400  0.92172000  1
  P  P8  1  0.05480300  0.37215900  0.42172000  1
  P  P9  1  0.94519700  0.31735600  0.07828000  1
  P  P10  1  0.62784100  0.94519700  0.92172000  1
  P  P11  1  0.37215900  0.05480300  0.07828000  1
  P  P12  1  0.29242900  0.00000000  0.75000000  1
  P  P13  1  0.70757100  0.00000000  0.25000000  1
  P  P14  1  0.00000000  0.29242900  0.75000000  1
  P  P15  1  0.00000000  0.70757100  0.25000000  1
  P  P16  1  0.70757100  0.70757100  0.75000000  1
  P  P17  1  0.29242900  0.29242900  0.25000000  1
  O  O0  1  0.45666100  0.28691400  0.52455900  1
  O  O1  1  0.54333900  0.71308600  0.47544100  1
  O  O2  1  0.71308600  0.16974700  0.52455900  1
  O  O3  1  0.28691400  0.45666100  0.97544100  1
  O  O4  1  0.28691400  0.83025300  0.47544100  1
  O  O5  1  0.71308600  0.54333900  0.02455900  1
  O  O6  1  0.83025300  0.54333900  0.52455900  1
  O  O7  1  0.16974700  0.71308600  0.97544100  1
  O  O8  1  0.16974700  0.45666100  0.47544100  1
  O  O9  1  0.83025300  0.28691400  0.02455900  1
  O  O10  1  0.54333900  0.83025300  0.97544100  1
  O  O11  1  0.45666100  0.16974700  0.02455900  1
  O  O12  1  0.37336200  0.48950900  0.57570900  1
  O  O13  1  0.62663800  0.51049100  0.42429100  1
  O  O14  1  0.51049100  0.88385300  0.57570900  1
  O  O15  1  0.48950900  0.37336200  0.92429100  1
  O  O16  1  0.48950900  0.11614700  0.42429100  1
  O  O17  1  0.51049100  0.62663800  0.07570900  1
  O  O18  1  0.11614700  0.62663800  0.57570900  1
  O  O19  1  0.88385300  0.51049100  0.92429100  1
  O  O20  1  0.88385300  0.37336200  0.42429100  1
  O  O21  1  0.11614700  0.48950900  0.07570900  1
  O  O22  1  0.62663800  0.11614700  0.92429100  1
  O  O23  1  0.37336200  0.88385300  0.07570900  1
  O  O24  1  0.17603800  0.16545500  0.57565300  1
  O  O25  1  0.82396200  0.83454500  0.42434700  1
  O  O26  1  0.83454500  0.01058300  0.57565300  1
  O  O27  1  0.16545500  0.17603800  0.92434700  1
  O  O28  1  0.16545500  0.98941700  0.42434700  1
  O  O29  1  0.83454500  0.82396200  0.07565300  1
  O  O30  1  0.98941700  0.82396200  0.57565300  1
  O  O31  1  0.01058300  0.83454500  0.92434700  1
  O  O32  1  0.01058300  0.17603800  0.42434700  1
  O  O33  1  0.98941700  0.16545500  0.07565300  1
  O  O34  1  0.82396200  0.98941700  0.92434700  1
  O  O35  1  0.17603800  0.01058300  0.07565300  1
  O  O36  1  0.02982300  0.20433000  0.69551400  1
  O  O37  1  0.97017700  0.79567000  0.30448600  1
  O  O38  1  0.79567000  0.82549300  0.69551400  1
  O  O39  1  0.20433000  0.02982300  0.80448600  1
  O  O40  1  0.20433000  0.17450700  0.30448600  1
  O  O41  1  0.79567000  0.97017700  0.19551400  1
  O  O42  1  0.17450700  0.97017700  0.69551400  1
  O  O43  1  0.82549300  0.79567000  0.80448600  1
  O  O44  1  0.82549300  0.02982300  0.30448600  1
  O  O45  1  0.17450700  0.20433000  0.19551400  1
  O  O46  1  0.97017700  0.17450700  0.80448600  1
  O  O47  1  0.02982300  0.82549300  0.19551400  1
  O  O48  1  0.45745600  0.30821200  0.63535700  1
  O  O49  1  0.54254400  0.69178800  0.36464300  1
  O  O50  1  0.69178800  0.14924400  0.63535700  1
  O  O51  1  0.30821200  0.45745600  0.86464300  1
  O  O52  1  0.30821200  0.85075600  0.36464300  1
  O  O53  1  0.69178800  0.54254400  0.13535700  1
  O  O54  1  0.85075600  0.54254400  0.63535700  1
  O  O55  1  0.14924400  0.69178800  0.86464300  1
  O  O56  1  0.14924400  0.45745600  0.36464300  1
  O  O57  1  0.85075600  0.30821200  0.13535700  1
  O  O58  1  0.54254400  0.85075600  0.86464300  1
  O  O59  1  0.45745600  0.14924400  0.13535700  1
  O  O60  1  0.46883700  0.15908300  0.74069700  1
  O  O61  1  0.53116300  0.84091700  0.25930300  1
  O  O62  1  0.84091700  0.30975400  0.74069700  1
  O  O63  1  0.15908300  0.46883700  0.75930300  1
  O  O64  1  0.15908300  0.69024600  0.25930300  1
  O  O65  1  0.84091700  0.53116300  0.24069700  1
  O  O66  1  0.69024600  0.53116300  0.74069700  1
  O  O67  1  0.30975400  0.84091700  0.75930300  1
  O  O68  1  0.30975400  0.46883700  0.25930300  1
  O  O69  1  0.69024600  0.15908300  0.24069700  1
  O  O70  1  0.53116300  0.69024600  0.75930300  1
  O  O71  1  0.46883700  0.30975400  0.24069700  1
loop_
_geom_bond_atom_site_label_1
_geom_bond_atom_site_label_2
_geom_bond_distance
_geom_bond_site_symmetry_2
Lu0 O24 2.302519 1_555
Lu0 O25 2.302519 1_445
Lu0 O30 2.302519 1_445
Lu0 O32 2.302519 1_555
Lu0 O26 2.302519 1_455
Lu0 O28 2.302519 1_545
Lu1 O29 2.302519 1_445
Lu1 O27 2.302519 1_554
Lu1 O35 2.302519 1_555
Lu1 O34 2.302519 1_444
Lu1 O33 2.302519 1_455
Lu1 O31 2.302519 1_544
O0 P0 1.531384 1_555
O0 Zr1 2.106306 1_555
O1 P1 1.531384 1_555
O1 Zr0 2.106306 1_555
O2 P2 1.531384 1_555
O2 Zr1 2.106299 1_555
O3 P3 1.531384 1_555
O3 Zr3 2.106306 1_556
O4 P4 1.531384 1_555
O4 Zr0 2.106299 1_555
O5 P5 1.531384 1_555
O5 Zr2 2.106306 1_554
O6 P6 1.531384 1_555
O6 Zr1 2.106304 1_555
O7 P7 1.531384 1_555
O7 Zr3 2.106299 1_556
O8 P8 1.531384 1_555
O8 Zr0 2.106304 1_555
O9 P9 1.531384 1_555
O9 Zr2 2.106299 1_554
O10 P10 1.531384 1_555
O10 Zr3 2.106304 1_556
O11 P11 1.531384 1_555
O11 Zr2 2.106304 1_554
O12 P0 1.535221 1_555
O12 Zr0 2.075395 1_555
O13 P1 1.535221 1_555
O13 Zr1 2.075395 1_555
O14 P2 1.535221 1_565
O14 Zr0 2.075390 1_555
O15 P3 1.535221 1_555
O15 Zr2 2.075395 1_555
O16 P4 1.535221 1_545
O16 Zr1 2.075390 1_555
O17 P5 1.535221 1_555
O17 Zr3 2.075395 1_555
O18 P6 1.535221 1_455
O18 Zr0 2.075388 1_555
O19 P7 1.535221 1_655
O19 Zr2 2.075390 1_555
O20 P8 1.535221 1_655
O20 Zr1 2.075388 1_555
O21 P9 1.535221 1_455
O21 Zr3 2.075390 1_555
O22 P10 1.535221 1_545
O22 Zr2 2.075388 1_555
O23 P11 1.535221 1_565
O23 Zr3 2.075388 1_555
O24 P0 1.594430 1_555
O24 Zr4 2.253107 1_555
O25 P1 1.594430 1_555
O25 Zr5 2.253107 1_665
O26 P2 1.594430 1_555
O26 Zr4 2.253107 1_655
O27 P3 1.594430 1_555
O27 Zr6 2.253107 1_555
O28 P4 1.594430 1_555
O28 Zr5 2.253107 1_565
O29 P5 1.594430 1_555
O29 Zr7 2.253107 1_665
O30 P6 1.594430 1_555
O30 Zr4 2.253107 1_665
O31 P7 1.594430 1_555
O31 Zr6 2.253107 1_565
O32 P8 1.594430 1_555
O32 Zr5 2.253107 1_555
O33 P9 1.594430 1_555
O33 Zr7 2.253107 1_655
O34 P10 1.594430 1_555
O34 Zr6 2.253107 1_665
O35 P11 1.594430 1_555
O35 Zr7 2.253107 1_555
O36 P14 1.561748 1_555
O36 Zr4 2.018168 1_555
O37 P15 1.561748 1_655
O37 Zr5 2.018168 1_665
O38 P16 1.561748 1_555
O38 Zr4 2.018168 1_665
O39 P12 1.561748 1_555
O39 Zr6 2.018168 1_555
O40 P17 1.561748 1_555
O40 Zr5 2.018168 1_555
O41 P13 1.561748 1_565
O41 Zr7 2.018168 1_665
O42 P12 1.561748 1_565
O42 Zr4 2.018168 1_565
O43 P16 1.561748 1_555
O43 Zr6 2.018168 1_665
O44 P13 1.561748 1_555
O44 Zr5 2.018168 1_655
O45 P17 1.561748 1_555
O45 Zr7 2.018168 1_555
O46 P14 1.561748 1_655
O46 Zr6 2.018168 1_655
O47 P15 1.561748 1_555
O47 Zr7 2.018168 1_565
O48 P0 1.528957 1_555
O48 Zr10 2.123631 1_555
O49 P1 1.528957 1_555
O49 Zr11 2.123631 1_555
O50 P2 1.528957 1_555
O50 Zr10 2.123624 1_555
O51 P3 1.528957 1_555
O51 Zr8 2.123631 1_555
O52 P4 1.528957 1_555
O52 Zr11 2.123624 1_555
O53 P5 1.528957 1_555
O53 Zr9 2.123631 1_555
O54 P6 1.528957 1_555
O54 Zr10 2.123628 1_555
O55 P7 1.528957 1_555
O55 Zr8 2.123624 1_555
O56 P8 1.528957 1_555
O56 Zr11 2.123628 1_555
O57 P9 1.528957 1_555
O57 Zr9 2.123624 1_555
O58 P10 1.528957 1_555
O58 Zr8 2.123628 1_555
O59 P11 1.528957 1_555
O59 Zr9 2.123628 1_555
O60 P12 1.520836 1_555
O60 Zr10 2.072552 1_555
O61 P13 1.520836 1_565
O61 Zr11 2.072552 1_555
O62 P14 1.520837 1_655
O62 Zr10 2.072548 1_555
O63 P14 1.520836 1_555
O63 Zr8 2.072552 1_555
O64 P15 1.520837 1_555
O64 Zr11 2.072548 1_555
O65 P15 1.520836 1_655
O65 Zr9 2.072552 1_555
O66 P16 1.520837 1_555
O66 Zr10 2.072555 1_555
O67 P12 1.520837 1_565
O67 Zr8 2.072548 1_555
O68 P17 1.520837 1_555
O68 Zr11 2.072555 1_555
O69 P13 1.520837 1_555
O69 Zr9 2.072548 1_555
O70 P16 1.520837 1_555
O70 Zr8 2.072555 1_555
O71 P17 1.520837 1_555
O71 Zr9 2.072555 1_555
