# generated using pymatgen
data_H24Rh2N8(ClO5)3
_symmetry_space_group_name_H-M   'P 1'
_cell_length_a   12.43274200
_cell_length_b   10.89670800
_cell_length_c   17.49586821
_cell_angle_alpha   90.00000000
_cell_angle_beta   117.16204486
_cell_angle_gamma   90.00000000
_symmetry_Int_Tables_number   1
_chemical_formula_structural   H24Rh2N8(ClO5)3
_chemical_formula_sum   'H96 Rh8 N32 Cl12 O60'
_cell_volume   2108.87378435
_cell_formula_units_Z   4
loop_
 _symmetry_equiv_pos_site_id
 _symmetry_equiv_pos_as_xyz
  1  'x, y, z'
loop_
 _atom_site_type_symbol
 _atom_site_label
 _atom_site_symmetry_multiplicity
 _atom_site_fract_x
 _atom_site_fract_y
 _atom_site_fract_z
 _atom_site_occupancy
  H  H0  1  0.04993700  0.65004900  0.57005900  1
  H  H1  1  0.04993700  0.84995100  0.07005900  1
  H  H2  1  0.95006300  0.34995100  0.42994100  1
  H  H3  1  0.95006300  0.15004900  0.92994100  1
  H  H4  1  0.09840100  0.77235800  0.63382900  1
  H  H5  1  0.09840100  0.72764200  0.13382900  1
  H  H6  1  0.90159900  0.22764200  0.36617100  1
  H  H7  1  0.90159900  0.27235800  0.86617100  1
  H  H8  1  0.95296800  0.74049500  0.58113000  1
  H  H9  1  0.95296800  0.75950500  0.08113000  1
  H  H10  1  0.04703200  0.25950500  0.41887000  1
  H  H11  1  0.04703200  0.24049500  0.91887000  1
  H  H12  1  0.02625600  0.43877400  0.59665100  1
  H  H13  1  0.02625600  0.06122600  0.09665100  1
  H  H14  1  0.97374400  0.56122600  0.40334900  1
  H  H15  1  0.97374400  0.93877400  0.90334900  1
  H  H16  1  0.99835100  0.36640300  0.66969100  1
  H  H17  1  0.99835100  0.13359700  0.16969100  1
  H  H18  1  0.00164900  0.63359700  0.33030900  1
  H  H19  1  0.00164900  0.86640300  0.83030900  1
  H  H20  1  0.13904400  0.38902200  0.68622600  1
  H  H21  1  0.13904400  0.11097800  0.18622600  1
  H  H22  1  0.86095600  0.61097800  0.31377400  1
  H  H23  1  0.86095600  0.88902200  0.81377400  1
  H  H24  1  0.82321800  0.61541100  0.62479500  1
  H  H25  1  0.82321800  0.88458900  0.12479500  1
  H  H26  1  0.17678200  0.38458900  0.37520500  1
  H  H27  1  0.17678200  0.11541100  0.87520500  1
  H  H28  1  0.85719700  0.64406800  0.72586300  1
  H  H29  1  0.85719700  0.85593200  0.22586300  1
  H  H30  1  0.14280300  0.35593200  0.27413700  1
  H  H31  1  0.14280300  0.14406800  0.77413700  1
  H  H32  1  0.85345800  0.50021000  0.69325100  1
  H  H33  1  0.85345800  0.99979000  0.19325100  1
  H  H34  1  0.14654200  0.49979000  0.30674900  1
  H  H35  1  0.14654200  0.00021000  0.80674900  1
  H  H36  1  0.17741800  0.47095900  0.86954500  1
  H  H37  1  0.17741800  0.02904100  0.36954500  1
  H  H38  1  0.82258200  0.52904100  0.13045500  1
  H  H39  1  0.82258200  0.97095900  0.63045500  1
  H  H40  1  0.04290100  0.41244900  0.80886100  1
  H  H41  1  0.04290100  0.08755100  0.30886100  1
  H  H42  1  0.95709900  0.58755100  0.19113900  1
  H  H43  1  0.95709900  0.91244900  0.69113900  1
  H  H44  1  0.05331800  0.53561400  0.86757000  1
  H  H45  1  0.05331800  0.96438600  0.36757000  1
  H  H46  1  0.94668200  0.46438600  0.13243000  1
  H  H47  1  0.94668200  0.03561400  0.63243000  1
  H  H48  1  0.36993600  0.74873700  0.98276400  1
  H  H49  1  0.36993600  0.75126300  0.48276400  1
  H  H50  1  0.63006400  0.25126300  0.01723600  1
  H  H51  1  0.63006400  0.24873700  0.51723600  1
  H  H52  1  0.34343700  0.60808200  0.94279200  1
  H  H53  1  0.34343700  0.89191800  0.44279200  1
  H  H54  1  0.65656300  0.39191800  0.05720800  1
  H  H55  1  0.65656300  0.10808200  0.55720800  1
  H  H56  1  0.22843700  0.70713500  0.91728100  1
  H  H57  1  0.22843700  0.79286500  0.41728100  1
  H  H58  1  0.77156300  0.29286500  0.08271900  1
  H  H59  1  0.77156300  0.20713500  0.58271900  1
  H  H60  1  0.53327000  0.63503300  0.92785900  1
  H  H61  1  0.53327000  0.86496700  0.42785900  1
  H  H62  1  0.46673000  0.36496700  0.07214100  1
  H  H63  1  0.46673000  0.13503300  0.57214100  1
  H  H64  1  0.56616600  0.72647200  0.86736300  1
  H  H65  1  0.56616600  0.77352800  0.36736300  1
  H  H66  1  0.43383400  0.27352800  0.13263700  1
  H  H67  1  0.43383400  0.22647200  0.63263700  1
  H  H68  1  0.50042200  0.59365400  0.82917000  1
  H  H69  1  0.50042200  0.90634600  0.32917000  1
  H  H70  1  0.49957800  0.40634600  0.17083000  1
  H  H71  1  0.49957800  0.09365400  0.67083000  1
  H  H72  1  0.50620200  0.91774900  0.91044000  1
  H  H73  1  0.50620200  0.58225100  0.41044000  1
  H  H74  1  0.49379800  0.08225100  0.08956000  1
  H  H75  1  0.49379800  0.41774900  0.58956000  1
  H  H76  1  0.38486300  0.94538200  0.92307400  1
  H  H77  1  0.38486300  0.55461800  0.42307400  1
  H  H78  1  0.61513700  0.05461800  0.07692600  1
  H  H79  1  0.61513700  0.44538200  0.57692600  1
  H  H80  1  0.38982000  0.98960900  0.83524200  1
  H  H81  1  0.38982000  0.51039100  0.33524200  1
  H  H82  1  0.61018000  0.01039100  0.16475800  1
  H  H83  1  0.61018000  0.48960900  0.66475800  1
  H  H84  1  0.43782200  0.79199800  0.72021500  1
  H  H85  1  0.43782200  0.70800200  0.22021500  1
  H  H86  1  0.56217800  0.20800200  0.27978500  1
  H  H87  1  0.56217800  0.29199800  0.77978500  1
  H  H88  1  0.33078000  0.89466600  0.69496500  1
  H  H89  1  0.33078000  0.60533400  0.19496500  1
  H  H90  1  0.66922000  0.10533400  0.30503500  1
  H  H91  1  0.66922000  0.39466600  0.80503500  1
  H  H92  1  0.29911400  0.75286600  0.65683600  1
  H  H93  1  0.29911400  0.74713400  0.15683600  1
  H  H94  1  0.70088600  0.24713400  0.34316400  1
  H  H95  1  0.70088600  0.25286600  0.84316400  1
  Rh  Rh0  1  0.06635400  0.59966100  0.72386100  1
  Rh  Rh1  1  0.06635400  0.90033900  0.22386100  1
  Rh  Rh2  1  0.93364600  0.40033900  0.27613900  1
  Rh  Rh3  1  0.93364600  0.09966100  0.77613900  1
  Rh  Rh4  1  0.32815500  0.75078500  0.81814700  1
  Rh  Rh5  1  0.32815500  0.74921500  0.31814700  1
  Rh  Rh6  1  0.67184500  0.24921500  0.18185300  1
  Rh  Rh7  1  0.67184500  0.25078500  0.68185300  1
  N  N0  1  0.03698300  0.70155100  0.61416000  1
  N  N1  1  0.03698300  0.79844900  0.11416000  1
  N  N2  1  0.96301700  0.29844900  0.38584000  1
  N  N3  1  0.96301700  0.20155100  0.88584000  1
  N  N4  1  0.05496700  0.42908800  0.66121800  1
  N  N5  1  0.05496700  0.07091200  0.16121800  1
  N  N6  1  0.94503300  0.57091200  0.33878200  1
  N  N7  1  0.94503300  0.92908800  0.83878200  1
  N  N8  1  0.87824700  0.58925200  0.68688800  1
  N  N9  1  0.87824700  0.91074800  0.18688800  1
  N  N10  1  0.12175300  0.41074800  0.31311200  1
  N  N11  1  0.12175300  0.08925200  0.81311200  1
  N  N12  1  0.08869400  0.49384700  0.83126100  1
  N  N13  1  0.08869400  0.00615300  0.33126100  1
  N  N14  1  0.91130600  0.50615300  0.16873900  1
  N  N15  1  0.91130600  0.99384700  0.66873900  1
  N  N16  1  0.31689900  0.69811000  0.92902200  1
  N  N17  1  0.31689900  0.80189000  0.42902200  1
  N  N18  1  0.68310100  0.30189000  0.07097800  1
  N  N19  1  0.68310100  0.19811000  0.57097800  1
  N  N20  1  0.50117700  0.66708100  0.86596000  1
  N  N21  1  0.50117700  0.83291900  0.36596000  1
  N  N22  1  0.49882300  0.33291900  0.13404000  1
  N  N23  1  0.49882300  0.16708100  0.63404000  1
  N  N24  1  0.41336100  0.91909900  0.87877900  1
  N  N25  1  0.41336100  0.58090100  0.37877900  1
  N  N26  1  0.58663900  0.08090100  0.12122100  1
  N  N27  1  0.58663900  0.41909900  0.62122100  1
  N  N28  1  0.35078700  0.80358800  0.71066800  1
  N  N29  1  0.35078700  0.69641200  0.21066800  1
  N  N30  1  0.64921300  0.19641200  0.28933200  1
  N  N31  1  0.64921300  0.30358800  0.78933200  1
  Cl  Cl0  1  0.26508000  0.51033800  0.55462900  1
  Cl  Cl1  1  0.26508000  0.98966200  0.05462900  1
  Cl  Cl2  1  0.73492000  0.48966200  0.44537100  1
  Cl  Cl3  1  0.73492000  0.01033800  0.94537100  1
  Cl  Cl4  1  0.81827600  0.58160900  0.89689500  1
  Cl  Cl5  1  0.81827600  0.91839100  0.39689500  1
  Cl  Cl6  1  0.18172400  0.41839100  0.10310500  1
  Cl  Cl7  1  0.18172400  0.08160900  0.60310500  1
  Cl  Cl8  1  0.39110400  0.32874700  0.87854500  1
  Cl  Cl9  1  0.39110400  0.17125300  0.37854500  1
  Cl  Cl10  1  0.60889600  0.67125300  0.12145500  1
  Cl  Cl11  1  0.60889600  0.82874700  0.62145500  1
  O  O0  1  0.08065000  0.76061700  0.78547600  1
  O  O1  1  0.08065000  0.73938300  0.28547600  1
  O  O2  1  0.91935000  0.23938300  0.21452400  1
  O  O3  1  0.91935000  0.26061700  0.71452400  1
  O  O4  1  0.16703000  0.83707700  0.77257300  1
  O  O5  1  0.16703000  0.66292300  0.27257300  1
  O  O6  1  0.83297000  0.16292300  0.22742700  1
  O  O7  1  0.83297000  0.33707700  0.72742700  1
  O  O8  1  0.23981500  0.60570100  0.75696700  1
  O  O9  1  0.23981500  0.89429900  0.25696700  1
  O  O10  1  0.76018500  0.39429900  0.24303300  1
  O  O11  1  0.76018500  0.10570100  0.74303300  1
  O  O12  1  0.14353900  0.46074300  0.52588700  1
  O  O13  1  0.14353900  0.03925700  0.02588700  1
  O  O14  1  0.85646100  0.53925700  0.47411300  1
  O  O15  1  0.85646100  0.96074300  0.97411300  1
  O  O16  1  0.31325200  0.46553600  0.49662800  1
  O  O17  1  0.31325200  0.03446400  0.99662800  1
  O  O18  1  0.68674800  0.53446400  0.50337200  1
  O  O19  1  0.68674800  0.96553600  0.00337200  1
  O  O20  1  0.34461000  0.47099900  0.64128400  1
  O  O21  1  0.34461000  0.02900100  0.14128400  1
  O  O22  1  0.65539000  0.52900100  0.35871600  1
  O  O23  1  0.65539000  0.97099900  0.85871600  1
  O  O24  1  0.25701300  0.64448700  0.54937800  1
  O  O25  1  0.25701300  0.85551300  0.04937800  1
  O  O26  1  0.74298700  0.35551300  0.45062200  1
  O  O27  1  0.74298700  0.14448700  0.95062200  1
  O  O28  1  0.90368400  0.64509100  0.87444700  1
  O  O29  1  0.90368400  0.85490900  0.37444700  1
  O  O30  1  0.09631600  0.35490900  0.12555300  1
  O  O31  1  0.09631600  0.14509100  0.62555300  1
  O  O32  1  0.70034900  0.57241100  0.81947500  1
  O  O33  1  0.70034900  0.92758900  0.31947500  1
  O  O34  1  0.29965100  0.42758900  0.18052500  1
  O  O35  1  0.29965100  0.07241100  0.68052500  1
  O  O36  1  0.80298300  0.65050000  0.96274100  1
  O  O37  1  0.80298300  0.84950000  0.46274100  1
  O  O38  1  0.19701700  0.34950000  0.03725900  1
  O  O39  1  0.19701700  0.15050000  0.53725900  1
  O  O40  1  0.86180700  0.45810200  0.92766600  1
  O  O41  1  0.86180700  0.04189800  0.42766600  1
  O  O42  1  0.13819300  0.54189800  0.07233400  1
  O  O43  1  0.13819300  0.95810200  0.57233400  1
  O  O44  1  0.44565800  0.21254900  0.91966500  1
  O  O45  1  0.44565800  0.28745100  0.41966500  1
  O  O46  1  0.55434200  0.78745100  0.08033500  1
  O  O47  1  0.55434200  0.71254900  0.58033500  1
  O  O48  1  0.46233100  0.38297300  0.84050300  1
  O  O49  1  0.46233100  0.11702700  0.34050300  1
  O  O50  1  0.53766900  0.61702700  0.15949700  1
  O  O51  1  0.53766900  0.88297300  0.65949700  1
  O  O52  1  0.73252500  0.69174600  0.18658100  1
  O  O53  1  0.73252500  0.80825400  0.68658100  1
  O  O54  1  0.26747500  0.30825400  0.81341900  1
  O  O55  1  0.26747500  0.19174600  0.31341900  1
  O  O56  1  0.61043300  0.58696900  0.05582500  1
  O  O57  1  0.61043300  0.91303100  0.55582500  1
  O  O58  1  0.38956700  0.41303100  0.94417500  1
  O  O59  1  0.38956700  0.08696900  0.44417500  1
loop_
_geom_bond_atom_site_label_1
_geom_bond_atom_site_label_2
_geom_bond_distance
_geom_bond_site_symmetry_2
H0 N0 1.024543 1_555
H1 N1 1.024543 1_555
H2 N2 1.024543 1_555
H3 N3 1.024543 1_555
H4 N0 1.028053 1_555
H5 N1 1.028053 1_555
H6 N2 1.028053 1_555
H7 N3 1.028053 1_555
H8 N0 1.026632 1_655
H9 N1 1.026632 1_655
H10 N2 1.026632 1_455
H11 N3 1.026632 1_455
H12 N4 1.022994 1_555
H13 N5 1.022994 1_555
H14 N6 1.022994 1_555
H15 N7 1.022994 1_555
H16 N4 1.038885 1_655
H17 N5 1.038885 1_655
H18 N6 1.038885 1_455
H19 N7 1.038885 1_455
H20 N4 1.028172 1_555
H21 N5 1.028172 1_555
H22 N6 1.028172 1_555
H23 N7 1.028172 1_555
H24 N8 1.025148 1_555
H25 N9 1.025148 1_555
H26 N10 1.025148 1_555
H27 N11 1.025148 1_555
H28 N8 1.026256 1_555
H29 N9 1.026256 1_555
H30 N10 1.026256 1_555
H31 N11 1.026256 1_555
H32 N8 1.039287 1_555
H33 N9 1.039287 1_555
H34 N10 1.039287 1_555
H35 N11 1.039287 1_555
H36 N12 1.026183 1_555
H37 N13 1.026183 1_555
H38 N14 1.026183 1_555
H39 N15 1.026183 1_555
H40 N12 1.029917 1_555
H41 N13 1.029917 1_555
H42 N14 1.029917 1_555
H43 N15 1.029917 1_555
H44 N12 1.029188 1_555
H45 N13 1.029188 1_565
H46 N14 1.029188 1_555
H47 N15 1.029188 1_545
H48 N16 1.028182 1_555
H49 N17 1.028182 1_555
H50 N18 1.028182 1_555
H51 N19 1.028182 1_555
H52 N16 1.027962 1_555
H53 N17 1.027962 1_555
H54 N18 1.027962 1_555
H55 N19 1.027962 1_555
H56 N16 1.027234 1_555
H57 N17 1.027234 1_555
H58 N18 1.027234 1_555
H59 N19 1.027234 1_555
H60 N20 1.029306 1_555
H61 N21 1.029306 1_555
H62 N22 1.029306 1_555
H63 N23 1.029306 1_555
H64 N20 1.026727 1_555
H65 N21 1.026727 1_555
H66 N22 1.026727 1_555
H67 N23 1.026727 1_555
H68 N20 1.024240 1_555
H69 N21 1.024240 1_555
H70 N22 1.024240 1_555
H71 N23 1.024240 1_555
H72 N24 1.027435 1_555
H73 N25 1.027435 1_555
H74 N26 1.027435 1_555
H75 N27 1.027435 1_555
H76 N24 1.029004 1_555
H77 N25 1.029004 1_555
H78 N26 1.029004 1_555
H79 N27 1.029004 1_555
H80 N24 1.025989 1_555
H81 N25 1.025989 1_555
H82 N26 1.025989 1_555
H83 N27 1.025989 1_555
H84 N28 1.024565 1_555
H85 N29 1.024565 1_555
H86 N30 1.024565 1_555
H87 N31 1.024565 1_555
H88 N28 1.029522 1_555
H89 N29 1.029522 1_555
H90 N30 1.029522 1_555
H91 N31 1.029522 1_555
H92 N28 1.026072 1_555
H93 N29 1.026072 1_555
H94 N30 1.026072 1_555
H95 N31 1.026072 1_555
N0 Rh0 2.099977 1_555
N1 Rh1 2.099977 1_555
N2 Rh2 2.099977 1_555
N3 Rh3 2.099977 1_555
N4 Rh0 2.129386 1_555
N5 Rh1 2.129386 1_545
N6 Rh2 2.129386 1_555
N7 Rh3 2.129386 1_565
N8 Rh0 2.125916 1_655
N9 Rh1 2.125916 1_655
N10 Rh2 2.125916 1_455
N11 Rh3 2.125916 1_455
N12 Rh0 2.112097 1_555
N13 Rh1 2.112097 1_545
N14 Rh2 2.112097 1_555
N15 Rh3 2.112097 1_565
N16 Rh4 2.088045 1_555
N17 Rh5 2.088045 1_555
N18 Rh6 2.088045 1_555
N19 Rh7 2.088045 1_555
N20 Rh4 2.125119 1_555
N21 Rh5 2.125119 1_555
N22 Rh6 2.125119 1_555
N23 Rh7 2.125119 1_555
N24 Rh4 2.141336 1_555
N25 Rh5 2.141336 1_555
N26 Rh6 2.141336 1_555
N27 Rh7 2.141336 1_555
N28 Rh4 2.104608 1_555
N29 Rh5 2.104608 1_555
N30 Rh6 2.104608 1_555
N31 Rh7 2.104608 1_555
Cl0 O20 1.446137 1_555
Cl0 O12 1.461006 1_555
Cl0 O24 1.465229 1_555
Cl0 O16 1.477057 1_555
Cl1 O21 1.446137 1_565
Cl1 O13 1.461006 1_565
Cl1 O25 1.465229 1_555
Cl1 O17 1.477057 1_564
Cl2 O22 1.446137 1_555
Cl2 O14 1.461006 1_555
Cl2 O26 1.465229 1_555
Cl2 O18 1.477057 1_555
Cl3 O23 1.446137 1_545
Cl3 O15 1.461006 1_545
Cl3 O27 1.465229 1_555
Cl3 O19 1.477057 1_546
Cl4 O36 1.458371 1_555
Cl4 O40 1.458750 1_555
Cl4 O28 1.463238 1_555
Cl4 O32 1.476889 1_555
Cl5 O37 1.458371 1_555
Cl5 O41 1.458750 1_565
Cl5 O29 1.463238 1_555
Cl5 O33 1.476889 1_555
Cl6 O38 1.458371 1_555
Cl6 O42 1.458750 1_555
Cl6 O30 1.463238 1_555
Cl6 O34 1.476889 1_555
Cl7 O39 1.458371 1_555
Cl7 O43 1.458750 1_545
Cl7 O31 1.463238 1_555
Cl7 O35 1.476889 1_555
Cl8 O54 1.453157 1_555
Cl8 O48 1.454120 1_555
Cl8 O44 1.461266 1_555
Cl8 O58 1.477287 1_555
Cl9 O55 1.453157 1_555
Cl9 O49 1.454120 1_555
Cl9 O45 1.461266 1_555
Cl9 O59 1.477287 1_555
Cl10 O52 1.453157 1_555
Cl10 O50 1.454120 1_555
Cl10 O46 1.461266 1_555
Cl10 O56 1.477287 1_555
Cl11 O53 1.453157 1_555
Cl11 O51 1.454120 1_555
Cl11 O47 1.461266 1_555
Cl11 O57 1.477287 1_555
O0 O4 1.455961 1_555
O0 Rh0 2.023583 1_555
O1 O5 1.455961 1_555
O1 Rh1 2.023583 1_555
O2 O6 1.455961 1_555
O2 Rh2 2.023583 1_555
O3 O7 1.455961 1_555
O3 Rh3 2.023583 1_555
O4 Rh4 2.018540 1_555
O5 Rh5 2.018540 1_555
O6 Rh6 2.018540 1_555
O7 Rh7 2.018540 1_555
O8 Rh4 1.943715 1_555
O8 Rh0 1.962204 1_555
O9 Rh5 1.943715 1_555
O9 Rh1 1.962204 1_555
O10 Rh6 1.943715 1_555
O10 Rh2 1.962204 1_555
O11 Rh7 1.943715 1_555
O11 Rh3 1.962204 1_555
