# generated using pymatgen
data_SbAsIr
_symmetry_space_group_name_H-M   'P 1'
_cell_length_a   6.39869700
_cell_length_b   6.40344860
_cell_length_c   6.55434184
_cell_angle_alpha   114.09464444
_cell_angle_beta   90.00000000
_cell_angle_gamma   90.00000000
_symmetry_Int_Tables_number   1
_chemical_formula_structural   SbAsIr
_chemical_formula_sum   'Sb4 As4 Ir4'
_cell_volume   245.15717598
_cell_formula_units_Z   4
loop_
 _symmetry_equiv_pos_site_id
 _symmetry_equiv_pos_as_xyz
  1  'x, y, z'
loop_
 _atom_site_type_symbol
 _atom_site_label
 _atom_site_symmetry_multiplicity
 _atom_site_fract_x
 _atom_site_fract_y
 _atom_site_fract_z
 _atom_site_occupancy
  Sb  Sb0  1  0.86927700  0.66395100  0.31584800  1
  Sb  Sb1  1  0.36927700  0.33604900  0.18415200  1
  Sb  Sb2  1  0.13072300  0.33604900  0.68415200  1
  Sb  Sb3  1  0.63072300  0.66395100  0.81584800  1
  As  As0  1  0.13239700  0.84993900  0.11678500  1
  As  As1  1  0.63239700  0.15006100  0.38321500  1
  As  As2  1  0.86760300  0.15006100  0.88321500  1
  As  As3  1  0.36760300  0.84993900  0.61678500  1
  Ir  Ir0  1  0.49049700  0.74220900  0.21431800  1
  Ir  Ir1  1  0.99049700  0.25779100  0.28568200  1
  Ir  Ir2  1  0.50950300  0.25779100  0.78568200  1
  Ir  Ir3  1  0.00950300  0.74220900  0.71431800  1
loop_
_geom_bond_atom_site_label_1
_geom_bond_atom_site_label_2
_geom_bond_distance
_geom_bond_site_symmetry_2
As0 Ir0 2.548529 1_555
As0 Ir1 2.551484 1_465
As0 Ir3 2.562615 1_554
As0 Sb0 2.687756 1_455
As1 Ir1 2.548529 1_555
As1 Ir0 2.551484 1_545
As1 Ir2 2.562615 1_555
As1 Sb1 2.687756 1_555
As2 Ir2 2.548529 1_555
As2 Ir3 2.551484 1_645
As2 Ir1 2.562615 1_556
As2 Sb2 2.687756 1_655
As3 Ir3 2.548529 1_555
As3 Ir2 2.551484 1_565
As3 Ir0 2.562615 1_555
As3 Sb3 2.687756 1_555
Ir0 Sb3 2.609333 1_554
Ir0 Sb0 2.615446 1_555
Ir0 Sb1 2.642943 1_555
Ir1 Sb2 2.609333 1_655
Ir1 Sb1 2.615446 1_655
Ir1 Sb0 2.642943 1_555
Ir2 Sb1 2.609333 1_556
Ir2 Sb2 2.615446 1_555
Ir2 Sb3 2.642943 1_555
Ir3 Sb0 2.609333 1_455
Ir3 Sb3 2.615446 1_455
Ir3 Sb2 2.642943 1_555
