# generated using pymatgen
data_LaNi5P3
_symmetry_space_group_name_H-M   'P 1'
_cell_length_a   6.08471490
_cell_length_b   6.08471490
_cell_length_c   11.45208870
_cell_angle_alpha   90.00000000
_cell_angle_beta   90.00000000
_cell_angle_gamma   145.44571187
_symmetry_Int_Tables_number   1
_chemical_formula_structural   LaNi5P3
_chemical_formula_sum   'La2 Ni10 P6'
_cell_volume   240.48684418
_cell_formula_units_Z   2
loop_
 _symmetry_equiv_pos_site_id
 _symmetry_equiv_pos_as_xyz
  1  'x, y, z'
loop_
 _atom_site_type_symbol
 _atom_site_label
 _atom_site_symmetry_multiplicity
 _atom_site_fract_x
 _atom_site_fract_y
 _atom_site_fract_z
 _atom_site_occupancy
  La  La0  1  0.33759711  0.66240289  0.25000000  1
  La  La1  1  0.66240289  0.33759711  0.75000000  1
  Ni  Ni0  1  0.05056969  0.94943031  0.14546202  1
  Ni  Ni1  1  0.05056969  0.94943031  0.35453798  1
  Ni  Ni2  1  0.69846388  0.30153612  0.43173217  1
  Ni  Ni3  1  0.30153612  0.69846388  0.56826783  1
  Ni  Ni4  1  0.30153612  0.69846388  0.93173217  1
  Ni  Ni5  1  0.69846388  0.30153612  0.06826783  1
  Ni  Ni6  1  0.50000000  0.50000000  0.50000000  1
  Ni  Ni7  1  0.50000000  0.50000000  0.00000000  1
  Ni  Ni8  1  0.94943031  0.05056969  0.64546202  1
  Ni  Ni9  1  0.94943031  0.05056969  0.85453798  1
  P  P0  1  0.61635247  0.38364753  0.25000000  1
  P  P1  1  0.38364753  0.61635247  0.75000000  1
  P  P2  1  0.11817784  0.88182216  0.53754720  1
  P  P3  1  0.88182216  0.11817784  0.46245280  1
  P  P4  1  0.88182216  0.11817784  0.03754720  1
  P  P5  1  0.11817784  0.88182216  0.96245280  1
loop_
_geom_bond_atom_site_label_1
_geom_bond_atom_site_label_2
_geom_bond_distance
_geom_bond_site_symmetry_2
La0 P3 3.073992 1_455
La0 P3 3.073992 1_565
La0 P4 3.073992 1_565
La0 P4 3.073992 1_455
La0 P0 3.142517 1_455
La0 P0 3.142517 1_565
La0 Ni2 3.195482 1_565
La0 Ni5 3.195482 1_565
La0 Ni5 3.195482 1_455
La0 Ni2 3.195482 1_455
La0 P0 3.239231 1_555
La0 Ni0 3.289929 1_545
La0 Ni1 3.289929 1_545
La0 Ni0 3.289929 1_655
La0 Ni1 3.289929 1_655
La1 P5 3.073992 1_545
La1 P2 3.073992 1_545
La1 P5 3.073992 1_655
La1 P2 3.073992 1_655
La1 P1 3.142517 1_545
La1 P1 3.142517 1_655
La1 Ni4 3.195482 1_655
La1 Ni3 3.195482 1_655
La1 Ni4 3.195482 1_545
La1 Ni3 3.195482 1_545
La1 P1 3.239231 1_555
La1 Ni8 3.289929 1_455
La1 Ni9 3.289929 1_455
La1 Ni8 3.289929 1_565
La1 Ni9 3.289929 1_565
Ni0 P5 2.238247 1_554
Ni0 P0 2.298536 1_455
Ni0 P0 2.298536 1_565
Ni0 P4 2.317858 1_465
Ni1 P2 2.238247 1_555
Ni1 P0 2.298536 1_455
Ni1 P0 2.298536 1_565
Ni1 P3 2.317858 1_465
Ni2 P3 2.159535 1_555
Ni2 P0 2.289514 1_555
Ni2 P2 2.367395 1_545
Ni2 P2 2.367395 1_655
Ni3 P2 2.159535 1_555
Ni3 P1 2.289514 1_555
Ni3 P3 2.367395 1_565
Ni3 P3 2.367395 1_455
Ni4 P5 2.159535 1_555
Ni4 P1 2.289514 1_555
Ni4 P4 2.367395 1_566
Ni4 P4 2.367395 1_456
Ni5 P4 2.159535 1_555
Ni5 P0 2.289514 1_555
Ni5 P5 2.367395 1_544
Ni5 P5 2.367395 1_654
Ni6 P3 2.310076 1_455
Ni6 P2 2.310076 1_655
Ni6 P3 2.310076 1_565
Ni6 P2 2.310076 1_545
Ni7 P4 2.310076 1_565
Ni7 P4 2.310076 1_455
Ni7 P5 2.310076 1_654
Ni7 P5 2.310076 1_544
Ni8 P3 2.238247 1_555
Ni8 P1 2.298536 1_545
Ni8 P1 2.298536 1_655
Ni8 P2 2.317858 1_645
Ni9 P4 2.238247 1_556
Ni9 P1 2.298536 1_545
Ni9 P1 2.298536 1_655
Ni9 P5 2.317858 1_645
