# generated using pymatgen
data_K2BiH4Cl5O2
_symmetry_space_group_name_H-M   'P 1'
_cell_length_a   8.57024200
_cell_length_b   12.58095000
_cell_length_c   22.09504600
_cell_angle_alpha   90.00000000
_cell_angle_beta   90.00000000
_cell_angle_gamma   90.00000000
_symmetry_Int_Tables_number   1
_chemical_formula_structural   K2BiH4Cl5O2
_chemical_formula_sum   'K16 Bi8 H32 Cl40 O16'
_cell_volume   2382.32732346
_cell_formula_units_Z   8
loop_
 _symmetry_equiv_pos_site_id
 _symmetry_equiv_pos_as_xyz
  1  'x, y, z'
loop_
 _atom_site_type_symbol
 _atom_site_label
 _atom_site_symmetry_multiplicity
 _atom_site_fract_x
 _atom_site_fract_y
 _atom_site_fract_z
 _atom_site_occupancy
  K  K0  1  0.94537200  0.15752300  0.25000000  1
  K  K1  1  0.44537200  0.34247700  0.25000000  1
  K  K2  1  0.05462800  0.84247700  0.75000000  1
  K  K3  1  0.55462800  0.65752300  0.75000000  1
  K  K4  1  0.78730300  0.83526100  0.25000000  1
  K  K5  1  0.28730300  0.66473900  0.25000000  1
  K  K6  1  0.21269700  0.16473900  0.75000000  1
  K  K7  1  0.71269700  0.33526100  0.75000000  1
  K  K8  1  0.52017900  0.69353500  0.95216700  1
  K  K9  1  0.02017900  0.80646500  0.54783300  1
  K  K10  1  0.47982100  0.30646500  0.45216700  1
  K  K11  1  0.97982100  0.19353500  0.04783300  1
  K  K12  1  0.47982100  0.30646500  0.04783300  1
  K  K13  1  0.97982100  0.19353500  0.45216700  1
  K  K14  1  0.52017900  0.69353500  0.54783300  1
  K  K15  1  0.02017900  0.80646500  0.95216700  1
  Bi  Bi0  1  0.86602200  0.50336800  0.15206000  1
  Bi  Bi1  1  0.36602200  0.99663200  0.34794000  1
  Bi  Bi2  1  0.13397800  0.49663200  0.65206000  1
  Bi  Bi3  1  0.63397800  0.00336800  0.84794000  1
  Bi  Bi4  1  0.13397800  0.49663200  0.84794000  1
  Bi  Bi5  1  0.63397800  0.00336800  0.65206000  1
  Bi  Bi6  1  0.86602200  0.50336800  0.34794000  1
  Bi  Bi7  1  0.36602200  0.99663200  0.15206000  1
  H  H0  1  0.77424400  0.01403700  0.36113100  1
  H  H1  1  0.27424400  0.48596300  0.13886900  1
  H  H2  1  0.22575600  0.98596300  0.86113100  1
  H  H3  1  0.72575600  0.51403700  0.63886900  1
  H  H4  1  0.22575600  0.98596300  0.63886900  1
  H  H5  1  0.72575600  0.51403700  0.86113100  1
  H  H6  1  0.77424400  0.01403700  0.13886900  1
  H  H7  1  0.27424400  0.48596300  0.36113100  1
  H  H8  1  0.69949100  0.88472400  0.01881400  1
  H  H9  1  0.19949100  0.61527600  0.48118600  1
  H  H10  1  0.30050900  0.11527600  0.51881400  1
  H  H11  1  0.80050900  0.38472400  0.98118600  1
  H  H12  1  0.30050900  0.11527600  0.98118600  1
  H  H13  1  0.80050900  0.38472400  0.51881400  1
  H  H14  1  0.69949100  0.88472400  0.48118600  1
  H  H15  1  0.19949100  0.61527600  0.01881400  1
  H  H16  1  0.94373100  0.96816300  0.36249600  1
  H  H17  1  0.44373100  0.53183700  0.13750400  1
  H  H18  1  0.05626900  0.03183700  0.86249600  1
  H  H19  1  0.55626900  0.46816300  0.63750400  1
  H  H20  1  0.05626900  0.03183700  0.63750400  1
  H  H21  1  0.55626900  0.46816300  0.86249600  1
  H  H22  1  0.94373100  0.96816300  0.13750400  1
  H  H23  1  0.44373100  0.53183700  0.36249600  1
  H  H24  1  0.72757900  0.78565500  0.05885600  1
  H  H25  1  0.22757900  0.71434500  0.44114400  1
  H  H26  1  0.27242100  0.21434500  0.55885600  1
  H  H27  1  0.77242100  0.28565500  0.94114400  1
  H  H28  1  0.27242100  0.21434500  0.94114400  1
  H  H29  1  0.77242100  0.28565500  0.55885600  1
  H  H30  1  0.72757900  0.78565500  0.44114400  1
  H  H31  1  0.22757900  0.71434500  0.05885600  1
  Cl  Cl0  1  0.99458000  0.69793200  0.15130700  1
  Cl  Cl1  1  0.49458000  0.80206800  0.34869300  1
  Cl  Cl2  1  0.00542000  0.30206800  0.65130700  1
  Cl  Cl3  1  0.50542000  0.19793200  0.84869300  1
  Cl  Cl4  1  0.00542000  0.30206800  0.84869300  1
  Cl  Cl5  1  0.50542000  0.19793200  0.65130700  1
  Cl  Cl6  1  0.99458000  0.69793200  0.34869300  1
  Cl  Cl7  1  0.49458000  0.80206800  0.15130700  1
  Cl  Cl8  1  0.67108300  0.57028800  0.25000000  1
  Cl  Cl9  1  0.17108300  0.92971200  0.25000000  1
  Cl  Cl10  1  0.32891700  0.42971200  0.75000000  1
  Cl  Cl11  1  0.82891700  0.07028800  0.75000000  1
  Cl  Cl12  1  0.64797200  0.54718500  0.06813800  1
  Cl  Cl13  1  0.14797200  0.95281500  0.43186200  1
  Cl  Cl14  1  0.35202800  0.45281500  0.56813800  1
  Cl  Cl15  1  0.85202800  0.04718500  0.93186200  1
  Cl  Cl16  1  0.35202800  0.45281500  0.93186200  1
  Cl  Cl17  1  0.85202800  0.04718500  0.56813800  1
  Cl  Cl18  1  0.64797200  0.54718500  0.43186200  1
  Cl  Cl19  1  0.14797200  0.95281500  0.06813800  1
  Cl  Cl20  1  0.05884600  0.43911400  0.25000000  1
  Cl  Cl21  1  0.55884600  0.06088600  0.25000000  1
  Cl  Cl22  1  0.94115400  0.56088600  0.75000000  1
  Cl  Cl23  1  0.44115400  0.93911400  0.75000000  1
  Cl  Cl24  1  0.74475000  0.30042000  0.15445300  1
  Cl  Cl25  1  0.24475000  0.19958000  0.34554700  1
  Cl  Cl26  1  0.25525000  0.69958000  0.65445300  1
  Cl  Cl27  1  0.75525000  0.80042000  0.84554700  1
  Cl  Cl28  1  0.25525000  0.69958000  0.84554700  1
  Cl  Cl29  1  0.75525000  0.80042000  0.65445300  1
  Cl  Cl30  1  0.74475000  0.30042000  0.34554700  1
  Cl  Cl31  1  0.24475000  0.19958000  0.15445300  1
  Cl  Cl32  1  0.08578700  0.44191400  0.07419300  1
  Cl  Cl33  1  0.58578700  0.05808600  0.42580700  1
  Cl  Cl34  1  0.91421300  0.55808600  0.57419300  1
  Cl  Cl35  1  0.41421300  0.94191400  0.92580700  1
  Cl  Cl36  1  0.91421300  0.55808600  0.92580700  1
  Cl  Cl37  1  0.41421300  0.94191400  0.57419300  1
  Cl  Cl38  1  0.08578700  0.44191400  0.42580700  1
  Cl  Cl39  1  0.58578700  0.05808600  0.07419300  1
  O  O0  1  0.86451100  0.99782700  0.33512300  1
  O  O1  1  0.36451100  0.50217300  0.16487700  1
  O  O2  1  0.13548900  0.00217300  0.83512300  1
  O  O3  1  0.63548900  0.49782700  0.66487700  1
  O  O4  1  0.13548900  0.00217300  0.66487700  1
  O  O5  1  0.63548900  0.49782700  0.83512300  1
  O  O6  1  0.86451100  0.99782700  0.16487700  1
  O  O7  1  0.36451100  0.50217300  0.33512300  1
  O  O8  1  0.73910900  0.81190300  0.01736100  1
  O  O9  1  0.23910900  0.68809700  0.48263900  1
  O  O10  1  0.26089100  0.18809700  0.51736100  1
  O  O11  1  0.76089100  0.31190300  0.98263900  1
  O  O12  1  0.26089100  0.18809700  0.98263900  1
  O  O13  1  0.76089100  0.31190300  0.51736100  1
  O  O14  1  0.73910900  0.81190300  0.48263900  1
  O  O15  1  0.23910900  0.68809700  0.01736100  1
loop_
_geom_bond_atom_site_label_1
_geom_bond_atom_site_label_2
_geom_bond_distance
_geom_bond_site_symmetry_2
K0 O6 2.837998 1_545
K0 O0 2.837998 1_545
K1 O1 2.837998 1_555
K1 O7 2.837998 1_555
K2 O2 2.837998 1_565
K2 O4 2.837998 1_565
K3 O5 2.837998 1_555
K3 O3 2.837998 1_555
K4 O6 2.856259 1_555
K4 O0 2.856259 1_555
K5 O7 2.856259 1_555
K5 O1 2.856259 1_555
K6 O4 2.856259 1_555
K6 O2 2.856259 1_555
K7 O5 2.856259 1_555
K7 O3 2.856259 1_555
K8 O8 2.795181 1_556
K8 O15 2.807511 1_556
K9 O9 2.795181 1_555
K9 O14 2.807511 1_455
K10 O10 2.795181 1_555
K10 O13 2.807511 1_555
K11 O11 2.795181 1_554
K11 O12 2.807511 1_654
K12 O12 2.795181 1_554
K12 O11 2.807511 1_554
K13 O13 2.795181 1_555
K13 O10 2.807511 1_655
K14 O14 2.795181 1_555
K14 O9 2.807511 1_555
K15 O15 2.795181 1_556
K15 O8 2.807511 1_456
Bi0 Cl32 2.665546 1_655
Bi0 Cl0 2.684382 1_555
Bi0 Cl12 2.689677 1_555
Bi0 Cl24 2.757215 1_555
Bi0 Cl20 2.840288 1_655
Bi0 Cl8 2.860564 1_555
Bi1 Cl33 2.665546 1_565
Bi1 Cl1 2.684382 1_555
Bi1 Cl13 2.689677 1_555
Bi1 Cl25 2.757215 1_565
Bi1 Cl21 2.840288 1_565
Bi1 Cl9 2.860564 1_555
Bi2 Cl34 2.665546 1_455
Bi2 Cl2 2.684382 1_555
Bi2 Cl14 2.689677 1_555
Bi2 Cl26 2.757215 1_555
Bi2 Cl22 2.840288 1_455
Bi2 Cl10 2.860564 1_555
Bi3 Cl35 2.665546 1_545
Bi3 Cl3 2.684382 1_555
Bi3 Cl15 2.689677 1_555
Bi3 Cl27 2.757215 1_545
Bi3 Cl23 2.840288 1_545
Bi3 Cl11 2.860564 1_555
Bi4 Cl36 2.665546 1_455
Bi4 Cl4 2.684382 1_555
Bi4 Cl16 2.689677 1_555
Bi4 Cl28 2.757215 1_555
Bi4 Cl22 2.840288 1_455
Bi4 Cl10 2.860564 1_555
Bi5 Cl37 2.665546 1_545
Bi5 Cl5 2.684382 1_555
Bi5 Cl17 2.689677 1_555
Bi5 Cl29 2.757215 1_545
Bi5 Cl23 2.840288 1_545
Bi5 Cl11 2.860564 1_555
Bi6 Cl38 2.665546 1_655
Bi6 Cl6 2.684382 1_555
Bi6 Cl18 2.689677 1_555
Bi6 Cl30 2.757215 1_555
Bi6 Cl20 2.840288 1_655
Bi6 Cl8 2.860564 1_555
Bi7 Cl39 2.665546 1_565
Bi7 Cl7 2.684382 1_555
Bi7 Cl19 2.689677 1_555
Bi7 Cl31 2.757215 1_565
Bi7 Cl21 2.840288 1_565
Bi7 Cl9 2.860564 1_555
H0 O0 0.985030 1_545
H1 O1 0.985030 1_555
H2 O2 0.985030 1_565
H3 O3 0.985030 1_555
H4 O4 0.985030 1_565
H5 O5 0.985030 1_555
H6 O6 0.985030 1_545
H7 O7 0.985030 1_555
H8 O8 0.977578 1_555
H9 O9 0.977578 1_555
H10 O10 0.977578 1_555
H11 O11 0.977578 1_555
H12 O12 0.977578 1_555
H13 O13 0.977578 1_555
H14 O14 0.977578 1_555
H15 O15 0.977578 1_555
H16 O0 0.982865 1_555
H17 O1 0.982865 1_555
H18 O2 0.982865 1_555
H19 O3 0.982865 1_555
H20 O4 0.982865 1_555
H21 O5 0.982865 1_555
H22 O6 0.982865 1_555
H23 O7 0.982865 1_555
H24 O8 0.979488 1_555
H25 O9 0.979488 1_555
H26 O10 0.979488 1_555
H27 O11 0.979488 1_555
H28 O12 0.979488 1_555
H29 O13 0.979488 1_555
H30 O14 0.979488 1_555
H31 O15 0.979488 1_555
Cl0 K4 3.300883 1_555
Cl0 K5 3.350094 1_655
Cl1 K5 3.300883 1_555
Cl1 K4 3.350094 1_555
Cl2 K6 3.300883 1_555
Cl2 K7 3.350094 1_455
Cl3 K7 3.300883 1_555
Cl3 K6 3.350094 1_555
Cl4 K6 3.300883 1_555
Cl4 K7 3.350094 1_455
Cl5 K7 3.300883 1_555
Cl5 K6 3.350094 1_555
Cl6 K4 3.300883 1_555
Cl6 K5 3.350094 1_655
Cl7 K5 3.300883 1_555
Cl7 K4 3.350094 1_555
Cl8 K1 3.457789 1_555
Cl8 K4 3.479232 1_555
Cl8 K5 3.497158 1_555
Cl9 K0 3.457789 1_465
Cl9 K5 3.479232 1_555
Cl9 K4 3.497158 1_455
Cl10 K3 3.457789 1_555
Cl10 K6 3.479232 1_555
Cl10 K7 3.497158 1_555
Cl11 K2 3.457789 1_645
Cl11 K7 3.479232 1_555
Cl11 K6 3.497158 1_655
Cl12 K8 3.339972 1_554
Cl12 K12 3.383750 1_555
Cl13 K9 3.339972 1_555
Cl13 K13 3.383750 1_465
Cl14 K10 3.339972 1_555
Cl14 K14 3.383750 1_555
Cl15 K11 3.339972 1_556
Cl15 K15 3.383750 1_645
Cl16 K12 3.339972 1_556
Cl16 K8 3.383750 1_555
Cl17 K13 3.339972 1_555
Cl17 K9 3.383750 1_645
Cl18 K14 3.339972 1_555
Cl18 K10 3.383750 1_555
Cl19 K15 3.339972 1_554
Cl19 K11 3.383750 1_465
Cl20 K5 3.448335 1_555
Cl20 K1 3.528682 1_555
Cl20 K0 3.673738 1_455
Cl21 K4 3.448335 1_545
Cl21 K0 3.528682 1_555
Cl21 K1 3.673738 1_555
Cl22 K7 3.448335 1_555
Cl22 K3 3.528682 1_555
Cl22 K2 3.673738 1_655
Cl23 K6 3.448335 1_565
Cl23 K2 3.528682 1_555
Cl23 K3 3.673738 1_555
Cl24 K0 3.262681 1_555
Cl24 K12 3.272713 1_555
Cl24 K1 3.364492 1_555
Cl24 K11 3.378846 1_555
Cl25 K1 3.262681 1_555
Cl25 K13 3.272713 1_455
Cl25 K0 3.364492 1_455
Cl25 K10 3.378846 1_555
Cl26 K2 3.262681 1_555
Cl26 K14 3.272713 1_555
Cl26 K3 3.364492 1_555
Cl26 K9 3.378846 1_555
Cl27 K3 3.262681 1_555
Cl27 K15 3.272713 1_655
Cl27 K2 3.364492 1_655
Cl27 K8 3.378846 1_555
Cl28 K2 3.262681 1_555
Cl28 K8 3.272713 1_555
Cl28 K3 3.364492 1_555
Cl28 K15 3.378846 1_555
Cl29 K3 3.262681 1_555
Cl29 K9 3.272713 1_655
Cl29 K2 3.364492 1_655
Cl29 K14 3.378846 1_555
Cl30 K0 3.262681 1_555
Cl30 K10 3.272713 1_555
Cl30 K1 3.364492 1_555
Cl30 K13 3.378846 1_555
Cl31 K1 3.262681 1_555
Cl31 K11 3.272713 1_455
Cl31 K0 3.364492 1_455
Cl31 K12 3.378846 1_555
Cl32 K11 3.305845 1_455
Cl33 K10 3.305845 1_555
Cl34 K9 3.305845 1_655
Cl35 K8 3.305845 1_555
Cl36 K15 3.305845 1_655
Cl37 K14 3.305845 1_555
Cl38 K13 3.305845 1_455
Cl39 K12 3.305845 1_555
