# generated using pymatgen
data_Te3MoWS
_symmetry_space_group_name_H-M   'P 1'
_cell_length_a   3.45206973
_cell_length_b   3.45206973
_cell_length_c   39.44800700
_cell_angle_alpha   90.00000000
_cell_angle_beta   90.00000000
_cell_angle_gamma   119.99999476
_symmetry_Int_Tables_number   1
_chemical_formula_structural   Te3MoWS
_chemical_formula_sum   'Te6 Mo2 W2 S2'
_cell_volume   407.11287730
_cell_formula_units_Z   2
loop_
 _symmetry_equiv_pos_site_id
 _symmetry_equiv_pos_as_xyz
  1  'x, y, z'
loop_
 _atom_site_type_symbol
 _atom_site_label
 _atom_site_symmetry_multiplicity
 _atom_site_fract_x
 _atom_site_fract_y
 _atom_site_fract_z
 _atom_site_occupancy
  Te  Te0  1  0.00000000  0.00000000  0.32902000  1
  Te  Te1  1  0.33333300  0.66666700  0.04694100  1
  Te  Te2  1  0.33333300  0.66666700  0.42275200  1
  Te  Te3  1  0.33333300  0.66666700  0.14085800  1
  Te  Te4  1  0.33333300  0.66666700  0.51667200  1
  Te  Te5  1  0.00000000  0.00000000  0.23462200  1
  Mo  Mo0  1  0.00000000  0.00000000  0.09385800  1
  Mo  Mo1  1  0.00000000  0.00000000  0.46967900  1
  W  W0  1  0.33333300  0.66666700  0.28177300  1
  W  W1  1  0.33333300  0.66666700  0.65751900  1
  S  S0  1  0.00000000  0.00000000  0.69534100  1
  S  S1  1  0.00000000  0.00000000  0.61971400  1
loop_
_geom_bond_atom_site_label_1
_geom_bond_atom_site_label_2
_geom_bond_distance
_geom_bond_site_symmetry_2
Te0 W0 2.728737 1_545
Te0 W0 2.728739 1_445
Te0 W0 2.728739 1_555
Te5 W0 2.726151 1_545
Te5 W0 2.726154 1_445
Te5 W0 2.726154 1_555
Mo0 Te1 2.719862 1_545
Mo0 Te1 2.719864 1_555
Mo0 Te1 2.719864 1_445
Mo0 Te3 2.722091 1_545
Mo0 Te3 2.722093 1_555
Mo0 Te3 2.722093 1_445
Mo1 Te2 2.720130 1_545
Mo1 Te2 2.720133 1_555
Mo1 Te2 2.720133 1_445
Mo1 Te4 2.721903 1_545
Mo1 Te4 2.721905 1_555
Mo1 Te4 2.721905 1_445
S0 W1 2.489644 1_545
S0 W1 2.489646 1_555
S0 W1 2.489646 1_445
S1 W1 2.489242 1_545
S1 W1 2.489244 1_555
S1 W1 2.489244 1_445
