# generated using pymatgen
data_Mg2P2O7
_symmetry_space_group_name_H-M   'P 1'
_cell_length_a   8.27808176
_cell_length_b   6.94116257
_cell_length_c   9.04883480
_cell_angle_alpha   66.14534614
_cell_angle_beta   90.00000000
_cell_angle_gamma   90.00000000
_symmetry_Int_Tables_number   1
_chemical_formula_structural   Mg2P2O7
_chemical_formula_sum   'Mg8 P8 O28'
_cell_volume   475.52525517
_cell_formula_units_Z   4
loop_
 _symmetry_equiv_pos_site_id
 _symmetry_equiv_pos_as_xyz
  1  'x, y, z'
loop_
 _atom_site_type_symbol
 _atom_site_label
 _atom_site_symmetry_multiplicity
 _atom_site_fract_x
 _atom_site_fract_y
 _atom_site_fract_z
 _atom_site_occupancy
  Mg  Mg0  1  0.43911903  0.30086545  0.82575020  1
  Mg  Mg1  1  0.56088097  0.69913455  0.17424980  1
  Mg  Mg2  1  0.93911903  0.69913455  0.67424980  1
  Mg  Mg3  1  0.06088097  0.30086545  0.32575020  1
  Mg  Mg4  1  0.56939204  0.76714183  0.60987678  1
  Mg  Mg5  1  0.43060796  0.23285817  0.39012322  1
  Mg  Mg6  1  0.06939204  0.23285817  0.89012322  1
  Mg  Mg7  1  0.93060796  0.76714183  0.10987678  1
  P  P0  1  0.76728498  0.05739877  0.75961161  1
  P  P1  1  0.23271502  0.94260123  0.24038839  1
  P  P2  1  0.26728498  0.94260123  0.74038839  1
  P  P3  1  0.73271502  0.05739877  0.25961161  1
  P  P4  1  0.22615923  0.53008714  0.53365758  1
  P  P5  1  0.77384077  0.46991286  0.46634242  1
  P  P6  1  0.72615923  0.46991286  0.96634242  1
  P  P7  1  0.27384077  0.53008714  0.03365758  1
  O  O0  1  0.17228373  0.74947740  0.39974208  1
  O  O1  1  0.82771627  0.25052260  0.60025792  1
  O  O2  1  0.67228373  0.25052260  0.10025792  1
  O  O3  1  0.32771627  0.74947740  0.89974208  1
  O  O4  1  0.76336066  0.62473843  0.54636437  1
  O  O5  1  0.23663934  0.37526157  0.45363563  1
  O  O6  1  0.26336066  0.37526157  0.95363563  1
  O  O7  1  0.73663934  0.62473843  0.04636437  1
  O  O8  1  0.25786617  0.12120571  0.79668532  1
  O  O9  1  0.74213383  0.87879429  0.20331468  1
  O  O10  1  0.75786617  0.87879429  0.70331468  1
  O  O11  1  0.24213383  0.12120571  0.29668532  1
  O  O12  1  0.38845354  0.55194662  0.60485262  1
  O  O13  1  0.61154646  0.44805338  0.39514738  1
  O  O14  1  0.88845354  0.44805338  0.89514738  1
  O  O15  1  0.11154646  0.55194662  0.10485262  1
  O  O16  1  0.90259713  0.02218455  0.88143052  1
  O  O17  1  0.09740287  0.97781545  0.11856948  1
  O  O18  1  0.40259713  0.97781545  0.61856948  1
  O  O19  1  0.59740287  0.02218455  0.38143052  1
  O  O20  1  0.08998098  0.48199294  0.65555330  1
  O  O21  1  0.91001902  0.51800706  0.34444670  1
  O  O22  1  0.58998098  0.51800706  0.84444670  1
  O  O23  1  0.41001902  0.48199294  0.15555330  1
  O  O24  1  0.60992606  0.11313353  0.81330965  1
  O  O25  1  0.39007394  0.88686647  0.18669035  1
  O  O26  1  0.10992606  0.88686647  0.68669035  1
  O  O27  1  0.89007394  0.11313353  0.31330965  1
loop_
_geom_bond_atom_site_label_1
_geom_bond_atom_site_label_2
_geom_bond_distance
_geom_bond_site_symmetry_2
Mg0 O24 1.956681 1_555
Mg0 O22 2.016479 1_555
Mg0 O8 2.034909 1_555
Mg0 O6 2.050856 1_555
Mg0 O12 2.095480 1_555
Mg1 O25 1.956681 1_555
Mg1 O23 2.016479 1_555
Mg1 O9 2.034909 1_555
Mg1 O7 2.050856 1_555
Mg1 O13 2.095480 1_555
Mg2 O26 1.956681 1_655
Mg2 O20 2.016479 1_655
Mg2 O10 2.034909 1_555
Mg2 O4 2.050856 1_555
Mg2 O14 2.095480 1_555
Mg3 O27 1.956681 1_455
Mg3 O21 2.016479 1_455
Mg3 O11 2.034909 1_555
Mg3 O5 2.050856 1_555
Mg3 O15 2.095480 1_555
Mg4 O18 2.035694 1_555
Mg4 O10 2.068753 1_555
Mg4 O4 2.084474 1_555
Mg4 O19 2.121549 1_565
Mg4 O12 2.128761 1_555
Mg4 O22 2.134471 1_555
Mg5 O19 2.035694 1_555
Mg5 O11 2.068753 1_555
Mg5 O5 2.084474 1_555
Mg5 O18 2.121549 1_545
Mg5 O13 2.128761 1_555
Mg5 O23 2.134471 1_555
Mg6 O16 2.035694 1_455
Mg6 O8 2.068753 1_555
Mg6 O6 2.084474 1_555
Mg6 O17 2.121549 1_546
Mg6 O14 2.128761 1_455
Mg6 O20 2.134471 1_555
Mg7 O17 2.035694 1_655
Mg7 O9 2.068753 1_555
Mg7 O7 2.084474 1_555
Mg7 O16 2.121549 1_564
Mg7 O15 2.128761 1_655
Mg7 O21 2.134471 1_555
O0 P4 1.579157 1_555
O0 P1 1.600944 1_555
O1 P5 1.579157 1_555
O1 P0 1.600944 1_555
O2 P6 1.579157 1_554
O2 P3 1.600944 1_555
O3 P7 1.579157 1_556
O3 P2 1.600944 1_555
O4 P5 1.521902 1_555
O5 P4 1.521902 1_555
O6 P7 1.521902 1_556
O7 P6 1.521902 1_554
O8 P2 1.520959 1_545
O9 P3 1.520959 1_565
O10 P0 1.520959 1_565
O11 P1 1.520959 1_545
O12 P4 1.523835 1_555
O13 P5 1.523835 1_555
O14 P6 1.523835 1_555
O15 P7 1.523835 1_555
O16 P0 1.520395 1_555
O17 P1 1.520395 1_555
O18 P2 1.520395 1_555
O19 P3 1.520395 1_555
O20 P4 1.516920 1_555
O21 P5 1.516920 1_555
O22 P6 1.516920 1_555
O23 P7 1.516920 1_555
O24 P0 1.494877 1_555
O25 P1 1.494877 1_555
O26 P2 1.494877 1_555
O27 P3 1.494877 1_555
