# generated using pymatgen
data_Li4MnCo2O7
_symmetry_space_group_name_H-M   'P 1'
_cell_length_a   5.03697900
_cell_length_b   6.64178826
_cell_length_c   7.83546442
_cell_angle_alpha   85.68968285
_cell_angle_beta   77.05452312
_cell_angle_gamma   82.85064452
_symmetry_Int_Tables_number   1
_chemical_formula_structural   Li4MnCo2O7
_chemical_formula_sum   'Li8 Mn2 Co4 O14'
_cell_volume   253.18011783
_cell_formula_units_Z   2
loop_
 _symmetry_equiv_pos_site_id
 _symmetry_equiv_pos_as_xyz
  1  'x, y, z'
loop_
 _atom_site_type_symbol
 _atom_site_label
 _atom_site_symmetry_multiplicity
 _atom_site_fract_x
 _atom_site_fract_y
 _atom_site_fract_z
 _atom_site_occupancy
  Li  Li0  1  0.71752900  0.08114900  0.56994800  1
  Li  Li1  1  0.43502700  0.63440100  0.15563900  1
  Li  Li2  1  0.28247100  0.91885100  0.43005200  1
  Li  Li3  1  0.00000000  0.50000000  0.00000000  1
  Li  Li4  1  0.85251400  0.77673500  0.29745100  1
  Li  Li5  1  0.56497300  0.36559900  0.84436100  1
  Li  Li6  1  0.14748600  0.22326500  0.70254900  1
  Li  Li7  1  0.50000000  0.50000000  0.50000000  1
  Mn  Mn0  1  0.78623700  0.92852500  0.92779000  1
  Mn  Mn1  1  0.21376300  0.07147500  0.07221000  1
  Co  Co0  1  0.94078200  0.63262100  0.63956600  1
  Co  Co1  1  0.62925000  0.22031400  0.22959400  1
  Co  Co2  1  0.37075000  0.77968600  0.77040600  1
  Co  Co3  1  0.05921800  0.36737900  0.36043400  1
  O  O0  1  0.02400800  0.92616100  0.69935200  1
  O  O1  1  0.76795500  0.48226600  0.24883700  1
  O  O2  1  0.60764500  0.78702000  0.55417500  1
  O  O3  1  0.32406600  0.33209300  0.10492500  1
  O  O4  1  0.16632800  0.63501900  0.39813600  1
  O  O5  1  0.90119100  0.18806500  0.97607700  1
  O  O6  1  0.46932800  0.06141300  0.84215100  1
  O  O7  1  0.39235500  0.21298000  0.44582500  1
  O  O8  1  0.09880900  0.81193500  0.02392300  1
  O  O9  1  0.97599200  0.07383900  0.30064800  1
  O  O10  1  0.67593400  0.66790700  0.89507500  1
  O  O11  1  0.53067200  0.93858700  0.15784900  1
  O  O12  1  0.23204500  0.51773400  0.75116300  1
  O  O13  1  0.83367200  0.36498100  0.60186400  1
loop_
_geom_bond_atom_site_label_1
_geom_bond_atom_site_label_2
_geom_bond_distance
_geom_bond_site_symmetry_2
Li0 O13 2.090334 1_555
Li0 O2 2.115189 1_545
Li0 O0 2.149348 1_645
Li0 O7 2.150344 1_555
Li0 O9 2.217783 1_555
Li0 O6 2.221083 1_555
Li1 O4 2.071151 1_555
Li1 O1 2.093423 1_555
Li1 O11 2.136687 1_555
Li1 O10 2.139903 1_554
Li1 O3 2.236197 1_555
Li1 O8 2.329519 1_555
Li2 O4 2.090334 1_555
Li2 O7 2.115189 1_565
Li2 O9 2.149348 1_465
Li2 O2 2.150344 1_555
Li2 O0 2.217783 1_555
Li2 O11 2.221083 1_555
Li3 O12 2.039661 1_554
Li3 O1 2.039661 1_455
Li3 O10 2.143450 1_454
Li3 O3 2.143450 1_555
Li3 O8 2.220824 1_555
Li3 O5 2.220824 1_454
Li4 O4 2.020800 1_655
Li4 O2 2.111951 1_555
Li4 O1 2.131592 1_555
Li4 O9 2.145059 1_565
Li4 O8 2.234431 1_655
Li4 O11 2.272459 1_555
Li5 O13 2.071151 1_555
Li5 O12 2.093423 1_555
Li5 O6 2.136687 1_555
Li5 O3 2.139903 1_556
Li5 O10 2.236197 1_555
Li5 O5 2.329519 1_555
Li6 O13 2.020800 1_455
Li6 O7 2.111951 1_555
Li6 O12 2.131592 1_555
Li6 O0 2.145059 1_545
Li6 O5 2.234431 1_455
Li6 O6 2.272459 1_555
Li7 O13 2.093865 1_555
Li7 O4 2.093865 1_555
Li7 O1 2.124536 1_555
Li7 O12 2.124536 1_555
Li7 O7 2.142497 1_555
Li7 O2 2.142497 1_555
Mn0 O0 1.917676 1_655
Mn0 O10 1.934048 1_555
Mn0 O8 1.945770 1_656
Mn0 O6 1.953852 1_565
Mn0 O11 1.966722 1_556
Mn0 O5 1.973467 1_565
Mn1 O9 1.917676 1_455
Mn1 O3 1.934048 1_555
Mn1 O5 1.945770 1_454
Mn1 O11 1.953852 1_545
Mn1 O6 1.966722 1_554
Mn1 O8 1.973467 1_545
Co0 O12 1.922244 1_655
Co0 O4 1.976503 1_655
Co0 O13 1.981740 1_555
Co0 O2 2.070400 1_555
Co0 O0 2.150569 1_655
Co0 O10 2.153781 1_555
Co1 O7 1.842009 1_555
Co1 O1 1.981679 1_555
Co1 O3 2.036689 1_555
Co1 O9 2.058665 1_555
Co1 O11 2.139694 1_545
Co1 O5 2.154025 1_554
Co2 O2 1.842009 1_555
Co2 O12 1.981679 1_555
Co2 O10 2.036689 1_555
Co2 O0 2.058665 1_555
Co2 O6 2.139694 1_565
Co2 O8 2.154025 1_556
Co3 O1 1.922244 1_455
Co3 O13 1.976503 1_455
Co3 O4 1.981740 1_555
Co3 O7 2.070400 1_555
Co3 O9 2.150569 1_455
Co3 O3 2.153781 1_555
