# generated using pymatgen
data_PdRu
_symmetry_space_group_name_H-M   'P 1'
_cell_length_a   5.50236313
_cell_length_b   5.50236313
_cell_length_c   8.92491000
_cell_angle_alpha   90.00000000
_cell_angle_beta   90.00000000
_cell_angle_gamma   119.99998954
_symmetry_Int_Tables_number   1
_chemical_formula_structural   PdRu
_chemical_formula_sum   'Pd8 Ru8'
_cell_volume   234.00924722
_cell_formula_units_Z   8
loop_
 _symmetry_equiv_pos_site_id
 _symmetry_equiv_pos_as_xyz
  1  'x, y, z'
loop_
 _atom_site_type_symbol
 _atom_site_label
 _atom_site_symmetry_multiplicity
 _atom_site_fract_x
 _atom_site_fract_y
 _atom_site_fract_z
 _atom_site_occupancy
  Pd  Pd0_0  1  0.00000000  0.00000000  0.25000000  1
  Pd  Pd0_1  1  0.00000000  0.00000000  0.75000000  1
  Pd  Pd0_2  1  0.00000000  0.50000000  0.25000000  1
  Pd  Pd0_3  1  0.00000000  0.50000000  0.75000000  1
  Pd  Pd0_4  1  0.50000000  0.00000000  0.25000000  1
  Pd  Pd0_5  1  0.50000000  0.00000000  0.75000000  1
  Pd  Pd0_6  1  0.50000000  0.50000000  0.25000000  1
  Pd  Pd0_7  1  0.50000000  0.50000000  0.75000000  1
  Ru  Ru0_0  1  0.33333350  0.16666650  0.00000000  1
  Ru  Ru0_1  1  0.33333350  0.16666650  0.50000000  1
  Ru  Ru0_2  1  0.33333350  0.66666650  0.00000000  1
  Ru  Ru0_3  1  0.33333350  0.66666650  0.50000000  1
  Ru  Ru0_4  1  0.83333350  0.16666650  0.00000000  1
  Ru  Ru0_5  1  0.83333350  0.16666650  0.50000000  1
  Ru  Ru0_6  1  0.83333350  0.66666650  0.00000000  1
  Ru  Ru0_7  1  0.83333350  0.66666650  0.50000000  1
loop_
_geom_bond_atom_site_label_1
_geom_bond_atom_site_label_2
_geom_bond_distance
_geom_bond_site_symmetry_2
Pd0_0 Ru0_5 2.738863 1_455
Pd0_0 Ru0_4 2.738863 1_455
Pd0_0 Ru0_1 2.738865 1_555
Pd0_0 Ru0_0 2.738865 1_555
Pd0_0 Ru0_6 2.738865 1_445
Pd0_0 Ru0_7 2.738865 1_445
Pd0_0 Pd0_4 2.751182 1_555
Pd0_0 Pd0_4 2.751182 1_455
Pd0_0 Pd0_2 2.751182 1_555
Pd0_0 Pd0_2 2.751182 1_545
Pd0_0 Pd0_6 2.751182 1_555
Pd0_0 Pd0_6 2.751182 1_445
Pd0_1 Ru0_5 2.738863 1_455
Pd0_1 Ru0_4 2.738863 1_456
Pd0_1 Ru0_0 2.738865 1_556
Pd0_1 Ru0_1 2.738865 1_555
Pd0_1 Ru0_6 2.738865 1_446
Pd0_1 Ru0_7 2.738865 1_445
Pd0_1 Pd0_5 2.751182 1_555
Pd0_1 Pd0_5 2.751182 1_455
Pd0_1 Pd0_3 2.751182 1_555
Pd0_1 Pd0_3 2.751182 1_545
Pd0_1 Pd0_7 2.751182 1_555
Pd0_1 Pd0_7 2.751182 1_445
Pd0_2 Ru0_7 2.738863 1_455
Pd0_2 Ru0_6 2.738863 1_455
Pd0_2 Ru0_2 2.738865 1_555
Pd0_2 Ru0_3 2.738865 1_555
Pd0_2 Ru0_4 2.738865 1_455
Pd0_2 Ru0_5 2.738865 1_455
Pd0_2 Pd0_6 2.751182 1_555
Pd0_2 Pd0_6 2.751182 1_455
Pd0_2 Pd0_4 2.751182 1_565
Pd0_2 Pd0_4 2.751182 1_455
Pd0_3 Ru0_7 2.738863 1_455
Pd0_3 Ru0_6 2.738863 1_456
Pd0_3 Ru0_2 2.738865 1_556
Pd0_3 Ru0_3 2.738865 1_555
Pd0_3 Ru0_5 2.738865 1_455
Pd0_3 Ru0_4 2.738865 1_456
Pd0_3 Pd0_7 2.751182 1_555
Pd0_3 Pd0_7 2.751182 1_455
Pd0_3 Pd0_5 2.751182 1_455
Pd0_3 Pd0_5 2.751182 1_565
Pd0_4 Ru0_0 2.738863 1_555
Pd0_4 Ru0_1 2.738863 1_555
Pd0_4 Ru0_4 2.738865 1_555
Pd0_4 Ru0_5 2.738865 1_555
Pd0_4 Ru0_3 2.738865 1_545
Pd0_4 Ru0_2 2.738865 1_545
Pd0_4 Pd0_6 2.751182 1_555
Pd0_4 Pd0_6 2.751182 1_545
Pd0_5 Ru0_0 2.738863 1_556
Pd0_5 Ru0_1 2.738863 1_555
Pd0_5 Ru0_4 2.738865 1_556
Pd0_5 Ru0_5 2.738865 1_555
Pd0_5 Ru0_2 2.738865 1_546
Pd0_5 Ru0_3 2.738865 1_545
Pd0_5 Pd0_7 2.751182 1_555
Pd0_5 Pd0_7 2.751182 1_545
Pd0_6 Ru0_2 2.738863 1_555
Pd0_6 Ru0_3 2.738863 1_555
Pd0_6 Ru0_0 2.738865 1_555
Pd0_6 Ru0_1 2.738865 1_555
Pd0_6 Ru0_7 2.738865 1_555
Pd0_6 Ru0_6 2.738865 1_555
Pd0_7 Ru0_3 2.738863 1_555
Pd0_7 Ru0_2 2.738863 1_556
Pd0_7 Ru0_0 2.738865 1_556
Pd0_7 Ru0_7 2.738865 1_555
Pd0_7 Ru0_1 2.738865 1_555
Pd0_7 Ru0_6 2.738865 1_556
Ru0_0 Ru0_4 2.751182 1_455
Ru0_0 Ru0_4 2.751182 1_555
Ru0_0 Ru0_2 2.751182 1_545
Ru0_0 Ru0_2 2.751182 1_555
Ru0_0 Ru0_6 2.751182 1_555
Ru0_0 Ru0_6 2.751182 1_445
Ru0_1 Ru0_5 2.751182 1_455
Ru0_1 Ru0_5 2.751182 1_555
Ru0_1 Ru0_3 2.751182 1_555
Ru0_1 Ru0_3 2.751182 1_545
Ru0_1 Ru0_7 2.751182 1_555
Ru0_1 Ru0_7 2.751182 1_445
Ru0_2 Ru0_6 2.751182 1_555
Ru0_2 Ru0_6 2.751182 1_455
Ru0_2 Ru0_4 2.751182 1_565
Ru0_2 Ru0_4 2.751182 1_455
Ru0_3 Ru0_7 2.751182 1_555
Ru0_3 Ru0_7 2.751182 1_455
Ru0_3 Ru0_5 2.751182 1_565
Ru0_3 Ru0_5 2.751182 1_455
Ru0_4 Ru0_6 2.751182 1_545
Ru0_4 Ru0_6 2.751182 1_555
Ru0_5 Ru0_7 2.751182 1_545
Ru0_5 Ru0_7 2.751182 1_555
