# generated using pymatgen
data_SmGa2Ni3
_symmetry_space_group_name_H-M   'P 1'
_cell_length_a   8.77283699
_cell_length_b   8.77149556
_cell_length_c   4.06650831
_cell_angle_alpha   90.00005361
_cell_angle_beta   90.00004231
_cell_angle_gamma   119.97643896
_symmetry_Int_Tables_number   1
_chemical_formula_structural   SmGa2Ni3
_chemical_formula_sum   'Sm3 Ga6 Ni9'
_cell_volume   271.06226515
_cell_formula_units_Z   3
loop_
 _symmetry_equiv_pos_site_id
 _symmetry_equiv_pos_as_xyz
  1  'x, y, z'
loop_
 _atom_site_type_symbol
 _atom_site_label
 _atom_site_symmetry_multiplicity
 _atom_site_fract_x
 _atom_site_fract_y
 _atom_site_fract_z
 _atom_site_occupancy
  Sm  Sm0  1  0.66672518  0.33320973  0.50000007  1
  Sm  Sm1  1  0.33315901  0.66657954  0.49999986  1
  Sm  Sm2  1  0.00028646  0.00046846  0.00000043  1
  Ga  Ga0  1  0.27280670  0.27276459  0.50000033  1
  Ga  Ga1  1  0.72733725  -0.00009950  0.49999978  1
  Ga  Ga2  1  -0.00006818  0.72744933  0.50000038  1
  Ga  Ga3  1  0.52446685  0.52432143  0.00000009  1
  Ga  Ga4  1  0.47532852  -0.00041034  -0.00000504  1
  Ga  Ga5  1  -0.00026874  0.47535507  0.00000050  1
  Ni  Ni0  1  0.79774024  0.16965570  -0.00000003  1
  Ni  Ni1  1  0.83013953  0.62842940  0.00000017  1
  Ni  Ni2  1  0.37222622  0.20217690  0.00000005  1
  Ni  Ni3  1  0.16958507  0.79794606  0.00000087  1
  Ni  Ni4  1  0.62825452  0.82999078  -0.00000032  1
  Ni  Ni5  1  0.20236247  0.37232296  0.00000097  1
  Ni  Ni6  1  0.71206152  0.71202162  0.50000062  1
  Ni  Ni7  1  0.28791363  0.99988943  0.50000004  1
  Ni  Ni8  1  -0.00005725  0.28793185  0.50000123  1
loop_
_geom_bond_atom_site_label_1
_geom_bond_atom_site_label_2
_geom_bond_distance
_geom_bond_site_symmetry_2
Ga0 Ni2 2.412019 1_556
Ga0 Ni2 2.412021 1_555
Ga0 Ni5 2.412040 1_555
Ga0 Ni5 2.412044 1_556
Ga0 Ni7 2.462419 1_545
Ga0 Ni8 2.462961 1_555
Ga0 Sm2 3.138218 1_555
Ga0 Sm2 3.138224 1_556
Ga0 Sm1 3.222607 1_555
Ga0 Sm0 3.223757 1_555
Ga1 Ni0 2.411167 1_556
Ga1 Ni0 2.411169 1_555
Ga1 Ni4 2.411703 1_545
Ga1 Ni4 2.411706 1_546
Ga1 Ni6 2.460910 1_545
Ga1 Ni8 2.462644 1_655
Ga1 Sm2 3.139433 1_655
Ga1 Sm2 3.139434 1_656
Ga1 Sm0 3.222391 1_555
Ga1 Sm1 3.225389 1_545
Ga2 Ni3 2.410803 1_555
Ga2 Ni3 2.410804 1_556
Ga2 Ni1 2.411317 1_455
Ga2 Ni1 2.411319 1_456
Ga2 Ni6 2.460619 1_455
Ga2 Ni7 2.461786 1_555
Ga2 Sm2 3.140331 1_566
Ga2 Sm2 3.140334 1_565
Ga2 Sm1 3.223469 1_555
Ga2 Sm0 3.225189 1_455
Ga3 Ni1 2.361760 1_555
Ga3 Ni4 2.361830 1_555
Ga3 Ni2 2.448887 1_555
Ga3 Ni5 2.449031 1_555
Ga3 Ni6 2.616412 1_555
Ga3 Ni6 2.616413 1_554
Ga3 Sm0 3.254587 1_554
Ga3 Sm0 3.254588 1_555
Ga3 Sm1 3.255861 1_555
Ga3 Sm1 3.255862 1_554
Ga4 Ni2 2.362619 1_555
Ga4 Ni3 2.362629 1_545
Ga4 Ni4 2.450983 1_545
Ga4 Ni0 2.451362 1_555
Ga4 Ni7 2.615650 1_544
Ga4 Ni7 2.615684 1_545
Ga4 Sm1 3.252887 1_544
Ga4 Sm1 3.252916 1_545
Ga4 Sm0 3.256809 1_554
Ga4 Sm0 3.256830 1_555
Ga5 Ni0 2.362628 1_455
Ga5 Ni5 2.362667 1_555
Ga5 Ni1 2.452061 1_455
Ga5 Ni3 2.452279 1_555
Ga5 Ni8 2.615307 1_554
Ga5 Ni8 2.615314 1_555
Ga5 Sm0 3.253217 1_454
Ga5 Sm0 3.253219 1_455
Ga5 Sm1 3.255904 1_555
Ga5 Sm1 3.255911 1_554
Ni0 Ni8 2.553055 1_654
Ni0 Ni8 2.553059 1_655
Ni0 Ni4 2.580822 1_545
Ni0 Sm2 2.827510 1_655
Ni0 Sm0 3.026719 1_555
Ni0 Sm0 3.026720 1_554
Ni1 Ni6 2.550251 1_554
Ni1 Ni6 2.550254 1_555
Ni1 Ni3 2.579550 1_655
Ni1 Sm2 2.830164 1_665
Ni1 Sm0 3.030715 1_554
Ni1 Sm0 3.030720 1_555
Ni2 Ni7 2.553054 1_544
Ni2 Ni7 2.553058 1_545
Ni2 Ni5 2.582720 1_555
Ni2 Sm2 2.829897 1_555
Ni2 Sm0 3.026999 1_555
Ni2 Sm0 3.027003 1_554
Ni3 Ni7 2.551839 1_555
Ni3 Ni7 2.551849 1_554
Ni3 Sm2 2.828092 1_565
Ni3 Sm1 3.028772 1_555
Ni3 Sm1 3.028777 1_554
Ni4 Ni6 2.550617 1_554
Ni4 Ni6 2.550624 1_555
Ni4 Sm2 2.830423 1_665
Ni4 Sm1 3.030275 1_554
Ni4 Sm1 3.030280 1_555
Ni5 Ni8 2.553808 1_554
Ni5 Ni8 2.553813 1_555
Ni5 Sm2 2.829023 1_555
Ni5 Sm1 3.025412 1_555
Ni5 Sm1 3.025422 1_554
Ni6 Sm0 3.142964 1_555
Ni6 Sm1 3.143912 1_555
Ni6 Sm2 3.245947 1_666
Ni6 Sm2 3.245953 1_665
Ni7 Sm1 3.140827 1_555
Ni7 Sm0 3.143692 1_565
Ni7 Sm2 3.242532 1_565
Ni7 Sm2 3.242537 1_566
Ni8 Sm0 3.140599 1_455
Ni8 Sm1 3.142353 1_555
Ni8 Sm2 3.240310 1_556
Ni8 Sm2 3.240311 1_555
