# generated using pymatgen
data_Zr4Mo
_symmetry_space_group_name_H-M   'P 1'
_cell_length_a   7.05608280
_cell_length_b   7.05608280
_cell_length_c   7.05608280
_cell_angle_alpha   60.00000000
_cell_angle_beta   60.00000000
_cell_angle_gamma   60.00000000
_symmetry_Int_Tables_number   1
_chemical_formula_structural   Zr4Mo
_chemical_formula_sum   'Zr8 Mo2'
_cell_volume   248.41396588
_cell_formula_units_Z   2
loop_
 _symmetry_equiv_pos_site_id
 _symmetry_equiv_pos_as_xyz
  1  'x, y, z'
loop_
 _atom_site_type_symbol
 _atom_site_label
 _atom_site_symmetry_multiplicity
 _atom_site_fract_x
 _atom_site_fract_y
 _atom_site_fract_z
 _atom_site_occupancy
  Zr  Zr0  1  0.39411500  0.39411500  0.39411500  1
  Zr  Zr1  1  0.39411500  0.39411500  0.81765600  1
  Zr  Zr2  1  0.39411500  0.81765600  0.39411500  1
  Zr  Zr3  1  0.85588500  0.85588500  0.43234400  1
  Zr  Zr4  1  0.85588500  0.85588500  0.85588500  1
  Zr  Zr5  1  0.81765600  0.39411500  0.39411500  1
  Zr  Zr6  1  0.85588500  0.43234400  0.85588500  1
  Zr  Zr7  1  0.43234400  0.85588500  0.85588500  1
  Mo  Mo0  1  0.00000000  0.00000000  0.00000000  1
  Mo  Mo1  1  0.25000000  0.25000000  0.25000000  1
loop_
_geom_bond_atom_site_label_1
_geom_bond_atom_site_label_2
_geom_bond_distance
_geom_bond_site_symmetry_2
Mo0 Zr7 2.490849 1_544
Mo0 Zr3 2.490849 1_445
Mo0 Zr6 2.490849 1_454
Mo0 Zr4 2.490855 1_444
Mo1 Zr2 2.490849 1_545
Mo1 Zr1 2.490849 1_554
Mo1 Zr5 2.490849 1_455
Mo1 Zr0 2.490855 1_555
