# generated using pymatgen
data_BaMgTiF7
_symmetry_space_group_name_H-M   'P 1'
_cell_length_a   10.01736400
_cell_length_b   5.71290000
_cell_length_c   9.68460681
_cell_angle_alpha   86.99047464
_cell_angle_beta   90.00000000
_cell_angle_gamma   90.00000000
_symmetry_Int_Tables_number   1
_chemical_formula_structural   BaMgTiF7
_chemical_formula_sum   'Ba4 Mg4 Ti4 F28'
_cell_volume   553.46821760
_cell_formula_units_Z   4
loop_
 _symmetry_equiv_pos_site_id
 _symmetry_equiv_pos_as_xyz
  1  'x, y, z'
loop_
 _atom_site_type_symbol
 _atom_site_label
 _atom_site_symmetry_multiplicity
 _atom_site_fract_x
 _atom_site_fract_y
 _atom_site_fract_z
 _atom_site_occupancy
  Ba  Ba0  1  0.31844900  0.73230000  0.49917000  1
  Ba  Ba1  1  0.81844900  0.26770000  0.00083000  1
  Ba  Ba2  1  0.68155100  0.26770000  0.50083000  1
  Ba  Ba3  1  0.18155100  0.73230000  0.99917000  1
  Mg  Mg0  1  0.39511200  0.30681700  0.80950300  1
  Mg  Mg1  1  0.89511200  0.69318300  0.69049700  1
  Mg  Mg2  1  0.10488800  0.30681700  0.30950300  1
  Mg  Mg3  1  0.60488800  0.69318300  0.19049700  1
  Ti  Ti0  1  0.61032800  0.80589900  0.81174300  1
  Ti  Ti1  1  0.38967200  0.19410100  0.18825700  1
  Ti  Ti2  1  0.88967200  0.80589900  0.31174300  1
  Ti  Ti3  1  0.11032800  0.19410100  0.68825700  1
  F  F0  1  0.44915900  0.87938300  0.12521000  1
  F  F1  1  0.05405500  0.62553300  0.37188500  1
  F  F2  1  0.71526500  0.52150000  0.74917800  1
  F  F3  1  0.28473500  0.47850000  0.25082200  1
  F  F4  1  0.45618900  0.10901500  0.36779000  1
  F  F5  1  0.81029900  0.74174000  0.49735100  1
  F  F6  1  0.78366000  0.97259900  0.75039800  1
  F  F7  1  0.95618900  0.89098500  0.13221000  1
  F  F8  1  0.44594500  0.62553300  0.87188500  1
  F  F9  1  0.21526500  0.47850000  0.75082200  1
  F  F10  1  0.05084100  0.87938300  0.62521000  1
  F  F11  1  0.55084100  0.12061700  0.87479000  1
  F  F12  1  0.28366000  0.02740100  0.74960200  1
  F  F13  1  0.95874300  0.61213000  0.87486300  1
  F  F14  1  0.54381100  0.89098500  0.63221000  1
  F  F15  1  0.04381100  0.10901500  0.86779000  1
  F  F16  1  0.21634000  0.02740100  0.24960200  1
  F  F17  1  0.94915900  0.12061700  0.37479000  1
  F  F18  1  0.45874300  0.38787000  0.62513700  1
  F  F19  1  0.94594500  0.37446700  0.62811500  1
  F  F20  1  0.04125700  0.38787000  0.12513700  1
  F  F21  1  0.71634000  0.97259900  0.25039800  1
  F  F22  1  0.54125700  0.61213000  0.37486300  1
  F  F23  1  0.31029900  0.25826000  0.00264900  1
  F  F24  1  0.18970100  0.25826000  0.50264900  1
  F  F25  1  0.68970100  0.74174000  0.99735100  1
  F  F26  1  0.55405500  0.37446700  0.12811500  1
  F  F27  1  0.78473500  0.52150000  0.24917800  1
loop_
_geom_bond_atom_site_label_1
_geom_bond_atom_site_label_2
_geom_bond_distance
_geom_bond_site_symmetry_2
Ba0 F22 2.643667 1_555
Ba0 F18 2.661409 1_555
Ba0 F14 2.775071 1_555
Ba0 F4 2.804797 1_565
Ba0 F3 2.892630 1_555
Ba0 F9 2.956240 1_555
Ba0 F1 2.997544 1_555
Ba0 F24 2.998159 1_555
Ba0 F12 3.045528 1_565
Ba0 F16 3.049971 1_565
Ba0 F10 3.080589 1_555
Ba0 F24 3.271650 1_565
Ba1 F20 2.643667 1_655
Ba1 F13 2.661409 1_554
Ba1 F15 2.775071 1_654
Ba1 F7 2.804797 1_545
Ba1 F27 2.892630 1_555
Ba1 F2 2.956240 1_554
Ba1 F26 2.997544 1_555
Ba1 F25 2.998159 1_554
Ba1 F6 3.045528 1_544
Ba1 F21 3.049971 1_545
Ba1 F11 3.080589 1_554
Ba1 F25 3.271650 1_544
Ba2 F18 2.643667 1_555
Ba2 F22 2.661409 1_555
Ba2 F4 2.775071 1_555
Ba2 F14 2.804797 1_545
Ba2 F2 2.892630 1_555
Ba2 F27 2.956240 1_555
Ba2 F19 2.997544 1_555
Ba2 F5 2.998159 1_555
Ba2 F21 3.045528 1_545
Ba2 F6 3.049971 1_545
Ba2 F17 3.080589 1_555
Ba2 F5 3.271650 1_545
Ba3 F13 2.643667 1_455
Ba3 F20 2.661409 1_556
Ba3 F7 2.775071 1_456
Ba3 F15 2.804797 1_565
Ba3 F9 2.892630 1_555
Ba3 F3 2.956240 1_556
Ba3 F8 2.997544 1_555
Ba3 F23 2.998159 1_556
Ba3 F16 3.045528 1_566
Ba3 F12 3.049971 1_565
Ba3 F0 3.080589 1_556
Ba3 F23 3.271650 1_566
F0 Mg3 1.973393 1_555
F0 Ti1 2.018866 1_565
F1 Ti2 2.012349 1_455
F1 Mg2 2.013723 1_555
F2 Ti0 2.053120 1_555
F2 Mg1 2.114748 1_555
F3 Ti1 2.053120 1_555
F3 Mg2 2.114748 1_555
F4 Ti1 1.901217 1_555
F5 Ti2 1.982048 1_555
F5 Mg1 2.059908 1_555
F6 Ti0 2.053130 1_555
F6 Mg1 2.056293 1_555
F7 Ti2 1.901217 1_555
F8 Ti0 2.012349 1_555
F8 Mg0 2.013723 1_555
F9 Ti3 2.053120 1_555
F9 Mg0 2.114748 1_555
F10 Mg1 1.973393 1_455
F10 Ti3 2.018866 1_565
F11 Mg0 1.973393 1_555
F11 Ti0 2.018866 1_545
F12 Ti3 2.053130 1_555
F12 Mg0 2.056293 1_555
F13 Mg1 1.929236 1_555
F14 Ti0 1.901217 1_555
F15 Ti3 1.901217 1_555
F16 Ti1 2.053130 1_555
F16 Mg2 2.056293 1_555
F17 Mg2 1.973393 1_655
F17 Ti2 2.018866 1_545
F18 Mg0 1.929236 1_555
F19 Ti3 2.012349 1_655
F19 Mg1 2.013723 1_555
F20 Mg2 1.929236 1_555
F21 Ti2 2.053130 1_555
F21 Mg3 2.056293 1_555
F22 Mg3 1.929236 1_555
F23 Ti1 1.982048 1_555
F23 Mg0 2.059908 1_554
F24 Ti3 1.982048 1_555
F24 Mg2 2.059908 1_555
F25 Ti0 1.982048 1_555
F25 Mg3 2.059908 1_556
F26 Ti1 2.012349 1_555
F26 Mg3 2.013723 1_555
F27 Ti2 2.053120 1_555
F27 Mg3 2.114748 1_555
