# generated using pymatgen
data_Co(IN2)3
_symmetry_space_group_name_H-M   'P 1'
_cell_length_a   5.63228370
_cell_length_b   5.63228370
_cell_length_c   5.63228370
_cell_angle_alpha   60.00000000
_cell_angle_beta   60.00000000
_cell_angle_gamma   60.00000000
_symmetry_Int_Tables_number   1
_chemical_formula_structural   Co(IN2)3
_chemical_formula_sum   'Co1 I3 N6'
_cell_volume   126.33933005
_cell_formula_units_Z   1
loop_
 _symmetry_equiv_pos_site_id
 _symmetry_equiv_pos_as_xyz
  1  'x, y, z'
loop_
 _atom_site_type_symbol
 _atom_site_label
 _atom_site_symmetry_multiplicity
 _atom_site_fract_x
 _atom_site_fract_y
 _atom_site_fract_z
 _atom_site_occupancy
  Co  Co0  1  0.00000000  0.00000000  0.00000000  1
  I  I0  1  0.50000000  0.50000000  0.50000000  1
  I  I1  1  0.25000000  0.25000000  0.25000000  1
  I  I2  1  0.75000000  0.75000000  0.75000000  1
  N  N0  1  0.76082300  0.23917700  0.23917700  1
  N  N1  1  0.76082300  0.23917700  0.76082300  1
  N  N2  1  0.76082300  0.76082300  0.23917700  1
  N  N3  1  0.23917700  0.76082300  0.76082300  1
  N  N4  1  0.23917700  0.76082300  0.23917700  1
  N  N5  1  0.23917700  0.23917700  0.76082300  1
loop_
_geom_bond_atom_site_label_1
_geom_bond_atom_site_label_2
_geom_bond_distance
_geom_bond_site_symmetry_2
Co0 N1 1.905105 1_454
Co0 N2 1.905105 1_445
Co0 N3 1.905105 1_544
Co0 N4 1.905105 1_545
Co0 N5 1.905105 1_554
Co0 N0 1.905105 1_455
I0 N2 2.077521 1_555
I0 N3 2.077521 1_555
I0 N0 2.077521 1_555
I0 N4 2.077521 1_555
I0 N1 2.077521 1_555
I0 N5 2.077521 1_555
I1 N0 2.817461 1_455
I1 N5 2.817461 1_555
I1 N4 2.817461 1_555
I1 N1 2.817461 1_455
I1 N4 2.817461 1_545
I1 N1 2.817461 1_554
I1 N2 2.817461 1_545
I1 N3 2.817461 1_545
I1 N5 2.817461 1_554
I1 N2 2.817461 1_455
I1 N0 2.817461 1_555
I1 N3 2.817461 1_554
I2 N1 2.817461 1_555
I2 N2 2.817461 1_556
I2 N0 2.817461 1_556
I2 N4 2.817461 1_655
I2 N5 2.817461 1_565
I2 N4 2.817461 1_556
I2 N0 2.817461 1_565
I2 N2 2.817461 1_555
I2 N3 2.817461 1_655
I2 N3 2.817461 1_555
I2 N5 2.817461 1_655
I2 N1 2.817461 1_565
