# generated using pymatgen
data_LaMgFeNiO6
_symmetry_space_group_name_H-M   'P 1'
_cell_length_a   5.46300200
_cell_length_b   5.31562654
_cell_length_c   7.60475696
_cell_angle_alpha   89.68519543
_cell_angle_beta   90.00256264
_cell_angle_gamma   89.99633560
_symmetry_Int_Tables_number   1
_chemical_formula_structural   LaMgFeNiO6
_chemical_formula_sum   'La2 Mg2 Fe2 Ni2 O12'
_cell_volume   220.83332088
_cell_formula_units_Z   2
loop_
 _symmetry_equiv_pos_site_id
 _symmetry_equiv_pos_as_xyz
  1  'x, y, z'
loop_
 _atom_site_type_symbol
 _atom_site_label
 _atom_site_symmetry_multiplicity
 _atom_site_fract_x
 _atom_site_fract_y
 _atom_site_fract_z
 _atom_site_occupancy
  La  La0  1  0.03492700  0.99254500  0.24915100  1
  La  La1  1  0.46510200  0.49264100  0.74914400  1
  Mg  Mg0  1  0.55825100  0.52848200  0.24787300  1
  Mg  Mg1  1  0.94170300  0.02855000  0.74784100  1
  Fe  Fe0  1  0.50257000  0.00040200  0.00194600  1
  Fe  Fe1  1  0.99744200  0.50034000  0.50195300  1
  Ni  Ni0  1  0.49702600  0.00134300  0.49757300  1
  Ni  Ni1  1  0.00297600  0.50137600  0.99757500  1
  O  O0  1  0.02086300  0.63071000  0.74228600  1
  O  O1  1  0.20664300  0.18403700  0.94116300  1
  O  O2  1  0.19324400  0.20055100  0.55695500  1
  O  O3  1  0.30671600  0.70047500  0.05694000  1
  O  O4  1  0.29333600  0.68395300  0.44116300  1
  O  O5  1  0.47914200  0.13066800  0.24231900  1
  O  O6  1  0.54910100  0.92657100  0.75589700  1
  O  O7  1  0.73924400  0.27271500  0.55823000  1
  O  O8  1  0.73246900  0.26280200  0.94888500  1
  O  O9  1  0.76765400  0.76277200  0.44891400  1
  O  O10  1  0.76072000  0.77262200  0.05825600  1
  O  O11  1  0.95087000  0.42645000  0.25593100  1
loop_
_geom_bond_atom_site_label_1
_geom_bond_atom_site_label_2
_geom_bond_distance
_geom_bond_site_symmetry_2
La0 O11 2.352559 1_465
La0 O10 2.395152 1_455
La0 O9 2.431372 1_455
La0 O5 2.535880 1_565
La0 O3 2.603153 1_555
La0 O4 2.605579 1_555
La0 O1 2.715883 1_564
La0 O2 2.734624 1_565
La1 O6 2.352679 1_555
La1 O7 2.395013 1_555
La1 O8 2.431576 1_555
La1 O0 2.535832 1_555
La1 O2 2.603376 1_555
La1 O1 2.605981 1_555
La1 O4 2.715461 1_555
La1 O3 2.734339 1_556
Mg0 O5 2.159008 1_555
Mg0 O3 2.194876 1_555
Mg0 O11 2.213118 1_555
Mg0 O4 2.225201 1_555
Mg0 O10 2.228611 1_555
Mg0 O9 2.284309 1_555
Mg1 O0 2.159146 1_645
Mg1 O2 2.194833 1_655
Mg1 O6 2.213031 1_545
Mg1 O1 2.225466 1_655
Mg1 O7 2.228485 1_555
Mg1 O8 2.283740 1_555
Fe0 O10 1.905859 1_545
Fe0 O8 1.918285 1_554
Fe0 O6 1.930781 1_544
Fe0 O1 1.942893 1_554
Fe0 O5 1.962469 1_555
Fe0 O3 1.963268 1_545
Fe1 O7 1.905618 1_555
Fe1 O9 1.917836 1_555
Fe1 O11 1.930661 1_555
Fe1 O4 1.942836 1_655
Fe1 O0 1.962376 1_655
Fe1 O2 1.962400 1_655
Ni0 O9 1.983910 1_545
Ni0 O7 2.012978 1_555
Ni0 O2 2.021008 1_555
Ni0 O6 2.022248 1_545
Ni0 O5 2.058027 1_555
Ni0 O4 2.068044 1_545
Ni1 O8 1.983569 1_455
Ni1 O10 2.012582 1_456
Ni1 O3 2.020564 1_556
Ni1 O11 2.022697 1_456
Ni1 O0 2.058307 1_555
Ni1 O1 2.067663 1_555
