# generated using pymatgen
data_KFe(SeO3)4
_symmetry_space_group_name_H-M   'P 1'
_cell_length_a   5.66735142
_cell_length_b   5.66735142
_cell_length_c   7.44257577
_cell_angle_alpha   90.00000000
_cell_angle_beta   90.00000000
_cell_angle_gamma   95.67619155
_symmetry_Int_Tables_number   1
_chemical_formula_structural   KFe(SeO3)4
_chemical_formula_sum   'K1 Fe1 Se4 O12'
_cell_volume   237.87503242
_cell_formula_units_Z   1
loop_
 _symmetry_equiv_pos_site_id
 _symmetry_equiv_pos_as_xyz
  1  'x, y, z'
loop_
 _atom_site_type_symbol
 _atom_site_label
 _atom_site_symmetry_multiplicity
 _atom_site_fract_x
 _atom_site_fract_y
 _atom_site_fract_z
 _atom_site_occupancy
  K  K0  1  0.05058207  0.94941793  0.50000000  1
  Fe  Fe0  1  0.44790352  0.55209648  0.00000000  1
  Se  Se0  1  0.55119541  0.99269990  0.24357603  1
  Se  Se1  1  0.55119541  0.99269990  0.75642397  1
  Se  Se2  1  0.00730010  0.44880459  0.75642397  1
  Se  Se3  1  0.00730010  0.44880459  0.24357603  1
  O  O0  1  0.15575489  0.21334503  0.21970284  1
  O  O1  1  0.78665497  0.84424511  0.21970284  1
  O  O2  1  0.78665497  0.84424511  0.78029716  1
  O  O3  1  0.15575489  0.21334503  0.78029716  1
  O  O4  1  0.34177679  0.65822321  0.24648673  1
  O  O5  1  0.68030695  0.31969305  0.17524183  1
  O  O6  1  0.68030695  0.31969305  0.82475817  1
  O  O7  1  0.34177679  0.65822321  0.75351327  1
  O  O8  1  0.43509923  0.93742173  0.00000000  1
  O  O9  1  0.51254320  0.04028450  0.50000000  1
  O  O10  1  0.06257827  0.56490077  -0.00000000  1
  O  O11  1  0.95971550  0.48745680  0.50000000  1
loop_
_geom_bond_atom_site_label_1
_geom_bond_atom_site_label_2
_geom_bond_distance
_geom_bond_site_symmetry_2
K0 O0 2.601574 1_565
K0 O1 2.601574 1_455
K0 O3 2.601574 1_565
K0 O2 2.601574 1_455
K0 O11 2.617809 1_455
K0 O9 2.617809 1_565
K0 O7 3.089616 1_555
K0 O4 3.089616 1_555
K0 O11 3.142257 1_465
K0 O9 3.142257 1_465
Fe0 O7 2.039715 1_554
Fe0 O4 2.039715 1_555
Fe0 O10 2.192141 1_555
Fe0 O8 2.192141 1_555
Fe0 O5 2.348148 1_555
Fe0 O6 2.348148 1_554
O0 Se3 1.655968 1_555
O1 Se0 1.655968 1_555
O2 Se1 1.655968 1_555
O3 Se2 1.655968 1_555
O4 Se3 2.134791 1_555
O4 Se0 2.134791 1_555
O5 Se3 1.990007 1_655
O5 Se0 1.990007 1_545
O6 Se2 1.990007 1_655
O6 Se1 1.990007 1_545
O7 Se2 2.134791 1_555
O7 Se1 2.134791 1_555
O8 Se0 1.943359 1_555
O8 Se1 1.943359 1_554
O9 Se1 1.942832 1_545
O9 Se0 1.942832 1_545
O10 Se3 1.943359 1_555
O10 Se2 1.943359 1_554
O11 Se2 1.942832 1_655
O11 Se3 1.942832 1_655
