# generated using pymatgen
data_K8Rb2Hg15(GeS4)10
_symmetry_space_group_name_H-M   'P 1'
_cell_length_a   6.54909010
_cell_length_b   32.58673898
_cell_length_c   9.92379556
_cell_angle_alpha   86.88623521
_cell_angle_beta   86.09785975
_cell_angle_gamma   94.15886351
_symmetry_Int_Tables_number   1
_chemical_formula_structural   K8Rb2Hg15(GeS4)10
_chemical_formula_sum   'K8 Rb2 Hg15 Ge10 S40'
_cell_volume   2103.65844898
_cell_formula_units_Z   1
loop_
 _symmetry_equiv_pos_site_id
 _symmetry_equiv_pos_as_xyz
  1  'x, y, z'
loop_
 _atom_site_type_symbol
 _atom_site_label
 _atom_site_symmetry_multiplicity
 _atom_site_fract_x
 _atom_site_fract_y
 _atom_site_fract_z
 _atom_site_occupancy
  K  K0  1  0.06607442  0.12715650  0.22754097  1
  K  K1  1  0.26609655  0.32715526  0.22755471  1
  K  K2  1  0.46610567  0.52716202  0.22753634  1
  K  K3  1  0.66608431  0.72716402  0.22753210  1
  K  K4  1  0.86608339  0.92716449  0.22752984  1
  K  K5  1  0.37638928  0.01221332  0.77253756  1
  K  K6  1  0.97638767  0.61221479  0.77254011  1
  K  K7  1  0.17639347  0.81221056  0.77254958  1
  Rb  Rb0  1  0.57661957  0.21216673  0.77286315  1
  Rb  Rb1  1  0.77663400  0.41217393  0.77286467  1
  Hg  Hg0  1  0.48717642  0.12812371  0.49992080  1
  Hg  Hg1  1  0.68719754  0.32813903  0.49990816  1
  Hg  Hg2  1  0.88730772  0.52819519  0.49998836  1
  Hg  Hg3  1  0.08728902  0.72818047  0.49999399  1
  Hg  Hg4  1  0.28728752  0.92817891  0.49999660  1
  Hg  Hg5  1  0.87436512  0.03140730  0.49999226  1
  Hg  Hg6  1  0.07453540  0.23142141  0.49989685  1
  Hg  Hg7  1  0.27456468  0.43142288  0.49987835  1
  Hg  Hg8  1  0.47439445  0.63140819  0.49997448  1
  Hg  Hg9  1  0.67438885  0.83140789  0.49997079  1
  Hg  Hg10  1  0.61851669  0.09534629  0.00001976  1
  Hg  Hg11  1  0.81854032  0.29538359  0.00019070  1
  Hg  Hg12  1  0.01848637  0.49541140  0.00015005  1
  Hg  Hg13  1  0.21846100  0.69537407  0.99998120  1
  Hg  Hg14  1  0.41846193  0.89537356  0.99998165  1
  Ge  Ge0  1  0.44949291  0.02077410  0.27347419  1
  Ge  Ge1  1  0.64951618  0.22080437  0.27337226  1
  Ge  Ge2  1  0.84951836  0.42080884  0.27336831  1
  Ge  Ge3  1  0.04949658  0.62077791  0.27347160  1
  Ge  Ge4  1  0.24949450  0.82077621  0.27347916  1
  Ge  Ge5  1  0.01029020  0.11418040  0.72646797  1
  Ge  Ge6  1  0.21040898  0.31422521  0.72642596  1
  Ge  Ge7  1  0.41046207  0.51429666  0.72641388  1
  Ge  Ge8  1  0.61033960  0.71425294  0.72646811  1
  Ge  Ge9  1  0.81035008  0.91425344  0.72647580  1
  S  S0  1  0.55261699  0.15307251  0.26069778  1
  S  S1  1  0.75261767  0.35306888  0.26068587  1
  S  S2  1  0.95259788  0.55305697  0.26069481  1
  S  S3  1  0.15259771  0.75305824  0.26070949  1
  S  S4  1  0.35259742  0.95306026  0.26070658  1
  S  S5  1  0.35378788  0.11961176  0.73904286  1
  S  S6  1  0.55378474  0.31987673  0.73896675  1
  S  S7  1  0.75485650  0.52035725  0.73925106  1
  S  S8  1  0.95485780  0.72009317  0.73931801  1
  S  S9  1  0.15485565  0.92009349  0.73931751  1
  S  S10  1  0.31167912  0.04536190  0.45716556  1
  S  S11  1  0.51135172  0.24548023  0.45615602  1
  S  S12  1  0.71132075  0.44547253  0.45616886  1
  S  S13  1  0.91164806  0.64535471  0.45717921  1
  S  S14  1  0.11164791  0.84535578  0.45718176  1
  S  S15  1  0.92010421  0.14671838  0.54278442  1
  S  S16  1  0.12009719  0.34671469  0.54277778  1
  S  S17  1  0.31999266  0.54672864  0.54281709  1
  S  S18  1  0.51999738  0.74673193  0.54283108  1
  S  S19  1  0.71999675  0.94673166  0.54282573  1
  S  S20  1  0.79381832  0.03260507  0.25792071  1
  S  S21  1  0.99378866  0.23260036  0.25792319  1
  S  S22  1  0.19378574  0.43259658  0.25792975  1
  S  S23  1  0.39381511  0.63260228  0.25792605  1
  S  S24  1  0.59381205  0.83260317  0.25792727  1
  S  S25  1  0.88462329  0.04774588  0.74201048  1
  S  S26  1  0.08472077  0.24794840  0.74180578  1
  S  S27  1  0.28491844  0.44796824  0.74181305  1
  S  S28  1  0.48482670  0.64776577  0.74201775  1
  S  S29  1  0.68482820  0.84776550  0.74201873  1
  S  S30  1  0.33136123  0.04933130  0.08025479  1
  S  S31  1  0.53132411  0.24950232  0.08132676  1
  S  S32  1  0.73133687  0.44949817  0.08133385  1
  S  S33  1  0.93137627  0.64932723  0.08026208  1
  S  S34  1  0.13137486  0.84932891  0.08026080  1
  S  S35  1  0.89784919  0.14337710  0.92017379  1
  S  S36  1  0.09790262  0.34337750  0.92016321  1
  S  S37  1  0.29693936  0.54358410  0.91977461  1
  S  S38  1  0.49689051  0.74358342  0.91978353  1
  S  S39  1  0.69689089  0.94358341  0.91978530  1
loop_
_geom_bond_atom_site_label_1
_geom_bond_atom_site_label_2
_geom_bond_distance
_geom_bond_site_symmetry_2
K0 S0 3.279828 1_555
K0 S15 3.317406 1_455
K0 S35 3.341242 1_454
K0 S20 3.434020 1_455
K0 S30 3.504669 1_555
K0 S0 3.524285 1_455
K0 S21 3.528550 1_455
K1 S1 3.279632 1_555
K1 S16 3.317242 1_555
K1 S36 3.341390 1_554
K1 S21 3.434268 1_455
K1 S31 3.495647 1_555
K1 S1 3.524386 1_455
K1 S22 3.528492 1_555
K2 S2 3.279383 1_555
K2 S17 3.318015 1_555
K2 S37 3.348235 1_554
K2 S22 3.434598 1_555
K2 S32 3.495832 1_555
K2 S2 3.524389 1_455
K2 S23 3.528450 1_555
K3 S3 3.279545 1_655
K3 S18 3.318155 1_555
K3 S38 3.348175 1_554
K3 S23 3.434346 1_555
K3 S33 3.504914 1_555
K3 S3 3.524255 1_555
K3 S24 3.528397 1_555
K4 S4 3.279558 1_655
K4 S19 3.318119 1_555
K4 S39 3.348132 1_554
K4 S24 3.434341 1_555
K4 S34 3.504877 1_655
K4 S4 3.524267 1_555
K4 S20 3.528429 1_565
K5 S9 3.281135 1_545
K5 S10 3.319794 1_555
K5 S30 3.347483 1_556
K5 S25 3.431742 1_555
K5 S39 3.505132 1_545
K5 S5 3.512294 1_555
K5 S25 3.527102 1_455
K6 S7 3.273662 1_555
K6 S13 3.319653 1_555
K6 S33 3.347446 1_556
K6 S28 3.433160 1_655
K6 S37 3.505314 1_655
K6 S28 3.526065 1_555
K6 S8 3.526891 1_555
K7 S8 3.281090 1_455
K7 S14 3.319774 1_555
K7 S34 3.347430 1_556
K7 S29 3.433168 1_555
K7 S38 3.504994 1_555
K7 S29 3.526152 1_455
K7 S9 3.527049 1_555
Rb0 S5 3.298060 1_555
Rb0 S11 3.334476 1_555
Rb0 S31 3.357394 1_556
Rb0 S26 3.433087 1_655
Rb0 S35 3.512036 1_555
Rb0 S6 3.522748 1_555
Rb0 S26 3.531782 1_555
Rb1 S6 3.290788 1_555
Rb1 S12 3.334298 1_555
Rb1 S32 3.357291 1_556
Rb1 S27 3.434322 1_655
Rb1 S36 3.512304 1_655
Rb1 S27 3.530805 1_555
Rb1 S7 3.537131 1_555
Hg0 S0 2.466137 1_555
Hg0 S5 2.466251 1_555
Hg0 S10 2.918148 1_555
Hg0 S15 2.920598 1_555
Hg1 S6 2.465441 1_555
Hg1 S1 2.465955 1_555
Hg1 S11 2.918104 1_555
Hg1 S16 2.920344 1_655
Hg2 S7 2.465174 1_555
Hg2 S2 2.465958 1_555
Hg2 S17 2.918697 1_655
Hg2 S12 2.920445 1_555
Hg3 S8 2.465928 1_455
Hg3 S3 2.466021 1_555
Hg3 S18 2.918948 1_555
Hg3 S13 2.920479 1_455
Hg4 S9 2.465899 1_555
Hg4 S4 2.466104 1_555
Hg4 S19 2.918942 1_555
Hg4 S14 2.920399 1_555
Hg5 S25 2.492394 1_555
Hg5 S20 2.493182 1_555
Hg5 S10 2.866076 1_655
Hg5 S19 2.868097 1_545
Hg6 S21 2.492611 1_455
Hg6 S26 2.492926 1_555
Hg6 S11 2.863823 1_555
Hg6 S15 2.869077 1_455
Hg7 S22 2.492431 1_555
Hg7 S27 2.493420 1_555
Hg7 S12 2.863390 1_555
Hg7 S16 2.869306 1_555
Hg8 S28 2.492889 1_555
Hg8 S23 2.493020 1_555
Hg8 S13 2.865647 1_555
Hg8 S17 2.868282 1_555
Hg9 S29 2.492938 1_555
Hg9 S24 2.492967 1_555
Hg9 S14 2.865681 1_655
Hg9 S18 2.868167 1_555
Hg10 S30 2.382558 1_555
Hg10 S35 2.382623 1_554
Hg11 S36 2.382499 1_654
Hg11 S31 2.382655 1_555
Hg12 S37 2.382605 1_554
Hg12 S32 2.383034 1_455
Hg13 S38 2.382762 1_555
Hg13 S33 2.382912 1_456
Hg14 S39 2.382766 1_555
Hg14 S34 2.382879 1_556
Ge0 S10 2.195277 1_555
Ge0 S20 2.253360 1_555
Ge0 S4 2.264051 1_545
Ge0 S30 2.292096 1_555
Ge1 S11 2.190024 1_555
Ge1 S21 2.252920 1_555
Ge1 S0 2.264500 1_555
Ge1 S31 2.284296 1_555
Ge2 S12 2.190068 1_555
Ge2 S22 2.252863 1_655
Ge2 S1 2.264765 1_555
Ge2 S32 2.284066 1_555
Ge3 S13 2.195338 1_455
Ge3 S23 2.253296 1_555
Ge3 S2 2.264289 1_455
Ge3 S33 2.291884 1_455
Ge4 S14 2.195332 1_555
Ge4 S24 2.253297 1_555
Ge4 S3 2.264184 1_555
Ge4 S34 2.291998 1_555
Ge5 S15 2.196187 1_455
Ge5 S25 2.252969 1_455
Ge5 S5 2.256201 1_555
Ge5 S35 2.291363 1_455
Ge6 S16 2.195474 1_555
Ge6 S26 2.248242 1_555
Ge6 S6 2.255441 1_555
Ge6 S36 2.291051 1_555
Ge7 S17 2.194572 1_555
Ge7 S27 2.249529 1_555
Ge7 S7 2.262656 1_555
Ge7 S37 2.292021 1_555
Ge8 S18 2.195299 1_555
Ge8 S28 2.254273 1_555
Ge8 S8 2.263360 1_555
Ge8 S38 2.292183 1_555
Ge9 S19 2.195420 1_555
Ge9 S29 2.254314 1_555
Ge9 S9 2.263267 1_655
Ge9 S39 2.292145 1_555
