# generated using pymatgen
data_Mg16Al12V
_symmetry_space_group_name_H-M   'P 1'
_cell_length_a   9.06913754
_cell_length_b   9.06913754
_cell_length_c   9.06913754
_cell_angle_alpha   109.47122063
_cell_angle_beta   109.47122063
_cell_angle_gamma   109.47122063
_symmetry_Int_Tables_number   1
_chemical_formula_structural   Mg16Al12V
_chemical_formula_sum   'Mg16 Al12 V1'
_cell_volume   574.21703752
_cell_formula_units_Z   1
loop_
 _symmetry_equiv_pos_site_id
 _symmetry_equiv_pos_as_xyz
  1  'x, y, z'
loop_
 _atom_site_type_symbol
 _atom_site_label
 _atom_site_symmetry_multiplicity
 _atom_site_fract_x
 _atom_site_fract_y
 _atom_site_fract_z
 _atom_site_occupancy
  Mg  Mg0  1  0.66046100  0.00000000  0.00000000  1
  Mg  Mg1  1  0.33953900  0.33953900  0.33953900  1
  Mg  Mg2  1  0.28607000  0.60180300  0.60180300  1
  Mg  Mg3  1  0.71393000  0.31573300  0.31573300  1
  Mg  Mg4  1  0.00000000  0.68426700  0.39819700  1
  Mg  Mg5  1  0.60180300  0.60180300  0.28607000  1
  Mg  Mg6  1  0.39819700  0.00000000  0.68426700  1
  Mg  Mg7  1  0.00000000  0.00000000  0.66046100  1
  Mg  Mg8  1  0.31573300  0.71393000  0.31573300  1
  Mg  Mg9  1  0.68426700  0.39819700  0.00000000  1
  Mg  Mg10  1  0.31573300  0.31573300  0.71393000  1
  Mg  Mg11  1  0.68426700  0.00000000  0.39819700  1
  Mg  Mg12  1  0.00000000  0.66046100  0.00000000  1
  Mg  Mg13  1  0.39819700  0.68426700  0.00000000  1
  Mg  Mg14  1  0.60180300  0.28607000  0.60180300  1
  Mg  Mg15  1  0.00000000  0.39819700  0.68426700  1
  Al  Al0  1  0.17924500  0.81560300  0.81560300  1
  Al  Al1  1  0.82075500  0.63635800  0.63635800  1
  Al  Al2  1  0.00000000  0.36364200  0.18439700  1
  Al  Al3  1  0.63635800  0.82075500  0.63635800  1
  Al  Al4  1  0.36364200  0.18439700  0.00000000  1
  Al  Al5  1  0.18439700  0.36364200  0.00000000  1
  Al  Al6  1  0.81560300  0.17924500  0.81560300  1
  Al  Al7  1  0.81560300  0.81560300  0.17924500  1
  Al  Al8  1  0.18439700  0.00000000  0.36364200  1
  Al  Al9  1  0.36364200  0.00000000  0.18439700  1
  Al  Al10  1  0.63635800  0.63635800  0.82075500  1
  Al  Al11  1  0.00000000  0.18439700  0.36364200  1
  V  V0  1  0.00000000  0.00000000  0.00000000  1
loop_
_geom_bond_atom_site_label_1
_geom_bond_atom_site_label_2
_geom_bond_distance
_geom_bond_site_symmetry_2
Mg0 Mg3 3.052221 1_555
Mg0 Mg13 3.052221 1_545
Mg0 Mg6 3.052221 1_554
Mg0 V0 3.079326 1_655
Mg1 Mg14 3.052221 1_555
Mg1 Mg2 3.052221 1_555
Mg1 Mg5 3.052221 1_555
Mg1 V0 3.079326 1_555
Mg2 Mg4 3.117750 1_555
Mg2 Mg8 3.143111 1_555
Mg2 Mg6 3.143111 1_565
Mg3 Mg4 3.117750 1_655
Mg3 Mg9 3.143111 1_555
Mg3 Mg5 3.143111 1_555
Mg4 Mg7 3.052221 1_565
Mg4 Mg8 3.143111 1_555
Mg4 Mg6 3.143111 1_565
Mg4 Mg9 3.143111 1_455
Mg4 Mg5 3.143111 1_455
Mg5 Mg9 3.117750 1_555
Mg5 Mg8 3.143111 1_555
Mg6 Mg8 3.117750 1_545
Mg6 Mg9 3.143111 1_556
Mg7 V0 3.079326 1_556
Mg10 Mg7 3.052221 1_555
Mg10 Mg9 3.117750 1_556
Mg10 Mg13 3.117750 1_556
Mg10 Mg15 3.143111 1_555
Mg10 Mg6 3.143111 1_555
Mg10 Mg14 3.143111 1_555
Mg10 Mg2 3.143111 1_555
Mg11 Mg7 3.052221 1_655
Mg11 Mg8 3.117750 1_545
Mg11 Mg14 3.117750 1_555
Mg11 Mg3 3.143111 1_555
Mg11 Mg15 3.143111 1_655
Mg11 Mg13 3.143111 1_545
Mg11 Mg5 3.143111 1_545
Mg12 Mg8 3.052221 1_555
Mg12 Mg9 3.052221 1_455
Mg12 Mg15 3.052221 1_554
Mg12 V0 3.079326 1_565
Mg13 Mg5 3.117750 1_555
Mg13 Mg8 3.143111 1_555
Mg13 Mg15 3.143111 1_554
Mg13 Mg2 3.143111 1_554
Mg14 Mg6 3.117750 1_555
Mg14 Mg3 3.143111 1_555
Mg14 Mg9 3.143111 1_556
Mg14 Mg15 3.143111 1_655
Mg15 Mg3 3.117750 1_455
Mg15 Mg2 3.117750 1_555
Al0 Al1 2.654590 1_455
Al0 Al4 2.730890 1_566
Al0 Al9 2.730890 1_566
Al0 Mg2 2.907943 1_555
Al0 Mg6 2.974780 1_565
Al0 Mg13 2.974780 1_556
Al0 Mg7 3.045499 1_565
Al0 Mg12 3.045499 1_556
Al0 Mg15 3.161032 1_555
Al0 Mg4 3.161032 1_555
Al0 V0 3.161668 1_566
Al1 Al3 2.730890 1_555
Al1 Al10 2.730890 1_555
Al1 Mg3 2.907943 1_555
Al1 Mg5 2.974780 1_555
Al1 Mg14 2.974780 1_555
Al1 Mg7 3.045499 1_665
Al1 Mg12 3.045499 1_656
Al1 Mg4 3.161032 1_655
Al1 Mg15 3.161032 1_655
Al1 V0 3.161668 1_666
Al2 Al5 2.730890 1_555
Al2 Al6 2.730890 1_454
Al2 Mg4 2.907943 1_555
Al2 Mg9 2.974780 1_455
Al2 Mg8 2.974780 1_555
Al2 Mg0 3.045499 1_455
Al2 Mg1 3.045499 1_555
Al2 Mg3 3.161032 1_455
Al2 Mg2 3.161032 1_555
Al2 V0 3.161668 1_555
Al3 Al6 2.654590 1_565
Al3 Mg8 2.907943 1_555
Al3 Mg5 2.974780 1_555
Al3 Mg2 2.974780 1_555
Al3 Mg7 3.045499 1_665
Al3 Mg0 3.045499 1_566
Al3 Mg6 3.161032 1_565
Al3 Mg11 3.161032 1_565
Al3 V0 3.161668 1_666
Al4 Al5 2.654590 1_555
Al4 Al9 2.730890 1_555
Al4 Mg9 2.907943 1_555
Al4 Mg6 2.974780 1_554
Al4 Mg3 2.974780 1_555
Al4 Mg1 3.045499 1_555
Al4 Mg7 3.045499 1_554
Al4 Mg10 3.161032 1_554
Al4 Mg5 3.161032 1_555
Al4 V0 3.161668 1_555
Al5 Al6 2.730890 1_454
Al5 Mg13 2.907943 1_555
Al5 Mg15 2.974780 1_554
Al5 Mg8 2.974780 1_555
Al5 Mg1 3.045499 1_555
Al5 Mg7 3.045499 1_554
Al5 Mg10 3.161032 1_554
Al5 Mg5 3.161032 1_555
Al5 V0 3.161668 1_555
Al6 Mg14 2.907943 1_555
Al6 Mg9 2.974780 1_556
Al6 Mg15 2.974780 1_655
Al6 Mg0 3.045499 1_556
Al6 Mg7 3.045499 1_655
Al6 Mg6 3.161032 1_555
Al6 Mg11 3.161032 1_555
Al6 V0 3.161668 1_656
Al7 Al8 2.730890 1_665
Al7 Mg5 2.907943 1_555
Al7 Mg11 2.974780 1_565
Al7 Mg4 2.974780 1_655
Al7 Mg12 3.045499 1_655
Al7 Mg0 3.045499 1_565
Al7 Mg9 3.161032 1_555
Al7 Mg13 3.161032 1_555
Al7 V0 3.161668 1_665
Al8 Al9 2.654590 1_555
Al8 Mg6 2.907943 1_555
Al8 Mg4 2.974780 1_545
Al8 Mg10 2.974780 1_555
Al8 Mg1 3.045499 1_555
Al8 Mg12 3.045499 1_545
Al8 Mg14 3.161032 1_555
Al8 Mg8 3.161032 1_545
Al8 V0 3.161668 1_555
Al9 Mg11 2.907943 1_555
Al9 Mg13 2.974780 1_545
Al9 Mg3 2.974780 1_555
Al9 Mg1 3.045499 1_555
Al9 Mg12 3.045499 1_545
Al9 Mg8 3.161032 1_545
Al9 Mg14 3.161032 1_555
Al9 V0 3.161668 1_555
Al10 Al7 2.654590 1_556
Al10 Al3 2.730890 1_555
Al10 Mg10 2.907943 1_555
Al10 Mg2 2.974780 1_555
Al10 Mg14 2.974780 1_555
Al10 Mg0 3.045499 1_566
Al10 Mg12 3.045499 1_656
Al10 Mg9 3.161032 1_556
Al10 Mg13 3.161032 1_556
Al10 V0 3.161668 1_666
Al11 Al2 2.654590 1_555
Al11 Al7 2.730890 1_445
Al11 Al8 2.730890 1_555
Al11 Mg15 2.907943 1_555
Al11 Mg11 2.974780 1_455
Al11 Mg10 2.974780 1_555
Al11 Mg0 3.045499 1_455
Al11 Mg1 3.045499 1_555
Al11 Mg3 3.161032 1_455
Al11 Mg2 3.161032 1_555
Al11 V0 3.161668 1_555
