# generated using pymatgen
data_Mg30MnFeO32
_symmetry_space_group_name_H-M   'P 1'
_cell_length_a   8.53604400
_cell_length_b   8.53604400
_cell_length_c   8.54181400
_cell_angle_alpha   90.00000000
_cell_angle_beta   90.00000000
_cell_angle_gamma   90.00000000
_symmetry_Int_Tables_number   1
_chemical_formula_structural   Mg30MnFeO32
_chemical_formula_sum   'Mg30 Mn1 Fe1 O32'
_cell_volume   622.39113821
_cell_formula_units_Z   1
loop_
 _symmetry_equiv_pos_site_id
 _symmetry_equiv_pos_as_xyz
  1  'x, y, z'
loop_
 _atom_site_type_symbol
 _atom_site_label
 _atom_site_symmetry_multiplicity
 _atom_site_fract_x
 _atom_site_fract_y
 _atom_site_fract_z
 _atom_site_occupancy
  Mg  Mg0  1  0.00000000  0.50000000  0.00000000  1
  Mg  Mg1  1  0.00000000  0.50000000  0.50000000  1
  Mg  Mg2  1  0.50000000  0.00000000  0.00000000  1
  Mg  Mg3  1  0.50000000  0.00000000  0.50000000  1
  Mg  Mg4  1  0.50000000  0.50000000  0.00000000  1
  Mg  Mg5  1  0.50000000  0.50000000  0.50000000  1
  Mg  Mg6  1  0.00000000  0.25071100  0.25045400  1
  Mg  Mg7  1  0.00000000  0.25071100  0.74954600  1
  Mg  Mg8  1  0.00000000  0.74928900  0.25045400  1
  Mg  Mg9  1  0.00000000  0.74928900  0.74954600  1
  Mg  Mg10  1  0.50000000  0.24981400  0.24989900  1
  Mg  Mg11  1  0.50000000  0.24981400  0.75010100  1
  Mg  Mg12  1  0.50000000  0.75018600  0.24989900  1
  Mg  Mg13  1  0.50000000  0.75018600  0.75010100  1
  Mg  Mg14  1  0.25071100  0.00000000  0.25045400  1
  Mg  Mg15  1  0.25071100  0.00000000  0.74954600  1
  Mg  Mg16  1  0.24981400  0.50000000  0.24989900  1
  Mg  Mg17  1  0.24981400  0.50000000  0.75010100  1
  Mg  Mg18  1  0.74928900  0.00000000  0.25045400  1
  Mg  Mg19  1  0.74928900  0.00000000  0.74954600  1
  Mg  Mg20  1  0.75018600  0.50000000  0.24989900  1
  Mg  Mg21  1  0.75018600  0.50000000  0.75010100  1
  Mg  Mg22  1  0.25070500  0.25070500  0.00000000  1
  Mg  Mg23  1  0.25043600  0.25043600  0.50000000  1
  Mg  Mg24  1  0.25070500  0.74929500  0.00000000  1
  Mg  Mg25  1  0.25043600  0.74956400  0.50000000  1
  Mg  Mg26  1  0.74929500  0.25070500  0.00000000  1
  Mg  Mg27  1  0.74956400  0.25043600  0.50000000  1
  Mg  Mg28  1  0.74929500  0.74929500  0.00000000  1
  Mg  Mg29  1  0.74956400  0.74956400  0.50000000  1
  Mn  Mn0  1  0.00000000  0.00000000  0.00000000  1
  Fe  Fe0  1  0.00000000  0.00000000  0.50000000  1
  O  O0  1  0.25710800  0.00000000  0.00000000  1
  O  O1  1  0.25389900  0.00000000  0.50000000  1
  O  O2  1  0.25084900  0.50000000  0.00000000  1
  O  O3  1  0.25033300  0.50000000  0.50000000  1
  O  O4  1  0.74289200  0.00000000  0.00000000  1
  O  O5  1  0.74610100  0.00000000  0.50000000  1
  O  O6  1  0.74915100  0.50000000  0.00000000  1
  O  O7  1  0.74966700  0.50000000  0.50000000  1
  O  O8  1  0.24955300  0.24955300  0.25007500  1
  O  O9  1  0.24955300  0.24955300  0.74992500  1
  O  O10  1  0.24955300  0.75044700  0.25007500  1
  O  O11  1  0.24955300  0.75044700  0.74992500  1
  O  O12  1  0.75044700  0.24955300  0.25007500  1
  O  O13  1  0.75044700  0.24955300  0.74992500  1
  O  O14  1  0.75044700  0.75044700  0.25007500  1
  O  O15  1  0.75044700  0.75044700  0.74992500  1
  O  O16  1  0.00000000  0.00000000  0.25077500  1
  O  O17  1  0.00000000  0.00000000  0.74922500  1
  O  O18  1  0.00000000  0.50000000  0.25064400  1
  O  O19  1  0.00000000  0.50000000  0.74935600  1
  O  O20  1  0.50000000  0.00000000  0.25064400  1
  O  O21  1  0.50000000  0.00000000  0.74935600  1
  O  O22  1  0.50000000  0.50000000  0.25018300  1
  O  O23  1  0.50000000  0.50000000  0.74981700  1
  O  O24  1  0.00000000  0.25710800  0.00000000  1
  O  O25  1  0.00000000  0.25389900  0.50000000  1
  O  O26  1  0.00000000  0.74289200  0.00000000  1
  O  O27  1  0.00000000  0.74610100  0.50000000  1
  O  O28  1  0.50000000  0.25084900  0.00000000  1
  O  O29  1  0.50000000  0.25033300  0.50000000  1
  O  O30  1  0.50000000  0.74915100  0.00000000  1
  O  O31  1  0.50000000  0.74966700  0.50000000  1
loop_
_geom_bond_atom_site_label_1
_geom_bond_atom_site_label_2
_geom_bond_distance
_geom_bond_site_symmetry_2
Mg0 O26 2.073337 1_555
Mg0 O24 2.073337 1_555
Mg0 O18 2.140954 1_555
Mg0 O19 2.140954 1_554
Mg0 O2 2.141258 1_555
Mg0 O6 2.141258 1_455
Mg1 O27 2.100729 1_555
Mg1 O25 2.100729 1_555
Mg1 O18 2.129953 1_555
Mg1 O19 2.129953 1_555
Mg1 O3 2.136854 1_555
Mg1 O7 2.136854 1_455
Mg2 O4 2.073337 1_555
Mg2 O0 2.073337 1_555
Mg2 O20 2.140954 1_555
Mg2 O21 2.140954 1_554
Mg2 O28 2.141258 1_555
Mg2 O30 2.141258 1_545
Mg3 O1 2.100729 1_555
Mg3 O5 2.100729 1_555
Mg3 O21 2.129953 1_555
Mg3 O20 2.129953 1_555
Mg3 O31 2.136854 1_545
Mg3 O29 2.136854 1_555
Mg4 O28 2.126764 1_555
Mg4 O6 2.126764 1_555
Mg4 O30 2.126764 1_555
Mg4 O2 2.126764 1_555
Mg4 O22 2.137017 1_555
Mg4 O23 2.137017 1_554
Mg5 O31 2.131168 1_555
Mg5 O3 2.131168 1_555
Mg5 O29 2.131168 1_555
Mg5 O7 2.131168 1_555
Mg5 O23 2.133890 1_555
Mg5 O22 2.133890 1_555
Mg6 O18 2.127942 1_555
Mg6 O8 2.130221 1_555
Mg6 O12 2.130221 1_455
Mg6 O25 2.131749 1_555
Mg6 O24 2.140028 1_555
Mg6 O16 2.140082 1_555
Mg7 O19 2.127942 1_555
Mg7 O9 2.130221 1_555
Mg7 O13 2.130221 1_455
Mg7 O25 2.131749 1_555
Mg7 O24 2.140028 1_556
Mg7 O17 2.140082 1_555
Mg8 O18 2.127942 1_555
Mg8 O10 2.130221 1_555
Mg8 O14 2.130221 1_455
Mg8 O27 2.131749 1_555
Mg8 O26 2.140028 1_555
Mg8 O16 2.140082 1_565
Mg9 O19 2.127942 1_555
Mg9 O11 2.130221 1_555
Mg9 O15 2.130221 1_455
Mg9 O27 2.131749 1_555
Mg9 O26 2.140028 1_556
Mg9 O17 2.140082 1_565
Mg10 O20 2.132433 1_555
Mg10 O28 2.134609 1_555
Mg10 O22 2.135600 1_555
Mg10 O29 2.136321 1_555
Mg10 O12 2.137828 1_555
Mg10 O8 2.137828 1_555
Mg11 O21 2.132433 1_555
Mg11 O28 2.134609 1_556
Mg11 O23 2.135600 1_555
Mg11 O29 2.136321 1_555
Mg11 O13 2.137828 1_555
Mg11 O9 2.137828 1_555
Mg12 O20 2.132433 1_565
Mg12 O30 2.134609 1_555
Mg12 O22 2.135600 1_555
Mg12 O31 2.136321 1_555
Mg12 O10 2.137828 1_555
Mg12 O14 2.137828 1_555
Mg13 O21 2.132433 1_565
Mg13 O30 2.134609 1_556
Mg13 O23 2.135600 1_555
Mg13 O31 2.136321 1_555
Mg13 O15 2.137828 1_555
Mg13 O11 2.137828 1_555
Mg14 O20 2.127942 1_555
Mg14 O8 2.130221 1_555
Mg14 O10 2.130221 1_545
Mg14 O1 2.131749 1_555
Mg14 O0 2.140028 1_555
Mg14 O16 2.140082 1_555
Mg15 O21 2.127942 1_555
Mg15 O9 2.130221 1_555
Mg15 O11 2.130221 1_545
Mg15 O1 2.131749 1_555
Mg15 O0 2.140028 1_556
Mg15 O17 2.140082 1_555
Mg16 O18 2.132433 1_555
Mg16 O2 2.134609 1_555
Mg16 O22 2.135600 1_555
Mg16 O3 2.136321 1_555
Mg16 O10 2.137828 1_555
Mg16 O8 2.137828 1_555
Mg17 O19 2.132433 1_555
Mg17 O2 2.134609 1_556
Mg17 O23 2.135600 1_555
Mg17 O3 2.136321 1_555
Mg17 O11 2.137828 1_555
Mg17 O9 2.137828 1_555
Mg18 O20 2.127942 1_555
Mg18 O12 2.130221 1_555
Mg18 O14 2.130221 1_545
Mg18 O5 2.131749 1_555
Mg18 O4 2.140028 1_555
Mg18 O16 2.140082 1_655
Mg19 O21 2.127942 1_555
Mg19 O13 2.130221 1_555
Mg19 O15 2.130221 1_545
Mg19 O5 2.131749 1_555
Mg19 O4 2.140028 1_556
Mg19 O17 2.140082 1_655
Mg20 O18 2.132433 1_655
Mg20 O6 2.134609 1_555
Mg20 O22 2.135600 1_555
Mg20 O7 2.136321 1_555
Mg20 O12 2.137828 1_555
Mg20 O14 2.137828 1_555
Mg21 O19 2.132433 1_655
Mg21 O6 2.134609 1_556
Mg21 O23 2.135600 1_555
Mg21 O7 2.136321 1_555
Mg21 O15 2.137828 1_555
Mg21 O13 2.137828 1_555
Mg22 O2 2.127993 1_555
Mg22 O28 2.127993 1_555
Mg22 O8 2.136139 1_555
Mg22 O9 2.136139 1_554
Mg22 O24 2.140727 1_555
Mg22 O0 2.140727 1_555
Mg23 O29 2.130289 1_555
Mg23 O3 2.130289 1_555
Mg23 O9 2.134839 1_555
Mg23 O8 2.134839 1_555
Mg23 O1 2.137937 1_555
Mg23 O25 2.137937 1_555
Mg24 O30 2.127993 1_555
Mg24 O2 2.127993 1_555
Mg24 O10 2.136139 1_555
Mg24 O11 2.136139 1_554
Mg24 O0 2.140727 1_565
Mg24 O26 2.140727 1_555
Mg25 O31 2.130289 1_555
Mg25 O3 2.130289 1_555
Mg25 O11 2.134839 1_555
Mg25 O10 2.134839 1_555
Mg25 O1 2.137937 1_565
Mg25 O27 2.137937 1_555
Mg26 O6 2.127993 1_555
Mg26 O28 2.127993 1_555
Mg26 O12 2.136139 1_555
Mg26 O13 2.136139 1_554
Mg26 O24 2.140727 1_655
Mg26 O4 2.140727 1_555
Mg27 O7 2.130289 1_555
Mg27 O29 2.130289 1_555
Mg27 O13 2.134839 1_555
Mg27 O12 2.134839 1_555
Mg27 O25 2.137937 1_655
Mg27 O5 2.137937 1_555
Mg28 O30 2.127993 1_555
Mg28 O6 2.127993 1_555
Mg28 O14 2.136139 1_555
Mg28 O15 2.136139 1_554
Mg28 O26 2.140727 1_655
Mg28 O4 2.140727 1_565
Mg29 O7 2.130289 1_555
Mg29 O31 2.130289 1_555
Mg29 O15 2.134839 1_555
Mg29 O14 2.134839 1_555
Mg29 O5 2.137937 1_565
Mg29 O27 2.137937 1_655
Mn0 O17 2.142073 1_554
Mn0 O16 2.142073 1_555
Mn0 O4 2.194685 1_455
Mn0 O26 2.194685 1_545
Mn0 O24 2.194685 1_555
Mn0 O0 2.194685 1_555
Fe0 O16 2.128834 1_555
Fe0 O17 2.128834 1_555
Fe0 O1 2.167293 1_555
Fe0 O5 2.167293 1_455
Fe0 O25 2.167293 1_555
Fe0 O27 2.167293 1_545
