# generated using pymatgen
data_Dy4Cu7Sn11
_symmetry_space_group_name_H-M   'P 1'
_cell_length_a   4.41012400
_cell_length_b   4.41012400
_cell_length_c   25.25567600
_cell_angle_alpha   90.00000000
_cell_angle_beta   90.00000000
_cell_angle_gamma   90.00000000
_symmetry_Int_Tables_number   1
_chemical_formula_structural   Dy4Cu7Sn11
_chemical_formula_sum   'Dy4 Cu7 Sn11'
_cell_volume   491.20253443
_cell_formula_units_Z   1
loop_
 _symmetry_equiv_pos_site_id
 _symmetry_equiv_pos_as_xyz
  1  'x, y, z'
loop_
 _atom_site_type_symbol
 _atom_site_label
 _atom_site_symmetry_multiplicity
 _atom_site_fract_x
 _atom_site_fract_y
 _atom_site_fract_z
 _atom_site_occupancy
  Dy  Dy0  1  0.50000000  0.50000000  0.18027500  1
  Dy  Dy1  1  0.00000000  0.00000000  0.67567500  1
  Dy  Dy2  1  0.00000000  0.00000000  0.99733800  1
  Dy  Dy3  1  0.50000000  0.50000000  0.49868600  1
  Cu  Cu0  1  0.50000000  0.00000000  0.08332000  1
  Cu  Cu1  1  0.00000000  0.50000000  0.58932800  1
  Cu  Cu2  1  0.00000000  0.50000000  0.08332000  1
  Cu  Cu3  1  0.50000000  0.00000000  0.58932800  1
  Cu  Cu4  1  0.50000000  0.50000000  0.63228100  1
  Cu  Cu5  1  0.00000000  0.00000000  0.23303800  1
  Cu  Cu6  1  0.50000000  0.50000000  0.72522800  1
  Sn  Sn0  1  0.50000000  0.00000000  0.40320800  1
  Sn  Sn1  1  0.00000000  0.50000000  0.90177900  1
  Sn  Sn2  1  0.00000000  0.50000000  0.40320800  1
  Sn  Sn3  1  0.50000000  0.00000000  0.90177900  1
  Sn  Sn4  1  0.50000000  0.00000000  0.28752300  1
  Sn  Sn5  1  0.00000000  0.50000000  0.78426100  1
  Sn  Sn6  1  0.00000000  0.50000000  0.28752300  1
  Sn  Sn7  1  0.50000000  0.00000000  0.78426100  1
  Sn  Sn8  1  0.50000000  0.50000000  0.02325400  1
  Sn  Sn9  1  0.00000000  0.00000000  0.53100100  1
  Sn  Sn10  1  0.00000000  0.00000000  0.13578200  1
loop_
_geom_bond_atom_site_label_1
_geom_bond_atom_site_label_2
_geom_bond_distance
_geom_bond_site_symmetry_2
Dy0 Sn10 3.314710 1_655
Dy0 Sn10 3.314710 1_565
Dy0 Sn10 3.314710 1_555
Dy0 Sn10 3.314710 1_665
Dy0 Sn4 3.492696 1_565
Dy0 Sn6 3.492696 1_555
Dy0 Sn6 3.492696 1_655
Dy0 Sn4 3.492696 1_555
Dy1 Sn7 3.518967 1_555
Dy1 Sn5 3.518967 1_555
Dy1 Sn5 3.518967 1_545
Dy1 Sn7 3.518967 1_455
Dy2 Sn8 3.186377 1_556
Dy2 Sn8 3.186377 1_456
Dy2 Sn8 3.186377 1_546
Dy2 Sn8 3.186377 1_446
Dy2 Sn1 3.269072 1_545
Dy2 Sn3 3.269072 1_555
Dy2 Sn3 3.269072 1_455
Dy2 Sn1 3.269072 1_555
Dy3 Sn9 3.223457 1_665
Dy3 Sn9 3.223457 1_655
Dy3 Sn9 3.223457 1_565
Dy3 Sn9 3.223457 1_555
Dy3 Sn0 3.267562 1_555
Dy3 Sn2 3.267562 1_555
Dy3 Sn2 3.267562 1_655
Dy3 Sn0 3.267562 1_565
Cu0 Sn10 2.572514 1_555
Cu0 Sn10 2.572514 1_655
Cu0 Sn8 2.676492 1_545
Cu0 Sn8 2.676492 1_555
Cu0 Dy2 3.094811 1_554
Cu0 Dy2 3.094811 1_654
Cu0 Dy0 3.295187 1_555
Cu0 Dy0 3.295187 1_545
Cu1 Cu4 2.457459 1_555
Cu1 Cu4 2.457459 1_455
Cu1 Sn9 2.651846 1_555
Cu1 Sn9 2.651846 1_565
Cu1 Dy1 3.101286 1_555
Cu1 Dy1 3.101286 1_565
Cu1 Dy3 3.178498 1_455
Cu1 Dy3 3.178498 1_555
Cu2 Sn10 2.572514 1_555
Cu2 Sn10 2.572514 1_565
Cu2 Sn8 2.676492 1_455
Cu2 Sn8 2.676492 1_555
Cu2 Dy2 3.094811 1_564
Cu2 Dy2 3.094811 1_554
Cu2 Dy0 3.295187 1_455
Cu2 Dy0 3.295187 1_555
Cu3 Cu4 2.457459 1_555
Cu3 Cu4 2.457459 1_545
Cu3 Sn9 2.651846 1_555
Cu3 Sn9 2.651846 1_655
Cu3 Dy1 3.101286 1_555
Cu3 Dy1 3.101286 1_655
Cu3 Dy3 3.178498 1_555
Cu3 Dy3 3.178498 1_545
Cu4 Cu6 2.347439 1_555
Cu4 Dy1 3.305403 1_655
Cu4 Dy1 3.305403 1_565
Cu4 Dy1 3.305403 1_665
Cu4 Dy1 3.305403 1_555
Cu4 Dy3 3.374032 1_555
Cu5 Sn10 2.456266 1_555
Cu5 Sn6 2.599197 1_555
Cu5 Sn4 2.599197 1_555
Cu5 Sn6 2.599197 1_545
Cu5 Sn4 2.599197 1_455
Cu5 Dy0 3.391213 1_455
Cu5 Dy0 3.391213 1_555
Cu5 Dy0 3.391213 1_445
Cu5 Dy0 3.391213 1_545
Cu6 Sn5 2.661792 1_655
Cu6 Sn7 2.661792 1_555
Cu6 Sn7 2.661792 1_565
Cu6 Sn5 2.661792 1_555
Cu6 Dy1 3.360184 1_565
Cu6 Dy1 3.360184 1_555
Cu6 Dy1 3.360184 1_655
Cu6 Dy1 3.360184 1_665
Sn0 Sn4 2.921703 1_555
Sn0 Sn2 3.118429 1_545
Sn0 Sn2 3.118429 1_555
Sn0 Sn2 3.118429 1_655
Sn0 Sn2 3.118429 1_645
Sn1 Sn5 2.967997 1_555
Sn1 Sn3 3.118429 1_555
Sn1 Sn3 3.118429 1_565
Sn1 Sn3 3.118429 1_455
Sn1 Sn3 3.118429 1_465
Sn2 Sn6 2.921703 1_555
Sn3 Sn7 2.967997 1_555
Sn4 Sn6 3.118429 1_645
Sn4 Sn6 3.118429 1_555
Sn4 Sn6 3.118429 1_545
Sn4 Sn6 3.118429 1_655
Sn5 Sn7 3.118429 1_455
Sn5 Sn7 3.118429 1_555
Sn5 Sn7 3.118429 1_565
Sn5 Sn7 3.118429 1_465
