# generated using pymatgen
data_BaRuN2
_symmetry_space_group_name_H-M   'P 1'
_cell_length_a   6.66108199
_cell_length_b   11.84370290
_cell_length_c   8.04326900
_cell_angle_alpha   90.00000000
_cell_angle_beta   90.00000000
_cell_angle_gamma   27.24934559
_symmetry_Int_Tables_number   1
_chemical_formula_structural   BaRuN2
_chemical_formula_sum   'Ba4 Ru4 N8'
_cell_volume   290.53679997
_cell_formula_units_Z   4
loop_
 _symmetry_equiv_pos_site_id
 _symmetry_equiv_pos_as_xyz
  1  'x, y, z'
loop_
 _atom_site_type_symbol
 _atom_site_label
 _atom_site_symmetry_multiplicity
 _atom_site_fract_x
 _atom_site_fract_y
 _atom_site_fract_z
 _atom_site_occupancy
  Ba  Ba0  1  0.00000000  0.15584700  0.56197500  1
  Ba  Ba1  1  0.00000000  0.84415300  0.43802500  1
  Ba  Ba2  1  0.00000000  0.34415300  0.06197500  1
  Ba  Ba3  1  0.00000000  0.65584700  0.93802500  1
  Ru  Ru0  1  0.00000000  0.43786700  0.62877500  1
  Ru  Ru1  1  0.00000000  0.56213300  0.37122500  1
  Ru  Ru2  1  0.00000000  0.06213300  0.12877500  1
  Ru  Ru3  1  0.00000000  0.93786700  0.87122500  1
  N  N0  1  0.00000000  0.11761700  0.90205000  1
  N  N1  1  0.00000000  0.88238300  0.09795000  1
  N  N2  1  0.00000000  0.38238300  0.40205000  1
  N  N3  1  0.00000000  0.61761700  0.59795000  1
  N  N4  1  0.50000000  0.65408900  0.75000000  1
  N  N5  1  0.50000000  0.84591100  0.25000000  1
  N  N6  1  0.50000000  0.34591100  0.25000000  1
  N  N7  1  0.50000000  0.15408900  0.75000000  1
loop_
_geom_bond_atom_site_label_1
_geom_bond_atom_site_label_2
_geom_bond_distance
_geom_bond_site_symmetry_2
Ba0 N0 2.772537 1_555
Ba0 N2 2.975440 1_555
Ba0 N6 3.020912 1_455
Ba0 N5 3.020912 1_545
Ba0 N3 3.096843 1_455
Ba0 N3 3.096843 1_645
Ba1 N1 2.772537 1_555
Ba1 N3 2.975440 1_555
Ba1 N4 3.020912 1_555
Ba1 N7 3.020912 1_465
Ba1 N2 3.096843 1_655
Ba1 N2 3.096843 1_465
Ba2 N2 2.772537 1_555
Ba2 N0 2.975440 1_554
Ba2 N7 3.020912 1_554
Ba2 N4 3.020912 1_454
Ba2 N1 3.096843 1_645
Ba2 N1 3.096843 1_455
Ba3 N3 2.772537 1_555
Ba3 N1 2.975440 1_556
Ba3 N5 3.020912 1_456
Ba3 N6 3.020912 1_556
Ba3 N0 3.096843 1_465
Ba3 N0 3.096843 1_655
N0 Ru2 1.938397 1_556
N0 Ru3 2.143294 1_545
N1 Ru3 1.938397 1_554
N1 Ru2 2.143294 1_565
N2 Ru0 1.938397 1_555
N2 Ru1 2.143294 1_555
N3 Ru1 1.938397 1_555
N3 Ru0 2.143294 1_555
N4 Ru0 1.853694 1_655
N4 Ru3 1.853694 1_555
N5 Ru2 1.853694 1_565
N5 Ru1 1.853694 1_655
N6 Ru1 1.853694 1_555
N6 Ru2 1.853694 1_655
N7 Ru3 1.853694 1_645
N7 Ru0 1.853694 1_555
