# generated using pymatgen
data_Zn3Rh2(CN)12
_symmetry_space_group_name_H-M   'P 1'
_cell_length_a   7.52162600
_cell_length_b   7.52162600
_cell_length_c   10.63385800
_cell_angle_alpha   90.00000000
_cell_angle_beta   90.00000000
_cell_angle_gamma   90.00000000
_symmetry_Int_Tables_number   1
_chemical_formula_structural   Zn3Rh2(CN)12
_chemical_formula_sum   'Zn3 Rh2 C12 N12'
_cell_volume   601.60900298
_cell_formula_units_Z   1
loop_
 _symmetry_equiv_pos_site_id
 _symmetry_equiv_pos_as_xyz
  1  'x, y, z'
loop_
 _atom_site_type_symbol
 _atom_site_label
 _atom_site_symmetry_multiplicity
 _atom_site_fract_x
 _atom_site_fract_y
 _atom_site_fract_z
 _atom_site_occupancy
  Zn  Zn0  1  0.50000000  0.00000000  0.25272300  1
  Zn  Zn1  1  0.00000000  0.50000000  0.74727700  1
  Zn  Zn2  1  0.50000000  0.50000000  0.00000000  1
  Rh  Rh0  1  0.50000000  0.00000000  0.74959000  1
  Rh  Rh1  1  0.00000000  0.50000000  0.25041000  1
  C  C0  1  0.50000000  0.00000000  0.93849800  1
  C  C1  1  0.00000000  0.50000000  0.43934000  1
  C  C2  1  0.18906600  0.31114800  0.25031300  1
  C  C3  1  0.68885200  0.81093400  0.74968700  1
  C  C4  1  0.81093400  0.31114800  0.25031300  1
  C  C5  1  0.31114800  0.81093400  0.74968700  1
  C  C6  1  0.50000000  0.00000000  0.56066000  1
  C  C7  1  0.00000000  0.50000000  0.06150200  1
  C  C8  1  0.81093400  0.68885200  0.25031300  1
  C  C9  1  0.31114800  0.18906600  0.74968700  1
  C  C10  1  0.18906600  0.68885200  0.25031300  1
  C  C11  1  0.68885200  0.18906600  0.74968700  1
  N  N0  1  0.50000000  0.00000000  0.04872200  1
  N  N1  1  0.00000000  0.50000000  0.54930700  1
  N  N2  1  0.29991100  0.20221000  0.24856300  1
  N  N3  1  0.79779000  0.70008900  0.75143700  1
  N  N4  1  0.70008900  0.20221000  0.24856300  1
  N  N5  1  0.20221000  0.70008900  0.75143700  1
  N  N6  1  0.50000000  0.00000000  0.45069300  1
  N  N7  1  0.00000000  0.50000000  0.95127800  1
  N  N8  1  0.70008900  0.79779000  0.24856300  1
  N  N9  1  0.20221000  0.29991100  0.75143700  1
  N  N10  1  0.29991100  0.79779000  0.24856300  1
  N  N11  1  0.79779000  0.29991100  0.75143700  1
loop_
_geom_bond_atom_site_label_1
_geom_bond_atom_site_label_2
_geom_bond_distance
_geom_bond_site_symmetry_2
C0 N0 1.172106 1_556
C0 Rh0 2.008821 1_555
C1 N1 1.169373 1_555
C1 Rh1 2.009055 1_555
C2 N2 1.169128 1_555
C2 Rh1 2.009993 1_555
C3 N3 1.169128 1_555
C3 Rh0 2.009993 1_565
C4 N4 1.169128 1_555
C4 Rh1 2.009993 1_655
C5 N5 1.169128 1_555
C5 Rh0 2.009993 1_565
C6 N6 1.169373 1_555
C6 Rh0 2.009055 1_555
C7 N7 1.172106 1_554
C7 Rh1 2.008821 1_555
C8 N8 1.169128 1_555
C8 Rh1 2.009993 1_655
C9 N9 1.169128 1_555
C9 Rh0 2.009993 1_555
C10 N10 1.169128 1_555
C10 Rh1 2.009993 1_555
C11 N11 1.169128 1_555
C11 Rh0 2.009993 1_555
N0 Zn0 2.169318 1_555
N1 Zn1 2.105185 1_555
N2 Zn0 2.140152 1_555
N3 Zn1 2.140152 1_655
N4 Zn0 2.140152 1_555
N5 Zn1 2.140152 1_555
N6 Zn0 2.105185 1_555
N7 Zn1 2.169318 1_555
N8 Zn0 2.140152 1_565
N9 Zn1 2.140152 1_555
N10 Zn0 2.140152 1_565
N11 Zn1 2.140152 1_655
