# generated using pymatgen
data_CsGa(SeO3)2
_symmetry_space_group_name_H-M   'P 1'
_cell_length_a   7.69569035
_cell_length_b   7.69569035
_cell_length_c   18.61503339
_cell_angle_alpha   73.47201637
_cell_angle_beta   73.47201637
_cell_angle_gamma   42.63967035
_symmetry_Int_Tables_number   1
_chemical_formula_structural   CsGa(SeO3)2
_chemical_formula_sum   'Cs4 Ga4 Se8 O24'
_cell_volume   711.10976592
_cell_formula_units_Z   4
loop_
 _symmetry_equiv_pos_site_id
 _symmetry_equiv_pos_as_xyz
  1  'x, y, z'
loop_
 _atom_site_type_symbol
 _atom_site_label
 _atom_site_symmetry_multiplicity
 _atom_site_fract_x
 _atom_site_fract_y
 _atom_site_fract_z
 _atom_site_occupancy
  Cs  Cs0  1  0.94939400  0.94939400  0.70709600  1
  Cs  Cs1  1  0.05060600  0.05060600  0.29290400  1
  Cs  Cs2  1  0.00000000  0.00000000  0.00000000  1
  Cs  Cs3  1  0.50000000  0.50000000  0.50000000  1
  Ga  Ga0  1  0.34377100  0.34377100  0.87174400  1
  Ga  Ga1  1  0.65622900  0.65622900  0.12825600  1
  Ga  Ga2  1  0.70150200  0.70150200  0.63473500  1
  Ga  Ga3  1  0.29849800  0.29849800  0.36526500  1
  Se  Se0  1  0.76566100  0.76566100  0.94554400  1
  Se  Se1  1  0.23433900  0.23433900  0.05445600  1
  Se  Se2  1  0.55233900  0.55233900  0.81988100  1
  Se  Se3  1  0.44766100  0.44766100  0.18011900  1
  Se  Se4  1  0.24257900  0.24257900  0.73358500  1
  Se  Se5  1  0.75742100  0.75742100  0.26641500  1
  Se  Se6  1  0.79339300  0.79339300  0.45358000  1
  Se  Se7  1  0.20660700  0.20660700  0.54642000  1
  O  O0  1  0.65493800  0.65493800  0.01753700  1
  O  O1  1  0.34506200  0.34506200  0.98246300  1
  O  O2  1  0.50815700  0.98450900  0.89204000  1
  O  O3  1  0.98450900  0.50815700  0.89204000  1
  O  O4  1  0.49184300  0.01549100  0.10796000  1
  O  O5  1  0.01549100  0.49184300  0.10796000  1
  O  O6  1  0.24080400  0.68819700  0.84721200  1
  O  O7  1  0.68819700  0.24080400  0.84721200  1
  O  O8  1  0.75919600  0.31180300  0.15278800  1
  O  O9  1  0.31180300  0.75919600  0.15278800  1
  O  O10  1  0.57986300  0.57986300  0.72255000  1
  O  O11  1  0.42013700  0.42013700  0.27745000  1
  O  O12  1  0.03358400  0.51507700  0.67211600  1
  O  O13  1  0.51507700  0.03358400  0.67211600  1
  O  O14  1  0.96641600  0.48492300  0.32788400  1
  O  O15  1  0.48492300  0.96641600  0.32788400  1
  O  O16  1  0.34529700  0.34529700  0.76364900  1
  O  O17  1  0.65470300  0.65470300  0.23635100  1
  O  O18  1  0.89220700  0.37501700  0.58924100  1
  O  O19  1  0.37501700  0.89220700  0.58924100  1
  O  O20  1  0.10779300  0.62498300  0.41075900  1
  O  O21  1  0.62498300  0.10779300  0.41075900  1
  O  O22  1  0.81850500  0.81850500  0.53980500  1
  O  O23  1  0.18149500  0.18149500  0.46019500  1
loop_
_geom_bond_atom_site_label_1
_geom_bond_atom_site_label_2
_geom_bond_distance
_geom_bond_site_symmetry_2
Cs0 O6 3.096068 1_655
Cs0 O7 3.096068 1_565
Cs0 O13 3.134873 1_565
Cs0 O12 3.134873 1_655
Cs0 O18 3.174172 1_565
Cs0 O19 3.174172 1_655
Cs0 O16 3.194498 1_655
Cs0 O16 3.194498 1_565
Cs0 O10 3.426280 1_655
Cs0 O10 3.426280 1_565
Cs1 O8 3.096068 1_455
Cs1 O9 3.096068 1_545
Cs1 O14 3.134873 1_455
Cs1 O15 3.134873 1_545
Cs1 O21 3.174172 1_455
Cs1 O20 3.174172 1_545
Cs1 O17 3.194498 1_545
Cs1 O17 3.194498 1_455
Cs1 O11 3.426280 1_455
Cs1 O11 3.426280 1_545
Cs2 O9 3.409267 1_545
Cs2 O8 3.409267 1_455
Cs2 O6 3.409267 1_544
Cs2 O7 3.409267 1_454
Cs2 O1 3.648720 1_454
Cs2 O0 3.648720 1_545
Cs2 O1 3.648720 1_544
Cs2 O0 3.648720 1_455
Cs2 O3 3.784813 1_454
Cs2 O2 3.784813 1_544
Cs2 O5 3.784813 1_545
Cs2 O4 3.784813 1_455
Cs2 Se0 3.794372 1_444
Cs2 Se1 3.794372 1_555
Cs3 O19 3.235349 1_555
Cs3 O18 3.235349 1_555
Cs3 O21 3.235349 1_555
Cs3 O20 3.235349 1_555
Ga0 O2 1.979600 1_545
Ga0 O3 1.979600 1_455
Ga0 O16 2.005619 1_555
Ga0 O1 2.066766 1_555
Ga0 O6 2.071028 1_555
Ga0 O7 2.071028 1_555
Ga1 O4 1.979600 1_565
Ga1 O5 1.979600 1_655
Ga1 O17 2.005619 1_555
Ga1 O0 2.066766 1_555
Ga1 O9 2.071028 1_555
Ga1 O8 2.071028 1_555
Ga2 O10 1.993155 1_555
Ga2 O12 2.030540 1_655
Ga2 O13 2.030540 1_565
Ga2 O22 2.031364 1_555
Ga2 O18 2.064517 1_555
Ga2 O19 2.064517 1_555
Ga3 O11 1.993155 1_555
Ga3 O14 2.030540 1_455
Ga3 O15 2.030540 1_545
Ga3 O23 2.031364 1_555
Ga3 O20 2.064517 1_555
Ga3 O21 2.064517 1_555
O0 Se0 1.736922 1_554
O1 Se1 1.736922 1_556
O2 Se0 1.736010 1_555
O3 Se0 1.736010 1_555
O4 Se1 1.736010 1_555
O5 Se1 1.736010 1_555
O6 Se2 1.737996 1_555
O7 Se2 1.737996 1_555
O8 Se3 1.737996 1_555
O9 Se3 1.737996 1_555
O10 Se2 1.732549 1_555
O11 Se3 1.732549 1_555
O12 Se4 1.735894 1_555
O13 Se4 1.735894 1_555
O14 Se5 1.735894 1_555
O15 Se5 1.735894 1_555
O16 Se4 1.727914 1_555
O17 Se5 1.727914 1_555
O18 Se7 1.745312 1_655
O19 Se7 1.745312 1_565
O20 Se6 1.745312 1_455
O21 Se6 1.745312 1_545
O22 Se6 1.748972 1_555
O23 Se7 1.748972 1_555
