# generated using pymatgen
data_ErGeAu
_symmetry_space_group_name_H-M   'P 1'
_cell_length_a   4.95563629
_cell_length_b   4.95563629
_cell_length_c   5.99725800
_cell_angle_alpha   90.00000000
_cell_angle_beta   90.00000000
_cell_angle_gamma   120.00000384
_symmetry_Int_Tables_number   1
_chemical_formula_structural   ErGeAu
_chemical_formula_sum   'Er2 Ge2 Au2'
_cell_volume   127.55050903
_cell_formula_units_Z   2
loop_
 _symmetry_equiv_pos_site_id
 _symmetry_equiv_pos_as_xyz
  1  'x, y, z'
loop_
 _atom_site_type_symbol
 _atom_site_label
 _atom_site_symmetry_multiplicity
 _atom_site_fract_x
 _atom_site_fract_y
 _atom_site_fract_z
 _atom_site_occupancy
  Er  Er0  1  0.33333300  0.66666700  0.97223000  1
  Er  Er1  1  0.66666700  0.33333300  0.47223000  1
  Ge  Ge0  1  0.66666700  0.33333300  0.95695700  1
  Ge  Ge1  1  0.33333300  0.66666700  0.45695700  1
  Au  Au0  1  0.00000000  0.00000000  0.32081200  1
  Au  Au1  1  0.00000000  0.00000000  0.82081200  1
loop_
_geom_bond_atom_site_label_1
_geom_bond_atom_site_label_2
_geom_bond_distance
_geom_bond_site_symmetry_2
Er0 Ge0 2.862601 1_455
Er0 Ge0 2.862601 1_565
Er0 Ge0 2.862610 1_555
Er0 Ge1 2.907033 1_556
Er0 Ge1 3.090225 1_555
Er1 Ge1 2.862601 1_545
Er1 Ge1 2.862601 1_655
Er1 Ge1 2.862610 1_555
Er1 Ge0 2.907033 1_555
Er1 Ge0 3.090225 1_554
Au0 Ge1 2.975359 1_545
Au0 Ge1 2.975363 1_555
Au0 Ge1 2.975363 1_445
Au0 Au1 2.998629 1_555
Au0 Au1 2.998629 1_554
Au0 Er1 3.001787 1_455
Au0 Er1 3.001791 1_555
Au0 Er1 3.001791 1_445
Au0 Er0 3.543506 1_544
Au0 Er0 3.543509 1_554
Au0 Er0 3.543509 1_444
Au1 Ge0 2.975359 1_455
Au1 Ge0 2.975363 1_445
Au1 Ge0 2.975363 1_555
Au1 Er0 3.001787 1_545
Au1 Er0 3.001791 1_445
Au1 Er0 3.001791 1_555
Au1 Er1 3.543506 1_455
Au1 Er1 3.543509 1_555
Au1 Er1 3.543509 1_445
