# generated using pymatgen
data_Li7Mn2(CoO4)3
_symmetry_space_group_name_H-M   'P 1'
_cell_length_a   14.77685400
_cell_length_b   14.77685400
_cell_length_c   5.14052972
_cell_angle_alpha   80.12773006
_cell_angle_beta   80.12773006
_cell_angle_gamma   11.24188064
_symmetry_Int_Tables_number   1
_chemical_formula_structural   Li7Mn2(CoO4)3
_chemical_formula_sum   'Li7 Mn2 Co3 O12'
_cell_volume   215.55365851
_cell_formula_units_Z   1
loop_
 _symmetry_equiv_pos_site_id
 _symmetry_equiv_pos_as_xyz
  1  'x, y, z'
loop_
 _atom_site_type_symbol
 _atom_site_label
 _atom_site_symmetry_multiplicity
 _atom_site_fract_x
 _atom_site_fract_y
 _atom_site_fract_z
 _atom_site_occupancy
  Li  Li0  1  0.59050700  0.59050700  0.09454100  1
  Li  Li1  1  0.74543400  0.74543400  0.23638300  1
  Li  Li2  1  0.91416900  0.91416900  0.42139200  1
  Li  Li3  1  0.08794300  0.08794300  0.58524900  1
  Li  Li4  1  0.24775200  0.24775200  0.74491000  1
  Li  Li5  1  0.41452600  0.41452600  0.91918900  1
  Li  Li6  1  0.16694500  0.16694500  0.16654300  1
  Mn  Mn0  1  0.99983300  0.99983300  0.00391100  1
  Mn  Mn1  1  0.66689100  0.66689100  0.66505000  1
  Co  Co0  1  0.33287000  0.33287000  0.33187100  1
  Co  Co1  1  0.50054200  0.50054200  0.50222000  1
  Co  Co2  1  0.83279000  0.83279000  0.83244600  1
  O  O0  1  0.53744900  0.53744900  0.82825500  1
  O  O1  1  0.70575600  0.70575600  0.92865800  1
  O  O2  1  0.87200800  0.87200800  0.13331300  1
  O  O3  1  0.03602300  0.03602300  0.28751300  1
  O  O4  1  0.20322800  0.20322800  0.47725800  1
  O  O5  1  0.37256100  0.37256100  0.63359600  1
  O  O6  1  0.62647300  0.62647300  0.40316500  1
  O  O7  1  0.79588700  0.79588700  0.52567200  1
  O  O8  1  0.96366400  0.96366400  0.71546700  1
  O  O9  1  0.12983000  0.12983000  0.85500300  1
  O  O10  1  0.29518100  0.29518100  0.02744800  1
  O  O11  1  0.46173700  0.46173700  0.18094600  1
loop_
_geom_bond_atom_site_label_1
_geom_bond_atom_site_label_2
_geom_bond_distance
_geom_bond_site_symmetry_2
Li0 O6 2.052847 1_555
Li0 O9 2.111385 1_654
Li0 O9 2.111385 1_564
Li0 O0 2.246109 1_554
Li0 O3 2.258094 1_655
Li0 O3 2.258094 1_565
Li1 O1 2.121381 1_554
Li1 O4 2.153910 1_655
Li1 O4 2.153910 1_565
Li1 O10 2.201742 1_565
Li1 O10 2.201742 1_655
Li1 O7 2.274594 1_555
Li2 O5 2.079028 1_565
Li2 O5 2.079028 1_655
Li2 O2 2.088871 1_555
Li2 O11 2.232500 1_565
Li2 O11 2.232500 1_655
Li2 O8 2.272143 1_555
Li3 O6 1.972217 1_545
Li3 O6 1.972217 1_455
Li3 O9 2.007297 1_555
Li3 O0 2.285078 1_545
Li3 O0 2.285078 1_455
Li3 O3 2.340872 1_555
Li4 O1 2.027473 1_545
Li4 O1 2.027473 1_455
Li4 O4 2.056376 1_555
Li4 O10 2.180245 1_556
Li4 O7 2.195326 1_545
Li4 O7 2.195326 1_455
Li5 O5 2.074381 1_555
Li5 O11 2.093420 1_556
Li5 O2 2.096639 1_546
Li5 O2 2.096639 1_456
Li5 O8 2.181445 1_545
Li5 O8 2.181445 1_455
Li6 O4 2.068155 1_555
Li6 O9 2.087754 1_554
Li6 O1 2.100528 1_544
Li6 O1 2.100528 1_454
Li6 O6 2.119523 1_545
Li6 O6 2.119523 1_455
Mn0 O0 1.946776 1_654
Mn0 O0 1.946776 1_564
Mn0 O3 1.947564 1_665
Mn0 O11 1.956297 1_565
Mn0 O11 1.956297 1_655
Mn0 O8 1.968171 1_554
Mn1 O1 1.917448 1_555
Mn1 O6 1.943422 1_555
Mn1 O4 1.952793 1_565
Mn1 O4 1.952793 1_655
Mn1 O9 1.967152 1_655
Mn1 O9 1.967152 1_565
Co0 O7 1.974100 1_545
Co0 O7 1.974100 1_455
Co0 O2 2.014159 1_545
Co0 O2 2.014159 1_455
Co0 O10 2.067694 1_555
Co0 O5 2.095787 1_555
Co1 O3 2.001279 1_565
Co1 O3 2.001279 1_655
Co1 O8 2.015745 1_455
Co1 O8 2.015745 1_545
Co1 O0 2.148046 1_555
Co1 O11 2.163235 1_555
Co2 O10 1.985228 1_566
Co2 O10 1.985228 1_656
Co2 O5 2.023848 1_565
Co2 O5 2.023848 1_655
Co2 O7 2.062685 1_555
Co2 O2 2.082591 1_556
