# generated using pymatgen
data_Li2Zn2W2O9
_symmetry_space_group_name_H-M   'P 1'
_cell_length_a   5.22400025
_cell_length_b   5.22400025
_cell_length_c   14.42222800
_cell_angle_alpha   90.00000000
_cell_angle_beta   90.00000000
_cell_angle_gamma   120.00000319
_symmetry_Int_Tables_number   1
_chemical_formula_structural   Li2Zn2W2O9
_chemical_formula_sum   'Li4 Zn4 W4 O18'
_cell_volume   340.85475206
_cell_formula_units_Z   2
loop_
 _symmetry_equiv_pos_site_id
 _symmetry_equiv_pos_as_xyz
  1  'x, y, z'
loop_
 _atom_site_type_symbol
 _atom_site_label
 _atom_site_symmetry_multiplicity
 _atom_site_fract_x
 _atom_site_fract_y
 _atom_site_fract_z
 _atom_site_occupancy
  Li  Li0  1  0.33333300  0.66666700  0.51859300  1
  Li  Li1  1  0.66666700  0.33333300  0.48140700  1
  Li  Li2  1  0.66666700  0.33333300  0.98140700  1
  Li  Li3  1  0.33333300  0.66666700  0.01859300  1
  Zn  Zn0  1  0.33333300  0.66666700  0.80706100  1
  Zn  Zn1  1  0.66666700  0.33333300  0.19293900  1
  Zn  Zn2  1  0.66666700  0.33333300  0.69293900  1
  Zn  Zn3  1  0.33333300  0.66666700  0.30706100  1
  W  W0  1  0.00000000  0.00000000  0.64120800  1
  W  W1  1  0.00000000  0.00000000  0.35879200  1
  W  W2  1  0.00000000  0.00000000  0.85879200  1
  W  W3  1  0.00000000  0.00000000  0.14120800  1
  O  O0  1  0.28171500  0.00000000  0.75000000  1
  O  O1  1  0.71828500  0.00000000  0.25000000  1
  O  O2  1  0.00000000  0.28171500  0.75000000  1
  O  O3  1  0.00000000  0.71828500  0.25000000  1
  O  O4  1  0.71828500  0.71828500  0.75000000  1
  O  O5  1  0.28171500  0.28171500  0.25000000  1
  O  O6  1  0.33083600  0.30532300  0.58802800  1
  O  O7  1  0.66916400  0.69467700  0.41197200  1
  O  O8  1  0.69467700  0.02551300  0.58802800  1
  O  O9  1  0.30532300  0.33083600  0.91197200  1
  O  O10  1  0.30532300  0.97448700  0.41197200  1
  O  O11  1  0.69467700  0.66916400  0.08802800  1
  O  O12  1  0.97448700  0.66916400  0.58802800  1
  O  O13  1  0.02551300  0.69467700  0.91197200  1
  O  O14  1  0.02551300  0.33083600  0.41197200  1
  O  O15  1  0.97448700  0.30532300  0.08802800  1
  O  O16  1  0.66916400  0.97448700  0.91197200  1
  O  O17  1  0.33083600  0.02551300  0.08802800  1
loop_
_geom_bond_atom_site_label_1
_geom_bond_atom_site_label_2
_geom_bond_distance
_geom_bond_site_symmetry_2
Li0 O12 2.131105 1_455
Li0 O8 2.131107 1_565
Li0 O6 2.131110 1_555
Li0 O10 2.281907 1_555
Li0 O14 2.281909 1_555
Li0 O7 2.281910 1_555
Li1 O14 2.131105 1_655
Li1 O10 2.131107 1_545
Li1 O7 2.131110 1_555
Li1 O8 2.281907 1_555
Li1 O12 2.281909 1_555
Li1 O6 2.281910 1_555
Li2 O16 2.131105 1_545
Li2 O13 2.131107 1_655
Li2 O9 2.131110 1_555
Li2 O15 2.281907 1_556
Li2 O17 2.281909 1_556
Li2 O11 2.281910 1_556
Li3 O17 2.131105 1_565
Li3 O15 2.131107 1_455
Li3 O11 2.131110 1_555
Li3 O13 2.281907 1_554
Li3 O16 2.281909 1_554
Li3 O9 2.281910 1_554
O0 Zn0 2.061976 1_545
O0 Zn2 2.061979 1_555
O0 W2 2.151203 1_555
O0 W0 2.151203 1_555
O1 Zn1 2.061976 1_555
O1 Zn3 2.061979 1_545
O1 W3 2.151203 1_655
O1 W1 2.151203 1_655
O2 Zn2 2.061976 1_455
O2 Zn0 2.061979 1_555
O2 W0 2.151203 1_555
O2 W2 2.151203 1_555
O3 Zn3 2.061976 1_555
O3 Zn1 2.061979 1_455
O3 W3 2.151203 1_565
O3 W1 2.151203 1_565
O4 Zn0 2.061981 1_555
O4 Zn2 2.061981 1_555
O4 W0 2.151203 1_665
O4 W2 2.151203 1_665
O5 Zn1 2.061981 1_555
O5 Zn3 2.061981 1_555
O5 W1 2.151203 1_555
O5 W3 2.151203 1_555
O6 W0 1.833751 1_555
O6 Zn2 2.265365 1_555
O7 W1 1.833751 1_665
O7 Zn3 2.265365 1_555
O8 W0 1.833751 1_655
O8 Zn2 2.265361 1_555
O9 W2 1.833751 1_555
O9 Zn0 2.265365 1_555
O10 W1 1.833751 1_565
O10 Zn3 2.265361 1_555
O11 W3 1.833751 1_665
O11 Zn1 2.265365 1_555
O12 W0 1.833751 1_665
O12 Zn2 2.265363 1_555
O13 W2 1.833751 1_565
O13 Zn0 2.265361 1_555
O14 W1 1.833751 1_555
O14 Zn3 2.265363 1_555
O15 W3 1.833751 1_655
O15 Zn1 2.265361 1_555
O16 W2 1.833751 1_665
O16 Zn0 2.265363 1_555
O17 W3 1.833751 1_555
O17 Zn1 2.265363 1_555
