# generated using pymatgen
data_Sm2MgMo2(I4O15)2
_symmetry_space_group_name_H-M   'P 1'
_cell_length_a   6.98238170
_cell_length_b   7.19226191
_cell_length_c   14.35111048
_cell_angle_alpha   90.90098732
_cell_angle_beta   87.98357462
_cell_angle_gamma   114.84914764
_symmetry_Int_Tables_number   1
_chemical_formula_structural   Sm2MgMo2(I4O15)2
_chemical_formula_sum   'Sm2 Mg1 Mo2 I8 O30'
_cell_volume   653.57047557
_cell_formula_units_Z   1
loop_
 _symmetry_equiv_pos_site_id
 _symmetry_equiv_pos_as_xyz
  1  'x, y, z'
loop_
 _atom_site_type_symbol
 _atom_site_label
 _atom_site_symmetry_multiplicity
 _atom_site_fract_x
 _atom_site_fract_y
 _atom_site_fract_z
 _atom_site_occupancy
  Sm  Sm0  1  0.07056973  0.41848635  0.43677452  1
  Sm  Sm1  1  0.92914680  0.57002458  0.94309206  1
  Mg  Mg0  1  0.47174019  0.61762783  0.83565698  1
  Mo  Mo0  1  0.59173754  0.78406443  0.27804688  1
  Mo  Mo1  1  0.42421263  0.21706645  0.76970333  1
  I  I0  1  0.54027299  0.77216569  0.04095015  1
  I  I1  1  0.46414612  0.23909442  0.52643031  1
  I  I2  1  0.76045748  0.29816096  0.18881359  1
  I  I3  1  0.23086860  0.71469401  0.67233589  1
  I  I4  1  0.14881186  0.93868121  0.31634397  1
  I  I5  1  0.86358134  0.06056214  0.80168205  1
  I  I6  1  0.75250047  0.85856471  0.54642430  1
  I  I7  1  0.23696089  0.13180406  0.04714224  1
  O  O0  1  0.38405102  0.69108137  0.14913032  1
  O  O1  1  0.59029153  0.29148152  0.64481382  1
  O  O2  1  0.32383874  0.66032016  0.95317646  1
  O  O3  1  0.70647564  0.35926524  0.45742755  1
  O  O4  1  0.60902965  0.55074211  0.02288087  1
  O  O5  1  0.38500206  0.45363964  0.53032139  1
  O  O6  1  0.75824615  0.03579745  0.17764688  1
  O  O7  1  0.22400189  0.97152972  0.67104215  1
  O  O8  1  0.93109589  0.40435768  0.08565137  1
  O  O9  1  0.03092884  0.58142053  0.58872136  1
  O  O10  1  0.94976422  0.39003011  0.28077284  1
  O  O11  1  0.09528376  0.63029394  0.78718295  1
  O  O12  1  0.43036111  0.98423281  0.29261806  1
  O  O13  1  0.57710724  0.01526898  0.78915506  1
  O  O14  1  0.22363961  0.17832103  0.38194958  1
  O  O15  1  0.76911482  0.81558817  0.86669632  1
  O  O16  1  0.09336586  0.76188308  0.41451898  1
  O  O17  1  0.91630933  0.23473219  0.90115652  1
  O  O18  1  0.50832566  0.89675038  0.53836014  1
  O  O19  1  0.47768117  0.08740792  0.03381727  1
  O  O20  1  0.73447059  0.80679210  0.67341411  1
  O  O21  1  0.23606258  0.17173036  0.17174684  1
  O  O22  1  0.94616396  0.12582382  0.54720500  1
  O  O23  1  0.03295935  0.86875019  0.03511527  1
  O  O24  1  0.78006792  0.92479584  0.36584877  1
  O  O25  1  0.21371158  0.06252920  0.84935586  1
  O  O26  1  0.38338428  0.59594226  0.34307572  1
  O  O27  1  0.61845991  0.40239666  0.84400355  1
  O  O28  1  0.73237747  0.65342816  0.22393051  1
  O  O29  1  0.30712555  0.39304051  0.74351618  1
loop_
_geom_bond_atom_site_label_1
_geom_bond_atom_site_label_2
_geom_bond_distance
_geom_bond_site_symmetry_2
Mg0 O15 2.024209 1_555
Mg0 O2 2.032933 1_555
Mg0 O29 2.039165 1_555
Mg0 O27 2.192594 1_555
Mo0 O26 1.762916 1_555
Mo0 O28 1.774575 1_555
Mo0 O24 1.816393 1_555
Mo0 O12 2.173331 1_555
Mo0 O6 2.213771 1_565
Mo0 O0 2.303873 1_555
Mo1 O25 1.803073 1_555
Mo1 O27 1.814086 1_555
Mo1 O29 1.821462 1_555
Mo1 O1 2.050808 1_555
Mo1 O13 2.158726 1_555
Mo1 O7 2.250209 1_545
I0 O0 1.820680 1_555
I0 O4 1.858690 1_555
I0 O2 1.896838 1_554
I0 O19 2.487050 1_565
I1 O3 1.808458 1_555
I1 O5 1.844274 1_555
I1 O1 1.900104 1_555
I1 O14 2.628683 1_555
I2 O10 1.812931 1_555
I2 O8 1.827951 1_555
I2 O6 1.884892 1_555
I3 O9 1.806850 1_555
I3 O11 1.849299 1_555
I3 O7 1.868283 1_555
I4 O16 1.831955 1_555
I4 O14 1.832156 1_565
I4 O12 1.871648 1_555
I4 O21 2.578562 1_565
I4 O24 2.607920 1_455
I5 O17 1.826425 1_555
I5 O15 1.855156 1_545
I5 O13 1.901404 1_555
I5 O20 2.482077 1_545
I5 O25 2.556050 1_655
I6 O22 1.827379 1_565
I6 O18 1.844994 1_555
I6 O20 1.855156 1_555
I7 O21 1.806872 1_555
I7 O23 1.838555 1_545
I7 O19 1.841236 1_555
O2 Sm1 2.560961 1_455
O3 Sm0 2.402737 1_655
O4 Sm1 2.427092 1_554
O5 Sm0 2.533102 1_555
O8 Sm1 2.387006 1_554
O9 Sm0 2.520852 1_555
O10 Sm0 2.395621 1_655
O11 Sm1 2.442349 1_455
O14 Sm0 2.488926 1_555
O15 Sm1 2.715822 1_555
O16 Sm0 2.432711 1_555
O17 Sm1 2.441739 1_555
O22 Sm0 2.483563 1_655
O23 Sm1 2.356868 1_454
O26 Sm0 2.390012 1_555
O27 Sm1 2.479261 1_555
