# generated using pymatgen
data_CeAsRh
_symmetry_space_group_name_H-M   'P 1'
_cell_length_a   4.40883217
_cell_length_b   7.17565468
_cell_length_c   7.64564427
_cell_angle_alpha   89.99027056
_cell_angle_beta   90.00000000
_cell_angle_gamma   90.00000000
_symmetry_Int_Tables_number   1
_chemical_formula_structural   CeAsRh
_chemical_formula_sum   'Ce4 As4 Rh4'
_cell_volume   241.87956484
_cell_formula_units_Z   4
loop_
 _symmetry_equiv_pos_site_id
 _symmetry_equiv_pos_as_xyz
  1  'x, y, z'
loop_
 _atom_site_type_symbol
 _atom_site_label
 _atom_site_symmetry_multiplicity
 _atom_site_fract_x
 _atom_site_fract_y
 _atom_site_fract_z
 _atom_site_occupancy
  Ce  Ce0  1  0.25000000  0.76806503  0.50906597  1
  Ce  Ce1  1  0.75000000  0.23193497  0.49093403  1
  Ce  Ce2  1  0.75000000  0.26795396  0.99085270  1
  Ce  Ce3  1  0.25000000  0.73204604  0.00914730  1
  As  As0  1  0.25000000  0.40633483  0.72086301  1
  As  As1  1  0.75000000  0.59366517  0.27913699  1
  As  As2  1  0.75000000  0.90612785  0.77940635  1
  As  As3  1  0.25000000  0.09387215  0.22059365  1
  Rh  Rh0  1  0.25000000  0.44002362  0.24568064  1
  Rh  Rh1  1  0.75000000  0.55997638  0.75431936  1
  Rh  Rh2  1  0.75000000  0.94013705  0.25506177  1
  Rh  Rh3  1  0.25000000  0.05986295  0.74493823  1
loop_
_geom_bond_atom_site_label_1
_geom_bond_atom_site_label_2
_geom_bond_distance
_geom_bond_site_symmetry_2
Ce0 Rh3 2.763637 1_565
Ce0 Rh0 3.098016 1_555
Ce0 Rh2 3.186637 1_555
Ce0 Rh2 3.186637 1_455
Ce0 Rh1 3.256400 1_555
Ce0 Rh1 3.256400 1_455
Ce1 Rh2 2.763637 1_545
Ce1 Rh1 3.098016 1_555
Ce1 Rh3 3.186637 1_655
Ce1 Rh3 3.186637 1_555
Ce1 Rh0 3.256400 1_555
Ce1 Rh0 3.256400 1_655
Ce2 Rh1 2.767693 1_555
Ce2 Rh2 3.100371 1_546
Ce2 Rh0 3.190728 1_656
Ce2 Rh0 3.190728 1_556
Ce2 Rh3 3.259613 1_655
Ce2 Rh3 3.259613 1_555
Ce3 Rh0 2.767693 1_555
Ce3 Rh3 3.100371 1_564
Ce3 Rh1 3.190728 1_554
Ce3 Rh1 3.190728 1_454
Ce3 Rh2 3.259613 1_555
Ce3 Rh2 3.259613 1_455
As0 Rh1 2.477990 1_555
As0 Rh1 2.477990 1_455
As0 Rh3 2.492936 1_555
As0 Ce0 3.059116 1_555
As0 Ce1 3.084913 1_455
As0 Ce1 3.084913 1_555
As0 Ce2 3.178971 1_455
As0 Ce2 3.178971 1_555
As0 Ce3 3.212842 1_556
As1 Rh0 2.477990 1_655
As1 Rh0 2.477990 1_555
As1 Rh2 2.492936 1_555
As1 Ce1 3.059116 1_555
As1 Ce0 3.084913 1_555
As1 Ce0 3.084913 1_655
As1 Ce3 3.178971 1_555
As1 Ce3 3.178971 1_655
As1 Ce2 3.212842 1_554
As2 Rh3 2.479060 1_665
As2 Rh3 2.479060 1_565
As2 Rh1 2.491291 1_555
As2 Ce2 3.058748 1_565
As2 Ce3 3.082927 1_656
As2 Ce3 3.082927 1_556
As2 Ce0 3.180220 1_555
As2 Ce0 3.180220 1_655
As2 Ce1 3.213784 1_565
As3 Rh2 2.479060 1_445
As3 Rh2 2.479060 1_545
As3 Rh0 2.491291 1_555
As3 Ce3 3.058748 1_545
As3 Ce2 3.082927 1_554
As3 Ce2 3.082927 1_454
As3 Ce1 3.180220 1_555
As3 Ce1 3.180220 1_455
As3 Ce0 3.213784 1_545
