# generated using pymatgen
data_Tm3Al5O12
_symmetry_space_group_name_H-M   'P 1'
_cell_length_a   10.41041517
_cell_length_b   10.41041517
_cell_length_c   10.41041517
_cell_angle_alpha   109.47122063
_cell_angle_beta   109.47122063
_cell_angle_gamma   109.47122063
_symmetry_Int_Tables_number   1
_chemical_formula_structural   Tm3Al5O12
_chemical_formula_sum   'Tm12 Al20 O48'
_cell_volume   868.52486818
_cell_formula_units_Z   4
loop_
 _symmetry_equiv_pos_site_id
 _symmetry_equiv_pos_as_xyz
  1  'x, y, z'
loop_
 _atom_site_type_symbol
 _atom_site_label
 _atom_site_symmetry_multiplicity
 _atom_site_fract_x
 _atom_site_fract_y
 _atom_site_fract_z
 _atom_site_occupancy
  Tm  Tm0  1  0.25000000  0.37500000  0.12500000  1
  Tm  Tm1  1  0.75000000  0.62500000  0.87500000  1
  Tm  Tm2  1  0.75000000  0.12500000  0.37500000  1
  Tm  Tm3  1  0.12500000  0.25000000  0.37500000  1
  Tm  Tm4  1  0.37500000  0.75000000  0.12500000  1
  Tm  Tm5  1  0.25000000  0.87500000  0.62500000  1
  Tm  Tm6  1  0.87500000  0.75000000  0.62500000  1
  Tm  Tm7  1  0.62500000  0.25000000  0.87500000  1
  Tm  Tm8  1  0.37500000  0.12500000  0.25000000  1
  Tm  Tm9  1  0.62500000  0.87500000  0.75000000  1
  Tm  Tm10  1  0.12500000  0.37500000  0.75000000  1
  Tm  Tm11  1  0.87500000  0.62500000  0.25000000  1
  Al  Al0  1  0.25000000  0.62500000  0.37500000  1
  Al  Al1  1  0.75000000  0.37500000  0.62500000  1
  Al  Al2  1  0.75000000  0.87500000  0.12500000  1
  Al  Al3  1  0.37500000  0.25000000  0.62500000  1
  Al  Al4  1  0.62500000  0.75000000  0.37500000  1
  Al  Al5  1  0.25000000  0.12500000  0.87500000  1
  Al  Al6  1  0.12500000  0.75000000  0.87500000  1
  Al  Al7  1  0.87500000  0.25000000  0.12500000  1
  Al  Al8  1  0.62500000  0.37500000  0.25000000  1
  Al  Al9  1  0.37500000  0.62500000  0.75000000  1
  Al  Al10  1  0.87500000  0.12500000  0.75000000  1
  Al  Al11  1  0.12500000  0.87500000  0.25000000  1
  Al  Al12  1  0.00000000  0.00000000  0.00000000  1
  Al  Al13  1  0.50000000  0.00000000  0.50000000  1
  Al  Al14  1  0.00000000  0.50000000  0.50000000  1
  Al  Al15  1  0.50000000  0.00000000  0.00000000  1
  Al  Al16  1  0.50000000  0.50000000  0.00000000  1
  Al  Al17  1  0.50000000  0.50000000  0.50000000  1
  Al  Al18  1  0.00000000  0.00000000  0.50000000  1
  Al  Al19  1  0.00000000  0.50000000  0.00000000  1
  O  O0  1  0.47732400  0.37986200  0.29826600  1
  O  O1  1  0.52267600  0.62013800  0.70173400  1
  O  O2  1  0.58159600  0.17905900  0.20173400  1
  O  O3  1  0.91840400  0.12013800  0.59746300  1
  O  O4  1  0.29826600  0.47732400  0.37986200  1
  O  O5  1  0.32094100  0.91840400  0.29826600  1
  O  O6  1  0.41840400  0.82094100  0.79826600  1
  O  O7  1  0.08159600  0.87986200  0.40253700  1
  O  O8  1  0.70173400  0.52267600  0.62013800  1
  O  O9  1  0.67905900  0.08159600  0.70173400  1
  O  O10  1  0.02267600  0.32094100  0.90253700  1
  O  O11  1  0.20173400  0.58159600  0.17905900  1
  O  O12  1  0.12013800  0.02267600  0.20173400  1
  O  O13  1  0.97732400  0.67905900  0.09746300  1
  O  O14  1  0.79826600  0.41840400  0.82094100  1
  O  O15  1  0.87986200  0.97732400  0.79826600  1
  O  O16  1  0.59746300  0.91840400  0.12013800  1
  O  O17  1  0.17905900  0.47732400  0.59746300  1
  O  O18  1  0.40253700  0.08159600  0.87986200  1
  O  O19  1  0.82094100  0.52267600  0.40253700  1
  O  O20  1  0.90253700  0.02267600  0.32094100  1
  O  O21  1  0.37986200  0.58159600  0.90253700  1
  O  O22  1  0.09746300  0.97732400  0.67905900  1
  O  O23  1  0.62013800  0.41840400  0.09746300  1
  O  O24  1  0.37986200  0.29826600  0.47732400  1
  O  O25  1  0.58159600  0.90253700  0.37986200  1
  O  O26  1  0.62013800  0.70173400  0.52267600  1
  O  O27  1  0.41840400  0.09746300  0.62013800  1
  O  O28  1  0.12013800  0.59746300  0.91840400  1
  O  O29  1  0.02267600  0.20173400  0.12013800  1
  O  O30  1  0.87986200  0.40253700  0.08159600  1
  O  O31  1  0.97732400  0.79826600  0.87986200  1
  O  O32  1  0.32094100  0.90253700  0.02267600  1
  O  O33  1  0.91840400  0.29826600  0.32094100  1
  O  O34  1  0.67905900  0.09746300  0.97732400  1
  O  O35  1  0.08159600  0.70173400  0.67905900  1
  O  O36  1  0.17905900  0.20173400  0.58159600  1
  O  O37  1  0.47732400  0.59746300  0.17905900  1
  O  O38  1  0.82094100  0.79826600  0.41840400  1
  O  O39  1  0.52267600  0.40253700  0.82094100  1
  O  O40  1  0.29826600  0.32094100  0.91840400  1
  O  O41  1  0.70173400  0.67905900  0.08159600  1
  O  O42  1  0.20173400  0.12013800  0.02267600  1
  O  O43  1  0.79826600  0.87986200  0.97732400  1
  O  O44  1  0.90253700  0.37986200  0.58159600  1
  O  O45  1  0.09746300  0.62013800  0.41840400  1
  O  O46  1  0.59746300  0.17905900  0.47732400  1
  O  O47  1  0.40253700  0.82094100  0.52267600  1
loop_
_geom_bond_atom_site_label_1
_geom_bond_atom_site_label_2
_geom_bond_distance
_geom_bond_site_symmetry_2
Al0 O11 1.780003 1_555
Al0 O45 1.780003 1_555
Al0 O47 1.780005 1_555
Al0 O4 1.780013 1_555
Al1 O44 1.780003 1_555
Al1 O14 1.780003 1_555
Al1 O46 1.780005 1_555
Al1 O8 1.780013 1_555
Al2 O41 1.780003 1_555
Al2 O16 1.780003 1_555
Al2 O20 1.780005 1_565
Al2 O43 1.780013 1_554
Al3 O36 1.780003 1_555
Al3 O27 1.780003 1_555
Al3 O39 1.780005 1_555
Al3 O24 1.780013 1_555
Al4 O25 1.780003 1_555
Al4 O38 1.780003 1_555
Al4 O37 1.780005 1_555
Al4 O26 1.780013 1_555
Al5 O40 1.780003 1_555
Al5 O18 1.780003 1_555
Al5 O22 1.780005 1_545
Al5 O42 1.780013 1_556
Al6 O35 1.780003 1_555
Al6 O28 1.780003 1_555
Al6 O32 1.780005 1_556
Al6 O31 1.780013 1_455
Al7 O33 1.780003 1_555
Al7 O30 1.780003 1_555
Al7 O34 1.780005 1_554
Al7 O29 1.780013 1_655
Al8 O23 1.780003 1_555
Al8 O2 1.780003 1_555
Al8 O19 1.780005 1_555
Al8 O0 1.780013 1_555
Al9 O21 1.780003 1_555
Al9 O6 1.780003 1_555
Al9 O17 1.780005 1_555
Al9 O1 1.780013 1_555
Al10 O3 1.780003 1_555
Al10 O9 1.780003 1_555
Al10 O10 1.780005 1_655
Al10 O15 1.780013 1_545
Al11 O5 1.780003 1_555
Al11 O7 1.780003 1_555
Al11 O13 1.780005 1_455
Al11 O12 1.780013 1_565
Al12 O42 1.937032 1_555
Al12 O12 1.937032 1_555
Al12 O29 1.937032 1_555
Al12 O15 1.937032 1_444
Al12 O43 1.937032 1_444
Al12 O31 1.937032 1_444
Al13 O9 1.937036 1_555
Al13 O27 1.937036 1_555
Al13 O5 1.937036 1_545
Al13 O25 1.937036 1_545
Al13 O46 1.937043 1_555
Al13 O47 1.937043 1_545
Al14 O35 1.937036 1_555
Al14 O45 1.937036 1_555
Al14 O33 1.937036 1_455
Al14 O44 1.937036 1_455
Al14 O17 1.937043 1_555
Al14 O19 1.937043 1_455
Al15 O16 1.937036 1_545
Al15 O2 1.937036 1_555
Al15 O18 1.937036 1_554
Al15 O6 1.937036 1_544
Al15 O32 1.937043 1_545
Al15 O34 1.937043 1_554
Al16 O41 1.937036 1_555
Al16 O23 1.937036 1_555
Al16 O40 1.937036 1_554
Al16 O21 1.937036 1_554
Al16 O37 1.937043 1_555
Al16 O39 1.937043 1_554
Al17 O24 1.937032 1_555
Al17 O0 1.937032 1_555
Al17 O4 1.937032 1_555
Al17 O8 1.937032 1_555
Al17 O1 1.937032 1_555
Al17 O26 1.937032 1_555
Al18 O36 1.937036 1_555
Al18 O3 1.937036 1_455
Al18 O7 1.937036 1_545
Al18 O38 1.937036 1_445
Al18 O20 1.937043 1_455
Al18 O22 1.937043 1_545
Al19 O28 1.937036 1_554
Al19 O11 1.937036 1_555
Al19 O30 1.937036 1_455
Al19 O14 1.937036 1_454
Al19 O10 1.937043 1_554
Al19 O13 1.937043 1_455
O0 Tm8 2.301514 1_555
O0 Tm0 2.422836 1_555
O1 Tm9 2.301514 1_555
O1 Tm1 2.422836 1_555
O2 Tm8 2.301514 1_555
O2 Tm2 2.422844 1_555
O3 Tm10 2.301514 1_655
O3 Tm2 2.422844 1_555
O4 Tm0 2.301514 1_555
O4 Tm3 2.422836 1_555
O5 Tm8 2.301514 1_565
O5 Tm4 2.422844 1_555
O6 Tm9 2.301514 1_555
O6 Tm5 2.422844 1_555
O7 Tm11 2.301514 1_455
O7 Tm5 2.422844 1_555
O8 Tm1 2.301514 1_555
O8 Tm6 2.422836 1_555
O9 Tm9 2.301514 1_545
O9 Tm7 2.422844 1_555
O10 Tm10 2.301508 1_555
O10 Tm0 2.422838 1_556
O11 Tm0 2.301514 1_555
O11 Tm4 2.422844 1_555
O12 Tm8 2.301514 1_555
O12 Tm3 2.422836 1_555
O13 Tm11 2.301508 1_555
O13 Tm1 2.422838 1_554
O14 Tm1 2.301514 1_555
O14 Tm7 2.422844 1_555
O15 Tm9 2.301514 1_555
O15 Tm6 2.422836 1_555
O16 Tm2 2.301514 1_565
O16 Tm4 2.422844 1_555
O17 Tm10 2.301508 1_555
O17 Tm3 2.422838 1_555
O18 Tm5 2.301514 1_545
O18 Tm7 2.422844 1_555
O19 Tm11 2.301508 1_555
O19 Tm6 2.422838 1_555
O20 Tm2 2.301508 1_555
O20 Tm3 2.422838 1_655
O21 Tm10 2.301514 1_555
O21 Tm4 2.422844 1_556
O22 Tm5 2.301508 1_555
O22 Tm6 2.422838 1_455
O23 Tm11 2.301514 1_555
O23 Tm7 2.422844 1_554
O24 Tm3 2.301514 1_555
O24 Tm8 2.422836 1_555
O25 Tm4 2.301514 1_555
O25 Tm2 2.422844 1_565
O26 Tm6 2.301514 1_555
O26 Tm9 2.422836 1_555
O27 Tm7 2.301514 1_555
O27 Tm5 2.422844 1_545
O28 Tm4 2.301514 1_556
O28 Tm10 2.422844 1_555
O29 Tm3 2.301514 1_555
O29 Tm0 2.422836 1_555
O30 Tm7 2.301514 1_554
O30 Tm11 2.422844 1_555
O31 Tm6 2.301514 1_555
O31 Tm1 2.422836 1_555
O32 Tm4 2.301508 1_555
O32 Tm8 2.422838 1_565
O33 Tm3 2.301514 1_655
O33 Tm2 2.422844 1_555
O34 Tm7 2.301508 1_555
O34 Tm9 2.422838 1_545
O35 Tm6 2.301514 1_455
O35 Tm5 2.422844 1_555
O36 Tm3 2.301514 1_555
O36 Tm10 2.422844 1_555
O37 Tm4 2.301508 1_555
O37 Tm0 2.422838 1_555
O38 Tm6 2.301514 1_555
O38 Tm11 2.422844 1_555
O39 Tm7 2.301508 1_555
O39 Tm1 2.422838 1_555
O40 Tm0 2.301514 1_556
O40 Tm10 2.422844 1_555
O41 Tm1 2.301514 1_554
O41 Tm11 2.422844 1_555
O42 Tm0 2.301514 1_555
O42 Tm8 2.422836 1_555
O43 Tm1 2.301514 1_555
O43 Tm9 2.422836 1_555
O44 Tm2 2.301514 1_555
O44 Tm10 2.422844 1_655
O45 Tm5 2.301514 1_555
O45 Tm11 2.422844 1_455
O46 Tm2 2.301508 1_555
O46 Tm8 2.422838 1_555
O47 Tm5 2.301508 1_555
O47 Tm9 2.422838 1_555
