# generated using pymatgen
data_Er6MgTa2O14
_symmetry_space_group_name_H-M   'P 1'
_cell_length_a   6.47164173
_cell_length_b   6.47164223
_cell_length_c   7.45744700
_cell_angle_alpha   90.00000000
_cell_angle_beta   90.00000000
_cell_angle_gamma   107.28815167
_symmetry_Int_Tables_number   1
_chemical_formula_structural   Er6MgTa2O14
_chemical_formula_sum   'Er6 Mg1 Ta2 O14'
_cell_volume   298.22337740
_cell_formula_units_Z   1
loop_
 _symmetry_equiv_pos_site_id
 _symmetry_equiv_pos_as_xyz
  1  'x, y, z'
loop_
 _atom_site_type_symbol
 _atom_site_label
 _atom_site_symmetry_multiplicity
 _atom_site_fract_x
 _atom_site_fract_y
 _atom_site_fract_z
 _atom_site_occupancy
  Er  Er0  1  0.06067600  0.49821400  0.25000000  1
  Er  Er1  1  0.05726900  0.05726900  0.97787900  1
  Er  Er2  1  0.05726900  0.05726900  0.52212100  1
  Er  Er3  1  0.49997800  0.93665800  0.75000000  1
  Er  Er4  1  0.49821400  0.06067600  0.25000000  1
  Er  Er5  1  0.93665800  0.49997800  0.75000000  1
  Mg  Mg0  1  0.77933300  0.77933300  0.25000000  1
  Ta  Ta0  1  0.49133000  0.49133000  0.99483300  1
  Ta  Ta1  1  0.49133000  0.49133000  0.50516700  1
  O  O0  1  0.12249300  0.84778600  0.75000000  1
  O  O1  1  0.13688800  0.88143600  0.25000000  1
  O  O2  1  0.16053400  0.41998100  0.54109600  1
  O  O3  1  0.16053400  0.41998100  0.95890400  1
  O  O4  1  0.55774000  0.81467000  0.05538300  1
  O  O5  1  0.55774000  0.81467000  0.44461700  1
  O  O6  1  0.40438500  0.40438500  0.25000000  1
  O  O7  1  0.58952500  0.58952500  0.75000000  1
  O  O8  1  0.41998100  0.16053400  0.95890400  1
  O  O9  1  0.41998100  0.16053400  0.54109600  1
  O  O10  1  0.81467000  0.55774000  0.05538300  1
  O  O11  1  0.81467000  0.55774000  0.44461700  1
  O  O12  1  0.84778600  0.12249300  0.75000000  1
  O  O13  1  0.88143600  0.13688800  0.25000000  1
loop_
_geom_bond_atom_site_label_1
_geom_bond_atom_site_label_2
_geom_bond_distance
_geom_bond_site_symmetry_2
Er0 O10 2.270242 1_455
Er0 O11 2.270242 1_455
Er0 O13 2.280651 1_455
Er0 O3 2.362404 1_554
Er0 O2 2.362404 1_555
Er0 O1 2.380549 1_555
Er0 O6 2.473722 1_555
Er1 O8 2.245948 1_555
Er1 O3 2.245948 1_555
Er1 O12 2.290013 1_455
Er1 O0 2.290013 1_545
Er1 O13 2.455004 1_456
Er1 O1 2.455004 1_546
Er2 O9 2.245948 1_555
Er2 O2 2.245948 1_555
Er2 O12 2.290013 1_455
Er2 O0 2.290013 1_545
Er2 O13 2.455004 1_455
Er2 O1 2.455004 1_545
Er3 O12 2.214484 1_565
Er3 O8 2.289109 1_565
Er3 O9 2.289109 1_565
Er3 O0 2.337453 1_555
Er3 O5 2.474841 1_555
Er3 O4 2.474841 1_556
Er3 O7 2.481226 1_555
Er4 O4 2.270242 1_545
Er4 O5 2.270242 1_545
Er4 O1 2.280651 1_545
Er4 O8 2.362404 1_554
Er4 O9 2.362404 1_555
Er4 O13 2.380549 1_555
Er4 O6 2.473722 1_555
Er5 O0 2.214484 1_655
Er5 O2 2.289108 1_655
Er5 O3 2.289108 1_655
Er5 O12 2.337453 1_555
Er5 O10 2.474841 1_556
Er5 O11 2.474841 1_555
Er5 O7 2.481226 1_555
Mg0 O4 2.100044 1_555
Mg0 O5 2.100044 1_555
Mg0 O10 2.100044 1_555
Mg0 O11 2.100044 1_555
Mg0 O1 2.209592 1_655
Mg0 O13 2.209592 1_565
O2 Ta1 2.068931 1_555
O3 Ta0 2.068931 1_555
O4 Ta0 2.057380 1_554
O5 Ta1 2.057380 1_555
O6 Ta1 2.016443 1_555
O6 Ta0 2.016443 1_554
O7 Ta0 1.975172 1_555
O7 Ta1 1.975172 1_555
O8 Ta0 2.068931 1_555
O9 Ta1 2.068931 1_555
O10 Ta0 2.057379 1_554
O11 Ta1 2.057379 1_555
