# generated using pymatgen
data_Li4Mn3CoO8
_symmetry_space_group_name_H-M   'P 1'
_cell_length_a   5.40506271
_cell_length_b   5.69887406
_cell_length_c   5.45564022
_cell_angle_alpha   89.98410705
_cell_angle_beta   64.77500256
_cell_angle_gamma   89.99036130
_symmetry_Int_Tables_number   1
_chemical_formula_structural   Li4Mn3CoO8
_chemical_formula_sum   'Li4 Mn3 Co1 O8'
_cell_volume   152.02389885
_cell_formula_units_Z   1
loop_
 _symmetry_equiv_pos_site_id
 _symmetry_equiv_pos_as_xyz
  1  'x, y, z'
loop_
 _atom_site_type_symbol
 _atom_site_label
 _atom_site_symmetry_multiplicity
 _atom_site_fract_x
 _atom_site_fract_y
 _atom_site_fract_z
 _atom_site_occupancy
  Li  Li0  1  0.50000000  0.50000500  0.49999900  1
  Li  Li1  1  0.50000000  0.00000100  0.50000000  1
  Li  Li2  1  0.49998500  0.24687400  0.00002300  1
  Li  Li3  1  0.50001400  0.75313100  0.99997700  1
  Mn  Mn0  1  0.00000800  0.50000500  0.00000100  1
  Mn  Mn1  1  0.99998900  0.24918700  0.50000900  1
  Mn  Mn2  1  0.00001000  0.75082600  0.49999300  1
  Co  Co0  1  0.99999800  0.99999300  0.00000000  1
  O  O0  1  0.23451500  0.50002400  0.27510900  1
  O  O1  1  0.76548100  0.49997900  0.72489300  1
  O  O2  1  0.22777200  0.00003700  0.26804500  1
  O  O3  1  0.77222600  0.99996600  0.73195700  1
  O  O4  1  0.23033300  0.24641000  0.77629700  1
  O  O5  1  0.23032300  0.75354000  0.77623400  1
  O  O6  1  0.76966900  0.24644800  0.22377000  1
  O  O7  1  0.76967600  0.75357300  0.22369200  1
loop_
_geom_bond_atom_site_label_1
_geom_bond_atom_site_label_2
_geom_bond_distance
_geom_bond_site_symmetry_2
Li0 O5 2.147466 1_555
Li0 O7 2.147520 1_555
Li0 O6 2.147521 1_555
Li0 O4 2.147585 1_555
Li0 O1 2.250572 1_555
Li0 O0 2.250573 1_555
Li1 O6 2.120239 1_555
Li1 O5 2.120317 1_545
Li1 O4 2.120473 1_555
Li1 O7 2.120588 1_545
Li1 O3 2.313768 1_545
Li1 O2 2.313769 1_555
Li2 O2 2.108912 1_555
Li2 O3 2.109548 1_544
Li2 O1 2.134580 1_554
Li2 O0 2.134837 1_555
Li2 O4 2.265029 1_554
Li2 O6 2.265272 1_555
Li3 O3 2.108897 1_555
Li3 O2 2.109547 1_566
Li3 O0 2.134598 1_556
Li3 O1 2.134834 1_555
Li3 O7 2.265027 1_556
Li3 O5 2.265287 1_555
Mn0 O5 1.957537 1_554
Mn0 O6 1.957682 1_455
Mn0 O7 1.957755 1_455
Mn0 O4 1.957879 1_554
Mn0 O0 2.341113 1_555
Mn0 O1 2.341201 1_454
Mn1 O2 1.950835 1_655
Mn1 O3 1.950849 1_545
Mn1 O1 1.956898 1_555
Mn1 O0 1.956968 1_655
Mn1 O6 2.328169 1_555
Mn1 O4 2.328501 1_655
Mn2 O3 1.950796 1_455
Mn2 O2 1.950806 1_565
Mn2 O0 1.956934 1_555
Mn2 O1 1.957015 1_455
Mn2 O5 2.328147 1_555
Mn2 O7 2.328519 1_455
Co0 O7 1.927674 1_555
Co0 O4 1.927709 1_664
Co0 O5 1.928150 1_654
Co0 O6 1.928174 1_565
Co0 O3 2.277855 1_554
Co0 O2 2.277873 1_665
