# generated using pymatgen
data_Ga2CoNi
_symmetry_space_group_name_H-M   'P 1'
_cell_length_a   2.89676900
_cell_length_b   2.89676900
_cell_length_c   5.80299900
_cell_angle_alpha   90.00000000
_cell_angle_beta   90.00000000
_cell_angle_gamma   90.00000000
_symmetry_Int_Tables_number   1
_chemical_formula_structural   Ga2CoNi
_chemical_formula_sum   'Ga2 Co1 Ni1'
_cell_volume   48.69453513
_cell_formula_units_Z   1
loop_
 _symmetry_equiv_pos_site_id
 _symmetry_equiv_pos_as_xyz
  1  'x, y, z'
loop_
 _atom_site_type_symbol
 _atom_site_label
 _atom_site_symmetry_multiplicity
 _atom_site_fract_x
 _atom_site_fract_y
 _atom_site_fract_z
 _atom_site_occupancy
  Ga  Ga0  1  0.00000000  0.00000000  0.75248600  1
  Ga  Ga1  1  0.00000000  0.00000000  0.24751400  1
  Co  Co0  1  0.50000000  0.50000000  0.00000000  1
  Ni  Ni0  1  0.50000000  0.50000000  0.50000000  1
loop_
_geom_bond_atom_site_label_1
_geom_bond_atom_site_label_2
_geom_bond_distance
_geom_bond_site_symmetry_2
Ga0 Ni0 2.518407 1_455
Ga0 Ni0 2.518407 1_555
Ga0 Ni0 2.518407 1_545
Ga0 Ni0 2.518407 1_445
Ga1 Ni0 2.518407 1_555
Ga1 Ni0 2.518407 1_455
Ga1 Ni0 2.518407 1_545
Ga1 Ni0 2.518407 1_445
Co0 Ga0 2.501732 1_654
Co0 Ga0 2.501732 1_664
Co0 Ga1 2.501732 1_665
Co0 Ga0 2.501732 1_554
Co0 Ga1 2.501732 1_655
Co0 Ga0 2.501732 1_564
Co0 Ga1 2.501732 1_555
Co0 Ga1 2.501732 1_565
