# generated using pymatgen
data_Cs4(BSe)9
_symmetry_space_group_name_H-M   'P 1'
_cell_length_a   11.03133300
_cell_length_b   11.15319543
_cell_length_c   11.49253128
_cell_angle_alpha   92.83265979
_cell_angle_beta   102.96372568
_cell_angle_gamma   110.39391540
_symmetry_Int_Tables_number   1
_chemical_formula_structural   Cs4(BSe)9
_chemical_formula_sum   'Cs8 B18 Se18'
_cell_volume   1278.90661408
_cell_formula_units_Z   2
loop_
 _symmetry_equiv_pos_site_id
 _symmetry_equiv_pos_as_xyz
  1  'x, y, z'
loop_
 _atom_site_type_symbol
 _atom_site_label
 _atom_site_symmetry_multiplicity
 _atom_site_fract_x
 _atom_site_fract_y
 _atom_site_fract_z
 _atom_site_occupancy
  Cs  Cs0  1  0.64560000  0.00596100  0.37330500  1
  Cs  Cs1  1  0.35440000  0.99403900  0.62669500  1
  Cs  Cs2  1  0.61186800  0.36790900  0.13070200  1
  Cs  Cs3  1  0.38813200  0.63209100  0.86929800  1
  Cs  Cs4  1  0.75339500  0.62788700  0.47301000  1
  Cs  Cs5  1  0.24660500  0.37211300  0.52699000  1
  Cs  Cs6  1  0.82623800  0.38234700  0.74820100  1
  Cs  Cs7  1  0.17376200  0.61765300  0.25179900  1
  B  B0  1  0.12256000  0.13448700  0.08209100  1
  B  B1  1  0.87744000  0.86551300  0.91790900  1
  B  B2  1  0.11439000  0.97877400  0.11574000  1
  B  B3  1  0.88561000  0.02122600  0.88426000  1
  B  B4  1  0.15466200  0.03150800  0.98060700  1
  B  B5  1  0.84533800  0.96849200  0.01939300  1
  B  B6  1  0.05917800  0.12526200  0.92350600  1
  B  B7  1  0.94082200  0.87473800  0.07649400  1
  B  B8  1  0.95687800  0.12973700  0.02357600  1
  B  B9  1  0.04312200  0.87026300  0.97642400  1
  B  B10  1  0.99079100  0.03841000  0.14032200  1
  B  B11  1  0.00920900  0.96159000  0.85967800  1
  B  B12  1  0.34972300  0.17698400  0.29885000  1
  B  B13  1  0.65027700  0.82301600  0.70115000  1
  B  B14  1  0.32201200  0.22999700  0.85901400  1
  B  B15  1  0.67798800  0.77000300  0.14098600  1
  B  B16  1  0.92780900  0.24951900  0.25162600  1
  B  B17  1  0.07219100  0.75048100  0.74837400  1
  Se  Se0  1  0.27488300  0.28233400  0.19291900  1
  Se  Se1  1  0.72511700  0.71766600  0.80708100  1
  Se  Se2  1  0.26190300  0.98519400  0.25927200  1
  Se  Se3  1  0.73809700  0.01480600  0.74072800  1
  Se  Se4  1  0.33527300  0.08459300  0.94562800  1
  Se  Se5  1  0.66472700  0.91540700  0.05437200  1
  Se  Se6  1  0.15406000  0.26625200  0.83629200  1
  Se  Se7  1  0.84594000  0.73374800  0.16370800  1
  Se  Se8  1  0.91180300  0.27951500  0.07951900  1
  Se  Se9  1  0.08819700  0.72048500  0.92048100  1
  Se  Se10  1  0.97486700  0.10087200  0.30127500  1
  Se  Se11  1  0.02513300  0.89912800  0.69872500  1
  Se  Se12  1  0.50280200  0.25603500  0.43404800  1
  Se  Se13  1  0.49719800  0.74396500  0.56595200  1
  Se  Se14  1  0.46723600  0.33488800  0.79854500  1
  Se  Se15  1  0.53276400  0.66511200  0.20145500  1
  Se  Se16  1  0.90369600  0.36326300  0.36729100  1
  Se  Se17  1  0.09630400  0.63673700  0.63270900  1
loop_
_geom_bond_atom_site_label_1
_geom_bond_atom_site_label_2
_geom_bond_distance
_geom_bond_site_symmetry_2
Cs0 Se10 3.708777 1_555
Cs0 Se12 3.756459 1_555
Cs0 Se5 3.824780 1_545
Cs0 Se15 3.841722 1_545
Cs0 Se13 3.879703 1_545
Cs0 Se16 4.024879 1_555
Cs0 Se2 4.060140 1_545
Cs0 Se3 4.103283 1_555
Cs1 Se11 3.708777 1_555
Cs1 Se13 3.756459 1_555
Cs1 Se4 3.824780 1_565
Cs1 Se14 3.841722 1_565
Cs1 Se12 3.879703 1_565
Cs1 Se17 4.024879 1_555
Cs1 Se3 4.060140 1_565
Cs1 Se2 4.103283 1_555
Cs2 Se4 3.677375 1_554
Cs2 Se16 3.736600 1_555
Cs2 Se14 3.737926 1_554
Cs2 Se0 3.745464 1_555
Cs2 Se15 3.805023 1_555
Cs2 Se8 3.918499 1_555
Cs2 Se7 3.940128 1_555
Cs2 Se12 4.052616 1_555
Cs3 Se5 3.677375 1_556
Cs3 Se17 3.736600 1_555
Cs3 Se15 3.737926 1_556
Cs3 Se1 3.745464 1_555
Cs3 Se14 3.805023 1_555
Cs3 Se9 3.918499 1_555
Cs3 Se6 3.940128 1_555
Cs3 Se13 4.052616 1_555
Cs4 Se15 3.641444 1_555
Cs4 Se11 3.779155 1_655
Cs4 Se17 3.780782 1_655
Cs4 Se13 3.817354 1_555
Cs4 Se1 4.026837 1_555
Cs4 Se7 4.034206 1_555
Cs4 Se12 4.038989 1_555
Cs4 Se16 4.110460 1_555
Cs5 Se14 3.641444 1_555
Cs5 Se10 3.779155 1_455
Cs5 Se16 3.780782 1_455
Cs5 Se12 3.817354 1_555
Cs5 Se0 4.026837 1_555
Cs5 Se6 4.034206 1_555
Cs5 Se13 4.038989 1_555
Cs5 Se17 4.110460 1_555
Cs6 Se3 3.860901 1_555
Cs6 Se17 3.865566 1_655
Cs6 Se9 3.948816 1_655
Cs6 Se14 3.986982 1_555
Cs6 Se8 4.034644 1_556
Cs6 Se6 4.186840 1_655
Cs6 Se12 4.238443 1_555
Cs6 Se1 4.322615 1_555
Cs7 Se2 3.860901 1_555
Cs7 Se16 3.865566 1_455
Cs7 Se8 3.948816 1_455
Cs7 Se15 3.986982 1_555
Cs7 Se9 4.034644 1_554
Cs7 Se7 4.186840 1_455
Cs7 Se13 4.238443 1_555
Cs7 Se0 4.322615 1_555
B0 B10 1.769403 1_455
B0 B4 1.772348 1_554
B0 B2 1.773899 1_545
B0 B8 1.781304 1_455
B0 B6 1.783453 1_554
B0 Se0 2.016420 1_555
B1 B11 1.769403 1_655
B1 B5 1.772348 1_556
B1 B3 1.773899 1_565
B1 B9 1.781304 1_655
B1 B7 1.783453 1_556
B1 Se1 2.016420 1_555
B2 B4 1.781259 1_564
B2 B9 1.796349 1_554
B2 B7 1.796734 1_455
B2 Se2 2.019134 1_555
B3 B5 1.781259 1_546
B3 B8 1.796349 1_556
B3 B6 1.796734 1_655
B3 Se3 2.019134 1_555
B4 B6 1.777310 1_555
B4 B9 1.781354 1_545
B4 Se4 2.010589 1_555
B5 B7 1.777310 1_555
B5 B8 1.781354 1_565
B5 Se5 2.010589 1_555
B6 B8 1.792912 1_456
B6 Se6 2.013022 1_555
B7 B9 1.792912 1_654
B7 Se7 2.013022 1_555
B8 Se8 2.016772 1_555
B9 Se9 2.016772 1_555
B10 B5 1.770444 1_545
B10 B8 1.775698 1_555
B10 B7 1.777414 1_545
B10 B2 1.779758 1_645
B10 Se10 2.010346 1_555
B11 B4 1.770444 1_565
B11 B9 1.775698 1_555
B11 B6 1.777414 1_565
B11 B3 1.779758 1_465
B11 Se11 2.010346 1_555
B12 Se12 1.921684 1_555
B12 Se0 1.977574 1_555
B12 Se2 1.995722 1_545
B12 Cs2 3.905591 1_555
B13 Se13 1.921684 1_555
B13 Se1 1.977574 1_555
B13 Se3 1.995722 1_565
B13 Cs3 3.905591 1_555
B14 Se14 1.921372 1_555
B14 Se4 1.975293 1_555
B14 Se6 1.994948 1_555
B14 Cs2 3.735951 1_556
B14 Cs1 3.817170 1_545
B15 Se15 1.921372 1_555
B15 Se5 1.975293 1_555
B15 Se7 1.994948 1_555
B15 Cs3 3.735951 1_554
B15 Cs0 3.817170 1_565
B16 Se16 1.916839 1_555
B16 Se10 1.975871 1_555
B16 Se8 2.001311 1_555
B16 Cs0 3.932063 1_555
B17 Se17 1.916839 1_555
B17 Se11 1.975871 1_555
B17 Se9 2.001311 1_555
B17 Cs1 3.932063 1_555
