# generated using pymatgen
data_Mg2Ag2O5
_symmetry_space_group_name_H-M   'P 1'
_cell_length_a   3.99941400
_cell_length_b   5.18964100
_cell_length_c   10.90236800
_cell_angle_alpha   90.00000000
_cell_angle_beta   90.00000000
_cell_angle_gamma   90.00000000
_symmetry_Int_Tables_number   1
_chemical_formula_structural   Mg2Ag2O5
_chemical_formula_sum   'Mg4 Ag4 O10'
_cell_volume   226.28434837
_cell_formula_units_Z   2
loop_
 _symmetry_equiv_pos_site_id
 _symmetry_equiv_pos_as_xyz
  1  'x, y, z'
loop_
 _atom_site_type_symbol
 _atom_site_label
 _atom_site_symmetry_multiplicity
 _atom_site_fract_x
 _atom_site_fract_y
 _atom_site_fract_z
 _atom_site_occupancy
  Mg  Mg0  1  0.50000000  0.67814200  0.40560000  1
  Mg  Mg1  1  0.50000000  0.32185800  0.59440000  1
  Mg  Mg2  1  0.50000000  0.17814200  0.09440000  1
  Mg  Mg3  1  0.50000000  0.82185800  0.90560000  1
  Ag  Ag0  1  0.00000000  0.69171300  0.13317300  1
  Ag  Ag1  1  0.00000000  0.30828700  0.86682700  1
  Ag  Ag2  1  0.00000000  0.80828700  0.63317300  1
  Ag  Ag3  1  0.00000000  0.19171300  0.36682700  1
  O  O0  1  0.00000000  0.00000000  0.00000000  1
  O  O1  1  0.00000000  0.73471300  0.84822900  1
  O  O2  1  0.00000000  0.23471300  0.65177100  1
  O  O3  1  0.00000000  0.76528700  0.34822900  1
  O  O4  1  0.50000000  0.74336400  0.59993200  1
  O  O5  1  0.50000000  0.25663600  0.40006800  1
  O  O6  1  0.00000000  0.26528700  0.15177100  1
  O  O7  1  0.50000000  0.75663600  0.09993200  1
  O  O8  1  0.00000000  0.50000000  0.50000000  1
  O  O9  1  0.50000000  0.24336400  0.90006800  1
loop_
_geom_bond_atom_site_label_1
_geom_bond_atom_site_label_2
_geom_bond_distance
_geom_bond_site_symmetry_2
Mg0 O3 2.143498 1_655
Mg0 O3 2.143498 1_555
Mg0 O4 2.145546 1_555
Mg0 O5 2.188296 1_555
Mg0 O8 2.431611 1_655
Mg0 O8 2.431611 1_555
Mg1 O2 2.143498 1_655
Mg1 O2 2.143498 1_555
Mg1 O5 2.145546 1_555
Mg1 O4 2.188296 1_555
Mg1 O8 2.431611 1_555
Mg1 O8 2.431611 1_655
Mg2 O6 2.143498 1_555
Mg2 O6 2.143498 1_655
Mg2 O9 2.145546 1_554
Mg2 O7 2.188296 1_545
Mg2 O0 2.431611 1_555
Mg2 O0 2.431611 1_655
Mg3 O1 2.143498 1_555
Mg3 O1 2.143498 1_655
Mg3 O7 2.145546 1_556
Mg3 O9 2.188296 1_565
Mg3 O0 2.431611 1_566
Mg3 O0 2.431611 1_666
Ag0 O7 2.060021 1_455
Ag0 O7 2.060021 1_555
Ag0 O0 2.160484 1_565
Ag0 O6 2.222267 1_555
Ag0 O3 2.375506 1_555
Ag1 O9 2.060021 1_455
Ag1 O9 2.060021 1_555
Ag1 O0 2.160484 1_556
Ag1 O1 2.222267 1_555
Ag1 O2 2.375506 1_555
Ag2 O4 2.060021 1_555
Ag2 O4 2.060021 1_455
Ag2 O8 2.160484 1_555
Ag2 O2 2.222267 1_565
Ag2 O1 2.375506 1_555
Ag3 O5 2.060021 1_455
Ag3 O5 2.060021 1_555
Ag3 O8 2.160484 1_555
Ag3 O3 2.222267 1_545
Ag3 O6 2.375506 1_555
