# generated using pymatgen
data_Np(GeRh)2
_symmetry_space_group_name_H-M   'P 1'
_cell_length_a   4.11772318
_cell_length_b   4.11772371
_cell_length_c   6.02799081
_cell_angle_alpha   109.97135203
_cell_angle_beta   109.97135341
_cell_angle_gamma   90.00000318
_symmetry_Int_Tables_number   1
_chemical_formula_structural   Np(GeRh)2
_chemical_formula_sum   'Np1 Ge2 Rh2'
_cell_volume   89.49441444
_cell_formula_units_Z   1
loop_
 _symmetry_equiv_pos_site_id
 _symmetry_equiv_pos_as_xyz
  1  'x, y, z'
loop_
 _atom_site_type_symbol
 _atom_site_label
 _atom_site_symmetry_multiplicity
 _atom_site_fract_x
 _atom_site_fract_y
 _atom_site_fract_z
 _atom_site_occupancy
  Np  Np0  1  0.00000000  -0.00000000  0.00000000  1
  Ge  Ge0  1  0.62404988  0.62404988  0.24810076  1
  Ge  Ge1  1  0.37595012  0.37595012  0.75189924  1
  Rh  Rh0  1  0.75000000  0.25000000  0.50000000  1
  Rh  Rh1  1  0.25000000  0.75000000  0.50000000  1
loop_
_geom_bond_atom_site_label_1
_geom_bond_atom_site_label_2
_geom_bond_distance
_geom_bond_site_symmetry_2
Np0 Rh0 3.347181 1_555
Np0 Rh1 3.347181 1_444
Np0 Rh1 3.347182 1_544
Np0 Rh0 3.347182 1_455
Np0 Rh1 3.347182 1_555
Np0 Rh0 3.347182 1_444
Np0 Rh0 3.347182 1_454
Np0 Rh1 3.347182 1_545
Ge0 Rh1 2.450844 1_555
Ge0 Rh0 2.450844 1_555
Ge0 Rh1 2.450847 1_655
Ge0 Rh0 2.450848 1_565
Ge0 Ge1 2.619025 1_554
Ge0 Np0 3.192590 1_555
Ge0 Np0 3.192592 1_565
Ge0 Np0 3.192593 1_655
Ge0 Np0 3.192595 1_665
Ge1 Rh0 2.450844 1_555
Ge1 Rh1 2.450844 1_555
Ge1 Rh0 2.450847 1_455
Ge1 Rh1 2.450848 1_545
Ge1 Np0 3.192590 1_666
Ge1 Np0 3.192592 1_656
Ge1 Np0 3.192593 1_566
Ge1 Np0 3.192595 1_556
