# generated using pymatgen
data_La5In11Ni6
_symmetry_space_group_name_H-M   'P 1'
_cell_length_a   10.45374201
_cell_length_b   10.45374201
_cell_length_c   4.49446900
_cell_angle_alpha   90.00000000
_cell_angle_beta   90.00000000
_cell_angle_gamma   90.33908983
_symmetry_Int_Tables_number   1
_chemical_formula_structural   La5In11Ni6
_chemical_formula_sum   'La5 In11 Ni6'
_cell_volume   491.15021574
_cell_formula_units_Z   1
loop_
 _symmetry_equiv_pos_site_id
 _symmetry_equiv_pos_as_xyz
  1  'x, y, z'
loop_
 _atom_site_type_symbol
 _atom_site_label
 _atom_site_symmetry_multiplicity
 _atom_site_fract_x
 _atom_site_fract_y
 _atom_site_fract_z
 _atom_site_occupancy
  La  La0  1  0.03691600  0.31149700  0.00000000  1
  La  La1  1  0.96308400  0.68850300  0.00000000  1
  La  La2  1  0.68850300  0.96308400  0.00000000  1
  La  La3  1  0.31149700  0.03691600  0.00000000  1
  La  La4  1  0.50000000  0.50000000  0.50000000  1
  In  In0  1  0.15301400  0.53676300  0.50000000  1
  In  In1  1  0.84698600  0.46323700  0.50000000  1
  In  In2  1  0.46323700  0.84698600  0.50000000  1
  In  In3  1  0.53676300  0.15301400  0.50000000  1
  In  In4  1  0.69553400  0.30446600  0.00000000  1
  In  In5  1  0.30446600  0.69553400  0.00000000  1
  In  In6  1  0.16116900  0.83883100  0.50000000  1
  In  In7  1  0.83883100  0.16116900  0.50000000  1
  In  In8  1  0.27496900  0.27496900  0.50000000  1
  In  In9  1  0.72503100  0.72503100  0.50000000  1
  In  In10  1  0.00000000  0.00000000  0.00000000  1
  Ni  Ni0  1  0.27856100  0.44450800  0.00000000  1
  Ni  Ni1  1  0.72143900  0.55549200  0.00000000  1
  Ni  Ni2  1  0.55549200  0.72143900  0.00000000  1
  Ni  Ni3  1  0.44450800  0.27856100  0.00000000  1
  Ni  Ni4  1  0.09189400  0.09189400  0.50000000  1
  Ni  Ni5  1  0.90810600  0.90810600  0.50000000  1
loop_
_geom_bond_atom_site_label_1
_geom_bond_atom_site_label_2
_geom_bond_distance
_geom_bond_site_symmetry_2
La0 Ni0 2.876276 1_555
La0 Ni4 3.265900 1_554
La0 Ni4 3.265900 1_555
La1 Ni1 2.876276 1_555
La1 Ni5 3.265900 1_555
La1 Ni5 3.265900 1_554
La2 Ni2 2.876276 1_555
La2 Ni5 3.265900 1_555
La2 Ni5 3.265900 1_554
La3 Ni3 2.876276 1_555
La3 Ni4 3.265900 1_554
La3 Ni4 3.265900 1_555
La4 Ni2 3.275559 1_555
La4 Ni2 3.275559 1_556
La4 Ni1 3.275559 1_555
La4 Ni1 3.275559 1_556
La4 Ni3 3.275559 1_556
La4 Ni3 3.275559 1_555
La4 Ni0 3.275559 1_555
La4 Ni0 3.275559 1_556
In0 Ni0 2.778060 1_555
In0 Ni0 2.778060 1_556
In0 In8 3.025939 1_555
In0 In6 3.158387 1_555
In0 In5 3.206304 1_556
In0 In5 3.206304 1_555
In0 In1 3.285751 1_455
In0 La1 3.397891 1_455
In0 La1 3.397891 1_456
In0 La0 3.469096 1_556
In0 La0 3.469096 1_555
In0 La4 3.649865 1_555
In1 Ni1 2.778060 1_555
In1 Ni1 2.778060 1_556
In1 In9 3.025939 1_555
In1 In7 3.158387 1_555
In1 In4 3.206304 1_555
In1 In4 3.206304 1_556
In1 La0 3.397891 1_655
In1 La0 3.397891 1_656
In1 La1 3.469096 1_555
In1 La1 3.469096 1_556
In1 La4 3.649865 1_555
In2 Ni2 2.778060 1_556
In2 Ni2 2.778060 1_555
In2 In9 3.025939 1_555
In2 In6 3.158387 1_555
In2 In5 3.206304 1_555
In2 In5 3.206304 1_556
In2 In3 3.285751 1_565
In2 La3 3.397891 1_565
In2 La3 3.397891 1_566
In2 La2 3.469096 1_555
In2 La2 3.469096 1_556
In2 La4 3.649865 1_555
In3 Ni3 2.778060 1_555
In3 Ni3 2.778060 1_556
In3 In8 3.025939 1_555
In3 In7 3.158387 1_555
In3 In4 3.206304 1_555
In3 In4 3.206304 1_556
In3 La2 3.397891 1_545
In3 La2 3.397891 1_546
In3 La3 3.469096 1_555
In3 La3 3.469096 1_556
In3 La4 3.649865 1_555
In4 Ni1 2.636502 1_555
In4 Ni3 2.636502 1_555
In4 In7 3.092664 1_555
In4 In7 3.092664 1_554
In4 La0 3.569041 1_655
In4 La2 3.569041 1_545
In4 La4 3.668228 1_555
In4 La4 3.668228 1_554
In5 Ni0 2.636502 1_555
In5 Ni2 2.636502 1_555
In5 In6 3.092664 1_555
In5 In6 3.092664 1_554
In5 La3 3.569041 1_565
In5 La1 3.569041 1_455
In5 La4 3.668228 1_555
In5 La4 3.668228 1_554
In6 Ni5 2.746917 1_455
In6 Ni4 2.746917 1_565
In6 La3 3.430605 1_566
In6 La3 3.430605 1_565
In6 La1 3.430605 1_455
In6 La1 3.430605 1_456
In7 Ni5 2.746917 1_545
In7 Ni4 2.746917 1_655
In7 La0 3.430605 1_655
In7 La0 3.430605 1_656
In7 La2 3.430605 1_545
In7 La2 3.430605 1_546
In8 Ni4 2.698528 1_555
In8 Ni3 2.862131 1_555
In8 Ni0 2.862131 1_555
In8 Ni0 2.862131 1_556
In8 Ni3 2.862131 1_556
In8 La4 3.316960 1_555
In8 La0 3.376385 1_556
In8 La0 3.376385 1_555
In8 La3 3.376385 1_556
In8 La3 3.376385 1_555
In9 Ni5 2.698528 1_555
In9 Ni1 2.862131 1_556
In9 Ni2 2.862131 1_555
In9 Ni2 2.862131 1_556
In9 Ni1 2.862131 1_555
In9 La4 3.316960 1_555
In9 La1 3.376385 1_556
In9 La1 3.376385 1_555
In9 La2 3.376385 1_555
In9 La2 3.376385 1_556
In10 Ni4 2.623887 1_554
In10 Ni4 2.623887 1_555
In10 Ni5 2.623887 1_444
In10 Ni5 2.623887 1_445
In10 La3 3.276828 1_555
In10 La0 3.276828 1_555
In10 La1 3.276828 1_445
In10 La2 3.276828 1_445
In10 In7 3.280380 1_454
In10 In7 3.280380 1_455
In10 In6 3.280380 1_545
In10 In6 3.280380 1_544
Ni0 Ni3 2.460580 1_555
Ni1 Ni2 2.460580 1_555
Ni4 Ni5 2.709037 1_445
