# generated using pymatgen
data_SiO2
_symmetry_space_group_name_H-M   'P 1'
_cell_length_a   10.78856465
_cell_length_b   12.22353841
_cell_length_c   12.47739072
_cell_angle_alpha   89.00611699
_cell_angle_beta   92.52710561
_cell_angle_gamma   89.14136339
_symmetry_Int_Tables_number   1
_chemical_formula_structural   SiO2
_chemical_formula_sum   'Si34 O68'
_cell_volume   1643.39695328
_cell_formula_units_Z   34
loop_
 _symmetry_equiv_pos_site_id
 _symmetry_equiv_pos_as_xyz
  1  'x, y, z'
loop_
 _atom_site_type_symbol
 _atom_site_label
 _atom_site_symmetry_multiplicity
 _atom_site_fract_x
 _atom_site_fract_y
 _atom_site_fract_z
 _atom_site_occupancy
  Si  Si0  1  0.73246813  0.34016607  0.47199242  1
  Si  Si1  1  0.44681122  0.19727304  0.20626969  1
  Si  Si2  1  0.99811980  0.71720287  0.70780348  1
  Si  Si3  1  0.25950126  0.59049799  0.71176151  1
  Si  Si4  1  0.24881375  0.49893647  0.02502503  1
  Si  Si5  1  0.85806141  0.67083214  0.39206633  1
  Si  Si6  1  0.13649328  0.99793247  0.02684063  1
  Si  Si7  1  0.19846372  0.33774504  0.75899735  1
  Si  Si8  1  0.65079482  0.37197430  0.22983199  1
  Si  Si9  1  0.00039073  0.18235096  0.15599339  1
  Si  Si10  1  0.76503418  0.59320701  0.75169013  1
  Si  Si11  1  0.12274105  0.71887609  0.40029287  1
  Si  Si12  1  0.67313123  0.69536301  0.95057379  1
  Si  Si13  1  0.94406253  0.29047792  0.63629380  1
  Si  Si14  1  0.71114439  0.93055375  0.00058991  1
  Si  Si15  1  0.60114339  0.85491522  0.19851231  1
  Si  Si16  1  0.01449467  0.43454908  0.07557925  1
  Si  Si17  1  0.50148815  0.99500401  0.37390541  1
  Si  Si18  1  0.37339795  0.88452190  0.02944312  1
  Si  Si19  1  0.70882938  0.62407835  0.18490853  1
  Si  Si20  1  0.61690076  0.12331905  0.56939830  1
  Si  Si21  1  0.39157567  0.67572947  0.52845133  1
  Si  Si22  1  0.23220139  0.33977515  0.18784839  1
  Si  Si23  1  0.94859993  0.86024557  0.48914299  1
  Si  Si24  1  0.46823187  0.23639584  0.74356332  1
  Si  Si25  1  0.32433123  0.88582825  0.52134675  1
  Si  Si26  1  0.88398354  0.05017090  0.62960496  1
  Si  Si27  1  0.40111147  0.66038203  0.90405065  1
  Si  Si28  1  0.15862446  0.55853019  0.21995411  1
  Si  Si29  1  0.64316541  0.56809344  0.52795539  1
  Si  Si30  1  0.49321168  0.09868285  0.96832918  1
  Si  Si31  1  0.72380618  0.34511202  0.79606406  1
  Si  Si32  1  0.79753756  0.29678294  0.03162870  1
  Si  Si33  1  0.94868948  0.91630344  0.85039497  1
  O  O0  1  0.73530572  0.07067692  0.63812916  1
  O  O1  1  0.07086860  0.84391794  0.41307960  1
  O  O2  1  0.47858103  0.09697702  0.28916008  1
  O  O3  1  0.92113425  0.98811752  0.74386663  1
  O  O4  1  0.32904407  0.58035681  0.59785482  1
  O  O5  1  0.07980029  0.33936284  0.66361351  1
  O  O6  1  0.58386651  0.32458031  0.74691996  1
  O  O7  1  0.10392070  0.47907578  0.98417764  1
  O  O8  1  0.96249714  0.15979905  0.61912200  1
  O  O9  1  0.08271336  0.31433882  0.13549817  1
  O  O10  1  0.36045369  0.66735217  0.77866355  1
  O  O11  1  0.63448524  0.04410330  0.97349631  1
  O  O12  1  0.29811345  0.22628329  0.22503231  1
  O  O13  1  0.89379621  0.19513771  0.05791615  1
  O  O14  1  0.64273822  0.43590090  0.52025040  1
  O  O15  1  0.16718836  0.28422163  0.86890608  1
  O  O16  1  0.74563030  0.47584718  0.80955201  1
  O  O17  1  0.46920212  0.88004435  0.13177712  1
  O  O18  1  0.75089007  0.68468603  0.84387138  1
  O  O19  1  0.22296889  0.93579855  0.58859079  1
  O  O20  1  0.50714828  0.14987383  0.65067736  1
  O  O21  1  0.21685233  0.44050764  0.27299430  1
  O  O22  1  0.90400758  0.61344034  0.71049998  1
  O  O23  1  0.30273481  0.38610203  0.08364982  1
  O  O24  1  0.87744303  0.41050785  0.03255169  1
  O  O25  1  0.10047524  0.09410289  0.10013150  1
  O  O26  1  0.01980284  0.52120514  0.17395219  1
  O  O27  1  0.56836160  0.03261038  0.48478409  1
  O  O28  1  0.15811231  0.67009101  0.28536301  1
  O  O29  1  0.83808198  0.30071643  0.72793390  1
  O  O30  1  0.23399265  0.91110505  0.07773566  1
  O  O31  1  0.64412075  0.50448681  0.20078843  1
  O  O32  1  0.70439289  0.30760208  0.12842695  1
  O  O33  1  0.71673451  0.90826787  0.13214312  1
  O  O34  1  0.47245998  0.17571010  0.86341202  1
  O  O35  1  0.72927582  0.28594776  0.91552141  1
  O  O36  1  0.96406076  0.79149818  0.60204260  1
  O  O37  1  0.13633955  0.66871263  0.69874704  1
  O  O38  1  0.98467579  0.79197505  0.81671349  1
  O  O39  1  0.83931251  0.80200958  0.41360051  1
  O  O40  1  0.54503004  0.63100382  0.93253931  1
  O  O41  1  0.84489841  0.92700328  0.94297909  1
  O  O42  1  0.39521270  0.99516018  0.95700194  1
  O  O43  1  0.46915553  0.16052116  0.08240100  1
  O  O44  1  0.61061964  0.72200146  0.21179297  1
  O  O45  1  0.76182305  0.60520736  0.46230125  1
  O  O46  1  0.43096322  0.79662742  0.57261994  1
  O  O47  1  0.36001003  0.77268521  0.96341681  1
  O  O48  1  0.74651674  0.64619040  0.05950607  1
  O  O49  1  0.66146368  0.60860428  0.65196588  1
  O  O50  1  0.07224994  0.96758628  0.91628321  1
  O  O51  1  0.83046328  0.63968505  0.26621748  1
  O  O52  1  0.00505518  0.63948927  0.43062665  1
  O  O53  1  0.33746685  0.54784671  0.94085366  1
  O  O54  1  0.26495994  0.72787366  0.45735170  1
  O  O55  1  0.59170759  0.90776771  0.31559523  1
  O  O56  1  0.24280285  0.59104612  0.11953329  1
  O  O57  1  0.97502776  0.16618942  0.27494256  1
  O  O58  1  0.51233384  0.62079974  0.47469132  1
  O  O59  1  0.33367245  0.28899807  0.71075370  1
  O  O60  1  0.22909614  0.47269710  0.75778039  1
  O  O61  1  0.87335797  0.34494017  0.52613455  1
  O  O62  1  0.51667632  0.31109712  0.24041024  1
  O  O63  1  0.91039596  0.98230544  0.52083616  1
  O  O64  1  0.37268683  0.93601830  0.40756320  1
  O  O65  1  0.63409670  0.82522042  0.95570070  1
  O  O66  1  0.66231308  0.22742248  0.49936754  1
  O  O67  1  0.73414819  0.35647081  0.34109140  1
loop_
_geom_bond_atom_site_label_1
_geom_bond_atom_site_label_2
_geom_bond_distance
_geom_bond_site_symmetry_2
O0 Si20 1.625091 1_555
O0 Si26 1.628171 1_555
O1 Si11 1.632638 1_555
O1 Si23 1.670235 1_455
O2 Si1 1.613174 1_555
O2 Si17 1.629374 1_545
O3 Si33 1.594542 1_555
O3 Si26 1.634488 1_565
O4 Si21 1.613744 1_555
O4 Si3 1.641828 1_555
O5 Si13 1.614635 1_455
O5 Si7 1.708750 1_555
O6 Si31 1.628921 1_555
O6 Si24 1.660505 1_555
O7 Si16 1.618301 1_556
O7 Si4 1.645498 1_556
O8 Si26 1.602507 1_555
O8 Si13 1.625769 1_555
O9 Si22 1.747430 1_555
O9 Si16 1.772201 1_555
O9 Si9 1.872373 1_555
O10 Si27 1.606572 1_555
O10 Si3 1.656280 1_555
O11 Si14 1.627706 1_546
O11 Si30 1.652761 1_555
O12 Si22 1.601390 1_555
O12 Si1 1.665255 1_555
O13 Si32 1.626936 1_555
O13 Si9 1.645712 1_655
O14 Si29 1.620445 1_555
O14 Si0 1.646513 1_555
O15 Si7 1.561682 1_555
O16 Si10 1.615363 1_555
O16 Si31 1.629302 1_555
O17 Si18 1.606604 1_555
O17 Si15 1.639341 1_555
O18 Si12 1.610768 1_555
O18 Si10 1.628358 1_555
O19 Si25 1.533492 1_555
O20 Si20 1.625325 1_555
O20 Si24 1.646253 1_555
O21 Si22 1.651368 1_555
O21 Si28 1.678367 1_555
O22 Si10 1.627248 1_555
O22 Si2 1.637335 1_555
O23 Si22 1.632381 1_555
O23 Si4 1.636827 1_555
O24 Si16 1.584082 1_655
O24 Si32 1.646609 1_555
O25 Si6 1.556955 1_545
O25 Si9 1.694954 1_555
O26 Si16 1.634810 1_555
O26 Si28 1.653613 1_555
O27 Si17 1.609290 1_545
O27 Si20 1.620963 1_555
O28 Si28 1.601397 1_555
O28 Si11 1.621344 1_555
O29 Si31 1.620335 1_555
O29 Si13 1.657218 1_555
O30 Si6 1.587581 1_555
O30 Si18 1.674126 1_555
O31 Si19 1.642044 1_555
O31 Si8 1.653484 1_555
O32 Si32 1.610792 1_555
O32 Si8 1.624759 1_555
O33 Si14 1.657540 1_555
O33 Si15 1.662214 1_555
O34 Si30 1.604815 1_555
O34 Si24 1.656214 1_555
O35 Si32 1.604422 1_556
O35 Si31 1.643686 1_555
O36 Si2 1.614564 1_555
O36 Si23 1.628623 1_555
O37 Si2 1.605751 1_455
O37 Si3 1.625877 1_555
O38 Si33 1.629661 1_555
O38 Si2 1.661185 1_555
O39 Si5 1.641398 1_555
O39 Si23 1.654017 1_555
O40 Si12 1.609606 1_555
O40 Si27 1.611304 1_555
O41 Si14 1.640601 1_556
O41 Si33 1.649360 1_555
O42 Si18 1.639279 1_556
O42 Si30 1.664989 1_565
O43 Si1 1.643889 1_555
O43 Si30 1.651838 1_554
O44 Si15 1.631463 1_555
O44 Si19 1.635587 1_555
O45 Si5 1.603210 1_555
O45 Si29 1.616369 1_555
O46 Si21 1.641526 1_555
O46 Si25 1.671792 1_555
O47 Si18 1.613338 1_556
O47 Si27 1.635767 1_555
O48 Si12 1.642560 1_554
O48 Si19 1.652685 1_555
O49 Si29 1.637369 1_555
O49 Si10 1.641706 1_555
O50 Si6 1.569092 1_556
O50 Si33 1.670957 1_455
O51 Si5 1.637756 1_555
O51 Si19 1.638439 1_555
O52 Si11 1.662380 1_555
O52 Si5 1.673710 1_455
O53 Si4 1.568167 1_556
O53 Si27 1.615164 1_555
O54 Si11 1.668712 1_555
O54 Si21 1.704893 1_555
O54 Si25 2.195715 1_555
O55 Si15 1.614255 1_555
O55 Si17 1.634643 1_555
O56 Si28 1.626840 1_555
O56 Si4 1.647129 1_555
O57 Si9 1.530992 1_655
O58 Si21 1.632347 1_555
O58 Si29 1.650520 1_555
O59 Si24 1.612125 1_555
O59 Si7 1.705595 1_555
O60 Si3 1.585189 1_555
O60 Si7 1.687161 1_555
O61 Si0 1.638185 1_555
O61 Si13 1.665797 1_555
O62 Si1 1.645928 1_555
O62 Si8 1.646364 1_555
O63 Si23 1.602731 1_555
O63 Si26 1.636244 1_565
O64 Si17 1.642605 1_555
O64 Si25 1.645855 1_555
O65 Si14 1.636605 1_556
O65 Si12 1.639170 1_555
O66 Si0 1.620643 1_555
O66 Si20 1.625027 1_555
O67 Si8 1.627096 1_555
O67 Si0 1.642911 1_555
