# generated using pymatgen
data_Dy2Sn3(PbS4)3
_symmetry_space_group_name_H-M   'P 1'
_cell_length_a   3.94170400
_cell_length_b   11.64465300
_cell_length_c   20.41630000
_cell_angle_alpha   90.00000000
_cell_angle_beta   90.00000000
_cell_angle_gamma   90.00000000
_symmetry_Int_Tables_number   1
_chemical_formula_structural   Dy2Sn3(PbS4)3
_chemical_formula_sum   'Dy4 Sn6 Pb6 S24'
_cell_volume   937.10358264
_cell_formula_units_Z   2
loop_
 _symmetry_equiv_pos_site_id
 _symmetry_equiv_pos_as_xyz
  1  'x, y, z'
loop_
 _atom_site_type_symbol
 _atom_site_label
 _atom_site_symmetry_multiplicity
 _atom_site_fract_x
 _atom_site_fract_y
 _atom_site_fract_z
 _atom_site_occupancy
  Dy  Dy0  1  0.50000000  0.64695900  0.41273200  1
  Dy  Dy1  1  0.50000000  0.14695900  0.58726800  1
  Dy  Dy2  1  0.50000000  0.82566700  0.89413900  1
  Dy  Dy3  1  0.50000000  0.32566700  0.10586100  1
  Sn  Sn0  1  0.00000000  0.00218800  0.75011200  1
  Sn  Sn1  1  0.00000000  0.50218800  0.24988800  1
  Sn  Sn2  1  0.00000000  0.51948100  0.91240200  1
  Sn  Sn3  1  0.00000000  0.01948100  0.08759800  1
  Sn  Sn4  1  0.00000000  0.99298600  0.42637900  1
  Sn  Sn5  1  0.00000000  0.49298600  0.57362100  1
  Pb  Pb0  1  0.50000000  0.40335400  0.74190200  1
  Pb  Pb1  1  0.50000000  0.90335400  0.25809800  1
  Pb  Pb2  1  0.50000000  0.19871300  0.91480100  1
  Pb  Pb3  1  0.50000000  0.69871300  0.08519900  1
  Pb  Pb4  1  0.50000000  0.77220400  0.62218800  1
  Pb  Pb5  1  0.50000000  0.27220400  0.37781200  1
  S  S0  1  0.00000000  0.99061200  0.87538000  1
  S  S1  1  0.00000000  0.49061200  0.12462000  1
  S  S2  1  0.00000000  0.98448300  0.62636600  1
  S  S3  1  0.00000000  0.48448300  0.37363400  1
  S  S4  1  0.00000000  0.68158600  0.50954900  1
  S  S5  1  0.00000000  0.18158600  0.49045100  1
  S  S6  1  0.50000000  0.64670100  0.25827500  1
  S  S7  1  0.50000000  0.14670100  0.74172500  1
  S  S8  1  0.50000000  0.85092400  0.75691800  1
  S  S9  1  0.50000000  0.35092400  0.24308200  1
  S  S10  1  0.50000000  0.60196700  0.84209300  1
  S  S11  1  0.50000000  0.10196700  0.15790700  1
  S  S12  1  0.50000000  0.43684500  0.98291800  1
  S  S13  1  0.50000000  0.93684500  0.01708200  1
  S  S14  1  0.50000000  0.93634800  0.49279900  1
  S  S15  1  0.50000000  0.43634800  0.50720100  1
  S  S16  1  0.00000000  0.33811200  0.84316600  1
  S  S17  1  0.00000000  0.83811200  0.15683400  1
  S  S18  1  0.00000000  0.71435200  0.96917500  1
  S  S19  1  0.00000000  0.21435200  0.03082500  1
  S  S20  1  0.00000000  0.80433600  0.36126900  1
  S  S21  1  0.00000000  0.30433600  0.63873100  1
  S  S22  1  0.00000000  0.60148100  0.67638600  1
  S  S23  1  0.00000000  0.10148100  0.32361400  1
loop_
_geom_bond_atom_site_label_1
_geom_bond_atom_site_label_2
_geom_bond_distance
_geom_bond_site_symmetry_2
Dy0 S4 2.820278 1_555
Dy0 S4 2.820278 1_655
Dy0 S3 2.846228 1_655
Dy0 S3 2.846228 1_555
Dy0 S20 2.889052 1_655
Dy0 S20 2.889052 1_555
Dy0 S15 3.120037 1_555
Dy0 S6 3.153442 1_555
Dy1 S5 2.820278 1_555
Dy1 S5 2.820278 1_655
Dy1 S2 2.846228 1_645
Dy1 S2 2.846228 1_545
Dy1 S21 2.889052 1_655
Dy1 S21 2.889052 1_555
Dy1 S14 3.120037 1_545
Dy1 S7 3.153442 1_555
Dy2 S0 2.778513 1_555
Dy2 S0 2.778513 1_655
Dy2 S18 2.812712 1_555
Dy2 S18 2.812712 1_655
Dy2 S10 2.813297 1_555
Dy2 S8 2.816941 1_555
Dy2 S13 2.824247 1_556
Dy3 S1 2.778513 1_555
Dy3 S1 2.778513 1_655
Dy3 S19 2.812712 1_555
Dy3 S19 2.812712 1_655
Dy3 S11 2.813297 1_555
Dy3 S9 2.816941 1_555
Dy3 S12 2.824247 1_554
Pb0 S16 2.955626 1_555
Pb0 S16 2.955626 1_655
Pb0 S7 2.988637 1_555
Pb0 S10 3.087578 1_555
Pb0 S21 3.106530 1_655
Pb0 S21 3.106530 1_555
Pb1 S17 2.955626 1_555
Pb1 S17 2.955626 1_655
Pb1 S6 2.988637 1_555
Pb1 S11 3.087578 1_565
Pb1 S20 3.106530 1_655
Pb1 S20 3.106530 1_555
Pb2 S16 2.942478 1_555
Pb2 S16 2.942478 1_655
Pb2 S19 3.086834 1_556
Pb2 S19 3.086834 1_656
Pb2 S12 3.102156 1_555
Pb2 S0 3.225557 1_645
Pb2 S0 3.225557 1_545
Pb3 S17 2.942478 1_555
Pb3 S17 2.942478 1_655
Pb3 S18 3.086834 1_554
Pb3 S18 3.086834 1_654
Pb3 S13 3.102156 1_555
Pb3 S1 3.225557 1_555
Pb3 S1 3.225557 1_655
Pb4 S8 2.899407 1_555
Pb4 S22 3.010122 1_655
Pb4 S22 3.010122 1_555
Pb4 S2 3.162578 1_655
Pb4 S2 3.162578 1_555
Pb4 S4 3.207215 1_655
Pb4 S4 3.207215 1_555
Pb4 S14 3.260634 1_555
Pb5 S9 2.899407 1_555
Pb5 S23 3.010122 1_555
Pb5 S23 3.010122 1_655
Pb5 S3 3.162578 1_655
Pb5 S3 3.162578 1_555
Pb5 S5 3.207215 1_555
Pb5 S5 3.207215 1_655
Pb5 S15 3.260634 1_555
S0 Sn0 2.561059 1_565
S1 Sn1 2.561059 1_555
S2 Sn0 2.534834 1_565
S3 Sn1 2.534834 1_555
S4 Sn5 2.556242 1_555
S5 Sn4 2.556242 1_545
S6 Sn1 2.597192 1_655
S6 Sn1 2.597192 1_555
S7 Sn0 2.597192 1_555
S7 Sn0 2.597192 1_655
S8 Sn0 2.646914 1_665
S8 Sn0 2.646914 1_565
S9 Sn1 2.646914 1_655
S9 Sn1 2.646914 1_555
S10 Sn2 2.620567 1_555
S10 Sn2 2.620567 1_655
S11 Sn3 2.620567 1_655
S11 Sn3 2.620567 1_555
S12 Sn2 2.623525 1_555
S12 Sn2 2.623525 1_655
S13 Sn3 2.623525 1_565
S13 Sn3 2.623525 1_665
S14 Sn4 2.481554 1_555
S14 Sn4 2.481554 1_655
S15 Sn5 2.481554 1_655
S15 Sn5 2.481554 1_555
S16 Sn2 2.541370 1_555
S17 Sn3 2.541370 1_565
S18 Sn2 2.548096 1_555
S19 Sn3 2.548096 1_555
S20 Sn4 2.567649 1_555
S21 Sn5 2.567649 1_555
S22 Sn5 2.449100 1_555
S23 Sn4 2.449100 1_545
