# generated using pymatgen
data_Th4Al
_symmetry_space_group_name_H-M   'P 1'
_cell_length_a   8.02397622
_cell_length_b   8.02397622
_cell_length_c   8.02397622
_cell_angle_alpha   60.00000000
_cell_angle_beta   60.00000000
_cell_angle_gamma   60.00000000
_symmetry_Int_Tables_number   1
_chemical_formula_structural   Th4Al
_chemical_formula_sum   'Th8 Al2'
_cell_volume   365.30355750
_cell_formula_units_Z   2
loop_
 _symmetry_equiv_pos_site_id
 _symmetry_equiv_pos_as_xyz
  1  'x, y, z'
loop_
 _atom_site_type_symbol
 _atom_site_label
 _atom_site_symmetry_multiplicity
 _atom_site_fract_x
 _atom_site_fract_y
 _atom_site_fract_z
 _atom_site_occupancy
  Th  Th0  1  0.60484100  0.60484100  0.60484100  1
  Th  Th1  1  0.18547700  0.60484100  0.60484100  1
  Th  Th2  1  0.60484100  0.18547700  0.60484100  1
  Th  Th3  1  0.56452300  0.14515900  0.14515900  1
  Th  Th4  1  0.14515900  0.14515900  0.14515900  1
  Th  Th5  1  0.60484100  0.60484100  0.18547700  1
  Th  Th6  1  0.14515900  0.56452300  0.14515900  1
  Th  Th7  1  0.14515900  0.14515900  0.56452300  1
  Al  Al0  1  0.00000000  0.00000000  0.00000000  1
  Al  Al1  1  0.75000000  0.75000000  0.75000000  1
loop_
_geom_bond_atom_site_label_1
_geom_bond_atom_site_label_2
_geom_bond_distance
_geom_bond_site_symmetry_2
Al0 Th7 2.853049 1_554
Al0 Th4 2.853049 1_555
Al0 Th6 2.853049 1_545
Al0 Th3 2.853049 1_455
Al1 Th0 2.853049 1_555
Al1 Th5 2.853049 1_556
Al1 Th2 2.853049 1_565
Al1 Th1 2.853049 1_655
