# generated using pymatgen
data_Mo2Ir2C
_symmetry_space_group_name_H-M   'P 1'
_cell_length_a   19.61129019
_cell_length_b   19.61129019
_cell_length_c   19.61129061
_cell_angle_alpha   16.69031825
_cell_angle_beta   16.69031825
_cell_angle_gamma   16.69032000
_symmetry_Int_Tables_number   1
_chemical_formula_structural   Mo2Ir2C
_chemical_formula_sum   'Mo16 Ir16 C8'
_cell_volume   542.59256590
_cell_formula_units_Z   8
loop_
 _symmetry_equiv_pos_site_id
 _symmetry_equiv_pos_as_xyz
  1  'x, y, z'
loop_
 _atom_site_type_symbol
 _atom_site_label
 _atom_site_symmetry_multiplicity
 _atom_site_fract_x
 _atom_site_fract_y
 _atom_site_fract_z
 _atom_site_occupancy
  Mo  Mo0_0  1  0.18783050  0.18783050  0.18783050  1
  Mo  Mo0_1  1  0.18783050  0.18783050  0.68783050  1
  Mo  Mo0_2  1  0.18783050  0.68783050  0.18783050  1
  Mo  Mo0_3  1  0.18783050  0.68783050  0.68783050  1
  Mo  Mo0_4  1  0.68783050  0.18783050  0.18783050  1
  Mo  Mo0_5  1  0.68783050  0.18783050  0.68783050  1
  Mo  Mo0_6  1  0.68783050  0.68783050  0.18783050  1
  Mo  Mo0_7  1  0.68783050  0.68783050  0.68783050  1
  Mo  Mo1_0  1  0.31216950  0.31216950  0.31216950  1
  Mo  Mo1_1  1  0.31216950  0.31216950  0.81216950  1
  Mo  Mo1_2  1  0.31216950  0.81216950  0.31216950  1
  Mo  Mo1_3  1  0.31216950  0.81216950  0.81216950  1
  Mo  Mo1_4  1  0.81216950  0.31216950  0.31216950  1
  Mo  Mo1_5  1  0.81216950  0.31216950  0.81216950  1
  Mo  Mo1_6  1  0.81216950  0.81216950  0.31216950  1
  Mo  Mo1_7  1  0.81216950  0.81216950  0.81216950  1
  Ir  Ir0_0  1  0.44022150  0.44022150  0.44022150  1
  Ir  Ir0_1  1  0.44022150  0.44022150  0.94022150  1
  Ir  Ir0_2  1  0.44022150  0.94022150  0.44022150  1
  Ir  Ir0_3  1  0.44022150  0.94022150  0.94022150  1
  Ir  Ir0_4  1  0.94022150  0.44022150  0.44022150  1
  Ir  Ir0_5  1  0.94022150  0.44022150  0.94022150  1
  Ir  Ir0_6  1  0.94022150  0.94022150  0.44022150  1
  Ir  Ir0_7  1  0.94022150  0.94022150  0.94022150  1
  Ir  Ir1_0  1  0.05977850  0.05977850  0.05977850  1
  Ir  Ir1_1  1  0.05977850  0.05977850  0.55977850  1
  Ir  Ir1_2  1  0.05977850  0.55977850  0.05977850  1
  Ir  Ir1_3  1  0.05977850  0.55977850  0.55977850  1
  Ir  Ir1_4  1  0.55977850  0.05977850  0.05977850  1
  Ir  Ir1_5  1  0.55977850  0.05977850  0.55977850  1
  Ir  Ir1_6  1  0.55977850  0.55977850  0.05977850  1
  Ir  Ir1_7  1  0.55977850  0.55977850  0.55977850  1
  C  C0_0  1  0.25000000  0.25000000  0.25000000  1
  C  C0_1  1  0.25000000  0.25000000  0.75000000  1
  C  C0_2  1  0.25000000  0.75000000  0.25000000  1
  C  C0_3  1  0.25000000  0.75000000  0.75000000  1
  C  C0_4  1  0.75000000  0.25000000  0.25000000  1
  C  C0_5  1  0.75000000  0.25000000  0.75000000  1
  C  C0_6  1  0.75000000  0.75000000  0.25000000  1
  C  C0_7  1  0.75000000  0.75000000  0.75000000  1
loop_
_geom_bond_atom_site_label_1
_geom_bond_atom_site_label_2
_geom_bond_distance
_geom_bond_site_symmetry_2
Mo0_0 Mo0_5 2.846306 1_455
Mo0_0 Mo0_3 2.846306 1_545
Mo0_0 Mo0_3 2.846306 1_554
Mo0_0 Mo0_5 2.846306 1_554
Mo0_0 Mo0_6 2.846306 1_455
Mo0_0 Mo0_6 2.846306 1_545
Mo0_0 Mo1_2 2.954303 1_545
Mo0_0 Mo1_4 2.954303 1_455
Mo0_0 Mo1_1 2.954303 1_554
Mo0_1 Mo0_2 2.846306 1_555
Mo0_1 Mo0_2 2.846306 1_546
Mo0_1 Mo0_4 2.846306 1_456
Mo0_1 Mo0_4 2.846306 1_555
Mo0_1 Mo0_7 2.846306 1_455
Mo0_1 Mo0_7 2.846306 1_545
Mo0_1 Mo1_5 2.954303 1_455
Mo0_1 Mo1_3 2.954303 1_545
Mo0_1 Mo1_0 2.954303 1_555
Mo0_2 Mo0_7 2.846306 1_455
Mo0_2 Mo0_7 2.846306 1_554
Mo0_2 Mo0_4 2.846306 1_465
Mo0_2 Mo0_4 2.846306 1_555
Mo0_2 Mo1_6 2.954303 1_455
Mo0_2 Mo1_0 2.954303 1_555
Mo0_2 Mo1_3 2.954303 1_554
Mo0_3 Mo0_6 2.846306 1_555
Mo0_3 Mo0_6 2.846306 1_456
Mo0_3 Mo0_5 2.846306 1_465
Mo0_3 Mo0_5 2.846306 1_555
Mo0_3 Mo1_1 2.954303 1_555
Mo0_3 Mo1_7 2.954303 1_455
Mo0_3 Mo1_2 2.954303 1_555
Mo0_4 Mo0_7 2.846306 1_545
Mo0_4 Mo0_7 2.846306 1_554
Mo0_4 Mo1_6 2.954303 1_545
Mo0_4 Mo1_0 2.954303 1_555
Mo0_4 Mo1_5 2.954303 1_554
Mo0_5 Mo0_6 2.846306 1_555
Mo0_5 Mo0_6 2.846306 1_546
Mo0_5 Mo1_1 2.954303 1_555
Mo0_5 Mo1_7 2.954303 1_545
Mo0_5 Mo1_4 2.954303 1_555
Mo0_6 Mo1_4 2.954303 1_555
Mo0_6 Mo1_2 2.954303 1_555
Mo0_6 Mo1_7 2.954303 1_554
Mo0_7 Mo1_5 2.954303 1_555
Mo0_7 Mo1_3 2.954303 1_555
Mo0_7 Mo1_6 2.954303 1_555
Mo1_0 Mo1_5 2.846306 1_554
Mo1_0 Mo1_3 2.846306 1_554
Mo1_0 Mo1_5 2.846306 1_455
Mo1_0 Mo1_3 2.846306 1_545
Mo1_0 Mo1_6 2.846306 1_545
Mo1_0 Mo1_6 2.846306 1_455
Mo1_1 Mo1_4 2.846306 1_456
Mo1_1 Mo1_2 2.846306 1_546
Mo1_1 Mo1_4 2.846306 1_555
Mo1_1 Mo1_2 2.846306 1_555
Mo1_1 Mo1_7 2.846306 1_545
Mo1_1 Mo1_7 2.846306 1_455
Mo1_2 Mo1_7 2.846306 1_554
Mo1_2 Mo1_7 2.846306 1_455
Mo1_2 Mo1_4 2.846306 1_555
Mo1_2 Mo1_4 2.846306 1_465
Mo1_3 Mo1_6 2.846306 1_456
Mo1_3 Mo1_6 2.846306 1_555
Mo1_3 Mo1_5 2.846306 1_465
Mo1_3 Mo1_5 2.846306 1_555
Mo1_4 Mo1_7 2.846306 1_554
Mo1_4 Mo1_7 2.846306 1_545
Mo1_5 Mo1_6 2.846306 1_546
Mo1_5 Mo1_6 2.846306 1_555
Ir0_0 Mo1_4 2.777918 1_555
Ir0_0 Mo1_2 2.777918 1_555
Ir0_0 Mo1_1 2.777918 1_555
Ir0_1 Mo1_3 2.777918 1_555
Ir0_1 Mo1_5 2.777918 1_555
Ir0_1 Mo1_0 2.777918 1_556
Ir0_2 Mo1_0 2.777918 1_565
Ir0_2 Mo1_6 2.777918 1_555
Ir0_2 Mo1_3 2.777918 1_555
Ir0_3 Mo1_7 2.777918 1_555
Ir0_3 Mo1_1 2.777918 1_565
Ir0_3 Mo1_2 2.777918 1_556
Ir0_4 Mo1_0 2.777918 1_655
Ir0_4 Mo1_6 2.777918 1_555
Ir0_4 Mo1_5 2.777918 1_555
Ir0_5 Mo1_7 2.777918 1_555
Ir0_5 Mo1_1 2.777918 1_655
Ir0_5 Mo1_4 2.777918 1_556
Ir0_6 Mo1_4 2.777918 1_565
Ir0_6 Mo1_2 2.777918 1_655
Ir0_6 Mo1_7 2.777918 1_555
Ir0_7 Mo1_3 2.777918 1_655
Ir0_7 Mo1_5 2.777918 1_565
Ir0_7 Mo1_6 2.777918 1_556
Ir1_0 Mo0_2 2.777918 1_545
Ir1_0 Mo0_4 2.777918 1_455
Ir1_0 Mo0_1 2.777918 1_554
Ir1_1 Mo0_5 2.777918 1_455
Ir1_1 Mo0_3 2.777918 1_545
Ir1_1 Mo0_0 2.777918 1_555
Ir1_2 Mo0_6 2.777918 1_455
Ir1_2 Mo0_0 2.777918 1_555
Ir1_2 Mo0_3 2.777918 1_554
Ir1_3 Mo0_7 2.777918 1_455
Ir1_3 Mo0_1 2.777918 1_555
Ir1_3 Mo0_2 2.777918 1_555
Ir1_4 Mo0_6 2.777918 1_545
Ir1_4 Mo0_0 2.777918 1_555
Ir1_4 Mo0_5 2.777918 1_554
Ir1_5 Mo0_7 2.777918 1_545
Ir1_5 Mo0_1 2.777918 1_555
Ir1_5 Mo0_4 2.777918 1_555
Ir1_6 Mo0_2 2.777918 1_555
Ir1_6 Mo0_4 2.777918 1_555
Ir1_6 Mo0_7 2.777918 1_554
Ir1_7 Mo0_5 2.777918 1_555
Ir1_7 Mo0_3 2.777918 1_555
Ir1_7 Mo0_6 2.777918 1_555
C0_0 Ir1_1 2.137065 1_555
C0_0 Ir0_1 2.137065 1_554
C0_0 Ir1_4 2.137066 1_555
C0_0 Ir1_2 2.137066 1_555
C0_0 Ir0_2 2.137066 1_545
C0_0 Ir0_4 2.137066 1_455
C0_1 Ir0_0 2.137065 1_555
C0_1 Ir1_0 2.137065 1_556
C0_1 Ir1_5 2.137066 1_555
C0_1 Ir1_3 2.137066 1_555
C0_1 Ir0_3 2.137066 1_545
C0_1 Ir0_5 2.137066 1_455
C0_2 Ir1_3 2.137065 1_555
C0_2 Ir0_3 2.137065 1_554
C0_2 Ir1_6 2.137066 1_555
C0_2 Ir0_6 2.137066 1_455
C0_2 Ir1_0 2.137066 1_565
C0_2 Ir0_0 2.137066 1_555
C0_3 Ir0_2 2.137065 1_555
C0_3 Ir1_2 2.137065 1_556
C0_3 Ir0_7 2.137066 1_455
C0_3 Ir0_1 2.137066 1_555
C0_3 Ir1_1 2.137066 1_565
C0_3 Ir1_7 2.137066 1_555
C0_4 Ir1_5 2.137065 1_555
C0_4 Ir0_5 2.137065 1_554
C0_4 Ir1_6 2.137066 1_555
C0_4 Ir0_6 2.137066 1_545
C0_4 Ir1_0 2.137066 1_655
C0_4 Ir0_0 2.137066 1_555
C0_5 Ir0_4 2.137065 1_555
C0_5 Ir1_4 2.137065 1_556
C0_5 Ir0_7 2.137066 1_545
C0_5 Ir0_1 2.137066 1_555
C0_5 Ir1_1 2.137066 1_655
C0_5 Ir1_7 2.137066 1_555
C0_6 Ir0_7 2.137065 1_554
C0_6 Ir1_7 2.137065 1_555
C0_6 Ir0_4 2.137066 1_555
C0_6 Ir0_2 2.137066 1_555
C0_6 Ir1_4 2.137066 1_565
C0_6 Ir1_2 2.137066 1_655
C0_7 Ir1_6 2.137065 1_556
C0_7 Ir0_6 2.137065 1_555
C0_7 Ir1_3 2.137066 1_655
C0_7 Ir1_5 2.137066 1_565
C0_7 Ir0_5 2.137066 1_555
C0_7 Ir0_3 2.137066 1_555
