# generated using pymatgen
data_Cu7PS6
_symmetry_space_group_name_H-M   'P 1'
_cell_length_a   9.63741000
_cell_length_b   9.63741000
_cell_length_c   9.63741000
_cell_angle_alpha   90.00000000
_cell_angle_beta   90.00000000
_cell_angle_gamma   90.00000000
_symmetry_Int_Tables_number   1
_chemical_formula_structural   Cu7PS6
_chemical_formula_sum   'Cu28 P4 S24'
_cell_volume   895.11947499
_cell_formula_units_Z   4
loop_
 _symmetry_equiv_pos_site_id
 _symmetry_equiv_pos_as_xyz
  1  'x, y, z'
loop_
 _atom_site_type_symbol
 _atom_site_label
 _atom_site_symmetry_multiplicity
 _atom_site_fract_x
 _atom_site_fract_y
 _atom_site_fract_z
 _atom_site_occupancy
  Cu  Cu0  1  0.23459400  0.92600000  0.90573500  1
  Cu  Cu1  1  0.09426500  0.73459400  0.57400000  1
  Cu  Cu2  1  0.42600000  0.59426500  0.76540600  1
  Cu  Cu3  1  0.73459400  0.57400000  0.09426500  1
  Cu  Cu4  1  0.59426500  0.76540600  0.42600000  1
  Cu  Cu5  1  0.92600000  0.90573500  0.23459400  1
  Cu  Cu6  1  0.76540600  0.42600000  0.59426500  1
  Cu  Cu7  1  0.90573500  0.23459400  0.92600000  1
  Cu  Cu8  1  0.57400000  0.09426500  0.73459400  1
  Cu  Cu9  1  0.26540600  0.07400000  0.40573500  1
  Cu  Cu10  1  0.40573500  0.26540600  0.07400000  1
  Cu  Cu11  1  0.07400000  0.40573500  0.26540600  1
  Cu  Cu12  1  0.01338900  0.77728400  0.99502500  1
  Cu  Cu13  1  0.00497500  0.51338900  0.72271600  1
  Cu  Cu14  1  0.27728400  0.50497500  0.98661100  1
  Cu  Cu15  1  0.51338900  0.72271600  0.00497500  1
  Cu  Cu16  1  0.50497500  0.98661100  0.27728400  1
  Cu  Cu17  1  0.77728400  0.99502500  0.01338900  1
  Cu  Cu18  1  0.98661100  0.27728400  0.50497500  1
  Cu  Cu19  1  0.99502500  0.01338900  0.77728400  1
  Cu  Cu20  1  0.72271600  0.00497500  0.51338900  1
  Cu  Cu21  1  0.48661100  0.22271600  0.49502500  1
  Cu  Cu22  1  0.49502500  0.48661100  0.22271600  1
  Cu  Cu23  1  0.22271600  0.49502500  0.48661100  1
  Cu  Cu24  1  0.35640100  0.85640100  0.64359900  1
  Cu  Cu25  1  0.85640100  0.64359900  0.35640100  1
  Cu  Cu26  1  0.64359900  0.35640100  0.85640100  1
  Cu  Cu27  1  0.14359900  0.14359900  0.14359900  1
  P  P0  1  0.74724000  0.24724000  0.25276000  1
  P  P1  1  0.24724000  0.25276000  0.74724000  1
  P  P2  1  0.25276000  0.74724000  0.24724000  1
  P  P3  1  0.75276000  0.75276000  0.75276000  1
  S  S0  1  0.87168900  0.37168900  0.12831100  1
  S  S1  1  0.37168900  0.12831100  0.87168900  1
  S  S2  1  0.12831100  0.87168900  0.37168900  1
  S  S3  1  0.62831100  0.62831100  0.62831100  1
  S  S4  1  0.36952500  0.87096100  0.11659200  1
  S  S5  1  0.88340800  0.86952500  0.62903900  1
  S  S6  1  0.37096100  0.38340800  0.63047500  1
  S  S7  1  0.86952500  0.62903900  0.88340800  1
  S  S8  1  0.38340800  0.63047500  0.37096100  1
  S  S9  1  0.87096100  0.11659200  0.36952500  1
  S  S10  1  0.63047500  0.37096100  0.38340800  1
  S  S11  1  0.11659200  0.36952500  0.87096100  1
  S  S12  1  0.62903900  0.88340800  0.86952500  1
  S  S13  1  0.13047500  0.12903900  0.61659200  1
  S  S14  1  0.61659200  0.13047500  0.12903900  1
  S  S15  1  0.12903900  0.61659200  0.13047500  1
  S  S16  1  0.22752000  0.72752000  0.77248000  1
  S  S17  1  0.72752000  0.77248000  0.22752000  1
  S  S18  1  0.77248000  0.22752000  0.72752000  1
  S  S19  1  0.27248000  0.27248000  0.27248000  1
  S  S20  1  0.48732900  0.98732900  0.51267100  1
  S  S21  1  0.98732900  0.51267100  0.48732900  1
  S  S22  1  0.51267100  0.48732900  0.98732900  1
  S  S23  1  0.01267100  0.01267100  0.01267100  1
loop_
_geom_bond_atom_site_label_1
_geom_bond_atom_site_label_2
_geom_bond_distance
_geom_bond_site_symmetry_2
Cu0 S16 2.304958 1_555
Cu0 S1 2.377999 1_565
Cu0 S4 2.470193 1_556
Cu0 S23 2.516767 1_566
Cu1 S16 2.304958 1_555
Cu1 S2 2.377999 1_555
Cu1 S5 2.470193 1_455
Cu1 S21 2.516767 1_455
Cu2 S16 2.304958 1_555
Cu2 S3 2.377999 1_555
Cu2 S6 2.470193 1_555
Cu2 S22 2.516767 1_555
Cu3 S17 2.304958 1_555
Cu3 S0 2.377999 1_555
Cu3 S7 2.470193 1_554
Cu3 S22 2.516767 1_554
Cu4 S17 2.304958 1_555
Cu4 S3 2.377999 1_555
Cu4 S8 2.470193 1_555
Cu4 S20 2.516767 1_555
Cu5 S17 2.304958 1_555
Cu5 S2 2.377999 1_655
Cu5 S9 2.470193 1_565
Cu5 S23 2.516767 1_665
Cu6 S18 2.304958 1_555
Cu6 S3 2.377999 1_555
Cu6 S10 2.470193 1_555
Cu6 S21 2.516767 1_555
Cu7 S18 2.304958 1_555
Cu7 S0 2.377999 1_556
Cu7 S11 2.470193 1_655
Cu7 S23 2.516767 1_656
Cu8 S18 2.304958 1_555
Cu8 S1 2.377999 1_555
Cu8 S12 2.470193 1_545
Cu8 S20 2.516767 1_545
Cu9 S19 2.304958 1_555
Cu9 S2 2.377999 1_545
Cu9 S13 2.470193 1_555
Cu9 S20 2.516767 1_545
Cu10 S19 2.304958 1_555
Cu10 S1 2.377999 1_554
Cu10 S14 2.470193 1_555
Cu10 S22 2.516767 1_554
Cu11 S19 2.304958 1_555
Cu11 S0 2.377999 1_455
Cu11 S15 2.470193 1_555
Cu11 S21 2.516767 1_455
Cu12 S7 2.262879 1_455
Cu12 S23 2.274897 1_566
Cu12 S15 2.311845 1_556
Cu13 S11 2.262879 1_555
Cu13 S21 2.274897 1_455
Cu13 S7 2.311845 1_455
Cu14 S15 2.262879 1_556
Cu14 S22 2.274897 1_555
Cu14 S11 2.311845 1_555
Cu15 S4 2.262879 1_555
Cu15 S22 2.274897 1_554
Cu15 S12 2.311845 1_554
Cu16 S14 2.262879 1_565
Cu16 S20 2.274897 1_555
Cu16 S4 2.311845 1_555
Cu17 S12 2.262879 1_554
Cu17 S23 2.274897 1_665
Cu17 S14 2.311845 1_565
Cu18 S13 2.262879 1_655
Cu18 S21 2.274897 1_555
Cu18 S9 2.311845 1_555
Cu19 S5 2.262879 1_545
Cu19 S23 2.274897 1_656
Cu19 S13 2.311845 1_655
Cu20 S9 2.262879 1_555
Cu20 S20 2.274897 1_545
Cu20 S5 2.311845 1_545
Cu21 S10 2.262879 1_555
Cu21 S20 2.274897 1_545
Cu21 S6 2.311845 1_555
Cu22 S8 2.262879 1_555
Cu22 S22 2.274897 1_554
Cu22 S10 2.311845 1_555
Cu23 S6 2.262879 1_555
Cu23 S21 2.274897 1_455
Cu23 S8 2.311845 1_555
Cu24 S16 2.151344 1_555
Cu24 S20 2.185514 1_555
Cu25 S17 2.151344 1_555
Cu25 S21 2.185514 1_555
Cu26 S18 2.151344 1_555
Cu26 S22 2.185514 1_555
Cu27 S19 2.151344 1_555
Cu27 S23 2.185514 1_555
P0 S9 2.067215 1_555
P0 S14 2.067215 1_555
P0 S10 2.067215 1_555
P0 S0 2.077363 1_555
P1 S11 2.067215 1_555
P1 S13 2.067215 1_555
P1 S6 2.067215 1_555
P1 S1 2.077363 1_555
P2 S15 2.067215 1_555
P2 S4 2.067215 1_555
P2 S8 2.067215 1_555
P2 S2 2.077363 1_555
P3 S5 2.067215 1_555
P3 S12 2.067215 1_555
P3 S7 2.067215 1_555
P3 S3 2.077363 1_555
