# generated using pymatgen
data_Ba2Zr2(SiO4)3
_symmetry_space_group_name_H-M   'P 1'
_cell_length_a   10.46486500
_cell_length_b   10.46486500
_cell_length_c   10.46486500
_cell_angle_alpha   90.00000000
_cell_angle_beta   90.00000000
_cell_angle_gamma   90.00000000
_symmetry_Int_Tables_number   1
_chemical_formula_structural   Ba2Zr2(SiO4)3
_chemical_formula_sum   'Ba8 Zr8 Si12 O48'
_cell_volume   1146.04294113
_cell_formula_units_Z   4
loop_
 _symmetry_equiv_pos_site_id
 _symmetry_equiv_pos_as_xyz
  1  'x, y, z'
loop_
 _atom_site_type_symbol
 _atom_site_label
 _atom_site_symmetry_multiplicity
 _atom_site_fract_x
 _atom_site_fract_y
 _atom_site_fract_z
 _atom_site_occupancy
  Ba  Ba0  1  0.05200500  0.05200500  0.05200500  1
  Ba  Ba1  1  0.44799500  0.94799500  0.55200500  1
  Ba  Ba2  1  0.94799500  0.55200500  0.44799500  1
  Ba  Ba3  1  0.55200500  0.44799500  0.94799500  1
  Ba  Ba4  1  0.81564400  0.81564400  0.81564400  1
  Ba  Ba5  1  0.68435600  0.18435600  0.31564400  1
  Ba  Ba6  1  0.18435600  0.31564400  0.68435600  1
  Ba  Ba7  1  0.31564400  0.68435600  0.18435600  1
  Zr  Zr0  1  0.33487100  0.33487100  0.33487100  1
  Zr  Zr1  1  0.16512900  0.66512900  0.83487100  1
  Zr  Zr2  1  0.66512900  0.83487100  0.16512900  1
  Zr  Zr3  1  0.83487100  0.16512900  0.66512900  1
  Zr  Zr4  1  0.60067500  0.60067500  0.60067500  1
  Zr  Zr5  1  0.89932500  0.39932500  0.10067500  1
  Zr  Zr6  1  0.39932500  0.10067500  0.89932500  1
  Zr  Zr7  1  0.10067500  0.89932500  0.39932500  1
  Si  Si0  1  0.01988600  0.21402200  0.37602000  1
  Si  Si1  1  0.48011400  0.78597800  0.87602000  1
  Si  Si2  1  0.98011400  0.71402200  0.12398000  1
  Si  Si3  1  0.37602000  0.01988600  0.21402200  1
  Si  Si4  1  0.51988600  0.28597800  0.62398000  1
  Si  Si5  1  0.87602000  0.48011400  0.78597800  1
  Si  Si6  1  0.12398000  0.98011400  0.71402200  1
  Si  Si7  1  0.62398000  0.51988600  0.28597800  1
  Si  Si8  1  0.21402200  0.37602000  0.01988600  1
  Si  Si9  1  0.71402200  0.12398000  0.98011400  1
  Si  Si10  1  0.28597800  0.62398000  0.51988600  1
  Si  Si11  1  0.78597800  0.87602000  0.48011400  1
  O  O0  1  0.01275400  0.06669800  0.32128900  1
  O  O1  1  0.48724600  0.93330200  0.82128900  1
  O  O2  1  0.98724600  0.56669800  0.17871100  1
  O  O3  1  0.32128900  0.01275400  0.06669800  1
  O  O4  1  0.51275400  0.43330200  0.67871100  1
  O  O5  1  0.82128900  0.48724600  0.93330200  1
  O  O6  1  0.17871100  0.98724600  0.56669800  1
  O  O7  1  0.67871100  0.51275400  0.43330200  1
  O  O8  1  0.06669800  0.32128900  0.01275400  1
  O  O9  1  0.56669800  0.17871100  0.98724600  1
  O  O10  1  0.43330200  0.67871100  0.51275400  1
  O  O11  1  0.93330200  0.82128900  0.48724600  1
  O  O12  1  0.26477900  0.49361700  0.43700800  1
  O  O13  1  0.23522100  0.50638300  0.93700800  1
  O  O14  1  0.73522100  0.99361700  0.06299200  1
  O  O15  1  0.43700800  0.26477900  0.49361700  1
  O  O16  1  0.76477900  0.00638300  0.56299200  1
  O  O17  1  0.93700800  0.23522100  0.50638300  1
  O  O18  1  0.06299200  0.73522100  0.99361700  1
  O  O19  1  0.56299200  0.76477900  0.00638300  1
  O  O20  1  0.49361700  0.43700800  0.26477900  1
  O  O21  1  0.99361700  0.06299200  0.73522100  1
  O  O22  1  0.00638300  0.56299200  0.76477900  1
  O  O23  1  0.50638300  0.93700800  0.23522100  1
  O  O24  1  0.05111900  0.80833700  0.22835700  1
  O  O25  1  0.44888100  0.19166300  0.72835700  1
  O  O26  1  0.94888100  0.30833700  0.27164300  1
  O  O27  1  0.22835700  0.05111900  0.80833700  1
  O  O28  1  0.55111900  0.69166300  0.77164300  1
  O  O29  1  0.72835700  0.44888100  0.19166300  1
  O  O30  1  0.27164300  0.94888100  0.30833700  1
  O  O31  1  0.77164300  0.55111900  0.69166300  1
  O  O32  1  0.80833700  0.22835700  0.05111900  1
  O  O33  1  0.30833700  0.27164300  0.94888100  1
  O  O34  1  0.69166300  0.77164300  0.55111900  1
  O  O35  1  0.19166300  0.72835700  0.44888100  1
  O  O36  1  0.16603100  0.25659100  0.40696800  1
  O  O37  1  0.33396900  0.74340900  0.90696800  1
  O  O38  1  0.83396900  0.75659100  0.09303200  1
  O  O39  1  0.40696800  0.16603100  0.25659100  1
  O  O40  1  0.66603100  0.24340900  0.59303200  1
  O  O41  1  0.90696800  0.33396900  0.74340900  1
  O  O42  1  0.09303200  0.83396900  0.75659100  1
  O  O43  1  0.59303200  0.66603100  0.24340900  1
  O  O44  1  0.25659100  0.40696800  0.16603100  1
  O  O45  1  0.75659100  0.09303200  0.83396900  1
  O  O46  1  0.24340900  0.59303200  0.66603100  1
  O  O47  1  0.74340900  0.90696800  0.33396900  1
loop_
_geom_bond_atom_site_label_1
_geom_bond_atom_site_label_2
_geom_bond_distance
_geom_bond_site_symmetry_2
Ba0 O0 2.851947 1_555
Ba0 O8 2.851947 1_555
Ba0 O3 2.851947 1_555
Ba0 O24 3.147732 1_545
Ba0 O27 3.147732 1_554
Ba0 O32 3.147732 1_455
Ba0 O21 3.372902 1_454
Ba0 O14 3.372902 1_445
Ba0 O18 3.372902 1_544
Ba1 O1 2.851947 1_555
Ba1 O10 2.851947 1_555
Ba1 O6 2.851947 1_555
Ba1 O34 3.147732 1_555
Ba1 O25 3.147732 1_565
Ba1 O30 3.147732 1_555
Ba1 O16 3.372902 1_565
Ba1 O15 3.372902 1_565
Ba1 O23 3.372902 1_555
Ba2 O11 2.851947 1_555
Ba2 O7 2.851947 1_555
Ba2 O2 2.851947 1_555
Ba2 O31 3.147732 1_555
Ba2 O35 3.147732 1_655
Ba2 O26 3.147732 1_555
Ba2 O22 3.372902 1_655
Ba2 O12 3.372902 1_655
Ba2 O17 3.372902 1_555
Ba3 O5 2.851947 1_555
Ba3 O4 2.851947 1_555
Ba3 O9 2.851947 1_555
Ba3 O28 3.147732 1_555
Ba3 O29 3.147732 1_556
Ba3 O33 3.147732 1_555
Ba3 O19 3.372902 1_556
Ba3 O20 3.372902 1_556
Ba3 O13 3.372902 1_555
Ba4 O45 2.974069 1_565
Ba4 O42 2.974069 1_655
Ba4 O38 2.974069 1_556
Ba4 O31 3.091670 1_555
Ba4 O34 3.091670 1_555
Ba4 O28 3.091670 1_555
Ba4 O21 3.298065 1_565
Ba4 O18 3.298065 1_655
Ba4 O14 3.298065 1_556
Ba4 O19 3.355318 1_556
Ba4 O22 3.355318 1_655
Ba4 O16 3.355318 1_565
Ba5 O47 2.974069 1_545
Ba5 O39 2.974069 1_555
Ba5 O40 2.974069 1_555
Ba5 O26 3.091670 1_555
Ba5 O29 3.091670 1_555
Ba5 O32 3.091670 1_555
Ba5 O16 3.298065 1_555
Ba5 O15 3.298065 1_555
Ba5 O23 3.298065 1_545
Ba5 O17 3.355318 1_555
Ba5 O20 3.355318 1_555
Ba5 O14 3.355318 1_545
Ba6 O41 2.974069 1_455
Ba6 O36 2.974069 1_555
Ba6 O46 2.974069 1_555
Ba6 O33 3.091670 1_555
Ba6 O27 3.091670 1_555
Ba6 O25 3.091670 1_555
Ba6 O22 3.298065 1_555
Ba6 O12 3.298065 1_555
Ba6 O17 3.298065 1_455
Ba6 O13 3.355318 1_555
Ba6 O15 3.355318 1_555
Ba6 O21 3.355318 1_455
Ba7 O37 2.974069 1_554
Ba7 O44 2.974069 1_555
Ba7 O43 2.974069 1_555
Ba7 O30 3.091670 1_555
Ba7 O24 3.091670 1_555
Ba7 O35 3.091670 1_555
Ba7 O19 3.298065 1_555
Ba7 O20 3.298065 1_555
Ba7 O13 3.298065 1_554
Ba7 O23 3.355318 1_555
Ba7 O12 3.355318 1_555
Ba7 O18 3.355318 1_554
O0 Si0 1.646370 1_555
O0 Zr7 2.140402 1_545
O1 Si1 1.646370 1_555
O1 Zr6 2.140402 1_565
O2 Si2 1.646370 1_555
O2 Zr5 2.140402 1_555
O3 Si3 1.646370 1_555
O3 Zr6 2.140402 1_554
O4 Si4 1.646370 1_555
O4 Zr4 2.140402 1_555
O5 Si5 1.646370 1_555
O5 Zr5 2.140402 1_556
O6 Si6 1.646370 1_555
O6 Zr7 2.140402 1_555
O7 Si7 1.646370 1_555
O7 Zr4 2.140402 1_555
O8 Si8 1.646370 1_555
O8 Zr5 2.140402 1_455
O9 Si9 1.646370 1_555
O9 Zr6 2.140402 1_555
O10 Si10 1.646370 1_555
O10 Zr4 2.140402 1_555
O11 Si11 1.646370 1_555
O11 Zr7 2.140402 1_655
O12 Si10 1.631736 1_555
O12 Zr0 2.107187 1_555
O13 Si8 1.631736 1_556
O13 Zr1 2.107187 1_555
O14 Si9 1.631736 1_564
O14 Zr2 2.107187 1_555
O15 Si4 1.631736 1_555
O15 Zr0 2.107187 1_555
O16 Si11 1.631736 1_545
O16 Zr3 2.107187 1_555
O17 Si0 1.631736 1_655
O17 Zr3 2.107187 1_555
O18 Si2 1.631736 1_456
O18 Zr1 2.107187 1_555
O19 Si1 1.631736 1_554
O19 Zr2 2.107187 1_555
O20 Si7 1.631736 1_555
O20 Zr0 2.107187 1_555
O21 Si6 1.631736 1_645
O21 Zr3 2.107187 1_555
O22 Si5 1.631736 1_455
O22 Zr1 2.107187 1_555
O23 Si3 1.631736 1_565
O23 Zr2 2.107187 1_555
O24 Si2 1.649058 1_455
O24 Zr7 2.092048 1_555
O25 Si4 1.649058 1_555
O25 Zr6 2.092048 1_555
O26 Si0 1.649058 1_655
O26 Zr5 2.092048 1_555
O27 Si6 1.649058 1_545
O27 Zr6 2.092048 1_555
O28 Si1 1.649058 1_555
O28 Zr4 2.092048 1_555
O29 Si7 1.649058 1_555
O29 Zr5 2.092048 1_555
O30 Si3 1.649058 1_565
O30 Zr7 2.092048 1_555
O31 Si5 1.649058 1_555
O31 Zr4 2.092048 1_555
O32 Si9 1.649058 1_554
O32 Zr5 2.092048 1_555
O33 Si8 1.649058 1_556
O33 Zr6 2.092048 1_555
O34 Si11 1.649058 1_555
O34 Zr4 2.092048 1_555
O35 Si10 1.649058 1_555
O35 Zr7 2.092048 1_555
O36 Si0 1.625536 1_555
O36 Zr0 2.088591 1_555
O37 Si1 1.625536 1_555
O37 Zr1 2.088591 1_555
O38 Si2 1.625536 1_555
O38 Zr2 2.088591 1_555
O39 Si3 1.625536 1_555
O39 Zr0 2.088591 1_555
O40 Si4 1.625536 1_555
O40 Zr3 2.088591 1_555
O41 Si5 1.625536 1_555
O41 Zr3 2.088591 1_555
O42 Si6 1.625536 1_555
O42 Zr1 2.088591 1_555
O43 Si7 1.625536 1_555
O43 Zr2 2.088591 1_555
O44 Si8 1.625536 1_555
O44 Zr0 2.088591 1_555
O45 Si9 1.625536 1_555
O45 Zr3 2.088591 1_555
O46 Si10 1.625536 1_555
O46 Zr1 2.088591 1_555
O47 Si11 1.625536 1_555
O47 Zr2 2.088591 1_555
