# generated using pymatgen
data_Sm2Cu(GeO4)2
_symmetry_space_group_name_H-M   'P 1'
_cell_length_a   9.09606259
_cell_length_b   9.09606259
_cell_length_c   5.18889386
_cell_angle_alpha   73.79115945
_cell_angle_beta   73.79115945
_cell_angle_gamma   114.78354671
_symmetry_Int_Tables_number   1
_chemical_formula_structural   Sm2Cu(GeO4)2
_chemical_formula_sum   'Sm4 Cu2 Ge4 O16'
_cell_volume   333.41249656
_cell_formula_units_Z   2
loop_
 _symmetry_equiv_pos_site_id
 _symmetry_equiv_pos_as_xyz
  1  'x, y, z'
loop_
 _atom_site_type_symbol
 _atom_site_label
 _atom_site_symmetry_multiplicity
 _atom_site_fract_x
 _atom_site_fract_y
 _atom_site_fract_z
 _atom_site_occupancy
  Sm  Sm0  1  0.29882900  0.53965200  0.81730200  1
  Sm  Sm1  1  0.53965200  0.29882900  0.81730200  1
  Sm  Sm2  1  0.04346200  0.80139100  0.32295800  1
  Sm  Sm3  1  0.80139100  0.04346200  0.32295800  1
  Cu  Cu0  1  0.92623700  0.34020300  0.62118800  1
  Cu  Cu1  1  0.34020300  0.92623700  0.62118800  1
  Ge  Ge0  1  0.16278400  0.16278400  0.62429900  1
  Ge  Ge1  1  0.88854200  0.46759600  0.08127100  1
  Ge  Ge2  1  0.46759600  0.88854200  0.08127100  1
  Ge  Ge3  1  0.66648500  0.66648500  0.02524200  1
  O  O0  1  0.09160400  0.62408300  0.07432600  1
  O  O1  1  0.62408300  0.09160400  0.07432600  1
  O  O2  1  0.06470500  0.25166500  0.41982600  1
  O  O3  1  0.25166500  0.06470500  0.41982600  1
  O  O4  1  0.49535700  0.49535700  0.99152300  1
  O  O5  1  0.75165900  0.26951900  0.44543700  1
  O  O6  1  0.26951900  0.75165900  0.44543700  1
  O  O7  1  0.75800300  0.57360400  0.24226200  1
  O  O8  1  0.57360400  0.75800300  0.24226200  1
  O  O9  1  0.33367400  0.33367400  0.66301000  1
  O  O10  1  0.83306000  0.83306000  0.65236100  1
  O  O11  1  0.83983400  0.49619400  0.75939600  1
  O  O12  1  0.49619400  0.83983400  0.75939600  1
  O  O13  1  0.99872800  0.99872800  0.00537900  1
  O  O14  1  0.00100900  0.34652200  0.92752500  1
  O  O15  1  0.34652200  0.00100900  0.92752500  1
loop_
_geom_bond_atom_site_label_1
_geom_bond_atom_site_label_2
_geom_bond_distance
_geom_bond_site_symmetry_2
Cu0 O14 1.901142 1_655
Cu0 O2 1.977915 1_655
Cu0 O5 2.011600 1_555
Cu0 O11 2.081735 1_555
Cu1 O15 1.901142 1_565
Cu1 O3 1.977915 1_565
Cu1 O6 2.011600 1_555
Cu1 O12 2.081735 1_555
Ge0 O9 1.787658 1_555
Ge0 O13 1.789436 1_446
Ge0 O3 1.797072 1_555
Ge0 O2 1.797072 1_555
Ge1 O0 1.780178 1_655
Ge1 O5 1.808915 1_555
Ge1 O11 1.822260 1_554
Ge1 O14 1.968567 1_654
Ge1 O7 1.973161 1_555
Ge2 O1 1.780178 1_565
Ge2 O6 1.808915 1_555
Ge2 O12 1.822260 1_554
Ge2 O15 1.968567 1_564
Ge2 O8 1.973161 1_555
Ge3 O10 1.771179 1_554
Ge3 O4 1.774620 1_554
Ge3 O8 1.804627 1_555
Ge3 O7 1.804627 1_555
O0 Sm2 2.428096 1_555
O0 Sm0 2.510671 1_554
O1 Sm3 2.428096 1_555
O1 Sm1 2.510671 1_554
O2 Sm3 2.641307 1_455
O2 Sm0 2.864535 1_554
O3 Sm2 2.641307 1_545
O3 Sm1 2.864535 1_554
O4 Sm1 2.340493 1_555
O4 Sm0 2.340493 1_555
O5 Sm1 2.480728 1_555
O5 Sm3 2.487067 1_555
O6 Sm0 2.480728 1_555
O6 Sm2 2.487067 1_555
O7 Sm1 2.731483 1_555
O7 Sm2 2.791293 1_655
O8 Sm0 2.731483 1_555
O8 Sm3 2.791293 1_565
O9 Sm1 2.333534 1_555
O9 Sm0 2.333534 1_555
O10 Sm3 2.361793 1_565
O10 Sm2 2.361793 1_655
O11 Sm1 2.428964 1_555
O11 Sm2 2.470525 1_655
O12 Sm0 2.428964 1_555
O12 Sm3 2.470525 1_565
O13 Sm3 2.332041 1_565
O13 Sm2 2.332041 1_655
O14 Sm0 2.309999 1_555
O14 Sm3 2.381605 1_456
O15 Sm1 2.309999 1_555
O15 Sm2 2.381605 1_546
