# generated using pymatgen
data_K4NaCl5
_symmetry_space_group_name_H-M   'P 1'
_cell_length_a   15.87831481
_cell_length_b   15.87831481
_cell_length_c   15.87831481
_cell_angle_alpha   163.91046692
_cell_angle_beta   163.91046692
_cell_angle_gamma   22.83007759
_symmetry_Int_Tables_number   1
_chemical_formula_structural   K4NaCl5
_chemical_formula_sum   'K4 Na1 Cl5'
_cell_volume   307.41301959
_cell_formula_units_Z   1
loop_
 _symmetry_equiv_pos_site_id
 _symmetry_equiv_pos_as_xyz
  1  'x, y, z'
loop_
 _atom_site_type_symbol
 _atom_site_label
 _atom_site_symmetry_multiplicity
 _atom_site_fract_x
 _atom_site_fract_y
 _atom_site_fract_z
 _atom_site_occupancy
  K  K0  1  0.40273800  0.40273800  0.00000000  1
  K  K1  1  0.80181100  0.80181100  0.00000000  1
  K  K2  1  0.19818900  0.19818900  0.00000000  1
  K  K3  1  0.59726200  0.59726200  0.00000000  1
  Na  Na0  1  0.00000000  0.00000000  0.00000000  1
  Cl  Cl0  1  0.09370100  0.09370100  0.00000000  1
  Cl  Cl1  1  0.50000000  0.50000000  0.00000000  1
  Cl  Cl2  1  0.90629900  0.90629900  0.00000000  1
  Cl  Cl3  1  0.30034600  0.30034600  0.00000000  1
  Cl  Cl4  1  0.69965400  0.69965400  0.00000000  1
loop_
_geom_bond_atom_site_label_1
_geom_bond_atom_site_label_2
_geom_bond_distance
_geom_bond_site_symmetry_2
Cl0 Na0 2.916768 1_555
Cl0 K3 3.144505 1_444
Cl0 K3 3.144505 1_455
Cl0 K3 3.144505 1_545
Cl0 K3 3.144505 1_556
Cl0 K2 3.252551 1_555
Cl1 K3 3.027616 1_555
Cl1 K0 3.027616 1_555
Cl1 Na0 3.142551 1_554
Cl1 Na0 3.142551 1_565
Cl1 Na0 3.142551 1_655
Cl1 Na0 3.142551 1_666
Cl2 Na0 2.916768 1_665
Cl2 K0 3.144505 1_554
Cl2 K0 3.144505 1_666
Cl2 K0 3.144505 1_565
Cl2 K0 3.144505 1_655
Cl2 K1 3.252551 1_555
Cl3 K1 3.142882 1_455
Cl3 K1 3.142882 1_545
Cl3 K1 3.142882 1_556
Cl3 K1 3.142882 1_444
Cl3 K2 3.179990 1_555
Cl3 K0 3.187305 1_555
Cl4 K2 3.142882 1_554
Cl4 K2 3.142882 1_655
Cl4 K2 3.142882 1_565
Cl4 K2 3.142882 1_666
Cl4 K1 3.179990 1_555
Cl4 K3 3.187305 1_555
