# generated using pymatgen
data_Li6Fe5WO12
_symmetry_space_group_name_H-M   'P 1'
_cell_length_a   5.23621478
_cell_length_b   5.23621478
_cell_length_c   10.22215108
_cell_angle_alpha   86.55461312
_cell_angle_beta   86.55461312
_cell_angle_gamma   120.82591505
_symmetry_Int_Tables_number   1
_chemical_formula_structural   Li6Fe5WO12
_chemical_formula_sum   'Li6 Fe5 W1 O12'
_cell_volume   238.88662124
_cell_formula_units_Z   1
loop_
 _symmetry_equiv_pos_site_id
 _symmetry_equiv_pos_as_xyz
  1  'x, y, z'
loop_
 _atom_site_type_symbol
 _atom_site_label
 _atom_site_symmetry_multiplicity
 _atom_site_fract_x
 _atom_site_fract_y
 _atom_site_fract_z
 _atom_site_occupancy
  Li  Li0  1  0.30136800  0.94705400  0.24348700  1
  Li  Li1  1  0.05294600  0.69863200  0.75651300  1
  Li  Li2  1  0.38532800  0.38532800  0.75229100  1
  Li  Li3  1  0.61467200  0.61467200  0.24770900  1
  Li  Li4  1  0.94705400  0.30136800  0.24348700  1
  Li  Li5  1  0.69863200  0.05294600  0.75651300  1
  Fe  Fe0  1  0.67128400  0.32871600  0.00000000  1
  Fe  Fe1  1  0.50000000  0.50000000  0.50000000  1
  Fe  Fe2  1  0.32871600  0.67128400  0.00000000  1
  Fe  Fe3  1  0.83517700  0.16482300  0.50000000  1
  Fe  Fe4  1  0.16482300  0.83517700  0.50000000  1
  W  W0  1  0.00000000  0.00000000  0.00000000  1
  O  O0  1  0.65326900  0.96742400  0.11858200  1
  O  O1  1  0.03257600  0.34673100  0.88141800  1
  O  O2  1  0.53358200  0.19643900  0.38774200  1
  O  O3  1  0.13761800  0.13761800  0.60772600  1
  O  O4  1  0.80356100  0.46641800  0.61225800  1
  O  O5  1  0.27807800  0.27807800  0.11602800  1
  O  O6  1  0.72192200  0.72192200  0.88397200  1
  O  O7  1  0.19643900  0.53358200  0.38774200  1
  O  O8  1  0.86238200  0.86238200  0.39227400  1
  O  O9  1  0.46641800  0.80356100  0.61225800  1
  O  O10  1  0.96742400  0.65326900  0.11858200  1
  O  O11  1  0.34673100  0.03257600  0.88141800  1
loop_
_geom_bond_atom_site_label_1
_geom_bond_atom_site_label_2
_geom_bond_distance
_geom_bond_site_symmetry_2
Li0 O2 2.043963 1_565
Li0 O0 2.129860 1_555
Li0 O5 2.163585 1_565
Li0 O10 2.191321 1_455
Li0 O7 2.337401 1_555
Li0 O8 2.499549 1_455
Li1 O4 2.043963 1_455
Li1 O1 2.129860 1_555
Li1 O6 2.163585 1_455
Li1 O11 2.191321 1_565
Li1 O9 2.337401 1_555
Li1 O3 2.499549 1_565
Li2 O3 2.070048 1_555
Li2 O11 2.118293 1_555
Li2 O1 2.118293 1_555
Li2 O6 2.326217 1_555
Li2 O9 2.371160 1_555
Li2 O4 2.371160 1_555
Li3 O8 2.070048 1_555
Li3 O10 2.118293 1_555
Li3 O0 2.118293 1_555
Li3 O5 2.326217 1_555
Li3 O2 2.371160 1_555
Li3 O7 2.371160 1_555
Li4 O7 2.043963 1_655
Li4 O10 2.129860 1_555
Li4 O5 2.163585 1_655
Li4 O0 2.191321 1_545
Li4 O2 2.337401 1_555
Li4 O8 2.499549 1_545
Li5 O9 2.043963 1_545
Li5 O11 2.129860 1_555
Li5 O6 2.163585 1_545
Li5 O1 2.191321 1_655
Li5 O4 2.337401 1_555
Li5 O3 2.499549 1_655
Fe0 O10 2.129484 1_555
Fe0 O11 2.129484 1_554
Fe0 O0 2.141236 1_545
Fe0 O1 2.141236 1_654
Fe0 O5 2.196666 1_555
Fe0 O6 2.196666 1_554
Fe1 O3 2.054593 1_555
Fe1 O8 2.054593 1_555
Fe1 O9 2.087030 1_555
Fe1 O4 2.087030 1_555
Fe1 O7 2.087030 1_555
Fe1 O2 2.087030 1_555
Fe2 O0 2.129484 1_555
Fe2 O1 2.129484 1_554
Fe2 O10 2.141236 1_455
Fe2 O11 2.141236 1_564
Fe2 O5 2.196666 1_555
Fe2 O6 2.196666 1_554
Fe3 O3 2.040295 1_655
Fe3 O8 2.040295 1_545
Fe3 O2 2.073896 1_555
Fe3 O4 2.073896 1_555
Fe3 O9 2.086356 1_545
Fe3 O7 2.086356 1_655
Fe4 O3 2.040295 1_565
Fe4 O8 2.040295 1_455
Fe4 O9 2.073896 1_555
Fe4 O7 2.073896 1_555
Fe4 O4 2.086356 1_455
Fe4 O2 2.086356 1_565
O0 W0 2.046443 1_665
O1 W0 2.046443 1_556
O5 W0 1.972136 1_555
O6 W0 1.972136 1_666
O10 W0 2.046443 1_665
O11 W0 2.046443 1_556
