# generated using pymatgen
data_K2SrBe2F8
_symmetry_space_group_name_H-M   'P 1'
_cell_length_a   7.60743885
_cell_length_b   7.60743885
_cell_length_c   7.60743864
_cell_angle_alpha   42.33660954
_cell_angle_beta   42.33660954
_cell_angle_gamma   42.33661185
_symmetry_Int_Tables_number   1
_chemical_formula_structural   K2SrBe2F8
_chemical_formula_sum   'K2 Sr1 Be2 F8'
_cell_volume   180.76208048
_cell_formula_units_Z   1
loop_
 _symmetry_equiv_pos_site_id
 _symmetry_equiv_pos_as_xyz
  1  'x, y, z'
loop_
 _atom_site_type_symbol
 _atom_site_label
 _atom_site_symmetry_multiplicity
 _atom_site_fract_x
 _atom_site_fract_y
 _atom_site_fract_z
 _atom_site_occupancy
  K  K0  1  0.20226300  0.20226300  0.20226300  1
  K  K1  1  0.79773700  0.79773700  0.79773700  1
  Sr  Sr0  1  0.00000000  0.00000000  0.00000000  1
  Be  Be0  1  0.59861600  0.59861600  0.59861600  1
  Be  Be1  1  0.40138400  0.40138400  0.40138400  1
  F  F0  1  0.73058700  0.26154000  0.73058700  1
  F  F1  1  0.26154000  0.73058700  0.73058700  1
  F  F2  1  0.73058700  0.73058700  0.26154000  1
  F  F3  1  0.32662100  0.32662100  0.32662100  1
  F  F4  1  0.67337900  0.67337900  0.67337900  1
  F  F5  1  0.73846000  0.26941300  0.26941300  1
  F  F6  1  0.26941300  0.26941300  0.73846000  1
  F  F7  1  0.26941300  0.73846000  0.26941300  1
loop_
_geom_bond_atom_site_label_1
_geom_bond_atom_site_label_2
_geom_bond_distance
_geom_bond_site_symmetry_2
Be0 F4 1.550857 1_555
Be0 F2 1.571448 1_555
Be0 F1 1.571448 1_555
Be0 F0 1.571448 1_555
Be1 F3 1.550857 1_555
Be1 F6 1.571448 1_555
Be1 F5 1.571448 1_555
Be1 F7 1.571448 1_555
F0 Sr0 2.552000 1_656
F0 K1 2.833298 1_545
F0 K0 2.863351 1_655
F0 K0 2.863352 1_556
F1 Sr0 2.552000 1_566
F1 K1 2.833298 1_455
F1 K0 2.863351 1_565
F1 K0 2.863352 1_556
F2 Sr0 2.552000 1_665
F2 K1 2.833298 1_554
F2 K0 2.863352 1_655
F2 K0 2.863352 1_565
F3 K0 2.579638 1_555
F4 K1 2.579638 1_555
F5 Sr0 2.552000 1_655
F5 K0 2.833298 1_655
F5 K1 2.863351 1_545
F5 K1 2.863352 1_554
F6 Sr0 2.552000 1_556
F6 K0 2.833298 1_556
F6 K1 2.863352 1_455
F6 K1 2.863352 1_545
F7 Sr0 2.552000 1_565
F7 K0 2.833298 1_565
F7 K1 2.863351 1_455
F7 K1 2.863352 1_554
