# generated using pymatgen
data_Er3CuSnS7
_symmetry_space_group_name_H-M   'P 1'
_cell_length_a   6.15978800
_cell_length_b   9.72177692
_cell_length_c   9.72072372
_cell_angle_alpha   119.99664713
_cell_angle_beta   90.00000000
_cell_angle_gamma   90.00000000
_symmetry_Int_Tables_number   1
_chemical_formula_structural   Er3CuSnS7
_chemical_formula_sum   'Er6 Cu2 Sn2 S14'
_cell_volume   504.14483295
_cell_formula_units_Z   2
loop_
 _symmetry_equiv_pos_site_id
 _symmetry_equiv_pos_as_xyz
  1  'x, y, z'
loop_
 _atom_site_type_symbol
 _atom_site_label
 _atom_site_symmetry_multiplicity
 _atom_site_fract_x
 _atom_site_fract_y
 _atom_site_fract_z
 _atom_site_occupancy
  Er  Er0  1  0.26702900  0.21688800  0.35862100  1
  Er  Er1  1  0.26686700  0.64158000  0.85827800  1
  Er  Er2  1  0.26693600  0.14167300  0.78317300  1
  Er  Er3  1  0.76702900  0.78311200  0.64137900  1
  Er  Er4  1  0.76686700  0.35842000  0.14172200  1
  Er  Er5  1  0.76693600  0.85832700  0.21682700  1
  Cu  Cu0  1  0.16786700  0.00107300  0.00114700  1
  Cu  Cu1  1  0.66786700  0.99892700  0.99885300  1
  Sn  Sn0  1  0.82935700  0.33341300  0.66682200  1
  Sn  Sn1  1  0.32935700  0.66658700  0.33317800  1
  S  S0  1  0.69316700  0.15164500  0.26178700  1
  S  S1  1  0.69337600  0.73708000  0.88933900  1
  S  S2  1  0.69324300  0.11041100  0.84801900  1
  S  S3  1  0.19316700  0.84835500  0.73821300  1
  S  S4  1  0.19337600  0.26292000  0.11066100  1
  S  S5  1  0.19324300  0.88958900  0.15198100  1
  S  S6  1  0.01626400  0.08311600  0.51467800  1
  S  S7  1  0.01631500  0.48531100  0.56834900  1
  S  S8  1  0.01640900  0.43165200  0.91709700  1
  S  S9  1  0.51626400  0.91688400  0.48532200  1
  S  S10  1  0.51631500  0.51468900  0.43165100  1
  S  S11  1  0.51640900  0.56834800  0.08290300  1
  S  S12  1  0.44117100  0.33335100  0.66670900  1
  S  S13  1  0.94117100  0.66664900  0.33329100  1
loop_
_geom_bond_atom_site_label_1
_geom_bond_atom_site_label_2
_geom_bond_distance
_geom_bond_site_symmetry_2
Er0 S4 2.700823 1_555
Er0 S0 2.753465 1_555
Er0 S5 2.824043 1_545
Er0 S12 2.830396 1_555
Er0 S7 2.833991 1_555
Er0 S6 2.889839 1_555
Er0 S10 3.031290 1_555
Er1 S5 2.699463 1_556
Er1 S1 2.752282 1_555
Er1 S3 2.820492 1_555
Er1 S12 2.831995 1_555
Er1 S8 2.835311 1_555
Er1 S7 2.889924 1_555
Er1 S11 3.031791 1_556
Er2 S3 2.698669 1_545
Er2 S2 2.752624 1_555
Er2 S4 2.824334 1_556
Er2 S12 2.831152 1_555
Er2 S6 2.834529 1_555
Er2 S8 2.890322 1_555
Er2 S9 3.031619 1_545
Er3 S1 2.700823 1_555
Er3 S3 2.753465 1_655
Er3 S2 2.824043 1_565
Er3 S13 2.830396 1_555
Er3 S10 2.833991 1_555
Er3 S9 2.889839 1_555
Er3 S7 3.031290 1_655
Er4 S2 2.699463 1_554
Er4 S4 2.752282 1_655
Er4 S0 2.820492 1_555
Er4 S13 2.831995 1_555
Er4 S11 2.835311 1_555
Er4 S10 2.889924 1_555
Er4 S8 3.031791 1_654
Er5 S0 2.698669 1_565
Er5 S5 2.752624 1_655
Er5 S1 2.824334 1_554
Er5 S13 2.831152 1_555
Er5 S9 2.834529 1_555
Er5 S11 2.890322 1_555
Er5 S6 3.031619 1_665
Cu0 S4 2.220014 1_555
Cu0 S5 2.222127 1_545
Cu0 S3 2.228657 1_544
Cu1 S1 2.220014 1_555
Cu1 S2 2.222127 1_565
Cu1 S0 2.228657 1_566
S6 Sn0 2.415677 1_455
S7 Sn0 2.415912 1_455
S8 Sn0 2.415616 1_455
S9 Sn1 2.415677 1_555
S10 Sn1 2.415912 1_555
S11 Sn1 2.415616 1_555
S12 Sn0 2.391144 1_555
S13 Sn1 2.391144 1_655
