# generated using pymatgen
data_K3RbMn2F12
_symmetry_space_group_name_H-M   'P 1'
_cell_length_a   5.98525727
_cell_length_b   8.46117700
_cell_length_c   5.98525727
_cell_angle_alpha   90.00000000
_cell_angle_beta   90.00000000
_cell_angle_gamma   90.00000000
_symmetry_Int_Tables_number   1
_chemical_formula_structural   K3RbMn2F12
_chemical_formula_sum   'K3 Rb1 Mn2 F12'
_cell_volume   303.10732045
_cell_formula_units_Z   1
loop_
 _symmetry_equiv_pos_site_id
 _symmetry_equiv_pos_as_xyz
  1  'x, y, z'
loop_
 _atom_site_type_symbol
 _atom_site_label
 _atom_site_symmetry_multiplicity
 _atom_site_fract_x
 _atom_site_fract_y
 _atom_site_fract_z
 _atom_site_occupancy
  K  K0  1  0.00000000  0.75000000  0.50000000  1
  K  K1  1  0.50000000  0.75000000  0.00000000  1
  K  K2  1  0.00000000  0.25000000  0.50000000  1
  Rb  Rb0  1  0.50000000  0.25000000  0.00000000  1
  Mn  Mn0  1  0.00000000  0.99900100  0.00000000  1
  Mn  Mn1  1  0.50000000  0.50099900  0.50000000  1
  F  F0  1  0.00000000  0.21722200  0.00000000  1
  F  F1  1  0.50000000  0.71899600  0.50000000  1
  F  F2  1  0.28077500  0.50158300  0.28320500  1
  F  F3  1  0.78320500  0.99841700  0.78077500  1
  F  F4  1  0.28077500  0.50158300  0.71679500  1
  F  F5  1  0.78320500  0.99841700  0.21922500  1
  F  F6  1  0.00000000  0.78100400  0.00000000  1
  F  F7  1  0.50000000  0.28277800  0.50000000  1
  F  F8  1  0.71922500  0.50158300  0.71679500  1
  F  F9  1  0.21679500  0.99841700  0.21922500  1
  F  F10  1  0.71922500  0.50158300  0.28320500  1
  F  F11  1  0.21679500  0.99841700  0.78077500  1
loop_
_geom_bond_atom_site_label_1
_geom_bond_atom_site_label_2
_geom_bond_distance
_geom_bond_site_symmetry_2
F0 Mn0 1.846407 1_545
F0 Rb0 3.005452 1_555
F0 K2 3.005452 1_554
F0 K2 3.005452 1_555
F0 Rb0 3.005452 1_455
F1 Mn1 1.844511 1_555
F1 K1 3.004104 1_556
F1 K1 3.004104 1_555
F1 K0 3.004104 1_555
F1 K0 3.004104 1_655
F2 Mn1 1.845366 1_555
F2 K0 2.987607 1_555
F2 K1 3.002141 1_555
F2 K2 3.006514 1_555
F2 Rb0 3.020957 1_555
F3 Mn0 1.845366 1_656
F3 K0 2.987607 1_655
F3 K1 3.002141 1_556
F3 K2 3.006514 1_665
F3 Rb0 3.020957 1_566
F4 Mn1 1.845366 1_555
F4 K0 2.987607 1_555
F4 K1 3.002141 1_556
F4 K2 3.006514 1_555
F4 Rb0 3.020957 1_556
F5 Mn0 1.845366 1_655
F5 K0 2.987607 1_655
F5 K1 3.002141 1_555
F5 K2 3.006514 1_665
F5 Rb0 3.020957 1_565
F6 Mn0 1.844511 1_555
F6 K0 3.004104 1_554
F6 K1 3.004104 1_455
F6 K0 3.004104 1_555
F6 K1 3.004104 1_555
F7 Mn1 1.846407 1_555
F7 Rb0 3.005452 1_556
F7 K2 3.005452 1_655
F7 Rb0 3.005452 1_555
F7 K2 3.005452 1_555
F8 Mn1 1.845366 1_555
F8 K0 2.987607 1_655
F8 K1 3.002141 1_556
F8 K2 3.006514 1_655
F8 Rb0 3.020957 1_556
F9 Mn0 1.845366 1_555
F9 K0 2.987607 1_555
F9 K1 3.002141 1_555
F9 K2 3.006514 1_565
F9 Rb0 3.020957 1_565
F10 Mn1 1.845366 1_555
F10 K0 2.987607 1_655
F10 K1 3.002141 1_555
F10 K2 3.006514 1_655
F10 Rb0 3.020957 1_555
F11 Mn0 1.845366 1_556
F11 K0 2.987607 1_555
F11 K1 3.002141 1_556
F11 K2 3.006514 1_565
F11 Rb0 3.020957 1_566
