# generated using pymatgen
data_Tm3(Al3Os)4
_symmetry_space_group_name_H-M   'P 1'
_cell_length_a   8.74143818
_cell_length_b   8.74143889
_cell_length_c   9.47348080
_cell_angle_alpha   90.00000123
_cell_angle_beta   89.99999097
_cell_angle_gamma   120.00000677
_symmetry_Int_Tables_number   1
_chemical_formula_structural   Tm3(Al3Os)4
_chemical_formula_sum   'Tm6 Al24 Os8'
_cell_volume   626.91115518
_cell_formula_units_Z   2
loop_
 _symmetry_equiv_pos_site_id
 _symmetry_equiv_pos_as_xyz
  1  'x, y, z'
loop_
 _atom_site_type_symbol
 _atom_site_label
 _atom_site_symmetry_multiplicity
 _atom_site_fract_x
 _atom_site_fract_y
 _atom_site_fract_z
 _atom_site_occupancy
  Tm  Tm0  1  0.19370293  0.38740535  0.24999133  1
  Tm  Tm1  1  0.80629784  0.61259501  0.75000874  1
  Tm  Tm2  1  0.61259494  0.80629735  0.24999126  1
  Tm  Tm3  1  0.38740519  0.19370237  0.75000866  1
  Tm  Tm4  1  0.19370269  0.80629699  0.24999122  1
  Tm  Tm5  1  0.80629764  0.19370261  0.75000874  1
  Al  Al0  1  0.33333333  0.66666648  0.01468757  1
  Al  Al1  1  0.66666664  0.33333327  0.98531224  1
  Al  Al2  1  0.66666682  0.33333325  0.51474038  1
  Al  Al3  1  0.33333361  0.66666656  0.48526014  1
  Al  Al4  1  0.16316933  0.32633828  0.57595134  1
  Al  Al5  1  0.83683093  0.67366132  0.42404896  1
  Al  Al6  1  0.67366172  0.83683066  0.57595133  1
  Al  Al7  1  0.83683424  0.67366826  0.07596896  1
  Al  Al8  1  0.32633872  0.16316912  0.42404901  1
  Al  Al9  1  0.16316585  0.32633159  0.92403117  1
  Al  Al10  1  0.16316932  0.83683054  0.57595123  1
  Al  Al11  1  0.32633166  0.16316585  0.07596910  1
  Al  Al12  1  0.83683066  0.16316902  0.42404880  1
  Al  Al13  1  0.67366833  0.83683418  0.92403099  1
  Al  Al14  1  0.83683410  0.16316572  0.07596888  1
  Al  Al15  1  0.16316577  0.83683389  0.92403100  1
  Al  Al16  1  0.56106799  0.12213616  0.25000320  1
  Al  Al17  1  0.43893193  0.87786359  0.74999689  1
  Al  Al18  1  0.87786348  0.43893167  0.25000292  1
  Al  Al19  1  0.12213590  0.56106776  0.74999664  1
  Al  Al20  1  0.56106823  0.43893171  0.25000343  1
  Al  Al21  1  0.43893154  0.56106801  0.74999709  1
  Al  Al22  1  0.00000011  0.00000005  0.24999968  1
  Al  Al23  1  -0.00000016  0.00000002  0.74999976  1
  Os  Os0  1  0.49999948  -0.00000070  -0.00000044  1
  Os  Os1  1  0.00000073  0.50000010  -0.00000036  1
  Os  Os2  1  0.49999950  -0.00000114  0.50000056  1
  Os  Os3  1  0.49999949  0.50000012  -0.00000010  1
  Os  Os4  1  0.00000131  0.50000045  0.49999987  1
  Os  Os5  1  0.49999956  0.50000026  0.50000068  1
  Os  Os6  1  0.00000036  0.00000023  -0.00000060  1
  Os  Os7  1  0.00000029  0.00000007  0.49999972  1
loop_
_geom_bond_atom_site_label_1
_geom_bond_atom_site_label_2
_geom_bond_distance
_geom_bond_site_symmetry_2
Tm0 Tm4 3.661717 1_555
Tm0 Tm2 3.661718 1_555
Tm1 Tm5 3.661721 1_555
Tm1 Tm3 3.661724 1_555
Tm2 Tm4 3.661719 1_555
Tm3 Tm5 3.661721 1_555
Al0 Os3 2.527263 1_555
Al0 Os1 2.527264 1_555
Al0 Os0 2.527265 1_565
Al0 Al9 2.715812 1_554
Al0 Al13 2.715813 1_554
Al0 Al15 2.715813 1_554
Al0 Al21 2.973885 1_554
Al0 Al17 2.973889 1_554
Al0 Al19 2.973892 1_554
Al0 Tm4 3.072210 1_555
Al0 Tm0 3.072211 1_555
Al0 Tm2 3.072213 1_555
Al1 Os0 2.527274 1_556
Al1 Os3 2.527274 1_556
Al1 Os1 2.527275 1_656
Al1 Al11 2.715814 1_556
Al1 Al7 2.715814 1_556
Al1 Al14 2.715814 1_556
Al1 Al18 2.973888 1_556
Al1 Al16 2.973891 1_556
Al1 Al20 2.973892 1_556
Al1 Tm3 3.072211 1_555
Al1 Tm5 3.072212 1_555
Al1 Tm1 3.072212 1_555
Al2 Os5 2.527304 1_555
Al2 Os2 2.527304 1_555
Al2 Os4 2.527305 1_655
Al2 Al5 2.715868 1_555
Al2 Al8 2.715868 1_555
Al2 Al20 2.974258 1_555
Al2 Tm3 3.071969 1_555
Al2 Tm5 3.071969 1_555
Al2 Tm1 3.071971 1_555
Al3 Os4 2.527288 1_555
Al3 Os5 2.527289 1_555
Al3 Os2 2.527289 1_565
Al3 Al6 2.715867 1_555
Al3 Al4 2.715869 1_555
Al3 Tm0 3.071971 1_555
Al3 Tm2 3.071972 1_555
Al3 Tm4 3.071973 1_555
Al4 Os7 2.573129 1_555
Al4 Os5 2.649875 1_555
Al4 Os4 2.649878 1_555
Al4 Al8 2.859044 1_555
Al4 Tm0 3.122389 1_555
Al4 Tm5 3.190306 1_455
Al4 Tm3 3.190306 1_555
Al5 Os7 2.573131 1_665
Al5 Os4 2.649884 1_655
Al5 Os5 2.649886 1_555
Al5 Al6 2.859045 1_555
Al5 Tm1 3.122386 1_555
Al5 Tm4 3.190308 1_655
Al5 Tm2 3.190310 1_555
Al6 Os7 2.573131 1_665
Al6 Os5 2.649877 1_555
Al6 Os2 2.649878 1_565
Al6 Tm2 3.122389 1_555
Al6 Tm1 3.190306 1_555
Al6 Tm5 3.190308 1_565
Al7 Os6 2.573131 1_665
Al7 Os3 2.649957 1_555
Al7 Os1 2.649957 1_655
Al7 Tm1 3.122398 1_554
Al7 Tm2 3.190118 1_555
Al7 Tm4 3.190119 1_655
Al8 Os7 2.573128 1_555
Al8 Os2 2.649884 1_555
Al8 Os5 2.649885 1_555
Al8 Tm3 3.122385 1_555
Al8 Tm0 3.190310 1_555
Al8 Tm4 3.190311 1_545
Al9 Os6 2.573123 1_556
Al9 Os1 2.649947 1_556
Al9 Os3 2.649948 1_556
Al9 Tm0 3.122398 1_556
Al9 Tm5 3.190118 1_455
Al9 Tm3 3.190120 1_555
Al10 Os7 2.573131 1_565
Al10 Os2 2.649875 1_565
Al10 Os4 2.649877 1_555
Al10 Al3 2.715868 1_555
Al10 Al19 2.791670 1_555
Al10 Al17 2.791671 1_555
Al10 Al5 2.859043 1_455
Al10 Al8 2.859044 1_565
Al10 Al23 2.970184 1_565
Al10 Tm4 3.122389 1_555
Al10 Tm1 3.190304 1_455
Al10 Tm3 3.190307 1_565
Al11 Os6 2.573127 1_555
Al11 Os3 2.649953 1_555
Al11 Os0 2.649955 1_555
Al11 Al16 2.791639 1_555
Al11 Al20 2.791640 1_555
Al11 Al9 2.859169 1_554
Al11 Al15 2.859172 1_544
Al11 Al22 2.970043 1_555
Al11 Tm3 3.122400 1_554
Al11 Tm0 3.190117 1_555
Al11 Tm4 3.190121 1_545
Al12 Os7 2.573130 1_655
Al12 Os2 2.649885 1_555
Al12 Os4 2.649885 1_655
Al12 Al2 2.715868 1_555
Al12 Al16 2.791672 1_555
Al12 Al18 2.791673 1_555
Al12 Al6 2.859044 1_545
Al12 Al4 2.859046 1_655
Al12 Al22 2.970184 1_655
Al12 Tm5 3.122388 1_555
Al12 Tm2 3.190306 1_545
Al12 Tm0 3.190310 1_655
Al13 Os6 2.573128 1_666
Al13 Os0 2.649950 1_566
Al13 Os3 2.649951 1_556
Al13 Al17 2.791639 1_555
Al13 Al21 2.791640 1_555
Al13 Al14 2.859168 1_566
Al13 Al7 2.859171 1_556
Al13 Al23 2.970046 1_665
Al13 Tm2 3.122398 1_556
Al13 Tm5 3.190118 1_565
Al13 Tm1 3.190120 1_555
Al14 Os6 2.573129 1_655
Al14 Os1 2.649954 1_655
Al14 Os0 2.649956 1_555
Al14 Al18 2.791639 1_555
Al14 Al16 2.791641 1_555
Al14 Al9 2.859168 1_654
Al14 Al22 2.970045 1_655
Al14 Tm5 3.122397 1_554
Al14 Tm2 3.190118 1_545
Al14 Tm0 3.190122 1_655
Al15 Os6 2.573127 1_566
Al15 Os0 2.649948 1_566
Al15 Os1 2.649949 1_556
Al15 Al17 2.791640 1_555
Al15 Al19 2.791641 1_555
Al15 Al7 2.859168 1_456
Al15 Al23 2.970050 1_565
Al15 Tm4 3.122399 1_556
Al15 Tm1 3.190115 1_455
Al15 Tm3 3.190119 1_565
Al16 Os2 2.542435 1_555
Al16 Os0 2.542489 1_555
Al16 Al20 2.769248 1_555
Al16 Al18 2.769248 1_555
Al16 Al8 2.791669 1_555
Al16 Al2 2.974260 1_555
Al16 Tm4 3.011464 1_545
Al16 Tm2 3.011466 1_545
Al17 Os2 2.542420 1_565
Al17 Os0 2.542477 1_566
Al17 Al21 2.769247 1_555
Al17 Al19 2.769252 1_555
Al17 Al6 2.791671 1_555
Al17 Al3 2.974257 1_555
Al17 Tm3 3.011464 1_565
Al17 Tm5 3.011466 1_565
Al18 Os4 2.542433 1_655
Al18 Os1 2.542487 1_655
Al18 Al20 2.769246 1_555
Al18 Al7 2.791638 1_555
Al18 Al5 2.791672 1_555
Al18 Al2 2.974260 1_555
Al18 Tm4 3.011464 1_655
Al18 Tm0 3.011468 1_655
Al19 Os4 2.542422 1_555
Al19 Os1 2.542479 1_556
Al19 Al21 2.769248 1_555
Al19 Al9 2.791642 1_555
Al19 Al4 2.791670 1_555
Al19 Al3 2.974257 1_555
Al19 Tm5 3.011460 1_455
Al19 Tm1 3.011460 1_455
Al20 Os5 2.542434 1_555
Al20 Os3 2.542489 1_555
Al20 Al7 2.791641 1_555
Al20 Al8 2.791670 1_555
Al20 Al5 2.791671 1_555
Al20 Tm0 3.011463 1_555
Al20 Tm2 3.011465 1_555
Al21 Os5 2.542422 1_555
Al21 Os3 2.542479 1_556
Al21 Al9 2.791638 1_555
Al21 Al4 2.791670 1_555
Al21 Al6 2.791673 1_555
Al21 Al3 2.974256 1_555
Al21 Tm3 3.011466 1_555
Al21 Tm1 3.011470 1_555
Al22 Os7 2.368371 1_555
Al22 Os6 2.368373 1_555
Al22 Tm2 2.932776 1_445
Al22 Tm0 2.932777 1_555
Al22 Tm4 2.932780 1_545
Al22 Al7 2.970045 1_445
Al22 Al8 2.970186 1_555
Al22 Al5 2.970187 1_445
Al23 Os6 2.368367 1_556
Al23 Os7 2.368371 1_555
Al23 Tm5 2.932774 1_455
Al23 Tm1 2.932775 1_445
Al23 Tm3 2.932777 1_555
Al23 Al9 2.970048 1_555
Al23 Al6 2.970178 1_445
Al23 Al4 2.970179 1_555
Os0 Tm3 3.333334 1_554
Os0 Tm4 3.333335 1_545
Os0 Tm5 3.333337 1_554
Os0 Tm2 3.333339 1_545
Os1 Tm5 3.333335 1_454
Os1 Tm4 3.333335 1_555
Os1 Tm1 3.333336 1_454
Os1 Tm0 3.333337 1_555
Os2 Tm3 3.333452 1_555
Os2 Tm2 3.333454 1_545
Os2 Tm4 3.333454 1_545
Os2 Tm5 3.333455 1_555
Os3 Tm0 3.333332 1_555
Os3 Tm2 3.333335 1_555
Os3 Tm3 3.333338 1_554
Os3 Tm1 3.333340 1_554
Os4 Tm4 3.333448 1_555
Os4 Tm0 3.333448 1_555
Os4 Tm5 3.333457 1_455
Os4 Tm1 3.333458 1_455
Os5 Tm3 3.333452 1_555
Os5 Tm0 3.333453 1_555
Os5 Tm1 3.333454 1_555
Os5 Tm2 3.333456 1_555
