# generated using pymatgen
data_Sr3Ho
_symmetry_space_group_name_H-M   'P 1'
_cell_length_a   8.08779754
_cell_length_b   8.08779754
_cell_length_c   6.56564500
_cell_angle_alpha   90.00000000
_cell_angle_beta   90.00000000
_cell_angle_gamma   119.99999625
_symmetry_Int_Tables_number   1
_chemical_formula_structural   Sr3Ho
_chemical_formula_sum   'Sr6 Ho2'
_cell_volume   371.93631812
_cell_formula_units_Z   2
loop_
 _symmetry_equiv_pos_site_id
 _symmetry_equiv_pos_as_xyz
  1  'x, y, z'
loop_
 _atom_site_type_symbol
 _atom_site_label
 _atom_site_symmetry_multiplicity
 _atom_site_fract_x
 _atom_site_fract_y
 _atom_site_fract_z
 _atom_site_occupancy
  Sr  Sr0  1  0.17171900  0.34343900  0.25000000  1
  Sr  Sr1  1  0.65656100  0.82828100  0.25000000  1
  Sr  Sr2  1  0.17171900  0.82828100  0.25000000  1
  Sr  Sr3  1  0.82828100  0.65656100  0.75000000  1
  Sr  Sr4  1  0.34343900  0.17171900  0.75000000  1
  Sr  Sr5  1  0.82828100  0.17171900  0.75000000  1
  Ho  Ho0  1  0.33333300  0.66666700  0.75000000  1
  Ho  Ho1  1  0.66666700  0.33333300  0.25000000  1
loop_
_geom_bond_atom_site_label_1
_geom_bond_atom_site_label_2
_geom_bond_distance
_geom_bond_site_symmetry_2
Sr0 Sr2 3.921304 1_555
Sr0 Sr1 3.921304 1_555
Sr0 Sr5 4.069823 1_454
Sr0 Sr5 4.069823 1_455
Sr0 Sr4 4.069831 1_555
Sr0 Sr4 4.069831 1_554
Sr0 Sr2 4.166494 1_545
Sr0 Sr1 4.166494 1_445
Sr1 Sr2 3.921304 1_555
Sr1 Sr5 4.069823 1_564
Sr1 Sr5 4.069823 1_565
Sr1 Sr3 4.069831 1_554
Sr1 Sr3 4.069831 1_555
Sr1 Sr2 4.166494 1_655
Sr2 Sr3 4.069823 1_454
Sr2 Sr4 4.069823 1_565
Sr2 Sr3 4.069823 1_455
Sr2 Sr4 4.069823 1_564
Sr3 Sr5 3.921304 1_555
Sr3 Sr4 3.921304 1_555
Sr3 Sr5 4.166494 1_565
Sr3 Sr4 4.166494 1_665
Sr4 Sr5 3.921304 1_555
Sr4 Sr5 4.166494 1_455
Ho0 Sr2 3.987789 1_556
Ho0 Sr2 3.987789 1_555
Ho0 Sr0 3.987790 1_555
Ho0 Sr0 3.987790 1_556
Ho0 Sr1 3.987790 1_555
Ho0 Sr1 3.987790 1_556
Ho0 Sr4 4.044510 1_565
Ho0 Sr3 4.044510 1_455
Ho0 Sr5 4.044518 1_455
Ho0 Sr5 4.044518 1_565
Ho0 Sr4 4.044526 1_555
Ho0 Sr3 4.044526 1_555
Ho1 Sr5 3.987789 1_555
Ho1 Sr5 3.987789 1_554
Ho1 Sr3 3.987790 1_554
Ho1 Sr3 3.987790 1_555
Ho1 Sr4 3.987790 1_555
Ho1 Sr4 3.987790 1_554
Ho1 Sr0 4.044510 1_655
Ho1 Sr1 4.044510 1_545
Ho1 Sr2 4.044518 1_545
Ho1 Sr2 4.044518 1_655
Ho1 Sr0 4.044526 1_555
Ho1 Sr1 4.044526 1_555
