# generated using pymatgen
data_LiTb4Al2(FeO6)2
_symmetry_space_group_name_H-M   'P 1'
_cell_length_a   5.27565995
_cell_length_b   5.79299313
_cell_length_c   7.59247273
_cell_angle_alpha   89.11944490
_cell_angle_beta   89.53255784
_cell_angle_gamma   91.71660747
_symmetry_Int_Tables_number   1
_chemical_formula_structural   LiTb4Al2(FeO6)2
_chemical_formula_sum   'Li1 Tb4 Al2 Fe2 O12'
_cell_volume   231.89995399
_cell_formula_units_Z   1
loop_
 _symmetry_equiv_pos_site_id
 _symmetry_equiv_pos_as_xyz
  1  'x, y, z'
loop_
 _atom_site_type_symbol
 _atom_site_label
 _atom_site_symmetry_multiplicity
 _atom_site_fract_x
 _atom_site_fract_y
 _atom_site_fract_z
 _atom_site_occupancy
  Li  Li0  1  0.89093700  0.24734900  0.85035200  1
  Tb  Tb0  1  0.54096400  0.58204900  0.24497100  1
  Tb  Tb1  1  0.99880300  0.08196500  0.23994200  1
  Tb  Tb2  1  0.46151600  0.43176600  0.75218900  1
  Tb  Tb3  1  0.04521500  0.89094200  0.73221400  1
  Al  Al0  1  0.00975900  0.49196600  0.49327400  1
  Al  Al1  1  0.50593700  0.00452400  0.99538800  1
  Fe  Fe0  1  0.01071300  0.54591000  0.02505000  1
  Fe  Fe1  1  0.52160400  0.01167000  0.49335200  1
  O  O0  1  0.40495800  0.96796000  0.24108900  1
  O  O1  1  0.13224800  0.46602500  0.26497500  1
  O  O2  1  0.63753000  0.05085300  0.74978900  1
  O  O3  1  0.89871200  0.52302800  0.73156100  1
  O  O4  1  0.80197100  0.83877100  0.04790200  1
  O  O5  1  0.71853800  0.31045800  0.43321000  1
  O  O6  1  0.20130800  0.19959700  0.55599200  1
  O  O7  1  0.33502000  0.71771600  0.93679300  1
  O  O8  1  0.21016800  0.17390800  0.93737400  1
  O  O9  1  0.30976300  0.68890900  0.54961200  1
  O  O10  1  0.82564100  0.79968600  0.43851900  1
  O  O11  1  0.68869500  0.30828300  0.04538200  1
loop_
_geom_bond_atom_site_label_1
_geom_bond_atom_site_label_2
_geom_bond_distance
_geom_bond_site_symmetry_2
Li0 O3 1.821200 1_555
Li0 O11 1.862393 1_556
Li0 O8 1.872528 1_655
Li0 O2 1.902146 1_555
Al0 O1 1.854787 1_555
Al0 O5 1.898268 1_455
Al0 O3 1.909917 1_455
Al0 O9 1.976729 1_555
Al0 O6 2.049916 1_555
Al0 O10 2.093232 1_455
Al1 O4 1.899564 1_546
Al1 O8 1.918667 1_555
Al1 O7 1.926394 1_545
Al1 O0 1.942564 1_546
Al1 O2 1.995858 1_555
Al1 O11 2.023612 1_556
Fe0 O1 1.988594 1_555
Fe0 O7 2.055639 1_554
Fe0 O4 2.058878 1_455
Fe0 O11 2.157307 1_455
Fe0 Li0 2.273477 1_454
Fe0 O3 2.314721 1_454
Fe0 O8 2.522486 1_554
Fe1 O0 2.033713 1_545
Fe1 O5 2.035706 1_555
Fe1 O2 2.059376 1_555
Fe1 O10 2.092126 1_545
Fe1 O6 2.092777 1_555
Fe1 O9 2.184018 1_545
O0 Tb1 2.261077 1_465
O0 Tb0 2.368110 1_555
O1 Tb0 2.242523 1_555
O1 Tb1 2.324453 1_455
O2 Tb3 2.370741 1_645
O2 Tb2 2.419821 1_555
O3 Tb3 2.245358 1_655
O3 Tb2 2.354244 1_555
O4 Tb1 2.277985 1_565
O4 Tb0 2.474238 1_555
O4 Tb3 2.717967 1_654
O5 Tb0 2.331659 1_555
O5 Tb1 2.496606 1_555
O5 Tb2 2.872906 1_555
O6 Tb3 2.342142 1_545
O6 Tb2 2.428310 1_555
O6 Tb1 2.722551 1_455
O7 Tb2 2.296995 1_555
O7 Tb3 2.416601 1_555
O7 Tb0 2.703528 1_556
O8 Tb2 2.398524 1_555
O8 Tb3 2.426072 1_545
O8 Tb1 2.586394 1_456
O9 Tb2 2.290567 1_555
O9 Tb3 2.314289 1_555
O9 Tb0 2.695191 1_555
O10 Tb1 2.365154 1_565
O10 Tb0 2.446239 1_555
O10 Tb3 2.575921 1_655
O11 Tb0 2.355333 1_555
O11 Tb1 2.585722 1_555
O11 Tb2 2.636181 1_554
