# generated using pymatgen
data_LiMn2O4
_symmetry_space_group_name_H-M   'P 1'
_cell_length_a   5.20771099
_cell_length_b   5.76092250
_cell_length_c   5.91167837
_cell_angle_alpha   117.27694343
_cell_angle_beta   89.62999660
_cell_angle_gamma   106.47153500
_symmetry_Int_Tables_number   1
_chemical_formula_structural   LiMn2O4
_chemical_formula_sum   'Li2 Mn4 O8'
_cell_volume   149.57150409
_cell_formula_units_Z   2
loop_
 _symmetry_equiv_pos_site_id
 _symmetry_equiv_pos_as_xyz
  1  'x, y, z'
loop_
 _atom_site_type_symbol
 _atom_site_label
 _atom_site_symmetry_multiplicity
 _atom_site_fract_x
 _atom_site_fract_y
 _atom_site_fract_z
 _atom_site_occupancy
  Li  Li0  1  0.50000000  0.00000100  0.25000600  1
  Li  Li1  1  0.50000100  0.99999800  0.74999300  1
  Mn  Mn0  1  0.99999900  0.00000400  0.50000100  1
  Mn  Mn1  1  0.00000000  0.50000000  0.00000000  1
  Mn  Mn2  1  0.99999800  0.99999800  0.99999900  1
  Mn  Mn3  1  0.00000300  0.50000100  0.50000100  1
  O  O0  1  0.78110100  0.23819500  0.59951300  1
  O  O1  1  0.78108500  0.23816700  0.09950400  1
  O  O2  1  0.21890000  0.76180400  0.40048700  1
  O  O3  1  0.21891400  0.76183300  0.90049600  1
  O  O4  1  0.20035100  0.22048600  0.34850400  1
  O  O5  1  0.20034500  0.22048800  0.84855300  1
  O  O6  1  0.79964900  0.77951400  0.65149600  1
  O  O7  1  0.79965500  0.77951100  0.15144700  1
loop_
_geom_bond_atom_site_label_1
_geom_bond_atom_site_label_2
_geom_bond_distance
_geom_bond_site_symmetry_2
Li0 O3 2.143854 1_544
Li0 O0 2.143882 1_555
Li0 O1 2.186329 1_555
Li0 O2 2.186393 1_545
Li0 O4 2.195890 1_555
Li0 O7 2.195935 1_545
Li1 O1 2.143852 1_566
Li1 O2 2.143878 1_555
Li1 O3 2.186335 1_555
Li1 O0 2.186389 1_565
Li1 O6 2.195882 1_555
Li1 O5 2.195939 1_565
Mn0 O0 1.914941 1_555
Mn0 O2 1.914991 1_645
Mn0 O4 1.945038 1_655
Mn0 O6 1.945058 1_545
Mn0 O5 1.955769 1_655
Mn0 O7 1.955775 1_545
Mn1 O3 1.936604 1_554
Mn1 O1 1.936606 1_455
Mn1 O7 2.025400 1_455
Mn1 O5 2.025405 1_554
Mn1 O0 2.228562 1_454
Mn1 O2 2.228563 1_555
Mn2 O3 1.914905 1_655
Mn2 O1 1.914910 1_566
Mn2 O7 1.944823 1_556
Mn2 O5 1.944833 1_665
Mn2 O6 1.955554 1_555
Mn2 O4 1.955571 1_666
Mn3 O2 1.936480 1_555
Mn3 O0 1.936495 1_455
Mn3 O4 2.025451 1_555
Mn3 O6 2.025465 1_455
Mn3 O3 2.228625 1_555
Mn3 O1 2.228646 1_455
