# generated using pymatgen
data_Y2(CuNi)5
_symmetry_space_group_name_H-M   'P 1'
_cell_length_a   3.92667642
_cell_length_b   4.94362173
_cell_length_c   8.51405576
_cell_angle_alpha   90.00000359
_cell_angle_beta   90.00000000
_cell_angle_gamma   90.00000000
_symmetry_Int_Tables_number   1
_chemical_formula_structural   Y2(CuNi)5
_chemical_formula_sum   'Y2 Cu5 Ni5'
_cell_volume   165.27487511
_cell_formula_units_Z   1
loop_
 _symmetry_equiv_pos_site_id
 _symmetry_equiv_pos_as_xyz
  1  'x, y, z'
loop_
 _atom_site_type_symbol
 _atom_site_label
 _atom_site_symmetry_multiplicity
 _atom_site_fract_x
 _atom_site_fract_y
 _atom_site_fract_z
 _atom_site_occupancy
  Y  Y0  1  0.00000000  0.00007800  0.00000000  1
  Y  Y1  1  -0.00000000  0.49990878  0.50000000  1
  Cu  Cu0  1  -0.00000000  0.99989284  0.32983383  1
  Cu  Cu1  1  0.00000000  0.50010463  0.83207072  1
  Cu  Cu2  1  0.00000000  0.50010463  0.16792928  1
  Cu  Cu3  1  -0.00000000  0.99989284  0.67016617  1
  Cu  Cu4  1  0.50000000  0.99983618  0.50000000  1
  Ni  Ni0  1  0.50000000  0.50000386  1.00000000  1
  Ni  Ni1  1  0.50000000  0.25081514  0.24873298  1
  Ni  Ni2  1  0.50000000  0.74917599  0.75128643  1
  Ni  Ni3  1  0.50000000  0.74917599  0.24871357  1
  Ni  Ni4  1  0.50000000  0.25081514  0.75126702  1
loop_
_geom_bond_atom_site_label_1
_geom_bond_atom_site_label_2
_geom_bond_distance
_geom_bond_site_symmetry_2
Cu0 Ni3 2.422384 1_555
Cu0 Ni3 2.422384 1_455
Cu0 Ni1 2.422857 1_565
Cu0 Ni1 2.422857 1_465
Cu0 Cu4 2.440027 1_555
Cu0 Cu4 2.440027 1_455
Cu0 Y0 2.808224 1_565
Cu0 Y1 2.865047 1_555
Cu0 Y1 2.865183 1_565
Cu1 Ni2 2.417417 1_555
Cu1 Ni2 2.417417 1_455
Cu1 Ni4 2.418013 1_455
Cu1 Ni4 2.418013 1_555
Cu1 Ni0 2.428767 1_555
Cu1 Ni0 2.428767 1_455
Cu1 Y1 2.827269 1_555
Cu1 Y0 2.855418 1_566
Cu1 Y0 2.855646 1_556
Cu2 Ni3 2.417417 1_555
Cu2 Ni3 2.417417 1_455
Cu2 Ni1 2.418013 1_555
Cu2 Ni1 2.418013 1_455
Cu2 Ni0 2.428767 1_554
Cu2 Ni0 2.428767 1_454
Cu2 Y1 2.827269 1_555
Cu2 Y0 2.855418 1_565
Cu2 Y0 2.855645 1_555
Cu3 Ni2 2.422384 1_555
Cu3 Ni2 2.422384 1_455
Cu3 Ni4 2.422857 1_465
Cu3 Ni4 2.422857 1_565
Cu3 Cu4 2.440027 1_455
Cu3 Cu4 2.440027 1_555
Cu3 Y0 2.808224 1_566
Cu3 Y1 2.865047 1_555
Cu3 Y1 2.865183 1_565
Cu4 Ni3 2.472419 1_555
Cu4 Ni2 2.472420 1_555
Cu4 Ni4 2.473067 1_565
Cu4 Ni1 2.473067 1_565
Cu4 Y1 3.156386 1_555
Cu4 Y1 3.156386 1_655
Cu4 Y1 3.156948 1_565
Cu4 Y1 3.156948 1_665
Ni0 Ni3 2.449781 1_556
Ni0 Ni2 2.449781 1_555
Ni0 Ni4 2.449965 1_555
Ni0 Ni1 2.449965 1_556
Ni0 Y0 3.156380 1_656
Ni0 Y0 3.156380 1_556
Ni0 Y0 3.156954 1_666
Ni0 Y0 3.156954 1_566
Ni1 Ni3 2.463708 1_555
Ni1 Ni3 2.479914 1_545
Ni1 Y0 3.142602 1_555
Ni1 Y0 3.142602 1_655
Ni1 Y1 3.154000 1_555
Ni1 Y1 3.154000 1_655
Ni2 Ni4 2.463708 1_555
Ni2 Ni4 2.479914 1_565
Ni2 Y0 3.142812 1_566
Ni2 Y0 3.142812 1_666
Ni2 Y1 3.154447 1_555
Ni2 Y1 3.154447 1_655
Ni3 Y0 3.142812 1_565
Ni3 Y0 3.142812 1_665
Ni3 Y1 3.154447 1_555
Ni3 Y1 3.154447 1_655
Ni4 Y0 3.142602 1_556
Ni4 Y0 3.142602 1_656
Ni4 Y1 3.154000 1_555
Ni4 Y1 3.154000 1_655
