# generated using pymatgen
data_Na3VS3O
_symmetry_space_group_name_H-M   'P 1'
_cell_length_a   7.74594436
_cell_length_b   7.74594436
_cell_length_c   5.97305200
_cell_angle_alpha   90.00000000
_cell_angle_beta   90.00000000
_cell_angle_gamma   101.86778518
_symmetry_Int_Tables_number   1
_chemical_formula_structural   Na3VS3O
_chemical_formula_sum   'Na6 V2 S6 O2'
_cell_volume   350.72057550
_cell_formula_units_Z   2
loop_
 _symmetry_equiv_pos_site_id
 _symmetry_equiv_pos_as_xyz
  1  'x, y, z'
loop_
 _atom_site_type_symbol
 _atom_site_label
 _atom_site_symmetry_multiplicity
 _atom_site_fract_x
 _atom_site_fract_y
 _atom_site_fract_z
 _atom_site_occupancy
  Na  Na0  1  0.88110000  0.11890000  0.46310600  1
  Na  Na1  1  0.82598200  0.58591000  0.48309300  1
  Na  Na2  1  0.41409000  0.17401800  0.48309300  1
  Na  Na3  1  0.58591000  0.82598200  0.98309300  1
  Na  Na4  1  0.11890000  0.88110000  0.96310600  1
  Na  Na5  1  0.17401800  0.41409000  0.98309300  1
  V  V0  1  0.29627100  0.70372900  0.38505300  1
  V  V1  1  0.70372900  0.29627100  0.88505300  1
  S  S0  1  0.56486500  0.81252700  0.50014900  1
  S  S1  1  0.88123100  0.11876900  0.98289400  1
  S  S2  1  0.18747300  0.43513500  0.50014900  1
  S  S3  1  0.81252700  0.56486500  0.00014900  1
  S  S4  1  0.43513500  0.18747300  0.00014900  1
  S  S5  1  0.11876900  0.88123100  0.48289400  1
  O  O0  1  0.69898400  0.30101600  0.60102300  1
  O  O1  1  0.30101600  0.69898400  0.10102300  1
loop_
_geom_bond_atom_site_label_1
_geom_bond_atom_site_label_2
_geom_bond_distance
_geom_bond_site_symmetry_2
Na0 O0 2.340307 1_555
Na0 S5 2.861173 1_645
Na0 S1 2.868332 1_554
Na0 S2 3.047958 1_655
Na0 S0 3.047958 1_545
Na0 S1 3.104721 1_555
Na1 O0 2.332562 1_555
Na1 S5 2.870962 1_655
Na1 S3 2.889922 1_555
Na1 S0 2.939878 1_555
Na1 S3 3.093328 1_556
Na1 S2 3.249603 1_655
Na2 O0 2.332562 1_555
Na2 S5 2.870962 1_545
Na2 S4 2.889922 1_555
Na2 S2 2.939878 1_555
Na2 S4 3.093328 1_556
Na2 S0 3.249603 1_545
Na3 O1 2.332562 1_556
Na3 S1 2.870962 1_565
Na3 S0 2.889922 1_555
Na3 S3 2.939878 1_556
Na3 S0 3.093328 1_556
Na3 S4 3.249603 1_566
Na4 O1 2.340307 1_556
Na4 S1 2.861173 1_465
Na4 S5 2.868332 1_555
Na4 S3 3.047958 1_456
Na4 S4 3.047958 1_566
Na4 S5 3.104721 1_556
Na5 O1 2.332562 1_556
Na5 S1 2.870962 1_455
Na5 S2 2.889922 1_555
Na5 S4 2.939878 1_556
Na5 S2 3.093328 1_556
Na5 S3 3.249603 1_456
S0 V0 2.188656 1_555
S1 V1 2.213569 1_555
S2 V0 2.188656 1_555
S3 V1 2.188656 1_554
S4 V1 2.188656 1_554
S5 V0 2.213569 1_555
O0 V1 1.697486 1_555
O1 V0 1.697486 1_555
