# generated using pymatgen
data_PmEr3
_symmetry_space_group_name_H-M   'P 1'
_cell_length_a   7.19757868
_cell_length_b   7.19757815
_cell_length_c   5.75632754
_cell_angle_alpha   90.00000000
_cell_angle_beta   90.00000000
_cell_angle_gamma   119.99999941
_symmetry_Int_Tables_number   1
_chemical_formula_structural   PmEr3
_chemical_formula_sum   'Pm2 Er6'
_cell_volume   258.25512110
_cell_formula_units_Z   2
loop_
 _symmetry_equiv_pos_site_id
 _symmetry_equiv_pos_as_xyz
  1  'x, y, z'
loop_
 _atom_site_type_symbol
 _atom_site_label
 _atom_site_symmetry_multiplicity
 _atom_site_fract_x
 _atom_site_fract_y
 _atom_site_fract_z
 _atom_site_occupancy
  Pm  Pm0  1  0.66666700  0.33333300  0.25000000  1
  Pm  Pm1  1  0.33333300  0.66666700  0.75000000  1
  Er  Er0  1  0.83505064  0.16494936  0.75000000  1
  Er  Er1  1  0.32989871  0.16494936  0.75000000  1
  Er  Er2  1  0.83505064  0.67010129  0.75000000  1
  Er  Er3  1  0.16494936  0.83505064  0.25000000  1
  Er  Er4  1  0.67010129  0.83505064  0.25000000  1
  Er  Er5  1  0.16494936  0.32989871  0.25000000  1
loop_
_geom_bond_atom_site_label_1
_geom_bond_atom_site_label_2
_geom_bond_distance
_geom_bond_site_symmetry_2
Er0 Er4 3.537289 1_546
Er0 Er4 3.537289 1_545
Er0 Er5 3.537289 1_656
Er0 Er5 3.537289 1_655
Er0 Er2 3.561708 1_545
Er0 Er1 3.561708 1_655
Er0 Pm0 3.562349 1_555
Er0 Pm0 3.562349 1_556
Er0 Pm1 3.598853 1_655
Er0 Pm1 3.598853 1_545
Er0 Er2 3.635870 1_555
Er0 Er1 3.635871 1_555
Er1 Er5 3.537289 1_555
Er1 Er5 3.537289 1_556
Er1 Er3 3.537289 1_545
Er1 Er3 3.537289 1_546
Er1 Er2 3.561708 1_445
Er1 Pm0 3.562352 1_555
Er1 Pm0 3.562352 1_556
Er1 Pm1 3.598849 1_545
Er1 Pm1 3.598856 1_555
Er1 Er2 3.635871 1_555
Er2 Er4 3.537289 1_556
Er2 Er4 3.537289 1_555
Er2 Er3 3.537289 1_656
Er2 Er3 3.537289 1_655
Er2 Pm0 3.562352 1_555
Er2 Pm0 3.562352 1_556
Er2 Pm1 3.598849 1_655
Er2 Pm1 3.598857 1_555
Er3 Er5 3.561708 1_565
Er3 Er4 3.561708 1_455
Er3 Pm1 3.562349 1_554
Er3 Pm1 3.562349 1_555
Er3 Pm0 3.598853 1_455
Er3 Pm0 3.598853 1_565
Er3 Er5 3.635870 1_555
Er3 Er4 3.635871 1_555
Er4 Er5 3.561708 1_665
Er4 Pm1 3.562352 1_555
Er4 Pm1 3.562352 1_554
Er4 Pm0 3.598849 1_565
Er4 Pm0 3.598856 1_555
Er4 Er5 3.635871 1_555
Er5 Pm1 3.562352 1_554
Er5 Pm1 3.562352 1_555
Er5 Pm0 3.598849 1_455
Er5 Pm0 3.598857 1_555
