# generated using pymatgen
data_CeSe2
_symmetry_space_group_name_H-M   'P 1'
_cell_length_a   7.87871257
_cell_length_b   13.76665673
_cell_length_c   14.17162076
_cell_angle_alpha   90.00000000
_cell_angle_beta   90.00000000
_cell_angle_gamma   90.00000000
_symmetry_Int_Tables_number   1
_chemical_formula_structural   CeSe2
_chemical_formula_sum   'Ce8 Se16'
_cell_volume   1537.10403365
_cell_formula_units_Z   8
loop_
 _symmetry_equiv_pos_site_id
 _symmetry_equiv_pos_as_xyz
  1  'x, y, z'
loop_
 _atom_site_type_symbol
 _atom_site_label
 _atom_site_symmetry_multiplicity
 _atom_site_fract_x
 _atom_site_fract_y
 _atom_site_fract_z
 _atom_site_occupancy
  Ce  Ce0  1  0.65237212  0.56264760  0.84013308  1
  Ce  Ce1  1  0.84762788  0.93735240  0.84013308  1
  Ce  Ce2  1  0.15237212  0.43735240  0.65986692  1
  Ce  Ce3  1  0.34762788  0.06264760  0.65986692  1
  Ce  Ce4  1  0.34762788  0.43735240  0.15986692  1
  Ce  Ce5  1  0.15237212  0.06264760  0.15986692  1
  Ce  Ce6  1  0.84762788  0.56264760  0.34013308  1
  Ce  Ce7  1  0.65237212  0.93735240  0.34013308  1
  Se  Se0  1  0.42730985  0.54926489  0.69619720  1
  Se  Se1  1  0.07269015  0.95073511  0.69619720  1
  Se  Se2  1  0.92730985  0.45073511  0.80380280  1
  Se  Se3  1  0.57269015  0.04926489  0.80380280  1
  Se  Se4  1  0.57269015  0.45073511  0.30380280  1
  Se  Se5  1  0.92730985  0.04926489  0.30380280  1
  Se  Se6  1  0.07269015  0.54926489  0.19619720  1
  Se  Se7  1  0.42730985  0.95073511  0.19619720  1
  Se  Se8  1  0.50000000  0.50000000  -0.00000000  1
  Se  Se9  1  -0.00000000  0.00000000  -0.00000000  1
  Se  Se10  1  0.00000000  0.50000000  0.50000000  1
  Se  Se11  1  0.50000000  -0.00000000  0.50000000  1
  Se  Se12  1  0.75000000  0.75000000  0.86206363  1
  Se  Se13  1  0.25000000  0.25000000  0.63793637  1
  Se  Se14  1  0.25000000  0.25000000  0.13793637  1
  Se  Se15  1  0.75000000  0.75000000  0.36206363  1
loop_
_geom_bond_atom_site_label_1
_geom_bond_atom_site_label_2
_geom_bond_distance
_geom_bond_site_symmetry_2
Ce0 Se8 2.705149 1_556
Ce0 Se2 2.707572 1_555
Ce0 Se0 2.709057 1_555
Ce0 Se12 2.709352 1_555
Ce1 Se9 2.705149 1_666
Ce1 Se3 2.707572 1_565
Ce1 Se1 2.709057 1_655
Ce1 Se12 2.709352 1_555
Ce2 Se10 2.705149 1_555
Ce2 Se0 2.707572 1_555
Ce2 Se2 2.709057 1_455
Ce2 Se13 2.709352 1_555
Ce3 Se11 2.705149 1_555
Ce3 Se1 2.707572 1_545
Ce3 Se3 2.709057 1_555
Ce3 Se13 2.709352 1_555
Ce4 Se8 2.705149 1_555
Ce4 Se6 2.707572 1_555
Ce4 Se4 2.709057 1_555
Ce4 Se14 2.709352 1_555
Ce5 Se9 2.705149 1_555
Ce5 Se7 2.707572 1_545
Ce5 Se5 2.709057 1_455
Ce5 Se14 2.709352 1_555
Ce6 Se10 2.705149 1_655
Ce6 Se4 2.707572 1_555
Ce6 Se6 2.709057 1_655
Ce6 Se15 2.709352 1_555
Ce7 Se11 2.705149 1_565
Ce7 Se5 2.707572 1_565
Ce7 Se7 2.709057 1_555
Ce7 Se15 2.709352 1_555
