# generated using pymatgen
data_Lu2Co7
_symmetry_space_group_name_H-M   'P 1'
_cell_length_a   4.90395869
_cell_length_b   4.90395900
_cell_length_c   12.29268737
_cell_angle_alpha   78.49423840
_cell_angle_beta   78.49423785
_cell_angle_gamma   60.00000463
_symmetry_Int_Tables_number   1
_chemical_formula_structural   Lu2Co7
_chemical_formula_sum   'Lu4 Co14'
_cell_volume   249.13505287
_cell_formula_units_Z   2
loop_
 _symmetry_equiv_pos_site_id
 _symmetry_equiv_pos_as_xyz
  1  'x, y, z'
loop_
 _atom_site_type_symbol
 _atom_site_label
 _atom_site_symmetry_multiplicity
 _atom_site_fract_x
 _atom_site_fract_y
 _atom_site_fract_z
 _atom_site_occupancy
  Lu  Lu0  1  0.94814000  0.94814000  0.15557900  1
  Lu  Lu1  1  0.05186000  0.05186000  0.84442100  1
  Lu  Lu2  1  0.85185200  0.85185200  0.44444400  1
  Lu  Lu3  1  0.14814800  0.14814800  0.55555700  1
  Co  Co0  1  0.50000000  0.50000000  0.50000000  1
  Co  Co1  1  0.72189200  0.72189200  0.83432400  1
  Co  Co2  1  0.27810800  0.27810800  0.16567600  1
  Co  Co3  1  0.61111000  0.61111000  0.16667100  1
  Co  Co4  1  0.38889000  0.38889000  0.83332900  1
  Co  Co5  1  0.00000000  0.50000000  0.00000000  1
  Co  Co6  1  0.50000000  0.00000000  0.00000000  1
  Co  Co7  1  0.50000000  0.50000000  0.00000000  1
  Co  Co8  1  0.38881200  0.38881200  0.33089600  1
  Co  Co9  1  0.89148100  0.38881200  0.33089600  1
  Co  Co10  1  0.38881200  0.89148100  0.33089600  1
  Co  Co11  1  0.61118800  0.61118800  0.66910400  1
  Co  Co12  1  0.10851900  0.61118800  0.66910400  1
  Co  Co13  1  0.61118800  0.10851900  0.66910400  1
loop_
_geom_bond_atom_site_label_1
_geom_bond_atom_site_label_2
_geom_bond_distance
_geom_bond_site_symmetry_2
Lu0 Lu2 3.455457 1_555
Lu1 Lu3 3.455445 1_555
Lu2 Lu3 3.127765 1_565
Lu2 Lu3 3.127765 1_655
Lu2 Lu3 3.127769 1_665
Co0 Co11 2.473348 1_555
Co0 Co8 2.473348 1_555
Co0 Co12 2.473350 1_555
Co0 Co9 2.473350 1_555
Co0 Co13 2.473350 1_555
Co0 Co10 2.473350 1_555
Co0 Lu3 2.908251 1_555
Co0 Lu2 2.908251 1_555
Co0 Lu2 2.908251 1_455
Co0 Lu2 2.908252 1_545
Co0 Lu3 2.908255 1_655
Co0 Lu3 2.908256 1_565
Co1 Co12 2.426696 1_655
Co1 Co13 2.426696 1_565
Co1 Co11 2.426698 1_555
Co1 Co7 2.435526 1_556
Co1 Co5 2.435526 1_656
Co1 Co6 2.435526 1_566
Co1 Co4 2.831326 1_655
Co1 Co4 2.831326 1_565
Co1 Co4 2.831330 1_555
Co1 Lu1 2.833876 1_565
Co1 Lu1 2.833876 1_655
Co1 Lu1 2.833880 1_665
Co2 Co9 2.426696 1_455
Co2 Co8 2.426698 1_555
Co2 Co7 2.435526 1_555
Co2 Co5 2.435526 1_555
Co2 Co6 2.435526 1_555
Co2 Co3 2.831326 1_455
Co2 Co3 2.831326 1_545
Co2 Co3 2.831330 1_555
Co2 Lu0 2.833876 1_545
Co2 Lu0 2.833876 1_455
Co2 Lu0 2.833880 1_445
Co3 Co8 2.425849 1_555
Co3 Co9 2.425849 1_555
Co3 Co5 2.445220 1_655
Co3 Co6 2.445220 1_565
Co3 Co7 2.445222 1_555
Co3 Lu0 2.834404 1_555
Co3 Lu0 2.834412 1_455
Co3 Lu0 2.834412 1_545
Co4 Co5 2.445220 1_556
Co4 Co6 2.445220 1_556
Co4 Co7 2.445222 1_556
Co4 Lu1 2.834404 1_555
Co4 Lu1 2.834412 1_655
Co4 Lu1 2.834412 1_565
Co5 Co7 2.451979 1_455
Co5 Co7 2.451979 1_555
Co5 Co6 2.451980 1_465
Co5 Co6 2.451980 1_555
Co6 Co7 2.451980 1_545
Co6 Co7 2.451980 1_555
Co8 Co9 2.438891 1_455
Co8 Co9 2.465068 1_555
Co8 Lu2 2.803068 1_455
Co8 Lu2 2.803068 1_545
Co8 Lu3 3.033982 1_555
Co8 Lu0 3.226515 1_545
Co8 Lu0 3.226515 1_455
Co9 Lu2 2.803066 1_555
Co9 Lu2 2.803070 1_545
Co9 Lu3 3.033982 1_655
Co9 Lu0 3.226512 1_555
Co9 Lu0 3.226519 1_545
Co10 Co3 2.425849 1_555
Co10 Co2 2.426696 1_565
Co10 Co8 2.438891 1_565
Co10 Co9 2.438891 1_465
Co10 Co8 2.465068 1_555
Co10 Co9 2.465068 1_555
Co10 Lu2 2.803066 1_555
Co10 Lu2 2.803070 1_455
Co10 Lu3 3.033982 1_565
Co10 Lu0 3.226512 1_555
Co10 Lu0 3.226519 1_455
Co11 Co4 2.425849 1_555
Co11 Co12 2.438891 1_655
Co11 Co13 2.438891 1_565
Co11 Co12 2.465068 1_555
Co11 Co13 2.465068 1_555
Co11 Lu3 2.803062 1_655
Co11 Lu3 2.803062 1_565
Co11 Lu2 3.033972 1_555
Co11 Lu1 3.226515 1_565
Co11 Lu1 3.226515 1_655
Co12 Co4 2.425849 1_555
Co12 Co13 2.438891 1_465
Co12 Co13 2.465068 1_555
Co12 Lu3 2.803058 1_555
Co12 Lu3 2.803067 1_565
Co12 Lu2 3.033971 1_455
Co12 Lu1 3.226512 1_555
Co12 Lu1 3.226519 1_565
Co13 Co4 2.425849 1_555
Co13 Lu3 2.803058 1_555
Co13 Lu3 2.803067 1_655
Co13 Lu2 3.033971 1_545
Co13 Lu1 3.226512 1_555
Co13 Lu1 3.226519 1_655
