# generated using pymatgen
data_La2BeGe
_symmetry_space_group_name_H-M   'P 1'
_cell_length_a   11.70449353
_cell_length_b   11.70449353
_cell_length_c   11.70449353
_cell_angle_alpha   124.97528184
_cell_angle_beta   118.42919251
_cell_angle_gamma   87.17444089
_symmetry_Int_Tables_number   1
_chemical_formula_structural   La2BeGe
_chemical_formula_sum   'La2 Be1 Ge1'
_cell_volume   1098.39341060
_cell_formula_units_Z   1
loop_
 _symmetry_equiv_pos_site_id
 _symmetry_equiv_pos_as_xyz
  1  'x, y, z'
loop_
 _atom_site_type_symbol
 _atom_site_label
 _atom_site_symmetry_multiplicity
 _atom_site_fract_x
 _atom_site_fract_y
 _atom_site_fract_z
 _atom_site_occupancy
  La  La0  1  0.00000000  0.24943200  0.24943200  1
  La  La1  1  0.00000000  0.75056800  0.75056800  1
  Be  Be0  1  0.00000000  0.00000000  0.00000000  1
  Ge  Ge0  1  0.00000000  0.50000000  0.50000000  1
loop_
_geom_bond_atom_site_label_1
_geom_bond_atom_site_label_2
_geom_bond_distance
_geom_bond_site_symmetry_2
Be0 La1 2.697244 1_544
Be0 La0 2.697244 1_555
Ge0 La1 2.709529 1_555
Ge0 La0 2.709529 1_555
