# generated using pymatgen
data_BaSr2Y6O12
_symmetry_space_group_name_H-M   'P 1'
_cell_length_a   3.46599400
_cell_length_b   10.41634800
_cell_length_c   10.41635304
_cell_angle_alpha   60.00012268
_cell_angle_beta   90.00000000
_cell_angle_gamma   90.00000000
_symmetry_Int_Tables_number   1
_chemical_formula_structural   BaSr2Y6O12
_chemical_formula_sum   'Ba1 Sr2 Y6 O12'
_cell_volume   325.67929328
_cell_formula_units_Z   1
loop_
 _symmetry_equiv_pos_site_id
 _symmetry_equiv_pos_as_xyz
  1  'x, y, z'
loop_
 _atom_site_type_symbol
 _atom_site_label
 _atom_site_symmetry_multiplicity
 _atom_site_fract_x
 _atom_site_fract_y
 _atom_site_fract_z
 _atom_site_occupancy
  Ba  Ba0  1  0.75000000  0.00000300  0.99999800  1
  Sr  Sr0  1  0.75000000  0.66666200  0.66666800  1
  Sr  Sr1  1  0.25000000  0.33333700  0.33333100  1
  Y  Y0  1  0.25000000  0.34638200  0.65455300  1
  Y  Y1  1  0.25000000  0.99906400  0.34638200  1
  Y  Y2  1  0.25000000  0.65455400  0.99906500  1
  Y  Y3  1  0.75000000  0.65090000  0.34846700  1
  Y  Y4  1  0.75000000  0.00063300  0.65090100  1
  Y  Y5  1  0.75000000  0.34846600  0.00063300  1
  O  O0  1  0.75000000  0.39497800  0.47725600  1
  O  O1  1  0.75000000  0.12776500  0.39497900  1
  O  O2  1  0.75000000  0.47725600  0.12776500  1
  O  O3  1  0.25000000  0.60292000  0.52265300  1
  O  O4  1  0.25000000  0.87442700  0.60292000  1
  O  O5  1  0.25000000  0.52265300  0.87442700  1
  O  O6  1  0.75000000  0.30239600  0.80889900  1
  O  O7  1  0.75000000  0.88870600  0.30239300  1
  O  O8  1  0.75000000  0.80890200  0.88870800  1
  O  O9  1  0.25000000  0.71095200  0.18468600  1
  O  O10  1  0.25000000  0.10436000  0.71095700  1
  O  O11  1  0.25000000  0.18468300  0.10435700  1
loop_
_geom_bond_atom_site_label_1
_geom_bond_atom_site_label_2
_geom_bond_distance
_geom_bond_site_symmetry_2
Ba0 O8 2.759303 1_545
Ba0 O6 2.759321 1_555
Ba0 O7 2.759336 1_546
Ba0 O11 3.158583 1_556
Ba0 O11 3.158583 1_656
Ba0 O10 3.158606 1_655
Ba0 O10 3.158606 1_555
Ba0 O9 3.158679 1_646
Ba0 O9 3.158679 1_546
O0 Y3 2.308646 1_555
O0 Y0 2.394850 1_555
O0 Y0 2.394850 1_655
O0 Sr1 2.574031 1_655
O0 Sr1 2.574031 1_555
O1 Y4 2.308647 1_555
O1 Y1 2.394854 1_645
O1 Y1 2.394854 1_545
O1 Sr1 2.574064 1_555
O1 Sr1 2.574064 1_655
O2 Y5 2.308642 1_555
O2 Y2 2.394854 1_654
O2 Y2 2.394854 1_554
O2 Sr1 2.574024 1_555
O2 Sr1 2.574024 1_655
O3 Y0 2.314496 1_555
O3 Y3 2.374502 1_455
O3 Y3 2.374502 1_555
O3 Sr0 2.586593 1_455
O3 Sr0 2.586593 1_555
O4 Y1 2.314497 1_555
O4 Y4 2.374505 1_565
O4 Y4 2.374505 1_465
O4 Sr0 2.586643 1_555
O4 Sr0 2.586643 1_455
O5 Y2 2.314501 1_555
O5 Y5 2.374507 1_556
O5 Y5 2.374507 1_456
O5 Sr0 2.586597 1_555
O5 Sr0 2.586597 1_455
O6 Y0 2.249747 1_655
O6 Y0 2.249747 1_555
O6 Y5 2.275384 1_556
O7 Y1 2.249747 1_555
O7 Y1 2.249747 1_655
O7 Y3 2.275391 1_555
O8 Y2 2.249752 1_655
O8 Y2 2.249752 1_555
O8 Y4 2.275398 1_565
O9 Y2 2.284591 1_554
O9 Y3 2.288637 1_455
O9 Y3 2.288637 1_555
O10 Y0 2.284605 1_555
O10 Y4 2.288643 1_555
O10 Y4 2.288643 1_455
O11 Y1 2.284633 1_545
O11 Y5 2.288642 1_455
O11 Y5 2.288642 1_555
