# generated using pymatgen
data_NdCO4
_symmetry_space_group_name_H-M   'P 1'
_cell_length_a   12.58602492
_cell_length_b   12.58602492
_cell_length_c   9.93310000
_cell_angle_alpha   90.00000000
_cell_angle_beta   90.00000000
_cell_angle_gamma   119.99999432
_symmetry_Int_Tables_number   1
_chemical_formula_structural   NdCO4
_chemical_formula_sum   'Nd18 C18 O72'
_cell_volume   1362.67609964
_cell_formula_units_Z   18
loop_
 _symmetry_equiv_pos_site_id
 _symmetry_equiv_pos_as_xyz
  1  'x, y, z'
loop_
 _atom_site_type_symbol
 _atom_site_label
 _atom_site_symmetry_multiplicity
 _atom_site_fract_x
 _atom_site_fract_y
 _atom_site_fract_z
 _atom_site_occupancy
  Nd  Nd0  1  0.12017400  0.89039200  0.25194600  1
  Nd  Nd1  1  0.77021800  0.87982600  0.25194600  1
  Nd  Nd2  1  0.10960800  0.22978200  0.25194600  1
  Nd  Nd3  1  0.12017400  0.89039200  0.74805400  1
  Nd  Nd4  1  0.77021800  0.87982600  0.74805400  1
  Nd  Nd5  1  0.10960800  0.22978200  0.74805400  1
  Nd  Nd6  1  0.43771900  0.22011600  0.24254500  1
  Nd  Nd7  1  0.78239700  0.56228100  0.24254500  1
  Nd  Nd8  1  0.77988400  0.21760300  0.24254500  1
  Nd  Nd9  1  0.43771900  0.22011600  0.75745500  1
  Nd  Nd10  1  0.78239700  0.56228100  0.75745500  1
  Nd  Nd11  1  0.77988400  0.21760300  0.75745500  1
  Nd  Nd12  1  0.10074100  0.55316300  0.25320700  1
  Nd  Nd13  1  0.45242200  0.89925900  0.25320700  1
  Nd  Nd14  1  0.44683700  0.54757800  0.25320700  1
  Nd  Nd15  1  0.10074100  0.55316300  0.74679300  1
  Nd  Nd16  1  0.45242200  0.89925900  0.74679300  1
  Nd  Nd17  1  0.44683700  0.54757800  0.74679300  1
  C  C0  1  0.64556300  0.13938400  0.50000000  1
  C  C1  1  0.49382100  0.35443700  0.50000000  1
  C  C2  1  0.86061600  0.50617900  0.50000000  1
  C  C3  1  0.19188700  0.16314800  0.50000000  1
  C  C4  1  0.97126000  0.80811300  0.50000000  1
  C  C5  1  0.83685200  0.02874000  0.50000000  1
  C  C6  1  0.17168000  0.70149700  0.50000000  1
  C  C7  1  0.52981600  0.82832000  0.50000000  1
  C  C8  1  0.29850300  0.47018400  0.50000000  1
  C  C9  1  0.57736400  0.13108900  0.00000000  1
  C  C10  1  0.55372500  0.42263600  0.00000000  1
  C  C11  1  0.86891100  0.44627500  0.00000000  1
  C  C12  1  0.31218500  0.84179200  0.00000000  1
  C  C13  1  0.52960600  0.68781500  0.00000000  1
  C  C14  1  0.15820800  0.47039400  0.00000000  1
  C  C15  1  0.19953000  0.03277800  0.00000000  1
  C  C16  1  0.83324800  0.80047000  0.00000000  1
  C  C17  1  0.96722200  0.16675200  0.00000000  1
  O  O0  1  0.75040200  0.23993600  0.50000000  1
  O  O1  1  0.48953400  0.24959800  0.50000000  1
  O  O2  1  0.76006400  0.51046600  0.50000000  1
  O  O3  1  0.59613300  0.08996400  0.38583600  1
  O  O4  1  0.49383100  0.40386700  0.38583600  1
  O  O5  1  0.91003600  0.50616900  0.38583600  1
  O  O6  1  0.59613300  0.08996400  0.61416400  1
  O  O7  1  0.49383100  0.40386700  0.61416400  1
  O  O8  1  0.91003600  0.50616900  0.61416400  1
  O  O9  1  0.09348700  0.17297200  0.50000000  1
  O  O10  1  0.07948500  0.90651300  0.50000000  1
  O  O11  1  0.82702800  0.92051500  0.50000000  1
  O  O12  1  0.23881300  0.16071700  0.38511500  1
  O  O13  1  0.92190500  0.76118700  0.38511500  1
  O  O14  1  0.83928300  0.07809500  0.38511500  1
  O  O15  1  0.23881300  0.16071700  0.61488500  1
  O  O16  1  0.92190500  0.76118700  0.61488500  1
  O  O17  1  0.83928300  0.07809500  0.61488500  1
  O  O18  1  0.16077500  0.59298800  0.50000000  1
  O  O19  1  0.43221300  0.83922500  0.50000000  1
  O  O20  1  0.40701200  0.56778700  0.50000000  1
  O  O21  1  0.17467700  0.75120000  0.38547200  1
  O  O22  1  0.57652300  0.82532300  0.38547200  1
  O  O23  1  0.24880000  0.42347700  0.38547200  1
  O  O24  1  0.17467700  0.75120000  0.61452800  1
  O  O25  1  0.57652300  0.82532300  0.61452800  1
  O  O26  1  0.24880000  0.42347700  0.61452800  1
  O  O27  1  0.69594700  0.19106500  0.00000000  1
  O  O28  1  0.49511800  0.30405300  0.00000000  1
  O  O29  1  0.80893500  0.50488200  0.00000000  1
  O  O30  1  0.51917700  0.10152500  0.88615000  1
  O  O31  1  0.58234700  0.48082300  0.88615000  1
  O  O32  1  0.89847500  0.41765300  0.88615000  1
  O  O33  1  0.51917700  0.10152500  0.11385000  1
  O  O34  1  0.58234700  0.48082300  0.11385000  1
  O  O35  1  0.89847500  0.41765300  0.11385000  1
  O  O36  1  0.41925900  0.84933700  0.00000000  1
  O  O37  1  0.43007900  0.58074100  0.00000000  1
  O  O38  1  0.15066300  0.56992100  0.00000000  1
  O  O39  1  0.26240400  0.83962400  0.88565100  1
  O  O40  1  0.57722000  0.73759600  0.88565100  1
  O  O41  1  0.16037600  0.42278000  0.88565100  1
  O  O42  1  0.26240400  0.83962400  0.11434900  1
  O  O43  1  0.57722000  0.73759600  0.11434900  1
  O  O44  1  0.16037600  0.42278000  0.11434900  1
  O  O45  1  0.09973800  0.92688200  0.00000000  1
  O  O46  1  0.82714400  0.90026200  0.00000000  1
  O  O47  1  0.07311800  0.17285600  0.00000000  1
  O  O48  1  0.24812500  0.08232000  0.88607000  1
  O  O49  1  0.83419400  0.75187500  0.88607000  1
  O  O50  1  0.91768000  0.16580600  0.88607000  1
  O  O51  1  0.24812500  0.08232000  0.11393000  1
  O  O52  1  0.83419400  0.75187500  0.11393000  1
  O  O53  1  0.91768000  0.16580600  0.11393000  1
  O  O54  1  0.00000000  0.00000000  0.24586200  1
  O  O55  1  0.00000000  0.00000000  0.75413800  1
  O  O56  1  0.66666700  0.33333300  0.25266100  1
  O  O57  1  0.66666700  0.33333300  0.74733900  1
  O  O58  1  0.33333300  0.66666700  0.24939400  1
  O  O59  1  0.33333300  0.66666700  0.75060600  1
  O  O60  1  0.00474500  0.67346900  0.19166200  1
  O  O61  1  0.66872400  0.99525500  0.19166200  1
  O  O62  1  0.32653100  0.33127600  0.19166200  1
  O  O63  1  0.00474500  0.67346900  0.80833800  1
  O  O64  1  0.66872400  0.99525500  0.80833800  1
  O  O65  1  0.32653100  0.33127600  0.80833800  1
  O  O66  1  0.99520200  0.33579700  0.30652400  1
  O  O67  1  0.34059500  0.00479800  0.30652400  1
  O  O68  1  0.66420300  0.65940500  0.30652400  1
  O  O69  1  0.99520200  0.33579700  0.69347600  1
  O  O70  1  0.34059500  0.00479800  0.69347600  1
  O  O71  1  0.66420300  0.65940500  0.69347600  1
loop_
_geom_bond_atom_site_label_1
_geom_bond_atom_site_label_2
_geom_bond_distance
_geom_bond_site_symmetry_2
Nd0 O60 2.440645 1_555
Nd0 O67 2.463520 1_565
Nd0 O54 2.506193 1_565
Nd0 O51 2.533357 1_565
Nd0 O10 2.545262 1_555
Nd0 O21 2.549610 1_555
Nd0 O13 2.561898 1_455
Nd0 O42 2.573838 1_555
Nd0 O45 2.580356 1_555
Nd1 O61 2.440645 1_555
Nd1 O68 2.463520 1_555
Nd1 O54 2.506193 1_665
Nd1 O52 2.533349 1_555
Nd1 O11 2.545262 1_555
Nd1 O22 2.549610 1_555
Nd1 O14 2.561897 1_565
Nd1 O43 2.573838 1_555
Nd1 O46 2.580356 1_555
Nd2 O62 2.440645 1_555
Nd2 O66 2.463520 1_455
Nd2 O54 2.506193 1_555
Nd2 O53 2.533359 1_455
Nd2 O9 2.545262 1_555
Nd2 O23 2.549611 1_555
Nd2 O12 2.561907 1_555
Nd2 O44 2.573838 1_555
Nd2 O47 2.580356 1_555
Nd3 O63 2.440645 1_555
Nd3 O70 2.463520 1_565
Nd3 O55 2.506193 1_565
Nd3 O48 2.533357 1_565
Nd3 O10 2.545262 1_555
Nd3 O24 2.549610 1_555
Nd3 O16 2.561898 1_455
Nd3 O39 2.573838 1_555
Nd3 O45 2.580356 1_556
Nd4 O64 2.440645 1_555
Nd4 O71 2.463520 1_555
Nd4 O55 2.506193 1_665
Nd4 O49 2.533349 1_555
Nd4 O11 2.545262 1_555
Nd4 O25 2.549610 1_555
Nd4 O17 2.561897 1_565
Nd4 O40 2.573838 1_555
Nd4 O46 2.580356 1_556
Nd5 O65 2.440645 1_555
Nd5 O69 2.463520 1_455
Nd5 O55 2.506193 1_555
Nd5 O50 2.533359 1_455
Nd5 O9 2.545262 1_555
Nd5 O26 2.549611 1_555
Nd5 O15 2.561907 1_555
Nd5 O41 2.573838 1_555
Nd5 O47 2.580356 1_556
Nd6 O67 2.435061 1_555
Nd6 O62 2.475694 1_555
Nd6 O51 2.489095 1_555
Nd6 O56 2.497564 1_555
Nd6 O4 2.497975 1_555
Nd6 O33 2.538371 1_555
Nd6 O28 2.584398 1_555
Nd6 O1 2.619334 1_555
Nd6 O12 2.638190 1_555
Nd7 O68 2.435060 1_555
Nd7 O60 2.475694 1_655
Nd7 O52 2.489098 1_555
Nd7 O56 2.497564 1_555
Nd7 O5 2.497974 1_555
Nd7 O34 2.538381 1_555
Nd7 O29 2.584398 1_555
Nd7 O2 2.619334 1_555
Nd7 O13 2.638192 1_555
Nd8 O66 2.435061 1_555
Nd8 O61 2.475694 1_545
Nd8 O53 2.489087 1_555
Nd8 O56 2.497553 1_555
Nd8 O3 2.497975 1_555
Nd8 O35 2.538380 1_555
Nd8 O27 2.584398 1_555
Nd8 O0 2.619334 1_555
Nd8 O14 2.638200 1_555
Nd9 O70 2.435061 1_555
Nd9 O65 2.475694 1_555
Nd9 O48 2.489095 1_555
Nd9 O57 2.497564 1_555
Nd9 O7 2.497975 1_555
Nd9 O30 2.538371 1_555
Nd9 O28 2.584398 1_556
Nd9 O1 2.619334 1_555
Nd9 O15 2.638190 1_555
Nd10 O71 2.435060 1_555
Nd10 O63 2.475694 1_655
Nd10 O49 2.489098 1_555
Nd10 O57 2.497564 1_555
Nd10 O8 2.497974 1_555
Nd10 O31 2.538381 1_555
Nd10 O29 2.584398 1_556
Nd10 O2 2.619334 1_555
Nd10 O16 2.638192 1_555
Nd11 O69 2.435061 1_555
Nd11 O64 2.475694 1_545
Nd11 O50 2.489087 1_555
Nd11 O57 2.497553 1_555
Nd11 O6 2.497975 1_555
Nd11 O32 2.538380 1_555
Nd11 O27 2.584398 1_556
Nd11 O0 2.619334 1_555
Nd11 O17 2.638200 1_555
Nd12 O66 2.428042 1_455
Nd12 O60 2.440421 1_555
Nd12 O44 2.527918 1_555
Nd12 O5 2.535117 1_455
Nd12 O58 2.535737 1_555
Nd12 O18 2.540252 1_555
Nd12 O21 2.546595 1_555
Nd12 O38 2.575389 1_555
Nd12 O35 2.638916 1_455
Nd13 O67 2.428042 1_565
Nd13 O61 2.440421 1_555
Nd13 O42 2.527918 1_555
Nd13 O3 2.535117 1_565
Nd13 O58 2.535737 1_555
Nd13 O19 2.540252 1_555
Nd13 O22 2.546595 1_555
Nd13 O36 2.575389 1_555
Nd13 O33 2.638918 1_565
Nd14 O68 2.428042 1_555
Nd14 O62 2.440421 1_555
Nd14 O43 2.527918 1_555
Nd14 O4 2.535117 1_555
Nd14 O58 2.535748 1_555
Nd14 O20 2.540252 1_555
Nd14 O23 2.546595 1_555
Nd14 O37 2.575387 1_555
Nd14 O34 2.638908 1_555
Nd15 O69 2.428042 1_455
Nd15 O63 2.440421 1_555
Nd15 O41 2.527918 1_555
Nd15 O8 2.535117 1_455
Nd15 O59 2.535737 1_555
Nd15 O18 2.540252 1_555
Nd15 O24 2.546595 1_555
Nd15 O38 2.575389 1_556
Nd15 O32 2.638916 1_455
Nd16 O70 2.428042 1_565
Nd16 O64 2.440421 1_555
Nd16 O39 2.527918 1_555
Nd16 O6 2.535117 1_565
Nd16 O59 2.535737 1_555
Nd16 O19 2.540252 1_555
Nd16 O25 2.546595 1_555
Nd16 O36 2.575389 1_556
Nd16 O30 2.638918 1_565
Nd17 O71 2.428042 1_555
Nd17 O65 2.440421 1_555
Nd17 O40 2.527918 1_555
Nd17 O7 2.535117 1_555
Nd17 O59 2.535748 1_555
Nd17 O20 2.540252 1_555
Nd17 O26 2.546595 1_555
Nd17 O37 2.575387 1_556
Nd17 O31 2.638908 1_555
C0 O0 1.293373 1_555
C0 O6 1.293416 1_555
C0 O3 1.293416 1_555
C1 O1 1.293372 1_555
C1 O7 1.293416 1_555
C1 O4 1.293416 1_555
C2 O2 1.293372 1_555
C2 O8 1.293416 1_555
C2 O5 1.293416 1_555
C3 O15 1.292318 1_555
C3 O12 1.292318 1_555
C3 O9 1.304689 1_555
C4 O13 1.292311 1_555
C4 O16 1.292311 1_555
C4 O10 1.304696 1_655
C5 O17 1.292306 1_555
C5 O14 1.292306 1_555
C5 O11 1.304702 1_545
C6 O24 1.289702 1_555
C6 O21 1.289702 1_555
C6 O18 1.302507 1_555
C7 O25 1.289708 1_555
C7 O22 1.289708 1_555
C7 O19 1.302494 1_555
C8 O26 1.289704 1_555
C8 O23 1.289704 1_555
C8 O20 1.302501 1_555
C9 O27 1.292562 1_555
C9 O30 1.296602 1_554
C9 O33 1.296602 1_555
C10 O28 1.292562 1_555
C10 O31 1.296602 1_554
C10 O34 1.296602 1_555
C11 O29 1.292562 1_555
C11 O32 1.296597 1_554
C11 O35 1.296597 1_555
C12 O42 1.290868 1_555
C12 O39 1.290868 1_554
C12 O36 1.302754 1_555
C13 O43 1.290871 1_555
C13 O40 1.290871 1_554
C13 O37 1.302743 1_555
C14 O44 1.290874 1_555
C14 O41 1.290874 1_554
C14 O38 1.302728 1_555
C15 O48 1.289265 1_554
C15 O51 1.289265 1_555
C15 O45 1.296106 1_545
C16 O49 1.289262 1_554
C16 O52 1.289262 1_555
C16 O46 1.296106 1_555
C17 O50 1.289268 1_554
C17 O53 1.289268 1_555
C17 O47 1.296106 1_655
