# generated using pymatgen
data_PrHSO5
_symmetry_space_group_name_H-M   'P 1'
_cell_length_a   4.55818600
_cell_length_b   12.63205500
_cell_length_c   7.17018026
_cell_angle_alpha   90.00000000
_cell_angle_beta   111.42836539
_cell_angle_gamma   90.00000000
_symmetry_Int_Tables_number   1
_chemical_formula_structural   PrHSO5
_chemical_formula_sum   'Pr4 H4 S4 O20'
_cell_volume   384.31516418
_cell_formula_units_Z   4
loop_
 _symmetry_equiv_pos_site_id
 _symmetry_equiv_pos_as_xyz
  1  'x, y, z'
loop_
 _atom_site_type_symbol
 _atom_site_label
 _atom_site_symmetry_multiplicity
 _atom_site_fract_x
 _atom_site_fract_y
 _atom_site_fract_z
 _atom_site_occupancy
  Pr  Pr0  1  0.33894900  0.93445300  0.69832500  1
  Pr  Pr1  1  0.33894900  0.56554700  0.19832500  1
  Pr  Pr2  1  0.66105100  0.06554700  0.30167500  1
  Pr  Pr3  1  0.66105100  0.43445300  0.80167500  1
  H  H0  1  0.30628200  0.15221200  0.53715800  1
  H  H1  1  0.30628200  0.34778800  0.03715800  1
  H  H2  1  0.69371800  0.84778800  0.46284200  1
  H  H3  1  0.69371800  0.65221200  0.96284200  1
  S  S0  1  0.09514200  0.85494400  0.11222000  1
  S  S1  1  0.09514200  0.64505600  0.61222000  1
  S  S2  1  0.90485800  0.14505600  0.88778000  1
  S  S3  1  0.90485800  0.35494400  0.38778000  1
  O  O0  1  0.80483400  0.83485100  0.93961000  1
  O  O1  1  0.80483400  0.66514900  0.43961000  1
  O  O2  1  0.19516600  0.16514900  0.06039000  1
  O  O3  1  0.19516600  0.33485100  0.56039000  1
  O  O4  1  0.30250200  0.93048100  0.05038400  1
  O  O5  1  0.30250200  0.56951900  0.55038400  1
  O  O6  1  0.69749800  0.06951900  0.94961600  1
  O  O7  1  0.69749800  0.43048100  0.44961600  1
  O  O8  1  0.27087300  0.75550600  0.18251300  1
  O  O9  1  0.27087300  0.74449400  0.68251300  1
  O  O10  1  0.72912700  0.24449400  0.81748700  1
  O  O11  1  0.72912700  0.25550600  0.31748700  1
  O  O12  1  0.02940000  0.90532100  0.28078800  1
  O  O13  1  0.02940000  0.59467900  0.78078800  1
  O  O14  1  0.97060000  0.09467900  0.71921200  1
  O  O15  1  0.97060000  0.40532100  0.21921200  1
  O  O16  1  0.26629300  0.08501800  0.46270200  1
  O  O17  1  0.26629300  0.41498200  0.96270200  1
  O  O18  1  0.73370700  0.91498200  0.53729800  1
  O  O19  1  0.73370700  0.58501800  0.03729800  1
loop_
_geom_bond_atom_site_label_1
_geom_bond_atom_site_label_2
_geom_bond_distance
_geom_bond_site_symmetry_2
H0 O16 0.983662 1_555
H1 O17 0.983662 1_554
H2 O18 0.983662 1_555
H3 O19 0.983662 1_556
O0 S0 1.466489 1_656
O0 Pr0 2.530078 1_555
O1 S1 1.466489 1_655
O1 Pr1 2.530078 1_555
O2 S2 1.466489 1_454
O2 Pr2 2.530078 1_555
O3 S3 1.466489 1_455
O3 Pr3 2.530078 1_555
O4 S0 1.518761 1_555
O4 Pr2 2.583964 1_565
O4 Pr0 2.590129 1_554
O5 S1 1.518761 1_555
O5 Pr3 2.583964 1_555
O5 Pr1 2.590129 1_555
O6 S2 1.518761 1_555
O6 Pr0 2.583964 1_545
O6 Pr2 2.590129 1_556
O7 S3 1.518761 1_555
O7 Pr1 2.583964 1_555
O7 Pr3 2.590129 1_555
O8 S0 1.475963 1_555
O8 Pr1 2.416896 1_555
O9 S1 1.475963 1_555
O9 Pr0 2.416896 1_555
O10 S2 1.475963 1_555
O10 Pr3 2.416896 1_555
O11 S3 1.475963 1_555
O11 Pr2 2.416896 1_555
O12 S0 1.490057 1_555
O12 Pr2 2.668655 1_465
O12 Pr0 2.828903 1_555
O13 S1 1.490057 1_555
O13 Pr3 2.668655 1_455
O13 Pr1 2.828903 1_556
O14 S2 1.490057 1_555
O14 Pr0 2.668655 1_645
O14 Pr2 2.828903 1_555
O15 S3 1.490057 1_555
O15 Pr1 2.668655 1_655
O15 Pr3 2.828903 1_554
O16 Pr2 2.479791 1_555
O16 Pr0 2.484457 1_545
O16 Pr2 2.584022 1_455
O17 Pr3 2.479791 1_555
O17 Pr1 2.484457 1_556
O17 Pr3 2.584022 1_455
O18 Pr0 2.479791 1_555
O18 Pr2 2.484457 1_565
O18 Pr0 2.584022 1_655
O19 Pr1 2.479791 1_555
O19 Pr3 2.484457 1_554
O19 Pr1 2.584022 1_655
