# generated using pymatgen
data_Ce2Al2Co15
_symmetry_space_group_name_H-M   'P 1'
_cell_length_a   6.32590657
_cell_length_b   6.32590686
_cell_length_c   6.32590693
_cell_angle_alpha   82.50745767
_cell_angle_beta   82.50745996
_cell_angle_gamma   82.50745198
_symmetry_Int_Tables_number   1
_chemical_formula_structural   Ce2Al2Co15
_chemical_formula_sum   'Ce2 Al2 Co15'
_cell_volume   247.17892287
_cell_formula_units_Z   1
loop_
 _symmetry_equiv_pos_site_id
 _symmetry_equiv_pos_as_xyz
  1  'x, y, z'
loop_
 _atom_site_type_symbol
 _atom_site_label
 _atom_site_symmetry_multiplicity
 _atom_site_fract_x
 _atom_site_fract_y
 _atom_site_fract_z
 _atom_site_occupancy
  Ce  Ce0  1  0.35428300  0.35428300  0.35428300  1
  Ce  Ce1  1  0.64571700  0.64571700  0.64571700  1
  Al  Al0  1  0.10554900  0.10554900  0.10554900  1
  Al  Al1  1  0.89445100  0.89445100  0.89445100  1
  Co  Co0  1  0.00000000  0.28594700  0.71405300  1
  Co  Co1  1  0.35119100  0.35119100  0.85331600  1
  Co  Co2  1  0.00000000  0.00000000  0.50000000  1
  Co  Co3  1  0.50000000  0.00000000  0.00000000  1
  Co  Co4  1  0.00000000  0.50000000  0.00000000  1
  Co  Co5  1  0.28594700  0.71405300  0.00000000  1
  Co  Co6  1  0.71405300  0.00000000  0.28594700  1
  Co  Co7  1  0.00000000  0.71405300  0.28594700  1
  Co  Co8  1  0.71405300  0.28594700  0.00000000  1
  Co  Co9  1  0.85331600  0.35119100  0.35119100  1
  Co  Co10  1  0.28594700  0.00000000  0.71405300  1
  Co  Co11  1  0.64880900  0.14668400  0.64880900  1
  Co  Co12  1  0.64880900  0.64880900  0.14668400  1
  Co  Co13  1  0.14668400  0.64880900  0.64880900  1
  Co  Co14  1  0.35119100  0.85331600  0.35119100  1
loop_
_geom_bond_atom_site_label_1
_geom_bond_atom_site_label_2
_geom_bond_distance
_geom_bond_site_symmetry_2
Ce0 Co11 2.880334 1_555
Ce0 Co13 2.880335 1_555
Ce0 Co12 2.880335 1_555
Ce0 Co7 3.009177 1_555
Ce0 Co6 3.009177 1_555
Ce0 Co5 3.009177 1_555
Ce0 Co8 3.009177 1_555
Ce0 Co0 3.009177 1_555
Ce0 Co10 3.009177 1_555
Ce0 Co9 3.151868 1_555
Ce0 Co14 3.151868 1_555
Ce0 Co1 3.151868 1_555
Ce0 Co9 3.174304 1_455
Ce0 Co14 3.174304 1_545
Ce0 Co1 3.174304 1_554
Ce1 Co14 2.880334 1_555
Ce1 Co9 2.880335 1_555
Ce1 Co1 2.880335 1_555
Ce1 Co0 3.009177 1_655
Ce1 Co10 3.009177 1_565
Ce1 Co8 3.009177 1_556
Ce1 Co5 3.009177 1_556
Ce1 Co7 3.009177 1_655
Ce1 Co6 3.009177 1_565
Ce1 Co13 3.151868 1_555
Ce1 Co11 3.151868 1_555
Ce1 Co12 3.151868 1_555
Ce1 Co13 3.174304 1_655
Ce1 Co11 3.174304 1_565
Ce1 Co12 3.174304 1_556
Al0 Co3 2.522938 1_555
Al0 Co4 2.522938 1_555
Al0 Co2 2.522938 1_555
Al0 Co14 2.590694 1_545
Al0 Co9 2.590694 1_455
Al0 Co1 2.590694 1_554
Al0 Al1 2.597106 1_444
Al0 Co8 2.716057 1_455
Al0 Co5 2.716057 1_545
Al0 Co0 2.716057 1_554
Al0 Co6 2.716057 1_455
Al0 Co10 2.716057 1_554
Al0 Co7 2.716057 1_545
Al0 Ce0 3.060136 1_555
Al1 Co3 2.522938 1_566
Al1 Co4 2.522938 1_656
Al1 Co2 2.522938 1_665
Al1 Co11 2.590694 1_565
Al1 Co13 2.590694 1_655
Al1 Co12 2.590694 1_556
Al1 Co5 2.716057 1_656
Al1 Co8 2.716057 1_566
Al1 Co7 2.716057 1_656
Al1 Co10 2.716057 1_665
Al1 Co6 2.716057 1_566
Al1 Co0 2.716057 1_665
Al1 Ce1 3.060136 1_555
Co0 Co10 2.385524 1_555
Co0 Co8 2.385524 1_456
Co0 Co2 2.396734 1_555
Co0 Co4 2.396734 1_556
Co0 Co9 2.551253 1_455
Co0 Co13 2.551253 1_555
Co0 Co1 2.593515 1_555
Co0 Co11 2.593515 1_455
Co1 Co4 2.414013 1_556
Co1 Co3 2.414013 1_556
Co1 Co13 2.461285 1_555
Co1 Co11 2.461285 1_555
Co1 Co8 2.551253 1_556
Co1 Co5 2.551253 1_556
Co1 Co10 2.593515 1_555
Co2 Co6 2.396734 1_455
Co2 Co7 2.396734 1_545
Co2 Co9 2.414013 1_455
Co3 Co6 2.396734 1_555
Co3 Co8 2.396734 1_555
Co3 Co5 2.396734 1_545
Co4 Co7 2.396734 1_555
Co4 Co5 2.396734 1_555
Co4 Co8 2.396734 1_455
Co4 Co9 2.414013 1_455
Co5 Co7 2.385524 1_555
Co6 Co7 2.385524 1_645
Co6 Co8 2.385524 1_555
Co6 Co9 2.593515 1_555
Co7 Co9 2.551253 1_455
Co8 Co9 2.593515 1_555
Co10 Co5 2.385524 1_546
Co10 Co2 2.396734 1_555
Co10 Co3 2.396734 1_556
Co10 Co11 2.551253 1_555
Co10 Co14 2.551253 1_545
Co10 Co13 2.593515 1_545
Co11 Co2 2.414013 1_655
Co11 Co3 2.414013 1_556
Co11 Co9 2.461286 1_555
Co11 Co6 2.551253 1_555
Co11 Co8 2.593515 1_556
Co12 Co4 2.414013 1_655
Co12 Co3 2.414013 1_565
Co12 Co9 2.461285 1_555
Co12 Co14 2.461285 1_555
Co12 Co5 2.551253 1_555
Co12 Co8 2.551253 1_555
Co12 Co7 2.593515 1_655
Co12 Co6 2.593515 1_565
Co13 Co2 2.414013 1_565
Co13 Co4 2.414013 1_556
Co13 Co14 2.461286 1_555
Co13 Co7 2.551253 1_555
Co13 Co5 2.593515 1_556
Co14 Co2 2.414013 1_565
Co14 Co3 2.414013 1_565
Co14 Co6 2.551253 1_565
Co14 Co7 2.593515 1_555
Co14 Co5 2.593515 1_555
