# generated using pymatgen
data_NdBiRh
_symmetry_space_group_name_H-M   'P 1'
_cell_length_a   4.74827621
_cell_length_b   7.47889028
_cell_length_c   8.04096640
_cell_angle_alpha   90.00000000
_cell_angle_beta   90.00000000
_cell_angle_gamma   90.00000000
_symmetry_Int_Tables_number   1
_chemical_formula_structural   NdBiRh
_chemical_formula_sum   'Nd4 Bi4 Rh4'
_cell_volume   285.54948646
_cell_formula_units_Z   4
loop_
 _symmetry_equiv_pos_site_id
 _symmetry_equiv_pos_as_xyz
  1  'x, y, z'
loop_
 _atom_site_type_symbol
 _atom_site_label
 _atom_site_symmetry_multiplicity
 _atom_site_fract_x
 _atom_site_fract_y
 _atom_site_fract_z
 _atom_site_occupancy
  Nd  Nd0  1  0.75000000  0.01458232  0.30167132  1
  Nd  Nd1  1  0.25000000  0.98541768  0.69832868  1
  Nd  Nd2  1  0.25000000  0.48541768  0.80167132  1
  Nd  Nd3  1  0.75000000  0.51458232  0.19832868  1
  Bi  Bi0  1  0.75000000  0.68530378  0.59049284  1
  Bi  Bi1  1  0.25000000  0.31469622  0.40950716  1
  Bi  Bi2  1  0.25000000  0.81469622  0.09049284  1
  Bi  Bi3  1  0.75000000  0.18530378  0.90950716  1
  Rh  Rh0  1  0.75000000  0.79612848  0.91990889  1
  Rh  Rh1  1  0.25000000  0.20387152  0.08009111  1
  Rh  Rh2  1  0.25000000  0.70387152  0.41990889  1
  Rh  Rh3  1  0.75000000  0.29612848  0.58009111  1
loop_
_geom_bond_atom_site_label_1
_geom_bond_atom_site_label_2
_geom_bond_distance
_geom_bond_site_symmetry_2
Nd0 Rh3 3.073408 1_555
Nd0 Rh1 3.288645 1_555
Nd0 Rh1 3.288645 1_655
Nd0 Rh2 3.455483 1_545
Nd0 Rh2 3.455483 1_645
Nd0 Rh0 3.477438 1_544
Nd1 Rh2 3.073408 1_555
Nd1 Rh0 3.288645 1_555
Nd1 Rh0 3.288645 1_455
Nd1 Rh3 3.455483 1_565
Nd1 Rh3 3.455483 1_465
Nd1 Rh1 3.477438 1_566
Nd2 Rh1 3.073408 1_556
Nd2 Rh3 3.288645 1_455
Nd2 Rh3 3.288645 1_555
Nd2 Rh0 3.455483 1_555
Nd2 Rh0 3.455483 1_455
Nd2 Rh2 3.477438 1_555
Nd3 Rh0 3.073408 1_554
Nd3 Rh2 3.288645 1_555
Nd3 Rh2 3.288645 1_655
Nd3 Rh1 3.455483 1_655
Nd3 Rh1 3.455483 1_555
Nd3 Rh3 3.477438 1_555
Bi0 Rh2 2.745408 1_555
Bi0 Rh2 2.745408 1_655
Bi0 Rh0 2.775473 1_555
Bi0 Rh3 2.911801 1_555
Bi0 Nd2 3.279452 1_655
Bi0 Nd2 3.279452 1_555
Bi0 Nd1 3.380276 1_655
Bi0 Nd1 3.380276 1_555
Bi0 Nd0 3.384989 1_565
Bi0 Nd3 3.402063 1_555
Bi1 Rh3 2.745408 1_555
Bi1 Rh3 2.745408 1_455
Bi1 Rh1 2.775473 1_555
Bi1 Rh2 2.911801 1_555
Bi1 Nd3 3.279452 1_455
Bi1 Nd3 3.279452 1_555
Bi1 Nd0 3.380276 1_455
Bi1 Nd0 3.380276 1_555
Bi1 Nd1 3.384989 1_545
Bi1 Nd2 3.402063 1_555
Bi2 Rh0 2.745408 1_454
Bi2 Rh0 2.745408 1_554
Bi2 Rh2 2.775473 1_555
Bi2 Rh1 2.911801 1_565
Bi2 Nd0 3.279452 1_465
Bi2 Nd0 3.279452 1_565
Bi2 Nd3 3.380276 1_555
Bi2 Nd3 3.380276 1_455
Bi2 Nd2 3.384989 1_554
Bi2 Nd1 3.402063 1_554
Bi3 Rh1 2.745408 1_556
Bi3 Rh1 2.745408 1_656
Bi3 Rh3 2.775473 1_555
Bi3 Rh0 2.911801 1_545
Bi3 Nd1 3.279452 1_645
Bi3 Nd1 3.279452 1_545
Bi3 Nd2 3.380276 1_555
Bi3 Nd2 3.380276 1_655
Bi3 Nd3 3.384989 1_556
Bi3 Nd0 3.402063 1_556
