# generated using pymatgen
data_TiCo3O8
_symmetry_space_group_name_H-M   'P 1'
_cell_length_a   5.63205191
_cell_length_b   5.63205191
_cell_length_c   8.94221500
_cell_angle_alpha   90.00000000
_cell_angle_beta   90.00000000
_cell_angle_gamma   119.99999891
_symmetry_Int_Tables_number   1
_chemical_formula_structural   TiCo3O8
_chemical_formula_sum   'Ti2 Co6 O16'
_cell_volume   245.64562944
_cell_formula_units_Z   2
loop_
 _symmetry_equiv_pos_site_id
 _symmetry_equiv_pos_as_xyz
  1  'x, y, z'
loop_
 _atom_site_type_symbol
 _atom_site_label
 _atom_site_symmetry_multiplicity
 _atom_site_fract_x
 _atom_site_fract_y
 _atom_site_fract_z
 _atom_site_occupancy
  Ti  Ti0  1  0.33333300  0.66666700  0.49613100  1
  Ti  Ti1  1  0.66666700  0.33333300  0.99613100  1
  Co  Co0  1  0.16784200  0.83215800  0.21297400  1
  Co  Co1  1  0.16784200  0.33568400  0.21297400  1
  Co  Co2  1  0.66431600  0.83215800  0.21297400  1
  Co  Co3  1  0.33568400  0.16784200  0.71297400  1
  Co  Co4  1  0.83215800  0.66431600  0.71297400  1
  Co  Co5  1  0.83215800  0.16784200  0.71297400  1
  O  O0  1  0.16349800  0.83650200  0.60286300  1
  O  O1  1  0.03879600  0.51939800  0.33035800  1
  O  O2  1  0.33333300  0.66666700  0.10240000  1
  O  O3  1  0.00000000  0.00000000  0.32071400  1
  O  O4  1  0.00000000  0.00000000  0.82071400  1
  O  O5  1  0.16349800  0.32699700  0.60286300  1
  O  O6  1  0.48060200  0.96120400  0.33035800  1
  O  O7  1  0.48060200  0.51939800  0.33035800  1
  O  O8  1  0.32699700  0.16349800  0.10286300  1
  O  O9  1  0.67300300  0.83650200  0.60286300  1
  O  O10  1  0.51939800  0.48060200  0.83035800  1
  O  O11  1  0.51939800  0.03879600  0.83035800  1
  O  O12  1  0.66666700  0.33333300  0.60240000  1
  O  O13  1  0.83650200  0.67300300  0.10286300  1
  O  O14  1  0.96120400  0.48060200  0.83035800  1
  O  O15  1  0.83650200  0.16349800  0.10286300  1
loop_
_geom_bond_atom_site_label_1
_geom_bond_atom_site_label_2
_geom_bond_distance
_geom_bond_site_symmetry_2
Co0 O1 1.858124 1_555
Co0 O6 1.858124 1_555
Co0 O8 1.892794 1_565
Co0 O13 1.892794 1_455
Co0 O2 1.893107 1_555
Co0 O3 1.899724 1_565
Co1 O1 1.858124 1_555
Co1 O7 1.858124 1_555
Co1 O15 1.892794 1_455
Co1 O8 1.892798 1_555
Co1 O2 1.893111 1_555
Co1 O3 1.899724 1_555
Co2 O6 1.858124 1_555
Co2 O7 1.858124 1_555
Co2 O15 1.892794 1_565
Co2 O13 1.892798 1_555
Co2 O2 1.893111 1_555
Co2 O3 1.899724 1_665
Co3 O11 1.858124 1_555
Co3 O10 1.858124 1_555
Co3 O0 1.892794 1_545
Co3 O5 1.892798 1_555
Co3 O12 1.893111 1_555
Co3 O4 1.899724 1_555
Co4 O14 1.858124 1_555
Co4 O10 1.858124 1_555
Co4 O0 1.892794 1_655
Co4 O9 1.892798 1_555
Co4 O12 1.893111 1_555
Co4 O4 1.899724 1_665
Co5 O11 1.858124 1_555
Co5 O14 1.858124 1_555
Co5 O5 1.892794 1_655
Co5 O9 1.892794 1_545
Co5 O12 1.893107 1_555
Co5 O4 1.899724 1_655
O0 Ti0 1.911990 1_555
O1 Ti0 2.064286 1_555
O5 Ti0 1.911990 1_555
O6 Ti0 2.064286 1_555
O7 Ti0 2.064289 1_555
O8 Ti1 1.911990 1_554
O9 Ti0 1.911990 1_555
O10 Ti1 2.064289 1_555
O11 Ti1 2.064286 1_555
O13 Ti1 1.911990 1_554
O14 Ti1 2.064286 1_555
O15 Ti1 1.911990 1_554
