# generated using pymatgen
data_Y4Si2Sn13(SbO14)2
_symmetry_space_group_name_H-M   'P 1'
_cell_length_a   14.14000392
_cell_length_b   14.14000392
_cell_length_c   9.80585950
_cell_angle_alpha   86.84280430
_cell_angle_beta   86.84280430
_cell_angle_gamma   154.29494835
_symmetry_Int_Tables_number   1
_chemical_formula_structural   Y4Si2Sn13(SbO14)2
_chemical_formula_sum   'Y4 Si2 Sn13 Sb2 O28'
_cell_volume   823.90169870
_cell_formula_units_Z   1
loop_
 _symmetry_equiv_pos_site_id
 _symmetry_equiv_pos_as_xyz
  1  'x, y, z'
loop_
 _atom_site_type_symbol
 _atom_site_label
 _atom_site_symmetry_multiplicity
 _atom_site_fract_x
 _atom_site_fract_y
 _atom_site_fract_z
 _atom_site_occupancy
  Y  Y0  1  0.05738700  0.47649700  0.64344000  1
  Y  Y1  1  0.52350300  0.94261300  0.35656000  1
  Y  Y2  1  0.94261300  0.52350300  0.35656000  1
  Y  Y3  1  0.47649700  0.05738700  0.64344000  1
  Si  Si0  1  0.16932600  0.16932600  0.28594000  1
  Si  Si1  1  0.83067400  0.83067400  0.71406000  1
  Sn  Sn0  1  0.88314800  0.62563200  0.65920100  1
  Sn  Sn1  1  0.65757600  0.80209900  0.33546700  1
  Sn  Sn2  1  0.37436800  0.11685200  0.34079900  1
  Sn  Sn3  1  0.11685200  0.37436800  0.34079900  1
  Sn  Sn4  1  0.34242400  0.19790100  0.66453300  1
  Sn  Sn5  1  0.29957400  0.70042600  0.00000000  1
  Sn  Sn6  1  0.19790100  0.34242400  0.66453300  1
  Sn  Sn7  1  0.00000000  0.00000000  0.00000000  1
  Sn  Sn8  1  0.43031200  0.56968800  0.00000000  1
  Sn  Sn9  1  0.80209900  0.65757600  0.33546700  1
  Sn  Sn10  1  0.62563200  0.88314800  0.65920100  1
  Sn  Sn11  1  0.56968800  0.43031200  0.00000000  1
  Sn  Sn12  1  0.70042600  0.29957400  0.00000000  1
  Sb  Sb0  1  0.85671800  0.14328200  0.00000000  1
  Sb  Sb1  1  0.14328200  0.85671800  0.00000000  1
  O  O0  1  0.76160000  0.03769300  0.38571400  1
  O  O1  1  0.16153000  0.60691300  0.38875100  1
  O  O2  1  0.91319600  0.91319600  0.26455700  1
  O  O3  1  0.33263400  0.33263400  0.12293600  1
  O  O4  1  0.83847000  0.39308700  0.61124900  1
  O  O5  1  0.23840000  0.96230700  0.61428600  1
  O  O6  1  0.99573400  0.61293200  0.12482300  1
  O  O7  1  0.00426600  0.38706800  0.87517700  1
  O  O8  1  0.66736600  0.66736600  0.87706400  1
  O  O9  1  0.08454900  0.25624700  0.88705200  1
  O  O10  1  0.14645100  0.24817200  0.36330100  1
  O  O11  1  0.96230700  0.23840000  0.61428600  1
  O  O12  1  0.38706800  0.00426600  0.87517700  1
  O  O13  1  0.74375300  0.91545100  0.11294800  1
  O  O14  1  0.75182800  0.85354900  0.63669900  1
  O  O15  1  0.08680400  0.08680400  0.73544300  1
  O  O16  1  0.25624700  0.08454900  0.88705200  1
  O  O17  1  0.91545100  0.74375300  0.11294800  1
  O  O18  1  0.61293200  0.99573400  0.12482300  1
  O  O19  1  0.09769500  0.38663500  0.11088900  1
  O  O20  1  0.90230500  0.61336500  0.88911100  1
  O  O21  1  0.24817200  0.14645100  0.36330100  1
  O  O22  1  0.38663500  0.09769500  0.11088900  1
  O  O23  1  0.60691300  0.16153000  0.38875100  1
  O  O24  1  0.85354900  0.75182800  0.63669900  1
  O  O25  1  0.61336500  0.90230500  0.88911100  1
  O  O26  1  0.03769300  0.76160000  0.38571400  1
  O  O27  1  0.39308700  0.83847000  0.61124900  1
loop_
_geom_bond_atom_site_label_1
_geom_bond_atom_site_label_2
_geom_bond_distance
_geom_bond_site_symmetry_2
O0 Sn3 2.126354 1_655
O0 Sn1 2.221331 1_545
O0 Y1 2.283741 1_545
O0 Sn10 2.622785 1_545
O1 Y2 2.154575 1_455
O1 Y1 2.168703 1_555
O1 Y0 2.449553 1_555
O2 Si0 1.675506 1_665
O2 Sn1 2.320831 1_555
O2 Sn9 2.320831 1_555
O2 Sn7 2.515277 1_665
O3 Si0 1.672458 1_555
O3 Sn11 2.371705 1_555
O3 Sn8 2.371705 1_555
O3 Sn7 2.660985 1_555
O4 Y0 2.154575 1_655
O4 Y3 2.168703 1_555
O4 Y2 2.449553 1_555
O5 Sn0 2.126354 1_455
O5 Sn4 2.221331 1_565
O5 Y3 2.283741 1_565
O5 Sn2 2.622785 1_565
O6 Sb1 2.006824 1_655
O6 Y2 2.260697 1_555
O6 Sn12 2.526977 1_555
O7 Sb0 2.006824 1_456
O7 Y0 2.260697 1_555
O7 Sn5 2.526977 1_556
O8 Si1 1.672458 1_555
O8 Sn8 2.371705 1_556
O8 Sn11 2.371705 1_556
O8 Sn7 2.660985 1_666
O9 Sb0 2.072511 1_456
O9 Sn6 2.148763 1_555
O9 Sn8 2.619435 1_556
O9 Sn7 2.718529 1_556
O10 Si0 1.624508 1_555
O10 Sn3 2.172701 1_555
O11 Sn10 2.126354 1_545
O11 Sn6 2.221331 1_655
O11 Y0 2.283741 1_655
O11 Sn3 2.622785 1_655
O12 Sb1 2.006824 1_546
O12 Y3 2.260697 1_555
O12 Sn12 2.526977 1_556
O13 Sb0 2.072511 1_565
O13 Sn1 2.148763 1_555
O13 Sn8 2.619435 1_555
O13 Sn7 2.718529 1_665
O14 Si1 1.624508 1_555
O14 Sn10 2.172701 1_555
O15 Si1 1.675506 1_445
O15 Sn6 2.320831 1_555
O15 Sn4 2.320831 1_555
O15 Sn7 2.515277 1_556
O16 Sb1 2.072511 1_546
O16 Sn4 2.148763 1_555
O16 Sn11 2.619435 1_556
O16 Sn7 2.718529 1_556
O17 Sb1 2.072511 1_655
O17 Sn9 2.148763 1_555
O17 Sn11 2.619435 1_555
O17 Sn7 2.718529 1_665
O18 Sb0 2.006824 1_565
O18 Y1 2.260697 1_555
O18 Sn5 2.526977 1_555
O19 Sb0 2.079515 1_455
O19 Sn3 2.301074 1_555
O19 Sn5 2.306502 1_555
O19 Sn8 2.681600 1_555
O20 Sb1 2.079515 1_656
O20 Sn0 2.301074 1_555
O20 Sn12 2.306502 1_556
O20 Sn11 2.681600 1_556
O21 Si0 1.624508 1_555
O21 Sn2 2.172701 1_555
O22 Sb1 2.079515 1_545
O22 Sn2 2.301074 1_555
O22 Sn12 2.306502 1_555
O22 Sn11 2.681600 1_555
O23 Y1 2.154575 1_545
O23 Y2 2.168703 1_555
O23 Y3 2.449553 1_555
O24 Si1 1.624508 1_555
O24 Sn0 2.172701 1_555
O25 Sb0 2.079515 1_566
O25 Sn10 2.301074 1_555
O25 Sn5 2.306502 1_556
O25 Sn8 2.681600 1_556
O26 Sn2 2.126354 1_565
O26 Sn9 2.221331 1_455
O26 Y2 2.283741 1_455
O26 Sn0 2.622785 1_455
O27 Y3 2.154575 1_565
O27 Y0 2.168703 1_555
O27 Y1 2.449553 1_555
