# generated using pymatgen
data_SrCa7TiMn7O23
_symmetry_space_group_name_H-M   'P 1'
_cell_length_a   7.65244594
_cell_length_b   7.65244594
_cell_length_c   7.64977523
_cell_angle_alpha   89.92750552
_cell_angle_beta   89.92750552
_cell_angle_gamma   90.21510199
_symmetry_Int_Tables_number   1
_chemical_formula_structural   SrCa7TiMn7O23
_chemical_formula_sum   'Sr1 Ca7 Ti1 Mn7 O23'
_cell_volume   447.96641652
_cell_formula_units_Z   1
loop_
 _symmetry_equiv_pos_site_id
 _symmetry_equiv_pos_as_xyz
  1  'x, y, z'
loop_
 _atom_site_type_symbol
 _atom_site_label
 _atom_site_symmetry_multiplicity
 _atom_site_fract_x
 _atom_site_fract_y
 _atom_site_fract_z
 _atom_site_occupancy
  Sr  Sr0  1  0.25922100  0.25922100  0.25063100  1
  Ca  Ca0  1  0.25554800  0.25554800  0.74716800  1
  Ca  Ca1  1  0.26323600  0.72821700  0.25027700  1
  Ca  Ca2  1  0.26739200  0.74561200  0.74745500  1
  Ca  Ca3  1  0.72821700  0.26323600  0.25027700  1
  Ca  Ca4  1  0.74561200  0.26739200  0.74745500  1
  Ca  Ca5  1  0.74767600  0.74767600  0.25093200  1
  Ca  Ca6  1  0.72891500  0.72891500  0.74887300  1
  Ti  Ti0  1  0.99116400  0.99116400  0.97502900  1
  Mn  Mn0  1  0.99785300  0.99785300  0.50640000  1
  Mn  Mn1  1  0.00082100  0.50224700  0.00125700  1
  Mn  Mn2  1  0.00064000  0.50446100  0.49969600  1
  Mn  Mn3  1  0.50224700  0.00082100  0.00125700  1
  Mn  Mn4  1  0.50446100  0.00064000  0.49969600  1
  Mn  Mn5  1  0.50157900  0.50157900  0.99930300  1
  Mn  Mn6  1  0.50181500  0.50181500  0.50096600  1
  O  O0  1  0.94323900  0.94323900  0.75534900  1
  O  O1  1  0.97619100  0.44515800  0.25102900  1
  O  O2  1  0.01981500  0.55927400  0.75050300  1
  O  O3  1  0.44515800  0.97619100  0.25102900  1
  O  O4  1  0.55927400  0.01981500  0.75050300  1
  O  O5  1  0.52275700  0.52275700  0.25031400  1
  O  O6  1  0.47838900  0.47838900  0.75042500  1
  O  O7  1  0.25061900  0.00294300  0.96090800  1
  O  O8  1  0.25124200  0.00293200  0.54891600  1
  O  O9  1  0.25077500  0.50615500  0.02210800  1
  O  O10  1  0.25126000  0.50613400  0.48044400  1
  O  O11  1  0.75539600  0.00593300  0.06086700  1
  O  O12  1  0.75536300  0.00645900  0.43357600  1
  O  O13  1  0.75246400  0.50415200  0.97378500  1
  O  O14  1  0.75211400  0.50483800  0.52648400  1
  O  O15  1  0.00294300  0.25061900  0.96090800  1
  O  O16  1  0.00293200  0.25124200  0.54891600  1
  O  O17  1  0.00593300  0.75539600  0.06086700  1
  O  O18  1  0.00645900  0.75536300  0.43357600  1
  O  O19  1  0.50615500  0.25077500  0.02210800  1
  O  O20  1  0.50613400  0.25126000  0.48044400  1
  O  O21  1  0.50415200  0.75246400  0.97378500  1
  O  O22  1  0.50483800  0.75211400  0.52648400  1
loop_
_geom_bond_atom_site_label_1
_geom_bond_atom_site_label_2
_geom_bond_distance
_geom_bond_site_symmetry_2
Ca0 O6 2.407271 1_555
Ca0 O16 2.458693 1_555
Ca0 O8 2.458693 1_555
Ca0 O15 2.530379 1_555
Ca0 O7 2.530379 1_555
Ca0 O10 2.798595 1_555
Ca0 O20 2.798595 1_555
Ca0 O9 2.848374 1_556
Ca0 O19 2.848374 1_556
Ca0 O2 2.947621 1_555
Ca0 O4 2.947621 1_555
Ca1 O3 2.349306 1_555
Ca1 O18 2.422241 1_555
Ca1 O9 2.439272 1_555
Ca1 O10 2.446964 1_555
Ca1 O17 2.455439 1_555
Ca1 O5 2.537629 1_555
Ca1 O21 2.809538 1_554
Ca1 O22 2.815037 1_555
Ca2 O2 2.367016 1_555
Ca2 O22 2.480491 1_555
Ca2 O8 2.488807 1_565
Ca2 O21 2.508077 1_555
Ca2 O7 2.563207 1_565
Ca2 O6 2.610366 1_555
Ca2 O10 2.748482 1_555
Ca2 O9 2.788575 1_556
Ca2 O0 2.910670 1_455
Ca3 O1 2.349306 1_555
Ca3 O12 2.422241 1_555
Ca3 O19 2.439272 1_555
Ca3 O20 2.446964 1_555
Ca3 O11 2.455439 1_555
Ca3 O5 2.537629 1_555
Ca3 O13 2.809538 1_554
Ca3 O14 2.815037 1_555
Ca4 O4 2.367016 1_555
Ca4 O14 2.480491 1_555
Ca4 O16 2.488807 1_655
Ca4 O13 2.508077 1_555
Ca4 O15 2.563207 1_655
Ca4 O6 2.610366 1_555
Ca4 O20 2.748482 1_555
Ca4 O19 2.788575 1_556
Ca4 O0 2.910670 1_545
Ca5 O12 2.425614 1_565
Ca5 O18 2.425614 1_655
Ca5 O5 2.429556 1_555
Ca5 O17 2.452521 1_655
Ca5 O11 2.452521 1_565
Ca5 O14 2.808644 1_555
Ca5 O22 2.808644 1_555
Ca5 O13 2.824777 1_554
Ca5 O21 2.824777 1_554
Ca5 O3 2.906472 1_555
Ca5 O1 2.906472 1_555
Ca6 O0 2.315716 1_555
Ca6 O14 2.423822 1_555
Ca6 O22 2.423822 1_555
Ca6 O21 2.438578 1_555
Ca6 O13 2.438578 1_555
Ca6 O4 2.581207 1_565
Ca6 O2 2.581207 1_655
Ca6 O6 2.706151 1_555
Mn0 O12 1.939466 1_565
Mn0 O18 1.939466 1_655
Mn0 O8 1.966787 1_665
Mn0 O16 1.966787 1_665
Mn0 O0 1.992673 1_555
Mn1 O13 1.912494 1_454
Mn1 O9 1.919724 1_555
Mn1 O15 1.950661 1_554
Mn1 O1 1.968124 1_455
Mn1 O2 1.971752 1_554
Mn1 O17 1.990969 1_555
Mn2 O14 1.912596 1_455
Mn2 O10 1.923310 1_555
Mn2 O1 1.965182 1_455
Mn2 O2 1.969988 1_555
Mn2 O16 1.973666 1_555
Mn2 O18 1.985225 1_555
Mn3 O21 1.912494 1_544
Mn3 O19 1.919724 1_555
Mn3 O7 1.950661 1_554
Mn3 O3 1.968124 1_545
Mn3 O4 1.971752 1_554
Mn3 O11 1.990969 1_555
Mn4 O22 1.912596 1_545
Mn4 O20 1.923310 1_555
Mn4 O3 1.965182 1_545
Mn4 O4 1.969988 1_555
Mn4 O8 1.973666 1_555
Mn4 O12 1.985225 1_555
Mn5 O6 1.920714 1_555
Mn5 O19 1.927410 1_556
Mn5 O9 1.927410 1_556
Mn5 O21 1.929561 1_555
Mn5 O13 1.929561 1_555
Mn5 O5 1.934164 1_556
Mn6 O20 1.924377 1_555
Mn6 O10 1.924377 1_555
Mn6 O6 1.924559 1_555
Mn6 O22 1.925622 1_555
Mn6 O14 1.925622 1_555
Mn6 O5 1.930326 1_555
O0 Ti0 1.759318 1_555
O1 Sr0 2.595903 1_655
O3 Sr0 2.595903 1_565
O5 Sr0 2.846675 1_555
O7 Ti0 1.989964 1_445
O7 Sr0 2.961910 1_556
O8 Sr0 3.007370 1_555
O9 Sr0 2.573679 1_555
O10 Sr0 2.583312 1_555
O11 Ti0 1.922971 1_544
O15 Ti0 1.989964 1_445
O15 Sr0 2.961910 1_556
O16 Sr0 3.007370 1_555
O17 Ti0 1.922971 1_454
O19 Sr0 2.573679 1_555
O20 Sr0 2.583312 1_555
