# generated using pymatgen
data_NbIn(TeO4)2
_symmetry_space_group_name_H-M   'P 1'
_cell_length_a   7.81051700
_cell_length_b   7.81243400
_cell_length_c   11.04468500
_cell_angle_alpha   90.00000000
_cell_angle_beta   90.00000000
_cell_angle_gamma   90.00000000
_symmetry_Int_Tables_number   1
_chemical_formula_structural   NbIn(TeO4)2
_chemical_formula_sum   'Nb4 In4 Te8 O32'
_cell_volume   673.93727491
_cell_formula_units_Z   4
loop_
 _symmetry_equiv_pos_site_id
 _symmetry_equiv_pos_as_xyz
  1  'x, y, z'
loop_
 _atom_site_type_symbol
 _atom_site_label
 _atom_site_symmetry_multiplicity
 _atom_site_fract_x
 _atom_site_fract_y
 _atom_site_fract_z
 _atom_site_occupancy
  Nb  Nb0  1  0.53065900  0.52018900  0.99962300  1
  Nb  Nb1  1  0.46934100  0.02018900  0.00037700  1
  Nb  Nb2  1  0.96934100  0.02018900  0.99962300  1
  Nb  Nb3  1  0.03065900  0.52018900  0.00037700  1
  In  In0  1  0.49550900  0.52625700  0.51265400  1
  In  In1  1  0.50449100  0.02625700  0.48734600  1
  In  In2  1  0.00449100  0.02625700  0.51265400  1
  In  In3  1  0.99550900  0.52625700  0.48734600  1
  Te  Te0  1  0.79122600  0.67207500  0.75271700  1
  Te  Te1  1  0.20877400  0.17207500  0.24728300  1
  Te  Te2  1  0.70877400  0.17207500  0.75271700  1
  Te  Te3  1  0.29122600  0.67207500  0.24728300  1
  Te  Te4  1  0.26430800  0.76599600  0.71345200  1
  Te  Te5  1  0.73569200  0.26599600  0.28654800  1
  Te  Te6  1  0.23569200  0.26599600  0.71345200  1
  Te  Te7  1  0.76430800  0.76599600  0.28654800  1
  O  O0  1  0.58277800  0.59260700  0.82806300  1
  O  O1  1  0.41722200  0.09260700  0.17193700  1
  O  O2  1  0.91722200  0.09260700  0.82806300  1
  O  O3  1  0.08277800  0.59260700  0.17193700  1
  O  O4  1  0.52011900  0.28391900  0.96343000  1
  O  O5  1  0.47988100  0.78391900  0.03657000  1
  O  O6  1  0.97988100  0.78391900  0.96343000  1
  O  O7  1  0.02011900  0.28391900  0.03657000  1
  O  O8  1  0.75566300  0.53337400  0.05166900  1
  O  O9  1  0.24433700  0.03337400  0.94833100  1
  O  O10  1  0.74433700  0.03337400  0.05166900  1
  O  O11  1  0.25566300  0.53337400  0.94833100  1
  O  O12  1  0.93148900  0.49841300  0.82390300  1
  O  O13  1  0.06851100  0.99841300  0.17609700  1
  O  O14  1  0.56851100  0.99841300  0.82390300  1
  O  O15  1  0.43148900  0.49841300  0.17609700  1
  O  O16  1  0.74844900  0.54308500  0.60364700  1
  O  O17  1  0.25155100  0.04308500  0.39635300  1
  O  O18  1  0.75155100  0.04308500  0.60364700  1
  O  O19  1  0.24844900  0.54308500  0.39635300  1
  O  O20  1  0.05292600  0.72576300  0.62479000  1
  O  O21  1  0.94707400  0.22576300  0.37521000  1
  O  O22  1  0.44707400  0.22576300  0.62479000  1
  O  O23  1  0.55292600  0.72576300  0.37521000  1
  O  O24  1  0.31390500  0.51470600  0.66200400  1
  O  O25  1  0.68609500  0.01470600  0.33799600  1
  O  O26  1  0.18609500  0.01470600  0.66200400  1
  O  O27  1  0.81390500  0.51470600  0.33799600  1
  O  O28  1  0.43691300  0.79714600  0.59018100  1
  O  O29  1  0.56308700  0.29714600  0.40981900  1
  O  O30  1  0.06308700  0.29714600  0.59018100  1
  O  O31  1  0.93691300  0.79714600  0.40981900  1
loop_
_geom_bond_atom_site_label_1
_geom_bond_atom_site_label_2
_geom_bond_distance
_geom_bond_site_symmetry_2
Nb0 O8 1.851888 1_556
Nb0 O4 1.890426 1_555
Nb0 O0 2.018951 1_555
Nb0 O15 2.104255 1_556
Nb0 O5 2.137510 1_556
Nb0 O11 2.223700 1_555
Nb1 O9 1.851888 1_554
Nb1 O5 1.890426 1_545
Nb1 O1 2.018951 1_555
Nb1 O14 2.104255 1_544
Nb1 O4 2.137510 1_554
Nb1 O10 2.223700 1_555
Nb2 O10 1.851888 1_556
Nb2 O6 1.890426 1_545
Nb2 O2 2.018951 1_555
Nb2 O13 2.104255 1_646
Nb2 O7 2.137510 1_656
Nb2 O9 2.223700 1_655
Nb3 O11 1.851888 1_554
Nb3 O7 1.890426 1_555
Nb3 O3 2.018951 1_555
Nb3 O12 2.104255 1_454
Nb3 O6 2.137510 1_454
Nb3 O8 2.223700 1_455
In0 O24 2.177382 1_555
In0 O29 2.184579 1_555
In0 O16 2.220417 1_555
In0 O23 2.221449 1_555
In0 O19 2.321822 1_555
In0 O28 2.328385 1_555
In0 O22 2.681080 1_555
In1 O25 2.177382 1_555
In1 O28 2.184579 1_545
In1 O17 2.220417 1_555
In1 O22 2.221449 1_555
In1 O18 2.321822 1_555
In1 O29 2.328385 1_555
In1 O23 2.681080 1_545
In2 O26 2.177382 1_555
In2 O31 2.184579 1_445
In2 O18 2.220417 1_455
In2 O21 2.221449 1_455
In2 O17 2.321822 1_555
In2 O30 2.328385 1_555
In2 O20 2.681080 1_545
In3 O27 2.177382 1_555
In3 O30 2.184579 1_655
In3 O19 2.220417 1_655
In3 O20 2.221449 1_655
In3 O16 2.321822 1_555
In3 O31 2.328385 1_555
In3 O21 2.681080 1_555
O0 Te0 1.930963 1_555
O1 Te1 1.930963 1_555
O2 Te2 1.930963 1_555
O3 Te3 1.930963 1_555
O12 Te0 1.912859 1_555
O13 Te1 1.912859 1_565
O14 Te2 1.912859 1_565
O15 Te3 1.912859 1_555
O16 Te0 1.959050 1_555
O17 Te1 1.959050 1_555
O18 Te2 1.959050 1_555
O19 Te3 1.959050 1_555
O20 Te4 1.945128 1_555
O20 Te0 2.519967 1_455
O21 Te5 1.945128 1_555
O21 Te1 2.519967 1_655
O22 Te6 1.945128 1_555
O22 Te2 2.519967 1_555
O23 Te7 1.945128 1_555
O23 Te3 2.519967 1_555
O24 Te4 2.080155 1_555
O24 Te6 2.114575 1_555
O25 Te5 2.080155 1_555
O25 Te7 2.114575 1_545
O26 Te6 2.080155 1_555
O26 Te4 2.114575 1_545
O27 Te7 2.080155 1_555
O27 Te5 2.114575 1_555
O28 Te4 1.931409 1_555
O29 Te5 1.931409 1_555
O30 Te6 1.931409 1_555
O31 Te7 1.931409 1_555
