# generated using pymatgen
data_Ca2CuWO6
_symmetry_space_group_name_H-M   'P 1'
_cell_length_a   5.63016830
_cell_length_b   5.75718078
_cell_length_c   7.78252742
_cell_angle_alpha   89.96281303
_cell_angle_beta   133.74298070
_cell_angle_gamma   121.57529202
_symmetry_Int_Tables_number   1
_chemical_formula_structural   Ca2CuWO6
_chemical_formula_sum   'Ca2 Cu1 W1 O6'
_cell_volume   125.68251369
_cell_formula_units_Z   1
loop_
 _symmetry_equiv_pos_site_id
 _symmetry_equiv_pos_as_xyz
  1  'x, y, z'
loop_
 _atom_site_type_symbol
 _atom_site_label
 _atom_site_symmetry_multiplicity
 _atom_site_fract_x
 _atom_site_fract_y
 _atom_site_fract_z
 _atom_site_occupancy
  Ca  Ca0  1  0.99867200  0.53985700  0.24410900  1
  Ca  Ca1  1  0.99734700  0.54156300  0.75117700  1
  Cu  Cu0  1  0.99625500  0.99041000  0.49627800  1
  W  W0  1  0.00104800  0.98350100  0.99918500  1
  O  O0  1  0.99667200  0.95980900  0.24460100  1
  O  O1  1  0.01103800  0.97719900  0.75663000  1
  O  O2  1  0.50129300  0.46360900  0.25485300  1
  O  O3  1  0.49332500  0.94420200  0.74652700  1
  O  O4  1  0.46109500  0.95922900  0.22796500  1
  O  O5  1  0.54419200  0.48928900  0.76629800  1
loop_
_geom_bond_atom_site_label_1
_geom_bond_atom_site_label_2
_geom_bond_distance
_geom_bond_site_symmetry_2
Ca0 O0 2.423672 1_555
Ca0 O4 2.548040 1_655
Ca0 O5 2.554088 1_554
Ca0 O3 2.574457 1_655
Ca0 O2 2.660439 1_555
Ca0 O1 2.790424 1_544
Ca0 O1 2.877860 1_755
Ca0 O2 3.030072 1_655
Ca0 O4 3.038078 1_545
Ca0 O3 3.068279 1_544
Ca0 O5 3.115775 1_655
Ca1 O1 2.468023 1_655
Ca1 O5 2.494954 1_555
Ca1 O4 2.531220 1_656
Ca1 O3 2.556025 1_655
Ca1 O2 2.587128 1_555
Ca1 O0 2.835997 1_445
Ca1 O0 2.854309 1_656
Cu0 O0 1.968432 1_555
Cu0 O1 1.972665 1_655
Cu0 O5 1.986518 1_665
Cu0 O4 2.050516 1_555
Cu0 O2 2.100067 1_555
Cu0 O3 2.222104 1_655
O0 W0 1.930897 1_654
O1 W0 1.927928 1_555
O2 W0 1.906983 1_544
O3 W0 1.907742 1_655
O4 W0 1.974818 1_554
O5 W0 1.972894 1_655
