# generated using pymatgen
data_SmFe3(BO3)4
_symmetry_space_group_name_H-M   'P 1'
_cell_length_a   6.32271126
_cell_length_b   6.32271126
_cell_length_c   6.32271197
_cell_angle_alpha   108.65736223
_cell_angle_beta   108.65736223
_cell_angle_gamma   108.65736424
_symmetry_Int_Tables_number   1
_chemical_formula_structural   SmFe3(BO3)4
_chemical_formula_sum   'Sm1 Fe3 B4 O12'
_cell_volume   200.22391157
_cell_formula_units_Z   1
loop_
 _symmetry_equiv_pos_site_id
 _symmetry_equiv_pos_as_xyz
  1  'x, y, z'
loop_
 _atom_site_type_symbol
 _atom_site_label
 _atom_site_symmetry_multiplicity
 _atom_site_fract_x
 _atom_site_fract_y
 _atom_site_fract_z
 _atom_site_occupancy
  Sm  Sm0  1  0.00000000  0.00000000  0.00000000  1
  Fe  Fe0  1  0.42031000  0.00000000  0.57969000  1
  Fe  Fe1  1  0.57969000  0.42031000  0.00000000  1
  Fe  Fe2  1  0.00000000  0.57969000  0.42031000  1
  B  B0  1  0.50000000  0.50000000  0.50000000  1
  B  B1  1  0.68248100  0.00000000  0.31751900  1
  B  B2  1  0.31751900  0.68248100  0.00000000  1
  B  B3  1  0.00000000  0.31751900  0.68248100  1
  O  O0  1  0.63463900  0.50000000  0.36536100  1
  O  O1  1  0.36536100  0.63463900  0.50000000  1
  O  O2  1  0.50000000  0.36536100  0.63463900  1
  O  O3  1  0.91726700  0.50000000  0.08273300  1
  O  O4  1  0.08273300  0.91726700  0.50000000  1
  O  O5  1  0.50000000  0.08273300  0.91726700  1
  O  O6  1  0.77926100  0.08245700  0.61114700  1
  O  O7  1  0.61114700  0.77926100  0.08245700  1
  O  O8  1  0.08245700  0.61114700  0.77926100  1
  O  O9  1  0.38885300  0.91754300  0.22073900  1
  O  O10  1  0.91754300  0.22073900  0.38885300  1
  O  O11  1  0.22073900  0.38885300  0.91754300  1
loop_
_geom_bond_atom_site_label_1
_geom_bond_atom_site_label_2
_geom_bond_distance
_geom_bond_site_symmetry_2
Fe0 O4 1.874061 1_545
Fe0 O5 1.874062 1_555
Fe0 O2 2.083457 1_555
Fe0 O1 2.083457 1_545
Fe0 O6 2.085662 1_555
Fe0 O9 2.085663 1_545
Fe1 O5 1.874061 1_554
Fe1 O3 1.874061 1_555
Fe1 O0 2.083457 1_555
Fe1 O2 2.083457 1_554
Fe1 O7 2.085662 1_555
Fe1 O11 2.085662 1_554
Fe2 O4 1.874061 1_555
Fe2 O3 1.874062 1_455
Fe2 O0 2.083457 1_455
Fe2 O1 2.083457 1_555
Fe2 O10 2.085662 1_455
Fe2 O8 2.085663 1_555
B0 O1 1.383124 1_555
B0 O2 1.383124 1_555
B0 O0 1.383124 1_555
B1 O10 1.483710 1_555
B1 O7 1.483710 1_545
B1 O9 1.594580 1_545
B1 O6 1.594580 1_555
B2 O8 1.483710 1_554
B2 O9 1.483710 1_555
B2 O7 1.594580 1_555
B2 O11 1.594580 1_554
B3 O6 1.483710 1_455
B3 O11 1.483710 1_555
B3 O8 1.594580 1_555
B3 O10 1.594580 1_455
O6 Sm0 2.711945 1_656
O7 Sm0 2.711944 1_665
O8 Sm0 2.711944 1_566
O9 Sm0 2.711944 1_565
O10 Sm0 2.711945 1_655
O11 Sm0 2.711944 1_556
