# generated using pymatgen
data_CrO2
_symmetry_space_group_name_H-M   'P 1'
_cell_length_a   5.75849273
_cell_length_b   5.75849299
_cell_length_c   6.14518214
_cell_angle_alpha   57.75263403
_cell_angle_beta   57.75264264
_cell_angle_gamma   60.05216597
_symmetry_Int_Tables_number   1
_chemical_formula_structural   CrO2
_chemical_formula_sum   'Cr4 O8'
_cell_volume   139.05152122
_cell_formula_units_Z   4
loop_
 _symmetry_equiv_pos_site_id
 _symmetry_equiv_pos_as_xyz
  1  'x, y, z'
loop_
 _atom_site_type_symbol
 _atom_site_label
 _atom_site_symmetry_multiplicity
 _atom_site_fract_x
 _atom_site_fract_y
 _atom_site_fract_z
 _atom_site_occupancy
  Cr  Cr0  1  0.00642700  0.00642700  0.99357300  1
  Cr  Cr1  1  0.24357300  0.24357300  0.25642700  1
  Cr  Cr2  1  0.62500000  0.62500000  0.12500000  1
  Cr  Cr3  1  0.62500000  0.62500000  0.62500000  1
  O  O0  1  0.37155100  0.37155100  0.35282700  1
  O  O1  1  0.39290300  0.85676500  0.37516600  1
  O  O2  1  0.37155100  0.37155100  0.90407200  1
  O  O3  1  0.85676500  0.39290300  0.37516600  1
  O  O4  1  0.39323500  0.85709700  0.87483400  1
  O  O5  1  0.85709700  0.39323500  0.87483400  1
  O  O6  1  0.87844900  0.87844900  0.34592800  1
  O  O7  1  0.87844900  0.87844900  0.89717300  1
loop_
_geom_bond_atom_site_label_1
_geom_bond_atom_site_label_2
_geom_bond_distance
_geom_bond_site_symmetry_2
Cr0 O6 1.706214 1_446
Cr0 O7 1.706219 1_445
Cr0 O5 1.804467 1_455
Cr0 O4 1.804467 1_545
Cr1 O2 1.706214 1_554
Cr1 O0 1.706219 1_555
Cr1 O1 1.804467 1_545
Cr1 O3 1.804467 1_455
Cr2 O0 1.996481 1_555
Cr2 O7 1.996481 1_554
Cr2 O3 2.036363 1_555
Cr2 O4 2.036363 1_554
Cr2 O1 2.036363 1_555
Cr2 O5 2.036363 1_554
Cr3 O2 1.996482 1_555
Cr3 O6 1.996482 1_555
Cr3 O1 2.036363 1_555
Cr3 O5 2.036363 1_555
Cr3 O4 2.036363 1_555
Cr3 O3 2.036363 1_555
