# generated using pymatgen
data_CsCoO2
_symmetry_space_group_name_H-M   'P 1'
_cell_length_a   6.05403554
_cell_length_b   6.86012911
_cell_length_c   8.20666559
_cell_angle_alpha   89.57799056
_cell_angle_beta   89.06605544
_cell_angle_gamma   63.77350691
_symmetry_Int_Tables_number   1
_chemical_formula_structural   CsCoO2
_chemical_formula_sum   'Cs4 Co4 O8'
_cell_volume   305.70668358
_cell_formula_units_Z   4
loop_
 _symmetry_equiv_pos_site_id
 _symmetry_equiv_pos_as_xyz
  1  'x, y, z'
loop_
 _atom_site_type_symbol
 _atom_site_label
 _atom_site_symmetry_multiplicity
 _atom_site_fract_x
 _atom_site_fract_y
 _atom_site_fract_z
 _atom_site_occupancy
  Cs  Cs0  1  0.66683287  0.17229860  0.43313932  1
  Cs  Cs1  1  0.16093611  0.17232944  0.06690434  1
  Cs  Cs2  1  0.33315817  0.82773152  0.56689475  1
  Cs  Cs3  1  0.83905113  0.82769541  0.93309963  1
  Co  Co0  1  0.95615118  0.58842225  0.36071518  1
  Co  Co1  1  0.45552141  0.58847499  0.13920365  1
  Co  Co2  1  0.04383816  0.41160093  0.63933459  1
  Co  Co3  1  0.54450835  0.41148902  0.86070246  1
  O  O0  1  0.59492589  0.29654371  0.07507081  1
  O  O1  1  0.10871643  0.29644689  0.42498978  1
  O  O2  1  0.40508539  0.70343530  0.92484475  1
  O  O3  1  0.89127407  0.70356965  0.57513998  1
  O  O4  1  0.16048798  0.67920057  0.25001934  1
  O  O5  1  0.83953450  0.32078102  0.74996051  1
  O  O6  1  0.66965737  0.66086644  0.24987713  1
  O  O7  1  0.33032198  0.33911126  0.75010277  1
loop_
_geom_bond_atom_site_label_1
_geom_bond_atom_site_label_2
_geom_bond_distance
_geom_bond_site_symmetry_2
Cs0 O0 3.037749 1_555
Cs0 O1 3.099937 1_555
Cs0 O3 3.111071 1_545
Cs0 O1 3.145386 1_655
Cs0 O5 3.155928 1_555
Cs0 O7 3.168092 1_555
Cs1 O1 3.038005 1_555
Cs1 O0 3.101479 1_555
Cs1 O2 3.112512 1_544
Cs1 O0 3.144059 1_455
Cs1 O5 3.156457 1_454
Cs1 O7 3.166436 1_554
Cs2 O2 3.036886 1_555
Cs2 O3 3.099944 1_555
Cs2 O1 3.110699 1_565
Cs2 O3 3.145454 1_455
Cs2 O4 3.156363 1_555
Cs2 O6 3.168450 1_555
Cs3 O3 3.037019 1_555
Cs3 O2 3.101569 1_555
Cs3 O0 3.111978 1_566
Cs3 O2 3.144138 1_655
Cs3 O4 3.156410 1_656
Cs3 O6 3.166459 1_556
Co0 O6 1.834555 1_555
Co0 O4 1.838298 1_655
Co0 O1 1.873095 1_655
Co0 O3 1.896988 1_555
Co1 O6 1.834729 1_555
Co1 O4 1.837817 1_555
Co1 O0 1.872757 1_555
Co1 O2 1.895815 1_554
Co2 O7 1.834166 1_555
Co2 O5 1.838039 1_455
Co2 O3 1.872872 1_455
Co2 O1 1.896395 1_555
Co3 O7 1.834621 1_555
Co3 O5 1.837501 1_555
Co3 O2 1.872866 1_555
Co3 O0 1.895853 1_556
