# generated using pymatgen
data_KMg6Ni
_symmetry_space_group_name_H-M   'P 1'
_cell_length_a   5.07166400
_cell_length_b   6.41941400
_cell_length_c   11.14354800
_cell_angle_alpha   90.00000000
_cell_angle_beta   90.00000000
_cell_angle_gamma   90.00000000
_symmetry_Int_Tables_number   1
_chemical_formula_structural   KMg6Ni
_chemical_formula_sum   'K2 Mg12 Ni2'
_cell_volume   362.80172789
_cell_formula_units_Z   2
loop_
 _symmetry_equiv_pos_site_id
 _symmetry_equiv_pos_as_xyz
  1  'x, y, z'
loop_
 _atom_site_type_symbol
 _atom_site_label
 _atom_site_symmetry_multiplicity
 _atom_site_fract_x
 _atom_site_fract_y
 _atom_site_fract_z
 _atom_site_occupancy
  K  K0  1  0.50000000  0.50000000  0.16439500  1
  K  K1  1  0.50000000  0.00000000  0.66439500  1
  Mg  Mg0  1  0.50000000  0.25385700  0.41685600  1
  Mg  Mg1  1  0.50000000  0.74614300  0.41685600  1
  Mg  Mg2  1  0.00000000  0.77706500  0.08625900  1
  Mg  Mg3  1  0.00000000  0.22293500  0.08625900  1
  Mg  Mg4  1  0.00000000  0.00000000  0.32469800  1
  Mg  Mg5  1  0.00000000  0.50000000  0.34319600  1
  Mg  Mg6  1  0.50000000  0.75385700  0.91685600  1
  Mg  Mg7  1  0.50000000  0.24614300  0.91685600  1
  Mg  Mg8  1  0.00000000  0.27706500  0.58625900  1
  Mg  Mg9  1  0.00000000  0.72293500  0.58625900  1
  Mg  Mg10  1  0.00000000  0.50000000  0.82469800  1
  Mg  Mg11  1  0.00000000  0.00000000  0.84319600  1
  Ni  Ni0  1  0.50000000  0.00000000  0.16147700  1
  Ni  Ni1  1  0.50000000  0.50000000  0.66147700  1
loop_
_geom_bond_atom_site_label_1
_geom_bond_atom_site_label_2
_geom_bond_distance
_geom_bond_site_symmetry_2
K0 Mg6 3.203866 1_554
K0 Mg7 3.203866 1_554
K0 Ni0 3.209872 1_565
K0 Ni0 3.209872 1_555
K0 Mg3 3.217450 1_655
K0 Mg2 3.217450 1_655
K0 Mg3 3.217450 1_555
K0 Mg2 3.217450 1_555
K0 Mg5 3.224967 1_555
K0 Mg5 3.224967 1_655
K0 Mg0 3.226673 1_555
K0 Mg1 3.226673 1_555
K1 Mg0 3.203866 1_555
K1 Mg1 3.203866 1_545
K1 Ni1 3.209872 1_545
K1 Ni1 3.209872 1_555
K1 Mg8 3.217450 1_555
K1 Mg8 3.217450 1_655
K1 Mg9 3.217450 1_645
K1 Mg9 3.217450 1_545
K1 Mg11 3.224967 1_555
K1 Mg11 3.224967 1_655
K1 Mg6 3.226673 1_545
K1 Mg7 3.226673 1_555
Mg0 Mg5 3.098533 1_555
Mg0 Mg5 3.098533 1_655
Mg0 Ni1 3.150790 1_555
Mg0 Mg1 3.160188 1_555
Mg0 Mg8 3.164845 1_555
Mg0 Mg8 3.164845 1_655
Mg0 Mg4 3.184454 1_555
Mg0 Mg4 3.184454 1_655
Mg0 Mg1 3.259226 1_545
Mg0 Ni0 3.279387 1_555
Mg1 Mg5 3.098533 1_555
Mg1 Mg5 3.098533 1_655
Mg1 Ni1 3.150790 1_555
Mg1 Mg9 3.164845 1_555
Mg1 Mg9 3.164845 1_655
Mg1 Mg4 3.184454 1_565
Mg1 Mg4 3.184454 1_665
Mg1 Ni0 3.279387 1_565
Mg2 Ni0 3.030033 1_565
Mg2 Ni0 3.030033 1_465
Mg2 Mg6 3.164845 1_454
Mg2 Mg6 3.164845 1_554
Mg2 Mg5 3.370646 1_555
Mg3 Ni0 3.030033 1_555
Mg3 Ni0 3.030033 1_455
Mg3 Mg7 3.164845 1_554
Mg3 Mg7 3.164845 1_454
Mg3 Mg5 3.370646 1_555
Mg4 Ni0 3.120689 1_555
Mg4 Ni0 3.120689 1_455
Mg4 Mg5 3.216319 1_545
Mg4 Mg5 3.216319 1_555
Mg5 Mg9 3.063415 1_555
Mg5 Mg8 3.063415 1_555
Mg6 Ni0 3.150790 1_566
Mg6 Mg7 3.160188 1_565
Mg6 Mg7 3.259226 1_555
Mg6 Ni1 3.279387 1_555
Mg7 Ni0 3.150790 1_556
Mg7 Ni1 3.279387 1_555
Mg8 Ni1 3.030033 1_455
Mg8 Ni1 3.030033 1_555
Mg9 Ni1 3.030033 1_455
Mg9 Ni1 3.030033 1_555
Mg10 Ni1 3.120689 1_455
Mg10 Ni1 3.120689 1_555
Mg10 Mg6 3.184454 1_455
Mg10 Mg6 3.184454 1_555
Mg10 Mg7 3.184454 1_455
Mg10 Mg7 3.184454 1_555
Mg10 Mg11 3.216319 1_555
Mg10 Mg11 3.216319 1_565
Mg11 Mg2 3.063415 1_546
Mg11 Mg3 3.063415 1_556
Mg11 Mg6 3.098533 1_445
Mg11 Mg6 3.098533 1_545
Mg11 Mg7 3.098533 1_455
Mg11 Mg7 3.098533 1_555
Mg11 Mg8 3.370646 1_555
Mg11 Mg9 3.370646 1_545
