# generated using pymatgen
data_Ba5V5O14
_symmetry_space_group_name_H-M   'P 1'
_cell_length_a   5.88416300
_cell_length_b   5.88416356
_cell_length_c   12.28445500
_cell_angle_alpha   90.00000000
_cell_angle_beta   90.00000000
_cell_angle_gamma   120.00000245
_symmetry_Int_Tables_number   1
_chemical_formula_structural   Ba5V5O14
_chemical_formula_sum   'Ba5 V5 O14'
_cell_volume   368.34598973
_cell_formula_units_Z   1
loop_
 _symmetry_equiv_pos_site_id
 _symmetry_equiv_pos_as_xyz
  1  'x, y, z'
loop_
 _atom_site_type_symbol
 _atom_site_label
 _atom_site_symmetry_multiplicity
 _atom_site_fract_x
 _atom_site_fract_y
 _atom_site_fract_z
 _atom_site_occupancy
  Ba  Ba0  1  0.66666600  0.33333300  0.56713800  1
  Ba  Ba1  1  0.33333300  0.66666600  0.43286100  1
  Ba  Ba2  1  0.66666600  0.33333300  0.24082900  1
  Ba  Ba3  1  0.33333300  0.66666600  0.75917100  1
  Ba  Ba4  1  0.00000000  0.00000000  0.00000000  1
  V  V0  1  0.00000000  0.00000000  0.50000000  1
  V  V1  1  0.66666600  0.33333300  0.87009700  1
  V  V2  1  0.33333300  0.66666600  0.12990200  1
  V  V3  1  0.00000000  0.00000000  0.28585200  1
  V  V4  1  0.00000000  0.00000000  0.71414800  1
  O  O0  1  0.84744500  0.15255500  0.39672300  1
  O  O1  1  0.84744500  0.69489100  0.39672300  1
  O  O2  1  0.30511100  0.15255500  0.39672300  1
  O  O3  1  0.69489100  0.84744600  0.60327800  1
  O  O4  1  0.15255500  0.30511000  0.60327800  1
  O  O5  1  0.15255500  0.84744600  0.60327800  1
  O  O6  1  0.82983400  0.17016700  0.81814900  1
  O  O7  1  0.82983400  0.65966800  0.81814900  1
  O  O8  1  0.34033200  0.17016700  0.81814900  1
  O  O9  1  0.65966800  0.82983400  0.18185000  1
  O  O10  1  0.33333300  0.66666600  0.98982200  1
  O  O11  1  0.66666600  0.33333300  0.01017900  1
  O  O12  1  0.17016600  0.34033100  0.18185000  1
  O  O13  1  0.17016600  0.82983400  0.18185000  1
loop_
_geom_bond_atom_site_label_1
_geom_bond_atom_site_label_2
_geom_bond_distance
_geom_bond_site_symmetry_2
Ba0 O2 2.788742 1_555
Ba0 O0 2.788749 1_555
Ba0 O1 2.788752 1_555
Ba0 O5 2.978858 1_545
Ba0 O4 2.978861 1_555
Ba0 O3 2.978861 1_545
Ba0 O4 2.978867 1_655
Ba0 O3 2.978867 1_555
Ba0 O5 2.978870 1_655
Ba1 O4 2.788764 1_555
Ba1 O3 2.788771 1_555
Ba1 O5 2.788771 1_555
Ba1 O0 2.978857 1_455
Ba1 O1 2.978858 1_555
Ba1 O2 2.978860 1_565
Ba1 O2 2.978860 1_555
Ba1 O0 2.978863 1_565
Ba1 O1 2.978863 1_455
Ba2 O2 2.657448 1_555
Ba2 O0 2.657456 1_555
Ba2 O1 2.657459 1_555
Ba2 O11 2.833410 1_555
Ba2 O12 3.030184 1_555
Ba2 O13 3.030187 1_545
Ba2 O9 3.030190 1_555
Ba2 O9 3.030190 1_545
Ba2 O13 3.030193 1_655
Ba2 O12 3.030196 1_655
Ba3 O4 2.657443 1_555
Ba3 O3 2.657450 1_555
Ba3 O5 2.657450 1_555
Ba3 O10 2.833422 1_555
Ba3 O8 3.030179 1_555
Ba3 O6 3.030182 1_455
Ba3 O7 3.030187 1_455
Ba3 O7 3.030187 1_555
Ba3 O6 3.030193 1_565
Ba3 O8 3.030196 1_565
Ba4 O12 2.828096 1_555
Ba4 O9 2.828099 1_445
Ba4 O13 2.828100 1_545
Ba4 O8 2.828109 1_554
Ba4 O7 2.828109 1_444
Ba4 O6 2.828112 1_454
O0 V0 2.006733 1_655
O0 V3 2.066976 1_655
O1 V0 2.006729 1_665
O1 V3 2.066972 1_665
O2 V0 2.006737 1_555
O2 V3 2.066979 1_555
O3 V0 2.006736 1_665
O3 V4 2.066964 1_665
O4 V0 2.006741 1_555
O4 V4 2.066968 1_555
O5 V0 2.006737 1_565
O5 V4 2.066964 1_565
O6 V1 1.781186 1_555
O6 V4 2.154061 1_655
O7 V1 1.781190 1_555
O7 V4 2.154057 1_665
O8 V1 1.781186 1_555
O8 V4 2.154057 1_555
O9 V2 1.781190 1_555
O9 V3 2.154064 1_665
O10 V2 1.720806 1_556
O11 V1 1.720831 1_554
O12 V2 1.781190 1_555
O12 V3 2.154060 1_555
O13 V2 1.781190 1_555
O13 V3 2.154065 1_565
