# generated using pymatgen
data_Y5O4F7
_symmetry_space_group_name_H-M   'P 1'
_cell_length_a   14.09382166
_cell_length_b   14.09382166
_cell_length_c   5.41224040
_cell_angle_alpha   89.80347913
_cell_angle_beta   89.80347913
_cell_angle_gamma   22.64100435
_symmetry_Int_Tables_number   1
_chemical_formula_structural   Y5O4F7
_chemical_formula_sum   'Y10 O8 F14'
_cell_volume   413.85001886
_cell_formula_units_Z   2
loop_
 _symmetry_equiv_pos_site_id
 _symmetry_equiv_pos_as_xyz
  1  'x, y, z'
loop_
 _atom_site_type_symbol
 _atom_site_label
 _atom_site_symmetry_multiplicity
 _atom_site_fract_x
 _atom_site_fract_y
 _atom_site_fract_z
 _atom_site_occupancy
  Y  Y0  1  0.63176902  0.07330149  0.28699249  1
  Y  Y1  1  0.92669851  0.36823098  0.71300751  1
  Y  Y2  1  0.15685158  0.54630590  0.70998520  1
  Y  Y3  1  0.45369410  0.84314842  0.29001480  1
  Y  Y4  1  0.47865301  0.02013547  0.72445622  1
  Y  Y5  1  0.97986453  0.52134699  0.27554378  1
  Y  Y6  1  0.70556647  0.19602741  0.71009087  1
  Y  Y7  1  0.80397259  0.29443353  0.28990913  1
  Y  Y8  1  0.20138967  0.69917832  0.29382344  1
  Y  Y9  1  0.30082168  0.79861033  0.70617656  1
  O  O0  1  0.43139739  0.36833849  0.47747700  1
  O  O1  1  0.63166151  0.56860261  0.52252300  1
  O  O2  1  0.92855079  0.86582993  0.52872577  1
  O  O3  1  0.13417007  0.07144921  0.47127423  1
  O  O4  1  0.49108629  0.50891371  0.50000000  1
  O  O5  1  0.99199546  0.00800454  0.50000000  1
  O  O6  1  0.30589983  0.28929875  0.45946548  1
  O  O7  1  0.71070125  0.69410017  0.54053452  1
  F  F0  1  0.83151351  -0.00428480  0.04926721  1
  F  F1  1  0.00428480  0.16848649  0.95073279  1
  F  F2  1  0.33703830  0.48443224  0.96436643  1
  F  F3  1  0.51556776  0.66296170  0.03563357  1
  F  F4  1  0.60332772  0.89731807  0.11639289  1
  F  F5  1  0.10268193  0.39667228  0.88360711  1
  F  F6  1  0.58986466  0.41013534  -0.00000000  1
  F  F7  1  0.09332247  0.90667753  -0.00000000  1
  F  F8  1  0.80816668  0.79172196  0.54683898  1
  F  F9  1  0.20827804  0.19183332  0.45316102  1
  F  F10  1  0.49122607  0.16275750  0.90571384  1
  F  F11  1  0.83724250  0.50877393  0.09428616  1
  F  F12  1  0.97241397  0.68007218  0.09100239  1
  F  F13  1  0.31992782  0.02758603  0.90899761  1
loop_
_geom_bond_atom_site_label_1
_geom_bond_atom_site_label_2
_geom_bond_distance
_geom_bond_site_symmetry_2
O0 Y0 2.159232 1_555
O0 Y2 2.218207 1_555
O0 Y6 2.259337 1_555
O0 Y8 2.308155 1_555
O1 Y1 2.159232 1_555
O1 Y3 2.218207 1_555
O1 Y7 2.259337 1_555
O1 Y9 2.308155 1_555
O2 Y2 2.200017 1_655
O2 Y0 2.278707 1_565
O2 Y8 2.288036 1_655
O2 Y6 2.347584 1_565
O3 Y3 2.200017 1_545
O3 Y1 2.278707 1_455
O3 Y9 2.288036 1_545
O3 Y7 2.347584 1_455
O4 Y8 2.215237 1_555
O4 Y9 2.215237 1_555
O4 Y6 2.293511 1_555
O4 Y7 2.293511 1_555
O5 Y7 2.203282 1_555
O5 Y6 2.203282 1_555
O5 Y9 2.280258 1_645
O5 Y8 2.280258 1_645
O6 Y5 2.251855 1_455
O6 Y4 2.305090 1_555
O6 Y2 2.310941 1_555
O6 Y0 2.326862 1_555
O7 Y4 2.251855 1_565
O7 Y5 2.305090 1_555
O7 Y3 2.310941 1_555
O7 Y1 2.326862 1_555
F0 Y0 2.253629 1_555
F0 Y6 2.286372 1_554
F0 Y8 2.487505 1_645
F1 Y1 2.253629 1_455
F1 Y7 2.286372 1_456
F1 Y9 2.487505 1_545
F2 Y2 2.243453 1_555
F2 Y8 2.308174 1_556
F2 Y6 2.532284 1_555
F3 Y3 2.243453 1_555
F3 Y9 2.308174 1_554
F3 Y7 2.532284 1_555
F4 Y4 2.229257 1_564
F4 Y5 2.253050 1_555
F5 Y5 2.229257 1_456
F5 Y4 2.253050 1_555
F6 Y7 2.271310 1_555
F6 Y6 2.271310 1_554
F6 Y9 2.813390 1_554
F6 Y8 2.813390 1_555
F7 Y8 2.272436 1_555
F7 Y9 2.272436 1_554
F7 Y6 2.799181 1_464
F7 Y7 2.799181 1_465
F8 Y4 2.291141 1_565
F8 Y5 2.350612 1_555
F8 Y2 2.350894 1_655
F8 Y0 2.383644 1_565
F9 Y5 2.291141 1_455
F9 Y4 2.350612 1_555
F9 Y3 2.350894 1_545
F9 Y1 2.383644 1_455
F10 Y0 2.274170 1_556
F10 Y2 2.350297 1_555
F10 Y4 2.388817 1_555
F11 Y1 2.274170 1_554
F11 Y3 2.350297 1_555
F11 Y5 2.388817 1_555
F12 Y2 2.346857 1_654
F12 Y5 2.358972 1_555
F12 Y0 2.404341 1_565
F13 Y3 2.346857 1_546
F13 Y4 2.358972 1_555
F13 Y1 2.404341 1_455
