# generated using pymatgen
data_Nd2Ga12Pd
_symmetry_space_group_name_H-M   'P 1'
_cell_length_a   6.11660400
_cell_length_b   6.11660400
_cell_length_c   15.68453400
_cell_angle_alpha   90.00000000
_cell_angle_beta   90.00000000
_cell_angle_gamma   90.00000000
_symmetry_Int_Tables_number   1
_chemical_formula_structural   Nd2Ga12Pd
_chemical_formula_sum   'Nd4 Ga24 Pd2'
_cell_volume   586.80303148
_cell_formula_units_Z   2
loop_
 _symmetry_equiv_pos_site_id
 _symmetry_equiv_pos_as_xyz
  1  'x, y, z'
loop_
 _atom_site_type_symbol
 _atom_site_label
 _atom_site_symmetry_multiplicity
 _atom_site_fract_x
 _atom_site_fract_y
 _atom_site_fract_z
 _atom_site_occupancy
  Nd  Nd0  1  0.75000000  0.25000000  0.24822700  1
  Nd  Nd1  1  0.25000000  0.75000000  0.24822700  1
  Nd  Nd2  1  0.25000000  0.75000000  0.75177300  1
  Nd  Nd3  1  0.75000000  0.25000000  0.75177300  1
  Ga  Ga0  1  0.25000000  0.25000000  0.18569500  1
  Ga  Ga1  1  0.75000000  0.75000000  0.18569500  1
  Ga  Ga2  1  0.75000000  0.75000000  0.81430500  1
  Ga  Ga3  1  0.25000000  0.25000000  0.81430500  1
  Ga  Ga4  1  0.25000000  0.25000000  0.34224900  1
  Ga  Ga5  1  0.75000000  0.75000000  0.34224900  1
  Ga  Ga6  1  0.75000000  0.75000000  0.65775100  1
  Ga  Ga7  1  0.25000000  0.25000000  0.65775100  1
  Ga  Ga8  1  0.50049600  0.00049600  0.91193900  1
  Ga  Ga9  1  0.00049600  0.99950400  0.91193900  1
  Ga  Ga10  1  0.49950400  0.50049600  0.91193900  1
  Ga  Ga11  1  0.99950400  0.49950400  0.91193900  1
  Ga  Ga12  1  0.49950400  0.99950400  0.08806100  1
  Ga  Ga13  1  0.99950400  0.00049600  0.08806100  1
  Ga  Ga14  1  0.50049600  0.49950400  0.08806100  1
  Ga  Ga15  1  0.00049600  0.50049600  0.08806100  1
  Ga  Ga16  1  0.57481100  0.07481100  0.42882100  1
  Ga  Ga17  1  0.07481100  0.92518900  0.42882100  1
  Ga  Ga18  1  0.42518900  0.57481100  0.42882100  1
  Ga  Ga19  1  0.92518900  0.42518900  0.42882100  1
  Ga  Ga20  1  0.42518900  0.92518900  0.57117900  1
  Ga  Ga21  1  0.92518900  0.07481100  0.57117900  1
  Ga  Ga22  1  0.57481100  0.42518900  0.57117900  1
  Ga  Ga23  1  0.07481100  0.57481100  0.57117900  1
  Pd  Pd0  1  0.75000000  0.25000000  0.00000000  1
  Pd  Pd1  1  0.25000000  0.75000000  0.00000000  1
loop_
_geom_bond_atom_site_label_1
_geom_bond_atom_site_label_2
_geom_bond_distance
_geom_bond_site_symmetry_2
Ga0 Ga4 2.455477 1_555
Ga0 Ga14 2.649837 1_555
Ga0 Ga15 2.649837 1_555
Ga0 Ga13 2.649837 1_455
Ga0 Ga12 2.649837 1_545
Ga0 Nd0 3.211721 1_455
Ga0 Nd0 3.211721 1_555
Ga0 Nd1 3.211721 1_555
Ga0 Nd1 3.211721 1_545
Ga1 Ga5 2.455477 1_555
Ga1 Ga12 2.649837 1_555
Ga1 Ga13 2.649837 1_565
Ga1 Ga15 2.649837 1_655
Ga1 Ga14 2.649837 1_555
Ga1 Nd1 3.211721 1_655
Ga1 Nd0 3.211721 1_555
Ga1 Nd1 3.211721 1_555
Ga1 Nd0 3.211721 1_565
Ga2 Ga6 2.455477 1_555
Ga2 Ga9 2.649837 1_655
Ga2 Ga8 2.649837 1_565
Ga2 Nd2 3.211721 1_655
Ga2 Nd3 3.211721 1_565
Ga2 Nd3 3.211721 1_555
Ga2 Nd2 3.211721 1_555
Ga3 Ga7 2.455477 1_555
Ga3 Ga8 2.649837 1_555
Ga3 Ga9 2.649837 1_545
Ga3 Nd3 3.211721 1_455
Ga3 Nd2 3.211721 1_545
Ga3 Nd3 3.211721 1_555
Ga3 Nd2 3.211721 1_555
Ga4 Nd0 3.395280 1_455
Ga4 Nd0 3.395280 1_555
Ga4 Nd1 3.395280 1_555
Ga4 Nd1 3.395280 1_545
Ga5 Nd0 3.395280 1_555
Ga5 Nd1 3.395280 1_655
Ga5 Nd1 3.395280 1_555
Ga5 Nd0 3.395280 1_565
Ga6 Nd2 3.395280 1_555
Ga6 Nd2 3.395280 1_655
Ga6 Nd3 3.395280 1_565
Ga6 Nd3 3.395280 1_555
Ga7 Nd3 3.395280 1_455
Ga7 Nd2 3.395280 1_555
Ga7 Nd2 3.395280 1_545
Ga7 Nd3 3.395280 1_555
Ga8 Pd0 2.562376 1_556
Ga8 Pd1 2.569607 1_546
Ga8 Nd3 3.311927 1_555
Ga8 Nd2 3.317525 1_545
Ga9 Pd1 2.562376 1_556
Ga9 Pd0 2.569607 1_466
Ga9 Nd2 3.311927 1_555
Ga9 Nd3 3.317525 1_465
Ga10 Pd1 2.562376 1_556
Ga10 Pd0 2.569607 1_556
Ga10 Ga3 2.649837 1_555
Ga10 Ga2 2.649837 1_555
Ga10 Nd2 3.311927 1_555
Ga10 Nd3 3.317525 1_555
Ga11 Pd0 2.562376 1_556
Ga11 Pd1 2.569607 1_656
Ga11 Ga2 2.649837 1_555
Ga11 Ga3 2.649837 1_655
Ga11 Nd3 3.311927 1_555
Ga11 Nd2 3.317525 1_655
Ga12 Pd1 2.562376 1_555
Ga12 Pd0 2.569607 1_565
Ga12 Nd1 3.311927 1_555
Ga12 Nd0 3.317525 1_565
Ga13 Pd0 2.562376 1_555
Ga13 Pd1 2.569607 1_645
Ga13 Nd0 3.311927 1_555
Ga13 Nd1 3.317525 1_645
Ga14 Pd0 2.562376 1_555
Ga14 Pd1 2.569607 1_555
Ga14 Nd0 3.311927 1_555
Ga14 Nd1 3.317525 1_555
Ga15 Pd1 2.562376 1_555
Ga15 Pd0 2.569607 1_455
Ga15 Nd1 3.311927 1_555
Ga15 Nd0 3.317525 1_455
Ga16 Ga20 2.580811 1_545
Ga16 Ga5 2.634220 1_545
Ga16 Ga4 2.634220 1_555
Ga16 Nd0 3.212434 1_555
Ga17 Ga21 2.580811 1_465
Ga17 Ga5 2.634220 1_455
Ga17 Ga4 2.634220 1_565
Ga17 Nd1 3.212434 1_555
Ga18 Ga22 2.580811 1_555
Ga18 Ga5 2.634220 1_555
Ga18 Ga4 2.634220 1_555
Ga18 Nd1 3.212434 1_555
Ga19 Ga23 2.580811 1_655
Ga19 Ga5 2.634220 1_555
Ga19 Ga4 2.634220 1_655
Ga19 Nd0 3.212434 1_555
Ga20 Ga6 2.634220 1_555
Ga20 Ga7 2.634220 1_565
Ga20 Nd2 3.212434 1_555
Ga21 Ga6 2.634220 1_545
Ga21 Ga7 2.634220 1_655
Ga21 Nd3 3.212434 1_555
Ga22 Ga6 2.634220 1_555
Ga22 Ga7 2.634220 1_555
Ga22 Nd3 3.212434 1_555
Ga23 Ga6 2.634220 1_455
Ga23 Ga7 2.634220 1_555
Ga23 Nd2 3.212434 1_555
