# generated using pymatgen
data_Ni5(Mo2As3)6
_symmetry_space_group_name_H-M   'P 1'
_cell_length_a   6.78430465
_cell_length_b   6.78430465
_cell_length_c   26.35553279
_cell_angle_alpha   76.69563429
_cell_angle_beta   76.69563429
_cell_angle_gamma   28.59308787
_symmetry_Int_Tables_number   1
_chemical_formula_structural   Ni5(Mo2As3)6
_chemical_formula_sum   'Ni5 Mo12 As18'
_cell_volume   563.94571166
_cell_formula_units_Z   1
loop_
 _symmetry_equiv_pos_site_id
 _symmetry_equiv_pos_as_xyz
  1  'x, y, z'
loop_
 _atom_site_type_symbol
 _atom_site_label
 _atom_site_symmetry_multiplicity
 _atom_site_fract_x
 _atom_site_fract_y
 _atom_site_fract_z
 _atom_site_occupancy
  Ni  Ni0  1  0.33239500  0.33239500  0.16730700  1
  Ni  Ni1  1  0.00000000  0.00000000  0.50000000  1
  Ni  Ni2  1  0.66760500  0.66760500  0.83269300  1
  Ni  Ni3  1  0.66692400  0.66692400  0.33282200  1
  Ni  Ni4  1  0.33307600  0.33307600  0.66717800  1
  Mo  Mo0  1  0.44841300  0.44841300  0.87943700  1
  Mo  Mo1  1  0.11341900  0.11341900  0.20778800  1
  Mo  Mo2  1  0.77974000  0.77974000  0.54257800  1
  Mo  Mo3  1  0.55158700  0.55158700  0.12056300  1
  Mo  Mo4  1  0.22026000  0.22026000  0.45742200  1
  Mo  Mo5  1  0.88658100  0.88658100  0.79221200  1
  Mo  Mo6  1  0.21803600  0.21803600  0.96132200  1
  Mo  Mo7  1  0.88139900  0.88139900  0.29204300  1
  Mo  Mo8  1  0.54728400  0.54728400  0.62623300  1
  Mo  Mo9  1  0.78196400  0.78196400  0.03867800  1
  Mo  Mo10  1  0.45271600  0.45271600  0.37376700  1
  Mo  Mo11  1  0.11860100  0.11860100  0.70795700  1
  As  As0  1  0.08667500  0.08667500  0.89880000  1
  As  As1  1  0.74779900  0.74779900  0.23197000  1
  As  As2  1  0.41432800  0.41432800  0.56569700  1
  As  As3  1  0.91332500  0.91332500  0.10120000  1
  As  As4  1  0.58567200  0.58567200  0.43430300  1
  As  As5  1  0.25220100  0.25220100  0.76803000  1
  As  As6  1  0.79549000  0.79549000  0.88705700  1
  As  As7  1  0.46277500  0.46277500  0.21753900  1
  As  As8  1  0.12779000  0.12779000  0.55263400  1
  As  As9  1  0.20451000  0.20451000  0.11294300  1
  As  As10  1  0.87221000  0.87221000  0.44736600  1
  As  As11  1  0.53722500  0.53722500  0.78246100  1
  As  As12  1  0.40378400  0.40378400  0.98251000  1
  As  As13  1  0.06230600  0.06230600  0.30923100  1
  As  As14  1  0.72842500  0.72842500  0.64337700  1
  As  As15  1  0.59621600  0.59621600  0.01749000  1
  As  As16  1  0.27157500  0.27157500  0.35662300  1
  As  As17  1  0.93769400  0.93769400  0.69076900  1
loop_
_geom_bond_atom_site_label_1
_geom_bond_atom_site_label_2
_geom_bond_distance
_geom_bond_site_symmetry_2
Mo0 Ni2 2.852619 1_555
Mo1 Ni0 2.822942 1_555
Mo2 Ni1 2.846561 1_665
Mo3 Ni0 2.852619 1_555
Mo4 Ni1 2.846561 1_555
Mo5 Ni2 2.822942 1_555
Mo7 Ni3 2.769116 1_555
Mo8 Ni4 2.766511 1_555
Mo10 Ni3 2.766511 1_555
Mo11 Ni4 2.769116 1_555
As0 Ni2 2.468605 1_545
As0 Ni2 2.468605 1_455
As0 Mo0 2.610096 1_455
As0 Mo0 2.610096 1_545
As0 Mo6 2.655217 1_555
As1 Ni0 2.459262 1_565
As1 Ni0 2.459262 1_655
As1 Ni3 2.617886 1_555
As1 Mo1 2.620992 1_655
As1 Mo1 2.620992 1_565
As1 Mo7 2.629330 1_555
As2 Ni1 2.479363 1_655
As2 Ni1 2.479363 1_565
As2 Mo2 2.611824 1_455
As2 Mo2 2.611824 1_545
As2 Mo8 2.631778 1_555
As2 Ni4 2.633938 1_555
As3 Ni0 2.468605 1_565
As3 Ni0 2.468605 1_655
As3 Mo3 2.610096 1_565
As3 Mo3 2.610096 1_655
As3 Mo9 2.655217 1_555
As4 Ni1 2.479363 1_655
As4 Ni1 2.479363 1_565
As4 Mo4 2.611824 1_655
As4 Mo4 2.611824 1_565
As4 Mo10 2.631778 1_555
As4 Ni3 2.633938 1_555
As5 Ni2 2.459262 1_545
As5 Ni2 2.459262 1_455
As5 Ni4 2.617886 1_555
As5 Mo5 2.620992 1_455
As5 Mo5 2.620992 1_545
As5 Mo11 2.629330 1_555
As6 Ni2 2.454496 1_555
As6 Mo5 2.502194 1_555
As6 Mo0 2.588073 1_565
As6 Mo0 2.588073 1_655
As6 Mo6 2.593857 1_565
As6 Mo6 2.593857 1_655
As7 Ni0 2.401958 1_555
As7 Mo3 2.545282 1_555
As7 Mo1 2.560128 1_655
As7 Mo1 2.560128 1_565
As7 Mo7 2.609472 1_545
As7 Mo7 2.609472 1_455
As8 Ni1 2.419615 1_555
As8 Mo4 2.515169 1_555
As8 Mo2 2.572362 1_455
As8 Mo2 2.572362 1_545
As8 Mo8 2.591246 1_545
As8 Mo8 2.591246 1_455
As9 Ni0 2.454496 1_555
As9 Mo1 2.502194 1_555
As9 Mo3 2.588073 1_545
As9 Mo3 2.588073 1_455
As9 Mo9 2.593857 1_455
As9 Mo9 2.593857 1_545
As10 Ni1 2.419615 1_665
As10 Mo2 2.515169 1_555
As10 Mo4 2.572362 1_655
As10 Mo4 2.572362 1_565
As10 Mo10 2.591246 1_565
As10 Mo10 2.591246 1_655
As11 Ni2 2.401958 1_555
As11 Mo0 2.545282 1_555
As11 Mo5 2.560128 1_455
As11 Mo5 2.560128 1_545
As11 Mo11 2.609472 1_565
As11 Mo11 2.609472 1_655
As12 Mo9 2.537220 1_456
As12 Mo9 2.537220 1_546
As12 Mo6 2.631419 1_555
As12 Mo0 2.639476 1_555
As12 As15 2.891296 1_556
As13 Ni3 2.343427 1_545
As13 Ni3 2.343427 1_455
As13 Mo7 2.524856 1_445
As13 Mo10 2.571367 1_455
As13 Mo10 2.571367 1_545
As13 Mo1 2.597366 1_555
As14 Ni4 2.345954 1_655
As14 Ni4 2.345954 1_565
As14 Mo8 2.527419 1_555
As14 Mo11 2.573222 1_655
As14 Mo11 2.573222 1_565
As14 Mo2 2.580985 1_555
As15 Mo6 2.537220 1_564
As15 Mo6 2.537220 1_654
As15 Mo9 2.631419 1_555
As15 Mo3 2.639476 1_555
As16 Ni3 2.345954 1_455
As16 Ni3 2.345954 1_545
As16 Mo10 2.527419 1_555
As16 Mo7 2.573222 1_455
As16 Mo7 2.573222 1_545
As16 Mo4 2.580985 1_555
As17 Ni4 2.343427 1_565
As17 Ni4 2.343427 1_655
As17 Mo11 2.524856 1_665
As17 Mo8 2.571367 1_565
As17 Mo8 2.571367 1_655
As17 Mo5 2.597366 1_555
