# generated using pymatgen
data_In2Hg8As5Br7
_symmetry_space_group_name_H-M   'P 1'
_cell_length_a   8.11428616
_cell_length_b   8.11428616
_cell_length_c   14.09218800
_cell_angle_alpha   90.00000000
_cell_angle_beta   90.00000000
_cell_angle_gamma   120.00000134
_symmetry_Int_Tables_number   1
_chemical_formula_structural   In2Hg8As5Br7
_chemical_formula_sum   'In2 Hg8 As5 Br7'
_cell_volume   803.54405772
_cell_formula_units_Z   1
loop_
 _symmetry_equiv_pos_site_id
 _symmetry_equiv_pos_as_xyz
  1  'x, y, z'
loop_
 _atom_site_type_symbol
 _atom_site_label
 _atom_site_symmetry_multiplicity
 _atom_site_fract_x
 _atom_site_fract_y
 _atom_site_fract_z
 _atom_site_occupancy
  In  In0  1  0.00000000  0.00000000  0.31293800  1
  In  In1  1  0.00000000  0.00000000  0.68706200  1
  Hg  Hg0  1  0.66666700  0.33333300  0.24924600  1
  Hg  Hg1  1  0.33333300  0.66666700  0.75075400  1
  Hg  Hg2  1  0.50000000  0.50000000  0.50000000  1
  Hg  Hg3  1  0.50000000  0.00000000  0.50000000  1
  Hg  Hg4  1  0.00000000  0.50000000  0.50000000  1
  Hg  Hg5  1  0.50000000  0.50000000  0.00000000  1
  Hg  Hg6  1  0.50000000  0.00000000  0.00000000  1
  Hg  Hg7  1  0.00000000  0.50000000  0.00000000  1
  As  As0  1  0.66666700  0.33333300  0.43040500  1
  As  As1  1  0.33333300  0.66666700  0.56959500  1
  As  As2  1  0.33333300  0.66666700  0.93221600  1
  As  As3  1  0.66666700  0.33333300  0.06778400  1
  As  As4  1  0.00000000  0.00000000  0.50000000  1
  Br  Br0  1  0.17206000  0.34412000  0.25039500  1
  Br  Br1  1  0.65588000  0.82794000  0.25039500  1
  Br  Br2  1  0.17206000  0.82794000  0.25039500  1
  Br  Br3  1  0.82794000  0.65588000  0.74960500  1
  Br  Br4  1  0.34412000  0.17206000  0.74960500  1
  Br  Br5  1  0.82794000  0.17206000  0.74960500  1
  Br  Br6  1  0.00000000  0.00000000  0.00000000  1
loop_
_geom_bond_atom_site_label_1
_geom_bond_atom_site_label_2
_geom_bond_distance
_geom_bond_site_symmetry_2
As0 Hg4 2.539420 1_655
As0 Hg3 2.539420 1_555
As0 Hg2 2.539427 1_555
As0 Hg0 2.552927 1_555
As1 Hg4 2.539420 1_555
As1 Hg3 2.539420 1_565
As1 Hg2 2.539427 1_555
As1 Hg1 2.552927 1_555
As2 Hg7 2.529673 1_556
As2 Hg6 2.529673 1_566
As2 Hg5 2.529680 1_556
As2 Hg1 2.557197 1_555
As3 Hg6 2.529673 1_555
As3 Hg7 2.529673 1_655
As3 Hg5 2.529680 1_555
As3 Hg0 2.557197 1_555
As4 In1 2.636113 1_555
As4 In0 2.636113 1_555
Br0 In0 2.573803 1_555
Br1 In0 2.573803 1_665
Br2 In0 2.573803 1_565
Br3 In1 2.573803 1_665
Br4 In1 2.573803 1_555
Br5 In1 2.573803 1_655
