# generated using pymatgen
data_Ca3(IrN2)2
_symmetry_space_group_name_H-M   'P 1'
_cell_length_a   7.07281507
_cell_length_b   9.09256630
_cell_length_c   5.34117544
_cell_angle_alpha   90.00000012
_cell_angle_beta   91.11414298
_cell_angle_gamma   129.99962845
_symmetry_Int_Tables_number   1
_chemical_formula_structural   Ca3(IrN2)2
_chemical_formula_sum   'Ca6 Ir4 N8'
_cell_volume   263.04618373
_cell_formula_units_Z   2
loop_
 _symmetry_equiv_pos_site_id
 _symmetry_equiv_pos_as_xyz
  1  'x, y, z'
loop_
 _atom_site_type_symbol
 _atom_site_label
 _atom_site_symmetry_multiplicity
 _atom_site_fract_x
 _atom_site_fract_y
 _atom_site_fract_z
 _atom_site_occupancy
  Ca  Ca0  1  0.23871700  0.96002500  0.05328500  1
  Ca  Ca1  1  0.76128300  0.72130800  0.44671500  1
  Ca  Ca2  1  0.76128300  0.03997500  0.94671500  1
  Ca  Ca3  1  0.23871700  0.27869200  0.55328500  1
  Ca  Ca4  1  0.00000000  0.59126800  0.75000000  1
  Ca  Ca5  1  0.00000000  0.40873200  0.25000000  1
  Ir  Ir0  1  0.52743800  0.15030400  0.58463300  1
  Ir  Ir1  1  0.47256200  0.62286700  0.91536700  1
  Ir  Ir2  1  0.47256200  0.84969600  0.41536700  1
  Ir  Ir3  1  0.52743800  0.37713300  0.08463300  1
  N  N0  1  0.20093500  0.91634200  0.52941400  1
  N  N1  1  0.79906500  0.71540600  0.97058600  1
  N  N2  1  0.79906500  0.08365800  0.47058600  1
  N  N3  1  0.20093500  0.28459400  0.02941400  1
  N  N4  1  0.68064900  0.26829000  0.93394000  1
  N  N5  1  0.31935100  0.58764100  0.56606000  1
  N  N6  1  0.31935100  0.73171000  0.06606000  1
  N  N7  1  0.68064900  0.41235900  0.43394000  1
loop_
_geom_bond_atom_site_label_1
_geom_bond_atom_site_label_2
_geom_bond_distance
_geom_bond_site_symmetry_2
Ca0 N1 2.422159 1_454
Ca0 N6 2.481951 1_555
Ca0 N0 2.566408 1_555
Ca0 N4 2.616723 1_564
Ca0 N0 2.809436 1_554
Ca0 N3 3.132019 1_565
Ca1 N0 2.422158 1_655
Ca1 N7 2.481951 1_555
Ca1 N1 2.566408 1_554
Ca1 N5 2.616722 1_555
Ca1 N1 2.809437 1_555
Ca1 N2 3.132010 1_565
Ca2 N3 2.422159 1_656
Ca2 N4 2.481951 1_555
Ca2 N2 2.566408 1_555
Ca2 N6 2.616723 1_546
Ca2 N2 2.809436 1_556
Ca2 N1 3.132019 1_545
Ca3 N2 2.422158 1_455
Ca3 N5 2.481951 1_555
Ca3 N3 2.566408 1_556
Ca3 N7 2.616722 1_555
Ca3 N3 2.809437 1_555
Ca3 N0 3.132010 1_545
Ca4 N6 2.392899 1_556
Ca4 N7 2.392899 1_455
Ca4 N5 2.500028 1_555
Ca4 N4 2.500028 1_455
Ca4 N1 2.609451 1_455
Ca4 N0 2.609458 1_555
Ca5 N4 2.392899 1_454
Ca5 N5 2.392899 1_555
Ca5 N7 2.500028 1_455
Ca5 N6 2.500028 1_555
Ca5 N3 2.609451 1_555
Ca5 N2 2.609458 1_455
Ir0 N0 1.898249 1_545
Ir0 N7 2.052839 1_555
Ir0 N4 2.057404 1_555
Ir0 N2 2.443628 1_555
Ir1 N1 1.898255 1_555
Ir1 N6 2.052832 1_556
Ir1 N5 2.057402 1_555
Ir1 N3 2.443628 1_556
Ir2 N2 1.898249 1_565
Ir2 N5 2.052839 1_555
Ir2 N6 2.057404 1_555
Ir2 N0 2.443628 1_555
Ir3 N3 1.898255 1_555
Ir3 N4 2.052832 1_554
Ir3 N7 2.057402 1_555
Ir3 N1 2.443628 1_554
