# generated using pymatgen
data_Yb(AlC)3
_symmetry_space_group_name_H-M   'P 1'
_cell_length_a   3.42182219
_cell_length_b   3.42182219
_cell_length_c   17.49938800
_cell_angle_alpha   90.00000000
_cell_angle_beta   90.00000000
_cell_angle_gamma   120.00000370
_symmetry_Int_Tables_number   1
_chemical_formula_structural   Yb(AlC)3
_chemical_formula_sum   'Yb2 Al6 C6'
_cell_volume   177.44687399
_cell_formula_units_Z   2
loop_
 _symmetry_equiv_pos_site_id
 _symmetry_equiv_pos_as_xyz
  1  'x, y, z'
loop_
 _atom_site_type_symbol
 _atom_site_label
 _atom_site_symmetry_multiplicity
 _atom_site_fract_x
 _atom_site_fract_y
 _atom_site_fract_z
 _atom_site_occupancy
  Yb  Yb0  1  0.00000000  0.00000000  0.00000000  1
  Yb  Yb1  1  0.00000000  0.00000000  0.50000000  1
  Al  Al0  1  0.33333300  0.66666700  0.75000000  1
  Al  Al1  1  0.66666700  0.33333300  0.25000000  1
  Al  Al2  1  0.33333300  0.66666700  0.13383700  1
  Al  Al3  1  0.66666700  0.33333300  0.86616300  1
  Al  Al4  1  0.66666700  0.33333300  0.63383700  1
  Al  Al5  1  0.33333300  0.66666700  0.36616300  1
  C  C0  1  0.33333300  0.66666700  0.59895700  1
  C  C1  1  0.66666700  0.33333300  0.40104300  1
  C  C2  1  0.66666700  0.33333300  0.09895700  1
  C  C3  1  0.33333300  0.66666700  0.90104300  1
  C  C4  1  0.33333300  0.66666700  0.25000000  1
  C  C5  1  0.66666700  0.33333300  0.75000000  1
loop_
_geom_bond_atom_site_label_1
_geom_bond_atom_site_label_2
_geom_bond_distance
_geom_bond_site_symmetry_2
Al0 C5 1.975588 1_455
Al0 C5 1.975588 1_565
Al0 C5 1.975594 1_555
Al1 C4 1.975588 1_545
Al1 C4 1.975588 1_655
Al1 C4 1.975594 1_555
Al2 C4 2.032781 1_555
Al2 C2 2.067731 1_455
Al2 C2 2.067731 1_565
Al2 C2 2.067736 1_555
Al3 C5 2.032781 1_555
Al3 C3 2.067731 1_545
Al3 C3 2.067731 1_655
Al3 C3 2.067736 1_555
Al4 C5 2.032781 1_555
Al4 C0 2.067731 1_545
Al4 C0 2.067731 1_655
Al4 C0 2.067736 1_555
Al5 C4 2.032781 1_555
Al5 C1 2.067731 1_455
Al5 C1 2.067731 1_565
Al5 C1 2.067736 1_555
C0 Yb1 2.627106 1_565
C0 Yb1 2.627108 1_555
C0 Yb1 2.627108 1_665
C1 Yb1 2.627106 1_655
C1 Yb1 2.627108 1_555
C1 Yb1 2.627108 1_665
C2 Yb0 2.627106 1_655
C2 Yb0 2.627108 1_665
C2 Yb0 2.627108 1_555
C3 Yb0 2.627106 1_566
C3 Yb0 2.627108 1_556
C3 Yb0 2.627108 1_666
