# generated using pymatgen
data_Te2Mo3W(Se2S)2
_symmetry_space_group_name_H-M   'P 1'
_cell_length_a   3.34191810
_cell_length_b   3.34191810
_cell_length_c   38.18365200
_cell_angle_alpha   90.00000000
_cell_angle_beta   90.00000000
_cell_angle_gamma   120.00000197
_symmetry_Int_Tables_number   1
_chemical_formula_structural   Te2Mo3W(Se2S)2
_chemical_formula_sum   'Te2 Mo3 W1 Se4 S2'
_cell_volume   369.31733341
_cell_formula_units_Z   1
loop_
 _symmetry_equiv_pos_site_id
 _symmetry_equiv_pos_as_xyz
  1  'x, y, z'
loop_
 _atom_site_type_symbol
 _atom_site_label
 _atom_site_symmetry_multiplicity
 _atom_site_fract_x
 _atom_site_fract_y
 _atom_site_fract_z
 _atom_site_occupancy
  Te  Te0  1  0.33333300  0.66666700  0.33146500  1
  Te  Te1  1  0.33333300  0.66666700  0.23212800  1
  Mo  Mo0  1  0.33333300  0.66666700  0.09382100  1
  Mo  Mo1  1  0.33333300  0.66666700  0.46975200  1
  Mo  Mo2  1  0.66666700  0.33333300  0.28179200  1
  W  W0  1  0.66666700  0.33333300  0.65753900  1
  Se  Se0  1  0.66666700  0.33333300  0.05016600  1
  Se  Se1  1  0.66666700  0.33333300  0.42605400  1
  Se  Se2  1  0.66666700  0.33333300  0.13751500  1
  Se  Se3  1  0.66666700  0.33333300  0.51344400  1
  S  S0  1  0.33333300  0.66666700  0.69742300  1
  S  S1  1  0.33333300  0.66666700  0.61764900  1
loop_
_geom_bond_atom_site_label_1
_geom_bond_atom_site_label_2
_geom_bond_distance
_geom_bond_site_symmetry_2
Mo0 Se0 2.549780 1_565
Mo0 Se0 2.549780 1_455
Mo0 Se0 2.549784 1_555
Mo0 Se2 2.550754 1_565
Mo0 Se2 2.550754 1_455
Mo0 Se2 2.550758 1_555
Mo1 Se3 2.550704 1_455
Mo1 Se3 2.550704 1_565
Mo1 Se3 2.550708 1_555
Mo1 Se1 2.550854 1_565
Mo1 Se1 2.550854 1_455
Mo1 Se1 2.550858 1_555
Mo2 Te1 2.705356 1_545
Mo2 Te1 2.705356 1_655
Mo2 Te1 2.705360 1_555
Mo2 Te0 2.705597 1_545
Mo2 Te0 2.705597 1_655
Mo2 Te0 2.705601 1_555
S0 W0 2.458063 1_455
S0 W0 2.458063 1_565
S0 W0 2.458068 1_555
S1 W0 2.458205 1_455
S1 W0 2.458205 1_565
S1 W0 2.458209 1_555
