# generated using pymatgen
data_NaTb(PO3)4
_symmetry_space_group_name_H-M   'P 1'
_cell_length_a   13.19355900
_cell_length_b   7.25246200
_cell_length_c   12.18191708
_cell_angle_alpha   54.01707985
_cell_angle_beta   90.00000000
_cell_angle_gamma   90.00000000
_symmetry_Int_Tables_number   1
_chemical_formula_structural   NaTb(PO3)4
_chemical_formula_sum   'Na4 Tb4 P16 O48'
_cell_volume   943.22377675
_cell_formula_units_Z   4
loop_
 _symmetry_equiv_pos_site_id
 _symmetry_equiv_pos_as_xyz
  1  'x, y, z'
loop_
 _atom_site_type_symbol
 _atom_site_label
 _atom_site_symmetry_multiplicity
 _atom_site_fract_x
 _atom_site_fract_y
 _atom_site_fract_z
 _atom_site_occupancy
  Na  Na0  1  0.72168000  0.06418500  0.43656000  1
  Na  Na1  1  0.77832000  0.06418500  0.93656000  1
  Na  Na2  1  0.27832000  0.93581500  0.56344000  1
  Na  Na3  1  0.22168000  0.93581500  0.06344000  1
  Tb  Tb0  1  0.71918400  0.46450100  0.52286000  1
  Tb  Tb1  1  0.78081600  0.46450100  0.02286000  1
  Tb  Tb2  1  0.28081600  0.53549900  0.47714000  1
  Tb  Tb3  1  0.21918400  0.53549900  0.97714000  1
  P  P0  1  0.60185300  0.99420900  0.25579200  1
  P  P1  1  0.89814700  0.99420900  0.75579200  1
  P  P2  1  0.39814700  0.00579100  0.74420800  1
  P  P3  1  0.10185300  0.00579100  0.24420800  1
  P  P4  1  0.61529200  0.88711000  0.73690300  1
  P  P5  1  0.88470800  0.88711000  0.23690300  1
  P  P6  1  0.38470800  0.11289000  0.26309700  1
  P  P7  1  0.11529200  0.11289000  0.76309700  1
  P  P8  1  0.62804600  0.65598000  0.19672300  1
  P  P9  1  0.87195400  0.65598000  0.69672300  1
  P  P10  1  0.37195400  0.34402000  0.80327700  1
  P  P11  1  0.12804600  0.34402000  0.30327700  1
  P  P12  1  0.59142700  0.43230400  0.79962200  1
  P  P13  1  0.90857300  0.43230400  0.29962200  1
  P  P14  1  0.40857300  0.56769600  0.20037800  1
  P  P15  1  0.09142700  0.56769600  0.70037800  1
  O  O0  1  0.79020200  0.67187300  0.60531400  1
  O  O1  1  0.70979800  0.67187300  0.10531400  1
  O  O2  1  0.20979800  0.32812700  0.39468600  1
  O  O3  1  0.29020200  0.32812700  0.89468600  1
  O  O4  1  0.58092000  0.70663700  0.70739300  1
  O  O5  1  0.91908000  0.70663700  0.20739300  1
  O  O6  1  0.41908000  0.29336300  0.29260700  1
  O  O7  1  0.08092000  0.29336300  0.79260700  1
  O  O8  1  0.81078400  0.77970800  0.35218500  1
  O  O9  1  0.68921600  0.77970800  0.85218500  1
  O  O10  1  0.18921600  0.22029200  0.64781500  1
  O  O11  1  0.31078400  0.22029200  0.14781500  1
  O  O12  1  0.64716900  0.09908400  0.60289300  1
  O  O13  1  0.85283100  0.09908400  0.10289300  1
  O  O14  1  0.35283100  0.90091600  0.39710700  1
  O  O15  1  0.14716900  0.90091600  0.89710700  1
  O  O16  1  0.62479200  0.90584600  0.16440600  1
  O  O17  1  0.87520800  0.90584600  0.66440600  1
  O  O18  1  0.37520800  0.09415400  0.83559400  1
  O  O19  1  0.12479200  0.09415400  0.33559400  1
  O  O20  1  0.66622400  0.20351700  0.20212000  1
  O  O21  1  0.83377600  0.20351700  0.70212000  1
  O  O22  1  0.33377600  0.79648300  0.79788000  1
  O  O23  1  0.16622400  0.79648300  0.29788000  1
  O  O24  1  0.47888500  0.35337000  0.86400900  1
  O  O25  1  0.02111500  0.35337000  0.36400900  1
  O  O26  1  0.52111500  0.64663000  0.13599100  1
  O  O27  1  0.97888500  0.64663000  0.63599100  1
  O  O28  1  0.51309600  0.92479600  0.79160500  1
  O  O29  1  0.98690400  0.92479600  0.29160500  1
  O  O30  1  0.48690400  0.07520400  0.20839500  1
  O  O31  1  0.01309600  0.07520400  0.70839500  1
  O  O32  1  0.83774400  0.34604700  0.41698600  1
  O  O33  1  0.66225600  0.34604700  0.91698600  1
  O  O34  1  0.16225600  0.65395300  0.58301400  1
  O  O35  1  0.33774400  0.65395300  0.08301400  1
  O  O36  1  0.60939200  0.80700900  0.40549200  1
  O  O37  1  0.89060800  0.80700900  0.90549200  1
  O  O38  1  0.39060800  0.19299100  0.59450800  1
  O  O39  1  0.10939200  0.19299100  0.09450800  1
  O  O40  1  0.63383500  0.47709700  0.34685200  1
  O  O41  1  0.86616500  0.47709700  0.84685200  1
  O  O42  1  0.36616500  0.52290300  0.65314800  1
  O  O43  1  0.13383500  0.52290300  0.15314800  1
  O  O44  1  0.61195600  0.36732000  0.70505400  1
  O  O45  1  0.88804400  0.36732000  0.20505400  1
  O  O46  1  0.38804400  0.63268000  0.29494600  1
  O  O47  1  0.11195600  0.63268000  0.79494600  1
loop_
_geom_bond_atom_site_label_1
_geom_bond_atom_site_label_2
_geom_bond_distance
_geom_bond_site_symmetry_2
Na0 O12 2.395586 1_555
Na0 O32 2.451056 1_555
Na0 O0 2.503108 1_545
Na0 O20 2.514272 1_555
Na0 O36 2.578048 1_545
Na0 O40 2.767622 1_555
Na1 O13 2.395586 1_556
Na1 O33 2.451056 1_555
Na1 O1 2.503108 1_546
Na1 O21 2.514272 1_555
Na1 O37 2.578048 1_545
Na1 O41 2.767622 1_555
Na2 O14 2.395586 1_555
Na2 O34 2.451056 1_555
Na2 O2 2.503108 1_565
Na2 O22 2.514272 1_555
Na2 O38 2.578048 1_565
Na2 O42 2.767622 1_555
Na3 O15 2.395586 1_554
Na3 O35 2.451056 1_555
Na3 O3 2.503108 1_564
Na3 O23 2.514272 1_555
Na3 O39 2.578048 1_565
Na3 O43 2.767622 1_555
O0 P9 1.505259 1_555
O0 Tb0 2.433902 1_555
O1 P8 1.505259 1_555
O1 Tb1 2.433902 1_555
O2 P11 1.505259 1_555
O2 Tb2 2.433902 1_555
O3 P10 1.505259 1_555
O3 Tb3 2.433902 1_555
O4 P4 1.612744 1_555
O4 P12 1.616556 1_555
O5 P5 1.612744 1_555
O5 P13 1.616556 1_555
O6 P6 1.612744 1_555
O6 P14 1.616556 1_555
O7 P7 1.612744 1_555
O7 P15 1.616556 1_555
O8 P5 1.498257 1_555
O8 Tb0 2.328979 1_555
O9 P4 1.498257 1_555
O9 Tb1 2.328979 1_556
O10 P7 1.498257 1_555
O10 Tb2 2.328979 1_555
O11 P6 1.498257 1_555
O11 Tb3 2.328979 1_554
O12 P4 1.502070 1_545
O12 Tb0 2.416716 1_555
O13 P5 1.502070 1_545
O13 Tb1 2.416716 1_555
O14 P6 1.502070 1_565
O14 Tb2 2.416716 1_555
O15 P7 1.502070 1_565
O15 Tb3 2.416716 1_555
O16 P0 1.606227 1_555
O16 P8 1.613188 1_555
O17 P1 1.606227 1_555
O17 P9 1.613188 1_555
O18 P2 1.606227 1_555
O18 P10 1.613188 1_555
O19 P3 1.606227 1_555
O19 P11 1.613188 1_555
O20 P0 1.512218 1_545
O20 Tb1 2.404172 1_555
O21 P1 1.512218 1_545
O21 Tb0 2.404172 1_555
O22 P2 1.512218 1_565
O22 Tb3 2.404172 1_555
O23 P3 1.512218 1_565
O23 Tb2 2.404172 1_555
O24 P10 1.612842 1_555
O24 P12 1.618647 1_555
O25 P11 1.612842 1_555
O25 P13 1.618647 1_455
O26 P8 1.612842 1_555
O26 P14 1.618647 1_555
O27 P9 1.612842 1_555
O27 P15 1.618647 1_655
O28 P4 1.597113 1_555
O28 P2 1.606212 1_565
O29 P5 1.597113 1_555
O29 P3 1.606212 1_665
O30 P6 1.597113 1_555
O30 P0 1.606212 1_545
O31 P7 1.597113 1_555
O31 P1 1.606212 1_445
O32 P13 1.502568 1_555
O32 Tb0 2.479977 1_555
O33 P12 1.502568 1_555
O33 Tb1 2.479977 1_556
O34 P15 1.502568 1_555
O34 Tb2 2.479977 1_555
O35 P14 1.502568 1_555
O35 Tb3 2.479977 1_554
O36 P0 1.506454 1_555
O36 Tb0 2.477800 1_555
O37 P1 1.506454 1_555
O37 Tb1 2.477800 1_556
O38 P2 1.506454 1_555
O38 Tb2 2.477800 1_555
O39 P3 1.506454 1_555
O39 Tb3 2.477800 1_554
O40 P8 1.498525 1_555
O40 Tb0 2.375587 1_555
O41 P9 1.498525 1_555
O41 Tb1 2.375587 1_556
O42 P10 1.498525 1_555
O42 Tb2 2.375587 1_555
O43 P11 1.498525 1_555
O43 Tb3 2.375587 1_554
O44 P12 1.503539 1_555
O44 Tb0 2.363484 1_555
O45 P13 1.503539 1_555
O45 Tb1 2.363484 1_555
O46 P14 1.503539 1_555
O46 Tb2 2.363484 1_555
O47 P15 1.503539 1_555
O47 Tb3 2.363484 1_555
