# generated using pymatgen
data_Mo2H12C4N2O15
_symmetry_space_group_name_H-M   'P 1'
_cell_length_a   8.29686498
_cell_length_b   7.29429285
_cell_length_c   18.11924300
_cell_angle_alpha   90.00004561
_cell_angle_beta   90.00006550
_cell_angle_gamma   102.06378088
_symmetry_Int_Tables_number   1
_chemical_formula_structural   Mo2H12C4N2O15
_chemical_formula_sum   'Mo4 H24 C8 N4 O30'
_cell_volume   1072.35509440
_cell_formula_units_Z   2
loop_
 _symmetry_equiv_pos_site_id
 _symmetry_equiv_pos_as_xyz
  1  'x, y, z'
loop_
 _atom_site_type_symbol
 _atom_site_label
 _atom_site_symmetry_multiplicity
 _atom_site_fract_x
 _atom_site_fract_y
 _atom_site_fract_z
 _atom_site_occupancy
  Mo  Mo0  1  0.88595800  0.42869500  0.90903000  1
  Mo  Mo1  1  0.11404200  0.57130400  0.09097000  1
  Mo  Mo2  1  0.61404300  0.57130500  0.40903000  1
  Mo  Mo3  1  0.38595700  0.42869400  0.59097000  1
  H  H0  1  0.12458500  0.12637700  0.09049300  1
  H  H1  1  0.35052800  0.13109400  0.39593000  1
  H  H2  1  0.87541500  0.87362300  0.90950700  1
  H  H3  1  0.36913500  0.09699500  0.81243000  1
  H  H4  1  0.89727200  0.87779100  0.58619400  1
  H  H5  1  0.63086500  0.90300500  0.18757000  1
  H  H6  1  0.86913500  0.09699500  0.68757000  1
  H  H7  1  0.81837900  0.04285200  0.08257300  1
  H  H8  1  0.13086500  0.90300500  0.31243000  1
  H  H9  1  0.10272800  0.12220900  0.41380600  1
  H  H10  1  0.18162100  0.95714800  0.91742700  1
  H  H11  1  0.31837900  0.04285300  0.41742700  1
  H  H12  1  0.39727100  0.87779200  0.91380600  1
  H  H13  1  0.00867800  0.25330600  0.65087300  1
  H  H14  1  0.85052700  0.13109300  0.10407000  1
  H  H15  1  0.60272900  0.12220800  0.08619400  1
  H  H16  1  0.37541500  0.87362300  0.59049300  1
  H  H17  1  0.49132200  0.74669400  0.15087300  1
  H  H18  1  0.50867800  0.25330600  0.84912700  1
  H  H19  1  0.68162100  0.95714700  0.58257300  1
  H  H20  1  0.62458500  0.12637700  0.40950700  1
  H  H21  1  0.99132200  0.74669400  0.34912700  1
  H  H22  1  0.14947300  0.86890700  0.89593000  1
  H  H23  1  0.64947200  0.86890600  0.60407000  1
  C  C0  1  0.32432200  0.07369800  0.67918200  1
  C  C1  1  0.64590700  0.98544000  0.39907900  1
  C  C2  1  0.14590800  0.98544000  0.10092200  1
  C  C3  1  0.82432300  0.07369700  0.82081800  1
  C  C4  1  0.67567800  0.92630200  0.32081800  1
  C  C5  1  0.17567700  0.92630300  0.17918200  1
  C  C6  1  0.35409300  0.01456000  0.60092100  1
  C  C7  1  0.85409200  0.01456000  0.89907800  1
  N  N0  1  0.01130500  0.90666900  0.61398200  1
  N  N1  1  0.98869500  0.09333100  0.38601800  1
  N  N2  1  0.51130400  0.90667200  0.88601800  1
  N  N3  1  0.48869600  0.09332800  0.11398200  1
  O  O0  1  0.91484300  0.14983500  0.94236600  1
  O  O1  1  0.41176000  0.15571100  0.86055600  1
  O  O2  1  0.12109300  0.94085300  0.56639500  1
  O  O3  1  0.41484500  0.14983600  0.55763400  1
  O  O4  1  0.30903300  0.52958800  0.07666900  1
  O  O5  1  0.49119300  0.60286900  0.64769800  1
  O  O6  1  0.30994300  0.96821300  0.73269700  1
  O  O7  1  0.99119300  0.60286900  0.85230200  1
  O  O8  1  0.58824000  0.84428900  0.13944400  1
  O  O9  1  0.67668400  0.74611400  0.31802000  1
  O  O10  1  0.19005800  0.03178900  0.23269700  1
  O  O11  1  0.82331600  0.25388600  0.81802000  1
  O  O12  1  0.32331600  0.25388600  0.68198000  1
  O  O13  1  0.80994200  0.96821100  0.76730300  1
  O  O14  1  0.08515700  0.85016500  0.05763400  1
  O  O15  1  0.58515500  0.85016400  0.44236600  1
  O  O16  1  0.87890700  0.05914700  0.43360500  1
  O  O17  1  0.80903300  0.52958700  0.42333100  1
  O  O18  1  0.08824000  0.84428900  0.36055500  1
  O  O19  1  0.50000000  0.50000000  0.50000000  1
  O  O20  1  0.69005700  0.03178700  0.26730300  1
  O  O21  1  0.17668400  0.74611400  0.18198000  1
  O  O22  1  0.62109300  0.94084900  0.93360500  1
  O  O23  1  0.00880700  0.39713100  0.14769800  1
  O  O24  1  0.91176000  0.15571100  0.63944500  1
  O  O25  1  0.37890700  0.05915100  0.06639500  1
  O  O26  1  0.00000000  0.50000000  0.00000000  1
  O  O27  1  0.19096700  0.47041300  0.57666900  1
  O  O28  1  0.69096700  0.47041200  0.92333100  1
  O  O29  1  0.50880700  0.39713100  0.35230200  1
loop_
_geom_bond_atom_site_label_1
_geom_bond_atom_site_label_2
_geom_bond_distance
_geom_bond_site_symmetry_2
Mo0 O7 1.723162 1_555
Mo0 O28 1.727091 1_555
Mo0 O26 1.917551 1_656
Mo0 O11 2.082861 1_555
Mo0 O0 2.182557 1_555
Mo1 O23 1.723157 1_555
Mo1 O4 1.727088 1_555
Mo1 O26 1.917550 1_555
Mo1 O21 2.082865 1_555
Mo1 O14 2.182564 1_555
Mo2 O29 1.723163 1_555
Mo2 O17 1.727085 1_555
Mo2 O19 1.917557 1_555
Mo2 O9 2.082862 1_555
Mo2 O15 2.182557 1_555
Mo3 O5 1.723167 1_555
Mo3 O27 1.727088 1_555
Mo3 O19 1.917559 1_555
Mo3 O12 2.082858 1_555
Mo3 O3 2.182550 1_555
H1 H11 0.751927 1_555
H3 O1 1.002789 1_555
H4 N0 1.053428 1_655
H5 O8 1.002789 1_555
H6 O24 1.002775 1_555
H8 O18 1.002775 1_555
H9 N1 1.053428 1_455
H10 H22 0.751925 1_555
H12 N2 1.053429 1_555
H13 O24 0.978254 1_455
H14 H7 0.751925 1_555
H15 N3 1.053429 1_555
H17 O8 0.978258 1_555
H18 O1 0.978258 1_555
H19 H23 0.751927 1_555
H21 O18 0.978254 1_655
C0 O6 1.228057 1_545
C0 O12 1.317090 1_555
C1 H20 1.095388 1_565
C1 O15 1.278671 1_555
C1 O16 1.995772 1_565
C2 H0 1.095394 1_565
C2 O14 1.278674 1_555
C2 O25 1.995774 1_565
C3 O13 1.228059 1_545
C3 O11 1.317099 1_555
C4 O20 1.228057 1_565
C4 O9 1.317090 1_555
C5 O10 1.228059 1_565
C5 O21 1.317099 1_555
C6 H16 1.095388 1_545
C6 O3 1.278671 1_555
C6 O2 1.995772 1_545
C7 H2 1.095394 1_545
C7 O0 1.278674 1_555
C7 O22 1.995774 1_545
N0 O2 1.241139 1_555
N1 O16 1.241139 1_555
N2 O22 1.241141 1_555
N3 O25 1.241141 1_555
