# generated using pymatgen
data_Ta3N5
_symmetry_space_group_name_H-M   'P 1'
_cell_length_a   2.96734600
_cell_length_b   9.61355800
_cell_length_c   10.99039100
_cell_angle_alpha   90.00000000
_cell_angle_beta   90.00000000
_cell_angle_gamma   90.00000000
_symmetry_Int_Tables_number   1
_chemical_formula_structural   Ta3N5
_chemical_formula_sum   'Ta12 N20'
_cell_volume   313.52016808
_cell_formula_units_Z   4
loop_
 _symmetry_equiv_pos_site_id
 _symmetry_equiv_pos_as_xyz
  1  'x, y, z'
loop_
 _atom_site_type_symbol
 _atom_site_label
 _atom_site_symmetry_multiplicity
 _atom_site_fract_x
 _atom_site_fract_y
 _atom_site_fract_z
 _atom_site_occupancy
  Ta  Ta0  1  0.25000000  0.09109000  0.62579100  1
  Ta  Ta1  1  0.25000000  0.40891000  0.12579100  1
  Ta  Ta2  1  0.75000000  0.90891000  0.37420900  1
  Ta  Ta3  1  0.75000000  0.59109000  0.87420900  1
  Ta  Ta4  1  0.25000000  0.92331900  0.86696100  1
  Ta  Ta5  1  0.25000000  0.57668100  0.36696100  1
  Ta  Ta6  1  0.75000000  0.07668100  0.13303900  1
  Ta  Ta7  1  0.75000000  0.42331900  0.63303900  1
  Ta  Ta8  1  0.25000000  0.24912900  0.88341700  1
  Ta  Ta9  1  0.25000000  0.25087100  0.38341700  1
  Ta  Ta10  1  0.75000000  0.75087100  0.11658300  1
  Ta  Ta11  1  0.75000000  0.74912900  0.61658300  1
  N  N0  1  0.25000000  0.89059700  0.52456500  1
  N  N1  1  0.25000000  0.60940300  0.02456500  1
  N  N2  1  0.75000000  0.10940300  0.47543500  1
  N  N3  1  0.75000000  0.39059700  0.97543500  1
  N  N4  1  0.25000000  0.29564200  0.56859600  1
  N  N5  1  0.25000000  0.20435800  0.06859600  1
  N  N6  1  0.75000000  0.70435800  0.43140400  1
  N  N7  1  0.75000000  0.79564200  0.93140400  1
  N  N8  1  0.25000000  0.72345400  0.76192100  1
  N  N9  1  0.25000000  0.77654600  0.26192100  1
  N  N10  1  0.75000000  0.27654600  0.23807900  1
  N  N11  1  0.75000000  0.22345400  0.73807900  1
  N  N12  1  0.25000000  0.45407700  0.78500300  1
  N  N13  1  0.25000000  0.04592300  0.28500300  1
  N  N14  1  0.75000000  0.54592300  0.21499700  1
  N  N15  1  0.75000000  0.95407700  0.71499700  1
  N  N16  1  0.25000000  0.92000900  0.07476100  1
  N  N17  1  0.25000000  0.57999100  0.57476100  1
  N  N18  1  0.75000000  0.07999100  0.92523900  1
  N  N19  1  0.75000000  0.42000900  0.42523900  1
loop_
_geom_bond_atom_site_label_1
_geom_bond_atom_site_label_2
_geom_bond_distance
_geom_bond_site_symmetry_2
N0 Ta0 2.225478 1_565
N0 Ta2 2.227766 1_455
N0 Ta2 2.227766 1_555
N0 Ta11 2.252481 1_555
N0 Ta11 2.252481 1_455
N1 Ta1 2.225478 1_555
N1 Ta3 2.227766 1_454
N1 Ta3 2.227766 1_554
N1 Ta10 2.252481 1_555
N1 Ta10 2.252481 1_455
N2 Ta2 2.225478 1_545
N2 Ta0 2.227766 1_555
N2 Ta0 2.227766 1_655
N2 Ta9 2.252481 1_555
N2 Ta9 2.252481 1_655
N3 Ta3 2.225478 1_555
N3 Ta1 2.227766 1_656
N3 Ta1 2.227766 1_556
N3 Ta8 2.252481 1_655
N3 Ta8 2.252481 1_555
N4 Ta7 2.051705 1_555
N4 Ta7 2.051705 1_455
N4 Ta0 2.064497 1_555
N4 Ta9 2.080204 1_555
N5 Ta6 2.051705 1_455
N5 Ta6 2.051705 1_555
N5 Ta1 2.064497 1_555
N5 Ta8 2.080204 1_554
N6 Ta5 2.051705 1_655
N6 Ta5 2.051705 1_555
N6 Ta2 2.064497 1_555
N6 Ta11 2.080204 1_555
N7 Ta4 2.051705 1_555
N7 Ta4 2.051705 1_655
N7 Ta3 2.064497 1_555
N7 Ta10 2.080204 1_556
N8 Ta11 2.194002 1_555
N8 Ta11 2.194002 1_455
N8 Ta4 2.241549 1_555
N8 Ta3 2.311599 1_455
N8 Ta3 2.311599 1_555
N9 Ta10 2.194002 1_455
N9 Ta10 2.194002 1_555
N9 Ta5 2.241549 1_555
N9 Ta2 2.311599 1_555
N9 Ta2 2.311599 1_455
N10 Ta9 2.194002 1_555
N10 Ta9 2.194002 1_655
N10 Ta6 2.241549 1_555
N10 Ta1 2.311599 1_655
N10 Ta1 2.311599 1_555
N11 Ta8 2.194002 1_655
N11 Ta8 2.194002 1_555
N11 Ta7 2.241549 1_555
N11 Ta0 2.311599 1_655
N11 Ta0 2.311599 1_555
N12 Ta3 2.213020 1_555
N12 Ta3 2.213020 1_455
N12 Ta8 2.247638 1_555
N12 Ta7 2.253464 1_555
N12 Ta7 2.253464 1_455
N13 Ta2 2.213020 1_545
N13 Ta2 2.213020 1_445
N13 Ta9 2.247638 1_555
N13 Ta6 2.253464 1_455
N13 Ta6 2.253464 1_555
N14 Ta1 2.213020 1_555
N14 Ta1 2.213020 1_655
N14 Ta10 2.247638 1_555
N14 Ta5 2.253464 1_555
N14 Ta5 2.253464 1_655
N15 Ta0 2.213020 1_665
N15 Ta0 2.213020 1_565
N15 Ta11 2.247638 1_555
N15 Ta4 2.253464 1_555
N15 Ta4 2.253464 1_655
N16 Ta6 2.209092 1_465
N16 Ta6 2.209092 1_565
N16 Ta10 2.248664 1_455
N16 Ta10 2.248664 1_555
N16 Ta4 2.284025 1_554
N17 Ta7 2.209092 1_555
N17 Ta7 2.209092 1_455
N17 Ta11 2.248664 1_455
N17 Ta11 2.248664 1_555
N17 Ta5 2.284025 1_555
N18 Ta4 2.209092 1_645
N18 Ta4 2.209092 1_545
N18 Ta8 2.248664 1_555
N18 Ta8 2.248664 1_655
N18 Ta6 2.284025 1_556
N19 Ta5 2.209092 1_655
N19 Ta5 2.209092 1_555
N19 Ta9 2.248664 1_655
N19 Ta9 2.248664 1_555
N19 Ta7 2.284025 1_555
