# generated using pymatgen
data_Y(AlFe)6
_symmetry_space_group_name_H-M   'P 1'
_cell_length_a   4.96741662
_cell_length_b   6.57044733
_cell_length_c   6.57044733
_cell_angle_alpha   98.36039488
_cell_angle_beta   112.21060401
_cell_angle_gamma   67.78939599
_symmetry_Int_Tables_number   1
_chemical_formula_structural   Y(AlFe)6
_chemical_formula_sum   'Y1 Al6 Fe6'
_cell_volume   183.80340810
_cell_formula_units_Z   1
loop_
 _symmetry_equiv_pos_site_id
 _symmetry_equiv_pos_as_xyz
  1  'x, y, z'
loop_
 _atom_site_type_symbol
 _atom_site_label
 _atom_site_symmetry_multiplicity
 _atom_site_fract_x
 _atom_site_fract_y
 _atom_site_fract_z
 _atom_site_occupancy
  Y  Y0  1  -0.00000000  0.00000000  -0.00000000  1
  Al  Al0  1  0.65270067  0.34729933  0.65270067  1
  Al  Al1  1  0.34729933  0.65270067  0.34729933  1
  Al  Al2  1  -0.00000000  0.33823382  0.33823382  1
  Al  Al3  1  0.00000000  0.66176618  0.66176618  1
  Al  Al4  1  0.69602275  0.80397725  0.19602275  1
  Al  Al5  1  0.30397725  0.19602275  0.80397725  1
  Fe  Fe0  1  0.50000000  0.00000000  0.50000000  1
  Fe  Fe1  1  -0.00000000  0.00000000  0.50000000  1
  Fe  Fe2  1  0.50000000  0.50000000  -0.00000000  1
  Fe  Fe3  1  -0.00000000  0.50000000  -0.00000000  1
  Fe  Fe4  1  0.50000000  0.76074351  0.76074351  1
  Fe  Fe5  1  0.50000000  0.23925649  0.23925649  1
loop_
_geom_bond_atom_site_label_1
_geom_bond_atom_site_label_2
_geom_bond_distance
_geom_bond_site_symmetry_2
Al0 Fe5 2.597545 1_555
Al0 Fe4 2.597545 1_555
Al0 Fe3 2.618507 1_656
Al0 Fe1 2.618507 1_655
Al0 Fe2 2.618507 1_556
Al0 Fe0 2.618507 1_555
Al0 Al1 2.631069 1_555
Al0 Al5 2.804872 1_655
Al0 Al5 2.804873 1_555
Al0 Y0 2.992026 1_656
Al1 Fe5 2.597545 1_555
Al1 Fe4 2.597545 1_555
Al1 Fe1 2.618507 1_565
Al1 Fe3 2.618507 1_555
Al1 Fe2 2.618507 1_555
Al1 Fe0 2.618507 1_565
Al1 Al4 2.804872 1_455
Al1 Al4 2.804873 1_555
Al1 Y0 2.992026 1_565
Al2 Fe0 2.599119 1_555
Al2 Fe2 2.599119 1_455
Al2 Fe3 2.599120 1_555
Al2 Fe1 2.599120 1_555
Al2 Fe5 2.625199 1_455
Al2 Fe5 2.625199 1_555
Al2 Al3 2.779133 1_555
Al2 Y0 2.905418 1_555
Al2 Al5 2.964627 1_555
Al2 Al4 2.964627 1_455
Al3 Fe0 2.599119 1_465
Al3 Fe2 2.599119 1_556
Al3 Fe1 2.599120 1_565
Al3 Fe3 2.599120 1_556
Al3 Fe4 2.625199 1_555
Al3 Fe4 2.625199 1_455
Al3 Y0 2.905418 1_566
Al3 Al5 2.964627 1_555
Al3 Al4 2.964627 1_455
Al4 Fe1 2.523919 1_665
Al4 Fe3 2.523919 1_655
Al4 Fe0 2.523919 1_565
Al4 Fe2 2.523919 1_555
Al4 Fe4 2.660034 1_554
Al4 Fe5 2.660034 1_565
Al4 Y0 3.003451 1_565
Al4 Y0 3.003451 1_665
Al5 Fe1 2.523919 1_555
Al5 Fe3 2.523919 1_556
Al5 Fe2 2.523919 1_556
Al5 Fe0 2.523919 1_555
Al5 Fe4 2.660034 1_545
Al5 Fe5 2.660034 1_556
Al5 Y0 3.003451 1_656
Al5 Y0 3.003451 1_556
Fe0 Fe1 2.483708 1_555
Fe0 Fe1 2.483708 1_655
Fe0 Fe5 2.487868 1_555
Fe0 Fe4 2.487868 1_545
Fe0 Y0 3.285223 1_656
Fe0 Y0 3.285223 1_555
Fe1 Fe4 2.487868 1_545
Fe1 Fe5 2.487868 1_455
Fe1 Y0 3.285224 1_556
Fe1 Y0 3.285224 1_555
Fe2 Fe3 2.483708 1_655
Fe2 Fe3 2.483708 1_555
Fe2 Fe5 2.487868 1_555
Fe2 Fe4 2.487868 1_554
Fe2 Y0 3.285223 1_655
Fe2 Y0 3.285223 1_565
Fe3 Fe4 2.487868 1_454
Fe3 Fe5 2.487868 1_555
Fe3 Y0 3.285224 1_555
Fe3 Y0 3.285224 1_565
Fe4 Y0 3.223768 1_666
Fe4 Y0 3.223768 1_566
Fe5 Y0 3.223768 1_555
Fe5 Y0 3.223768 1_655
