# generated using pymatgen
data_Rb2SmCl5
_symmetry_space_group_name_H-M   'P 1'
_cell_length_a   8.21487040
_cell_length_b   8.84321833
_cell_length_c   13.15173868
_cell_angle_alpha   90.00000000
_cell_angle_beta   90.00000000
_cell_angle_gamma   90.00000000
_symmetry_Int_Tables_number   1
_chemical_formula_structural   Rb2SmCl5
_chemical_formula_sum   'Rb8 Sm4 Cl20'
_cell_volume   955.41979433
_cell_formula_units_Z   4
loop_
 _symmetry_equiv_pos_site_id
 _symmetry_equiv_pos_as_xyz
  1  'x, y, z'
loop_
 _atom_site_type_symbol
 _atom_site_label
 _atom_site_symmetry_multiplicity
 _atom_site_fract_x
 _atom_site_fract_y
 _atom_site_fract_z
 _atom_site_occupancy
  Rb  Rb0  1  0.55903973  0.49402095  0.82915735  1
  Rb  Rb1  1  0.44096027  0.50597905  0.17084265  1
  Rb  Rb2  1  0.05903973  0.50597905  0.67084265  1
  Rb  Rb3  1  0.44096027  -0.00597905  0.17084265  1
  Rb  Rb4  1  0.94096027  0.49402095  0.32915735  1
  Rb  Rb5  1  0.55903973  0.00597905  0.82915735  1
  Rb  Rb6  1  0.94096027  0.00597905  0.32915735  1
  Rb  Rb7  1  0.05903973  -0.00597905  0.67084265  1
  Sm  Sm0  1  0.57176302  0.75000000  0.50485088  1
  Sm  Sm1  1  0.42823698  0.25000000  0.49514912  1
  Sm  Sm2  1  0.07176302  0.25000000  0.99514912  1
  Sm  Sm3  1  0.92823698  0.75000000  0.00485088  1
  Cl  Cl0  1  0.84813580  0.75000000  0.80306621  1
  Cl  Cl1  1  0.15186420  0.25000000  0.19693379  1
  Cl  Cl2  1  0.34813580  0.25000000  0.69693379  1
  Cl  Cl3  1  0.65186420  0.75000000  0.30306621  1
  Cl  Cl4  1  0.38510460  0.75000000  0.67620721  1
  Cl  Cl5  1  0.61489540  0.25000000  0.32379279  1
  Cl  Cl6  1  0.88510460  0.25000000  0.82379279  1
  Cl  Cl7  1  0.11489540  0.75000000  0.17620721  1
  Cl  Cl8  1  0.90665631  0.75000000  0.51119313  1
  Cl  Cl9  1  0.09334369  0.25000000  0.48880687  1
  Cl  Cl10  1  0.40665631  0.25000000  0.98880687  1
  Cl  Cl11  1  0.59334369  0.75000000  0.01119313  1
  Cl  Cl12  1  0.66257407  0.04293368  0.57017983  1
  Cl  Cl13  1  0.33742593  0.95706632  0.42982017  1
  Cl  Cl14  1  0.16257407  0.95706632  0.92982017  1
  Cl  Cl15  1  0.33742593  0.54293368  0.42982017  1
  Cl  Cl16  1  0.83742593  0.04293368  0.07017983  1
  Cl  Cl17  1  0.66257407  0.45706632  0.57017983  1
  Cl  Cl18  1  0.83742593  0.45706632  0.07017983  1
  Cl  Cl19  1  0.16257407  0.54293368  0.92982017  1
loop_
_geom_bond_atom_site_label_1
_geom_bond_atom_site_label_2
_geom_bond_distance
_geom_bond_site_symmetry_2
Cl0 Sm3 2.734181 1_556
Cl0 Rb7 3.268395 1_665
Cl0 Rb2 3.268395 1_655
Cl0 Rb0 3.298799 1_555
Cl0 Rb5 3.298799 1_565
Cl1 Sm2 2.734181 1_554
Cl1 Rb4 3.268395 1_455
Cl1 Rb6 3.268395 1_455
Cl1 Rb1 3.298799 1_555
Cl1 Rb3 3.298799 1_555
Cl2 Sm1 2.734181 1_555
Cl2 Rb0 3.268395 1_555
Cl2 Rb5 3.268395 1_555
Cl2 Rb7 3.298799 1_555
Cl2 Rb2 3.298799 1_555
Cl3 Sm0 2.734181 1_555
Cl3 Rb3 3.268395 1_565
Cl3 Rb1 3.268395 1_555
Cl3 Rb4 3.298799 1_555
Cl3 Rb6 3.298799 1_565
Cl4 Sm0 2.725821 1_555
Cl4 Rb0 3.348468 1_555
Cl4 Rb5 3.348468 1_565
Cl4 Rb7 3.440412 1_565
Cl4 Rb2 3.440412 1_555
Cl5 Sm1 2.725821 1_555
Cl5 Rb1 3.348468 1_555
Cl5 Rb3 3.348468 1_555
Cl5 Rb4 3.440412 1_555
Cl5 Rb6 3.440412 1_555
Cl6 Sm2 2.725821 1_655
Cl6 Rb7 3.348468 1_655
Cl6 Rb2 3.348468 1_655
Cl6 Rb0 3.440412 1_555
Cl6 Rb5 3.440412 1_555
Cl7 Sm3 2.725821 1_455
Cl7 Rb4 3.348468 1_455
Cl7 Rb6 3.348468 1_465
Cl7 Rb3 3.440412 1_565
Cl7 Rb1 3.440412 1_555
Cl8 Sm0 2.752369 1_555
Cl8 Rb7 3.260721 1_665
Cl8 Rb2 3.260721 1_655
Cl8 Rb4 3.306857 1_555
Cl8 Rb6 3.306857 1_565
Cl9 Sm1 2.752369 1_555
Cl9 Rb6 3.260721 1_455
Cl9 Rb4 3.260721 1_455
Cl9 Rb2 3.306857 1_555
Cl9 Rb7 3.306857 1_555
Cl10 Sm2 2.752369 1_555
Cl10 Rb5 3.260721 1_555
Cl10 Rb0 3.260721 1_555
Cl10 Rb3 3.306857 1_556
Cl10 Rb1 3.306857 1_556
Cl11 Sm3 2.752369 1_555
Cl11 Rb3 3.260721 1_565
Cl11 Rb1 3.260721 1_555
Cl11 Rb0 3.306857 1_554
Cl11 Rb5 3.306857 1_564
Cl12 Sm0 2.829362 1_545
Cl12 Sm1 2.834185 1_555
Cl12 Rb5 3.525770 1_555
Cl12 Rb7 3.542213 1_655
Cl13 Sm1 2.829362 1_565
Cl13 Sm0 2.834185 1_555
Cl13 Rb3 3.525770 1_565
Cl13 Rb6 3.542213 1_465
Cl14 Sm2 2.829362 1_565
Cl14 Sm3 2.834185 1_456
Cl14 Rb7 3.525770 1_565
Cl14 Rb5 3.542213 1_565
Cl15 Sm1 2.829362 1_555
Cl15 Sm0 2.834185 1_555
Cl15 Rb1 3.525770 1_555
Cl15 Rb4 3.542213 1_455
Cl16 Sm3 2.829362 1_545
Cl16 Sm2 2.834185 1_654
Cl16 Rb6 3.525770 1_555
Cl16 Rb3 3.542213 1_555
Cl17 Sm0 2.829362 1_555
Cl17 Sm1 2.834185 1_555
Cl17 Rb0 3.525770 1_555
Cl17 Rb2 3.542213 1_655
Cl18 Sm3 2.829362 1_555
Cl18 Sm2 2.834185 1_654
Cl18 Rb4 3.525770 1_555
Cl18 Rb1 3.542213 1_555
Cl19 Sm2 2.829362 1_555
Cl19 Sm3 2.834185 1_456
Cl19 Rb2 3.525770 1_555
Cl19 Rb0 3.542213 1_555
