# generated using pymatgen
data_La4Ti5(TeO8)3
_symmetry_space_group_name_H-M   'P 1'
_cell_length_a   7.42310200
_cell_length_b   7.42405360
_cell_length_c   10.52927184
_cell_angle_alpha   109.97715495
_cell_angle_beta   110.39250014
_cell_angle_gamma   91.18680278
_symmetry_Int_Tables_number   1
_chemical_formula_structural   La4Ti5(TeO8)3
_chemical_formula_sum   'La4 Ti5 Te3 O24'
_cell_volume   504.69573212
_cell_formula_units_Z   1
loop_
 _symmetry_equiv_pos_site_id
 _symmetry_equiv_pos_as_xyz
  1  'x, y, z'
loop_
 _atom_site_type_symbol
 _atom_site_label
 _atom_site_symmetry_multiplicity
 _atom_site_fract_x
 _atom_site_fract_y
 _atom_site_fract_z
 _atom_site_occupancy
  La  La0  1  0.00143700  0.99885000  0.00526600  1
  La  La1  1  0.49776200  0.50287300  0.00067300  1
  La  La2  1  0.99705300  0.49925600  0.49322300  1
  La  La3  1  0.49825600  0.99602900  0.50168500  1
  Ti  Ti0  1  0.09541700  0.57174300  0.16997200  1
  Ti  Ti1  1  0.57177500  0.10098200  0.17575000  1
  Ti  Ti2  1  0.07823700  0.09045500  0.67153900  1
  Ti  Ti3  1  0.57804900  0.57174000  0.65286100  1
  Ti  Ti4  1  0.41252700  0.42293900  0.33760500  1
  Te  Te0  1  0.91551700  0.91202600  0.33086100  1
  Te  Te1  1  0.90880500  0.42637100  0.83806600  1
  Te  Te2  1  0.41845000  0.91170900  0.83262500  1
  O  O0  1  0.45808300  0.32978500  0.49973300  1
  O  O1  1  0.95473000  0.82155600  0.48961300  1
  O  O2  1  0.95854700  0.33259900  0.01748800  1
  O  O3  1  0.45435200  0.82655200  0.99430100  1
  O  O4  1  0.33177600  0.14056200  0.18793200  1
  O  O5  1  0.82723100  0.64756500  0.18839000  1
  O  O6  1  0.83266700  0.11672800  0.67743000  1
  O  O7  1  0.32390100  0.64987500  0.68470900  1
  O  O8  1  0.14971400  0.45903200  0.31886600  1
  O  O9  1  0.64667500  0.95526800  0.31292000  1
  O  O10  1  0.62816800  0.46486300  0.81177700  1
  O  O11  1  0.15085500  0.95351900  0.81505700  1
  O  O12  1  0.53059500  0.66727300  0.49509600  1
  O  O13  1  0.03835700  0.16128500  0.49433200  1
  O  O14  1  0.04588900  0.68056700  0.01290700  1
  O  O15  1  0.53743400  0.16365900  0.99745300  1
  O  O16  1  0.66699900  0.35300600  0.31065200  1
  O  O17  1  0.16688600  0.85791000  0.31959300  1
  O  O18  1  0.18452300  0.34127800  0.80398700  1
  O  O19  1  0.66732600  0.85801200  0.81842900  1
  O  O20  1  0.35349000  0.53929200  0.18627000  1
  O  O21  1  0.85961200  0.03729400  0.18937900  1
  O  O22  1  0.84165100  0.55403600  0.67598800  1
  O  O23  1  0.36405500  0.03031300  0.68757500  1
loop_
_geom_bond_atom_site_label_1
_geom_bond_atom_site_label_2
_geom_bond_distance
_geom_bond_site_symmetry_2
La0 O14 2.417144 1_555
La0 O21 2.450423 1_465
La0 O4 2.458211 1_565
La0 O2 2.469945 1_465
La0 O19 2.490245 1_454
La0 O11 2.541160 1_554
La1 O10 2.437649 1_554
La1 O18 2.442471 1_554
La1 O3 2.451524 1_554
La1 O5 2.472562 1_555
La1 O20 2.479596 1_555
La1 O15 2.531652 1_554
La2 O8 2.415155 1_655
La2 O1 2.431146 1_555
La2 O16 2.461360 1_555
La2 O7 2.477920 1_655
La2 O22 2.496212 1_555
La2 O13 2.537556 1_655
La3 O23 2.432504 1_565
La3 O12 2.437138 1_555
La3 O6 2.441914 1_565
La3 O17 2.458362 1_555
La3 O0 2.508005 1_565
La3 O9 2.526785 1_555
O0 Ti3 1.890356 1_555
O0 Ti4 1.980117 1_555
O1 Te0 1.940632 1_555
O1 Ti2 2.140681 1_665
O2 Ti0 1.898126 1_655
O2 Te1 2.147831 1_554
O3 Te2 1.948033 1_555
O3 Ti1 2.160324 1_566
O4 Ti1 1.852526 1_555
O4 Ti4 2.066374 1_555
O5 Te0 1.945188 1_555
O5 Ti0 2.135070 1_655
O6 Ti2 1.857441 1_655
O6 Te1 2.255650 1_555
O7 Te2 1.951904 1_555
O7 Ti3 2.088390 1_555
O8 Ti4 1.925154 1_555
O8 Ti0 1.946908 1_555
O9 Te0 1.981561 1_555
O9 Ti1 2.024421 1_565
O10 Ti3 2.013307 1_555
O10 Te1 2.043244 1_555
O11 Te2 1.971040 1_555
O11 Ti2 2.027897 1_565
O12 Ti4 1.916858 1_555
O12 Ti3 1.947848 1_555
O13 Te0 1.969373 1_445
O13 Ti2 2.034087 1_555
O14 Ti0 2.006095 1_555
O14 Te1 2.055974 1_454
O15 Te2 1.983941 1_545
O15 Ti1 2.018464 1_556
O16 Ti1 1.856765 1_555
O16 Ti4 2.057146 1_555
O17 Te0 1.951916 1_455
O17 Ti0 2.088258 1_555
O18 Ti2 1.852772 1_555
O18 Te1 2.264339 1_455
O19 Te2 1.943323 1_555
O19 Ti3 2.144785 1_555
O20 Ti0 1.890944 1_555
O20 Ti4 1.986664 1_555
O21 Te0 1.946310 1_545
O21 Ti1 2.164239 1_555
O22 Ti3 1.898916 1_555
O22 Te1 2.142680 1_555
O23 Te2 1.942875 1_545
O23 Ti2 2.137848 1_555
