# generated using pymatgen
data_In2CuSe3Br
_symmetry_space_group_name_H-M   'P 1'
_cell_length_a   5.84103100
_cell_length_b   5.90063988
_cell_length_c   7.20430179
_cell_angle_alpha   114.02594087
_cell_angle_beta   113.34889724
_cell_angle_gamma   90.27483561
_symmetry_Int_Tables_number   1
_chemical_formula_structural   In2CuSe3Br
_chemical_formula_sum   'In2 Cu1 Se3 Br1'
_cell_volume   204.08880024
_cell_formula_units_Z   1
loop_
 _symmetry_equiv_pos_site_id
 _symmetry_equiv_pos_as_xyz
  1  'x, y, z'
loop_
 _atom_site_type_symbol
 _atom_site_label
 _atom_site_symmetry_multiplicity
 _atom_site_fract_x
 _atom_site_fract_y
 _atom_site_fract_z
 _atom_site_occupancy
  In  In0  1  0.25494100  0.75296500  0.47165200  1
  In  In1  1  0.97456100  0.02349700  0.01431300  1
  Cu  Cu0  1  0.53405700  0.47359200  0.01987500  1
  Se  Se0  1  0.83346100  0.87241000  0.25431500  1
  Se  Se1  1  0.40475900  0.35732000  0.25336600  1
  Se  Se2  1  0.62421300  0.15237900  0.73606200  1
  Br  Br0  1  0.12400700  0.61783800  0.75041700  1
loop_
_geom_bond_atom_site_label_1
_geom_bond_atom_site_label_2
_geom_bond_distance
_geom_bond_site_symmetry_2
In0 Se1 2.609576 1_555
In0 Se0 2.620877 1_455
In0 Se2 2.621854 1_565
In1 Se2 2.605602 1_554
In1 Se0 2.615602 1_545
In1 Se1 2.630589 1_655
Cu0 Se2 2.399525 1_554
Cu0 Se1 2.410907 1_555
Cu0 Se0 2.414880 1_555
Br0 In1 2.781345 1_466
Br0 In0 2.787382 1_555
Br0 Cu0 2.812299 1_556
