# generated using pymatgen
data_Ba8Ge43Pd3
_symmetry_space_group_name_H-M   'P 1'
_cell_length_a   10.95691409
_cell_length_b   10.95691409
_cell_length_c   10.95691409
_cell_angle_alpha   90.25794458
_cell_angle_beta   89.74205542
_cell_angle_gamma   89.74205542
_symmetry_Int_Tables_number   1
_chemical_formula_structural   Ba8Ge43Pd3
_chemical_formula_sum   'Ba8 Ge43 Pd3'
_cell_volume   1315.38088566
_cell_formula_units_Z   1
loop_
 _symmetry_equiv_pos_site_id
 _symmetry_equiv_pos_as_xyz
  1  'x, y, z'
loop_
 _atom_site_type_symbol
 _atom_site_label
 _atom_site_symmetry_multiplicity
 _atom_site_fract_x
 _atom_site_fract_y
 _atom_site_fract_z
 _atom_site_occupancy
  Ba  Ba0  1  0.50170550  0.49829450  0.49829450  1
  Ba  Ba1  1  0.99829450  0.00170550  0.00170550  1
  Ba  Ba2  1  0.50423683  0.75000000  0.00423683  1
  Ba  Ba3  1  0.25000000  0.00423683  0.49576317  1
  Ba  Ba4  1  0.99576317  0.49576317  0.75000000  1
  Ba  Ba5  1  0.50421717  0.25000000  0.00421717  1
  Ba  Ba6  1  0.75000000  0.00421717  0.49578283  1
  Ba  Ba7  1  0.99578283  0.49578283  0.25000000  1
  Ge  Ge0  1  0.38478503  0.50038750  0.80695399  1
  Ge  Ge1  1  0.49961250  0.80695399  0.61521497  1
  Ge  Ge2  1  0.19304601  0.61521497  0.50038750  1
  Ge  Ge3  1  0.62378817  0.49983416  0.18455889  1
  Ge  Ge4  1  0.50016584  0.18455889  0.37621183  1
  Ge  Ge5  1  0.81544111  0.37621183  0.49983416  1
  Ge  Ge6  1  0.62211436  0.50016812  0.81720367  1
  Ge  Ge7  1  0.50017663  0.19350018  0.61547723  1
  Ge  Ge8  1  0.38452277  0.49982337  0.19350018  1
  Ge  Ge9  1  0.49983188  0.81720367  0.37788564  1
  Ge  Ge10  1  0.80649982  0.61547723  0.49982337  1
  Ge  Ge11  1  0.18279633  0.37788564  0.50016812  1
  Ge  Ge12  1  0.99982337  0.88452277  0.30649982  1
  Ge  Ge13  1  0.31720367  0.99983188  0.12211436  1
  Ge  Ge14  1  0.11521497  0.69304601  0.99961250  1
  Ge  Ge15  1  0.00016812  0.12211436  0.68279633  1
  Ge  Ge16  1  0.69350018  0.00017663  0.88452277  1
  Ge  Ge17  1  0.87621183  0.31544111  0.00016584  1
  Ge  Ge18  1  0.99983416  0.12378817  0.31544111  1
  Ge  Ge19  1  0.68455889  0.00016584  0.12378817  1
  Ge  Ge20  1  0.00038750  0.88478503  0.69304601  1
  Ge  Ge21  1  0.30695399  0.99961250  0.88478503  1
  Ge  Ge22  1  0.11547723  0.30649982  0.00017663  1
  Ge  Ge23  1  0.87788564  0.68279633  0.99983188  1
  Ge  Ge24  1  0.31562870  0.68437130  0.68437130  1
  Ge  Ge25  1  0.68278490  0.31721510  0.31721510  1
  Ge  Ge26  1  0.68312852  0.31642951  0.68419423  1
  Ge  Ge27  1  0.31563003  0.68517684  0.31685347  1
  Ge  Ge28  1  0.68357049  0.68419423  0.31687148  1
  Ge  Ge29  1  0.31482316  0.31685347  0.68436997  1
  Ge  Ge30  1  0.31580577  0.31687148  0.31642951  1
  Ge  Ge31  1  0.68314653  0.68436997  0.68517684  1
  Ge  Ge32  1  0.18517684  0.81563003  0.18314653  1
  Ge  Ge33  1  0.81642951  0.18312852  0.81580577  1
  Ge  Ge34  1  0.81721510  0.18278490  0.18278490  1
  Ge  Ge35  1  0.18437130  0.81562870  0.81562870  1
  Ge  Ge36  1  0.18436997  0.18314653  0.81482316  1
  Ge  Ge37  1  0.81687148  0.81580577  0.18357049  1
  Ge  Ge38  1  0.81685347  0.81482316  0.81563003  1
  Ge  Ge39  1  0.18419423  0.18357049  0.18312852  1
  Ge  Ge40  1  0.99939706  0.75000000  0.49939706  1
  Ge  Ge41  1  0.25000000  0.49939706  0.00060294  1
  Ge  Ge42  1  0.50060294  0.00060294  0.75000000  1
  Pd  Pd0  1  0.00039402  0.25000000  0.50039402  1
  Pd  Pd1  1  0.75000000  0.50039402  0.99960598  1
  Pd  Pd2  1  0.49960598  0.99960598  0.25000000  1
loop_
_geom_bond_atom_site_label_1
_geom_bond_atom_site_label_2
_geom_bond_distance
_geom_bond_site_symmetry_2
Ba0 Ge25 3.421006 1_555
Ba0 Ge30 3.479729 1_555
Ba0 Ge28 3.479729 1_555
Ba0 Ge26 3.479729 1_555
Ba0 Ge29 3.512475 1_555
Ba0 Ge27 3.512475 1_555
Ba0 Ge31 3.512475 1_555
Ba0 Ge24 3.515419 1_555
Ba0 Ge8 3.583395 1_555
Ba0 Ge10 3.583395 1_555
Ba0 Ge7 3.583395 1_555
Ba0 Ge0 3.611006 1_555
Ba0 Ge1 3.611006 1_555
Ba0 Ge2 3.611006 1_555
Ba0 Ge3 3.683182 1_555
Ba0 Ge4 3.683182 1_555
Ba0 Ge5 3.683182 1_555
Ba0 Ge11 3.740583 1_555
Ba0 Ge6 3.740583 1_555
Ba0 Ge9 3.740583 1_555
Ba1 Ge34 3.421006 1_555
Ba1 Ge39 3.479729 1_655
Ba1 Ge37 3.479729 1_545
Ba1 Ge33 3.479729 1_554
Ba1 Ge38 3.512475 1_544
Ba1 Ge32 3.512475 1_645
Ba1 Ge36 3.512475 1_654
Ba1 Ge35 3.515419 1_644
Ba1 Ge12 3.583395 1_545
Ba1 Ge16 3.583395 1_554
Ba1 Ge22 3.583395 1_655
Ba1 Ge20 3.611006 1_644
Ba1 Ge21 3.611006 1_644
Ba1 Ge14 3.611006 1_644
Ba1 Ge17 3.683182 1_555
Ba1 Ge19 3.683182 1_555
Ba1 Ge18 3.683182 1_555
Ba1 Ge23 3.740583 1_544
Ba1 Ge15 3.740583 1_654
Ba1 Ge13 3.740583 1_645
Ba2 Ge3 3.629411 1_555
Ba2 Ge19 3.629411 1_565
Ba2 Ge13 3.640732 1_555
Ba2 Ge6 3.640732 1_554
Ba2 Ge16 3.687004 1_564
Ba2 Ge8 3.687004 1_555
Ba2 Ge21 3.724270 1_554
Ba2 Ge0 3.724270 1_554
Ba2 Ge41 3.920450 1_555
Ba2 Ge42 3.920450 1_564
Ba3 Ge4 3.629411 1_555
Ba3 Ge18 3.629411 1_455
Ba3 Ge15 3.640732 1_555
Ba3 Ge9 3.640732 1_545
Ba3 Ge12 3.687004 1_445
Ba3 Ge7 3.687004 1_555
Ba3 Ge1 3.724270 1_545
Ba3 Ge20 3.724270 1_545
Ba3 Ge42 3.920450 1_555
Ba3 Ge40 3.920450 1_445
Ba4 Ge17 3.629411 1_556
Ba4 Ge5 3.629411 1_555
Ba4 Ge11 3.640732 1_655
Ba4 Ge23 3.640732 1_555
Ba4 Ge22 3.687004 1_656
Ba4 Ge10 3.687004 1_555
Ba4 Ge2 3.724270 1_655
Ba4 Ge14 3.724270 1_655
Ba4 Ge41 3.920450 1_656
Ba4 Ge40 3.920450 1_555
Ba5 Ge3 3.622332 1_555
Ba5 Ge19 3.622332 1_555
Ba5 Ge8 3.661438 1_555
Ba5 Ge16 3.661438 1_554
Ba5 Ge6 3.666004 1_554
Ba5 Ge13 3.666004 1_545
Ba5 Ge21 3.735943 1_544
Ba5 Ge0 3.735943 1_554
Ba5 Pd2 3.853376 1_545
Ba5 Pd1 3.853376 1_554
Ba5 Ge41 3.893697 1_555
Ba5 Ge42 3.893697 1_554
Ba6 Ge18 3.622332 1_555
Ba6 Ge4 3.622332 1_555
Ba6 Ge7 3.661438 1_555
Ba6 Ge12 3.661438 1_545
Ba6 Ge9 3.666004 1_545
Ba6 Ge15 3.666004 1_655
Ba6 Ge20 3.735943 1_645
Ba6 Ge1 3.735943 1_545
Ba6 Pd2 3.853376 1_545
Ba6 Pd0 3.853376 1_655
Ba6 Ge40 3.893697 1_545
Ba6 Ge42 3.893697 1_555
Ba7 Ge17 3.622332 1_555
Ba7 Ge5 3.622332 1_555
Ba7 Ge10 3.661438 1_555
Ba7 Ge22 3.661438 1_655
Ba7 Ge23 3.666004 1_554
Ba7 Ge11 3.666004 1_655
Ba7 Ge14 3.735943 1_654
Ba7 Ge2 3.735943 1_655
Ba7 Pd1 3.853376 1_554
Ba7 Pd0 3.853376 1_655
Ba7 Ge40 3.893697 1_555
Ba7 Ge41 3.893697 1_655
Ge0 Ge29 2.536626 1_555
Ge0 Ge24 2.542004 1_555
Ge0 Ge41 2.579785 1_556
Ge0 Ge6 2.603317 1_555
Ge1 Ge31 2.536626 1_555
Ge1 Ge24 2.542004 1_555
Ge1 Ge42 2.579785 1_565
Ge1 Ge9 2.603317 1_555
Ge2 Ge27 2.536626 1_555
Ge2 Ge24 2.542004 1_555
Ge2 Ge40 2.579785 1_455
Ge3 Pd1 2.448293 1_554
Ge3 Ge8 2.623000 1_555
Ge4 Pd2 2.448293 1_545
Ge4 Ge7 2.623000 1_555
Ge5 Pd0 2.448293 1_655
Ge6 Pd1 2.446002 1_555
Ge9 Pd2 2.446002 1_555
Ge10 Ge28 2.535400 1_555
Ge10 Ge31 2.544289 1_555
Ge10 Ge40 2.582192 1_555
Ge10 Ge5 2.623000 1_555
Ge11 Pd0 2.446002 1_555
Ge11 Ge30 2.564481 1_555
Ge11 Ge29 2.577414 1_555
Ge11 Ge2 2.603317 1_555
Ge12 Ge37 2.535400 1_555
Ge12 Ge32 2.544289 1_655
Ge12 Ge40 2.582192 1_555
Ge12 Ge18 2.623000 1_565
Ge13 Pd2 2.446002 1_555
Ge13 Ge39 2.564481 1_565
Ge13 Ge32 2.577414 1_555
Ge13 Ge21 2.603317 1_554
Ge14 Ge32 2.536626 1_556
Ge14 Ge35 2.542004 1_555
Ge14 Ge41 2.579785 1_556
Ge14 Ge23 2.603317 1_455
Ge15 Pd0 2.446002 1_555
Ge15 Ge33 2.564481 1_455
Ge15 Ge36 2.577414 1_555
Ge15 Ge20 2.603317 1_545
Ge16 Ge33 2.535400 1_555
Ge16 Ge38 2.544289 1_545
Ge16 Ge42 2.582192 1_555
Ge16 Ge19 2.623000 1_556
Ge17 Pd1 2.448293 1_554
Ge17 Ge34 2.560722 1_555
Ge17 Ge33 2.570091 1_554
Ge17 Ge22 2.623000 1_655
Ge18 Pd0 2.448293 1_655
Ge18 Ge34 2.560722 1_555
Ge18 Ge39 2.570091 1_655
Ge19 Pd2 2.448293 1_545
Ge19 Ge34 2.560722 1_555
Ge19 Ge37 2.570091 1_545
Ge20 Ge38 2.536626 1_455
Ge20 Ge35 2.542004 1_555
Ge20 Ge40 2.579785 1_455
Ge21 Ge36 2.536626 1_565
Ge21 Ge35 2.542004 1_555
Ge21 Ge42 2.579785 1_565
Ge22 Ge39 2.535400 1_555
Ge22 Ge36 2.544289 1_554
Ge22 Ge41 2.582192 1_555
Ge23 Pd1 2.446002 1_555
Ge23 Ge37 2.564481 1_556
Ge23 Ge38 2.577414 1_555
Ge24 Ge35 2.479754 1_555
Ge25 Ge34 2.539696 1_555
Ge25 Ge5 2.560722 1_555
Ge25 Ge4 2.560722 1_555
Ge25 Ge3 2.560722 1_555
Ge26 Ge33 2.522848 1_555
Ge26 Ge7 2.535400 1_555
Ge26 Ge6 2.564481 1_555
Ge26 Ge5 2.570091 1_555
Ge27 Ge32 2.500350 1_555
Ge27 Ge8 2.544289 1_555
Ge27 Ge9 2.577414 1_555
Ge28 Ge37 2.522848 1_555
Ge28 Ge9 2.564481 1_555
Ge28 Ge3 2.570091 1_555
Ge29 Ge36 2.500350 1_555
Ge29 Ge7 2.544289 1_555
Ge30 Ge39 2.522848 1_555
Ge30 Ge8 2.535400 1_555
Ge30 Ge4 2.570091 1_555
Ge31 Ge38 2.500350 1_555
Ge31 Ge6 2.577414 1_555
Ge41 Ge8 2.582192 1_555
Ge42 Ge7 2.582192 1_555
