# generated using pymatgen
data_Sc50In3Rh13
_symmetry_space_group_name_H-M   'P 1'
_cell_length_a   12.59164420
_cell_length_b   12.59164420
_cell_length_c   12.59164420
_cell_angle_alpha   60.00000000
_cell_angle_beta   60.00000000
_cell_angle_gamma   60.00000000
_symmetry_Int_Tables_number   1
_chemical_formula_structural   Sc50In3Rh13
_chemical_formula_sum   'Sc50 In3 Rh13'
_cell_volume   1411.66722708
_cell_formula_units_Z   1
loop_
 _symmetry_equiv_pos_site_id
 _symmetry_equiv_pos_as_xyz
  1  'x, y, z'
loop_
 _atom_site_type_symbol
 _atom_site_label
 _atom_site_symmetry_multiplicity
 _atom_site_fract_x
 _atom_site_fract_y
 _atom_site_fract_z
 _atom_site_occupancy
  Sc  Sc0  1  0.78793300  0.21206700  0.21206700  1
  Sc  Sc1  1  0.21206700  0.78793300  0.78793300  1
  Sc  Sc2  1  0.21206700  0.78793300  0.21206700  1
  Sc  Sc3  1  0.78793300  0.21206700  0.78793300  1
  Sc  Sc4  1  0.21206700  0.21206700  0.78793300  1
  Sc  Sc5  1  0.78793300  0.78793300  0.21206700  1
  Sc  Sc6  1  0.32125300  0.99325200  0.19233400  1
  Sc  Sc7  1  0.67874700  0.00674800  0.80766600  1
  Sc  Sc8  1  0.99325200  0.32125300  0.49316100  1
  Sc  Sc9  1  0.19233400  0.49316100  0.32125300  1
  Sc  Sc10  1  0.19233400  0.32125300  0.99325200  1
  Sc  Sc11  1  0.00674800  0.67874700  0.50683900  1
  Sc  Sc12  1  0.80766600  0.50683900  0.67874700  1
  Sc  Sc13  1  0.80766600  0.67874700  0.00674800  1
  Sc  Sc14  1  0.49316100  0.19233400  0.99325200  1
  Sc  Sc15  1  0.49316100  0.99325200  0.32125300  1
  Sc  Sc16  1  0.50683900  0.80766600  0.00674800  1
  Sc  Sc17  1  0.50683900  0.00674800  0.67874700  1
  Sc  Sc18  1  0.32125300  0.19233400  0.49316100  1
  Sc  Sc19  1  0.67874700  0.80766600  0.50683900  1
  Sc  Sc20  1  0.99325200  0.49316100  0.19233400  1
  Sc  Sc21  1  0.00674800  0.50683900  0.80766600  1
  Sc  Sc22  1  0.99325200  0.19233400  0.32125300  1
  Sc  Sc23  1  0.00674800  0.80766600  0.67874700  1
  Sc  Sc24  1  0.49316100  0.32125300  0.19233400  1
  Sc  Sc25  1  0.50683900  0.67874700  0.80766600  1
  Sc  Sc26  1  0.19233400  0.99325200  0.49316100  1
  Sc  Sc27  1  0.80766600  0.00674800  0.50683900  1
  Sc  Sc28  1  0.32125300  0.49316100  0.99325200  1
  Sc  Sc29  1  0.67874700  0.50683900  0.00674800  1
  Sc  Sc30  1  0.44763100  0.26064800  0.73935200  1
  Sc  Sc31  1  0.55236900  0.73935200  0.26064800  1
  Sc  Sc32  1  0.26064800  0.44763100  0.55236900  1
  Sc  Sc33  1  0.73935200  0.55236900  0.44763100  1
  Sc  Sc34  1  0.73935200  0.44763100  0.26064800  1
  Sc  Sc35  1  0.26064800  0.55236900  0.73935200  1
  Sc  Sc36  1  0.55236900  0.26064800  0.44763100  1
  Sc  Sc37  1  0.44763100  0.73935200  0.55236900  1
  Sc  Sc38  1  0.26064800  0.73935200  0.44763100  1
  Sc  Sc39  1  0.73935200  0.26064800  0.55236900  1
  Sc  Sc40  1  0.55236900  0.44763100  0.73935200  1
  Sc  Sc41  1  0.44763100  0.55236900  0.26064800  1
  Sc  Sc42  1  0.08997200  0.08997200  0.08997200  1
  Sc  Sc43  1  0.91002800  0.91002800  0.91002800  1
  Sc  Sc44  1  0.08997200  0.08997200  0.73008500  1
  Sc  Sc45  1  0.08997200  0.73008500  0.08997200  1
  Sc  Sc46  1  0.91002800  0.91002800  0.26991500  1
  Sc  Sc47  1  0.91002800  0.26991500  0.91002800  1
  Sc  Sc48  1  0.73008500  0.08997200  0.08997200  1
  Sc  Sc49  1  0.26991500  0.91002800  0.91002800  1
  In  In0  1  0.25000000  0.25000000  0.25000000  1
  In  In1  1  0.75000000  0.75000000  0.75000000  1
  In  In2  1  0.50000000  0.50000000  0.50000000  1
  Rh  Rh0  1  0.00000000  0.00000000  0.00000000  1
  Rh  Rh1  1  0.37010100  0.06276200  0.93723800  1
  Rh  Rh2  1  0.62989900  0.93723800  0.06276200  1
  Rh  Rh3  1  0.06276200  0.37010100  0.62989900  1
  Rh  Rh4  1  0.93723800  0.62989900  0.37010100  1
  Rh  Rh5  1  0.93723800  0.37010100  0.06276200  1
  Rh  Rh6  1  0.06276200  0.62989900  0.93723800  1
  Rh  Rh7  1  0.62989900  0.06276200  0.37010100  1
  Rh  Rh8  1  0.37010100  0.93723800  0.62989900  1
  Rh  Rh9  1  0.06276200  0.93723800  0.37010100  1
  Rh  Rh10  1  0.93723800  0.06276200  0.62989900  1
  Rh  Rh11  1  0.62989900  0.37010100  0.93723800  1
  Rh  Rh12  1  0.37010100  0.62989900  0.06276200  1
loop_
_geom_bond_atom_site_label_1
_geom_bond_atom_site_label_2
_geom_bond_distance
_geom_bond_site_symmetry_2
In0 Sc6 3.252560 1_545
In0 Sc8 3.252560 1_455
In0 Sc26 3.252560 1_545
In0 Sc22 3.252560 1_455
In0 Sc10 3.252560 1_554
In0 Sc20 3.252560 1_455
In0 Sc9 3.252560 1_555
In0 Sc15 3.252560 1_545
In0 Sc18 3.252560 1_555
In0 Sc14 3.252560 1_554
In0 Sc28 3.252560 1_554
In0 Sc24 3.252560 1_555
In1 Sc16 3.252560 1_556
In1 Sc7 3.252560 1_565
In1 Sc11 3.252560 1_655
In1 Sc23 3.252560 1_655
In1 Sc29 3.252560 1_556
In1 Sc17 3.252560 1_565
In1 Sc25 3.252560 1_555
In1 Sc19 3.252560 1_555
In1 Sc12 3.252560 1_555
In1 Sc27 3.252560 1_565
In1 Sc13 3.252560 1_556
In1 Sc21 3.252560 1_655
In2 Sc40 3.085130 1_555
In2 Sc32 3.085130 1_555
In2 Sc33 3.085130 1_555
In2 Sc36 3.085130 1_555
In2 Sc35 3.085130 1_555
In2 Sc39 3.085130 1_555
In2 Sc31 3.085130 1_555
In2 Sc37 3.085130 1_555
In2 Sc34 3.085130 1_555
In2 Sc41 3.085130 1_555
In2 Sc38 3.085130 1_555
In2 Sc30 3.085130 1_555
Rh0 Sc47 2.775005 1_454
Rh0 Sc45 2.775005 1_545
Rh0 Sc46 2.775005 1_445
Rh0 Sc49 2.775005 1_544
Rh0 Sc44 2.775005 1_554
Rh0 Sc48 2.775005 1_455
Rh0 Sc42 2.775016 1_555
Rh0 Sc43 2.775016 1_444
Rh1 Sc30 2.676125 1_555
Rh1 Sc6 2.685727 1_546
Rh1 Sc16 2.685727 1_546
Rh1 Sc4 2.737538 1_555
Rh1 Sc42 2.987397 1_556
Rh1 Sc49 2.987407 1_545
Rh1 Sc10 3.087567 1_555
Rh1 Sc17 3.087567 1_555
Rh1 Sc14 3.214356 1_555
Rh1 Sc7 3.214356 1_555
Rh2 Sc31 2.676125 1_555
Rh2 Sc7 2.685727 1_564
Rh2 Sc14 2.685727 1_564
Rh2 Sc5 2.737538 1_555
Rh2 Sc43 2.987397 1_554
Rh2 Sc48 2.987407 1_565
Rh2 Sc13 3.087567 1_555
Rh2 Sc15 3.087567 1_555
Rh2 Sc6 3.214356 1_555
Rh2 Sc16 3.214356 1_555
Rh3 Sc32 2.676125 1_555
Rh3 Sc8 2.685727 1_455
Rh3 Sc12 2.685727 1_455
Rh3 Sc4 2.737538 1_555
Rh3 Sc44 2.987396 1_555
Rh3 Sc47 2.987399 1_455
Rh3 Sc18 3.087567 1_555
Rh3 Sc21 3.087567 1_555
Rh3 Sc11 3.214356 1_555
Rh3 Sc9 3.214356 1_555
Rh4 Sc33 2.676125 1_555
Rh4 Sc11 2.685727 1_655
Rh4 Sc9 2.685727 1_655
Rh4 Sc5 2.737538 1_555
Rh4 Sc46 2.987396 1_555
Rh4 Sc45 2.987399 1_655
Rh4 Sc20 3.087567 1_555
Rh4 Sc19 3.087567 1_555
Rh4 Sc12 3.214356 1_555
Rh4 Sc8 3.214356 1_555
Rh5 Sc34 2.676125 1_555
Rh5 Sc10 2.685727 1_654
Rh5 Sc21 2.685727 1_654
Rh5 Sc0 2.737538 1_555
Rh5 Sc42 2.987397 1_655
Rh5 Sc47 2.987407 1_554
Rh5 Sc22 3.087567 1_555
Rh5 Sc29 3.087567 1_555
Rh5 Sc13 3.214356 1_555
Rh5 Sc20 3.214356 1_555
Rh6 Sc35 2.676125 1_555
Rh6 Sc13 2.685727 1_456
Rh6 Sc20 2.685727 1_456
Rh6 Sc1 2.737538 1_555
Rh6 Sc43 2.987397 1_455
Rh6 Sc45 2.987407 1_556
Rh6 Sc28 3.087567 1_555
Rh6 Sc23 3.087567 1_555
Rh6 Sc21 3.214356 1_555
Rh6 Sc10 3.214356 1_555
Rh7 Sc36 2.676125 1_555
Rh7 Sc15 2.685727 1_545
Rh7 Sc19 2.685727 1_545
Rh7 Sc0 2.737538 1_555
Rh7 Sc48 2.987396 1_555
Rh7 Sc46 2.987399 1_545
Rh7 Sc24 3.087567 1_555
Rh7 Sc27 3.087567 1_555
Rh7 Sc17 3.214356 1_555
Rh7 Sc18 3.214356 1_555
Rh8 Sc37 2.676125 1_555
Rh8 Sc17 2.685727 1_565
Rh8 Sc18 2.685727 1_565
Rh8 Sc1 2.737538 1_555
Rh8 Sc49 2.987396 1_555
Rh8 Sc44 2.987399 1_565
Rh8 Sc26 3.087567 1_555
Rh8 Sc25 3.087567 1_555
Rh8 Sc15 3.214356 1_555
Rh8 Sc19 3.214356 1_555
Rh9 Sc38 2.676125 1_555
Rh9 Sc27 2.685727 1_465
Rh9 Sc22 2.685727 1_465
Rh9 Sc2 2.737538 1_555
Rh9 Sc42 2.987397 1_565
Rh9 Sc46 2.987407 1_455
Rh9 Sc6 3.087567 1_555
Rh9 Sc11 3.087567 1_555
Rh9 Sc23 3.214356 1_555
Rh9 Sc26 3.214356 1_555
Rh10 Sc39 2.676125 1_555
Rh10 Sc26 2.685727 1_645
Rh10 Sc23 2.685727 1_645
Rh10 Sc3 2.737538 1_555
Rh10 Sc43 2.987397 1_545
Rh10 Sc44 2.987407 1_655
Rh10 Sc8 3.087567 1_555
Rh10 Sc7 3.087567 1_555
Rh10 Sc27 3.214356 1_555
Rh10 Sc22 3.214356 1_555
Rh11 Sc40 2.676125 1_555
Rh11 Sc24 2.685727 1_556
Rh11 Sc29 2.685727 1_556
Rh11 Sc3 2.737538 1_555
Rh11 Sc47 2.987396 1_555
Rh11 Sc48 2.987399 1_556
Rh11 Sc14 3.087567 1_555
Rh11 Sc12 3.087567 1_555
Rh11 Sc25 3.214356 1_555
Rh11 Sc28 3.214356 1_555
Rh12 Sc41 2.676125 1_555
Rh12 Sc28 2.685727 1_554
Rh12 Sc25 2.685727 1_554
Rh12 Sc2 2.737538 1_555
Rh12 Sc45 2.987396 1_555
Rh12 Sc49 2.987399 1_554
Rh12 Sc9 3.087567 1_555
Rh12 Sc16 3.087567 1_555
Rh12 Sc24 3.214356 1_555
Rh12 Sc29 3.214356 1_555
