# generated using pymatgen
data_U2AlFe3
_symmetry_space_group_name_H-M   'P 1'
_cell_length_a   5.24163268
_cell_length_b   5.24163268
_cell_length_c   4.77287937
_cell_angle_alpha   90.00000000
_cell_angle_beta   56.69430263
_cell_angle_gamma   120.00000000
_symmetry_Int_Tables_number   1
_chemical_formula_structural   U2AlFe3
_chemical_formula_sum   'U2 Al1 Fe3'
_cell_volume   87.81859059
_cell_formula_units_Z   1
loop_
 _symmetry_equiv_pos_site_id
 _symmetry_equiv_pos_as_xyz
  1  'x, y, z'
loop_
 _atom_site_type_symbol
 _atom_site_label
 _atom_site_symmetry_multiplicity
 _atom_site_fract_x
 _atom_site_fract_y
 _atom_site_fract_z
 _atom_site_occupancy
  U  U0  1  0.50354702  0.75177351  0.74467948  1
  U  U1  1  0.99645298  0.99822649  0.00532052  1
  Al  Al0  1  0.75000000  0.37500000  0.87500000  1
  Fe  Fe0  1  0.25000000  0.37500000  0.37500000  1
  Fe  Fe1  1  0.25000000  0.87500000  0.37500000  1
  Fe  Fe2  1  0.75000000  0.37500000  0.37500000  1
loop_
_geom_bond_atom_site_label_1
_geom_bond_atom_site_label_2
_geom_bond_distance
_geom_bond_site_symmetry_2
U0 U1 2.728840 1_555
U0 U1 3.175475 1_556
U0 U1 3.175475 1_456
U0 U1 3.175475 1_446
Al0 Fe0 2.386440 1_655
Al0 Fe1 2.386440 1_655
Al0 Fe1 2.386440 1_546
Al0 Fe0 2.386440 1_556
Al0 Fe2 2.386440 1_555
Al0 Fe2 2.386440 1_556
Al0 U0 3.064244 1_545
Al0 U1 3.064244 1_556
Al0 U1 3.064244 1_546
Al0 U0 3.064244 1_555
Al0 U1 3.064244 1_446
Al0 U0 3.064244 1_655
Fe0 Fe2 2.620816 1_455
Fe0 Fe1 2.620816 1_545
Fe0 Fe2 2.620816 1_555
Fe0 Fe1 2.620816 1_555
Fe0 U1 2.775192 1_446
Fe0 U0 2.775192 1_554
Fe0 U0 2.954711 1_445
Fe0 U1 2.954711 1_555
Fe0 U0 2.954711 1_555
Fe0 U1 2.954711 1_445
Fe1 Fe2 2.620816 1_455
Fe1 Fe2 2.620816 1_565
Fe1 U1 2.775192 1_456
Fe1 U0 2.775192 1_554
Fe1 U1 2.954711 1_555
Fe1 U0 2.954711 1_455
Fe1 U1 2.954711 1_455
Fe1 U0 2.954711 1_555
Fe2 U1 2.775192 1_446
Fe2 U0 2.775192 1_654
Fe2 U1 2.954711 1_555
Fe2 U1 2.954711 1_545
Fe2 U0 2.954711 1_545
Fe2 U0 2.954711 1_555
