# generated using pymatgen
data_SrMg14Bi
_symmetry_space_group_name_H-M   'P 1'
_cell_length_a   6.62835026
_cell_length_b   6.50535011
_cell_length_c   10.62560645
_cell_angle_alpha   90.00000000
_cell_angle_beta   90.00000000
_cell_angle_gamma   119.38803103
_symmetry_Int_Tables_number   1
_chemical_formula_structural   SrMg14Bi
_chemical_formula_sum   'Sr1 Mg14 Bi1'
_cell_volume   399.21395127
_cell_formula_units_Z   1
loop_
 _symmetry_equiv_pos_site_id
 _symmetry_equiv_pos_as_xyz
  1  'x, y, z'
loop_
 _atom_site_type_symbol
 _atom_site_label
 _atom_site_symmetry_multiplicity
 _atom_site_fract_x
 _atom_site_fract_y
 _atom_site_fract_z
 _atom_site_occupancy
  Sr  Sr0  1  0.16576304  0.33288102  0.12500000  1
  Mg  Mg0  1  0.16504557  0.33252228  0.62500000  1
  Mg  Mg1  1  0.16346781  0.83173340  0.62500000  1
  Mg  Mg2  1  0.66525875  0.32817168  0.12500000  1
  Mg  Mg3  1  0.66745299  0.33520721  0.62500000  1
  Mg  Mg4  1  0.66525875  0.83708607  0.12500000  1
  Mg  Mg5  1  0.66745299  0.83224477  0.62500000  1
  Mg  Mg6  1  0.33996906  0.16783035  0.38919550  1
  Mg  Mg7  1  0.33996906  0.16783035  0.86080450  1
  Mg  Mg8  1  0.33996906  0.67213971  0.38919550  1
  Mg  Mg9  1  0.33996906  0.67213971  0.86080450  1
  Mg  Mg10  1  0.82534302  0.16267201  0.38559011  1
  Mg  Mg11  1  0.82534302  0.16267201  0.86440989  1
  Mg  Mg12  1  0.82777443  0.66388772  0.37647221  1
  Mg  Mg13  1  0.82777443  0.66388772  0.87352779  1
  Bi  Bi0  1  0.17418898  0.83709399  0.12500000  1
loop_
_geom_bond_atom_site_label_1
_geom_bond_atom_site_label_2
_geom_bond_distance
_geom_bond_site_symmetry_2
Mg0 Mg6 3.160571 1_555
Mg0 Mg7 3.160571 1_555
Mg0 Mg8 3.160578 1_555
Mg0 Mg9 3.160578 1_555
Mg0 Mg10 3.212540 1_455
Mg0 Mg11 3.212540 1_455
Mg0 Mg1 3.252688 1_545
Mg0 Mg1 3.252688 1_555
Mg0 Mg5 3.306824 1_445
Mg0 Mg3 3.306824 1_455
Mg0 Mg5 3.321596 1_555
Mg0 Mg3 3.321596 1_555
Mg1 Mg8 3.149050 1_555
Mg1 Mg9 3.149050 1_555
Mg1 Mg7 3.149057 1_565
Mg1 Mg6 3.149057 1_565
Mg1 Mg12 3.276034 1_455
Mg1 Mg13 3.276034 1_455
Mg1 Mg3 3.289393 1_455
Mg1 Mg5 3.289394 1_455
Mg1 Mg3 3.338959 1_565
Mg1 Mg5 3.338959 1_555
Mg2 Mg4 3.194684 1_545
Mg2 Sr0 3.302592 1_655
Mg2 Mg4 3.310666 1_555
Mg2 Sr0 3.325973 1_555
Mg2 Mg6 3.377903 1_555
Mg2 Mg7 3.377903 1_554
Mg3 Mg6 3.139365 1_555
Mg3 Mg7 3.139365 1_555
Mg3 Mg5 3.233403 1_555
Mg3 Mg5 3.271947 1_545
Mg4 Sr0 3.302592 1_665
Mg4 Sr0 3.325973 1_555
Mg4 Mg9 3.377902 1_554
Mg4 Mg8 3.377902 1_555
Mg5 Mg8 3.139365 1_555
Mg5 Mg9 3.139365 1_555
Mg6 Mg8 3.224641 1_545
Mg6 Mg8 3.280709 1_555
Mg6 Sr0 3.403465 1_555
Mg7 Mg9 3.224641 1_545
Mg7 Mg9 3.280709 1_555
Mg7 Sr0 3.403465 1_556
Mg8 Sr0 3.403472 1_555
Mg9 Sr0 3.403472 1_556
Mg10 Mg3 3.158988 1_555
Mg10 Mg5 3.158995 1_545
Mg10 Mg8 3.234054 1_545
Mg10 Mg6 3.234055 1_555
Mg10 Mg12 3.254148 1_545
Mg10 Mg12 3.254148 1_555
Mg10 Mg2 3.327647 1_555
Mg10 Mg4 3.327653 1_545
Mg10 Mg8 3.394996 1_655
Mg10 Mg6 3.394997 1_655
Mg10 Sr0 3.395931 1_655
Mg11 Mg3 3.158988 1_555
Mg11 Mg5 3.158995 1_545
Mg11 Mg9 3.234054 1_545
Mg11 Mg7 3.234055 1_555
Mg11 Mg13 3.254148 1_545
Mg11 Mg13 3.254148 1_555
Mg11 Mg2 3.327647 1_556
Mg11 Mg4 3.327653 1_546
Mg11 Mg9 3.394996 1_655
Mg11 Mg7 3.394997 1_655
Mg11 Sr0 3.395931 1_656
Mg12 Mg5 3.231816 1_555
Mg12 Mg3 3.231822 1_555
Mg12 Mg6 3.262825 1_555
Mg12 Mg8 3.262825 1_555
Mg12 Mg4 3.280379 1_555
Mg12 Mg2 3.280385 1_555
Mg12 Mg6 3.371698 1_665
Mg12 Mg8 3.371699 1_655
Mg13 Mg5 3.231816 1_555
Mg13 Mg3 3.231822 1_555
Mg13 Mg7 3.262825 1_555
Mg13 Mg9 3.262825 1_555
Mg13 Mg4 3.280379 1_556
Mg13 Mg2 3.280385 1_556
Mg13 Mg7 3.371698 1_665
Mg13 Mg9 3.371699 1_655
Bi0 Sr0 3.253039 1_555
Bi0 Sr0 3.253039 1_565
Bi0 Mg2 3.255007 1_565
Bi0 Mg4 3.255008 1_555
Bi0 Mg13 3.338044 1_454
Bi0 Mg12 3.338044 1_455
Bi0 Mg2 3.373342 1_455
Bi0 Mg4 3.373343 1_455
Bi0 Mg8 3.375920 1_555
Bi0 Mg9 3.375920 1_554
Bi0 Mg7 3.375927 1_564
Bi0 Mg6 3.375927 1_565
