# generated using pymatgen
data_Sm2Fe2Se2O3
_symmetry_space_group_name_H-M   'P 1'
_cell_length_a   4.05478200
_cell_length_b   4.05478300
_cell_length_c   9.82206784
_cell_angle_alpha   101.91216471
_cell_angle_beta   101.91216173
_cell_angle_gamma   89.99998587
_symmetry_Int_Tables_number   1
_chemical_formula_structural   Sm2Fe2Se2O3
_chemical_formula_sum   'Sm2 Fe2 Se2 O3'
_cell_volume   154.45371189
_cell_formula_units_Z   1
loop_
 _symmetry_equiv_pos_site_id
 _symmetry_equiv_pos_as_xyz
  1  'x, y, z'
loop_
 _atom_site_type_symbol
 _atom_site_label
 _atom_site_symmetry_multiplicity
 _atom_site_fract_x
 _atom_site_fract_y
 _atom_site_fract_z
 _atom_site_occupancy
  Sm  Sm0  1  0.68968800  0.68968800  0.37937600  1
  Sm  Sm1  1  0.31031200  0.31031200  0.62062400  1
  Fe  Fe0  1  0.50000000  0.00000000  0.00000000  1
  Fe  Fe1  1  0.00000000  0.50000000  0.00000000  1
  Se  Se0  1  0.10058100  0.10058100  0.20116200  1
  Se  Se1  1  0.89941900  0.89941900  0.79883800  1
  O  O0  1  0.75000000  0.25000000  0.50000000  1
  O  O1  1  0.25000000  0.75000000  0.50000000  1
  O  O2  1  0.50000000  0.50000000  0.00000000  1
loop_
_geom_bond_atom_site_label_1
_geom_bond_atom_site_label_2
_geom_bond_distance
_geom_bond_site_symmetry_2
Fe0 O2 2.027391 1_555
Fe0 O2 2.027391 1_545
Fe0 Se0 2.771561 1_655
Fe0 Se0 2.771561 1_555
Fe0 Se1 2.771561 1_444
Fe0 Se1 2.771561 1_544
Fe1 O2 2.027391 1_455
Fe1 O2 2.027391 1_555
Fe1 Se0 2.771561 1_565
Fe1 Se0 2.771561 1_555
Fe1 Se1 2.771561 1_444
Fe1 Se1 2.771561 1_454
Se0 Sm0 3.320172 1_545
Se0 Sm0 3.320172 1_455
Se0 Sm0 3.320173 1_445
Se0 Sm0 3.320173 1_555
Se1 Sm1 3.320172 1_655
Se1 Sm1 3.320172 1_565
Se1 Sm1 3.320173 1_665
Se1 Sm1 3.320173 1_555
O0 Sm1 2.322585 1_655
O0 Sm1 2.322585 1_555
O0 Sm0 2.322585 1_555
O0 Sm0 2.322585 1_545
O1 Sm0 2.322585 1_455
O1 Sm0 2.322585 1_555
O1 Sm1 2.322585 1_565
O1 Sm1 2.322585 1_555
