# generated using pymatgen
data_TlB5O12
_symmetry_space_group_name_H-M   'P 1'
_cell_length_a   10.10891580
_cell_length_b   7.51398400
_cell_length_c   12.44256900
_cell_angle_alpha   90.00000000
_cell_angle_beta   84.95373778
_cell_angle_gamma   90.00000000
_symmetry_Int_Tables_number   1
_chemical_formula_structural   TlB5O12
_chemical_formula_sum   'Tl4 B20 O48'
_cell_volume   941.45227061
_cell_formula_units_Z   4
loop_
 _symmetry_equiv_pos_site_id
 _symmetry_equiv_pos_as_xyz
  1  'x, y, z'
loop_
 _atom_site_type_symbol
 _atom_site_label
 _atom_site_symmetry_multiplicity
 _atom_site_fract_x
 _atom_site_fract_y
 _atom_site_fract_z
 _atom_site_occupancy
  Tl  Tl0  1  0.26495100  0.26019900  0.96069700  1
  Tl  Tl1  1  0.73504900  0.76019900  0.53930300  1
  Tl  Tl2  1  0.73504900  0.73980100  0.03930300  1
  Tl  Tl3  1  0.26495100  0.23980100  0.46069700  1
  B  B0  1  0.77242400  0.18612800  0.84773400  1
  B  B1  1  0.22757600  0.68612800  0.65226600  1
  B  B2  1  0.22757600  0.81387200  0.15226600  1
  B  B3  1  0.77242400  0.31387200  0.34773400  1
  B  B4  1  0.52691500  0.24648400  0.85590700  1
  B  B5  1  0.47308500  0.74648400  0.64409300  1
  B  B6  1  0.47308500  0.75351600  0.14409300  1
  B  B7  1  0.52691500  0.25351600  0.35590700  1
  B  B8  1  0.60449500  0.93940600  0.87949600  1
  B  B9  1  0.39550500  0.43940600  0.62050400  1
  B  B10  1  0.39550500  0.06059400  0.12050400  1
  B  B11  1  0.60449500  0.56059400  0.37949600  1
  B  B12  1  0.98422100  0.22884500  0.92603200  1
  B  B13  1  0.01577900  0.72884500  0.57396800  1
  B  B14  1  0.01577900  0.77115500  0.07396800  1
  B  B15  1  0.98422100  0.27115500  0.42603200  1
  B  B16  1  0.98570100  0.15891000  0.73694500  1
  B  B17  1  0.01429900  0.65891000  0.76305500  1
  B  B18  1  0.01429900  0.84109000  0.26305500  1
  B  B19  1  0.98570100  0.34109000  0.23694500  1
  O  O0  1  0.65602300  0.30193200  0.84365800  1
  O  O1  1  0.34397700  0.80193200  0.65634200  1
  O  O2  1  0.34397700  0.69806800  0.15634200  1
  O  O3  1  0.65602300  0.19806800  0.34365800  1
  O  O4  1  0.73245300  0.00049100  0.87114400  1
  O  O5  1  0.26754700  0.50049100  0.62885600  1
  O  O6  1  0.26754700  0.99950900  0.12885600  1
  O  O7  1  0.73245300  0.49950900  0.37114400  1
  O  O8  1  0.85119900  0.24224900  0.93659200  1
  O  O9  1  0.14880100  0.74224900  0.56340800  1
  O  O10  1  0.14880100  0.75775100  0.06340800  1
  O  O11  1  0.85119900  0.25775100  0.43659200  1
  O  O12  1  0.85300800  0.18360200  0.74183000  1
  O  O13  1  0.14699200  0.68360200  0.75817000  1
  O  O14  1  0.14699200  0.81639800  0.25817000  1
  O  O15  1  0.85300800  0.31639800  0.24183000  1
  O  O16  1  0.50135800  0.06026700  0.86797400  1
  O  O17  1  0.49864200  0.56026700  0.63202600  1
  O  O18  1  0.49864200  0.93973300  0.13202600  1
  O  O19  1  0.50135800  0.43973300  0.36797400  1
  O  O20  1  0.05688500  0.19545400  0.82611200  1
  O  O21  1  0.94311500  0.69545400  0.67388800  1
  O  O22  1  0.94311500  0.80454600  0.17388800  1
  O  O23  1  0.05688500  0.30454600  0.32611200  1
  O  O24  1  0.42198400  0.36071100  0.85736600  1
  O  O25  1  0.57801600  0.86071100  0.64263400  1
  O  O26  1  0.57801600  0.63928900  0.14263400  1
  O  O27  1  0.42198400  0.13928900  0.35736600  1
  O  O28  1  0.57968600  0.76739800  0.91358800  1
  O  O29  1  0.42031400  0.26739800  0.58641200  1
  O  O30  1  0.42031400  0.23260200  0.08641200  1
  O  O31  1  0.57968600  0.73260200  0.41358800  1
  O  O32  1  0.06242700  0.23059900  0.01301400  1
  O  O33  1  0.93757300  0.73059900  0.48698600  1
  O  O34  1  0.93757300  0.76940100  0.98698600  1
  O  O35  1  0.06242700  0.26940100  0.51301400  1
  O  O36  1  0.05601100  0.07897900  0.64773700  1
  O  O37  1  0.94398900  0.57897900  0.85226300  1
  O  O38  1  0.94398900  0.92102100  0.35226300  1
  O  O39  1  0.05601100  0.42102100  0.14773700  1
  O  O40  1  0.27114800  0.10085300  0.68747700  1
  O  O41  1  0.72885200  0.60085300  0.81252300  1
  O  O42  1  0.72885200  0.89914700  0.31252300  1
  O  O43  1  0.27114800  0.39914700  0.18747700  1
  O  O44  1  0.71070500  0.45364900  0.59325700  1
  O  O45  1  0.28929500  0.95364900  0.90674300  1
  O  O46  1  0.28929500  0.54635100  0.40674300  1
  O  O47  1  0.71070500  0.04635100  0.09325700  1
loop_
_geom_bond_atom_site_label_1
_geom_bond_atom_site_label_2
_geom_bond_distance
_geom_bond_site_symmetry_2
B0 O0 1.467932 1_555
B0 O4 1.474137 1_555
B0 O8 1.479612 1_555
B0 O12 1.487112 1_555
B1 O1 1.467932 1_555
B1 O5 1.474137 1_555
B1 O9 1.479612 1_555
B1 O13 1.487112 1_555
B2 O2 1.467932 1_555
B2 O6 1.474137 1_555
B2 O10 1.479612 1_555
B2 O14 1.487112 1_555
B3 O3 1.467932 1_555
B3 O7 1.474137 1_555
B3 O11 1.479612 1_555
B3 O15 1.487112 1_555
B4 O24 1.363373 1_555
B4 O0 1.365729 1_555
B4 O16 1.428396 1_555
B5 O25 1.363373 1_555
B5 O1 1.365729 1_555
B5 O17 1.428396 1_555
B6 O26 1.363373 1_555
B6 O2 1.365729 1_555
B6 O18 1.428396 1_555
B7 O27 1.363373 1_555
B7 O3 1.365729 1_555
B7 O19 1.428396 1_555
B8 O4 1.367849 1_565
B8 O28 1.376440 1_555
B8 O16 1.399500 1_565
B9 O5 1.367849 1_555
B9 O29 1.376440 1_555
B9 O17 1.399500 1_555
B10 O6 1.367849 1_545
B10 O30 1.376440 1_555
B10 O18 1.399500 1_545
B11 O7 1.367849 1_555
B11 O31 1.376440 1_555
B11 O19 1.399500 1_555
B12 O8 1.343341 1_555
B12 O32 1.395363 1_656
B12 O20 1.409809 1_655
B13 O9 1.343341 1_555
B13 O33 1.395363 1_455
B13 O21 1.409809 1_455
B14 O10 1.343341 1_555
B14 O34 1.395363 1_454
B14 O22 1.409809 1_455
B15 O11 1.343341 1_555
B15 O35 1.395363 1_655
B15 O23 1.409809 1_655
B16 O12 1.350215 1_555
B16 O36 1.399699 1_655
B16 O20 1.401634 1_655
B17 O13 1.350215 1_555
B17 O37 1.399699 1_455
B17 O21 1.401634 1_455
B18 O14 1.350215 1_555
B18 O38 1.399699 1_455
B18 O22 1.401634 1_455
B19 O15 1.350215 1_555
B19 O39 1.399699 1_655
B19 O23 1.401634 1_655
O24 Tl0 2.093878 1_555
O25 Tl1 2.093878 1_555
O26 Tl2 2.093878 1_555
O27 Tl3 2.093878 1_555
O28 Tl2 2.321333 1_556
O29 Tl3 2.321333 1_555
O30 Tl0 2.321333 1_554
O31 Tl1 2.321333 1_555
O32 Tl0 2.104803 1_554
O33 Tl1 2.104803 1_555
O34 Tl2 2.104803 1_556
O35 Tl3 2.104803 1_555
O44 Tl1 2.405802 1_555
O45 Tl0 2.405802 1_565
O46 Tl3 2.405802 1_555
O47 Tl2 2.405802 1_545
