# generated using pymatgen
data_MnNiAs
_symmetry_space_group_name_H-M   'P 1'
_cell_length_a   6.14306410
_cell_length_b   6.17802231
_cell_length_c   3.75125619
_cell_angle_alpha   90.00000000
_cell_angle_beta   90.00000000
_cell_angle_gamma   120.19218021
_symmetry_Int_Tables_number   1
_chemical_formula_structural   MnNiAs
_chemical_formula_sum   'Mn3 Ni3 As3'
_cell_volume   123.05452481
_cell_formula_units_Z   3
loop_
 _symmetry_equiv_pos_site_id
 _symmetry_equiv_pos_as_xyz
  1  'x, y, z'
loop_
 _atom_site_type_symbol
 _atom_site_label
 _atom_site_symmetry_multiplicity
 _atom_site_fract_x
 _atom_site_fract_y
 _atom_site_fract_z
 _atom_site_occupancy
  Mn  Mn0  1  0.41621841  0.41602060  0.50000000  1
  Mn  Mn1  1  0.58383546  0.99981579  0.50000000  1
  Mn  Mn2  1  0.00000950  0.58538786  0.50000000  1
  Ni  Ni0  1  0.75426132  0.75292318  0.00000000  1
  Ni  Ni1  1  0.24578134  -0.00130344  0.00000000  1
  Ni  Ni2  1  0.00001822  0.24576475  -0.00000000  1
  As  As0  1  0.66587640  0.33253820  -0.00000000  1
  As  As1  1  0.33406499  0.66653384  -0.00000000  1
  As  As2  1  -0.00006564  0.00231922  0.50000000  1
loop_
_geom_bond_atom_site_label_1
_geom_bond_atom_site_label_2
_geom_bond_distance
_geom_bond_site_symmetry_2
Mn0 Ni0 2.795563 1_555
Mn0 Ni0 2.795563 1_556
Mn0 Ni2 2.907988 1_555
Mn0 Ni2 2.907988 1_556
Mn0 Ni1 2.923425 1_556
Mn0 Ni1 2.923425 1_555
Mn1 Ni1 2.795750 1_566
Mn1 Ni1 2.795750 1_565
Mn1 Ni2 2.907901 1_665
Mn1 Ni2 2.907901 1_666
Mn1 Ni0 2.923490 1_556
Mn1 Ni0 2.923490 1_555
Mn2 Ni2 2.814344 1_555
Mn2 Ni2 2.814344 1_556
Mn2 Ni0 2.905155 1_455
Mn2 Ni0 2.905155 1_456
Mn2 Ni1 2.905157 1_565
Mn2 Ni1 2.905157 1_566
Ni0 Ni1 2.609832 1_665
Ni0 Ni2 2.631829 1_665
Ni1 Ni2 2.631922 1_555
As0 Ni1 2.358010 1_555
As0 Ni2 2.368031 1_655
As0 Ni0 2.371004 1_555
As0 Mn0 2.632812 1_555
As0 Mn0 2.632812 1_554
As0 Mn2 2.635591 1_655
As0 Mn2 2.635591 1_654
As0 Mn1 2.637300 1_544
As0 Mn1 2.637300 1_545
As1 Ni0 2.358443 1_555
As1 Ni2 2.367096 1_555
As1 Ni1 2.371636 1_565
As1 Mn1 2.633286 1_555
As1 Mn1 2.633286 1_554
As1 Mn2 2.635483 1_555
As1 Mn2 2.635483 1_554
As1 Mn0 2.636965 1_555
As1 Mn0 2.636965 1_554
As2 Ni2 2.404008 1_556
As2 Ni2 2.404008 1_555
As2 Ni0 2.414704 1_446
As2 Ni0 2.414704 1_445
As2 Ni1 2.415232 1_555
As2 Ni1 2.415232 1_556
As2 Mn1 2.548379 1_445
As2 Mn0 2.549128 1_555
As2 Mn2 2.576043 1_545
