# generated using pymatgen
data_Mg5Si9
_symmetry_space_group_name_H-M   'P 1'
_cell_length_a   6.87113400
_cell_length_b   7.17450530
_cell_length_c   12.81128801
_cell_angle_alpha   83.92668539
_cell_angle_beta   76.99962704
_cell_angle_gamma   62.89040384
_symmetry_Int_Tables_number   1
_chemical_formula_structural   Mg5Si9
_chemical_formula_sum   'Mg10 Si18'
_cell_volume   547.75952429
_cell_formula_units_Z   2
loop_
 _symmetry_equiv_pos_site_id
 _symmetry_equiv_pos_as_xyz
  1  'x, y, z'
loop_
 _atom_site_type_symbol
 _atom_site_label
 _atom_site_symmetry_multiplicity
 _atom_site_fract_x
 _atom_site_fract_y
 _atom_site_fract_z
 _atom_site_occupancy
  Mg  Mg0  1  0.45877700  0.05634300  0.27778700  1
  Mg  Mg1  1  0.83171600  0.91473500  0.55491100  1
  Mg  Mg2  1  0.10384500  0.40723100  0.46247500  1
  Mg  Mg3  1  0.65445800  0.54421800  0.63514300  1
  Mg  Mg4  1  0.60830600  0.36438500  0.43707000  1
  Mg  Mg5  1  0.31505500  0.94253800  0.52850100  1
  Mg  Mg6  1  0.80373900  0.77266600  0.82992500  1
  Mg  Mg7  1  0.35048900  0.80963200  0.10123600  1
  Mg  Mg8  1  0.21229400  0.18096900  0.89093700  1
  Mg  Mg9  1  0.91525900  0.58578000  0.05155500  1
  Si  Si0  1  0.33688300  0.71572100  0.85728500  1
  Si  Si1  1  0.51037400  0.34927400  0.10320000  1
  Si  Si2  1  0.07911600  0.25614700  0.69217600  1
  Si  Si3  1  0.00408900  0.81061800  0.29419700  1
  Si  Si4  1  0.23622400  0.49069500  0.75366800  1
  Si  Si5  1  0.96382100  0.27400300  0.21995200  1
  Si  Si6  1  0.60371000  0.18516500  0.72095300  1
  Si  Si7  1  0.64661100  0.61516600  0.25300700  1
  Si  Si8  1  0.82182100  0.19017300  0.83879200  1
  Si  Si9  1  0.03669700  0.07797100  0.38159400  1
  Si  Si10  1  0.84782800  0.05820700  0.14741000  1
  Si  Si11  1  0.97703500  0.92073500  0.96828400  1
  Si  Si12  1  0.44564700  0.93198900  0.71844900  1
  Si  Si13  1  0.35843700  0.50181900  0.27477300  1
  Si  Si14  1  0.27250700  0.21393700  0.07890300  1
  Si  Si15  1  0.63941600  0.50361600  0.94651900  1
  Si  Si16  1  0.72667000  0.71759700  0.40569200  1
  Si  Si17  1  0.23882700  0.60881200  0.57584400  1
loop_
_geom_bond_atom_site_label_1
_geom_bond_atom_site_label_2
_geom_bond_distance
_geom_bond_site_symmetry_2
Mg0 Si10 2.820485 1_555
Mg0 Si7 2.844347 1_545
Mg0 Si9 2.846387 1_555
Mg0 Si16 2.901226 1_545
Mg0 Si13 2.944366 1_555
Mg0 Si1 2.978748 1_555
Mg0 Si14 2.991210 1_555
Mg1 Si17 2.707688 1_655
Mg1 Si6 2.710624 1_565
Mg1 Si9 2.798495 1_665
Mg1 Si16 2.880852 1_555
Mg1 Si12 2.949058 1_555
Mg1 Mg3 3.378720 1_555
Mg2 Si17 2.708202 1_555
Mg2 Si16 2.729469 1_455
Mg2 Si13 2.854350 1_555
Mg2 Si9 2.931433 1_555
Mg2 Si2 3.021856 1_555
Mg2 Mg3 3.164629 1_455
Mg3 Si12 2.690523 1_555
Mg3 Si6 2.830724 1_555
Mg3 Si2 2.909108 1_655
Mg3 Si17 2.939939 1_555
Mg3 Si16 3.093071 1_555
Mg3 Si4 3.103328 1_555
Mg3 Mg4 3.103579 1_555
Mg3 Si0 3.142416 1_555
Mg3 Mg5 3.163113 1_555
Mg4 Si9 2.692063 1_655
Mg4 Si17 2.693096 1_555
Mg4 Si13 2.805807 1_555
Mg4 Si7 2.849850 1_555
Mg4 Si16 2.959818 1_555
Mg5 Si17 2.658516 1_555
Mg5 Si16 2.730254 1_555
Mg5 Si12 2.759400 1_555
Mg5 Si9 2.771881 1_565
Mg5 Si2 2.869159 1_565
Mg6 Si4 2.740584 1_655
Mg6 Si15 2.801700 1_555
Mg6 Si12 2.841219 1_555
Mg6 Si11 2.861691 1_555
Mg6 Si6 2.979673 1_565
Mg6 Si8 3.068930 1_565
Mg7 Si14 2.694400 1_565
Mg7 Si15 2.805054 1_554
Mg7 Si7 2.913050 1_555
Mg7 Si13 2.954418 1_555
Mg7 Si1 2.967187 1_555
Mg7 Si3 3.019515 1_555
Mg7 Si10 3.024856 1_465
Mg7 Si11 3.152170 1_454
Mg8 Si14 2.585336 1_556
Mg8 Si12 2.697360 1_545
Mg8 Si4 2.726454 1_555
Mg8 Si2 2.814301 1_555
Mg8 Si8 2.878315 1_455
Mg8 Si11 2.952851 1_445
Mg8 Si6 3.066173 1_555
Mg8 Si0 3.097521 1_545
Mg9 Si11 2.697550 1_554
Mg9 Si14 2.736097 1_655
Mg9 Si7 2.780238 1_555
Mg9 Si15 2.843282 1_554
Mg9 Si5 2.896829 1_555
Si0 Si15 2.400388 1_555
Si0 Si11 2.417713 1_455
Si0 Si12 2.450401 1_555
Si0 Si4 2.594462 1_555
Si1 Si14 2.334568 1_555
Si1 Si13 2.356794 1_555
Si1 Si15 2.380186 1_554
Si1 Si10 2.446544 1_555
Si2 Si8 2.440938 1_455
Si2 Si4 2.633702 1_555
Si3 Si9 2.437634 1_565
Si4 Si6 2.455658 1_555
Si5 Si9 2.392818 1_655
Si5 Si7 2.421350 1_555
Si6 Si8 2.367464 1_555
Si10 Si5 2.378708 1_555
Si10 Si11 2.406552 1_544
Si10 Si3 2.511555 1_645
Si11 Si8 2.421749 1_565
Si12 Si6 2.511152 1_565
Si12 Si2 2.596614 1_565
Si13 Si3 2.413764 1_555
Si13 Si7 2.414731 1_555
Si14 Si5 2.357350 1_455
Si15 Si8 2.417111 1_555
Si16 Si7 2.413651 1_555
Si16 Si3 2.419075 1_655
Si17 Si4 2.344230 1_555
