# generated using pymatgen
data_Na2Al2(SiO4)3
_symmetry_space_group_name_H-M   'P 1'
_cell_length_a   6.69349000
_cell_length_b   9.79889388
_cell_length_c   9.92565937
_cell_angle_alpha   83.42576758
_cell_angle_beta   70.47881770
_cell_angle_gamma   70.08798599
_symmetry_Int_Tables_number   1
_chemical_formula_structural   Na2Al2(SiO4)3
_chemical_formula_sum   'Na4 Al4 Si6 O24'
_cell_volume   576.90798245
_cell_formula_units_Z   2
loop_
 _symmetry_equiv_pos_site_id
 _symmetry_equiv_pos_as_xyz
  1  'x, y, z'
loop_
 _atom_site_type_symbol
 _atom_site_label
 _atom_site_symmetry_multiplicity
 _atom_site_fract_x
 _atom_site_fract_y
 _atom_site_fract_z
 _atom_site_occupancy
  Na  Na0  1  0.37691700  0.06114600  0.43758700  1
  Na  Na1  1  0.88266600  0.93776600  0.56039600  1
  Na  Na2  1  0.19675600  0.43791300  0.93601100  1
  Na  Na3  1  0.56907400  0.55933000  0.06452800  1
  Al  Al0  1  0.26525800  0.42589500  0.31073000  1
  Al  Al1  1  0.00475000  0.57418500  0.68833100  1
  Al  Al2  1  0.44110000  0.07301500  0.81058700  1
  Al  Al3  1  0.32657600  0.92504300  0.18781000  1
  Si  Si0  1  0.74910100  0.49929900  0.50027700  1
  Si  Si1  1  0.99625200  0.00067400  0.00044600  1
  Si  Si2  1  0.49147000  0.19367300  0.07634000  1
  Si  Si3  1  0.76340300  0.80573100  0.92270600  1
  Si  Si4  1  0.43713500  0.30547400  0.57560200  1
  Si  Si5  1  0.32095700  0.69341300  0.42235000  1
  O  O0  1  0.97648900  0.45468700  0.36473300  1
  O  O1  1  0.79564000  0.54369700  0.63725000  1
  O  O2  1  0.18108200  0.04326900  0.86477500  1
  O  O3  1  0.08648500  0.95634100  0.13795800  1
  O  O4  1  0.38962000  0.36191600  0.13272700  1
  O  O5  1  0.89184500  0.63774000  0.86646700  1
  O  O6  1  0.50174400  0.13793500  0.63299300  1
  O  O7  1  0.27794100  0.86196600  0.36614300  1
  O  O8  1  0.38384900  0.30183200  0.42773400  1
  O  O9  1  0.11659200  0.69723900  0.56973100  1
  O  O10  1  0.43252500  0.19630800  0.92959700  1
  O  O11  1  0.56011700  0.80235700  0.06884400  1
  O  O12  1  0.38284000  0.08716800  0.19490400  1
  O  O13  1  0.66804600  0.91165400  0.80300100  1
  O  O14  1  0.22317300  0.41228400  0.69422000  1
  O  O15  1  0.32767400  0.58891400  0.30300700  1
  O  O16  1  0.76523800  0.14003700  0.04346300  1
  O  O17  1  0.94766600  0.86130500  0.95671900  1
  O  O18  1  0.65639400  0.36058200  0.54355300  1
  O  O19  1  0.56330700  0.63785400  0.45405300  1
  O  O20  1  0.88361200  0.39016800  0.12122200  1
  O  O21  1  0.40217800  0.60661900  0.87827100  1
  O  O22  1  0.01997200  0.11003900  0.62658300  1
  O  O23  1  0.75534200  0.89238500  0.37457800  1
loop_
_geom_bond_atom_site_label_1
_geom_bond_atom_site_label_2
_geom_bond_distance
_geom_bond_site_symmetry_2
Na0 O8 2.364895 1_555
Na0 O12 2.381444 1_555
Na0 O23 2.422132 1_545
Na0 O22 2.426451 1_555
Na0 O7 2.502538 1_545
Na0 O6 2.621355 1_555
Na1 O9 2.355517 1_655
Na1 O13 2.392725 1_555
Na1 O23 2.412917 1_555
Na1 O22 2.416629 1_665
Na1 O6 2.560605 1_565
Na1 O7 2.617139 1_655
Na2 O10 2.349866 1_555
Na2 O14 2.382893 1_555
Na2 O21 2.399292 1_555
Na2 O20 2.426434 1_456
Na2 O5 2.527022 1_455
Na2 O4 2.594270 1_556
Na3 O15 2.362164 1_555
Na3 O11 2.366615 1_555
Na3 O20 2.387027 1_555
Na3 O21 2.389961 1_554
Na3 O4 2.526376 1_555
Na3 O5 2.658759 1_554
Al0 O0 1.753192 1_455
Al0 O8 1.758463 1_555
Al0 O4 1.767142 1_555
Al0 O15 1.771231 1_555
Al1 O1 1.760449 1_455
Al1 O9 1.760966 1_555
Al1 O14 1.764575 1_555
Al1 O5 1.767414 1_455
Al2 O2 1.757095 1_555
Al2 O10 1.758545 1_555
Al2 O6 1.765678 1_555
Al2 O13 1.768630 1_545
Al3 O3 1.755696 1_555
Al3 O11 1.759138 1_555
Al3 O12 1.766761 1_565
Al3 O7 1.767088 1_555
O0 Si0 1.621922 1_555
O1 Si0 1.626487 1_555
O2 Si1 1.621047 1_456
O3 Si1 1.628769 1_465
O4 Si2 1.639085 1_555
O5 Si3 1.638950 1_555
O6 Si4 1.635110 1_555
O7 Si5 1.641486 1_555
O8 Si4 1.628835 1_555
O9 Si5 1.628752 1_555
O10 Si2 1.626743 1_556
O11 Si3 1.630088 1_554
O12 Si2 1.632965 1_555
O13 Si3 1.633884 1_555
O14 Si4 1.633078 1_555
O15 Si5 1.632334 1_555
O16 Si1 1.640772 1_555
O16 Si2 1.650533 1_555
O17 Si1 1.640652 1_566
O17 Si3 1.646078 1_555
O18 Si0 1.637039 1_555
O18 Si4 1.653826 1_555
O19 Si0 1.639812 1_555
O19 Si5 1.651423 1_555
