# generated using pymatgen
data_Ca2MoWO6
_symmetry_space_group_name_H-M   'P 1'
_cell_length_a   5.75698500
_cell_length_b   5.53560900
_cell_length_c   9.70903253
_cell_angle_alpha   55.41337961
_cell_angle_beta   90.00000000
_cell_angle_gamma   90.00000000
_symmetry_Int_Tables_number   1
_chemical_formula_structural   Ca2MoWO6
_chemical_formula_sum   'Ca4 Mo2 W2 O12'
_cell_volume   254.72888583
_cell_formula_units_Z   2
loop_
 _symmetry_equiv_pos_site_id
 _symmetry_equiv_pos_as_xyz
  1  'x, y, z'
loop_
 _atom_site_type_symbol
 _atom_site_label
 _atom_site_symmetry_multiplicity
 _atom_site_fract_x
 _atom_site_fract_y
 _atom_site_fract_z
 _atom_site_occupancy
  Ca  Ca0  1  0.44538200  0.26361200  0.75108200  1
  Ca  Ca1  1  0.94538200  0.73638800  0.74891800  1
  Ca  Ca2  1  0.55461800  0.73638800  0.24891800  1
  Ca  Ca3  1  0.05461800  0.26361200  0.25108200  1
  Mo  Mo0  1  0.50000000  0.00000000  0.50000000  1
  Mo  Mo1  1  0.00000000  0.00000000  0.00000000  1
  W  W0  1  0.50000000  0.50000000  0.00000000  1
  W  W1  1  0.00000000  0.50000000  0.50000000  1
  O  O0  1  0.21112100  0.37023800  0.94716000  1
  O  O1  1  0.71112100  0.62976200  0.55284000  1
  O  O2  1  0.78887900  0.62976200  0.05284000  1
  O  O3  1  0.28887900  0.37023800  0.44716000  1
  O  O4  1  0.30455600  0.73513600  0.05632600  1
  O  O5  1  0.80455600  0.26486400  0.44367400  1
  O  O6  1  0.69544400  0.26486400  0.94367400  1
  O  O7  1  0.19544400  0.73513600  0.55632600  1
  O  O8  1  0.04037800  0.15013900  0.74226200  1
  O  O9  1  0.54037800  0.84986100  0.75773800  1
  O  O10  1  0.45962200  0.15013900  0.24226200  1
  O  O11  1  0.95962200  0.84986100  0.25773800  1
loop_
_geom_bond_atom_site_label_1
_geom_bond_atom_site_label_2
_geom_bond_distance
_geom_bond_site_symmetry_2
Ca0 O9 2.319697 1_545
Ca0 O6 2.362980 1_555
Ca0 O1 2.392536 1_555
Ca0 O8 2.428854 1_555
Ca0 O7 2.618306 1_555
Ca0 O0 2.658397 1_555
Ca0 O3 2.808912 1_555
Ca0 O4 2.855797 1_546
Ca1 O8 2.319697 1_665
Ca1 O7 2.362980 1_655
Ca1 O0 2.392536 1_655
Ca1 O9 2.428854 1_555
Ca1 O6 2.618306 1_555
Ca1 O1 2.658397 1_555
Ca1 O2 2.808912 1_556
Ca1 O5 2.855797 1_565
Ca2 O10 2.319697 1_565
Ca2 O4 2.362980 1_555
Ca2 O3 2.392536 1_555
Ca2 O11 2.428854 1_555
Ca2 O5 2.618306 1_555
Ca2 O2 2.658397 1_555
Ca2 O1 2.808912 1_555
Ca2 O6 2.855797 1_564
Ca3 O11 2.319697 1_445
Ca3 O5 2.362980 1_455
Ca3 O2 2.392536 1_455
Ca3 O10 2.428854 1_555
Ca3 O4 2.618306 1_555
Ca3 O3 2.658397 1_555
Ca3 O0 2.808912 1_554
Ca3 O7 2.855797 1_545
Mo0 O7 2.147698 1_545
Mo0 O5 2.147698 1_555
Mo0 O9 2.155356 1_545
Mo0 O10 2.155356 1_555
Mo0 O1 2.178797 1_545
Mo0 O3 2.178797 1_555
Mo1 O4 2.147698 1_545
Mo1 O6 2.147698 1_454
Mo1 O11 2.155356 1_445
Mo1 O8 2.155356 1_554
Mo1 O2 2.178797 1_445
Mo1 O0 2.178797 1_554
O0 W0 1.990816 1_556
O1 W1 1.990816 1_655
O2 W0 1.990816 1_555
O3 W1 1.990816 1_555
O4 W0 2.016784 1_555
O5 W1 2.016784 1_655
O6 W0 2.016784 1_556
O7 W1 2.016784 1_555
O8 W1 2.040986 1_555
O9 W0 2.040986 1_556
O10 W0 2.040986 1_555
O11 W1 2.040986 1_655
