# generated using pymatgen
data_La4Se3N2
_symmetry_space_group_name_H-M   'P 1'
_cell_length_a   8.46571649
_cell_length_b   8.46571649
_cell_length_c   6.61894252
_cell_angle_alpha   90.15222249
_cell_angle_beta   90.15222249
_cell_angle_gamma   75.41841154
_symmetry_Int_Tables_number   1
_chemical_formula_structural   La4Se3N2
_chemical_formula_sum   'La8 Se6 N4'
_cell_volume   459.08677899
_cell_formula_units_Z   2
loop_
 _symmetry_equiv_pos_site_id
 _symmetry_equiv_pos_as_xyz
  1  'x, y, z'
loop_
 _atom_site_type_symbol
 _atom_site_label
 _atom_site_symmetry_multiplicity
 _atom_site_fract_x
 _atom_site_fract_y
 _atom_site_fract_z
 _atom_site_occupancy
  La  La0  1  0.80815324  0.44439936  0.02937034  1
  La  La1  1  0.55560064  0.19184676  0.47062966  1
  La  La2  1  0.19184676  0.55560064  0.97062966  1
  La  La3  1  0.44439936  0.80815324  0.52937034  1
  La  La4  1  0.24235615  0.08707455  0.07501294  1
  La  La5  1  0.91292545  0.75764385  0.42498706  1
  La  La6  1  0.75764385  0.91292545  0.92498706  1
  La  La7  1  0.08707455  0.24235615  0.57501294  1
  Se  Se0  1  0.90322752  0.09677248  0.25000000  1
  Se  Se1  1  0.09677248  0.90322752  0.75000000  1
  Se  Se2  1  0.48593768  0.74809946  0.03441411  1
  Se  Se3  1  0.25190054  0.51406232  0.46558589  1
  Se  Se4  1  0.51406232  0.25190054  0.96558589  1
  Se  Se5  1  0.74809946  0.48593768  0.53441311  1
  N  N0  1  0.91952804  0.66861183  0.08411512  1
  N  N1  1  0.33138817  0.08047196  0.41588488  1
  N  N2  1  0.08047196  0.33138817  0.91588488  1
  N  N3  1  0.66861183  0.91952804  0.58411512  1
loop_
_geom_bond_atom_site_label_1
_geom_bond_atom_site_label_2
_geom_bond_distance
_geom_bond_site_symmetry_2
La0 N0 2.349216 1_555
La0 N2 2.385187 1_654
La0 Se0 3.203911 1_555
La0 Se2 3.243596 1_555
La0 Se5 3.319965 1_554
La0 Se4 3.326590 1_554
La0 Se5 3.386670 1_555
La1 N1 2.349216 1_555
La1 N3 2.385187 1_545
La1 Se0 3.203911 1_555
La1 Se3 3.243596 1_555
La1 Se4 3.319959 1_555
La1 Se5 3.326590 1_555
La1 Se4 3.386677 1_554
La2 N2 2.349216 1_555
La2 N0 2.385187 1_456
La2 Se1 3.203911 1_555
La2 Se4 3.243596 1_555
La2 Se3 3.319959 1_556
La2 Se2 3.326590 1_556
La2 Se3 3.386677 1_555
La3 N3 2.349216 1_555
La3 N1 2.385187 1_565
La3 Se1 3.203911 1_555
La3 Se5 3.243596 1_555
La3 Se2 3.319959 1_555
La3 Se3 3.326590 1_555
La3 Se2 3.386677 1_556
La4 N1 2.373211 1_555
La4 N2 2.417029 1_554
La4 Se4 3.064773 1_554
La4 Se0 3.080449 1_455
La4 Se1 3.082721 1_544
La4 Se2 3.094948 1_545
La5 N0 2.373211 1_555
La5 N3 2.417029 1_555
La5 Se5 3.064772 1_555
La5 Se0 3.080449 1_565
La5 Se1 3.082721 1_655
La5 Se3 3.094948 1_655
La6 N3 2.373211 1_555
La6 N0 2.417029 1_556
La6 Se2 3.064773 1_556
La6 Se1 3.080449 1_655
La6 Se0 3.082721 1_566
La6 Se4 3.094948 1_565
La7 N2 2.373211 1_555
La7 N1 2.417029 1_555
La7 Se3 3.064773 1_555
La7 Se1 3.080449 1_545
La7 Se0 3.082721 1_455
La7 Se5 3.094948 1_455
