# generated using pymatgen
data_Y4Cr13Si2(SbO14)2
_symmetry_space_group_name_H-M   'P 1'
_cell_length_a   12.82342481
_cell_length_b   12.82342481
_cell_length_c   8.82802264
_cell_angle_alpha   87.60638418
_cell_angle_beta   87.60638418
_cell_angle_gamma   153.44762221
_symmetry_Int_Tables_number   1
_chemical_formula_structural   Y4Cr13Si2(SbO14)2
_chemical_formula_sum   'Y4 Cr13 Si2 Sb2 O28'
_cell_volume   638.10298935
_cell_formula_units_Z   1
loop_
 _symmetry_equiv_pos_site_id
 _symmetry_equiv_pos_as_xyz
  1  'x, y, z'
loop_
 _atom_site_type_symbol
 _atom_site_label
 _atom_site_symmetry_multiplicity
 _atom_site_fract_x
 _atom_site_fract_y
 _atom_site_fract_z
 _atom_site_occupancy
  Y  Y0  1  0.50769800  0.92247600  0.34084300  1
  Y  Y1  1  0.07752400  0.49230200  0.65915700  1
  Y  Y2  1  0.49230200  0.07752400  0.65915700  1
  Y  Y3  1  0.92247600  0.50769800  0.34084300  1
  Cr  Cr0  1  0.36957400  0.10623200  0.36105900  1
  Cr  Cr1  1  0.21839900  0.33543000  0.65431800  1
  Cr  Cr2  1  0.89376800  0.63042600  0.63894100  1
  Cr  Cr3  1  0.63042600  0.89376800  0.63894100  1
  Cr  Cr4  1  0.78160100  0.66457000  0.34568200  1
  Cr  Cr5  1  0.29441200  0.70558800  0.00000000  1
  Cr  Cr6  1  0.66457000  0.78160100  0.34568200  1
  Cr  Cr7  1  0.00000000  0.00000000  0.00000000  1
  Cr  Cr8  1  0.43182800  0.56817200  0.00000000  1
  Cr  Cr9  1  0.33543000  0.21839900  0.65431800  1
  Cr  Cr10  1  0.10623200  0.36957400  0.36105900  1
  Cr  Cr11  1  0.56817200  0.43182800  0.00000000  1
  Cr  Cr12  1  0.70558800  0.29441200  0.00000000  1
  Si  Si0  1  0.75293100  0.75293100  0.68492800  1
  Si  Si1  1  0.24706900  0.24706900  0.31507200  1
  Sb  Sb0  1  0.86243700  0.13756300  0.00000000  1
  Sb  Sb1  1  0.13756300  0.86243700  0.00000000  1
  O  O0  1  0.02429200  0.28523500  0.60443400  1
  O  O1  1  0.45037000  0.87272700  0.61758700  1
  O  O2  1  0.03552100  0.03552100  0.65978800  1
  O  O3  1  0.64969500  0.64969500  0.87013300  1
  O  O4  1  0.54963000  0.12727300  0.38241300  1
  O  O5  1  0.97570800  0.71476500  0.39556600  1
  O  O6  1  0.41416200  0.99986600  0.90513300  1
  O  O7  1  0.58583800  0.00013400  0.09486700  1
  O  O8  1  0.35030500  0.35030500  0.12986700  1
  O  O9  1  0.70963500  0.83390600  0.11722000  1
  O  O10  1  0.60585700  0.71123300  0.59931000  1
  O  O11  1  0.71476500  0.97570800  0.39556600  1
  O  O12  1  0.00013400  0.58583800  0.09486700  1
  O  O13  1  0.16609400  0.29036500  0.88278000  1
  O  O14  1  0.28876700  0.39414300  0.40069000  1
  O  O15  1  0.96447900  0.96447900  0.34021200  1
  O  O16  1  0.83390600  0.70963500  0.11722000  1
  O  O17  1  0.29036500  0.16609400  0.88278000  1
  O  O18  1  0.99986600  0.41416200  0.90513300  1
  O  O19  1  0.54944800  0.80635400  0.87311800  1
  O  O20  1  0.45055200  0.19364600  0.12688200  1
  O  O21  1  0.71123300  0.60585700  0.59931000  1
  O  O22  1  0.80635400  0.54944800  0.87311800  1
  O  O23  1  0.87272700  0.45037000  0.61758700  1
  O  O24  1  0.39414300  0.28876700  0.40069000  1
  O  O25  1  0.19364600  0.45055200  0.12688200  1
  O  O26  1  0.28523500  0.02429200  0.60443400  1
  O  O27  1  0.12727300  0.54963000  0.38241300  1
loop_
_geom_bond_atom_site_label_1
_geom_bond_atom_site_label_2
_geom_bond_distance
_geom_bond_site_symmetry_2
Cr0 O20 2.037962 1_555
Cr0 O4 2.089392 1_555
Cr0 O24 2.111611 1_555
Cr0 O26 2.115217 1_555
Cr0 O5 2.277264 1_445
Cr1 O13 1.986905 1_555
Cr1 O0 2.013159 1_555
Cr1 O2 2.032761 1_555
Cr1 O14 2.206661 1_555
Cr1 O10 2.216312 1_555
Cr2 O22 2.037962 1_555
Cr2 O23 2.089392 1_555
Cr2 O21 2.111611 1_555
Cr2 O5 2.115217 1_555
Cr2 O26 2.277264 1_665
Cr3 O19 2.037962 1_555
Cr3 O1 2.089392 1_555
Cr3 O10 2.111611 1_555
Cr3 O11 2.115217 1_555
Cr3 O0 2.277264 1_665
Cr4 O16 1.986905 1_555
Cr4 O5 2.013159 1_555
Cr4 O15 2.032761 1_555
Cr4 O21 2.206661 1_555
Cr4 O24 2.216312 1_555
Cr5 O18 2.050908 1_454
Cr5 O7 2.050908 1_565
Cr5 O25 2.373348 1_555
Cr5 O19 2.373348 1_554
Cr5 O12 2.561492 1_555
Cr5 O6 2.561492 1_554
Cr6 O9 1.986905 1_555
Cr6 O11 2.013159 1_555
Cr6 O15 2.032761 1_555
Cr6 O10 2.206661 1_555
Cr6 O14 2.216312 1_555
Cr7 O13 2.185714 1_554
Cr7 O17 2.185714 1_554
Cr7 O16 2.185714 1_445
Cr7 O9 2.185714 1_445
Cr7 O3 2.536035 1_444
Cr7 O8 2.536035 1_555
Cr8 O25 2.046885 1_555
Cr8 O19 2.046885 1_554
Cr8 O13 2.063512 1_554
Cr8 O9 2.063512 1_555
Cr8 O3 2.149357 1_554
Cr8 O8 2.149357 1_555
Cr9 O17 1.986905 1_555
Cr9 O26 2.013159 1_555
Cr9 O2 2.032761 1_555
Cr9 O24 2.206661 1_555
Cr9 O21 2.216312 1_555
Cr10 O25 2.037962 1_555
Cr10 O27 2.089392 1_555
Cr10 O14 2.111611 1_555
Cr10 O0 2.115217 1_555
Cr10 O11 2.277264 1_445
Cr11 O20 2.046885 1_555
Cr11 O22 2.046885 1_554
Cr11 O17 2.063512 1_554
Cr11 O16 2.063512 1_555
Cr11 O3 2.149357 1_554
Cr11 O8 2.149357 1_555
Cr12 O6 2.050908 1_544
Cr12 O12 2.050908 1_655
Cr12 O20 2.373348 1_555
Cr12 O22 2.373348 1_554
Cr12 O7 2.561492 1_555
Cr12 O18 2.561492 1_554
O0 Y1 2.154517 1_555
O1 Y1 2.183623 1_555
O1 Y2 2.211634 1_565
O1 Y0 2.407679 1_555
O2 Si0 1.638599 1_445
O3 Si0 1.637471 1_555
O4 Y3 2.183623 1_555
O4 Y0 2.211634 1_545
O4 Y2 2.407679 1_555
O5 Y3 2.154517 1_555
O6 Y2 2.136233 1_565
O6 Sb1 2.198523 1_556
O7 Y0 2.136233 1_545
O7 Sb0 2.198523 1_555
O8 Si1 1.637471 1_555
O9 Sb0 2.432412 1_565
O10 Si0 1.662171 1_555
O11 Y0 2.154517 1_555
O12 Y3 2.136233 1_455
O12 Sb1 2.198523 1_555
O13 Sb0 2.432412 1_456
O14 Si1 1.662171 1_555
O15 Si1 1.638599 1_665
O16 Sb1 2.432412 1_655
O17 Sb1 2.432412 1_546
O18 Y1 2.136233 1_655
O18 Sb0 2.198523 1_556
O19 Sb0 2.382878 1_566
O20 Sb1 2.382878 1_545
O21 Si0 1.662171 1_555
O22 Sb1 2.382878 1_656
O23 Y2 2.183623 1_555
O23 Y1 2.211634 1_655
O23 Y3 2.407679 1_555
O24 Si1 1.662171 1_555
O25 Sb0 2.382878 1_455
O26 Y2 2.154517 1_555
O27 Y0 2.183623 1_555
O27 Y3 2.211634 1_455
O27 Y1 2.407679 1_555
