# generated using pymatgen
data_RbAlPdF6
_symmetry_space_group_name_H-M   'P 1'
_cell_length_a   7.23291000
_cell_length_b   7.39311100
_cell_length_c   10.28940500
_cell_angle_alpha   90.00000000
_cell_angle_beta   90.00000000
_cell_angle_gamma   90.00000000
_symmetry_Int_Tables_number   1
_chemical_formula_structural   RbAlPdF6
_chemical_formula_sum   'Rb4 Al4 Pd4 F24'
_cell_volume   550.21262285
_cell_formula_units_Z   4
loop_
 _symmetry_equiv_pos_site_id
 _symmetry_equiv_pos_as_xyz
  1  'x, y, z'
loop_
 _atom_site_type_symbol
 _atom_site_label
 _atom_site_symmetry_multiplicity
 _atom_site_fract_x
 _atom_site_fract_y
 _atom_site_fract_z
 _atom_site_occupancy
  Rb  Rb0  1  0.25000000  0.48094100  0.86817100  1
  Rb  Rb1  1  0.75000000  0.01905900  0.36817100  1
  Rb  Rb2  1  0.75000000  0.51905900  0.13182900  1
  Rb  Rb3  1  0.25000000  0.98094100  0.63182900  1
  Al  Al0  1  0.00000000  0.50000000  0.50000000  1
  Al  Al1  1  0.50000000  0.50000000  0.50000000  1
  Al  Al2  1  0.50000000  0.00000000  0.00000000  1
  Al  Al3  1  0.00000000  0.00000000  0.00000000  1
  Pd  Pd0  1  0.75000000  0.21926500  0.73742800  1
  Pd  Pd1  1  0.75000000  0.71926500  0.76257200  1
  Pd  Pd2  1  0.25000000  0.28073500  0.23742800  1
  Pd  Pd3  1  0.25000000  0.78073500  0.26257200  1
  F  F0  1  0.53112600  0.79336700  0.90515400  1
  F  F1  1  0.03112600  0.20663300  0.09484600  1
  F  F2  1  0.96887400  0.29336700  0.59484600  1
  F  F3  1  0.46887400  0.70663300  0.40515400  1
  F  F4  1  0.46887400  0.20663300  0.09484600  1
  F  F5  1  0.96887400  0.79336700  0.90515400  1
  F  F6  1  0.03112600  0.70663300  0.40515400  1
  F  F7  1  0.53112600  0.29336700  0.59484600  1
  F  F8  1  0.00081800  0.63416400  0.64859400  1
  F  F9  1  0.50081800  0.36583600  0.35140600  1
  F  F10  1  0.49918200  0.13416400  0.85140600  1
  F  F11  1  0.99918200  0.86583600  0.14859400  1
  F  F12  1  0.75000000  0.95982200  0.64074500  1
  F  F13  1  0.25000000  0.04017800  0.35925500  1
  F  F14  1  0.75000000  0.45982200  0.85925500  1
  F  F15  1  0.25000000  0.54017800  0.14074500  1
  F  F16  1  0.75000000  0.03010700  0.01611700  1
  F  F17  1  0.25000000  0.96989300  0.98388300  1
  F  F18  1  0.75000000  0.53010700  0.48388300  1
  F  F19  1  0.25000000  0.46989300  0.51611700  1
  F  F20  1  0.00081800  0.13416400  0.85140600  1
  F  F21  1  0.50081800  0.86583600  0.14859400  1
  F  F22  1  0.49918200  0.63416400  0.64859400  1
  F  F23  1  0.99918200  0.36583600  0.35140600  1
loop_
_geom_bond_atom_site_label_1
_geom_bond_atom_site_label_2
_geom_bond_distance
_geom_bond_site_symmetry_2
Al0 F8 1.822512 1_555
Al0 F23 1.822512 1_455
Al0 F6 1.826699 1_555
Al0 F2 1.826699 1_455
Al0 F18 1.829407 1_455
Al0 F19 1.829407 1_555
Al1 F22 1.822512 1_555
Al1 F9 1.822512 1_555
Al1 F3 1.826699 1_555
Al1 F7 1.826699 1_555
Al1 F18 1.829407 1_555
Al1 F19 1.829407 1_555
Al2 F21 1.822512 1_545
Al2 F10 1.822512 1_554
Al2 F0 1.826699 1_544
Al2 F4 1.826699 1_555
Al2 F16 1.829407 1_555
Al2 F17 1.829407 1_544
Al3 F11 1.822512 1_445
Al3 F20 1.822512 1_554
Al3 F5 1.826699 1_444
Al3 F1 1.826699 1_555
Al3 F16 1.829407 1_455
Al3 F17 1.829407 1_544
F0 Pd1 2.226805 1_555
F0 Rb0 3.100731 1_555
F1 Pd2 2.226805 1_555
F1 Rb2 3.100731 1_455
F2 Pd0 2.226805 1_555
F2 Rb3 3.100731 1_645
F3 Pd3 2.226805 1_555
F3 Rb1 3.100731 1_565
F4 Pd2 2.226805 1_555
F4 Rb2 3.100731 1_555
F5 Pd1 2.226805 1_555
F5 Rb0 3.100731 1_655
F6 Pd3 2.226805 1_555
F6 Rb1 3.100731 1_465
F7 Pd0 2.226805 1_555
F7 Rb3 3.100731 1_545
F8 Pd1 2.249965 1_455
F8 Rb0 3.104200 1_555
F8 Rb3 3.138623 1_555
F9 Pd2 2.249965 1_555
F9 Rb2 3.104200 1_555
F9 Rb1 3.138623 1_555
F10 Pd0 2.249965 1_555
F10 Rb3 3.104200 1_545
F10 Rb0 3.138623 1_555
F11 Pd3 2.249965 1_655
F11 Rb1 3.104200 1_565
F11 Rb2 3.138623 1_555
F12 Pd0 2.160722 1_565
F12 Pd1 2.175837 1_555
F12 Rb1 2.838611 1_565
F13 Pd3 2.160722 1_545
F13 Pd2 2.175837 1_555
F13 Rb3 2.838611 1_545
F14 Pd1 2.160722 1_555
F14 Pd0 2.175837 1_555
F14 Rb2 2.838611 1_556
F15 Pd2 2.160722 1_555
F15 Pd3 2.175837 1_555
F15 Rb0 2.838611 1_554
F20 Pd0 2.249965 1_455
F20 Rb3 3.104200 1_545
F20 Rb0 3.138623 1_555
F21 Pd3 2.249965 1_555
F21 Rb1 3.104200 1_565
F21 Rb2 3.138623 1_555
F22 Pd1 2.249965 1_555
F22 Rb0 3.104200 1_555
F22 Rb3 3.138623 1_555
F23 Pd2 2.249965 1_655
F23 Rb2 3.104200 1_555
F23 Rb1 3.138623 1_555
