# generated using pymatgen
data_Li9Mn7O16
_symmetry_space_group_name_H-M   'P 1'
_cell_length_a   7.80437216
_cell_length_b   7.80437216
_cell_length_c   5.34049543
_cell_angle_alpha   74.51017082
_cell_angle_beta   74.51017082
_cell_angle_gamma   94.98740125
_symmetry_Int_Tables_number   1
_chemical_formula_structural   Li9Mn7O16
_chemical_formula_sum   'Li9 Mn7 O16'
_cell_volume   297.66072236
_cell_formula_units_Z   1
loop_
 _symmetry_equiv_pos_site_id
 _symmetry_equiv_pos_as_xyz
  1  'x, y, z'
loop_
 _atom_site_type_symbol
 _atom_site_label
 _atom_site_symmetry_multiplicity
 _atom_site_fract_x
 _atom_site_fract_y
 _atom_site_fract_z
 _atom_site_occupancy
  Li  Li0  1  0.75823800  0.75823800  0.99053400  1
  Li  Li1  1  0.24176200  0.24176200  0.00946600  1
  Li  Li2  1  0.87231400  0.62680400  0.49294200  1
  Li  Li3  1  0.37319600  0.12768600  0.50705800  1
  Li  Li4  1  0.00000000  0.50000000  0.00000000  1
  Li  Li5  1  0.50000000  0.00000000  0.00000000  1
  Li  Li6  1  0.12768600  0.37319600  0.50705800  1
  Li  Li7  1  0.62680400  0.87231400  0.49294200  1
  Li  Li8  1  0.00000000  0.00000000  0.50000000  1
  Mn  Mn0  1  0.87553700  0.12446300  0.00000000  1
  Mn  Mn1  1  0.12446300  0.87553700  0.00000000  1
  Mn  Mn2  1  0.37433300  0.62566700  0.00000000  1
  Mn  Mn3  1  0.50000000  0.50000000  0.50000000  1
  Mn  Mn4  1  0.62566700  0.37433300  0.00000000  1
  Mn  Mn5  1  0.24644800  0.75355200  0.50000000  1
  Mn  Mn6  1  0.75355200  0.24644800  0.50000000  1
  O  O0  1  0.88407400  0.88407400  0.21894800  1
  O  O1  1  0.37937700  0.37937700  0.22307800  1
  O  O2  1  0.02560500  0.76485400  0.76655900  1
  O  O3  1  0.50910400  0.25927000  0.72418100  1
  O  O4  1  0.13162400  0.63389400  0.22560600  1
  O  O5  1  0.63389400  0.13162400  0.22560600  1
  O  O6  1  0.25927000  0.50910400  0.72418100  1
  O  O7  1  0.76485400  0.02560500  0.76655900  1
  O  O8  1  0.62062300  0.62062300  0.77692200  1
  O  O9  1  0.11592600  0.11592600  0.78105200  1
  O  O10  1  0.74073000  0.49089600  0.27581900  1
  O  O11  1  0.23514600  0.97439500  0.23344100  1
  O  O12  1  0.86837600  0.36610600  0.77439400  1
  O  O13  1  0.36610600  0.86837600  0.77439400  1
  O  O14  1  0.97439500  0.23514600  0.23344100  1
  O  O15  1  0.49089600  0.74073000  0.27581900  1
loop_
_geom_bond_atom_site_label_1
_geom_bond_atom_site_label_2
_geom_bond_distance
_geom_bond_site_symmetry_2
Li0 O7 2.098231 1_565
Li0 O2 2.098231 1_655
Li0 O0 2.128147 1_556
Li0 O8 2.171786 1_555
Li0 O10 2.198739 1_556
Li0 O15 2.198739 1_556
Li1 O11 2.098231 1_545
Li1 O14 2.098231 1_455
Li1 O9 2.128147 1_554
Li1 O1 2.171786 1_555
Li1 O6 2.198739 1_554
Li1 O3 2.198739 1_554
Li2 O0 2.123180 1_555
Li2 O8 2.124633 1_555
Li2 O4 2.128855 1_655
Li2 O10 2.151218 1_555
Li2 O12 2.175028 1_555
Li2 O2 2.505555 1_655
Li3 O9 2.123180 1_555
Li3 O1 2.124633 1_555
Li3 O13 2.128855 1_545
Li3 O3 2.151218 1_555
Li3 O5 2.175028 1_555
Li3 O11 2.505555 1_545
Li4 O2 2.070126 1_554
Li4 O14 2.070126 1_455
Li4 O10 2.143875 1_455
Li4 O6 2.143875 1_554
Li4 O4 2.178474 1_555
Li4 O12 2.178474 1_454
Li5 O11 2.070126 1_545
Li5 O7 2.070126 1_554
Li5 O3 2.143875 1_554
Li5 O15 2.143875 1_545
Li5 O13 2.178474 1_544
Li5 O5 2.178474 1_555
Li6 O9 2.123180 1_555
Li6 O1 2.124633 1_555
Li6 O12 2.128855 1_455
Li6 O6 2.151218 1_555
Li6 O4 2.175028 1_555
Li6 O14 2.505555 1_455
Li7 O0 2.123180 1_555
Li7 O8 2.124633 1_555
Li7 O5 2.128855 1_565
Li7 O15 2.151218 1_555
Li7 O13 2.175028 1_555
Li7 O7 2.505555 1_565
Li8 O7 2.062665 1_455
Li8 O11 2.062665 1_545
Li8 O14 2.062665 1_455
Li8 O2 2.062665 1_545
Li8 O0 2.279976 1_445
Li8 O9 2.279976 1_555
Mn0 O9 1.944992 1_654
Mn0 O0 1.944992 1_545
Mn0 O12 1.962634 1_554
Mn0 O5 1.962634 1_555
Mn0 O14 1.966914 1_555
Mn0 O7 1.966914 1_554
Mn1 O9 1.944992 1_564
Mn1 O0 1.944992 1_455
Mn1 O13 1.962634 1_554
Mn1 O4 1.962634 1_555
Mn1 O11 1.966914 1_555
Mn1 O2 1.966914 1_554
Mn2 O13 1.971598 1_554
Mn2 O4 1.971598 1_555
Mn2 O1 1.982561 1_555
Mn2 O8 1.982561 1_554
Mn2 O6 2.254759 1_554
Mn2 O15 2.254759 1_555
Mn3 O6 1.958399 1_555
Mn3 O15 1.958399 1_555
Mn3 O3 1.958399 1_555
Mn3 O10 1.958399 1_555
Mn3 O1 2.300596 1_555
Mn3 O8 2.300596 1_555
Mn4 O5 1.971598 1_555
Mn4 O12 1.971598 1_554
Mn4 O8 1.982561 1_554
Mn4 O1 1.982561 1_555
Mn4 O10 2.254759 1_555
Mn4 O3 2.254759 1_554
Mn5 O11 1.946242 1_555
Mn5 O2 1.946242 1_555
Mn5 O15 1.990012 1_555
Mn5 O6 1.990012 1_555
Mn5 O4 2.260396 1_555
Mn5 O13 2.260396 1_555
Mn6 O14 1.946242 1_555
Mn6 O7 1.946242 1_555
Mn6 O3 1.990012 1_555
Mn6 O10 1.990012 1_555
Mn6 O5 2.260396 1_555
Mn6 O12 2.260396 1_555
