# generated using pymatgen
data_Mg2AgSbO6
_symmetry_space_group_name_H-M   'P 1'
_cell_length_a   7.60189700
_cell_length_b   5.54481400
_cell_length_c   5.62630323
_cell_angle_alpha   80.75818615
_cell_angle_beta   90.00000000
_cell_angle_gamma   90.00000000
_symmetry_Int_Tables_number   1
_chemical_formula_structural   Mg2AgSbO6
_chemical_formula_sum   'Mg4 Ag2 Sb2 O12'
_cell_volume   234.07646638
_cell_formula_units_Z   2
loop_
 _symmetry_equiv_pos_site_id
 _symmetry_equiv_pos_as_xyz
  1  'x, y, z'
loop_
 _atom_site_type_symbol
 _atom_site_label
 _atom_site_symmetry_multiplicity
 _atom_site_fract_x
 _atom_site_fract_y
 _atom_site_fract_z
 _atom_site_occupancy
  Mg  Mg0  1  0.75000000  0.47930000  0.56292100  1
  Mg  Mg1  1  0.25000000  0.52070000  0.43707900  1
  Mg  Mg2  1  0.75000000  0.94204000  0.02168300  1
  Mg  Mg3  1  0.25000000  0.05796000  0.97831700  1
  Ag  Ag0  1  0.50000000  0.50000000  0.00000000  1
  Ag  Ag1  1  0.00000000  0.50000000  0.00000000  1
  Sb  Sb0  1  0.50000000  0.00000000  0.50000000  1
  Sb  Sb1  1  0.00000000  0.00000000  0.50000000  1
  O  O0  1  0.44174100  0.65312000  0.65419200  1
  O  O1  1  0.07166400  0.87989300  0.20841400  1
  O  O2  1  0.94174100  0.34688000  0.34580800  1
  O  O3  1  0.57166400  0.12010700  0.79158600  1
  O  O4  1  0.42833600  0.87989300  0.20841400  1
  O  O5  1  0.92833600  0.12010700  0.79158600  1
  O  O6  1  0.25000000  0.12346100  0.59502800  1
  O  O7  1  0.05825900  0.65312000  0.65419200  1
  O  O8  1  0.75000000  0.61289700  0.89735800  1
  O  O9  1  0.55825900  0.34688000  0.34580800  1
  O  O10  1  0.75000000  0.87653900  0.40497200  1
  O  O11  1  0.25000000  0.38710300  0.10264200  1
loop_
_geom_bond_atom_site_label_1
_geom_bond_atom_site_label_2
_geom_bond_distance
_geom_bond_site_symmetry_2
Mg0 O2 2.108070 1_555
Mg0 O9 2.108070 1_555
Mg0 O8 2.130033 1_555
Mg0 O10 2.238868 1_555
Mg0 O5 2.576189 1_555
Mg0 O3 2.576189 1_555
Mg0 O0 2.615891 1_555
Mg0 O7 2.615891 1_655
Mg1 O0 2.108070 1_555
Mg1 O7 2.108070 1_555
Mg1 O11 2.130033 1_555
Mg1 O6 2.238868 1_555
Mg1 O4 2.576189 1_555
Mg1 O1 2.576189 1_555
Mg1 O9 2.615891 1_555
Mg1 O2 2.615891 1_455
Mg2 O5 2.019447 1_564
Mg2 O3 2.019447 1_564
Mg2 O8 2.056719 1_554
Mg2 O10 2.128574 1_555
Mg2 O4 2.661862 1_555
Mg2 O1 2.661862 1_655
Mg3 O4 2.019447 1_546
Mg3 O1 2.019447 1_546
Mg3 O11 2.056719 1_556
Mg3 O6 2.128574 1_555
Mg3 O3 2.661862 1_555
Mg3 O5 2.661862 1_455
Ag0 O0 2.042506 1_554
Ag0 O9 2.042506 1_555
Ag0 O8 2.054520 1_554
Ag0 O11 2.054520 1_555
Ag0 O3 2.627209 1_554
Ag0 O4 2.627209 1_555
Ag1 O7 2.042506 1_554
Ag1 O2 2.042506 1_455
Ag1 O11 2.054520 1_555
Ag1 O8 2.054520 1_454
Ag1 O1 2.627209 1_555
Ag1 O5 2.627209 1_454
O0 Sb0 2.027857 1_565
O1 Sb1 1.944903 1_565
O2 Sb1 2.027857 1_655
O3 Sb0 1.944903 1_555
O4 Sb0 1.944903 1_565
O5 Sb1 1.944903 1_655
O6 Sb0 2.117512 1_555
O6 Sb1 2.117512 1_555
O7 Sb1 2.027857 1_565
O9 Sb0 2.027857 1_555
O10 Sb1 2.117512 1_665
O10 Sb0 2.117512 1_565
