# generated using pymatgen
data_Mg2ScW3S8
_symmetry_space_group_name_H-M   'P 1'
_cell_length_a   7.45029750
_cell_length_b   7.45465866
_cell_length_c   7.46033099
_cell_angle_alpha   56.59359674
_cell_angle_beta   56.53018064
_cell_angle_gamma   56.84002231
_symmetry_Int_Tables_number   1
_chemical_formula_structural   Mg2ScW3S8
_chemical_formula_sum   'Mg2 Sc1 W3 S8'
_cell_volume   270.34139740
_cell_formula_units_Z   1
loop_
 _symmetry_equiv_pos_site_id
 _symmetry_equiv_pos_as_xyz
  1  'x, y, z'
loop_
 _atom_site_type_symbol
 _atom_site_label
 _atom_site_symmetry_multiplicity
 _atom_site_fract_x
 _atom_site_fract_y
 _atom_site_fract_z
 _atom_site_occupancy
  Mg  Mg0  1  0.89584900  0.89505300  0.90321500  1
  Mg  Mg1  1  0.13778500  0.14078800  0.14797600  1
  Sc  Sc0  1  0.47106800  0.47050500  0.47467500  1
  W  W0  1  0.53704900  0.53638300  0.93522700  1
  W  W1  1  0.94794200  0.53148000  0.53469700  1
  W  W2  1  0.53207200  0.94811800  0.53487700  1
  S  S0  1  0.76396600  0.76266300  0.75802200  1
  S  S1  1  0.22772600  0.22756000  0.74256300  1
  S  S2  1  0.23428600  0.73803400  0.22619500  1
  S  S3  1  0.73688700  0.23361300  0.22580300  1
  S  S4  1  0.72725300  0.28862400  0.72315300  1
  S  S5  1  0.28992700  0.72729400  0.72302000  1
  S  S6  1  0.27381300  0.27523300  0.27251700  1
  S  S7  1  0.72438200  0.72464700  0.29806000  1
loop_
_geom_bond_atom_site_label_1
_geom_bond_atom_site_label_2
_geom_bond_distance
_geom_bond_site_symmetry_2
Mg0 S7 2.329569 1_556
Mg0 S5 2.339304 1_655
Mg0 S4 2.340933 1_565
Mg0 S0 2.554341 1_555
Mg1 S3 2.450631 1_455
Mg1 S2 2.458433 1_545
Mg1 S6 2.463730 1_555
Mg1 S1 2.469730 1_554
S0 W0 2.377019 1_555
S0 W1 2.383980 1_555
S0 W2 2.385929 1_555
S1 Sc0 2.484119 1_555
S1 W2 2.528503 1_545
S1 W1 2.532426 1_455
S2 Sc0 2.492605 1_555
S2 W1 2.548473 1_455
S2 W0 2.557894 1_554
S3 Sc0 2.493324 1_555
S3 W2 2.538271 1_545
S3 W0 2.550757 1_554
S4 W0 2.409176 1_555
S4 W1 2.421047 1_555
S4 Sc0 2.687289 1_555
S5 W0 2.406046 1_555
S5 W2 2.417875 1_555
S5 Sc0 2.690671 1_555
S6 W1 2.678070 1_455
S6 W2 2.691655 1_545
S6 W0 2.703206 1_554
S7 W1 2.405111 1_555
S7 W2 2.405650 1_555
S7 Sc0 2.703155 1_555
