# generated using pymatgen
data_CoCIN5O4
_symmetry_space_group_name_H-M   'P 1'
_cell_length_a   8.55890600
_cell_length_b   9.56413200
_cell_length_c   12.93242053
_cell_angle_alpha   85.20462408
_cell_angle_beta   90.00000000
_cell_angle_gamma   90.00000000
_symmetry_Int_Tables_number   1
_chemical_formula_structural   CoCIN5O4
_chemical_formula_sum   'Co4 C4 I4 N20 O16'
_cell_volume   1054.92301910
_cell_formula_units_Z   4
loop_
 _symmetry_equiv_pos_site_id
 _symmetry_equiv_pos_as_xyz
  1  'x, y, z'
loop_
 _atom_site_type_symbol
 _atom_site_label
 _atom_site_symmetry_multiplicity
 _atom_site_fract_x
 _atom_site_fract_y
 _atom_site_fract_z
 _atom_site_occupancy
  Co  Co0  1  0.00646400  0.74862000  0.77538100  1
  Co  Co1  1  0.50646400  0.25138000  0.72461900  1
  Co  Co2  1  0.99353600  0.25138000  0.22461900  1
  Co  Co3  1  0.49353600  0.74862000  0.27538100  1
  C  C0  1  0.37027100  0.68908900  0.87683400  1
  C  C1  1  0.87027100  0.31091100  0.62316600  1
  C  C2  1  0.62972900  0.31091100  0.12316600  1
  C  C3  1  0.12972900  0.68908900  0.37683400  1
  I  I0  1  0.77955600  0.81398600  0.55541000  1
  I  I1  1  0.27955600  0.18601400  0.94459000  1
  I  I2  1  0.22044400  0.18601400  0.44459000  1
  I  I3  1  0.72044400  0.81398600  0.05541000  1
  N  N0  1  0.37888300  0.75690900  0.59126000  1
  N  N1  1  0.87888300  0.24309100  0.90874000  1
  N  N2  1  0.62111700  0.24309100  0.40874000  1
  N  N3  1  0.12111700  0.75690900  0.09126000  1
  N  N4  1  0.01019200  0.58728700  0.79355400  1
  N  N5  1  0.51019200  0.41271300  0.70644600  1
  N  N6  1  0.98980800  0.41271300  0.20644600  1
  N  N7  1  0.48980800  0.58728700  0.29355400  1
  N  N8  1  0.94167100  0.84246400  0.44912200  1
  N  N9  1  0.44167100  0.15753600  0.05087800  1
  N  N10  1  0.05832900  0.15753600  0.55087800  1
  N  N11  1  0.55832900  0.84246400  0.94912200  1
  N  N12  1  0.15932900  0.84044300  0.81462300  1
  N  N13  1  0.65932900  0.15955700  0.68537700  1
  N  N14  1  0.84067100  0.15955700  0.18537700  1
  N  N15  1  0.34067100  0.84044300  0.31462300  1
  N  N16  1  0.30542900  0.66199400  0.58453400  1
  N  N17  1  0.80542900  0.33800600  0.91546600  1
  N  N18  1  0.69457100  0.33800600  0.41546600  1
  N  N19  1  0.19457100  0.66199400  0.08453400  1
  O  O0  1  0.31385700  0.58279400  0.85058900  1
  O  O1  1  0.81385700  0.41720600  0.64941100  1
  O  O2  1  0.68614300  0.41720600  0.14941100  1
  O  O3  1  0.18614300  0.58279400  0.35058900  1
  O  O4  1  0.29869100  0.82879900  0.85532800  1
  O  O5  1  0.79869100  0.17120100  0.64467200  1
  O  O6  1  0.70130900  0.17120100  0.14467200  1
  O  O7  1  0.20130900  0.82879900  0.35532800  1
  O  O8  1  0.50490300  0.69849900  0.92679100  1
  O  O9  1  0.00490300  0.30150100  0.57320900  1
  O  O10  1  0.49509700  0.30150100  0.07320900  1
  O  O11  1  0.99509700  0.69849900  0.42679100  1
  O  O12  1  0.85252500  0.82952400  0.70350000  1
  O  O13  1  0.35252500  0.17047600  0.79650000  1
  O  O14  1  0.14747500  0.17047600  0.29650000  1
  O  O15  1  0.64747500  0.82952400  0.20350000  1
loop_
_geom_bond_atom_site_label_1
_geom_bond_atom_site_label_2
_geom_bond_distance
_geom_bond_site_symmetry_2
Co0 N4 1.541591 1_555
Co0 N12 1.677830 1_555
Co0 O12 1.754580 1_455
Co1 N5 1.541591 1_555
Co1 N13 1.677830 1_555
Co1 O13 1.754580 1_555
Co2 N6 1.541591 1_555
Co2 N14 1.677830 1_555
Co2 O14 1.754580 1_655
Co3 N7 1.541591 1_555
Co3 N15 1.677830 1_555
Co3 O15 1.754580 1_555
C0 O0 1.199809 1_555
C0 O8 1.327789 1_555
C0 O4 1.475126 1_555
C1 O1 1.199809 1_555
C1 O9 1.327789 1_655
C1 O5 1.475126 1_555
C2 O2 1.199809 1_555
C2 O10 1.327789 1_555
C2 O6 1.475126 1_555
C3 O3 1.199809 1_555
C3 O11 1.327789 1_455
C3 O7 1.475126 1_555
I0 N8 1.956077 1_555
I0 O12 2.031639 1_555
I1 N9 1.956077 1_556
I1 O13 2.031639 1_555
I2 N10 1.956077 1_555
I2 O14 2.031639 1_555
I3 N11 1.956077 1_554
I3 O15 2.031639 1_555
N0 N16 1.113588 1_555
N1 N17 1.113588 1_555
N8 O11 1.501610 1_555
N9 O10 1.501610 1_555
N10 O9 1.501610 1_555
N11 O8 1.501610 1_555
N12 O4 1.304780 1_555
N13 O5 1.304780 1_555
N14 O6 1.304780 1_555
N15 O7 1.304780 1_555
N18 N2 1.113588 1_555
N19 N3 1.113588 1_555
