# generated using pymatgen
data_Pr2WO6
_symmetry_space_group_name_H-M   'P 1'
_cell_length_a   10.16537889
_cell_length_b   10.16537889
_cell_length_c   5.58790248
_cell_angle_alpha   75.65940633
_cell_angle_beta   75.65940633
_cell_angle_gamma   68.92296086
_symmetry_Int_Tables_number   1
_chemical_formula_structural   Pr2WO6
_chemical_formula_sum   'Pr8 W4 O24'
_cell_volume   513.90854162
_cell_formula_units_Z   4
loop_
 _symmetry_equiv_pos_site_id
 _symmetry_equiv_pos_as_xyz
  1  'x, y, z'
loop_
 _atom_site_type_symbol
 _atom_site_label
 _atom_site_symmetry_multiplicity
 _atom_site_fract_x
 _atom_site_fract_y
 _atom_site_fract_z
 _atom_site_occupancy
  Pr  Pr0  1  0.62995569  0.37004431  0.75000000  1
  Pr  Pr1  1  0.37004431  0.62995569  0.25000000  1
  Pr  Pr2  1  0.10982368  0.89017632  0.75000000  1
  Pr  Pr3  1  0.89017632  0.10982368  0.25000000  1
  Pr  Pr4  1  0.70948572  0.94015359  0.88653032  1
  Pr  Pr5  1  0.29051428  0.05984641  0.11346968  1
  Pr  Pr6  1  0.05984641  0.29051428  0.61346968  1
  Pr  Pr7  1  0.94015359  0.70948572  0.38653032  1
  W  W0  1  0.50419797  0.80033343  0.56346953  1
  W  W1  1  0.49580203  0.19966657  0.43653047  1
  W  W2  1  0.19966657  0.49580203  0.93653047  1
  W  W3  1  0.80033343  0.50419797  0.06346953  1
  O  O0  1  0.67990811  0.16201436  0.57935178  1
  O  O1  1  0.32009189  0.83798564  0.42064822  1
  O  O2  1  0.83798564  0.32009189  0.92064822  1
  O  O3  1  0.16201436  0.67990811  0.07935178  1
  O  O4  1  0.38519550  0.82462177  0.86824707  1
  O  O5  1  0.61480450  0.17537823  0.13175293  1
  O  O6  1  0.17537823  0.61480450  0.63175293  1
  O  O7  1  0.82462177  0.38519550  0.36824707  1
  O  O8  1  0.67538643  0.78344117  0.63942088  1
  O  O9  1  0.32461357  0.21655883  0.36057912  1
  O  O10  1  0.21655883  0.32461357  0.86057912  1
  O  O11  1  0.78344117  0.67538643  0.13942088  1
  O  O12  1  0.47263354  0.06534704  0.72363937  1
  O  O13  1  0.52736646  0.93465296  0.27636063  1
  O  O14  1  0.93465296  0.52736646  0.77636063  1
  O  O15  1  0.06534704  0.47263354  0.22363937  1
  O  O16  1  0.54372628  0.61795622  0.52122188  1
  O  O17  1  0.45627372  0.38204378  0.47877812  1
  O  O18  1  0.38204378  0.45627372  0.97877812  1
  O  O19  1  0.61795622  0.54372628  0.02122188  1
  O  O20  1  0.89296202  0.92148339  0.07815635  1
  O  O21  1  0.10703798  0.07851661  0.92184365  1
  O  O22  1  0.07851661  0.10703798  0.42184365  1
  O  O23  1  0.92148339  0.89296202  0.57815635  1
loop_
_geom_bond_atom_site_label_1
_geom_bond_atom_site_label_2
_geom_bond_distance
_geom_bond_site_symmetry_2
O0 W1 2.087898 1_555
O0 Pr0 2.371882 1_555
O0 Pr3 2.440614 1_555
O0 Pr4 2.444045 1_545
O1 W0 2.087898 1_555
O1 Pr1 2.371882 1_555
O1 Pr2 2.440614 1_555
O1 Pr5 2.444045 1_565
O2 W3 2.087898 1_556
O2 Pr0 2.371882 1_555
O2 Pr3 2.440614 1_556
O2 Pr6 2.444045 1_655
O3 W2 2.087898 1_554
O3 Pr1 2.371882 1_555
O3 Pr2 2.440614 1_554
O3 Pr7 2.444045 1_455
O4 W0 1.843283 1_555
O4 Pr1 2.540762 1_556
O4 Pr5 2.799305 1_566
O4 Pr2 2.841297 1_555
O5 W1 1.843283 1_555
O5 Pr0 2.540762 1_554
O5 Pr4 2.799305 1_544
O5 Pr3 2.841297 1_555
O6 W2 1.843283 1_555
O6 Pr1 2.540762 1_555
O6 Pr7 2.799305 1_455
O6 Pr2 2.841297 1_555
O7 W3 1.843283 1_555
O7 Pr0 2.540762 1_555
O7 Pr6 2.799305 1_655
O7 Pr3 2.841297 1_555
O8 W0 1.831044 1_555
O8 Pr4 2.507698 1_555
O8 Pr7 2.644414 1_555
O9 W1 1.831044 1_555
O9 Pr5 2.507698 1_555
O9 Pr6 2.644414 1_555
O10 W2 1.831044 1_555
O10 Pr6 2.507698 1_555
O10 Pr5 2.644414 1_556
O11 W3 1.831044 1_555
O11 Pr7 2.507698 1_555
O11 Pr4 2.644414 1_554
O12 W1 1.858138 1_555
O12 Pr5 2.488376 1_556
O12 Pr4 2.559887 1_545
O13 W0 1.858138 1_555
O13 Pr4 2.488376 1_554
O13 Pr5 2.559887 1_565
O14 W3 1.858138 1_556
O14 Pr7 2.488376 1_555
O14 Pr6 2.559887 1_655
O15 W2 1.858138 1_554
O15 Pr6 2.488376 1_555
O15 Pr7 2.559887 1_455
O16 W0 1.813361 1_555
O16 Pr0 2.474665 1_555
O16 Pr1 2.551075 1_555
O17 W1 1.813361 1_555
O17 Pr1 2.474665 1_555
O17 Pr0 2.551075 1_555
O18 W2 1.813361 1_555
O18 Pr0 2.474665 1_555
O18 Pr1 2.551075 1_556
O19 W3 1.813361 1_555
O19 Pr1 2.474665 1_555
O19 Pr0 2.551075 1_554
O20 Pr4 2.301148 1_554
O20 Pr3 2.333800 1_565
O20 Pr7 2.381172 1_555
O20 Pr2 2.470932 1_654
O21 Pr5 2.301148 1_556
O21 Pr2 2.333800 1_545
O21 Pr6 2.381172 1_555
O21 Pr3 2.470932 1_456
O22 Pr6 2.301148 1_555
O22 Pr3 2.333800 1_455
O22 Pr5 2.381172 1_555
O22 Pr2 2.470932 1_545
O23 Pr7 2.301148 1_555
O23 Pr2 2.333800 1_655
O23 Pr4 2.381172 1_555
O23 Pr3 2.470932 1_565
