# generated using pymatgen
data_Y(Mo3S4)2
_symmetry_space_group_name_H-M   'P 1'
_cell_length_a   6.48590290
_cell_length_b   6.48587926
_cell_length_c   6.48595502
_cell_angle_alpha   89.56419368
_cell_angle_beta   89.56529812
_cell_angle_gamma   89.56510684
_symmetry_Int_Tables_number   1
_chemical_formula_structural   Y(Mo3S4)2
_chemical_formula_sum   'Y1 Mo6 S8'
_cell_volume   272.81977708
_cell_formula_units_Z   1
loop_
 _symmetry_equiv_pos_site_id
 _symmetry_equiv_pos_as_xyz
  1  'x, y, z'
loop_
 _atom_site_type_symbol
 _atom_site_label
 _atom_site_symmetry_multiplicity
 _atom_site_fract_x
 _atom_site_fract_y
 _atom_site_fract_z
 _atom_site_occupancy
  Y  Y0  1  0.00000884  -0.00000481  -0.00000604  1
  Mo  Mo0  1  0.77336817  0.58008076  0.43988908  1
  Mo  Mo1  1  0.43988613  0.77337339  0.58007754  1
  Mo  Mo2  1  0.58007445  0.43988834  0.77335753  1
  Mo  Mo3  1  0.22663274  0.41992154  0.56011223  1
  Mo  Mo4  1  0.56011169  0.22662297  0.41992039  1
  Mo  Mo5  1  0.41992340  0.56011453  0.22664283  1
  S  S0  1  0.76163730  0.76164348  0.76163334  1
  S  S1  1  0.23836230  0.23835446  0.23836746  1
  S  S2  1  0.24929389  0.63065429  0.87304393  1
  S  S3  1  0.87304631  0.24929114  0.63064083  1
  S  S4  1  0.63064937  0.87305662  0.24930189  1
  S  S5  1  0.75070537  0.36934892  0.12696243  1
  S  S6  1  0.12694683  0.75070810  0.36935828  1
  S  S7  1  0.36935321  0.12694628  0.75069827  1
loop_
_geom_bond_atom_site_label_1
_geom_bond_atom_site_label_2
_geom_bond_distance
_geom_bond_site_symmetry_2
Mo0 S0 2.404359 1_555
Mo0 S4 2.439385 1_555
Mo0 S5 2.461476 1_555
Mo0 S3 2.549971 1_555
Mo0 S6 2.589983 1_655
Mo1 S0 2.404347 1_555
Mo1 S2 2.439375 1_555
Mo1 S6 2.461475 1_555
Mo1 S4 2.549968 1_555
Mo1 S7 2.589949 1_565
Mo2 S0 2.404384 1_555
Mo2 S3 2.439420 1_555
Mo2 S7 2.461486 1_555
Mo2 S2 2.550005 1_555
Mo2 S5 2.590162 1_556
Mo3 S1 2.404376 1_555
Mo3 S7 2.439383 1_555
Mo3 S2 2.461506 1_555
Mo3 S6 2.549974 1_555
Mo3 S3 2.590033 1_455
Mo4 S1 2.404328 1_555
Mo4 S5 2.439354 1_555
Mo4 S3 2.461455 1_555
Mo4 S7 2.549954 1_555
Mo4 S4 2.589910 1_545
Mo5 S1 2.404406 1_555
Mo5 S6 2.439429 1_555
Mo5 S4 2.461503 1_555
Mo5 S5 2.550002 1_555
Mo5 S2 2.590124 1_554
S0 Y0 2.697993 1_666
S1 Y0 2.698002 1_555
S2 Y0 2.996927 1_566
S3 Y0 2.997033 1_656
S4 Y0 2.997078 1_665
S5 Y0 2.997090 1_655
S6 Y0 2.997016 1_565
S7 Y0 2.996980 1_556
