# generated using pymatgen
data_Th4AgPd
_symmetry_space_group_name_H-M   'P 1'
_cell_length_a   6.05564820
_cell_length_b   6.05564820
_cell_length_c   6.05564820
_cell_angle_alpha   104.02205031
_cell_angle_beta   104.02205031
_cell_angle_gamma   121.02482426
_symmetry_Int_Tables_number   1
_chemical_formula_structural   Th4AgPd
_chemical_formula_sum   'Th4 Ag1 Pd1'
_cell_volume   165.64730796
_cell_formula_units_Z   1
loop_
 _symmetry_equiv_pos_site_id
 _symmetry_equiv_pos_as_xyz
  1  'x, y, z'
loop_
 _atom_site_type_symbol
 _atom_site_label
 _atom_site_symmetry_multiplicity
 _atom_site_fract_x
 _atom_site_fract_y
 _atom_site_fract_z
 _atom_site_occupancy
  Th  Th0  1  0.40938000  0.90938000  0.81876100  1
  Th  Th1  1  0.09062000  0.59062000  0.18123900  1
  Th  Th2  1  0.59062000  0.40938000  0.50000000  1
  Th  Th3  1  0.90938000  0.09062000  0.50000000  1
  Ag  Ag0  1  0.50000000  0.50000000  0.00000000  1
  Pd  Pd0  1  0.00000000  0.00000000  0.00000000  1
loop_
_geom_bond_atom_site_label_1
_geom_bond_atom_site_label_2
_geom_bond_distance
_geom_bond_site_symmetry_2
Th0 Th1 3.360515 1_555
Th0 Th1 3.540610 1_556
Th0 Th1 3.540620 1_666
Th0 Th2 3.812043 1_455
Th0 Th3 3.812043 1_455
Th0 Th2 3.812048 1_565
Th0 Th3 3.812048 1_565
Th0 Th2 3.964620 1_566
Th0 Th3 3.964620 1_566
Th0 Th3 3.964627 1_465
Th0 Th2 3.964627 1_555
Th1 Th2 3.812043 1_565
Th1 Th3 3.812043 1_565
Th1 Th3 3.812048 1_455
Th1 Th2 3.812048 1_455
Th1 Th2 3.964620 1_454
Th1 Th3 3.964620 1_454
Th1 Th3 3.964627 1_465
Th1 Th2 3.964627 1_555
Th2 Th3 3.360504 1_555
Th2 Th3 3.540620 1_565
Th2 Th3 3.540620 1_455
Ag0 Pd0 2.980802 1_665
Ag0 Pd0 2.980802 1_555
Ag0 Th1 3.174965 1_555
Ag0 Th0 3.174965 1_554
Ag0 Th1 3.174968 1_655
Ag0 Th0 3.174968 1_544
Ag0 Th3 3.174968 1_454
Ag0 Th2 3.174968 1_555
Ag0 Th3 3.174968 1_565
Ag0 Th2 3.174968 1_554
Pd0 Th1 3.174965 1_545
Pd0 Th0 3.174965 1_544
Pd0 Th1 3.174968 1_555
Pd0 Th0 3.174968 1_444
Pd0 Th3 3.174968 1_454
Pd0 Th3 3.174968 1_455
Pd0 Th2 3.174968 1_555
Pd0 Th2 3.174968 1_444
