# generated using pymatgen
data_YMg14BiO16
_symmetry_space_group_name_H-M   'P 1'
_cell_length_a   4.42777100
_cell_length_b   8.87534200
_cell_length_c   9.09807400
_cell_angle_alpha   90.00000000
_cell_angle_beta   90.00000000
_cell_angle_gamma   90.00000000
_symmetry_Int_Tables_number   1
_chemical_formula_structural   YMg14BiO16
_chemical_formula_sum   'Y1 Mg14 Bi1 O16'
_cell_volume   357.53594758
_cell_formula_units_Z   1
loop_
 _symmetry_equiv_pos_site_id
 _symmetry_equiv_pos_as_xyz
  1  'x, y, z'
loop_
 _atom_site_type_symbol
 _atom_site_label
 _atom_site_symmetry_multiplicity
 _atom_site_fract_x
 _atom_site_fract_y
 _atom_site_fract_z
 _atom_site_occupancy
  Y  Y0  1  0.00000000  0.00000000  0.00000000  1
  Mg  Mg0  1  0.00000000  0.00000000  0.50000000  1
  Mg  Mg1  1  0.00000000  0.50000000  0.50000000  1
  Mg  Mg2  1  0.50000000  0.74881600  0.00000000  1
  Mg  Mg3  1  0.50000000  0.25118400  0.00000000  1
  Mg  Mg4  1  0.50000000  0.74901200  0.50000000  1
  Mg  Mg5  1  0.50000000  0.25098800  0.50000000  1
  Mg  Mg6  1  0.50000000  0.00000000  0.73270400  1
  Mg  Mg7  1  0.50000000  0.50000000  0.73212200  1
  Mg  Mg8  1  0.50000000  0.00000000  0.26729600  1
  Mg  Mg9  1  0.50000000  0.50000000  0.26787800  1
  Mg  Mg10  1  0.00000000  0.74496400  0.73286100  1
  Mg  Mg11  1  0.00000000  0.25503600  0.73286100  1
  Mg  Mg12  1  0.00000000  0.74496400  0.26713900  1
  Mg  Mg13  1  0.00000000  0.25503600  0.26713900  1
  Bi  Bi0  1  0.00000000  0.50000000  0.00000000  1
  O  O0  1  0.00000000  0.00000000  0.74147800  1
  O  O1  1  0.00000000  0.50000000  0.71135000  1
  O  O2  1  0.00000000  0.00000000  0.25852200  1
  O  O3  1  0.00000000  0.50000000  0.28865000  1
  O  O4  1  0.50000000  0.75075300  0.75089800  1
  O  O5  1  0.50000000  0.24924700  0.75089800  1
  O  O6  1  0.50000000  0.75075300  0.24910200  1
  O  O7  1  0.50000000  0.24924700  0.24910200  1
  O  O8  1  0.50000000  0.00000000  0.00000000  1
  O  O9  1  0.50000000  0.50000000  0.00000000  1
  O  O10  1  0.50000000  0.00000000  0.50000000  1
  O  O11  1  0.50000000  0.50000000  0.50000000  1
  O  O12  1  0.00000000  0.76011900  0.00000000  1
  O  O13  1  0.00000000  0.23988100  0.00000000  1
  O  O14  1  0.00000000  0.75935400  0.50000000  1
  O  O15  1  0.00000000  0.24064600  0.50000000  1
loop_
_geom_bond_atom_site_label_1
_geom_bond_atom_site_label_2
_geom_bond_distance
_geom_bond_site_symmetry_2
Mg0 O15 2.135816 1_555
Mg0 O14 2.135816 1_545
Mg0 O0 2.196985 1_555
Mg0 O2 2.196985 1_555
Mg0 O10 2.213885 1_455
Mg0 O10 2.213885 1_555
Mg1 O3 1.922878 1_555
Mg1 O1 1.922878 1_555
Mg1 O11 2.213885 1_455
Mg1 O11 2.213885 1_555
Mg1 O14 2.301855 1_555
Mg1 O15 2.301855 1_555
Mg2 O9 2.208327 1_555
Mg2 O12 2.216157 1_655
Mg2 O12 2.216157 1_555
Mg2 O8 2.229344 1_565
Mg2 O6 2.266414 1_555
Mg2 O4 2.266414 1_554
Mg3 O9 2.208327 1_555
Mg3 O13 2.216157 1_655
Mg3 O13 2.216157 1_555
Mg3 O8 2.229344 1_555
Mg3 O7 2.266414 1_555
Mg3 O5 2.266414 1_554
Mg4 O11 2.210067 1_555
Mg4 O14 2.215787 1_555
Mg4 O14 2.215787 1_655
Mg4 O10 2.227604 1_565
Mg4 O6 2.282741 1_555
Mg4 O4 2.282741 1_555
Mg5 O11 2.210067 1_555
Mg5 O15 2.215787 1_655
Mg5 O15 2.215787 1_555
Mg5 O10 2.227604 1_555
Mg5 O5 2.282741 1_555
Mg5 O7 2.282741 1_555
Mg6 O10 2.117158 1_555
Mg6 O0 2.215324 1_555
Mg6 O0 2.215324 1_655
Mg6 O4 2.218337 1_545
Mg6 O5 2.218337 1_555
Mg6 O8 2.431879 1_556
Mg7 O11 2.111863 1_555
Mg7 O1 2.221937 1_655
Mg7 O1 2.221937 1_555
Mg7 O4 2.232065 1_555
Mg7 O5 2.232065 1_555
Mg7 O9 2.437174 1_556
Mg8 O10 2.117158 1_555
Mg8 O2 2.215324 1_655
Mg8 O2 2.215324 1_555
Mg8 O6 2.218337 1_545
Mg8 O7 2.218337 1_555
Mg8 O8 2.431879 1_555
Mg9 O11 2.111863 1_555
Mg9 O3 2.221937 1_655
Mg9 O3 2.221937 1_555
Mg9 O6 2.232065 1_555
Mg9 O7 2.232065 1_555
Mg9 O9 2.437174 1_555
Mg10 O14 2.122433 1_555
Mg10 O1 2.182930 1_555
Mg10 O4 2.220554 1_455
Mg10 O4 2.220554 1_555
Mg10 O0 2.264889 1_565
Mg10 O12 2.434169 1_556
Mg11 O15 2.122433 1_555
Mg11 O1 2.182930 1_555
Mg11 O5 2.220554 1_455
Mg11 O5 2.220554 1_555
Mg11 O0 2.264889 1_555
Mg11 O13 2.434169 1_556
Mg12 O14 2.122433 1_555
Mg12 O3 2.182930 1_555
Mg12 O6 2.220554 1_455
Mg12 O6 2.220554 1_555
Mg12 O2 2.264889 1_565
Mg12 O12 2.434169 1_555
Mg13 O15 2.122433 1_555
Mg13 O3 2.182930 1_555
Mg13 O7 2.220554 1_555
Mg13 O7 2.220554 1_455
Mg13 O2 2.264889 1_555
Mg13 O13 2.434169 1_555
Bi0 O9 2.213885 1_455
Bi0 O9 2.213885 1_555
Bi0 O12 2.308645 1_555
Bi0 O13 2.308645 1_555
Bi0 O1 2.626159 1_554
Bi0 O3 2.626159 1_555
O0 Y0 2.352052 1_556
O2 Y0 2.352052 1_555
O8 Y0 2.213885 1_555
O8 Y0 2.213885 1_655
O12 Y0 2.129026 1_565
O13 Y0 2.129026 1_555
