# generated using pymatgen
data_Eu(GaGe2)2
_symmetry_space_group_name_H-M   'P 1'
_cell_length_a   5.96747419
_cell_length_b   5.96747419
_cell_length_c   13.27663016
_cell_angle_alpha   90.00000000
_cell_angle_beta   90.00000000
_cell_angle_gamma   139.22815846
_symmetry_Int_Tables_number   1
_chemical_formula_structural   Eu(GaGe2)2
_chemical_formula_sum   'Eu2 Ga4 Ge8'
_cell_volume   308.75527642
_cell_formula_units_Z   2
loop_
 _symmetry_equiv_pos_site_id
 _symmetry_equiv_pos_as_xyz
  1  'x, y, z'
loop_
 _atom_site_type_symbol
 _atom_site_label
 _atom_site_symmetry_multiplicity
 _atom_site_fract_x
 _atom_site_fract_y
 _atom_site_fract_z
 _atom_site_occupancy
  Eu  Eu0  1  0.78896596  0.21103404  0.25000000  1
  Eu  Eu1  1  0.21103404  0.78896596  0.75000000  1
  Ga  Ga0  1  0.47865904  0.52134096  0.09137607  1
  Ga  Ga1  1  0.52134096  0.47865904  0.90862393  1
  Ga  Ga2  1  0.47865904  0.52134096  0.40862393  1
  Ga  Ga3  1  0.52134096  0.47865904  0.59137607  1
  Ge  Ge0  1  0.25963891  0.74036109  0.05436136  1
  Ge  Ge1  1  0.74036109  0.25963891  0.94563864  1
  Ge  Ge2  1  0.25963891  0.74036109  0.44563864  1
  Ge  Ge3  1  0.74036109  0.25963891  0.55436136  1
  Ge  Ge4  1  0.06775715  0.93224285  0.15617860  1
  Ge  Ge5  1  0.93224285  0.06775715  0.84382140  1
  Ge  Ge6  1  0.06775715  0.93224285  0.34382140  1
  Ge  Ge7  1  0.93224285  0.06775715  0.65617860  1
loop_
_geom_bond_atom_site_label_1
_geom_bond_atom_site_label_2
_geom_bond_distance
_geom_bond_site_symmetry_2
Eu0 Ge2 3.342951 1_655
Eu0 Ge2 3.342951 1_545
Eu0 Ge0 3.342951 1_655
Eu0 Ge0 3.342951 1_545
Eu0 Ge4 3.358496 1_645
Eu0 Ge6 3.358496 1_645
Eu0 Ge6 3.463684 1_655
Eu0 Ge6 3.463684 1_545
Eu0 Ge4 3.463684 1_655
Eu0 Ge4 3.463684 1_545
Eu0 Ga0 3.641417 1_655
Eu0 Ga2 3.641417 1_655
Eu0 Ga0 3.641417 1_545
Eu0 Ga2 3.641417 1_545
Eu1 Ge3 3.342951 1_455
Eu1 Ge1 3.342951 1_455
Eu1 Ge1 3.342951 1_565
Eu1 Ge3 3.342951 1_565
Eu1 Ge7 3.358496 1_465
Eu1 Ge5 3.358496 1_465
Eu1 Ge5 3.463684 1_565
Eu1 Ge7 3.463684 1_455
Eu1 Ge7 3.463684 1_565
Eu1 Ge5 3.463684 1_455
Eu1 Ga3 3.641417 1_565
Eu1 Ga1 3.641417 1_565
Eu1 Ga3 3.641417 1_455
Eu1 Ga1 3.641417 1_455
Ga0 Ge4 2.460663 1_545
Ga0 Ge4 2.460663 1_655
Ga0 Ga1 2.472872 1_554
Ga0 Ge0 2.499068 1_555
Ga1 Ge5 2.460663 1_455
Ga1 Ge5 2.460663 1_565
Ga1 Ge1 2.499068 1_555
Ga2 Ge6 2.460663 1_655
Ga2 Ge6 2.460663 1_545
Ga2 Ga3 2.472872 1_555
Ga2 Ge2 2.499068 1_555
Ga3 Ge7 2.460663 1_565
Ga3 Ge7 2.460663 1_455
Ga3 Ge3 2.499068 1_555
Ge0 Ge4 2.536830 1_555
Ge0 Ge1 2.539921 1_564
Ge0 Ge1 2.539921 1_454
Ge1 Ge5 2.536830 1_555
Ge2 Ge6 2.536830 1_555
Ge2 Ge3 2.539921 1_455
Ge2 Ge3 2.539921 1_565
Ge3 Ge7 2.536830 1_555
Ge4 Ge6 2.491264 1_555
Ge5 Ge7 2.491264 1_555
