# generated using pymatgen
data_NaTbTi2O6
_symmetry_space_group_name_H-M   'P 1'
_cell_length_a   5.34677900
_cell_length_b   5.54270300
_cell_length_c   7.64938900
_cell_angle_alpha   90.00000000
_cell_angle_beta   90.00000000
_cell_angle_gamma   90.00000000
_symmetry_Int_Tables_number   1
_chemical_formula_structural   NaTbTi2O6
_chemical_formula_sum   'Na2 Tb2 Ti4 O12'
_cell_volume   226.69429387
_cell_formula_units_Z   2
loop_
 _symmetry_equiv_pos_site_id
 _symmetry_equiv_pos_as_xyz
  1  'x, y, z'
loop_
 _atom_site_type_symbol
 _atom_site_label
 _atom_site_symmetry_multiplicity
 _atom_site_fract_x
 _atom_site_fract_y
 _atom_site_fract_z
 _atom_site_occupancy
  Na  Na0  1  0.49521500  0.78206100  0.50000000  1
  Na  Na1  1  0.99521500  0.21793900  0.00000000  1
  Tb  Tb0  1  0.01634800  0.31898300  0.50000000  1
  Tb  Tb1  1  0.51634800  0.68101700  0.00000000  1
  Ti  Ti0  1  0.51186100  0.23597400  0.75254400  1
  Ti  Ti1  1  0.01186100  0.76402600  0.25254400  1
  Ti  Ti2  1  0.51186100  0.23597400  0.24745600  1
  Ti  Ti3  1  0.01186100  0.76402600  0.74745600  1
  O  O0  1  0.59737300  0.22572700  0.50000000  1
  O  O1  1  0.92475000  0.72794400  0.50000000  1
  O  O2  1  0.42475000  0.27205600  0.00000000  1
  O  O3  1  0.09737300  0.77427300  0.00000000  1
  O  O4  1  0.27857300  0.53629300  0.71076300  1
  O  O5  1  0.19272300  0.05356000  0.30068900  1
  O  O6  1  0.69272300  0.94644000  0.19931100  1
  O  O7  1  0.77857300  0.46370700  0.78923700  1
  O  O8  1  0.69272300  0.94644000  0.80068900  1
  O  O9  1  0.77857300  0.46370700  0.21076300  1
  O  O10  1  0.27857300  0.53629300  0.28923700  1
  O  O11  1  0.19272300  0.05356000  0.69931100  1
loop_
_geom_bond_atom_site_label_1
_geom_bond_atom_site_label_2
_geom_bond_distance
_geom_bond_site_symmetry_2
Na0 O1 2.316134 1_555
Na0 O4 2.407613 1_555
Na0 O10 2.407613 1_555
Na0 O0 2.519041 1_565
Na0 O11 2.684178 1_565
Na0 O5 2.684178 1_565
Na0 O8 2.689928 1_555
Na0 O6 2.689928 1_555
Na1 O2 2.316134 1_655
Na1 O9 2.407613 1_555
Na1 O7 2.407613 1_554
Na1 O3 2.519041 1_645
Na1 O6 2.684178 1_545
Na1 O8 2.684178 1_544
Na1 O11 2.689928 1_654
Na1 O5 2.689928 1_655
O0 Ti0 1.985988 1_555
O0 Ti2 1.985988 1_555
O0 Tb0 2.299026 1_655
O1 Ti1 1.959580 1_655
O1 Ti3 1.959580 1_655
O1 Tb0 2.319054 1_655
O2 Ti2 1.959580 1_555
O2 Ti0 1.959580 1_554
O2 Tb1 2.319054 1_555
O3 Ti1 1.985988 1_555
O3 Ti3 1.985988 1_554
O3 Tb1 2.299026 1_555
O4 Ti3 1.925017 1_555
O4 Ti0 2.104477 1_555
O4 Tb0 2.452706 1_555
O4 Tb1 2.674853 1_556
O5 Ti1 1.909492 1_545
O5 Ti2 2.024780 1_555
O5 Tb0 2.319065 1_555
O6 Ti2 1.909492 1_565
O6 Ti1 2.024780 1_655
O6 Tb1 2.319065 1_555
O7 Ti0 1.925017 1_555
O7 Ti3 2.104477 1_655
O7 Tb1 2.452706 1_556
O7 Tb0 2.674853 1_655
O8 Ti0 1.909492 1_565
O8 Ti3 2.024780 1_655
O8 Tb1 2.319065 1_556
O9 Ti2 1.925017 1_555
O9 Ti1 2.104477 1_655
O9 Tb1 2.452706 1_555
O9 Tb0 2.674853 1_655
O10 Ti1 1.925017 1_555
O10 Ti2 2.104477 1_555
O10 Tb0 2.452706 1_555
O10 Tb1 2.674853 1_555
O11 Ti3 1.909492 1_545
O11 Ti0 2.024780 1_555
O11 Tb0 2.319065 1_555
