# generated using pymatgen
data_SmV2O2
_symmetry_space_group_name_H-M   'P 1'
_cell_length_a   7.83832181
_cell_length_b   7.83832181
_cell_length_c   7.83832181
_cell_angle_alpha   109.95749529
_cell_angle_beta   109.95749529
_cell_angle_gamma   108.50298839
_symmetry_Int_Tables_number   1
_chemical_formula_structural   SmV2O2
_chemical_formula_sum   'Sm4 V8 O8'
_cell_volume   370.64192507
_cell_formula_units_Z   4
loop_
 _symmetry_equiv_pos_site_id
 _symmetry_equiv_pos_as_xyz
  1  'x, y, z'
loop_
 _atom_site_type_symbol
 _atom_site_label
 _atom_site_symmetry_multiplicity
 _atom_site_fract_x
 _atom_site_fract_y
 _atom_site_fract_z
 _atom_site_occupancy
  Sm  Sm0  1  0.87500000  0.12500000  0.75000000  1
  Sm  Sm1  1  0.37500000  0.12500000  0.25000000  1
  Sm  Sm2  1  0.87500000  0.62500000  0.75000000  1
  Sm  Sm3  1  0.87500000  0.12500000  0.25000000  1
  V  V0  1  0.82668600  0.49904200  0.32764400  1
  V  V1  1  0.17139800  0.49904200  0.67235600  1
  V  V2  1  0.24904200  0.42139800  0.17235600  1
  V  V3  1  0.57860200  0.75095800  0.82764400  1
  V  V4  1  0.92331400  0.75095800  0.17235600  1
  V  V5  1  0.24904200  0.07668600  0.82764400  1
  V  V6  1  0.50095800  0.82860200  0.32764400  1
  V  V7  1  0.50095800  0.17331400  0.67235600  1
  O  O0  1  0.50660100  0.35140400  0.15519700  1
  O  O1  1  0.19620700  0.35140400  0.84480300  1
  O  O2  1  0.10140400  0.44620700  0.34480300  1
  O  O3  1  0.55379300  0.89859600  0.65519700  1
  O  O4  1  0.24339900  0.89859600  0.34480300  1
  O  O5  1  0.10140400  0.75660100  0.65519700  1
  O  O6  1  0.64859600  0.80379300  0.15519700  1
  O  O7  1  0.64859600  0.49339900  0.84480300  1
loop_
_geom_bond_atom_site_label_1
_geom_bond_atom_site_label_2
_geom_bond_distance
_geom_bond_site_symmetry_2
O0 V0 2.057984 1_555
O0 Sm1 2.242131 1_555
O0 V2 2.287522 1_555
O0 V5 2.287522 1_554
O1 V1 2.057984 1_555
O1 Sm0 2.242131 1_455
O1 V2 2.287522 1_556
O1 V5 2.287522 1_555
O2 V2 2.057984 1_555
O2 Sm3 2.242131 1_455
O2 V1 2.287522 1_555
O2 V0 2.287522 1_455
O3 V3 2.057984 1_555
O3 Sm0 2.242131 1_565
O3 V6 2.287522 1_555
O3 V7 2.287522 1_565
O4 V4 2.057984 1_455
O4 Sm1 2.242131 1_565
O4 V7 2.287522 1_565
O4 V6 2.287522 1_555
O5 V5 2.057984 1_565
O5 Sm2 2.242131 1_455
O5 V0 2.287522 1_455
O5 V1 2.287522 1_555
O6 V6 2.057984 1_555
O6 Sm3 2.242131 1_565
O6 V4 2.287522 1_555
O6 V3 2.287522 1_554
O7 V7 2.057984 1_555
O7 Sm2 2.242131 1_555
O7 V4 2.287522 1_556
O7 V3 2.287522 1_555
