# generated using pymatgen
data_NaPrZrTiO6
_symmetry_space_group_name_H-M   'P 1'
_cell_length_a   5.63614610
_cell_length_b   5.63614610
_cell_length_c   5.63614610
_cell_angle_alpha   60.00000000
_cell_angle_beta   60.00000000
_cell_angle_gamma   60.00000000
_symmetry_Int_Tables_number   1
_chemical_formula_structural   NaPrZrTiO6
_chemical_formula_sum   'Na1 Pr1 Zr1 Ti1 O6'
_cell_volume   126.59942413
_cell_formula_units_Z   1
loop_
 _symmetry_equiv_pos_site_id
 _symmetry_equiv_pos_as_xyz
  1  'x, y, z'
loop_
 _atom_site_type_symbol
 _atom_site_label
 _atom_site_symmetry_multiplicity
 _atom_site_fract_x
 _atom_site_fract_y
 _atom_site_fract_z
 _atom_site_occupancy
  Na  Na0  1  0.25000000  0.25000000  0.25000000  1
  Pr  Pr0  1  0.75000000  0.75000000  0.75000000  1
  Zr  Zr0  1  0.50000000  0.50000000  0.50000000  1
  Ti  Ti0  1  -0.00000000  -0.00000000  0.00000000  1
  O  O0  1  0.75733805  0.24266195  0.24266195  1
  O  O1  1  0.24266195  0.75733805  0.75733805  1
  O  O2  1  0.75733805  0.24266195  0.75733805  1
  O  O3  1  0.24266195  0.75733805  0.24266195  1
  O  O4  1  0.75733805  0.75733805  0.24266195  1
  O  O5  1  0.24266195  0.24266195  0.75733805  1
loop_
_geom_bond_atom_site_label_1
_geom_bond_atom_site_label_2
_geom_bond_distance
_geom_bond_site_symmetry_2
Na0 O5 2.818680 1_555
Na0 O3 2.818680 1_555
Na0 O0 2.818680 1_555
Na0 O2 2.818680 1_455
Na0 O1 2.818680 1_554
Na0 O3 2.818680 1_545
Na0 O5 2.818680 1_554
Na0 O2 2.818680 1_554
Na0 O4 2.818680 1_545
Na0 O1 2.818680 1_545
Na0 O0 2.818680 1_455
Na0 O4 2.818680 1_455
O0 Ti0 1.934189 1_655
O0 Zr0 2.051168 1_555
O0 Pr0 2.818680 1_554
O0 Pr0 2.818680 1_545
O1 Ti0 1.934189 1_566
O1 Zr0 2.051168 1_555
O1 Pr0 2.818680 1_455
O1 Pr0 2.818680 1_555
O2 Ti0 1.934189 1_656
O2 Zr0 2.051168 1_555
O2 Pr0 2.818680 1_545
O2 Pr0 2.818680 1_555
O3 Ti0 1.934189 1_565
O3 Zr0 2.051168 1_555
O3 Pr0 2.818680 1_554
O3 Pr0 2.818680 1_455
O4 Ti0 1.934189 1_665
O4 Zr0 2.051168 1_555
O4 Pr0 2.818680 1_554
O4 Pr0 2.818680 1_555
O5 Ti0 1.934189 1_556
O5 Zr0 2.051168 1_555
O5 Pr0 2.818680 1_455
O5 Pr0 2.818680 1_545
