# generated using pymatgen
data_Sr2Ge2Pb
_symmetry_space_group_name_H-M   'P 1'
_cell_length_a   7.97363204
_cell_length_b   7.97363204
_cell_length_c   4.66429066
_cell_angle_alpha   90.00000000
_cell_angle_beta   90.00000000
_cell_angle_gamma   150.65905106
_symmetry_Int_Tables_number   1
_chemical_formula_structural   Sr2Ge2Pb
_chemical_formula_sum   'Sr2 Ge2 Pb1'
_cell_volume   145.31117701
_cell_formula_units_Z   1
loop_
 _symmetry_equiv_pos_site_id
 _symmetry_equiv_pos_as_xyz
  1  'x, y, z'
loop_
 _atom_site_type_symbol
 _atom_site_label
 _atom_site_symmetry_multiplicity
 _atom_site_fract_x
 _atom_site_fract_y
 _atom_site_fract_z
 _atom_site_occupancy
  Sr  Sr0  1  0.36831582  0.63168418  0.50000000  1
  Sr  Sr1  1  0.63168418  0.36831582  0.50000000  1
  Ge  Ge0  1  0.20158669  0.79841331  -0.00000000  1
  Ge  Ge1  1  0.79841331  0.20158669  0.00000000  1
  Pb  Pb0  1  0.00000000  -0.00000000  -0.00000000  1
loop_
_geom_bond_atom_site_label_1
_geom_bond_atom_site_label_2
_geom_bond_distance
_geom_bond_site_symmetry_2
Ge0 Ge1 2.511840 1_455
Ge0 Ge1 2.511840 1_565
Ge0 Pb0 3.109950 1_565
Ge0 Sr1 3.268002 1_454
Ge0 Sr1 3.268002 1_455
Ge0 Sr1 3.268002 1_564
Ge0 Sr1 3.268002 1_565
Ge0 Sr0 3.472040 1_555
Ge0 Sr0 3.472040 1_554
Ge1 Pb0 3.109950 1_655
Ge1 Sr0 3.268002 1_545
Ge1 Sr0 3.268002 1_544
Ge1 Sr0 3.268002 1_655
Ge1 Sr0 3.268002 1_654
Ge1 Sr1 3.472040 1_554
Ge1 Sr1 3.472040 1_555
Pb0 Sr0 3.693781 1_444
Pb0 Sr0 3.693781 1_445
Pb0 Sr1 3.693781 1_554
Pb0 Sr1 3.693781 1_555
Pb0 Sr1 3.693781 1_445
Pb0 Sr1 3.693781 1_444
Pb0 Sr0 3.693781 1_555
Pb0 Sr0 3.693781 1_554
