# generated using pymatgen
data_Y6GaCo2
_symmetry_space_group_name_H-M   'P 1'
_cell_length_a   8.34653429
_cell_length_b   8.34653429
_cell_length_c   8.34653429
_cell_angle_alpha   107.52537340
_cell_angle_beta   109.85381703
_cell_angle_gamma   111.05416470
_symmetry_Int_Tables_number   1
_chemical_formula_structural   Y6GaCo2
_chemical_formula_sum   'Y12 Ga2 Co4'
_cell_volume   447.17031764
_cell_formula_units_Z   2
loop_
 _symmetry_equiv_pos_site_id
 _symmetry_equiv_pos_as_xyz
  1  'x, y, z'
loop_
 _atom_site_type_symbol
 _atom_site_label
 _atom_site_symmetry_multiplicity
 _atom_site_fract_x
 _atom_site_fract_y
 _atom_site_fract_z
 _atom_site_occupancy
  Y  Y0  1  0.70434367  0.27098053  0.97532419  1
  Y  Y1  1  0.29565633  0.72901947  0.02467581  1
  Y  Y2  1  0.70434367  0.72901947  0.43336314  1
  Y  Y3  1  0.29565633  0.27098053  0.56663686  1
  Y  Y4  1  0.79863980  0.11816394  0.31952414  1
  Y  Y5  1  0.79863980  0.47911566  0.68047586  1
  Y  Y6  1  0.20136020  0.88183606  0.68047586  1
  Y  Y7  1  0.20136020  0.52088434  0.31952414  1
  Y  Y8  1  0.60177298  0.78467106  0.81710192  1
  Y  Y9  1  0.96756914  0.78467106  0.18289808  1
  Y  Y10  1  0.03243086  0.21532894  0.81710192  1
  Y  Y11  1  0.39822702  0.21532894  0.18289808  1
  Ga  Ga0  1  0.50000000  0.50000000  0.00000000  1
  Ga  Ga1  1  0.50000000  0.00000000  0.50000000  1
  Co  Co0  1  0.88191419  0.50000000  0.38191419  1
  Co  Co1  1  0.11808581  0.50000000  0.61808581  1
  Co  Co2  1  -0.00000000  0.10915963  0.10915963  1
  Co  Co3  1  -0.00000000  0.89084037  0.89084037  1
loop_
_geom_bond_atom_site_label_1
_geom_bond_atom_site_label_2
_geom_bond_distance
_geom_bond_site_symmetry_2
Ga0 Y3 2.991525 1_554
Ga0 Y2 2.991525 1_555
Ga0 Y0 2.991525 1_554
Ga0 Y1 2.991525 1_555
Ga0 Y10 3.211314 1_554
Ga0 Y8 3.211314 1_554
Ga0 Y11 3.211314 1_555
Ga0 Y9 3.211314 1_555
Ga1 Y1 3.315444 1_545
Ga1 Y0 3.315444 1_555
Ga1 Y2 3.315444 1_545
Ga1 Y3 3.315444 1_555
Ga1 Y4 3.336716 1_555
Ga1 Y7 3.336716 1_545
Ga1 Y5 3.336716 1_555
Ga1 Y6 3.336716 1_545
Ga1 Y9 3.659416 1_445
Ga1 Y11 3.659416 1_555
Ga1 Y8 3.659416 1_545
Ga1 Y10 3.659416 1_655
Co0 Co1 2.265402 1_655
Co0 Y2 2.829915 1_555
Co0 Y0 2.829915 1_554
Co0 Y7 2.841541 1_655
Co0 Y6 2.841541 1_655
Co0 Y4 2.841541 1_555
Co0 Y5 2.841541 1_555
Co0 Y9 3.298322 1_555
Co0 Y11 3.298322 1_555
Co1 Y3 2.829915 1_555
Co1 Y1 2.829915 1_556
Co1 Y7 2.841541 1_555
Co1 Y4 2.841541 1_455
Co1 Y5 2.841541 1_455
Co1 Y6 2.841541 1_555
Co1 Y8 3.298322 1_555
Co1 Y10 3.298322 1_555
Co2 Co3 2.154329 1_544
Co2 Y7 2.815818 1_555
Co2 Y4 2.815818 1_455
Co2 Y10 2.894401 1_554
Co2 Y9 2.894401 1_445
Co2 Y11 2.894401 1_555
Co2 Y8 2.894401 1_444
Co2 Y3 3.254637 1_555
Co2 Y0 3.254637 1_454
Co3 Y6 2.815818 1_555
Co3 Y5 2.815818 1_455
Co3 Y11 2.894401 1_566
Co3 Y8 2.894401 1_455
Co3 Y9 2.894401 1_456
Co3 Y10 2.894401 1_565
Co3 Y2 3.254637 1_455
Co3 Y1 3.254637 1_556
