# generated using pymatgen
data_Rb6U3Sb2(PS4)8
_symmetry_space_group_name_H-M   'P 1'
_cell_length_a   15.01444666
_cell_length_b   15.02560890
_cell_length_c   17.61711340
_cell_angle_alpha   64.75757104
_cell_angle_beta   64.66631434
_cell_angle_gamma   59.97540637
_symmetry_Int_Tables_number   1
_chemical_formula_structural   Rb6U3Sb2(PS4)8
_chemical_formula_sum   'Rb12 U6 Sb4 P16 S64'
_cell_volume   2993.49281170
_cell_formula_units_Z   2
loop_
 _symmetry_equiv_pos_site_id
 _symmetry_equiv_pos_as_xyz
  1  'x, y, z'
loop_
 _atom_site_type_symbol
 _atom_site_label
 _atom_site_symmetry_multiplicity
 _atom_site_fract_x
 _atom_site_fract_y
 _atom_site_fract_z
 _atom_site_occupancy
  Rb  Rb0  1  0.86406121  0.24020259  0.58889780  1
  Rb  Rb1  1  0.24016697  0.30685515  0.58893866  1
  Rb  Rb2  1  0.30686402  0.86404617  0.58894186  1
  Rb  Rb3  1  0.36406121  0.80683840  0.08889780  1
  Rb  Rb4  1  0.80686402  0.74014795  0.08894186  1
  Rb  Rb5  1  0.74016697  0.36403921  0.08893866  1
  Rb  Rb6  1  0.13598784  0.75982352  0.41104670  1
  Rb  Rb7  1  0.75987092  0.69313439  0.41104632  1
  Rb  Rb8  1  0.69316023  0.13590569  0.41110609  1
  Rb  Rb9  1  0.63598784  0.19314194  0.91104670  1
  Rb  Rb10  1  0.19316023  0.25982800  0.91110609  1
  Rb  Rb11  1  0.25987092  0.63594837  0.91104632  1
  U  U0  1  0.08220436  0.25016608  0.24981147  1
  U  U1  1  0.24995367  0.41827839  0.25001627  1
  U  U2  1  0.41825650  0.08172673  0.25017903  1
  U  U3  1  0.58220436  0.91781709  0.74981147  1
  U  U4  1  0.91825650  0.74983674  0.75017903  1
  U  U5  1  0.74995367  0.58175067  0.75001627  1
  Sb  Sb0  1  0.46122275  0.46074888  0.61697548  1
  Sb  Sb1  1  0.96122275  0.96105288  0.11697548  1
  Sb  Sb2  1  0.53873911  0.53929250  0.38302557  1
  Sb  Sb3  1  0.03873911  0.03894282  0.88302557  1
  P  P0  1  0.19122239  0.19137268  0.42598907  1
  P  P1  1  0.69122239  0.69141586  0.92598907  1
  P  P2  1  0.80850190  0.80866269  0.57400127  1
  P  P3  1  0.30850190  0.30883415  0.07400127  1
  P  P4  1  0.54135961  0.18746753  0.66534020  1
  P  P5  1  0.18785018  0.60588641  0.66509424  1
  P  P6  1  0.60595614  0.54124069  0.66497107  1
  P  P7  1  0.04135961  0.10583266  0.16534020  1
  P  P8  1  0.10595614  0.68783209  0.16497107  1
  P  P9  1  0.68785018  0.04116917  0.16509424  1
  P  P10  1  0.45891863  0.81215450  0.33478608  1
  P  P11  1  0.81249098  0.39409309  0.33478701  1
  P  P12  1  0.39406703  0.45869259  0.33503346  1
  P  P13  1  0.95891863  0.89414079  0.83478608  1
  P  P14  1  0.89406703  0.31220692  0.83503346  1
  P  P15  1  0.31249098  0.95862892  0.83478701  1
  S  S0  1  0.08514770  0.33612996  0.36764820  1
  S  S1  1  0.33617872  0.21093310  0.36735105  1
  S  S2  1  0.21090657  0.08555629  0.36765125  1
  S  S3  1  0.58514770  0.71107414  0.86764820  1
  S  S4  1  0.71090657  0.83588589  0.86765125  1
  S  S5  1  0.83617872  0.58553713  0.86735105  1
  S  S6  1  0.91471089  0.66399714  0.63242996  1
  S  S7  1  0.66381841  0.78898930  0.63258960  1
  S  S8  1  0.78916571  0.91443615  0.63243407  1
  S  S9  1  0.41471089  0.28886201  0.13242996  1
  S  S10  1  0.28916571  0.16396407  0.13243407  1
  S  S11  1  0.16381841  0.41460269  0.13258960  1
  S  S12  1  0.89653346  0.23121559  0.37307821  1
  S  S13  1  0.23092844  0.49906033  0.37295372  1
  S  S14  1  0.49895299  0.89681037  0.37283817  1
  S  S15  1  0.39653346  0.99917275  0.87307821  1
  S  S16  1  0.99895299  0.73139848  0.87283817  1
  S  S17  1  0.73092844  0.39705751  0.87295372  1
  S  S18  1  0.10327594  0.76861390  0.62711670  1
  S  S19  1  0.76903270  0.50100428  0.62705420  1
  S  S20  1  0.50079509  0.10337028  0.62696479  1
  S  S21  1  0.60327594  0.00099346  0.12711670  1
  S  S22  1  0.00079509  0.26886985  0.12696479  1
  S  S23  1  0.26903270  0.60290882  0.12705420  1
  S  S24  1  0.40031795  0.30402580  0.71702564  1
  S  S25  1  0.30373348  0.57874256  0.71696835  1
  S  S26  1  0.57863175  0.40058336  0.71690393  1
  S  S27  1  0.90031795  0.07863062  0.21702564  1
  S  S28  1  0.07863175  0.80388096  0.21690393  1
  S  S29  1  0.80373348  0.90055561  0.21696835  1
  S  S30  1  0.59970602  0.69598741  0.28300640  1
  S  S31  1  0.69614046  0.42139646  0.28306550  1
  S  S32  1  0.42131326  0.59946376  0.28302367  1
  S  S33  1  0.09970602  0.92130017  0.78300640  1
  S  S34  1  0.92131326  0.19619932  0.78302367  1
  S  S35  1  0.19614046  0.09939758  0.78306550  1
  S  S36  1  0.63374770  0.26219494  0.56465434  1
  S  S37  1  0.26275786  0.53933248  0.56458602  1
  S  S38  1  0.53932142  0.63319175  0.56482383  1
  S  S39  1  0.13374770  0.03940302  0.06465434  1
  S  S40  1  0.03932142  0.76266301  0.06482383  1
  S  S41  1  0.76275786  0.13332364  0.06458602  1
  S  S42  1  0.36632932  0.73758630  0.43543384  1
  S  S43  1  0.73741423  0.46062591  0.43528734  1
  S  S44  1  0.46068532  0.36675091  0.43517471  1
  S  S45  1  0.86632932  0.96065054  0.93543384  1
  S  S46  1  0.96068532  0.23738906  0.93517471  1
  S  S47  1  0.23741423  0.86667251  0.93528734  1
  S  S48  1  0.60950440  0.07818923  0.76464984  1
  S  S49  1  0.07772551  0.54804055  0.76471750  1
  S  S50  1  0.54737169  0.60958187  0.76470204  1
  S  S51  1  0.10950440  0.04765654  0.26464984  1
  S  S52  1  0.04737169  0.57834440  0.26470204  1
  S  S53  1  0.57772551  0.10951645  0.26471750  1
  S  S54  1  0.39046117  0.92195168  0.23545552  1
  S  S55  1  0.92208433  0.45224072  0.23517254  1
  S  S56  1  0.45250830  0.39044891  0.23531541  1
  S  S57  1  0.89046117  0.95213163  0.73545552  1
  S  S58  1  0.95250830  0.42172738  0.73531541  1
  S  S59  1  0.42208433  0.89050242  0.73517254  1
  S  S60  1  0.14809822  0.14825251  0.55518134  1
  S  S61  1  0.64809822  0.64846793  0.05518134  1
  S  S62  1  0.85181256  0.85173030  0.44485370  1
  S  S63  1  0.35181256  0.35160343  0.94485370  1
loop_
_geom_bond_atom_site_label_1
_geom_bond_atom_site_label_2
_geom_bond_distance
_geom_bond_site_symmetry_2
Rb0 S36 3.499940 1_555
Rb0 S43 3.516434 1_555
Rb0 S34 3.590340 1_555
Rb0 S60 3.617268 1_655
Rb0 S12 3.673917 1_555
Rb0 S19 3.697891 1_555
Rb0 S57 3.896916 1_545
Rb0 S26 3.909995 1_555
Rb1 S37 3.504847 1_555
Rb1 S44 3.512499 1_555
Rb1 S35 3.589549 1_555
Rb1 S60 3.626683 1_555
Rb1 S13 3.676464 1_555
Rb1 S20 3.692302 1_555
Rb1 S58 3.884284 1_455
Rb1 S24 3.915996 1_555
Rb2 S38 3.502364 1_555
Rb2 S42 3.512825 1_555
Rb2 S33 3.582389 1_555
Rb2 S60 3.623825 1_565
Rb2 S14 3.671568 1_555
Rb2 S18 3.695524 1_555
Rb2 S59 3.893971 1_555
Rb2 S25 3.915464 1_555
Rb3 S39 3.499940 1_565
Rb3 S47 3.516434 1_554
Rb3 S32 3.590340 1_555
Rb3 S61 3.617268 1_555
Rb3 S15 3.673917 1_554
Rb3 S23 3.697891 1_555
Rb3 S54 3.896916 1_555
Rb3 S28 3.909995 1_555
Rb4 S40 3.502364 1_655
Rb4 S45 3.512825 1_554
Rb4 S30 3.582389 1_555
Rb4 S61 3.623825 1_555
Rb4 S16 3.671568 1_554
Rb4 S21 3.695524 1_565
Rb4 S55 3.893971 1_555
Rb4 S29 3.915464 1_555
Rb5 S41 3.504847 1_555
Rb5 S46 3.512499 1_554
Rb5 S31 3.589549 1_555
Rb5 S61 3.626683 1_555
Rb5 S17 3.676464 1_554
Rb5 S22 3.692302 1_655
Rb5 S56 3.884284 1_555
Rb5 S27 3.915996 1_555
Rb6 S42 3.499972 1_555
Rb6 S37 3.516770 1_555
Rb6 S28 3.591220 1_555
Rb6 S62 3.618980 1_455
Rb6 S18 3.675906 1_555
Rb6 S13 3.697115 1_555
Rb6 S51 3.893264 1_565
Rb6 S32 3.909162 1_555
Rb7 S43 3.504894 1_555
Rb7 S38 3.513188 1_555
Rb7 S29 3.588294 1_555
Rb7 S62 3.625637 1_555
Rb7 S19 3.676286 1_555
Rb7 S14 3.696985 1_555
Rb7 S52 3.882421 1_655
Rb7 S30 3.915290 1_555
Rb8 S44 3.502305 1_555
Rb8 S36 3.511829 1_555
Rb8 S27 3.582647 1_555
Rb8 S62 3.623240 1_545
Rb8 S20 3.670198 1_555
Rb8 S12 3.692023 1_555
Rb8 S53 3.898357 1_555
Rb8 S31 3.917188 1_555
Rb9 S45 3.499972 1_545
Rb9 S41 3.516769 1_556
Rb9 S26 3.591220 1_555
Rb9 S63 3.618980 1_555
Rb9 S21 3.675906 1_556
Rb9 S17 3.697115 1_555
Rb9 S48 3.893264 1_555
Rb9 S34 3.909162 1_555
Rb10 S46 3.502305 1_455
Rb10 S39 3.511830 1_556
Rb10 S24 3.582647 1_555
Rb10 S63 3.623240 1_555
Rb10 S22 3.670198 1_556
Rb10 S15 3.692023 1_545
Rb10 S49 3.898357 1_555
Rb10 S35 3.917189 1_555
Rb11 S47 3.504894 1_555
Rb11 S40 3.513189 1_556
Rb11 S25 3.588294 1_555
Rb11 S63 3.625637 1_555
Rb11 S23 3.676286 1_556
Rb11 S16 3.696985 1_455
Rb11 S50 3.882421 1_555
Rb11 S33 3.915290 1_555
P0 S60 1.979936 1_555
P0 S2 2.082081 1_555
P0 S1 2.085076 1_555
P0 S0 2.085975 1_555
P1 S61 1.979936 1_556
P1 S4 2.082081 1_555
P1 S5 2.085076 1_555
P1 S3 2.085975 1_555
P2 S62 1.979249 1_555
P2 S7 2.082158 1_555
P2 S8 2.085132 1_555
P2 S6 2.086850 1_555
P3 S63 1.979249 1_554
P3 S11 2.082158 1_555
P3 S10 2.085132 1_555
P3 S9 2.086850 1_555
P4 S36 2.021292 1_555
P4 S48 2.050455 1_555
P4 S20 2.067824 1_555
P4 S24 2.092673 1_555
P5 S37 2.020060 1_555
P5 S49 2.055090 1_555
P5 S18 2.064748 1_555
P5 S25 2.088427 1_555
P6 S38 2.017637 1_555
P6 S50 2.056069 1_555
P6 S19 2.066456 1_555
P6 S26 2.090312 1_555
P7 S39 2.021292 1_555
P7 S51 2.050455 1_555
P7 S22 2.067824 1_555
P7 S27 2.092673 1_455
P8 S40 2.017637 1_555
P8 S52 2.056069 1_555
P8 S23 2.066456 1_555
P8 S28 2.090313 1_555
P9 S41 2.020060 1_555
P9 S53 2.055090 1_555
P9 S21 2.064748 1_555
P9 S29 2.088427 1_545
P10 S42 2.021585 1_555
P10 S54 2.054365 1_555
P10 S14 2.065426 1_555
P10 S30 2.088684 1_555
P11 S43 2.019589 1_555
P11 S55 2.051949 1_555
P11 S12 2.065596 1_555
P11 S31 2.092016 1_555
P12 S44 2.017414 1_555
P12 S56 2.055321 1_555
P12 S13 2.066971 1_555
P12 S32 2.091182 1_555
P13 S45 2.021585 1_555
P13 S57 2.054365 1_555
P13 S16 2.065426 1_555
P13 S33 2.088684 1_655
P14 S46 2.017414 1_555
P14 S58 2.055321 1_555
P14 S17 2.066971 1_555
P14 S34 2.091182 1_555
P15 S47 2.019589 1_555
P15 S59 2.051949 1_555
P15 S15 2.065596 1_555
P15 S35 2.092016 1_565
S0 U0 2.898704 1_555
S0 U1 2.903048 1_555
S1 U2 2.897507 1_555
S1 U1 2.901088 1_555
S2 U2 2.896048 1_555
S2 U0 2.903803 1_555
S3 U3 2.898692 1_555
S3 U5 2.903057 1_555
S4 U4 2.896051 1_555
S4 U3 2.903806 1_555
S5 U4 2.897495 1_555
S5 U5 2.901096 1_555
S6 U4 2.900813 1_555
S6 U5 2.903164 1_555
S7 U3 2.895396 1_555
S7 U5 2.900646 1_555
S8 U3 2.892622 1_555
S8 U4 2.905891 1_555
S9 U2 2.900824 1_555
S9 U1 2.903156 1_555
S10 U0 2.892619 1_555
S10 U2 2.905888 1_555
S11 U0 2.895408 1_555
S11 U1 2.900638 1_555
S12 U0 2.766709 1_655
S13 U1 2.758862 1_555
S14 U2 2.758308 1_565
S15 U3 2.766713 1_555
S16 U4 2.758315 1_555
S17 U5 2.758851 1_555
S18 U4 2.757814 1_455
S19 U5 2.758513 1_555
S20 U3 2.767338 1_545
S21 U2 2.757810 1_555
S22 U0 2.767331 1_555
S23 U1 2.758524 1_555
S24 Sb0 2.593046 1_555
S25 Sb0 2.596434 1_555
S26 Sb0 2.593766 1_555
S27 Sb1 2.593046 1_545
S28 Sb1 2.593766 1_455
S29 Sb1 2.596434 1_555
S30 Sb2 2.593114 1_555
S31 Sb2 2.594973 1_555
S32 Sb2 2.595005 1_555
S33 Sb3 2.593114 1_565
S34 Sb3 2.595005 1_655
S35 Sb3 2.594973 1_555
S36 Sb0 3.004752 1_555
S37 Sb0 3.004748 1_555
S38 Sb0 3.003485 1_555
S39 Sb1 3.004752 1_445
S40 Sb1 3.003485 1_455
S41 Sb1 3.004748 1_545
S42 Sb2 3.002196 1_555
S43 Sb2 3.006113 1_555
S44 Sb2 3.004406 1_555
S45 Sb3 3.002196 1_665
S46 Sb3 3.004406 1_655
S47 Sb3 3.006113 1_565
S48 U3 2.767734 1_545
S49 U4 2.754869 1_455
S50 U5 2.763948 1_555
S51 U0 2.767720 1_555
S52 U1 2.763953 1_555
S53 U2 2.754878 1_555
S54 U2 2.762477 1_565
S55 U0 2.760990 1_655
S56 U1 2.763470 1_555
S57 U4 2.762492 1_555
S58 U5 2.763464 1_555
S59 U3 2.760980 1_555
