# generated using pymatgen
data_HoEr
_symmetry_space_group_name_H-M   'P 1'
_cell_length_a   7.12582196
_cell_length_b   7.12582196
_cell_length_c   11.44296618
_cell_angle_alpha   90.00000000
_cell_angle_beta   90.00000000
_cell_angle_gamma   119.99998703
_symmetry_Int_Tables_number   1
_chemical_formula_structural   HoEr
_chemical_formula_sum   'Ho8 Er8'
_cell_volume   503.19838394
_cell_formula_units_Z   8
loop_
 _symmetry_equiv_pos_site_id
 _symmetry_equiv_pos_as_xyz
  1  'x, y, z'
loop_
 _atom_site_type_symbol
 _atom_site_label
 _atom_site_symmetry_multiplicity
 _atom_site_fract_x
 _atom_site_fract_y
 _atom_site_fract_z
 _atom_site_occupancy
  Ho  Ho0_0  1  0.00000000  0.00000000  0.00000000  1
  Ho  Ho0_1  1  0.00000000  0.00000000  0.50000000  1
  Ho  Ho0_2  1  0.00000000  0.50000000  0.00000000  1
  Ho  Ho0_3  1  0.00000000  0.50000000  0.50000000  1
  Ho  Ho0_4  1  0.50000000  0.00000000  0.00000000  1
  Ho  Ho0_5  1  0.50000000  0.00000000  0.50000000  1
  Ho  Ho0_6  1  0.50000000  0.50000000  0.00000000  1
  Ho  Ho0_7  1  0.50000000  0.50000000  0.50000000  1
  Er  Er0_0  1  0.16666650  0.33333350  0.25000000  1
  Er  Er0_1  1  0.16666650  0.33333350  0.75000000  1
  Er  Er0_2  1  0.16666650  0.83333350  0.25000000  1
  Er  Er0_3  1  0.16666650  0.83333350  0.75000000  1
  Er  Er0_4  1  0.66666650  0.33333350  0.25000000  1
  Er  Er0_5  1  0.66666650  0.33333350  0.75000000  1
  Er  Er0_6  1  0.66666650  0.83333350  0.25000000  1
  Er  Er0_7  1  0.66666650  0.83333350  0.75000000  1
loop_
_geom_bond_atom_site_label_1
_geom_bond_atom_site_label_2
_geom_bond_distance
_geom_bond_site_symmetry_2
Ho0_0 Ho0_2 3.562911 1_555
Ho0_0 Ho0_4 3.562911 1_555
Ho0_0 Ho0_4 3.562911 1_455
Ho0_0 Ho0_2 3.562911 1_545
Ho0_0 Ho0_6 3.562912 1_445
Ho0_0 Ho0_6 3.562912 1_555
Ho0_1 Ho0_3 3.562911 1_555
Ho0_1 Ho0_5 3.562911 1_555
Ho0_1 Ho0_5 3.562911 1_455
Ho0_1 Ho0_3 3.562911 1_545
Ho0_1 Ho0_7 3.562912 1_555
Ho0_1 Ho0_7 3.562912 1_445
Ho0_2 Ho0_6 3.562911 1_555
Ho0_2 Ho0_6 3.562911 1_455
Ho0_2 Ho0_4 3.562912 1_565
Ho0_2 Ho0_4 3.562912 1_455
Ho0_3 Ho0_7 3.562911 1_555
Ho0_3 Ho0_7 3.562911 1_455
Ho0_3 Ho0_5 3.562912 1_565
Ho0_3 Ho0_5 3.562912 1_455
Ho0_4 Ho0_6 3.562911 1_555
Ho0_4 Ho0_6 3.562911 1_545
Ho0_5 Ho0_7 3.562911 1_555
Ho0_5 Ho0_7 3.562911 1_545
Er0_0 Ho0_2 3.523532 1_555
Er0_0 Ho0_3 3.523532 1_555
Er0_0 Ho0_6 3.523534 1_555
Er0_0 Ho0_0 3.523534 1_555
Er0_0 Ho0_1 3.523534 1_555
Er0_0 Ho0_7 3.523534 1_555
Er0_0 Er0_2 3.562911 1_555
Er0_0 Er0_4 3.562911 1_455
Er0_0 Er0_4 3.562911 1_555
Er0_0 Er0_2 3.562911 1_545
Er0_0 Er0_6 3.562912 1_445
Er0_0 Er0_6 3.562912 1_555
Er0_1 Ho0_2 3.523532 1_556
Er0_1 Ho0_3 3.523532 1_555
Er0_1 Ho0_0 3.523534 1_556
Er0_1 Ho0_1 3.523534 1_555
Er0_1 Ho0_6 3.523534 1_556
Er0_1 Ho0_7 3.523534 1_555
Er0_1 Er0_3 3.562911 1_555
Er0_1 Er0_5 3.562911 1_455
Er0_1 Er0_5 3.562911 1_555
Er0_1 Er0_3 3.562911 1_545
Er0_1 Er0_7 3.562912 1_445
Er0_1 Er0_7 3.562912 1_555
Er0_2 Ho0_0 3.523532 1_565
Er0_2 Ho0_1 3.523532 1_565
Er0_2 Ho0_4 3.523534 1_565
Er0_2 Ho0_5 3.523534 1_565
Er0_2 Ho0_2 3.523534 1_555
Er0_2 Ho0_3 3.523534 1_555
Er0_2 Er0_6 3.562911 1_455
Er0_2 Er0_6 3.562911 1_555
Er0_2 Er0_4 3.562912 1_565
Er0_2 Er0_4 3.562912 1_455
Er0_3 Ho0_0 3.523532 1_566
Er0_3 Ho0_1 3.523532 1_565
Er0_3 Ho0_4 3.523534 1_566
Er0_3 Ho0_5 3.523534 1_565
Er0_3 Ho0_2 3.523534 1_556
Er0_3 Ho0_3 3.523534 1_555
Er0_3 Er0_7 3.562911 1_455
Er0_3 Er0_7 3.562911 1_555
Er0_3 Er0_5 3.562912 1_565
Er0_3 Er0_5 3.562912 1_455
Er0_4 Ho0_7 3.523532 1_555
Er0_4 Ho0_6 3.523532 1_555
Er0_4 Ho0_5 3.523534 1_555
Er0_4 Ho0_4 3.523534 1_555
Er0_4 Ho0_3 3.523534 1_655
Er0_4 Ho0_2 3.523534 1_655
Er0_4 Er0_6 3.562911 1_555
Er0_4 Er0_6 3.562911 1_545
Er0_5 Ho0_7 3.523532 1_555
Er0_5 Ho0_6 3.523532 1_556
Er0_5 Ho0_5 3.523534 1_555
Er0_5 Ho0_4 3.523534 1_556
Er0_5 Ho0_3 3.523534 1_655
Er0_5 Ho0_2 3.523534 1_656
Er0_5 Er0_7 3.562911 1_545
Er0_5 Er0_7 3.562911 1_555
Er0_6 Ho0_4 3.523532 1_565
Er0_6 Ho0_5 3.523532 1_565
Er0_6 Ho0_0 3.523534 1_665
Er0_6 Ho0_1 3.523534 1_665
Er0_6 Ho0_6 3.523534 1_555
Er0_6 Ho0_7 3.523534 1_555
Er0_7 Ho0_5 3.523532 1_565
Er0_7 Ho0_4 3.523532 1_566
Er0_7 Ho0_0 3.523534 1_666
Er0_7 Ho0_1 3.523534 1_665
Er0_7 Ho0_6 3.523534 1_556
Er0_7 Ho0_7 3.523534 1_555
