# generated using pymatgen
data_Ce2Si5Ni17
_symmetry_space_group_name_H-M   'P 1'
_cell_length_a   7.60876866
_cell_length_b   7.60876866
_cell_length_c   7.60876866
_cell_angle_alpha   99.53436741
_cell_angle_beta   99.53436741
_cell_angle_gamma   131.96847776
_symmetry_Int_Tables_number   1
_chemical_formula_structural   Ce2Si5Ni17
_chemical_formula_sum   'Ce2 Si5 Ni17'
_cell_volume   299.16347514
_cell_formula_units_Z   1
loop_
 _symmetry_equiv_pos_site_id
 _symmetry_equiv_pos_as_xyz
  1  'x, y, z'
loop_
 _atom_site_type_symbol
 _atom_site_label
 _atom_site_symmetry_multiplicity
 _atom_site_fract_x
 _atom_site_fract_y
 _atom_site_fract_z
 _atom_site_occupancy
  Ce  Ce0  1  0.00000000  0.00000000  0.00000000  1
  Ce  Ce1  1  0.25000000  0.75000000  0.50000000  1
  Si  Si0  1  0.62800900  0.89281500  0.26480600  1
  Si  Si1  1  0.63679700  0.37199100  0.26480600  1
  Si  Si2  1  0.10718500  0.37199100  0.73519400  1
  Si  Si3  1  0.62800900  0.36320300  0.73519400  1
  Si  Si4  1  0.50000000  0.50000000  0.00000000  1
  Ni  Ni0  1  0.81903100  0.23856500  0.17099600  1
  Ni  Ni1  1  0.06756800  0.23856500  0.41953400  1
  Ni  Ni2  1  0.87922100  0.80620700  0.31919600  1
  Ni  Ni3  1  0.48701000  0.80620700  0.92698600  1
  Ni  Ni4  1  0.81903100  0.64803500  0.58046600  1
  Ni  Ni5  1  0.06756800  0.64803500  0.82900400  1
  Ni  Ni6  1  0.87922100  0.56002400  0.07301400  1
  Ni  Ni7  1  0.48701000  0.56002400  0.68080400  1
  Ni  Ni8  1  0.43997600  0.51299000  0.31919600  1
  Ni  Ni9  1  0.19379300  0.51299000  0.07301400  1
  Ni  Ni10  1  0.35196500  0.93243200  0.17099600  1
  Ni  Ni11  1  0.76143500  0.93243200  0.58046600  1
  Ni  Ni12  1  0.43997600  0.12077900  0.92698600  1
  Ni  Ni13  1  0.19379300  0.12077900  0.68080400  1
  Ni  Ni14  1  0.35196500  0.18096900  0.41953400  1
  Ni  Ni15  1  0.76143500  0.18096900  0.82900400  1
  Ni  Ni16  1  0.75000000  0.25000000  0.50000000  1
loop_
_geom_bond_atom_site_label_1
_geom_bond_atom_site_label_2
_geom_bond_distance
_geom_bond_site_symmetry_2
Ce0 Ni13 3.005114 1_554
Ce0 Ni2 3.005114 1_445
Ce0 Ni8 3.005118 1_555
Ce0 Ni7 3.005118 1_444
Ce0 Ni6 3.005121 1_445
Ce0 Ni3 3.005121 1_444
Ce0 Ni12 3.005121 1_554
Ce0 Ni9 3.005121 1_555
Ce0 Si4 3.096677 1_445
Ce0 Si4 3.096677 1_555
Ce0 Ni10 3.168215 1_545
Ce0 Ni5 3.168215 1_544
Ce0 Ni14 3.168221 1_555
Ce0 Ni0 3.168221 1_455
Ce0 Ni15 3.168221 1_454
Ce0 Ni4 3.168221 1_444
Ce0 Ni1 3.168224 1_555
Ce0 Ni11 3.168224 1_444
Ce1 Ni1 3.024804 1_555
Ce1 Ni11 3.024804 1_555
Ce1 Ni4 3.024807 1_455
Ce1 Ni15 3.024807 1_565
Ce1 Ni14 3.024807 1_565
Ce1 Ni0 3.024807 1_455
Ce1 Ni5 3.024811 1_555
Ce1 Ni10 3.024811 1_555
Ce1 Ni16 3.096677 1_455
Ce1 Ni16 3.096677 1_565
Ce1 Ni3 3.249195 1_555
Ce1 Ni9 3.249195 1_555
Ce1 Ni12 3.249195 1_565
Ce1 Ni6 3.249195 1_455
Ce1 Ni13 3.249198 1_565
Ce1 Ni2 3.249198 1_455
Ce1 Ni8 3.249199 1_555
Ce1 Ni7 3.249199 1_555
Ce1 Si0 3.290127 1_555
Ce1 Si1 3.290127 1_455
Ce1 Si3 3.290127 1_565
Ce1 Si2 3.290127 1_555
Si0 Si4 2.720827 1_555
Si1 Si4 2.720827 1_555
Si2 Si4 2.720827 1_556
Si3 Si4 2.720827 1_556
Ni0 Si0 2.322627 1_545
Ni0 Si1 2.330923 1_555
Ni0 Ni3 2.441110 1_544
Ni0 Ni6 2.442753 1_555
Ni0 Ni1 2.442858 1_655
Ni0 Ni15 2.478472 1_554
Ni0 Ni9 2.510665 1_655
Ni0 Ni12 2.605062 1_554
Ni0 Ni16 2.640943 1_555
Ni0 Ni10 2.642715 1_545
Ni1 Si0 2.322622 1_445
Ni1 Si2 2.330921 1_555
Ni1 Ni2 2.441113 1_445
Ni1 Ni7 2.442761 1_555
Ni1 Ni14 2.478479 1_555
Ni1 Ni8 2.510675 1_555
Ni1 Ni13 2.605071 1_555
Ni1 Ni16 2.640936 1_455
Ni1 Ni11 2.642710 1_445
Ni2 Si1 2.373329 1_555
Ni2 Si0 2.402486 1_555
Ni2 Ni6 2.419711 1_555
Ni2 Ni4 2.442761 1_555
Ni2 Ni8 2.484907 1_555
Ni2 Si4 2.542676 1_555
Ni3 Si2 2.373327 1_555
Ni3 Si0 2.402487 1_556
Ni3 Ni7 2.419711 1_555
Ni3 Ni5 2.442761 1_555
Ni3 Ni9 2.484907 1_556
Ni3 Si4 2.542680 1_556
Ni4 Si3 2.322627 1_555
Ni4 Si1 2.330923 1_555
Ni4 Ni7 2.441114 1_555
Ni4 Ni5 2.442858 1_655
Ni4 Ni8 2.605066 1_555
Ni5 Si3 2.322621 1_455
Ni5 Si2 2.330929 1_555
Ni5 Ni6 2.441106 1_456
Ni5 Ni9 2.605066 1_556
Ni6 Si1 2.373327 1_555
Ni6 Si3 2.402487 1_554
Ni6 Si4 2.542680 1_555
Ni6 Ni9 2.646233 1_655
Ni7 Si2 2.373324 1_555
Ni7 Si3 2.402485 1_555
Ni7 Si4 2.542673 1_556
Ni7 Ni8 2.646248 1_555
Ni8 Si0 2.373324 1_555
Ni8 Si1 2.402485 1_555
Ni8 Ni9 2.419711 1_555
Ni8 Si4 2.542673 1_555
Ni9 Si0 2.373327 1_555
Ni9 Si2 2.402487 1_554
Ni9 Si4 2.542680 1_555
Ni10 Si1 2.322621 1_565
Ni10 Si0 2.330929 1_555
Ni10 Ni12 2.441106 1_564
Ni10 Ni9 2.442761 1_555
Ni10 Ni14 2.442858 1_565
Ni10 Ni5 2.478473 1_554
Ni10 Ni6 2.510666 1_455
Ni10 Ni3 2.605066 1_554
Ni10 Ni16 2.640943 1_565
Ni11 Si2 2.322622 1_665
Ni11 Si0 2.330921 1_555
Ni11 Ni13 2.441113 1_665
Ni11 Ni8 2.442761 1_555
Ni11 Ni15 2.442858 1_565
Ni11 Ni4 2.478479 1_555
Ni11 Ni7 2.510675 1_555
Ni11 Ni2 2.605071 1_555
Ni11 Ni16 2.640936 1_565
Ni12 Si3 2.373327 1_555
Ni12 Si1 2.402487 1_556
Ni12 Ni13 2.419711 1_555
Ni12 Ni15 2.442753 1_555
Ni12 Ni6 2.484907 1_556
Ni12 Ni5 2.510666 1_545
Ni12 Si4 2.542680 1_556
Ni12 Ni3 2.646233 1_545
Ni13 Si3 2.373329 1_555
Ni13 Si2 2.402486 1_555
Ni13 Ni14 2.442761 1_555
Ni13 Ni7 2.484907 1_555
Ni13 Ni4 2.510664 1_445
Ni13 Si4 2.542676 1_556
Ni13 Ni2 2.646244 1_445
Ni14 Si1 2.322627 1_555
Ni14 Si3 2.330923 1_555
Ni14 Ni8 2.441114 1_555
Ni14 Ni2 2.510664 1_445
Ni14 Ni7 2.605066 1_555
Ni14 Ni16 2.640943 1_555
Ni14 Ni4 2.642715 1_555
Ni15 Si2 2.322627 1_655
Ni15 Si3 2.330923 1_555
Ni15 Ni9 2.441110 1_656
Ni15 Ni3 2.510665 1_545
Ni15 Ni6 2.605062 1_556
Ni15 Ni16 2.640943 1_555
Ni15 Ni5 2.642715 1_655
Ni16 Si1 2.432039 1_555
Ni16 Si2 2.432039 1_655
Ni16 Si0 2.432039 1_545
Ni16 Si3 2.432039 1_555
Ni16 Ni4 2.640943 1_555
Ni16 Ni5 2.640943 1_655
