# generated using pymatgen
data_Ba(H9O5)2
_symmetry_space_group_name_H-M   'P 1'
_cell_length_a   10.22504700
_cell_length_b   9.30672700
_cell_length_c   15.70903439
_cell_angle_alpha   60.12192214
_cell_angle_beta   90.00000000
_cell_angle_gamma   90.00000000
_symmetry_Int_Tables_number   1
_chemical_formula_structural   Ba(H9O5)2
_chemical_formula_sum   'Ba4 H72 O40'
_cell_volume   1296.20788876
_cell_formula_units_Z   4
loop_
 _symmetry_equiv_pos_site_id
 _symmetry_equiv_pos_as_xyz
  1  'x, y, z'
loop_
 _atom_site_type_symbol
 _atom_site_label
 _atom_site_symmetry_multiplicity
 _atom_site_fract_x
 _atom_site_fract_y
 _atom_site_fract_z
 _atom_site_occupancy
  Ba  Ba0  1  0.70082400  0.75941800  0.71826600  1
  Ba  Ba1  1  0.79917600  0.75941800  0.21826600  1
  Ba  Ba2  1  0.29917600  0.24058200  0.28173400  1
  Ba  Ba3  1  0.20082400  0.24058200  0.78173400  1
  H  H0  1  0.08025500  0.62198600  0.07812200  1
  H  H1  1  0.41974500  0.62198600  0.57812200  1
  H  H2  1  0.91974500  0.37801400  0.92187800  1
  H  H3  1  0.58025500  0.37801400  0.42187800  1
  H  H4  1  0.13593400  0.68210400  0.92183600  1
  H  H5  1  0.36406600  0.68210400  0.42183600  1
  H  H6  1  0.86406600  0.31789600  0.07816400  1
  H  H7  1  0.63593400  0.31789600  0.57816400  1
  H  H8  1  0.65090300  0.32013500  0.92820000  1
  H  H9  1  0.84909700  0.32013500  0.42820000  1
  H  H10  1  0.34909700  0.67986500  0.07180000  1
  H  H11  1  0.15090300  0.67986500  0.57180000  1
  H  H12  1  0.49889100  0.29978500  0.07638600  1
  H  H13  1  0.00110900  0.29978500  0.57638600  1
  H  H14  1  0.50110900  0.70021500  0.92361400  1
  H  H15  1  0.99889100  0.70021500  0.42361400  1
  H  H16  1  0.85853700  0.20202300  0.00229000  1
  H  H17  1  0.64146300  0.20202300  0.50229000  1
  H  H18  1  0.14146300  0.79797700  0.99771000  1
  H  H19  1  0.35853700  0.79797700  0.49771000  1
  H  H20  1  0.49179300  0.77590300  0.87378500  1
  H  H21  1  0.00820700  0.77590300  0.37378500  1
  H  H22  1  0.50820700  0.22409700  0.12621500  1
  H  H23  1  0.99179300  0.22409700  0.62621500  1
  H  H24  1  0.40253600  0.93830200  0.92988800  1
  H  H25  1  0.09746400  0.93830200  0.42988800  1
  H  H26  1  0.59746400  0.06169800  0.07011200  1
  H  H27  1  0.90253600  0.06169800  0.57011200  1
  H  H28  1  0.26408000  0.68218900  0.86472900  1
  H  H29  1  0.23592000  0.68218900  0.36472900  1
  H  H30  1  0.73592000  0.31781100  0.13527100  1
  H  H31  1  0.76408000  0.31781100  0.63527100  1
  H  H32  1  0.59665100  0.05503500  0.85848800  1
  H  H33  1  0.90334900  0.05503500  0.35848800  1
  H  H34  1  0.40334900  0.94496500  0.14151200  1
  H  H35  1  0.09665100  0.94496500  0.64151200  1
  H  H36  1  0.79656300  0.73427600  0.95011200  1
  H  H37  1  0.70343700  0.73427600  0.45011200  1
  H  H38  1  0.20343700  0.26572400  0.04988800  1
  H  H39  1  0.29656300  0.26572400  0.54988800  1
  H  H40  1  0.08121900  0.64960400  0.58281300  1
  H  H41  1  0.41878100  0.64960400  0.08281300  1
  H  H42  1  0.91878100  0.35039600  0.41718700  1
  H  H43  1  0.58121900  0.35039600  0.91718700  1
  H  H44  1  0.68011600  0.49570700  0.62448200  1
  H  H45  1  0.81988400  0.49570700  0.12448200  1
  H  H46  1  0.31988400  0.50429300  0.37551800  1
  H  H47  1  0.18011600  0.50429300  0.87551800  1
  H  H48  1  0.54373700  0.94829300  0.32864600  1
  H  H49  1  0.95626300  0.94829300  0.82864600  1
  H  H50  1  0.45626300  0.05170700  0.67135400  1
  H  H51  1  0.04373700  0.05170700  0.17135400  1
  H  H52  1  0.32932800  0.86088700  0.61626200  1
  H  H53  1  0.17067200  0.86088700  0.11626200  1
  H  H54  1  0.67067200  0.13911300  0.38373800  1
  H  H55  1  0.82932800  0.13911300  0.88373800  1
  H  H56  1  0.34263800  0.80501300  0.67020100  1
  H  H57  1  0.15736200  0.80501300  0.17020100  1
  H  H58  1  0.65736200  0.19498700  0.32979900  1
  H  H59  1  0.84263800  0.19498700  0.82979900  1
  H  H60  1  0.88799700  0.02901100  0.41130500  1
  H  H61  1  0.61200300  0.02901100  0.91130500  1
  H  H62  1  0.11200300  0.97098900  0.58869500  1
  H  H63  1  0.38799700  0.97098900  0.08869500  1
  H  H64  1  0.58839300  0.10301500  0.69627300  1
  H  H65  1  0.91160700  0.10301500  0.19627300  1
  H  H66  1  0.41160700  0.89698500  0.30372700  1
  H  H67  1  0.08839300  0.89698500  0.80372700  1
  H  H68  1  0.22774400  0.10185400  0.61879800  1
  H  H69  1  0.27225600  0.10185400  0.11879800  1
  H  H70  1  0.77225600  0.89814600  0.38120200  1
  H  H71  1  0.72774400  0.89814600  0.88120200  1
  O  O0  1  0.16865400  0.69890300  0.85621200  1
  O  O1  1  0.33134600  0.69890300  0.35621200  1
  O  O2  1  0.83134600  0.30109700  0.14378800  1
  O  O3  1  0.66865400  0.30109700  0.64378800  1
  O  O4  1  0.14235700  0.02924500  0.43216900  1
  O  O5  1  0.35764300  0.02924500  0.93216900  1
  O  O6  1  0.85764300  0.97075500  0.56783100  1
  O  O7  1  0.64235700  0.97075500  0.06783100  1
  O  O8  1  0.41783300  0.47539600  0.70955800  1
  O  O9  1  0.08216700  0.47539600  0.20955800  1
  O  O10  1  0.58216700  0.52460400  0.29044200  1
  O  O11  1  0.91783300  0.52460400  0.79044200  1
  O  O12  1  0.23507700  0.40089600  0.89777300  1
  O  O13  1  0.26492300  0.40089600  0.39777300  1
  O  O14  1  0.76492300  0.59910400  0.10222700  1
  O  O15  1  0.73507700  0.59910400  0.60222700  1
  O  O16  1  0.35876100  0.46043600  0.90736500  1
  O  O17  1  0.14123900  0.46043600  0.40736500  1
  O  O18  1  0.64123900  0.53956400  0.09263500  1
  O  O19  1  0.85876100  0.53956400  0.59263500  1
  O  O20  1  0.78594200  0.81569100  0.87986600  1
  O  O21  1  0.71405800  0.81569100  0.37986600  1
  O  O22  1  0.21405800  0.18430900  0.12013400  1
  O  O23  1  0.28594200  0.18430900  0.62013400  1
  O  O24  1  0.42043600  0.70628800  0.50796100  1
  O  O25  1  0.07956400  0.70628800  0.00796100  1
  O  O26  1  0.57956400  0.29371200  0.49203900  1
  O  O27  1  0.92043600  0.29371200  0.99203900  1
  O  O28  1  0.47437300  0.54274500  0.75500000  1
  O  O29  1  0.02562700  0.54274500  0.25500000  1
  O  O30  1  0.52562700  0.45725500  0.24500000  1
  O  O31  1  0.97437300  0.45725500  0.74500000  1
  O  O32  1  0.53247000  0.00446700  0.71477000  1
  O  O33  1  0.96753000  0.00446700  0.21477000  1
  O  O34  1  0.46753000  0.99553300  0.28523000  1
  O  O35  1  0.03247000  0.99553300  0.78523000  1
  O  O36  1  0.71762300  0.01992000  0.55767400  1
  O  O37  1  0.78237700  0.01992000  0.05767400  1
  O  O38  1  0.28237700  0.98008000  0.44232600  1
  O  O39  1  0.21762300  0.98008000  0.94232600  1
loop_
_geom_bond_atom_site_label_1
_geom_bond_atom_site_label_2
_geom_bond_distance
_geom_bond_site_symmetry_2
Ba0 O36 2.485543 1_565
Ba0 O6 2.719086 1_555
Ba0 O32 2.835965 1_565
Ba0 O15 2.895034 1_555
Ba0 O11 2.918267 1_555
Ba0 O28 2.932813 1_555
Ba0 O20 2.966605 1_555
Ba1 O37 2.485543 1_565
Ba1 O7 2.719086 1_555
Ba1 O33 2.835965 1_565
Ba1 O14 2.895034 1_555
Ba1 O10 2.918267 1_555
Ba1 O29 2.932813 1_655
Ba1 O21 2.966605 1_555
Ba2 O38 2.485543 1_545
Ba2 O4 2.719086 1_555
Ba2 O34 2.835965 1_545
Ba2 O13 2.895034 1_555
Ba2 O9 2.918267 1_555
Ba2 O30 2.932813 1_555
Ba2 O22 2.966605 1_555
Ba3 O39 2.485543 1_545
Ba3 O5 2.719086 1_555
Ba3 O35 2.835965 1_545
Ba3 O12 2.895034 1_555
Ba3 O8 2.918267 1_555
Ba3 O31 2.932813 1_455
Ba3 O23 2.966605 1_555
H0 O25 0.984291 1_555
H1 O24 0.984291 1_555
H2 O27 0.984291 1_555
H3 O26 0.984291 1_555
H4 O0 1.019083 1_555
H4 O25 1.586416 1_556
H5 O1 1.019083 1_555
H5 O24 1.586416 1_555
H6 O2 1.019083 1_555
H6 O27 1.586416 1_554
H7 O3 1.019083 1_555
H7 O26 1.586416 1_555
H10 H41 0.753917 1_555
H11 H40 0.753917 1_555
H12 H22 0.754078 1_555
H13 H23 0.754078 1_455
H14 H20 0.754078 1_555
H15 H21 0.754078 1_655
H16 O27 1.008849 1_554
H16 O37 1.663311 1_555
H17 O26 1.008849 1_555
H17 O36 1.663311 1_555
H18 O25 1.008849 1_556
H18 O39 1.663311 1_555
H19 O24 1.008849 1_555
H19 O38 1.663311 1_555
H24 O5 0.979068 1_565
H25 O4 0.979068 1_565
H26 O7 0.979068 1_545
H27 O6 0.979068 1_545
H28 O0 0.986621 1_555
H29 O1 0.986621 1_555
H30 O2 0.986621 1_555
H31 O3 0.986621 1_555
H32 H61 0.755975 1_555
H33 H60 0.755975 1_555
H34 H63 0.755975 1_555
H35 H62 0.755975 1_555
H36 O20 0.985178 1_555
H37 O21 0.985178 1_555
H38 O22 0.985178 1_555
H39 O23 0.985178 1_555
H42 H9 0.753917 1_555
H43 H8 0.753917 1_555
H44 O15 1.014328 1_555
H45 O14 1.014328 1_555
H46 O13 1.014328 1_555
H47 O12 1.014328 1_555
H48 O34 0.983304 1_555
H49 O35 0.983304 1_655
H50 O32 0.983304 1_555
H51 O33 0.983304 1_455
H52 H56 0.753594 1_555
H53 H57 0.753594 1_555
H54 H58 0.753594 1_555
H55 H59 0.753594 1_555
H64 O32 0.993513 1_555
H65 O33 0.993513 1_555
H66 O34 0.993513 1_555
H67 O35 0.993513 1_555
H68 O23 0.979533 1_555
H69 O22 0.979533 1_555
H70 O21 0.979533 1_555
H71 O20 0.979533 1_555
O10 O30 1.297103 1_555
O11 O31 1.297103 1_555
O12 O16 1.418572 1_555
O13 O17 1.418572 1_555
O14 O18 1.418572 1_555
O15 O19 1.418572 1_555
O28 O8 1.297103 1_555
O29 O9 1.297103 1_555
O36 O6 1.487240 1_545
O37 O7 1.487240 1_545
O38 O4 1.487240 1_565
O39 O5 1.487240 1_565
