# generated using pymatgen
data_Mg2TaNb2O8
_symmetry_space_group_name_H-M   'P 1'
_cell_length_a   5.23012300
_cell_length_b   5.98244696
_cell_length_c   10.00458636
_cell_angle_alpha   103.85833502
_cell_angle_beta   93.27404124
_cell_angle_gamma   91.71952983
_symmetry_Int_Tables_number   1
_chemical_formula_structural   Mg2TaNb2O8
_chemical_formula_sum   'Mg4 Ta2 Nb4 O16'
_cell_volume   303.11634808
_cell_formula_units_Z   2
loop_
 _symmetry_equiv_pos_site_id
 _symmetry_equiv_pos_as_xyz
  1  'x, y, z'
loop_
 _atom_site_type_symbol
 _atom_site_label
 _atom_site_symmetry_multiplicity
 _atom_site_fract_x
 _atom_site_fract_y
 _atom_site_fract_z
 _atom_site_occupancy
  Mg  Mg0  1  0.76716400  0.41889300  0.55262700  1
  Mg  Mg1  1  0.74524600  0.86085500  0.46033900  1
  Mg  Mg2  1  0.23283600  0.58110700  0.44737300  1
  Mg  Mg3  1  0.25475400  0.13914500  0.53966100  1
  Ta  Ta0  1  0.75463200  0.65648400  0.99359900  1
  Ta  Ta1  1  0.24536800  0.34351600  0.00640100  1
  Nb  Nb0  1  0.71866200  0.24739200  0.24765600  1
  Nb  Nb1  1  0.71575200  0.00803300  0.76778300  1
  Nb  Nb2  1  0.28133800  0.75260800  0.75234400  1
  Nb  Nb3  1  0.28424800  0.99196700  0.23221700  1
  O  O0  1  0.06734100  0.20532800  0.13632100  1
  O  O1  1  0.38967800  0.09118800  0.88530600  1
  O  O2  1  0.93265900  0.79467100  0.86367900  1
  O  O3  1  0.61032200  0.90881200  0.11469400  1
  O  O4  1  0.58670700  0.44754200  0.11293200  1
  O  O5  1  0.90413800  0.32948600  0.89819200  1
  O  O6  1  0.41329300  0.55245800  0.88706800  1
  O  O7  1  0.09586200  0.67051400  0.10180800  1
  O  O8  1  0.42726100  0.29890300  0.38045200  1
  O  O9  1  0.06562700  0.92024500  0.63232600  1
  O  O10  1  0.37578500  0.84624900  0.38312000  1
  O  O11  1  0.13435200  0.45658200  0.61679200  1
  O  O12  1  0.62421500  0.15375100  0.61688000  1
  O  O13  1  0.86564800  0.54341800  0.38320800  1
  O  O14  1  0.93437300  0.07975500  0.36767400  1
  O  O15  1  0.57273900  0.70109700  0.61954800  1
loop_
_geom_bond_atom_site_label_1
_geom_bond_atom_site_label_2
_geom_bond_distance
_geom_bond_site_symmetry_2
Mg0 O11 1.978604 1_655
Mg0 O12 1.990074 1_555
Mg0 O15 1.992949 1_555
Mg0 O13 2.091596 1_555
Mg0 O8 2.371512 1_555
Mg0 O14 2.607283 1_555
Mg1 O13 2.005908 1_555
Mg1 O10 2.031098 1_555
Mg1 O14 2.039960 1_565
Mg1 O12 2.188374 1_565
Mg1 O15 2.259692 1_555
Mg1 O9 2.288390 1_655
Mg2 O13 1.978604 1_455
Mg2 O10 1.990074 1_555
Mg2 O8 1.992949 1_555
Mg2 O11 2.091596 1_555
Mg2 O15 2.371512 1_555
Mg2 O9 2.607283 1_555
Mg3 O11 2.005908 1_555
Mg3 O12 2.031098 1_555
Mg3 O9 2.039960 1_545
Mg3 O10 2.188374 1_545
Mg3 O8 2.259692 1_555
Mg3 O14 2.288390 1_455
Nb0 O14 2.051919 1_555
Nb0 O13 2.053073 1_555
Nb0 O8 2.060623 1_555
Nb0 O4 2.107896 1_555
Nb0 O3 2.178912 1_545
Nb0 O0 2.180582 1_655
Nb1 O12 1.959941 1_555
Nb1 O2 2.094257 1_545
Nb1 O1 2.130276 1_555
Nb1 O15 2.148703 1_545
Nb1 O5 2.215567 1_555
Nb1 O9 2.336845 1_645
Nb2 O9 2.051919 1_555
Nb2 O11 2.053073 1_555
Nb2 O15 2.060623 1_555
Nb2 O6 2.107896 1_555
Nb2 O1 2.178912 1_565
Nb2 O2 2.180582 1_455
Nb3 O10 1.959941 1_555
Nb3 O0 2.094253 1_565
Nb3 O3 2.130276 1_555
Nb3 O8 2.148703 1_565
Nb3 O7 2.215567 1_555
Nb3 O14 2.336845 1_465
O0 Ta1 1.961289 1_555
O1 Ta1 1.900751 1_556
O2 Ta0 1.961286 1_555
O3 Ta0 1.900751 1_554
O4 Ta1 2.026961 1_555
O4 Ta0 2.127894 1_554
O5 Ta1 2.022597 1_656
O5 Ta0 2.152201 1_555
O6 Ta0 2.026961 1_555
O6 Ta1 2.127894 1_556
O7 Ta0 2.022597 1_454
O7 Ta1 2.152201 1_555
