# generated using pymatgen
data_TePb2S
_symmetry_space_group_name_H-M   'P 1'
_cell_length_a   4.47449400
_cell_length_b   4.47449400
_cell_length_c   6.35085300
_cell_angle_alpha   90.00000000
_cell_angle_beta   90.00000000
_cell_angle_gamma   90.00000000
_symmetry_Int_Tables_number   1
_chemical_formula_structural   TePb2S
_chemical_formula_sum   'Te1 Pb2 S1'
_cell_volume   127.15104113
_cell_formula_units_Z   1
loop_
 _symmetry_equiv_pos_site_id
 _symmetry_equiv_pos_as_xyz
  1  'x, y, z'
loop_
 _atom_site_type_symbol
 _atom_site_label
 _atom_site_symmetry_multiplicity
 _atom_site_fract_x
 _atom_site_fract_y
 _atom_site_fract_z
 _atom_site_occupancy
  Te  Te0  1  0.50000000  0.50000000  0.00000000  1
  Pb  Pb0  1  0.00000000  0.00000000  0.00000000  1
  Pb  Pb1  1  0.50000000  0.50000000  0.50000000  1
  S  S0  1  0.00000000  0.00000000  0.50000000  1
loop_
_geom_bond_atom_site_label_1
_geom_bond_atom_site_label_2
_geom_bond_distance
_geom_bond_site_symmetry_2
Pb0 Te0 3.163945 1_555
Pb0 Te0 3.163945 1_445
Pb0 Te0 3.163945 1_455
Pb0 Te0 3.163945 1_545
Pb0 S0 3.175426 1_555
Pb0 S0 3.175426 1_554
Pb1 S0 3.163945 1_565
Pb1 S0 3.163945 1_655
Pb1 S0 3.163945 1_665
Pb1 S0 3.163945 1_555
Pb1 Te0 3.175426 1_555
Pb1 Te0 3.175426 1_556
