# generated using pymatgen
data_ThZn(N3O13)2
_symmetry_space_group_name_H-M   'P 1'
_cell_length_a   8.54918100
_cell_length_b   8.84741800
_cell_length_c   12.96107536
_cell_angle_alpha   85.30554520
_cell_angle_beta   90.00000000
_cell_angle_gamma   90.00000000
_symmetry_Int_Tables_number   1
_chemical_formula_structural   ThZn(N3O13)2
_chemical_formula_sum   'Th2 Zn2 N12 O52'
_cell_volume   977.06334819
_cell_formula_units_Z   2
loop_
 _symmetry_equiv_pos_site_id
 _symmetry_equiv_pos_as_xyz
  1  'x, y, z'
loop_
 _atom_site_type_symbol
 _atom_site_label
 _atom_site_symmetry_multiplicity
 _atom_site_fract_x
 _atom_site_fract_y
 _atom_site_fract_z
 _atom_site_occupancy
  Th  Th0  1  0.50000000  0.00000000  0.00000000  1
  Th  Th1  1  0.00000000  0.00000000  0.50000000  1
  Zn  Zn0  1  0.50000000  0.50000000  0.50000000  1
  Zn  Zn1  1  0.00000000  0.50000000  0.00000000  1
  N  N0  1  0.87588300  0.79947200  0.68241200  1
  N  N1  1  0.12411700  0.20052800  0.31758800  1
  N  N2  1  0.37588300  0.20052800  0.81758800  1
  N  N3  1  0.62411700  0.79947200  0.18241200  1
  N  N4  1  0.32484400  0.96150500  0.58769500  1
  N  N5  1  0.67515600  0.03849500  0.41230500  1
  N  N6  1  0.82484400  0.03849500  0.91230500  1
  N  N7  1  0.17515600  0.96150500  0.08769500  1
  N  N8  1  0.44821300  0.71199700  0.89164700  1
  N  N9  1  0.55178700  0.28800300  0.10835300  1
  N  N10  1  0.94821300  0.28800300  0.60835300  1
  N  N11  1  0.05178700  0.71199700  0.39164700  1
  O  O0  1  0.78666900  0.85911500  0.61127800  1
  O  O1  1  0.21333100  0.14088500  0.38872200  1
  O  O2  1  0.28666900  0.14088500  0.88872200  1
  O  O3  1  0.71333100  0.85911500  0.11127800  1
  O  O4  1  0.81981400  0.71094300  0.75263300  1
  O  O5  1  0.18018600  0.28905700  0.24736700  1
  O  O6  1  0.31981400  0.28905700  0.74736700  1
  O  O7  1  0.68018600  0.71094300  0.25263300  1
  O  O8  1  0.29442000  0.50304300  0.55875500  1
  O  O9  1  0.70558000  0.49695700  0.44124500  1
  O  O10  1  0.79442000  0.49695700  0.94124500  1
  O  O11  1  0.20558000  0.50304300  0.05875500  1
  O  O12  1  0.51275100  0.71008900  0.98036300  1
  O  O13  1  0.48724900  0.28991100  0.01963700  1
  O  O14  1  0.01275100  0.28991100  0.51963700  1
  O  O15  1  0.98724900  0.71008900  0.48036300  1
  O  O16  1  0.00366400  0.66908600  0.87600200  1
  O  O17  1  0.99633600  0.33091400  0.12399800  1
  O  O18  1  0.50366400  0.33091400  0.62399800  1
  O  O19  1  0.49633600  0.66908600  0.37600200  1
  O  O20  1  0.45759100  0.94976300  0.62281800  1
  O  O21  1  0.54240900  0.05023700  0.37718200  1
  O  O22  1  0.95759100  0.05023700  0.87718200  1
  O  O23  1  0.04240900  0.94976300  0.12281800  1
  O  O24  1  0.42576200  0.58958000  0.85214700  1
  O  O25  1  0.57423800  0.41042000  0.14785300  1
  O  O26  1  0.92576200  0.41042000  0.64785300  1
  O  O27  1  0.07423800  0.58958000  0.35214700  1
  O  O28  1  0.02726000  0.43557100  0.85784300  1
  O  O29  1  0.97274000  0.56442900  0.14215700  1
  O  O30  1  0.52726000  0.56442900  0.64215700  1
  O  O31  1  0.47274000  0.43557100  0.35784300  1
  O  O32  1  0.40906200  0.83980500  0.84758800  1
  O  O33  1  0.59093800  0.16019500  0.15241200  1
  O  O34  1  0.90906200  0.16019500  0.65241200  1
  O  O35  1  0.09093800  0.83980500  0.34758800  1
  O  O36  1  0.27496300  0.59728000  0.70280300  1
  O  O37  1  0.72503700  0.40272000  0.29719700  1
  O  O38  1  0.77496300  0.40272000  0.79719700  1
  O  O39  1  0.22503700  0.59728000  0.20280300  1
  O  O40  1  0.73258400  0.92937500  0.89207300  1
  O  O41  1  0.26741600  0.07062500  0.10792700  1
  O  O42  1  0.23258400  0.07062500  0.60792700  1
  O  O43  1  0.76741600  0.92937500  0.39207300  1
  O  O44  1  0.01977500  0.83498800  0.67742500  1
  O  O45  1  0.98022500  0.16501200  0.32257500  1
  O  O46  1  0.51977500  0.16501200  0.82257500  1
  O  O47  1  0.48022500  0.83498800  0.17742500  1
  O  O48  1  0.26680600  0.86626500  0.52783800  1
  O  O49  1  0.73319400  0.13373500  0.47216200  1
  O  O50  1  0.76680600  0.13373500  0.97216200  1
  O  O51  1  0.23319400  0.86626500  0.02783800  1
loop_
_geom_bond_atom_site_label_1
_geom_bond_atom_site_label_2
_geom_bond_distance
_geom_bond_site_symmetry_2
N0 O4 1.246966 1_555
N0 O44 1.269993 1_655
N0 O0 1.276940 1_555
N1 O5 1.246966 1_555
N1 O45 1.269993 1_455
N1 O1 1.276940 1_555
N2 O6 1.246966 1_555
N2 O46 1.269993 1_555
N2 O2 1.276940 1_555
N3 O7 1.246966 1_555
N3 O47 1.269993 1_555
N3 O3 1.276940 1_555
N4 O20 1.224024 1_555
N4 O42 1.290109 1_565
N4 O48 1.290388 1_555
N5 O21 1.224024 1_555
N5 O43 1.290109 1_545
N5 O49 1.290388 1_555
N6 O22 1.224024 1_555
N6 O40 1.290109 1_545
N6 O50 1.290388 1_555
N7 O23 1.224024 1_555
N7 O41 1.290109 1_565
N7 O51 1.290388 1_555
N8 O24 1.250103 1_555
N8 O32 1.269282 1_555
N8 O12 1.274244 1_555
N9 O25 1.250103 1_555
N9 O33 1.269282 1_555
N9 O13 1.274244 1_555
N10 O26 1.250103 1_555
N10 O34 1.269282 1_555
N10 O14 1.274244 1_655
N11 O27 1.250103 1_555
N11 O35 1.269282 1_555
N11 O15 1.274244 1_455
O0 Th1 2.581833 1_665
O1 Th1 2.581833 1_555
O2 Th0 2.581833 1_556
O3 Th0 2.581833 1_565
O8 Zn0 1.916495 1_555
O9 Zn0 1.916495 1_555
O10 Zn1 1.916495 1_656
O11 Zn1 1.916495 1_555
O12 Th0 2.600492 1_566
O13 Th0 2.600492 1_555
O14 Th1 2.600492 1_555
O15 Th1 2.600492 1_665
O16 Zn1 2.104354 1_556
O17 Zn1 2.104354 1_655
O18 Zn0 2.104354 1_555
O19 Zn0 2.104354 1_555
O28 Zn1 1.986453 1_556
O29 Zn1 1.986453 1_655
O30 Zn0 1.986453 1_555
O31 Zn0 1.986453 1_555
O32 Th0 2.640790 1_566
O33 Th0 2.640790 1_555
O34 Th1 2.640790 1_655
O35 Th1 2.640790 1_565
O40 Th0 2.538510 1_566
O41 Th0 2.538510 1_555
O42 Th1 2.538510 1_555
O43 Th1 2.538510 1_665
O44 Th1 2.626536 1_565
O45 Th1 2.626536 1_655
O46 Th0 2.626536 1_556
O47 Th0 2.626536 1_565
O48 Th1 2.581303 1_565
O49 Th1 2.581303 1_655
O50 Th0 2.581303 1_556
O51 Th0 2.581303 1_565
