# generated using pymatgen
data_MnTe6O13
_symmetry_space_group_name_H-M   'P 1'
_cell_length_a   8.73479893
_cell_length_b   8.73479870
_cell_length_c   8.73479876
_cell_angle_alpha   71.66402911
_cell_angle_beta   71.66402516
_cell_angle_gamma   71.66402153
_symmetry_Int_Tables_number   1
_chemical_formula_structural   MnTe6O13
_chemical_formula_sum   'Mn2 Te12 O26'
_cell_volume   583.03447146
_cell_formula_units_Z   2
loop_
 _symmetry_equiv_pos_site_id
 _symmetry_equiv_pos_as_xyz
  1  'x, y, z'
loop_
 _atom_site_type_symbol
 _atom_site_label
 _atom_site_symmetry_multiplicity
 _atom_site_fract_x
 _atom_site_fract_y
 _atom_site_fract_z
 _atom_site_occupancy
  Mn  Mn0  1  0.75609732  0.75609732  0.75609732  1
  Mn  Mn1  1  0.24390268  0.24390268  0.24390268  1
  Te  Te0  1  0.83380242  0.51376876  0.44124887  1
  Te  Te1  1  0.44124887  0.83380242  0.51376876  1
  Te  Te2  1  0.51376876  0.44124887  0.83380242  1
  Te  Te3  1  0.16619758  0.48623124  0.55875113  1
  Te  Te4  1  0.55875113  0.16619758  0.48623124  1
  Te  Te5  1  0.48623124  0.55875113  0.16619758  1
  Te  Te6  1  0.96993666  0.07996846  0.67618659  1
  Te  Te7  1  0.67618659  0.96993666  0.07996846  1
  Te  Te8  1  0.07996846  0.67618659  0.96993666  1
  Te  Te9  1  0.03006334  0.92003154  0.32381341  1
  Te  Te10  1  0.32381341  0.03006334  0.92003154  1
  Te  Te11  1  0.92003154  0.32381341  0.03006334  1
  O  O0  1  0.89764490  0.57369354  0.60461549  1
  O  O1  1  0.60461549  0.89764490  0.57369354  1
  O  O2  1  0.57369354  0.60461549  0.89764490  1
  O  O3  1  0.10235510  0.42630646  0.39538451  1
  O  O4  1  0.39538451  0.10235510  0.42630646  1
  O  O5  1  0.42630646  0.39538451  0.10235510  1
  O  O6  1  0.86349270  0.96022000  0.61777210  1
  O  O7  1  0.61777210  0.86349270  0.96022000  1
  O  O8  1  0.96022000  0.61777210  0.86349270  1
  O  O9  1  0.13650730  0.03978000  0.38222790  1
  O  O10  1  0.38222790  0.13650730  0.03978000  1
  O  O11  1  0.03978000  0.38222790  0.13650730  1
  O  O12  1  0.58906522  0.58906522  0.58906522  1
  O  O13  1  0.41093478  0.41093478  0.41093478  1
  O  O14  1  0.80551329  0.30120518  0.55235231  1
  O  O15  1  0.55235231  0.80551329  0.30120518  1
  O  O16  1  0.30120518  0.55235231  0.80551329  1
  O  O17  1  0.19448671  0.69879482  0.44764769  1
  O  O18  1  0.44764769  0.19448671  0.69879482  1
  O  O19  1  0.69879482  0.44764769  0.19448671  1
  O  O20  1  0.11110758  0.87460191  0.80063704  1
  O  O21  1  0.80063704  0.11110758  0.87460191  1
  O  O22  1  0.87460191  0.80063704  0.11110758  1
  O  O23  1  0.88889242  0.12539809  0.19936296  1
  O  O24  1  0.19936296  0.88889242  0.12539809  1
  O  O25  1  0.12539809  0.19936296  0.88889242  1
loop_
_geom_bond_atom_site_label_1
_geom_bond_atom_site_label_2
_geom_bond_distance
_geom_bond_site_symmetry_2
Mn0 O7 2.121939 1_555
Mn0 O8 2.121939 1_555
Mn0 O6 2.121939 1_555
Mn0 O0 2.208073 1_555
Mn0 O1 2.208073 1_555
Mn0 O2 2.208073 1_555
Mn1 O10 2.121939 1_555
Mn1 O11 2.121939 1_555
Mn1 O9 2.121939 1_555
Mn1 O3 2.208073 1_555
Mn1 O4 2.208073 1_555
Mn1 O5 2.208073 1_555
O0 Te0 1.943059 1_555
O0 Te3 2.172662 1_655
O1 Te1 1.943059 1_555
O1 Te4 2.172662 1_565
O2 Te2 1.943059 1_555
O2 Te5 2.172662 1_556
O3 Te3 1.943059 1_555
O3 Te0 2.172662 1_455
O4 Te4 1.943059 1_555
O4 Te1 2.172662 1_545
O5 Te5 1.943059 1_555
O5 Te2 2.172662 1_554
O6 Te6 1.861462 1_565
O6 Te9 2.593899 1_655
O7 Te7 1.861462 1_556
O7 Te10 2.593899 1_565
O8 Te8 1.861462 1_655
O8 Te11 2.593899 1_556
O9 Te9 1.861462 1_545
O9 Te6 2.593899 1_455
O10 Te10 1.861462 1_554
O10 Te7 2.593899 1_545
O11 Te11 1.861462 1_455
O11 Te8 2.593899 1_554
O12 Te0 2.140698 1_555
O12 Te1 2.140698 1_555
O12 Te2 2.140698 1_555
O13 Te3 2.140698 1_555
O13 Te4 2.140698 1_555
O13 Te5 2.140698 1_555
O14 Te0 1.858572 1_555
O14 Te6 2.209781 1_555
O15 Te1 1.858572 1_555
O15 Te7 2.209781 1_555
O16 Te2 1.858572 1_555
O16 Te8 2.209781 1_555
O17 Te3 1.858572 1_555
O17 Te9 2.209781 1_555
O18 Te4 1.858572 1_555
O18 Te10 2.209781 1_555
O19 Te5 1.858572 1_555
O19 Te11 2.209781 1_555
O20 Te8 1.922370 1_555
O20 Te6 2.035883 1_465
O21 Te6 1.922370 1_555
O21 Te7 2.035883 1_546
O22 Te7 1.922370 1_555
O22 Te8 2.035883 1_654
O23 Te11 1.922370 1_555
O23 Te9 2.035883 1_645
O24 Te9 1.922370 1_555
O24 Te10 2.035883 1_564
O25 Te10 1.922370 1_555
O25 Te11 2.035883 1_456
