# generated using pymatgen
data_Li3GdBi2
_symmetry_space_group_name_H-M   'P 1'
_cell_length_a   4.66000473
_cell_length_b   4.66000473
_cell_length_c   7.34569693
_cell_angle_alpha   90.00000000
_cell_angle_beta   90.00000000
_cell_angle_gamma   120.00000718
_symmetry_Int_Tables_number   1
_chemical_formula_structural   Li3GdBi2
_chemical_formula_sum   'Li3 Gd1 Bi2'
_cell_volume   138.14536578
_cell_formula_units_Z   1
loop_
 _symmetry_equiv_pos_site_id
 _symmetry_equiv_pos_as_xyz
  1  'x, y, z'
loop_
 _atom_site_type_symbol
 _atom_site_label
 _atom_site_symmetry_multiplicity
 _atom_site_fract_x
 _atom_site_fract_y
 _atom_site_fract_z
 _atom_site_occupancy
  Li  Li0  1  -0.00000000  0.00000000  0.50000000  1
  Li  Li1  1  0.66666700  0.33333300  0.64931578  1
  Li  Li2  1  0.33333300  0.66666700  0.35068422  1
  Gd  Gd0  1  -0.00000000  0.00000000  0.00000000  1
  Bi  Bi0  1  0.66666700  0.33333300  0.24834116  1
  Bi  Bi1  1  0.33333300  0.66666700  0.75165884  1
loop_
_geom_bond_atom_site_label_1
_geom_bond_atom_site_label_2
_geom_bond_distance
_geom_bond_site_symmetry_2
Li0 Li1 2.905437 1_455
Li0 Li2 2.905437 1_545
Li0 Li2 2.905441 1_555
Li0 Li2 2.905441 1_445
Li0 Li1 2.905441 1_555
Li0 Li1 2.905441 1_445
Bi0 Li2 2.793512 1_545
Bi0 Li2 2.793512 1_655
Bi0 Li2 2.793520 1_555
Bi0 Li1 2.945438 1_555
Bi0 Gd0 3.250597 1_655
Bi0 Gd0 3.250600 1_555
Bi0 Gd0 3.250600 1_665
Bi0 Li0 3.264336 1_655
Bi0 Li0 3.264339 1_665
Bi0 Li0 3.264339 1_555
Bi1 Li1 2.793512 1_455
Bi1 Li1 2.793512 1_565
Bi1 Li1 2.793520 1_555
Bi1 Li2 2.945438 1_555
Bi1 Gd0 3.250597 1_566
Bi1 Gd0 3.250600 1_666
Bi1 Gd0 3.250600 1_556
Bi1 Li0 3.264336 1_565
Bi1 Li0 3.264339 1_665
Bi1 Li0 3.264339 1_555
