# generated using pymatgen
data_Na7Si51
_symmetry_space_group_name_H-M   'P 1'
_cell_length_a   10.43649898
_cell_length_b   10.43490769
_cell_length_c   25.61032544
_cell_angle_alpha   89.98154088
_cell_angle_beta   90.00000942
_cell_angle_gamma   120.00519756
_symmetry_Int_Tables_number   1
_chemical_formula_structural   Na7Si51
_chemical_formula_sum   'Na14 Si102'
_cell_volume   2415.27394835
_cell_formula_units_Z   2
loop_
 _symmetry_equiv_pos_site_id
 _symmetry_equiv_pos_as_xyz
  1  'x, y, z'
loop_
 _atom_site_type_symbol
 _atom_site_label
 _atom_site_symmetry_multiplicity
 _atom_site_fract_x
 _atom_site_fract_y
 _atom_site_fract_z
 _atom_site_occupancy
  Na  Na0  1  0.33334576  0.16668328  0.79165376  1
  Na  Na1  1  0.00001119  0.50001103  0.12496866  1
  Na  Na2  1  0.66664878  0.83330604  0.45833447  1
  Na  Na3  1  0.99998724  0.49998372  0.87501324  1
  Na  Na4  1  0.66668522  0.83335996  0.20833153  1
  Na  Na5  1  0.33332181  0.16665597  0.54169834  1
  Na  Na6  1  0.83334121  0.16668879  0.66665536  1
  Na  Na7  1  0.49999179  0.49997821  0.00001164  1
  Na  Na8  1  0.50000504  0.99998062  0.00002630  1
  Na  Na9  1  0.16666700  0.33333300  0.33333300  1
  Na  Na10  1  0.83332796  0.66668638  0.66664070  1
  Na  Na11  1  0.99997492  0.99998410  0.00002336  1
  Na  Na12  1  0.66666700  0.33333300  0.33333300  1
  Na  Na13  1  0.33335808  0.66668290  0.66664364  1
  Si  Si0  1  0.66665642  0.83331103  0.70829960  1
  Si  Si1  1  0.33333404  0.16666763  0.04162325  1
  Si  Si2  1  0.00043922  0.50087891  0.37492803  1
  Si  Si3  1  0.66667758  0.83335497  0.95836640  1
  Si  Si4  1  0.33289378  0.16578809  0.29173897  1
  Si  Si5  1  -0.00000104  0.49999937  0.62504375  1
  Si  Si6  1  0.58558795  0.29279175  0.92099345  1
  Si  Si7  1  0.25221718  0.62628200  0.25440511  1
  Si  Si8  1  0.91879740  0.95936280  0.58771628  1
  Si  Si9  1  0.33828173  0.55397395  0.79046521  1
  Si  Si10  1  0.00479369  0.88714131  0.12400255  1
  Si  Si11  1  0.67126795  0.22019299  0.45705949  1
  Si  Si12  1  0.33828982  0.78429120  0.79047891  1
  Si  Si13  1  0.00487163  0.11745237  0.12378024  1
  Si  Si14  1  0.67225086  0.45157466  0.45698731  1
  Si  Si15  1  0.73730670  0.36870593  0.99820233  1
  Si  Si16  1  0.40384358  0.70207893  0.33152404  1
  Si  Si17  1  0.07047544  0.03532871  0.66486954  1
  Si  Si18  1  0.71577028  0.16164672  0.79046893  1
  Si  Si19  1  0.38237707  0.49512079  0.12378548  1
  Si  Si20  1  0.04920378  0.82815960  0.45696107  1
  Si  Si21  1  0.20725999  0.91452072  0.92102020  1
  Si  Si22  1  0.87425731  0.24851601  0.25436779  1
  Si  Si23  1  0.54058527  0.58117168  0.58772189  1
  Si  Si24  1  0.13136450  0.76273057  0.99827611  1
  Si  Si25  1  0.79753104  0.09506382  0.33154663  1
  Si  Si26  1  0.46474205  0.42948308  0.66488230  1
  Si  Si27  1  0.94587633  0.16164666  0.79046890  1
  Si  Si28  1  0.61274598  0.49512103  0.12378611  1
  Si  Si29  1  0.27895532  0.82816057  0.45696092  1
  Si  Si30  1  0.71569260  0.55397459  0.79046533  1
  Si  Si31  1  0.38234791  0.88714126  0.12400267  1
  Si  Si32  1  0.04892426  0.22019347  0.45705950  1
  Si  Si33  1  0.13139844  0.36870579  0.99820236  1
  Si  Si34  1  0.79823316  0.70207806  0.33152425  1
  Si  Si35  1  0.46485487  0.03532819  0.66486989  1
  Si  Si36  1  0.20720355  0.29279175  0.92099276  1
  Si  Si37  1  0.87406497  0.62628194  0.25440504  1
  Si  Si38  1  0.54056507  0.95936280  0.58771615  1
  Si  Si39  1  0.94600140  0.78429206  0.79047898  1
  Si  Si40  1  0.61258224  0.11745344  0.12378035  1
  Si  Si41  1  0.27932226  0.45157479  0.45698727  1
  Si  Si42  1  0.74774605  0.37387425  0.74567255  1
  Si  Si43  1  0.41453560  0.70730420  0.07895072  1
  Si  Si44  1  0.08111582  0.04038500  0.41226189  1
  Si  Si45  1  0.99505127  0.11269305  0.87620179  1
  Si  Si46  1  0.66206505  0.44647401  0.20960751  1
  Si  Si47  1  0.32854031  0.77952469  0.54266345  1
  Si  Si48  1  0.99504318  0.88237580  0.87618809  1
  Si  Si49  1  0.66108214  0.21509234  0.20967969  1
  Si  Si50  1  0.32846237  0.54921363  0.54288576  1
  Si  Si51  1  0.59602630  0.29796107  0.66846467  1
  Si  Si52  1  0.26285856  0.63133729  0.00179646  1
  Si  Si53  1  0.92948942  0.96458807  0.33514296  1
  Si  Si54  1  0.61756272  0.50502028  0.87619807  1
  Si  Si55  1  0.28412922  0.83850740  0.20970593  1
  Si  Si56  1  0.95095693  0.17154521  0.54288052  1
  Si  Si57  1  0.12607401  0.75214528  0.74564580  1
  Si  Si58  1  0.79274773  0.08549532  0.07894511  1
  Si  Si59  1  0.45907569  0.41815099  0.41229921  1
  Si  Si60  1  0.20196850  0.90393643  0.66839089  1
  Si  Si61  1  0.86859195  0.23718292  0.00178370  1
  Si  Si62  1  0.53580196  0.57160318  0.33512037  1
  Si  Si63  1  0.38745667  0.50502034  0.87619810  1
  Si  Si64  1  0.05437768  0.83850643  0.20970608  1
  Si  Si65  1  0.72058802  0.17154497  0.54287989  1
  Si  Si66  1  0.61764040  0.11269241  0.87620167  1
  Si  Si67  1  0.28440874  0.44647353  0.20960750  1
  Si  Si68  1  0.95098609  0.77952474  0.54266333  1
  Si  Si69  1  0.20193456  0.29796121  0.66846464  1
  Si  Si70  1  0.86847913  0.63133781  0.00179611  1
  Si  Si71  1  0.53509984  0.96458894  0.33514275  1
  Si  Si72  1  0.12613045  0.37387425  0.74567324  1
  Si  Si73  1  0.79276793  0.70730420  0.07895085  1
  Si  Si74  1  0.45926803  0.04038506  0.41226196  1
  Si  Si75  1  0.38733160  0.88237494  0.87618802  1
  Si  Si76  1  0.05401074  0.21509221  0.20967973  1
  Si  Si77  1  0.72075176  0.54921256  0.54288565  1
  Si  Si78  1  0.33335488  0.16671205  0.94901067  1
  Si  Si79  1  0.00023620  0.50047356  0.28244799  1
  Si  Si80  1  0.66666757  0.83333415  0.61562711  1
  Si  Si81  1  0.54199537  0.58399070  0.73954924  1
  Si  Si82  1  0.20865036  0.91730037  0.07291739  1
  Si  Si83  1  0.87584311  0.25168726  0.40616912  1
  Si  Si84  1  0.54209963  0.95814071  0.73958250  1
  Si  Si85  1  0.20866350  0.29152384  0.07293186  1
  Si  Si86  1  0.87595908  0.62492869  0.40617382  1
  Si  Si87  1  0.91604028  0.95814114  0.73958278  1
  Si  Si88  1  0.58286173  0.29152394  0.07293183  1
  Si  Si89  1  0.24896944  0.62492897  0.40617387  1
  Si  Si90  1  0.99997812  0.49995495  0.71765633  1
  Si  Si91  1  0.66666643  0.83333185  0.05103889  1
  Si  Si92  1  0.33309680  0.16619344  0.38421901  1
  Si  Si93  1  0.79133763  0.08267630  0.92711776  1
  Si  Si94  1  0.45748989  0.41497974  0.26049788  1
  Si  Si95  1  0.12468364  0.74936563  0.59374861  1
  Si  Si96  1  0.79123337  0.70852629  0.92708450  1
  Si  Si97  1  0.45737392  0.04173831  0.26049318  1
  Si  Si98  1  0.12467050  0.37514216  0.59373414  1
  Si  Si99  1  0.41729272  0.70852586  0.92708422  1
  Si  Si100  1  0.08436356  0.04173803  0.26049313  1
  Si  Si101  1  0.75047227  0.37514206  0.59373417  1
loop_
_geom_bond_atom_site_label_1
_geom_bond_atom_site_label_2
_geom_bond_distance
_geom_bond_site_symmetry_2
Na6 Si5 3.194535 1_655
Na6 Si0 3.195386 1_545
Na6 Si90 3.283031 1_555
Na6 Si80 3.284043 1_545
Na6 Si84 3.293112 1_545
Na6 Si87 3.293153 1_545
Na6 Si101 3.293333 1_555
Na6 Si98 3.293372 1_655
Na6 Si35 3.376127 1_555
Na6 Si17 3.376212 1_655
Na6 Si51 3.377278 1_555
Na6 Si69 3.377332 1_655
Na6 Si38 3.390466 1_545
Na6 Si65 3.390471 1_555
Na6 Si56 3.390480 1_555
Na6 Si8 3.390506 1_545
Na6 Si18 3.390920 1_555
Na6 Si27 3.390942 1_555
Na6 Si42 3.391416 1_555
Na6 Si72 3.391473 1_655
Na7 Si1 3.194535 1_555
Na7 Si3 3.195386 1_554
Na7 Si78 3.283031 1_554
Na7 Si91 3.284024 1_555
Na7 Si96 3.293112 1_554
Na7 Si99 3.293153 1_554
Na7 Si88 3.293333 1_555
Na7 Si85 3.293354 1_555
Na7 Si70 3.376138 1_555
Na7 Si52 3.376194 1_555
Na7 Si15 3.377278 1_554
Na7 Si33 3.377332 1_554
Na7 Si19 3.390450 1_555
Na7 Si28 3.390453 1_555
Na7 Si73 3.390466 1_555
Na7 Si43 3.390506 1_555
Na7 Si54 3.390920 1_554
Na7 Si63 3.390942 1_554
Na7 Si6 3.391445 1_554
Na7 Si36 3.391484 1_554
Na8 Si1 3.195814 1_565
Na8 Si3 3.195842 1_554
Na8 Si91 3.283273 1_555
Na8 Si78 3.283896 1_564
Na8 Si82 3.293979 1_555
Na8 Si93 3.294017 1_564
Na8 Si88 3.295699 1_565
Na8 Si99 3.295798 1_554
Na8 Si52 3.376814 1_555
Na8 Si61 3.376869 1_565
Na8 Si24 3.377380 1_554
Na8 Si15 3.377758 1_564
Na8 Si43 3.388192 1_555
Na8 Si58 3.389692 1_565
Na8 Si40 3.389701 1_565
Na8 Si6 3.390708 1_564
Na8 Si21 3.391152 1_554
Na8 Si66 3.391226 1_564
Na8 Si75 3.392146 1_554
Na8 Si31 3.395123 1_555
Na9 Si4 3.199321 1_555
Na9 Si2 3.199347 1_555
Na9 Si92 3.284136 1_555
Na9 Si79 3.284143 1_555
Na9 Si94 3.290938 1_555
Na9 Si83 3.290963 1_455
Na9 Si100 3.296329 1_555
Na9 Si89 3.296354 1_555
Na9 Si53 3.377700 1_445
Na9 Si16 3.377706 1_555
Na9 Si62 3.383127 1_555
Na9 Si25 3.383133 1_455
Na9 Si76 3.388945 1_555
Na9 Si41 3.388970 1_555
Na9 Si22 3.389096 1_455
Na9 Si59 3.389101 1_555
Na9 Si67 3.389805 1_555
Na9 Si32 3.389829 1_555
Na9 Si7 3.390276 1_555
Na9 Si44 3.390282 1_555
Na10 Si5 3.195814 1_655
Na10 Si0 3.195817 1_555
Na10 Si80 3.283267 1_555
Na10 Si90 3.283896 1_555
Na10 Si95 3.294004 1_655
Na10 Si81 3.294017 1_555
Na10 Si101 3.295724 1_555
Na10 Si87 3.295798 1_555
Na10 Si17 3.376808 1_665
Na10 Si26 3.376863 1_555
Na10 Si60 3.377380 1_655
Na10 Si51 3.377758 1_555
Na10 Si8 3.388192 1_555
Na10 Si23 3.389692 1_555
Na10 Si77 3.389725 1_555
Na10 Si42 3.390703 1_555
Na10 Si57 3.391147 1_655
Na10 Si30 3.391226 1_555
Na10 Si39 3.392146 1_555
Na10 Si68 3.395147 1_555
Na11 Si3 3.195803 1_554
Na11 Si1 3.195842 1_665
Na11 Si91 3.283283 1_555
Na11 Si78 3.283847 1_664
Na11 Si93 3.293959 1_564
Na11 Si82 3.294054 1_655
Na11 Si85 3.295721 1_665
Na11 Si96 3.295766 1_554
Na11 Si61 3.376832 1_565
Na11 Si70 3.376849 1_555
Na11 Si24 3.377415 1_654
Na11 Si33 3.377725 1_664
Na11 Si73 3.388258 1_555
Na11 Si58 3.389713 1_565
Na11 Si13 3.389751 1_665
Na11 Si36 3.390651 1_664
Na11 Si21 3.391131 1_654
Na11 Si45 3.391143 1_564
Na11 Si48 3.392086 1_554
Na11 Si10 3.395206 1_655
Na12 Si4 3.199327 1_555
Na12 Si2 3.199327 1_655
Na12 Si79 3.284119 1_655
Na12 Si92 3.284137 1_555
Na12 Si94 3.290949 1_555
Na12 Si83 3.290949 1_555
Na12 Si97 3.296327 1_555
Na12 Si86 3.296346 1_555
Na12 Si71 3.377695 1_545
Na12 Si34 3.377706 1_555
Na12 Si25 3.383119 1_555
Na12 Si62 3.383138 1_555
Na12 Si49 3.388946 1_555
Na12 Si14 3.388976 1_555
Na12 Si22 3.389080 1_555
Na12 Si59 3.389109 1_555
Na12 Si46 3.389809 1_555
Na12 Si11 3.389827 1_555
Na12 Si37 3.390273 1_555
Na12 Si74 3.390284 1_555
Na13 Si0 3.195803 1_555
Na13 Si5 3.195842 1_555
Na13 Si80 3.283302 1_555
Na13 Si90 3.283847 1_455
Na13 Si81 3.293959 1_555
Na13 Si95 3.294054 1_555
Na13 Si98 3.295740 1_555
Na13 Si84 3.295766 1_555
Na13 Si35 3.376838 1_565
Na13 Si26 3.376850 1_555
Na13 Si60 3.377415 1_555
Na13 Si69 3.377725 1_555
Na13 Si38 3.388258 1_555
Na13 Si23 3.389713 1_555
Na13 Si50 3.389781 1_555
Na13 Si72 3.390640 1_555
Na13 Si57 3.391102 1_555
Na13 Si9 3.391143 1_555
Na13 Si12 3.392086 1_555
Na13 Si47 3.395224 1_555
Si0 Si80 2.373373 1_555
Si0 Si81 2.390608 1_555
Si0 Si87 2.392181 1_555
Si0 Si84 2.392206 1_555
Si1 Si78 2.371838 1_554
Si1 Si82 2.391389 1_545
Si1 Si85 2.393621 1_555
Si1 Si88 2.393624 1_555
Si2 Si79 2.368448 1_555
Si2 Si89 2.384593 1_555
Si2 Si86 2.384595 1_455
Si2 Si83 2.389439 1_455
Si3 Si91 2.373373 1_556
Si3 Si93 2.390608 1_565
Si3 Si96 2.392181 1_555
Si3 Si99 2.392181 1_555
Si4 Si92 2.368448 1_555
Si4 Si97 2.384595 1_555
Si4 Si94 2.389439 1_555
Si5 Si90 2.371838 1_455
Si5 Si95 2.391389 1_555
Si5 Si98 2.393647 1_555
Si6 Si66 2.364277 1_555
Si6 Si78 2.389762 1_555
Si7 Si79 2.387788 1_555
Si8 Si80 2.388056 1_555
Si10 Si73 2.365911 1_455
Si10 Si64 2.367458 1_555
Si10 Si82 2.380599 1_555
Si10 Si13 2.402873 1_565
Si11 Si74 2.362497 1_555
Si11 Si65 2.369382 1_555
Si11 Si83 2.379712 1_555
Si11 Si14 2.409333 1_555
Si12 Si57 2.365028 1_555
Si12 Si75 2.367533 1_555
Si12 Si84 2.377723 1_555
Si12 Si9 2.403297 1_555
Si13 Si58 2.364867 1_455
Si13 Si76 2.370560 1_555
Si13 Si85 2.377685 1_555
Si14 Si59 2.367572 1_555
Si14 Si77 2.370526 1_555
Si14 Si86 2.374388 1_555
Si15 Si88 2.368585 1_556
Si15 Si70 2.375071 1_556
Si15 Si61 2.376967 1_556
Si15 Si6 2.406470 1_555
Si16 Si89 2.369229 1_555
Si16 Si62 2.373617 1_555
Si16 Si71 2.373995 1_555
Si16 Si7 2.404101 1_555
Si17 Si87 2.368196 1_445
Si17 Si69 2.375078 1_555
Si17 Si60 2.377605 1_545
Si17 Si8 2.405090 1_445
Si18 Si42 2.364550 1_555
Si18 Si66 2.367843 1_555
Si18 Si84 2.375984 1_545
Si18 Si27 2.401502 1_555
Si19 Si43 2.364005 1_555
Si19 Si67 2.369421 1_555
Si19 Si85 2.376151 1_555
Si19 Si28 2.404244 1_555
Si20 Si44 2.363543 1_565
Si20 Si68 2.367423 1_455
Si20 Si86 2.371716 1_455
Si20 Si29 2.397797 1_555
Si21 Si48 2.365028 1_455
Si21 Si75 2.365033 1_555
Si21 Si78 2.389247 1_565
Si21 Si24 2.407080 1_555
Si22 Si49 2.367572 1_555
Si22 Si76 2.367592 1_655
Si22 Si79 2.387924 1_655
Si22 Si25 2.414049 1_555
Si23 Si50 2.364867 1_555
Si23 Si77 2.364891 1_555
Si23 Si80 2.388343 1_555
Si23 Si26 2.404547 1_555
Si24 Si82 2.367929 1_556
Si24 Si70 2.377598 1_456
Si24 Si52 2.377622 1_556
Si25 Si71 2.373585 1_545
Si25 Si53 2.373617 1_545
Si25 Si83 2.378541 1_555
Si26 Si81 2.368128 1_555
Si26 Si51 2.376950 1_555
Si26 Si69 2.376956 1_555
Si27 Si72 2.364547 1_655
Si27 Si45 2.367843 1_555
Si27 Si87 2.375977 1_545
Si28 Si73 2.363997 1_555
Si28 Si46 2.369399 1_555
Si28 Si88 2.376162 1_555
Si29 Si74 2.363530 1_565
Si29 Si47 2.367441 1_555
Si29 Si89 2.371723 1_555
Si30 Si42 2.364304 1_555
Si30 Si54 2.367843 1_555
Si30 Si81 2.377455 1_555
Si30 Si39 2.403291 1_555
Si31 Si43 2.365913 1_555
Si31 Si55 2.367450 1_555
Si31 Si82 2.380602 1_555
Si31 Si40 2.402879 1_565
Si32 Si44 2.362505 1_555
Si32 Si56 2.369394 1_455
Si32 Si83 2.379713 1_455
Si32 Si41 2.409322 1_555
Si33 Si85 2.368597 1_556
Si33 Si52 2.375068 1_556
Si33 Si61 2.376946 1_456
Si33 Si36 2.406490 1_555
Si34 Si86 2.369231 1_555
Si34 Si62 2.373585 1_555
Si34 Si53 2.373995 1_555
Si34 Si37 2.404117 1_555
Si35 Si84 2.368169 1_545
Si35 Si51 2.375081 1_555
Si35 Si60 2.377608 1_545
Si35 Si38 2.405090 1_545
Si36 Si45 2.364263 1_455
Si36 Si63 2.364537 1_555
Si36 Si78 2.389755 1_555
Si37 Si46 2.362497 1_555
Si37 Si64 2.363530 1_655
Si37 Si79 2.387781 1_655
Si38 Si65 2.364007 1_565
Si38 Si47 2.365921 1_555
Si38 Si80 2.388073 1_555
Si39 Si57 2.365060 1_655
Si39 Si48 2.367533 1_555
Si39 Si87 2.377725 1_555
Si40 Si58 2.364864 1_555
Si40 Si49 2.370553 1_555
Si40 Si88 2.377683 1_555
Si41 Si59 2.367592 1_555
Si41 Si50 2.370533 1_555
Si41 Si89 2.374384 1_555
Si42 Si90 2.389746 1_555
Si42 Si51 2.406454 1_555
Si43 Si91 2.388072 1_555
Si43 Si52 2.405106 1_555
Si44 Si92 2.387788 1_555
Si44 Si53 2.404101 1_445
Si45 Si93 2.377453 1_555
Si45 Si48 2.403297 1_545
Si46 Si94 2.379712 1_555
Si46 Si49 2.409333 1_555
Si47 Si95 2.380599 1_555
Si47 Si50 2.402873 1_555
Si48 Si96 2.377723 1_555
Si49 Si97 2.374388 1_555
Si50 Si98 2.377685 1_555
Si52 Si99 2.368170 1_554
Si54 Si6 2.364551 1_555
Si54 Si96 2.375984 1_555
Si54 Si63 2.401502 1_555
Si55 Si7 2.363543 1_555
Si55 Si97 2.371716 1_565
Si55 Si64 2.397797 1_555
Si56 Si8 2.364005 1_545
Si56 Si98 2.376151 1_655
Si56 Si65 2.404244 1_555
Si57 Si90 2.389230 1_455
Si57 Si60 2.407064 1_555
Si58 Si91 2.388359 1_545
Si58 Si61 2.404563 1_555
Si59 Si92 2.387924 1_555
Si59 Si62 2.414049 1_555
Si60 Si95 2.367955 1_555
Si61 Si93 2.368102 1_554
Si62 Si94 2.378541 1_555
Si63 Si9 2.367843 1_555
Si63 Si99 2.375977 1_555
Si66 Si93 2.377455 1_555
Si66 Si75 2.403291 1_545
Si67 Si7 2.362505 1_555
Si67 Si94 2.379713 1_555
Si67 Si76 2.409322 1_555
Si68 Si8 2.365940 1_555
Si68 Si95 2.380602 1_655
Si68 Si77 2.402879 1_555
Si69 Si98 2.368607 1_555
Si69 Si72 2.406458 1_555
Si70 Si96 2.368159 1_554
Si70 Si73 2.405121 1_555
Si71 Si97 2.369231 1_565
Si71 Si74 2.404117 1_565
Si72 Si9 2.364273 1_555
Si72 Si90 2.389765 1_455
Si73 Si91 2.388064 1_555
Si74 Si92 2.387781 1_555
Si75 Si99 2.377725 1_555
Si81 Si9 2.377453 1_555
Si100 Si53 2.369229 1_445
Si100 Si64 2.371723 1_545
Si100 Si76 2.374384 1_555
Si100 Si4 2.384593 1_555
Si101 Si51 2.368611 1_555
Si101 Si65 2.376162 1_555
Si101 Si77 2.377683 1_555
Si101 Si5 2.393624 1_655
