# generated using pymatgen
data_KMg6Cd
_symmetry_space_group_name_H-M   'P 1'
_cell_length_a   5.33582600
_cell_length_b   6.78325800
_cell_length_c   11.59225900
_cell_angle_alpha   90.00000000
_cell_angle_beta   90.00000000
_cell_angle_gamma   90.00000000
_symmetry_Int_Tables_number   1
_chemical_formula_structural   KMg6Cd
_chemical_formula_sum   'K2 Mg12 Cd2'
_cell_volume   419.57351910
_cell_formula_units_Z   2
loop_
 _symmetry_equiv_pos_site_id
 _symmetry_equiv_pos_as_xyz
  1  'x, y, z'
loop_
 _atom_site_type_symbol
 _atom_site_label
 _atom_site_symmetry_multiplicity
 _atom_site_fract_x
 _atom_site_fract_y
 _atom_site_fract_z
 _atom_site_occupancy
  K  K0  1  0.00000000  0.50000000  0.33158000  1
  K  K1  1  0.00000000  0.00000000  0.83158000  1
  Mg  Mg0  1  0.00000000  0.25359000  0.08201700  1
  Mg  Mg1  1  0.00000000  0.74641000  0.08201700  1
  Mg  Mg2  1  0.00000000  0.50000000  0.83673200  1
  Mg  Mg3  1  0.50000000  0.26511600  0.92201500  1
  Mg  Mg4  1  0.50000000  0.73488400  0.92201500  1
  Mg  Mg5  1  0.50000000  0.50000000  0.66693200  1
  Mg  Mg6  1  0.00000000  0.75359000  0.58201700  1
  Mg  Mg7  1  0.00000000  0.24641000  0.58201700  1
  Mg  Mg8  1  0.00000000  0.00000000  0.33673200  1
  Mg  Mg9  1  0.50000000  0.76511600  0.42201500  1
  Mg  Mg10  1  0.50000000  0.23488400  0.42201500  1
  Mg  Mg11  1  0.50000000  0.00000000  0.16693200  1
  Cd  Cd0  1  0.50000000  0.50000000  0.15669000  1
  Cd  Cd1  1  0.50000000  0.00000000  0.65669000  1
loop_
_geom_bond_atom_site_label_1
_geom_bond_atom_site_label_2
_geom_bond_distance
_geom_bond_site_symmetry_2
K0 Mg0 3.341142 1_555
K0 Mg1 3.341142 1_555
K0 Mg7 3.374484 1_555
K0 Mg6 3.374484 1_555
K0 Mg9 3.383911 1_455
K0 Mg9 3.383911 1_555
K0 Mg10 3.383911 1_455
K0 Mg10 3.383911 1_555
K0 Mg8 3.392155 1_565
K0 Mg8 3.392155 1_555
K1 Mg6 3.341142 1_545
K1 Mg7 3.341142 1_555
K1 Mg1 3.374484 1_546
K1 Mg0 3.374484 1_556
K1 Mg3 3.383911 1_555
K1 Mg3 3.383911 1_455
K1 Mg4 3.383911 1_545
K1 Mg4 3.383911 1_445
K1 Mg2 3.392155 1_555
K1 Mg2 3.392155 1_545
Mg0 Mg3 3.250246 1_454
Mg0 Mg3 3.250246 1_554
Mg0 Mg2 3.298295 1_554
Mg0 Mg11 3.323506 1_455
Mg0 Mg11 3.323506 1_555
Mg0 Mg1 3.342925 1_555
Mg0 Mg8 3.417242 1_555
Mg0 Mg1 3.440333 1_545
Mg1 Mg4 3.250246 1_454
Mg1 Mg4 3.250246 1_554
Mg1 Mg2 3.298295 1_554
Mg1 Mg11 3.323506 1_465
Mg1 Mg11 3.323506 1_565
Mg1 Mg8 3.417242 1_565
Mg2 Mg4 3.260931 1_555
Mg2 Mg4 3.260931 1_455
Mg2 Mg3 3.260931 1_555
Mg2 Mg3 3.260931 1_455
Mg2 Mg5 3.315452 1_455
Mg2 Mg5 3.315452 1_555
Mg2 Mg7 3.417242 1_555
Mg2 Mg6 3.417242 1_555
Mg3 Mg4 3.186558 1_555
Mg3 Mg5 3.358916 1_555
Mg4 Mg5 3.358916 1_555
Mg5 Mg7 3.323506 1_555
Mg5 Mg7 3.323506 1_655
Mg5 Mg6 3.323506 1_655
Mg5 Mg6 3.323506 1_555
Mg5 Mg9 3.360772 1_555
Mg6 Mg9 3.250246 1_555
Mg6 Mg9 3.250246 1_455
Mg6 Mg8 3.298295 1_565
Mg6 Mg7 3.342925 1_565
Mg6 Mg7 3.440333 1_555
Mg7 Mg8 3.298295 1_555
Mg8 Mg9 3.260931 1_445
Mg8 Mg9 3.260931 1_545
Mg10 Mg9 3.186558 1_545
Mg10 Mg7 3.250246 1_555
Mg10 Mg7 3.250246 1_655
Mg10 Mg8 3.260931 1_555
Mg10 Mg8 3.260931 1_655
Mg10 Mg11 3.358916 1_555
Mg10 Mg5 3.360772 1_555
Mg11 Mg8 3.315452 1_655
Mg11 Mg8 3.315452 1_555
Mg11 Mg9 3.358916 1_545
Mg11 Mg3 3.360772 1_554
Mg11 Mg4 3.360772 1_544
Cd0 Mg4 3.152647 1_554
Cd0 Mg3 3.152647 1_554
Cd0 Mg1 3.265097 1_555
Cd0 Mg1 3.265097 1_655
Cd0 Mg0 3.265097 1_555
Cd0 Mg0 3.265097 1_655
Cd0 K0 3.350819 1_555
Cd0 K0 3.350819 1_655
Cd0 Mg11 3.393706 1_555
Cd0 Mg11 3.393706 1_565
Cd0 Mg9 3.562877 1_555
Cd0 Mg10 3.562877 1_555
Cd1 Mg10 3.152647 1_555
Cd1 Mg9 3.152647 1_545
Cd1 Mg6 3.265097 1_645
Cd1 Mg6 3.265097 1_545
Cd1 Mg7 3.265097 1_655
Cd1 Mg7 3.265097 1_555
Cd1 K1 3.350819 1_655
Cd1 K1 3.350819 1_555
Cd1 Mg5 3.393706 1_545
Cd1 Mg5 3.393706 1_555
Cd1 Mg3 3.562877 1_555
Cd1 Mg4 3.562877 1_545
