# generated using pymatgen
data_Cs4ZnO3
_symmetry_space_group_name_H-M   'P 1'
_cell_length_a   18.65876235
_cell_length_b   7.06937847
_cell_length_c   7.17065473
_cell_angle_alpha   64.30404948
_cell_angle_beta   90.00000000
_cell_angle_gamma   90.00000000
_symmetry_Int_Tables_number   1
_chemical_formula_structural   Cs4ZnO3
_chemical_formula_sum   'Cs16 Zn4 O12'
_cell_volume   852.31388453
_cell_formula_units_Z   4
loop_
 _symmetry_equiv_pos_site_id
 _symmetry_equiv_pos_as_xyz
  1  'x, y, z'
loop_
 _atom_site_type_symbol
 _atom_site_label
 _atom_site_symmetry_multiplicity
 _atom_site_fract_x
 _atom_site_fract_y
 _atom_site_fract_z
 _atom_site_occupancy
  Cs  Cs0  1  0.07538762  0.34515996  0.15390482  1
  Cs  Cs1  1  0.57538762  0.15484004  0.84609518  1
  Cs  Cs2  1  0.92461238  0.65484004  0.84609518  1
  Cs  Cs3  1  0.42461238  0.84515996  0.15390482  1
  Cs  Cs4  1  0.69597074  0.32255674  0.21163687  1
  Cs  Cs5  1  0.19597074  0.17744326  0.78836313  1
  Cs  Cs6  1  0.30402926  0.67744326  0.78836313  1
  Cs  Cs7  1  0.80402926  0.82255674  0.21163687  1
  Cs  Cs8  1  0.50064508  0.29228966  0.29327805  1
  Cs  Cs9  1  0.00064508  0.20771034  0.70672195  1
  Cs  Cs10  1  0.49935492  0.70771034  0.70672195  1
  Cs  Cs11  1  0.99935492  0.79228966  0.29327805  1
  Cs  Cs12  1  0.80508099  0.28379487  0.67259170  1
  Cs  Cs13  1  0.30508099  0.21620513  0.32740830  1
  Cs  Cs14  1  0.19491901  0.71620513  0.32740830  1
  Cs  Cs15  1  0.69491901  0.78379487  0.67259170  1
  Zn  Zn0  1  0.88331932  0.21162933  0.28649164  1
  Zn  Zn1  1  0.38331932  0.28837067  0.71350836  1
  Zn  Zn2  1  0.11668068  0.78837067  0.71350836  1
  Zn  Zn3  1  0.61668068  0.71162933  0.28649164  1
  O  O0  1  0.90715080  0.18920382  0.03881204  1
  O  O1  1  0.40715080  0.31079618  0.96118796  1
  O  O2  1  0.09284920  0.81079618  0.96118796  1
  O  O3  1  0.59284920  0.68920382  0.03881204  1
  O  O4  1  0.90146422  0.46631433  0.30934235  1
  O  O5  1  0.40146422  0.03368567  0.69065765  1
  O  O6  1  0.09853578  0.53368567  0.69065765  1
  O  O7  1  0.59853578  0.96631433  0.30934235  1
  O  O8  1  0.66397970  0.48398404  0.50706764  1
  O  O9  1  0.16397970  0.01601596  0.49293236  1
  O  O10  1  0.33602030  0.51601596  0.49293236  1
  O  O11  1  0.83602030  0.98398404  0.50706764  1
loop_
_geom_bond_atom_site_label_1
_geom_bond_atom_site_label_2
_geom_bond_distance
_geom_bond_site_symmetry_2
Cs0 O2 2.984414 1_554
Cs0 O9 3.025105 1_555
Cs0 O6 3.026199 1_554
Cs1 O3 2.984414 1_546
Cs1 O8 3.025105 1_555
Cs1 O7 3.026199 1_546
Cs2 O0 2.984414 1_556
Cs2 O11 3.025105 1_555
Cs2 O4 3.026199 1_556
Cs3 O1 2.984414 1_564
Cs3 O10 3.025105 1_555
Cs3 O5 3.026199 1_564
Cs4 O8 2.871035 1_555
Cs4 O7 2.933998 1_545
Cs4 O3 3.028329 1_555
Cs5 O9 2.871035 1_555
Cs5 O6 2.933998 1_555
Cs5 O2 3.028329 1_545
Cs6 O10 2.871035 1_555
Cs6 O5 2.933998 1_565
Cs6 O1 3.028329 1_555
Cs7 O11 2.871035 1_555
Cs7 O4 2.933998 1_555
Cs7 O0 3.028329 1_565
Cs8 O7 2.903395 1_545
Cs8 O1 2.908744 1_554
Cs8 O3 3.118110 1_555
Cs8 O5 3.220080 1_555
Cs9 O6 2.903395 1_555
Cs9 O0 2.908744 1_456
Cs9 O2 3.118110 1_545
Cs9 O4 3.220080 1_455
Cs10 O5 2.903395 1_565
Cs10 O3 2.908744 1_556
Cs10 O1 3.118110 1_555
Cs10 O7 3.220080 1_555
Cs11 O4 2.903395 1_555
Cs11 O2 2.908744 1_654
Cs11 O0 3.118110 1_565
Cs11 O6 3.220080 1_655
Cs12 O11 2.900991 1_545
Cs12 O4 2.961284 1_555
Cs12 O8 2.981015 1_555
Cs12 O0 3.073684 1_556
Cs13 O10 2.900991 1_555
Cs13 O5 2.961284 1_555
Cs13 O9 2.981015 1_555
Cs13 O1 3.073684 1_554
Cs14 O9 2.900991 1_565
Cs14 O6 2.961284 1_555
Cs14 O10 2.981015 1_555
Cs14 O2 3.073684 1_554
Cs15 O8 2.900991 1_555
Cs15 O7 2.961284 1_555
Cs15 O11 2.981015 1_555
Cs15 O3 3.073684 1_556
O0 Zn0 1.902969 1_555
O1 Zn1 1.902969 1_555
O2 Zn2 1.902969 1_555
O3 Zn3 1.902969 1_555
O4 Zn0 1.907611 1_555
O5 Zn1 1.907611 1_555
O6 Zn2 1.907611 1_555
O7 Zn3 1.907611 1_555
O8 Zn3 1.913923 1_555
O9 Zn2 1.913923 1_545
O10 Zn1 1.913923 1_555
O11 Zn0 1.913923 1_565
