# generated using pymatgen
data_ErAgSn
_symmetry_space_group_name_H-M   'P 1'
_cell_length_a   7.31988885
_cell_length_b   7.31988783
_cell_length_c   4.45872097
_cell_angle_alpha   90.00000000
_cell_angle_beta   90.00000000
_cell_angle_gamma   119.99999986
_symmetry_Int_Tables_number   1
_chemical_formula_structural   ErAgSn
_chemical_formula_sum   'Er3 Ag3 Sn3'
_cell_volume   206.89492588
_cell_formula_units_Z   3
loop_
 _symmetry_equiv_pos_site_id
 _symmetry_equiv_pos_as_xyz
  1  'x, y, z'
loop_
 _atom_site_type_symbol
 _atom_site_label
 _atom_site_symmetry_multiplicity
 _atom_site_fract_x
 _atom_site_fract_y
 _atom_site_fract_z
 _atom_site_occupancy
  Er  Er0  1  0.00000000  0.57015500  0.00000000  1
  Er  Er1  1  0.42984500  0.42984500  -0.00000000  1
  Er  Er2  1  0.57015500  -0.00000000  -0.00000000  1
  Ag  Ag0  1  0.00000000  0.24582126  0.50000000  1
  Ag  Ag1  1  0.75417874  0.75417874  0.50000000  1
  Ag  Ag2  1  0.24582126  -0.00000000  0.50000000  1
  Sn  Sn0  1  0.00000000  -0.00000000  0.00000000  1
  Sn  Sn1  1  0.66666700  0.33333300  0.50000000  1
  Sn  Sn2  1  0.33333300  0.66666700  0.50000000  1
loop_
_geom_bond_atom_site_label_1
_geom_bond_atom_site_label_2
_geom_bond_distance
_geom_bond_site_symmetry_2
Er0 Sn2 3.114291 1_554
Er0 Sn2 3.114291 1_555
Er0 Sn1 3.114292 1_455
Er0 Sn1 3.114292 1_454
Er0 Sn0 3.146417 1_565
Er1 Sn2 3.114296 1_554
Er1 Sn2 3.114296 1_555
Er1 Sn1 3.114296 1_555
Er1 Sn1 3.114296 1_554
Er1 Sn0 3.146417 1_555
Er2 Sn1 3.114291 1_555
Er2 Sn1 3.114291 1_554
Er2 Sn2 3.114292 1_545
Er2 Sn2 3.114292 1_544
Er2 Sn0 3.146418 1_655
Ag0 Sn1 2.815444 1_455
Ag0 Sn2 2.815449 1_555
Ag0 Sn0 2.864931 1_555
Ag0 Sn0 2.864931 1_556
Ag0 Ag1 3.116625 1_445
Ag0 Ag2 3.116625 1_555
Ag0 Er0 3.256737 1_556
Ag0 Er0 3.256737 1_555
Ag0 Er2 3.527912 1_456
Ag0 Er2 3.527912 1_455
Ag0 Er1 3.527912 1_555
Ag0 Er1 3.527912 1_556
Ag1 Sn1 2.815451 1_555
Ag1 Sn2 2.815451 1_555
Ag1 Sn0 2.864931 1_665
Ag1 Sn0 2.864931 1_666
Ag1 Ag2 3.116625 1_665
Ag1 Er1 3.256737 1_556
Ag1 Er1 3.256737 1_555
Ag1 Er2 3.527912 1_566
Ag1 Er2 3.527912 1_565
Ag1 Er0 3.527912 1_655
Ag1 Er0 3.527912 1_656
Ag2 Sn2 2.815444 1_545
Ag2 Sn1 2.815449 1_555
Ag2 Sn0 2.864931 1_556
Ag2 Sn0 2.864931 1_555
Ag2 Er2 3.256737 1_556
Ag2 Er2 3.256737 1_555
Ag2 Er1 3.527911 1_556
Ag2 Er1 3.527911 1_555
Ag2 Er0 3.527911 1_546
Ag2 Er0 3.527911 1_545
