# generated using pymatgen
data_YPS
_symmetry_space_group_name_H-M   'P 1'
_cell_length_a   5.33252137
_cell_length_b   5.37521950
_cell_length_c   16.74605214
_cell_angle_alpha   90.00000000
_cell_angle_beta   90.00000000
_cell_angle_gamma   90.00000000
_symmetry_Int_Tables_number   1
_chemical_formula_structural   YPS
_chemical_formula_sum   'Y8 P8 S8'
_cell_volume   480.00001090
_cell_formula_units_Z   8
loop_
 _symmetry_equiv_pos_site_id
 _symmetry_equiv_pos_as_xyz
  1  'x, y, z'
loop_
 _atom_site_type_symbol
 _atom_site_label
 _atom_site_symmetry_multiplicity
 _atom_site_fract_x
 _atom_site_fract_y
 _atom_site_fract_z
 _atom_site_occupancy
  Y  Y0  1  0.25000000  0.48352273  0.36176500  1
  Y  Y1  1  0.25000000  0.98352273  0.13823500  1
  Y  Y2  1  0.75000000  0.51647727  0.63823500  1
  Y  Y3  1  0.75000000  0.01647727  0.86176500  1
  Y  Y4  1  0.25000000  0.01424375  0.64682908  1
  Y  Y5  1  0.25000000  0.51424375  0.85317092  1
  Y  Y6  1  0.75000000  0.98575625  0.35317092  1
  Y  Y7  1  0.75000000  0.48575625  0.14682908  1
  P  P0  1  0.03915025  0.29637575  0.99707041  1
  P  P1  1  0.46084975  0.79637575  0.50292959  1
  P  P2  1  0.53915025  0.70362425  0.00292959  1
  P  P3  1  0.96084975  0.20362425  0.49707041  1
  P  P4  1  0.96084975  0.70362425  0.00292959  1
  P  P5  1  0.53915025  0.20362425  0.49707041  1
  P  P6  1  0.46084975  0.29637575  0.99707041  1
  P  P7  1  0.03915025  0.79637575  0.50292959  1
  S  S0  1  0.25000000  0.48500655  0.18864473  1
  S  S1  1  0.25000000  0.98500655  0.31135527  1
  S  S2  1  0.75000000  0.51499345  0.81135527  1
  S  S3  1  0.75000000  0.01499345  0.68864473  1
  S  S4  1  0.25000000  0.01077383  0.81595876  1
  S  S5  1  0.25000000  0.51077383  0.68404124  1
  S  S6  1  0.75000000  0.98922617  0.18404124  1
  S  S7  1  0.75000000  0.48922617  0.31595876  1
loop_
_geom_bond_atom_site_label_1
_geom_bond_atom_site_label_2
_geom_bond_distance
_geom_bond_site_symmetry_2
P0 P4 2.230674 1_456
P0 P6 2.248722 1_555
P0 Y5 2.905602 1_555
P0 Y1 3.111335 1_546
P0 Y7 3.114979 1_456
P0 Y3 3.126502 1_455
P1 P5 2.230674 1_565
P1 P7 2.248722 1_555
P1 Y4 2.905602 1_565
P1 Y0 3.111335 1_555
P1 Y6 3.114979 1_555
P1 Y2 3.126502 1_555
P2 P6 2.230674 1_554
P2 P4 2.248722 1_555
P2 Y7 2.905602 1_555
P2 Y3 3.111335 1_564
P2 Y5 3.114979 1_554
P2 Y1 3.126502 1_555
P3 P7 2.230674 1_645
P3 P5 2.248722 1_555
P3 Y6 2.905602 1_545
P3 Y2 3.111335 1_555
P3 Y4 3.114979 1_655
P3 Y0 3.126502 1_655
P4 Y7 2.905602 1_555
P4 Y3 3.111335 1_564
P4 Y5 3.114979 1_654
P4 Y1 3.126502 1_655
P5 Y6 2.905602 1_545
P5 Y2 3.111335 1_555
P5 Y4 3.114979 1_555
P5 Y0 3.126502 1_555
P6 Y5 2.905602 1_555
P6 Y1 3.111335 1_546
P6 Y7 3.114979 1_556
P6 Y3 3.126502 1_555
P7 Y4 2.905602 1_565
P7 Y0 3.111335 1_555
P7 Y6 3.114979 1_455
P7 Y2 3.126502 1_455
S0 Y7 2.756684 1_555
S0 Y7 2.756684 1_455
S0 Y1 2.809457 1_555
S0 Y1 2.824676 1_545
S0 Y0 2.899092 1_555
S1 Y6 2.756684 1_455
S1 Y6 2.756684 1_555
S1 Y0 2.809457 1_565
S1 Y0 2.824676 1_555
S1 Y1 2.899092 1_555
S2 Y5 2.756684 1_655
S2 Y5 2.756684 1_555
S2 Y3 2.809457 1_555
S2 Y3 2.824676 1_565
S2 Y2 2.899092 1_555
S3 Y4 2.756684 1_655
S3 Y4 2.756684 1_555
S3 Y2 2.809457 1_545
S3 Y2 2.824676 1_555
S3 Y3 2.899092 1_555
S4 Y5 2.740741 1_545
S4 Y3 2.774579 1_555
S4 Y3 2.774579 1_455
S4 Y5 2.777080 1_555
S4 Y4 2.832316 1_555
S5 Y4 2.740741 1_555
S5 Y2 2.774579 1_455
S5 Y2 2.774579 1_555
S5 Y4 2.777080 1_565
S5 Y5 2.832316 1_555
S6 Y7 2.740741 1_565
S6 Y1 2.774579 1_555
S6 Y1 2.774579 1_655
S6 Y7 2.777080 1_555
S6 Y6 2.832316 1_555
S7 Y6 2.740741 1_555
S7 Y0 2.774579 1_555
S7 Y0 2.774579 1_655
S7 Y6 2.777080 1_545
S7 Y7 2.832316 1_555
