# generated using pymatgen
data_Na2Mo15Se19
_symmetry_space_group_name_H-M   'P 1'
_cell_length_a   9.75643159
_cell_length_b   9.75643159
_cell_length_c   20.40120524
_cell_angle_alpha   76.16574010
_cell_angle_beta   76.16574010
_cell_angle_gamma   60.00000424
_symmetry_Int_Tables_number   1
_chemical_formula_structural   Na2Mo15Se19
_chemical_formula_sum   'Na4 Mo30 Se38'
_cell_volume   1616.40227139
_cell_formula_units_Z   2
loop_
 _symmetry_equiv_pos_site_id
 _symmetry_equiv_pos_as_xyz
  1  'x, y, z'
loop_
 _atom_site_type_symbol
 _atom_site_label
 _atom_site_symmetry_multiplicity
 _atom_site_fract_x
 _atom_site_fract_y
 _atom_site_fract_z
 _atom_site_occupancy
  Na  Na0  1  0.61388559  0.61388559  0.15834324  1
  Na  Na1  1  0.11388559  0.11388559  0.65834324  1
  Na  Na2  1  0.38611441  0.38611441  0.84165676  1
  Na  Na3  1  0.88611441  0.88611441  0.34165676  1
  Mo  Mo0  1  0.49748396  0.68824913  0.44139873  1
  Mo  Mo1  1  0.68824913  0.37286819  0.44139873  1
  Mo  Mo2  1  0.37286819  0.49748396  0.44139873  1
  Mo  Mo3  1  0.99748396  0.87286819  0.94139873  1
  Mo  Mo4  1  0.87286819  0.18824913  0.94139873  1
  Mo  Mo5  1  0.18824913  0.99748396  0.94139873  1
  Mo  Mo6  1  0.50251604  0.31175087  0.55860127  1
  Mo  Mo7  1  0.31175087  0.62713181  0.55860127  1
  Mo  Mo8  1  0.62713181  0.50251604  0.55860127  1
  Mo  Mo9  1  0.00251604  0.12713181  0.05860127  1
  Mo  Mo10  1  0.12713181  0.81175087  0.05860127  1
  Mo  Mo11  1  0.81175087  0.00251604  0.05860127  1
  Mo  Mo12  1  0.72492763  0.86048473  0.86718954  1
  Mo  Mo13  1  0.86048473  0.54739810  0.86718954  1
  Mo  Mo14  1  0.54739810  0.72492763  0.86718954  1
  Mo  Mo15  1  0.22492763  0.04739810  0.36718954  1
  Mo  Mo16  1  0.04739810  0.36048473  0.36718954  1
  Mo  Mo17  1  0.36048473  0.22492763  0.36718954  1
  Mo  Mo18  1  0.27507237  0.13951527  0.13281046  1
  Mo  Mo19  1  0.13951527  0.45260190  0.13281046  1
  Mo  Mo20  1  0.45260190  0.27507237  0.13281046  1
  Mo  Mo21  1  0.77507237  0.95260190  0.63281046  1
  Mo  Mo22  1  0.95260190  0.63951527  0.63281046  1
  Mo  Mo23  1  0.63951527  0.77507237  0.63281046  1
  Mo  Mo24  1  0.59082932  0.90917068  0.75000000  1
  Mo  Mo25  1  0.90917068  0.75000000  0.75000000  1
  Mo  Mo26  1  0.75000000  0.59082932  0.75000000  1
  Mo  Mo27  1  0.09082932  0.25000000  0.25000000  1
  Mo  Mo28  1  0.25000000  0.40917068  0.25000000  1
  Mo  Mo29  1  0.40917068  0.09082932  0.25000000  1
  Se  Se0  1  0.80248372  0.55703826  0.45062950  1
  Se  Se1  1  0.55703826  0.18984853  0.45062950  1
  Se  Se2  1  0.18984853  0.80248372  0.45062950  1
  Se  Se3  1  0.30248372  0.68984853  0.95062950  1
  Se  Se4  1  0.68984853  0.05703826  0.95062950  1
  Se  Se5  1  0.05703826  0.30248372  0.95062950  1
  Se  Se6  1  0.19751628  0.44296174  0.54937050  1
  Se  Se7  1  0.44296174  0.81015147  0.54937050  1
  Se  Se8  1  0.81015147  0.19751628  0.54937050  1
  Se  Se9  1  0.69751628  0.31015147  0.04937050  1
  Se  Se10  1  0.31015147  0.94296174  0.04937050  1
  Se  Se11  1  0.94296174  0.69751628  0.04937050  1
  Se  Se12  1  0.42083045  0.04059266  0.85643150  1
  Se  Se13  1  0.04059266  0.68214538  0.85643150  1
  Se  Se14  1  0.68214538  0.42083045  0.85643150  1
  Se  Se15  1  0.92083045  0.18214538  0.35643150  1
  Se  Se16  1  0.18214538  0.54059266  0.35643150  1
  Se  Se17  1  0.54059266  0.92083045  0.35643150  1
  Se  Se18  1  0.57916955  0.95940734  0.14356850  1
  Se  Se19  1  0.95940734  0.31785462  0.14356850  1
  Se  Se20  1  0.31785462  0.57916955  0.14356850  1
  Se  Se21  1  0.07916955  0.81785462  0.64356850  1
  Se  Se22  1  0.81785462  0.45940734  0.64356850  1
  Se  Se23  1  0.45940734  0.07916955  0.64356850  1
  Se  Se24  1  0.05833970  0.44166030  0.75000000  1
  Se  Se25  1  0.44166030  0.75000000  0.75000000  1
  Se  Se26  1  0.75000000  0.05833970  0.75000000  1
  Se  Se27  1  0.55833970  0.25000000  0.25000000  1
  Se  Se28  1  0.25000000  0.94166030  0.25000000  1
  Se  Se29  1  0.94166030  0.55833970  0.25000000  1
  Se  Se30  1  0.55425771  0.55425771  0.33722688  1
  Se  Se31  1  0.05425771  0.05425771  0.83722688  1
  Se  Se32  1  0.44574229  0.44574229  0.66277312  1
  Se  Se33  1  0.94574229  0.94574229  0.16277312  1
  Se  Se34  1  0.67623764  0.67623764  0.97128708  1
  Se  Se35  1  0.17623764  0.17623764  0.47128708  1
  Se  Se36  1  0.32376236  0.32376236  0.02871292  1
  Se  Se37  1  0.82376236  0.82376236  0.52871292  1
loop_
_geom_bond_atom_site_label_1
_geom_bond_atom_site_label_2
_geom_bond_distance
_geom_bond_site_symmetry_2
Na0 Se20 3.160809 1_555
Na0 Se18 3.160809 1_555
Na0 Se19 3.160809 1_555
Na0 Se30 3.507579 1_555
Na1 Se21 3.160809 1_545
Na1 Se23 3.160809 1_555
Na1 Se22 3.160809 1_455
Na1 Se31 3.507579 1_555
Na2 Se14 3.160809 1_555
Na2 Se12 3.160809 1_555
Na2 Se13 3.160809 1_555
Na2 Se32 3.507579 1_555
Na3 Se15 3.160809 1_565
Na3 Se17 3.160809 1_555
Na3 Se16 3.160809 1_655
Na3 Se33 3.507579 1_555
Mo0 Se30 2.563975 1_555
Mo0 Se7 2.570885 1_555
Mo0 Se2 2.602131 1_555
Mo0 Se0 2.621534 1_555
Mo0 Se17 2.656206 1_555
Mo1 Se30 2.563975 1_555
Mo1 Se8 2.570885 1_555
Mo1 Se0 2.602130 1_555
Mo1 Se1 2.621534 1_555
Mo1 Se15 2.656206 1_555
Mo2 Se30 2.563975 1_555
Mo2 Se6 2.570885 1_555
Mo2 Se1 2.602131 1_555
Mo2 Se2 2.621534 1_555
Mo2 Se16 2.656206 1_555
Mo3 Se31 2.563975 1_665
Mo3 Se11 2.570885 1_556
Mo3 Se4 2.602131 1_565
Mo3 Se3 2.621534 1_655
Mo3 Se13 2.656206 1_655
Mo4 Se31 2.563975 1_655
Mo4 Se9 2.570885 1_556
Mo4 Se5 2.602130 1_655
Mo4 Se4 2.621534 1_555
Mo4 Se14 2.656206 1_555
Mo5 Se31 2.563975 1_565
Mo5 Se10 2.570885 1_556
Mo5 Se3 2.602131 1_555
Mo5 Se5 2.621534 1_565
Mo5 Se12 2.656206 1_565
Mo6 Se32 2.563975 1_555
Mo6 Se1 2.570885 1_555
Mo6 Se8 2.602131 1_555
Mo6 Se6 2.621534 1_555
Mo6 Se23 2.656206 1_555
Mo7 Se32 2.563975 1_555
Mo7 Se2 2.570885 1_555
Mo7 Se6 2.602130 1_555
Mo7 Se7 2.621534 1_555
Mo7 Se21 2.656206 1_555
Mo8 Se32 2.563975 1_555
Mo8 Se0 2.570885 1_555
Mo8 Se7 2.602131 1_555
Mo8 Se8 2.621534 1_555
Mo8 Se22 2.656206 1_555
Mo9 Se33 2.563975 1_445
Mo9 Se5 2.570885 1_554
Mo9 Se10 2.602131 1_545
Mo9 Se9 2.621534 1_455
Mo9 Se19 2.656206 1_455
Mo10 Se33 2.563975 1_455
Mo10 Se3 2.570885 1_554
Mo10 Se11 2.602130 1_455
Mo10 Se10 2.621534 1_555
Mo10 Se20 2.656206 1_555
Mo11 Se33 2.563975 1_545
Mo11 Se4 2.570885 1_554
Mo11 Se9 2.602131 1_555
Mo11 Se11 2.621534 1_545
Mo11 Se18 2.656206 1_545
Mo12 Se34 2.552052 1_555
Mo12 Se12 2.617627 1_565
Mo12 Se13 2.657308 1_655
Mo12 Se4 2.705271 1_565
Mo12 Se26 2.736333 1_565
Mo13 Se34 2.552052 1_555
Mo13 Se13 2.617627 1_655
Mo13 Se14 2.657308 1_555
Mo13 Se5 2.705271 1_655
Mo13 Se24 2.736333 1_655
Mo14 Se34 2.552052 1_555
Mo14 Se14 2.617627 1_555
Mo14 Se12 2.657308 1_565
Mo14 Se3 2.705271 1_555
Mo14 Se25 2.736333 1_555
Mo15 Se35 2.552052 1_555
Mo15 Se15 2.617627 1_455
Mo15 Se17 2.657308 1_545
Mo15 Se2 2.705271 1_545
Mo15 Se28 2.736333 1_545
Mo16 Se35 2.552052 1_555
Mo16 Se16 2.617627 1_555
Mo16 Se15 2.657308 1_455
Mo16 Se0 2.705271 1_455
Mo16 Se29 2.736333 1_455
Mo17 Se35 2.552052 1_555
Mo17 Se17 2.617627 1_545
Mo17 Se16 2.657308 1_555
Mo17 Se1 2.705271 1_555
Mo17 Se27 2.736333 1_555
Mo18 Se36 2.552052 1_555
Mo18 Se18 2.617627 1_545
Mo18 Se19 2.657308 1_455
Mo18 Se10 2.705271 1_545
Mo18 Se28 2.736333 1_545
Mo19 Se36 2.552052 1_555
Mo19 Se19 2.617627 1_455
Mo19 Se20 2.657308 1_555
Mo19 Se11 2.705271 1_455
Mo19 Se29 2.736333 1_455
Mo20 Se36 2.552052 1_555
Mo20 Se20 2.617627 1_555
Mo20 Se18 2.657308 1_545
Mo20 Se9 2.705271 1_555
Mo20 Se27 2.736333 1_555
Mo21 Se37 2.552052 1_555
Mo21 Se21 2.617627 1_655
Mo21 Se23 2.657308 1_565
Mo21 Se8 2.705271 1_565
Mo21 Se26 2.736333 1_565
Mo22 Se37 2.552052 1_555
Mo22 Se22 2.617627 1_555
Mo22 Se21 2.657308 1_655
Mo22 Se6 2.705271 1_655
Mo22 Se24 2.736333 1_655
Mo23 Se37 2.552052 1_555
Mo23 Se23 2.617627 1_565
Mo23 Se22 2.657308 1_555
Mo23 Se7 2.705271 1_555
Mo23 Se25 2.736333 1_555
Mo24 Se12 2.567521 1_565
Mo24 Se23 2.567521 1_565
Mo24 Se25 2.605717 1_555
Mo24 Se26 2.605717 1_565
Mo25 Se21 2.567521 1_655
Mo25 Se13 2.567521 1_655
Mo25 Se24 2.605717 1_655
Mo25 Se26 2.605717 1_565
Mo26 Se14 2.567521 1_555
Mo26 Se22 2.567521 1_555
Mo26 Se24 2.605717 1_655
Mo26 Se25 2.605717 1_555
Mo27 Se15 2.567521 1_455
Mo27 Se19 2.567521 1_455
Mo27 Se29 2.605717 1_455
Mo27 Se28 2.605717 1_545
Mo28 Se20 2.567521 1_555
Mo28 Se16 2.567521 1_555
Mo28 Se29 2.605717 1_455
Mo28 Se27 2.605717 1_555
Mo29 Se17 2.567521 1_545
Mo29 Se18 2.567521 1_545
Mo29 Se27 2.605717 1_555
Mo29 Se28 2.605717 1_545
