# generated using pymatgen
data_DyAlFe
_symmetry_space_group_name_H-M   'P 1'
_cell_length_a   5.31320765
_cell_length_b   5.31312682
_cell_length_c   8.69144600
_cell_angle_alpha   90.00000000
_cell_angle_beta   90.00000000
_cell_angle_gamma   60.91933223
_symmetry_Int_Tables_number   1
_chemical_formula_structural   DyAlFe
_chemical_formula_sum   'Dy4 Al4 Fe4'
_cell_volume   214.42665498
_cell_formula_units_Z   4
loop_
 _symmetry_equiv_pos_site_id
 _symmetry_equiv_pos_as_xyz
  1  'x, y, z'
loop_
 _atom_site_type_symbol
 _atom_site_label
 _atom_site_symmetry_multiplicity
 _atom_site_fract_x
 _atom_site_fract_y
 _atom_site_fract_z
 _atom_site_occupancy
  Dy  Dy0  1  0.33403400  0.33404800  0.55466700  1
  Dy  Dy1  1  0.66831100  0.66833300  0.42623700  1
  Dy  Dy2  1  0.66831100  0.66833300  0.07376300  1
  Dy  Dy3  1  0.33403400  0.33404800  0.94533300  1
  Al  Al0  1  0.99516600  0.99522400  0.48384000  1
  Al  Al1  1  0.99516600  0.99522400  0.01616000  1
  Al  Al2  1  0.83426000  0.33993700  0.75000000  1
  Al  Al3  1  0.33989700  0.83426200  0.75000000  1
  Fe  Fe0  1  0.83338700  0.83342400  0.75000000  1
  Fe  Fe1  1  0.18095200  0.64272000  0.25000000  1
  Fe  Fe2  1  0.64285200  0.18082600  0.25000000  1
  Fe  Fe3  1  0.17363100  0.17362100  0.25000000  1
loop_
_geom_bond_atom_site_label_1
_geom_bond_atom_site_label_2
_geom_bond_distance
_geom_bond_site_symmetry_2
Dy0 Fe1 3.011047 1_555
Dy0 Fe2 3.011382 1_555
Dy0 Fe3 3.028351 1_555
Dy0 Fe0 3.183779 1_545
Dy0 Fe0 3.183884 1_455
Dy0 Dy1 3.259052 1_555
Dy0 Dy1 3.287000 1_545
Dy0 Dy1 3.287079 1_455
Dy0 Dy3 3.395452 1_555
Dy1 Dy2 3.063509 1_555
Dy1 Fe1 3.067985 1_555
Dy1 Fe2 3.068261 1_555
Dy1 Fe2 3.069353 1_565
Dy1 Fe1 3.069754 1_655
Dy1 Fe3 3.098812 1_565
Dy1 Fe3 3.098963 1_655
Dy1 Fe0 3.194517 1_555
Dy2 Fe1 3.067985 1_555
Dy2 Fe2 3.068261 1_555
Dy2 Fe2 3.069353 1_565
Dy2 Fe1 3.069754 1_655
Dy2 Fe3 3.098812 1_565
Dy2 Fe3 3.098963 1_655
Dy2 Fe0 3.194517 1_554
Dy2 Dy3 3.259052 1_554
Dy2 Dy3 3.287000 1_564
Dy2 Dy3 3.287079 1_654
Dy3 Fe1 3.011047 1_556
Dy3 Fe2 3.011382 1_556
Dy3 Fe3 3.028351 1_556
Dy3 Fe0 3.183779 1_545
Dy3 Fe0 3.183884 1_455
Al0 Fe3 2.608044 1_665
Al0 Fe2 2.610132 1_565
Al0 Fe1 2.610685 1_655
Al0 Fe0 2.747291 1_555
Al0 Al2 2.813298 1_565
Al0 Al3 2.813357 1_655
Al0 Dy1 3.035646 1_555
Al0 Dy0 3.132393 1_565
Al0 Dy0 3.132553 1_655
Al0 Dy0 3.164204 1_665
Al0 Dy1 3.165315 1_565
Al0 Dy1 3.165527 1_655
Al1 Fe3 2.608044 1_665
Al1 Fe2 2.610132 1_565
Al1 Fe1 2.610685 1_655
Al1 Fe0 2.747291 1_554
Al1 Al2 2.813298 1_564
Al1 Al3 2.813357 1_654
Al1 Dy2 3.035646 1_555
Al1 Dy3 3.132393 1_564
Al1 Dy3 3.132553 1_654
Al1 Dy3 3.164204 1_664
Al1 Dy2 3.165315 1_565
Al1 Dy2 3.165527 1_655
Al2 Fe0 2.619708 1_555
Al2 Al3 2.662945 1_555
Al2 Fe0 2.693425 1_545
Al2 Al3 2.723881 1_645
Al2 Dy3 3.139053 1_655
Al2 Dy0 3.139053 1_655
Al2 Dy3 3.166704 1_555
Al2 Dy0 3.166704 1_555
Al2 Dy1 3.200739 1_555
Al2 Dy2 3.200739 1_556
Al3 Fe0 2.619854 1_555
Al3 Fe0 2.693360 1_455
Al3 Dy0 3.139128 1_565
Al3 Dy3 3.139128 1_565
Al3 Dy3 3.166559 1_555
Al3 Dy0 3.166559 1_555
Al3 Dy2 3.200788 1_556
Al3 Dy1 3.200788 1_555
Fe1 Fe2 2.488159 1_555
Fe1 Fe3 2.511519 1_555
Fe1 Fe3 2.802045 1_565
Fe1 Fe2 2.898667 1_465
Fe2 Fe3 2.511898 1_555
Fe2 Fe3 2.801733 1_655
