# generated using pymatgen
data_CeGa8Pd3
_symmetry_space_group_name_H-M   'P 1'
_cell_length_a   8.52177590
_cell_length_b   8.52177590
_cell_length_c   8.52177605
_cell_angle_alpha   89.79093351
_cell_angle_beta   89.79093351
_cell_angle_gamma   89.79093866
_symmetry_Int_Tables_number   1
_chemical_formula_structural   CeGa8Pd3
_chemical_formula_sum   'Ce3 Ga24 Pd9'
_cell_volume   618.84471035
_cell_formula_units_Z   3
loop_
 _symmetry_equiv_pos_site_id
 _symmetry_equiv_pos_as_xyz
  1  'x, y, z'
loop_
 _atom_site_type_symbol
 _atom_site_label
 _atom_site_symmetry_multiplicity
 _atom_site_fract_x
 _atom_site_fract_y
 _atom_site_fract_z
 _atom_site_occupancy
  Ce  Ce0  1  0.00000000  0.50000000  0.00000000  1
  Ce  Ce1  1  0.50000000  0.00000000  0.00000000  1
  Ce  Ce2  1  0.00000000  0.00000000  0.50000000  1
  Ga  Ga0  1  0.98904700  0.64232300  0.64232300  1
  Ga  Ga1  1  0.64232300  0.64232300  0.98904700  1
  Ga  Ga2  1  0.64232300  0.98904700  0.64232300  1
  Ga  Ga3  1  0.01095300  0.35767700  0.35767700  1
  Ga  Ga4  1  0.35767700  0.35767700  0.01095300  1
  Ga  Ga5  1  0.35767700  0.01095300  0.35767700  1
  Ga  Ga6  1  0.73864600  0.50000000  0.26135400  1
  Ga  Ga7  1  0.26135400  0.50000000  0.73864600  1
  Ga  Ga8  1  0.50000000  0.26135400  0.73864600  1
  Ga  Ga9  1  0.50000000  0.73864600  0.26135400  1
  Ga  Ga10  1  0.26135400  0.73864600  0.50000000  1
  Ga  Ga11  1  0.73864600  0.26135400  0.50000000  1
  Ga  Ga12  1  0.83948900  0.14128000  0.83948900  1
  Ga  Ga13  1  0.14128000  0.83948900  0.83948900  1
  Ga  Ga14  1  0.83948900  0.83948900  0.14128000  1
  Ga  Ga15  1  0.16051100  0.85872000  0.16051100  1
  Ga  Ga16  1  0.85872000  0.16051100  0.16051100  1
  Ga  Ga17  1  0.16051100  0.16051100  0.85872000  1
  Ga  Ga18  1  0.73226000  0.48537100  0.73226000  1
  Ga  Ga19  1  0.48537100  0.73226000  0.73226000  1
  Ga  Ga20  1  0.73226000  0.73226000  0.48537100  1
  Ga  Ga21  1  0.26774000  0.51462900  0.26774000  1
  Ga  Ga22  1  0.51462900  0.26774000  0.26774000  1
  Ga  Ga23  1  0.26774000  0.26774000  0.51462900  1
  Pd  Pd0  1  0.83743400  0.83743400  0.83743400  1
  Pd  Pd1  1  0.16256600  0.16256600  0.16256600  1
  Pd  Pd2  1  0.66372700  0.33627300  0.00000000  1
  Pd  Pd3  1  0.00000000  0.33627300  0.66372700  1
  Pd  Pd4  1  0.33627300  0.00000000  0.66372700  1
  Pd  Pd5  1  0.33627300  0.66372700  0.00000000  1
  Pd  Pd6  1  0.00000000  0.66372700  0.33627300  1
  Pd  Pd7  1  0.66372700  0.00000000  0.33627300  1
  Pd  Pd8  1  0.50000000  0.50000000  0.50000000  1
loop_
_geom_bond_atom_site_label_1
_geom_bond_atom_site_label_2
_geom_bond_distance
_geom_bond_site_symmetry_2
Ce0 Ga7 3.143985 1_554
Ce0 Ga6 3.143985 1_455
Ce0 Pd5 3.191833 1_555
Ce0 Pd2 3.191833 1_455
Ce0 Pd6 3.191833 1_555
Ce0 Pd3 3.191833 1_554
Ce0 Ga18 3.235625 1_454
Ce0 Ga21 3.235625 1_555
Ce0 Ga3 3.277887 1_555
Ce0 Ga0 3.277887 1_454
Ce0 Ga4 3.277887 1_555
Ce0 Ga1 3.277887 1_454
Ce0 Ga13 3.416833 1_554
Ce0 Ga16 3.416833 1_455
Ce0 Ga14 3.416833 1_455
Ce0 Ga17 3.416833 1_554
Ce0 Pd0 3.473179 1_454
Ce0 Pd1 3.473179 1_555
Ce0 Ga15 3.627875 1_555
Ce0 Ga12 3.627875 1_454
Ce1 Ga9 3.143985 1_545
Ce1 Ga8 3.143985 1_554
Ce1 Pd2 3.191833 1_555
Ce1 Pd5 3.191833 1_545
Ce1 Pd7 3.191833 1_555
Ce1 Pd4 3.191833 1_554
Ce1 Ga19 3.235625 1_544
Ce1 Ga22 3.235625 1_555
Ce1 Ga5 3.277887 1_555
Ce1 Ga2 3.277887 1_544
Ce1 Ga4 3.277887 1_555
Ce1 Ga1 3.277887 1_544
Ce1 Ga12 3.416833 1_554
Ce1 Ga15 3.416833 1_545
Ce1 Ga14 3.416833 1_545
Ce1 Ga17 3.416833 1_554
Ce1 Pd1 3.473179 1_555
Ce1 Pd0 3.473179 1_544
Ce1 Ga16 3.627875 1_555
Ce1 Ga13 3.627875 1_544
Ce2 Ga11 3.143985 1_455
Ce2 Ga10 3.143985 1_545
Ce2 Pd4 3.191833 1_555
Ce2 Pd3 3.191833 1_555
Ce2 Pd6 3.191833 1_545
Ce2 Pd7 3.191833 1_455
Ce2 Ga20 3.235624 1_445
Ce2 Ga23 3.235624 1_555
Ce2 Ga5 3.277887 1_555
Ce2 Ga3 3.277887 1_555
Ce2 Ga0 3.277887 1_445
Ce2 Ga2 3.277887 1_445
Ce2 Ga13 3.416833 1_545
Ce2 Ga12 3.416833 1_455
Ce2 Ga16 3.416833 1_455
Ce2 Ga15 3.416833 1_545
Ce2 Pd0 3.473179 1_445
Ce2 Pd1 3.473179 1_555
Ce2 Ga17 3.627875 1_555
Ce2 Ga14 3.627875 1_445
Ga0 Pd3 2.615146 1_655
Ga0 Pd6 2.615146 1_655
Ga0 Ga18 2.677041 1_555
Ga0 Ga20 2.677041 1_555
Ga0 Pd0 2.680897 1_555
Ga0 Ga13 2.716904 1_655
Ga0 Ga10 2.741491 1_655
Ga0 Ga7 2.741491 1_655
Ga1 Pd2 2.615146 1_556
Ga1 Pd5 2.615146 1_556
Ga1 Ga18 2.677041 1_555
Ga1 Ga19 2.677041 1_555
Ga1 Pd0 2.680896 1_555
Ga1 Ga14 2.716904 1_556
Ga1 Ga6 2.741491 1_556
Ga1 Ga9 2.741491 1_556
Ga2 Pd4 2.615146 1_565
Ga2 Pd7 2.615146 1_565
Ga2 Ga20 2.677041 1_555
Ga2 Pd0 2.680897 1_555
Ga2 Ga8 2.741491 1_565
Ga3 Pd6 2.615146 1_555
Ga3 Pd3 2.615146 1_555
Ga3 Pd1 2.680897 1_555
Ga3 Ga6 2.741491 1_455
Ga4 Pd5 2.615146 1_555
Ga4 Pd2 2.615146 1_555
Ga4 Pd1 2.680896 1_555
Ga4 Ga7 2.741491 1_554
Ga4 Ga8 2.741491 1_554
Ga5 Pd7 2.615146 1_555
Ga5 Pd4 2.615146 1_555
Ga5 Pd1 2.680897 1_555
Ga5 Ga9 2.741491 1_545
Ga6 Pd6 2.711880 1_655
Ga6 Pd2 2.711880 1_555
Ga6 Pd8 2.870817 1_555
Ga6 Ga9 2.870817 1_555
Ga7 Pd3 2.711880 1_555
Ga7 Pd5 2.711880 1_556
Ga7 Pd8 2.870817 1_555
Ga7 Ga8 2.870817 1_555
Ga8 Pd4 2.711880 1_555
Ga8 Pd2 2.711880 1_556
Ga8 Pd8 2.870817 1_555
Ga9 Pd7 2.711880 1_565
Ga9 Pd5 2.711880 1_555
Ga9 Pd8 2.870817 1_555
Ga10 Pd6 2.711880 1_555
Ga10 Pd4 2.711880 1_565
Ga10 Ga5 2.741491 1_565
Ga10 Ga21 2.755152 1_555
Ga10 Ga19 2.755152 1_555
Ga10 Ga7 2.870817 1_555
Ga10 Ga9 2.870817 1_555
Ga10 Pd8 2.870817 1_555
Ga11 Pd7 2.711880 1_555
Ga11 Pd3 2.711880 1_655
Ga11 Ga2 2.741491 1_545
Ga11 Ga3 2.741491 1_655
Ga11 Ga22 2.755152 1_555
Ga11 Ga18 2.755152 1_555
Ga11 Ga8 2.870817 1_555
Ga11 Ga6 2.870817 1_555
Ga11 Pd8 2.870817 1_555
Ga12 Pd0 2.589554 1_545
Ga12 Pd3 2.618984 1_655
Ga12 Pd2 2.618984 1_556
Ga12 Ga2 2.716904 1_545
Ga13 Pd0 2.589554 1_455
Ga13 Pd4 2.618984 1_565
Ga13 Pd5 2.618984 1_556
Ga14 Pd0 2.589554 1_554
Ga14 Pd6 2.618984 1_655
Ga14 Pd7 2.618984 1_565
Ga15 Pd1 2.589554 1_565
Ga15 Pd6 2.618984 1_555
Ga15 Pd5 2.618984 1_555
Ga15 Ga5 2.716904 1_565
Ga16 Pd1 2.589554 1_655
Ga16 Pd7 2.618984 1_555
Ga16 Pd2 2.618984 1_555
Ga16 Ga3 2.716904 1_655
Ga17 Pd1 2.589554 1_556
Ga17 Pd3 2.618984 1_555
Ga17 Pd4 2.618984 1_555
Ga17 Ga4 2.716904 1_556
Ga18 Pd2 2.671288 1_556
Ga18 Pd3 2.671288 1_655
Ga18 Ga8 2.755151 1_555
Ga18 Pd8 2.806338 1_555
Ga19 Pd5 2.671288 1_556
Ga19 Pd4 2.671288 1_565
Ga19 Ga2 2.677041 1_555
Ga19 Ga7 2.755151 1_555
Ga19 Pd8 2.806338 1_555
Ga20 Pd6 2.671288 1_655
Ga20 Pd7 2.671288 1_565
Ga20 Ga6 2.755152 1_555
Ga20 Ga9 2.755152 1_555
Ga20 Pd8 2.806337 1_555
Ga21 Pd5 2.671288 1_555
Ga21 Pd6 2.671288 1_555
Ga21 Ga3 2.677041 1_555
Ga21 Ga4 2.677041 1_555
Ga21 Ga9 2.755151 1_555
Ga21 Pd8 2.806338 1_555
Ga22 Pd2 2.671288 1_555
Ga22 Pd7 2.671288 1_555
Ga22 Ga5 2.677041 1_555
Ga22 Ga4 2.677041 1_555
Ga22 Ga6 2.755151 1_555
Ga22 Pd8 2.806338 1_555
Ga23 Pd3 2.671288 1_555
Ga23 Pd4 2.671288 1_555
Ga23 Ga3 2.677041 1_555
Ga23 Ga5 2.677041 1_555
Ga23 Ga7 2.755152 1_555
Ga23 Ga8 2.755152 1_555
Ga23 Pd8 2.806337 1_555
