# generated using pymatgen
data_K2Mg2(MoO4)3
_symmetry_space_group_name_H-M   'P 1'
_cell_length_a   9.19847900
_cell_length_b   7.10193000
_cell_length_c   20.64255879
_cell_angle_alpha   71.22799444
_cell_angle_beta   90.00000000
_cell_angle_gamma   90.00000000
_symmetry_Int_Tables_number   1
_chemical_formula_structural   K2Mg2(MoO4)3
_chemical_formula_sum   'K8 Mg8 Mo12 O48'
_cell_volume   1276.78337036
_cell_formula_units_Z   4
loop_
 _symmetry_equiv_pos_site_id
 _symmetry_equiv_pos_as_xyz
  1  'x, y, z'
loop_
 _atom_site_type_symbol
 _atom_site_label
 _atom_site_symmetry_multiplicity
 _atom_site_fract_x
 _atom_site_fract_y
 _atom_site_fract_z
 _atom_site_occupancy
  K  K0  1  0.03081700  0.80058600  0.90625900  1
  K  K1  1  0.96918300  0.19941400  0.09374100  1
  K  K2  1  0.53081700  0.19941400  0.59374100  1
  K  K3  1  0.46918300  0.80058600  0.40625900  1
  K  K4  1  0.11653100  0.40424200  0.78720400  1
  K  K5  1  0.88346900  0.59575800  0.21279600  1
  K  K6  1  0.61653100  0.59575800  0.71279600  1
  K  K7  1  0.38346900  0.40424200  0.28720400  1
  Mg  Mg0  1  0.40984700  0.93722500  0.93751600  1
  Mg  Mg1  1  0.59015300  0.06277500  0.06248400  1
  Mg  Mg2  1  0.90984700  0.06277500  0.56248400  1
  Mg  Mg3  1  0.09015300  0.93722500  0.43751600  1
  Mg  Mg4  1  0.14423100  0.27155000  0.63498300  1
  Mg  Mg5  1  0.85576900  0.72845000  0.36501700  1
  Mg  Mg6  1  0.64423100  0.72845000  0.86501700  1
  Mg  Mg7  1  0.35576900  0.27155000  0.13498300  1
  Mo  Mo0  1  0.22697400  0.80186600  0.59935500  1
  Mo  Mo1  1  0.77302600  0.19813400  0.40064500  1
  Mo  Mo2  1  0.72697400  0.19813400  0.90064500  1
  Mo  Mo3  1  0.27302600  0.80186600  0.09935500  1
  Mo  Mo4  1  0.32693300  0.94903900  0.77352400  1
  Mo  Mo5  1  0.67306700  0.05096100  0.22647600  1
  Mo  Mo6  1  0.82693300  0.05096100  0.72647600  1
  Mo  Mo7  1  0.17306700  0.94903900  0.27352400  1
  Mo  Mo8  1  0.33961600  0.41670100  0.96375100  1
  Mo  Mo9  1  0.66038400  0.58329900  0.03624900  1
  Mo  Mo10  1  0.83961600  0.58329900  0.53624900  1
  Mo  Mo11  1  0.16038400  0.41670100  0.46375100  1
  O  O0  1  0.78620400  0.98418400  0.64993700  1
  O  O1  1  0.21379600  0.01581600  0.35006300  1
  O  O2  1  0.28620400  0.01581600  0.85006300  1
  O  O3  1  0.71379600  0.98418400  0.14993700  1
  O  O4  1  0.50010000  0.82327800  0.78447200  1
  O  O5  1  0.49990000  0.17672200  0.21552800  1
  O  O6  1  0.00010000  0.17672200  0.71552800  1
  O  O7  1  0.99990000  0.82327800  0.28447200  1
  O  O8  1  0.82121700  0.83123300  0.80195000  1
  O  O9  1  0.17878300  0.16876700  0.19805000  1
  O  O10  1  0.32121700  0.16876700  0.69805000  1
  O  O11  1  0.67878300  0.83123300  0.30195000  1
  O  O12  1  0.19057900  0.78479100  0.76587400  1
  O  O13  1  0.80942100  0.21520900  0.23412600  1
  O  O14  1  0.69057900  0.21520900  0.73412600  1
  O  O15  1  0.30942100  0.78479100  0.26587400  1
  O  O16  1  0.16061100  0.55483900  0.64333400  1
  O  O17  1  0.83938900  0.44516100  0.35666600  1
  O  O18  1  0.66061100  0.44516100  0.85666600  1
  O  O19  1  0.33938900  0.55483900  0.14333400  1
  O  O20  1  0.25873500  0.36797300  0.54268500  1
  O  O21  1  0.74126500  0.63202700  0.45731500  1
  O  O22  1  0.75873500  0.63202700  0.95731500  1
  O  O23  1  0.24126500  0.36797300  0.04268500  1
  O  O24  1  0.20162300  0.46499800  0.90246000  1
  O  O25  1  0.79837700  0.53500200  0.09754000  1
  O  O26  1  0.70162300  0.53500200  0.59754000  1
  O  O27  1  0.29837700  0.46499800  0.40246000  1
  O  O28  1  0.40018900  0.82557500  0.63213500  1
  O  O29  1  0.59981100  0.17442500  0.36786500  1
  O  O30  1  0.90018900  0.17442500  0.86786500  1
  O  O31  1  0.09981100  0.82557500  0.13213500  1
  O  O32  1  0.93677100  0.80389400  0.53931100  1
  O  O33  1  0.06322900  0.19610600  0.46068900  1
  O  O34  1  0.43677100  0.19610600  0.96068900  1
  O  O35  1  0.56322900  0.80389400  0.03931100  1
  O  O36  1  0.11073100  0.99900500  0.61111700  1
  O  O37  1  0.88926900  0.00099500  0.38888300  1
  O  O38  1  0.61073100  0.00099500  0.88888300  1
  O  O39  1  0.38926900  0.99900500  0.11111700  1
  O  O40  1  0.25210500  0.84205700  0.50884200  1
  O  O41  1  0.74789500  0.15794300  0.49115800  1
  O  O42  1  0.75210500  0.15794300  0.99115800  1
  O  O43  1  0.24789500  0.84205700  0.00884200  1
  O  O44  1  0.45484400  0.64421200  0.93839000  1
  O  O45  1  0.54515600  0.35578800  0.06161000  1
  O  O46  1  0.95484400  0.35578800  0.56161000  1
  O  O47  1  0.04515600  0.64421200  0.43839000  1
loop_
_geom_bond_atom_site_label_1
_geom_bond_atom_site_label_2
_geom_bond_distance
_geom_bond_site_symmetry_2
K0 O30 2.786855 1_465
K0 O22 2.827632 1_455
K0 O2 2.838929 1_565
K0 O8 2.845914 1_455
K0 O24 2.876664 1_555
K0 O43 2.993231 1_556
K0 O12 3.283182 1_555
K1 O31 2.786855 1_645
K1 O23 2.827632 1_655
K1 O3 2.838929 1_545
K1 O9 2.845914 1_655
K1 O25 2.876664 1_555
K1 O42 2.993231 1_554
K1 O13 3.283182 1_555
K2 O28 2.786855 1_545
K2 O20 2.827632 1_555
K2 O0 2.838929 1_545
K2 O10 2.845914 1_555
K2 O26 2.876664 1_555
K2 O41 2.993231 1_555
K2 O14 3.283182 1_555
K3 O29 2.786855 1_565
K3 O21 2.827632 1_555
K3 O1 2.838929 1_565
K3 O11 2.845914 1_555
K3 O27 2.876664 1_555
K3 O40 2.993231 1_555
K3 O15 3.283182 1_555
K4 O24 2.668338 1_555
K4 O12 2.682563 1_555
K4 O6 2.736013 1_555
K4 O30 2.765391 1_455
K4 O16 2.843232 1_555
K4 O2 3.070107 1_555
K5 O25 2.668338 1_555
K5 O13 2.682563 1_555
K5 O7 2.736013 1_555
K5 O31 2.765391 1_655
K5 O17 2.843232 1_555
K5 O3 3.070107 1_555
K6 O26 2.668338 1_555
K6 O14 2.682563 1_555
K6 O4 2.736013 1_555
K6 O28 2.765391 1_555
K6 O18 2.843232 1_555
K6 O0 3.070107 1_555
K7 O27 2.668338 1_555
K7 O15 2.682563 1_555
K7 O5 2.736013 1_555
K7 O29 2.765391 1_555
K7 O19 2.843232 1_555
K7 O1 3.070107 1_555
Mg0 O43 2.050219 1_556
Mg0 O2 2.053165 1_565
Mg0 O34 2.058269 1_565
Mg0 O38 2.082015 1_565
Mg0 O44 2.116096 1_555
Mg0 O35 2.453998 1_556
Mg1 O42 2.050219 1_554
Mg1 O3 2.053165 1_545
Mg1 O35 2.058269 1_545
Mg1 O39 2.082015 1_545
Mg1 O45 2.116096 1_555
Mg1 O34 2.453998 1_554
Mg2 O41 2.050219 1_555
Mg2 O0 2.053165 1_545
Mg2 O32 2.058269 1_545
Mg2 O36 2.082015 1_645
Mg2 O46 2.116096 1_555
Mg2 O33 2.453998 1_655
Mg3 O40 2.050219 1_555
Mg3 O1 2.053165 1_565
Mg3 O33 2.058269 1_565
Mg3 O37 2.082015 1_465
Mg3 O47 2.116096 1_555
Mg3 O32 2.453998 1_455
Mg4 O6 2.062768 1_555
Mg4 O10 2.065540 1_555
Mg4 O16 2.079272 1_555
Mg4 O20 2.090125 1_555
Mg4 O36 2.167470 1_545
Mg4 O46 2.259109 1_455
Mg5 O7 2.062768 1_555
Mg5 O11 2.065540 1_555
Mg5 O17 2.079272 1_555
Mg5 O21 2.090125 1_555
Mg5 O37 2.167470 1_565
Mg5 O47 2.259109 1_655
Mg6 O4 2.062768 1_555
Mg6 O8 2.065540 1_555
Mg6 O18 2.079272 1_555
Mg6 O22 2.090125 1_555
Mg6 O38 2.167470 1_565
Mg6 O44 2.259109 1_555
Mg7 O5 2.062768 1_555
Mg7 O9 2.065540 1_555
Mg7 O19 2.079272 1_555
Mg7 O23 2.090125 1_555
Mg7 O39 2.167470 1_545
Mg7 O45 2.259109 1_555
Mo0 O28 1.760172 1_555
Mo0 O16 1.802652 1_555
Mo0 O40 1.811812 1_555
Mo0 O36 1.838814 1_555
Mo1 O29 1.760172 1_555
Mo1 O17 1.802652 1_555
Mo1 O41 1.811812 1_555
Mo1 O37 1.838814 1_555
Mo2 O30 1.760172 1_555
Mo2 O18 1.802652 1_555
Mo2 O42 1.811812 1_555
Mo2 O38 1.838814 1_555
Mo3 O31 1.760172 1_555
Mo3 O19 1.802652 1_555
Mo3 O43 1.811812 1_555
Mo3 O39 1.838814 1_555
Mo4 O12 1.754225 1_555
Mo4 O4 1.804472 1_555
Mo4 O10 1.816714 1_565
Mo4 O2 1.828604 1_565
Mo5 O13 1.754225 1_555
Mo5 O5 1.804472 1_555
Mo5 O11 1.816714 1_545
Mo5 O3 1.828604 1_545
Mo6 O14 1.754225 1_555
Mo6 O6 1.804472 1_655
Mo6 O8 1.816714 1_545
Mo6 O0 1.828604 1_545
Mo7 O15 1.754225 1_555
Mo7 O7 1.804472 1_455
Mo7 O9 1.816714 1_565
Mo7 O1 1.828604 1_565
Mo8 O24 1.746503 1_555
Mo8 O23 1.797285 1_556
Mo8 O34 1.822301 1_555
Mo8 O44 1.861127 1_555
Mo9 O25 1.746503 1_555
Mo9 O22 1.797285 1_554
Mo9 O35 1.822301 1_555
Mo9 O45 1.861127 1_555
Mo10 O26 1.746503 1_555
Mo10 O21 1.797285 1_555
Mo10 O32 1.822301 1_555
Mo10 O46 1.861127 1_555
Mo11 O27 1.746503 1_555
Mo11 O20 1.797285 1_555
Mo11 O33 1.822301 1_555
Mo11 O47 1.861127 1_555
