# generated using pymatgen
data_Li4Mn3Co3(SnO8)2
_symmetry_space_group_name_H-M   'P 1'
_cell_length_a   5.97526262
_cell_length_b   11.40017774
_cell_length_c   10.23359456
_cell_angle_alpha   116.37722123
_cell_angle_beta   89.99384789
_cell_angle_gamma   106.05234857
_symmetry_Int_Tables_number   1
_chemical_formula_structural   Li4Mn3Co3(SnO8)2
_chemical_formula_sum   'Li8 Mn6 Co6 Sn4 O32'
_cell_volume   594.04517381
_cell_formula_units_Z   2
loop_
 _symmetry_equiv_pos_site_id
 _symmetry_equiv_pos_as_xyz
  1  'x, y, z'
loop_
 _atom_site_type_symbol
 _atom_site_label
 _atom_site_symmetry_multiplicity
 _atom_site_fract_x
 _atom_site_fract_y
 _atom_site_fract_z
 _atom_site_occupancy
  Li  Li0  1  0.44205000  0.89685000  0.11952100  1
  Li  Li1  1  0.94308700  0.89907100  0.62136100  1
  Li  Li2  1  0.00054600  0.99412200  0.99700300  1
  Li  Li3  1  0.50007800  0.99402500  0.49720900  1
  Li  Li4  1  0.74824100  0.49255900  0.74137700  1
  Li  Li5  1  0.24822200  0.49197800  0.24074300  1
  Li  Li6  1  0.19222200  0.39596300  0.52846100  1
  Li  Li7  1  0.69346900  0.39581800  0.02868700  1
  Mn  Mn0  1  0.86535300  0.21574500  0.69374100  1
  Mn  Mn1  1  0.11211200  0.71456300  0.77256600  1
  Mn  Mn2  1  0.35365000  0.71211300  0.52443000  1
  Mn  Mn3  1  0.36561600  0.21471700  0.19344800  1
  Mn  Mn4  1  0.61447500  0.71651000  0.27369600  1
  Mn  Mn5  1  0.85610400  0.71212700  0.02329300  1
  Co  Co0  1  0.11001900  0.21606100  0.93976100  1
  Co  Co1  1  0.61132800  0.21450800  0.43939300  1
  Co  Co2  1  0.35636000  0.21313700  0.69240400  1
  Co  Co3  1  0.85371700  0.21214200  0.19286000  1
  Co  Co4  1  0.60280200  0.71620300  0.77076000  1
  Co  Co5  1  0.10577800  0.71423500  0.27082700  1
  Sn  Sn0  1  0.25046600  0.49152800  0.90700800  1
  Sn  Sn1  1  0.74423600  0.49171500  0.40899700  1
  Sn  Sn2  1  0.49779800  0.99128100  0.83269400  1
  Sn  Sn3  1  0.99509100  0.99112200  0.33328100  1
  O  O0  1  0.31028500  0.60384000  0.13733100  1
  O  O1  1  0.80135900  0.60737600  0.64150300  1
  O  O2  1  0.39117400  0.33680200  0.90610300  1
  O  O3  1  0.88764400  0.33941500  0.40983900  1
  O  O4  1  0.04058900  0.10885800  0.71972200  1
  O  O5  1  0.54020800  0.10612000  0.21764300  1
  O  O6  1  0.66873400  0.30695800  0.65787100  1
  O  O7  1  0.16587600  0.30616700  0.15655400  1
  O  O8  1  0.92641000  0.80808400  0.90823400  1
  O  O9  1  0.41626400  0.80684500  0.40665200  1
  O  O10  1  0.56333000  0.59869300  0.87072400  1
  O  O11  1  0.05700300  0.59852600  0.37126800  1
  O  O12  1  0.94168900  0.33841100  0.90564600  1
  O  O13  1  0.43871500  0.33837300  0.40523700  1
  O  O14  1  0.15835400  0.33372100  0.68148200  1
  O  O15  1  0.65906500  0.33433000  0.18282800  1
  O  O16  1  0.31235500  0.10112000  0.47359100  1
  O  O17  1  0.81170400  0.09993300  0.97410200  1
  O  O18  1  0.04884800  0.59475900  0.86618100  1
  O  O19  1  0.54571200  0.59713700  0.36931600  1
  O  O20  1  0.41682400  0.82607300  0.89764600  1
  O  O21  1  0.90616200  0.83435700  0.40473700  1
  O  O22  1  0.64433800  0.83764000  0.68448500  1
  O  O23  1  0.14069700  0.83820700  0.18332200  1
  O  O24  1  0.28049500  0.60862300  0.63148800  1
  O  O25  1  0.78777100  0.61016500  0.13485500  1
  O  O26  1  0.79829100  0.10434300  0.47758900  1
  O  O27  1  0.30015200  0.10214400  0.97767100  1
  O  O28  1  0.18495300  0.84367600  0.69173600  1
  O  O29  1  0.68230600  0.84444200  0.19306400  1
  O  O30  1  0.05803600  0.10179000  0.21367200  1
  O  O31  1  0.55938200  0.10065600  0.71252600  1
loop_
_geom_bond_atom_site_label_1
_geom_bond_atom_site_label_2
_geom_bond_distance
_geom_bond_site_symmetry_2
Li0 O23 1.958950 1_555
Li0 O29 1.964287 1_555
Li0 O20 2.033275 1_554
Li0 O5 2.035093 1_565
Li1 O22 1.950566 1_555
Li1 O28 1.978687 1_655
Li1 O21 1.991034 1_555
Li1 O4 2.040322 1_665
Li2 O8 1.813316 1_455
Li2 O27 1.938491 1_565
Li2 O17 1.946082 1_465
Li2 O30 1.972237 1_566
Li3 O9 1.820726 1_555
Li3 O26 1.944765 1_565
Li3 O16 1.956232 1_565
Li3 O31 1.959703 1_565
Li4 O6 1.808443 1_555
Li4 O18 1.932858 1_655
Li4 O10 1.937216 1_555
Li4 O1 1.953863 1_555
Li5 O7 1.809291 1_555
Li5 O19 1.936134 1_555
Li5 O0 1.954807 1_555
Li5 O11 1.972472 1_555
Li6 O3 1.964090 1_455
Li6 O14 1.975981 1_555
Li6 O13 1.997316 1_555
Li6 O24 2.071005 1_555
Li7 O2 1.966600 1_554
Li7 O15 1.981063 1_555
Li7 O12 2.004440 1_554
Li7 O25 2.085355 1_555
Mn0 O6 1.900309 1_555
Mn0 O4 1.909303 1_655
Mn0 O14 1.933247 1_655
Mn0 O12 1.954252 1_555
Mn0 O26 1.972063 1_555
Mn0 O31 1.999595 1_555
Mn1 O8 1.906351 1_455
Mn1 O24 1.917723 1_555
Mn1 O28 1.941049 1_555
Mn1 O18 1.950154 1_555
Mn1 O20 1.960652 1_555
Mn1 O1 2.007328 1_455
Mn2 O24 1.909594 1_555
Mn2 O9 1.921479 1_555
Mn2 O11 2.050176 1_555
Mn2 O22 2.071450 1_555
Mn2 O19 2.130158 1_555
Mn2 O28 2.179679 1_555
Mn3 O5 1.915475 1_555
Mn3 O7 1.921424 1_555
Mn3 O15 1.937813 1_555
Mn3 O13 1.954569 1_555
Mn3 O27 1.969910 1_554
Mn3 O30 2.001535 1_555
Mn4 O29 1.927324 1_555
Mn4 O25 1.929813 1_555
Mn4 O9 1.934860 1_555
Mn4 O21 1.935377 1_555
Mn4 O19 1.962722 1_555
Mn4 O0 2.004417 1_555
Mn5 O8 1.910458 1_554
Mn5 O25 1.933363 1_555
Mn5 O10 2.031223 1_554
Mn5 O23 2.048651 1_655
Mn5 O18 2.154541 1_654
Mn5 O29 2.215744 1_555
Co0 O7 1.968299 1_556
Co0 O2 1.994475 1_555
Co0 O4 2.002694 1_555
Co0 O17 2.040029 1_455
Co0 O12 2.070670 1_455
Co0 O27 2.095591 1_555
Co1 O3 1.981794 1_555
Co1 O6 1.983366 1_555
Co1 O5 2.018757 1_555
Co1 O16 2.027200 1_555
Co1 O26 2.047028 1_555
Co1 O13 2.103345 1_555
Co2 O2 1.977821 1_555
Co2 O6 1.996103 1_555
Co2 O16 1.996916 1_555
Co2 O4 2.026373 1_555
Co2 O31 2.062353 1_555
Co2 O14 2.082804 1_555
Co3 O17 1.997251 1_554
Co3 O7 2.003530 1_655
Co3 O3 2.012839 1_555
Co3 O5 2.013593 1_555
Co3 O30 2.050861 1_655
Co3 O15 2.080090 1_555
Co4 O22 1.911466 1_555
Co4 O20 1.952986 1_555
Co4 O10 1.984864 1_555
Co4 O1 2.012963 1_555
Co4 O24 2.094191 1_555
Co4 O8 2.094386 1_555
Co5 O23 1.950462 1_555
Co5 O11 1.968144 1_555
Co5 O9 2.025330 1_555
Co5 O25 2.059463 1_455
Co5 O0 2.065405 1_555
Co5 O21 2.100328 1_455
O0 Sn0 2.094813 1_554
O1 Sn1 2.116620 1_555
O2 Sn0 2.150344 1_555
O3 Sn1 2.141260 1_555
O10 Sn0 2.065215 1_555
O11 Sn1 2.069669 1_455
O12 Sn0 2.156058 1_655
O13 Sn1 2.136696 1_555
O14 Sn0 2.151596 1_555
O15 Sn1 2.154190 1_555
O16 Sn3 2.077025 1_445
O17 Sn2 2.066288 1_545
O18 Sn0 2.057177 1_555
O19 Sn1 2.058792 1_555
O20 Sn2 2.198058 1_555
O21 Sn3 2.155676 1_555
O22 Sn2 2.149965 1_555
O23 Sn3 2.147639 1_455
O26 Sn3 2.091658 1_545
O27 Sn2 2.086188 1_545
O28 Sn2 2.123896 1_555
O29 Sn3 2.118586 1_555
O30 Sn3 2.083529 1_445
O31 Sn2 2.076315 1_545
