# generated using pymatgen
data_LiNdTi4O12
_symmetry_space_group_name_H-M   'P 1'
_cell_length_a   5.43275214
_cell_length_b   5.43275214
_cell_length_c   7.87706785
_cell_angle_alpha   90.00000000
_cell_angle_beta   90.00000000
_cell_angle_gamma   90.00000000
_symmetry_Int_Tables_number   1
_chemical_formula_structural   LiNdTi4O12
_chemical_formula_sum   'Li1 Nd1 Ti4 O12'
_cell_volume   232.49004921
_cell_formula_units_Z   1
loop_
 _symmetry_equiv_pos_site_id
 _symmetry_equiv_pos_as_xyz
  1  'x, y, z'
loop_
 _atom_site_type_symbol
 _atom_site_label
 _atom_site_symmetry_multiplicity
 _atom_site_fract_x
 _atom_site_fract_y
 _atom_site_fract_z
 _atom_site_occupancy
  Li  Li0  1  0.50000000  0.50000000  0.50000000  1
  Nd  Nd0  1  -0.00000000  -0.00000000  -0.00000000  1
  Ti  Ti0  1  -0.00000000  0.50000000  0.73758262  1
  Ti  Ti1  1  -0.00000000  0.50000000  0.26241738  1
  Ti  Ti2  1  0.50000000  -0.00000000  0.73758262  1
  Ti  Ti3  1  0.50000000  -0.00000000  0.26241738  1
  O  O0  1  0.24407900  0.24407900  0.76809622  1
  O  O1  1  0.24407900  0.24407900  0.23190378  1
  O  O2  1  0.75592100  0.75592100  0.76809622  1
  O  O3  1  0.75592100  0.75592100  0.23190378  1
  O  O4  1  0.75592100  0.24407900  0.76809622  1
  O  O5  1  0.75592100  0.24407900  0.23190378  1
  O  O6  1  0.24407900  0.75592100  0.76809622  1
  O  O7  1  0.24407900  0.75592100  0.23190378  1
  O  O8  1  -0.00000000  0.50000000  0.50000000  1
  O  O9  1  -0.00000000  0.50000000  0.00000000  1
  O  O10  1  0.50000000  -0.00000000  0.50000000  1
  O  O11  1  0.50000000  -0.00000000  0.00000000  1
loop_
_geom_bond_atom_site_label_1
_geom_bond_atom_site_label_2
_geom_bond_distance
_geom_bond_site_symmetry_2
Li0 O10 2.716376 1_555
Li0 O8 2.716376 1_655
Li0 O8 2.716376 1_555
Li0 O10 2.716376 1_565
Nd0 O4 2.617933 1_454
Nd0 O1 2.617933 1_555
Nd0 O6 2.617933 1_544
Nd0 O5 2.617933 1_455
Nd0 O7 2.617933 1_545
Nd0 O0 2.617933 1_554
Nd0 O2 2.617933 1_444
Nd0 O3 2.617933 1_445
Nd0 O9 2.716376 1_555
Nd0 O11 2.716376 1_455
Nd0 O9 2.716376 1_545
Nd0 O11 2.716376 1_555
O0 Ti0 1.936283 1_555
O0 Ti2 1.936283 1_555
O1 Ti3 1.936283 1_555
O1 Ti1 1.936283 1_555
O2 Ti2 1.936283 1_565
O2 Ti0 1.936283 1_655
O3 Ti1 1.936283 1_655
O3 Ti3 1.936283 1_565
O4 Ti2 1.936283 1_555
O4 Ti0 1.936283 1_655
O5 Ti3 1.936283 1_555
O5 Ti1 1.936283 1_655
O6 Ti0 1.936283 1_555
O6 Ti2 1.936283 1_565
O7 Ti1 1.936283 1_555
O7 Ti3 1.936283 1_565
O8 Ti0 1.871454 1_555
O8 Ti1 1.871454 1_555
O9 Ti1 2.067080 1_555
O9 Ti0 2.067080 1_554
O10 Ti2 1.871454 1_555
O10 Ti3 1.871454 1_555
O11 Ti3 2.067080 1_555
O11 Ti2 2.067080 1_554
