# generated using pymatgen
data_Sm4CuSn8
_symmetry_space_group_name_H-M   'P 1'
_cell_length_a   4.37830782
_cell_length_b   4.43390561
_cell_length_c   17.52157283
_cell_angle_alpha   90.00000000
_cell_angle_beta   90.00000000
_cell_angle_gamma   90.00000000
_symmetry_Int_Tables_number   1
_chemical_formula_structural   Sm4CuSn8
_chemical_formula_sum   'Sm4 Cu1 Sn8'
_cell_volume   340.14635652
_cell_formula_units_Z   1
loop_
 _symmetry_equiv_pos_site_id
 _symmetry_equiv_pos_as_xyz
  1  'x, y, z'
loop_
 _atom_site_type_symbol
 _atom_site_label
 _atom_site_symmetry_multiplicity
 _atom_site_fract_x
 _atom_site_fract_y
 _atom_site_fract_z
 _atom_site_occupancy
  Sm  Sm0  1  0.25000000  0.00000000  0.09628515  1
  Sm  Sm1  1  0.25000000  0.50000000  0.60845572  1
  Sm  Sm2  1  0.75000000  0.50000000  0.39643308  1
  Sm  Sm3  1  0.75000000  0.00000000  0.89506992  1
  Cu  Cu0  1  0.25000000  0.00000000  0.32155959  1
  Sn  Sn0  1  0.25000000  0.50000000  0.23888883  1
  Sn  Sn1  1  0.25000000  0.00000000  0.74903123  1
  Sn  Sn2  1  0.75000000  0.00000000  0.23832831  1
  Sn  Sn3  1  0.75000000  0.50000000  0.75508716  1
  Sn  Sn4  1  0.25000000  0.00000000  0.46382898  1
  Sn  Sn5  1  0.25000000  0.50000000  0.93520012  1
  Sn  Sn6  1  0.75000000  0.50000000  0.04700698  1
  Sn  Sn7  1  0.75000000  0.00000000  0.57182194  1
loop_
_geom_bond_atom_site_label_1
_geom_bond_atom_site_label_2
_geom_bond_distance
_geom_bond_site_symmetry_2
Sm0 Sn6 3.233077 1_555
Sm0 Sn6 3.233077 1_545
Sm0 Sn6 3.233077 1_455
Sm0 Sn6 3.233077 1_445
Sm0 Sn2 3.314607 1_555
Sm0 Sn2 3.314607 1_455
Sm0 Sn0 3.340372 1_545
Sm0 Sn0 3.340372 1_555
Sm0 Sn5 3.589036 1_544
Sm0 Sn5 3.589036 1_554
Sm1 Sn7 3.181083 1_555
Sm1 Sn7 3.181083 1_465
Sm1 Sn7 3.181083 1_565
Sm1 Sn7 3.181083 1_455
Sm1 Sn1 3.313874 1_565
Sm1 Sn1 3.313874 1_555
Sm1 Sn4 3.366969 1_555
Sm1 Sn4 3.366969 1_565
Sm1 Sn3 3.375389 1_455
Sm1 Sn3 3.375389 1_555
Sm2 Sn4 3.331930 1_655
Sm2 Sn4 3.331930 1_565
Sm2 Sn4 3.331930 1_555
Sm2 Sn4 3.331930 1_665
Sm2 Sn0 3.523114 1_555
Sm2 Sn0 3.523114 1_655
Sm2 Sn2 3.548117 1_565
Sm2 Sn2 3.548117 1_555
Sm2 Sn7 3.789295 1_555
Sm2 Sn7 3.789295 1_565
Sm3 Sn5 3.194008 1_555
Sm3 Sn5 3.194008 1_645
Sm3 Sn5 3.194008 1_655
Sm3 Sn5 3.194008 1_545
Sm3 Sn3 3.306162 1_555
Sm3 Sn3 3.306162 1_545
Sm3 Sn1 3.367491 1_555
Sm3 Sn1 3.367491 1_655
Sm3 Sn6 3.464399 1_546
Sm3 Sn6 3.464399 1_556
Cu0 Sn4 2.492783 1_555
Cu0 Sn2 2.630429 1_555
Cu0 Sn2 2.630429 1_455
Cu0 Sn0 2.648225 1_555
Cu0 Sn0 2.648225 1_545
Cu0 Sm2 3.380586 1_445
Cu0 Sm2 3.380586 1_545
Cu0 Sm2 3.380586 1_455
Cu0 Sm2 3.380586 1_555
Sn0 Sn2 3.115665 1_555
Sn0 Sn2 3.115665 1_465
Sn0 Sn2 3.115665 1_455
Sn0 Sn2 3.115665 1_565
Sn1 Sn3 3.117456 1_455
Sn1 Sn3 3.117456 1_555
Sn1 Sn3 3.117456 1_445
Sn1 Sn3 3.117456 1_545
Sn4 Sn7 2.893586 1_555
Sn4 Sn7 2.893586 1_455
Sn5 Sn6 2.937720 1_456
Sn5 Sn6 2.937720 1_556
