# generated using pymatgen
data_Li7Mn4CoO12
_symmetry_space_group_name_H-M   'P 1'
_cell_length_a   3.04483159
_cell_length_b   3.04483159
_cell_length_c   29.79562088
_cell_angle_alpha   86.83117942
_cell_angle_beta   86.83117942
_cell_angle_gamma   56.14826138
_symmetry_Int_Tables_number   1
_chemical_formula_structural   Li7Mn4CoO12
_chemical_formula_sum   'Li7 Mn4 Co1 O12'
_cell_volume   228.95763738
_cell_formula_units_Z   1
loop_
 _symmetry_equiv_pos_site_id
 _symmetry_equiv_pos_as_xyz
  1  'x, y, z'
loop_
 _atom_site_type_symbol
 _atom_site_label
 _atom_site_symmetry_multiplicity
 _atom_site_fract_x
 _atom_site_fract_y
 _atom_site_fract_z
 _atom_site_occupancy
  Li  Li0  1  0.50188800  0.50188800  0.74765600  1
  Li  Li1  1  0.16366800  0.16366800  0.58118000  1
  Li  Li2  1  0.83633200  0.83633200  0.41882000  1
  Li  Li3  1  0.49811200  0.49811200  0.25234400  1
  Li  Li4  1  0.14430300  0.14430300  0.07859900  1
  Li  Li5  1  0.85569700  0.85569700  0.92140100  1
  Li  Li6  1  0.50000000  0.50000000  0.00000000  1
  Mn  Mn0  1  0.17140400  0.17140400  0.83159400  1
  Mn  Mn1  1  0.82859600  0.82859600  0.16840600  1
  Mn  Mn2  1  0.83080000  0.83080000  0.66508200  1
  Mn  Mn3  1  0.16920000  0.16920000  0.33491800  1
  Co  Co0  1  0.50000000  0.50000000  0.50000000  1
  O  O0  1  0.82068800  0.82068800  0.79327500  1
  O  O1  1  0.47607200  0.47607200  0.62703800  1
  O  O2  1  0.17363000  0.17363000  0.46215200  1
  O  O3  1  0.81081000  0.81081000  0.29602200  1
  O  O4  1  0.48822400  0.48822400  0.13307900  1
  O  O5  1  0.17069000  0.17069000  0.95662500  1
  O  O6  1  0.18919000  0.18919000  0.70397800  1
  O  O7  1  0.82637000  0.82637000  0.53784800  1
  O  O8  1  0.52392800  0.52392800  0.37296200  1
  O  O9  1  0.17931200  0.17931200  0.20672500  1
  O  O10  1  0.82931000  0.82931000  0.04337500  1
  O  O11  1  0.51177600  0.51177600  0.86692100  1
loop_
_geom_bond_atom_site_label_1
_geom_bond_atom_site_label_2
_geom_bond_distance
_geom_bond_site_symmetry_2
Li0 O6 2.143764 1_565
Li0 O6 2.143764 1_655
Li0 O0 2.164018 1_545
Li0 O0 2.164018 1_455
Li0 O6 2.188752 1_555
Li0 O0 2.252448 1_555
Li1 O7 2.084011 1_545
Li1 O7 2.084011 1_455
Li1 O1 2.182597 1_545
Li1 O1 2.182597 1_455
Li1 O1 2.229803 1_555
Li1 O7 2.290145 1_445
Li2 O2 2.084011 1_655
Li2 O2 2.084011 1_565
Li2 O8 2.182597 1_655
Li2 O8 2.182597 1_565
Li2 O8 2.229803 1_555
Li2 O2 2.290145 1_665
Li3 O3 2.143764 1_545
Li3 O3 2.143764 1_455
Li3 O9 2.164018 1_565
Li3 O9 2.164018 1_655
Li3 O3 2.188752 1_555
Li3 O9 2.252448 1_555
Li4 O10 2.003063 1_545
Li4 O10 2.003063 1_455
Li4 O10 2.046616 1_445
Li4 O4 2.284960 1_545
Li4 O4 2.284960 1_455
Li4 O4 2.534902 1_555
Li5 O5 2.003063 1_565
Li5 O5 2.003063 1_655
Li5 O5 2.046616 1_665
Li5 O11 2.284960 1_655
Li5 O11 2.284960 1_565
Li5 O11 2.534902 1_555
Li6 O10 2.101477 1_455
Li6 O10 2.101477 1_545
Li6 O5 2.101477 1_654
Li6 O5 2.101477 1_564
Li6 O10 2.255589 1_555
Li6 O5 2.255589 1_554
Mn0 O11 1.945198 1_545
Mn0 O11 1.945198 1_455
Mn0 O0 1.971176 1_455
Mn0 O0 1.971176 1_545
Mn0 O11 2.166545 1_555
Mn0 O0 2.263693 1_445
Mn1 O4 1.945198 1_655
Mn1 O4 1.945198 1_565
Mn1 O9 1.971176 1_565
Mn1 O9 1.971176 1_655
Mn1 O4 2.166545 1_555
Mn1 O9 2.263693 1_665
Mn2 O1 1.958739 1_655
Mn2 O1 1.958739 1_565
Mn2 O6 1.965935 1_565
Mn2 O6 1.965935 1_655
Mn2 O1 2.277828 1_555
Mn2 O6 2.308898 1_665
Mn3 O8 1.958739 1_545
Mn3 O8 1.958739 1_455
Mn3 O3 1.965935 1_455
Mn3 O3 1.965935 1_545
Mn3 O8 2.277828 1_555
Mn3 O3 2.308898 1_445
Co0 O7 2.015833 1_545
Co0 O7 2.015833 1_455
Co0 O2 2.015833 1_565
Co0 O2 2.015833 1_655
Co0 O7 2.143535 1_555
Co0 O2 2.143535 1_555
