# generated using pymatgen
data_TbCuPbS3
_symmetry_space_group_name_H-M   'P 1'
_cell_length_a   6.82669990
_cell_length_b   6.82669990
_cell_length_c   10.26269700
_cell_angle_alpha   90.00000000
_cell_angle_beta   90.00000000
_cell_angle_gamma   146.25153269
_symmetry_Int_Tables_number   1
_chemical_formula_structural   TbCuPbS3
_chemical_formula_sum   'Tb2 Cu2 Pb2 S6'
_cell_volume   265.70804963
_cell_formula_units_Z   2
loop_
 _symmetry_equiv_pos_site_id
 _symmetry_equiv_pos_as_xyz
  1  'x, y, z'
loop_
 _atom_site_type_symbol
 _atom_site_label
 _atom_site_symmetry_multiplicity
 _atom_site_fract_x
 _atom_site_fract_y
 _atom_site_fract_z
 _atom_site_occupancy
  Tb  Tb0  1  0.99582700  0.00417300  0.49780200  1
  Tb  Tb1  1  0.00417300  0.99582700  0.99780200  1
  Cu  Cu0  1  0.46617100  0.53382900  0.24878300  1
  Cu  Cu1  1  0.53382900  0.46617100  0.74878300  1
  Pb  Pb0  1  0.74813000  0.25187000  0.22337400  1
  Pb  Pb1  1  0.25187000  0.74813000  0.72337400  1
  S  S0  1  0.07468400  0.92531600  0.25006600  1
  S  S1  1  0.92531600  0.07468400  0.75006600  1
  S  S2  1  0.36169900  0.63830100  0.43224600  1
  S  S3  1  0.63630100  0.36369900  0.56622800  1
  S  S4  1  0.36369900  0.63630100  0.06622800  1
  S  S5  1  0.63830100  0.36169900  0.93224600  1
loop_
_geom_bond_atom_site_label_1
_geom_bond_atom_site_label_2
_geom_bond_distance
_geom_bond_site_symmetry_2
Cu0 S4 2.302727 1_555
Cu0 S2 2.325556 1_555
Cu0 S0 2.436598 1_545
Cu0 S0 2.436598 1_655
Cu1 S3 2.302727 1_555
Cu1 S5 2.325556 1_555
Cu1 S1 2.436598 1_455
Cu1 S1 2.436598 1_565
Pb0 S4 2.967774 1_545
Pb0 S4 2.967774 1_655
Pb0 S0 3.022794 1_545
Pb0 S0 3.022794 1_655
Pb1 S3 2.967774 1_455
Pb1 S3 2.967774 1_565
Pb1 S1 3.022794 1_565
Pb1 S1 3.022794 1_455
S0 Tb0 2.743271 1_465
S0 Tb1 2.747941 1_554
S1 Tb1 2.743271 1_645
S1 Tb0 2.747941 1_555
S2 Tb0 2.729555 1_455
S2 Tb0 2.729555 1_565
S3 Tb0 2.790779 1_455
S3 Tb0 2.790779 1_565
S4 Tb1 2.790779 1_544
S4 Tb1 2.790779 1_654
S5 Tb1 2.729555 1_545
S5 Tb1 2.729555 1_655
