# generated using pymatgen
data_Cu3S2
_symmetry_space_group_name_H-M   'P 1'
_cell_length_a   3.47250806
_cell_length_b   5.93388300
_cell_length_c   3.47250806
_cell_angle_alpha   90.00000000
_cell_angle_beta   90.00000000
_cell_angle_gamma   90.00000000
_symmetry_Int_Tables_number   1
_chemical_formula_structural   Cu3S2
_chemical_formula_sum   'Cu3 S2'
_cell_volume   71.55261411
_cell_formula_units_Z   1
loop_
 _symmetry_equiv_pos_site_id
 _symmetry_equiv_pos_as_xyz
  1  'x, y, z'
loop_
 _atom_site_type_symbol
 _atom_site_label
 _atom_site_symmetry_multiplicity
 _atom_site_fract_x
 _atom_site_fract_y
 _atom_site_fract_z
 _atom_site_occupancy
  Cu  Cu0  1  0.50000000  0.75000000  0.00000000  1
  Cu  Cu1  1  0.00000000  0.42003000  0.00000000  1
  Cu  Cu2  1  0.50000000  0.07997000  0.50000000  1
  S  S0  1  0.00000000  0.01841900  0.00000000  1
  S  S1  1  0.50000000  0.48158100  0.50000000  1
loop_
_geom_bond_atom_site_label_1
_geom_bond_atom_site_label_2
_geom_bond_distance
_geom_bond_site_symmetry_2
Cu0 S0 2.356159 1_665
Cu0 S0 2.356159 1_565
Cu0 S1 2.356159 1_554
Cu0 S1 2.356159 1_555
Cu1 S0 2.383113 1_555
Cu1 S1 2.482449 1_455
Cu1 S1 2.482449 1_554
Cu1 S1 2.482449 1_454
Cu1 S1 2.482449 1_555
Cu2 S1 2.383113 1_555
Cu2 S0 2.482449 1_655
Cu2 S0 2.482449 1_656
Cu2 S0 2.482449 1_556
Cu2 S0 2.482449 1_555
