# generated using pymatgen
data_Mg14CuSb
_symmetry_space_group_name_H-M   'P 1'
_cell_length_a   6.27561810
_cell_length_b   6.27545486
_cell_length_c   10.29520729
_cell_angle_alpha   90.00000000
_cell_angle_beta   90.00000000
_cell_angle_gamma   119.99914477
_symmetry_Int_Tables_number   1
_chemical_formula_structural   Mg14CuSb
_chemical_formula_sum   'Mg14 Cu1 Sb1'
_cell_volume   351.13262808
_cell_formula_units_Z   1
loop_
 _symmetry_equiv_pos_site_id
 _symmetry_equiv_pos_as_xyz
  1  'x, y, z'
loop_
 _atom_site_type_symbol
 _atom_site_label
 _atom_site_symmetry_multiplicity
 _atom_site_fract_x
 _atom_site_fract_y
 _atom_site_fract_z
 _atom_site_occupancy
  Mg  Mg0  1  0.16812893  0.33406396  0.62500000  1
  Mg  Mg1  1  0.16739428  0.83369664  0.62500000  1
  Mg  Mg2  1  0.66821861  0.33385462  0.12500000  1
  Mg  Mg3  1  0.66541957  0.33320782  0.62500000  1
  Mg  Mg4  1  0.66821861  0.83436300  0.12500000  1
  Mg  Mg5  1  0.66541957  0.83221074  0.62500000  1
  Mg  Mg6  1  0.33177465  0.17135184  0.37079698  1
  Mg  Mg7  1  0.33177465  0.17135184  0.87920302  1
  Mg  Mg8  1  0.33177465  0.66042380  0.37079698  1
  Mg  Mg9  1  0.33177465  0.66042380  0.87920302  1
  Mg  Mg10  1  0.83820904  0.16910502  0.37144785  1
  Mg  Mg11  1  0.83820904  0.16910502  0.87855215  1
  Mg  Mg12  1  0.83130138  0.66565119  0.37815436  1
  Mg  Mg13  1  0.83130138  0.66565119  0.87184564  1
  Cu  Cu0  1  0.16630948  0.33315424  0.12500000  1
  Sb  Sb0  1  0.16477150  0.83238525  0.12500000  1
loop_
_geom_bond_atom_site_label_1
_geom_bond_atom_site_label_2
_geom_bond_distance
_geom_bond_site_symmetry_2
Mg0 Mg5 3.123496 1_555
Mg0 Mg3 3.123496 1_555
Mg0 Mg1 3.137730 1_545
Mg0 Mg1 3.137730 1_555
Mg0 Mg5 3.152129 1_445
Mg0 Mg3 3.152129 1_455
Mg0 Mg6 3.161486 1_555
Mg0 Mg7 3.161486 1_555
Mg0 Mg8 3.161492 1_555
Mg0 Mg9 3.161492 1_555
Mg0 Mg10 3.166887 1_455
Mg0 Mg11 3.166887 1_455
Mg1 Mg12 3.129683 1_455
Mg1 Mg13 3.129683 1_455
Mg1 Mg3 3.130089 1_565
Mg1 Mg5 3.130089 1_555
Mg1 Mg3 3.145549 1_455
Mg1 Mg5 3.145550 1_455
Mg1 Mg8 3.196450 1_555
Mg1 Mg9 3.196450 1_555
Mg1 Mg6 3.196456 1_565
Mg1 Mg7 3.196456 1_565
Mg2 Mg7 3.122246 1_554
Mg2 Mg6 3.122246 1_555
Mg2 Sb0 3.122400 1_655
Mg2 Mg4 3.134537 1_545
Mg2 Mg4 3.140918 1_555
Mg2 Sb0 3.153254 1_545
Mg3 Mg5 3.131470 1_555
Mg3 Mg5 3.143985 1_545
Mg3 Mg6 3.184052 1_555
Mg3 Mg7 3.184052 1_555
Mg4 Mg9 3.122246 1_554
Mg4 Mg8 3.122246 1_555
Mg4 Sb0 3.122400 1_655
Mg4 Sb0 3.153255 1_555
Mg5 Mg8 3.184052 1_555
Mg5 Mg9 3.184052 1_555
Mg6 Mg8 3.069149 1_555
Mg6 Sb0 3.130100 1_545
Mg6 Mg8 3.206306 1_545
Mg7 Mg9 3.069149 1_555
Mg7 Sb0 3.130100 1_546
Mg7 Mg9 3.206306 1_545
Mg8 Sb0 3.130093 1_555
Mg9 Sb0 3.130093 1_556
Mg10 Mg8 3.090411 1_655
Mg10 Mg6 3.090411 1_655
Mg10 Mg2 3.122084 1_555
Mg10 Mg4 3.122090 1_545
Mg10 Mg12 3.138712 1_545
Mg10 Mg12 3.138712 1_555
Mg10 Mg8 3.185269 1_545
Mg10 Mg6 3.185269 1_555
Mg10 Mg3 3.188585 1_555
Mg10 Mg5 3.188591 1_545
Mg11 Mg9 3.090411 1_655
Mg11 Mg7 3.090411 1_655
Mg11 Mg2 3.122084 1_556
Mg11 Mg4 3.122090 1_546
Mg11 Mg13 3.138712 1_545
Mg11 Mg13 3.138712 1_555
Mg11 Mg9 3.185269 1_545
Mg11 Mg7 3.185269 1_555
Mg11 Mg3 3.188585 1_555
Mg11 Mg5 3.188591 1_545
Mg12 Mg5 3.118115 1_555
Mg12 Mg3 3.118121 1_555
Mg12 Mg6 3.119486 1_555
Mg12 Mg8 3.119486 1_555
Mg12 Mg6 3.158217 1_665
Mg12 Mg8 3.158217 1_655
Mg12 Mg4 3.169321 1_555
Mg12 Mg2 3.169327 1_555
Mg12 Sb0 3.174488 1_655
Mg13 Mg5 3.118115 1_555
Mg13 Mg3 3.118121 1_555
Mg13 Mg7 3.119486 1_555
Mg13 Mg9 3.119486 1_555
Mg13 Mg7 3.158217 1_665
Mg13 Mg9 3.158217 1_655
Mg13 Mg4 3.169321 1_556
Mg13 Mg2 3.169327 1_556
Mg13 Sb0 3.174488 1_656
Cu0 Mg7 3.093089 1_554
Cu0 Mg6 3.093089 1_555
Cu0 Mg9 3.093095 1_554
Cu0 Mg8 3.093095 1_555
Cu0 Mg11 3.101179 1_454
Cu0 Mg10 3.101179 1_455
Cu0 Mg4 3.128028 1_445
Cu0 Mg2 3.128028 1_455
Cu0 Sb0 3.137739 1_545
Cu0 Sb0 3.137739 1_555
Cu0 Mg4 3.147595 1_555
Cu0 Mg2 3.147595 1_555
