# generated using pymatgen
data_CsMg6Cd
_symmetry_space_group_name_H-M   'P 1'
_cell_length_a   5.37193800
_cell_length_b   7.21064400
_cell_length_c   12.04150500
_cell_angle_alpha   90.00000000
_cell_angle_beta   90.00000000
_cell_angle_gamma   90.00000000
_symmetry_Int_Tables_number   1
_chemical_formula_structural   CsMg6Cd
_chemical_formula_sum   'Cs2 Mg12 Cd2'
_cell_volume   466.42929177
_cell_formula_units_Z   2
loop_
 _symmetry_equiv_pos_site_id
 _symmetry_equiv_pos_as_xyz
  1  'x, y, z'
loop_
 _atom_site_type_symbol
 _atom_site_label
 _atom_site_symmetry_multiplicity
 _atom_site_fract_x
 _atom_site_fract_y
 _atom_site_fract_z
 _atom_site_occupancy
  Cs  Cs0  1  0.00000000  0.50000000  0.33268500  1
  Cs  Cs1  1  0.00000000  0.00000000  0.83268500  1
  Mg  Mg0  1  0.00000000  0.25334400  0.08149500  1
  Mg  Mg1  1  0.00000000  0.74665600  0.08149500  1
  Mg  Mg2  1  0.00000000  0.50000000  0.83888500  1
  Mg  Mg3  1  0.50000000  0.28289400  0.92829500  1
  Mg  Mg4  1  0.50000000  0.71710600  0.92829500  1
  Mg  Mg5  1  0.50000000  0.50000000  0.66629000  1
  Mg  Mg6  1  0.00000000  0.75334400  0.58149500  1
  Mg  Mg7  1  0.00000000  0.24665600  0.58149500  1
  Mg  Mg8  1  0.00000000  0.00000000  0.33888500  1
  Mg  Mg9  1  0.50000000  0.78289400  0.42829500  1
  Mg  Mg10  1  0.50000000  0.21710600  0.42829500  1
  Mg  Mg11  1  0.50000000  0.00000000  0.16629000  1
  Cd  Cd0  1  0.50000000  0.50000000  0.14255800  1
  Cd  Cd1  1  0.50000000  0.00000000  0.64255800  1
loop_
_geom_bond_atom_site_label_1
_geom_bond_atom_site_label_2
_geom_bond_distance
_geom_bond_site_symmetry_2
Cs0 Mg1 3.508857 1_555
Cs0 Mg0 3.508857 1_555
Cs0 Mg7 3.509045 1_555
Cs0 Mg6 3.509045 1_555
Cs0 Mg9 3.563829 1_455
Cs0 Mg9 3.563829 1_555
Cs0 Mg10 3.563829 1_555
Cs0 Mg10 3.563829 1_455
Cs0 Mg8 3.606095 1_555
Cs0 Mg8 3.606095 1_565
Cs1 Mg7 3.508857 1_555
Cs1 Mg6 3.508857 1_545
Cs1 Mg1 3.509045 1_546
Cs1 Mg0 3.509045 1_556
Cs1 Mg3 3.563829 1_455
Cs1 Mg4 3.563829 1_545
Cs1 Mg4 3.563829 1_445
Cs1 Mg3 3.563829 1_555
Cs1 Mg2 3.606095 1_555
Cs1 Mg2 3.606095 1_545
Mg0 Mg3 3.265419 1_554
Mg0 Mg3 3.265419 1_454
Mg0 Mg11 3.405010 1_455
Mg0 Mg11 3.405010 1_555
Mg0 Mg2 3.420198 1_554
Mg1 Mg4 3.265419 1_454
Mg1 Mg4 3.265419 1_554
Mg1 Mg11 3.405010 1_465
Mg1 Mg11 3.405010 1_565
Mg1 Mg2 3.420198 1_554
Mg2 Mg3 3.290026 1_455
Mg2 Mg4 3.290026 1_455
Mg2 Mg4 3.290026 1_555
Mg2 Mg3 3.290026 1_555
Mg2 Mg5 3.396141 1_555
Mg2 Mg5 3.396141 1_455
Mg3 Mg4 3.130948 1_555
Mg3 Mg5 3.521977 1_555
Mg4 Mg5 3.521977 1_555
Mg5 Mg7 3.405010 1_655
Mg5 Mg6 3.405010 1_555
Mg5 Mg6 3.405010 1_655
Mg5 Mg7 3.405010 1_555
Mg5 Mg9 3.517654 1_555
Mg6 Mg9 3.265419 1_455
Mg6 Mg9 3.265419 1_555
Mg6 Mg8 3.420198 1_565
Mg7 Mg8 3.420198 1_555
Mg8 Mg9 3.290026 1_445
Mg8 Mg9 3.290026 1_545
Mg10 Mg9 3.130948 1_545
Mg10 Mg7 3.265419 1_555
Mg10 Mg7 3.265419 1_655
Mg10 Mg8 3.290026 1_555
Mg10 Mg8 3.290026 1_655
Mg10 Mg5 3.517654 1_555
Mg10 Mg11 3.521977 1_555
Mg11 Mg8 3.396141 1_555
Mg11 Mg8 3.396141 1_655
Mg11 Mg3 3.517654 1_554
Mg11 Mg4 3.517654 1_544
Mg11 Mg9 3.521977 1_545
Cd0 Mg3 3.017841 1_554
Cd0 Mg4 3.017841 1_554
Cd0 Mg0 3.304288 1_555
Cd0 Mg0 3.304288 1_655
Cd0 Mg1 3.304288 1_555
Cd0 Mg1 3.304288 1_655
Cd0 Cs0 3.529285 1_655
Cd0 Cs0 3.529285 1_555
Cd0 Mg11 3.616630 1_555
Cd0 Mg11 3.616630 1_565
Cd1 Mg9 3.017841 1_545
Cd1 Mg10 3.017841 1_555
Cd1 Mg6 3.304288 1_545
Cd1 Mg6 3.304288 1_645
Cd1 Mg7 3.304288 1_555
Cd1 Mg7 3.304288 1_655
Cd1 Cs1 3.529285 1_655
Cd1 Cs1 3.529285 1_555
Cd1 Mg5 3.616630 1_555
Cd1 Mg5 3.616630 1_545
