# generated using pymatgen
data_Mg2SnIrO6
_symmetry_space_group_name_H-M   'P 1'
_cell_length_a   5.41684200
_cell_length_b   5.26739700
_cell_length_c   9.33995176
_cell_angle_alpha   55.83008284
_cell_angle_beta   90.00000000
_cell_angle_gamma   90.00000000
_symmetry_Int_Tables_number   1
_chemical_formula_structural   Mg2SnIrO6
_chemical_formula_sum   'Mg4 Sn2 Ir2 O12'
_cell_volume   220.49033212
_cell_formula_units_Z   2
loop_
 _symmetry_equiv_pos_site_id
 _symmetry_equiv_pos_as_xyz
  1  'x, y, z'
loop_
 _atom_site_type_symbol
 _atom_site_label
 _atom_site_symmetry_multiplicity
 _atom_site_fract_x
 _atom_site_fract_y
 _atom_site_fract_z
 _atom_site_occupancy
  Mg  Mg0  1  0.55189700  0.74459900  0.75112600  1
  Mg  Mg1  1  0.05189700  0.25540100  0.74887400  1
  Mg  Mg2  1  0.94810300  0.74459900  0.25112600  1
  Mg  Mg3  1  0.44810300  0.25540100  0.24887400  1
  Sn  Sn0  1  0.00000000  0.00000000  0.50000000  1
  Sn  Sn1  1  0.50000000  0.00000000  0.00000000  1
  Ir  Ir0  1  0.00000000  0.50000000  0.00000000  1
  Ir  Ir1  1  0.50000000  0.50000000  0.50000000  1
  O  O0  1  0.08433400  0.11915500  0.24441800  1
  O  O1  1  0.32449300  0.74512200  0.57486500  1
  O  O2  1  0.31824600  0.40404800  0.92683900  1
  O  O3  1  0.81824600  0.59595200  0.57316100  1
  O  O4  1  0.82449300  0.25487800  0.92513500  1
  O  O5  1  0.58433400  0.88084500  0.25558200  1
  O  O6  1  0.41566600  0.11915500  0.74441800  1
  O  O7  1  0.17550700  0.74512200  0.07486500  1
  O  O8  1  0.18175400  0.40404800  0.42683900  1
  O  O9  1  0.67550700  0.25487800  0.42513500  1
  O  O10  1  0.68175400  0.59595200  0.07316100  1
  O  O11  1  0.91566600  0.88084500  0.75558200  1
loop_
_geom_bond_atom_site_label_1
_geom_bond_atom_site_label_2
_geom_bond_distance
_geom_bond_site_symmetry_2
Mg0 O2 2.050883 1_555
Mg0 O1 2.054866 1_555
Mg0 O6 2.074152 1_565
Mg0 O11 2.105495 1_555
Mg1 O3 2.050883 1_455
Mg1 O4 2.054866 1_455
Mg1 O11 2.074152 1_445
Mg1 O6 2.105495 1_555
Mg2 O8 2.050883 1_655
Mg2 O7 2.054866 1_655
Mg2 O0 2.074152 1_665
Mg2 O5 2.105495 1_555
Mg3 O10 2.050883 1_555
Mg3 O9 2.054866 1_555
Mg3 O5 2.074152 1_545
Mg3 O0 2.105495 1_555
Ir0 O7 2.018407 1_555
Ir0 O4 2.018407 1_454
Ir0 O10 2.020423 1_455
Ir0 O2 2.020423 1_554
Ir0 O0 2.073691 1_555
Ir0 O11 2.073691 1_454
Ir1 O1 2.018407 1_555
Ir1 O9 2.018407 1_555
Ir1 O3 2.020423 1_555
Ir1 O8 2.020423 1_555
Ir1 O6 2.073691 1_555
Ir1 O5 2.073691 1_555
O0 Sn0 2.148953 1_555
O1 Sn0 2.080014 1_565
O2 Sn1 2.081394 1_556
O3 Sn0 2.081394 1_665
O4 Sn1 2.080014 1_556
O5 Sn1 2.148953 1_565
O6 Sn1 2.148953 1_556
O7 Sn1 2.080014 1_565
O8 Sn0 2.081394 1_555
O9 Sn0 2.080014 1_655
O10 Sn1 2.081394 1_565
O11 Sn0 2.148953 1_665
