# generated using pymatgen
data_SrCeEuNiO6
_symmetry_space_group_name_H-M   'P 1'
_cell_length_a   5.75872947
_cell_length_b   5.75872947
_cell_length_c   5.75872947
_cell_angle_alpha   60.00000000
_cell_angle_beta   60.00000000
_cell_angle_gamma   60.00000000
_symmetry_Int_Tables_number   1
_chemical_formula_structural   SrCeEuNiO6
_chemical_formula_sum   'Sr1 Ce1 Eu1 Ni1 O6'
_cell_volume   135.04080973
_cell_formula_units_Z   1
loop_
 _symmetry_equiv_pos_site_id
 _symmetry_equiv_pos_as_xyz
  1  'x, y, z'
loop_
 _atom_site_type_symbol
 _atom_site_label
 _atom_site_symmetry_multiplicity
 _atom_site_fract_x
 _atom_site_fract_y
 _atom_site_fract_z
 _atom_site_occupancy
  Sr  Sr0  1  0.25000000  0.25000000  0.25000000  1
  Ce  Ce0  1  0.00000000  0.00000000  0.00000000  1
  Eu  Eu0  1  0.75000000  0.75000000  0.75000000  1
  Ni  Ni0  1  0.50000000  0.50000000  0.50000000  1
  O  O0  1  0.73407681  0.26592319  0.26592319  1
  O  O1  1  0.26592319  0.73407681  0.73407681  1
  O  O2  1  0.73407681  0.26592319  0.73407681  1
  O  O3  1  0.26592319  0.73407681  0.26592319  1
  O  O4  1  0.73407681  0.73407681  0.26592319  1
  O  O5  1  0.26592319  0.26592319  0.73407681  1
loop_
_geom_bond_atom_site_label_1
_geom_bond_atom_site_label_2
_geom_bond_distance
_geom_bond_site_symmetry_2
Ce0 O0 2.165698 1_455
Ce0 O5 2.165698 1_554
Ce0 O3 2.165698 1_545
Ce0 O2 2.165698 1_454
Ce0 O4 2.165698 1_445
Ce0 O1 2.165698 1_544
Eu0 O2 2.882283 1_555
Eu0 O1 2.882283 1_555
Eu0 O4 2.882283 1_555
Eu0 O3 2.882283 1_556
Eu0 O0 2.882283 1_556
Eu0 O4 2.882283 1_556
Eu0 O0 2.882283 1_565
Eu0 O3 2.882283 1_655
Eu0 O1 2.882283 1_655
Eu0 O5 2.882283 1_655
Eu0 O5 2.882283 1_565
Eu0 O2 2.882283 1_565
Ni0 O0 1.906339 1_555
Ni0 O3 1.906339 1_555
Ni0 O2 1.906339 1_555
Ni0 O4 1.906339 1_555
Ni0 O1 1.906339 1_555
Ni0 O5 1.906339 1_555
O0 Sr0 2.882283 1_555
O0 Sr0 2.882283 1_655
O1 Sr0 2.882283 1_556
O1 Sr0 2.882283 1_565
O2 Sr0 2.882283 1_556
O2 Sr0 2.882283 1_655
O3 Sr0 2.882283 1_555
O3 Sr0 2.882283 1_565
O4 Sr0 2.882283 1_565
O4 Sr0 2.882283 1_655
O5 Sr0 2.882283 1_555
O5 Sr0 2.882283 1_556
