# generated using pymatgen
data_Li6Zn3(PS4)4
_symmetry_space_group_name_H-M   'P 1'
_cell_length_a   9.31568385
_cell_length_b   11.61084580
_cell_length_c   23.12878669
_cell_angle_alpha   89.97098903
_cell_angle_beta   90.03646800
_cell_angle_gamma   89.91780292
_symmetry_Int_Tables_number   1
_chemical_formula_structural   Li6Zn3(PS4)4
_chemical_formula_sum   'Li24 Zn12 P16 S64'
_cell_volume   2501.67482876
_cell_formula_units_Z   4
loop_
 _symmetry_equiv_pos_site_id
 _symmetry_equiv_pos_as_xyz
  1  'x, y, z'
loop_
 _atom_site_type_symbol
 _atom_site_label
 _atom_site_symmetry_multiplicity
 _atom_site_fract_x
 _atom_site_fract_y
 _atom_site_fract_z
 _atom_site_occupancy
  Li  Li0  1  0.74884475  0.49581761  0.87485285  1
  Li  Li1  1  0.74275526  0.00307012  0.87521164  1
  Li  Li2  1  0.24879855  0.74231336  0.75400361  1
  Li  Li3  1  0.24928057  0.73989904  0.99738578  1
  Li  Li4  1  0.50488769  0.49806341  0.25114868  1
  Li  Li5  1  0.50120258  0.00006946  0.25037839  1
  Li  Li6  1  0.50457708  0.50179724  0.49865686  1
  Li  Li7  1  0.50213879  0.00070042  0.49990011  1
  Li  Li8  1  0.00204582  0.74957589  0.37517215  1
  Li  Li9  1  0.00134213  0.25046298  0.37500709  1
  Li  Li10  1  0.50354650  0.49891221  0.74741997  1
  Li  Li11  1  0.49433601  0.00231350  0.74933363  1
  Li  Li12  1  0.99689724  0.74969604  0.62160902  1
  Li  Li13  1  0.00486663  0.25289991  0.62536952  1
  Li  Li14  1  0.50233813  0.49581616  0.00052991  1
  Li  Li15  1  0.49404374  0.00357583  0.00147012  1
  Li  Li16  1  0.99354040  0.74937684  0.87404533  1
  Li  Li17  1  0.01076784  0.25165767  0.87605108  1
  Li  Li18  1  0.99850086  0.74821053  0.12741890  1
  Li  Li19  1  0.00280269  0.24964984  0.12588010  1
  Li  Li20  1  0.48326086  0.25175604  0.87440599  1
  Li  Li21  1  0.50094244  0.74887645  0.87557577  1
  Li  Li22  1  0.00005498  0.49717166  0.75013477  1
  Li  Li23  1  0.99968559  0.49790384  0.00140146  1
  Zn  Zn0  1  0.49965751  0.25117594  0.12379107  1
  Zn  Zn1  1  0.50676040  0.74818345  0.12665887  1
  Zn  Zn2  1  0.49911053  0.24989506  0.37507099  1
  Zn  Zn3  1  0.49811889  0.75000695  0.37497227  1
  Zn  Zn4  1  0.99973320  0.49982985  0.25019261  1
  Zn  Zn5  1  0.99850098  0.00042551  0.25038391  1
  Zn  Zn6  1  0.50072330  0.25095909  0.62527417  1
  Zn  Zn7  1  0.50504806  0.75064100  0.62401399  1
  Zn  Zn8  1  0.99963163  0.50027803  0.50041637  1
  Zn  Zn9  1  0.99884510  0.99961579  0.49915297  1
  Zn  Zn10  1  0.99846686  0.00215610  0.74900643  1
  Zn  Zn11  1  0.99831742  0.00157808  0.00080733  1
  P  P0  1  0.74983748  0.24945501  0.24994093  1
  P  P1  1  0.75058857  0.75015135  0.25060137  1
  P  P2  1  0.75038298  0.25017269  0.50007756  1
  P  P3  1  0.75016134  0.75053268  0.49932710  1
  P  P4  1  0.24965585  0.49990750  0.37505038  1
  P  P5  1  0.25006182  0.00008356  0.37491678  1
  P  P6  1  0.74918200  0.24308875  0.75274714  1
  P  P7  1  0.75000338  0.74760994  0.74790749  1
  P  P8  1  0.24931664  0.49679479  0.62423775  1
  P  P9  1  0.25222264  0.99875364  0.62457745  1
  P  P10  1  0.74958610  0.25288597  0.00186709  1
  P  P11  1  0.74960096  0.75690041  0.99797192  1
  P  P12  1  0.25036637  0.50548169  0.87503948  1
  P  P13  1  0.24853735  0.99523586  0.87461285  1
  P  P14  1  0.25409596  0.50562314  0.12610059  1
  P  P15  1  0.24793335  0.99910711  0.12473682  1
  S  S0  1  0.86956279  0.35402130  0.05336524  1
  S  S1  1  0.87106600  0.85953307  0.05230557  1
  S  S2  1  0.86427575  0.36095578  0.30203832  1
  S  S3  1  0.86591100  0.86089027  0.30266595  1
  S  S4  1  0.37286272  0.61190961  0.17936147  1
  S  S5  1  0.36648962  0.10852043  0.17583454  1
  S  S6  1  0.86426965  0.36151410  0.55231396  1
  S  S7  1  0.86206143  0.86337088  0.55143648  1
  S  S8  1  0.36374943  0.61163734  0.42711414  1
  S  S9  1  0.36399220  0.11132029  0.42724736  1
  S  S10  1  0.86852470  0.35170376  0.80356520  1
  S  S11  1  0.86557425  0.86236216  0.80147239  1
  S  S12  1  0.36953160  0.61181941  0.67580545  1
  S  S13  1  0.36220222  0.11130026  0.67674739  1
  S  S14  1  0.37322011  0.60919681  0.92931124  1
  S  S15  1  0.36262307  0.10114734  0.92615004  1
  S  S16  1  0.63574844  0.64668740  0.30637714  1
  S  S17  1  0.63582940  0.14560590  0.30602932  1
  S  S18  1  0.63826656  0.64568861  0.55540452  1
  S  S19  1  0.63624297  0.14601365  0.55582373  1
  S  S20  1  0.13624625  0.89566309  0.43072276  1
  S  S21  1  0.13534144  0.39612309  0.43087337  1
  S  S22  1  0.63169004  0.64554078  0.80253642  1
  S  S23  1  0.62493860  0.14098484  0.80507025  1
  S  S24  1  0.13193829  0.89361684  0.68002125  1
  S  S25  1  0.14006322  0.39540933  0.67916437  1
  S  S26  1  0.63269299  0.65139060  0.05277720  1
  S  S27  1  0.62985416  0.14525195  0.05438288  1
  S  S28  1  0.12354680  0.89073604  0.92964604  1
  S  S29  1  0.12749020  0.40317902  0.92628614  1
  S  S30  1  0.13434727  0.89572936  0.18067894  1
  S  S31  1  0.13750329  0.40014500  0.18071157  1
  S  S32  1  0.86411632  0.13786370  0.19777626  1
  S  S33  1  0.86197069  0.63741611  0.19829257  1
  S  S34  1  0.86495827  0.13910223  0.44762604  1
  S  S35  1  0.86494973  0.63904468  0.44747789  1
  S  S36  1  0.36385022  0.38834150  0.32284599  1
  S  S37  1  0.36385664  0.88866563  0.32256934  1
  S  S38  1  0.86756079  0.13940505  0.69759242  1
  S  S39  1  0.87501166  0.64757067  0.69750898  1
  S  S40  1  0.37494189  0.39315038  0.57217958  1
  S  S41  1  0.36505478  0.88747310  0.57227887  1
  S  S42  1  0.86822117  0.13985682  0.94789594  1
  S  S43  1  0.86734494  0.64566186  0.94775524  1
  S  S44  1  0.37444512  0.40554702  0.82302505  1
  S  S45  1  0.36624856  0.88832771  0.82194671  1
  S  S46  1  0.36394033  0.39203170  0.07344912  1
  S  S47  1  0.36799285  0.88618871  0.07342319  1
  S  S48  1  0.63481904  0.35293759  0.19417302  1
  S  S49  1  0.63890442  0.85597885  0.19455654  1
  S  S50  1  0.63654284  0.35383860  0.44372046  1
  S  S51  1  0.63438577  0.85419395  0.44372836  1
  S  S52  1  0.13527258  0.60417052  0.31924009  1
  S  S53  1  0.13572057  0.10430362  0.31904695  1
  S  S54  1  0.63563642  0.34822477  0.69658731  1
  S  S55  1  0.62755741  0.85503571  0.69603007  1
  S  S56  1  0.13873001  0.60411468  0.56811311  1
  S  S57  1  0.13289174  0.10099858  0.56999047  1
  S  S58  1  0.63090715  0.35130776  0.94568252  1
  S  S59  1  0.62666459  0.86206598  0.94634794  1
  S  S60  1  0.12639071  0.61033265  0.82167311  1
  S  S61  1  0.12637745  0.09980162  0.82157126  1
  S  S62  1  0.13292698  0.60763137  0.07239642  1
  S  S63  1  0.13824904  0.10433863  0.06844111  1
loop_
_geom_bond_atom_site_label_1
_geom_bond_atom_site_label_2
_geom_bond_distance
_geom_bond_site_symmetry_2
Li0 S58 2.590535 1_555
Li0 S10 2.600230 1_555
Li0 S22 2.645757 1_555
Li0 S43 2.663603 1_555
Li1 S23 2.527974 1_555
Li1 S59 2.561549 1_545
Li1 S42 2.592321 1_555
Li1 S11 2.624278 1_545
Li2 S60 2.470430 1_555
Li2 S45 2.558630 1_555
Li2 S12 2.613858 1_555
Li2 S24 2.681113 1_555
Li3 S14 2.472803 1_555
Li3 S62 2.558854 1_556
Li3 S28 2.623511 1_555
Li3 S47 2.684557 1_556
Li4 S4 2.450965 1_555
Li4 S48 2.457513 1_555
Li4 S16 2.470207 1_555
Li4 S36 2.470732 1_555
Li5 S17 2.468046 1_555
Li5 S37 2.470488 1_545
Li5 S49 2.471755 1_545
Li5 S5 2.474581 1_555
Li6 S40 2.438486 1_555
Li6 S18 2.463952 1_555
Li6 S50 2.464785 1_555
Li6 S8 2.464934 1_555
Li7 S19 2.467095 1_555
Li7 S51 2.469315 1_545
Li7 S9 2.473825 1_555
Li7 S41 2.483314 1_545
Li8 S52 2.462186 1_555
Li8 S35 2.465785 1_455
Li8 S3 2.466049 1_455
Li8 S20 2.469212 1_555
Li9 S21 2.468666 1_555
Li9 S34 2.472300 1_455
Li9 S2 2.472829 1_455
Li9 S53 2.473939 1_555
Li10 S44 2.384085 1_555
Li10 S22 2.440209 1_555
Li10 S54 2.440347 1_555
Li10 S12 2.451771 1_555
Li11 S23 2.395870 1_555
Li11 S13 2.434274 1_555
Li11 S55 2.445869 1_545
Li11 S45 2.449642 1_545
Li12 S39 2.404424 1_555
Li12 S7 2.438117 1_555
Li12 S56 2.476214 1_655
Li12 S24 2.491247 1_655
Li13 S25 2.424504 1_555
Li13 S6 2.480155 1_455
Li13 S38 2.483600 1_455
Li13 S57 2.484314 1_555
Li14 S58 2.420183 1_554
Li14 S14 2.425659 1_554
Li14 S46 2.442102 1_555
Li14 S26 2.490872 1_555
Li15 S15 2.410055 1_554
Li15 S27 2.410467 1_555
Li15 S59 2.418605 1_544
Li15 S47 2.451701 1_545
Li16 S60 2.367151 1_655
Li16 S43 2.396481 1_555
Li16 S28 2.412513 1_655
Li16 S11 2.439309 1_555
Li17 S29 2.373465 1_555
Li17 S61 2.419699 1_555
Li17 S10 2.430370 1_455
Li17 S42 2.493032 1_455
Li18 S62 2.418716 1_655
Li18 S33 2.442292 1_555
Li18 S30 2.461513 1_655
Li18 S1 2.467556 1_555
Li19 S0 2.411037 1_455
Li19 S32 2.474729 1_455
Li19 S63 2.490355 1_555
Li19 S31 2.498544 1_555
Li20 S44 2.370541 1_555
Li20 S15 2.399670 1_555
Li20 S58 2.439086 1_555
Li20 S23 2.442893 1_555
Li21 S14 2.365571 1_555
Li21 S45 2.392647 1_555
Li21 S22 2.403610 1_555
Li21 S59 2.404659 1_555
Li22 S25 2.406623 1_555
Li22 S60 2.419352 1_555
Li22 S39 2.424467 1_455
Li22 S10 2.426312 1_455
Li23 S29 2.376184 1_654
Li23 S0 2.389641 1_555
Li23 S62 2.421596 1_655
Li23 S43 2.447961 1_554
P0 S48 2.061161 1_555
P0 S32 2.065676 1_555
P0 S2 2.065999 1_555
P0 S17 2.066057 1_555
P1 S33 2.062277 1_555
P1 S16 2.062929 1_555
P1 S3 2.064293 1_555
P1 S49 2.065319 1_555
P2 S19 2.063840 1_555
P2 S6 2.064067 1_555
P2 S50 2.065298 1_555
P2 S34 2.067207 1_555
P3 S18 2.062623 1_555
P3 S35 2.063119 1_555
P3 S51 2.063596 1_555
P3 S7 2.063886 1_555
P4 S21 2.063244 1_555
P4 S52 2.064005 1_555
P4 S8 2.065560 1_555
P4 S36 2.065624 1_555
P5 S53 2.064372 1_555
P5 S37 2.064575 1_545
P5 S9 2.064791 1_555
P5 S20 2.064928 1_545
P6 S10 2.052253 1_555
P6 S23 2.052760 1_555
P6 S54 2.071015 1_555
P6 S38 2.071772 1_555
P7 S39 2.015762 1_555
P7 S22 2.054191 1_555
P7 S55 2.071043 1_555
P7 S11 2.115010 1_555
P8 S25 2.009736 1_555
P8 S40 2.065593 1_555
P8 S56 2.071719 1_555
P8 S12 2.112942 1_555
P9 S13 2.053561 1_565
P9 S57 2.057178 1_565
P9 S41 2.058323 1_555
P9 S24 2.096270 1_555
P10 S0 2.012526 1_555
P10 S58 2.051802 1_554
P10 S27 2.070119 1_555
P10 S42 2.121596 1_554
P11 S43 2.054099 1_555
P11 S59 2.054498 1_555
P11 S1 2.069588 1_556
P11 S26 2.073072 1_556
P12 S44 2.032001 1_555
P12 S29 2.032308 1_555
P12 S60 2.081356 1_555
P12 S14 2.083083 1_555
P13 S15 2.016482 1_565
P13 S45 2.055811 1_555
P13 S61 2.065633 1_565
P13 S28 2.110086 1_555
P14 S62 2.052478 1_555
P14 S4 2.065974 1_555
P14 S46 2.066122 1_555
P14 S31 2.068562 1_555
P15 S63 2.055567 1_565
P15 S5 2.057728 1_565
P15 S30 2.058712 1_555
P15 S47 2.092231 1_555
S1 Zn11 2.355725 1_565
S2 Zn4 2.374033 1_555
S3 Zn5 2.370296 1_565
S4 Zn1 2.356032 1_555
S5 Zn0 2.395233 1_555
S6 Zn8 2.373297 1_555
S7 Zn9 2.365215 1_555
S8 Zn3 2.368143 1_555
S9 Zn2 2.373868 1_555
S11 Zn10 2.375994 1_565
S12 Zn7 2.373278 1_555
S13 Zn6 2.391224 1_555
S16 Zn3 2.366448 1_555
S17 Zn2 2.374538 1_555
S18 Zn7 2.354425 1_555
S19 Zn6 2.378848 1_555
S20 Zn9 2.366475 1_455
S21 Zn8 2.376555 1_455
S24 Zn10 2.383275 1_465
S26 Zn1 2.357965 1_555
S27 Zn0 2.358157 1_555
S28 Zn11 2.392995 1_466
S30 Zn5 2.382967 1_465
S31 Zn4 2.359988 1_455
S32 Zn5 2.363166 1_555
S33 Zn4 2.372786 1_555
S34 Zn9 2.364154 1_545
S35 Zn8 2.378976 1_555
S36 Zn2 2.370867 1_555
S37 Zn3 2.369722 1_555
S38 Zn10 2.330523 1_555
S40 Zn6 2.365846 1_555
S41 Zn7 2.376294 1_555
S42 Zn11 2.352593 1_556
S46 Zn0 2.370471 1_555
S47 Zn1 2.396818 1_555
S48 Zn0 2.373799 1_555
S49 Zn1 2.356260 1_555
S50 Zn2 2.370754 1_555
S51 Zn3 2.368008 1_555
S52 Zn4 2.369831 1_455
S53 Zn5 2.369507 1_455
S54 Zn6 2.361941 1_555
S55 Zn7 2.355769 1_555
S56 Zn8 2.363895 1_455
S57 Zn9 2.373368 1_445
S61 Zn10 2.350596 1_455
S63 Zn11 2.360846 1_455
