# generated using pymatgen
data_LiPr2IrO6
_symmetry_space_group_name_H-M   'P 1'
_cell_length_a   5.83676400
_cell_length_b   5.48859200
_cell_length_c   9.52791552
_cell_angle_alpha   55.35242892
_cell_angle_beta   90.00000000
_cell_angle_gamma   90.00000000
_symmetry_Int_Tables_number   1
_chemical_formula_structural   LiPr2IrO6
_chemical_formula_sum   'Li2 Pr4 Ir2 O12'
_cell_volume   251.10409768
_cell_formula_units_Z   2
loop_
 _symmetry_equiv_pos_site_id
 _symmetry_equiv_pos_as_xyz
  1  'x, y, z'
loop_
 _atom_site_type_symbol
 _atom_site_label
 _atom_site_symmetry_multiplicity
 _atom_site_fract_x
 _atom_site_fract_y
 _atom_site_fract_z
 _atom_site_occupancy
  Li  Li0  1  0.00000000  0.00000000  0.00000000  1
  Li  Li1  1  0.50000000  0.00000000  0.50000000  1
  Pr  Pr0  1  0.07026200  0.76852300  0.74823600  1
  Pr  Pr1  1  0.57026200  0.23147700  0.75176400  1
  Pr  Pr2  1  0.42973800  0.76852300  0.24823600  1
  Pr  Pr3  1  0.92973800  0.23147700  0.25176400  1
  Ir  Ir0  1  0.50000000  0.50000000  0.00000000  1
  Ir  Ir1  1  0.00000000  0.50000000  0.50000000  1
  O  O0  1  0.28706100  0.26713100  0.55057500  1
  O  O1  1  0.78706100  0.73286900  0.94942500  1
  O  O2  1  0.71293900  0.73286900  0.44942500  1
  O  O3  1  0.21293900  0.26713100  0.05057500  1
  O  O4  1  0.02664700  0.65234100  0.25434600  1
  O  O5  1  0.52664700  0.34765900  0.24565400  1
  O  O6  1  0.31075700  0.84357000  0.95339200  1
  O  O7  1  0.81075700  0.15643000  0.54660800  1
  O  O8  1  0.68924300  0.15643000  0.04660800  1
  O  O9  1  0.18924300  0.84357000  0.45339200  1
  O  O10  1  0.47335300  0.65234100  0.75434600  1
  O  O11  1  0.97335300  0.34765900  0.74565400  1
loop_
_geom_bond_atom_site_label_1
_geom_bond_atom_site_label_2
_geom_bond_distance
_geom_bond_site_symmetry_2
Li0 O4 2.068838 1_545
Li0 O11 2.068838 1_454
Li0 O6 2.158199 1_544
Li0 O8 2.158199 1_455
Li0 O3 2.174844 1_555
Li0 O1 2.174844 1_444
Li1 O10 2.068838 1_545
Li1 O5 2.068838 1_555
Li1 O7 2.158199 1_555
Li1 O9 2.158199 1_545
Li1 O0 2.174844 1_555
Li1 O2 2.174844 1_545
Ir0 O1 1.993194 1_554
Ir0 O3 1.993194 1_555
Ir0 O5 1.994073 1_555
Ir0 O10 1.994073 1_554
Ir0 O8 2.005249 1_555
Ir0 O6 2.005249 1_554
Ir1 O2 1.993194 1_455
Ir1 O0 1.993194 1_555
Ir1 O11 1.994073 1_455
Ir1 O4 1.994073 1_555
Ir1 O9 2.005249 1_555
Ir1 O7 2.005249 1_455
O0 Pr1 2.453293 1_555
O0 Pr0 2.603275 1_545
O0 Pr2 2.747907 1_555
O1 Pr0 2.453293 1_655
O1 Pr1 2.603275 1_565
O1 Pr3 2.747907 1_556
O2 Pr2 2.453293 1_555
O2 Pr3 2.603275 1_565
O2 Pr1 2.747907 1_555
O3 Pr3 2.453293 1_455
O3 Pr2 2.603275 1_545
O3 Pr0 2.747907 1_554
O4 Pr3 2.391869 1_455
O4 Pr2 2.429656 1_555
O5 Pr2 2.391869 1_555
O5 Pr3 2.429656 1_555
O6 Pr1 2.422197 1_565
O6 Pr0 2.622300 1_555
O6 Pr2 2.688512 1_556
O7 Pr0 2.422197 1_645
O7 Pr1 2.622300 1_555
O7 Pr3 2.688512 1_555
O8 Pr2 2.422197 1_545
O8 Pr3 2.622300 1_555
O8 Pr1 2.688512 1_554
O9 Pr3 2.422197 1_465
O9 Pr2 2.622300 1_555
O9 Pr0 2.688512 1_555
O10 Pr1 2.391869 1_555
O10 Pr0 2.429656 1_555
O11 Pr0 2.391869 1_655
O11 Pr1 2.429656 1_555
