# generated using pymatgen
data_ZnH8C4(NO3)2
_symmetry_space_group_name_H-M   'P 1'
_cell_length_a   8.29210600
_cell_length_b   10.46536700
_cell_length_c   9.78029776
_cell_angle_alpha   90.00000000
_cell_angle_beta   117.10653597
_cell_angle_gamma   90.00000000
_symmetry_Int_Tables_number   1
_chemical_formula_structural   ZnH8C4(NO3)2
_chemical_formula_sum   'Zn2 H16 C8 N4 O12'
_cell_volume   755.50938992
_cell_formula_units_Z   2
loop_
 _symmetry_equiv_pos_site_id
 _symmetry_equiv_pos_as_xyz
  1  'x, y, z'
loop_
 _atom_site_type_symbol
 _atom_site_label
 _atom_site_symmetry_multiplicity
 _atom_site_fract_x
 _atom_site_fract_y
 _atom_site_fract_z
 _atom_site_occupancy
  Zn  Zn0  1  0.00000000  0.00000000  0.00000000  1
  Zn  Zn1  1  0.00000000  0.50000000  0.50000000  1
  H  H0  1  0.52877500  0.02932200  0.88662800  1
  H  H1  1  0.47122500  0.52932200  0.61337200  1
  H  H2  1  0.47122500  0.97067800  0.11337200  1
  H  H3  1  0.52877500  0.47067800  0.38662800  1
  H  H4  1  0.39164400  0.07370000  0.69278400  1
  H  H5  1  0.60835600  0.57370000  0.80721600  1
  H  H6  1  0.60835600  0.92630000  0.30721600  1
  H  H7  1  0.39164400  0.42630000  0.19278400  1
  H  H8  1  0.12553300  0.05853100  0.71140000  1
  H  H9  1  0.87446700  0.55853100  0.78860000  1
  H  H10  1  0.87446700  0.94146900  0.28860000  1
  H  H11  1  0.12553300  0.44146900  0.21140000  1
  H  H12  1  0.14188900  0.19701100  0.06671600  1
  H  H13  1  0.85811100  0.69701100  0.43328400  1
  H  H14  1  0.85811100  0.80298900  0.93328400  1
  H  H15  1  0.14188900  0.30298900  0.56671600  1
  C  C0  1  0.25371000  0.03682800  0.81474000  1
  C  C1  1  0.74629000  0.53682800  0.68526000  1
  C  C2  1  0.74629000  0.96317200  0.18526000  1
  C  C3  1  0.25371000  0.46317200  0.31474000  1
  C  C4  1  0.32018500  0.14204200  0.35520300  1
  C  C5  1  0.67981500  0.64204200  0.14479700  1
  C  C6  1  0.67981500  0.85795800  0.64479700  1
  C  C7  1  0.32018500  0.35795800  0.85520300  1
  N  N0  1  0.40219500  0.04364100  0.79500200  1
  N  N1  1  0.59780500  0.54364100  0.70499800  1
  N  N2  1  0.59780500  0.95635900  0.20499800  1
  N  N3  1  0.40219500  0.45635900  0.29500200  1
  O  O0  1  0.29651100  0.06597300  0.42888900  1
  O  O1  1  0.70348900  0.56597300  0.07111100  1
  O  O2  1  0.70348900  0.93402700  0.57111100  1
  O  O3  1  0.29651100  0.43402700  0.92888900  1
  O  O4  1  0.96404500  0.83629400  0.92708300  1
  O  O5  1  0.03595500  0.33629400  0.57291700  1
  O  O6  1  0.03595500  0.16370600  0.07291700  1
  O  O7  1  0.96404500  0.66370600  0.42708300  1
  O  O8  1  0.25485900  0.00898200  0.93984900  1
  O  O9  1  0.74514100  0.50898200  0.56015100  1
  O  O10  1  0.74514100  0.99101800  0.06015100  1
  O  O11  1  0.25485900  0.49101800  0.43984900  1
loop_
_geom_bond_atom_site_label_1
_geom_bond_atom_site_label_2
_geom_bond_distance
_geom_bond_site_symmetry_2
H0 N0 1.034428 1_555
H1 N1 1.034428 1_555
H2 N2 1.034428 1_555
H3 N3 1.034428 1_555
H4 N0 1.013090 1_555
H5 N1 1.013090 1_555
H6 N2 1.013090 1_555
H7 N3 1.013090 1_555
H12 O6 0.972279 1_555
H13 O7 0.972279 1_555
H14 O4 0.972279 1_555
H15 O5 0.972279 1_555
C0 H8 1.106267 1_555
C0 O8 1.253633 1_555
C0 N0 1.332267 1_555
C1 H9 1.106267 1_555
C1 O9 1.253633 1_555
C1 N1 1.332267 1_555
C2 H10 1.106267 1_555
C2 O10 1.253633 1_555
C2 N2 1.332267 1_555
C3 H11 1.106267 1_555
C3 O11 1.253633 1_555
C3 N3 1.332267 1_555
C4 O0 1.149167 1_555
C5 O1 1.149167 1_555
C6 O2 1.149167 1_555
C7 O3 1.149167 1_555
O4 Zn0 1.827270 1_666
O5 Zn1 1.827270 1_555
O6 Zn0 1.827270 1_555
O7 Zn1 1.827270 1_655
O8 Zn0 2.440083 1_556
O9 Zn1 2.440083 1_655
O10 Zn0 2.440083 1_665
O11 Zn1 2.440083 1_555
