# generated using pymatgen
data_Sb5IO7
_symmetry_space_group_name_H-M   'P 1'
_cell_length_a   6.91436100
_cell_length_b   11.91578100
_cell_length_c   13.04907200
_cell_angle_alpha   90.00000000
_cell_angle_beta   90.00000000
_cell_angle_gamma   90.00000000
_symmetry_Int_Tables_number   1
_chemical_formula_structural   Sb5IO7
_chemical_formula_sum   'Sb20 I4 O28'
_cell_volume   1075.11319124
_cell_formula_units_Z   4
loop_
 _symmetry_equiv_pos_site_id
 _symmetry_equiv_pos_as_xyz
  1  'x, y, z'
loop_
 _atom_site_type_symbol
 _atom_site_label
 _atom_site_symmetry_multiplicity
 _atom_site_fract_x
 _atom_site_fract_y
 _atom_site_fract_z
 _atom_site_occupancy
  Sb  Sb0  1  0.98077600  0.16080000  0.76881700  1
  Sb  Sb1  1  0.48077600  0.66080000  0.73118300  1
  Sb  Sb2  1  0.92294100  0.18080700  0.24520300  1
  Sb  Sb3  1  0.42294100  0.68080700  0.25479700  1
  Sb  Sb4  1  0.44432400  0.01620400  0.75605200  1
  Sb  Sb5  1  0.94432400  0.51620400  0.74394800  1
  Sb  Sb6  1  0.44432400  0.98379600  0.24394800  1
  Sb  Sb7  1  0.94432400  0.48379600  0.25605200  1
  Sb  Sb8  1  0.92294100  0.81919300  0.75479700  1
  Sb  Sb9  1  0.42294100  0.31919300  0.74520300  1
  Sb  Sb10  1  0.98077600  0.83920000  0.23118300  1
  Sb  Sb11  1  0.48077600  0.33920000  0.26881700  1
  Sb  Sb12  1  0.29015300  0.82963400  0.94081100  1
  Sb  Sb13  1  0.79015300  0.32963400  0.55918900  1
  Sb  Sb14  1  0.27901300  0.83255400  0.55047600  1
  Sb  Sb15  1  0.77901300  0.33255400  0.94952400  1
  Sb  Sb16  1  0.79015300  0.67036600  0.44081100  1
  Sb  Sb17  1  0.29015300  0.17036600  0.05918900  1
  Sb  Sb18  1  0.77901300  0.66744600  0.05047600  1
  Sb  Sb19  1  0.27901300  0.16744600  0.44952400  1
  I  I0  1  0.74082400  0.00000000  0.00000000  1
  I  I1  1  0.24082400  0.50000000  0.50000000  1
  I  I2  1  0.82605000  0.00000000  0.50000000  1
  I  I3  1  0.32605000  0.50000000  0.00000000  1
  O  O0  1  0.28556700  0.16612800  0.75494000  1
  O  O1  1  0.78556700  0.66612800  0.74506000  1
  O  O2  1  0.28556700  0.83387200  0.24506000  1
  O  O3  1  0.78556700  0.33387200  0.25494000  1
  O  O4  1  0.48047700  0.78984100  0.82876000  1
  O  O5  1  0.98047700  0.28984100  0.67124000  1
  O  O6  1  0.51711400  0.76205500  0.61258400  1
  O  O7  1  0.01711400  0.26205500  0.88741600  1
  O  O8  1  0.55988100  0.74683500  0.37407500  1
  O  O9  1  0.05988100  0.24683500  0.12592500  1
  O  O10  1  0.61605400  0.74778300  0.15985700  1
  O  O11  1  0.11605400  0.24778300  0.34014300  1
  O  O12  1  0.05988100  0.75316500  0.87407500  1
  O  O13  1  0.55988100  0.25316500  0.62592500  1
  O  O14  1  0.11605400  0.75221700  0.65985700  1
  O  O15  1  0.61605400  0.25221700  0.84014300  1
  O  O16  1  0.98047700  0.71015900  0.32876000  1
  O  O17  1  0.48047700  0.21015900  0.17124000  1
  O  O18  1  0.01711400  0.73794500  0.11258400  1
  O  O19  1  0.51711400  0.23794500  0.38741600  1
  O  O20  1  0.23985000  0.96973900  0.85733000  1
  O  O21  1  0.73985000  0.46973900  0.64267000  1
  O  O22  1  0.29317400  0.97278800  0.63358800  1
  O  O23  1  0.79317400  0.47278800  0.86641200  1
  O  O24  1  0.29317400  0.02721200  0.36641200  1
  O  O25  1  0.79317400  0.52721200  0.13358800  1
  O  O26  1  0.23985000  0.03026100  0.14267000  1
  O  O27  1  0.73985000  0.53026100  0.35733000  1
loop_
_geom_bond_atom_site_label_1
_geom_bond_atom_site_label_2
_geom_bond_distance
_geom_bond_site_symmetry_2
O0 Sb9 2.060324 1_555
O0 Sb4 2.096809 1_555
O0 Sb0 2.116153 1_455
O1 Sb8 2.060324 1_555
O1 Sb5 2.096809 1_555
O1 Sb1 2.116153 1_555
O2 Sb3 2.060324 1_555
O2 Sb6 2.096809 1_555
O2 Sb10 2.116153 1_455
O3 Sb2 2.060324 1_555
O3 Sb7 2.096809 1_555
O3 Sb11 2.116153 1_555
O4 Sb1 1.996386 1_555
O4 Sb12 2.023493 1_555
O5 Sb0 1.996386 1_555
O5 Sb13 2.023493 1_555
O6 Sb1 1.978367 1_555
O6 Sb14 2.018136 1_555
O7 Sb0 1.978367 1_455
O7 Sb15 2.018136 1_455
O8 Sb3 1.984474 1_555
O8 Sb16 2.030685 1_555
O9 Sb2 1.984474 1_455
O9 Sb17 2.030685 1_555
O10 Sb3 1.988628 1_555
O10 Sb18 2.055044 1_555
O11 Sb2 1.988628 1_455
O11 Sb19 2.055044 1_555
O12 Sb8 1.984474 1_455
O12 Sb12 2.030685 1_555
O13 Sb9 1.984474 1_555
O13 Sb13 2.030685 1_555
O14 Sb8 1.988628 1_455
O14 Sb14 2.055044 1_555
O15 Sb9 1.988628 1_555
O15 Sb15 2.055044 1_555
O16 Sb10 1.996386 1_555
O16 Sb16 2.023493 1_555
O17 Sb11 1.996386 1_555
O17 Sb17 2.023493 1_555
O18 Sb10 1.978367 1_455
O18 Sb18 2.018136 1_455
O19 Sb11 1.978367 1_555
O19 Sb19 2.018136 1_555
O20 Sb4 2.012953 1_565
O20 Sb12 2.023550 1_555
O21 Sb5 2.012953 1_555
O21 Sb13 2.023550 1_555
O22 Sb4 1.978287 1_565
O22 Sb14 1.994501 1_555
O23 Sb5 1.978287 1_555
O23 Sb15 1.994501 1_555
O24 Sb6 1.978287 1_545
O24 Sb19 1.994501 1_555
O25 Sb7 1.978287 1_555
O25 Sb18 1.994501 1_555
O26 Sb6 2.012953 1_545
O26 Sb17 2.023550 1_555
O27 Sb7 2.012953 1_555
O27 Sb16 2.023550 1_555
