# generated using pymatgen
data_Tm3(Si3Pd10)2
_symmetry_space_group_name_H-M   'P 1'
_cell_length_a   8.61647062
_cell_length_b   8.61644933
_cell_length_c   8.61647936
_cell_angle_alpha   60.00008521
_cell_angle_beta   60.00017857
_cell_angle_gamma   60.00006751
_symmetry_Int_Tables_number   1
_chemical_formula_structural   Tm3(Si3Pd10)2
_chemical_formula_sum   'Tm3 Si6 Pd20'
_cell_volume   452.34905922
_cell_formula_units_Z   1
loop_
 _symmetry_equiv_pos_site_id
 _symmetry_equiv_pos_as_xyz
  1  'x, y, z'
loop_
 _atom_site_type_symbol
 _atom_site_label
 _atom_site_symmetry_multiplicity
 _atom_site_fract_x
 _atom_site_fract_y
 _atom_site_fract_z
 _atom_site_occupancy
  Tm  Tm0  1  0.25000314  0.25000113  0.24999658  1
  Tm  Tm1  1  0.74999743  0.75000061  0.75000387  1
  Tm  Tm2  1  0.99999979  0.00000002  -0.00000021  1
  Si  Si0  1  0.73277497  0.26722994  0.26722508  1
  Si  Si1  1  0.26723080  0.73277006  0.73277442  1
  Si  Si2  1  0.26723043  0.73277364  0.26722395  1
  Si  Si3  1  0.73277067  0.26722918  0.73277259  1
  Si  Si4  1  0.26722737  0.26722589  0.73277643  1
  Si  Si5  1  0.73277212  0.73276939  0.26722820  1
  Pd  Pd0  1  0.38294861  0.38295853  0.38296178  1
  Pd  Pd1  1  0.61704800  0.61704658  0.61703668  1
  Pd  Pd2  1  0.38295336  0.38296378  0.85112372  1
  Pd  Pd3  1  0.38295065  0.85113063  0.38296287  1
  Pd  Pd4  1  0.61704459  0.61704283  0.14887652  1
  Pd  Pd5  1  0.61705085  0.14886804  0.61703905  1
  Pd  Pd6  1  0.85113258  0.38295657  0.38295897  1
  Pd  Pd7  1  0.14886869  0.61704958  0.61703883  1
  Pd  Pd8  1  0.34515206  0.99999820  0.00000270  1
  Pd  Pd9  1  0.65484838  -0.00000338  0.00000049  1
  Pd  Pd10  1  0.00000287  0.34515642  0.65483518  1
  Pd  Pd11  1  -0.00000432  0.65484392  0.34516331  1
  Pd  Pd12  1  -0.00000014  0.34515787  0.99999865  1
  Pd  Pd13  1  0.65484714  -0.00000785  0.34516061  1
  Pd  Pd14  1  -0.00000020  0.65484463  0.99999914  1
  Pd  Pd15  1  0.34515099  0.00000112  0.65483967  1
  Pd  Pd16  1  0.99999893  0.99999253  0.34516478  1
  Pd  Pd17  1  0.00000482  -0.00000007  0.65483712  1
  Pd  Pd18  1  0.65484621  0.34515292  -0.00000078  1
  Pd  Pd19  1  0.34514919  0.65484730  -0.00000018  1
loop_
_geom_bond_atom_site_label_1
_geom_bond_atom_site_label_2
_geom_bond_distance
_geom_bond_site_symmetry_2
Pd0 Si2 2.461091 1_555
Pd0 Si4 2.461099 1_555
Pd0 Si0 2.461179 1_555
Pd0 Tm0 2.806160 1_555
Pd1 Si5 2.461056 1_555
Pd1 Si3 2.461107 1_555
Pd1 Si1 2.461114 1_555
Pd1 Tm1 2.806178 1_555
Pd2 Si1 2.461029 1_555
Pd2 Si4 2.461064 1_555
Pd2 Si3 2.461115 1_555
Pd2 Tm0 2.806206 1_556
Pd3 Si1 2.461078 1_555
Pd3 Si2 2.461099 1_555
Pd3 Si5 2.461144 1_555
Pd3 Tm0 2.806176 1_565
Pd4 Si5 2.461027 1_555
Pd4 Si0 2.461075 1_555
Pd4 Si2 2.461093 1_555
Pd4 Tm1 2.806204 1_554
Pd5 Si3 2.461088 1_555
Pd5 Si0 2.461095 1_555
Pd5 Si4 2.461158 1_555
Pd5 Tm1 2.806155 1_545
Pd6 Si5 2.461075 1_555
Pd6 Si3 2.461092 1_555
Pd6 Si0 2.461114 1_555
Pd6 Tm0 2.806186 1_655
Pd7 Si2 2.461101 1_555
Pd7 Si1 2.461114 1_555
Pd7 Si4 2.461152 1_555
Pd7 Tm1 2.806191 1_455
Pd8 Si2 2.398417 1_555
Pd8 Si4 2.398453 1_564
Pd8 Tm2 2.973999 1_465
Pd9 Si5 2.398457 1_545
Pd9 Si3 2.398481 1_554
Pd9 Tm2 2.973999 1_555
Pd10 Si3 2.398473 1_455
Pd10 Si4 2.398504 1_555
Pd10 Tm2 2.974067 1_456
Pd11 Si5 2.398479 1_455
Pd11 Si2 2.398502 1_555
Pd11 Tm2 2.974061 1_465
Pd12 Si4 2.398454 1_555
Pd12 Si0 2.398455 1_456
Pd12 Tm2 2.974031 1_456
Pd13 Si5 2.398454 1_545
Pd13 Si0 2.398523 1_555
Pd13 Tm2 2.974042 1_555
Pd14 Si5 2.398473 1_456
Pd14 Si1 2.398476 1_555
Pd14 Tm2 2.974017 1_466
Pd15 Si1 2.398429 1_545
Pd15 Si4 2.398498 1_555
Pd15 Tm2 2.974033 1_456
Pd16 Si2 2.398462 1_655
Pd16 Si0 2.398504 1_565
Pd16 Tm2 2.974071 1_565
Pd17 Si1 2.398486 1_545
Pd17 Si3 2.398512 1_455
Pd17 Tm2 2.974066 1_456
Pd18 Si3 2.398448 1_554
Pd18 Si0 2.398473 1_555
Pd18 Tm2 2.974002 1_555
Pd19 Si1 2.398414 1_554
Pd19 Si2 2.398458 1_555
Pd19 Tm2 2.973983 1_465
