# generated using pymatgen
data_Fe4SiO9
_symmetry_space_group_name_H-M   'P 1'
_cell_length_a   5.32941991
_cell_length_b   5.32941991
_cell_length_c   23.43199600
_cell_angle_alpha   90.00000000
_cell_angle_beta   90.00000000
_cell_angle_gamma   119.99999884
_symmetry_Int_Tables_number   1
_chemical_formula_structural   Fe4SiO9
_chemical_formula_sum   'Fe12 Si3 O27'
_cell_volume   576.36792059
_cell_formula_units_Z   3
loop_
 _symmetry_equiv_pos_site_id
 _symmetry_equiv_pos_as_xyz
  1  'x, y, z'
loop_
 _atom_site_type_symbol
 _atom_site_label
 _atom_site_symmetry_multiplicity
 _atom_site_fract_x
 _atom_site_fract_y
 _atom_site_fract_z
 _atom_site_occupancy
  Fe  Fe0  1  0.44922900  0.22642400  0.17003100  1
  Fe  Fe1  1  0.77357600  0.22280500  0.50336400  1
  Fe  Fe2  1  0.77719500  0.55077100  0.83669700  1
  Fe  Fe3  1  0.10758800  0.55095700  0.17148700  1
  Fe  Fe4  1  0.44904300  0.55663100  0.50482100  1
  Fe  Fe5  1  0.44336900  0.89241200  0.83815400  1
  Fe  Fe6  1  0.44324900  0.55248100  0.30305600  1
  Fe  Fe7  1  0.44751900  0.89076800  0.63639000  1
  Fe  Fe8  1  0.10923200  0.55675100  0.96972300  1
  Fe  Fe9  1  0.77739800  0.89303900  0.17093300  1
  Fe  Fe10  1  0.10696100  0.88436000  0.50426600  1
  Fe  Fe11  1  0.11564000  0.22260200  0.83759900  1
  Si  Si0  1  0.10975000  0.88524300  0.29695100  1
  Si  Si1  1  0.11475700  0.22450700  0.63028400  1
  Si  Si2  1  0.77549300  0.89025000  0.96361700  1
  O  O0  1  0.38223100  0.18961600  0.31789400  1
  O  O1  1  0.81038400  0.19261500  0.65122700  1
  O  O2  1  0.80738500  0.61776900  0.98456000  1
  O  O3  1  0.11002600  0.88788600  0.22424600  1
  O  O4  1  0.11211400  0.22213900  0.55757900  1
  O  O5  1  0.77786100  0.88997400  0.89091200  1
  O  O6  1  0.44765500  0.56058300  0.21834900  1
  O  O7  1  0.43941700  0.88707200  0.55168200  1
  O  O8  1  0.11292800  0.55234500  0.88501600  1
  O  O9  1  0.14533600  0.61724400  0.31938100  1
  O  O10  1  0.38275600  0.52809200  0.65271400  1
  O  O11  1  0.47190800  0.85466400  0.98604800  1
  O  O12  1  0.11332000  0.21610000  0.13318600  1
  O  O13  1  0.78390000  0.89722000  0.46652000  1
  O  O14  1  0.10278000  0.88668000  0.79985300  1
  O  O15  1  0.42004300  0.87032200  0.13452800  1
  O  O16  1  0.12967800  0.54972100  0.46786100  1
  O  O17  1  0.45027900  0.57995700  0.80119400  1
  O  O18  1  0.80761300  0.84832100  0.32052500  1
  O  O19  1  0.15167900  0.95929300  0.65385900  1
  O  O20  1  0.04070700  0.19238700  0.98719200  1
  O  O21  1  0.79157800  0.57476400  0.13362800  1
  O  O22  1  0.42523600  0.21681400  0.46696100  1
  O  O23  1  0.78318600  0.20842200  0.80029400  1
  O  O24  1  0.79392800  0.23140300  0.21046800  1
  O  O25  1  0.76859700  0.56252500  0.54380100  1
  O  O26  1  0.43747500  0.20607200  0.87713500  1
loop_
_geom_bond_atom_site_label_1
_geom_bond_atom_site_label_2
_geom_bond_distance
_geom_bond_site_symmetry_2
Fe0 O12 1.963345 1_555
Fe0 O15 2.005686 1_545
Fe0 O21 2.028732 1_555
Fe0 O24 2.055356 1_555
Fe0 O6 2.113851 1_555
Fe0 O3 2.208034 1_545
Fe1 O13 1.963334 1_545
Fe1 O16 2.005686 1_655
Fe1 O22 2.028732 1_555
Fe1 O25 2.055356 1_555
Fe1 O7 2.113851 1_545
Fe1 O4 2.208036 1_655
Fe2 O14 1.963334 1_655
Fe2 O17 2.005686 1_555
Fe2 O23 2.028732 1_555
Fe2 O26 2.055367 1_555
Fe2 O8 2.113864 1_655
Fe2 O5 2.208032 1_555
Fe3 O15 1.893563 1_555
Fe3 O24 1.918888 1_455
Fe3 O21 1.962933 1_455
Fe3 O12 2.011386 1_555
Fe3 O6 2.097633 1_555
Fe3 O3 2.174732 1_555
Fe4 O16 1.893573 1_555
Fe4 O25 1.918877 1_555
Fe4 O22 1.962944 1_555
Fe4 O13 2.011386 1_555
Fe4 O7 2.097620 1_555
Fe4 O4 2.174721 1_555
Fe5 O17 1.893573 1_555
Fe5 O26 1.918888 1_565
Fe5 O23 1.962944 1_565
Fe5 O14 2.011386 1_555
Fe5 O8 2.097633 1_555
Fe5 O5 2.174723 1_555
Fe6 O9 1.825993 1_555
Fe6 O0 1.826903 1_555
Fe6 O18 1.833725 1_555
Fe6 O6 1.985207 1_555
Fe7 O10 1.825989 1_555
Fe7 O1 1.826899 1_565
Fe7 O19 1.833728 1_555
Fe7 O7 1.985231 1_555
Fe8 O11 1.825993 1_555
Fe8 O2 1.826898 1_455
Fe8 O20 1.833723 1_555
Fe8 O8 1.985207 1_555
Fe9 O21 1.942979 1_555
Fe9 O12 1.967072 1_665
Fe9 O24 1.989703 1_565
Fe9 O15 2.034420 1_555
Fe9 O6 2.085256 1_555
Fe9 O3 2.180030 1_655
Fe10 O22 1.942976 1_565
Fe10 O13 1.967059 1_455
Fe10 O25 1.989706 1_455
Fe10 O16 2.034425 1_555
Fe10 O7 2.085258 1_555
Fe10 O4 2.180021 1_565
Fe11 O23 1.942974 1_455
Fe11 O14 1.967064 1_545
Fe11 O26 1.989719 1_555
Fe11 O17 2.034422 1_555
Fe11 O8 2.085266 1_555
Fe11 O5 2.180025 1_445
O0 Si0 1.620282 1_545
O1 Si1 1.620282 1_655
O2 Si2 1.620282 1_555
O3 Si0 1.703676 1_555
O4 Si1 1.703676 1_555
O5 Si2 1.703676 1_555
O9 Si0 1.619587 1_555
O10 Si1 1.619587 1_555
O11 Si2 1.619594 1_555
O18 Si0 1.618578 1_655
O19 Si1 1.618581 1_565
O20 Si2 1.618584 1_445
