# generated using pymatgen
data_Li7Mn4CoO12
_symmetry_space_group_name_H-M   'P 1'
_cell_length_a   5.85401802
_cell_length_b   8.46409045
_cell_length_c   10.12306591
_cell_angle_alpha   65.24315904
_cell_angle_beta   107.06365926
_cell_angle_gamma   90.31425531
_symmetry_Int_Tables_number   1
_chemical_formula_structural   Li7Mn4CoO12
_chemical_formula_sum   'Li14 Mn8 Co2 O24'
_cell_volume   431.43714678
_cell_formula_units_Z   2
loop_
 _symmetry_equiv_pos_site_id
 _symmetry_equiv_pos_as_xyz
  1  'x, y, z'
loop_
 _atom_site_type_symbol
 _atom_site_label
 _atom_site_symmetry_multiplicity
 _atom_site_fract_x
 _atom_site_fract_y
 _atom_site_fract_z
 _atom_site_occupancy
  Li  Li0  1  0.83288300  0.16701100  0.16596300  1
  Li  Li1  1  0.33373600  0.66621700  0.16758300  1
  Li  Li2  1  0.33294500  0.16649100  0.66662900  1
  Li  Li3  1  0.83383700  0.66691200  0.66664600  1
  Li  Li4  1  0.33326500  0.16674100  0.16647500  1
  Li  Li5  1  0.83347400  0.66653200  0.16691400  1
  Li  Li6  1  0.16686300  0.33839500  0.32724200  1
  Li  Li7  1  0.66060100  0.83485600  0.32702100  1
  Li  Li8  1  0.00655700  0.49971000  0.00631100  1
  Li  Li9  1  0.49934600  0.99358000  0.00620100  1
  Li  Li10  1  0.99845000  0.00181600  0.49655600  1
  Li  Li11  1  0.49906700  0.50148400  0.49714000  1
  Li  Li12  1  0.16783400  0.83172100  0.83645100  1
  Li  Li13  1  0.66783000  0.33187900  0.83616900  1
  Mn  Mn0  1  0.50069300  0.50216300  0.00167300  1
  Mn  Mn1  1  0.00096200  0.99573700  0.00229900  1
  Mn  Mn2  1  0.16589600  0.83136200  0.33165100  1
  Mn  Mn3  1  0.66575500  0.33742500  0.33102600  1
  Mn  Mn4  1  0.49920100  0.00083100  0.49829400  1
  Mn  Mn5  1  0.99792900  0.50262700  0.49462000  1
  Mn  Mn6  1  0.66890500  0.83066500  0.83877400  1
  Mn  Mn7  1  0.16734800  0.33243200  0.83499700  1
  Co  Co0  1  0.83333100  0.16654300  0.66664600  1
  Co  Co1  1  0.33335500  0.66679700  0.66668000  1
  O  O0  1  0.36040100  0.42440700  0.16601700  1
  O  O1  1  0.85816500  0.92138300  0.16712900  1
  O  O2  1  0.80849100  0.41197700  0.16618600  1
  O  O3  1  0.30625000  0.90891600  0.16735500  1
  O  O4  1  0.35941900  0.91704900  0.66994400  1
  O  O5  1  0.85735300  0.41909500  0.66295900  1
  O  O6  1  0.30719400  0.41639400  0.66345600  1
  O  O7  1  0.80922700  0.91413100  0.67032400  1
  O  O8  1  0.18128500  0.05464400  0.34407700  1
  O  O9  1  0.68704700  0.56413900  0.34063700  1
  O  O10  1  0.51271900  0.73791100  0.99262800  1
  O  O11  1  0.00309100  0.23158200  0.98940500  1
  O  O12  1  0.15415900  0.59558000  0.34090200  1
  O  O13  1  0.66343100  0.10156900  0.34370700  1
  O  O14  1  0.48537200  0.27909500  0.98910200  1
  O  O15  1  0.97963500  0.76888700  0.99284600  1
  O  O16  1  0.51192400  0.26312900  0.48685500  1
  O  O17  1  0.00072500  0.73799000  0.48709300  1
  O  O18  1  0.67942100  0.05731300  0.84676300  1
  O  O19  1  0.18911100  0.58331500  0.84616800  1
  O  O20  1  0.98732000  0.27588300  0.48659300  1
  O  O21  1  0.47755700  0.75024900  0.48714400  1
  O  O22  1  0.15473600  0.06998200  0.84644600  1
  O  O23  1  0.66590400  0.59544600  0.84629700  1
loop_
_geom_bond_atom_site_label_1
_geom_bond_atom_site_label_2
_geom_bond_distance
_geom_bond_site_symmetry_2
Li0 O1 2.079941 1_545
Li0 O2 2.080096 1_555
Li0 O14 2.169119 1_554
Li0 O11 2.169568 1_654
Li0 O13 2.176025 1_555
Li0 O8 2.177661 1_655
Li1 O3 2.060383 1_555
Li1 O0 2.060519 1_555
Li1 O9 2.172272 1_555
Li1 O12 2.176671 1_555
Li1 O15 2.182088 1_454
Li1 O10 2.187401 1_554
Li2 O4 2.103314 1_545
Li2 O6 2.107507 1_555
Li2 O20 2.171577 1_455
Li2 O18 2.175246 1_555
Li2 O22 2.220103 1_555
Li2 O16 2.222974 1_555
Li3 O7 2.114790 1_555
Li3 O5 2.119385 1_555
Li3 O17 2.177155 1_655
Li3 O23 2.181991 1_555
Li3 O19 2.202228 1_655
Li3 O21 2.206338 1_555
Li4 O11 2.098703 1_554
Li4 O13 2.099196 1_555
Li4 O14 2.102417 1_554
Li4 O8 2.103549 1_555
Li4 O3 2.183594 1_545
Li4 O0 2.183983 1_555
Li5 O12 2.042807 1_655
Li5 O9 2.044163 1_555
Li5 O10 2.044275 1_554
Li5 O15 2.045917 1_554
Li5 O2 2.161678 1_555
Li5 O1 2.161996 1_555
Li6 O20 2.064190 1_455
Li6 O16 2.081705 1_555
Li6 O0 2.135029 1_555
Li6 O2 2.145657 1_455
Li6 O12 2.241248 1_555
Li6 O8 2.335654 1_555
Li7 O17 2.067398 1_655
Li7 O21 2.080188 1_555
Li7 O3 2.122840 1_555
Li7 O1 2.142499 1_555
Li7 O9 2.240581 1_555
Li7 O13 2.332885 1_565
Li8 O23 2.068797 1_454
Li8 O19 2.078109 1_554
Li8 O0 2.120575 1_555
Li8 O2 2.144854 1_455
Li8 O15 2.228335 1_454
Li8 O11 2.345826 1_554
Li9 O18 2.066475 1_564
Li9 O22 2.080152 1_564
Li9 O3 2.132346 1_555
Li9 O1 2.147476 1_555
Li9 O10 2.228257 1_554
Li9 O14 2.349520 1_564
Li10 O13 2.023968 1_555
Li10 O8 2.028383 1_655
Li10 O4 2.201374 1_645
Li10 O7 2.216586 1_545
Li10 O17 2.275102 1_645
Li10 O20 2.279782 1_555
Li11 O16 2.066115 1_555
Li11 O21 2.067970 1_555
Li11 O12 2.073902 1_555
Li11 O9 2.077318 1_555
Li11 O5 2.161615 1_555
Li11 O6 2.168024 1_555
Li12 O22 2.064023 1_565
Li12 O19 2.065984 1_555
Li12 O10 2.073437 1_555
Li12 O15 2.077295 1_455
Li12 O7 2.164127 1_455
Li12 O4 2.168306 1_555
Li13 O11 2.026697 1_655
Li13 O14 2.030555 1_555
Li13 O6 2.197375 1_555
Li13 O5 2.213355 1_555
Li13 O23 2.275933 1_555
Li13 O18 2.281573 1_555
Mn0 O19 1.923516 1_554
Mn0 O0 1.937602 1_555
Mn0 O14 1.944664 1_554
Mn0 O2 1.947348 1_555
Mn0 O10 1.960651 1_554
Mn0 O23 1.969006 1_554
Mn1 O22 1.921286 1_564
Mn1 O3 1.938905 1_555
Mn1 O11 1.945383 1_564
Mn1 O1 1.952522 1_455
Mn1 O15 1.963592 1_454
Mn1 O18 1.969249 1_464
Mn2 O21 1.923790 1_555
Mn2 O3 1.937476 1_555
Mn2 O8 1.945808 1_565
Mn2 O1 1.947067 1_455
Mn2 O12 1.960095 1_555
Mn2 O17 1.969403 1_555
Mn3 O16 1.921314 1_555
Mn3 O0 1.938991 1_555
Mn3 O13 1.946278 1_555
Mn3 O2 1.952303 1_555
Mn3 O9 1.963138 1_555
Mn3 O20 1.969498 1_555
Mn4 O8 1.953698 1_555
Mn4 O13 1.963830 1_555
Mn4 O7 1.988597 1_545
Mn4 O4 1.996965 1_545
Mn4 O21 2.171723 1_545
Mn4 O16 2.176188 1_555
Mn5 O9 1.918009 1_555
Mn5 O12 1.918024 1_655
Mn5 O20 1.954498 1_555
Mn5 O17 1.961610 1_655
Mn5 O6 1.971125 1_655
Mn5 O5 1.971955 1_555
Mn6 O15 1.917613 1_555
Mn6 O10 1.918801 1_555
Mn6 O18 1.953508 1_565
Mn6 O23 1.960425 1_555
Mn6 O7 1.971904 1_555
Mn6 O4 1.971976 1_555
Mn7 O14 1.954066 1_555
Mn7 O11 1.962663 1_555
Mn7 O5 1.988512 1_455
Mn7 O6 1.996268 1_555
Mn7 O19 2.174386 1_555
Mn7 O22 2.177406 1_555
Co0 O16 2.069297 1_555
Co0 O22 2.069324 1_655
Co0 O7 2.125751 1_545
Co0 O5 2.126867 1_555
Co0 O20 2.129232 1_555
Co0 O18 2.129370 1_555
Co1 O19 2.081408 1_555
Co1 O21 2.081666 1_555
Co1 O23 2.115780 1_555
Co1 O17 2.116048 1_555
Co1 O4 2.136134 1_555
Co1 O6 2.137278 1_555
