# generated using pymatgen
data_Bi16Pt11I6
_symmetry_space_group_name_H-M   'P 1'
_cell_length_a   14.16764500
_cell_length_b   14.16764500
_cell_length_c   9.42521000
_cell_angle_alpha   90.00000000
_cell_angle_beta   90.00000000
_cell_angle_gamma   90.00000000
_symmetry_Int_Tables_number   1
_chemical_formula_structural   Bi16Pt11I6
_chemical_formula_sum   'Bi32 Pt22 I12'
_cell_volume   1891.84855533
_cell_formula_units_Z   2
loop_
 _symmetry_equiv_pos_site_id
 _symmetry_equiv_pos_as_xyz
  1  'x, y, z'
loop_
 _atom_site_type_symbol
 _atom_site_label
 _atom_site_symmetry_multiplicity
 _atom_site_fract_x
 _atom_site_fract_y
 _atom_site_fract_z
 _atom_site_occupancy
  Bi  Bi0  1  0.00000000  0.50000000  0.05372000  1
  Bi  Bi1  1  0.50000000  0.00000000  0.94628000  1
  Bi  Bi2  1  0.00000000  0.50000000  0.63804600  1
  Bi  Bi3  1  0.50000000  0.00000000  0.36195400  1
  Bi  Bi4  1  0.00000000  0.00000000  0.72311800  1
  Bi  Bi5  1  0.50000000  0.50000000  0.27688200  1
  Bi  Bi6  1  0.00000000  0.00000000  0.27688200  1
  Bi  Bi7  1  0.50000000  0.50000000  0.72311800  1
  Bi  Bi8  1  0.82567500  0.17440200  0.67597500  1
  Bi  Bi9  1  0.17432500  0.82559800  0.67597500  1
  Bi  Bi10  1  0.67432500  0.67440200  0.32402500  1
  Bi  Bi11  1  0.32567500  0.32559800  0.32402500  1
  Bi  Bi12  1  0.17440200  0.82567500  0.32402500  1
  Bi  Bi13  1  0.82559800  0.17432500  0.32402500  1
  Bi  Bi14  1  0.67440200  0.67432500  0.67597500  1
  Bi  Bi15  1  0.32559800  0.32567500  0.67597500  1
  Bi  Bi16  1  0.77543100  0.42964800  0.70172600  1
  Bi  Bi17  1  0.22456900  0.57035200  0.70172600  1
  Bi  Bi18  1  0.72456900  0.92964800  0.29827400  1
  Bi  Bi19  1  0.27543100  0.07035200  0.29827400  1
  Bi  Bi20  1  0.42964800  0.77543100  0.29827400  1
  Bi  Bi21  1  0.57035200  0.22456900  0.29827400  1
  Bi  Bi22  1  0.92964800  0.72456900  0.70172600  1
  Bi  Bi23  1  0.07035200  0.27543100  0.70172600  1
  Bi  Bi24  1  0.80086400  0.43920300  0.31518800  1
  Bi  Bi25  1  0.19913600  0.56079700  0.31518800  1
  Bi  Bi26  1  0.69913600  0.93920300  0.68481200  1
  Bi  Bi27  1  0.30086400  0.06079700  0.68481200  1
  Bi  Bi28  1  0.43920300  0.80086400  0.68481200  1
  Bi  Bi29  1  0.56079700  0.19913600  0.68481200  1
  Bi  Bi30  1  0.93920300  0.69913600  0.31518800  1
  Bi  Bi31  1  0.06079700  0.30086400  0.31518800  1
  Pt  Pt0  1  0.00000000  0.50000000  0.34892300  1
  Pt  Pt1  1  0.50000000  0.00000000  0.65107700  1
  Pt  Pt2  1  0.69763700  0.30236300  0.50000000  1
  Pt  Pt3  1  0.30236300  0.69763700  0.50000000  1
  Pt  Pt4  1  0.80236300  0.80236300  0.50000000  1
  Pt  Pt5  1  0.19763700  0.19763700  0.50000000  1
  Pt  Pt6  1  0.90532200  0.32261000  0.50731800  1
  Pt  Pt7  1  0.09467800  0.67739000  0.50731800  1
  Pt  Pt8  1  0.59467800  0.82261000  0.49268200  1
  Pt  Pt9  1  0.40532200  0.17739000  0.49268200  1
  Pt  Pt10  1  0.32261000  0.90532200  0.49268200  1
  Pt  Pt11  1  0.67739000  0.09467800  0.49268200  1
  Pt  Pt12  1  0.82261000  0.59467800  0.50731800  1
  Pt  Pt13  1  0.17739000  0.40532200  0.50731800  1
  Pt  Pt14  1  0.00297500  0.14157800  0.50268900  1
  Pt  Pt15  1  0.99702500  0.85842200  0.50268900  1
  Pt  Pt16  1  0.49702500  0.64157800  0.49731100  1
  Pt  Pt17  1  0.50297500  0.35842200  0.49731100  1
  Pt  Pt18  1  0.14157800  0.00297500  0.49731100  1
  Pt  Pt19  1  0.85842200  0.99702500  0.49731100  1
  Pt  Pt20  1  0.64157800  0.49702500  0.50268900  1
  Pt  Pt21  1  0.35842200  0.50297500  0.50268900  1
  I  I0  1  0.61656000  0.38344000  0.00000000  1
  I  I1  1  0.38344000  0.61656000  0.00000000  1
  I  I2  1  0.88344000  0.88344000  0.00000000  1
  I  I3  1  0.11656000  0.11656000  0.00000000  1
  I  I4  1  0.19548200  0.39783500  0.00786700  1
  I  I5  1  0.80451800  0.60216500  0.00786700  1
  I  I6  1  0.30451800  0.89783500  0.99213300  1
  I  I7  1  0.69548200  0.10216500  0.99213300  1
  I  I8  1  0.39783500  0.19548200  0.99213300  1
  I  I9  1  0.60216500  0.80451800  0.99213300  1
  I  I10  1  0.89783500  0.30451800  0.00786700  1
  I  I11  1  0.10216500  0.69548200  0.00786700  1
loop_
_geom_bond_atom_site_label_1
_geom_bond_atom_site_label_2
_geom_bond_distance
_geom_bond_site_symmetry_2
Bi0 Pt0 2.782350 1_555
Bi0 I11 3.154693 1_555
Bi0 I4 3.154693 1_555
Bi0 I5 3.154693 1_455
Bi0 I10 3.154693 1_455
Bi1 Pt1 2.782350 1_555
Bi1 I7 3.154693 1_555
Bi1 I9 3.154693 1_545
Bi1 I8 3.154693 1_555
Bi1 I6 3.154693 1_545
Bi2 Pt0 2.725045 1_555
Bi2 Pt12 3.103803 1_455
Bi2 Pt6 3.103803 1_455
Bi2 Pt7 3.103803 1_555
Bi2 Pt13 3.103803 1_555
Bi3 Pt1 2.725045 1_555
Bi3 Pt8 3.103803 1_545
Bi3 Pt10 3.103803 1_545
Bi3 Pt11 3.103803 1_555
Bi3 Pt9 3.103803 1_555
Bi4 Pt14 2.888165 1_555
Bi4 Pt15 2.888165 1_445
Bi4 Pt18 2.924840 1_555
Bi4 Pt19 2.924840 1_445
Bi4 I2 3.502071 1_446
Bi4 I3 3.502071 1_556
Bi5 Pt16 2.888165 1_555
Bi5 Pt17 2.888165 1_555
Bi5 Pt20 2.924840 1_555
Bi5 Pt21 2.924840 1_555
Bi5 I0 3.502071 1_555
Bi5 I1 3.502071 1_555
Bi6 Pt18 2.888165 1_555
Bi6 Pt19 2.888165 1_445
Bi6 Pt14 2.924840 1_555
Bi6 Pt15 2.924840 1_445
Bi6 I2 3.502071 1_445
Bi6 I3 3.502071 1_555
Bi7 Pt20 2.888165 1_555
Bi7 Pt21 2.888165 1_555
Bi7 Pt16 2.924840 1_555
Bi7 Pt17 2.924840 1_555
Bi7 I1 3.502071 1_556
Bi7 I0 3.502071 1_556
Bi8 Pt6 2.865172 1_555
Bi8 Pt11 2.945141 1_555
Bi8 Pt14 3.032087 1_655
Bi8 Pt2 3.054206 1_555
Bi8 Pt19 3.060419 1_545
Bi9 Pt7 2.865172 1_555
Bi9 Pt10 2.945141 1_555
Bi9 Pt15 3.032087 1_455
Bi9 Pt3 3.054206 1_555
Bi9 Pt18 3.060419 1_565
Bi10 Pt8 2.865172 1_555
Bi10 Pt12 2.945141 1_555
Bi10 Pt16 3.032087 1_555
Bi10 Pt4 3.054206 1_555
Bi10 Pt20 3.060419 1_555
Bi11 Pt9 2.865172 1_555
Bi11 Pt13 2.945141 1_555
Bi11 Pt17 3.032087 1_555
Bi11 Pt5 3.054206 1_555
Bi11 Pt21 3.060419 1_555
Bi12 Pt10 2.865172 1_555
Bi12 Pt7 2.945141 1_555
Bi12 Pt18 3.032087 1_565
Bi12 Pt3 3.054206 1_555
Bi12 Pt15 3.060419 1_455
Bi13 Pt11 2.865172 1_555
Bi13 Pt6 2.945141 1_555
Bi13 Pt19 3.032087 1_545
Bi13 Pt2 3.054206 1_555
Bi13 Pt14 3.060419 1_655
Bi14 Pt12 2.865172 1_555
Bi14 Pt8 2.945141 1_555
Bi14 Pt20 3.032087 1_555
Bi14 Pt4 3.054206 1_555
Bi14 Pt16 3.060419 1_555
Bi15 Pt13 2.865172 1_555
Bi15 Pt9 2.945141 1_555
Bi15 Pt21 3.032087 1_555
Bi15 Pt5 3.054206 1_555
Bi15 Pt17 3.060419 1_555
Bi16 Pt20 2.833147 1_555
Bi16 Pt2 2.842838 1_555
Bi16 Pt6 3.007270 1_555
Bi16 Pt12 3.044813 1_555
Bi17 Pt21 2.833147 1_555
Bi17 Pt3 2.842838 1_555
Bi17 Pt7 3.007270 1_555
Bi17 Pt13 3.044813 1_555
Bi18 Pt19 2.833147 1_555
Bi18 Pt4 2.842838 1_555
Bi18 Pt8 3.007270 1_555
Bi18 Pt11 3.044813 1_565
Bi19 Pt18 2.833147 1_555
Bi19 Pt5 2.842838 1_555
Bi19 Pt9 3.007270 1_555
Bi19 Pt10 3.044813 1_545
Bi20 Pt16 2.833147 1_555
Bi20 Pt3 2.842838 1_555
Bi20 Pt10 3.007270 1_555
Bi20 Pt8 3.044813 1_555
Bi21 Pt17 2.833147 1_555
Bi21 Pt2 2.842838 1_555
Bi21 Pt11 3.007270 1_555
Bi21 Pt9 3.044813 1_555
Bi22 Pt15 2.833147 1_555
Bi22 Pt4 2.842838 1_555
Bi22 Pt12 3.007270 1_555
Bi22 Pt7 3.044813 1_655
Bi23 Pt14 2.833147 1_555
Bi23 Pt5 2.842838 1_555
Bi23 Pt13 3.007270 1_555
Bi23 Pt6 3.044813 1_455
Bi24 Pt6 2.863217 1_555
Bi24 Pt12 2.868119 1_555
Bi24 Pt0 2.966933 1_655
Bi24 Pt20 2.981098 1_555
Bi24 Pt2 2.988579 1_555
Bi25 Pt7 2.863217 1_555
Bi25 Pt13 2.868119 1_555
Bi25 Pt0 2.966933 1_555
Bi25 Pt21 2.981098 1_555
Bi25 Pt3 2.988579 1_555
Bi26 Pt8 2.863217 1_555
Bi26 Pt11 2.868119 1_565
Bi26 Pt1 2.966933 1_565
Bi26 Pt19 2.981098 1_555
Bi26 Pt4 2.988579 1_555
Bi27 Pt9 2.863217 1_555
Bi27 Pt10 2.868119 1_545
Bi27 Pt1 2.966933 1_555
Bi27 Pt18 2.981098 1_555
Bi27 Pt5 2.988579 1_555
Bi28 Pt10 2.863217 1_555
Bi28 Pt8 2.868119 1_555
Bi28 Pt1 2.966933 1_565
Bi28 Pt16 2.981098 1_555
Bi28 Pt3 2.988579 1_555
Bi29 Pt11 2.863217 1_555
Bi29 Pt9 2.868119 1_555
Bi29 Pt1 2.966933 1_555
Bi29 Pt17 2.981098 1_555
Bi29 Pt2 2.988579 1_555
Bi30 Pt12 2.863217 1_555
Bi30 Pt7 2.868119 1_655
Bi30 Pt0 2.966933 1_655
Bi30 Pt15 2.981098 1_555
Bi30 Pt4 2.988579 1_555
Bi31 Pt13 2.863217 1_555
Bi31 Pt6 2.868119 1_455
Bi31 Pt0 2.966933 1_555
Bi31 Pt14 2.981098 1_555
Bi31 Pt5 2.988579 1_555
Pt0 Pt12 3.216239 1_455
Pt0 Pt6 3.216239 1_455
Pt0 Pt7 3.216239 1_555
Pt0 Pt13 3.216239 1_555
Pt1 Pt8 3.216239 1_545
Pt1 Pt10 3.216239 1_545
Pt1 Pt11 3.216239 1_555
Pt1 Pt9 3.216239 1_555
Pt2 Pt20 2.870097 1_555
Pt2 Pt6 2.957161 1_555
Pt3 Pt7 2.957161 1_555
Pt4 Pt8 2.957161 1_555
Pt5 Pt9 2.957161 1_555
Pt10 Pt18 2.914480 1_565
Pt10 Pt3 2.957161 1_555
Pt11 Pt19 2.914480 1_545
Pt11 Pt2 2.957161 1_555
Pt12 Pt20 2.914480 1_555
Pt12 Pt4 2.957161 1_555
Pt13 Pt21 2.914480 1_555
Pt13 Pt5 2.957161 1_555
Pt14 Pt18 2.777523 1_555
Pt14 Pt5 2.870097 1_555
Pt14 Pt19 2.896718 1_445
Pt14 Pt6 2.914480 1_455
Pt15 Pt19 2.777523 1_555
Pt15 Pt4 2.870097 1_555
Pt15 Pt18 2.896718 1_665
Pt15 Pt7 2.914480 1_655
Pt16 Pt21 2.777523 1_555
Pt16 Pt3 2.870097 1_555
Pt16 Pt20 2.896718 1_555
Pt16 Pt8 2.914480 1_555
Pt17 Pt20 2.777523 1_555
Pt17 Pt2 2.870097 1_555
Pt17 Pt21 2.896718 1_555
Pt17 Pt9 2.914480 1_555
Pt18 Pt5 2.870097 1_555
Pt19 Pt4 2.870097 1_555
Pt21 Pt3 2.870097 1_555
