# generated using pymatgen
data_MgSn
_symmetry_space_group_name_H-M   'P 1'
_cell_length_a   3.33549440
_cell_length_b   3.33549440
_cell_length_c   15.48137500
_cell_angle_alpha   90.00000000
_cell_angle_beta   90.00000000
_cell_angle_gamma   120.00000793
_symmetry_Int_Tables_number   1
_chemical_formula_structural   MgSn
_chemical_formula_sum   'Mg3 Sn3'
_cell_volume   149.16281102
_cell_formula_units_Z   3
loop_
 _symmetry_equiv_pos_site_id
 _symmetry_equiv_pos_as_xyz
  1  'x, y, z'
loop_
 _atom_site_type_symbol
 _atom_site_label
 _atom_site_symmetry_multiplicity
 _atom_site_fract_x
 _atom_site_fract_y
 _atom_site_fract_z
 _atom_site_occupancy
  Mg  Mg0  1  0.00000000  0.00000000  0.16564500  1
  Mg  Mg1  1  0.33333300  0.66666700  0.32480700  1
  Mg  Mg2  1  0.00000000  0.00000000  0.84142000  1
  Sn  Sn0  1  0.33333300  0.66666700  0.00179200  1
  Sn  Sn1  1  0.00000000  0.00000000  0.48922700  1
  Sn  Sn2  1  0.33333300  0.66666700  0.67710800  1
loop_
_geom_bond_atom_site_label_1
_geom_bond_atom_site_label_2
_geom_bond_distance
_geom_bond_site_symmetry_2
Mg0 Sn0 3.184838 1_545
Mg0 Sn0 3.184840 1_555
Mg0 Sn0 3.184840 1_445
Mg1 Sn1 3.191834 1_565
Mg1 Sn1 3.191836 1_665
Mg1 Sn1 3.191836 1_555
Mg2 Sn0 3.142084 1_546
Mg2 Sn0 3.142086 1_446
Mg2 Sn0 3.142086 1_556
Mg2 Sn2 3.190501 1_545
Mg2 Sn2 3.190502 1_445
Mg2 Sn2 3.190502 1_555
