# generated using pymatgen
data_Li4MnCo2O7
_symmetry_space_group_name_H-M   'P 1'
_cell_length_a   9.96175949
_cell_length_b   9.96175949
_cell_length_c   9.85175859
_cell_angle_alpha   65.17971300
_cell_angle_beta   65.17971300
_cell_angle_gamma   16.75885004
_symmetry_Int_Tables_number   1
_chemical_formula_structural   Li4MnCo2O7
_chemical_formula_sum   'Li8 Mn2 Co4 O14'
_cell_volume   255.26731939
_cell_formula_units_Z   2
loop_
 _symmetry_equiv_pos_site_id
 _symmetry_equiv_pos_as_xyz
  1  'x, y, z'
loop_
 _atom_site_type_symbol
 _atom_site_label
 _atom_site_symmetry_multiplicity
 _atom_site_fract_x
 _atom_site_fract_y
 _atom_site_fract_z
 _atom_site_occupancy
  Li  Li0  1  0.62726100  0.62726100  0.93117200  1
  Li  Li1  1  0.37273900  0.37273900  0.06882800  1
  Li  Li2  1  0.06374800  0.06374800  0.22106900  1
  Li  Li3  1  0.79117900  0.79117900  0.36299600  1
  Li  Li4  1  0.50000000  0.50000000  0.50000000  1
  Li  Li5  1  0.20882100  0.20882100  0.63700400  1
  Li  Li6  1  0.93625200  0.93625200  0.77893100  1
  Li  Li7  1  0.00000000  0.00000000  0.00000000  1
  Mn  Mn0  1  0.28543700  0.28543700  0.85553900  1
  Mn  Mn1  1  0.71456300  0.71456300  0.14446100  1
  Co  Co0  1  0.43721400  0.43721400  0.26688700  1
  Co  Co1  1  0.14196700  0.14196700  0.43799400  1
  Co  Co2  1  0.85803300  0.85803300  0.56200600  1
  Co  Co3  1  0.56278600  0.56278600  0.73311300  1
  O  O0  1  0.75257700  0.75257700  0.76899300  1
  O  O1  1  0.46854300  0.46854300  0.88060900  1
  O  O2  1  0.18743400  0.18743400  0.03996700  1
  O  O3  1  0.89433600  0.89433600  0.18808200  1
  O  O4  1  0.61902100  0.61902100  0.31162500  1
  O  O5  1  0.32316500  0.32316500  0.47007200  1
  O  O6  1  0.04095200  0.04095200  0.60345000  1
  O  O7  1  0.53145700  0.53145700  0.11939100  1
  O  O8  1  0.24742300  0.24742300  0.23100700  1
  O  O9  1  0.95904800  0.95904800  0.39655000  1
  O  O10  1  0.67683500  0.67683500  0.52992800  1
  O  O11  1  0.38097900  0.38097900  0.68837500  1
  O  O12  1  0.10566400  0.10566400  0.81191800  1
  O  O13  1  0.81256600  0.81256600  0.96003300  1
loop_
_geom_bond_atom_site_label_1
_geom_bond_atom_site_label_2
_geom_bond_distance
_geom_bond_site_symmetry_2
Li0 O7 2.008202 1_556
Li0 O12 2.023210 1_565
Li0 O12 2.023210 1_655
Li0 O0 2.303264 1_555
Li0 O2 2.396200 1_656
Li0 O2 2.396200 1_566
Li1 O1 2.008202 1_554
Li1 O3 2.023210 1_455
Li1 O3 2.023210 1_545
Li1 O8 2.303264 1_555
Li1 O13 2.396200 1_544
Li1 O13 2.396200 1_454
Li2 O7 2.014204 1_545
Li2 O7 2.014204 1_455
Li2 O9 2.054281 1_445
Li2 O4 2.217008 1_455
Li2 O4 2.217008 1_545
Li2 O2 2.331455 1_555
Li3 O3 2.032348 1_555
Li3 O5 2.045022 1_565
Li3 O5 2.045022 1_655
Li3 O10 2.153809 1_555
Li3 O8 2.343894 1_565
Li3 O8 2.343894 1_655
Li4 O6 2.120338 1_655
Li4 O6 2.120338 1_565
Li4 O9 2.120338 1_545
Li4 O9 2.120338 1_455
Li4 O4 2.291981 1_555
Li4 O11 2.291981 1_555
Li5 O12 2.032348 1_555
Li5 O10 2.045022 1_455
Li5 O10 2.045022 1_545
Li5 O5 2.153809 1_555
Li5 O0 2.343894 1_545
Li5 O0 2.343894 1_455
Li6 O1 2.014204 1_655
Li6 O1 2.014204 1_565
Li6 O6 2.054281 1_665
Li6 O11 2.217008 1_655
Li6 O11 2.217008 1_565
Li6 O13 2.331455 1_555
Li7 O7 2.119968 1_455
Li7 O7 2.119968 1_545
Li7 O1 2.119968 1_544
Li7 O1 2.119968 1_454
Li7 O12 2.120429 1_554
Li7 O3 2.120429 1_445
Mn0 O11 1.904410 1_555
Mn0 O0 1.929398 1_545
Mn0 O0 1.929398 1_455
Mn0 O13 1.979974 1_545
Mn0 O13 1.979974 1_455
Mn0 O2 2.013544 1_556
Mn1 O4 1.904410 1_555
Mn1 O8 1.929398 1_655
Mn1 O8 1.929398 1_565
Mn1 O2 1.979974 1_565
Mn1 O2 1.979974 1_655
Mn1 O13 2.013544 1_554
Co0 O7 1.808747 1_555
Co0 O3 1.995322 1_455
Co0 O3 1.995322 1_545
Co0 O9 2.095462 1_545
Co0 O9 2.095462 1_455
Co0 O5 2.289497 1_555
Co1 O6 1.966535 1_555
Co1 O10 1.982006 1_455
Co1 O10 1.982006 1_545
Co1 O4 2.083208 1_545
Co1 O4 2.083208 1_455
Co1 O8 2.209519 1_555
Co2 O9 1.966535 1_555
Co2 O5 1.982006 1_655
Co2 O5 1.982006 1_565
Co2 O11 2.083208 1_565
Co2 O11 2.083208 1_655
Co2 O0 2.209519 1_555
Co3 O1 1.808747 1_555
Co3 O12 1.995322 1_655
Co3 O12 1.995322 1_565
Co3 O6 2.095462 1_655
Co3 O6 2.095462 1_565
Co3 O10 2.289497 1_555
