# generated using pymatgen
data_Ca2Pr2MnNiO8
_symmetry_space_group_name_H-M   'P 1'
_cell_length_a   6.65747115
_cell_length_b   6.65747115
_cell_length_c   5.44967519
_cell_angle_alpha   89.98610902
_cell_angle_beta   89.98610902
_cell_angle_gamma   47.95112123
_symmetry_Int_Tables_number   1
_chemical_formula_structural   Ca2Pr2MnNiO8
_chemical_formula_sum   'Ca2 Pr2 Mn1 Ni1 O8'
_cell_volume   179.36130981
_cell_formula_units_Z   1
loop_
 _symmetry_equiv_pos_site_id
 _symmetry_equiv_pos_as_xyz
  1  'x, y, z'
loop_
 _atom_site_type_symbol
 _atom_site_label
 _atom_site_symmetry_multiplicity
 _atom_site_fract_x
 _atom_site_fract_y
 _atom_site_fract_z
 _atom_site_occupancy
  Ca  Ca0  1  0.14400200  0.14400200  0.49445400  1
  Ca  Ca1  1  0.35670600  0.35670600  0.98748300  1
  Pr  Pr0  1  0.63780000  0.63780000  0.00969300  1
  Pr  Pr1  1  0.86191700  0.86191700  0.50375900  1
  Mn  Mn0  1  0.00158700  0.00158700  0.00065200  1
  Ni  Ni0  1  0.49835900  0.49835900  0.50117500  1
  O  O0  1  0.75820400  0.25044600  0.75819300  1
  O  O1  1  0.75022200  0.24220500  0.24297700  1
  O  O2  1  0.24220500  0.75022200  0.24297700  1
  O  O3  1  0.25044600  0.75820400  0.75819300  1
  O  O4  1  0.32711600  0.32711600  0.51930800  1
  O  O5  1  0.83298800  0.83298800  0.98786300  1
  O  O6  1  0.67386500  0.67386500  0.47945000  1
  O  O7  1  0.16458400  0.16458400  0.01382400  1
loop_
_geom_bond_atom_site_label_1
_geom_bond_atom_site_label_2
_geom_bond_distance
_geom_bond_site_symmetry_2
Ca0 O4 2.231935 1_555
Ca0 O3 2.593351 1_545
Ca0 O0 2.593351 1_455
Ca0 O2 2.623685 1_545
Ca0 O1 2.623685 1_455
Ca0 O7 2.631153 1_555
Ca0 O6 2.730752 1_545
Ca0 O6 2.730752 1_455
Ca0 O7 2.841519 1_556
Ca1 O7 2.341744 1_556
Ca1 O4 2.576768 1_555
Ca1 O3 2.583106 1_555
Ca1 O0 2.583106 1_555
Ca1 O2 2.590241 1_556
Ca1 O1 2.590241 1_556
Ca1 O5 2.720590 1_545
Ca1 O5 2.720590 1_455
Ca1 O4 2.920451 1_556
Mn0 O2 1.876054 1_545
Mn0 O1 1.876054 1_455
Mn0 O3 1.876228 1_544
Mn0 O0 1.876228 1_454
Mn0 O7 1.984358 1_555
Mn0 O5 2.052397 1_444
Ni0 O3 1.963157 1_555
Ni0 O0 1.963157 1_555
Ni0 O1 1.967065 1_555
Ni0 O2 1.967065 1_555
Ni0 O4 2.085678 1_555
Ni0 O6 2.138474 1_555
O0 Pr0 2.530508 1_556
O0 Pr1 2.588218 1_545
O1 Pr1 2.541538 1_545
O1 Pr0 2.543822 1_555
O2 Pr1 2.541538 1_455
O2 Pr0 2.543822 1_555
O3 Pr0 2.530508 1_556
O3 Pr1 2.588218 1_455
O4 Pr1 2.739482 1_545
O4 Pr1 2.739482 1_455
O5 Pr0 2.377626 1_556
O5 Pr1 2.661490 1_555
O5 Pr1 2.833502 1_556
O6 Pr1 2.291729 1_555
O6 Pr0 2.597467 1_555
O6 Pr0 2.922659 1_556
O7 Pr0 2.724891 1_455
O7 Pr0 2.724891 1_545
