# generated using pymatgen
data_Dy4Cu5P7
_symmetry_space_group_name_H-M   'P 1'
_cell_length_a   10.32738540
_cell_length_b   10.32738540
_cell_length_c   10.32738540
_cell_angle_alpha   150.39779407
_cell_angle_beta   150.39779407
_cell_angle_gamma   42.35779661
_symmetry_Int_Tables_number   1
_chemical_formula_structural   Dy4Cu5P7
_chemical_formula_sum   'Dy4 Cu5 P7'
_cell_volume   268.11468043
_cell_formula_units_Z   1
loop_
 _symmetry_equiv_pos_site_id
 _symmetry_equiv_pos_as_xyz
  1  'x, y, z'
loop_
 _atom_site_type_symbol
 _atom_site_label
 _atom_site_symmetry_multiplicity
 _atom_site_fract_x
 _atom_site_fract_y
 _atom_site_fract_z
 _atom_site_occupancy
  Dy  Dy0  1  0.62464700  0.14385200  0.00000000  1
  Dy  Dy1  1  0.14385200  0.62464700  0.00000000  1
  Dy  Dy2  1  0.37535300  0.37535300  0.51920500  1
  Dy  Dy3  1  0.85614800  0.85614800  0.48079500  1
  Cu  Cu0  1  0.74936100  0.74936100  0.00000000  1
  Cu  Cu1  1  0.25063900  0.25063900  0.00000000  1
  Cu  Cu2  1  0.25000000  0.75000000  0.50000000  1
  Cu  Cu3  1  0.75000000  0.25000000  0.50000000  1
  Cu  Cu4  1  0.00000000  0.00000000  0.00000000  1
  P  P0  1  0.41718500  0.92608200  0.00000000  1
  P  P1  1  0.92608200  0.41718500  0.00000000  1
  P  P2  1  0.58281500  0.58281500  0.50889700  1
  P  P3  1  0.07391800  0.07391800  0.49110300  1
  P  P4  1  0.50000000  0.50000000  0.00000000  1
  P  P5  1  0.50000000  0.00000000  0.50000000  1
  P  P6  1  0.00000000  0.50000000  0.50000000  1
loop_
_geom_bond_atom_site_label_1
_geom_bond_atom_site_label_2
_geom_bond_distance
_geom_bond_site_symmetry_2
Dy0 P2 2.825182 1_555
Dy0 P3 2.825182 1_554
Dy0 P4 2.861450 1_555
Dy0 P3 2.875526 1_655
Dy0 P2 2.875526 1_544
Dy0 P5 2.907792 1_554
Dy0 P6 2.907792 1_655
Dy1 P2 2.825182 1_555
Dy1 P3 2.825182 1_554
Dy1 P4 2.861450 1_555
Dy1 P3 2.875526 1_565
Dy1 P2 2.875526 1_454
Dy1 P6 2.907792 1_554
Dy1 P5 2.907792 1_565
Dy2 P0 2.825182 1_556
Dy2 P1 2.825182 1_556
Dy2 P4 2.861450 1_556
Dy2 P1 2.875526 1_455
Dy2 P0 2.875526 1_545
Dy2 P5 2.907792 1_555
Dy2 P6 2.907792 1_555
Dy3 P1 2.825182 1_555
Dy3 P0 2.825182 1_555
Dy3 P4 2.861450 1_555
Dy3 P0 2.875526 1_656
Dy3 P1 2.875526 1_566
Dy3 P6 2.907792 1_655
Dy3 P5 2.907792 1_565
Cu0 P3 2.381771 1_665
Cu0 P2 2.381771 1_554
Cu0 P0 2.417901 1_555
Cu0 P1 2.417901 1_555
Cu1 P1 2.381771 1_455
Cu1 P0 2.381771 1_545
Cu1 P2 2.417901 1_555
Cu1 P3 2.417901 1_554
Cu2 P0 2.399873 1_556
Cu2 P1 2.399873 1_455
Cu2 P3 2.399873 1_565
Cu2 P2 2.399873 1_555
Cu3 P1 2.399873 1_556
Cu3 P0 2.399873 1_545
Cu3 P3 2.399873 1_655
Cu3 P2 2.399873 1_555
Cu4 P5 2.638279 1_555
Cu4 P5 2.638279 1_454
Cu4 P6 2.638279 1_544
Cu4 P6 2.638279 1_555
Cu4 Dy3 2.953406 1_444
Cu4 Dy2 2.953406 1_555
Cu4 Dy1 2.953406 1_545
Cu4 Dy0 2.953406 1_455
P4 P6 2.638279 1_554
P4 P5 2.638279 1_565
P4 P5 2.638279 1_554
P4 P6 2.638279 1_655
