# generated using pymatgen
data_Er6Nb4Al43
_symmetry_space_group_name_H-M   'P 1'
_cell_length_a   11.00978455
_cell_length_b   11.00979333
_cell_length_c   17.70274183
_cell_angle_alpha   90.00006864
_cell_angle_beta   89.99996452
_cell_angle_gamma   120.00005884
_symmetry_Int_Tables_number   1
_chemical_formula_structural   Er6Nb4Al43
_chemical_formula_sum   'Er12 Nb8 Al86'
_cell_volume   1858.35592729
_cell_formula_units_Z   2
loop_
 _symmetry_equiv_pos_site_id
 _symmetry_equiv_pos_as_xyz
  1  'x, y, z'
loop_
 _atom_site_type_symbol
 _atom_site_label
 _atom_site_symmetry_multiplicity
 _atom_site_fract_x
 _atom_site_fract_y
 _atom_site_fract_z
 _atom_site_occupancy
  Er  Er0  1  0.53116544  0.00000021  0.59612542  1
  Er  Er1  1  0.46883430  0.00000020  0.40387079  1
  Er  Er2  1  0.00000091  0.53116609  0.59612513  1
  Er  Er3  1  0.46883881  0.99999992  0.09612682  1
  Er  Er4  1  0.00000003  0.53116368  0.90387634  1
  Er  Er5  1  0.00000036  0.46883421  0.40387043  1
  Er  Er6  1  0.53116368  0.00000040  0.90387714  1
  Er  Er7  1  0.00000059  0.46883896  0.09612633  1
  Er  Er8  1  0.46883549  0.46883578  0.59612511  1
  Er  Er9  1  0.53116730  0.53116779  0.40387059  1
  Er  Er10  1  0.53116216  0.53116269  0.09612620  1
  Er  Er11  1  0.46883666  0.46883700  0.90387561  1
  Nb  Nb0  1  0.00000204  0.00000183  0.49999773  1
  Nb  Nb1  1  0.00000078  0.00000019  0.00000111  1
  Nb  Nb2  1  0.72590665  0.00000045  0.74999976  1
  Nb  Nb3  1  0.27409880  0.00000092  0.25000094  1
  Nb  Nb4  1  0.00000140  0.72590403  0.74999879  1
  Nb  Nb5  1  0.00000154  0.27409880  0.25000062  1
  Nb  Nb6  1  0.27409710  0.27409600  0.75000018  1
  Nb  Nb7  1  0.72589714  0.72589831  0.25000371  1
  Al  Al0  1  0.15321227  0.59684157  0.74999997  1
  Al  Al1  1  0.84678099  0.40315379  0.24999902  1
  Al  Al2  1  0.40315079  0.55637422  0.74999934  1
  Al  Al3  1  0.59684643  0.15321651  0.75000025  1
  Al  Al4  1  0.59684144  0.44362758  0.24999919  1
  Al  Al5  1  0.40315705  0.84678457  0.25000021  1
  Al  Al6  1  0.44362689  0.84677922  0.75000162  1
  Al  Al7  1  0.55637154  0.40315307  0.74999847  1
  Al  Al8  1  0.55636588  0.15321532  0.25000017  1
  Al  Al9  1  0.44362911  0.59684492  0.24999937  1
  Al  Al10  1  0.84677856  0.44362720  0.74999847  1
  Al  Al11  1  0.15321748  0.55637340  0.24999931  1
  Al  Al12  1  0.15925876  -0.00000010  0.11511128  1
  Al  Al13  1  0.84074517  0.00000104  0.88489924  1
  Al  Al14  1  -0.00000117  0.15925915  0.11511072  1
  Al  Al15  1  0.84075199  0.00000141  0.61510358  1
  Al  Al16  1  -0.00000071  0.15925695  0.38489122  1
  Al  Al17  1  0.00000013  0.84074145  0.88490022  1
  Al  Al18  1  0.15926337  0.00000116  0.38489415  1
  Al  Al19  1  -0.00000028  0.84074757  0.61510372  1
  Al  Al20  1  0.84074270  0.84074235  0.11510976  1
  Al  Al21  1  0.15925800  0.15925645  0.88489871  1
  Al  Al22  1  0.15925346  0.15925408  0.61510359  1
  Al  Al23  1  0.84074526  0.84074550  0.38489174  1
  Al  Al24  1  0.24742691  0.49485329  0.50000155  1
  Al  Al25  1  0.75257282  0.50514832  0.50000095  1
  Al  Al26  1  0.50514871  0.75257275  0.50000095  1
  Al  Al27  1  0.75257316  0.50514975  -0.00000224  1
  Al  Al28  1  0.49485082  0.24742565  -0.00000177  1
  Al  Al29  1  0.49484998  0.24742603  0.49999704  1
  Al  Al30  1  0.24742558  0.49485114  -0.00000151  1
  Al  Al31  1  0.50515050  0.75257611  -0.00000098  1
  Al  Al32  1  0.24742886  0.75257581  0.49999998  1
  Al  Al33  1  0.75257590  0.24742842  0.50000089  1
  Al  Al34  1  0.75257700  0.24742668  -0.00000264  1
  Al  Al35  1  0.24742773  0.75257598  -0.00000238  1
  Al  Al36  1  0.14840580  0.00000111  0.75000380  1
  Al  Al37  1  0.85159934  0.00000033  0.24999781  1
  Al  Al38  1  0.00000156  0.14840607  0.75000366  1
  Al  Al39  1  -0.00000077  0.85159372  0.24999697  1
  Al  Al40  1  0.85159674  0.85159718  0.75000383  1
  Al  Al41  1  0.14840471  0.14840531  0.24999649  1
  Al  Al42  1  0.33332948  0.66665909  0.62456364  1
  Al  Al43  1  0.66666788  0.33333465  0.37543563  1
  Al  Al44  1  0.66666742  0.33333085  0.12456203  1
  Al  Al45  1  0.66666691  0.33333377  0.87543876  1
  Al  Al46  1  0.33331897  0.66665177  0.87543268  1
  Al  Al47  1  0.33333668  0.66666874  0.12456295  1
  Al  Al48  1  0.33333424  0.66666682  0.37543556  1
  Al  Al49  1  0.66665129  0.33331821  0.62456543  1
  Al  Al50  1  0.25610917  0.00000075  0.52947468  1
  Al  Al51  1  0.74388763  0.00000046  0.47052493  1
  Al  Al52  1  0.00000156  0.25610911  0.52947354  1
  Al  Al53  1  0.74389045  0.00000051  0.02947673  1
  Al  Al54  1  0.00000060  0.25610993  0.97052231  1
  Al  Al55  1  0.00000094  0.74389399  0.47052119  1
  Al  Al56  1  0.25611161  0.99999945  0.97052426  1
  Al  Al57  1  0.00000133  0.74388867  0.02947660  1
  Al  Al58  1  0.74388661  0.74388604  0.52947609  1
  Al  Al59  1  0.25610607  0.25610838  0.47052079  1
  Al  Al60  1  0.25611799  0.25611812  0.02948005  1
  Al  Al61  1  0.74388961  0.74388962  0.97052315  1
  Al  Al62  1  0.15808631  0.39516047  0.66209462  1
  Al  Al63  1  0.84191557  0.60484179  0.33790476  1
  Al  Al64  1  0.60484247  0.76292873  0.66209461  1
  Al  Al65  1  0.84190700  0.60483782  0.16209176  1
  Al  Al66  1  0.39516020  0.15809135  0.83790949  1
  Al  Al67  1  0.39515854  0.23707627  0.33790282  1
  Al  Al68  1  0.15808960  0.39516033  0.83790860  1
  Al  Al69  1  0.60484251  0.84191229  0.16209767  1
  Al  Al70  1  0.23707340  0.84191470  0.66209527  1
  Al  Al71  1  0.39516164  0.23706779  0.16209412  1
  Al  Al72  1  0.76292812  0.60483928  0.83790679  1
  Al  Al73  1  0.76292473  0.15808495  0.33790337  1
  Al  Al74  1  0.60484086  0.76293217  0.83790755  1
  Al  Al75  1  0.23706751  0.39516204  0.16209419  1
  Al  Al76  1  0.60484268  0.84191497  0.33790353  1
  Al  Al77  1  0.39515905  0.15808649  0.66209378  1
  Al  Al78  1  0.76292817  0.15808716  0.16209800  1
  Al  Al79  1  0.23707462  0.39515966  0.33790293  1
  Al  Al80  1  0.23707021  0.84190989  0.83790776  1
  Al  Al81  1  0.76292615  0.60484242  0.66209506  1
  Al  Al82  1  0.84190980  0.23707063  0.83790826  1
  Al  Al83  1  0.15809367  0.76293123  0.16209415  1
  Al  Al84  1  0.15808361  0.76292406  0.33790320  1
  Al  Al85  1  0.84191553  0.23707413  0.66209326  1
loop_
_geom_bond_atom_site_label_1
_geom_bond_atom_site_label_2
_geom_bond_distance
_geom_bond_site_symmetry_2
Er0 Nb2 3.466577 1_555
Er0 Er1 3.471932 1_555
Er1 Nb3 3.466478 1_555
Er2 Nb4 3.466542 1_555
Er2 Er5 3.471933 1_555
Er3 Nb3 3.466567 1_565
Er3 Er6 3.471831 1_564
Er4 Nb4 3.466614 1_555
Er4 Er7 3.471838 1_556
Er5 Nb5 3.466477 1_555
Er6 Nb2 3.466629 1_555
Er7 Nb5 3.466575 1_555
Er8 Nb6 3.466572 1_555
Er8 Er9 3.471931 1_555
Er9 Nb7 3.466398 1_555
Er10 Nb7 3.466579 1_555
Er10 Er11 3.471849 1_554
Er11 Nb6 3.466584 1_555
Al0 Nb4 2.694689 1_555
Al0 Al62 2.733890 1_555
Al0 Al68 2.733943 1_555
Al0 Al46 2.815907 1_555
Al0 Al42 2.816016 1_555
Al0 Al80 2.839562 1_555
Al0 Al70 2.839571 1_555
Al0 Al10 2.921768 1_455
Al0 Al2 2.999459 1_555
Al0 Al6 2.999512 1_555
Al0 Er2 3.093335 1_555
Al0 Er4 3.093362 1_555
Al1 Nb5 2.694715 1_655
Al1 Al63 2.733916 1_555
Al1 Al65 2.733938 1_555
Al1 Al43 2.815993 1_555
Al1 Al44 2.815998 1_555
Al1 Al78 2.839490 1_555
Al1 Al73 2.839539 1_555
Al1 Al11 2.921795 1_655
Al1 Al4 2.999513 1_555
Al1 Al8 2.999518 1_555
Al1 Er5 3.093318 1_655
Al1 Er7 3.093336 1_655
Al2 Nb6 2.694741 1_555
Al2 Al64 2.733927 1_555
Al2 Al74 2.733969 1_555
Al2 Al46 2.815913 1_555
Al2 Al42 2.815938 1_555
Al2 Al62 2.839510 1_555
Al2 Al68 2.839531 1_555
Al2 Al7 2.921850 1_555
Al2 Al6 2.999414 1_555
Al2 Er8 3.093377 1_555
Al2 Er11 3.093411 1_555
Al3 Nb2 2.694720 1_555
Al3 Al77 2.733940 1_555
Al3 Al66 2.733978 1_555
Al3 Al49 2.815912 1_555
Al3 Al45 2.816044 1_555
Al3 Al82 2.839527 1_555
Al3 Al85 2.839561 1_555
Al3 Al6 2.921805 1_545
Al3 Al7 2.999490 1_555
Al3 Er0 3.093355 1_555
Al3 Er6 3.093388 1_555
Al4 Nb7 2.694666 1_555
Al4 Al67 2.733862 1_555
Al4 Al71 2.733901 1_555
Al4 Al43 2.816026 1_555
Al4 Al44 2.816055 1_555
Al4 Al65 2.839538 1_555
Al4 Al63 2.839586 1_555
Al4 Al9 2.921733 1_555
Al4 Al8 2.999496 1_555
Al4 Er9 3.093296 1_555
Al4 Er10 3.093321 1_555
Al5 Nb3 2.694704 1_565
Al5 Al76 2.733890 1_555
Al5 Al69 2.733892 1_555
Al5 Al83 2.839510 1_555
Al5 Al84 2.839555 1_555
Al5 Al8 2.921742 1_565
Al5 Al9 2.999505 1_555
Al5 Er1 3.093287 1_565
Al5 Er3 3.093331 1_555
Al6 Nb2 2.694751 1_565
Al6 Al70 2.733927 1_555
Al6 Al80 2.733931 1_555
Al6 Al74 2.839501 1_555
Al6 Al64 2.839547 1_555
Al6 Er6 3.093387 1_565
Al6 Er0 3.093401 1_565
Al7 Nb6 2.694700 1_555
Al7 Al81 2.733903 1_555
Al7 Al72 2.733947 1_555
Al7 Al77 2.839522 1_555
Al7 Er8 3.093346 1_555
Al7 Er11 3.093402 1_555
Al8 Nb3 2.694630 1_555
Al8 Er1 3.093285 1_555
Al8 Er3 3.093325 1_545
Al9 Nb7 2.694639 1_555
Al9 Er9 3.093299 1_555
Al9 Er10 3.093324 1_555
Al10 Nb4 2.694727 1_655
Al10 Al85 2.733918 1_555
Al10 Al82 2.733973 1_555
Al10 Al49 2.816032 1_555
Al10 Al45 2.816036 1_555
Al10 Al81 2.839526 1_555
Al10 Al72 2.839530 1_555
Al10 Al7 2.999442 1_555
Al10 Al3 2.999463 1_555
Al10 Er2 3.093360 1_655
Al10 Er4 3.093426 1_655
Al11 Nb5 2.694702 1_555
Al11 Al84 2.733869 1_555
Al11 Al83 2.733906 1_555
Al11 Al48 2.816007 1_555
Al11 Al47 2.816024 1_555
Al11 Al75 2.839489 1_555
Al11 Al79 2.839548 1_555
Al11 Al5 2.999497 1_555
Al11 Al9 2.999503 1_555
Al11 Er5 3.093303 1_555
Al11 Er7 3.093329 1_555
Al12 Nb1 2.688289 1_555
Al12 Nb3 2.701991 1_555
Al12 Al71 2.733293 1_555
Al12 Al83 2.733306 1_545
Al12 Al56 2.772822 1_544
Al12 Al57 2.894705 1_545
Al12 Al60 2.894731 1_555
Al12 Al41 2.929329 1_555
Al12 Al39 2.929339 1_545
Al12 Al20 3.036970 1_445
Al12 Al14 3.037004 1_555
Al12 Er3 3.424938 1_545
Al13 Nb1 2.688162 1_656
Al13 Nb2 2.702137 1_555
Al13 Al74 2.733353 1_545
Al13 Al82 2.733361 1_555
Al13 Al53 2.772672 1_556
Al13 Al54 2.894578 1_655
Al13 Al61 2.894608 1_545
Al13 Al40 2.929457 1_545
Al13 Al38 2.929468 1_655
Al13 Al21 3.036939 1_655
Al13 Al17 3.036960 1_645
Al13 Er6 3.424939 1_555
Al14 Nb1 2.688293 1_555
Al14 Nb5 2.701986 1_555
Al14 Al75 2.733301 1_555
Al14 Al78 2.733311 1_455
Al14 Al54 2.772834 1_554
Al14 Al53 2.894679 1_455
Al14 Al60 2.894730 1_555
Al14 Al37 2.929338 1_455
Al14 Al41 2.929341 1_555
Al14 Al20 3.036980 1_445
Al14 Er7 3.424929 1_555
Al15 Nb0 2.688170 1_655
Al15 Nb2 2.702119 1_555
Al15 Al85 2.733391 1_555
Al15 Al64 2.733398 1_545
Al15 Al51 2.772733 1_555
Al15 Al52 2.894628 1_655
Al15 Al58 2.894660 1_545
Al15 Al38 2.929506 1_655
Al15 Al40 2.929509 1_545
Al15 Al22 3.036831 1_655
Al15 Al19 3.036836 1_645
Al15 Er0 3.424992 1_555
Al16 Nb0 2.688230 1_555
Al16 Nb5 2.702013 1_555
Al16 Al73 2.733356 1_455
Al16 Al79 2.733362 1_555
Al16 Al52 2.772737 1_555
Al16 Al59 2.894623 1_555
Al16 Al51 2.894698 1_455
Al16 Al37 2.929421 1_455
Al16 Al41 2.929458 1_555
Al16 Al23 3.036929 1_445
Al16 Al18 3.037010 1_555
Al16 Er5 3.424895 1_555
Al17 Nb1 2.688165 1_566
Al17 Nb4 2.702166 1_555
Al17 Al80 2.733351 1_555
Al17 Al72 2.733368 1_455
Al17 Al57 2.772652 1_556
Al17 Al61 2.894593 1_455
Al17 Al56 2.894609 1_555
Al17 Al40 2.929485 1_455
Al17 Al36 2.929493 1_565
Al17 Al21 3.036963 1_565
Al17 Er4 3.424902 1_555
Al18 Nb0 2.688224 1_555
Al18 Nb3 2.702024 1_555
Al18 Al67 2.733338 1_555
Al18 Al84 2.733359 1_545
Al18 Al50 2.772688 1_555
Al18 Al59 2.894611 1_555
Al18 Al55 2.894613 1_545
Al18 Al41 2.929520 1_555
Al18 Al39 2.929523 1_545
Al18 Al23 3.036990 1_445
Al18 Er1 3.424831 1_555
Al19 Nb0 2.688198 1_565
Al19 Nb4 2.702101 1_555
Al19 Al81 2.733381 1_455
Al19 Al70 2.733392 1_555
Al19 Al55 2.772753 1_555
Al19 Al50 2.894634 1_565
Al19 Al58 2.894647 1_455
Al19 Al40 2.929513 1_455
Al19 Al36 2.929524 1_565
Al19 Al22 3.036882 1_565
Al19 Er2 3.424953 1_555
Al20 Nb1 2.688267 1_665
Al20 Nb7 2.702084 1_555
Al20 Al65 2.733307 1_555
Al20 Al69 2.733319 1_555
Al20 Al61 2.772815 1_554
Al20 Al53 2.894689 1_565
Al20 Al57 2.894702 1_655
Al20 Al39 2.929348 1_655
Al20 Al37 2.929353 1_565
Al20 Er10 3.424936 1_555
Al21 Nb1 2.688174 1_556
Al21 Nb6 2.702128 1_555
Al21 Al66 2.733322 1_555
Al21 Al68 2.733365 1_555
Al21 Al60 2.772762 1_556
Al21 Al54 2.894601 1_555
Al21 Al56 2.894620 1_545
Al21 Al36 2.929448 1_555
Al21 Al38 2.929463 1_555
Al21 Er11 3.424919 1_555
Al22 Nb0 2.688184 1_555
Al22 Nb6 2.702114 1_555
Al22 Al77 2.733377 1_555
Al22 Al62 2.733388 1_555
Al22 Al59 2.772756 1_555
Al22 Al52 2.894627 1_555
Al22 Al50 2.894632 1_555
Al22 Al38 2.929512 1_555
Al22 Al36 2.929525 1_555
Al22 Er8 3.424947 1_555
Al23 Nb0 2.688219 1_665
Al23 Nb7 2.702005 1_555
Al23 Al76 2.733345 1_555
Al23 Al63 2.733355 1_555
Al23 Al58 2.772805 1_555
Al23 Al55 2.894628 1_655
Al23 Al51 2.894700 1_565
Al23 Al37 2.929428 1_565
Al23 Al39 2.929448 1_655
Al23 Er9 3.424903 1_555
Al24 Al52 2.727947 1_555
Al24 Al59 2.727975 1_555
Al24 Al42 2.746975 1_555
Al24 Al48 2.747078 1_555
Al24 Al26 2.837447 1_555
Al24 Al32 2.837461 1_555
Al24 Al62 3.053948 1_555
Al24 Al79 3.054041 1_555
Al24 Er8 3.101310 1_555
Al24 Er5 3.101381 1_555
Al24 Er2 3.400779 1_555
Al24 Er9 3.400852 1_555
Al25 Al58 2.727919 1_555
Al25 Al55 2.727996 1_655
Al25 Al43 2.747066 1_555
Al25 Al49 2.747150 1_555
Al25 Al33 2.837460 1_555
Al25 Al29 2.837469 1_555
Al25 Al81 3.053966 1_555
Al25 Al63 3.054004 1_555
Al25 Er2 3.101333 1_655
Al25 Er9 3.101359 1_555
Al25 Er8 3.400770 1_555
Al25 Er5 3.400862 1_655
Al26 Al58 2.727923 1_555
Al26 Al51 2.727947 1_565
Al26 Al42 2.747061 1_555
Al26 Al48 2.747072 1_555
Al26 Al32 2.837457 1_555
Al26 Al64 3.053955 1_555
Al26 Al76 3.054025 1_555
Al26 Er0 3.101333 1_565
Al26 Er9 3.101348 1_555
Al26 Er8 3.400769 1_555
Al26 Er1 3.400864 1_565
Al27 Al61 2.727926 1_554
Al27 Al57 2.727958 1_655
Al27 Al45 2.746989 1_554
Al27 Al44 2.747084 1_555
Al27 Al28 2.837476 1_555
Al27 Al34 2.837499 1_555
Al27 Al72 3.053897 1_554
Al27 Al65 3.053941 1_555
Al27 Er4 3.101308 1_654
Al27 Er10 3.101353 1_555
Al27 Er11 3.400745 1_554
Al27 Er7 3.400827 1_655
Al28 Al60 2.727922 1_555
Al28 Al56 2.727932 1_544
Al28 Al45 2.746997 1_554
Al28 Al44 2.747062 1_555
Al28 Al34 2.837504 1_555
Al28 Al66 3.053860 1_554
Al28 Al71 3.053971 1_555
Al28 Er11 3.101311 1_554
Al28 Er3 3.101379 1_545
Al28 Er6 3.400751 1_554
Al28 Er10 3.400807 1_555
Al29 Al50 2.727948 1_555
Al29 Al59 2.727966 1_555
Al29 Al43 2.747035 1_555
Al29 Al49 2.747040 1_555
Al29 Al33 2.837494 1_555
Al29 Al67 3.053965 1_555
Al29 Al77 3.054003 1_555
Al29 Er1 3.101340 1_555
Al29 Er8 3.101348 1_555
Al29 Er9 3.400819 1_555
Al29 Er0 3.400839 1_555
Al30 Al60 2.727926 1_555
Al30 Al54 2.727943 1_554
Al30 Al46 2.747002 1_554
Al30 Al47 2.747076 1_555
Al30 Al35 2.837485 1_555
Al30 Al31 2.837495 1_555
Al30 Al68 3.053882 1_554
Al30 Al75 3.053969 1_555
Al30 Er11 3.101307 1_554
Al30 Er7 3.101360 1_555
Al30 Er4 3.400762 1_554
Al30 Er10 3.400800 1_555
Al31 Al61 2.727936 1_554
Al31 Al53 2.727939 1_565
Al31 Al47 2.747048 1_555
Al31 Al46 2.747183 1_554
Al31 Al35 2.837471 1_555
Al31 Al74 3.053905 1_554
Al31 Al69 3.054030 1_555
Al31 Er6 3.101296 1_564
Al31 Er10 3.101361 1_555
Al31 Er11 3.400777 1_554
Al31 Er3 3.400790 1_555
Al32 Al50 2.727958 1_565
Al32 Al55 2.727995 1_555
Al32 Al48 2.747058 1_555
Al32 Al42 2.747067 1_555
Al32 Al70 3.053984 1_555
Al32 Al84 3.054018 1_555
Al32 Er2 3.101338 1_555
Al32 Er1 3.101343 1_565
Al32 Er0 3.400775 1_565
Al32 Er5 3.400855 1_555
Al33 Al51 2.727954 1_555
Al33 Al52 2.727956 1_655
Al33 Al49 2.747060 1_555
Al33 Al43 2.747072 1_555
Al33 Al85 3.053937 1_555
Al33 Al73 3.054023 1_555
Al33 Er0 3.101337 1_555
Al33 Er5 3.101356 1_655
Al33 Er2 3.400773 1_655
Al33 Er1 3.400859 1_555
Al34 Al54 2.727928 1_654
Al34 Al53 2.727957 1_555
Al34 Al45 2.746994 1_554
Al34 Al44 2.747058 1_555
Al34 Al82 3.053859 1_554
Al34 Al78 3.054068 1_555
Al34 Er6 3.101294 1_554
Al34 Er7 3.101360 1_655
Al34 Er4 3.400735 1_654
Al34 Er3 3.400830 1_545
Al35 Al56 2.727921 1_554
Al35 Al57 2.727951 1_555
Al35 Al46 2.747071 1_554
Al35 Al47 2.747084 1_555
Al35 Al80 3.053882 1_554
Al35 Al83 3.053986 1_555
Al35 Er4 3.101308 1_554
Al35 Er3 3.101360 1_555
Al35 Er6 3.400729 1_564
Al35 Er7 3.400819 1_555
Al36 Nb6 2.616417 1_555
Al36 Nb4 2.616437 1_545
Al36 Al40 2.829999 1_445
Al36 Al38 2.830004 1_555
Al36 Al80 2.846596 1_545
Al36 Al66 2.846598 1_555
Al36 Al70 2.846619 1_545
Al36 Al77 2.846625 1_555
Al37 Nb5 2.616449 1_655
Al37 Nb7 2.616481 1_545
Al37 Al41 2.829964 1_655
Al37 Al39 2.829979 1_645
Al37 Al69 2.846559 1_545
Al37 Al78 2.846567 1_555
Al37 Al76 2.846608 1_545
Al37 Al73 2.846625 1_555
Al38 Nb2 2.616416 1_455
Al38 Nb6 2.616422 1_555
Al38 Al40 2.830000 1_445
Al38 Al68 2.846587 1_555
Al38 Al82 2.846605 1_455
Al38 Al62 2.846625 1_555
Al38 Al85 2.846639 1_455
Al39 Nb3 2.616460 1_565
Al39 Nb7 2.616483 1_455
Al39 Al41 2.830026 1_565
Al39 Al63 2.846594 1_455
Al39 Al84 2.846596 1_555
Al39 Al83 2.846596 1_555
Al39 Al65 2.846608 1_455
Al40 Nb2 2.616404 1_565
Al40 Nb4 2.616445 1_655
Al40 Al74 2.846591 1_555
Al40 Al72 2.846599 1_555
Al40 Al81 2.846623 1_555
Al40 Al64 2.846626 1_555
Al41 Nb5 2.616434 1_555
Al41 Nb3 2.616452 1_555
Al41 Al67 2.846590 1_555
Al41 Al71 2.846591 1_555
Al41 Al75 2.846591 1_555
Al41 Al79 2.846598 1_555
Al42 Al62 2.707716 1_555
Al42 Al64 2.707833 1_555
Al42 Al70 2.707849 1_555
Al42 Al6 2.816052 1_555
Al42 Er8 3.236075 1_555
Al42 Er2 3.236080 1_555
Al42 Er0 3.236192 1_565
Al43 Al63 2.707793 1_555
Al43 Al73 2.707799 1_555
Al43 Al67 2.707824 1_555
Al43 Al8 2.816017 1_555
Al43 Er5 3.236101 1_655
Al43 Er9 3.236116 1_555
Al43 Er1 3.236122 1_555
Al44 Al65 2.707771 1_555
Al44 Al71 2.707777 1_555
Al44 Al78 2.707788 1_555
Al44 Al8 2.816036 1_555
Al44 Er3 3.236084 1_545
Al44 Er7 3.236100 1_655
Al44 Er10 3.236147 1_555
Al45 Al66 2.707771 1_555
Al45 Al82 2.707774 1_555
Al45 Al72 2.707780 1_555
Al45 Al7 2.816056 1_555
Al45 Er4 3.236110 1_655
Al45 Er11 3.236115 1_555
Al45 Er6 3.236118 1_555
Al46 Al68 2.707601 1_555
Al46 Al80 2.707786 1_555
Al46 Al74 2.707877 1_555
Al46 Al6 2.816007 1_555
Al46 Er4 3.236004 1_555
Al46 Er11 3.236106 1_555
Al46 Er6 3.236284 1_565
Al47 Al83 2.707773 1_555
Al47 Al75 2.707775 1_555
Al47 Al69 2.707790 1_555
Al47 Al9 2.816008 1_555
Al47 Al5 2.816018 1_555
Al47 Er3 3.236092 1_555
Al47 Er10 3.236092 1_555
Al47 Er7 3.236133 1_555
Al48 Al79 2.707801 1_555
Al48 Al76 2.707808 1_555
Al48 Al84 2.707812 1_555
Al48 Al5 2.816004 1_555
Al48 Al9 2.816007 1_555
Al48 Er9 3.236102 1_555
Al48 Er1 3.236112 1_565
Al48 Er5 3.236112 1_555
Al49 Al77 2.707629 1_555
Al49 Al85 2.707820 1_555
Al49 Al81 2.707931 1_555
Al49 Al7 2.815939 1_555
Al49 Er0 3.235989 1_555
Al49 Er8 3.236108 1_555
Al49 Er2 3.236283 1_655
Al50 Al77 2.867097 1_555
Al50 Al70 2.867124 1_545
Al50 Nb0 2.867569 1_555
Al50 Al55 3.006628 1_545
Al50 Al59 3.006653 1_555
Al50 Er1 3.229449 1_555
Al50 Er0 3.250054 1_555
Al51 Al76 2.867117 1_545
Al51 Al73 2.867125 1_555
Al51 Nb0 2.867622 1_655
Al51 Al52 3.006637 1_655
Al51 Al58 3.006685 1_545
Al51 Er0 3.229381 1_555
Al51 Er1 3.250042 1_555
Al52 Al85 2.867111 1_455
Al52 Al62 2.867126 1_555
Al52 Nb0 2.867565 1_555
Al52 Al59 3.006598 1_555
Al52 Er5 3.229446 1_555
Al52 Er2 3.250068 1_555
Al53 Al78 2.867130 1_555
Al53 Al69 2.867130 1_545
Al53 Nb1 2.867595 1_655
Al53 Al54 3.006659 1_654
Al53 Al61 3.006662 1_544
Al53 Er6 3.229409 1_554
Al53 Er3 3.249995 1_545
Al54 Al68 2.867034 1_555
Al54 Al82 2.867049 1_455
Al54 Nb1 2.867601 1_556
Al54 Al60 3.006717 1_556
Al54 Er7 3.229480 1_556
Al54 Er4 3.250001 1_555
Al55 Al63 2.867063 1_455
Al55 Al84 2.867077 1_555
Al55 Nb0 2.867565 1_565
Al55 Al58 3.006668 1_455
Al55 Er2 3.229474 1_555
Al55 Er5 3.250085 1_555
Al56 Al66 2.867056 1_565
Al56 Al80 2.867070 1_555
Al56 Nb1 2.867607 1_566
Al56 Al57 3.006653 1_556
Al56 Al60 3.006727 1_566
Al56 Er3 3.229448 1_556
Al56 Er6 3.249979 1_565
Al57 Al65 2.867076 1_455
Al57 Al83 2.867101 1_555
Al57 Nb1 2.867612 1_565
Al57 Al61 3.006679 1_454
Al57 Er4 3.229397 1_554
Al57 Er7 3.249977 1_555
Al58 Al81 2.867073 1_555
Al58 Al64 2.867079 1_555
Al58 Nb0 2.867658 1_665
Al58 Er9 3.229415 1_555
Al58 Er8 3.249982 1_555
Al59 Al79 2.867075 1_555
Al59 Al67 2.867083 1_555
Al59 Nb0 2.867542 1_555
Al59 Er8 3.229478 1_555
Al59 Er9 3.250088 1_555
Al60 Al71 2.867042 1_555
Al60 Al75 2.867043 1_555
Al60 Nb1 2.867681 1_555
Al60 Er11 3.229404 1_554
Al60 Er10 3.249897 1_555
Al61 Al74 2.867067 1_555
Al61 Al72 2.867071 1_555
Al61 Nb1 2.867605 1_666
Al61 Er10 3.229454 1_556
Al61 Er11 3.249992 1_555
Al62 Nb6 2.744468 1_555
Al62 Al85 3.014609 1_455
Al62 Er2 3.039990 1_555
Al62 Al68 3.112389 1_555
Al62 Er8 3.309351 1_555
Al63 Nb7 2.744419 1_555
Al63 Al84 3.014582 1_655
Al63 Er5 3.039975 1_655
Al63 Al65 3.112372 1_555
Al63 Er9 3.309323 1_555
Al64 Nb2 2.744433 1_565
Al64 Al81 3.014605 1_555
Al64 Er8 3.040003 1_555
Al64 Al74 3.112371 1_555
Al64 Er0 3.309342 1_565
Al65 Nb7 2.744491 1_555
Al65 Al83 3.014760 1_655
Al65 Er7 3.039976 1_655
Al65 Er10 3.309284 1_555
Al66 Nb6 2.744447 1_555
Al66 Al7 2.839550 1_555
Al66 Al80 3.014713 1_545
Al66 Er6 3.040009 1_555
Al66 Al77 3.112420 1_555
Al66 Er11 3.309293 1_555
Al67 Nb3 2.744428 1_555
Al67 Al8 2.839507 1_555
Al67 Al79 3.014579 1_555
Al67 Er9 3.039978 1_555
Al67 Al71 3.112296 1_555
Al67 Er1 3.309372 1_555
Al68 Nb6 2.744467 1_555
Al68 Al82 3.014695 1_455
Al68 Er4 3.039994 1_555
Al68 Er11 3.309311 1_555
Al69 Nb7 2.744420 1_555
Al69 Al9 2.839503 1_555
Al69 Al78 3.014650 1_565
Al69 Er3 3.040003 1_555
Al69 Al76 3.112246 1_555
Al69 Er10 3.309354 1_555
Al70 Nb4 2.744418 1_555
Al70 Al77 3.014621 1_565
Al70 Er0 3.039997 1_565
Al70 Al80 3.112363 1_555
Al70 Er2 3.309347 1_555
Al71 Nb3 2.744414 1_555
Al71 Al8 2.839456 1_555
Al71 Al75 3.014780 1_555
Al71 Er10 3.040015 1_555
Al71 Er3 3.309293 1_545
Al72 Nb4 2.744473 1_655
Al72 Al74 3.014702 1_555
Al72 Er11 3.039986 1_555
Al72 Al81 3.112350 1_555
Al72 Er4 3.309337 1_655
Al73 Al8 2.733922 1_555
Al73 Nb5 2.744448 1_655
Al73 Al76 3.014603 1_545
Al73 Er1 3.039966 1_555
Al73 Al78 3.112237 1_555
Al73 Er5 3.309341 1_655
Al74 Nb2 2.744435 1_565
Al74 Er11 3.040017 1_555
Al74 Er6 3.309311 1_565
Al75 Al9 2.733924 1_555
Al75 Nb5 2.744400 1_555
Al75 Er10 3.040010 1_555
Al75 Al79 3.112297 1_555
Al75 Er7 3.309286 1_555
Al76 Nb7 2.744374 1_555
Al76 Al9 2.839543 1_555
Al76 Er1 3.039995 1_565
Al76 Er9 3.309320 1_555
Al77 Nb6 2.744444 1_555
Al77 Er0 3.039994 1_555
Al77 Er8 3.309348 1_555
Al78 Al8 2.733931 1_555
Al78 Nb5 2.744420 1_655
Al78 Er3 3.039983 1_545
Al78 Er7 3.309380 1_655
Al79 Al9 2.733887 1_555
Al79 Nb5 2.744414 1_555
Al79 Er9 3.039987 1_555
Al79 Er5 3.309338 1_555
Al80 Nb4 2.744448 1_555
Al80 Er6 3.040008 1_565
Al80 Er4 3.309315 1_555
Al81 Nb4 2.744445 1_655
Al81 Er8 3.039985 1_555
Al81 Er2 3.309371 1_655
Al82 Nb2 2.744455 1_555
Al82 Er4 3.039996 1_655
Al82 Al85 3.112408 1_555
Al82 Er6 3.309315 1_555
Al83 Nb3 2.744433 1_565
Al83 Er7 3.039989 1_555
Al83 Al84 3.112302 1_555
Al83 Er3 3.309293 1_555
Al84 Nb3 2.744446 1_565
Al84 Er5 3.039962 1_555
Al84 Er1 3.309356 1_565
Al85 Nb2 2.744464 1_555
Al85 Er2 3.039987 1_655
Al85 Er0 3.309346 1_555
