# generated using pymatgen
data_InOsO3
_symmetry_space_group_name_H-M   'P 1'
_cell_length_a   3.97326700
_cell_length_b   3.97326700
_cell_length_c   3.97326700
_cell_angle_alpha   90.00000000
_cell_angle_beta   90.00000000
_cell_angle_gamma   90.00000000
_symmetry_Int_Tables_number   1
_chemical_formula_structural   InOsO3
_chemical_formula_sum   'In1 Os1 O3'
_cell_volume   62.72537273
_cell_formula_units_Z   1
loop_
 _symmetry_equiv_pos_site_id
 _symmetry_equiv_pos_as_xyz
  1  'x, y, z'
loop_
 _atom_site_type_symbol
 _atom_site_label
 _atom_site_symmetry_multiplicity
 _atom_site_fract_x
 _atom_site_fract_y
 _atom_site_fract_z
 _atom_site_occupancy
  In  In0  1  0.00000000  0.00000000  0.00000000  1
  Os  Os0  1  0.50000000  0.50000000  0.50000000  1
  O  O0  1  0.50000000  0.50000000  0.00000000  1
  O  O1  1  0.50000000  0.00000000  0.50000000  1
  O  O2  1  0.00000000  0.50000000  0.50000000  1
loop_
_geom_bond_atom_site_label_1
_geom_bond_atom_site_label_2
_geom_bond_distance
_geom_bond_site_symmetry_2
In0 O2 2.809524 1_544
In0 O2 2.809524 1_545
In0 O1 2.809524 1_455
In0 O1 2.809524 1_555
In0 O1 2.809524 1_454
In0 O0 2.809524 1_555
In0 O1 2.809524 1_554
In0 O2 2.809524 1_555
In0 O0 2.809524 1_545
In0 O2 2.809524 1_554
In0 O0 2.809524 1_445
In0 O0 2.809524 1_455
O0 Os0 1.986633 1_554
O0 Os0 1.986633 1_555
O1 Os0 1.986633 1_555
O1 Os0 1.986633 1_545
O2 Os0 1.986633 1_455
O2 Os0 1.986633 1_555
