# generated using pymatgen
data_Tm2Co7B3
_symmetry_space_group_name_H-M   'P 1'
_cell_length_a   4.99613180
_cell_length_b   4.99613180
_cell_length_c   12.83764700
_cell_angle_alpha   90.00000000
_cell_angle_beta   90.00000000
_cell_angle_gamma   119.99999733
_symmetry_Int_Tables_number   1
_chemical_formula_structural   Tm2Co7B3
_chemical_formula_sum   'Tm4 Co14 B6'
_cell_volume   277.51332835
_cell_formula_units_Z   2
loop_
 _symmetry_equiv_pos_site_id
 _symmetry_equiv_pos_as_xyz
  1  'x, y, z'
loop_
 _atom_site_type_symbol
 _atom_site_label
 _atom_site_symmetry_multiplicity
 _atom_site_fract_x
 _atom_site_fract_y
 _atom_site_fract_z
 _atom_site_occupancy
  Tm  Tm0  1  0.00000000  0.00000000  0.00000000  1
  Tm  Tm1  1  0.00000000  0.00000000  0.50000000  1
  Tm  Tm2  1  0.00000000  0.00000000  0.73919200  1
  Tm  Tm3  1  0.00000000  0.00000000  0.26080800  1
  Co  Co0  1  0.66666700  0.33333300  0.00000000  1
  Co  Co1  1  0.33333300  0.66666700  0.00000000  1
  Co  Co2  1  0.50000000  0.50000000  0.84592300  1
  Co  Co3  1  0.50000000  0.00000000  0.84592300  1
  Co  Co4  1  0.00000000  0.50000000  0.84592300  1
  Co  Co5  1  0.50000000  0.50000000  0.15407700  1
  Co  Co6  1  0.50000000  0.00000000  0.15407700  1
  Co  Co7  1  0.00000000  0.50000000  0.15407700  1
  Co  Co8  1  0.50000000  0.50000000  0.61533400  1
  Co  Co9  1  0.50000000  0.00000000  0.61533400  1
  Co  Co10  1  0.00000000  0.50000000  0.61533400  1
  Co  Co11  1  0.50000000  0.50000000  0.38466600  1
  Co  Co12  1  0.50000000  0.00000000  0.38466600  1
  Co  Co13  1  0.00000000  0.50000000  0.38466600  1
  B  B0  1  0.66666700  0.33333300  0.50000000  1
  B  B1  1  0.33333300  0.66666700  0.50000000  1
  B  B2  1  0.66666700  0.33333300  0.73196300  1
  B  B3  1  0.33333300  0.66666700  0.73196300  1
  B  B4  1  0.33333300  0.66666700  0.26803700  1
  B  B5  1  0.66666700  0.33333300  0.26803700  1
loop_
_geom_bond_atom_site_label_1
_geom_bond_atom_site_label_2
_geom_bond_distance
_geom_bond_site_symmetry_2
Tm1 Tm2 3.070662 1_555
Tm1 Tm3 3.070662 1_555
Co0 Co7 2.447966 1_655
Co0 Co6 2.447966 1_555
Co0 Co4 2.447966 1_654
Co0 Co3 2.447966 1_554
Co0 Co5 2.447968 1_555
Co0 Co2 2.447968 1_554
Co0 Tm0 2.884515 1_655
Co0 Tm0 2.884520 1_665
Co0 Tm0 2.884520 1_555
Co1 Co6 2.447966 1_565
Co1 Co7 2.447966 1_555
Co1 Co4 2.447966 1_554
Co1 Co3 2.447966 1_564
Co1 Co5 2.447968 1_555
Co1 Co2 2.447968 1_554
Co1 Tm0 2.884515 1_565
Co1 Tm0 2.884520 1_665
Co1 Tm0 2.884520 1_555
Co2 Tm2 2.849160 1_555
Co2 Tm2 2.849160 1_665
Co3 Tm2 2.849160 1_655
Co3 Tm2 2.849160 1_555
Co4 Tm2 2.849160 1_555
Co4 Tm2 2.849160 1_565
Co5 Tm3 2.849160 1_555
Co5 Tm3 2.849160 1_665
Co6 Tm3 2.849160 1_655
Co6 Tm3 2.849160 1_555
Co7 Tm3 2.849160 1_565
Co7 Tm3 2.849160 1_555
Co8 Tm1 2.903887 1_665
Co8 Tm1 2.903887 1_555
Co8 Tm2 2.961178 1_555
Co8 Tm2 2.961178 1_665
Co9 Tm1 2.903887 1_555
Co9 Tm1 2.903887 1_655
Co9 Tm2 2.961178 1_555
Co9 Tm2 2.961178 1_655
Co10 Tm1 2.903887 1_565
Co10 Tm1 2.903887 1_555
Co10 Tm2 2.961178 1_565
Co10 Tm2 2.961178 1_555
Co11 Tm1 2.903887 1_665
Co11 Tm1 2.903887 1_555
Co11 Tm3 2.961178 1_665
Co11 Tm3 2.961178 1_555
Co12 Tm1 2.903887 1_655
Co12 Tm1 2.903887 1_555
Co12 Tm3 2.961178 1_655
Co12 Tm3 2.961178 1_555
Co13 Tm1 2.903887 1_565
Co13 Tm1 2.903887 1_555
Co13 Tm3 2.961178 1_565
Co13 Tm3 2.961178 1_555
B0 Co10 2.066963 1_655
B0 Co9 2.066963 1_555
B0 Co13 2.066963 1_655
B0 Co12 2.066963 1_555
B0 Co8 2.066966 1_555
B0 Co11 2.066966 1_555
B0 Tm1 2.884515 1_655
B0 Tm1 2.884520 1_665
B0 Tm1 2.884520 1_555
B1 Co9 2.066963 1_565
B1 Co10 2.066963 1_555
B1 Co12 2.066963 1_565
B1 Co13 2.066963 1_555
B1 Co8 2.066966 1_555
B1 Co11 2.066966 1_555
B1 Tm1 2.884515 1_565
B1 Tm1 2.884520 1_665
B1 Tm1 2.884520 1_555
B2 Co4 2.054364 1_655
B2 Co3 2.054364 1_555
B2 Co2 2.054367 1_555
B2 Co9 2.078904 1_555
B2 Co10 2.078904 1_655
B2 Co8 2.078907 1_555
B2 Tm2 2.886008 1_655
B2 Tm2 2.886012 1_555
B2 Tm2 2.886012 1_665
B3 Co3 2.054364 1_565
B3 Co4 2.054364 1_555
B3 Co2 2.054367 1_555
B3 Co9 2.078904 1_565
B3 Co10 2.078904 1_555
B3 Co8 2.078907 1_555
B3 Tm2 2.886008 1_565
B3 Tm2 2.886012 1_555
B3 Tm2 2.886012 1_665
B4 Co6 2.054364 1_565
B4 Co7 2.054364 1_555
B4 Co5 2.054367 1_555
B4 Co12 2.078904 1_565
B4 Co13 2.078904 1_555
B4 Co11 2.078907 1_555
B4 Tm3 2.886008 1_565
B4 Tm3 2.886012 1_665
B4 Tm3 2.886012 1_555
B5 Co7 2.054364 1_655
B5 Co6 2.054364 1_555
B5 Co5 2.054367 1_555
B5 Co12 2.078904 1_555
B5 Co13 2.078904 1_655
B5 Co11 2.078907 1_555
B5 Tm3 2.886008 1_655
B5 Tm3 2.886012 1_665
B5 Tm3 2.886012 1_555
