# generated using pymatgen
data_CaSmMn4O12
_symmetry_space_group_name_H-M   'P 1'
_cell_length_a   5.23824719
_cell_length_b   5.23820057
_cell_length_c   7.42294767
_cell_angle_alpha   90.00001518
_cell_angle_beta   90.00001500
_cell_angle_gamma   90.00005885
_symmetry_Int_Tables_number   1
_chemical_formula_structural   CaSmMn4O12
_chemical_formula_sum   'Ca1 Sm1 Mn4 O12'
_cell_volume   203.67818256
_cell_formula_units_Z   1
loop_
 _symmetry_equiv_pos_site_id
 _symmetry_equiv_pos_as_xyz
  1  'x, y, z'
loop_
 _atom_site_type_symbol
 _atom_site_label
 _atom_site_symmetry_multiplicity
 _atom_site_fract_x
 _atom_site_fract_y
 _atom_site_fract_z
 _atom_site_occupancy
  Ca  Ca0  1  0.50000000  0.50000000  -0.00000000  1
  Sm  Sm0  1  -0.00000000  -0.00000000  0.50000000  1
  Mn  Mn0  1  0.00000018  0.49999977  0.75290970  1
  Mn  Mn1  1  0.99999982  0.50000023  0.24709030  1
  Mn  Mn2  1  0.49999947  0.99999974  0.75292152  1
  Mn  Mn3  1  0.50000053  0.00000026  0.24707848  1
  O  O0  1  0.24590492  0.24595794  0.74346815  1
  O  O1  1  0.24590473  0.24595693  0.25653187  1
  O  O2  1  0.75409527  0.75404307  0.74346813  1
  O  O3  1  0.75409508  0.75404206  0.25653185  1
  O  O4  1  0.75409460  0.24595840  0.74346841  1
  O  O5  1  0.75409494  0.24595729  0.25653165  1
  O  O6  1  0.24590506  0.75404271  0.74346835  1
  O  O7  1  0.24590540  0.75404160  0.25653159  1
  O  O8  1  -0.00000000  0.50000000  0.50000000  1
  O  O9  1  -0.00000000  0.50000000  -0.00000000  1
  O  O10  1  0.50000000  -0.00000000  0.50000000  1
  O  O11  1  0.50000000  -0.00000000  -0.00000000  1
loop_
_geom_bond_atom_site_label_1
_geom_bond_atom_site_label_2
_geom_bond_distance
_geom_bond_site_symmetry_2
Ca0 O11 2.619100 1_555
Ca0 O11 2.619100 1_565
Ca0 O9 2.619124 1_555
Ca0 O9 2.619124 1_655
Ca0 O7 2.677399 1_555
Ca0 O4 2.677399 1_554
Ca0 O3 2.677401 1_555
Ca0 O0 2.677401 1_554
Ca0 O6 2.677403 1_554
Ca0 O5 2.677403 1_555
Ca0 O1 2.677405 1_555
Ca0 O2 2.677405 1_554
Mn0 O9 1.834138 1_556
Mn0 O4 1.853365 1_455
Mn0 O0 1.853365 1_555
Mn0 O6 1.853368 1_555
Mn0 O2 1.853372 1_455
Mn0 O8 1.877335 1_555
Mn1 O9 1.834138 1_655
Mn1 O7 1.853365 1_655
Mn1 O3 1.853365 1_555
Mn1 O5 1.853368 1_555
Mn1 O1 1.853372 1_655
Mn1 O8 1.877335 1_655
Mn2 O11 1.834051 1_566
Mn2 O6 1.853755 1_555
Mn2 O2 1.853761 1_555
Mn2 O0 1.853762 1_565
Mn2 O4 1.853764 1_565
Mn2 O10 1.877423 1_565
Mn3 O11 1.834051 1_555
Mn3 O5 1.853755 1_555
Mn3 O1 1.853761 1_555
Mn3 O3 1.853762 1_545
Mn3 O7 1.853764 1_545
Mn3 O10 1.877423 1_555
O0 Sm0 2.566183 1_555
O1 Sm0 2.566181 1_555
O2 Sm0 2.566181 1_665
O3 Sm0 2.566183 1_665
O4 Sm0 2.566189 1_655
O5 Sm0 2.566185 1_655
O6 Sm0 2.566185 1_565
O7 Sm0 2.566189 1_565
O8 Sm0 2.619100 1_565
O8 Sm0 2.619100 1_555
O10 Sm0 2.619124 1_555
O10 Sm0 2.619124 1_655
