# generated using pymatgen
data_MgCdTe2
_symmetry_space_group_name_H-M   'P 1'
_cell_length_a   4.61361620
_cell_length_b   4.61361620
_cell_length_c   6.49046643
_cell_angle_alpha   90.00000000
_cell_angle_beta   90.00000000
_cell_angle_gamma   90.00000000
_symmetry_Int_Tables_number   1
_chemical_formula_structural   MgCdTe2
_chemical_formula_sum   'Mg1 Cd1 Te2'
_cell_volume   138.15252750
_cell_formula_units_Z   1
loop_
 _symmetry_equiv_pos_site_id
 _symmetry_equiv_pos_as_xyz
  1  'x, y, z'
loop_
 _atom_site_type_symbol
 _atom_site_label
 _atom_site_symmetry_multiplicity
 _atom_site_fract_x
 _atom_site_fract_y
 _atom_site_fract_z
 _atom_site_occupancy
  Mg  Mg0  1  0.50000000  0.50000000  0.50000000  1
  Cd  Cd0  1  0.00000000  -0.00000000  -0.00000000  1
  Te  Te0  1  0.00000000  0.50000000  0.25544965  1
  Te  Te1  1  0.50000000  -0.00000000  0.74455035  1
loop_
_geom_bond_atom_site_label_1
_geom_bond_atom_site_label_2
_geom_bond_distance
_geom_bond_site_symmetry_2
Mg0 Te0 2.800127 1_655
Mg0 Te0 2.800127 1_555
Mg0 Te1 2.800127 1_565
Mg0 Te1 2.800127 1_555
Cd0 Te1 2.840825 1_554
Cd0 Te1 2.840825 1_454
Cd0 Te0 2.840825 1_555
Cd0 Te0 2.840825 1_545
