# generated using pymatgen
data_Na6ZnH4(S2O9)2
_symmetry_space_group_name_H-M   'P 1'
_cell_length_a   6.13316800
_cell_length_b   6.91434971
_cell_length_c   10.25130993
_cell_angle_alpha   109.63107887
_cell_angle_beta   92.58404882
_cell_angle_gamma   105.20835803
_symmetry_Int_Tables_number   1
_chemical_formula_structural   Na6ZnH4(S2O9)2
_chemical_formula_sum   'Na6 Zn1 H4 S4 O18'
_cell_volume   390.85044884
_cell_formula_units_Z   1
loop_
 _symmetry_equiv_pos_site_id
 _symmetry_equiv_pos_as_xyz
  1  'x, y, z'
loop_
 _atom_site_type_symbol
 _atom_site_label
 _atom_site_symmetry_multiplicity
 _atom_site_fract_x
 _atom_site_fract_y
 _atom_site_fract_z
 _atom_site_occupancy
  Na  Na0  1  0.44011300  0.70794300  0.10676800  1
  Na  Na1  1  0.55988700  0.29205700  0.89323200  1
  Na  Na2  1  0.95824900  0.21578900  0.33185800  1
  Na  Na3  1  0.04175100  0.78421100  0.66814200  1
  Na  Na4  1  0.39130400  0.73838300  0.46344900  1
  Na  Na5  1  0.60869600  0.26161700  0.53655100  1
  Zn  Zn0  1  0.00000000  0.00000000  0.00000000  1
  H  H0  1  0.99105600  0.63211900  0.13446500  1
  H  H1  1  0.00894400  0.36788100  0.86553500  1
  H  H2  1  0.91253300  0.64387900  0.96888700  1
  H  H3  1  0.08746700  0.35612100  0.03111300  1
  S  S0  1  0.87548600  0.73341100  0.32529200  1
  S  S1  1  0.12451400  0.26658900  0.67470800  1
  S  S2  1  0.44582800  0.20534500  0.19917200  1
  S  S3  1  0.55417200  0.79465500  0.80082800  1
  O  O0  1  0.82329100  0.88303900  0.18169500  1
  O  O1  1  0.17670900  0.11696100  0.81830500  1
  O  O2  1  0.01241400  0.85506900  0.42130100  1
  O  O3  1  0.98758600  0.14493100  0.57869900  1
  O  O4  1  0.01274500  0.58941700  0.31585900  1
  O  O5  1  0.98725500  0.41058300  0.68414100  1
  O  O6  1  0.65328900  0.61373400  0.37335600  1
  O  O7  1  0.34671100  0.38626600  0.62664400  1
  O  O8  1  0.63512200  0.35220800  0.12642900  1
  O  O9  1  0.36487800  0.64779200  0.87357100  1
  O  O10  1  0.53629600  0.09882000  0.34602300  1
  O  O11  1  0.46370400  0.90118000  0.65397700  1
  O  O12  1  0.33415400  0.04183300  0.12395400  1
  O  O13  1  0.66584600  0.95816700  0.87604600  1
  O  O14  1  0.27027000  0.32308400  0.19707900  1
  O  O15  1  0.72973000  0.67691600  0.80292100  1
  O  O16  1  0.03373000  0.69726300  0.03825800  1
  O  O17  1  0.96627000  0.30273700  0.96174200  1
loop_
_geom_bond_atom_site_label_1
_geom_bond_atom_site_label_2
_geom_bond_distance
_geom_bond_site_symmetry_2
Na0 O9 2.287472 1_554
Na0 O0 2.301802 1_555
Na1 O8 2.287472 1_556
Na1 O1 2.301802 1_555
Na2 O0 2.203276 1_545
Na2 O14 2.510740 1_655
Na2 O10 2.527278 1_555
Na2 O4 2.578596 1_655
Na2 O3 2.741127 1_555
Na3 O1 2.203276 1_565
Na3 O15 2.510740 1_455
Na3 O11 2.527278 1_555
Na3 O5 2.578596 1_455
Na3 O2 2.741127 1_555
Na4 O11 1.860475 1_555
Na4 O6 2.122059 1_555
Na5 O10 1.860475 1_555
Na5 O7 2.122059 1_555
H0 O16 1.226371 1_655
H1 O17 1.226371 1_455
H2 O16 0.909124 1_656
H3 O17 0.909124 1_454
O0 S0 2.119994 1_555
O0 Zn0 2.456060 1_665
O1 S1 2.119994 1_555
O1 Zn0 2.456060 1_556
O2 S0 1.174772 1_455
O3 S1 1.174772 1_655
O4 S0 1.446269 1_455
O5 S1 1.446269 1_655
O6 S0 1.589815 1_555
O7 S1 1.589815 1_555
O8 S2 1.703950 1_555
O9 S3 1.703950 1_555
O10 S2 2.000197 1_555
O11 S3 2.000197 1_555
O12 S2 1.141153 1_555
O12 Zn0 2.259570 1_555
O13 S3 1.141153 1_555
O13 Zn0 2.259570 1_666
O14 S2 1.513964 1_555
O15 S3 1.513964 1_555
O16 Zn0 2.312946 1_565
O17 Zn0 2.312946 1_656
