# generated using pymatgen
data_Yb2MgSe4
_symmetry_space_group_name_H-M   'P 1'
_cell_length_a   5.48615900
_cell_length_b   9.25577400
_cell_length_c   13.44697900
_cell_angle_alpha   90.00000000
_cell_angle_beta   90.00000000
_cell_angle_gamma   90.00000000
_symmetry_Int_Tables_number   1
_chemical_formula_structural   Yb2MgSe4
_chemical_formula_sum   'Yb8 Mg4 Se16'
_cell_volume   682.81941105
_cell_formula_units_Z   4
loop_
 _symmetry_equiv_pos_site_id
 _symmetry_equiv_pos_as_xyz
  1  'x, y, z'
loop_
 _atom_site_type_symbol
 _atom_site_label
 _atom_site_symmetry_multiplicity
 _atom_site_fract_x
 _atom_site_fract_y
 _atom_site_fract_z
 _atom_site_occupancy
  Yb  Yb0  1  0.75000000  0.01334000  0.32195500  1
  Yb  Yb1  1  0.25000000  0.98666000  0.67804500  1
  Yb  Yb2  1  0.25000000  0.48666000  0.82195500  1
  Yb  Yb3  1  0.75000000  0.51334000  0.17804500  1
  Yb  Yb4  1  0.25000000  0.09165500  0.05130200  1
  Yb  Yb5  1  0.75000000  0.90834500  0.94869800  1
  Yb  Yb6  1  0.75000000  0.40834500  0.55130200  1
  Yb  Yb7  1  0.25000000  0.59165500  0.44869800  1
  Mg  Mg0  1  0.25000000  0.17720600  0.46712900  1
  Mg  Mg1  1  0.75000000  0.82279400  0.53287100  1
  Mg  Mg2  1  0.75000000  0.32279400  0.96712900  1
  Mg  Mg3  1  0.25000000  0.67720600  0.03287100  1
  Se  Se0  1  0.49924100  0.17679700  0.83645500  1
  Se  Se1  1  0.50075900  0.82320300  0.16354500  1
  Se  Se2  1  0.50075900  0.32320300  0.33645500  1
  Se  Se3  1  0.49924100  0.67679700  0.66354500  1
  Se  Se4  1  0.00075900  0.67679700  0.66354500  1
  Se  Se5  1  0.99924100  0.32320300  0.33645500  1
  Se  Se6  1  0.99924100  0.82320300  0.16354500  1
  Se  Se7  1  0.00075900  0.17679700  0.83645500  1
  Se  Se8  1  0.25000000  0.91154700  0.43301800  1
  Se  Se9  1  0.75000000  0.08845300  0.56698200  1
  Se  Se10  1  0.75000000  0.58845300  0.93301800  1
  Se  Se11  1  0.25000000  0.41154700  0.06698200  1
  Se  Se12  1  0.75000000  0.15253400  0.11226800  1
  Se  Se13  1  0.25000000  0.84746600  0.88773200  1
  Se  Se14  1  0.25000000  0.34746600  0.61226800  1
  Se  Se15  1  0.75000000  0.65253400  0.38773200  1
loop_
_geom_bond_atom_site_label_1
_geom_bond_atom_site_label_2
_geom_bond_distance
_geom_bond_site_symmetry_2
Mg0 Se8 2.501297 1_545
Mg0 Se14 2.508482 1_555
Mg0 Se5 2.608881 1_455
Mg0 Se2 2.608881 1_555
Mg0 Se9 3.162627 1_555
Mg0 Se9 3.162627 1_455
Mg1 Se9 2.501297 1_565
Mg1 Se15 2.508482 1_555
Mg1 Se4 2.608881 1_655
Mg1 Se3 2.608881 1_555
Mg1 Se8 3.162627 1_655
Mg1 Se8 3.162627 1_555
Mg2 Se10 2.501297 1_555
Mg2 Se12 2.508482 1_556
Mg2 Se7 2.608881 1_655
Mg2 Se0 2.608881 1_555
Mg2 Se11 3.162627 1_556
Mg2 Se11 3.162627 1_656
Mg3 Se11 2.501297 1_555
Mg3 Se13 2.508482 1_554
Mg3 Se6 2.608881 1_455
Mg3 Se1 2.608881 1_555
Mg3 Se10 3.162627 1_454
Mg3 Se10 3.162627 1_554
Se0 Se7 2.734752 1_555
Se0 Se7 2.751407 1_655
Se0 Yb1 3.082908 1_545
Se0 Yb2 3.183282 1_555
Se0 Yb5 3.216290 1_545
Se0 Yb4 3.292008 1_556
Se1 Se6 2.734752 1_555
Se1 Se6 2.751407 1_455
Se1 Yb0 3.082908 1_565
Se1 Yb3 3.183282 1_555
Se1 Yb4 3.216290 1_565
Se1 Yb5 3.292008 1_554
Se2 Se5 2.734752 1_555
Se2 Se5 2.751407 1_455
Se2 Yb3 3.082908 1_555
Se2 Yb0 3.183282 1_555
Se2 Yb7 3.216290 1_555
Se2 Yb6 3.292008 1_555
Se3 Se4 2.734752 1_555
Se3 Se4 2.751407 1_655
Se3 Yb2 3.082908 1_555
Se3 Yb1 3.183282 1_555
Se3 Yb6 3.216290 1_555
Se3 Yb7 3.292008 1_555
Se4 Yb2 3.082908 1_555
Se4 Yb1 3.183282 1_555
Se4 Yb6 3.216290 1_455
Se4 Yb7 3.292008 1_555
Se5 Yb3 3.082908 1_555
Se5 Yb0 3.183282 1_555
Se5 Yb7 3.216290 1_655
Se5 Yb6 3.292008 1_555
Se6 Yb0 3.082908 1_565
Se6 Yb3 3.183282 1_555
Se6 Yb4 3.216290 1_665
Se6 Yb5 3.292008 1_554
Se7 Yb1 3.082908 1_545
Se7 Yb2 3.183282 1_555
Se7 Yb5 3.216290 1_445
Se7 Yb4 3.292008 1_556
Se8 Yb7 2.968346 1_555
Se8 Yb0 3.262300 1_465
Se8 Yb0 3.262300 1_565
Se8 Yb1 3.367422 1_555
Se9 Yb6 2.968346 1_555
Se9 Yb1 3.262300 1_645
Se9 Yb1 3.262300 1_545
Se9 Yb0 3.367422 1_555
Se10 Yb5 2.968346 1_555
Se10 Yb2 3.262300 1_555
Se10 Yb2 3.262300 1_655
Se10 Yb3 3.367422 1_556
Se11 Yb4 2.968346 1_555
Se11 Yb3 3.262300 1_555
Se11 Yb3 3.262300 1_455
Se11 Yb2 3.367422 1_554
Se12 Yb4 2.917890 1_555
Se12 Yb4 2.917890 1_655
Se12 Yb0 3.100049 1_555
Se12 Yb5 3.153762 1_544
Se12 Yb3 3.454687 1_555
Se13 Yb5 2.917890 1_455
Se13 Yb5 2.917890 1_555
Se13 Yb1 3.100049 1_555
Se13 Yb4 3.153762 1_566
Se13 Yb2 3.454687 1_555
Se14 Yb6 2.917890 1_455
Se14 Yb6 2.917890 1_555
Se14 Yb2 3.100049 1_555
Se14 Yb7 3.153762 1_555
Se14 Yb1 3.454687 1_545
Se15 Yb7 2.917890 1_555
Se15 Yb7 2.917890 1_655
Se15 Yb3 3.100049 1_555
Se15 Yb6 3.153762 1_555
Se15 Yb0 3.454687 1_565
