# generated using pymatgen
data_Hf2Mn
_symmetry_space_group_name_H-M   'P 1'
_cell_length_a   8.60242964
_cell_length_b   8.60313056
_cell_length_c   8.60248119
_cell_angle_alpha   60.00610137
_cell_angle_beta   60.00347363
_cell_angle_gamma   60.00587167
_symmetry_Int_Tables_number   1
_chemical_formula_structural   Hf2Mn
_chemical_formula_sum   'Hf16 Mn8'
_cell_volume   450.23273765
_cell_formula_units_Z   8
loop_
 _symmetry_equiv_pos_site_id
 _symmetry_equiv_pos_as_xyz
  1  'x, y, z'
loop_
 _atom_site_type_symbol
 _atom_site_label
 _atom_site_symmetry_multiplicity
 _atom_site_fract_x
 _atom_site_fract_y
 _atom_site_fract_z
 _atom_site_occupancy
  Hf  Hf0  1  0.12500000  0.62500000  0.62500000  1
  Hf  Hf1  1  0.62500000  0.12500000  0.62500000  1
  Hf  Hf2  1  0.62500000  0.62500000  0.12500000  1
  Hf  Hf3  1  0.62500000  0.62500000  0.62500000  1
  Hf  Hf4  1  0.80998051  0.80999144  0.19002143  1
  Hf  Hf5  1  0.18996824  0.18997977  0.81003483  1
  Hf  Hf6  1  0.81001225  0.19004232  0.80999799  1
  Hf  Hf7  1  0.19002734  0.81002813  0.18995881  1
  Hf  Hf8  1  0.19003551  0.81001840  0.80999403  1
  Hf  Hf9  1  0.81002150  0.19003456  0.18995441  1
  Hf  Hf10  1  0.44001949  0.44000856  0.05997857  1
  Hf  Hf11  1  0.06003176  0.06002023  0.43996517  1
  Hf  Hf12  1  0.43998775  0.05995768  0.44000201  1
  Hf  Hf13  1  0.05997266  0.43997187  0.06004119  1
  Hf  Hf14  1  0.05996449  0.43998160  0.44000597  1
  Hf  Hf15  1  0.43997850  0.05996544  0.06004559  1
  Mn  Mn0  1  0.76175711  0.41274735  0.41273960  1
  Mn  Mn1  1  0.41278551  0.76172523  0.41273884  1
  Mn  Mn2  1  0.41277814  0.41273863  0.76173535  1
  Mn  Mn3  1  0.41277397  0.41275363  0.41272711  1
  Mn  Mn4  1  0.48824289  0.83725265  0.83726040  1
  Mn  Mn5  1  0.83721449  0.48827477  0.83726116  1
  Mn  Mn6  1  0.83722186  0.83726137  0.48826465  1
  Mn  Mn7  1  0.83722603  0.83724637  0.83727289  1
loop_
_geom_bond_atom_site_label_1
_geom_bond_atom_site_label_2
_geom_bond_distance
_geom_bond_site_symmetry_2
Hf0 Mn5 2.662840 1_455
Hf0 Mn1 2.662840 1_555
Hf0 Mn6 2.662889 1_455
Hf0 Mn2 2.662889 1_555
Hf0 Mn7 2.662951 1_455
Hf0 Mn3 2.662951 1_555
Hf0 Hf8 3.113269 1_555
Hf0 Hf14 3.113269 1_555
Hf0 Hf13 3.113433 1_556
Hf0 Hf7 3.113433 1_555
Hf0 Hf11 3.113639 1_565
Hf0 Hf5 3.113639 1_555
Hf1 Mn2 2.662702 1_555
Hf1 Mn6 2.662702 1_545
Hf1 Mn4 2.662873 1_545
Hf1 Mn0 2.662873 1_555
Hf1 Mn3 2.662892 1_555
Hf1 Mn7 2.662892 1_545
Hf1 Hf12 3.113235 1_555
Hf1 Hf6 3.113235 1_555
Hf1 Hf5 3.113352 1_555
Hf1 Hf11 3.113352 1_655
Hf1 Hf9 3.113398 1_555
Hf1 Hf15 3.113398 1_556
Hf2 Mn5 2.662521 1_554
Hf2 Mn1 2.662521 1_555
Hf2 Mn3 2.662633 1_555
Hf2 Mn7 2.662633 1_554
Hf2 Mn4 2.662738 1_554
Hf2 Mn0 2.662738 1_555
Hf2 Hf4 3.112883 1_555
Hf2 Hf7 3.112998 1_555
Hf2 Hf9 3.113250 1_555
Hf3 Mn1 2.662541 1_555
Hf3 Mn5 2.662541 1_555
Hf3 Mn6 2.662631 1_555
Hf3 Mn2 2.662631 1_555
Hf3 Mn4 2.662796 1_555
Hf3 Mn0 2.662796 1_555
Hf3 Hf8 3.112987 1_555
Hf3 Hf4 3.113037 1_555
Hf3 Hf6 3.113241 1_555
Hf4 Mn6 2.819639 1_555
Hf4 Mn7 2.819678 1_554
Hf4 Mn1 3.097646 1_555
Hf4 Mn0 3.098172 1_555
Hf4 Hf7 3.269215 1_655
Hf4 Hf9 3.269449 1_565
Hf4 Hf8 3.269459 1_654
Hf4 Hf6 3.269687 1_564
Hf5 Mn4 2.820021 1_545
Hf5 Mn5 2.820151 1_455
Hf5 Mn2 3.098263 1_555
Hf5 Mn3 3.098662 1_555
Hf5 Hf6 3.268434 1_455
Hf5 Hf9 3.268530 1_456
Hf5 Hf8 3.268743 1_545
Hf5 Hf7 3.268833 1_546
Hf6 Mn5 2.819494 1_555
Hf6 Mn7 2.820370 1_545
Hf6 Mn2 3.098006 1_555
Hf6 Mn0 3.098185 1_555
Hf6 Hf9 3.268574 1_556
Hf6 Hf8 3.269550 1_645
Hf7 Mn4 2.819427 1_554
Hf7 Mn6 2.820277 1_455
Hf7 Mn1 3.097935 1_555
Hf7 Mn3 3.098505 1_555
Hf7 Hf8 3.268647 1_554
Hf7 Hf9 3.269399 1_465
Hf8 Mn4 2.819266 1_555
Hf8 Mn7 2.820156 1_455
Hf8 Mn1 3.098195 1_555
Hf8 Mn2 3.098543 1_555
Hf9 Mn5 2.819675 1_554
Hf9 Mn6 2.820393 1_545
Hf9 Mn0 3.097891 1_555
Hf9 Mn3 3.098110 1_555
Hf10 Mn2 2.819639 1_554
Hf10 Mn3 2.819678 1_555
Hf10 Mn5 3.097646 1_554
Hf10 Mn4 3.098172 1_554
Hf10 Hf2 3.112883 1_555
Hf10 Hf3 3.113037 1_554
Hf10 Hf6 3.211841 1_554
Hf10 Hf9 3.211942 1_555
Hf10 Hf8 3.212119 1_554
Hf10 Hf7 3.212228 1_555
Hf10 Hf13 3.269215 1_555
Hf10 Hf15 3.269449 1_555
Hf10 Hf14 3.269459 1_555
Hf10 Hf12 3.269687 1_555
Hf11 Mn0 2.820021 1_455
Hf11 Mn1 2.820151 1_545
Hf11 Mn6 3.098263 1_445
Hf11 Mn7 3.098662 1_445
Hf11 Hf7 3.211960 1_545
Hf11 Hf9 3.211982 1_455
Hf11 Hf8 3.212273 1_545
Hf11 Hf6 3.212299 1_455
Hf11 Hf12 3.268434 1_555
Hf11 Hf15 3.268530 1_555
Hf11 Hf14 3.268743 1_555
Hf11 Hf13 3.268833 1_555
Hf12 Mn1 2.819494 1_545
Hf12 Mn3 2.820370 1_555
Hf12 Mn6 3.098006 1_545
Hf12 Mn4 3.098185 1_545
Hf12 Hf3 3.113241 1_545
Hf12 Hf8 3.211609 1_545
Hf12 Hf4 3.211841 1_545
Hf12 Hf5 3.212299 1_555
Hf12 Hf9 3.212536 1_555
Hf12 Hf15 3.268574 1_555
Hf12 Hf14 3.269550 1_555
Hf13 Mn0 2.819427 1_455
Hf13 Mn2 2.820277 1_554
Hf13 Mn5 3.097935 1_454
Hf13 Mn7 3.098505 1_454
Hf13 Hf2 3.112998 1_455
Hf13 Hf9 3.211397 1_455
Hf13 Hf5 3.211960 1_554
Hf13 Hf4 3.212228 1_455
Hf13 Hf8 3.212790 1_554
Hf13 Hf14 3.268647 1_555
Hf13 Hf15 3.269399 1_555
Hf14 Mn0 2.819266 1_455
Hf14 Mn3 2.820156 1_555
Hf14 Mn5 3.098195 1_455
Hf14 Mn6 3.098543 1_455
Hf14 Hf3 3.112987 1_455
Hf14 Hf6 3.211609 1_455
Hf14 Hf4 3.212119 1_455
Hf14 Hf5 3.212273 1_555
Hf14 Hf7 3.212790 1_555
Hf15 Mn1 2.819675 1_545
Hf15 Mn2 2.820393 1_554
Hf15 Mn4 3.097891 1_544
Hf15 Mn7 3.098110 1_544
Hf15 Hf2 3.113250 1_545
Hf15 Hf7 3.211397 1_545
Hf15 Hf4 3.211942 1_545
Hf15 Hf5 3.211982 1_554
Hf15 Hf6 3.212536 1_554
Mn0 Mn3 3.002130 1_555
Mn0 Mn2 3.002306 1_555
Mn0 Mn1 3.002419 1_555
Mn1 Mn3 3.002348 1_555
Mn1 Mn2 3.002583 1_555
Mn2 Mn3 3.002290 1_555
Mn4 Mn7 3.002130 1_555
Mn4 Mn6 3.002306 1_555
Mn4 Mn5 3.002419 1_555
Mn5 Mn7 3.002348 1_555
Mn5 Mn6 3.002583 1_555
Mn6 Mn7 3.002290 1_555
