# generated using pymatgen
data_Mg16Al12I
_symmetry_space_group_name_H-M   'P 1'
_cell_length_a   9.21009183
_cell_length_b   9.21009183
_cell_length_c   9.21009183
_cell_angle_alpha   109.47122063
_cell_angle_beta   109.47122063
_cell_angle_gamma   109.47122063
_symmetry_Int_Tables_number   1
_chemical_formula_structural   Mg16Al12I
_chemical_formula_sum   'Mg16 Al12 I1'
_cell_volume   601.40909431
_cell_formula_units_Z   1
loop_
 _symmetry_equiv_pos_site_id
 _symmetry_equiv_pos_as_xyz
  1  'x, y, z'
loop_
 _atom_site_type_symbol
 _atom_site_label
 _atom_site_symmetry_multiplicity
 _atom_site_fract_x
 _atom_site_fract_y
 _atom_site_fract_z
 _atom_site_occupancy
  Mg  Mg0  1  0.33679500  0.33679500  0.33679500  1
  Mg  Mg1  1  0.66320500  0.00000000  0.00000000  1
  Mg  Mg2  1  0.71846400  0.31293600  0.31293600  1
  Mg  Mg3  1  0.28153600  0.59447200  0.59447200  1
  Mg  Mg4  1  0.00000000  0.68706400  0.40552800  1
  Mg  Mg5  1  0.40552800  0.00000000  0.68706400  1
  Mg  Mg6  1  0.59447200  0.59447200  0.28153600  1
  Mg  Mg7  1  0.00000000  0.00000000  0.66320500  1
  Mg  Mg8  1  0.31293600  0.71846400  0.31293600  1
  Mg  Mg9  1  0.68706400  0.40552800  0.00000000  1
  Mg  Mg10  1  0.68706400  0.00000000  0.40552800  1
  Mg  Mg11  1  0.31293600  0.31293600  0.71846400  1
  Mg  Mg12  1  0.00000000  0.66320500  0.00000000  1
  Mg  Mg13  1  0.59447200  0.28153600  0.59447200  1
  Mg  Mg14  1  0.40552800  0.68706400  0.00000000  1
  Mg  Mg15  1  0.00000000  0.40552800  0.68706400  1
  Al  Al0  1  0.18854200  0.81138300  0.81138300  1
  Al  Al1  1  0.81145800  0.62284100  0.62284100  1
  Al  Al2  1  0.37715900  0.18861700  0.00000000  1
  Al  Al3  1  0.62284100  0.81145800  0.62284100  1
  Al  Al4  1  0.00000000  0.37715900  0.18861700  1
  Al  Al5  1  0.18861700  0.37715900  0.00000000  1
  Al  Al6  1  0.81138300  0.18854200  0.81138300  1
  Al  Al7  1  0.18861700  0.00000000  0.37715900  1
  Al  Al8  1  0.81138300  0.81138300  0.18854200  1
  Al  Al9  1  0.00000000  0.18861700  0.37715900  1
  Al  Al10  1  0.37715900  0.00000000  0.18861700  1
  Al  Al11  1  0.62284100  0.62284100  0.81145800  1
  I  I0  1  0.00000000  0.00000000  0.00000000  1
loop_
_geom_bond_atom_site_label_1
_geom_bond_atom_site_label_2
_geom_bond_distance
_geom_bond_site_symmetry_2
Mg0 Mg3 3.062529 1_555
Mg0 Mg6 3.062529 1_555
Mg0 Mg13 3.062529 1_555
Mg1 Mg5 3.062529 1_554
Mg1 Mg14 3.062529 1_545
Mg1 Mg2 3.062529 1_555
Mg2 Mg4 3.151876 1_655
Mg2 Mg9 3.219484 1_555
Mg2 Mg6 3.219484 1_555
Mg3 Mg4 3.151876 1_555
Mg3 Mg8 3.219484 1_555
Mg3 Mg5 3.219484 1_565
Mg4 Mg7 3.062529 1_565
Mg4 Mg8 3.219484 1_555
Mg4 Mg6 3.219484 1_455
Mg4 Mg9 3.219484 1_455
Mg4 Mg5 3.219484 1_565
Mg5 Mg8 3.151876 1_545
Mg5 Mg9 3.219484 1_556
Mg6 Mg9 3.151876 1_555
Mg6 Mg8 3.219484 1_555
Mg10 Mg7 3.062529 1_655
Mg10 Mg13 3.151876 1_555
Mg10 Mg8 3.151876 1_545
Mg10 Mg2 3.219484 1_555
Mg10 Mg14 3.219484 1_545
Mg10 Mg15 3.219484 1_655
Mg10 Mg6 3.219484 1_545
Mg11 Mg7 3.062529 1_555
Mg11 Mg9 3.151876 1_556
Mg11 Mg14 3.151876 1_556
Mg11 Mg3 3.219484 1_555
Mg11 Mg15 3.219484 1_555
Mg11 Mg5 3.219484 1_555
Mg11 Mg13 3.219484 1_555
Mg12 Mg8 3.062529 1_555
Mg12 Mg9 3.062529 1_455
Mg12 Mg15 3.062529 1_554
Mg13 Mg5 3.151876 1_555
Mg13 Mg2 3.219484 1_555
Mg13 Mg9 3.219484 1_556
Mg13 Mg15 3.219484 1_655
Mg14 Mg6 3.151876 1_555
Mg14 Mg15 3.219484 1_554
Mg14 Mg3 3.219484 1_554
Mg14 Mg8 3.219484 1_555
Mg15 Mg2 3.151876 1_455
Mg15 Mg3 3.151876 1_555
Al0 Al1 2.835675 1_455
Al0 Al10 2.836803 1_566
Al0 Al2 2.836803 1_566
Al0 Mg3 2.887286 1_555
Al0 Mg14 2.976524 1_556
Al0 Mg5 2.976524 1_565
Al0 Mg4 3.129325 1_555
Al0 Mg15 3.129325 1_555
Al0 Mg7 3.147598 1_565
Al0 Mg12 3.147598 1_556
Al0 I0 3.325845 1_566
Al1 Al11 2.836803 1_555
Al1 Al3 2.836803 1_555
Al1 Mg2 2.887286 1_555
Al1 Mg6 2.976524 1_555
Al1 Mg13 2.976524 1_555
Al1 Mg15 3.129325 1_655
Al1 Mg4 3.129325 1_655
Al1 Mg12 3.147598 1_656
Al1 Mg7 3.147598 1_665
Al1 I0 3.325845 1_666
Al2 Al5 2.835675 1_555
Al2 Mg9 2.887286 1_555
Al2 Mg5 2.976524 1_554
Al2 Mg2 2.976524 1_555
Al2 Mg6 3.129325 1_555
Al2 Mg11 3.129325 1_554
Al2 Mg0 3.147598 1_555
Al2 Mg7 3.147598 1_554
Al2 I0 3.325845 1_555
Al3 Al6 2.835675 1_565
Al3 Mg8 2.887286 1_555
Al3 Mg6 2.976524 1_555
Al3 Mg3 2.976524 1_555
Al3 Mg10 3.129325 1_565
Al3 Mg5 3.129325 1_565
Al3 Mg7 3.147598 1_665
Al3 Mg1 3.147598 1_566
Al3 I0 3.325845 1_666
Al4 Al9 2.835675 1_555
Al4 Al5 2.836803 1_555
Al4 Al6 2.836803 1_454
Al4 Mg4 2.887286 1_555
Al4 Mg8 2.976524 1_555
Al4 Mg9 2.976524 1_455
Al4 Mg2 3.129325 1_455
Al4 Mg3 3.129325 1_555
Al4 Mg0 3.147598 1_555
Al4 Mg1 3.147598 1_455
Al4 I0 3.325845 1_555
Al5 Al6 2.836803 1_454
Al5 Mg14 2.887286 1_555
Al5 Mg8 2.976524 1_555
Al5 Mg15 2.976524 1_554
Al5 Mg6 3.129325 1_555
Al5 Mg11 3.129325 1_554
Al5 Mg0 3.147598 1_555
Al5 Mg7 3.147598 1_554
Al5 I0 3.325845 1_555
Al6 Mg13 2.887286 1_555
Al6 Mg9 2.976524 1_556
Al6 Mg15 2.976524 1_655
Al6 Mg5 3.129325 1_555
Al6 Mg10 3.129325 1_555
Al6 Mg1 3.147598 1_556
Al6 Mg7 3.147598 1_655
Al6 I0 3.325845 1_656
Al7 Al9 2.836803 1_555
Al7 Al8 2.836803 1_445
Al7 Mg5 2.887286 1_555
Al7 Mg11 2.976524 1_555
Al7 Mg4 2.976524 1_545
Al7 Mg8 3.129325 1_545
Al7 Mg13 3.129325 1_555
Al7 Mg0 3.147598 1_555
Al7 Mg12 3.147598 1_545
Al7 I0 3.325845 1_555
Al8 Al9 2.836803 1_665
Al8 Mg6 2.887286 1_555
Al8 Mg4 2.976524 1_655
Al8 Mg10 2.976524 1_565
Al8 Mg14 3.129325 1_555
Al8 Mg9 3.129325 1_555
Al8 Mg1 3.147598 1_565
Al8 Mg12 3.147598 1_655
Al8 I0 3.325845 1_665
Al9 Mg15 2.887286 1_555
Al9 Mg11 2.976524 1_555
Al9 Mg10 2.976524 1_455
Al9 Mg2 3.129325 1_455
Al9 Mg3 3.129325 1_555
Al9 Mg0 3.147598 1_555
Al9 Mg1 3.147598 1_455
Al9 I0 3.325845 1_555
Al10 Al7 2.835675 1_555
Al10 Al2 2.836803 1_555
Al10 Mg10 2.887286 1_555
Al10 Mg14 2.976524 1_545
Al10 Mg2 2.976524 1_555
Al10 Mg8 3.129325 1_545
Al10 Mg13 3.129325 1_555
Al10 Mg12 3.147598 1_545
Al10 Mg0 3.147598 1_555
Al10 I0 3.325845 1_555
Al11 Al8 2.835675 1_556
Al11 Al3 2.836803 1_555
Al11 Mg11 2.887286 1_555
Al11 Mg13 2.976524 1_555
Al11 Mg3 2.976524 1_555
Al11 Mg9 3.129325 1_556
Al11 Mg14 3.129325 1_556
Al11 Mg1 3.147598 1_566
Al11 Mg12 3.147598 1_656
Al11 I0 3.325845 1_666
I0 Mg7 3.101913 1_554
I0 Mg12 3.101913 1_545
I0 Mg1 3.101913 1_455
I0 Mg0 3.101913 1_555
