# generated using pymatgen
data_ErNiO3
_symmetry_space_group_name_H-M   'P 1'
_cell_length_a   5.10714498
_cell_length_b   5.49542731
_cell_length_c   7.33200990
_cell_angle_alpha   90.00000000
_cell_angle_beta   90.00000000
_cell_angle_gamma   90.00000000
_symmetry_Int_Tables_number   1
_chemical_formula_structural   ErNiO3
_chemical_formula_sum   'Er4 Ni4 O12'
_cell_volume   205.77977926
_cell_formula_units_Z   4
loop_
 _symmetry_equiv_pos_site_id
 _symmetry_equiv_pos_as_xyz
  1  'x, y, z'
loop_
 _atom_site_type_symbol
 _atom_site_label
 _atom_site_symmetry_multiplicity
 _atom_site_fract_x
 _atom_site_fract_y
 _atom_site_fract_z
 _atom_site_occupancy
  Er  Er0  1  0.47851028  0.42201713  0.75000000  1
  Er  Er1  1  0.02148972  0.92201713  0.75000000  1
  Er  Er2  1  0.52148972  0.57798287  0.25000000  1
  Er  Er3  1  0.97851028  0.07798287  0.25000000  1
  Ni  Ni0  1  -0.00000000  0.50000000  0.00000000  1
  Ni  Ni1  1  0.50000000  0.00000000  0.50000000  1
  Ni  Ni2  1  -0.00000000  0.50000000  0.50000000  1
  Ni  Ni3  1  0.50000000  0.00000000  0.00000000  1
  O  O0  1  0.69286236  0.30610985  0.44762900  1
  O  O1  1  0.80713764  0.80610985  0.05237100  1
  O  O2  1  0.30713764  0.69389015  0.55237100  1
  O  O3  1  0.19286236  0.19389015  0.94762900  1
  O  O4  1  0.19286236  0.19389015  0.55237100  1
  O  O5  1  0.30713764  0.69389015  0.94762900  1
  O  O6  1  0.80713764  0.80610985  0.44762900  1
  O  O7  1  0.69286236  0.30610985  0.05237100  1
  O  O8  1  0.10560822  0.46918050  0.25000000  1
  O  O9  1  0.39439178  0.96918050  0.25000000  1
  O  O10  1  0.89439178  0.53081950  0.75000000  1
  O  O11  1  0.60560822  0.03081950  0.75000000  1
loop_
_geom_bond_atom_site_label_1
_geom_bond_atom_site_label_2
_geom_bond_distance
_geom_bond_site_symmetry_2
Er0 O10 2.206522 1_555
Er0 O11 2.245656 1_555
Er0 O5 2.257849 1_555
Er0 O2 2.257849 1_555
Er0 O4 2.408222 1_555
Er0 O3 2.408222 1_555
Er0 O7 2.553268 1_556
Er0 O0 2.553268 1_555
Er1 O11 2.206522 1_465
Er1 O10 2.245656 1_455
Er1 O4 2.257849 1_565
Er1 O3 2.257849 1_565
Er1 O5 2.408222 1_555
Er1 O2 2.408222 1_555
Er1 O1 2.553268 1_456
Er1 O6 2.553268 1_455
Er2 O8 2.206522 1_555
Er2 O9 2.245656 1_555
Er2 O0 2.257849 1_555
Er2 O7 2.257849 1_555
Er2 O6 2.408222 1_555
Er2 O1 2.408222 1_555
Er2 O5 2.553268 1_554
Er2 O2 2.553268 1_555
Er3 O9 2.206522 1_645
Er3 O8 2.245656 1_655
Er3 O6 2.257849 1_545
Er3 O1 2.257849 1_545
Er3 O0 2.408222 1_555
Er3 O7 2.408222 1_555
Er3 O3 2.553268 1_654
Er3 O4 2.553268 1_655
Ni0 O8 1.918199 1_555
Ni0 O10 1.918199 1_454
Ni0 O7 1.934748 1_455
Ni0 O5 1.934748 1_554
Ni0 O1 1.986815 1_455
Ni0 O3 1.986815 1_554
Ni1 O9 1.918199 1_545
Ni1 O11 1.918199 1_555
Ni1 O4 1.934748 1_555
Ni1 O6 1.934748 1_545
Ni1 O2 1.986815 1_545
Ni1 O0 1.986815 1_555
Ni2 O8 1.918199 1_555
Ni2 O10 1.918199 1_455
Ni2 O2 1.934748 1_555
Ni2 O0 1.934748 1_455
Ni2 O4 1.986815 1_555
Ni2 O6 1.986815 1_455
Ni3 O11 1.918199 1_554
Ni3 O9 1.918199 1_545
Ni3 O1 1.934748 1_545
Ni3 O3 1.934748 1_554
Ni3 O5 1.986815 1_544
Ni3 O7 1.986815 1_555
