# generated using pymatgen
data_Li9Mn2Co5O16
_symmetry_space_group_name_H-M   'P 1'
_cell_length_a   2.98926300
_cell_length_b   9.78421414
_cell_length_c   10.12695129
_cell_angle_alpha   77.37626540
_cell_angle_beta   89.03130709
_cell_angle_gamma   87.91749101
_symmetry_Int_Tables_number   1
_chemical_formula_structural   Li9Mn2Co5O16
_chemical_formula_sum   'Li9 Mn2 Co5 O16'
_cell_volume   288.82583655
_cell_formula_units_Z   1
loop_
 _symmetry_equiv_pos_site_id
 _symmetry_equiv_pos_as_xyz
  1  'x, y, z'
loop_
 _atom_site_type_symbol
 _atom_site_label
 _atom_site_symmetry_multiplicity
 _atom_site_fract_x
 _atom_site_fract_y
 _atom_site_fract_z
 _atom_site_occupancy
  Li  Li0  1  0.00127800  0.75153300  0.87348200  1
  Li  Li1  1  0.49813300  0.50185900  0.48856300  1
  Li  Li2  1  0.00690200  0.24913100  0.12843100  1
  Li  Li3  1  0.49760500  0.00004700  0.74727300  1
  Li  Li4  1  0.49141800  0.49641400  0.00466900  1
  Li  Li5  1  0.00239300  0.25108200  0.62361100  1
  Li  Li6  1  0.50930900  0.00461700  0.25604000  1
  Li  Li7  1  0.98988600  0.74019800  0.37397900  1
  Li  Li8  1  0.01261800  0.50329900  0.25832300  1
  Mn  Mn0  1  0.99089200  0.00110500  0.99662700  1
  Mn  Mn1  1  0.49077600  0.74076800  0.12984200  1
  Co  Co0  1  0.49947200  0.75021600  0.62455500  1
  Co  Co1  1  0.50893500  0.25230100  0.87439500  1
  Co  Co2  1  0.00101700  0.00131500  0.49867200  1
  Co  Co3  1  0.00599900  0.49973300  0.74922100  1
  Co  Co4  1  0.50404800  0.25941800  0.37105700  1
  O  O0  1  0.45182300  0.87519100  0.94679100  1
  O  O1  1  0.01103600  0.62348300  0.57281500  1
  O  O2  1  0.50110600  0.35811900  0.20586700  1
  O  O3  1  0.96758900  0.13129000  0.81940800  1
  O  O4  1  0.00227900  0.63853500  0.07153500  1
  O  O5  1  0.51632500  0.37566700  0.70126900  1
  O  O6  1  0.96780500  0.12302800  0.32296900  1
  O  O7  1  0.50554000  0.87480000  0.44798400  1
  O  O8  1  0.49576200  0.62761700  0.80230600  1
  O  O9  1  0.03252300  0.36229300  0.43364800  1
  O  O10  1  0.53189800  0.12569300  0.05162000  1
  O  O11  1  0.98715900  0.87933200  0.67661200  1
  O  O12  1  0.04574900  0.37559500  0.92897100  1
  O  O13  1  0.49175000  0.12900900  0.54456600  1
  O  O14  1  0.97849600  0.86317200  0.17363500  1
  O  O15  1  0.50248200  0.63413900  0.30127000  1
loop_
_geom_bond_atom_site_label_1
_geom_bond_atom_site_label_2
_geom_bond_distance
_geom_bond_site_symmetry_2
Li0 O4 2.067800 1_556
Li0 O0 2.091341 1_555
Li0 O8 2.095263 1_555
Li0 O11 2.109380 1_455
Li0 O8 2.196579 1_455
Li0 O0 2.218028 1_455
Li1 O15 2.049430 1_555
Li1 O1 2.130737 1_555
Li1 O9 2.146488 1_555
Li1 O9 2.206611 1_655
Li1 O5 2.236959 1_555
Li1 O1 2.261725 1_655
Li2 O2 2.060666 1_455
Li2 O6 2.087441 1_455
Li2 O2 2.110377 1_555
Li2 O12 2.129475 1_554
Li2 O10 2.156959 1_455
Li2 O10 2.181326 1_555
Li3 O11 2.063252 1_545
Li3 O0 2.125432 1_545
Li3 O13 2.161914 1_555
Li3 O3 2.175356 1_555
Li3 O11 2.184631 1_445
Li3 O3 2.217158 1_455
Li4 O12 2.074840 1_554
Li4 O8 2.167542 1_554
Li4 O4 2.181832 1_555
Li4 O2 2.185708 1_555
Li4 O12 2.222979 1_654
Li4 O4 2.307603 1_655
Li5 O9 1.994797 1_555
Li5 O3 2.074186 1_455
Li5 O13 2.111517 1_555
Li5 O5 2.113573 1_455
Li5 O13 2.233629 1_455
Li5 O5 2.249552 1_555
Li6 O6 2.042093 1_555
Li6 O7 2.076765 1_545
Li6 O6 2.142819 1_455
Li6 O10 2.150026 1_555
Li6 O14 2.214249 1_545
Li6 O14 2.416315 1_445
Li7 O15 2.036458 1_655
Li7 O15 2.054730 1_555
Li7 O1 2.087259 1_655
Li7 O14 2.120739 1_555
Li7 O7 2.156031 1_555
Li7 O7 2.300020 1_655
Li8 O9 1.996566 1_555
Li8 O15 2.057294 1_455
Li8 O4 2.057881 1_555
Li8 O15 2.091265 1_555
Li8 O2 2.141267 1_555
Li8 O2 2.270033 1_455
Mn0 O0 1.948281 1_645
Mn0 O10 1.956521 1_556
Mn0 O3 1.961325 1_555
Mn0 O14 1.994975 1_546
Mn0 O0 2.193781 1_545
Mn0 O10 2.209508 1_656
Mn1 O15 1.819683 1_555
Mn1 O4 1.950274 1_655
Mn1 O4 1.968498 1_555
Mn1 O14 2.012933 1_455
Mn1 O0 2.027374 1_554
Mn1 O14 2.034072 1_555
Co0 O7 1.931677 1_555
Co0 O8 1.932815 1_555
Co0 O1 2.066310 1_655
Co0 O11 2.083828 1_455
Co0 O1 2.094115 1_555
Co0 O11 2.109508 1_555
Co1 O5 1.899188 1_555
Co1 O3 1.932891 1_555
Co1 O10 1.945911 1_556
Co1 O12 1.954979 1_555
Co1 O3 2.188261 1_455
Co1 O12 2.190388 1_655
Co2 O6 1.914485 1_455
Co2 O11 1.932449 1_445
Co2 O13 2.046002 1_455
Co2 O7 2.046012 1_545
Co2 O13 2.083007 1_555
Co2 O7 2.103839 1_445
Co3 O1 1.926821 1_555
Co3 O12 1.957894 1_555
Co3 O5 2.033350 1_555
Co3 O5 2.064648 1_455
Co3 O8 2.075702 1_455
Co3 O8 2.109920 1_555
Co4 O2 1.739230 1_555
Co4 O9 1.883400 1_555
Co4 O13 1.933422 1_555
Co4 O6 2.016567 1_555
Co4 O9 2.082984 1_655
Co4 O6 2.247975 1_455
