# generated using pymatgen
data_Te5Pd21
_symmetry_space_group_name_H-M   'P 1'
_cell_length_a   8.88222142
_cell_length_b   8.88222142
_cell_length_c   8.88222142
_cell_angle_alpha   60.00000000
_cell_angle_beta   60.00000000
_cell_angle_gamma   60.00000000
_symmetry_Int_Tables_number   1
_chemical_formula_structural   Te5Pd21
_chemical_formula_sum   'Te5 Pd21'
_cell_volume   495.50699341
_cell_formula_units_Z   1
loop_
 _symmetry_equiv_pos_site_id
 _symmetry_equiv_pos_as_xyz
  1  'x, y, z'
loop_
 _atom_site_type_symbol
 _atom_site_label
 _atom_site_symmetry_multiplicity
 _atom_site_fract_x
 _atom_site_fract_y
 _atom_site_fract_z
 _atom_site_occupancy
  Te  Te0  1  0.25000000  0.25000000  0.25000000  1
  Te  Te1  1  0.62526600  0.62526600  0.12420300  1
  Te  Te2  1  0.62526600  0.12420300  0.62526600  1
  Te  Te3  1  0.12420300  0.62526600  0.62526600  1
  Te  Te4  1  0.62526600  0.62526600  0.62526600  1
  Pd  Pd0  1  0.37044600  0.37044600  0.88866100  1
  Pd  Pd1  1  0.37044600  0.88866100  0.37044600  1
  Pd  Pd2  1  0.88866100  0.37044600  0.37044600  1
  Pd  Pd3  1  0.37044600  0.37044600  0.37044600  1
  Pd  Pd4  1  0.87564300  0.87564300  0.37307100  1
  Pd  Pd5  1  0.87564300  0.37307100  0.87564300  1
  Pd  Pd6  1  0.37307100  0.87564300  0.87564300  1
  Pd  Pd7  1  0.87564300  0.87564300  0.87564300  1
  Pd  Pd8  1  0.24773800  0.24773800  0.75226200  1
  Pd  Pd9  1  0.75226200  0.24773800  0.75226200  1
  Pd  Pd10  1  0.24773800  0.75226200  0.75226200  1
  Pd  Pd11  1  0.75226200  0.75226200  0.24773800  1
  Pd  Pd12  1  0.24773800  0.75226200  0.24773800  1
  Pd  Pd13  1  0.75226200  0.24773800  0.24773800  1
  Pd  Pd14  1  0.99887500  0.99887500  0.50112500  1
  Pd  Pd15  1  0.50112500  0.99887500  0.50112500  1
  Pd  Pd16  1  0.99887500  0.50112500  0.50112500  1
  Pd  Pd17  1  0.50112500  0.50112500  0.99887500  1
  Pd  Pd18  1  0.99887500  0.50112500  0.99887500  1
  Pd  Pd19  1  0.50112500  0.99887500  0.99887500  1
  Pd  Pd20  1  0.00000000  0.00000000  0.00000000  1
loop_
_geom_bond_atom_site_label_1
_geom_bond_atom_site_label_2
_geom_bond_distance
_geom_bond_site_symmetry_2
Pd0 Te0 2.620540 1_556
Pd0 Pd19 2.696788 1_545
Pd0 Pd18 2.696788 1_455
Pd0 Pd17 2.696796 1_555
Pd0 Pd8 2.769928 1_555
Pd0 Pd10 2.769935 1_555
Pd0 Pd9 2.769935 1_555
Pd0 Te3 3.201779 1_555
Pd0 Te2 3.201779 1_555
Pd0 Te4 3.201791 1_555
Pd1 Te0 2.620540 1_565
Pd1 Pd19 2.696788 1_554
Pd1 Pd14 2.696788 1_455
Pd1 Pd15 2.696796 1_555
Pd1 Pd12 2.769928 1_555
Pd1 Pd10 2.769935 1_555
Pd1 Pd11 2.769935 1_555
Pd1 Te3 3.201779 1_555
Pd1 Te1 3.201779 1_555
Pd1 Te4 3.201791 1_555
Pd2 Te0 2.620540 1_655
Pd2 Pd9 2.769935 1_555
Pd2 Te1 3.201779 1_555
Pd2 Te2 3.201779 1_555
Pd2 Te4 3.201791 1_555
Pd3 Te0 2.620533 1_555
Pd3 Pd8 2.769936 1_555
Pd3 Te1 3.201792 1_555
Pd3 Te2 3.201792 1_555
Pd3 Te3 3.201792 1_555
Pd4 Te4 3.145117 1_555
Pd4 Te2 3.145123 1_565
Pd4 Te3 3.145123 1_655
Pd5 Pd9 2.698564 1_555
Pd5 Pd8 2.698564 1_655
Pd5 Te4 3.145117 1_555
Pd5 Te1 3.145123 1_556
Pd5 Te3 3.145123 1_655
Pd6 Pd8 2.698564 1_565
Pd6 Te4 3.145117 1_555
Pd6 Te2 3.145123 1_565
Pd6 Te1 3.145123 1_556
Pd7 Pd9 2.698564 1_565
Pd7 Te3 3.145117 1_655
Pd7 Te2 3.145117 1_565
Pd7 Te1 3.145117 1_556
Pd8 Te3 2.738005 1_555
Pd8 Te2 2.738005 1_555
Pd9 Te2 2.737998 1_555
Pd9 Te4 2.738005 1_555
Pd10 Pd6 2.698564 1_555
Pd10 Pd7 2.698564 1_455
Pd10 Te3 2.737998 1_555
Pd10 Te4 2.738005 1_555
Pd10 Pd20 3.111926 1_566
Pd10 Pd14 3.140500 1_455
Pd10 Pd17 3.140500 1_555
Pd10 Pd15 3.140500 1_555
Pd10 Pd18 3.140500 1_455
Pd11 Pd4 2.698564 1_555
Pd11 Pd7 2.698564 1_554
Pd11 Te1 2.737998 1_555
Pd11 Te4 2.738005 1_555
Pd11 Pd2 2.769935 1_555
Pd11 Pd20 3.111926 1_665
Pd11 Pd16 3.140500 1_555
Pd11 Pd18 3.140500 1_554
Pd11 Pd15 3.140500 1_555
Pd11 Pd19 3.140500 1_554
Pd12 Pd4 2.698564 1_455
Pd12 Pd6 2.698564 1_554
Pd12 Te3 2.738005 1_555
Pd12 Te1 2.738005 1_555
Pd12 Pd3 2.769936 1_555
Pd12 Pd20 3.111926 1_565
Pd12 Pd14 3.140500 1_455
Pd12 Pd19 3.140500 1_554
Pd12 Pd17 3.140500 1_554
Pd12 Pd16 3.140500 1_455
Pd13 Pd4 2.698564 1_545
Pd13 Pd5 2.698564 1_554
Pd13 Te1 2.738005 1_555
Pd13 Te2 2.738005 1_555
Pd13 Pd2 2.769928 1_555
Pd13 Pd3 2.769936 1_555
Pd13 Pd20 3.111926 1_655
Pd13 Pd15 3.140500 1_545
Pd13 Pd17 3.140500 1_554
Pd13 Pd18 3.140500 1_554
Pd13 Pd14 3.140500 1_545
Pd14 Pd2 2.696788 1_565
Pd14 Te3 2.709533 1_655
Pd14 Te2 2.709533 1_565
Pd14 Pd7 2.716231 1_555
Pd14 Pd4 2.716231 1_555
Pd14 Pd9 3.140500 1_565
Pd14 Te0 3.154471 1_665
Pd15 Pd3 2.696789 1_565
Pd15 Te4 2.709533 1_555
Pd15 Te2 2.709540 1_565
Pd15 Pd6 2.716231 1_555
Pd15 Pd4 2.716231 1_555
Pd15 Pd8 3.140500 1_565
Pd15 Te0 3.154471 1_565
Pd16 Pd3 2.696789 1_655
Pd16 Pd2 2.696796 1_555
Pd16 Te4 2.709533 1_555
Pd16 Te3 2.709540 1_655
Pd16 Pd4 2.716231 1_555
Pd16 Pd5 2.716231 1_555
Pd16 Pd9 3.140500 1_555
Pd16 Pd8 3.140500 1_655
Pd16 Te0 3.154471 1_655
Pd17 Pd3 2.696789 1_556
Pd17 Te4 2.709533 1_555
Pd17 Te1 2.709540 1_556
Pd17 Pd6 2.716231 1_555
Pd17 Pd5 2.716231 1_555
Pd17 Pd9 3.140500 1_555
Pd17 Te0 3.154471 1_556
Pd18 Pd2 2.696788 1_556
Pd18 Te3 2.709533 1_655
Pd18 Te1 2.709533 1_556
Pd18 Pd7 2.716231 1_555
Pd18 Pd5 2.716231 1_555
Pd18 Pd8 3.140500 1_655
Pd18 Te0 3.154471 1_656
Pd19 Te1 2.709533 1_556
Pd19 Te2 2.709533 1_565
Pd19 Pd7 2.716231 1_555
Pd19 Pd6 2.716231 1_555
Pd19 Pd9 3.140500 1_565
Pd19 Pd8 3.140500 1_565
Pd19 Te0 3.154471 1_566
Pd20 Pd5 2.705624 1_454
Pd20 Pd4 2.705624 1_445
Pd20 Pd6 2.705624 1_544
Pd20 Pd7 2.705624 1_444
Pd20 Pd8 3.111926 1_554
Pd20 Pd9 3.111926 1_454
