# generated using pymatgen
data_Ca(MnN)4
_symmetry_space_group_name_H-M   'P 1'
_cell_length_a   10.63026791
_cell_length_b   10.63026791
_cell_length_c   10.63026791
_cell_angle_alpha   90.00000000
_cell_angle_beta   90.00000000
_cell_angle_gamma   90.00000000
_symmetry_Int_Tables_number   1
_chemical_formula_structural   Ca(MnN)4
_chemical_formula_sum   'Ca12 Mn48 N48'
_cell_volume   1201.24786829
_cell_formula_units_Z   12
loop_
 _symmetry_equiv_pos_site_id
 _symmetry_equiv_pos_as_xyz
  1  'x, y, z'
loop_
 _atom_site_type_symbol
 _atom_site_label
 _atom_site_symmetry_multiplicity
 _atom_site_fract_x
 _atom_site_fract_y
 _atom_site_fract_z
 _atom_site_occupancy
  Ca  Ca0  1  0.28165260  0.71834740  0.21834740  1
  Ca  Ca1  1  0.71834740  0.21834740  0.28165260  1
  Ca  Ca2  1  0.21834740  0.28165260  0.71834740  1
  Ca  Ca3  1  0.78165260  0.78165260  0.78165260  1
  Ca  Ca4  1  0.71834740  0.28165260  0.78165260  1
  Ca  Ca5  1  0.28165260  0.78165260  0.71834740  1
  Ca  Ca6  1  0.78165260  0.71834740  0.28165260  1
  Ca  Ca7  1  0.21834740  0.21834740  0.21834740  1
  Ca  Ca8  1  0.50000000  -0.00000000  -0.00000000  1
  Ca  Ca9  1  0.50000000  0.50000000  0.50000000  1
  Ca  Ca10  1  -0.00000000  -0.00000000  0.50000000  1
  Ca  Ca11  1  -0.00000000  0.50000000  -0.00000000  1
  Mn  Mn0  1  0.39506060  0.72420931  0.96606358  1
  Mn  Mn1  1  0.60493940  0.22420931  0.53393642  1
  Mn  Mn2  1  0.10493940  0.27579069  0.46606358  1
  Mn  Mn3  1  0.89506060  0.77579069  0.03393642  1
  Mn  Mn4  1  0.96606358  0.39506060  0.72420931  1
  Mn  Mn5  1  0.53393642  0.60493940  0.22420931  1
  Mn  Mn6  1  0.46606358  0.10493940  0.27579069  1
  Mn  Mn7  1  0.03393642  0.89506060  0.77579069  1
  Mn  Mn8  1  0.72420931  0.96606358  0.39506060  1
  Mn  Mn9  1  0.22420931  0.53393642  0.60493940  1
  Mn  Mn10  1  0.27579069  0.46606358  0.10493940  1
  Mn  Mn11  1  0.77579069  0.03393642  0.89506060  1
  Mn  Mn12  1  0.60493940  0.27579069  0.03393642  1
  Mn  Mn13  1  0.39506060  0.77579069  0.46606358  1
  Mn  Mn14  1  0.89506060  0.72420931  0.53393642  1
  Mn  Mn15  1  0.10493940  0.22420931  0.96606358  1
  Mn  Mn16  1  0.03393642  0.60493940  0.27579069  1
  Mn  Mn17  1  0.46606358  0.39506060  0.77579069  1
  Mn  Mn18  1  0.53393642  0.89506060  0.72420931  1
  Mn  Mn19  1  0.96606358  0.10493940  0.22420931  1
  Mn  Mn20  1  0.27579069  0.03393642  0.60493940  1
  Mn  Mn21  1  0.77579069  0.46606358  0.39506060  1
  Mn  Mn22  1  0.72420931  0.53393642  0.89506060  1
  Mn  Mn23  1  0.22420931  0.96606358  0.10493940  1
  Mn  Mn24  1  0.25906556  0.98075235  0.36252006  1
  Mn  Mn25  1  0.74093444  0.48075235  0.13747994  1
  Mn  Mn26  1  0.24093444  0.01924765  0.86252006  1
  Mn  Mn27  1  0.75906556  0.51924765  0.63747994  1
  Mn  Mn28  1  0.36252006  0.25906556  0.98075235  1
  Mn  Mn29  1  0.13747994  0.74093444  0.48075235  1
  Mn  Mn30  1  0.86252006  0.24093444  0.01924765  1
  Mn  Mn31  1  0.63747994  0.75906556  0.51924765  1
  Mn  Mn32  1  0.98075235  0.36252006  0.25906556  1
  Mn  Mn33  1  0.48075235  0.13747994  0.74093444  1
  Mn  Mn34  1  0.01924765  0.86252006  0.24093444  1
  Mn  Mn35  1  0.51924765  0.63747994  0.75906556  1
  Mn  Mn36  1  0.74093444  0.01924765  0.63747994  1
  Mn  Mn37  1  0.25906556  0.51924765  0.86252006  1
  Mn  Mn38  1  0.75906556  0.98075235  0.13747994  1
  Mn  Mn39  1  0.24093444  0.48075235  0.36252006  1
  Mn  Mn40  1  0.63747994  0.74093444  0.01924765  1
  Mn  Mn41  1  0.86252006  0.25906556  0.51924765  1
  Mn  Mn42  1  0.13747994  0.75906556  0.98075235  1
  Mn  Mn43  1  0.36252006  0.24093444  0.48075235  1
  Mn  Mn44  1  0.01924765  0.63747994  0.74093444  1
  Mn  Mn45  1  0.51924765  0.86252006  0.25906556  1
  Mn  Mn46  1  0.98075235  0.13747994  0.75906556  1
  Mn  Mn47  1  0.48075235  0.36252006  0.24093444  1
  N  N0  1  0.48990572  0.75001187  0.11825832  1
  N  N1  1  0.51009428  0.25001187  0.38174168  1
  N  N2  1  0.01009428  0.24998813  0.61825832  1
  N  N3  1  0.98990572  0.74998813  0.88174168  1
  N  N4  1  0.11825832  0.48990572  0.75001187  1
  N  N5  1  0.38174168  0.51009428  0.25001187  1
  N  N6  1  0.61825832  0.01009428  0.24998813  1
  N  N7  1  0.88174168  0.98990572  0.74998813  1
  N  N8  1  0.75001187  0.11825832  0.48990572  1
  N  N9  1  0.25001187  0.38174168  0.51009428  1
  N  N10  1  0.24998813  0.61825832  0.01009428  1
  N  N11  1  0.74998813  0.88174168  0.98990572  1
  N  N12  1  0.51009428  0.24998813  0.88174168  1
  N  N13  1  0.48990572  0.74998813  0.61825832  1
  N  N14  1  0.98990572  0.75001187  0.38174168  1
  N  N15  1  0.01009428  0.25001187  0.11825832  1
  N  N16  1  0.88174168  0.51009428  0.24998813  1
  N  N17  1  0.61825832  0.48990572  0.74998813  1
  N  N18  1  0.38174168  0.98990572  0.75001187  1
  N  N19  1  0.11825832  0.01009428  0.25001187  1
  N  N20  1  0.24998813  0.88174168  0.51009428  1
  N  N21  1  0.74998813  0.61825832  0.48990572  1
  N  N22  1  0.75001187  0.38174168  0.98990572  1
  N  N23  1  0.25001187  0.11825832  0.01009428  1
  N  N24  1  0.04202925  0.72350302  0.13207570  1
  N  N25  1  0.95797075  0.22350302  0.36792430  1
  N  N26  1  0.45797075  0.27649698  0.63207570  1
  N  N27  1  0.54202925  0.77649698  0.86792430  1
  N  N28  1  0.13207570  0.04202925  0.72350302  1
  N  N29  1  0.36792430  0.95797075  0.22350302  1
  N  N30  1  0.63207570  0.45797075  0.27649698  1
  N  N31  1  0.86792430  0.54202925  0.77649698  1
  N  N32  1  0.72350302  0.13207570  0.04202925  1
  N  N33  1  0.22350302  0.36792430  0.95797075  1
  N  N34  1  0.27649698  0.63207570  0.45797075  1
  N  N35  1  0.77649698  0.86792430  0.54202925  1
  N  N36  1  0.95797075  0.27649698  0.86792430  1
  N  N37  1  0.04202925  0.77649698  0.63207570  1
  N  N38  1  0.54202925  0.72350302  0.36792430  1
  N  N39  1  0.45797075  0.22350302  0.13207570  1
  N  N40  1  0.86792430  0.95797075  0.27649698  1
  N  N41  1  0.63207570  0.04202925  0.77649698  1
  N  N42  1  0.36792430  0.54202925  0.72350302  1
  N  N43  1  0.13207570  0.45797075  0.22350302  1
  N  N44  1  0.27649698  0.86792430  0.95797075  1
  N  N45  1  0.77649698  0.63207570  0.04202925  1
  N  N46  1  0.72350302  0.36792430  0.54202925  1
  N  N47  1  0.22350302  0.13207570  0.45797075  1
loop_
_geom_bond_atom_site_label_1
_geom_bond_atom_site_label_2
_geom_bond_distance
_geom_bond_site_symmetry_2
Ca0 N10 2.479151 1_555
Ca0 N0 2.479151 1_555
Ca0 N5 2.479151 1_555
Ca0 N34 2.707877 1_555
Ca0 N24 2.707877 1_555
Ca0 N29 2.707877 1_555
Ca1 N6 2.479151 1_555
Ca1 N1 2.479151 1_555
Ca1 N8 2.479151 1_555
Ca1 N30 2.707877 1_555
Ca1 N32 2.707877 1_555
Ca1 N25 2.707877 1_555
Ca2 N2 2.479151 1_555
Ca2 N9 2.479151 1_555
Ca2 N4 2.479151 1_555
Ca2 N26 2.707877 1_555
Ca2 N28 2.707877 1_555
Ca2 N33 2.707877 1_555
Ca3 N7 2.479151 1_555
Ca3 N11 2.479151 1_555
Ca3 N3 2.479151 1_555
Ca3 N35 2.707877 1_555
Ca3 N27 2.707877 1_555
Ca3 N31 2.707877 1_555
Ca4 N17 2.479151 1_555
Ca4 N12 2.479151 1_555
Ca4 N22 2.479151 1_555
Ca4 N46 2.707877 1_555
Ca4 N41 2.707877 1_555
Ca4 N36 2.707877 1_555
Ca5 N13 2.479151 1_555
Ca5 N20 2.479151 1_555
Ca5 N18 2.479151 1_555
Ca5 N42 2.707877 1_555
Ca5 N37 2.707877 1_555
Ca5 N44 2.707877 1_555
Ca6 N21 2.479151 1_555
Ca6 N16 2.479151 1_555
Ca6 N14 2.479151 1_555
Ca6 N38 2.707877 1_555
Ca6 N45 2.707877 1_555
Ca6 N40 2.707877 1_555
Ca7 N15 2.479151 1_555
Ca7 N19 2.479151 1_555
Ca7 N23 2.479151 1_555
Ca7 N39 2.707877 1_555
Ca7 N43 2.707877 1_555
Ca7 N47 2.707877 1_555
Ca8 N32 2.795660 1_555
Ca8 N44 2.795660 1_544
Ca8 N39 2.795660 1_555
Ca8 N29 2.795660 1_545
Ca8 N41 2.795660 1_554
Ca8 N27 2.795660 1_544
Ca8 N11 2.941743 1_544
Ca8 N18 2.941743 1_544
Ca8 N0 2.941743 1_545
Ca8 N23 2.941743 1_555
Ca8 N6 2.941743 1_555
Ca8 N12 2.941743 1_554
Ca9 N42 2.795660 1_555
Ca9 N30 2.795660 1_555
Ca9 N34 2.795660 1_555
Ca9 N46 2.795660 1_555
Ca9 N26 2.795660 1_555
Ca9 N38 2.795660 1_555
Ca9 N9 2.941743 1_555
Ca9 N1 2.941743 1_555
Ca9 N21 2.941743 1_555
Ca9 N13 2.941743 1_555
Ca9 N5 2.941743 1_555
Ca9 N17 2.941743 1_555
Ca10 N47 2.795660 1_555
Ca10 N28 2.795660 1_555
Ca10 N25 2.795660 1_455
Ca10 N35 2.795660 1_445
Ca10 N37 2.795660 1_545
Ca10 N40 2.795660 1_445
Ca10 N14 2.941743 1_445
Ca10 N7 2.941743 1_445
Ca10 N19 2.941743 1_555
Ca10 N8 2.941743 1_455
Ca10 N2 2.941743 1_555
Ca10 N20 2.941743 1_545
Ca11 N43 2.795660 1_555
Ca11 N24 2.795660 1_555
Ca11 N45 2.795660 1_455
Ca11 N36 2.795660 1_454
Ca11 N33 2.795660 1_554
Ca11 N31 2.795660 1_454
Ca11 N22 2.941743 1_454
Ca11 N15 2.941743 1_555
Ca11 N4 2.941743 1_554
Ca11 N3 2.941743 1_454
Ca11 N10 2.941743 1_555
Ca11 N16 2.941743 1_455
Mn0 N0 1.925945 1_556
Mn0 N27 1.959118 1_555
Mn0 N10 1.966178 1_556
Mn0 N44 1.982390 1_555
Mn1 N1 1.925945 1_555
Mn1 N26 1.959118 1_555
Mn1 N8 1.966178 1_555
Mn1 N46 1.982390 1_555
Mn2 N2 1.925945 1_555
Mn2 N25 1.959118 1_455
Mn2 N9 1.966178 1_555
Mn2 N47 1.982390 1_555
Mn3 N3 1.925945 1_554
Mn3 N24 1.959118 1_655
Mn3 N11 1.966178 1_554
Mn3 N45 1.982390 1_555
Mn4 N4 1.925945 1_655
Mn4 N31 1.959118 1_555
Mn4 N2 1.966178 1_655
Mn4 N36 1.982390 1_555
Mn5 N5 1.925945 1_555
Mn5 N30 1.959118 1_555
Mn5 N0 1.966178 1_555
Mn5 N38 1.982390 1_555
Mn6 N6 1.925945 1_555
Mn6 N29 1.959118 1_545
Mn6 N1 1.966178 1_555
Mn6 N39 1.982390 1_555
Mn7 N7 1.925945 1_455
Mn7 N28 1.959118 1_565
Mn7 N3 1.966178 1_455
Mn7 N37 1.982390 1_555
Mn8 N8 1.925945 1_565
Mn8 N35 1.959118 1_555
Mn8 N6 1.966178 1_565
Mn8 N40 1.982390 1_555
Mn9 N9 1.925945 1_555
Mn9 N34 1.959118 1_555
Mn9 N4 1.966178 1_555
Mn9 N42 1.982390 1_555
Mn10 N10 1.925945 1_555
Mn10 N33 1.959118 1_554
Mn10 N5 1.966178 1_555
Mn10 N43 1.982390 1_555
Mn11 N11 1.925945 1_545
Mn11 N32 1.959118 1_556
Mn11 N7 1.966178 1_545
Mn11 N41 1.982390 1_555
Mn12 N12 1.925945 1_554
Mn12 N39 1.959118 1_555
Mn12 N22 1.966178 1_554
Mn12 N32 1.982390 1_555
Mn13 N13 1.925945 1_555
Mn13 N38 1.959118 1_555
Mn13 N20 1.966178 1_555
Mn13 N34 1.982390 1_555
Mn14 N14 1.925945 1_555
Mn14 N37 1.959118 1_655
Mn14 N21 1.966178 1_555
Mn14 N35 1.982390 1_555
Mn15 N15 1.925945 1_556
Mn15 N36 1.959118 1_455
Mn15 N23 1.966178 1_556
Mn15 N33 1.982390 1_555
Mn16 N16 1.925945 1_455
Mn16 N43 1.959118 1_555
Mn16 N14 1.966178 1_455
Mn16 N24 1.982390 1_555
Mn17 N17 1.925945 1_555
Mn17 N42 1.959118 1_555
Mn17 N12 1.966178 1_555
Mn17 N26 1.982390 1_555
Mn18 N18 1.925945 1_555
Mn18 N41 1.959118 1_565
Mn18 N13 1.966178 1_555
Mn18 N27 1.982390 1_555
Mn19 N19 1.925945 1_655
Mn19 N40 1.959118 1_545
Mn19 N15 1.966178 1_655
Mn19 N25 1.982390 1_555
Mn20 N20 1.925945 1_545
Mn20 N47 1.959118 1_555
Mn20 N18 1.966178 1_545
Mn20 N28 1.982390 1_555
Mn21 N21 1.925945 1_555
Mn21 N46 1.959118 1_555
Mn21 N16 1.966178 1_555
Mn21 N30 1.982390 1_555
Mn22 N22 1.925945 1_555
Mn22 N45 1.959118 1_556
Mn22 N17 1.966178 1_555
Mn22 N31 1.982390 1_555
Mn23 N23 1.925945 1_565
Mn23 N44 1.959118 1_554
Mn23 N19 1.966178 1_565
Mn23 N29 1.982390 1_555
Mn24 N20 1.891580 1_555
Mn24 N29 1.892515 1_555
Mn24 N47 1.939093 1_565
Mn24 N19 1.941173 1_565
Mn25 N22 1.891580 1_554
Mn25 N30 1.892515 1_555
Mn25 N45 1.939093 1_555
Mn25 N16 1.941173 1_555
Mn26 N23 1.891580 1_556
Mn26 N28 1.892515 1_555
Mn26 N44 1.939093 1_545
Mn26 N18 1.941173 1_545
Mn27 N21 1.891580 1_555
Mn27 N31 1.892515 1_555
Mn27 N46 1.939093 1_555
Mn27 N17 1.941173 1_555
Mn28 N12 1.891580 1_555
Mn28 N33 1.892515 1_555
Mn28 N39 1.939093 1_556
Mn28 N23 1.941173 1_556
Mn29 N14 1.891580 1_455
Mn29 N34 1.892515 1_555
Mn29 N37 1.939093 1_555
Mn29 N20 1.941173 1_555
Mn30 N15 1.891580 1_655
Mn30 N32 1.892515 1_555
Mn30 N36 1.939093 1_554
Mn30 N22 1.941173 1_554
Mn31 N13 1.891580 1_555
Mn31 N35 1.892515 1_555
Mn31 N38 1.939093 1_555
Mn31 N21 1.941173 1_555
Mn32 N16 1.891580 1_555
Mn32 N25 1.892515 1_555
Mn32 N43 1.939093 1_655
Mn32 N15 1.941173 1_655
Mn33 N18 1.891580 1_545
Mn33 N26 1.892515 1_555
Mn33 N41 1.939093 1_555
Mn33 N12 1.941173 1_555
Mn34 N19 1.891580 1_565
Mn34 N24 1.892515 1_555
Mn34 N40 1.939093 1_455
Mn34 N14 1.941173 1_455
Mn35 N17 1.891580 1_555
Mn35 N27 1.892515 1_555
Mn35 N42 1.939093 1_555
Mn35 N13 1.941173 1_555
Mn36 N8 1.891580 1_555
Mn36 N41 1.892515 1_555
Mn36 N35 1.939093 1_545
Mn36 N7 1.941173 1_545
Mn37 N10 1.891580 1_556
Mn37 N42 1.892515 1_555
Mn37 N33 1.939093 1_555
Mn37 N4 1.941173 1_555
Mn38 N11 1.891580 1_554
Mn38 N40 1.892515 1_555
Mn38 N32 1.939093 1_565
Mn38 N6 1.941173 1_565
Mn39 N9 1.891580 1_555
Mn39 N43 1.892515 1_555
Mn39 N34 1.939093 1_555
Mn39 N5 1.941173 1_555
Mn40 N0 1.891580 1_555
Mn40 N45 1.892515 1_555
Mn40 N27 1.939093 1_554
Mn40 N11 1.941173 1_554
Mn41 N2 1.891580 1_655
Mn41 N46 1.892515 1_555
Mn41 N25 1.939093 1_555
Mn41 N8 1.941173 1_555
Mn42 N3 1.891580 1_455
Mn42 N44 1.892515 1_555
Mn42 N24 1.939093 1_556
Mn42 N10 1.941173 1_556
Mn43 N1 1.891580 1_555
Mn43 N47 1.892515 1_555
Mn43 N26 1.939093 1_555
Mn43 N9 1.941173 1_555
Mn44 N4 1.891580 1_555
Mn44 N37 1.892515 1_555
Mn44 N31 1.939093 1_455
Mn44 N3 1.941173 1_455
Mn45 N6 1.891580 1_565
Mn45 N38 1.892515 1_555
Mn45 N29 1.939093 1_555
Mn45 N0 1.941173 1_555
Mn46 N7 1.891580 1_545
Mn46 N36 1.892515 1_555
Mn46 N28 1.939093 1_655
Mn46 N2 1.941173 1_655
Mn47 N5 1.891580 1_555
Mn47 N39 1.892515 1_555
Mn47 N30 1.939093 1_555
Mn47 N1 1.941173 1_555
