# generated using pymatgen
data_V2As3N2O17
_symmetry_space_group_name_H-M   'P 1'
_cell_length_a   11.24274985
_cell_length_b   11.24274985
_cell_length_c   9.99427529
_cell_angle_alpha   66.52782152
_cell_angle_beta   66.52782152
_cell_angle_gamma   103.45105388
_symmetry_Int_Tables_number   1
_chemical_formula_structural   V2As3N2O17
_chemical_formula_sum   'V4 As6 N4 O34'
_cell_volume   940.93910567
_cell_formula_units_Z   2
loop_
 _symmetry_equiv_pos_site_id
 _symmetry_equiv_pos_as_xyz
  1  'x, y, z'
loop_
 _atom_site_type_symbol
 _atom_site_label
 _atom_site_symmetry_multiplicity
 _atom_site_fract_x
 _atom_site_fract_y
 _atom_site_fract_z
 _atom_site_occupancy
  V  V0  1  0.60953900  0.42341800  0.22428100  1
  V  V1  1  0.42341800  0.60953900  0.22428100  1
  V  V2  1  0.39046100  0.57658200  0.77571900  1
  V  V3  1  0.57658200  0.39046100  0.77571900  1
  As  As0  1  0.34723600  0.34723600  0.67376000  1
  As  As1  1  0.65276400  0.65276400  0.32624000  1
  As  As2  1  0.72050100  0.27949900  0.50000000  1
  As  As3  1  0.27949900  0.72050100  0.50000000  1
  As  As4  1  0.73603500  0.73603500  0.63199400  1
  As  As5  1  0.26396500  0.26396500  0.36800600  1
  N  N0  1  0.94070400  0.38093600  0.77276800  1
  N  N1  1  0.38093600  0.94070400  0.77276800  1
  N  N2  1  0.05929600  0.61906400  0.22723200  1
  N  N3  1  0.61906400  0.05929600  0.22723200  1
  O  O0  1  0.86646700  0.86646700  0.60093500  1
  O  O1  1  0.13353300  0.13353300  0.39906500  1
  O  O2  1  0.14846800  0.14846800  0.65867900  1
  O  O3  1  0.85153200  0.85153200  0.34132100  1
  O  O4  1  0.17242500  0.17242500  0.76710600  1
  O  O5  1  0.82757500  0.82757500  0.23289400  1
  O  O6  1  0.01765800  0.68194700  0.77431900  1
  O  O7  1  0.68194700  0.01765800  0.77431900  1
  O  O8  1  0.98234200  0.31805300  0.22568100  1
  O  O9  1  0.31805300  0.98234200  0.22568100  1
  O  O10  1  0.42505500  0.42505500  0.45589700  1
  O  O11  1  0.57494500  0.57494500  0.54410300  1
  O  O12  1  0.44246700  0.44246700  0.88169200  1
  O  O13  1  0.55753300  0.55753300  0.11830800  1
  O  O14  1  0.26122200  0.42337600  0.77087400  1
  O  O15  1  0.42337600  0.26122200  0.77087400  1
  O  O16  1  0.73877800  0.57662400  0.22912600  1
  O  O17  1  0.57662400  0.73877800  0.22912600  1
  O  O18  1  0.71508300  0.38819100  0.58155200  1
  O  O19  1  0.38819100  0.71508300  0.58155200  1
  O  O20  1  0.28491700  0.61180900  0.41844800  1
  O  O21  1  0.61180900  0.28491700  0.41844800  1
  O  O22  1  0.73564600  0.56910300  0.69741400  1
  O  O23  1  0.56910300  0.73564600  0.69741400  1
  O  O24  1  0.26435400  0.43089700  0.30258600  1
  O  O25  1  0.43089700  0.26435400  0.30258600  1
  O  O26  1  0.26858500  0.57220700  0.93465400  1
  O  O27  1  0.57220700  0.26858500  0.93465400  1
  O  O28  1  0.73141500  0.42779300  0.06534600  1
  O  O29  1  0.42779300  0.73141500  0.06534600  1
  O  O30  1  0.05551400  0.77086300  0.80998700  1
  O  O31  1  0.77086300  0.05551400  0.80998700  1
  O  O32  1  0.94448600  0.22913700  0.19001300  1
  O  O33  1  0.22913700  0.94448600  0.19001300  1
loop_
_geom_bond_atom_site_label_1
_geom_bond_atom_site_label_2
_geom_bond_distance
_geom_bond_site_symmetry_2
As0 O10 1.697270 1_555
As0 O15 1.705653 1_555
As0 O14 1.705653 1_555
As0 O4 1.969108 1_555
As1 O11 1.697270 1_555
As1 O17 1.705653 1_555
As1 O16 1.705653 1_555
As1 O5 1.969108 1_555
As2 O18 1.717496 1_555
As2 O21 1.717496 1_555
As3 O19 1.717496 1_555
As3 O20 1.717496 1_555
As4 O0 1.634461 1_555
As4 O23 1.722263 1_555
As4 O22 1.722263 1_555
As4 O3 2.239914 1_555
As5 O1 1.634461 1_555
As5 O24 1.722263 1_555
As5 O25 1.722263 1_555
As5 O2 2.239914 1_555
O2 O4 1.323122 1_555
O3 O5 1.323122 1_555
O10 V1 2.426465 1_555
O10 V0 2.426465 1_555
O11 V2 2.426465 1_555
O11 V3 2.426465 1_555
O12 V2 1.835328 1_555
O12 V3 1.835328 1_555
O13 V1 1.835328 1_555
O13 V0 1.835328 1_555
O14 V2 2.009617 1_555
O15 V3 2.009617 1_555
O16 V0 2.009617 1_555
O17 V1 2.009617 1_555
O18 V3 1.960078 1_555
O19 V2 1.960078 1_555
O20 V1 1.960078 1_555
O21 V0 1.960078 1_555
O22 V3 1.950991 1_555
O23 V2 1.950991 1_555
O24 V1 1.950991 1_555
O25 V0 1.950991 1_555
O26 V2 1.604882 1_555
O27 V3 1.604882 1_555
O28 V0 1.604882 1_555
O29 V1 1.604882 1_555
O30 O6 1.230583 1_555
O31 O7 1.230583 1_555
O32 O8 1.230583 1_555
O33 O9 1.230583 1_555
