# generated using pymatgen
data_Li2Hf2O5
_symmetry_space_group_name_H-M   'P 1'
_cell_length_a   5.60058796
_cell_length_b   5.60058796
_cell_length_c   7.58457172
_cell_angle_alpha   70.38327143
_cell_angle_beta   70.38327143
_cell_angle_gamma   70.83689890
_symmetry_Int_Tables_number   1
_chemical_formula_structural   Li2Hf2O5
_chemical_formula_sum   'Li4 Hf4 O10'
_cell_volume   204.76439505
_cell_formula_units_Z   2
loop_
 _symmetry_equiv_pos_site_id
 _symmetry_equiv_pos_as_xyz
  1  'x, y, z'
loop_
 _atom_site_type_symbol
 _atom_site_label
 _atom_site_symmetry_multiplicity
 _atom_site_fract_x
 _atom_site_fract_y
 _atom_site_fract_z
 _atom_site_occupancy
  Li  Li0  1  0.78760000  0.18272300  0.45917500  1
  Li  Li1  1  0.18272300  0.78760000  0.95917500  1
  Li  Li2  1  0.81727700  0.21240000  0.04082500  1
  Li  Li3  1  0.21240000  0.81727700  0.54082500  1
  Hf  Hf0  1  0.22335800  0.28036500  0.61836800  1
  Hf  Hf1  1  0.28036500  0.22335800  0.11836800  1
  Hf  Hf2  1  0.71963500  0.77664200  0.88163200  1
  Hf  Hf3  1  0.77664200  0.71963500  0.38163200  1
  O  O0  1  0.00000000  0.50000000  0.00000000  1
  O  O1  1  0.92179600  0.63223400  0.63144800  1
  O  O2  1  0.63223400  0.92179600  0.13144800  1
  O  O3  1  0.97317800  0.02682200  0.75000000  1
  O  O4  1  0.50000000  0.50000000  0.50000000  1
  O  O5  1  0.02682200  0.97317800  0.25000000  1
  O  O6  1  0.50000000  0.50000000  0.00000000  1
  O  O7  1  0.36776600  0.07820400  0.86855200  1
  O  O8  1  0.07820400  0.36776600  0.36855200  1
  O  O9  1  0.50000000  0.00000000  0.50000000  1
loop_
_geom_bond_atom_site_label_1
_geom_bond_atom_site_label_2
_geom_bond_distance
_geom_bond_site_symmetry_2
Li0 O4 2.000832 1_555
Li0 O8 2.018244 1_655
Li0 O9 2.066907 1_555
Li0 O5 2.116594 1_645
Li0 O3 2.521601 1_555
Li1 O6 2.000832 1_556
Li1 O7 2.018244 1_565
Li1 O0 2.066907 1_556
Li1 O3 2.116594 1_465
Li1 O5 2.521601 1_556
Li2 O6 2.000832 1_555
Li2 O2 2.018244 1_545
Li2 O0 2.066907 1_655
Li2 O5 2.116594 1_645
Li2 O3 2.521601 1_554
Li3 O4 2.000832 1_555
Li3 O1 2.018244 1_455
Li3 O9 2.066907 1_565
Li3 O3 2.116594 1_465
Li3 O5 2.521601 1_555
Hf0 O9 2.021742 1_555
Hf0 O4 2.072523 1_555
Hf0 O3 2.095565 1_455
Hf0 O7 2.126828 1_555
Hf0 O1 2.139984 1_455
Hf0 O8 2.154255 1_555
Hf1 O0 2.021742 1_555
Hf1 O6 2.072523 1_555
Hf1 O5 2.095565 1_545
Hf1 O8 2.126828 1_555
Hf1 O2 2.139984 1_545
Hf1 O7 2.154255 1_554
Hf2 O0 2.021742 1_656
Hf2 O6 2.072523 1_556
Hf2 O3 2.095565 1_565
Hf2 O1 2.126828 1_555
Hf2 O7 2.139984 1_565
Hf2 O2 2.154255 1_556
Hf3 O9 2.021742 1_565
Hf3 O4 2.072523 1_555
Hf3 O5 2.095565 1_655
Hf3 O2 2.126828 1_555
Hf3 O8 2.139984 1_655
Hf3 O1 2.154255 1_555
