# generated using pymatgen
data_Nd3NiGe2
_symmetry_space_group_name_H-M   'P 1'
_cell_length_a   4.26933568
_cell_length_b   11.75780332
_cell_length_c   11.79751175
_cell_angle_alpha   89.99916146
_cell_angle_beta   89.99999469
_cell_angle_gamma   90.00000355
_symmetry_Int_Tables_number   1
_chemical_formula_structural   Nd3NiGe2
_chemical_formula_sum   'Nd12 Ni4 Ge8'
_cell_volume   592.21160372
_cell_formula_units_Z   4
loop_
 _symmetry_equiv_pos_site_id
 _symmetry_equiv_pos_as_xyz
  1  'x, y, z'
loop_
 _atom_site_type_symbol
 _atom_site_label
 _atom_site_symmetry_multiplicity
 _atom_site_fract_x
 _atom_site_fract_y
 _atom_site_fract_z
 _atom_site_occupancy
  Nd  Nd0  1  0.25000207  0.37209459  0.06053917  1
  Nd  Nd1  1  0.74999924  0.62792317  0.93944771  1
  Nd  Nd2  1  0.75000043  0.87207999  0.43945286  1
  Nd  Nd3  1  0.24999952  0.12793215  0.56055423  1
  Nd  Nd4  1  0.25000011  0.69573112  0.21679534  1
  Nd  Nd5  1  0.74999978  0.30427079  0.78319724  1
  Nd  Nd6  1  0.75000032  0.19574046  0.28321206  1
  Nd  Nd7  1  0.24999961  0.80426856  0.71679876  1
  Nd  Nd8  1  0.24999979  0.44363963  0.38270265  1
  Nd  Nd9  1  0.75000008  0.55634687  0.61732307  1
  Nd  Nd10  1  0.74999973  0.94363654  0.11729962  1
  Nd  Nd11  1  0.24999990  0.05635121  0.88267785  1
  Ni  Ni0  1  0.25000041  0.13320427  0.12853868  1
  Ni  Ni1  1  0.74999864  0.86678643  0.87140487  1
  Ni  Ni2  1  0.75000214  0.63318078  0.37145991  1
  Ni  Ni3  1  0.24999935  0.36679874  0.62859749  1
  Ge  Ge0  1  0.25000045  0.68737175  0.47566418  1
  Ge  Ge1  1  0.74999973  0.31262241  0.52442258  1
  Ge  Ge2  1  0.75000051  0.18738734  0.02433631  1
  Ge  Ge3  1  0.24999920  0.81261188  0.97557967  1
  Ge  Ge4  1  0.24999992  0.00666512  0.30292740  1
  Ge  Ge5  1  0.74999965  0.99335349  0.69710494  1
  Ge  Ge6  1  0.74999987  0.50665864  0.19707030  1
  Ge  Ge7  1  0.24999958  0.49334708  0.80289412  1
loop_
_geom_bond_atom_site_label_1
_geom_bond_atom_site_label_2
_geom_bond_distance
_geom_bond_site_symmetry_2
Nd0 Ni0 2.921130 1_555
Nd1 Ni1 2.920964 1_555
Nd2 Ni2 2.921232 1_555
Nd3 Ni3 2.921026 1_555
Nd4 Ni2 2.902929 1_455
Nd4 Ni2 2.902942 1_555
Nd5 Ni3 2.902387 1_655
Nd5 Ni3 2.902390 1_555
Nd6 Ni0 2.902972 1_555
Nd6 Ni0 2.902972 1_655
Nd7 Ni1 2.902416 1_555
Nd7 Ni1 2.902422 1_455
Nd8 Ni3 3.038370 1_555
Nd8 Ni2 3.088843 1_455
Nd8 Ni2 3.088857 1_555
Nd9 Ni2 3.037989 1_555
Nd9 Ni3 3.088923 1_655
Nd9 Ni3 3.088927 1_555
Nd10 Ni1 3.038427 1_554
Nd10 Ni0 3.089074 1_565
Nd10 Ni0 3.089078 1_665
Nd11 Ni0 3.038055 1_556
Nd11 Ni1 3.089065 1_545
Nd11 Ni1 3.089072 1_445
Ge0 Ni2 2.544422 1_455
Ge0 Ni2 2.544434 1_555
Ge0 Nd4 3.055588 1_555
Ge0 Nd8 3.068456 1_555
Ge0 Nd2 3.075034 1_555
Ge0 Nd2 3.075035 1_455
Ge0 Nd9 3.118181 1_555
Ge0 Nd9 3.118182 1_455
Ge0 Nd7 3.159438 1_555
Ge1 Ni3 2.544217 1_655
Ge1 Ni3 2.544219 1_555
Ge1 Nd5 3.054475 1_555
Ge1 Nd9 3.068115 1_555
Ge1 Nd3 3.074754 1_655
Ge1 Nd3 3.074755 1_555
Ge1 Nd8 3.118523 1_555
Ge1 Nd8 3.118523 1_655
Ge1 Nd6 3.160168 1_555
Ge2 Ni0 2.544385 1_655
Ge2 Ni0 2.544385 1_555
Ge2 Nd6 3.055670 1_555
Ge2 Nd10 3.068639 1_545
Ge2 Nd0 3.075017 1_555
Ge2 Nd0 3.075026 1_655
Ge2 Nd11 3.118266 1_654
Ge2 Nd11 3.118270 1_554
Ge2 Nd5 3.159381 1_554
Ge3 Ni1 2.544201 1_555
Ge3 Ni1 2.544205 1_455
Ge3 Nd7 3.054548 1_555
Ge3 Nd11 3.068254 1_565
Ge3 Nd1 3.074751 1_455
Ge3 Nd1 3.074751 1_555
Ge3 Nd10 3.118589 1_456
Ge3 Nd10 3.118592 1_556
Ge3 Nd4 3.160181 1_556
Ge4 Ni0 2.538942 1_555
Ge4 Nd6 3.090810 1_455
Ge4 Nd6 3.090812 1_555
Ge4 Nd2 3.107253 1_445
Ge4 Nd2 3.107256 1_545
Ge4 Nd10 3.146730 1_545
Ge4 Nd10 3.146731 1_445
Ge4 Nd3 3.357203 1_555
Ge4 Nd4 3.794505 1_545
Ge5 Ni1 2.538286 1_555
Ge5 Nd7 3.090873 1_655
Ge5 Nd7 3.090873 1_555
Ge5 Nd3 3.107370 1_665
Ge5 Nd3 3.107371 1_565
Ge5 Nd11 3.146194 1_565
Ge5 Nd11 3.146196 1_665
Ge5 Nd2 3.357505 1_555
Ge5 Nd5 3.794190 1_565
Ge6 Ni2 2.538869 1_555
Ge6 Nd4 3.090800 1_555
Ge6 Nd4 3.090801 1_655
Ge6 Nd0 3.107181 1_555
Ge6 Nd0 3.107193 1_655
Ge6 Nd8 3.146726 1_655
Ge6 Nd8 3.146727 1_555
Ge6 Nd1 3.357107 1_554
Ge6 Nd6 3.794328 1_555
Ge7 Ni3 2.538161 1_555
Ge7 Nd5 3.090807 1_455
Ge7 Nd5 3.090808 1_555
Ge7 Nd1 3.107395 1_555
Ge7 Nd1 3.107397 1_455
Ge7 Nd9 3.146169 1_455
Ge7 Nd9 3.146171 1_555
Ge7 Nd0 3.357287 1_556
Ge7 Nd7 3.794219 1_555
