# generated using pymatgen
data_Ti4CuAg
_symmetry_space_group_name_H-M   'P 1'
_cell_length_a   5.86758934
_cell_length_b   5.86758934
_cell_length_c   22.50902020
_cell_angle_alpha   90.00000000
_cell_angle_beta   90.00000000
_cell_angle_gamma   90.00000000
_symmetry_Int_Tables_number   1
_chemical_formula_structural   Ti4CuAg
_chemical_formula_sum   'Ti32 Cu8 Ag8'
_cell_volume   774.95415781
_cell_formula_units_Z   8
loop_
 _symmetry_equiv_pos_site_id
 _symmetry_equiv_pos_as_xyz
  1  'x, y, z'
loop_
 _atom_site_type_symbol
 _atom_site_label
 _atom_site_symmetry_multiplicity
 _atom_site_fract_x
 _atom_site_fract_y
 _atom_site_fract_z
 _atom_site_occupancy
  Ti  Ti0_0  1  0.25000000  0.25000000  0.09048599  1
  Ti  Ti0_1  1  0.25000000  0.25000000  0.59048599  1
  Ti  Ti0_2  1  0.25000000  0.75000000  0.09048599  1
  Ti  Ti0_3  1  0.25000000  0.75000000  0.59048599  1
  Ti  Ti0_4  1  0.75000000  0.25000000  0.09048599  1
  Ti  Ti0_5  1  0.75000000  0.25000000  0.59048599  1
  Ti  Ti0_6  1  0.75000000  0.75000000  0.09048599  1
  Ti  Ti0_7  1  0.75000000  0.75000000  0.59048599  1
  Ti  Ti1_0  1  0.00000000  0.00000000  0.32622683  1
  Ti  Ti1_1  1  0.00000000  0.00000000  0.82622684  1
  Ti  Ti1_2  1  0.00000000  0.50000000  0.32622683  1
  Ti  Ti1_3  1  0.00000000  0.50000000  0.82622684  1
  Ti  Ti1_4  1  0.50000000  0.00000000  0.32622683  1
  Ti  Ti1_5  1  0.50000000  0.00000000  0.82622684  1
  Ti  Ti1_6  1  0.50000000  0.50000000  0.32622683  1
  Ti  Ti1_7  1  0.50000000  0.50000000  0.82622684  1
  Ti  Ti2_0  1  0.00000000  0.00000000  0.17377317  1
  Ti  Ti2_1  1  0.00000000  0.00000000  0.67377317  1
  Ti  Ti2_2  1  0.00000000  0.50000000  0.17377317  1
  Ti  Ti2_3  1  0.00000000  0.50000000  0.67377317  1
  Ti  Ti2_4  1  0.50000000  0.00000000  0.17377317  1
  Ti  Ti2_5  1  0.50000000  0.00000000  0.67377317  1
  Ti  Ti2_6  1  0.50000000  0.50000000  0.17377317  1
  Ti  Ti2_7  1  0.50000000  0.50000000  0.67377317  1
  Ti  Ti3_0  1  0.25000000  0.25000000  0.40951401  1
  Ti  Ti3_1  1  0.25000000  0.25000000  0.90951401  1
  Ti  Ti3_2  1  0.25000000  0.75000000  0.40951401  1
  Ti  Ti3_3  1  0.25000000  0.75000000  0.90951401  1
  Ti  Ti3_4  1  0.75000000  0.25000000  0.40951401  1
  Ti  Ti3_5  1  0.75000000  0.25000000  0.90951401  1
  Ti  Ti3_6  1  0.75000000  0.75000000  0.40951401  1
  Ti  Ti3_7  1  0.75000000  0.75000000  0.90951401  1
  Cu  Cu0_0  1  0.25000000  0.25000000  0.25000000  1
  Cu  Cu0_1  1  0.25000000  0.25000000  0.75000000  1
  Cu  Cu0_2  1  0.25000000  0.75000000  0.25000000  1
  Cu  Cu0_3  1  0.25000000  0.75000000  0.75000000  1
  Cu  Cu0_4  1  0.75000000  0.25000000  0.25000000  1
  Cu  Cu0_5  1  0.75000000  0.25000000  0.75000000  1
  Cu  Cu0_6  1  0.75000000  0.75000000  0.25000000  1
  Cu  Cu0_7  1  0.75000000  0.75000000  0.75000000  1
  Ag  Ag0_0  1  0.00000000  0.00000000  0.00000000  1
  Ag  Ag0_1  1  0.00000000  0.00000000  0.50000000  1
  Ag  Ag0_2  1  0.00000000  0.50000000  0.00000000  1
  Ag  Ag0_3  1  0.00000000  0.50000000  0.50000000  1
  Ag  Ag0_4  1  0.50000000  0.00000000  0.00000000  1
  Ag  Ag0_5  1  0.50000000  0.00000000  0.50000000  1
  Ag  Ag0_6  1  0.50000000  0.50000000  0.00000000  1
  Ag  Ag0_7  1  0.50000000  0.50000000  0.50000000  1
loop_
_geom_bond_atom_site_label_1
_geom_bond_atom_site_label_2
_geom_bond_distance
_geom_bond_site_symmetry_2
Ti0_0 Ti2_4 2.796091 1_555
Ti0_0 Ti2_2 2.796091 1_555
Ti0_0 Ti2_0 2.796091 1_555
Ti0_0 Ti2_6 2.796091 1_555
Ti0_0 Ti0_2 2.933795 1_555
Ti0_0 Ti0_4 2.933795 1_555
Ti0_0 Ti0_2 2.933795 1_545
Ti0_0 Ti0_4 2.933795 1_455
Ti0_1 Ti2_3 2.796091 1_555
Ti0_1 Ti2_1 2.796091 1_555
Ti0_1 Ti2_7 2.796091 1_555
Ti0_1 Ti2_5 2.796091 1_555
Ti0_1 Ti0_5 2.933795 1_555
Ti0_1 Ti0_3 2.933795 1_555
Ti0_1 Ti0_3 2.933795 1_545
Ti0_1 Ti0_5 2.933795 1_455
Ti0_2 Ti2_2 2.796091 1_555
Ti0_2 Ti2_6 2.796091 1_555
Ti0_2 Ti2_0 2.796091 1_565
Ti0_2 Ti2_4 2.796091 1_565
Ti0_2 Ti0_6 2.933795 1_555
Ti0_2 Ti0_6 2.933795 1_455
Ti0_3 Ti2_7 2.796091 1_555
Ti0_3 Ti2_3 2.796091 1_555
Ti0_3 Ti2_5 2.796091 1_565
Ti0_3 Ti2_1 2.796091 1_565
Ti0_3 Ti0_7 2.933795 1_555
Ti0_3 Ti0_7 2.933795 1_455
Ti0_4 Ti2_6 2.796091 1_555
Ti0_4 Ti2_4 2.796091 1_555
Ti0_4 Ti2_2 2.796091 1_655
Ti0_4 Ti2_0 2.796091 1_655
Ti0_4 Ti0_6 2.933795 1_555
Ti0_4 Ti0_6 2.933795 1_545
Ti0_5 Ti2_7 2.796091 1_555
Ti0_5 Ti2_5 2.796091 1_555
Ti0_5 Ti2_3 2.796091 1_655
Ti0_5 Ti2_1 2.796091 1_655
Ti0_5 Ti0_7 2.933795 1_555
Ti0_5 Ti0_7 2.933795 1_545
Ti0_6 Ti2_6 2.796091 1_555
Ti0_6 Ti2_2 2.796091 1_655
Ti0_6 Ti2_4 2.796091 1_565
Ti0_6 Ti2_0 2.796091 1_665
Ti0_7 Ti2_7 2.796091 1_555
Ti0_7 Ti2_5 2.796091 1_565
Ti0_7 Ti2_3 2.796091 1_655
Ti0_7 Ti2_1 2.796091 1_665
Ti1_0 Ti3_0 2.796091 1_555
Ti1_0 Ti3_4 2.796091 1_455
Ti1_0 Ti3_2 2.796091 1_545
Ti1_0 Ti3_6 2.796091 1_445
Ti1_1 Ti3_1 2.796091 1_555
Ti1_1 Ti3_7 2.796091 1_445
Ti1_1 Ti3_3 2.796091 1_545
Ti1_1 Ti3_5 2.796091 1_455
Ti1_2 Ti3_2 2.796091 1_555
Ti1_2 Ti3_0 2.796091 1_555
Ti1_2 Ti3_6 2.796091 1_455
Ti1_2 Ti3_4 2.796091 1_455
Ti1_3 Ti3_3 2.796091 1_555
Ti1_3 Ti3_1 2.796091 1_555
Ti1_3 Ti3_7 2.796091 1_455
Ti1_3 Ti3_5 2.796091 1_455
Ti1_4 Ti3_4 2.796091 1_555
Ti1_4 Ti3_0 2.796091 1_555
Ti1_4 Ti3_6 2.796091 1_545
Ti1_4 Ti3_2 2.796091 1_545
Ti1_5 Ti3_5 2.796091 1_555
Ti1_5 Ti3_1 2.796091 1_555
Ti1_5 Ti3_7 2.796091 1_545
Ti1_5 Ti3_3 2.796091 1_545
Ti1_6 Ti3_6 2.796091 1_555
Ti1_6 Ti3_4 2.796091 1_555
Ti1_6 Ti3_2 2.796091 1_555
Ti1_6 Ti3_0 2.796091 1_555
Ti1_7 Ti3_5 2.796091 1_555
Ti1_7 Ti3_3 2.796091 1_555
Ti1_7 Ti3_7 2.796091 1_555
Ti1_7 Ti3_1 2.796091 1_555
Ti3_0 Ti3_4 2.933795 1_555
Ti3_0 Ti3_2 2.933795 1_555
Ti3_0 Ti3_4 2.933795 1_455
Ti3_0 Ti3_2 2.933795 1_545
Ti3_1 Ti3_3 2.933795 1_555
Ti3_1 Ti3_5 2.933795 1_555
Ti3_1 Ti3_3 2.933795 1_545
Ti3_1 Ti3_5 2.933795 1_455
Ti3_2 Ti3_6 2.933795 1_555
Ti3_2 Ti3_6 2.933795 1_455
Ti3_3 Ti3_7 2.933795 1_555
Ti3_3 Ti3_7 2.933795 1_455
Ti3_4 Ti3_6 2.933795 1_555
Ti3_4 Ti3_6 2.933795 1_545
Ti3_5 Ti3_7 2.933795 1_555
Ti3_5 Ti3_7 2.933795 1_545
Cu0_0 Ti1_4 2.692121 1_555
Cu0_0 Ti2_0 2.692121 1_555
Cu0_0 Ti1_0 2.692121 1_555
Cu0_0 Ti2_4 2.692121 1_555
Cu0_0 Ti1_2 2.692121 1_555
Cu0_0 Ti1_6 2.692121 1_555
Cu0_0 Ti2_2 2.692121 1_555
Cu0_0 Ti2_6 2.692121 1_555
Cu0_1 Ti2_3 2.692121 1_555
Cu0_1 Ti2_1 2.692121 1_555
Cu0_1 Ti2_7 2.692121 1_555
Cu0_1 Ti2_5 2.692121 1_555
Cu0_1 Ti1_3 2.692121 1_555
Cu0_1 Ti1_1 2.692121 1_555
Cu0_1 Ti1_7 2.692121 1_555
Cu0_1 Ti1_5 2.692121 1_555
Cu0_2 Ti2_2 2.692121 1_555
Cu0_2 Ti2_6 2.692121 1_555
Cu0_2 Ti1_2 2.692121 1_555
Cu0_2 Ti1_6 2.692121 1_555
Cu0_2 Ti2_4 2.692121 1_565
Cu0_2 Ti1_4 2.692121 1_565
Cu0_2 Ti1_0 2.692121 1_565
Cu0_2 Ti2_0 2.692121 1_565
Cu0_3 Ti2_3 2.692121 1_555
Cu0_3 Ti2_7 2.692121 1_555
Cu0_3 Ti2_5 2.692121 1_565
Cu0_3 Ti2_1 2.692121 1_565
Cu0_3 Ti1_7 2.692121 1_555
Cu0_3 Ti1_3 2.692121 1_555
Cu0_3 Ti1_1 2.692121 1_565
Cu0_3 Ti1_5 2.692121 1_565
Cu0_4 Ti2_4 2.692121 1_555
Cu0_4 Ti2_6 2.692121 1_555
Cu0_4 Ti1_4 2.692121 1_555
Cu0_4 Ti1_6 2.692121 1_555
Cu0_4 Ti1_2 2.692121 1_655
Cu0_4 Ti1_0 2.692121 1_655
Cu0_4 Ti2_2 2.692121 1_655
Cu0_4 Ti2_0 2.692121 1_655
Cu0_5 Ti2_7 2.692121 1_555
Cu0_5 Ti2_5 2.692121 1_555
Cu0_5 Ti2_3 2.692121 1_655
Cu0_5 Ti2_1 2.692121 1_655
Cu0_5 Ti1_7 2.692121 1_555
Cu0_5 Ti1_5 2.692121 1_555
Cu0_5 Ti1_3 2.692121 1_655
Cu0_5 Ti1_1 2.692121 1_655
Cu0_6 Ti2_6 2.692121 1_555
Cu0_6 Ti1_6 2.692121 1_555
Cu0_6 Ti2_2 2.692121 1_655
Cu0_6 Ti2_4 2.692121 1_565
Cu0_6 Ti1_2 2.692121 1_655
Cu0_6 Ti1_4 2.692121 1_565
Cu0_6 Ti2_0 2.692121 1_665
Cu0_6 Ti1_0 2.692121 1_665
Cu0_7 Ti2_7 2.692121 1_555
Cu0_7 Ti2_5 2.692121 1_565
Cu0_7 Ti2_3 2.692121 1_655
Cu0_7 Ti1_7 2.692121 1_555
Cu0_7 Ti2_1 2.692121 1_665
Cu0_7 Ti1_5 2.692121 1_565
Cu0_7 Ti1_3 2.692121 1_655
Cu0_7 Ti1_1 2.692121 1_665
Ag0_0 Ti3_1 2.907220 1_554
Ag0_0 Ti3_5 2.907220 1_454
Ag0_0 Ti3_7 2.907220 1_444
Ag0_0 Ti3_3 2.907220 1_544
Ag0_0 Ti0_0 2.907220 1_555
Ag0_0 Ti0_2 2.907220 1_545
Ag0_0 Ti0_4 2.907220 1_455
Ag0_0 Ti0_6 2.907220 1_445
Ag0_0 Ag0_4 2.933795 1_555
Ag0_0 Ag0_2 2.933795 1_545
Ag0_0 Ag0_4 2.933795 1_455
Ag0_0 Ag0_2 2.933795 1_555
Ag0_1 Ti0_1 2.907220 1_555
Ag0_1 Ti3_0 2.907220 1_555
Ag0_1 Ti0_3 2.907220 1_545
Ag0_1 Ti0_5 2.907220 1_455
Ag0_1 Ti3_2 2.907220 1_545
Ag0_1 Ti3_4 2.907220 1_455
Ag0_1 Ti3_6 2.907220 1_445
Ag0_1 Ti0_7 2.907220 1_445
Ag0_1 Ag0_3 2.933795 1_545
Ag0_1 Ag0_5 2.933795 1_455
Ag0_1 Ag0_3 2.933795 1_555
Ag0_1 Ag0_5 2.933795 1_555
Ag0_2 Ti3_3 2.907220 1_554
Ag0_2 Ti3_7 2.907220 1_454
Ag0_2 Ti3_1 2.907220 1_554
Ag0_2 Ti3_5 2.907220 1_454
Ag0_2 Ti0_2 2.907220 1_555
Ag0_2 Ti0_6 2.907220 1_455
Ag0_2 Ti0_0 2.907220 1_555
Ag0_2 Ti0_4 2.907220 1_455
Ag0_2 Ag0_6 2.933795 1_555
Ag0_2 Ag0_6 2.933795 1_455
Ag0_3 Ti3_2 2.907220 1_555
Ag0_3 Ti0_1 2.907220 1_555
Ag0_3 Ti3_0 2.907220 1_555
Ag0_3 Ti3_6 2.907220 1_455
Ag0_3 Ti0_7 2.907220 1_455
Ag0_3 Ti0_3 2.907220 1_555
Ag0_3 Ti0_5 2.907220 1_455
Ag0_3 Ti3_4 2.907220 1_455
Ag0_3 Ag0_7 2.933795 1_555
Ag0_3 Ag0_7 2.933795 1_455
Ag0_4 Ti3_5 2.907220 1_554
Ag0_4 Ti3_7 2.907220 1_544
Ag0_4 Ti3_1 2.907220 1_554
Ag0_4 Ti3_3 2.907220 1_544
Ag0_4 Ti0_4 2.907220 1_555
Ag0_4 Ti0_6 2.907220 1_545
Ag0_4 Ti0_0 2.907220 1_555
Ag0_4 Ti0_2 2.907220 1_545
Ag0_4 Ag0_6 2.933795 1_545
Ag0_4 Ag0_6 2.933795 1_555
Ag0_5 Ti3_4 2.907220 1_555
Ag0_5 Ti0_7 2.907220 1_545
Ag0_5 Ti0_1 2.907220 1_555
Ag0_5 Ti0_5 2.907220 1_555
Ag0_5 Ti3_0 2.907220 1_555
Ag0_5 Ti3_6 2.907220 1_545
Ag0_5 Ti0_3 2.907220 1_545
Ag0_5 Ti3_2 2.907220 1_545
Ag0_5 Ag0_7 2.933795 1_545
Ag0_5 Ag0_7 2.933795 1_555
Ag0_6 Ti3_7 2.907220 1_554
Ag0_6 Ti3_3 2.907220 1_554
Ag0_6 Ti3_5 2.907220 1_554
Ag0_6 Ti3_1 2.907220 1_554
Ag0_6 Ti0_6 2.907220 1_555
Ag0_6 Ti0_4 2.907220 1_555
Ag0_6 Ti0_2 2.907220 1_555
Ag0_6 Ti0_0 2.907220 1_555
Ag0_7 Ti3_6 2.907220 1_555
Ag0_7 Ti0_7 2.907220 1_555
Ag0_7 Ti3_4 2.907220 1_555
Ag0_7 Ti3_2 2.907220 1_555
Ag0_7 Ti0_1 2.907220 1_555
Ag0_7 Ti3_0 2.907220 1_555
Ag0_7 Ti0_5 2.907220 1_555
Ag0_7 Ti0_3 2.907220 1_555
