# generated using pymatgen
data_Mg149Cd
_symmetry_space_group_name_H-M   'P 1'
_cell_length_a   15.86042129
_cell_length_b   15.86042662
_cell_length_c   15.42956926
_cell_angle_alpha   90.00000000
_cell_angle_beta   90.00000000
_cell_angle_gamma   120.00001353
_symmetry_Int_Tables_number   1
_chemical_formula_structural   Mg149Cd
_chemical_formula_sum   'Mg149 Cd1'
_cell_volume   3361.35172524
_cell_formula_units_Z   1
loop_
 _symmetry_equiv_pos_site_id
 _symmetry_equiv_pos_as_xyz
  1  'x, y, z'
loop_
 _atom_site_type_symbol
 _atom_site_label
 _atom_site_symmetry_multiplicity
 _atom_site_fract_x
 _atom_site_fract_y
 _atom_site_fract_z
 _atom_site_occupancy
  Mg  Mg0  1  0.19888668  0.00082719  -0.00000000  1
  Mg  Mg1  1  0.80194050  0.00082719  -0.00000000  1
  Mg  Mg2  1  0.19888668  0.19805950  -0.00000000  1
  Mg  Mg3  1  0.99917281  0.19805950  -0.00000000  1
  Mg  Mg4  1  0.39944245  0.19972073  -0.00000000  1
  Mg  Mg5  1  0.80027927  0.19972073  -0.00000000  1
  Mg  Mg6  1  0.59997338  0.19994677  -0.00000000  1
  Mg  Mg7  1  0.19930889  0.39861878  -0.00000000  1
  Mg  Mg8  1  0.39970552  0.39973839  -0.00000000  1
  Mg  Mg9  1  0.00003287  0.39973939  -0.00000000  1
  Mg  Mg10  1  0.59997338  0.40002662  -0.00000000  1
  Mg  Mg11  1  0.80005323  0.40002662  -0.00000000  1
  Mg  Mg12  1  0.40009533  0.59990467  -0.00000000  1
  Mg  Mg13  1  0.19980935  0.59990467  -0.00000000  1
  Mg  Mg14  1  0.00003287  0.60029348  -0.00000000  1
  Mg  Mg15  1  0.60026161  0.60029448  -0.00000000  1
  Mg  Mg16  1  0.80027927  0.60055755  -0.00000000  1
  Mg  Mg17  1  0.40009533  0.80019065  -0.00000000  1
  Mg  Mg18  1  0.19930889  0.80069011  -0.00000000  1
  Mg  Mg19  1  0.60138122  0.80069111  -0.00000000  1
  Mg  Mg20  1  0.99917281  0.80111232  -0.00000000  1
  Mg  Mg21  1  0.80194050  0.80111332  -0.00000000  1
  Mg  Mg22  1  0.39970552  0.99996713  -0.00000000  1
  Mg  Mg23  1  0.60026161  0.99996713  -0.00000000  1
  Mg  Mg24  1  0.06656911  0.13313823  0.16596367  1
  Mg  Mg25  1  0.86686177  0.93343089  0.16596367  1
  Mg  Mg26  1  0.06656911  0.93343089  0.16596367  1
  Mg  Mg27  1  0.26660512  0.33321606  0.16640254  1
  Mg  Mg28  1  0.06661195  0.33321606  0.16640254  1
  Mg  Mg29  1  0.06661195  0.73339488  0.16640254  1
  Mg  Mg30  1  0.66678394  0.73339488  0.16640254  1
  Mg  Mg31  1  0.66678394  0.93338905  0.16640254  1
  Mg  Mg32  1  0.26660512  0.93338905  0.16640254  1
  Mg  Mg33  1  0.46668049  0.13334828  0.16648980  1
  Mg  Mg34  1  0.66666779  0.13334828  0.16648980  1
  Mg  Mg35  1  0.46668049  0.33333221  0.16648980  1
  Mg  Mg36  1  0.86665172  0.33333221  0.16648980  1
  Mg  Mg37  1  0.66666779  0.53331951  0.16648980  1
  Mg  Mg38  1  0.86665172  0.53331951  0.16648980  1
  Mg  Mg39  1  0.66666600  0.33333300  0.16650816  1
  Mg  Mg40  1  0.46666547  0.53333353  0.16647573  1
  Mg  Mg41  1  0.06666805  0.53333453  0.16647573  1
  Mg  Mg42  1  0.46666547  0.93333195  0.16647573  1
  Mg  Mg43  1  0.26664178  0.53328556  0.16643632  1
  Mg  Mg44  1  0.26664178  0.73335722  0.16643632  1
  Mg  Mg45  1  0.46671444  0.73335722  0.16643632  1
  Mg  Mg46  1  0.86659892  0.13340108  0.16664219  1
  Mg  Mg47  1  0.26680217  0.13340108  0.16664219  1
  Mg  Mg48  1  0.86659892  0.73319783  0.16664219  1
  Mg  Mg49  1  -0.00000000  -0.00000000  0.33362930  1
  Mg  Mg50  1  0.19995427  -0.00000067  0.33378309  1
  Mg  Mg51  1  0.80004506  -0.00000067  0.33378309  1
  Mg  Mg52  1  0.00000067  0.19995494  0.33378309  1
  Mg  Mg53  1  0.19995427  0.19995494  0.33378309  1
  Mg  Mg54  1  0.80004506  0.80004573  0.33378309  1
  Mg  Mg55  1  0.00000067  0.80004573  0.33378309  1
  Mg  Mg56  1  0.39996535  0.00000370  0.33380926  1
  Mg  Mg57  1  0.60003835  0.00000370  0.33380926  1
  Mg  Mg58  1  0.99999630  0.39996165  0.33380926  1
  Mg  Mg59  1  0.39996535  0.39996265  0.33380926  1
  Mg  Mg60  1  0.99999630  0.60003365  0.33380926  1
  Mg  Mg61  1  0.60003835  0.60003365  0.33380926  1
  Mg  Mg62  1  0.19995750  0.39991501  0.33378350  1
  Mg  Mg63  1  0.19995750  0.80004250  0.33378350  1
  Mg  Mg64  1  0.60008399  0.80004250  0.33378350  1
  Mg  Mg65  1  0.59998771  0.19997542  0.33380022  1
  Mg  Mg66  1  0.59998771  0.40001229  0.33380022  1
  Mg  Mg67  1  0.80002458  0.40001229  0.33380022  1
  Mg  Mg68  1  0.80001416  0.19998584  0.33378452  1
  Mg  Mg69  1  0.39997169  0.19998584  0.33378452  1
  Mg  Mg70  1  0.80001416  0.60002831  0.33378452  1
  Mg  Mg71  1  0.40001850  0.59998150  0.33379408  1
  Mg  Mg72  1  0.19996400  0.59998250  0.33379408  1
  Mg  Mg73  1  0.40001850  0.80003600  0.33379408  1
  Mg  Mg74  1  0.06660240  0.13320480  0.50000000  1
  Mg  Mg75  1  0.86663486  0.13336514  0.50000000  1
  Mg  Mg76  1  0.26672929  0.13336514  0.50000000  1
  Mg  Mg77  1  0.46661675  0.13327347  0.50000000  1
  Mg  Mg78  1  0.66665773  0.13327347  0.50000000  1
  Mg  Mg79  1  0.26667769  0.33330240  0.50000000  1
  Mg  Mg80  1  0.06662473  0.33330240  0.50000000  1
  Mg  Mg81  1  0.66666600  0.33333300  0.50000000  1
  Mg  Mg82  1  0.86672653  0.33334227  0.50000000  1
  Mg  Mg83  1  0.46661675  0.33334327  0.50000000  1
  Mg  Mg84  1  0.86672653  0.53338325  0.50000000  1
  Mg  Mg85  1  0.66665773  0.53338425  0.50000000  1
  Mg  Mg86  1  0.46666844  0.53333156  0.50000000  1
  Mg  Mg87  1  0.06666410  0.53333256  0.50000000  1
  Mg  Mg88  1  0.26665679  0.53331457  0.50000000  1
  Mg  Mg89  1  0.06662473  0.73332231  0.50000000  1
  Mg  Mg90  1  0.66669760  0.73332231  0.50000000  1
  Mg  Mg91  1  0.26665679  0.73334221  0.50000000  1
  Mg  Mg92  1  0.46668643  0.73334321  0.50000000  1
  Mg  Mg93  1  0.86663486  0.73326971  0.50000000  1
  Mg  Mg94  1  0.86679520  0.93339760  0.50000000  1
  Mg  Mg95  1  0.06660240  0.93339760  0.50000000  1
  Mg  Mg96  1  0.66669760  0.93337527  0.50000000  1
  Mg  Mg97  1  0.26667769  0.93337527  0.50000000  1
  Mg  Mg98  1  0.46666844  0.93333690  0.50000000  1
  Mg  Mg99  1  0.40001850  0.59998150  0.66620592  1
  Mg  Mg100  1  0.19996400  0.59998250  0.66620592  1
  Mg  Mg101  1  0.40001850  0.80003600  0.66620592  1
  Mg  Mg102  1  0.80001416  0.19998584  0.66621548  1
  Mg  Mg103  1  0.39997169  0.19998584  0.66621548  1
  Mg  Mg104  1  0.80001416  0.60002831  0.66621548  1
  Mg  Mg105  1  0.59998771  0.19997542  0.66619978  1
  Mg  Mg106  1  0.59998771  0.40001229  0.66619978  1
  Mg  Mg107  1  0.80002458  0.40001229  0.66619978  1
  Mg  Mg108  1  0.19995750  0.39991501  0.66621550  1
  Mg  Mg109  1  0.19995750  0.80004250  0.66621550  1
  Mg  Mg110  1  0.60008399  0.80004250  0.66621550  1
  Mg  Mg111  1  0.39996535  0.00000370  0.66619074  1
  Mg  Mg112  1  0.60003835  0.00000370  0.66619074  1
  Mg  Mg113  1  0.99999630  0.39996165  0.66619074  1
  Mg  Mg114  1  0.39996535  0.39996265  0.66619074  1
  Mg  Mg115  1  0.99999630  0.60003365  0.66619074  1
  Mg  Mg116  1  0.60003835  0.60003365  0.66619074  1
  Mg  Mg117  1  0.19995427  -0.00000067  0.66621691  1
  Mg  Mg118  1  0.80004506  -0.00000067  0.66621691  1
  Mg  Mg119  1  0.00000067  0.19995494  0.66621691  1
  Mg  Mg120  1  0.19995427  0.19995494  0.66621691  1
  Mg  Mg121  1  0.80004506  0.80004573  0.66621691  1
  Mg  Mg122  1  0.00000067  0.80004573  0.66621691  1
  Mg  Mg123  1  -0.00000000  -0.00000000  0.66637070  1
  Mg  Mg124  1  0.86659892  0.13340108  0.83335781  1
  Mg  Mg125  1  0.26680217  0.13340108  0.83335781  1
  Mg  Mg126  1  0.86659892  0.73319783  0.83335781  1
  Mg  Mg127  1  0.26664178  0.53328556  0.83356368  1
  Mg  Mg128  1  0.26664178  0.73335722  0.83356368  1
  Mg  Mg129  1  0.46671444  0.73335722  0.83356368  1
  Mg  Mg130  1  0.46666547  0.53333353  0.83352427  1
  Mg  Mg131  1  0.06666805  0.53333453  0.83352427  1
  Mg  Mg132  1  0.46666547  0.93333195  0.83352427  1
  Mg  Mg133  1  0.66666600  0.33333300  0.83349184  1
  Mg  Mg134  1  0.46668049  0.13334828  0.83351020  1
  Mg  Mg135  1  0.66666779  0.13334828  0.83351020  1
  Mg  Mg136  1  0.46668049  0.33333221  0.83351020  1
  Mg  Mg137  1  0.86665172  0.33333221  0.83351020  1
  Mg  Mg138  1  0.66666779  0.53331951  0.83351020  1
  Mg  Mg139  1  0.86665172  0.53331951  0.83351020  1
  Mg  Mg140  1  0.26660512  0.33321606  0.83359746  1
  Mg  Mg141  1  0.06661195  0.33321606  0.83359746  1
  Mg  Mg142  1  0.06661195  0.73339488  0.83359746  1
  Mg  Mg143  1  0.66678394  0.73339488  0.83359746  1
  Mg  Mg144  1  0.66678394  0.93338905  0.83359746  1
  Mg  Mg145  1  0.26660512  0.93338905  0.83359746  1
  Mg  Mg146  1  0.06656911  0.13313823  0.83403633  1
  Mg  Mg147  1  0.86686177  0.93343089  0.83403633  1
  Mg  Mg148  1  0.06656911  0.93343089  0.83403633  1
  Cd  Cd0  1  -0.00000000  -0.00000000  -0.00000000  1
loop_
_geom_bond_atom_site_label_1
_geom_bond_atom_site_label_2
_geom_bond_distance
_geom_bond_site_symmetry_2
Mg0 Mg2 3.128189 1_555
Mg0 Mg26 3.140214 1_545
Mg0 Mg148 3.140214 1_544
Mg0 Mg47 3.150836 1_555
Mg0 Mg125 3.150836 1_554
Mg0 Mg20 3.167554 1_445
Mg0 Mg4 3.167799 1_555
Mg0 Mg32 3.168368 1_545
Mg0 Mg145 3.168368 1_544
Mg0 Mg18 3.177613 1_545
Mg0 Mg22 3.191914 1_545
Mg1 Mg3 3.128187 1_555
Mg1 Mg147 3.140215 1_544
Mg1 Mg25 3.140215 1_545
Mg1 Mg46 3.150836 1_555
Mg1 Mg124 3.150836 1_554
Mg1 Mg21 3.167547 1_545
Mg1 Mg5 3.167792 1_555
Mg1 Mg144 3.168368 1_544
Mg1 Mg31 3.168368 1_545
Mg1 Mg19 3.177604 1_545
Mg1 Mg23 3.191914 1_545
Mg2 Mg24 3.140214 1_555
Mg2 Mg47 3.150836 1_555
Mg2 Mg3 3.167546 1_455
Mg2 Mg4 3.167807 1_555
Mg2 Mg27 3.168368 1_555
Mg2 Mg7 3.177613 1_555
Mg2 Mg8 3.191914 1_555
Mg3 Mg46 3.150836 1_555
Mg3 Mg5 3.167791 1_555
Mg3 Mg7 3.177604 1_655
Mg3 Mg9 3.191930 1_655
Mg4 Mg47 3.151257 1_555
Mg4 Mg8 3.170281 1_555
Mg4 Mg6 3.178714 1_555
Mg5 Mg9 3.170280 1_655
Mg5 Mg6 3.178730 1_555
Mg7 Mg9 3.169526 1_555
Mg7 Mg8 3.169534 1_555
Mg10 Mg35 3.154533 1_555
Mg10 Mg136 3.154533 1_554
Mg10 Mg37 3.154533 1_555
Mg10 Mg138 3.154533 1_554
Mg10 Mg39 3.155508 1_555
Mg10 Mg133 3.155508 1_554
Mg10 Mg11 3.173351 1_555
Mg10 Mg6 3.173352 1_555
Mg10 Mg8 3.174049 1_555
Mg10 Mg15 3.174050 1_555
Mg10 Mg4 3.178722 1_555
Mg10 Mg16 3.178722 1_555
Mg11 Mg38 3.154533 1_555
Mg11 Mg139 3.154533 1_554
Mg11 Mg36 3.154533 1_555
Mg11 Mg137 3.154533 1_554
Mg11 Mg39 3.155516 1_555
Mg11 Mg133 3.155516 1_554
Mg11 Mg6 3.173351 1_555
Mg11 Mg14 3.174041 1_655
Mg11 Mg9 3.174042 1_655
Mg11 Mg16 3.178715 1_555
Mg11 Mg5 3.178731 1_555
Mg12 Mg40 3.153148 1_555
Mg12 Mg130 3.153148 1_554
Mg12 Mg129 3.155135 1_554
Mg12 Mg45 3.155135 1_555
Mg12 Mg127 3.155143 1_554
Mg12 Mg43 3.155143 1_555
Mg12 Mg15 3.171635 1_555
Mg12 Mg8 3.171636 1_555
Mg12 Mg13 3.176620 1_555
Mg12 Mg17 3.176621 1_555
Mg12 Mg19 3.188526 1_555
Mg12 Mg7 3.188526 1_555
Mg13 Mg41 3.153148 1_555
Mg13 Mg131 3.153148 1_554
Mg13 Mg43 3.155127 1_555
Mg13 Mg44 3.155135 1_555
Mg13 Mg9 3.171627 1_555
Mg13 Mg14 3.171627 1_555
Mg13 Mg17 3.176620 1_555
Mg13 Mg7 3.188519 1_555
Mg13 Mg18 3.188519 1_555
Mg14 Mg29 3.151910 1_555
Mg14 Mg142 3.151910 1_554
Mg14 Mg38 3.155240 1_455
Mg14 Mg41 3.156761 1_555
Mg14 Mg18 3.169526 1_555
Mg14 Mg16 3.170272 1_455
Mg14 Mg9 3.180873 1_555
Mg14 Mg20 3.191915 1_455
Mg15 Mg30 3.151902 1_555
Mg15 Mg37 3.155240 1_555
Mg15 Mg40 3.156776 1_555
Mg15 Mg19 3.169535 1_555
Mg15 Mg16 3.170280 1_555
Mg15 Mg8 3.180904 1_555
Mg15 Mg21 3.191914 1_555
Mg16 Mg48 3.151257 1_555
Mg16 Mg38 3.157074 1_555
Mg16 Mg37 3.157082 1_555
Mg16 Mg20 3.167791 1_555
Mg16 Mg21 3.167808 1_555
Mg17 Mg42 3.153148 1_555
Mg17 Mg45 3.155135 1_555
Mg17 Mg44 3.155143 1_555
Mg17 Mg23 3.171635 1_555
Mg17 Mg22 3.171636 1_555
Mg17 Mg19 3.188518 1_555
Mg17 Mg18 3.188526 1_555
Mg18 Mg29 3.148727 1_555
Mg18 Mg32 3.148743 1_555
Mg18 Mg44 3.164845 1_555
Mg18 Mg22 3.169533 1_555
Mg18 Mg20 3.177596 1_455
Mg19 Mg31 3.148735 1_555
Mg19 Mg30 3.148743 1_555
Mg19 Mg45 3.164853 1_555
Mg19 Mg23 3.169519 1_555
Mg19 Mg21 3.177612 1_555
Mg20 Mg21 3.128195 1_555
Mg20 Mg26 3.140222 1_655
Mg20 Mg48 3.150835 1_555
Mg20 Mg29 3.168368 1_655
Mg21 Mg25 3.140215 1_555
Mg21 Mg48 3.150836 1_555
Mg21 Mg30 3.168368 1_555
Mg22 Mg32 3.151902 1_555
Mg22 Mg33 3.155240 1_565
Mg22 Mg42 3.156769 1_555
Mg22 Mg4 3.170266 1_565
Mg22 Mg6 3.174049 1_565
Mg22 Mg23 3.180904 1_555
Mg23 Mg31 3.151903 1_555
Mg23 Mg34 3.155240 1_565
Mg23 Mg42 3.156776 1_555
Mg23 Mg5 3.170272 1_565
Mg23 Mg6 3.174051 1_565
Mg24 Mg3 3.140215 1_455
Mg24 Mg25 3.167442 1_445
Mg24 Mg26 3.167444 1_545
Mg24 Mg49 3.168098 1_555
Mg24 Mg53 3.171994 1_555
Mg24 Mg52 3.171994 1_555
Mg24 Mg28 3.172987 1_555
Mg24 Mg27 3.172994 1_555
Mg24 Mg46 3.173715 1_455
Mg24 Mg47 3.173716 1_555
Mg25 Mg26 3.167443 1_655
Mg25 Mg49 3.168098 1_665
Mg25 Mg51 3.171994 1_565
Mg25 Mg54 3.171994 1_555
Mg25 Mg31 3.172994 1_555
Mg25 Mg30 3.172994 1_555
Mg25 Mg46 3.173716 1_565
Mg25 Mg48 3.173717 1_555
Mg26 Mg49 3.168098 1_565
Mg26 Mg50 3.171994 1_565
Mg26 Mg55 3.171994 1_555
Mg26 Mg32 3.172994 1_555
Mg26 Mg29 3.173003 1_555
Mg26 Mg47 3.173715 1_565
Mg26 Mg48 3.173715 1_455
Mg27 Mg7 3.148743 1_555
Mg27 Mg8 3.151902 1_555
Mg27 Mg53 3.165483 1_555
Mg27 Mg62 3.166167 1_555
Mg27 Mg59 3.166599 1_555
Mg27 Mg47 3.170717 1_555
Mg27 Mg28 3.171976 1_555
Mg27 Mg35 3.172359 1_555
Mg27 Mg43 3.172897 1_555
Mg27 Mg40 3.173495 1_555
Mg28 Mg7 3.148727 1_555
Mg28 Mg9 3.151918 1_555
Mg28 Mg52 3.165483 1_555
Mg28 Mg62 3.166158 1_555
Mg28 Mg58 3.166608 1_455
Mg28 Mg3 3.168368 1_455
Mg28 Mg46 3.170724 1_455
Mg28 Mg36 3.172375 1_455
Mg28 Mg43 3.172872 1_555
Mg28 Mg41 3.173520 1_555
Mg29 Mg55 3.165491 1_555
Mg29 Mg63 3.166158 1_555
Mg29 Mg60 3.166608 1_455
Mg29 Mg48 3.170732 1_455
Mg29 Mg32 3.171984 1_555
Mg29 Mg38 3.172367 1_455
Mg29 Mg44 3.172856 1_555
Mg29 Mg41 3.173488 1_555
Mg30 Mg54 3.165483 1_555
Mg30 Mg64 3.166175 1_555
Mg30 Mg61 3.166608 1_555
Mg30 Mg48 3.170716 1_555
Mg30 Mg31 3.171993 1_555
Mg30 Mg37 3.172360 1_555
Mg30 Mg45 3.172888 1_555
Mg30 Mg40 3.173510 1_555
Mg31 Mg51 3.165483 1_565
Mg31 Mg64 3.166167 1_555
Mg31 Mg57 3.166600 1_565
Mg31 Mg46 3.170716 1_565
Mg31 Mg34 3.172360 1_565
Mg31 Mg45 3.172888 1_555
Mg31 Mg42 3.173511 1_555
Mg32 Mg50 3.165483 1_565
Mg32 Mg63 3.166167 1_555
Mg32 Mg56 3.166599 1_565
Mg32 Mg47 3.170717 1_565
Mg32 Mg33 3.172359 1_565
Mg32 Mg44 3.172881 1_555
Mg32 Mg42 3.173495 1_555
Mg33 Mg6 3.154533 1_555
Mg33 Mg4 3.157074 1_555
Mg33 Mg65 3.164966 1_555
Mg33 Mg69 3.165080 1_555
Mg33 Mg56 3.165377 1_555
Mg33 Mg47 3.170574 1_555
Mg33 Mg35 3.171830 1_555
Mg33 Mg39 3.171848 1_555
Mg33 Mg34 3.171883 1_555
Mg33 Mg42 3.172225 1_545
Mg34 Mg6 3.154533 1_555
Mg34 Mg5 3.157082 1_555
Mg34 Mg65 3.164967 1_555
Mg34 Mg68 3.165080 1_555
Mg34 Mg57 3.165377 1_555
Mg34 Mg46 3.170574 1_555
Mg34 Mg36 3.171829 1_555
Mg34 Mg39 3.171857 1_555
Mg34 Mg42 3.172232 1_545
Mg35 Mg8 3.155240 1_555
Mg35 Mg4 3.157082 1_555
Mg35 Mg66 3.164966 1_555
Mg35 Mg69 3.165080 1_555
Mg35 Mg59 3.165385 1_555
Mg35 Mg47 3.170574 1_555
Mg35 Mg39 3.171848 1_555
Mg35 Mg37 3.171883 1_555
Mg35 Mg40 3.172225 1_555
Mg36 Mg9 3.155240 1_655
Mg36 Mg5 3.157082 1_555
Mg36 Mg67 3.164967 1_555
Mg36 Mg68 3.165080 1_555
Mg36 Mg58 3.165377 1_555
Mg36 Mg46 3.170575 1_555
Mg36 Mg39 3.171864 1_555
Mg36 Mg38 3.171884 1_555
Mg36 Mg41 3.172232 1_655
Mg37 Mg66 3.164966 1_555
Mg37 Mg70 3.165080 1_555
Mg37 Mg61 3.165369 1_555
Mg37 Mg48 3.170574 1_555
Mg37 Mg38 3.171829 1_555
Mg37 Mg39 3.171857 1_555
Mg37 Mg40 3.172232 1_555
Mg38 Mg67 3.164966 1_555
Mg38 Mg70 3.165080 1_555
Mg38 Mg60 3.165377 1_555
Mg38 Mg48 3.170575 1_555
Mg38 Mg39 3.171864 1_555
Mg38 Mg41 3.172224 1_655
Mg39 Mg6 3.155508 1_555
Mg39 Mg65 3.165136 1_555
Mg39 Mg66 3.165136 1_555
Mg39 Mg67 3.165143 1_555
Mg40 Mg8 3.156769 1_555
Mg40 Mg71 3.164969 1_555
Mg40 Mg59 3.165763 1_555
Mg40 Mg61 3.165779 1_555
Mg40 Mg45 3.172073 1_555
Mg40 Mg43 3.172080 1_555
Mg41 Mg9 3.156769 1_555
Mg41 Mg72 3.164976 1_555
Mg41 Mg60 3.165763 1_455
Mg41 Mg58 3.165779 1_455
Mg41 Mg44 3.172056 1_555
Mg41 Mg43 3.172056 1_555
Mg42 Mg73 3.164977 1_555
Mg42 Mg56 3.165771 1_565
Mg42 Mg57 3.165779 1_565
Mg42 Mg44 3.172072 1_555
Mg42 Mg45 3.172073 1_555
Mg43 Mg7 3.164853 1_555
Mg43 Mg62 3.165932 1_555
Mg43 Mg72 3.166099 1_555
Mg43 Mg71 3.166114 1_555
Mg43 Mg44 3.173222 1_555
Mg43 Mg45 3.173229 1_555
Mg44 Mg63 3.165925 1_555
Mg44 Mg72 3.166099 1_555
Mg44 Mg73 3.166114 1_555
Mg44 Mg45 3.173237 1_555
Mg45 Mg64 3.165924 1_555
Mg45 Mg73 3.166099 1_555
Mg45 Mg71 3.166107 1_555
Mg46 Mg5 3.151249 1_555
Mg46 Mg68 3.161757 1_555
Mg46 Mg52 3.163586 1_655
Mg46 Mg51 3.163586 1_555
Mg47 Mg69 3.161756 1_555
Mg47 Mg50 3.163586 1_555
Mg47 Mg53 3.163586 1_555
Mg48 Mg70 3.161757 1_555
Mg48 Mg55 3.163586 1_655
Mg48 Mg54 3.163586 1_555
Mg49 Mg94 3.152334 1_445
Mg49 Mg74 3.152334 1_555
Mg49 Mg95 3.152334 1_545
Mg49 Mg54 3.171365 1_445
Mg49 Mg53 3.171365 1_555
Mg49 Mg51 3.171365 1_455
Mg49 Mg50 3.171365 1_555
Mg49 Mg52 3.171366 1_555
Mg49 Mg55 3.171366 1_545
Mg50 Mg97 3.151541 1_545
Mg50 Mg95 3.151576 1_545
Mg50 Mg76 3.151687 1_555
Mg50 Mg55 3.171348 1_545
Mg50 Mg53 3.171381 1_555
Mg50 Mg63 3.171426 1_545
Mg50 Mg69 3.172115 1_555
Mg50 Mg56 3.172225 1_555
Mg51 Mg96 3.151540 1_545
Mg51 Mg94 3.151576 1_545
Mg51 Mg75 3.151687 1_555
Mg51 Mg54 3.171349 1_545
Mg51 Mg52 3.171380 1_655
Mg51 Mg64 3.171433 1_545
Mg51 Mg68 3.172116 1_555
Mg51 Mg57 3.172225 1_555
Mg52 Mg80 3.151541 1_555
Mg52 Mg74 3.151576 1_555
Mg52 Mg75 3.151687 1_455
Mg52 Mg53 3.171348 1_555
Mg52 Mg62 3.171425 1_555
Mg52 Mg68 3.172115 1_455
Mg52 Mg58 3.172226 1_455
Mg53 Mg79 3.151541 1_555
Mg53 Mg74 3.151576 1_555
Mg53 Mg76 3.151680 1_555
Mg53 Mg62 3.171426 1_555
Mg53 Mg69 3.172116 1_555
Mg53 Mg59 3.172233 1_555
Mg54 Mg90 3.151540 1_555
Mg54 Mg94 3.151576 1_555
Mg54 Mg93 3.151688 1_555
Mg54 Mg55 3.171380 1_655
Mg54 Mg64 3.171441 1_555
Mg54 Mg70 3.172117 1_555
Mg54 Mg61 3.172233 1_555
Mg55 Mg89 3.151541 1_555
Mg55 Mg95 3.151576 1_555
Mg55 Mg93 3.151687 1_455
Mg55 Mg63 3.171425 1_555
Mg55 Mg70 3.172115 1_455
Mg55 Mg60 3.172242 1_455
Mg56 Mg77 3.150592 1_555
Mg56 Mg97 3.150734 1_545
Mg56 Mg98 3.151391 1_545
Mg56 Mg69 3.171752 1_555
Mg56 Mg63 3.171839 1_545
Mg56 Mg73 3.171995 1_545
Mg56 Mg65 3.172037 1_555
Mg56 Mg57 3.173242 1_555
Mg57 Mg78 3.150592 1_555
Mg57 Mg96 3.150735 1_545
Mg57 Mg98 3.151391 1_545
Mg57 Mg68 3.171751 1_555
Mg57 Mg64 3.171832 1_545
Mg57 Mg73 3.171985 1_545
Mg57 Mg65 3.172038 1_555
Mg58 Mg82 3.150592 1_555
Mg58 Mg80 3.150735 1_655
Mg58 Mg87 3.151399 1_655
Mg58 Mg68 3.171751 1_555
Mg58 Mg62 3.171839 1_655
Mg58 Mg72 3.171993 1_655
Mg58 Mg67 3.172037 1_555
Mg58 Mg60 3.173227 1_555
Mg59 Mg83 3.150600 1_555
Mg59 Mg79 3.150734 1_555
Mg59 Mg86 3.151383 1_555
Mg59 Mg69 3.171768 1_555
Mg59 Mg62 3.171831 1_555
Mg59 Mg71 3.171963 1_555
Mg59 Mg66 3.172045 1_555
Mg59 Mg61 3.173226 1_555
Mg60 Mg84 3.150592 1_555
Mg60 Mg89 3.150743 1_655
Mg60 Mg87 3.151383 1_655
Mg60 Mg70 3.171759 1_555
Mg60 Mg63 3.171847 1_655
Mg60 Mg72 3.171978 1_655
Mg60 Mg67 3.172029 1_555
Mg61 Mg85 3.150584 1_555
Mg61 Mg90 3.150743 1_555
Mg61 Mg86 3.151391 1_555
Mg61 Mg70 3.171743 1_555
Mg61 Mg64 3.171864 1_555
Mg61 Mg71 3.171986 1_555
Mg61 Mg66 3.172023 1_555
Mg62 Mg80 3.151418 1_555
Mg62 Mg79 3.151419 1_555
Mg62 Mg88 3.151951 1_555
Mg62 Mg71 3.173095 1_555
Mg62 Mg72 3.173104 1_555
Mg63 Mg89 3.151418 1_555
Mg63 Mg97 3.151418 1_555
Mg63 Mg91 3.151952 1_555
Mg63 Mg72 3.173089 1_555
Mg63 Mg73 3.173103 1_555
Mg64 Mg96 3.151418 1_555
Mg64 Mg90 3.151427 1_555
Mg64 Mg92 3.151935 1_555
Mg64 Mg73 3.173071 1_555
Mg64 Mg71 3.173087 1_555
Mg65 Mg81 3.151406 1_555
Mg65 Mg77 3.151513 1_555
Mg65 Mg78 3.151521 1_555
Mg65 Mg69 3.172421 1_555
Mg65 Mg68 3.172421 1_555
Mg65 Mg67 3.172669 1_555
Mg65 Mg66 3.172670 1_555
Mg66 Mg81 3.151406 1_555
Mg66 Mg83 3.151513 1_555
Mg66 Mg85 3.151521 1_555
Mg66 Mg70 3.172421 1_555
Mg66 Mg69 3.172421 1_555
Mg66 Mg67 3.172669 1_555
Mg67 Mg81 3.151414 1_555
Mg67 Mg84 3.151513 1_555
Mg67 Mg82 3.151521 1_555
Mg67 Mg70 3.172422 1_555
Mg67 Mg68 3.172422 1_555
Mg68 Mg75 3.150676 1_555
Mg68 Mg78 3.151594 1_555
Mg68 Mg82 3.151594 1_555
Mg69 Mg76 3.150684 1_555
Mg69 Mg83 3.151602 1_555
Mg69 Mg77 3.151602 1_555
Mg70 Mg93 3.150676 1_555
Mg70 Mg85 3.151594 1_555
Mg70 Mg84 3.151602 1_555
Mg71 Mg86 3.151023 1_555
Mg71 Mg88 3.151516 1_555
Mg71 Mg92 3.151516 1_555
Mg71 Mg73 3.172950 1_555
Mg71 Mg72 3.172957 1_555
Mg72 Mg87 3.151023 1_555
Mg72 Mg91 3.151500 1_555
Mg72 Mg88 3.151509 1_555
Mg72 Mg73 3.172941 1_555
Mg73 Mg98 3.151031 1_555
Mg73 Mg92 3.151509 1_555
Mg73 Mg91 3.151516 1_555
Mg74 Mg94 3.169026 1_445
Mg74 Mg95 3.169027 1_545
Mg74 Mg76 3.172826 1_555
Mg74 Mg75 3.172842 1_455
Mg74 Mg79 3.173455 1_555
Mg74 Mg80 3.173456 1_555
Mg75 Mg78 3.170995 1_555
Mg75 Mg82 3.170996 1_555
Mg75 Mg80 3.171506 1_655
Mg75 Mg96 3.171506 1_545
Mg75 Mg94 3.172843 1_545
Mg76 Mg83 3.171018 1_555
Mg76 Mg77 3.171027 1_555
Mg76 Mg79 3.171500 1_555
Mg76 Mg97 3.171516 1_545
Mg76 Mg95 3.172834 1_545
Mg77 Mg97 3.170794 1_545
Mg77 Mg98 3.171489 1_545
Mg77 Mg78 3.172734 1_555
Mg77 Mg81 3.172947 1_555
Mg77 Mg83 3.173192 1_555
Mg78 Mg96 3.170787 1_545
Mg78 Mg98 3.171496 1_545
Mg78 Mg81 3.172964 1_555
Mg78 Mg82 3.173175 1_555
Mg79 Mg83 3.170794 1_555
Mg79 Mg86 3.172242 1_555
Mg79 Mg88 3.172444 1_555
Mg79 Mg80 3.172924 1_555
Mg80 Mg82 3.170786 1_455
Mg80 Mg87 3.172252 1_555
Mg80 Mg88 3.172435 1_555
Mg81 Mg83 3.172947 1_555
Mg81 Mg84 3.172963 1_555
Mg81 Mg85 3.172964 1_555
Mg81 Mg82 3.172971 1_555
Mg82 Mg87 3.171512 1_655
Mg82 Mg84 3.172735 1_555
Mg83 Mg86 3.171490 1_555
Mg83 Mg85 3.172734 1_555
Mg84 Mg89 3.170794 1_655
Mg84 Mg93 3.171012 1_555
Mg84 Mg87 3.171496 1_655
Mg84 Mg85 3.173183 1_555
Mg85 Mg90 3.170787 1_555
Mg85 Mg93 3.170995 1_555
Mg85 Mg86 3.171497 1_555
Mg86 Mg99 3.151023 1_555
Mg86 Mg92 3.172127 1_555
Mg86 Mg88 3.172134 1_555
Mg86 Mg90 3.172242 1_555
Mg87 Mg91 3.172103 1_555
Mg87 Mg88 3.172111 1_555
Mg87 Mg89 3.172235 1_555
Mg88 Mg99 3.151516 1_555
Mg88 Mg91 3.172524 1_555
Mg88 Mg92 3.172546 1_555
Mg89 Mg93 3.171507 1_455
Mg89 Mg91 3.172435 1_555
Mg89 Mg97 3.172924 1_555
Mg89 Mg95 3.173457 1_555
Mg90 Mg93 3.171506 1_555
Mg90 Mg92 3.172427 1_555
Mg90 Mg96 3.172925 1_555
Mg90 Mg94 3.173455 1_555
Mg91 Mg98 3.172134 1_555
Mg91 Mg97 3.172444 1_555
Mg91 Mg92 3.172546 1_555
Mg92 Mg99 3.151516 1_555
Mg92 Mg98 3.172128 1_555
Mg92 Mg96 3.172427 1_555
Mg93 Mg95 3.172842 1_655
Mg93 Mg94 3.172843 1_555
Mg94 Mg95 3.169026 1_655
Mg94 Mg96 3.173455 1_555
Mg95 Mg97 3.173455 1_555
Mg96 Mg98 3.172243 1_555
Mg97 Mg98 3.172242 1_555
Mg100 Mg87 3.151023 1_555
Mg100 Mg91 3.151500 1_555
Mg100 Mg88 3.151509 1_555
Mg100 Mg131 3.164976 1_555
Mg100 Mg128 3.166099 1_555
Mg100 Mg127 3.166099 1_555
Mg100 Mg115 3.171978 1_455
Mg100 Mg113 3.171993 1_455
Mg100 Mg101 3.172941 1_555
Mg100 Mg99 3.172957 1_555
Mg100 Mg109 3.173089 1_555
Mg100 Mg108 3.173104 1_555
Mg101 Mg98 3.151031 1_555
Mg101 Mg92 3.151509 1_555
Mg101 Mg91 3.151516 1_555
Mg101 Mg132 3.164977 1_555
Mg101 Mg129 3.166099 1_555
Mg101 Mg128 3.166114 1_555
Mg101 Mg112 3.171985 1_565
Mg101 Mg111 3.171995 1_565
Mg101 Mg99 3.172950 1_555
Mg101 Mg110 3.173071 1_555
Mg101 Mg109 3.173103 1_555
Mg102 Mg75 3.150676 1_555
Mg102 Mg78 3.151594 1_555
Mg102 Mg82 3.151594 1_555
Mg102 Mg124 3.161757 1_555
Mg102 Mg135 3.165080 1_555
Mg102 Mg137 3.165080 1_555
Mg102 Mg113 3.171751 1_555
Mg102 Mg112 3.171751 1_555
Mg102 Mg119 3.172115 1_655
Mg102 Mg118 3.172116 1_555
Mg102 Mg105 3.172421 1_555
Mg102 Mg107 3.172422 1_555
Mg103 Mg76 3.150684 1_555
Mg103 Mg83 3.151602 1_555
Mg103 Mg77 3.151602 1_555
Mg103 Mg125 3.161756 1_555
Mg103 Mg134 3.165080 1_555
Mg103 Mg136 3.165080 1_555
Mg103 Mg111 3.171752 1_555
Mg103 Mg114 3.171768 1_555
Mg103 Mg117 3.172115 1_555
Mg103 Mg120 3.172116 1_555
Mg103 Mg106 3.172421 1_555
Mg103 Mg105 3.172421 1_555
Mg104 Mg93 3.150676 1_555
Mg104 Mg85 3.151594 1_555
Mg104 Mg84 3.151602 1_555
Mg104 Mg126 3.161757 1_555
Mg104 Mg138 3.165080 1_555
Mg104 Mg139 3.165080 1_555
Mg104 Mg116 3.171743 1_555
Mg104 Mg115 3.171759 1_555
Mg104 Mg122 3.172115 1_655
Mg104 Mg121 3.172117 1_555
Mg104 Mg106 3.172421 1_555
Mg104 Mg107 3.172422 1_555
Mg105 Mg81 3.151406 1_555
Mg105 Mg77 3.151513 1_555
Mg105 Mg78 3.151521 1_555
Mg105 Mg134 3.164966 1_555
Mg105 Mg135 3.164967 1_555
Mg105 Mg133 3.165136 1_555
Mg105 Mg111 3.172037 1_555
Mg105 Mg112 3.172038 1_555
Mg105 Mg107 3.172669 1_555
Mg105 Mg106 3.172670 1_555
Mg106 Mg81 3.151406 1_555
Mg106 Mg83 3.151513 1_555
Mg106 Mg85 3.151521 1_555
Mg106 Mg136 3.164966 1_555
Mg106 Mg138 3.164966 1_555
Mg106 Mg133 3.165136 1_555
Mg106 Mg116 3.172023 1_555
Mg106 Mg114 3.172045 1_555
Mg106 Mg107 3.172669 1_555
Mg107 Mg81 3.151414 1_555
Mg107 Mg84 3.151513 1_555
Mg107 Mg82 3.151521 1_555
Mg107 Mg139 3.164966 1_555
Mg107 Mg137 3.164967 1_555
Mg107 Mg133 3.165143 1_555
Mg107 Mg115 3.172029 1_555
Mg107 Mg113 3.172037 1_555
Mg108 Mg80 3.151405 1_555
Mg108 Mg79 3.151406 1_555
Mg108 Mg88 3.151939 1_555
Mg108 Mg127 3.165945 1_555
Mg108 Mg141 3.166171 1_555
Mg108 Mg140 3.166180 1_555
Mg108 Mg119 3.171425 1_555
Mg108 Mg120 3.171426 1_555
Mg108 Mg114 3.171831 1_555
Mg108 Mg113 3.171839 1_455
Mg108 Mg99 3.173095 1_555
Mg109 Mg89 3.151405 1_555
Mg109 Mg97 3.151406 1_555
Mg109 Mg91 3.151939 1_555
Mg109 Mg128 3.165937 1_555
Mg109 Mg142 3.166171 1_555
Mg109 Mg145 3.166179 1_555
Mg109 Mg122 3.171425 1_555
Mg109 Mg117 3.171426 1_565
Mg109 Mg111 3.171839 1_565
Mg109 Mg115 3.171847 1_455
Mg110 Mg96 3.151406 1_555
Mg110 Mg90 3.151414 1_555
Mg110 Mg92 3.151923 1_555
Mg110 Mg129 3.165937 1_555
Mg110 Mg144 3.166179 1_555
Mg110 Mg143 3.166187 1_555
Mg110 Mg118 3.171433 1_565
Mg110 Mg121 3.171441 1_555
Mg110 Mg112 3.171832 1_565
Mg110 Mg116 3.171864 1_555
Mg110 Mg99 3.173087 1_555
Mg111 Mg77 3.150592 1_555
Mg111 Mg97 3.150734 1_545
Mg111 Mg98 3.151391 1_545
Mg111 Mg134 3.165377 1_555
Mg111 Mg132 3.165771 1_545
Mg111 Mg145 3.166599 1_545
Mg111 Mg117 3.172225 1_555
Mg111 Mg112 3.173242 1_555
Mg112 Mg78 3.150592 1_555
Mg112 Mg96 3.150735 1_545
Mg112 Mg98 3.151391 1_545
Mg112 Mg135 3.165377 1_555
Mg112 Mg132 3.165779 1_545
Mg112 Mg144 3.166600 1_545
Mg112 Mg118 3.172225 1_555
Mg113 Mg82 3.150592 1_555
Mg113 Mg80 3.150735 1_655
Mg113 Mg87 3.151399 1_655
Mg113 Mg137 3.165377 1_555
Mg113 Mg131 3.165779 1_655
Mg113 Mg141 3.166608 1_655
Mg113 Mg119 3.172226 1_655
Mg113 Mg115 3.173227 1_555
Mg114 Mg83 3.150600 1_555
Mg114 Mg79 3.150734 1_555
Mg114 Mg86 3.151383 1_555
Mg114 Mg136 3.165385 1_555
Mg114 Mg130 3.165763 1_555
Mg114 Mg140 3.166599 1_555
Mg114 Mg99 3.171963 1_555
Mg114 Mg120 3.172233 1_555
Mg114 Mg116 3.173226 1_555
Mg115 Mg84 3.150592 1_555
Mg115 Mg89 3.150743 1_655
Mg115 Mg87 3.151383 1_655
Mg115 Mg139 3.165377 1_555
Mg115 Mg131 3.165763 1_655
Mg115 Mg142 3.166608 1_655
Mg115 Mg122 3.172242 1_655
Mg116 Mg85 3.150584 1_555
Mg116 Mg90 3.150743 1_555
Mg116 Mg86 3.151391 1_555
Mg116 Mg138 3.165369 1_555
Mg116 Mg130 3.165779 1_555
Mg116 Mg143 3.166608 1_555
Mg116 Mg99 3.171986 1_555
Mg116 Mg121 3.172233 1_555
Mg117 Mg97 3.151541 1_545
Mg117 Mg95 3.151576 1_545
Mg117 Mg76 3.151687 1_555
Mg117 Mg125 3.163586 1_555
Mg117 Mg145 3.165483 1_545
Mg117 Mg122 3.171348 1_545
Mg117 Mg123 3.171365 1_555
Mg117 Mg120 3.171381 1_555
Mg117 Mg148 3.171994 1_545
Mg118 Mg96 3.151540 1_545
Mg118 Mg94 3.151576 1_545
Mg118 Mg75 3.151687 1_555
Mg118 Mg124 3.163586 1_555
Mg118 Mg144 3.165483 1_545
Mg118 Mg121 3.171349 1_545
Mg118 Mg123 3.171365 1_655
Mg118 Mg119 3.171380 1_655
Mg118 Mg147 3.171994 1_545
Mg119 Mg80 3.151541 1_555
Mg119 Mg74 3.151576 1_555
Mg119 Mg75 3.151687 1_455
Mg119 Mg124 3.163586 1_455
Mg119 Mg141 3.165483 1_555
Mg119 Mg120 3.171348 1_555
Mg119 Mg123 3.171366 1_555
Mg119 Mg146 3.171994 1_555
Mg120 Mg79 3.151541 1_555
Mg120 Mg74 3.151576 1_555
Mg120 Mg76 3.151680 1_555
Mg120 Mg125 3.163586 1_555
Mg120 Mg140 3.165483 1_555
Mg120 Mg123 3.171365 1_555
Mg120 Mg146 3.171994 1_555
Mg121 Mg90 3.151540 1_555
Mg121 Mg94 3.151576 1_555
Mg121 Mg93 3.151688 1_555
Mg121 Mg126 3.163586 1_555
Mg121 Mg143 3.165483 1_555
Mg121 Mg123 3.171365 1_665
Mg121 Mg122 3.171380 1_655
Mg121 Mg147 3.171994 1_555
Mg122 Mg89 3.151541 1_555
Mg122 Mg95 3.151576 1_555
Mg122 Mg93 3.151687 1_455
Mg122 Mg126 3.163586 1_455
Mg122 Mg142 3.165491 1_555
Mg122 Mg123 3.171366 1_565
Mg122 Mg148 3.171994 1_555
Mg123 Mg94 3.152334 1_445
Mg123 Mg74 3.152334 1_555
Mg123 Mg95 3.152334 1_545
Mg123 Mg147 3.168098 1_445
Mg123 Mg148 3.168098 1_545
Mg123 Mg146 3.168098 1_555
Mg124 Mg3 3.150836 1_556
Mg124 Mg5 3.151249 1_556
Mg124 Mg135 3.170574 1_555
Mg124 Mg137 3.170575 1_555
Mg124 Mg144 3.170716 1_545
Mg124 Mg141 3.170724 1_655
Mg124 Mg146 3.173715 1_655
Mg124 Mg147 3.173716 1_545
Mg125 Mg2 3.150836 1_556
Mg125 Mg4 3.151257 1_556
Mg125 Mg136 3.170574 1_555
Mg125 Mg134 3.170574 1_555
Mg125 Mg145 3.170717 1_545
Mg125 Mg140 3.170717 1_555
Mg125 Mg148 3.173715 1_545
Mg125 Mg146 3.173716 1_555
Mg126 Mg20 3.150835 1_556
Mg126 Mg21 3.150836 1_556
Mg126 Mg16 3.151257 1_556
Mg126 Mg138 3.170574 1_555
Mg126 Mg139 3.170575 1_555
Mg126 Mg143 3.170716 1_555
Mg126 Mg142 3.170732 1_655
Mg126 Mg148 3.173715 1_655
Mg126 Mg147 3.173717 1_555
Mg127 Mg13 3.155127 1_556
Mg127 Mg7 3.164853 1_556
Mg127 Mg99 3.166114 1_555
Mg127 Mg131 3.172056 1_555
Mg127 Mg130 3.172080 1_555
Mg127 Mg141 3.172872 1_555
Mg127 Mg140 3.172897 1_555
Mg127 Mg128 3.173222 1_555
Mg127 Mg129 3.173229 1_555
Mg128 Mg13 3.155135 1_556
Mg128 Mg17 3.155143 1_556
Mg128 Mg18 3.164845 1_556
Mg128 Mg131 3.172056 1_555
Mg128 Mg132 3.172072 1_555
Mg128 Mg142 3.172856 1_555
Mg128 Mg145 3.172881 1_555
Mg128 Mg129 3.173237 1_555
Mg129 Mg17 3.155135 1_556
Mg129 Mg19 3.164853 1_556
Mg129 Mg99 3.166107 1_555
Mg129 Mg130 3.172073 1_555
Mg129 Mg132 3.172073 1_555
Mg129 Mg144 3.172888 1_555
Mg129 Mg143 3.172888 1_555
Mg130 Mg8 3.156769 1_556
Mg130 Mg15 3.156776 1_556
Mg130 Mg99 3.164969 1_555
Mg130 Mg136 3.172225 1_555
Mg130 Mg138 3.172232 1_555
Mg130 Mg140 3.173495 1_555
Mg130 Mg143 3.173510 1_555
Mg131 Mg14 3.156761 1_556
Mg131 Mg9 3.156769 1_556
Mg131 Mg139 3.172224 1_455
Mg131 Mg137 3.172232 1_455
Mg131 Mg142 3.173488 1_555
Mg131 Mg141 3.173520 1_555
Mg132 Mg17 3.153148 1_556
Mg132 Mg22 3.156769 1_556
Mg132 Mg23 3.156776 1_556
Mg132 Mg134 3.172225 1_565
Mg132 Mg135 3.172232 1_565
Mg132 Mg145 3.173495 1_555
Mg132 Mg144 3.173511 1_555
Mg133 Mg6 3.155508 1_556
Mg133 Mg134 3.171848 1_555
Mg133 Mg136 3.171848 1_555
Mg133 Mg138 3.171857 1_555
Mg133 Mg135 3.171857 1_555
Mg133 Mg139 3.171864 1_555
Mg133 Mg137 3.171864 1_555
Mg134 Mg6 3.154533 1_556
Mg134 Mg22 3.155240 1_546
Mg134 Mg4 3.157074 1_556
Mg134 Mg136 3.171830 1_555
Mg134 Mg135 3.171883 1_555
Mg134 Mg145 3.172359 1_545
Mg135 Mg6 3.154533 1_556
Mg135 Mg23 3.155240 1_546
Mg135 Mg5 3.157082 1_556
Mg135 Mg137 3.171829 1_555
Mg135 Mg144 3.172360 1_545
Mg136 Mg8 3.155240 1_556
Mg136 Mg4 3.157082 1_556
Mg136 Mg138 3.171883 1_555
Mg136 Mg140 3.172359 1_555
Mg137 Mg9 3.155240 1_656
Mg137 Mg5 3.157082 1_556
Mg137 Mg139 3.171884 1_555
Mg137 Mg141 3.172375 1_655
Mg138 Mg15 3.155240 1_556
Mg138 Mg16 3.157082 1_556
Mg138 Mg139 3.171829 1_555
Mg138 Mg143 3.172360 1_555
Mg139 Mg14 3.155240 1_656
Mg139 Mg16 3.157074 1_556
Mg139 Mg142 3.172367 1_655
Mg140 Mg7 3.148743 1_556
Mg140 Mg8 3.151902 1_556
Mg140 Mg2 3.168368 1_556
Mg140 Mg141 3.171976 1_555
Mg140 Mg146 3.172994 1_555
Mg141 Mg7 3.148727 1_556
Mg141 Mg9 3.151918 1_556
Mg141 Mg3 3.168368 1_456
Mg141 Mg146 3.172987 1_555
Mg142 Mg18 3.148727 1_556
Mg142 Mg20 3.168368 1_456
Mg142 Mg145 3.171984 1_555
Mg142 Mg148 3.173003 1_555
Mg143 Mg19 3.148743 1_556
Mg143 Mg15 3.151902 1_556
Mg143 Mg21 3.168368 1_556
Mg143 Mg144 3.171993 1_555
Mg143 Mg147 3.172994 1_555
Mg144 Mg19 3.148735 1_556
Mg144 Mg23 3.151903 1_556
Mg144 Mg147 3.172994 1_555
Mg145 Mg18 3.148743 1_556
Mg145 Mg22 3.151902 1_556
Mg145 Mg148 3.172994 1_555
Mg146 Mg2 3.140214 1_556
Mg146 Mg3 3.140215 1_456
Mg146 Mg147 3.167442 1_445
Mg146 Mg148 3.167444 1_545
Mg147 Mg21 3.140215 1_556
Mg147 Mg148 3.167443 1_655
Mg148 Mg20 3.140222 1_456
Cd0 Mg25 3.146690 1_445
Cd0 Mg147 3.146690 1_444
Cd0 Mg26 3.146691 1_545
Cd0 Mg148 3.146691 1_544
Cd0 Mg24 3.146691 1_555
Cd0 Mg146 3.146691 1_554
Cd0 Mg2 3.147887 1_555
Cd0 Mg21 3.147887 1_445
Cd0 Mg0 3.147887 1_555
Cd0 Mg1 3.147887 1_455
Cd0 Mg3 3.147888 1_455
Cd0 Mg20 3.147904 1_445
