# generated using pymatgen
data_Ti2Te2(OF)5
_symmetry_space_group_name_H-M   'P 1'
_cell_length_a   6.67422400
_cell_length_b   7.67475700
_cell_length_c   16.78201200
_cell_angle_alpha   90.00000000
_cell_angle_beta   90.00000000
_cell_angle_gamma   90.00000000
_symmetry_Int_Tables_number   1
_chemical_formula_structural   Ti2Te2(OF)5
_chemical_formula_sum   'Ti8 Te8 O20 F20'
_cell_volume   859.62579553
_cell_formula_units_Z   4
loop_
 _symmetry_equiv_pos_site_id
 _symmetry_equiv_pos_as_xyz
  1  'x, y, z'
loop_
 _atom_site_type_symbol
 _atom_site_label
 _atom_site_symmetry_multiplicity
 _atom_site_fract_x
 _atom_site_fract_y
 _atom_site_fract_z
 _atom_site_occupancy
  Ti  Ti0  1  0.24759000  0.11234300  0.13136100  1
  Ti  Ti1  1  0.75241000  0.88765700  0.86863900  1
  Ti  Ti2  1  0.74759000  0.38765700  0.86863900  1
  Ti  Ti3  1  0.75241000  0.88765700  0.63136100  1
  Ti  Ti4  1  0.25241000  0.61234300  0.13136100  1
  Ti  Ti5  1  0.24759000  0.11234300  0.36863900  1
  Ti  Ti6  1  0.25241000  0.61234300  0.36863900  1
  Ti  Ti7  1  0.74759000  0.38765700  0.63136100  1
  Te  Te0  1  0.22151200  0.13933500  0.63618000  1
  Te  Te1  1  0.77848800  0.86066500  0.36382000  1
  Te  Te2  1  0.72151200  0.36066500  0.36382000  1
  Te  Te3  1  0.77848800  0.86066500  0.13618000  1
  Te  Te4  1  0.27848800  0.63933500  0.63618000  1
  Te  Te5  1  0.22151200  0.13933500  0.86382000  1
  Te  Te6  1  0.27848800  0.63933500  0.86382000  1
  Te  Te7  1  0.72151200  0.36066500  0.13618000  1
  O  O0  1  0.53422900  0.17260300  0.13218200  1
  O  O1  1  0.46577100  0.82739700  0.86781800  1
  O  O2  1  0.03422900  0.32739700  0.86781800  1
  O  O3  1  0.46577100  0.82739700  0.63218200  1
  O  O4  1  0.96577100  0.67260300  0.13218200  1
  O  O5  1  0.53422900  0.17260300  0.36781800  1
  O  O6  1  0.96577100  0.67260300  0.36781800  1
  O  O7  1  0.03422900  0.32739700  0.63218200  1
  O  O8  1  0.53837900  0.55132200  0.13950200  1
  O  O9  1  0.46162100  0.44867800  0.86049800  1
  O  O10  1  0.03837900  0.94867800  0.86049800  1
  O  O11  1  0.46162100  0.44867800  0.63950200  1
  O  O12  1  0.96162100  0.05132200  0.13950200  1
  O  O13  1  0.53837900  0.55132200  0.36049800  1
  O  O14  1  0.96162100  0.05132200  0.36049800  1
  O  O15  1  0.03837900  0.94867800  0.63950200  1
  O  O16  1  0.77663300  0.35214700  0.25000000  1
  O  O17  1  0.22336700  0.64785300  0.75000000  1
  O  O18  1  0.27663300  0.14785300  0.75000000  1
  O  O19  1  0.72336700  0.85214700  0.25000000  1
  F  F0  1  0.23168900  0.11072500  0.02001700  1
  F  F1  1  0.76831100  0.88927500  0.97998300  1
  F  F2  1  0.73168900  0.38927500  0.97998300  1
  F  F3  1  0.76831100  0.88927500  0.52001700  1
  F  F4  1  0.26831100  0.61072500  0.02001700  1
  F  F5  1  0.23168900  0.11072500  0.47998300  1
  F  F6  1  0.26831100  0.61072500  0.47998300  1
  F  F7  1  0.73168900  0.38927500  0.52001700  1
  F  F8  1  0.17746900  0.36290800  0.13492600  1
  F  F9  1  0.82253100  0.63709200  0.86507400  1
  F  F10  1  0.67746900  0.13709200  0.86507400  1
  F  F11  1  0.82253100  0.63709200  0.63492600  1
  F  F12  1  0.32253100  0.86290800  0.13492600  1
  F  F13  1  0.17746900  0.36290800  0.36507400  1
  F  F14  1  0.32253100  0.86290800  0.36507400  1
  F  F15  1  0.67746900  0.13709200  0.63492600  1
  F  F16  1  0.25563000  0.11475700  0.25000000  1
  F  F17  1  0.74437000  0.88524300  0.75000000  1
  F  F18  1  0.75563000  0.38524300  0.75000000  1
  F  F19  1  0.24437000  0.61475700  0.25000000  1
loop_
_geom_bond_atom_site_label_1
_geom_bond_atom_site_label_2
_geom_bond_distance
_geom_bond_site_symmetry_2
O0 Te7 1.910530 1_555
O0 Ti0 1.968249 1_555
O1 Te6 1.910530 1_555
O1 Ti1 1.968249 1_555
O2 Te5 1.910530 1_555
O2 Ti2 1.968249 1_455
O3 Te4 1.910530 1_555
O3 Ti3 1.968249 1_555
O4 Te3 1.910530 1_555
O4 Ti4 1.968249 1_655
O5 Te2 1.910530 1_555
O5 Ti5 1.968249 1_555
O6 Te1 1.910530 1_555
O6 Ti6 1.968249 1_655
O7 Te0 1.910530 1_555
O7 Ti7 1.968249 1_455
O8 Te7 1.907392 1_555
O8 Ti4 1.969981 1_555
O9 Te6 1.907392 1_555
O9 Ti2 1.969981 1_555
O10 Te5 1.907392 1_565
O10 Ti1 1.969981 1_455
O11 Te4 1.907392 1_555
O11 Ti7 1.969981 1_555
O12 Te3 1.907392 1_545
O12 Ti0 1.969981 1_655
O13 Te2 1.907392 1_555
O13 Ti6 1.969981 1_555
O14 Te1 1.907392 1_545
O14 Ti5 1.969981 1_655
O15 Te0 1.907392 1_565
O15 Ti3 1.969981 1_455
O16 Te2 1.946332 1_555
O16 Te7 1.946332 1_555
O17 Te4 1.946332 1_555
O17 Te6 1.946332 1_555
O18 Te0 1.946332 1_555
O18 Te5 1.946332 1_555
O19 Te1 1.946332 1_555
O19 Te3 1.946332 1_555
F0 Ti0 1.871629 1_555
F1 Ti1 1.871629 1_555
F2 Ti2 1.871629 1_555
F3 Ti3 1.871629 1_555
F4 Ti4 1.871629 1_555
F5 Ti5 1.871629 1_555
F6 Ti6 1.871629 1_555
F7 Ti7 1.871629 1_555
F8 Ti4 1.979520 1_555
F8 Ti0 1.980059 1_555
F9 Ti2 1.979520 1_555
F9 Ti1 1.980059 1_555
F10 Ti1 1.979520 1_545
F10 Ti2 1.980059 1_555
F11 Ti7 1.979520 1_555
F11 Ti3 1.980059 1_555
F12 Ti0 1.979520 1_565
F12 Ti4 1.980059 1_555
F13 Ti6 1.979520 1_555
F13 Ti5 1.980059 1_555
F14 Ti5 1.979520 1_565
F14 Ti6 1.980059 1_555
F15 Ti3 1.979520 1_545
F15 Ti7 1.980059 1_555
F16 Ti0 1.991810 1_555
F16 Ti5 1.991810 1_555
F17 Ti1 1.991810 1_555
F17 Ti3 1.991810 1_555
F18 Ti7 1.991810 1_555
F18 Ti2 1.991810 1_555
F19 Ti6 1.991810 1_555
F19 Ti4 1.991810 1_555
