# generated using pymatgen
data_Y6Mg(GeS7)2
_symmetry_space_group_name_H-M   'P 1'
_cell_length_a   9.96558408
_cell_length_b   9.96558408
_cell_length_c   5.69399300
_cell_angle_alpha   90.00000000
_cell_angle_beta   90.00000000
_cell_angle_gamma   120.00000053
_symmetry_Int_Tables_number   1
_chemical_formula_structural   Y6Mg(GeS7)2
_chemical_formula_sum   'Y6 Mg1 Ge2 S14'
_cell_volume   489.72590062
_cell_formula_units_Z   1
loop_
 _symmetry_equiv_pos_site_id
 _symmetry_equiv_pos_as_xyz
  1  'x, y, z'
loop_
 _atom_site_type_symbol
 _atom_site_label
 _atom_site_symmetry_multiplicity
 _atom_site_fract_x
 _atom_site_fract_y
 _atom_site_fract_z
 _atom_site_occupancy
  Y  Y0  1  0.64343100  0.76931000  0.75169500  1
  Y  Y1  1  0.12587900  0.35656900  0.75169500  1
  Y  Y2  1  0.23069000  0.87412100  0.75169500  1
  Y  Y3  1  0.35579600  0.23048400  0.24926200  1
  Y  Y4  1  0.87468800  0.64420400  0.24926200  1
  Y  Y5  1  0.76951600  0.12531200  0.24926200  1
  Mg  Mg0  1  0.00000000  0.00000000  0.51758100  1
  Ge  Ge0  1  0.33333300  0.66666700  0.17075900  1
  Ge  Ge1  1  0.66666700  0.33333300  0.66688800  1
  S  S0  1  0.48405600  0.89963600  0.00664500  1
  S  S1  1  0.41557900  0.51594400  0.00664500  1
  S  S2  1  0.10036400  0.58442100  0.00664500  1
  S  S3  1  0.51596300  0.10043100  0.50360800  1
  S  S4  1  0.58446700  0.48403700  0.50360800  1
  S  S5  1  0.89956900  0.41553300  0.50360800  1
  S  S6  1  0.33333300  0.66666700  0.55482300  1
  S  S7  1  0.66666700  0.33333300  0.05164200  1
  S  S8  1  0.74826000  0.83995000  0.28075100  1
  S  S9  1  0.09169000  0.25174000  0.28075100  1
  S  S10  1  0.16005000  0.90831000  0.28075100  1
  S  S11  1  0.25106000  0.16224100  0.76148800  1
  S  S12  1  0.91118100  0.74894000  0.76148800  1
  S  S13  1  0.83775900  0.08881900  0.76148800  1
loop_
_geom_bond_atom_site_label_1
_geom_bond_atom_site_label_2
_geom_bond_distance
_geom_bond_site_symmetry_2
Mg0 S8 2.579693 1_445
Mg0 S9 2.579693 1_555
Mg0 S10 2.579693 1_545
Mg0 S11 2.599514 1_555
Mg0 S12 2.599514 1_445
Mg0 S13 2.599514 1_455
Ge0 S6 2.186858 1_555
Ge0 S0 2.243271 1_555
Ge0 S2 2.243271 1_555
Ge0 S1 2.243271 1_555
Ge1 S7 2.190787 1_556
Ge1 S5 2.240798 1_555
Ge1 S3 2.240801 1_555
Ge1 S4 2.240815 1_555
S0 Y2 2.811644 1_554
S0 Y0 2.894751 1_554
S0 Y5 2.943003 1_565
S1 Y0 2.811647 1_554
S1 Y1 2.894744 1_554
S1 Y3 2.943006 1_555
S2 Y1 2.811652 1_554
S2 Y2 2.894744 1_554
S2 Y4 2.942997 1_455
S3 Y5 2.813734 1_555
S3 Y3 2.897170 1_555
S3 Y2 2.958442 1_545
S4 Y3 2.813730 1_555
S4 Y4 2.897177 1_555
S4 Y0 2.958440 1_555
S5 Y4 2.813726 1_555
S5 Y5 2.897178 1_555
S5 Y1 2.958448 1_655
S6 Y2 2.948188 1_555
S6 Y1 2.948195 1_555
S6 Y0 2.948197 1_555
S7 Y5 2.956183 1_555
S7 Y4 2.956190 1_555
S7 Y3 2.956192 1_555
S8 Y5 2.749875 1_565
S8 Y4 2.807608 1_555
S8 Y0 2.835883 1_555
S8 Y0 3.150605 1_554
S9 Y3 2.749875 1_555
S9 Y5 2.807608 1_455
S9 Y1 2.835883 1_555
S9 Y1 3.150605 1_554
S10 Y4 2.749875 1_455
S10 Y3 2.807608 1_565
S10 Y2 2.835883 1_555
S10 Y2 3.150605 1_554
S11 Y2 2.775918 1_545
S11 Y1 2.779507 1_555
S11 Y3 2.925055 1_556
S11 Y3 3.057567 1_555
S12 Y0 2.775918 1_555
S12 Y2 2.779507 1_655
S12 Y4 2.925055 1_556
S12 Y4 3.057567 1_555
S13 Y1 2.775918 1_655
S13 Y0 2.779507 1_545
S13 Y5 2.925055 1_556
S13 Y5 3.057567 1_555
