# generated using pymatgen
data_Rb3Tm(SO4)3
_symmetry_space_group_name_H-M   'P 1'
_cell_length_a   9.41269635
_cell_length_b   9.41269635
_cell_length_c   9.43326427
_cell_angle_alpha   70.76036173
_cell_angle_beta   70.76036173
_cell_angle_gamma   109.51419768
_symmetry_Int_Tables_number   1
_chemical_formula_structural   Rb3Tm(SO4)3
_chemical_formula_sum   'Rb6 Tm2 S6 O24'
_cell_volume   646.69209286
_cell_formula_units_Z   2
loop_
 _symmetry_equiv_pos_site_id
 _symmetry_equiv_pos_as_xyz
  1  'x, y, z'
loop_
 _atom_site_type_symbol
 _atom_site_label
 _atom_site_symmetry_multiplicity
 _atom_site_fract_x
 _atom_site_fract_y
 _atom_site_fract_z
 _atom_site_occupancy
  Rb  Rb0  1  0.35048800  0.31414100  0.62100800  1
  Rb  Rb1  1  0.31414100  0.35048800  0.12100800  1
  Rb  Rb2  1  0.79457500  0.66251200  0.02255800  1
  Rb  Rb3  1  0.66251200  0.79457600  0.52255800  1
  Rb  Rb4  1  0.44463800  0.95226600  0.85455400  1
  Rb  Rb5  1  0.95226500  0.44463800  0.35455400  1
  Tm  Tm0  1  0.16288400  0.84207800  0.50404600  1
  Tm  Tm1  1  0.84207800  0.16288400  0.00404600  1
  S  S0  1  0.45336600  0.74369900  0.23703900  1
  S  S1  1  0.74369900  0.45336600  0.73703900  1
  S  S2  1  0.52241500  0.13745100  0.35584900  1
  S  S3  1  0.13745100  0.52241500  0.85584900  1
  S  S4  1  0.95795400  0.07252400  0.64376500  1
  S  S5  1  0.07252400  0.95795400  0.14376500  1
  O  O0  1  0.92618500  0.59304700  0.59917500  1
  O  O1  1  0.59304700  0.92618500  0.09917500  1
  O  O2  1  0.52775200  0.65370000  0.32240000  1
  O  O3  1  0.65370000  0.52775200  0.82240000  1
  O  O4  1  0.31516100  0.75075700  0.36785800  1
  O  O5  1  0.75075700  0.31516100  0.86785800  1
  O  O6  1  0.65709700  0.37581500  0.65499400  1
  O  O7  1  0.37581500  0.65709700  0.15499400  1
  O  O8  1  0.59261500  0.31129500  0.33707000  1
  O  O9  1  0.31129500  0.59261500  0.83707000  1
  O  O10  1  0.66741200  0.10832100  0.27333400  1
  O  O11  1  0.10832100  0.66741200  0.77333400  1
  O  O12  1  0.40432900  0.11135900  0.27992100  1
  O  O13  1  0.11135900  0.40432900  0.77992100  1
  O  O14  1  0.40739800  0.99633400  0.54246600  1
  O  O15  1  0.99633400  0.40739800  0.04246600  1
  O  O16  1  0.79345500  0.02623600  0.64082300  1
  O  O17  1  0.02623600  0.79345500  0.14082300  1
  O  O18  1  0.00654500  0.93346200  0.64626800  1
  O  O19  1  0.93346200  0.00654500  0.14626800  1
  O  O20  1  0.10092400  0.24086500  0.49314000  1
  O  O21  1  0.24086500  0.10092400  0.99314000  1
  O  O22  1  0.07422400  0.93552300  0.30893100  1
  O  O23  1  0.93552300  0.07422400  0.80893100  1
loop_
_geom_bond_atom_site_label_1
_geom_bond_atom_site_label_2
_geom_bond_distance
_geom_bond_site_symmetry_2
O0 S1 1.504175 1_555
O0 Tm0 2.251837 1_655
O0 Rb5 3.052339 1_555
O1 S0 1.504175 1_555
O1 Tm1 2.251837 1_565
O1 Rb4 3.052339 1_554
O2 S0 1.474637 1_555
O2 Rb0 2.887975 1_555
O2 Rb3 3.006186 1_555
O2 Rb2 3.056059 1_555
O3 S1 1.474637 1_555
O3 Rb1 2.887975 1_556
O3 Rb2 3.006182 1_556
O3 Rb3 3.056063 1_555
O4 S0 1.507768 1_555
O4 Tm0 2.186575 1_555
O5 S1 1.507768 1_555
O5 Tm1 2.186575 1_556
O6 S1 1.478822 1_555
O6 Rb0 2.895172 1_555
O6 Rb5 2.927331 1_555
O6 Rb4 3.268569 1_545
O7 S0 1.478822 1_555
O7 Rb1 2.895172 1_555
O7 Rb4 2.927336 1_554
O7 Rb5 3.268576 1_455
O8 S2 1.468015 1_555
O8 Rb0 2.904146 1_555
O8 Rb2 2.994255 1_555
O8 Rb5 3.275422 1_555
O9 S3 1.468015 1_555
O9 Rb1 2.904146 1_556
O9 Rb3 2.994255 1_555
O9 Rb4 3.275431 1_555
O10 S2 1.494762 1_555
O10 Tm1 2.289842 1_555
O10 Rb3 3.084233 1_545
O11 S3 1.494762 1_555
O11 Tm0 2.289842 1_555
O11 Rb2 3.084240 1_456
O12 S2 1.505659 1_555
O12 Tm0 2.347909 1_545
O12 Rb1 2.815260 1_555
O13 S3 1.505659 1_555
O13 Tm1 2.347909 1_456
O13 Rb0 2.815260 1_555
O14 S2 1.509188 1_565
O14 Tm0 2.490100 1_555
O14 Rb4 2.989073 1_555
O14 Rb0 3.471910 1_565
O15 S3 1.509188 1_654
O15 Tm1 2.490100 1_555
O15 Rb5 2.989071 1_555
O15 Rb1 3.471910 1_655
O16 S4 1.474336 1_555
O16 Rb3 2.869221 1_545
O16 Rb4 2.918013 1_545
O16 Rb5 3.381523 1_555
O17 S5 1.474336 1_555
O17 Rb2 2.869228 1_455
O17 Rb5 2.918010 1_455
O17 Rb4 3.381521 1_554
O18 S4 1.519805 1_465
O18 Tm0 2.238397 1_555
O18 Rb2 3.008644 1_456
O19 S5 1.519805 1_645
O19 Tm1 2.238397 1_555
O19 Rb3 3.008644 1_545
O20 S4 1.473812 1_455
O20 Rb5 2.948237 1_455
O20 Rb0 2.963450 1_555
O20 Rb1 3.000303 1_555
O21 S5 1.473812 1_546
O21 Rb4 2.948229 1_545
O21 Rb1 2.963450 1_556
O21 Rb0 3.000303 1_555
O22 S5 1.508064 1_555
O22 Tm0 2.300770 1_555
O22 Rb1 3.225547 1_565
O22 Rb3 3.239696 1_455
O23 S4 1.508064 1_555
O23 Tm1 2.300770 1_556
O23 Rb0 3.225547 1_655
O23 Rb2 3.239694 1_546
