# generated using pymatgen
data_Y2IrAu
_symmetry_space_group_name_H-M   'P 1'
_cell_length_a   4.98336474
_cell_length_b   4.98336474
_cell_length_c   4.98336474
_cell_angle_alpha   60.00000000
_cell_angle_beta   60.00000000
_cell_angle_gamma   60.00000000
_symmetry_Int_Tables_number   1
_chemical_formula_structural   Y2IrAu
_chemical_formula_sum   'Y2 Ir1 Au1'
_cell_volume   87.50906163
_cell_formula_units_Z   1
loop_
 _symmetry_equiv_pos_site_id
 _symmetry_equiv_pos_as_xyz
  1  'x, y, z'
loop_
 _atom_site_type_symbol
 _atom_site_label
 _atom_site_symmetry_multiplicity
 _atom_site_fract_x
 _atom_site_fract_y
 _atom_site_fract_z
 _atom_site_occupancy
  Y  Y0  1  0.25000000  0.25000000  0.25000000  1
  Y  Y1  1  0.75000000  0.75000000  0.75000000  1
  Ir  Ir0  1  0.00000000  0.00000000  0.00000000  1
  Au  Au0  1  0.50000000  0.50000000  0.50000000  1
loop_
_geom_bond_atom_site_label_1
_geom_bond_atom_site_label_2
_geom_bond_distance
_geom_bond_site_symmetry_2
Ir0 Y1 3.051675 1_445
Ir0 Y1 3.051675 1_454
Ir0 Y1 3.051675 1_544
Ir0 Y0 3.051675 1_545
Ir0 Y0 3.051675 1_554
Ir0 Y0 3.051675 1_455
Ir0 Y0 3.051675 1_555
Ir0 Y1 3.051675 1_444
Au0 Y0 3.051675 1_655
Au0 Y1 3.051675 1_545
Au0 Y0 3.051675 1_556
Au0 Y1 3.051675 1_555
Au0 Y1 3.051675 1_554
Au0 Y0 3.051675 1_555
Au0 Y0 3.051675 1_565
Au0 Y1 3.051675 1_455
