# generated using pymatgen
data_CaFe(PO3)4
_symmetry_space_group_name_H-M   'P 1'
_cell_length_a   7.60122145
_cell_length_b   7.60122145
_cell_length_c   10.26340834
_cell_angle_alpha   67.04977873
_cell_angle_beta   67.04977873
_cell_angle_gamma   70.69968952
_symmetry_Int_Tables_number   1
_chemical_formula_structural   CaFe(PO3)4
_chemical_formula_sum   'Ca2 Fe2 P8 O24'
_cell_volume   491.57673974
_cell_formula_units_Z   2
loop_
 _symmetry_equiv_pos_site_id
 _symmetry_equiv_pos_as_xyz
  1  'x, y, z'
loop_
 _atom_site_type_symbol
 _atom_site_label
 _atom_site_symmetry_multiplicity
 _atom_site_fract_x
 _atom_site_fract_y
 _atom_site_fract_z
 _atom_site_occupancy
  Ca  Ca0  1  0.95320600  0.04679400  0.75000000  1
  Ca  Ca1  1  0.04679400  0.95320600  0.25000000  1
  Fe  Fe0  1  0.50000000  0.00000000  0.00000000  1
  Fe  Fe1  1  0.00000000  0.50000000  0.50000000  1
  P  P0  1  0.31901200  0.30375900  0.69473500  1
  P  P1  1  0.69624100  0.68098800  0.80526500  1
  P  P2  1  0.68098800  0.69624100  0.30526500  1
  P  P3  1  0.30375900  0.31901200  0.19473500  1
  P  P4  1  0.71832900  0.27289100  0.47517400  1
  P  P5  1  0.72710900  0.28167100  0.02482600  1
  P  P6  1  0.28167100  0.72710900  0.52482600  1
  P  P7  1  0.27289100  0.71832900  0.97517400  1
  O  O0  1  0.32045500  0.53033200  0.65629400  1
  O  O1  1  0.46966800  0.67954500  0.84370600  1
  O  O2  1  0.67954500  0.46966800  0.34370600  1
  O  O3  1  0.53033200  0.32045500  0.15629400  1
  O  O4  1  0.50131000  0.23351300  0.56513900  1
  O  O5  1  0.76648700  0.49869000  0.93486100  1
  O  O6  1  0.49869000  0.76648700  0.43486100  1
  O  O7  1  0.23351300  0.50131000  0.06513900  1
  O  O8  1  0.35297800  0.19535800  0.84188100  1
  O  O9  1  0.80464200  0.64702200  0.65811900  1
  O  O10  1  0.64702200  0.80464200  0.15811900  1
  O  O11  1  0.19535800  0.35297800  0.34188100  1
  O  O12  1  0.13775700  0.29196100  0.67269300  1
  O  O13  1  0.70803900  0.86224300  0.82730700  1
  O  O14  1  0.86224300  0.70803900  0.32730700  1
  O  O15  1  0.29196100  0.13775700  0.17269300  1
  O  O16  1  0.80143300  0.30912000  0.57296600  1
  O  O17  1  0.69088000  0.19856700  0.92703400  1
  O  O18  1  0.19856600  0.69088000  0.42703400  1
  O  O19  1  0.30912000  0.80143400  0.07296600  1
  O  O20  1  0.82916500  0.11078100  0.41057500  1
  O  O21  1  0.88921900  0.17083500  0.08942500  1
  O  O22  1  0.17083500  0.88921900  0.58942500  1
  O  O23  1  0.11078100  0.82916500  0.91057500  1
loop_
_geom_bond_atom_site_label_1
_geom_bond_atom_site_label_2
_geom_bond_distance
_geom_bond_site_symmetry_2
Ca0 O23 2.233998 1_645
Ca0 O22 2.233998 1_645
Ca0 O13 2.403599 1_545
Ca0 O12 2.403599 1_655
Ca0 O17 2.428363 1_555
Ca0 O16 2.428363 1_555
Ca1 O20 2.233998 1_465
Ca1 O21 2.233998 1_465
Ca1 O14 2.403599 1_455
Ca1 O15 2.403599 1_565
Ca1 O18 2.428359 1_555
Ca1 O19 2.428359 1_555
Fe0 O10 2.127352 1_545
Fe0 O8 2.127352 1_554
Fe0 O19 2.159371 1_545
Fe0 O17 2.159377 1_554
Fe0 O15 2.214853 1_555
Fe0 O13 2.214853 1_544
Fe1 O9 2.127352 1_455
Fe1 O11 2.127352 1_555
Fe1 O18 2.159371 1_555
Fe1 O16 2.159377 1_455
Fe1 O12 2.214853 1_555
Fe1 O14 2.214853 1_455
O0 P6 1.609221 1_555
O0 P0 1.612783 1_555
O1 P7 1.609221 1_555
O1 P1 1.612783 1_555
O2 P4 1.609221 1_555
O2 P2 1.612783 1_555
O3 P5 1.609221 1_555
O3 P3 1.612783 1_555
O4 P4 1.608222 1_555
O4 P0 1.613010 1_555
O5 P5 1.608222 1_556
O5 P1 1.613010 1_555
O6 P6 1.608222 1_555
O6 P2 1.613010 1_555
O7 P7 1.608222 1_554
O7 P3 1.613010 1_555
O8 P0 1.489752 1_555
O9 P1 1.489752 1_555
O10 P2 1.489752 1_555
O11 P3 1.489752 1_555
O12 P0 1.515919 1_555
O13 P1 1.515919 1_555
O14 P2 1.515919 1_555
O15 P3 1.515919 1_555
O16 P4 1.518958 1_555
O17 P5 1.518958 1_556
O18 P6 1.518964 1_555
O19 P7 1.518964 1_554
O20 P4 1.477508 1_555
O21 P5 1.477508 1_555
O22 P6 1.477508 1_555
O23 P7 1.477508 1_555
