# generated using pymatgen
data_Li4MnCo2O7
_symmetry_space_group_name_H-M   'P 1'
_cell_length_a   9.90537492
_cell_length_b   9.90537492
_cell_length_c   9.78303673
_cell_angle_alpha   64.22302776
_cell_angle_beta   64.22302776
_cell_angle_gamma   17.00609849
_symmetry_Int_Tables_number   1
_chemical_formula_structural   Li4MnCo2O7
_chemical_formula_sum   'Li8 Mn2 Co4 O14'
_cell_volume   252.14349511
_cell_formula_units_Z   2
loop_
 _symmetry_equiv_pos_site_id
 _symmetry_equiv_pos_as_xyz
  1  'x, y, z'
loop_
 _atom_site_type_symbol
 _atom_site_label
 _atom_site_symmetry_multiplicity
 _atom_site_fract_x
 _atom_site_fract_y
 _atom_site_fract_z
 _atom_site_occupancy
  Li  Li0  1  0.08248400  0.08248400  0.21379300  1
  Li  Li1  1  0.78072100  0.78072100  0.35354300  1
  Li  Li2  1  0.50615800  0.50615800  0.49935100  1
  Li  Li3  1  0.21313100  0.21313100  0.64891700  1
  Li  Li4  1  0.92829100  0.92829100  0.78749100  1
  Li  Li5  1  0.64842700  0.64842700  0.92667800  1
  Li  Li6  1  0.34625700  0.34625700  0.07315500  1
  Li  Li7  1  0.71412600  0.71412600  0.14471600  1
  Mn  Mn0  1  0.00080200  0.00080200  0.00207400  1
  Mn  Mn1  1  0.85815500  0.85815500  0.57046500  1
  Co  Co0  1  0.42925400  0.42925400  0.28603700  1
  Co  Co1  1  0.14835700  0.14835700  0.40683800  1
  Co  Co2  1  0.57749400  0.57749400  0.69901900  1
  Co  Co3  1  0.27898700  0.27898700  0.88059200  1
  O  O0  1  0.52669300  0.52669300  0.10636000  1
  O  O1  1  0.24607100  0.24607100  0.26412500  1
  O  O2  1  0.95597000  0.95597000  0.38548600  1
  O  O3  1  0.67436000  0.67436000  0.54627600  1
  O  O4  1  0.39020000  0.39020000  0.65953600  1
  O  O5  1  0.09800900  0.09800900  0.83189700  1
  O  O6  1  0.82434100  0.82434100  0.95196300  1
  O  O7  1  0.60735500  0.60735500  0.32760500  1
  O  O8  1  0.33190600  0.33190600  0.46549500  1
  O  O9  1  0.03756400  0.03756400  0.61494700  1
  O  O10  1  0.76127700  0.76127700  0.73727800  1
  O  O11  1  0.47092900  0.47092900  0.90773000  1
  O  O12  1  0.18280000  0.18280000  0.02327800  1
  O  O13  1  0.90279700  0.90279700  0.18535400  1
loop_
_geom_bond_atom_site_label_1
_geom_bond_atom_site_label_2
_geom_bond_distance
_geom_bond_site_symmetry_2
Li0 O7 2.024711 1_455
Li0 O7 2.024711 1_545
Li0 O12 2.028651 1_555
Li0 O2 2.303095 1_445
Li0 O0 2.335597 1_545
Li0 O0 2.335597 1_455
Li1 O1 1.973207 1_655
Li1 O1 1.973207 1_565
Li1 O3 2.107724 1_555
Li1 O13 2.228742 1_555
Li1 O8 2.305715 1_565
Li1 O8 2.305715 1_655
Li2 O7 1.955686 1_555
Li2 O9 2.101100 1_565
Li2 O9 2.101100 1_655
Li2 O4 2.118157 1_555
Li2 O2 2.305697 1_545
Li2 O2 2.305697 1_455
Li3 O3 2.097924 1_545
Li3 O3 2.097924 1_455
Li3 O10 2.121170 1_455
Li3 O10 2.121170 1_545
Li3 O5 2.177459 1_555
Li3 O8 2.227848 1_555
Li4 O6 1.963467 1_555
Li4 O9 2.062768 1_665
Li4 O4 2.256251 1_655
Li4 O4 2.256251 1_565
Li4 O11 2.256305 1_565
Li4 O11 2.256305 1_655
Li5 O12 2.012835 1_566
Li5 O12 2.012835 1_656
Li5 O10 2.172384 1_555
Li5 O5 2.187752 1_655
Li5 O5 2.187752 1_565
Li5 O0 2.256499 1_556
Li6 O1 2.029415 1_555
Li6 O6 2.045224 1_544
Li6 O6 2.045224 1_454
Li6 O11 2.260404 1_554
Li6 O13 2.376233 1_455
Li6 O13 2.376233 1_545
Li7 O7 2.070267 1_555
Li7 O1 2.131789 1_655
Li7 O1 2.131789 1_565
Li7 O12 2.138812 1_565
Li7 O12 2.138812 1_655
Li7 O6 2.153621 1_554
Mn0 O5 1.900180 1_554
Mn0 O11 1.953115 1_544
Mn0 O11 1.953115 1_454
Mn0 O13 1.968347 1_445
Mn0 O0 1.974458 1_455
Mn0 O0 1.974458 1_545
Mn1 O10 1.882033 1_555
Mn1 O4 1.944166 1_565
Mn1 O4 1.944166 1_655
Mn1 O2 1.974296 1_555
Mn1 O8 1.982087 1_565
Mn1 O8 1.982087 1_655
Co0 O8 1.943050 1_555
Co0 O0 1.945103 1_555
Co0 O2 1.952830 1_545
Co0 O2 1.952830 1_455
Co0 O13 1.957820 1_545
Co0 O13 1.957820 1_455
Co1 O1 1.806655 1_555
Co1 O7 1.984683 1_455
Co1 O7 1.984683 1_545
Co1 O3 2.208331 1_455
Co1 O3 2.208331 1_545
Co1 O9 2.229507 1_555
Co2 O3 1.827816 1_555
Co2 O9 1.999886 1_565
Co2 O9 1.999886 1_655
Co2 O5 2.110942 1_565
Co2 O5 2.110942 1_655
Co2 O11 2.186191 1_555
Co3 O12 1.785153 1_556
Co3 O6 1.991968 1_455
Co3 O6 1.991968 1_545
Co3 O10 2.158496 1_545
Co3 O10 2.158496 1_455
Co3 O4 2.298008 1_555
