# generated using pymatgen
data_Mg4FeClO13
_symmetry_space_group_name_H-M   'P 1'
_cell_length_a   8.86669159
_cell_length_b   8.86669159
_cell_length_c   5.08472776
_cell_angle_alpha   83.92780904
_cell_angle_beta   83.92780904
_cell_angle_gamma   141.81562109
_symmetry_Int_Tables_number   1
_chemical_formula_structural   Mg4FeClO13
_chemical_formula_sum   'Mg4 Fe1 Cl1 O13'
_cell_volume   233.84438054
_cell_formula_units_Z   1
loop_
 _symmetry_equiv_pos_site_id
 _symmetry_equiv_pos_as_xyz
  1  'x, y, z'
loop_
 _atom_site_type_symbol
 _atom_site_label
 _atom_site_symmetry_multiplicity
 _atom_site_fract_x
 _atom_site_fract_y
 _atom_site_fract_z
 _atom_site_occupancy
  Mg  Mg0  1  0.99993300  0.00006700  0.00000000  1
  Mg  Mg1  1  0.60515100  0.39484900  0.00000000  1
  Mg  Mg2  1  0.18509900  0.81490100  0.00000000  1
  Mg  Mg3  1  0.38007900  0.61992100  0.00000000  1
  Fe  Fe0  1  0.80151100  0.19848900  0.00000000  1
  Cl  Cl0  1  0.90649200  0.09350800  0.50000000  1
  O  O0  1  0.61307900  0.19775700  0.77219500  1
  O  O1  1  0.17375100  0.61518000  0.76540300  1
  O  O2  1  0.73884600  0.94327900  0.88977700  1
  O  O3  1  0.44197500  0.41879300  0.74238500  1
  O  O4  1  0.95883300  0.77282200  0.84940600  1
  O  O5  1  0.80224300  0.38692100  0.22780500  1
  O  O6  1  0.38482000  0.82624900  0.23459700  1
  O  O7  1  0.05672100  0.26115400  0.11022300  1
  O  O8  1  0.58120700  0.55802500  0.25761500  1
  O  O9  1  0.22717800  0.04116700  0.15059400  1
  O  O10  1  0.75127000  0.24873000  0.50000000  1
  O  O11  1  0.32275700  0.67724300  0.50000000  1
  O  O12  1  0.46905600  0.53094400  0.50000000  1
loop_
_geom_bond_atom_site_label_1
_geom_bond_atom_site_label_2
_geom_bond_distance
_geom_bond_site_symmetry_2
Mg0 O9 2.002534 1_655
Mg0 O4 2.002534 1_544
Mg0 O2 2.104403 1_544
Mg0 O7 2.104403 1_655
Mg0 O3 2.423001 1_654
Mg0 O8 2.423001 1_545
Mg1 O9 2.019768 1_555
Mg1 O4 2.019768 1_554
Mg1 O8 2.163156 1_555
Mg1 O3 2.163156 1_554
Mg1 O5 2.237130 1_555
Mg1 O0 2.237130 1_554
Mg2 O4 1.989783 1_454
Mg2 O9 1.989783 1_565
Mg2 O6 2.182015 1_555
Mg2 O1 2.182015 1_554
Mg2 O5 2.291897 1_455
Mg2 O0 2.291897 1_564
Mg3 O2 1.897012 1_554
Mg3 O7 1.897012 1_555
Mg3 O1 2.263396 1_554
Mg3 O6 2.263396 1_555
Mg3 O3 2.660462 1_554
Mg3 O8 2.660462 1_555
Fe0 O2 2.025100 1_544
Fe0 O7 2.025100 1_655
Fe0 O5 2.127724 1_555
Fe0 O0 2.127724 1_554
Fe0 O6 2.243099 1_545
Fe0 O1 2.243099 1_654
Cl0 O7 1.901939 1_655
Cl0 O2 1.901939 1_545
O0 O10 1.503157 1_555
O1 O11 1.480627 1_555
O10 O5 1.503157 1_555
O11 O6 1.480627 1_555
O12 O3 1.366823 1_555
O12 O8 1.366823 1_555
