# generated using pymatgen
data_RbAgO
_symmetry_space_group_name_H-M   'P 1'
_cell_length_a   4.51349228
_cell_length_b   4.51349228
_cell_length_c   4.51349228
_cell_angle_alpha   60.00000000
_cell_angle_beta   60.00000000
_cell_angle_gamma   60.00000000
_symmetry_Int_Tables_number   1
_chemical_formula_structural   RbAgO
_chemical_formula_sum   'Rb1 Ag1 O1'
_cell_volume   65.01642937
_cell_formula_units_Z   1
loop_
 _symmetry_equiv_pos_site_id
 _symmetry_equiv_pos_as_xyz
  1  'x, y, z'
loop_
 _atom_site_type_symbol
 _atom_site_label
 _atom_site_symmetry_multiplicity
 _atom_site_fract_x
 _atom_site_fract_y
 _atom_site_fract_z
 _atom_site_occupancy
  Rb  Rb0  1  0.50000000  0.50000000  0.50000000  1
  Ag  Ag0  1  0.00000000  0.00000000  0.00000000  1
  O  O0  1  0.25000000  0.25000000  0.25000000  1
loop_
_geom_bond_atom_site_label_1
_geom_bond_atom_site_label_2
_geom_bond_distance
_geom_bond_site_symmetry_2
Ag0 O0 2.763938 1_555
Ag0 O0 2.763938 1_455
Ag0 O0 2.763938 1_554
Ag0 O0 2.763938 1_545
Ag0 Rb0 3.191521 1_454
Ag0 Rb0 3.191521 1_544
Ag0 Rb0 3.191521 1_545
Ag0 Rb0 3.191521 1_445
Ag0 Rb0 3.191521 1_554
Ag0 Rb0 3.191521 1_455
O0 Rb0 2.763938 1_455
O0 Rb0 2.763938 1_555
O0 Rb0 2.763938 1_554
O0 Rb0 2.763938 1_545
