# generated using pymatgen
data_Li2CoSiO4
_symmetry_space_group_name_H-M   'P 1'
_cell_length_a   10.43431800
_cell_length_b   5.29480900
_cell_length_c   13.02108500
_cell_angle_alpha   90.00000000
_cell_angle_beta   90.00000000
_cell_angle_gamma   90.00000000
_symmetry_Int_Tables_number   1
_chemical_formula_structural   Li2CoSiO4
_chemical_formula_sum   'Li16 Co8 Si8 O32'
_cell_volume   719.38526931
_cell_formula_units_Z   8
loop_
 _symmetry_equiv_pos_site_id
 _symmetry_equiv_pos_as_xyz
  1  'x, y, z'
loop_
 _atom_site_type_symbol
 _atom_site_label
 _atom_site_symmetry_multiplicity
 _atom_site_fract_x
 _atom_site_fract_y
 _atom_site_fract_z
 _atom_site_occupancy
  Li  Li0  1  0.96272700  0.94844400  0.56419900  1
  Li  Li1  1  0.95130000  0.44520800  0.93699300  1
  Li  Li2  1  0.21416500  0.37016100  0.29760000  1
  Li  Li3  1  0.21654400  0.86613500  0.19976600  1
  Li  Li4  1  0.28345600  0.86613500  0.69976600  1
  Li  Li5  1  0.28583500  0.37016100  0.79760000  1
  Li  Li6  1  0.54870000  0.44520800  0.43699300  1
  Li  Li7  1  0.53727300  0.94844400  0.06419900  1
  Li  Li8  1  0.45130000  0.55479200  0.93699300  1
  Li  Li9  1  0.46272700  0.05155600  0.56419900  1
  Li  Li10  1  0.71416500  0.62983900  0.29760000  1
  Li  Li11  1  0.71654400  0.13386500  0.19976600  1
  Li  Li12  1  0.78345600  0.13386500  0.69976600  1
  Li  Li13  1  0.78583500  0.62983900  0.79760000  1
  Li  Li14  1  0.04870000  0.55479200  0.43699300  1
  Li  Li15  1  0.03727300  0.05155600  0.06419900  1
  Co  Co0  1  0.03752500  0.94980600  0.81329500  1
  Co  Co1  1  0.20856100  0.53712600  0.05727500  1
  Co  Co2  1  0.29143900  0.53712600  0.55727500  1
  Co  Co3  1  0.46247500  0.94980600  0.31329500  1
  Co  Co4  1  0.53752500  0.05019400  0.81329500  1
  Co  Co5  1  0.70856100  0.46287400  0.05727500  1
  Co  Co6  1  0.79143900  0.46287400  0.55727500  1
  Co  Co7  1  0.96247500  0.05019400  0.31329500  1
  Si  Si0  1  0.03407500  0.45668900  0.68663200  1
  Si  Si1  1  0.20783800  0.04078800  0.44203000  1
  Si  Si2  1  0.29216200  0.04078800  0.94203000  1
  Si  Si3  1  0.46592500  0.45668900  0.18663200  1
  Si  Si4  1  0.53407500  0.54331100  0.68663200  1
  Si  Si5  1  0.70783800  0.95921200  0.44203000  1
  Si  Si6  1  0.79216200  0.95921200  0.94203000  1
  Si  Si7  1  0.96592500  0.54331100  0.18663200  1
  O  O0  1  0.02448700  0.40338200  0.29054100  1
  O  O1  1  0.01025100  0.84415200  0.19133700  1
  O  O2  1  0.06027100  0.93147300  0.43635400  1
  O  O3  1  0.03032000  0.42564100  0.08064800  1
  O  O4  1  0.19066500  0.50942100  0.68698300  1
  O  O5  1  0.22534200  0.99304900  0.82790000  1
  O  O6  1  0.20575100  0.35324600  0.44959700  1
  O  O7  1  0.21340800  0.91603000  0.03893100  1
  O  O8  1  0.28659200  0.91603000  0.53893100  1
  O  O9  1  0.29424900  0.35324600  0.94959700  1
  O  O10  1  0.27465900  0.99304900  0.32790000  1
  O  O11  1  0.30933500  0.50942100  0.18698300  1
  O  O12  1  0.46968000  0.42564100  0.58064800  1
  O  O13  1  0.43972900  0.93147300  0.93635400  1
  O  O14  1  0.48974900  0.84415200  0.69133700  1
  O  O15  1  0.47551300  0.40338200  0.79054100  1
  O  O16  1  0.52448700  0.59661800  0.29054100  1
  O  O17  1  0.51025100  0.15584800  0.19133700  1
  O  O18  1  0.56027100  0.06852700  0.43635400  1
  O  O19  1  0.53032000  0.57435900  0.08064800  1
  O  O20  1  0.69066500  0.49057900  0.68698300  1
  O  O21  1  0.72534100  0.00695100  0.82790000  1
  O  O22  1  0.70575100  0.64675400  0.44959700  1
  O  O23  1  0.71340800  0.08397000  0.03893100  1
  O  O24  1  0.78659200  0.08397000  0.53893100  1
  O  O25  1  0.79424900  0.64675400  0.94959700  1
  O  O26  1  0.77465900  0.00695100  0.32790000  1
  O  O27  1  0.80933500  0.49057900  0.18698300  1
  O  O28  1  0.96968000  0.57435900  0.58064800  1
  O  O29  1  0.93972900  0.06852700  0.93635400  1
  O  O30  1  0.98974900  0.15584800  0.69133700  1
  O  O31  1  0.97551300  0.59661800  0.79054100  1
loop_
_geom_bond_atom_site_label_1
_geom_bond_atom_site_label_2
_geom_bond_distance
_geom_bond_site_symmetry_2
Li0 O2 1.953244 1_655
Li0 O28 1.993576 1_555
Li0 O24 2.000217 1_565
Li0 O30 2.006505 1_565
Li1 O25 1.962433 1_555
Li1 O29 1.998122 1_555
Li1 O3 2.046827 1_656
Li1 O31 2.083997 1_555
Li2 O11 1.898533 1_555
Li2 O6 1.983136 1_555
Li2 O0 1.989087 1_555
Li2 O10 2.130973 1_545
Li3 O10 1.898151 1_555
Li3 O7 2.111097 1_555
Li3 O11 2.128955 1_555
Li3 O1 2.158464 1_555
Li4 O5 1.898148 1_555
Li4 O8 2.111097 1_555
Li4 O4 2.128955 1_555
Li4 O14 2.158464 1_555
Li5 O4 1.898533 1_555
Li5 O9 1.983136 1_555
Li5 O15 1.989087 1_555
Li5 O5 2.130970 1_545
Li6 O22 1.962433 1_555
Li6 O18 1.998122 1_555
Li6 O12 2.046827 1_555
Li6 O16 2.083997 1_555
Li7 O13 1.953244 1_554
Li7 O19 1.993576 1_555
Li7 O23 2.000217 1_565
Li7 O17 2.006505 1_565
Li8 O9 1.962433 1_555
Li8 O13 1.998122 1_555
Li8 O19 2.046827 1_556
Li8 O15 2.083997 1_555
Li9 O18 1.953244 1_555
Li9 O12 1.993576 1_555
Li9 O8 2.000217 1_545
Li9 O14 2.006505 1_545
Li10 O27 1.898533 1_555
Li10 O22 1.983136 1_555
Li10 O16 1.989087 1_555
Li10 O26 2.130973 1_565
Li11 O26 1.898151 1_555
Li11 O23 2.111097 1_555
Li11 O27 2.128955 1_555
Li11 O17 2.158464 1_555
Li12 O21 1.898151 1_555
Li12 O24 2.111097 1_555
Li12 O20 2.128955 1_555
Li12 O30 2.158464 1_555
Li13 O20 1.898533 1_555
Li13 O25 1.983136 1_555
Li13 O31 1.989087 1_555
Li13 O21 2.130973 1_565
Li14 O6 1.962433 1_555
Li14 O2 1.998122 1_555
Li14 O28 2.046827 1_455
Li14 O0 2.083997 1_555
Li15 O29 1.953244 1_454
Li15 O3 1.993576 1_555
Li15 O7 2.000217 1_545
Li15 O1 2.006505 1_545
Co0 O5 1.982216 1_555
Co0 O30 1.990104 1_465
Co0 O31 2.000899 1_455
Co0 O29 2.000998 1_465
Co1 O9 1.926957 1_554
Co1 O3 1.974845 1_555
Co1 O11 1.994919 1_555
Co1 O7 2.021026 1_555
Co2 O6 1.926957 1_555
Co2 O12 1.974845 1_555
Co2 O4 1.994919 1_555
Co2 O8 2.021026 1_555
Co3 O10 1.982206 1_555
Co3 O17 1.990104 1_565
Co3 O16 2.000899 1_555
Co3 O18 2.000998 1_565
Co4 O21 1.982206 1_555
Co4 O14 1.990104 1_545
Co4 O15 2.000899 1_555
Co4 O13 2.000998 1_545
Co5 O25 1.926957 1_554
Co5 O19 1.974845 1_555
Co5 O27 1.994919 1_555
Co5 O23 2.021026 1_555
Co6 O22 1.926957 1_555
Co6 O28 1.974845 1_555
Co6 O20 1.994919 1_555
Co6 O24 2.021026 1_555
Co7 O26 1.982206 1_555
Co7 O1 1.990104 1_645
Co7 O0 2.000899 1_655
Co7 O2 2.000998 1_645
O0 Si7 1.659201 1_455
O1 Si7 1.659815 1_455
O2 Si1 1.646614 1_565
O3 Si7 1.656540 1_455
O4 Si0 1.657600 1_555
O5 Si2 1.660871 1_565
O6 Si1 1.657480 1_555
O7 Si2 1.644276 1_564
O8 Si1 1.644276 1_565
O9 Si2 1.657480 1_555
O10 Si1 1.660875 1_565
O11 Si3 1.657600 1_555
O12 Si4 1.656540 1_555
O13 Si2 1.646614 1_565
O14 Si4 1.659815 1_555
O15 Si4 1.659201 1_555
O16 Si3 1.659201 1_555
O17 Si3 1.659815 1_555
O18 Si5 1.646614 1_545
O19 Si3 1.656540 1_555
O20 Si4 1.657600 1_555
O21 Si6 1.660875 1_545
O22 Si5 1.657480 1_555
O23 Si6 1.644276 1_544
O24 Si5 1.644276 1_545
O25 Si6 1.657480 1_555
O26 Si5 1.660875 1_545
O27 Si7 1.657600 1_555
O28 Si0 1.656540 1_655
O29 Si6 1.646614 1_545
O30 Si0 1.659815 1_655
O31 Si0 1.659201 1_655
