# generated using pymatgen
data_Sm3Co11B4
_symmetry_space_group_name_H-M   'P 1'
_cell_length_a   5.05919700
_cell_length_b   5.05919664
_cell_length_c   9.69150500
_cell_angle_alpha   90.00000000
_cell_angle_beta   90.00000000
_cell_angle_gamma   119.99999580
_symmetry_Int_Tables_number   1
_chemical_formula_structural   Sm3Co11B4
_chemical_formula_sum   'Sm3 Co11 B4'
_cell_volume   214.82510114
_cell_formula_units_Z   1
loop_
 _symmetry_equiv_pos_site_id
 _symmetry_equiv_pos_as_xyz
  1  'x, y, z'
loop_
 _atom_site_type_symbol
 _atom_site_label
 _atom_site_symmetry_multiplicity
 _atom_site_fract_x
 _atom_site_fract_y
 _atom_site_fract_z
 _atom_site_occupancy
  Sm  Sm0  1  0.00000000  0.00000000  0.00000000  1
  Sm  Sm1  1  0.00000000  0.00000000  0.65954500  1
  Sm  Sm2  1  0.00000000  0.00000000  0.34045500  1
  Co  Co0  1  0.66666700  0.33333300  0.00000000  1
  Co  Co1  1  0.33333300  0.66666700  0.00000000  1
  Co  Co2  1  0.50000000  0.50000000  0.50000000  1
  Co  Co3  1  0.50000000  0.00000000  0.50000000  1
  Co  Co4  1  0.00000000  0.50000000  0.50000000  1
  Co  Co5  1  0.50000000  0.50000000  0.79741200  1
  Co  Co6  1  0.50000000  0.00000000  0.79741200  1
  Co  Co7  1  0.00000000  0.50000000  0.79741200  1
  Co  Co8  1  0.50000000  0.50000000  0.20258800  1
  Co  Co9  1  0.50000000  0.00000000  0.20258800  1
  Co  Co10  1  0.00000000  0.50000000  0.20258800  1
  B  B0  1  0.66666700  0.33333300  0.65019500  1
  B  B1  1  0.33333300  0.66666700  0.65019500  1
  B  B2  1  0.33333300  0.66666700  0.34980500  1
  B  B3  1  0.66666700  0.33333300  0.34980500  1
loop_
_geom_bond_atom_site_label_1
_geom_bond_atom_site_label_2
_geom_bond_distance
_geom_bond_site_symmetry_2
Co0 Co6 2.447003 1_554
Co0 Co9 2.447003 1_555
Co0 Co7 2.447003 1_654
Co0 Co10 2.447003 1_655
Co0 Co8 2.447005 1_555
Co0 Co5 2.447005 1_554
Co0 Sm0 2.920926 1_655
Co0 Sm0 2.920930 1_665
Co0 Sm0 2.920930 1_555
Co1 Co9 2.447003 1_565
Co1 Co6 2.447003 1_564
Co1 Co10 2.447003 1_555
Co1 Co7 2.447003 1_554
Co1 Co8 2.447005 1_555
Co1 Co5 2.447005 1_554
Co1 Sm0 2.920926 1_565
Co1 Sm0 2.920930 1_555
Co1 Sm0 2.920930 1_665
Co2 Sm1 2.964743 1_555
Co2 Sm1 2.964743 1_665
Co2 Sm2 2.964743 1_555
Co2 Sm2 2.964743 1_665
Co3 Sm1 2.964743 1_655
Co3 Sm1 2.964743 1_555
Co3 Sm2 2.964743 1_555
Co3 Sm2 2.964743 1_655
Co4 Sm1 2.964743 1_555
Co4 Sm1 2.964743 1_565
Co4 Sm2 2.964743 1_565
Co4 Sm2 2.964743 1_555
Co5 Sm1 2.860793 1_665
Co5 Sm1 2.860793 1_555
Co6 Sm1 2.860793 1_655
Co6 Sm1 2.860793 1_555
Co7 Sm1 2.860793 1_565
Co7 Sm1 2.860793 1_555
Co8 Sm2 2.860793 1_555
Co8 Sm2 2.860793 1_665
Co9 Sm2 2.860793 1_655
Co9 Sm2 2.860793 1_555
Co10 Sm2 2.860793 1_555
Co10 Sm2 2.860793 1_565
B0 Co6 2.041710 1_555
B0 Co7 2.041710 1_655
B0 Co5 2.041713 1_555
B0 Co3 2.061982 1_555
B0 Co4 2.061982 1_655
B0 Co2 2.061985 1_555
B0 Sm1 2.922331 1_655
B0 Sm1 2.922335 1_665
B0 Sm1 2.922336 1_555
B1 Co6 2.041710 1_565
B1 Co7 2.041710 1_555
B1 Co5 2.041713 1_555
B1 Co3 2.061982 1_565
B1 Co4 2.061982 1_555
B1 Co2 2.061985 1_555
B1 Sm1 2.922331 1_565
B1 Sm1 2.922335 1_555
B1 Sm1 2.922336 1_665
B2 Co9 2.041710 1_565
B2 Co10 2.041710 1_555
B2 Co8 2.041713 1_555
B2 Co3 2.061982 1_565
B2 Co4 2.061982 1_555
B2 Co2 2.061985 1_555
B2 Sm2 2.922331 1_565
B2 Sm2 2.922335 1_555
B2 Sm2 2.922336 1_665
B3 Co9 2.041710 1_555
B3 Co10 2.041710 1_655
B3 Co8 2.041713 1_555
B3 Co3 2.061982 1_555
B3 Co4 2.061982 1_655
B3 Co2 2.061985 1_555
B3 Sm2 2.922331 1_655
B3 Sm2 2.922335 1_665
B3 Sm2 2.922336 1_555
