# generated using pymatgen
data_Dy3(P3Pd10)2
_symmetry_space_group_name_H-M   'P 1'
_cell_length_a   8.61698498
_cell_length_b   8.61710200
_cell_length_c   8.61698689
_cell_angle_alpha   59.99963688
_cell_angle_beta   59.99973313
_cell_angle_gamma   59.99960824
_symmetry_Int_Tables_number   1
_chemical_formula_structural   Dy3(P3Pd10)2
_chemical_formula_sum   'Dy3 P6 Pd20'
_cell_volume   452.43234966
_cell_formula_units_Z   1
loop_
 _symmetry_equiv_pos_site_id
 _symmetry_equiv_pos_as_xyz
  1  'x, y, z'
loop_
 _atom_site_type_symbol
 _atom_site_label
 _atom_site_symmetry_multiplicity
 _atom_site_fract_x
 _atom_site_fract_y
 _atom_site_fract_z
 _atom_site_occupancy
  Dy  Dy0  1  0.24999860  0.24999850  0.25000236  1
  Dy  Dy1  1  0.75000165  0.75000065  0.74999823  1
  Dy  Dy2  1  -0.00000115  0.00000240  -0.00000372  1
  P  P0  1  0.73698055  0.26301974  0.26302118  1
  P  P1  1  0.26301987  0.73697924  0.73697974  1
  P  P2  1  0.26301961  0.73697933  0.26302177  1
  P  P3  1  0.73698060  0.26302006  0.73697862  1
  P  P4  1  0.26302036  0.26302088  0.73697965  1
  P  P5  1  0.73698047  0.73697807  0.26302110  1
  Pd  Pd0  1  0.38426011  0.38425614  0.38426869  1
  Pd  Pd1  1  0.61573832  0.61573665  0.61573741  1
  Pd  Pd2  1  0.38426697  0.38426191  0.84720910  1
  Pd  Pd3  1  0.38426008  0.84721598  0.38426822  1
  Pd  Pd4  1  0.61573819  0.61573737  0.15278775  1
  Pd  Pd5  1  0.61573894  0.15278603  0.61573829  1
  Pd  Pd6  1  0.84721177  0.38425809  0.38427023  1
  Pd  Pd7  1  0.15278833  0.61573753  0.61573884  1
  Pd  Pd8  1  0.34539269  0.00000471  0.99999558  1
  Pd  Pd9  1  0.65461043  0.00000403  -0.00000498  1
  Pd  Pd10  1  -0.00000113  0.34539239  0.65460410  1
  Pd  Pd11  1  0.99999576  0.65460524  0.34539891  1
  Pd  Pd12  1  0.00000278  0.34542190  -0.00000300  1
  Pd  Pd13  1  0.65460615  -0.00000066  0.34539371  1
  Pd  Pd14  1  0.00000133  0.65457957  -0.00000394  1
  Pd  Pd15  1  0.34538846  0.00000173  0.65460755  1
  Pd  Pd16  1  0.99999686  0.00000025  0.34539916  1
  Pd  Pd17  1  0.00000057  0.00000439  0.65460580  1
  Pd  Pd18  1  0.65460950  0.34538766  -0.00000376  1
  Pd  Pd19  1  0.34539336  0.65461020  0.99999339  1
loop_
_geom_bond_atom_site_label_1
_geom_bond_atom_site_label_2
_geom_bond_distance
_geom_bond_site_symmetry_2
Dy0 Pd6 2.833891 1_455
Dy0 Pd3 2.833897 1_545
Dy0 Pd0 2.833914 1_555
Dy0 Pd2 2.833938 1_554
Dy0 Pd12 3.325021 1_555
Dy0 Pd14 3.325045 1_555
Dy0 Pd17 3.325079 1_555
Dy0 Pd10 3.325085 1_555
Dy0 Pd15 3.325085 1_555
Dy0 Pd13 3.325107 1_555
Dy0 Pd18 3.325133 1_555
Dy0 Pd16 3.325136 1_455
Dy0 Pd9 3.325144 1_555
Dy0 Pd8 3.325150 1_554
Dy0 Pd11 3.325163 1_455
Dy0 Pd19 3.325193 1_554
Dy1 Pd7 2.833890 1_655
Dy1 Pd4 2.833912 1_556
Dy1 Pd5 2.833917 1_565
Dy1 Pd1 2.833933 1_555
Dy1 Pd14 3.325002 1_656
Dy1 Pd12 3.325023 1_656
Dy1 Pd11 3.325073 1_555
Dy1 Pd16 3.325074 1_565
Dy1 Pd13 3.325102 1_565
Dy1 Pd19 3.325119 1_555
Dy1 Pd8 3.325132 1_565
Dy1 Pd15 3.325145 1_565
Dy1 Pd9 3.325157 1_566
Dy1 Pd10 3.325165 1_655
Dy1 Pd17 3.325171 1_665
Dy1 Pd18 3.325193 1_556
Dy2 Pd18 2.976200 1_455
Dy2 Pd15 2.976202 1_554
Dy2 Pd9 2.976205 1_455
Dy2 Pd17 2.976209 1_554
Dy2 Pd10 2.976234 1_554
Dy2 Pd19 2.976252 1_544
Dy2 Pd13 2.976252 1_455
Dy2 Pd8 2.976260 1_554
Dy2 Pd11 2.976310 1_445
Dy2 Pd16 2.976314 1_455
Dy2 Pd14 2.976534 1_545
Dy2 Pd12 2.976535 1_555
Dy2 P3 3.205193 1_454
Dy2 P1 3.205242 1_544
Dy2 P4 3.205245 1_554
Dy2 P2 3.205256 1_545
Dy2 P0 3.205258 1_455
Dy2 P5 3.205262 1_445
P0 Pd16 2.374977 1_555
P0 Pd18 2.375029 1_555
P0 Pd13 2.375030 1_555
P0 Pd12 2.375083 1_655
P0 Pd5 2.482221 1_555
P0 Pd0 2.482243 1_555
P0 Pd4 2.482255 1_555
P0 Pd6 2.482259 1_555
P1 Pd19 2.374946 1_555
P1 Pd17 2.374999 1_565
P1 Pd15 2.375017 1_565
P1 Pd14 2.375034 1_556
P1 Pd3 2.482181 1_555
P1 Pd7 2.482227 1_555
P1 Pd1 2.482229 1_555
P1 Pd2 2.482254 1_555
P2 Pd16 2.375021 1_465
P2 Pd11 2.375021 1_455
P2 Pd19 2.375041 1_554
P2 Pd8 2.375045 1_564
P2 Pd7 2.482221 1_555
P2 Pd4 2.482230 1_555
P2 Pd3 2.482292 1_555
P2 Pd0 2.482293 1_555
P3 Pd18 2.374952 1_556
P3 Pd9 2.374959 1_556
P3 Pd17 2.374973 1_655
P3 Pd10 2.374973 1_655
P3 Pd6 2.482159 1_555
P3 Pd2 2.482195 1_555
P3 Pd5 2.482239 1_555
P3 Pd1 2.482246 1_555
P4 Pd8 2.374952 1_555
P4 Pd10 2.375014 1_555
P4 Pd15 2.375019 1_555
P4 Pd12 2.375034 1_556
P4 Pd0 2.482177 1_555
P4 Pd5 2.482230 1_555
P4 Pd7 2.482248 1_555
P4 Pd2 2.482248 1_555
P5 Pd11 2.374971 1_555
P5 Pd13 2.375022 1_565
P5 Pd9 2.375028 1_565
P5 Pd14 2.375079 1_655
P5 Pd1 2.482215 1_555
P5 Pd3 2.482242 1_555
P5 Pd4 2.482242 1_555
P5 Pd6 2.482272 1_555
Pd0 Pd10 3.019584 1_555
Pd0 Pd15 3.019592 1_555
Pd0 Pd13 3.019625 1_555
Pd0 Pd11 3.019637 1_455
Pd0 Pd18 3.019690 1_555
Pd0 Pd19 3.019711 1_554
Pd1 Pd11 3.019575 1_555
Pd1 Pd19 3.019586 1_555
Pd1 Pd10 3.019598 1_655
Pd1 Pd18 3.019605 1_556
Pd1 Pd13 3.019645 1_565
Pd1 Pd15 3.019674 1_565
Pd2 Pd9 3.019603 1_556
Pd2 Pd8 3.019640 1_555
Pd3 Pd9 3.019689 1_565
Pd3 Pd8 3.019690 1_564
Pd4 Pd8 3.019666 1_564
Pd4 Pd9 3.019699 1_565
Pd5 Pd9 3.019587 1_556
Pd5 Pd8 3.019590 1_555
Pd8 Pd9 2.664519 1_556
Pd10 Pd11 2.664453 1_455
Pd10 Pd18 2.976215 1_456
Pd10 Pd15 2.976224 1_555
Pd10 Pd17 2.976229 1_555
Pd10 Pd12 2.976390 1_556
Pd10 Pd6 3.019555 1_455
Pd10 Pd7 3.019697 1_555
Pd11 Pd13 2.976239 1_565
Pd11 Pd19 2.976308 1_654
Pd11 Pd16 2.976310 1_565
Pd11 Pd14 2.976418 1_655
Pd11 Pd7 3.019632 1_655
Pd11 Pd6 3.019651 1_555
Pd12 Pd14 2.664033 1_555
Pd12 Pd8 2.976340 1_554
Pd12 Pd18 2.976400 1_455
Pd12 Pd16 2.976413 1_455
Pd12 Pd7 3.019495 1_554
Pd12 Pd2 3.019526 1_554
Pd12 Pd4 3.019532 1_455
Pd12 Pd6 3.019580 1_455
Pd13 Pd15 2.664497 1_555
Pd13 Pd18 2.976250 1_555
Pd13 Pd16 2.976254 1_555
Pd13 Pd9 2.976257 1_555
Pd13 Pd3 3.019609 1_545
Pd13 Pd5 3.019650 1_555
Pd14 Pd19 2.976358 1_554
Pd14 Pd9 2.976375 1_465
Pd14 Pd17 2.976376 1_564
Pd14 Pd7 3.019479 1_554
Pd14 Pd4 3.019520 1_455
Pd14 Pd2 3.019536 1_554
Pd14 Pd6 3.019595 1_455
Pd15 Pd17 2.976198 1_555
Pd15 Pd19 2.976213 1_545
Pd15 Pd8 2.976235 1_555
Pd15 Pd3 3.019583 1_545
Pd15 Pd5 3.019673 1_555
Pd16 Pd17 2.664463 1_655
Pd16 Pd8 2.976292 1_654
Pd16 Pd5 3.019575 1_555
Pd16 Pd7 3.019623 1_645
Pd16 Pd3 3.019625 1_645
Pd16 Pd6 3.019634 1_555
Pd17 Pd9 2.976206 1_456
Pd17 Pd6 3.019563 1_455
Pd17 Pd3 3.019582 1_545
Pd17 Pd5 3.019610 1_455
Pd17 Pd7 3.019687 1_545
Pd18 Pd19 2.664541 1_554
Pd18 Pd9 2.976207 1_555
Pd18 Pd2 3.019589 1_554
Pd18 Pd4 3.019721 1_555
Pd19 Pd8 2.976306 1_565
Pd19 Pd2 3.019652 1_555
Pd19 Pd4 3.019661 1_556
