# generated using pymatgen
data_CsEu(PO3)4
_symmetry_space_group_name_H-M   'P 1'
_cell_length_a   9.13806400
_cell_length_b   10.64252200
_cell_length_c   13.16750014
_cell_angle_alpha   56.28383227
_cell_angle_beta   90.00000000
_cell_angle_gamma   90.00000000
_symmetry_Int_Tables_number   1
_chemical_formula_structural   CsEu(PO3)4
_chemical_formula_sum   'Cs4 Eu4 P16 O48'
_cell_volume   1065.17191339
_cell_formula_units_Z   4
loop_
 _symmetry_equiv_pos_site_id
 _symmetry_equiv_pos_as_xyz
  1  'x, y, z'
loop_
 _atom_site_type_symbol
 _atom_site_label
 _atom_site_symmetry_multiplicity
 _atom_site_fract_x
 _atom_site_fract_y
 _atom_site_fract_z
 _atom_site_occupancy
  Cs  Cs0  1  0.43579000  0.77478700  0.03890300  1
  Cs  Cs1  1  0.06421000  0.77478700  0.53890300  1
  Cs  Cs2  1  0.56421000  0.22521300  0.96109700  1
  Cs  Cs3  1  0.93579000  0.22521300  0.46109700  1
  Eu  Eu0  1  0.72569300  0.68248700  0.31932600  1
  Eu  Eu1  1  0.77430700  0.68248700  0.81932600  1
  Eu  Eu2  1  0.27430700  0.31751300  0.68067400  1
  Eu  Eu3  1  0.22569300  0.31751300  0.18067400  1
  P  P0  1  0.32484700  0.67498200  0.36489300  1
  P  P1  1  0.17515300  0.67498200  0.86489300  1
  P  P2  1  0.67515300  0.32501800  0.63510700  1
  P  P3  1  0.82484700  0.32501800  0.13510700  1
  P  P4  1  0.53088000  0.03449900  0.71318500  1
  P  P5  1  0.96912000  0.03449900  0.21318500  1
  P  P6  1  0.46912000  0.96550100  0.28681500  1
  P  P7  1  0.03088000  0.96550100  0.78681500  1
  P  P8  1  0.89673500  0.79919000  0.02644600  1
  P  P9  1  0.60326500  0.79919000  0.52644600  1
  P  P10  1  0.10326500  0.20081000  0.97355400  1
  P  P11  1  0.39673500  0.20081000  0.47355400  1
  P  P12  1  0.09233000  0.61396400  0.24196700  1
  P  P13  1  0.40767000  0.61396400  0.74196700  1
  P  P14  1  0.90767000  0.38603600  0.75803300  1
  P  P15  1  0.59233000  0.38603600  0.25803300  1
  O  O0  1  0.59721300  0.88045700  0.79128700  1
  O  O1  1  0.90278700  0.88045700  0.29128700  1
  O  O2  1  0.40278700  0.11954300  0.20871300  1
  O  O3  1  0.09721300  0.11954300  0.70871300  1
  O  O4  1  0.46210900  0.04836700  0.59310900  1
  O  O5  1  0.03789100  0.04836700  0.09310900  1
  O  O6  1  0.53789100  0.95163300  0.40689100  1
  O  O7  1  0.96210900  0.95163300  0.90689100  1
  O  O8  1  0.41961200  0.07770400  0.77314200  1
  O  O9  1  0.08038800  0.07770400  0.27314200  1
  O  O10  1  0.58038800  0.92229600  0.22685800  1
  O  O11  1  0.91961200  0.92229600  0.72685800  1
  O  O12  1  0.46539900  0.63337200  0.33167700  1
  O  O13  1  0.03460100  0.63337200  0.83167700  1
  O  O14  1  0.53460100  0.36662800  0.66832300  1
  O  O15  1  0.96539900  0.36662800  0.16832300  1
  O  O16  1  0.66079200  0.69995500  0.48747900  1
  O  O17  1  0.83920800  0.69995500  0.98747900  1
  O  O18  1  0.33920800  0.30004500  0.51252100  1
  O  O19  1  0.16079200  0.30004500  0.01252100  1
  O  O20  1  0.79263400  0.83659900  0.09442700  1
  O  O21  1  0.70736600  0.83659900  0.59442700  1
  O  O22  1  0.20736600  0.16340100  0.90557300  1
  O  O23  1  0.29263400  0.16340100  0.40557300  1
  O  O24  1  0.74439100  0.42773800  0.51274500  1
  O  O25  1  0.75560900  0.42773800  0.01274500  1
  O  O26  1  0.25560900  0.57226200  0.48725500  1
  O  O27  1  0.24439100  0.57226200  0.98725500  1
  O  O28  1  0.20672100  0.72011100  0.25672900  1
  O  O29  1  0.29327900  0.72011100  0.75672900  1
  O  O30  1  0.79327900  0.27988900  0.74327100  1
  O  O31  1  0.70672100  0.27988900  0.24327100  1
  O  O32  1  0.04949200  0.73345700  0.10071500  1
  O  O33  1  0.45050800  0.73345700  0.60071500  1
  O  O34  1  0.95050800  0.26654300  0.89928500  1
  O  O35  1  0.54949200  0.26654300  0.39928500  1
  O  O36  1  0.67455900  0.51449800  0.24745800  1
  O  O37  1  0.82544100  0.51449800  0.74745800  1
  O  O38  1  0.32544100  0.48550200  0.75254200  1
  O  O39  1  0.17455900  0.48550200  0.25254200  1
  O  O40  1  0.96206700  0.57931200  0.32289600  1
  O  O41  1  0.53793300  0.57931200  0.82289600  1
  O  O42  1  0.03793300  0.42068800  0.67710400  1
  O  O43  1  0.46206700  0.42068800  0.17710400  1
  O  O44  1  0.66110600  0.16018300  0.65488100  1
  O  O45  1  0.83889400  0.16018300  0.15488100  1
  O  O46  1  0.33889400  0.83981700  0.34511900  1
  O  O47  1  0.16110600  0.83981700  0.84511900  1
loop_
_geom_bond_atom_site_label_1
_geom_bond_atom_site_label_2
_geom_bond_distance
_geom_bond_site_symmetry_2
Cs0 O27 3.129616 1_554
Cs0 O43 3.155567 1_555
Cs0 O0 3.162392 1_554
Cs0 O8 3.183782 1_564
Cs0 O12 3.280086 1_555
Cs0 O28 3.330787 1_555
Cs0 O47 3.365994 1_554
Cs0 O36 3.395644 1_555
Cs0 O20 3.483452 1_555
Cs0 O32 3.594370 1_555
Cs0 O39 3.670926 1_555
Cs0 O10 3.827377 1_555
Cs1 O26 3.129616 1_555
Cs1 O42 3.155567 1_555
Cs1 O1 3.162392 1_455
Cs1 O9 3.183782 1_565
Cs1 O13 3.280086 1_555
Cs1 O29 3.330787 1_555
Cs1 O46 3.365994 1_555
Cs1 O37 3.395644 1_455
Cs1 O21 3.483452 1_455
Cs1 O33 3.594370 1_555
Cs1 O38 3.670926 1_555
Cs1 O11 3.827377 1_455
Cs2 O25 3.129616 1_556
Cs2 O41 3.155567 1_555
Cs2 O2 3.162392 1_556
Cs2 O10 3.183782 1_546
Cs2 O14 3.280086 1_555
Cs2 O30 3.330787 1_555
Cs2 O45 3.365994 1_556
Cs2 O38 3.395644 1_555
Cs2 O22 3.483452 1_555
Cs2 O34 3.594370 1_555
Cs2 O37 3.670926 1_555
Cs2 O8 3.827377 1_555
Cs3 O24 3.129616 1_555
Cs3 O40 3.155567 1_555
Cs3 O3 3.162392 1_655
Cs3 O11 3.183782 1_545
Cs3 O15 3.280086 1_555
Cs3 O31 3.330787 1_555
Cs3 O44 3.365994 1_555
Cs3 O39 3.395644 1_655
Cs3 O23 3.483452 1_655
Cs3 O35 3.594370 1_555
Cs3 O36 3.670926 1_555
Cs3 O9 3.827377 1_655
Eu0 O16 2.397026 1_555
Eu0 O40 2.411681 1_555
Eu0 O12 2.421354 1_555
Eu0 O36 2.487653 1_555
Eu0 O24 2.490079 1_555
Eu0 O10 2.511846 1_555
Eu0 O1 2.516080 1_555
Eu0 O20 2.538071 1_555
Eu1 O17 2.397026 1_555
Eu1 O41 2.411681 1_555
Eu1 O13 2.421354 1_655
Eu1 O37 2.487653 1_555
Eu1 O25 2.490079 1_556
Eu1 O11 2.511846 1_555
Eu1 O0 2.516080 1_555
Eu1 O21 2.538071 1_555
Eu2 O18 2.397026 1_555
Eu2 O42 2.411681 1_555
Eu2 O14 2.421354 1_555
Eu2 O38 2.487653 1_555
Eu2 O26 2.490079 1_555
Eu2 O8 2.511846 1_555
Eu2 O3 2.516080 1_555
Eu2 O22 2.538071 1_555
Eu3 O19 2.397026 1_555
Eu3 O43 2.411681 1_555
Eu3 O15 2.421354 1_455
Eu3 O39 2.487653 1_555
Eu3 O27 2.490079 1_554
Eu3 O9 2.511846 1_555
Eu3 O2 2.516080 1_555
Eu3 O23 2.538071 1_555
O0 P4 1.496988 1_565
O1 P5 1.496988 1_565
O2 P6 1.496988 1_545
O3 P7 1.496988 1_545
O4 P11 1.622301 1_555
O4 P4 1.630193 1_555
O5 P10 1.622301 1_554
O5 P5 1.630193 1_455
O6 P9 1.622301 1_555
O6 P6 1.630193 1_555
O7 P8 1.622301 1_556
O7 P7 1.630193 1_655
O8 P4 1.507163 1_555
O9 P5 1.507163 1_455
O10 P6 1.507163 1_555
O11 P7 1.507163 1_655
O12 P0 1.500677 1_555
O13 P1 1.500677 1_555
O14 P2 1.500677 1_555
O15 P3 1.500677 1_555
O16 P9 1.502187 1_555
O17 P8 1.502187 1_556
O18 P11 1.502187 1_555
O19 P10 1.502187 1_554
O20 P8 1.503447 1_555
O21 P9 1.503447 1_555
O22 P10 1.503447 1_555
O23 P11 1.503447 1_555
O24 P2 1.495317 1_555
O25 P3 1.495317 1_555
O26 P0 1.495317 1_555
O27 P1 1.495317 1_555
O28 P12 1.628003 1_555
O28 P0 1.632470 1_555
O29 P13 1.628003 1_555
O29 P1 1.632470 1_555
O30 P14 1.628003 1_555
O30 P2 1.632470 1_555
O31 P15 1.628003 1_555
O31 P3 1.632470 1_555
O32 P12 1.613688 1_555
O32 P8 1.623208 1_455
O33 P13 1.613688 1_555
O33 P9 1.623208 1_555
O34 P14 1.613688 1_555
O34 P10 1.623208 1_655
O35 P15 1.613688 1_555
O35 P11 1.623208 1_555
O36 P15 1.497262 1_555
O37 P14 1.497262 1_555
O38 P13 1.497262 1_555
O39 P12 1.497262 1_555
O40 P12 1.500744 1_655
O41 P13 1.500744 1_555
O42 P14 1.500744 1_455
O43 P15 1.500744 1_555
O44 P2 1.629300 1_555
O44 P4 1.629315 1_555
O45 P3 1.629300 1_555
O45 P5 1.629315 1_555
O46 P0 1.629300 1_555
O46 P6 1.629315 1_555
O47 P1 1.629300 1_555
O47 P7 1.629315 1_555
