# generated using pymatgen
data_BaCdFeF7
_symmetry_space_group_name_H-M   'P 1'
_cell_length_a   7.55148762
_cell_length_b   7.55148762
_cell_length_c   15.29474358
_cell_angle_alpha   88.21316959
_cell_angle_beta   88.21316959
_cell_angle_gamma   42.90299917
_symmetry_Int_Tables_number   1
_chemical_formula_structural   BaCdFeF7
_chemical_formula_sum   'Ba4 Cd4 Fe4 F28'
_cell_volume   593.41278760
_cell_formula_units_Z   4
loop_
 _symmetry_equiv_pos_site_id
 _symmetry_equiv_pos_as_xyz
  1  'x, y, z'
loop_
 _atom_site_type_symbol
 _atom_site_label
 _atom_site_symmetry_multiplicity
 _atom_site_fract_x
 _atom_site_fract_y
 _atom_site_fract_z
 _atom_site_occupancy
  Ba  Ba0  1  0.64974200  0.73153800  0.87657700  1
  Ba  Ba1  1  0.35025800  0.26846200  0.12342300  1
  Ba  Ba2  1  0.26846200  0.35025800  0.62342300  1
  Ba  Ba3  1  0.73153800  0.64974200  0.37657700  1
  Cd  Cd0  1  0.00000000  0.00000000  0.50000000  1
  Cd  Cd1  1  0.00000000  0.00000000  0.00000000  1
  Cd  Cd2  1  0.95182300  0.04817700  0.75000000  1
  Cd  Cd3  1  0.04817700  0.95182300  0.25000000  1
  Fe  Fe0  1  0.38198700  0.37354800  0.87475700  1
  Fe  Fe1  1  0.61801300  0.62645200  0.12524300  1
  Fe  Fe2  1  0.62645200  0.61801300  0.62524300  1
  Fe  Fe3  1  0.37354800  0.38198700  0.37475700  1
  F  F0  1  0.42797100  0.74474000  0.51733100  1
  F  F1  1  0.57202900  0.25526000  0.48266900  1
  F  F2  1  0.25526000  0.57202900  0.98266900  1
  F  F3  1  0.74474000  0.42797100  0.01733100  1
  F  F4  1  0.68708700  0.81715500  0.59182500  1
  F  F5  1  0.31291300  0.18284500  0.40817500  1
  F  F6  1  0.18284500  0.31291300  0.90817500  1
  F  F7  1  0.81715500  0.68708700  0.09182500  1
  F  F8  1  0.54698200  0.12179600  0.77826100  1
  F  F9  1  0.45301800  0.87820400  0.22173900  1
  F  F10  1  0.87820400  0.45301800  0.72173900  1
  F  F11  1  0.12179600  0.54698200  0.27826100  1
  F  F12  1  0.60428300  0.38310400  0.65605700  1
  F  F13  1  0.39571700  0.61689600  0.34394300  1
  F  F14  1  0.61689600  0.39571700  0.84394300  1
  F  F15  1  0.38310400  0.60428300  0.15605700  1
  F  F16  1  0.34532200  0.89917200  0.70135000  1
  F  F17  1  0.65467800  0.10082800  0.29865000  1
  F  F18  1  0.10082800  0.65467800  0.79865000  1
  F  F19  1  0.89917200  0.34532200  0.20135000  1
  F  F20  1  0.66397900  0.06308000  0.95106100  1
  F  F21  1  0.33602100  0.93692000  0.04893900  1
  F  F22  1  0.93692000  0.33602100  0.54893900  1
  F  F23  1  0.06308000  0.66397900  0.45106100  1
  F  F24  1  0.83737600  0.03709500  0.12887100  1
  F  F25  1  0.16262400  0.96290500  0.87112900  1
  F  F26  1  0.96290500  0.16262400  0.37112900  1
  F  F27  1  0.03709500  0.83737600  0.62887100  1
loop_
_geom_bond_atom_site_label_1
_geom_bond_atom_site_label_2
_geom_bond_distance
_geom_bond_site_symmetry_2
Ba0 F25 2.680521 1_555
Ba0 F10 2.783587 1_555
Ba0 F14 2.783854 1_555
Ba0 F3 2.789895 1_556
Ba0 F6 2.795588 1_655
Ba0 F8 2.827441 1_565
Ba0 F20 2.856115 1_565
Ba0 F6 3.047618 1_565
Ba0 F21 3.074122 1_556
Ba0 F16 3.158973 1_555
Ba0 F18 3.202232 1_655
Ba1 F24 2.680521 1_555
Ba1 F11 2.783587 1_555
Ba1 F15 2.783854 1_555
Ba1 F2 2.789895 1_554
Ba1 F7 2.795588 1_455
Ba1 F9 2.827441 1_545
Ba1 F21 2.856115 1_545
Ba1 F7 3.047618 1_545
Ba1 F20 3.074122 1_554
Ba1 F17 3.158973 1_555
Ba1 F19 3.202232 1_455
Ba2 F27 2.680521 1_555
Ba2 F8 2.783587 1_555
Ba2 F12 2.783854 1_555
Ba2 F1 2.789895 1_555
Ba2 F4 2.795588 1_545
Ba2 F10 2.827441 1_455
Ba2 F22 2.856115 1_455
Ba2 F4 3.047618 1_455
Ba2 F23 3.074122 1_555
Ba2 F18 3.158973 1_555
Ba2 F16 3.202232 1_545
Ba3 F26 2.680521 1_555
Ba3 F9 2.783587 1_555
Ba3 F13 2.783854 1_555
Ba3 F0 2.789895 1_555
Ba3 F5 2.795588 1_565
Ba3 F11 2.827441 1_655
Ba3 F23 2.856115 1_655
Ba3 F5 3.047618 1_655
Ba3 F22 3.074122 1_555
Ba3 F19 3.158973 1_555
Ba3 F17 3.202232 1_565
Cd0 F26 2.202527 1_455
Cd0 F27 2.202527 1_545
Cd0 F0 2.263976 1_545
Cd0 F1 2.263976 1_455
Cd0 F22 2.356119 1_455
Cd0 F23 2.356119 1_545
Cd1 F24 2.202527 1_455
Cd1 F25 2.202527 1_544
Cd1 F3 2.263976 1_455
Cd1 F2 2.263976 1_544
Cd1 F21 2.356119 1_545
Cd1 F20 2.356119 1_454
Cd2 F25 2.233549 1_645
Cd2 F27 2.233549 1_645
Cd2 F12 2.373434 1_555
Cd2 F14 2.373434 1_555
Cd2 F16 2.380242 1_645
Cd2 F18 2.380242 1_645
Cd3 F26 2.233549 1_465
Cd3 F24 2.233549 1_465
Cd3 F13 2.373434 1_555
Cd3 F15 2.373434 1_555
Cd3 F19 2.380242 1_465
Cd3 F17 2.380242 1_465
F0 Fe2 1.959804 1_555
F1 Fe3 1.959804 1_555
F2 Fe0 1.959804 1_555
F3 Fe1 1.959804 1_555
F4 Fe2 1.917972 1_555
F5 Fe3 1.917972 1_555
F6 Fe0 1.917972 1_555
F7 Fe1 1.917972 1_555
F8 Fe0 1.983672 1_555
F9 Fe1 1.983672 1_555
F10 Fe2 1.983672 1_555
F11 Fe3 1.983672 1_555
F12 Fe2 1.942914 1_555
F13 Fe3 1.942914 1_555
F14 Fe0 1.942914 1_555
F15 Fe1 1.942914 1_555
F16 Fe2 1.940717 1_555
F17 Fe3 1.940717 1_555
F18 Fe0 1.940717 1_555
F19 Fe1 1.940717 1_555
F20 Fe0 2.015816 1_555
F21 Fe1 2.015816 1_555
F22 Fe2 2.015816 1_555
F23 Fe3 2.015816 1_555
