# generated using pymatgen
data_BaSrEuWO6
_symmetry_space_group_name_H-M   'P 1'
_cell_length_a   6.01623670
_cell_length_b   6.01623670
_cell_length_c   8.78097996
_cell_angle_alpha   90.00000000
_cell_angle_beta   90.00000000
_cell_angle_gamma   90.00000000
_symmetry_Int_Tables_number   1
_chemical_formula_structural   BaSrEuWO6
_chemical_formula_sum   'Ba2 Sr2 Eu2 W2 O12'
_cell_volume   317.82848314
_cell_formula_units_Z   2
loop_
 _symmetry_equiv_pos_site_id
 _symmetry_equiv_pos_as_xyz
  1  'x, y, z'
loop_
 _atom_site_type_symbol
 _atom_site_label
 _atom_site_symmetry_multiplicity
 _atom_site_fract_x
 _atom_site_fract_y
 _atom_site_fract_z
 _atom_site_occupancy
  Ba  Ba0  1  0.50000000  0.50000000  0.00000000  1
  Ba  Ba1  1  0.00000000  0.00000000  0.00000000  1
  Sr  Sr0  1  0.50000000  0.00000000  0.74967290  1
  Sr  Sr1  1  0.00000000  0.50000000  0.25032710  1
  Eu  Eu0  1  0.50000000  0.50000000  0.50000000  1
  Eu  Eu1  1  0.00000000  0.00000000  0.50000000  1
  W  W0  1  0.50000000  0.00000000  0.26011229  1
  W  W1  1  0.00000000  0.50000000  0.73988771  1
  O  O0  1  0.50000000  0.00000000  0.03259515  1
  O  O1  1  0.00000000  0.50000000  0.96740485  1
  O  O2  1  0.50000000  0.00000000  0.48173259  1
  O  O3  1  0.00000000  0.50000000  0.51826741  1
  O  O4  1  0.71020124  0.64920382  0.73776186  1
  O  O5  1  0.28979876  0.35079618  0.73776186  1
  O  O6  1  0.85079618  0.21020124  0.73776186  1
  O  O7  1  0.14920382  0.78979876  0.73776186  1
  O  O8  1  0.78979876  0.14920382  0.26223814  1
  O  O9  1  0.21020124  0.85079618  0.26223814  1
  O  O10  1  0.64920382  0.71020124  0.26223814  1
  O  O11  1  0.35079618  0.28979876  0.26223814  1
loop_
_geom_bond_atom_site_label_1
_geom_bond_atom_site_label_2
_geom_bond_distance
_geom_bond_site_symmetry_2
Ba0 O10 2.776238 1_555
Ba0 O11 2.776238 1_555
Ba0 O4 2.776238 1_554
Ba0 O5 2.776238 1_554
Ba0 O1 3.021704 1_654
Ba0 O0 3.021704 1_555
Ba0 O1 3.021704 1_554
Ba0 O0 3.021704 1_565
Ba1 O7 2.776238 1_544
Ba1 O9 2.776238 1_545
Ba1 O6 2.776238 1_454
Ba1 O8 2.776238 1_455
Ba1 O1 3.021704 1_544
Ba1 O0 3.021704 1_555
Ba1 O0 3.021704 1_455
Ba1 O1 3.021704 1_554
Eu0 O10 2.600743 1_555
Eu0 O11 2.600743 1_555
Eu0 O5 2.600743 1_555
Eu0 O4 2.600743 1_555
Eu0 O2 3.012392 1_555
Eu0 O3 3.012392 1_555
Eu0 O3 3.012392 1_655
Eu0 O2 3.012392 1_565
Eu1 O9 2.600743 1_545
Eu1 O8 2.600743 1_455
Eu1 O6 2.600743 1_455
Eu1 O7 2.600743 1_545
Eu1 O2 3.012392 1_455
Eu1 O3 3.012392 1_545
Eu1 O2 3.012392 1_555
Eu1 O3 3.012392 1_555
O0 W0 1.997823 1_555
O0 Sr0 2.484335 1_554
O1 W1 1.997823 1_555
O1 Sr1 2.484335 1_556
O2 W0 1.946043 1_555
O2 Sr0 2.352778 1_555
O3 W1 1.946043 1_555
O3 Sr1 2.352778 1_555
O4 W1 1.961097 1_655
O4 Sr0 2.462580 1_565
O5 W1 1.961097 1_555
O5 Sr0 2.462580 1_555
O6 W1 1.961097 1_655
O6 Sr0 2.462580 1_555
O7 W1 1.961097 1_555
O7 Sr0 2.462580 1_565
O8 W0 1.961097 1_555
O8 Sr1 2.462580 1_655
O9 W0 1.961097 1_565
O9 Sr1 2.462580 1_555
O10 W0 1.961097 1_565
O10 Sr1 2.462580 1_655
O11 W0 1.961097 1_555
O11 Sr1 2.462580 1_555
