# generated using pymatgen
data_ZnCr2O4
_symmetry_space_group_name_H-M   'P 1'
_cell_length_a   5.97285617
_cell_length_b   5.97285617
_cell_length_c   14.88213181
_cell_angle_alpha   86.70628409
_cell_angle_beta   86.70628409
_cell_angle_gamma   60.83252523
_symmetry_Int_Tables_number   1
_chemical_formula_structural   ZnCr2O4
_chemical_formula_sum   'Zn6 Cr12 O24'
_cell_volume   462.56889109
_cell_formula_units_Z   6
loop_
 _symmetry_equiv_pos_site_id
 _symmetry_equiv_pos_as_xyz
  1  'x, y, z'
loop_
 _atom_site_type_symbol
 _atom_site_label
 _atom_site_symmetry_multiplicity
 _atom_site_fract_x
 _atom_site_fract_y
 _atom_site_fract_z
 _atom_site_occupancy
  Zn  Zn0  1  0.66368700  0.66368700  0.04117400  1
  Zn  Zn1  1  0.33277600  0.33277600  0.33179600  1
  Zn  Zn2  1  0.16270600  0.16270600  0.16580000  1
  Zn  Zn3  1  0.66676700  0.66676700  0.66779000  1
  Zn  Zn4  1  0.50062700  0.50062700  0.49888300  1
  Zn  Zn5  1  0.83592600  0.83592600  0.83319400  1
  Cr  Cr0  1  0.16435300  0.66510100  0.16542600  1
  Cr  Cr1  1  0.99969700  0.99969700  0.37425500  1
  Cr  Cr2  1  0.00089800  0.00089800  0.00218400  1
  Cr  Cr3  1  0.66510100  0.16435300  0.16542600  1
  Cr  Cr4  1  0.50008300  0.99959200  0.49958100  1
  Cr  Cr5  1  0.33656000  0.33656000  0.70664700  1
  Cr  Cr6  1  0.99959200  0.50008300  0.49958100  1
  Cr  Cr7  1  0.83531500  0.33705000  0.83493600  1
  Cr  Cr8  1  0.66495300  0.66495300  0.29003600  1
  Cr  Cr9  1  0.33705000  0.83531500  0.83493600  1
  Cr  Cr10  1  0.99949300  0.99949300  0.62583900  1
  Cr  Cr11  1  0.33666100  0.33666100  0.96102200  1
  O  O0  1  0.29901200  0.84922300  0.08231700  1
  O  O1  1  0.97802200  0.97802200  0.24341800  1
  O  O2  1  0.84922300  0.29901200  0.08231700  1
  O  O3  1  0.84498600  0.84498600  0.08992100  1
  O  O4  1  0.65024300  0.17815400  0.41712400  1
  O  O5  1  0.49390300  0.49390300  0.23498500  1
  O  O6  1  0.31685000  0.31685000  0.57553200  1
  O  O7  1  0.48417300  0.01245700  0.24691400  1
  O  O8  1  0.17815400  0.65024300  0.41712400  1
  O  O9  1  0.34707200  0.34707200  0.09061600  1
  O  O10  1  0.17104800  0.17104800  0.42964200  1
  O  O11  1  0.01245700  0.48417300  0.24691400  1
  O  O12  1  0.98995900  0.50819100  0.75106400  1
  O  O13  1  0.82898000  0.82898000  0.57034200  1
  O  O14  1  0.82073500  0.34860700  0.58294900  1
  O  O15  1  0.50819100  0.98995900  0.75106400  1
  O  O16  1  0.66158300  0.66158300  0.90523800  1
  O  O17  1  0.68334500  0.68334500  0.42306400  1
  O  O18  1  0.50544100  0.50544100  0.76580000  1
  O  O19  1  0.34860700  0.82073500  0.58294900  1
  O  O20  1  0.15752300  0.15752300  0.90878500  1
  O  O21  1  0.16036800  0.69137900  0.92106400  1
  O  O22  1  0.01450900  0.01450900  0.76027200  1
  O  O23  1  0.69137900  0.16036800  0.92106400  1
loop_
_geom_bond_atom_site_label_1
_geom_bond_atom_site_label_2
_geom_bond_distance
_geom_bond_site_symmetry_2
Cr0 O0 1.994401 1_555
Cr0 O9 2.030156 1_555
Cr0 O11 2.034758 1_555
Cr0 O5 2.035257 1_555
Cr0 O1 2.037744 1_455
Cr0 O3 2.040976 1_455
Cr1 O8 1.912143 1_655
Cr1 O4 1.912143 1_565
Cr1 O1 1.974619 1_555
Cr1 O10 1.997302 1_665
Cr2 O2 1.990207 1_455
Cr2 O0 1.990207 1_545
Cr2 O3 2.001288 1_445
Cr2 O23 2.047034 1_454
Cr2 O21 2.047034 1_544
Cr2 O20 2.058289 1_554
Cr3 O2 1.994401 1_555
Cr3 O9 2.030156 1_555
Cr3 O7 2.034758 1_555
Cr3 O5 2.035257 1_555
Cr3 O1 2.037744 1_545
Cr3 O3 2.040976 1_545
Cr4 O4 2.025650 1_565
Cr4 O10 2.035986 1_565
Cr4 O6 2.036830 1_565
Cr4 O17 2.037499 1_555
Cr4 O19 2.039591 1_555
Cr4 O13 2.041966 1_555
Cr5 O15 1.904098 1_545
Cr5 O12 1.904098 1_455
Cr5 O6 1.975216 1_555
Cr5 O18 2.001441 1_555
Cr6 O8 2.025650 1_655
Cr6 O10 2.035986 1_655
Cr6 O6 2.036830 1_655
Cr6 O17 2.037499 1_555
Cr6 O14 2.039591 1_555
Cr6 O13 2.041966 1_555
Cr7 O16 2.019022 1_555
Cr7 O12 2.024169 1_555
Cr7 O23 2.024338 1_555
Cr7 O18 2.033393 1_555
Cr7 O20 2.039003 1_655
Cr7 O22 2.047215 1_655
Cr8 O7 1.904696 1_565
Cr8 O11 1.904696 1_655
Cr8 O5 1.992121 1_555
Cr8 O17 2.001312 1_555
Cr9 O16 2.019022 1_555
Cr9 O15 2.024169 1_555
Cr9 O21 2.024338 1_555
Cr9 O18 2.033393 1_555
Cr9 O20 2.039003 1_565
Cr9 O22 2.047215 1_565
Cr10 O14 1.910694 1_565
Cr10 O19 1.910694 1_655
Cr10 O13 1.990214 1_555
Cr10 O22 2.016870 1_665
Cr11 O21 1.924531 1_555
Cr11 O23 1.924531 1_555
Cr11 O9 1.938736 1_556
Cr11 O20 2.049647 1_555
O0 Zn0 1.979709 1_555
O0 Zn2 2.092236 1_565
O1 Zn2 2.158969 1_665
O2 Zn0 1.979709 1_555
O2 Zn2 2.092236 1_655
O3 Zn0 2.048179 1_555
O4 Zn4 2.110805 1_555
O4 Zn1 2.120371 1_555
O5 Zn1 2.124213 1_555
O6 Zn4 2.144213 1_555
O7 Zn2 2.100370 1_555
O7 Zn1 2.129310 1_555
O8 Zn4 2.110805 1_555
O8 Zn1 2.120371 1_555
O9 Zn2 2.139157 1_555
O10 Zn1 2.138431 1_555
O11 Zn2 2.100370 1_555
O11 Zn1 2.129310 1_555
O12 Zn3 2.125364 1_555
O12 Zn5 2.136005 1_555
O13 Zn3 2.138386 1_555
O14 Zn3 2.118962 1_555
O14 Zn4 2.120708 1_555
O15 Zn3 2.125364 1_555
O15 Zn5 2.136005 1_555
O16 Zn0 2.024577 1_556
O16 Zn5 2.029441 1_555
O17 Zn4 2.129129 1_555
O18 Zn3 2.136933 1_555
O19 Zn3 2.118962 1_555
O19 Zn4 2.120708 1_555
O21 Zn5 2.177471 1_455
O22 Zn5 2.072723 1_445
O23 Zn5 2.177471 1_545
