# generated using pymatgen
data_Na5S3ClO12
_symmetry_space_group_name_H-M   'P 1'
_cell_length_a   9.90550031
_cell_length_b   9.90550031
_cell_length_c   6.78790300
_cell_angle_alpha   90.00000000
_cell_angle_beta   90.00000000
_cell_angle_gamma   120.00000210
_symmetry_Int_Tables_number   1
_chemical_formula_structural   Na5S3ClO12
_chemical_formula_sum   'Na10 S6 Cl2 O24'
_cell_volume   576.79180622
_cell_formula_units_Z   2
loop_
 _symmetry_equiv_pos_site_id
 _symmetry_equiv_pos_as_xyz
  1  'x, y, z'
loop_
 _atom_site_type_symbol
 _atom_site_label
 _atom_site_symmetry_multiplicity
 _atom_site_fract_x
 _atom_site_fract_y
 _atom_site_fract_z
 _atom_site_occupancy
  Na  Na0  1  0.33333300  0.66666700  0.98949200  1
  Na  Na1  1  0.66666700  0.33333300  0.01050800  1
  Na  Na2  1  0.66666700  0.33333300  0.48949200  1
  Na  Na3  1  0.33333300  0.66666700  0.51050800  1
  Na  Na4  1  0.25522600  0.25800200  0.25000000  1
  Na  Na5  1  0.74477400  0.74199800  0.75000000  1
  Na  Na6  1  0.74199800  0.99722400  0.25000000  1
  Na  Na7  1  0.25800200  0.00277600  0.75000000  1
  Na  Na8  1  0.00277600  0.74477400  0.25000000  1
  Na  Na9  1  0.99722400  0.25522600  0.75000000  1
  S  S0  1  0.03100600  0.41055700  0.25000000  1
  S  S1  1  0.96899400  0.58944300  0.75000000  1
  S  S2  1  0.58944300  0.62044900  0.25000000  1
  S  S3  1  0.41055700  0.37955100  0.75000000  1
  S  S4  1  0.37955100  0.96899400  0.25000000  1
  S  S5  1  0.62044900  0.03100600  0.75000000  1
  Cl  Cl0  1  0.00000000  0.00000000  0.00000000  1
  Cl  Cl1  1  0.00000000  0.00000000  0.50000000  1
  O  O0  1  0.12240400  0.58498400  0.25000000  1
  O  O1  1  0.87759600  0.41501600  0.75000000  1
  O  O2  1  0.41501600  0.53741900  0.25000000  1
  O  O3  1  0.58498400  0.46258100  0.75000000  1
  O  O4  1  0.46258100  0.87759600  0.25000000  1
  O  O5  1  0.53741900  0.12240400  0.75000000  1
  O  O6  1  0.49227000  0.13796800  0.25000000  1
  O  O7  1  0.50773000  0.86203200  0.75000000  1
  O  O8  1  0.86203200  0.35430100  0.25000000  1
  O  O9  1  0.13796800  0.64569900  0.75000000  1
  O  O10  1  0.64569900  0.50773000  0.25000000  1
  O  O11  1  0.35430100  0.49227000  0.75000000  1
  O  O12  1  0.07961000  0.35566600  0.07337500  1
  O  O13  1  0.92039000  0.64433400  0.92662500  1
  O  O14  1  0.64433400  0.72394400  0.07337500  1
  O  O15  1  0.92039000  0.64433400  0.57337500  1
  O  O16  1  0.35566600  0.27605600  0.92662500  1
  O  O17  1  0.07961000  0.35566600  0.42662500  1
  O  O18  1  0.27605600  0.92039000  0.07337500  1
  O  O19  1  0.35566600  0.27605600  0.57337500  1
  O  O20  1  0.72394400  0.07961000  0.92662500  1
  O  O21  1  0.64433400  0.72394400  0.42662500  1
  O  O22  1  0.72394400  0.07961000  0.57337500  1
  O  O23  1  0.27605600  0.92039000  0.42662500  1
loop_
_geom_bond_atom_site_label_1
_geom_bond_atom_site_label_2
_geom_bond_distance
_geom_bond_site_symmetry_2
Na0 O7 2.455380 1_555
Na0 O9 2.455380 1_555
Na0 O11 2.455380 1_555
Na0 O0 2.540954 1_556
Na0 O4 2.540956 1_556
Na0 O2 2.540967 1_556
Na0 O18 2.896283 1_556
Na0 O12 2.896289 1_556
Na0 O14 2.896292 1_556
Na1 O6 2.455380 1_555
Na1 O8 2.455380 1_555
Na1 O10 2.455380 1_555
Na1 O1 2.540954 1_554
Na1 O5 2.540956 1_554
Na1 O3 2.540967 1_554
Na1 O20 2.896283 1_554
Na1 O13 2.896289 1_554
Na1 O16 2.896292 1_554
Na2 O6 2.455380 1_555
Na2 O8 2.455380 1_555
Na2 O10 2.455380 1_555
Na2 O1 2.540954 1_555
Na2 O5 2.540956 1_555
Na2 O3 2.540967 1_555
Na2 O22 2.896283 1_555
Na2 O15 2.896289 1_555
Na2 O19 2.896292 1_555
Na3 O7 2.455380 1_555
Na3 O9 2.455380 1_555
Na3 O11 2.455380 1_555
Na3 O0 2.540954 1_555
Na3 O4 2.540956 1_555
Na3 O2 2.540967 1_555
Na3 O23 2.896283 1_555
Na3 O17 2.896289 1_555
Na3 O21 2.896292 1_555
Na4 O19 2.379515 1_555
Na4 O16 2.379515 1_554
Na4 O2 2.405195 1_555
Na4 O12 2.661247 1_555
Na4 O17 2.661247 1_555
Na5 O14 2.379515 1_556
Na5 O21 2.379515 1_555
Na5 O3 2.405195 1_555
Na5 O13 2.661247 1_555
Na5 O15 2.661247 1_555
Na6 O20 2.379515 1_564
Na6 O22 2.379515 1_565
Na6 O4 2.405194 1_555
Na6 O14 2.661247 1_555
Na6 O21 2.661247 1_555
Na7 O18 2.379515 1_546
Na7 O23 2.379515 1_545
Na7 O5 2.405194 1_555
Na7 O16 2.661247 1_555
Na7 O19 2.661247 1_555
Na8 O15 2.379515 1_455
Na8 O13 2.379515 1_454
Na8 O0 2.405203 1_555
Na8 O23 2.661247 1_555
Na8 O18 2.661247 1_555
Na9 O12 2.379515 1_656
Na9 O17 2.379515 1_655
Na9 O1 2.405203 1_555
Na9 O22 2.661247 1_555
Na9 O20 2.661247 1_555
Cl0 Na5 3.056387 1_444
Cl0 Na4 3.056387 1_555
Cl0 Na6 3.056387 1_445
Cl0 Na7 3.056387 1_554
Cl0 Na8 3.056387 1_545
Cl0 Na9 3.056387 1_454
Cl1 Na5 3.056387 1_445
Cl1 Na4 3.056387 1_555
Cl1 Na6 3.056387 1_445
Cl1 Na7 3.056387 1_555
Cl1 Na8 3.056387 1_545
Cl1 Na9 3.056387 1_455
O0 S0 1.496881 1_555
O1 S1 1.496881 1_555
O2 S2 1.496881 1_555
O3 S3 1.496881 1_555
O4 S4 1.496890 1_555
O5 S5 1.496890 1_555
O6 S4 1.476259 1_545
O7 S5 1.476259 1_565
O8 S0 1.476257 1_655
O9 S1 1.476257 1_455
O10 S2 1.476266 1_555
O11 S3 1.476266 1_555
O12 S0 1.492177 1_555
O13 S1 1.492177 1_555
O14 S2 1.492177 1_555
O15 S1 1.492177 1_555
O16 S3 1.492177 1_555
O17 S0 1.492177 1_555
O18 S4 1.492177 1_555
O19 S3 1.492177 1_555
O20 S5 1.492177 1_555
O21 S2 1.492177 1_555
O22 S5 1.492177 1_555
O23 S4 1.492177 1_555
