# generated using pymatgen
data_Li2VFe3O8
_symmetry_space_group_name_H-M   'P 1'
_cell_length_a   5.96608597
_cell_length_b   5.96608597
_cell_length_c   9.51218400
_cell_angle_alpha   90.00000000
_cell_angle_beta   90.00000000
_cell_angle_gamma   119.99999964
_symmetry_Int_Tables_number   1
_chemical_formula_structural   Li2VFe3O8
_chemical_formula_sum   'Li4 V2 Fe6 O16'
_cell_volume   293.21750215
_cell_formula_units_Z   2
loop_
 _symmetry_equiv_pos_site_id
 _symmetry_equiv_pos_as_xyz
  1  'x, y, z'
loop_
 _atom_site_type_symbol
 _atom_site_label
 _atom_site_symmetry_multiplicity
 _atom_site_fract_x
 _atom_site_fract_y
 _atom_site_fract_z
 _atom_site_occupancy
  Li  Li0  1  0.33333300  0.66666700  0.90347400  1
  Li  Li1  1  0.00000000  0.00000000  0.99049800  1
  Li  Li2  1  0.00000000  0.00000000  0.49049800  1
  Li  Li3  1  0.66666700  0.33333300  0.40347400  1
  V  V0  1  0.33333300  0.66666700  0.49594900  1
  V  V1  1  0.66666700  0.33333300  0.99594900  1
  Fe  Fe0  1  0.17312500  0.82687400  0.21747700  1
  Fe  Fe1  1  0.17312600  0.34625100  0.21747700  1
  Fe  Fe2  1  0.65374900  0.82687400  0.21747700  1
  Fe  Fe3  1  0.34625100  0.17312500  0.71747700  1
  Fe  Fe4  1  0.82687400  0.65374900  0.71747700  1
  Fe  Fe5  1  0.82687400  0.17312600  0.71747700  1
  O  O0  1  0.17453100  0.82546900  0.58680000  1
  O  O1  1  0.04512600  0.52256300  0.34809000  1
  O  O2  1  0.33333300  0.66666700  0.10392500  1
  O  O3  1  0.00000000  0.00000000  0.29970200  1
  O  O4  1  0.00000000  0.00000000  0.79970200  1
  O  O5  1  0.17453100  0.34906200  0.58680000  1
  O  O6  1  0.47743700  0.95487400  0.34809000  1
  O  O7  1  0.47743700  0.52256300  0.34809000  1
  O  O8  1  0.34906200  0.17453100  0.08680000  1
  O  O9  1  0.65093800  0.82546900  0.58680000  1
  O  O10  1  0.52256300  0.47743700  0.84809000  1
  O  O11  1  0.52256300  0.04512600  0.84809000  1
  O  O12  1  0.66666700  0.33333300  0.60392500  1
  O  O13  1  0.82546900  0.65093800  0.08680000  1
  O  O14  1  0.95487400  0.47743700  0.84809000  1
  O  O15  1  0.82546900  0.17453100  0.08680000  1
loop_
_geom_bond_atom_site_label_1
_geom_bond_atom_site_label_2
_geom_bond_distance
_geom_bond_site_symmetry_2
Li0 O2 1.906727 1_556
Li0 O14 2.025140 1_455
Li0 O11 2.025140 1_565
Li0 O10 2.025145 1_555
Li1 O4 1.814887 1_555
Li1 O15 2.022831 1_456
Li1 O13 2.022831 1_446
Li1 O8 2.022831 1_556
Li2 O3 1.814887 1_555
Li2 O0 2.022831 1_545
Li2 O9 2.022831 1_445
Li2 O5 2.022831 1_555
Li3 O12 1.906727 1_555
Li3 O1 2.025140 1_655
Li3 O6 2.025140 1_545
Li3 O7 2.025145 1_555
Fe0 O3 1.952505 1_565
Fe0 O2 1.976715 1_555
Fe0 O1 2.009109 1_555
Fe0 O6 2.009113 1_555
Fe0 O13 2.184451 1_455
Fe0 O8 2.184455 1_565
Fe1 O3 1.952505 1_555
Fe1 O2 1.976720 1_555
Fe1 O7 2.009109 1_555
Fe1 O1 2.009113 1_555
Fe1 O8 2.184451 1_555
Fe1 O15 2.184455 1_455
Fe2 O3 1.952505 1_665
Fe2 O2 1.976720 1_555
Fe2 O7 2.009109 1_555
Fe2 O6 2.009113 1_555
Fe2 O13 2.184451 1_555
Fe2 O15 2.184455 1_565
Fe3 O4 1.952505 1_555
Fe3 O12 1.976720 1_555
Fe3 O11 2.009109 1_555
Fe3 O10 2.009113 1_555
Fe3 O0 2.184451 1_545
Fe3 O5 2.184455 1_555
Fe4 O4 1.952505 1_665
Fe4 O12 1.976720 1_555
Fe4 O10 2.009109 1_555
Fe4 O14 2.009113 1_555
Fe4 O9 2.184451 1_555
Fe4 O0 2.184455 1_655
Fe5 O4 1.952510 1_655
Fe5 O12 1.976711 1_555
Fe5 O11 2.009109 1_555
Fe5 O14 2.009109 1_555
Fe5 O5 2.184455 1_655
Fe5 O9 2.184455 1_545
O0 V0 1.854637 1_555
O1 V0 2.048307 1_555
O5 V0 1.854641 1_555
O6 V0 2.048307 1_555
O7 V0 2.048311 1_555
O8 V1 1.854641 1_554
O9 V0 1.854641 1_555
O10 V1 2.048311 1_555
O11 V1 2.048307 1_555
O13 V1 1.854641 1_554
O14 V1 2.048307 1_555
O15 V1 1.854637 1_554
