# generated using pymatgen
data_BeO
_symmetry_space_group_name_H-M   'P 1'
_cell_length_a   10.09972370
_cell_length_b   8.96623788
_cell_length_c   9.26153822
_cell_angle_alpha   91.16284506
_cell_angle_beta   97.22118706
_cell_angle_gamma   86.12424310
_symmetry_Int_Tables_number   1
_chemical_formula_structural   BeO
_chemical_formula_sum   'Be50 O50'
_cell_volume   830.07857656
_cell_formula_units_Z   50
loop_
 _symmetry_equiv_pos_site_id
 _symmetry_equiv_pos_as_xyz
  1  'x, y, z'
loop_
 _atom_site_type_symbol
 _atom_site_label
 _atom_site_symmetry_multiplicity
 _atom_site_fract_x
 _atom_site_fract_y
 _atom_site_fract_z
 _atom_site_occupancy
  Be  Be0  1  0.43071000  0.50806000  0.69333100  1
  Be  Be1  1  0.15212800  0.38555800  0.02493300  1
  Be  Be2  1  0.61236000  0.84930000  0.01568200  1
  Be  Be3  1  0.11172300  0.12050300  0.90233100  1
  Be  Be4  1  0.72097700  0.52525800  0.07156200  1
  Be  Be5  1  0.83763500  0.78799900  0.83052900  1
  Be  Be6  1  0.04937200  0.25921300  0.39628200  1
  Be  Be7  1  0.25487700  0.02078700  0.32609900  1
  Be  Be8  1  0.75594000  0.58689200  0.55591600  1
  Be  Be9  1  0.16357800  0.20872400  0.22142400  1
  Be  Be10  1  0.36453600  0.16797000  0.49280100  1
  Be  Be11  1  0.80008400  0.29040000  0.42271500  1
  Be  Be12  1  0.32168500  0.66627600  0.18694500  1
  Be  Be13  1  0.92865700  0.08228200  0.60712500  1
  Be  Be14  1  0.17009900  0.47493200  0.32184700  1
  Be  Be15  1  0.52323700  0.86411000  0.24000500  1
  Be  Be16  1  0.94245000  0.59149700  0.09595000  1
  Be  Be17  1  0.84247500  0.14050600  0.16727900  1
  Be  Be18  1  0.78099000  0.95997800  0.33939100  1
  Be  Be19  1  0.61204000  0.79625800  0.74477700  1
  Be  Be20  1  0.59142300  0.27545400  0.22175500  1
  Be  Be21  1  0.52435800  0.61273900  0.97660800  1
  Be  Be22  1  0.99379300  0.00076600  0.31807100  1
  Be  Be23  1  0.17209000  0.92812900  0.09600500  1
  Be  Be24  1  0.39876400  0.94493700  0.58409900  1
  Be  Be25  1  0.56416600  0.39247500  0.47208600  1
  Be  Be26  1  0.18666900  0.71391300  0.62226900  1
  Be  Be27  1  0.20648600  0.15383100  0.71580000  1
  Be  Be28  1  0.82549300  0.52877100  0.77714500  1
  Be  Be29  1  0.55034900  0.00628900  0.45441000  1
  Be  Be30  1  0.06053000  0.40563100  0.80950400  1
  Be  Be31  1  0.72400900  0.06462700  0.87198100  1
  Be  Be32  1  0.51928300  0.57114600  0.22804800  1
  Be  Be33  1  0.92347500  0.81449000  0.12420300  1
  Be  Be34  1  0.34736900  0.73665200  0.74898500  1
  Be  Be35  1  0.25676300  0.44145500  0.77681400  1
  Be  Be36  1  0.92562500  0.80436700  0.55173900  1
  Be  Be37  1  0.88553300  0.31412400  0.97181000  1
  Be  Be38  1  0.66900800  0.29782500  0.90627200  1
  Be  Be39  1  0.78199000  0.29762900  0.67250300  1
  Be  Be40  1  0.12681400  0.74666700  0.34626200  1
  Be  Be41  1  0.39027000  0.66017900  0.45519500  1
  Be  Be42  1  0.38618900  0.09372800  0.06214200  1
  Be  Be43  1  0.18809500  0.68575200  0.93205100  1
  Be  Be44  1  0.61188800  0.11503800  0.65574700  1
  Be  Be45  1  0.06203700  0.90883300  0.80163200  1
  Be  Be46  1  0.96655600  0.61419100  0.40188600  1
  Be  Be47  1  0.41477100  0.19337800  0.80573700  1
  Be  Be48  1  0.02552200  0.39488200  0.58368000  1
  Be  Be49  1  0.45785000  0.38612400  0.00924900  1
  O  O0  1  0.40679800  0.37837100  0.82060100  1
  O  O1  1  0.49362800  0.69812100  0.82301500  1
  O  O2  1  0.70005000  0.89118200  0.88601500  1
  O  O3  1  0.07322200  0.06850300  0.71936400  1
  O  O4  1  0.95277700  0.49216300  0.70359900  1
  O  O5  1  0.94249200  0.24756200  0.51616200  1
  O  O6  1  0.33442600  0.79239600  0.58091400  1
  O  O7  1  0.06516000  0.97714500  0.96849400  1
  O  O8  1  0.58367300  0.16803300  0.81902600  1
  O  O9  1  0.83414900  0.67152000  0.46222000  1
  O  O10  1  0.98970900  0.67920800  0.23770700  1
  O  O11  1  0.21237000  0.19827500  0.40113300  1
  O  O12  1  0.15443100  0.33047000  0.69396700  1
  O  O13  1  0.56742400  0.42678400  0.30333400  1
  O  O14  1  0.13300900  0.91366500  0.30408600  1
  O  O15  1  0.17624500  0.37747900  0.18354900  1
  O  O16  1  0.64649400  0.68367400  0.08661000  1
  O  O17  1  0.39417100  0.99820200  0.41466600  1
  O  O18  1  0.86488000  0.45296800  0.08538300  1
  O  O19  1  0.28085200  0.57121000  0.68098400  1
  O  O20  1  0.48100800  0.52353500  0.54437500  1
  O  O21  1  0.92839200  0.84267700  0.72187900  1
  O  O22  1  0.72924100  0.40232200  0.53492100  1
  O  O23  1  0.78071400  0.37630900  0.82250700  1
  O  O24  1  0.61006900  0.43307500  0.99168600  1
  O  O25  1  0.28433000  0.14562600  0.89937000  1
  O  O26  1  0.16938300  0.50833600  0.91327800  1
  O  O27  1  0.06904000  0.72678800  0.50178600  1
  O  O28  1  0.73167800  0.66309900  0.71655500  1
  O  O29  1  0.25706400  0.07140500  0.15942000  1
  O  O30  1  0.90744000  0.97046100  0.46182200  1
  O  O31  1  0.00028100  0.17101500  0.24896100  1
  O  O32  1  0.74200700  0.21128100  0.28088000  1
  O  O33  1  0.79375100  0.17613500  0.99745900  1
  O  O34  1  0.22274500  0.76038500  0.08039500  1
  O  O35  1  0.56431600  0.93644400  0.62594400  1
  O  O36  1  0.53106900  0.20725300  0.51028100  1
  O  O37  1  0.41576400  0.55446400  0.07927900  1
  O  O38  1  0.63591700  0.93504200  0.34526300  1
  O  O39  1  0.25117200  0.61785000  0.33735300  1
  O  O40  1  0.85893700  0.95283900  0.19574700  1
  O  O41  1  0.05151200  0.44712300  0.41773700  1
  O  O42  1  0.47552200  0.23648400  0.10091700  1
  O  O43  1  0.34463700  0.11061500  0.65283700  1
  O  O44  1  0.19358900  0.78624600  0.79364100  1
  O  O45  1  0.49398700  0.93341900  0.08143900  1
  O  O46  1  0.91184600  0.71542200  0.98040300  1
  O  O47  1  0.03899400  0.28855000  0.93605000  1
  O  O48  1  0.45912300  0.71900700  0.29944700  1
  O  O49  1  0.77893100  0.12475800  0.67917100  1
loop_
_geom_bond_atom_site_label_1
_geom_bond_atom_site_label_2
_geom_bond_distance
_geom_bond_site_symmetry_2
Be0 O20 1.540774 1_555
Be0 O19 1.570891 1_555
Be0 O0 1.721921 1_555
Be0 O1 2.149858 1_555
Be1 O15 1.461026 1_555
Be1 O26 1.558544 1_554
Be1 O47 1.615118 1_554
Be2 O45 1.552921 1_555
Be2 O16 1.633760 1_555
Be2 O2 1.642630 1_554
Be3 O7 1.560444 1_545
Be3 O47 1.672221 1_555
Be3 O3 1.751255 1_555
Be3 O25 1.776481 1_555
Be4 O24 1.541804 1_554
Be4 O18 1.542099 1_555
Be4 O16 1.573758 1_555
Be5 O21 1.551055 1_555
Be5 O46 1.618991 1_555
Be5 O2 1.742797 1_555
Be5 O28 1.828555 1_555
Be6 O31 1.603738 1_555
Be6 O5 1.652303 1_455
Be6 O41 1.693786 1_555
Be6 O11 1.694535 1_555
Be7 O17 1.539850 1_545
Be7 O14 1.602443 1_545
Be7 O29 1.621066 1_555
Be7 O11 1.771311 1_555
Be8 O9 1.494252 1_555
Be8 O28 1.663769 1_555
Be8 O22 1.698027 1_555
Be9 O15 1.577299 1_555
Be9 O29 1.639403 1_555
Be9 O11 1.677997 1_555
Be9 O31 1.756140 1_555
Be10 O43 1.619106 1_555
Be10 O11 1.667743 1_555
Be10 O17 1.696596 1_545
Be10 O36 1.728728 1_555
Be11 O32 1.548417 1_555
Be11 O5 1.609684 1_555
Be11 O22 1.626793 1_555
Be12 O34 1.535009 1_555
Be12 O48 1.714960 1_555
Be12 O39 1.718119 1_555
Be12 O37 1.723675 1_555
Be13 O30 1.662505 1_545
Be13 O3 1.681337 1_655
Be13 O5 1.741742 1_555
Be13 O49 1.744276 1_555
Be14 O15 1.541158 1_555
Be14 O39 1.561402 1_555
Be14 O41 1.613107 1_555
Be15 O38 1.563241 1_555
Be15 O45 1.591634 1_555
Be15 O48 1.627154 1_555
Be16 O18 1.507800 1_555
Be16 O46 1.547274 1_554
Be16 O10 1.556045 1_555
Be17 O33 1.619402 1_554
Be17 O32 1.641193 1_555
Be17 O40 1.702261 1_545
Be17 O31 1.713107 1_655
Be18 O38 1.504846 1_555
Be18 O30 1.604188 1_555
Be18 O40 1.626882 1_555
Be19 O28 1.680929 1_555
Be19 O35 1.692447 1_555
Be19 O2 1.729261 1_555
Be19 O1 1.765092 1_555
Be20 O13 1.559051 1_555
Be20 O42 1.566807 1_555
Be20 O32 1.621436 1_555
Be21 O1 1.614626 1_555
Be21 O16 1.651634 1_556
Be21 O37 1.655275 1_556
Be21 O24 1.775984 1_555
Be22 O14 1.580151 1_645
Be22 O31 1.675673 1_655
Be22 O30 1.716275 1_545
Be22 O40 1.730508 1_545
Be23 O7 1.546086 1_554
Be23 O34 1.565407 1_555
Be23 O29 1.650302 1_565
Be23 O14 2.023565 1_555
Be24 O6 1.551596 1_555
Be24 O17 1.643711 1_555
Be24 O35 1.665159 1_555
Be24 O43 1.688251 1_565
Be25 O20 1.584465 1_555
Be25 O13 1.603805 1_555
Be25 O22 1.702925 1_555
Be25 O36 1.767361 1_555
Be26 O27 1.524229 1_555
Be26 O19 1.603540 1_555
Be26 O44 1.697372 1_555
Be26 O6 1.779173 1_555
Be27 O3 1.596668 1_555
Be27 O43 1.599783 1_555
Be27 O12 1.642979 1_555
Be27 O25 1.781917 1_555
Be28 O4 1.542179 1_555
Be28 O28 1.550088 1_555
Be28 O23 1.550616 1_555
Be29 O38 1.515121 1_545
Be29 O17 1.580256 1_545
Be29 O35 1.705301 1_545
Be29 O36 1.868833 1_555
Be30 O4 1.548146 1_455
Be30 O12 1.624202 1_555
Be30 O47 1.633353 1_555
Be30 O26 1.678003 1_555
Be31 O2 1.600288 1_545
Be31 O33 1.639676 1_555
Be31 O8 1.665866 1_555
Be31 O49 2.028714 1_555
Be32 O13 1.504770 1_555
Be32 O48 1.587642 1_555
Be32 O37 1.632333 1_555
Be33 O40 1.539023 1_555
Be33 O46 1.582180 1_554
Be33 O10 1.670068 1_555
Be34 O1 1.567642 1_555
Be34 O6 1.631405 1_555
Be34 O44 1.685726 1_555
Be34 O19 1.743229 1_555
Be35 O19 1.528037 1_555
Be35 O0 1.587298 1_555
Be35 O12 1.598703 1_555
Be35 O26 1.707014 1_555
Be36 O21 1.603135 1_555
Be36 O27 1.677826 1_655
Be36 O9 1.695838 1_555
Be36 O30 1.708794 1_555
Be37 O47 1.625553 1_655
Be37 O18 1.632980 1_556
Be37 O33 1.633649 1_555
Be37 O23 1.710893 1_555
Be38 O24 1.559676 1_555
Be38 O8 1.634738 1_555
Be38 O23 1.649065 1_555
Be38 O33 1.753592 1_555
Be39 O23 1.546416 1_555
Be39 O49 1.555029 1_555
Be39 O22 1.612112 1_555
Be40 O14 1.562396 1_555
Be40 O27 1.637909 1_555
Be40 O39 1.656625 1_555
Be40 O10 1.741452 1_455
Be41 O20 1.649877 1_555
Be41 O39 1.725865 1_555
Be41 O6 1.760081 1_555
Be41 O48 1.781894 1_555
Be42 O42 1.623997 1_555
Be42 O29 1.700146 1_555
Be42 O45 1.741625 1_545
Be42 O25 1.766731 1_554
Be43 O34 1.526866 1_556
Be43 O44 1.590515 1_555
Be43 O26 1.617899 1_555
Be44 O8 1.629308 1_555
Be44 O49 1.681673 1_555
Be44 O36 1.685961 1_555
Be44 O35 1.709964 1_545
Be45 O21 1.599732 1_455
Be45 O7 1.648135 1_555
Be45 O3 1.652471 1_565
Be45 O44 1.674179 1_555
Be46 O9 1.564621 1_555
Be46 O41 1.674871 1_655
Be46 O27 1.676074 1_655
Be46 O10 1.688309 1_555
Be47 O0 1.658962 1_555
Be47 O43 1.683435 1_555
Be47 O8 1.694906 1_555
Be47 O25 1.746268 1_555
Be48 O4 1.616569 1_455
Be48 O12 1.630917 1_555
Be48 O41 1.672599 1_555
Be48 O5 1.680305 1_455
Be49 O42 1.590151 1_555
Be49 O24 1.649340 1_554
Be49 O37 1.679999 1_555
Be49 O0 1.759753 1_554
