# generated using pymatgen
data_TaTl3Se4
_symmetry_space_group_name_H-M   'P 1'
_cell_length_a   6.89967706
_cell_length_b   6.89967728
_cell_length_c   6.89967819
_cell_angle_alpha   109.47122332
_cell_angle_beta   109.47122396
_cell_angle_gamma   109.47121666
_symmetry_Int_Tables_number   1
_chemical_formula_structural   TaTl3Se4
_chemical_formula_sum   'Ta1 Tl3 Se4'
_cell_volume   252.85088322
_cell_formula_units_Z   1
loop_
 _symmetry_equiv_pos_site_id
 _symmetry_equiv_pos_as_xyz
  1  'x, y, z'
loop_
 _atom_site_type_symbol
 _atom_site_label
 _atom_site_symmetry_multiplicity
 _atom_site_fract_x
 _atom_site_fract_y
 _atom_site_fract_z
 _atom_site_occupancy
  Ta  Ta0  1  -0.00000000  0.00000000  0.00000000  1
  Tl  Tl0  1  -0.00000000  0.50000000  0.50000000  1
  Tl  Tl1  1  0.50000000  0.00000000  0.50000000  1
  Tl  Tl2  1  0.50000000  0.50000000  0.00000000  1
  Se  Se0  1  -0.00000000  0.00000000  0.65159759  1
  Se  Se1  1  -0.00000000  0.65159759  0.00000000  1
  Se  Se2  1  0.65159759  0.00000000  0.00000000  1
  Se  Se3  1  0.34840241  0.34840241  0.34840241  1
loop_
_geom_bond_atom_site_label_1
_geom_bond_atom_site_label_2
_geom_bond_distance
_geom_bond_site_symmetry_2
Se0 Ta0 2.403865 1_556
Se0 Tl1 3.254200 1_455
Se0 Tl0 3.254200 1_545
Se0 Tl2 3.254200 1_556
Se1 Ta0 2.403864 1_565
Se1 Tl2 3.254200 1_455
Se1 Tl1 3.254200 1_565
Se1 Tl0 3.254201 1_554
Se2 Ta0 2.403864 1_655
Se2 Tl2 3.254201 1_545
Se2 Tl0 3.254201 1_655
Se2 Tl1 3.254201 1_554
Se3 Ta0 2.403864 1_555
Se3 Tl0 3.254200 1_555
Se3 Tl1 3.254200 1_555
Se3 Tl2 3.254201 1_555
