# generated using pymatgen
data_HfMg14Mn
_symmetry_space_group_name_H-M   'P 1'
_cell_length_a   6.33884423
_cell_length_b   6.23928595
_cell_length_c   10.13162467
_cell_angle_alpha   90.00000000
_cell_angle_beta   90.00000000
_cell_angle_gamma   119.48179883
_symmetry_Int_Tables_number   1
_chemical_formula_structural   HfMg14Mn
_chemical_formula_sum   'Hf1 Mg14 Mn1'
_cell_volume   348.81798170
_cell_formula_units_Z   1
loop_
 _symmetry_equiv_pos_site_id
 _symmetry_equiv_pos_as_xyz
  1  'x, y, z'
loop_
 _atom_site_type_symbol
 _atom_site_label
 _atom_site_symmetry_multiplicity
 _atom_site_fract_x
 _atom_site_fract_y
 _atom_site_fract_z
 _atom_site_occupancy
  Hf  Hf0  1  0.15713246  0.82856573  0.12500000  1
  Mg  Mg0  1  0.16617102  0.33308501  0.62500000  1
  Mg  Mg1  1  0.16687038  0.83343469  0.62500000  1
  Mg  Mg2  1  0.66152659  0.33562055  0.12500000  1
  Mg  Mg3  1  0.66584015  0.33185879  0.62500000  1
  Mg  Mg4  1  0.66152659  0.82590504  0.12500000  1
  Mg  Mg5  1  0.66584015  0.83398036  0.62500000  1
  Mg  Mg6  1  0.32987940  0.16605269  0.36860238  1
  Mg  Mg7  1  0.32987940  0.16605269  0.88139762  1
  Mg  Mg8  1  0.32987940  0.66382771  0.36860238  1
  Mg  Mg9  1  0.32987940  0.66382771  0.88139762  1
  Mg  Mg10  1  0.84227802  0.17113951  0.36622058  1
  Mg  Mg11  1  0.84227802  0.17113951  0.88377942  1
  Mg  Mg12  1  0.83824461  0.66912281  0.37494737  1
  Mg  Mg13  1  0.83824461  0.66912281  0.87505263  1
  Mn  Mn0  1  0.17452979  0.33726439  0.12500000  1
loop_
_geom_bond_atom_site_label_1
_geom_bond_atom_site_label_2
_geom_bond_distance
_geom_bond_site_symmetry_2
Hf0 Mg9 3.074869 1_554
Hf0 Mg8 3.074869 1_555
Hf0 Mg7 3.074876 1_564
Hf0 Mg6 3.074876 1_565
Hf0 Mg12 3.083704 1_455
Hf0 Mg13 3.083704 1_454
Hf0 Mn0 3.121120 1_565
Hf0 Mn0 3.121120 1_555
Hf0 Mg2 3.133431 1_455
Hf0 Mg4 3.133432 1_455
Hf0 Mg2 3.205478 1_565
Hf0 Mg4 3.205478 1_555
Mg0 Mg1 3.119645 1_555
Mg0 Mg1 3.119645 1_545
Mg0 Mg6 3.158422 1_555
Mg0 Mg7 3.158422 1_555
Mg0 Mg8 3.158428 1_555
Mg0 Mg9 3.158428 1_555
Mg0 Mg5 3.167761 1_445
Mg0 Mg3 3.167761 1_455
Mg0 Mg5 3.171097 1_555
Mg0 Mg3 3.171097 1_555
Mg0 Mg10 3.173075 1_455
Mg0 Mg11 3.173075 1_455
Mg1 Mg13 3.115546 1_455
Mg1 Mg12 3.115546 1_455
Mg1 Mg3 3.161217 1_565
Mg1 Mg5 3.161217 1_555
Mg1 Mg8 3.164171 1_555
Mg1 Mg9 3.164171 1_555
Mg1 Mg6 3.164178 1_565
Mg1 Mg7 3.164178 1_565
Mg1 Mg3 3.177629 1_455
Mg1 Mg5 3.177630 1_455
Mg2 Mg4 3.059025 1_555
Mg2 Mg7 3.072631 1_554
Mg2 Mg6 3.072631 1_555
Mg2 Mn0 3.092057 1_555
Mg2 Mg4 3.180261 1_545
Mg2 Mn0 3.246812 1_655
Mg3 Mg5 3.106406 1_545
Mg3 Mg5 3.132880 1_555
Mg3 Mg6 3.191410 1_555
Mg3 Mg7 3.191410 1_555
Mg4 Mg9 3.072631 1_554
Mg4 Mg8 3.072631 1_555
Mg4 Mn0 3.092057 1_555
Mg4 Mn0 3.246812 1_665
Mg5 Mg8 3.191410 1_555
Mg5 Mg9 3.191410 1_555
Mg6 Mn0 3.039360 1_555
Mg6 Mg8 3.105761 1_555
Mg6 Mg8 3.133525 1_545
Mg7 Mn0 3.039360 1_556
Mg7 Mg9 3.105761 1_555
Mg7 Mg9 3.133525 1_545
Mg8 Mn0 3.039367 1_555
Mg9 Mn0 3.039367 1_556
Mg10 Mn0 3.055192 1_655
Mg10 Mg2 3.081592 1_555
Mg10 Mg4 3.081599 1_545
Mg10 Mg8 3.106665 1_655
Mg10 Mg6 3.106666 1_655
Mg10 Mg12 3.120975 1_545
Mg10 Mg12 3.120975 1_555
Mg10 Mg3 3.199129 1_555
Mg10 Mg5 3.199135 1_545
Mg10 Mg8 3.232603 1_545
Mg10 Mg6 3.232603 1_555
Mg11 Mn0 3.055192 1_656
Mg11 Mg2 3.081592 1_556
Mg11 Mg4 3.081599 1_546
Mg11 Mg9 3.106665 1_655
Mg11 Mg7 3.106666 1_655
Mg11 Mg13 3.120975 1_545
Mg11 Mg13 3.120975 1_555
Mg11 Mg3 3.199129 1_555
Mg11 Mg5 3.199135 1_545
Mg11 Mg9 3.232603 1_545
Mg11 Mg7 3.232603 1_555
Mg12 Mg4 3.114995 1_555
Mg12 Mg2 3.115001 1_555
Mg12 Mg5 3.126830 1_555
Mg12 Mg3 3.126837 1_555
Mg12 Mg6 3.133447 1_665
Mg12 Mg8 3.133447 1_655
Mg12 Mg6 3.206962 1_555
Mg12 Mg8 3.206962 1_555
Mg13 Mg4 3.114995 1_556
Mg13 Mg2 3.115001 1_556
Mg13 Mg5 3.126830 1_555
Mg13 Mg3 3.126837 1_555
Mg13 Mg7 3.133447 1_665
Mg13 Mg9 3.133447 1_655
Mg13 Mg7 3.206962 1_555
Mg13 Mg9 3.206962 1_555
