# generated using pymatgen
data_Li5MnO3F
_symmetry_space_group_name_H-M   'P 1'
_cell_length_a   4.74680033
_cell_length_b   6.78557362
_cell_length_c   13.47365458
_cell_angle_alpha   94.01241710
_cell_angle_beta   98.73117026
_cell_angle_gamma   78.69003062
_symmetry_Int_Tables_number   1
_chemical_formula_structural   Li5MnO3F
_chemical_formula_sum   'Li20 Mn4 O12 F4'
_cell_volume   420.26193206
_cell_formula_units_Z   4
loop_
 _symmetry_equiv_pos_site_id
 _symmetry_equiv_pos_as_xyz
  1  'x, y, z'
loop_
 _atom_site_type_symbol
 _atom_site_label
 _atom_site_symmetry_multiplicity
 _atom_site_fract_x
 _atom_site_fract_y
 _atom_site_fract_z
 _atom_site_occupancy
  Li  Li0  1  0.73070800  0.48638800  0.24094200  1
  Li  Li1  1  0.25254400  0.47724500  0.74056100  1
  Li  Li2  1  0.14435600  0.76359300  0.38406100  1
  Li  Li3  1  0.62244100  0.77272800  0.88443900  1
  Li  Li4  1  0.50304600  0.97297000  0.26588700  1
  Li  Li5  1  0.02036400  0.96746600  0.77208500  1
  Li  Li6  1  0.14392800  0.71493500  0.13813900  1
  Li  Li7  1  0.65023200  0.70914200  0.64165000  1
  Li  Li8  1  0.37201500  0.27698300  0.35910500  1
  Li  Li9  1  0.85462200  0.28253700  0.85292300  1
  Li  Li10  1  0.73103100  0.53508900  0.48685700  1
  Li  Li11  1  0.22477200  0.54085900  0.98335200  1
  Li  Li12  1  0.59245800  0.78543100  0.10002200  1
  Li  Li13  1  0.10413500  0.77695900  0.60672800  1
  Li  Li14  1  0.89123700  0.20868300  0.39045700  1
  Li  Li15  1  0.37868000  0.20473300  0.89032900  1
  Li  Li16  1  0.77088700  0.47302700  0.01828100  1
  Li  Li17  1  0.28250100  0.46459800  0.52496200  1
  Li  Li18  1  0.98381600  0.04129600  0.23455100  1
  Li  Li19  1  0.49631700  0.04524700  0.73468300  1
  Mn  Mn0  1  0.89214700  0.24709500  0.62632100  1
  Mn  Mn1  1  0.98277800  0.00294000  0.99869000  1
  Mn  Mn2  1  0.41612900  0.23978000  0.11779400  1
  Mn  Mn3  1  0.45890300  0.01016900  0.50720900  1
  O  O0  1  0.24062000  0.97706500  0.13000800  1
  O  O1  1  0.78066100  0.98224600  0.64052200  1
  O  O2  1  0.63427000  0.27298700  0.49499500  1
  O  O3  1  0.09440500  0.26774000  0.98446800  1
  O  O4  1  0.63926700  0.22587400  0.26353400  1
  O  O5  1  0.13562400  0.22287500  0.75674800  1
  O  O6  1  0.48887400  0.52852500  0.10935300  1
  O  O7  1  0.98847600  0.51148800  0.61481000  1
  O  O8  1  0.88647900  0.73852200  0.01018000  1
  O  O9  1  0.38605100  0.72149400  0.51566400  1
  O  O10  1  0.23584500  0.02406000  0.36146400  1
  O  O11  1  0.73930100  0.02714800  0.86825900  1
  F  F0  1  0.85760500  0.76884700  0.23915300  1
  F  F1  1  0.37313100  0.76975500  0.74137300  1
  F  F2  1  0.01745700  0.48114300  0.38580800  1
  F  F3  1  0.50188500  0.48033900  0.88363200  1
loop_
_geom_bond_atom_site_label_1
_geom_bond_atom_site_label_2
_geom_bond_distance
_geom_bond_site_symmetry_2
Li0 O4 1.955077 1_555
Li0 O6 1.966542 1_555
Li1 O7 1.947309 1_455
Li1 O5 1.949357 1_555
Li2 O10 1.954885 1_565
Li2 O9 1.966397 1_555
Li3 O8 1.947121 1_556
Li3 O11 1.949523 1_565
Li4 O10 1.910022 1_565
Li4 O4 1.952739 1_565
Li4 O0 2.050718 1_555
Li5 O5 1.949878 1_565
Li5 O1 1.953129 1_455
Li5 O11 1.965349 1_465
Li6 O6 1.934741 1_555
Li6 O0 1.936284 1_555
Li6 O8 1.952876 1_455
Li7 O7 1.941965 1_555
Li7 O9 1.947686 1_555
Li7 O1 2.067508 1_555
Li8 O4 1.910138 1_555
Li8 O10 1.952749 1_555
Li8 O2 2.050485 1_555
Li9 O11 1.949882 1_555
Li9 O3 1.953095 1_655
Li9 O5 1.965142 1_655
Li10 O9 1.934926 1_555
Li10 O2 1.936254 1_555
Li10 O7 1.952805 1_555
Li11 O8 1.942122 1_456
Li11 O6 1.947657 1_556
Li11 O3 2.067447 1_555
Li12 O6 1.918891 1_555
Li12 O8 1.949162 1_555
Li12 O0 1.980630 1_555
Li13 O9 1.916815 1_555
Li13 O1 1.946780 1_455
Li13 O7 1.997930 1_455
Li14 O10 1.928615 1_655
Li14 O4 1.928954 1_555
Li14 O2 1.972045 1_555
Li15 O11 1.940631 1_555
Li15 O3 1.957023 1_555
Li15 O5 1.982550 1_555
Li16 O6 1.917246 1_555
Li16 O3 1.947001 1_654
Li16 O8 1.997981 1_555
Li17 O9 1.918680 1_555
Li17 O7 1.949238 1_455
Li17 O2 1.980239 1_555
Li18 O4 1.928223 1_555
Li18 O10 1.928980 1_655
Li18 O0 1.971544 1_645
Li19 O5 1.941010 1_555
Li19 O1 1.957484 1_545
Li19 O11 1.982344 1_555
Mn0 O5 1.949422 1_655
Mn0 O7 1.958064 1_555
Mn0 O2 1.990417 1_555
Mn0 O1 1.999580 1_545
Mn1 O11 1.949464 1_555
Mn1 O8 1.958118 1_546
Mn1 O0 1.990250 1_646
Mn1 O3 1.999623 1_655
Mn2 O6 2.068697 1_555
Mn2 O4 2.083746 1_555
Mn2 O0 2.136416 1_545
Mn2 O3 2.167117 1_554
Mn3 O9 2.068440 1_545
Mn3 O10 2.083668 1_555
Mn3 O2 2.136676 1_555
Mn3 O1 2.167078 1_545
F0 Li4 2.020065 1_555
F0 Li6 2.032320 1_655
F0 Li18 2.059681 1_565
F0 Li12 2.090106 1_555
F0 Li0 2.121474 1_555
F0 Li2 2.202249 1_655
F1 Li7 1.987880 1_555
F1 Li5 2.006639 1_555
F1 Li13 2.051494 1_555
F1 Li19 2.076758 1_565
F1 Li3 2.104278 1_555
F1 Li1 2.169810 1_555
F2 Li8 2.020083 1_555
F2 Li10 2.033037 1_455
F2 Li14 2.059859 1_455
F2 Li17 2.090135 1_555
F2 Li2 2.121353 1_555
F2 Li0 2.201798 1_455
F3 Li11 1.987872 1_555
F3 Li9 2.006826 1_555
F3 Li16 2.051524 1_556
F3 Li15 2.077556 1_555
F3 Li1 2.104442 1_555
F3 Li3 2.168958 1_555
