# generated using pymatgen
data_Pr2InAu2
_symmetry_space_group_name_H-M   'P 1'
_cell_length_a   8.09160982
_cell_length_b   8.09160982
_cell_length_c   3.95266655
_cell_angle_alpha   90.00000000
_cell_angle_beta   90.00000000
_cell_angle_gamma   90.00000000
_symmetry_Int_Tables_number   1
_chemical_formula_structural   Pr2InAu2
_chemical_formula_sum   'Pr4 In2 Au4'
_cell_volume   258.79748054
_cell_formula_units_Z   2
loop_
 _symmetry_equiv_pos_site_id
 _symmetry_equiv_pos_as_xyz
  1  'x, y, z'
loop_
 _atom_site_type_symbol
 _atom_site_label
 _atom_site_symmetry_multiplicity
 _atom_site_fract_x
 _atom_site_fract_y
 _atom_site_fract_z
 _atom_site_occupancy
  Pr  Pr0  1  0.67391758  0.17391758  0.50000000  1
  Pr  Pr1  1  0.32608242  0.82608242  0.50000000  1
  Pr  Pr2  1  0.17391758  0.32608242  0.50000000  1
  Pr  Pr3  1  0.82608242  0.67391758  0.50000000  1
  In  In0  1  0.00000000  0.00000000  0.00000000  1
  In  In1  1  0.50000000  0.50000000  0.00000000  1
  Au  Au0  1  0.12601289  0.62601289  -0.00000000  1
  Au  Au1  1  0.87398711  0.37398711  0.00000000  1
  Au  Au2  1  0.62601289  0.87398711  0.00000000  1
  Au  Au3  1  0.37398711  0.12601289  -0.00000000  1
loop_
_geom_bond_atom_site_label_1
_geom_bond_atom_site_label_2
_geom_bond_distance
_geom_bond_site_symmetry_2
In0 Pr1 3.584433 1_544
In0 Pr1 3.584433 1_545
In0 Pr2 3.584433 1_555
In0 Pr0 3.584433 1_454
In0 Pr3 3.584433 1_445
In0 Pr3 3.584433 1_444
In0 Pr0 3.584433 1_455
In0 Pr2 3.584433 1_554
In1 Pr1 3.584433 1_555
In1 Pr0 3.584433 1_554
In1 Pr3 3.584433 1_555
In1 Pr1 3.584433 1_554
In1 Pr2 3.584433 1_555
In1 Pr0 3.584433 1_555
In1 Pr3 3.584433 1_554
In1 Pr2 3.584433 1_554
Au0 Au1 2.883998 1_455
Au0 Pr1 3.024478 1_555
Au0 Pr1 3.024478 1_554
Au0 Pr3 3.153742 1_454
Au0 Pr3 3.153742 1_455
Au0 Pr2 3.153742 1_555
Au0 Pr2 3.153742 1_554
Au0 In0 3.193323 1_565
Au0 In1 3.193323 1_555
Au1 Pr0 3.024478 1_555
Au1 Pr0 3.024478 1_554
Au1 Pr2 3.153742 1_654
Au1 Pr3 3.153742 1_554
Au1 Pr2 3.153742 1_655
Au1 Pr3 3.153742 1_555
Au1 In1 3.193323 1_555
Au1 In0 3.193323 1_655
Au2 Au3 2.883998 1_565
Au2 Pr3 3.024478 1_555
Au2 Pr3 3.024478 1_554
Au2 Pr0 3.153742 1_564
Au2 Pr0 3.153742 1_565
Au2 Pr1 3.153742 1_554
Au2 Pr1 3.153742 1_555
Au2 In1 3.193323 1_555
Au2 In0 3.193323 1_665
Au3 Pr2 3.024478 1_554
Au3 Pr2 3.024478 1_555
Au3 Pr1 3.153742 1_545
Au3 Pr1 3.153742 1_544
Au3 Pr0 3.153742 1_555
Au3 Pr0 3.153742 1_554
Au3 In1 3.193323 1_555
Au3 In0 3.193323 1_555
