# generated using pymatgen
data_K2CuTeO7
_symmetry_space_group_name_H-M   'P 1'
_cell_length_a   5.68005942
_cell_length_b   5.68005942
_cell_length_c   11.90184878
_cell_angle_alpha   88.20926742
_cell_angle_beta   88.20926742
_cell_angle_gamma   70.50012424
_symmetry_Int_Tables_number   1
_chemical_formula_structural   K2CuTeO7
_chemical_formula_sum   'K4 Cu2 Te2 O14'
_cell_volume   361.70031037
_cell_formula_units_Z   2
loop_
 _symmetry_equiv_pos_site_id
 _symmetry_equiv_pos_as_xyz
  1  'x, y, z'
loop_
 _atom_site_type_symbol
 _atom_site_label
 _atom_site_symmetry_multiplicity
 _atom_site_fract_x
 _atom_site_fract_y
 _atom_site_fract_z
 _atom_site_occupancy
  K  K0  1  0.08837500  0.52887600  0.82199100  1
  K  K1  1  0.52887600  0.08837500  0.32199100  1
  K  K2  1  0.95000200  0.49136100  0.17940000  1
  K  K3  1  0.49136100  0.95000200  0.67940000  1
  Cu  Cu0  1  0.01164800  0.99490100  0.49668300  1
  Cu  Cu1  1  0.99490100  0.01164800  0.99668300  1
  Te  Te0  1  0.99656700  0.49977100  0.49831300  1
  Te  Te1  1  0.49977100  0.99656700  0.99831300  1
  O  O0  1  0.99649300  0.22520200  0.60518000  1
  O  O1  1  0.22520200  0.99649300  0.10518000  1
  O  O2  1  0.02647300  0.76092100  0.38828800  1
  O  O3  1  0.76092100  0.02647300  0.88828800  1
  O  O4  1  0.00879000  0.23952900  0.38951400  1
  O  O5  1  0.23952900  0.00879000  0.88951400  1
  O  O6  1  0.99178200  0.76140600  0.60537500  1
  O  O7  1  0.76140600  0.99178200  0.10537500  1
  O  O8  1  0.35630700  0.34962500  0.51569200  1
  O  O9  1  0.34962500  0.35630700  0.01569200  1
  O  O10  1  0.63969100  0.65045200  0.49019500  1
  O  O11  1  0.65045200  0.63969100  0.99019500  1
  O  O12  1  0.63768400  0.41398500  0.78260900  1
  O  O13  1  0.41398500  0.63768400  0.28260900  1
loop_
_geom_bond_atom_site_label_1
_geom_bond_atom_site_label_2
_geom_bond_distance
_geom_bond_site_symmetry_2
K0 O9 2.753032 1_556
K0 O6 2.843247 1_455
K0 O5 2.882931 1_555
K0 O12 2.899713 1_455
K0 O3 2.934033 1_465
K0 O12 2.991489 1_555
K0 O11 3.051806 1_455
K0 O5 3.249036 1_565
K0 O0 3.296919 1_455
K1 O8 2.753032 1_555
K1 O7 2.843247 1_545
K1 O4 2.882931 1_555
K1 O13 2.899713 1_545
K1 O2 2.934033 1_645
K1 O13 2.991489 1_555
K1 O10 3.051806 1_545
K1 O4 3.249036 1_655
K1 O1 3.296919 1_545
K2 O11 2.799942 1_554
K2 O7 2.805850 1_555
K2 O4 2.814441 1_655
K2 O9 2.862119 1_655
K2 O1 2.874078 1_645
K2 O2 3.076254 1_655
K2 O13 3.100006 1_555
K2 O13 3.297535 1_655
K3 O10 2.799942 1_555
K3 O6 2.805850 1_555
K3 O5 2.814441 1_565
K3 O8 2.862119 1_565
K3 O0 2.874078 1_465
K3 O3 3.076254 1_565
K3 O12 3.100006 1_555
K3 O12 3.297535 1_565
Cu0 O0 1.846494 1_465
Cu0 O6 1.851693 1_455
Cu0 O4 1.852936 1_565
Cu0 O2 1.861021 1_555
Cu1 O1 1.846494 1_646
Cu1 O7 1.851693 1_546
Cu1 O5 1.852936 1_655
Cu1 O3 1.861021 1_555
O0 Te0 1.981527 1_555
O1 Te1 1.981527 1_554
O2 Te0 1.994213 1_455
O3 Te1 1.994213 1_545
O4 Te0 1.977916 1_455
O5 Te1 1.977916 1_545
O6 Te0 1.980438 1_555
O7 Te1 1.980438 1_554
O8 Te0 1.948681 1_455
O9 Te1 1.948681 1_544
O10 Te0 1.923465 1_555
O11 Te1 1.923465 1_555
