# generated using pymatgen
data_Sc3Ge6N11
_symmetry_space_group_name_H-M   'P 1'
_cell_length_a   10.19912100
_cell_length_b   10.19912100
_cell_length_c   5.10740400
_cell_angle_alpha   90.00000000
_cell_angle_beta   90.00000000
_cell_angle_gamma   90.00000000
_symmetry_Int_Tables_number   1
_chemical_formula_structural   Sc3Ge6N11
_chemical_formula_sum   'Sc6 Ge12 N22'
_cell_volume   531.28273218
_cell_formula_units_Z   2
loop_
 _symmetry_equiv_pos_site_id
 _symmetry_equiv_pos_as_xyz
  1  'x, y, z'
loop_
 _atom_site_type_symbol
 _atom_site_label
 _atom_site_symmetry_multiplicity
 _atom_site_fract_x
 _atom_site_fract_y
 _atom_site_fract_z
 _atom_site_occupancy
  Sc  Sc0  1  0.30427300  0.80427300  0.94138800  1
  Sc  Sc1  1  0.69572700  0.19572700  0.94138800  1
  Sc  Sc2  1  0.19572700  0.30427300  0.94138800  1
  Sc  Sc3  1  0.80427300  0.69572700  0.94138800  1
  Sc  Sc4  1  0.50000000  0.50000000  0.95317300  1
  Sc  Sc5  1  0.00000000  0.00000000  0.95317300  1
  Ge  Ge0  1  0.41942900  0.29521600  0.52544300  1
  Ge  Ge1  1  0.58057100  0.70478400  0.52544300  1
  Ge  Ge2  1  0.08057100  0.79521600  0.52544300  1
  Ge  Ge3  1  0.91942900  0.20478400  0.52544300  1
  Ge  Ge4  1  0.29521600  0.58057100  0.52544300  1
  Ge  Ge5  1  0.70478400  0.41942900  0.52544300  1
  Ge  Ge6  1  0.79521600  0.91942900  0.52544300  1
  Ge  Ge7  1  0.20478400  0.08057100  0.52544300  1
  Ge  Ge8  1  0.88038600  0.38038600  0.04975400  1
  Ge  Ge9  1  0.11961400  0.61961400  0.04975400  1
  Ge  Ge10  1  0.61961400  0.88038600  0.04975400  1
  Ge  Ge11  1  0.38038600  0.11961400  0.04975400  1
  N  N0  1  0.31763200  0.42245200  0.68746300  1
  N  N1  1  0.68236800  0.57754800  0.68746300  1
  N  N2  1  0.18236800  0.92245200  0.68746300  1
  N  N3  1  0.81763200  0.07754800  0.68746300  1
  N  N4  1  0.42245200  0.68236800  0.68746300  1
  N  N5  1  0.57754800  0.31763200  0.68746300  1
  N  N6  1  0.92245200  0.81763200  0.68746300  1
  N  N7  1  0.07754800  0.18236800  0.68746300  1
  N  N8  1  0.40600600  0.29435500  0.16528200  1
  N  N9  1  0.59399400  0.70564500  0.16528200  1
  N  N10  1  0.09399400  0.79435500  0.16528200  1
  N  N11  1  0.90600600  0.20564500  0.16528200  1
  N  N12  1  0.29435500  0.59399400  0.16528200  1
  N  N13  1  0.70564500  0.40600600  0.16528200  1
  N  N14  1  0.79435500  0.90600600  0.16528200  1
  N  N15  1  0.20564500  0.09399400  0.16528200  1
  N  N16  1  0.84554300  0.34554300  0.69838100  1
  N  N17  1  0.15445700  0.65445700  0.69838100  1
  N  N18  1  0.65445700  0.84554300  0.69838100  1
  N  N19  1  0.34554300  0.15445700  0.69838100  1
  N  N20  1  0.50000000  0.00000000  0.12356800  1
  N  N21  1  0.00000000  0.50000000  0.12356800  1
loop_
_geom_bond_atom_site_label_1
_geom_bond_atom_site_label_2
_geom_bond_distance
_geom_bond_site_symmetry_2
Ge0 N5 1.826950 1_555
Ge0 N8 1.844596 1_555
Ge0 N19 1.846355 1_555
Ge0 N0 1.856533 1_555
Ge1 N4 1.826950 1_555
Ge1 N9 1.844596 1_555
Ge1 N18 1.846355 1_555
Ge1 N1 1.856533 1_555
Ge2 N6 1.826950 1_455
Ge2 N10 1.844596 1_555
Ge2 N17 1.846355 1_555
Ge2 N2 1.856533 1_555
Ge3 N7 1.826950 1_655
Ge3 N11 1.844596 1_555
Ge3 N16 1.846355 1_555
Ge3 N3 1.856533 1_555
Ge4 N0 1.826950 1_555
Ge4 N12 1.844596 1_555
Ge4 N17 1.846355 1_555
Ge4 N4 1.856533 1_555
Ge5 N1 1.826950 1_555
Ge5 N13 1.844596 1_555
Ge5 N16 1.846355 1_555
Ge5 N5 1.856533 1_555
Ge6 N3 1.826950 1_565
Ge6 N14 1.844596 1_555
Ge6 N18 1.846355 1_555
Ge6 N6 1.856533 1_555
Ge7 N2 1.826950 1_545
Ge7 N15 1.844596 1_555
Ge7 N19 1.846355 1_555
Ge7 N7 1.856533 1_555
Ge8 N21 1.765990 1_655
Ge8 N16 1.863646 1_554
Ge8 N11 1.895439 1_555
Ge8 N13 1.895439 1_555
Ge9 N21 1.765990 1_555
Ge9 N17 1.863646 1_554
Ge9 N10 1.895439 1_555
Ge9 N12 1.895439 1_555
Ge10 N20 1.765990 1_565
Ge10 N18 1.863646 1_554
Ge10 N14 1.895439 1_555
Ge10 N9 1.895439 1_555
Ge11 N20 1.765990 1_555
Ge11 N19 1.863646 1_554
Ge11 N8 1.895439 1_555
Ge11 N15 1.895439 1_555
N0 Sc2 2.163469 1_555
N0 Sc4 2.434506 1_555
N1 Sc3 2.163469 1_555
N1 Sc4 2.434506 1_555
N2 Sc0 2.163469 1_555
N2 Sc5 2.434506 1_565
N3 Sc1 2.163469 1_555
N3 Sc5 2.434506 1_655
N4 Sc0 2.163469 1_555
N4 Sc4 2.434506 1_555
N5 Sc1 2.163469 1_555
N5 Sc4 2.434506 1_555
N6 Sc3 2.163469 1_555
N6 Sc5 2.434506 1_665
N7 Sc2 2.163469 1_555
N7 Sc5 2.434506 1_555
N8 Sc2 2.432578 1_554
N8 Sc4 2.547881 1_554
N9 Sc3 2.432578 1_554
N9 Sc4 2.547881 1_554
N10 Sc0 2.432578 1_554
N10 Sc5 2.547881 1_564
N11 Sc1 2.432578 1_554
N11 Sc5 2.547881 1_654
N12 Sc0 2.432578 1_554
N12 Sc4 2.547881 1_554
N13 Sc1 2.432578 1_554
N13 Sc4 2.547881 1_554
N14 Sc3 2.432578 1_554
N14 Sc5 2.547881 1_664
N15 Sc2 2.432578 1_554
N15 Sc5 2.547881 1_554
N16 Sc1 2.491974 1_555
N17 Sc0 2.491974 1_555
N18 Sc3 2.491974 1_555
N19 Sc2 2.491974 1_555
N20 Sc1 2.972498 1_554
N20 Sc0 2.972498 1_544
N21 Sc2 2.972498 1_554
N21 Sc3 2.972498 1_454
