# generated using pymatgen
data_PuUC3
_symmetry_space_group_name_H-M   'P 1'
_cell_length_a   7.02053463
_cell_length_b   7.02050577
_cell_length_c   7.02048684
_cell_angle_alpha   109.43111279
_cell_angle_beta   109.45237966
_cell_angle_gamma   109.53044830
_symmetry_Int_Tables_number   1
_chemical_formula_structural   PuUC3
_chemical_formula_sum   'Pu4 U4 C12'
_cell_volume   266.36806679
_cell_formula_units_Z   4
loop_
 _symmetry_equiv_pos_site_id
 _symmetry_equiv_pos_as_xyz
  1  'x, y, z'
loop_
 _atom_site_type_symbol
 _atom_site_label
 _atom_site_symmetry_multiplicity
 _atom_site_fract_x
 _atom_site_fract_y
 _atom_site_fract_z
 _atom_site_occupancy
  Pu  Pu0  1  0.90205718  0.90206479  0.90187340  1
  Pu  Pu1  1  0.59794925  0.49982382  0.00002752  1
  Pu  Pu2  1  0.99983132  0.59792563  0.49997580  1
  Pu  Pu3  1  0.50016122  0.00014735  0.59811369  1
  U  U0  1  0.09668851  0.50006845  0.00021057  1
  U  U1  1  0.40331759  0.40353771  0.40338314  1
  U  U2  1  0.99987074  0.09648929  0.49980451  1
  U  U3  1  0.50012697  -0.00007638  0.09660570  1
  C  C0  1  0.75001813  0.45640768  0.70639328  1
  C  C1  1  0.24998668  0.04360520  0.79360943  1
  C  C2  1  0.24997763  0.21878795  0.96877483  1
  C  C3  1  0.75002169  0.28122851  0.53122960  1
  C  C4  1  0.04331753  0.79331346  0.24998634  1
  C  C5  1  0.45666810  0.70666481  0.74999076  1
  C  C6  1  0.28130232  0.53130791  0.74999160  1
  C  C7  1  0.21868045  0.96869939  0.25001418  1
  C  C8  1  0.70668771  0.75000380  0.45669875  1
  C  C9  1  0.79332995  0.24999903  0.04330235  1
  C  C10  1  0.96855108  0.24999658  0.21856785  1
  C  C11  1  0.53145796  0.75000701  0.28144771  1
loop_
_geom_bond_atom_site_label_1
_geom_bond_atom_site_label_2
_geom_bond_distance
_geom_bond_site_symmetry_2
C0 C3 1.420757 1_555
C0 U0 2.451336 1_656
C0 U1 2.451420 1_555
C0 Pu0 2.597365 1_555
C0 Pu1 2.597622 1_556
C0 Pu2 2.765633 1_555
C0 Pu3 2.765888 1_555
C1 C2 1.420801 1_555
C1 U2 2.451285 1_455
C1 U3 2.451313 1_556
C1 Pu3 2.597459 1_555
C1 Pu2 2.597491 1_445
C1 Pu0 2.765475 1_445
C1 Pu1 2.765628 1_556
C2 Pu0 2.457775 1_445
C2 Pu1 2.457881 1_556
C2 U0 2.528942 1_556
C2 U1 2.529109 1_556
C3 Pu2 2.457858 1_555
C3 Pu3 2.458102 1_555
C3 U2 2.529033 1_555
C3 U3 2.529232 1_555
C4 C7 1.420538 1_555
C4 U0 2.450534 1_555
C4 U2 2.450707 1_465
C4 Pu1 2.594903 1_455
C4 Pu2 2.594931 1_455
C4 Pu3 2.769908 1_565
C4 Pu0 2.769950 1_454
C5 C6 1.420548 1_555
C5 U1 2.450489 1_555
C5 U3 2.450604 1_566
C5 Pu3 2.594852 1_565
C5 Pu0 2.595036 1_555
C5 Pu2 2.769827 1_455
C5 Pu1 2.770053 1_556
C6 Pu2 2.461383 1_455
C6 Pu1 2.461639 1_556
C6 U2 2.529019 1_455
C6 U0 2.529133 1_556
C7 Pu3 2.461486 1_565
C7 Pu0 2.461518 1_454
C7 U1 2.529163 1_565
C7 U3 2.529239 1_565
C8 U1 2.447888 1_555
C8 U2 2.448052 1_565
C8 Pu0 2.595119 1_555
C8 Pu2 2.595416 1_555
C8 Pu3 2.770047 1_565
C8 Pu1 2.770054 1_555
C9 U0 2.447866 1_655
C9 U3 2.448145 1_555
C9 Pu3 2.595256 1_554
C9 Pu1 2.595277 1_555
C9 Pu0 2.770009 1_544
C9 Pu2 2.770037 1_555
C10 C9 1.420966 1_555
C10 Pu2 2.461581 1_555
C10 Pu0 2.461839 1_544
C10 U2 2.528465 1_555
C10 U1 2.528584 1_655
C11 C8 1.420945 1_555
C11 Pu1 2.461691 1_555
C11 Pu3 2.461778 1_565
C11 U3 2.528553 1_565
C11 U0 2.528602 1_555
