# generated using pymatgen
data_NaTl
_symmetry_space_group_name_H-M   'P 1'
_cell_length_a   6.14652799
_cell_length_b   6.14652799
_cell_length_c   6.33877207
_cell_angle_alpha   90.00000000
_cell_angle_beta   90.00000000
_cell_angle_gamma   99.79191405
_symmetry_Int_Tables_number   1
_chemical_formula_structural   NaTl
_chemical_formula_sum   'Na4 Tl4'
_cell_volume   235.98885012
_cell_formula_units_Z   4
loop_
 _symmetry_equiv_pos_site_id
 _symmetry_equiv_pos_as_xyz
  1  'x, y, z'
loop_
 _atom_site_type_symbol
 _atom_site_label
 _atom_site_symmetry_multiplicity
 _atom_site_fract_x
 _atom_site_fract_y
 _atom_site_fract_z
 _atom_site_occupancy
  Na  Na0  1  0.13906492  0.50656805  0.25000000  1
  Na  Na1  1  0.49343195  0.86093508  0.75000000  1
  Na  Na2  1  0.86093508  0.49343195  0.75000000  1
  Na  Na3  1  0.50656805  0.13906492  0.25000000  1
  Tl  Tl0  1  -0.00000000  0.00000000  0.50000000  1
  Tl  Tl1  1  -0.00000000  0.00000000  0.00000000  1
  Tl  Tl2  1  0.65598634  0.65598634  0.25000000  1
  Tl  Tl3  1  0.34401366  0.34401366  0.75000000  1
loop_
_geom_bond_atom_site_label_1
_geom_bond_atom_site_label_2
_geom_bond_distance
_geom_bond_site_symmetry_2
Na0 Tl2 3.153726 1_555
Na0 Tl2 3.253844 1_455
Na0 Tl1 3.468622 1_555
Na0 Tl0 3.468622 1_555
Na0 Tl3 3.613630 1_555
Na0 Tl3 3.613630 1_554
Na0 Tl1 3.649946 1_565
Na0 Tl0 3.649946 1_565
Na1 Tl3 3.153726 1_555
Na1 Tl3 3.253844 1_565
Na1 Tl0 3.468622 1_665
Na1 Tl1 3.468622 1_666
Na1 Tl2 3.613630 1_555
Na1 Tl2 3.613630 1_556
Na1 Tl0 3.649946 1_565
Na1 Tl1 3.649946 1_566
Na2 Tl3 3.153726 1_555
Na2 Tl3 3.253844 1_655
Na2 Tl0 3.468622 1_665
Na2 Tl1 3.468622 1_666
Na2 Tl2 3.613630 1_555
Na2 Tl2 3.613630 1_556
Na2 Tl0 3.649946 1_655
Na2 Tl1 3.649946 1_656
Na3 Tl2 3.153726 1_555
Na3 Tl2 3.253844 1_545
Na3 Tl1 3.468622 1_555
Na3 Tl0 3.468622 1_555
Na3 Tl3 3.613630 1_555
Na3 Tl3 3.613630 1_554
Na3 Tl0 3.649946 1_655
Na3 Tl1 3.649946 1_655
Tl0 Tl3 3.151602 1_555
Tl0 Tl2 3.151602 1_445
Tl0 Tl1 3.169386 1_555
Tl0 Tl1 3.169386 1_556
Tl1 Tl2 3.151602 1_445
Tl1 Tl3 3.151602 1_554
