# generated using pymatgen
data_Pt3(RhSe5)2
_symmetry_space_group_name_H-M   'P 1'
_cell_length_a   3.76982010
_cell_length_b   3.76982010
_cell_length_c   25.52931000
_cell_angle_alpha   90.00000000
_cell_angle_beta   90.00000000
_cell_angle_gamma   120.00000171
_symmetry_Int_Tables_number   1
_chemical_formula_structural   Pt3(RhSe5)2
_chemical_formula_sum   'Pt3 Rh2 Se10'
_cell_volume   314.20345186
_cell_formula_units_Z   1
loop_
 _symmetry_equiv_pos_site_id
 _symmetry_equiv_pos_as_xyz
  1  'x, y, z'
loop_
 _atom_site_type_symbol
 _atom_site_label
 _atom_site_symmetry_multiplicity
 _atom_site_fract_x
 _atom_site_fract_y
 _atom_site_fract_z
 _atom_site_occupancy
  Pt  Pt0  1  0.00000000  0.00000000  0.20017500  1
  Pt  Pt1  1  0.00000000  0.00000000  0.00000000  1
  Pt  Pt2  1  0.00000000  0.00000000  0.79982500  1
  Rh  Rh0  1  0.00000000  0.00000000  0.60052500  1
  Rh  Rh1  1  0.00000000  0.00000000  0.39947500  1
  Se  Se0  1  0.66666700  0.33333300  0.14935300  1
  Se  Se1  1  0.66666700  0.33333300  0.94916400  1
  Se  Se2  1  0.66666700  0.33333300  0.74860700  1
  Se  Se3  1  0.66666700  0.33333300  0.55036000  1
  Se  Se4  1  0.66666700  0.33333300  0.35101800  1
  Se  Se5  1  0.33333300  0.66666700  0.05083600  1
  Se  Se6  1  0.33333300  0.66666700  0.85064700  1
  Se  Se7  1  0.33333300  0.66666700  0.64898200  1
  Se  Se8  1  0.33333300  0.66666700  0.44964000  1
  Se  Se9  1  0.33333300  0.66666700  0.25139300  1
loop_
_geom_bond_atom_site_label_1
_geom_bond_atom_site_label_2
_geom_bond_distance
_geom_bond_site_symmetry_2
Pt0 Se0 2.533880 1_455
Pt0 Se0 2.533883 1_555
Pt0 Se0 2.533883 1_445
Pt0 Se9 2.539072 1_545
Pt0 Se9 2.539075 1_445
Pt0 Se9 2.539075 1_555
Pt1 Se1 2.534063 1_454
Pt1 Se5 2.534063 1_545
Pt1 Se5 2.534066 1_445
Pt1 Se1 2.534066 1_554
Pt1 Se1 2.534066 1_444
Pt1 Se5 2.534066 1_555
Pt2 Se6 2.533880 1_545
Pt2 Se6 2.533883 1_445
Pt2 Se6 2.533883 1_555
Pt2 Se2 2.539072 1_455
Pt2 Se2 2.539075 1_555
Pt2 Se2 2.539075 1_445
Rh0 Se7 2.503502 1_545
Rh0 Se7 2.503505 1_445
Rh0 Se7 2.503505 1_555
Rh0 Se3 2.525333 1_455
Rh0 Se3 2.525336 1_555
Rh0 Se3 2.525336 1_445
Rh1 Se4 2.503502 1_455
Rh1 Se4 2.503505 1_555
Rh1 Se4 2.503505 1_445
Rh1 Se8 2.525333 1_545
Rh1 Se8 2.525336 1_445
Rh1 Se8 2.525336 1_555
