# generated using pymatgen
data_CsNd(WO4)2
_symmetry_space_group_name_H-M   'P 1'
_cell_length_a   7.79451451
_cell_length_b   7.79451451
_cell_length_c   7.63080598
_cell_angle_alpha   63.09771639
_cell_angle_beta   63.09771639
_cell_angle_gamma   89.84462767
_symmetry_Int_Tables_number   1
_chemical_formula_structural   CsNd(WO4)2
_chemical_formula_sum   'Cs2 Nd2 W4 O16'
_cell_volume   356.59800381
_cell_formula_units_Z   2
loop_
 _symmetry_equiv_pos_site_id
 _symmetry_equiv_pos_as_xyz
  1  'x, y, z'
loop_
 _atom_site_type_symbol
 _atom_site_label
 _atom_site_symmetry_multiplicity
 _atom_site_fract_x
 _atom_site_fract_y
 _atom_site_fract_z
 _atom_site_occupancy
  Cs  Cs0  1  0.19795600  0.80204400  0.75000000  1
  Cs  Cs1  1  0.80204400  0.19795600  0.25000000  1
  Nd  Nd0  1  0.77563600  0.22436400  0.75000000  1
  Nd  Nd1  1  0.22436400  0.77563600  0.25000000  1
  W  W0  1  0.69579600  0.68403500  0.78117900  1
  W  W1  1  0.30420400  0.31596500  0.21882100  1
  W  W2  1  0.31596500  0.30420400  0.71882100  1
  W  W3  1  0.68403500  0.69579600  0.28117900  1
  O  O0  1  0.62100100  0.74564800  0.56449000  1
  O  O1  1  0.37899900  0.25435200  0.43551000  1
  O  O2  1  0.25435200  0.37899900  0.93551000  1
  O  O3  1  0.74564800  0.62100100  0.06449000  1
  O  O4  1  0.38108100  0.07113200  0.86640600  1
  O  O5  1  0.61891900  0.92886800  0.13359400  1
  O  O6  1  0.92886800  0.61891900  0.63359400  1
  O  O7  1  0.07113200  0.38108100  0.36640600  1
  O  O8  1  0.58461000  0.37249900  0.97020300  1
  O  O9  1  0.41539000  0.62750100  0.02979700  1
  O  O10  1  0.62750100  0.41539000  0.52979700  1
  O  O11  1  0.37249900  0.58461000  0.47020300  1
  O  O12  1  0.78341600  0.94180300  0.69891300  1
  O  O13  1  0.21658400  0.05819700  0.30108700  1
  O  O14  1  0.05819700  0.21658400  0.80108700  1
  O  O15  1  0.94180300  0.78341600  0.19891300  1
loop_
_geom_bond_atom_site_label_1
_geom_bond_atom_site_label_2
_geom_bond_distance
_geom_bond_site_symmetry_2
Cs0 O15 3.017307 1_456
Cs0 O13 3.017307 1_565
Cs0 O2 3.066159 1_555
Cs0 O0 3.066159 1_555
Cs0 O1 3.079905 1_565
Cs0 O3 3.079905 1_456
Cs0 O9 3.148842 1_556
Cs0 O11 3.148842 1_555
Cs0 O4 3.174132 1_565
Cs0 O6 3.174132 1_455
Cs0 O12 3.537711 1_455
Cs0 O14 3.537711 1_565
Cs1 O12 3.017307 1_545
Cs1 O14 3.017307 1_654
Cs1 O1 3.066159 1_555
Cs1 O3 3.066159 1_555
Cs1 O2 3.079905 1_654
Cs1 O0 3.079905 1_545
Cs1 O10 3.148842 1_555
Cs1 O8 3.148842 1_554
Cs1 O7 3.174132 1_655
Cs1 O5 3.174132 1_545
Cs1 O13 3.537711 1_655
Cs1 O15 3.537711 1_545
Nd0 O12 2.400245 1_545
Nd0 O14 2.400245 1_655
Nd0 O8 2.419917 1_555
Nd0 O10 2.419917 1_555
Nd0 O5 2.458400 1_546
Nd0 O7 2.458400 1_655
Nd0 O4 2.874227 1_555
Nd0 O6 2.874227 1_555
Nd1 O15 2.400245 1_455
Nd1 O13 2.400245 1_565
Nd1 O11 2.419917 1_555
Nd1 O9 2.419917 1_555
Nd1 O6 2.458400 1_455
Nd1 O4 2.458400 1_564
Nd1 O7 2.874227 1_555
Nd1 O5 2.874227 1_555
O0 W0 1.859257 1_555
O0 W3 2.205472 1_555
O1 W1 1.859257 1_555
O1 W2 2.205472 1_555
O2 W2 1.859257 1_555
O2 W1 2.205472 1_556
O3 W3 1.859257 1_555
O3 W0 2.205472 1_554
O4 W2 1.867368 1_555
O5 W3 1.867368 1_555
O6 W0 1.867368 1_555
O7 W1 1.867368 1_555
O8 W1 2.016615 1_556
O8 W0 2.106822 1_555
O9 W0 2.016615 1_554
O9 W1 2.106822 1_555
O10 W3 2.016615 1_555
O10 W2 2.106822 1_555
O11 W2 2.016615 1_555
O11 W3 2.106822 1_555
O12 W0 1.837222 1_555
O13 W1 1.837222 1_555
O14 W2 1.837222 1_555
O15 W3 1.837222 1_555
