# generated using pymatgen
data_K2Nd2Mg(SO4)4
_symmetry_space_group_name_H-M   'P 1'
_cell_length_a   5.51769163
_cell_length_b   7.17389116
_cell_length_c   9.80399106
_cell_angle_alpha   100.82315514
_cell_angle_beta   96.26020537
_cell_angle_gamma   86.50175999
_symmetry_Int_Tables_number   1
_chemical_formula_structural   K2Nd2Mg(SO4)4
_chemical_formula_sum   'K2 Nd2 Mg1 S4 O16'
_cell_volume   378.57148081
_cell_formula_units_Z   1
loop_
 _symmetry_equiv_pos_site_id
 _symmetry_equiv_pos_as_xyz
  1  'x, y, z'
loop_
 _atom_site_type_symbol
 _atom_site_label
 _atom_site_symmetry_multiplicity
 _atom_site_fract_x
 _atom_site_fract_y
 _atom_site_fract_z
 _atom_site_occupancy
  K  K0  1  0.77600000  0.15660500  0.11608600  1
  K  K1  1  0.26499400  0.81947000  0.83847800  1
  Nd  Nd0  1  0.25870400  0.68008600  0.28508600  1
  Nd  Nd1  1  0.76404400  0.30898600  0.73221700  1
  Mg  Mg0  1  0.71542600  0.42999700  0.40088900  1
  S  S0  1  0.26095400  0.31902400  0.92093200  1
  S  S1  1  0.77034300  0.78911200  0.57085100  1
  S  S2  1  0.77166700  0.68037600  0.06438700  1
  S  S3  1  0.19509500  0.22412800  0.44808600  1
  O  O0  1  0.69817500  0.57714100  0.91954200  1
  O  O1  1  0.11185900  0.38897600  0.37625100  1
  O  O2  1  0.76342600  0.59819000  0.61828800  1
  O  O3  1  0.97357000  0.77342200  0.48218600  1
  O  O4  1  0.21732600  0.05135600  0.34222000  1
  O  O5  1  0.47694000  0.19515500  0.87255700  1
  O  O6  1  0.97409100  0.80818600  0.06191100  1
  O  O7  1  0.18333900  0.44565000  0.81739300  1
  O  O8  1  0.99098600  0.20943800  0.53559500  1
  O  O9  1  0.55400500  0.79304500  0.11873200  1
  O  O10  1  0.86576000  0.54507100  0.15777300  1
  O  O11  1  0.32176000  0.41923300  0.06339800  1
  O  O12  1  0.05024400  0.19162300  0.91236100  1
  O  O13  1  0.80879500  0.94026500  0.69650800  1
  O  O14  1  0.42545500  0.26571800  0.54096300  1
  O  O15  1  0.53204200  0.82493400  0.49302400  1
loop_
_geom_bond_atom_site_label_1
_geom_bond_atom_site_label_2
_geom_bond_distance
_geom_bond_site_symmetry_2
K0 O6 2.649337 1_545
K0 O12 2.690001 1_654
K0 O5 2.798728 1_554
K0 O10 2.806278 1_555
K0 O9 2.953922 1_545
K0 O11 3.099230 1_555
K0 Mg0 3.133947 1_555
K0 O1 3.235470 1_655
K0 O4 3.262188 1_655
K1 O7 2.712272 1_555
K1 O12 2.851549 1_565
K1 O6 2.868910 1_456
K1 O13 2.906385 1_455
K1 O5 2.950285 1_565
K1 O0 2.994027 1_555
K1 O9 3.054739 1_556
Nd0 O15 2.497109 1_555
Nd0 O10 2.531599 1_455
Nd0 O3 2.589621 1_455
Nd0 O4 2.617869 1_565
Nd0 O1 2.623386 1_555
Nd0 O11 2.627682 1_555
Nd0 O9 2.684870 1_555
Nd0 O6 2.815621 1_455
Nd1 O8 2.386261 1_555
Nd1 O0 2.437015 1_555
Nd1 O12 2.471800 1_655
Nd1 O5 2.474803 1_555
Nd1 O14 2.488106 1_555
Nd1 O2 2.533905 1_555
Nd1 O7 2.561056 1_655
Nd1 O13 2.602266 1_545
Mg0 O1 2.222526 1_655
Mg0 O2 2.240281 1_555
Mg0 O8 2.571526 1_555
Mg0 O14 2.674292 1_555
O0 S2 1.498527 1_556
O1 S3 1.510443 1_555
O2 S1 1.530743 1_555
O3 S1 1.478562 1_555
O4 S3 1.467861 1_555
O5 S0 1.506846 1_555
O6 S2 1.492658 1_555
O7 S0 1.497677 1_555
O8 S3 1.508202 1_655
O9 S2 1.496302 1_555
O10 S2 1.489485 1_555
O11 S0 1.459581 1_554
O12 S0 1.507855 1_555
O13 S1 1.485900 1_555
O14 S3 1.491835 1_555
O15 S1 1.480109 1_555
