# generated using pymatgen
data_Li2US3
_symmetry_space_group_name_H-M   'P 1'
_cell_length_a   6.72700245
_cell_length_b   6.72700245
_cell_length_c   6.50320351
_cell_angle_alpha   80.07532591
_cell_angle_beta   80.07532591
_cell_angle_gamma   120.03273756
_symmetry_Int_Tables_number   1
_chemical_formula_structural   Li2US3
_chemical_formula_sum   'Li4 U2 S6'
_cell_volume   239.14452464
_cell_formula_units_Z   2
loop_
 _symmetry_equiv_pos_site_id
 _symmetry_equiv_pos_as_xyz
  1  'x, y, z'
loop_
 _atom_site_type_symbol
 _atom_site_label
 _atom_site_symmetry_multiplicity
 _atom_site_fract_x
 _atom_site_fract_y
 _atom_site_fract_z
 _atom_site_occupancy
  Li  Li0  1  -0.00000000  -0.00000000  -0.00000000  1
  Li  Li1  1  0.50000000  0.50000000  0.50000000  1
  Li  Li2  1  0.83473827  0.16526173  0.50000000  1
  Li  Li3  1  0.16526173  0.83473827  0.50000000  1
  U  U0  1  0.66688565  0.33311435  -0.00000000  1
  U  U1  1  0.33311435  0.66688565  -0.00000000  1
  S  S0  1  0.25867167  0.25867167  0.25289926  1
  S  S1  1  0.42405652  0.08292090  0.75237267  1
  S  S2  1  0.08292090  0.42405652  0.75237267  1
  S  S3  1  0.74132833  0.74132833  0.74710074  1
  S  S4  1  0.57594348  0.91707910  0.24762733  1
  S  S5  1  0.91707910  0.57594348  0.24762733  1
loop_
_geom_bond_atom_site_label_1
_geom_bond_atom_site_label_2
_geom_bond_distance
_geom_bond_site_symmetry_2
Li0 S5 2.748816 1_445
Li0 S4 2.748816 1_445
Li0 S1 2.748816 1_554
Li0 S2 2.748816 1_554
Li0 S3 2.775388 1_444
Li0 S0 2.775388 1_555
Li1 S0 2.648330 1_555
Li1 S3 2.648330 1_555
Li1 S4 2.741431 1_555
Li1 S5 2.741431 1_555
Li1 S1 2.741431 1_555
Li1 S2 2.741431 1_555
Li2 S1 2.687868 1_555
Li2 S5 2.687868 1_555
Li2 S3 2.718158 1_545
Li2 S0 2.718158 1_655
Li2 S2 2.744411 1_655
Li2 S4 2.744411 1_545
Li3 S2 2.687868 1_555
Li3 S4 2.687868 1_555
Li3 S0 2.718158 1_565
Li3 S3 2.718158 1_455
Li3 S1 2.744411 1_565
Li3 S5 2.744411 1_455
S0 U1 2.698012 1_555
S0 U0 2.698012 1_555
S1 U0 2.680179 1_556
S1 U1 2.682000 1_546
S2 U1 2.680179 1_556
S2 U0 2.682000 1_456
S3 U0 2.698012 1_556
S3 U1 2.698012 1_556
S4 U1 2.680179 1_555
S4 U0 2.682000 1_565
S5 U0 2.680179 1_555
S5 U1 2.682000 1_655
