# generated using pymatgen
data_V6Zn(FeO6)4
_symmetry_space_group_name_H-M   'P 1'
_cell_length_a   6.74799694
_cell_length_b   8.32041916
_cell_length_c   10.00335052
_cell_angle_alpha   107.20343775
_cell_angle_beta   105.22841615
_cell_angle_gamma   103.66113501
_symmetry_Int_Tables_number   1
_chemical_formula_structural   V6Zn(FeO6)4
_chemical_formula_sum   'V6 Zn1 Fe4 O24'
_cell_volume   486.74376035
_cell_formula_units_Z   1
loop_
 _symmetry_equiv_pos_site_id
 _symmetry_equiv_pos_as_xyz
  1  'x, y, z'
loop_
 _atom_site_type_symbol
 _atom_site_label
 _atom_site_symmetry_multiplicity
 _atom_site_fract_x
 _atom_site_fract_y
 _atom_site_fract_z
 _atom_site_occupancy
  V  V0  1  0.88750500  0.89138200  0.66090800  1
  V  V1  1  0.11249500  0.10861800  0.33909200  1
  V  V2  1  0.20597800  0.66214700  0.26691100  1
  V  V3  1  0.79402200  0.33785300  0.73308900  1
  V  V4  1  0.60918300  0.25838100  0.13747800  1
  V  V5  1  0.39081700  0.74161900  0.86252200  1
  Zn  Zn0  1  0.00000000  0.50000000  0.50000000  1
  Fe  Fe0  1  0.37514000  0.96093300  0.60602000  1
  Fe  Fe1  1  0.62486000  0.03906700  0.39398000  1
  Fe  Fe2  1  0.05013000  0.20571300  0.01203100  1
  Fe  Fe3  1  0.94987000  0.79428700  0.98796900  1
  O  O0  1  0.06925300  0.05788900  0.14385500  1
  O  O1  1  0.93074700  0.94211100  0.85614500  1
  O  O2  1  0.55430800  0.10873200  0.22446000  1
  O  O3  1  0.44569200  0.89126800  0.77554000  1
  O  O4  1  0.16792300  0.44126100  0.17811500  1
  O  O5  1  0.83207700  0.55873900  0.82188500  1
  O  O6  1  0.99041900  0.27797200  0.84086000  1
  O  O7  1  0.00958100  0.72202800  0.15914000  1
  O  O8  1  0.24232900  0.80379900  0.97855100  1
  O  O9  1  0.75767100  0.19620100  0.02144900  1
  O  O10  1  0.88201700  0.99500600  0.35807100  1
  O  O11  1  0.11798300  0.00499400  0.64192900  1
  O  O12  1  0.54276000  0.21879800  0.72930700  1
  O  O13  1  0.45724000  0.78120200  0.27069300  1
  O  O14  1  0.35743400  0.25324400  0.02719600  1
  O  O15  1  0.64256600  0.74675600  0.97280400  1
  O  O16  1  0.34047100  0.04861400  0.43067800  1
  O  O17  1  0.65952900  0.95138600  0.56932200  1
  O  O18  1  0.21103700  0.71155800  0.45690600  1
  O  O19  1  0.78896300  0.28844200  0.54309400  1
  O  O20  1  0.77332000  0.45653300  0.28316300  1
  O  O21  1  0.22668000  0.54346700  0.71683700  1
  O  O22  1  0.14699200  0.32705300  0.41683400  1
  O  O23  1  0.85300800  0.67294700  0.58316600  1
loop_
_geom_bond_atom_site_label_1
_geom_bond_atom_site_label_2
_geom_bond_distance
_geom_bond_site_symmetry_2
Fe0 O3 1.930270 1_555
Fe0 O11 1.955695 1_565
Fe0 O12 1.989812 1_565
Fe0 O18 1.993141 1_555
Fe0 O17 2.061238 1_555
Fe0 O16 2.070143 1_565
Fe1 O2 1.930270 1_555
Fe1 O10 1.955695 1_545
Fe1 O13 1.989812 1_545
Fe1 O19 1.993141 1_555
Fe1 O16 2.061238 1_555
Fe1 O17 2.070143 1_545
Fe2 O6 1.953634 1_454
Fe2 O4 1.969113 1_555
Fe2 O14 1.972679 1_555
Fe2 O9 1.984489 1_455
Fe2 O0 2.052648 1_555
Fe2 O1 2.091279 1_444
Fe3 O7 1.953634 1_656
Fe3 O5 1.969113 1_555
Fe3 O15 1.972679 1_555
Fe3 O8 1.984489 1_655
Fe3 O1 2.052648 1_555
Fe3 O0 2.091279 1_666
O0 V1 1.797894 1_555
O1 V0 1.797894 1_555
O2 V4 1.742681 1_555
O3 V5 1.742681 1_555
O4 V2 1.710046 1_555
O5 V3 1.710046 1_555
O6 V3 1.745255 1_555
O7 V2 1.745255 1_555
O8 V5 1.766199 1_555
O9 V4 1.766199 1_555
O10 V1 1.707427 1_665
O11 V0 1.707427 1_445
O12 V3 1.734430 1_555
O13 V2 1.734430 1_555
O14 V4 1.748731 1_555
O15 V5 1.748731 1_555
O16 V1 1.829805 1_555
O17 V0 1.829805 1_555
O18 V2 1.810938 1_555
O18 Zn0 2.213505 1_555
O19 V3 1.810938 1_555
O19 Zn0 2.213505 1_655
O20 V4 1.713772 1_555
O20 Zn0 2.169604 1_655
O21 V5 1.713772 1_555
O21 Zn0 2.169604 1_555
O22 V1 1.682602 1_555
O22 Zn0 2.036236 1_555
O23 V0 1.682602 1_555
O23 Zn0 2.036236 1_655
