# generated using pymatgen
data_TmGa6
_symmetry_space_group_name_H-M   'P 1'
_cell_length_a   5.88503036
_cell_length_b   5.88503036
_cell_length_c   7.45461023
_cell_angle_alpha   90.00000000
_cell_angle_beta   90.00000000
_cell_angle_gamma   90.00000000
_symmetry_Int_Tables_number   1
_chemical_formula_structural   TmGa6
_chemical_formula_sum   'Tm2 Ga12'
_cell_volume   258.17985720
_cell_formula_units_Z   2
loop_
 _symmetry_equiv_pos_site_id
 _symmetry_equiv_pos_as_xyz
  1  'x, y, z'
loop_
 _atom_site_type_symbol
 _atom_site_label
 _atom_site_symmetry_multiplicity
 _atom_site_fract_x
 _atom_site_fract_y
 _atom_site_fract_z
 _atom_site_occupancy
  Tm  Tm0  1  0.50000000  0.00000000  -0.00000000  1
  Tm  Tm1  1  0.00000000  0.50000000  -0.00000000  1
  Ga  Ga0  1  0.50000000  0.50000000  0.16137565  1
  Ga  Ga1  1  0.00000000  0.00000000  0.16137565  1
  Ga  Ga2  1  0.00000000  0.00000000  0.83862435  1
  Ga  Ga3  1  0.50000000  0.50000000  0.83862435  1
  Ga  Ga4  1  0.82278644  0.67721356  0.35161041  1
  Ga  Ga5  1  0.32278644  0.82278644  0.35161041  1
  Ga  Ga6  1  0.67721356  0.17721356  0.35161041  1
  Ga  Ga7  1  0.17721356  0.32278644  0.35161041  1
  Ga  Ga8  1  0.67721356  0.82278644  0.64838959  1
  Ga  Ga9  1  0.17721356  0.67721356  0.64838959  1
  Ga  Ga10  1  0.82278644  0.32278644  0.64838959  1
  Ga  Ga11  1  0.32278644  0.17721356  0.64838959  1
loop_
_geom_bond_atom_site_label_1
_geom_bond_atom_site_label_2
_geom_bond_distance
_geom_bond_site_symmetry_2
Ga0 Ga3 2.405985 1_554
Ga0 Ga6 2.589835 1_555
Ga0 Ga4 2.589835 1_555
Ga0 Ga7 2.589835 1_555
Ga0 Ga5 2.589835 1_555
Ga0 Tm1 3.178929 1_655
Ga0 Tm1 3.178929 1_555
Ga0 Tm0 3.178929 1_555
Ga0 Tm0 3.178929 1_565
Ga1 Ga2 2.405985 1_554
Ga1 Ga6 2.589835 1_455
Ga1 Ga7 2.589835 1_555
Ga1 Ga4 2.589835 1_445
Ga1 Ga5 2.589835 1_545
Ga1 Tm1 3.178929 1_555
Ga1 Tm0 3.178929 1_455
Ga1 Tm0 3.178929 1_555
Ga1 Tm1 3.178929 1_545
Ga2 Ga9 2.589835 1_545
Ga2 Ga8 2.589835 1_445
Ga2 Tm1 3.178929 1_546
Ga2 Tm0 3.178929 1_456
Ga2 Tm0 3.178929 1_556
Ga2 Tm1 3.178929 1_556
Ga3 Ga8 2.589835 1_555
Ga3 Ga9 2.589835 1_555
Ga3 Tm0 3.178929 1_566
Ga3 Tm1 3.178929 1_656
Ga3 Tm0 3.178929 1_556
Ga3 Tm1 3.178929 1_556
Ga4 Ga8 2.522393 1_555
Ga4 Tm1 3.007586 1_655
Ga5 Ga9 2.522393 1_555
Ga5 Tm0 3.007586 1_565
Ga6 Tm0 3.007586 1_555
Ga7 Tm1 3.007586 1_555
Ga8 Tm0 3.007586 1_566
Ga9 Tm1 3.007586 1_556
Ga10 Ga6 2.522393 1_555
Ga10 Ga2 2.589835 1_655
Ga10 Ga3 2.589835 1_555
Ga10 Tm1 3.007586 1_656
Ga11 Ga7 2.522393 1_555
Ga11 Ga2 2.589835 1_555
Ga11 Ga3 2.589835 1_555
Ga11 Tm0 3.007586 1_556
