# generated using pymatgen
data_La3Ir
_symmetry_space_group_name_H-M   'P 1'
_cell_length_a   6.72577889
_cell_length_b   7.39001873
_cell_length_c   10.24251136
_cell_angle_alpha   90.00000000
_cell_angle_beta   90.00000000
_cell_angle_gamma   90.00000000
_symmetry_Int_Tables_number   1
_chemical_formula_structural   La3Ir
_chemical_formula_sum   'La12 Ir4'
_cell_volume   509.09001510
_cell_formula_units_Z   4
loop_
 _symmetry_equiv_pos_site_id
 _symmetry_equiv_pos_as_xyz
  1  'x, y, z'
loop_
 _atom_site_type_symbol
 _atom_site_label
 _atom_site_symmetry_multiplicity
 _atom_site_fract_x
 _atom_site_fract_y
 _atom_site_fract_z
 _atom_site_occupancy
  La  La0  1  0.32451088  0.65956227  0.06874995  1
  La  La1  1  0.17548912  0.15956227  0.43125005  1
  La  La2  1  0.67548912  0.34043773  0.56874995  1
  La  La3  1  0.82451088  0.84043773  0.93125005  1
  La  La4  1  0.67548912  0.34043773  0.93125005  1
  La  La5  1  0.82451088  0.84043773  0.56874995  1
  La  La6  1  0.32451088  0.65956227  0.43125005  1
  La  La7  1  0.17548912  0.15956227  0.06874995  1
  La  La8  1  0.85249733  0.54884023  0.25000000  1
  La  La9  1  0.64750267  0.04884023  0.25000000  1
  La  La10  1  0.14750267  0.45115977  0.75000000  1
  La  La11  1  0.35249733  0.95115977  0.75000000  1
  Ir  Ir0  1  0.06537818  0.87507199  0.25000000  1
  Ir  Ir1  1  0.43462182  0.37507199  0.25000000  1
  Ir  Ir2  1  0.93462182  0.12492801  0.75000000  1
  Ir  Ir3  1  0.56537818  0.62492801  0.75000000  1
loop_
_geom_bond_atom_site_label_1
_geom_bond_atom_site_label_2
_geom_bond_distance
_geom_bond_site_symmetry_2
Ir0 La8 2.803972 1_455
Ir0 La7 2.900849 1_565
Ir0 La1 2.900849 1_565
Ir0 La6 3.003408 1_555
Ir0 La0 3.003408 1_555
Ir0 La9 3.090011 1_465
Ir1 La9 2.803972 1_555
Ir1 La6 2.900849 1_555
Ir1 La0 2.900849 1_555
Ir1 La7 3.003408 1_555
Ir1 La1 3.003408 1_555
Ir1 La8 3.090011 1_555
Ir2 La10 2.803972 1_655
Ir2 La5 2.900849 1_545
Ir2 La3 2.900849 1_545
Ir2 La2 3.003408 1_555
Ir2 La4 3.003408 1_555
Ir2 La11 3.090011 1_645
Ir3 La11 2.803972 1_555
Ir3 La2 2.900849 1_555
Ir3 La4 2.900849 1_555
Ir3 La5 3.003408 1_555
Ir3 La3 3.003408 1_555
Ir3 La10 3.090011 1_555
