# generated using pymatgen
data_Lu2InAu2
_symmetry_space_group_name_H-M   'P 1'
_cell_length_a   3.62156800
_cell_length_b   7.78915275
_cell_length_c   7.78915275
_cell_angle_alpha   90.00000000
_cell_angle_beta   90.00000000
_cell_angle_gamma   90.00000000
_symmetry_Int_Tables_number   1
_chemical_formula_structural   Lu2InAu2
_chemical_formula_sum   'Lu4 In2 Au4'
_cell_volume   219.72379201
_cell_formula_units_Z   2
loop_
 _symmetry_equiv_pos_site_id
 _symmetry_equiv_pos_as_xyz
  1  'x, y, z'
loop_
 _atom_site_type_symbol
 _atom_site_label
 _atom_site_symmetry_multiplicity
 _atom_site_fract_x
 _atom_site_fract_y
 _atom_site_fract_z
 _atom_site_occupancy
  Lu  Lu0  1  -0.00000000  0.33132976  0.66867024  1
  Lu  Lu1  1  -0.00000000  0.66867024  0.33132976  1
  Lu  Lu2  1  -0.00000000  0.16867024  0.16867024  1
  Lu  Lu3  1  -0.00000000  0.83132976  0.83132976  1
  In  In0  1  0.50000000  -0.00000000  0.50000000  1
  In  In1  1  0.50000000  0.50000000  0.00000000  1
  Au  Au0  1  0.50000000  0.12931576  0.87068424  1
  Au  Au1  1  0.50000000  0.87068424  0.12931576  1
  Au  Au2  1  0.50000000  0.37068424  0.37068424  1
  Au  Au3  1  0.50000000  0.62931576  0.62931576  1
loop_
_geom_bond_atom_site_label_1
_geom_bond_atom_site_label_2
_geom_bond_distance
_geom_bond_site_symmetry_2
In0 Lu0 3.415468 1_555
In0 Lu0 3.415468 1_655
In0 Lu3 3.415468 1_645
In0 Lu3 3.415468 1_545
In0 Lu2 3.415468 1_555
In0 Lu2 3.415468 1_655
In0 Lu1 3.415468 1_645
In0 Lu1 3.415468 1_545
In1 Lu3 3.415468 1_554
In1 Lu3 3.415468 1_654
In1 Lu1 3.415468 1_555
In1 Lu1 3.415468 1_655
In1 Lu2 3.415468 1_555
In1 Lu0 3.415468 1_554
In1 Lu2 3.415468 1_655
In1 Lu0 3.415468 1_654
Au0 Lu0 2.868947 1_555
Au0 Lu0 2.868947 1_655
Au0 Lu2 2.959766 1_656
Au0 Lu2 2.959766 1_556
Au0 Lu3 2.959766 1_645
Au0 Lu3 2.959766 1_545
Au0 In0 3.057968 1_555
Au0 In1 3.057968 1_556
Au1 Lu1 2.868947 1_655
Au1 Lu1 2.868947 1_555
Au1 Lu2 2.959766 1_665
Au1 Lu3 2.959766 1_654
Au1 Lu3 2.959766 1_554
Au1 Lu2 2.959766 1_565
Au1 In1 3.057968 1_555
Au1 In0 3.057968 1_565
Au2 Lu2 2.868947 1_555
Au2 Lu2 2.868947 1_655
Au2 Lu0 2.959766 1_655
Au2 Lu1 2.959766 1_655
Au2 Lu1 2.959766 1_555
Au2 Lu0 2.959766 1_555
Au2 In0 3.057968 1_555
Au2 In1 3.057968 1_555
Au3 Lu3 2.868947 1_555
Au3 Lu3 2.868947 1_655
Au3 Lu0 2.959766 1_555
Au3 Lu0 2.959766 1_655
Au3 Lu1 2.959766 1_655
Au3 Lu1 2.959766 1_555
Au3 In1 3.057968 1_556
Au3 In0 3.057968 1_565
