# generated using pymatgen
data_Sm(ZnP)3
_symmetry_space_group_name_H-M   'P 1'
_cell_length_a   4.00103790
_cell_length_b   4.00103864
_cell_length_c   19.92394118
_cell_angle_alpha   90.00000000
_cell_angle_beta   90.00000000
_cell_angle_gamma   119.99999386
_symmetry_Int_Tables_number   1
_chemical_formula_structural   Sm(ZnP)3
_chemical_formula_sum   'Sm2 Zn6 P6'
_cell_volume   276.21758292
_cell_formula_units_Z   2
loop_
 _symmetry_equiv_pos_site_id
 _symmetry_equiv_pos_as_xyz
  1  'x, y, z'
loop_
 _atom_site_type_symbol
 _atom_site_label
 _atom_site_symmetry_multiplicity
 _atom_site_fract_x
 _atom_site_fract_y
 _atom_site_fract_z
 _atom_site_occupancy
  Sm  Sm0  1  -0.00000000  -0.00000000  0.50000000  1
  Sm  Sm1  1  -0.00000000  -0.00000000  -0.00000000  1
  Zn  Zn0  1  0.66666700  0.33333300  0.25000000  1
  Zn  Zn1  1  0.33333300  0.66666700  0.75000000  1
  Zn  Zn2  1  0.66666700  0.33333300  0.62938576  1
  Zn  Zn3  1  0.33333300  0.66666700  0.12938576  1
  Zn  Zn4  1  0.33333300  0.66666700  0.37061424  1
  Zn  Zn5  1  0.66666700  0.33333300  0.87061424  1
  P  P0  1  0.66666700  0.33333300  0.75000000  1
  P  P1  1  0.33333300  0.66666700  0.25000000  1
  P  P2  1  0.33333300  0.66666700  0.58681384  1
  P  P3  1  0.66666700  0.33333300  0.08681384  1
  P  P4  1  0.66666700  0.33333300  0.41318616  1
  P  P5  1  0.33333300  0.66666700  0.91318616  1
loop_
_geom_bond_atom_site_label_1
_geom_bond_atom_site_label_2
_geom_bond_distance
_geom_bond_site_symmetry_2
P0 Zn1 2.309998 1_655
P0 Zn1 2.309999 1_545
P0 Zn1 2.310005 1_555
P0 Zn5 2.403111 1_555
P0 Zn2 2.403111 1_555
P1 Zn0 2.309998 1_455
P1 Zn0 2.309999 1_565
P1 Zn0 2.310005 1_555
P1 Zn4 2.403111 1_555
P1 Zn3 2.403111 1_555
P2 Zn2 2.460800 1_455
P2 Zn2 2.460800 1_565
P2 Zn2 2.460806 1_555
P2 Sm0 2.885804 1_565
P2 Sm0 2.885806 1_665
P2 Sm0 2.885807 1_555
P3 Zn3 2.460800 1_655
P3 Zn3 2.460800 1_545
P3 Zn3 2.460806 1_555
P3 Sm1 2.885804 1_655
P3 Sm1 2.885806 1_555
P3 Sm1 2.885807 1_665
P4 Zn4 2.460800 1_655
P4 Zn4 2.460800 1_545
P4 Zn4 2.460806 1_555
P4 Sm0 2.885804 1_655
P4 Sm0 2.885806 1_555
P4 Sm0 2.885807 1_665
P5 Zn5 2.460800 1_455
P5 Zn5 2.460800 1_565
P5 Zn5 2.460806 1_555
P5 Sm1 2.885804 1_566
P5 Sm1 2.885806 1_666
P5 Sm1 2.885807 1_556
