# generated using pymatgen
data_Ba10Nb3Bi7O30
_symmetry_space_group_name_H-M   'P 1'
_cell_length_a   6.15798357
_cell_length_b   13.74341692
_cell_length_c   10.53967089
_cell_angle_alpha   96.94834199
_cell_angle_beta   73.02730506
_cell_angle_gamma   77.04995249
_symmetry_Int_Tables_number   1
_chemical_formula_structural   Ba10Nb3Bi7O30
_chemical_formula_sum   'Ba10 Nb3 Bi7 O30'
_cell_volume   814.64719860
_cell_formula_units_Z   1
loop_
 _symmetry_equiv_pos_site_id
 _symmetry_equiv_pos_as_xyz
  1  'x, y, z'
loop_
 _atom_site_type_symbol
 _atom_site_label
 _atom_site_symmetry_multiplicity
 _atom_site_fract_x
 _atom_site_fract_y
 _atom_site_fract_z
 _atom_site_occupancy
  Ba  Ba0  1  0.95202672  0.64724525  0.44582883  1
  Ba  Ba1  1  0.34673332  0.45134001  0.85028257  1
  Ba  Ba2  1  0.74874317  0.25436917  0.25077487  1
  Ba  Ba3  1  0.15185999  0.05179300  0.64948816  1
  Ba  Ba4  1  0.55444006  0.84660216  0.04678324  1
  Ba  Ba5  1  0.25125683  0.74563083  0.74922513  1
  Ba  Ba6  1  0.65326668  0.54865999  0.14971743  1
  Ba  Ba7  1  0.04797328  0.35275475  0.55417117  1
  Ba  Ba8  1  0.44555994  0.15339784  0.95321676  1
  Ba  Ba9  1  0.84814001  0.94820700  0.35051184  1
  Nb  Nb0  1  0.89725501  0.30005081  0.90109650  1
  Nb  Nb1  1  0.50000000  0.50000000  0.50000000  1
  Nb  Nb2  1  0.10274499  0.69994919  0.09890350  1
  Bi  Bi0  1  0.40251498  0.79661621  0.39714918  1
  Bi  Bi1  1  0.80024165  0.59701261  0.80058903  1
  Bi  Bi2  1  0.19975835  0.40298739  0.19941097  1
  Bi  Bi3  1  0.59748502  0.20338379  0.60285082  1
  Bi  Bi4  1  -0.00000000  -0.00000000  0.00000000  1
  Bi  Bi5  1  0.70110952  0.89949162  0.69926118  1
  Bi  Bi6  1  0.29889048  0.10050838  0.30073882  1
  O  O0  1  0.02575597  0.82782682  0.53917204  1
  O  O1  1  0.62443966  0.02883109  0.14115900  1
  O  O2  1  0.20984024  0.23753465  0.75197121  1
  O  O3  1  0.81446413  0.43746906  0.35181894  1
  O  O4  1  0.41412664  0.63191774  0.95077249  1
  O  O5  1  0.51222794  0.87296446  0.56341580  1
  O  O6  1  0.10560767  0.07604930  0.16720846  1
  O  O7  1  0.71860890  0.27889873  0.77232249  1
  O  O8  1  0.32924029  0.47557850  0.36715290  1
  O  O9  1  0.92989153  0.67054038  0.96822567  1
  O  O10  1  0.70668326  0.04533350  0.65149986  1
  O  O11  1  0.30695198  0.24438383  0.24763254  1
  O  O12  1  0.90550622  0.43911214  0.85113654  1
  O  O13  1  0.50484738  0.63835631  0.45435900  1
  O  O14  1  0.10680340  0.83683330  0.05263172  1
  O  O15  1  0.37556034  0.97116891  0.85884100  1
  O  O16  1  0.97424403  0.17217318  0.46082796  1
  O  O17  1  0.58587336  0.36808226  0.04922751  1
  O  O18  1  0.18553587  0.56253094  0.64818106  1
  O  O19  1  0.79015976  0.76246535  0.24802879  1
  O  O20  1  0.89439233  0.92395070  0.83279154  1
  O  O21  1  0.48777206  0.12703554  0.43658420  1
  O  O22  1  0.07010847  0.32945962  0.03177433  1
  O  O23  1  0.67075971  0.52442150  0.63284710  1
  O  O24  1  0.28139110  0.72110127  0.22767751  1
  O  O25  1  0.69304802  0.75561617  0.75236746  1
  O  O26  1  0.29331674  0.95466650  0.34850014  1
  O  O27  1  0.89319660  0.16316670  0.94736828  1
  O  O28  1  0.49515262  0.36164369  0.54564100  1
  O  O29  1  0.09449378  0.56088786  0.14886346  1
loop_
_geom_bond_atom_site_label_1
_geom_bond_atom_site_label_2
_geom_bond_distance
_geom_bond_site_symmetry_2
Ba0 O0 2.740155 1_655
Ba0 O8 2.755973 1_655
Ba0 O13 2.759509 1_555
Ba0 O29 3.001008 1_655
Ba0 O19 3.025187 1_555
Ba0 O24 3.032367 1_655
Ba0 O18 3.100419 1_655
Ba0 O23 3.139563 1_555
Ba0 O25 3.156387 1_555
Ba0 O3 3.302238 1_555
Ba0 O13 3.406897 1_655
Ba0 O5 3.440738 1_555
Ba1 O7 2.744753 1_555
Ba1 O4 2.745065 1_555
Ba1 O12 2.757087 1_455
Ba1 O23 3.004587 1_555
Ba1 O18 3.033147 1_555
Ba1 O28 3.080326 1_555
Ba1 O17 3.082623 1_556
Ba1 O22 3.085178 1_556
Ba1 O29 3.087775 1_556
Ba1 O9 3.312831 1_455
Ba1 O2 3.361857 1_555
Ba1 O12 3.409910 1_555
Ba2 O6 2.746809 1_655
Ba2 O11 2.764077 1_555
Ba2 O3 2.773085 1_555
Ba2 O22 3.022238 1_655
Ba2 O28 3.049049 1_555
Ba2 O17 3.050448 1_555
Ba2 O27 3.075395 1_554
Ba2 O21 3.119710 1_555
Ba2 O16 3.130910 1_555
Ba2 O8 3.338914 1_555
Ba2 O11 3.399549 1_655
Ba3 O10 2.756656 1_455
Ba3 O5 2.761996 1_545
Ba3 O2 2.788749 1_555
Ba3 O16 3.023557 1_455
Ba3 O21 3.032105 1_555
Ba3 O26 3.073297 1_545
Ba3 O27 3.092212 1_455
Ba3 O20 3.100762 1_445
Ba3 O15 3.110642 1_545
Ba4 O1 2.752987 1_565
Ba4 O14 2.772906 1_555
Ba4 O9 2.788570 1_554
Ba4 O25 2.992917 1_554
Ba4 O15 3.052405 1_554
Ba4 O20 3.069239 1_554
Ba4 O19 3.095426 1_555
Ba4 O24 3.108223 1_555
Ba4 O26 3.115337 1_555
Ba5 O20 2.746809 1_455
Ba5 O25 2.764077 1_555
Ba5 O18 2.773085 1_555
Ba5 O9 3.022238 1_455
Ba5 O13 3.049049 1_555
Ba5 O4 3.050448 1_555
Ba5 O14 3.075395 1_556
Ba5 O5 3.119710 1_555
Ba5 O0 3.130910 1_555
Ba5 O23 3.338914 1_555
Ba5 O25 3.399549 1_455
Ba6 O24 2.744753 1_555
Ba6 O17 2.745065 1_555
Ba6 O29 2.757087 1_655
Ba6 O8 3.004587 1_555
Ba6 O3 3.033147 1_555
Ba6 O13 3.080326 1_555
Ba6 O4 3.082623 1_554
Ba6 O9 3.085178 1_554
Ba6 O12 3.087775 1_554
Ba6 O22 3.312831 1_655
Ba6 O19 3.361857 1_555
Ba6 O29 3.409910 1_555
Ba7 O16 2.740155 1_455
Ba7 O23 2.755973 1_455
Ba7 O28 2.759509 1_555
Ba7 O12 3.001008 1_455
Ba7 O2 3.025187 1_555
Ba7 O7 3.032367 1_455
Ba7 O3 3.100419 1_455
Ba7 O8 3.139563 1_555
Ba7 O11 3.156387 1_555
Ba7 O18 3.302238 1_555
Ba7 O28 3.406897 1_455
Ba7 O21 3.440738 1_555
Ba8 O15 2.752987 1_545
Ba8 O27 2.772906 1_555
Ba8 O22 2.788570 1_556
Ba8 O11 2.992917 1_556
Ba8 O1 3.052405 1_556
Ba8 O6 3.069239 1_556
Ba8 O2 3.095426 1_555
Ba8 O7 3.108223 1_555
Ba8 O10 3.115337 1_555
Ba9 O26 2.756656 1_655
Ba9 O21 2.761996 1_565
Ba9 O19 2.788749 1_555
Ba9 O0 3.023557 1_655
Ba9 O5 3.032105 1_555
Ba9 O10 3.073297 1_565
Ba9 O14 3.092212 1_655
Ba9 O6 3.100762 1_665
Ba9 O1 3.110642 1_565
Nb0 O27 2.003378 1_555
Nb0 O7 2.014052 1_555
Nb0 O2 2.019762 1_655
Nb0 O17 2.020869 1_556
Nb0 O22 2.026669 1_656
Nb0 O12 2.050327 1_555
Nb1 O23 2.020621 1_555
Nb1 O8 2.020621 1_555
Nb1 O28 2.021464 1_555
Nb1 O13 2.021464 1_555
Nb1 O18 2.022690 1_555
Nb1 O3 2.022690 1_555
Nb2 O14 2.003378 1_555
Nb2 O24 2.014052 1_555
Nb2 O19 2.019762 1_455
Nb2 O4 2.020869 1_554
Nb2 O9 2.026669 1_454
Nb2 O29 2.050327 1_555
Bi0 O0 2.275614 1_555
Bi0 O5 2.278686 1_555
Bi0 O26 2.291164 1_555
Bi0 O13 2.327290 1_555
Bi0 O24 2.345233 1_555
Bi0 O19 2.348982 1_555
Bi1 O12 2.294379 1_555
Bi1 O25 2.294423 1_555
Bi1 O4 2.344525 1_555
Bi1 O23 2.347231 1_555
Bi1 O18 2.349685 1_655
Bi1 O9 2.352330 1_555
Bi2 O29 2.294379 1_555
Bi2 O11 2.294423 1_555
Bi2 O17 2.344525 1_555
Bi2 O8 2.347231 1_555
Bi2 O3 2.349685 1_455
Bi2 O22 2.352330 1_555
Bi3 O16 2.275614 1_555
Bi3 O21 2.278686 1_555
Bi3 O10 2.291164 1_555
Bi3 O28 2.327290 1_555
Bi3 O7 2.345233 1_555
Bi3 O2 2.348982 1_555
Bi4 O20 2.269190 1_444
Bi4 O6 2.269190 1_555
Bi4 O15 2.270868 1_544
Bi4 O1 2.270868 1_455
Bi4 O14 2.371050 1_545
Bi4 O27 2.371050 1_454
Bi5 O25 2.126307 1_555
Bi5 O10 2.130007 1_565
Bi5 O20 2.133815 1_555
Bi5 O0 2.135348 1_655
Bi5 O15 2.136265 1_555
Bi5 O5 2.138171 1_555
Bi6 O11 2.126307 1_555
Bi6 O26 2.130007 1_545
Bi6 O6 2.133815 1_555
Bi6 O16 2.135348 1_455
Bi6 O1 2.136265 1_555
Bi6 O21 2.138171 1_555
