# generated using pymatgen
data_Yb5Co19P12
_symmetry_space_group_name_H-M   'P 1'
_cell_length_a   11.94918049
_cell_length_b   11.94918049
_cell_length_c   3.64485400
_cell_angle_alpha   90.00000000
_cell_angle_beta   90.00000000
_cell_angle_gamma   120.00000271
_symmetry_Int_Tables_number   1
_chemical_formula_structural   Yb5Co19P12
_chemical_formula_sum   'Yb5 Co19 P12'
_cell_volume   450.69941953
_cell_formula_units_Z   1
loop_
 _symmetry_equiv_pos_site_id
 _symmetry_equiv_pos_as_xyz
  1  'x, y, z'
loop_
 _atom_site_type_symbol
 _atom_site_label
 _atom_site_symmetry_multiplicity
 _atom_site_fract_x
 _atom_site_fract_y
 _atom_site_fract_z
 _atom_site_occupancy
  Yb  Yb0  1  0.66666700  0.33333300  0.50000000  1
  Yb  Yb1  1  0.33333300  0.66666700  0.50000000  1
  Yb  Yb2  1  0.18455800  0.18455800  0.00000000  1
  Yb  Yb3  1  0.81544200  0.00000000  0.00000000  1
  Yb  Yb4  1  0.00000000  0.81544200  0.00000000  1
  Co  Co0  1  0.82069800  0.19849100  0.50000000  1
  Co  Co1  1  0.80150900  0.62220700  0.50000000  1
  Co  Co2  1  0.37779300  0.17930200  0.50000000  1
  Co  Co3  1  0.19849100  0.82069800  0.50000000  1
  Co  Co4  1  0.62220700  0.80150900  0.50000000  1
  Co  Co5  1  0.17930200  0.37779300  0.50000000  1
  Co  Co6  1  0.55241900  0.55241900  0.50000000  1
  Co  Co7  1  0.44758100  0.00000000  0.50000000  1
  Co  Co8  1  0.00000000  0.44758100  0.50000000  1
  Co  Co9  1  0.64260600  0.12531000  0.00000000  1
  Co  Co10  1  0.87469000  0.51729600  0.00000000  1
  Co  Co11  1  0.48270400  0.35739400  0.00000000  1
  Co  Co12  1  0.12531000  0.64260600  0.00000000  1
  Co  Co13  1  0.51729600  0.87469000  0.00000000  1
  Co  Co14  1  0.35739400  0.48270400  0.00000000  1
  Co  Co15  1  0.71513700  0.71513700  0.00000000  1
  Co  Co16  1  0.28486300  0.00000000  0.00000000  1
  Co  Co17  1  0.00000000  0.28486300  0.00000000  1
  Co  Co18  1  0.00000000  0.00000000  0.50000000  1
  P  P0  1  0.36870600  0.36870600  0.50000000  1
  P  P1  1  0.63129400  0.00000000  0.50000000  1
  P  P2  1  0.00000000  0.63129400  0.50000000  1
  P  P3  1  0.83463600  0.31508200  0.00000000  1
  P  P4  1  0.68491800  0.51955400  0.00000000  1
  P  P5  1  0.48044600  0.16536400  0.00000000  1
  P  P6  1  0.31508200  0.83463600  0.00000000  1
  P  P7  1  0.51955400  0.68491800  0.00000000  1
  P  P8  1  0.16536400  0.48044600  0.00000000  1
  P  P9  1  0.81816700  0.81816700  0.50000000  1
  P  P10  1  0.18183300  0.00000000  0.50000000  1
  P  P11  1  0.00000000  0.18183300  0.50000000  1
loop_
_geom_bond_atom_site_label_1
_geom_bond_atom_site_label_2
_geom_bond_distance
_geom_bond_site_symmetry_2
Co0 P11 2.248654 1_655
Co0 P3 2.248969 1_556
Co0 P3 2.248969 1_555
Co0 P1 2.319421 1_555
Co0 Yb3 2.966763 1_556
Co0 Yb3 2.966763 1_555
Co0 Yb0 2.991540 1_555
Co1 P9 2.248654 1_555
Co1 P4 2.248969 1_555
Co1 P4 2.248969 1_556
Co1 P2 2.319421 1_655
Co1 Yb4 2.966763 1_656
Co1 Yb4 2.966763 1_655
Co1 Yb0 2.991551 1_555
Co2 P10 2.248654 1_555
Co2 P5 2.248969 1_556
Co2 P5 2.248969 1_555
Co2 P0 2.319421 1_555
Co2 Yb2 2.966763 1_556
Co2 Yb2 2.966763 1_555
Co2 Yb0 2.991550 1_555
Co3 P10 2.248654 1_565
Co3 P6 2.248969 1_556
Co3 P6 2.248969 1_555
Co3 P2 2.319421 1_555
Co3 Yb4 2.966763 1_555
Co3 Yb4 2.966763 1_556
Co3 Yb1 2.991540 1_555
Co4 P9 2.248654 1_555
Co4 P7 2.248969 1_555
Co4 P7 2.248969 1_556
Co4 P1 2.319421 1_565
Co4 Yb3 2.966763 1_565
Co4 Yb3 2.966763 1_566
Co4 Yb1 2.991551 1_555
Co5 P11 2.248654 1_555
Co5 P8 2.248969 1_556
Co5 P8 2.248969 1_555
Co5 P0 2.319421 1_555
Co5 Yb2 2.966763 1_556
Co5 Yb2 2.966763 1_555
Co5 Yb1 2.991550 1_555
Co6 P0 2.195220 1_555
Co6 P4 2.569808 1_555
Co6 P7 2.569808 1_555
Co6 P7 2.569808 1_556
Co6 P4 2.569808 1_556
Co7 P1 2.195220 1_555
Co7 P6 2.569808 1_546
Co7 P6 2.569808 1_545
Co7 P5 2.569808 1_556
Co7 P5 2.569808 1_555
Co8 P2 2.195220 1_555
Co8 P3 2.569808 1_456
Co8 P3 2.569808 1_455
Co8 P8 2.569808 1_555
Co8 P8 2.569808 1_556
Co9 P5 2.216093 1_555
Co9 P3 2.281230 1_555
Co9 P1 2.319305 1_554
Co9 P1 2.319305 1_555
Co9 Yb0 2.977913 1_555
Co9 Yb0 2.977913 1_554
Co9 Yb3 3.098341 1_555
Co10 P3 2.216093 1_555
Co10 P4 2.281230 1_555
Co10 P2 2.319305 1_655
Co10 P2 2.319305 1_654
Co10 Yb0 2.977917 1_555
Co10 Yb0 2.977917 1_554
Co10 Yb4 3.098341 1_655
Co11 P4 2.216093 1_555
Co11 P5 2.281230 1_555
Co11 P0 2.319305 1_554
Co11 P0 2.319305 1_555
Co11 Yb0 2.977922 1_555
Co11 Yb0 2.977922 1_554
Co11 Yb2 3.098341 1_555
Co12 P8 2.216093 1_555
Co12 P6 2.281230 1_555
Co12 P2 2.319305 1_554
Co12 P2 2.319305 1_555
Co12 Yb1 2.977913 1_555
Co12 Yb1 2.977913 1_554
Co12 Yb4 3.098341 1_555
Co13 P6 2.216093 1_555
Co13 P7 2.281230 1_555
Co13 P1 2.319305 1_564
Co13 P1 2.319305 1_565
Co13 Yb1 2.977917 1_555
Co13 Yb1 2.977917 1_554
Co13 Yb3 3.098341 1_565
Co14 P7 2.216093 1_555
Co14 P8 2.281230 1_555
Co14 P0 2.319305 1_554
Co14 P0 2.319305 1_555
Co14 Yb1 2.977922 1_554
Co14 Yb1 2.977922 1_555
Co14 Yb2 3.098341 1_555
Co15 P4 2.179066 1_555
Co15 P7 2.179066 1_555
Co15 P9 2.199297 1_555
Co15 P9 2.199297 1_554
Co15 Yb4 2.990516 1_655
Co15 Yb3 2.990516 1_565
Co16 P5 2.179066 1_555
Co16 P6 2.179066 1_545
Co16 P10 2.199297 1_554
Co16 P10 2.199297 1_555
Co16 Yb4 2.990516 1_545
Co16 Yb2 2.990516 1_555
Co17 P8 2.179066 1_555
Co17 P3 2.179066 1_455
Co17 P11 2.199297 1_555
Co17 P11 2.199297 1_554
Co17 Yb3 2.990516 1_455
Co17 Yb2 2.990516 1_555
Co18 P9 2.172755 1_445
Co18 P10 2.172755 1_555
Co18 P11 2.172755 1_555
Co18 Yb2 2.860885 1_556
Co18 Yb2 2.860885 1_555
Co18 Yb3 2.860885 1_456
Co18 Yb4 2.860885 1_545
Co18 Yb3 2.860885 1_455
Co18 Yb4 2.860885 1_546
P0 Yb2 2.857110 1_556
P0 Yb2 2.857110 1_555
P1 Yb3 2.857110 1_555
P1 Yb3 2.857110 1_556
P2 Yb4 2.857110 1_555
P2 Yb4 2.857110 1_556
P3 Yb0 2.799095 1_555
P3 Yb0 2.799095 1_554
P4 Yb0 2.799104 1_555
P4 Yb0 2.799104 1_554
P5 Yb0 2.799100 1_555
P5 Yb0 2.799100 1_554
P6 Yb1 2.799095 1_554
P6 Yb1 2.799095 1_555
P7 Yb1 2.799104 1_555
P7 Yb1 2.799104 1_554
P8 Yb1 2.799100 1_554
P8 Yb1 2.799100 1_555
P9 Yb4 2.848493 1_656
P9 Yb4 2.848493 1_655
P9 Yb3 2.848493 1_566
P9 Yb3 2.848493 1_565
P10 Yb4 2.848493 1_546
P10 Yb4 2.848493 1_545
P10 Yb2 2.848493 1_556
P10 Yb2 2.848493 1_555
P11 Yb3 2.848493 1_456
P11 Yb3 2.848493 1_455
P11 Yb2 2.848493 1_556
P11 Yb2 2.848493 1_555
