# generated using pymatgen
data_ErSiRh2
_symmetry_space_group_name_H-M   'P 1'
_cell_length_a   5.49344303
_cell_length_b   5.49344335
_cell_length_c   14.94183474
_cell_angle_alpha   90.00000886
_cell_angle_beta   90.00000507
_cell_angle_gamma   119.99998545
_symmetry_Int_Tables_number   1
_chemical_formula_structural   ErSiRh2
_chemical_formula_sum   'Er6 Si6 Rh12'
_cell_volume   390.50257295
_cell_formula_units_Z   6
loop_
 _symmetry_equiv_pos_site_id
 _symmetry_equiv_pos_as_xyz
  1  'x, y, z'
loop_
 _atom_site_type_symbol
 _atom_site_label
 _atom_site_symmetry_multiplicity
 _atom_site_fract_x
 _atom_site_fract_y
 _atom_site_fract_z
 _atom_site_occupancy
  Er  Er0  1  0.33333331  0.66666690  0.53670120  1
  Er  Er1  1  0.66666667  0.33333352  0.46328026  1
  Er  Er2  1  0.66666658  0.33333313  0.03672990  1
  Er  Er3  1  0.33333334  0.66666697  0.96328728  1
  Er  Er4  1  0.33333274  0.66666695  0.74998956  1
  Er  Er5  1  0.66666685  0.33333464  0.25001212  1
  Si  Si0  1  -0.00000069  -0.00000050  0.25001764  1
  Si  Si1  1  0.00000012  -0.00000032  0.74998136  1
  Si  Si2  1  0.33333394  0.66666761  0.25001703  1
  Si  Si3  1  0.66666640  0.33333345  0.74998360  1
  Si  Si4  1  0.00000006  0.00000011  0.00001511  1
  Si  Si5  1  0.00000019  0.00000044  0.49998637  1
  Rh  Rh0  1  0.16661195  0.33322446  0.13029470  1
  Rh  Rh1  1  0.83338538  0.66676945  0.86973325  1
  Rh  Rh2  1  0.66677453  0.83338652  0.13029429  1
  Rh  Rh3  1  0.83337989  0.66675919  0.63023578  1
  Rh  Rh4  1  0.33323114  0.16661592  0.86973327  1
  Rh  Rh5  1  0.16661833  0.33323644  0.36973520  1
  Rh  Rh6  1  0.16661196  0.83338687  0.13029425  1
  Rh  Rh7  1  0.33324077  0.16661989  0.63023572  1
  Rh  Rh8  1  0.83338453  0.16661502  0.86973329  1
  Rh  Rh9  1  0.66676428  0.83338261  0.36973556  1
  Rh  Rh10  1  0.83337979  0.16662017  0.63023572  1
  Rh  Rh11  1  0.16661794  0.83338256  0.36973555  1
loop_
_geom_bond_atom_site_label_1
_geom_bond_atom_site_label_2
_geom_bond_distance
_geom_bond_site_symmetry_2
Er0 Rh11 2.956382 1_555
Er0 Rh9 2.956382 1_555
Er0 Rh5 2.956385 1_555
Er0 Rh7 3.081830 1_565
Er0 Rh3 3.081833 1_455
Er0 Rh10 3.081834 1_565
Er0 Rh10 3.081836 1_455
Er0 Rh3 3.081837 1_555
Er0 Rh7 3.081838 1_555
Er0 Er4 3.186919 1_555
Er1 Rh3 2.956240 1_555
Er1 Rh7 2.956241 1_555
Er1 Rh10 2.956242 1_555
Er1 Rh9 3.081902 1_545
Er1 Rh11 3.081903 1_545
Er1 Rh5 3.081904 1_555
Er1 Rh9 3.081905 1_555
Er1 Rh11 3.081905 1_655
Er1 Rh5 3.081907 1_655
Er1 Er5 3.186617 1_555
Er2 Rh4 2.956784 1_554
Er2 Rh8 2.956785 1_554
Er2 Rh1 2.956787 1_554
Er2 Rh2 3.082034 1_555
Er2 Rh6 3.082034 1_655
Er2 Rh0 3.082038 1_655
Er2 Rh6 3.082039 1_545
Er2 Rh2 3.082040 1_545
Er2 Rh0 3.082041 1_555
Er2 Er5 3.186828 1_555
Er3 Rh6 2.956929 1_556
Er3 Rh2 2.956929 1_556
Er3 Rh0 2.956938 1_556
Er3 Rh1 3.081962 1_455
Er3 Rh8 3.081965 1_565
Er3 Rh4 3.081966 1_555
Er3 Rh4 3.081967 1_565
Er3 Rh8 3.081968 1_455
Er3 Rh1 3.081970 1_555
Er3 Er4 3.187059 1_555
Er4 Si1 3.171634 1_565
Er4 Si3 3.171640 1_455
Er4 Si3 3.171641 1_565
Er4 Si3 3.171643 1_555
Er4 Si1 3.171644 1_555
Er4 Si1 3.171645 1_665
Er4 Rh1 3.278054 1_455
Er4 Rh4 3.278060 1_565
Er4 Rh8 3.278061 1_565
Er4 Rh4 3.278062 1_555
Er4 Rh8 3.278062 1_455
Er4 Rh1 3.278067 1_555
Er4 Rh3 3.278138 1_455
Er4 Rh7 3.278139 1_565
Er4 Rh10 3.278143 1_455
Er4 Rh10 3.278145 1_565
Er4 Rh3 3.278148 1_555
Er4 Rh7 3.278148 1_555
Er5 Si0 3.171633 1_665
Er5 Si2 3.171637 1_555
Er5 Si2 3.171643 1_545
Er5 Si2 3.171643 1_655
Er5 Si0 3.171645 1_655
Er5 Si0 3.171645 1_555
Er5 Rh2 3.277841 1_555
Er5 Rh6 3.277845 1_655
Er5 Rh0 3.277845 1_555
Er5 Rh0 3.277847 1_655
Er5 Rh6 3.277856 1_545
Er5 Rh2 3.277859 1_545
Er5 Rh5 3.277890 1_555
Er5 Rh9 3.277892 1_555
Er5 Rh11 3.277893 1_655
Er5 Rh5 3.277895 1_655
Er5 Rh11 3.277899 1_545
Er5 Rh9 3.277899 1_545
Rh0 Si0 2.390248 1_555
Rh0 Si2 2.390929 1_555
Rh0 Si4 2.510477 1_555
Rh0 Rh6 2.745830 1_545
Rh0 Rh2 2.745831 1_445
Rh0 Rh6 2.747614 1_555
Rh0 Rh2 2.747614 1_555
Rh1 Si1 2.390589 1_665
Rh1 Si3 2.391212 1_555
Rh1 Si4 2.510523 1_666
Rh1 Rh8 2.745876 1_565
Rh1 Rh4 2.745877 1_665
Rh1 Rh4 2.747568 1_555
Rh1 Rh8 2.747568 1_555
Rh2 Si0 2.390252 1_665
Rh2 Si2 2.390926 1_555
Rh2 Si4 2.510477 1_665
Rh2 Rh6 2.745827 1_655
Rh2 Rh6 2.747616 1_555
Rh3 Si1 2.390550 1_665
Rh3 Si3 2.391160 1_555
Rh3 Si5 2.510179 1_665
Rh3 Rh7 2.745957 1_665
Rh3 Rh7 2.747487 1_555
Rh4 Si1 2.390591 1_555
Rh4 Si3 2.391211 1_555
Rh4 Si4 2.510524 1_556
Rh4 Rh8 2.745876 1_455
Rh4 Rh8 2.747567 1_555
Rh5 Si0 2.390225 1_555
Rh5 Si2 2.390846 1_555
Rh5 Si5 2.510184 1_555
Rh5 Rh9 2.745920 1_445
Rh5 Rh9 2.747525 1_555
Rh6 Si0 2.390254 1_565
Rh6 Si2 2.390929 1_555
Rh6 Si4 2.510474 1_565
Rh7 Si1 2.390552 1_555
Rh7 Si3 2.391160 1_555
Rh7 Si5 2.510176 1_555
Rh8 Si1 2.390591 1_655
Rh8 Si3 2.391215 1_555
Rh8 Si4 2.510521 1_656
Rh9 Si0 2.390224 1_665
Rh9 Si2 2.390847 1_555
Rh9 Si5 2.510179 1_665
Rh10 Si1 2.390552 1_655
Rh10 Si3 2.391163 1_555
Rh10 Si5 2.510174 1_655
Rh10 Rh3 2.745958 1_545
Rh10 Rh7 2.745959 1_655
Rh10 Rh7 2.747484 1_555
Rh10 Rh3 2.747485 1_555
Rh11 Si0 2.390225 1_565
Rh11 Si2 2.390848 1_555
Rh11 Si5 2.510178 1_565
Rh11 Rh9 2.745918 1_455
Rh11 Rh5 2.745918 1_565
Rh11 Rh9 2.747525 1_555
Rh11 Rh5 2.747525 1_555
