# generated using pymatgen
data_Lu4CuGe8
_symmetry_space_group_name_H-M   'P 1'
_cell_length_a   3.93540900
_cell_length_b   4.02001100
_cell_length_c   16.24243300
_cell_angle_alpha   90.00000000
_cell_angle_beta   90.00000000
_cell_angle_gamma   90.00000000
_symmetry_Int_Tables_number   1
_chemical_formula_structural   Lu4CuGe8
_chemical_formula_sum   'Lu4 Cu1 Ge8'
_cell_volume   256.96158351
_cell_formula_units_Z   1
loop_
 _symmetry_equiv_pos_site_id
 _symmetry_equiv_pos_as_xyz
  1  'x, y, z'
loop_
 _atom_site_type_symbol
 _atom_site_label
 _atom_site_symmetry_multiplicity
 _atom_site_fract_x
 _atom_site_fract_y
 _atom_site_fract_z
 _atom_site_occupancy
  Lu  Lu0  1  0.25000000  0.00000000  0.09673000  1
  Lu  Lu1  1  0.25000000  0.50000000  0.60789000  1
  Lu  Lu2  1  0.75000000  0.50000000  0.39679600  1
  Lu  Lu3  1  0.75000000  0.00000000  0.89268300  1
  Cu  Cu0  1  0.25000000  0.00000000  0.32143500  1
  Ge  Ge0  1  0.25000000  0.50000000  0.23408600  1
  Ge  Ge1  1  0.25000000  0.00000000  0.74649500  1
  Ge  Ge2  1  0.75000000  0.00000000  0.23353500  1
  Ge  Ge3  1  0.75000000  0.50000000  0.75433100  1
  Ge  Ge4  1  0.25000000  0.00000000  0.46437300  1
  Ge  Ge5  1  0.25000000  0.50000000  0.94391100  1
  Ge  Ge6  1  0.75000000  0.50000000  0.04718200  1
  Ge  Ge7  1  0.75000000  0.00000000  0.56355300  1
loop_
_geom_bond_atom_site_label_1
_geom_bond_atom_site_label_2
_geom_bond_distance
_geom_bond_site_symmetry_2
Cu0 Ge4 2.321661 1_555
Cu0 Ge2 2.431094 1_455
Cu0 Ge2 2.431094 1_555
Cu0 Ge0 2.460285 1_545
Cu0 Ge0 2.460285 1_555
Cu0 Lu2 3.067617 1_445
Cu0 Lu2 3.067617 1_455
Cu0 Lu2 3.067617 1_555
Cu0 Lu2 3.067617 1_545
Ge0 Ge2 2.812839 1_455
Ge0 Ge2 2.812839 1_565
Ge0 Ge2 2.812839 1_555
Ge0 Ge2 2.812839 1_465
Ge0 Lu0 3.002909 1_555
Ge0 Lu0 3.002909 1_565
Ge0 Lu2 3.294888 1_555
Ge0 Lu2 3.294888 1_455
Ge1 Ge3 2.815703 1_455
Ge1 Ge3 2.815703 1_445
Ge1 Ge3 2.815703 1_545
Ge1 Ge3 2.815703 1_555
Ge1 Lu1 3.018012 1_555
Ge1 Lu1 3.018012 1_545
Ge1 Lu3 3.083807 1_555
Ge1 Lu3 3.083807 1_455
Ge2 Lu0 2.968055 1_555
Ge2 Lu0 2.968055 1_655
Ge2 Lu2 3.327451 1_545
Ge2 Lu2 3.327451 1_555
Ge3 Lu3 3.014948 1_565
Ge3 Lu3 3.014948 1_555
Ge3 Lu1 3.086973 1_655
Ge3 Lu1 3.086973 1_555
Ge4 Ge7 2.543018 1_555
Ge4 Ge7 2.543018 1_455
Ge4 Lu2 3.019394 1_455
Ge4 Lu2 3.019394 1_545
Ge4 Lu2 3.019394 1_555
Ge4 Lu2 3.019394 1_445
Ge4 Lu1 3.077984 1_545
Ge4 Lu1 3.077984 1_555
Ge5 Ge6 2.585622 1_456
Ge5 Ge6 2.585622 1_556
Ge5 Lu3 2.933312 1_455
Ge5 Lu3 2.933312 1_555
Ge5 Lu3 2.933312 1_465
Ge5 Lu3 2.933312 1_565
Ge5 Lu0 3.193932 1_556
Ge5 Lu0 3.193932 1_566
Ge6 Lu0 2.925689 1_555
Ge6 Lu0 2.925689 1_655
Ge6 Lu0 2.925689 1_565
Ge6 Lu0 2.925689 1_665
Ge6 Lu3 3.215184 1_554
Ge6 Lu3 3.215184 1_564
Ge7 Lu1 2.903547 1_645
Ge7 Lu1 2.903547 1_555
Ge7 Lu1 2.903547 1_545
Ge7 Lu1 2.903547 1_655
Ge7 Lu2 3.372878 1_545
Ge7 Lu2 3.372878 1_555
