# generated using pymatgen
data_Te3MoWSe
_symmetry_space_group_name_H-M   'P 1'
_cell_length_a   3.50044723
_cell_length_b   3.50044723
_cell_length_c   39.63005300
_cell_angle_alpha   90.00000000
_cell_angle_beta   90.00000000
_cell_angle_gamma   119.99998539
_symmetry_Int_Tables_number   1
_chemical_formula_structural   Te3MoWSe
_chemical_formula_sum   'Te6 Mo2 W2 Se2'
_cell_volume   420.53526254
_cell_formula_units_Z   2
loop_
 _symmetry_equiv_pos_site_id
 _symmetry_equiv_pos_as_xyz
  1  'x, y, z'
loop_
 _atom_site_type_symbol
 _atom_site_label
 _atom_site_symmetry_multiplicity
 _atom_site_fract_x
 _atom_site_fract_y
 _atom_site_fract_z
 _atom_site_occupancy
  Te  Te0  1  0.00000000  0.00000000  0.32826500  1
  Te  Te1  1  0.00000000  0.00000000  0.70373300  1
  Te  Te2  1  0.33333300  0.66666700  0.42319000  1
  Te  Te3  1  0.33333300  0.66666700  0.51615200  1
  Te  Te4  1  0.00000000  0.00000000  0.23529700  1
  Te  Te5  1  0.00000000  0.00000000  0.61133400  1
  Mo  Mo0  1  0.00000000  0.00000000  0.09391200  1
  Mo  Mo1  1  0.33333300  0.66666700  0.65754900  1
  W  W0  1  0.00000000  0.00000000  0.46966100  1
  W  W1  1  0.33333300  0.66666700  0.28177000  1
  Se  Se0  1  0.33333300  0.66666700  0.05311200  1
  Se  Se1  1  0.33333300  0.66666700  0.13477100  1
loop_
_geom_bond_atom_site_label_1
_geom_bond_atom_site_label_2
_geom_bond_distance
_geom_bond_site_symmetry_2
Te0 W1 2.734875 1_545
Te0 W1 2.734877 1_445
Te0 W1 2.734877 1_555
Te2 W0 2.734234 1_565
Te2 W0 2.734237 1_665
Te2 W0 2.734237 1_555
Te3 W0 2.734768 1_565
Te3 W0 2.734771 1_665
Te3 W0 2.734771 1_555
Te4 W1 2.734288 1_545
Te4 W1 2.734290 1_445
Te4 W1 2.734290 1_555
Mo0 Se0 2.588195 1_545
Mo0 Se0 2.588198 1_445
Mo0 Se0 2.588198 1_555
Mo0 Se1 2.589656 1_545
Mo0 Se1 2.589659 1_445
Mo0 Se1 2.589659 1_555
Mo1 Te1 2.726586 1_565
Mo1 Te1 2.726589 1_665
Mo1 Te1 2.726589 1_555
Mo1 Te5 2.727411 1_565
Mo1 Te5 2.727414 1_555
Mo1 Te5 2.727414 1_665
