# generated using pymatgen
data_LuSe2
_symmetry_space_group_name_H-M   'P 1'
_cell_length_a   4.00560461
_cell_length_b   4.00560461
_cell_length_c   8.12390357
_cell_angle_alpha   90.00000000
_cell_angle_beta   90.00000000
_cell_angle_gamma   90.00000000
_symmetry_Int_Tables_number   1
_chemical_formula_structural   LuSe2
_chemical_formula_sum   'Lu2 Se4'
_cell_volume   130.34696279
_cell_formula_units_Z   2
loop_
 _symmetry_equiv_pos_site_id
 _symmetry_equiv_pos_as_xyz
  1  'x, y, z'
loop_
 _atom_site_type_symbol
 _atom_site_label
 _atom_site_symmetry_multiplicity
 _atom_site_fract_x
 _atom_site_fract_y
 _atom_site_fract_z
 _atom_site_occupancy
  Lu  Lu0  1  0.00000000  0.50000000  0.72711868  1
  Lu  Lu1  1  0.50000000  -0.00000000  0.27288132  1
  Se  Se0  1  0.00000000  0.50000000  0.37095288  1
  Se  Se1  1  0.50000000  0.00000000  0.62904712  1
  Se  Se2  1  -0.00000000  -0.00000000  0.00000000  1
  Se  Se3  1  0.50000000  0.50000000  0.00000000  1
loop_
_geom_bond_atom_site_label_1
_geom_bond_atom_site_label_2
_geom_bond_distance
_geom_bond_site_symmetry_2
Lu0 Se0 2.893457 1_555
Lu0 Se1 2.942313 1_565
Lu0 Se1 2.942313 1_455
Lu0 Se1 2.942313 1_555
Lu0 Se1 2.942313 1_465
Lu0 Se3 2.987590 1_456
Lu0 Se2 2.987590 1_556
Lu0 Se2 2.987590 1_566
Lu0 Se3 2.987590 1_556
Lu1 Se1 2.893457 1_555
Lu1 Se0 2.942313 1_545
Lu1 Se0 2.942313 1_655
Lu1 Se0 2.942313 1_555
Lu1 Se0 2.942313 1_645
Lu1 Se3 2.987590 1_555
Lu1 Se2 2.987590 1_655
Lu1 Se3 2.987590 1_545
Lu1 Se2 2.987590 1_555
Se2 Se3 2.832390 1_555
Se2 Se3 2.832390 1_445
Se2 Se3 2.832390 1_545
Se2 Se3 2.832390 1_455
