# generated using pymatgen
data_CsRbC2
_symmetry_space_group_name_H-M   'P 1'
_cell_length_a   6.12362200
_cell_length_b   8.44152600
_cell_length_c   9.52300600
_cell_angle_alpha   90.00000000
_cell_angle_beta   90.00000000
_cell_angle_gamma   90.00000000
_symmetry_Int_Tables_number   1
_chemical_formula_structural   CsRbC2
_chemical_formula_sum   'Cs4 Rb4 C8'
_cell_volume   492.27002869
_cell_formula_units_Z   4
loop_
 _symmetry_equiv_pos_site_id
 _symmetry_equiv_pos_as_xyz
  1  'x, y, z'
loop_
 _atom_site_type_symbol
 _atom_site_label
 _atom_site_symmetry_multiplicity
 _atom_site_fract_x
 _atom_site_fract_y
 _atom_site_fract_z
 _atom_site_occupancy
  Cs  Cs0  1  0.25000000  0.48720400  0.82156900  1
  Cs  Cs1  1  0.25000000  0.98720400  0.67843100  1
  Cs  Cs2  1  0.75000000  0.51279600  0.17843100  1
  Cs  Cs3  1  0.75000000  0.01279600  0.32156900  1
  Rb  Rb0  1  0.25000000  0.85357200  0.08980800  1
  Rb  Rb1  1  0.25000000  0.35357200  0.41019200  1
  Rb  Rb2  1  0.75000000  0.14642800  0.91019200  1
  Rb  Rb3  1  0.75000000  0.64642800  0.58980800  1
  C  C0  1  0.14624900  0.22789200  0.10239300  1
  C  C1  1  0.35375100  0.72789200  0.39760700  1
  C  C2  1  0.64624900  0.77210800  0.89760700  1
  C  C3  1  0.85375100  0.27210800  0.60239300  1
  C  C4  1  0.85375100  0.77210800  0.89760700  1
  C  C5  1  0.64624900  0.27210800  0.60239300  1
  C  C6  1  0.35375100  0.22789200  0.10239300  1
  C  C7  1  0.14624900  0.72789200  0.39760700  1
loop_
_geom_bond_atom_site_label_1
_geom_bond_atom_site_label_2
_geom_bond_distance
_geom_bond_site_symmetry_2
C0 C6 1.270664 1_555
C0 Rb2 3.116219 1_454
C0 Rb1 3.181350 1_555
C0 Rb0 3.225298 1_545
C0 Cs2 3.492317 1_455
C0 Cs0 3.513850 1_554
C0 Cs3 3.679833 1_455
C1 C7 1.270664 1_555
C1 Rb3 3.116219 1_555
C1 Rb0 3.181350 1_555
C1 Rb1 3.225298 1_555
C1 Cs3 3.492317 1_565
C1 Cs1 3.513850 1_555
C1 Cs2 3.679833 1_555
C2 C4 1.270664 1_555
C2 Rb0 3.116219 1_556
C2 Rb3 3.181350 1_555
C2 Rb2 3.225298 1_565
C2 Cs0 3.492317 1_555
C2 Cs2 3.513850 1_556
C2 Cs1 3.679833 1_555
C3 C5 1.270664 1_555
C3 Rb1 3.116219 1_655
C3 Rb2 3.181350 1_555
C3 Rb3 3.225298 1_555
C3 Cs1 3.492317 1_645
C3 Cs3 3.513850 1_555
C3 Cs0 3.679833 1_655
C4 Rb0 3.116219 1_656
C4 Rb3 3.181350 1_555
C4 Rb2 3.225298 1_565
C4 Cs0 3.492317 1_655
C4 Cs2 3.513850 1_556
C4 Cs1 3.679833 1_655
C5 Rb1 3.116219 1_555
C5 Rb2 3.181350 1_555
C5 Rb3 3.225298 1_555
C5 Cs1 3.492317 1_545
C5 Cs3 3.513850 1_555
C5 Cs0 3.679833 1_555
C6 Rb2 3.116219 1_554
C6 Rb1 3.181350 1_555
C6 Rb0 3.225298 1_545
C6 Cs2 3.492317 1_555
C6 Cs0 3.513850 1_554
C6 Cs3 3.679833 1_555
C7 Rb3 3.116219 1_455
C7 Rb0 3.181350 1_555
C7 Rb1 3.225298 1_555
C7 Cs3 3.492317 1_465
C7 Cs1 3.513850 1_555
C7 Cs2 3.679833 1_455
