# generated using pymatgen
data_CdB2
_symmetry_space_group_name_H-M   'P 1'
_cell_length_a   5.03353600
_cell_length_b   5.03353600
_cell_length_c   5.03353600
_cell_angle_alpha   90.00000000
_cell_angle_beta   90.00000000
_cell_angle_gamma   90.00000000
_symmetry_Int_Tables_number   1
_chemical_formula_structural   CdB2
_chemical_formula_sum   'Cd2 B4'
_cell_volume   127.53210767
_cell_formula_units_Z   2
loop_
 _symmetry_equiv_pos_site_id
 _symmetry_equiv_pos_as_xyz
  1  'x, y, z'
loop_
 _atom_site_type_symbol
 _atom_site_label
 _atom_site_symmetry_multiplicity
 _atom_site_fract_x
 _atom_site_fract_y
 _atom_site_fract_z
 _atom_site_occupancy
  Cd  Cd0  1  0.50000000  0.50000000  0.50000000  1
  Cd  Cd1  1  0.00000000  0.00000000  0.00000000  1
  B  B0  1  0.75000000  0.25000000  0.25000000  1
  B  B1  1  0.25000000  0.25000000  0.75000000  1
  B  B2  1  0.25000000  0.75000000  0.25000000  1
  B  B3  1  0.75000000  0.75000000  0.75000000  1
loop_
_geom_bond_atom_site_label_1
_geom_bond_atom_site_label_2
_geom_bond_distance
_geom_bond_site_symmetry_2
B0 Cd0 2.179585 1_555
B0 Cd1 2.179585 1_655
B1 Cd0 2.179585 1_555
B1 Cd1 2.179585 1_556
B2 Cd0 2.179585 1_555
B2 Cd1 2.179585 1_565
B3 Cd0 2.179585 1_555
B3 Cd1 2.179585 1_666
