# generated using pymatgen
data_MnCo3
_symmetry_space_group_name_H-M   'P 1'
_cell_length_a   4.93034300
_cell_length_b   4.93034300
_cell_length_c   3.95076400
_cell_angle_alpha   90.00000000
_cell_angle_beta   90.00000000
_cell_angle_gamma   119.99998660
_symmetry_Int_Tables_number   1
_chemical_formula_structural   MnCo3
_chemical_formula_sum   'Mn2 Co6'
_cell_volume   83.16987447
_cell_formula_units_Z   2
loop_
 _symmetry_equiv_pos_site_id
 _symmetry_equiv_pos_as_xyz
  1  'x, y, z'
loop_
 _atom_site_type_symbol
 _atom_site_label
 _atom_site_symmetry_multiplicity
 _atom_site_fract_x
 _atom_site_fract_y
 _atom_site_fract_z
 _atom_site_occupancy
  Mn  Mn0  1  0.33333300  0.66666700  0.75000000  1
  Mn  Mn1  1  0.66666700  0.33333300  0.25000000  1
  Co  Co0  1  0.16786400  0.33572800  0.25000000  1
  Co  Co1  1  0.66427200  0.83213600  0.25000000  1
  Co  Co2  1  0.16786400  0.83213600  0.25000000  1
  Co  Co3  1  0.83213600  0.66427200  0.75000000  1
  Co  Co4  1  0.33572800  0.16786400  0.75000000  1
  Co  Co5  1  0.83213600  0.16786400  0.75000000  1
loop_
_geom_bond_atom_site_label_1
_geom_bond_atom_site_label_2
_geom_bond_distance
_geom_bond_site_symmetry_2
Co0 Mn0 2.428750 1_554
Co0 Mn0 2.428750 1_555
Co0 Co4 2.440704 1_554
Co0 Co4 2.440704 1_555
Co0 Co5 2.440704 1_455
Co0 Co5 2.440704 1_454
Co0 Co2 2.447462 1_555
Co0 Co1 2.447462 1_555
Co0 Mn1 2.465190 1_455
Co0 Mn1 2.465195 1_555
Co0 Co2 2.482881 1_545
Co0 Co1 2.482882 1_445
Co1 Mn0 2.428750 1_555
Co1 Mn0 2.428750 1_554
Co1 Co3 2.440704 1_555
Co1 Co3 2.440704 1_554
Co1 Co5 2.440704 1_565
Co1 Co5 2.440704 1_564
Co1 Co2 2.447462 1_555
Co1 Mn1 2.465190 1_565
Co1 Mn1 2.465195 1_555
Co1 Co2 2.482881 1_655
Co2 Mn0 2.428748 1_555
Co2 Mn0 2.428748 1_554
Co2 Co3 2.440704 1_454
Co2 Co3 2.440704 1_455
Co2 Co4 2.440704 1_564
Co2 Co4 2.440704 1_565
Co2 Mn1 2.465193 1_455
Co2 Mn1 2.465193 1_565
Co3 Mn1 2.428750 1_556
Co3 Mn1 2.428750 1_555
Co3 Co5 2.447462 1_555
Co3 Co4 2.447462 1_555
Co3 Mn0 2.465190 1_655
Co3 Mn0 2.465195 1_555
Co3 Co5 2.482881 1_565
Co3 Co4 2.482882 1_665
Co4 Mn1 2.428750 1_556
Co4 Mn1 2.428750 1_555
Co4 Co5 2.447462 1_555
Co4 Mn0 2.465190 1_545
Co4 Mn0 2.465195 1_555
Co4 Co5 2.482881 1_455
Co5 Mn1 2.428748 1_556
Co5 Mn1 2.428748 1_555
Co5 Mn0 2.465193 1_655
Co5 Mn0 2.465193 1_545
