# generated using pymatgen
data_YSi
_symmetry_space_group_name_H-M   'P 1'
_cell_length_a   6.96133529
_cell_length_b   6.96133529
_cell_length_c   4.08758600
_cell_angle_alpha   90.00000000
_cell_angle_beta   90.00000000
_cell_angle_gamma   119.99999325
_symmetry_Int_Tables_number   1
_chemical_formula_structural   YSi
_chemical_formula_sum   'Y3 Si3'
_cell_volume   171.54681847
_cell_formula_units_Z   3
loop_
 _symmetry_equiv_pos_site_id
 _symmetry_equiv_pos_as_xyz
  1  'x, y, z'
loop_
 _atom_site_type_symbol
 _atom_site_label
 _atom_site_symmetry_multiplicity
 _atom_site_fract_x
 _atom_site_fract_y
 _atom_site_fract_z
 _atom_site_occupancy
  Y  Y0  1  0.00000000  0.43125200  0.00000000  1
  Y  Y1  1  0.56874800  0.56874800  0.00000000  1
  Y  Y2  1  0.43125200  0.00000000  0.00000000  1
  Si  Si0  1  0.00000000  0.00000000  0.00000000  1
  Si  Si1  1  0.33333300  0.66666700  0.50000000  1
  Si  Si2  1  0.66666700  0.33333300  0.50000000  1
loop_
_geom_bond_atom_site_label_1
_geom_bond_atom_site_label_2
_geom_bond_distance
_geom_bond_site_symmetry_2
Si0 Y2 3.002090 1_555
Si0 Y0 3.002090 1_555
Si0 Y1 3.002090 1_445
Si1 Y2 2.905936 1_565
Si1 Y2 2.905936 1_566
Si1 Y0 2.905937 1_556
Si1 Y0 2.905937 1_555
Si1 Y1 2.905941 1_555
Si1 Y1 2.905941 1_556
Si2 Y0 2.905936 1_656
Si2 Y0 2.905936 1_655
Si2 Y2 2.905937 1_556
Si2 Y2 2.905937 1_555
Si2 Y1 2.905941 1_556
Si2 Y1 2.905941 1_555
