# generated using pymatgen
data_BaTl(SbO3)2
_symmetry_space_group_name_H-M   'P 1'
_cell_length_a   3.84943923
_cell_length_b   3.84953920
_cell_length_c   23.29277287
_cell_angle_alpha   94.73888171
_cell_angle_beta   94.73914133
_cell_angle_gamma   89.98558184
_symmetry_Int_Tables_number   1
_chemical_formula_structural   BaTl(SbO3)2
_chemical_formula_sum   'Ba2 Tl2 Sb4 O12'
_cell_volume   342.80205515
_cell_formula_units_Z   2
loop_
 _symmetry_equiv_pos_site_id
 _symmetry_equiv_pos_as_xyz
  1  'x, y, z'
loop_
 _atom_site_type_symbol
 _atom_site_label
 _atom_site_symmetry_multiplicity
 _atom_site_fract_x
 _atom_site_fract_y
 _atom_site_fract_z
 _atom_site_occupancy
  Ba  Ba0  1  0.16024700  0.16025200  0.32026000  1
  Ba  Ba1  1  0.83980500  0.83978900  0.67980800  1
  Tl  Tl0  1  0.72490400  0.72491500  0.44947600  1
  Tl  Tl1  1  0.27512800  0.27511500  0.55051400  1
  Sb  Sb0  1  0.53137500  0.53139400  0.06243100  1
  Sb  Sb1  1  0.39963400  0.39962400  0.79962900  1
  Sb  Sb2  1  0.60039100  0.60039600  0.20051000  1
  Sb  Sb3  1  0.46857800  0.46858400  0.93753000  1
  O  O0  1  0.38080900  0.88074200  0.76164000  1
  O  O1  1  0.54147300  0.04145000  0.08250600  1
  O  O2  1  0.23038100  0.23036600  0.46089100  1
  O  O3  1  0.95851100  0.45844900  0.91736000  1
  O  O4  1  0.76962100  0.76961500  0.53909300  1
  O  O5  1  0.11927400  0.61923800  0.23843200  1
  O  O6  1  0.61921900  0.11927700  0.23841700  1
  O  O7  1  0.31880100  0.31878800  0.63787300  1
  O  O8  1  0.88075200  0.38079700  0.76164100  1
  O  O9  1  0.04149600  0.54155100  0.08266600  1
  O  O10  1  0.45839000  0.95844500  0.91722600  1
  O  O11  1  0.68121100  0.68121100  0.36209700  1
loop_
_geom_bond_atom_site_label_1
_geom_bond_atom_site_label_2
_geom_bond_distance
_geom_bond_site_symmetry_2
Ba0 O5 2.699301 1_555
Ba0 O6 2.699500 1_555
Ba0 O5 2.699958 1_545
Ba0 O6 2.700174 1_455
Ba0 O11 2.888609 1_455
Ba0 O11 2.888626 1_545
Ba0 O11 2.888995 1_445
Ba0 O11 2.889530 1_555
Ba0 O2 3.253256 1_555
Ba1 O0 2.699372 1_555
Ba1 O8 2.699405 1_555
Ba1 O0 2.699945 1_655
Ba1 O8 2.700015 1_565
Ba1 O7 2.889374 1_655
Ba1 O7 2.889381 1_565
Ba1 O7 2.889796 1_665
Ba1 O7 2.890249 1_555
Ba1 O4 3.255200 1_555
O0 Sb1 2.115541 1_565
O0 Sb1 2.116265 1_555
O1 Sb0 1.979914 1_555
O1 Sb0 1.980089 1_545
O2 Tl1 2.073274 1_555
O2 Tl0 2.733814 1_445
O2 Tl0 2.734369 1_545
O2 Tl0 2.734507 1_455
O2 Tl0 2.736426 1_555
O3 Sb3 1.980417 1_655
O3 Sb3 1.980522 1_555
O4 Tl0 2.073135 1_555
O4 Tl1 2.734025 1_665
O4 Tl1 2.734434 1_565
O4 Tl1 2.734469 1_655
O4 Tl1 2.736241 1_555
O5 Sb2 2.114968 1_455
O5 Sb2 2.115461 1_555
O6 Sb2 2.114894 1_545
O6 Sb2 2.115338 1_555
O7 Tl1 2.020900 1_555
O8 Sb1 2.115482 1_655
O8 Sb1 2.116214 1_555
O9 Sb0 1.980796 1_555
O9 Sb0 1.980853 1_455
O10 Sb3 1.981220 1_565
O10 Sb3 1.981281 1_555
O11 Tl0 2.021363 1_555
