# generated using pymatgen
data_CaPr3(FeO3)4
_symmetry_space_group_name_H-M   'P 1'
_cell_length_a   7.83460300
_cell_length_b   5.50877500
_cell_length_c   5.60277993
_cell_angle_alpha   89.87688533
_cell_angle_beta   90.00000000
_cell_angle_gamma   90.00000000
_symmetry_Int_Tables_number   1
_chemical_formula_structural   CaPr3(FeO3)4
_chemical_formula_sum   'Ca1 Pr3 Fe4 O12'
_cell_volume   241.81018592
_cell_formula_units_Z   1
loop_
 _symmetry_equiv_pos_site_id
 _symmetry_equiv_pos_as_xyz
  1  'x, y, z'
loop_
 _atom_site_type_symbol
 _atom_site_label
 _atom_site_symmetry_multiplicity
 _atom_site_fract_x
 _atom_site_fract_y
 _atom_site_fract_z
 _atom_site_occupancy
  Ca  Ca0  1  0.00000000  0.49165500  0.45673200  1
  Pr  Pr0  1  0.00000000  0.01069100  0.95344400  1
  Pr  Pr1  1  0.50000000  0.51098800  0.54624900  1
  Pr  Pr2  1  0.50000000  0.99028600  0.04695500  1
  Fe  Fe0  1  0.24605500  0.49960400  0.00192100  1
  Fe  Fe1  1  0.75448200  0.00104900  0.49926000  1
  Fe  Fe2  1  0.75394500  0.49960400  0.00192100  1
  Fe  Fe3  1  0.24551800  0.00104900  0.49926000  1
  O  O0  1  0.21228400  0.20380000  0.20398400  1
  O  O1  1  0.79338900  0.29150300  0.70802200  1
  O  O2  1  0.70662200  0.79059600  0.79043700  1
  O  O3  1  0.29698400  0.71225000  0.28825100  1
  O  O4  1  0.29337800  0.79059600  0.79043700  1
  O  O5  1  0.70301600  0.71225000  0.28825100  1
  O  O6  1  0.78771600  0.20380000  0.20398400  1
  O  O7  1  0.20661100  0.29150300  0.70802200  1
  O  O8  1  0.00000000  0.58115000  0.02737900  1
  O  O9  1  0.00000000  0.91446000  0.52249300  1
  O  O10  1  0.50000000  0.42204700  0.98013300  1
  O  O11  1  0.50000000  0.08111700  0.48286500  1
loop_
_geom_bond_atom_site_label_1
_geom_bond_atom_site_label_2
_geom_bond_distance
_geom_bond_site_symmetry_2
Ca0 O9 2.358881 1_555
Ca0 O1 2.410710 1_455
Ca0 O7 2.410710 1_555
Ca0 O8 2.454532 1_555
Ca0 O0 2.701038 1_555
Ca0 O6 2.701038 1_455
Ca0 O3 2.788663 1_555
Ca0 O5 2.788663 1_455
Fe0 O8 1.984594 1_555
Fe0 O0 1.999772 1_555
Fe0 O4 2.025567 1_554
Fe0 O3 2.028079 1_555
Fe0 O7 2.032059 1_554
Fe0 O10 2.038628 1_554
Fe1 O9 1.986000 1_645
Fe1 O1 2.007282 1_555
Fe1 O6 2.011037 1_555
Fe1 O5 2.024699 1_545
Fe1 O2 2.034208 1_545
Fe1 O11 2.043994 1_555
Fe2 O8 1.984594 1_655
Fe2 O6 1.999772 1_555
Fe2 O2 2.025567 1_554
Fe2 O5 2.028079 1_555
Fe2 O1 2.032059 1_554
Fe2 O10 2.038628 1_554
Fe3 O9 1.986000 1_545
Fe3 O7 2.007282 1_555
Fe3 O0 2.011037 1_555
Fe3 O3 2.024699 1_545
Fe3 O4 2.034208 1_545
Fe3 O11 2.043994 1_555
O0 Pr0 2.423760 1_554
O0 Pr2 2.691299 1_545
O1 Pr0 2.625803 1_655
O1 Pr1 2.749949 1_555
O2 Pr2 2.429609 1_556
O2 Pr1 2.621808 1_555
O2 Pr0 2.755360 1_665
O3 Pr1 2.416957 1_555
O3 Pr2 2.587388 1_555
O4 Pr2 2.429609 1_556
O4 Pr1 2.621808 1_555
O4 Pr0 2.755360 1_565
O5 Pr1 2.416957 1_555
O5 Pr2 2.587388 1_555
O6 Pr0 2.423760 1_654
O6 Pr2 2.691299 1_545
O7 Pr0 2.625803 1_555
O7 Pr1 2.749949 1_555
O8 Pr0 2.401353 1_564
O9 Pr0 2.473145 1_565
O10 Pr2 2.406965 1_546
O10 Pr1 2.478808 1_555
O11 Pr1 2.395297 1_555
O11 Pr2 2.494090 1_545
