# generated using pymatgen
data_Li3Fe2P2(CO7)2
_symmetry_space_group_name_H-M   'P 1'
_cell_length_a   9.43843829
_cell_length_b   10.26410135
_cell_length_c   6.45508084
_cell_angle_alpha   90.00000000
_cell_angle_beta   90.00000000
_cell_angle_gamma   62.17159240
_symmetry_Int_Tables_number   1
_chemical_formula_structural   Li3Fe2P2(CO7)2
_chemical_formula_sum   'Li6 Fe4 P4 C4 O28'
_cell_volume   553.02753631
_cell_formula_units_Z   2
loop_
 _symmetry_equiv_pos_site_id
 _symmetry_equiv_pos_as_xyz
  1  'x, y, z'
loop_
 _atom_site_type_symbol
 _atom_site_label
 _atom_site_symmetry_multiplicity
 _atom_site_fract_x
 _atom_site_fract_y
 _atom_site_fract_z
 _atom_site_occupancy
  Li  Li0  1  0.88889575  0.44179669  0.74472841  1
  Li  Li1  1  0.88889575  0.94179669  0.75527159  1
  Li  Li2  1  0.28469091  0.23099652  0.04235514  1
  Li  Li3  1  0.28469091  0.73099652  0.45764486  1
  Li  Li4  1  0.09934941  0.07064634  0.24859088  1
  Li  Li5  1  0.09934941  0.57064634  0.25140912  1
  Fe  Fe0  1  0.67058748  0.06622427  0.24949808  1
  Fe  Fe1  1  0.67058748  0.56622427  0.25050192  1
  Fe  Fe2  1  0.33296211  0.43288956  0.74694374  1
  Fe  Fe3  1  0.33296211  0.93288956  0.75305626  1
  P  P0  1  0.57763317  0.07218232  0.75346591  1
  P  P1  1  0.57763317  0.57218232  0.74653409  1
  P  P2  1  0.42098679  0.42614778  0.25157842  1
  P  P3  1  0.42098679  0.92614778  0.24842158  1
  C  C0  1  0.96202207  0.37324202  0.23815358  1
  C  C1  1  0.96202207  0.87324202  0.26184642  1
  C  C2  1  0.04225320  0.12761146  0.75134509  1
  C  C3  1  0.04225320  0.62761146  0.74865491  1
  O  O0  1  0.92884238  0.01142699  0.25362346  1
  O  O1  1  0.92884238  0.51142699  0.24637654  1
  O  O2  1  0.90562599  0.23613508  0.75005879  1
  O  O3  1  0.83865022  0.34915188  0.24960500  1
  O  O4  1  0.90562599  0.73613508  0.74994121  1
  O  O5  1  0.83865022  0.84915188  0.25039500  1
  O  O6  1  0.69291097  0.04809179  0.93740051  1
  O  O7  1  0.68087607  0.05860407  0.56161724  1
  O  O8  1  0.68087607  0.55860407  0.93838276  1
  O  O9  1  0.69291097  0.54809179  0.56259949  1
  O  O10  1  0.57353457  0.27889207  0.24748293  1
  O  O11  1  0.52470783  0.45041926  0.74883758  1
  O  O12  1  0.57353457  0.77889207  0.25251707  1
  O  O13  1  0.52470783  0.95041926  0.75116242  1
  O  O14  1  0.46359695  0.05564347  0.24006131  1
  O  O15  1  0.42157338  0.22049878  0.77565367  1
  O  O16  1  0.46359695  0.55564347  0.25993869  1
  O  O17  1  0.42157338  0.72049878  0.72434633  1
  O  O18  1  0.30811739  0.44548620  0.43836178  1
  O  O19  1  0.30753656  0.44168830  0.06522871  1
  O  O20  1  0.30811739  0.94548620  0.06163822  1
  O  O21  1  0.30753656  0.94168830  0.43477129  1
  O  O22  1  0.16962420  0.14844473  0.76205263  1
  O  O23  1  0.10227002  0.26609294  0.21868625  1
  O  O24  1  0.16962420  0.64844473  0.73794737  1
  O  O25  1  0.10227002  0.76609294  0.28131375  1
  O  O26  1  0.07386360  0.48951548  0.75813965  1
  O  O27  1  0.07386360  0.98951548  0.74186035  1
loop_
_geom_bond_atom_site_label_1
_geom_bond_atom_site_label_2
_geom_bond_distance
_geom_bond_site_symmetry_2
Li0 O26 2.023260 1_655
Li0 O9 2.027305 1_555
Li0 O2 2.042287 1_555
Li0 O8 2.158045 1_555
Li1 O27 2.023260 1_655
Li1 O6 2.027305 1_565
Li1 O4 2.042287 1_555
Li1 O7 2.158045 1_565
Li2 O23 1.952112 1_555
Li2 O15 2.124765 1_554
Li2 O14 2.209511 1_555
Li2 O19 2.276035 1_555
Li2 O22 2.455701 1_554
Li3 O25 1.952112 1_555
Li3 O17 2.124765 1_555
Li3 O16 2.209511 1_555
Li3 O21 2.276035 1_555
Li3 O24 2.455701 1_555
Li4 O0 1.968178 1_455
Li4 O23 2.028306 1_555
Li4 O20 2.150803 1_545
Li4 O21 2.151536 1_545
Li5 O1 1.968178 1_455
Li5 O25 2.028306 1_555
Li5 O18 2.150803 1_555
Li5 O19 2.151536 1_555
Fe0 O10 1.933186 1_555
Fe0 O14 2.007590 1_555
Fe0 O7 2.016852 1_555
Fe0 O6 2.025116 1_554
Fe0 O5 2.044674 1_545
Fe0 O0 2.231269 1_555
Fe1 O12 1.933186 1_555
Fe1 O16 2.007590 1_555
Fe1 O8 2.016852 1_554
Fe1 O9 2.025116 1_555
Fe1 O3 2.044674 1_555
Fe1 O1 2.231269 1_555
Fe2 O11 1.900487 1_555
Fe2 O15 1.945239 1_555
Fe2 O18 2.002785 1_555
Fe2 O24 2.022516 1_555
Fe2 O19 2.065601 1_556
Fe2 O26 2.235260 1_555
Fe3 O13 1.900487 1_555
Fe3 O17 1.945239 1_555
Fe3 O20 2.002785 1_556
Fe3 O22 2.022516 1_565
Fe3 O21 2.065601 1_555
Fe3 O27 2.235260 1_555
C0 O23 1.272142 1_655
C0 O3 1.300514 1_555
C0 O1 1.303030 1_555
C1 O25 1.272142 1_655
C1 O5 1.300514 1_555
C1 O0 1.303030 1_565
C2 O2 1.250061 1_455
C2 O27 1.306537 1_545
C2 O22 1.317482 1_555
C3 O4 1.250061 1_455
C3 O26 1.306537 1_555
C3 O24 1.317482 1_555
O6 P0 1.550323 1_555
O7 P0 1.541368 1_555
O8 P1 1.541368 1_555
O9 P1 1.550323 1_555
O10 P2 1.525261 1_555
O11 P1 1.547453 1_555
O12 P3 1.525261 1_555
O13 P0 1.547453 1_565
O14 P3 1.558973 1_545
O15 P0 1.553728 1_555
O16 P2 1.558973 1_555
O17 P1 1.553728 1_555
O18 P2 1.559031 1_555
O19 P2 1.568294 1_555
O20 P3 1.559031 1_555
O21 P3 1.568294 1_555
