# generated using pymatgen
data_SrCoO3
_symmetry_space_group_name_H-M   'P 1'
_cell_length_a   3.93834226
_cell_length_b   5.35491230
_cell_length_c   5.35492363
_cell_angle_alpha   90.01243636
_cell_angle_beta   90.00001441
_cell_angle_gamma   90.00001050
_symmetry_Int_Tables_number   1
_chemical_formula_structural   SrCoO3
_chemical_formula_sum   'Sr2 Co2 O6'
_cell_volume   112.93253837
_cell_formula_units_Z   2
loop_
 _symmetry_equiv_pos_site_id
 _symmetry_equiv_pos_as_xyz
  1  'x, y, z'
loop_
 _atom_site_type_symbol
 _atom_site_label
 _atom_site_symmetry_multiplicity
 _atom_site_fract_x
 _atom_site_fract_y
 _atom_site_fract_z
 _atom_site_occupancy
  Sr  Sr0  1  0.50000000  0.50000000  -0.00000000  1
  Sr  Sr1  1  0.50000000  -0.00000000  0.50000000  1
  Co  Co0  1  -0.00000000  0.49999900  0.50000100  1
  Co  Co1  1  -0.00000000  -0.00000000  -0.00000000  1
  O  O0  1  -0.00000023  0.26501324  0.26502276  1
  O  O1  1  0.00000023  0.73498676  0.73497824  1
  O  O2  1  -0.00000001  0.23482716  0.76518233  1
  O  O3  1  0.00000001  0.76517284  0.23481667  1
  O  O4  1  0.50000000  -0.00000000  -0.00000000  1
  O  O5  1  0.50000000  0.50000000  0.49999900  1
loop_
_geom_bond_atom_site_label_1
_geom_bond_atom_site_label_2
_geom_bond_distance
_geom_bond_site_symmetry_2
Co0 O0 1.779325 1_555
Co0 O1 1.779329 1_555
Co0 O5 1.969171 1_455
Co0 O5 1.969171 1_555
Co0 O2 2.008400 1_555
Co0 O3 2.008419 1_555
Co1 O3 1.778499 1_545
Co1 O2 1.778503 1_554
Co1 O4 1.969171 1_455
Co1 O4 1.969171 1_555
Co1 O1 2.006759 1_544
Co1 O0 2.006763 1_555
O0 Sr1 2.734154 1_455
O0 Sr1 2.734155 1_555
O0 Sr0 2.734204 1_455
O0 Sr0 2.734206 1_555
O1 Sr1 2.734156 1_565
O1 Sr1 2.734158 1_465
O1 Sr0 2.734201 1_556
O1 Sr0 2.734203 1_456
O2 Sr0 2.733921 1_556
O2 Sr0 2.733922 1_456
O2 Sr1 2.733971 1_455
O2 Sr1 2.733972 1_555
O3 Sr0 2.733919 1_455
O3 Sr0 2.733920 1_555
O3 Sr1 2.733974 1_565
O3 Sr1 2.733975 1_465
O4 Sr0 2.677456 1_545
O4 Sr0 2.677456 1_555
O4 Sr1 2.677462 1_554
O4 Sr1 2.677462 1_555
O5 Sr1 2.677456 1_565
O5 Sr1 2.677456 1_555
O5 Sr0 2.677456 1_555
O5 Sr0 2.677467 1_556
