# generated using pymatgen
data_Mg14TiAl
_symmetry_space_group_name_H-M   'P 1'
_cell_length_a   6.31438520
_cell_length_b   6.31438470
_cell_length_c   10.23151550
_cell_angle_alpha   90.00000000
_cell_angle_beta   90.00000000
_cell_angle_gamma   120.00000264
_symmetry_Int_Tables_number   1
_chemical_formula_structural   Mg14TiAl
_chemical_formula_sum   'Mg14 Ti1 Al1'
_cell_volume   353.29109897
_cell_formula_units_Z   1
loop_
 _symmetry_equiv_pos_site_id
 _symmetry_equiv_pos_as_xyz
  1  'x, y, z'
loop_
 _atom_site_type_symbol
 _atom_site_label
 _atom_site_symmetry_multiplicity
 _atom_site_fract_x
 _atom_site_fract_y
 _atom_site_fract_z
 _atom_site_occupancy
  Mg  Mg0  1  0.16557549  0.83278724  0.12500000  1
  Mg  Mg1  1  0.17023087  0.83511494  0.62500000  1
  Mg  Mg2  1  0.66721276  0.33442451  0.12500000  1
  Mg  Mg3  1  0.66488506  0.32976913  0.62500000  1
  Mg  Mg4  1  0.66721276  0.83278724  0.12500000  1
  Mg  Mg5  1  0.66488506  0.83511494  0.62500000  1
  Mg  Mg6  1  0.32873340  0.17126660  0.37475674  1
  Mg  Mg7  1  0.32873340  0.17126660  0.87524326  1
  Mg  Mg8  1  0.32873340  0.65746780  0.37475674  1
  Mg  Mg9  1  0.32873340  0.65746780  0.87524326  1
  Mg  Mg10  1  0.84253220  0.17126660  0.37475674  1
  Mg  Mg11  1  0.84253220  0.17126660  0.87524326  1
  Mg  Mg12  1  0.83333300  0.66666700  0.37756726  1
  Mg  Mg13  1  0.83333300  0.66666700  0.87243274  1
  Ti  Ti0  1  0.16666700  0.33333300  0.62500000  1
  Al  Al0  1  0.16666700  0.33333300  0.12500000  1
loop_
_geom_bond_atom_site_label_1
_geom_bond_atom_site_label_2
_geom_bond_distance
_geom_bond_site_symmetry_2
Mg0 Mg2 3.146854 1_455
Mg0 Mg4 3.146854 1_455
Mg0 Mg9 3.155543 1_554
Mg0 Mg8 3.155543 1_555
Mg0 Mg7 3.155550 1_564
Mg0 Mg6 3.155550 1_565
Mg0 Mg13 3.158911 1_454
Mg0 Mg12 3.158911 1_455
Mg0 Mg2 3.167531 1_565
Mg0 Mg4 3.167531 1_555
Mg1 Mg3 3.123437 1_565
Mg1 Mg5 3.123437 1_555
Mg1 Mg12 3.130994 1_455
Mg1 Mg13 3.130994 1_455
Mg1 Mg8 3.152482 1_555
Mg1 Mg9 3.152482 1_555
Mg1 Mg6 3.152488 1_565
Mg1 Mg7 3.152488 1_565
Mg1 Ti0 3.157252 1_565
Mg1 Ti0 3.157253 1_555
Mg1 Mg3 3.190948 1_455
Mg1 Mg5 3.190948 1_455
Mg2 Mg4 3.146854 1_555
Mg2 Mg7 3.155550 1_554
Mg2 Mg6 3.155550 1_555
Mg2 Mg4 3.167531 1_545
Mg3 Mg5 3.123437 1_545
Mg3 Mg6 3.152488 1_555
Mg3 Mg7 3.152488 1_555
Mg3 Ti0 3.157253 1_555
Mg3 Ti0 3.157253 1_655
Mg3 Mg5 3.190948 1_555
Mg4 Mg8 3.155550 1_555
Mg4 Mg9 3.155550 1_554
Mg5 Mg9 3.152488 1_555
Mg5 Mg8 3.152488 1_555
Mg5 Ti0 3.157252 1_555
Mg5 Ti0 3.157252 1_665
Mg6 Mg8 3.070061 1_555
Mg6 Ti0 3.114035 1_555
Mg6 Mg8 3.244323 1_545
Mg7 Mg9 3.070061 1_555
Mg7 Ti0 3.114035 1_555
Mg7 Mg9 3.244323 1_545
Mg8 Ti0 3.114042 1_555
Mg9 Ti0 3.114042 1_555
Mg10 Mg8 3.070061 1_655
Mg10 Mg6 3.070062 1_655
Mg10 Ti0 3.114042 1_655
Mg10 Mg3 3.152482 1_555
Mg10 Mg5 3.152488 1_545
Mg10 Mg2 3.155543 1_555
Mg10 Mg4 3.155550 1_545
Mg10 Mg12 3.157724 1_545
Mg10 Mg12 3.157724 1_555
Mg10 Mg8 3.244323 1_545
Mg10 Mg6 3.244324 1_555
Mg11 Mg9 3.070061 1_655
Mg11 Mg7 3.070062 1_655
Mg11 Ti0 3.114042 1_655
Mg11 Mg3 3.152482 1_555
Mg11 Mg5 3.152488 1_545
Mg11 Mg2 3.155543 1_556
Mg11 Mg4 3.155550 1_546
Mg11 Mg13 3.157724 1_545
Mg11 Mg13 3.157724 1_555
Mg11 Mg9 3.244323 1_545
Mg11 Mg7 3.244324 1_555
Mg12 Mg5 3.130987 1_555
Mg12 Mg3 3.130994 1_555
Mg12 Mg6 3.157724 1_665
Mg12 Mg6 3.157724 1_555
Mg12 Mg8 3.157724 1_555
Mg12 Mg8 3.157724 1_655
Mg12 Mg4 3.158905 1_555
Mg12 Mg2 3.158911 1_555
Mg13 Mg5 3.130987 1_555
Mg13 Mg3 3.130994 1_555
Mg13 Mg7 3.157724 1_665
Mg13 Mg7 3.157724 1_555
Mg13 Mg9 3.157724 1_555
Mg13 Mg9 3.157724 1_655
Mg13 Mg4 3.158905 1_556
Mg13 Mg2 3.158911 1_556
Al0 Mg7 3.109944 1_554
Al0 Mg6 3.109944 1_555
Al0 Mg8 3.109950 1_555
Al0 Mg9 3.109950 1_554
Al0 Mg10 3.109950 1_455
Al0 Mg11 3.109950 1_454
Al0 Mg0 3.157198 1_555
Al0 Mg4 3.157198 1_445
Al0 Mg4 3.157198 1_555
Al0 Mg0 3.157198 1_545
Al0 Mg2 3.157198 1_455
Al0 Mg2 3.157198 1_555
