# generated using pymatgen
data_MnGe2Pd3
_symmetry_space_group_name_H-M   'P 1'
_cell_length_a   3.19643400
_cell_length_b   6.95657600
_cell_length_c   16.60126000
_cell_angle_alpha   90.00000000
_cell_angle_beta   90.00000000
_cell_angle_gamma   90.00000000
_symmetry_Int_Tables_number   1
_chemical_formula_structural   MnGe2Pd3
_chemical_formula_sum   'Mn4 Ge8 Pd12'
_cell_volume   369.14953609
_cell_formula_units_Z   4
loop_
 _symmetry_equiv_pos_site_id
 _symmetry_equiv_pos_as_xyz
  1  'x, y, z'
loop_
 _atom_site_type_symbol
 _atom_site_label
 _atom_site_symmetry_multiplicity
 _atom_site_fract_x
 _atom_site_fract_y
 _atom_site_fract_z
 _atom_site_occupancy
  Mn  Mn0  1  0.75000000  0.01453100  0.71104300  1
  Mn  Mn1  1  0.75000000  0.51453100  0.78895700  1
  Mn  Mn2  1  0.25000000  0.98546900  0.28895700  1
  Mn  Mn3  1  0.25000000  0.48546900  0.21104300  1
  Ge  Ge0  1  0.75000000  0.24499000  0.54947700  1
  Ge  Ge1  1  0.75000000  0.74499000  0.95052300  1
  Ge  Ge2  1  0.25000000  0.75501000  0.45052300  1
  Ge  Ge3  1  0.25000000  0.25501000  0.04947700  1
  Ge  Ge4  1  0.25000000  0.20161800  0.81504900  1
  Ge  Ge5  1  0.25000000  0.70161800  0.68495100  1
  Ge  Ge6  1  0.75000000  0.79838200  0.18495100  1
  Ge  Ge7  1  0.75000000  0.29838200  0.31504900  1
  Pd  Pd0  1  0.25000000  0.46557800  0.92441900  1
  Pd  Pd1  1  0.25000000  0.96557800  0.57558100  1
  Pd  Pd2  1  0.75000000  0.53442200  0.07558100  1
  Pd  Pd3  1  0.75000000  0.03442200  0.42441900  1
  Pd  Pd4  1  0.25000000  0.33006300  0.66928700  1
  Pd  Pd5  1  0.25000000  0.83006300  0.83071300  1
  Pd  Pd6  1  0.75000000  0.66993700  0.33071300  1
  Pd  Pd7  1  0.75000000  0.16993700  0.16928700  1
  Pd  Pd8  1  0.75000000  0.10245200  0.93465700  1
  Pd  Pd9  1  0.75000000  0.60245200  0.56534300  1
  Pd  Pd10  1  0.25000000  0.89754800  0.06534300  1
  Pd  Pd11  1  0.25000000  0.39754800  0.43465700  1
loop_
_geom_bond_atom_site_label_1
_geom_bond_atom_site_label_2
_geom_bond_distance
_geom_bond_site_symmetry_2
Mn0 Pd1 2.779847 1_545
Mn0 Pd1 2.779847 1_645
Mn0 Pd4 2.802312 1_555
Mn0 Pd4 2.802312 1_655
Mn0 Pd5 2.854459 1_645
Mn0 Pd5 2.854459 1_545
Mn1 Pd0 2.779847 1_555
Mn1 Pd0 2.779847 1_655
Mn1 Pd5 2.802312 1_555
Mn1 Pd5 2.802312 1_655
Mn1 Pd4 2.854459 1_655
Mn1 Pd4 2.854459 1_555
Mn2 Pd3 2.779847 1_565
Mn2 Pd3 2.779847 1_465
Mn2 Pd6 2.802312 1_555
Mn2 Pd6 2.802312 1_455
Mn2 Pd7 2.854459 1_565
Mn2 Pd7 2.854459 1_465
Mn3 Pd2 2.779847 1_455
Mn3 Pd2 2.779847 1_555
Mn3 Pd7 2.802312 1_455
Mn3 Pd7 2.802312 1_555
Mn3 Pd6 2.854459 1_455
Mn3 Pd6 2.854459 1_555
Ge0 Pd9 2.500622 1_555
Ge0 Pd3 2.540868 1_555
Ge0 Pd1 2.553481 1_545
Ge0 Pd1 2.553481 1_645
Ge0 Pd4 2.619285 1_655
Ge0 Pd4 2.619285 1_555
Ge0 Pd11 2.704450 1_555
Ge0 Pd11 2.704450 1_655
Ge1 Pd8 2.500622 1_565
Ge1 Pd2 2.540868 1_556
Ge1 Pd0 2.553481 1_555
Ge1 Pd0 2.553481 1_655
Ge1 Pd5 2.619285 1_555
Ge1 Pd5 2.619285 1_655
Ge1 Pd10 2.704450 1_556
Ge1 Pd10 2.704450 1_656
Ge2 Pd11 2.500622 1_555
Ge2 Pd1 2.540868 1_555
Ge2 Pd3 2.553481 1_565
Ge2 Pd3 2.553481 1_465
Ge2 Pd6 2.619285 1_455
Ge2 Pd6 2.619285 1_555
Ge2 Pd9 2.704450 1_555
Ge2 Pd9 2.704450 1_455
Ge3 Pd10 2.500622 1_545
Ge3 Pd0 2.540868 1_554
Ge3 Pd2 2.553481 1_455
Ge3 Pd2 2.553481 1_555
Ge3 Pd7 2.619285 1_555
Ge3 Pd7 2.619285 1_455
Ge3 Pd8 2.704450 1_454
Ge3 Pd8 2.704450 1_554
Ge4 Pd4 2.579535 1_555
Ge4 Pd0 2.582351 1_555
Ge4 Pd5 2.597799 1_545
Ge4 Pd8 2.640640 1_455
Ge4 Pd8 2.640640 1_555
Ge4 Mn0 2.688757 1_455
Ge4 Mn0 2.688757 1_555
Ge4 Mn1 2.735031 1_555
Ge4 Mn1 2.735031 1_455
Ge5 Pd5 2.579535 1_555
Ge5 Pd1 2.582351 1_555
Ge5 Pd4 2.597799 1_555
Ge5 Pd9 2.640640 1_455
Ge5 Pd9 2.640640 1_555
Ge5 Mn1 2.688757 1_555
Ge5 Mn1 2.688757 1_455
Ge5 Mn0 2.735031 1_565
Ge5 Mn0 2.735031 1_465
Ge6 Pd6 2.579535 1_555
Ge6 Pd2 2.582351 1_555
Ge6 Pd7 2.597799 1_565
Ge6 Pd10 2.640640 1_555
Ge6 Pd10 2.640640 1_655
Ge6 Mn2 2.688757 1_555
Ge6 Mn2 2.688757 1_655
Ge6 Mn3 2.735031 1_555
Ge6 Mn3 2.735031 1_655
Ge7 Pd7 2.579535 1_555
Ge7 Pd3 2.582351 1_555
Ge7 Pd6 2.597799 1_555
Ge7 Pd11 2.640640 1_555
Ge7 Pd11 2.640640 1_655
Ge7 Mn3 2.688757 1_655
Ge7 Mn3 2.688757 1_555
Ge7 Mn2 2.735031 1_645
Ge7 Mn2 2.735031 1_545
