# generated using pymatgen
data_LiHfMg14
_symmetry_space_group_name_H-M   'P 1'
_cell_length_a   6.38479056
_cell_length_b   6.40017455
_cell_length_c   10.18488942
_cell_angle_alpha   90.00000000
_cell_angle_beta   90.00000000
_cell_angle_gamma   120.07974217
_symmetry_Int_Tables_number   1
_chemical_formula_structural   LiHfMg14
_chemical_formula_sum   'Li1 Hf1 Mg14'
_cell_volume   360.14375819
_cell_formula_units_Z   1
loop_
 _symmetry_equiv_pos_site_id
 _symmetry_equiv_pos_as_xyz
  1  'x, y, z'
loop_
 _atom_site_type_symbol
 _atom_site_label
 _atom_site_symmetry_multiplicity
 _atom_site_fract_x
 _atom_site_fract_y
 _atom_site_fract_z
 _atom_site_occupancy
  Li  Li0  1  0.17169451  0.33584676  0.12500000  1
  Hf  Hf0  1  0.16772024  0.83385962  0.12500000  1
  Mg  Mg0  1  0.16646907  0.33323404  0.62500000  1
  Mg  Mg1  1  0.16657228  0.83328564  0.62500000  1
  Mg  Mg2  1  0.66236258  0.33627406  0.12500000  1
  Mg  Mg3  1  0.66695189  0.33339062  0.62500000  1
  Mg  Mg4  1  0.66236258  0.82608752  0.12500000  1
  Mg  Mg5  1  0.66695189  0.83356027  0.62500000  1
  Mg  Mg6  1  0.33067440  0.16344522  0.37234407  1
  Mg  Mg7  1  0.33067440  0.16344522  0.87765593  1
  Mg  Mg8  1  0.33067440  0.66723018  0.37234407  1
  Mg  Mg9  1  0.33067440  0.66723018  0.87765593  1
  Mg  Mg10  1  0.83501378  0.16750739  0.37187784  1
  Mg  Mg11  1  0.83501378  0.16750739  0.87812216  1
  Mg  Mg12  1  0.83809490  0.66904795  0.37371361  1
  Mg  Mg13  1  0.83809490  0.66904795  0.87628639  1
loop_
_geom_bond_atom_site_label_1
_geom_bond_atom_site_label_2
_geom_bond_distance
_geom_bond_site_symmetry_2
Li0 Mg6 3.117172 1_555
Li0 Mg7 3.117172 1_554
Li0 Mg9 3.117178 1_554
Li0 Mg8 3.117178 1_555
Li0 Mg10 3.127691 1_455
Li0 Mg11 3.127691 1_454
Li0 Mg4 3.131443 1_555
Li0 Mg2 3.131443 1_555
Li0 Mg4 3.253349 1_445
Li0 Mg2 3.253349 1_455
Hf0 Mg8 3.110996 1_555
Hf0 Mg9 3.110996 1_554
Hf0 Mg7 3.111002 1_564
Hf0 Mg6 3.111002 1_565
Hf0 Mg12 3.119828 1_455
Hf0 Mg13 3.119828 1_454
Hf0 Mg2 3.183410 1_565
Hf0 Mg4 3.183410 1_555
Hf0 Li0 3.200163 1_555
Hf0 Li0 3.200163 1_565
Hf0 Mg2 3.201961 1_455
Hf0 Mg4 3.201961 1_455
Mg0 Mg10 3.162238 1_455
Mg0 Mg11 3.162238 1_455
Mg0 Mg7 3.169198 1_555
Mg0 Mg6 3.169198 1_555
Mg0 Mg8 3.169204 1_555
Mg0 Mg9 3.169204 1_555
Mg0 Mg5 3.189815 1_445
Mg0 Mg3 3.189815 1_455
Mg0 Mg5 3.194976 1_555
Mg0 Mg3 3.194976 1_555
Mg0 Mg1 3.200087 1_555
Mg0 Mg1 3.200087 1_545
Mg1 Mg13 3.137468 1_455
Mg1 Mg12 3.137468 1_455
Mg1 Mg8 3.156780 1_555
Mg1 Mg9 3.156780 1_555
Mg1 Mg7 3.156787 1_565
Mg1 Mg6 3.156787 1_565
Mg1 Mg3 3.190853 1_455
Mg1 Mg5 3.190853 1_455
Mg1 Mg3 3.193938 1_565
Mg1 Mg5 3.193938 1_555
Mg2 Mg6 3.115525 1_555
Mg2 Mg7 3.115525 1_554
Mg2 Mg4 3.134892 1_555
Mg2 Mg4 3.265283 1_545
Mg3 Mg7 3.173911 1_555
Mg3 Mg6 3.173911 1_555
Mg3 Mg5 3.199001 1_545
Mg3 Mg5 3.201173 1_555
Mg4 Mg8 3.115525 1_555
Mg4 Mg9 3.115525 1_554
Mg5 Mg8 3.173911 1_555
Mg5 Mg9 3.173911 1_555
Mg6 Mg8 3.175863 1_545
Mg6 Mg8 3.224312 1_555
Mg7 Mg9 3.175863 1_545
Mg7 Mg9 3.224312 1_555
Mg10 Mg2 3.146065 1_555
Mg10 Mg4 3.146072 1_545
Mg10 Mg3 3.172814 1_555
Mg10 Mg5 3.172820 1_545
Mg10 Mg8 3.177803 1_655
Mg10 Mg6 3.177803 1_655
Mg10 Mg12 3.200187 1_555
Mg10 Mg12 3.200187 1_545
Mg10 Mg8 3.207153 1_545
Mg10 Mg6 3.207153 1_555
Mg11 Mg2 3.146065 1_556
Mg11 Mg4 3.146072 1_546
Mg11 Mg3 3.172814 1_555
Mg11 Mg5 3.172820 1_545
Mg11 Mg9 3.177803 1_655
Mg11 Mg7 3.177803 1_655
Mg11 Mg13 3.200187 1_555
Mg11 Mg13 3.200187 1_545
Mg11 Mg9 3.207153 1_545
Mg11 Mg7 3.207153 1_555
Mg12 Mg4 3.133087 1_555
Mg12 Mg2 3.133093 1_555
Mg12 Mg6 3.150895 1_665
Mg12 Mg8 3.150895 1_655
Mg12 Mg5 3.163238 1_555
Mg12 Mg3 3.163244 1_555
Mg12 Mg6 3.233988 1_555
Mg12 Mg8 3.233988 1_555
Mg13 Mg4 3.133087 1_556
Mg13 Mg2 3.133093 1_556
Mg13 Mg7 3.150895 1_665
Mg13 Mg9 3.150895 1_655
Mg13 Mg5 3.163238 1_555
Mg13 Mg3 3.163244 1_555
Mg13 Mg7 3.233988 1_555
Mg13 Mg9 3.233988 1_555
