# generated using pymatgen
data_DyCu5Sn
_symmetry_space_group_name_H-M   'P 1'
_cell_length_a   4.99477100
_cell_length_b   8.20186500
_cell_length_c   10.55292200
_cell_angle_alpha   90.00000000
_cell_angle_beta   90.00000000
_cell_angle_gamma   90.00000000
_symmetry_Int_Tables_number   1
_chemical_formula_structural   DyCu5Sn
_chemical_formula_sum   'Dy4 Cu20 Sn4'
_cell_volume   432.31561901
_cell_formula_units_Z   4
loop_
 _symmetry_equiv_pos_site_id
 _symmetry_equiv_pos_as_xyz
  1  'x, y, z'
loop_
 _atom_site_type_symbol
 _atom_site_label
 _atom_site_symmetry_multiplicity
 _atom_site_fract_x
 _atom_site_fract_y
 _atom_site_fract_z
 _atom_site_occupancy
  Dy  Dy0  1  0.25000000  0.75215100  0.06287300  1
  Dy  Dy1  1  0.75000000  0.24784900  0.93712700  1
  Dy  Dy2  1  0.75000000  0.74784900  0.56287300  1
  Dy  Dy3  1  0.25000000  0.25215200  0.43712700  1
  Cu  Cu0  1  0.25000000  0.81366000  0.74496400  1
  Cu  Cu1  1  0.75000000  0.18634000  0.25503600  1
  Cu  Cu2  1  0.75000000  0.68634000  0.24496400  1
  Cu  Cu3  1  0.25000000  0.31366000  0.75503600  1
  Cu  Cu4  1  0.50138200  0.56530300  0.81316200  1
  Cu  Cu5  1  0.49861800  0.43469700  0.18683800  1
  Cu  Cu6  1  0.49861800  0.93469700  0.31316200  1
  Cu  Cu7  1  0.00138200  0.43469700  0.18683800  1
  Cu  Cu8  1  0.50138200  0.06530300  0.68683800  1
  Cu  Cu9  1  0.99861800  0.56530300  0.81316200  1
  Cu  Cu10  1  0.99861800  0.06530300  0.68683800  1
  Cu  Cu11  1  0.00138200  0.93469700  0.31316200  1
  Cu  Cu12  1  0.25000000  0.91350500  0.51794100  1
  Cu  Cu13  1  0.75000000  0.08649500  0.48205900  1
  Cu  Cu14  1  0.75000000  0.58649500  0.01794100  1
  Cu  Cu15  1  0.25000000  0.41350500  0.98205900  1
  Cu  Cu16  1  0.25000000  0.55879600  0.60195700  1
  Cu  Cu17  1  0.75000000  0.44120400  0.39804300  1
  Cu  Cu18  1  0.75000000  0.94120400  0.10195700  1
  Cu  Cu19  1  0.25000000  0.05879600  0.89804300  1
  Sn  Sn0  1  0.25000000  0.64013100  0.36090900  1
  Sn  Sn1  1  0.75000000  0.35986900  0.63909100  1
  Sn  Sn2  1  0.75000000  0.85986900  0.86090900  1
  Sn  Sn3  1  0.25000000  0.14013100  0.13909100  1
loop_
_geom_bond_atom_site_label_1
_geom_bond_atom_site_label_2
_geom_bond_distance
_geom_bond_site_symmetry_2
Dy0 Sn0 3.276601 1_555
Dy0 Sn3 3.282236 1_565
Dy0 Sn2 3.399996 1_454
Dy0 Sn2 3.399996 1_554
Dy1 Sn1 3.276601 1_555
Dy1 Sn2 3.282236 1_545
Dy1 Sn3 3.399996 1_556
Dy1 Sn3 3.399996 1_656
Dy2 Sn2 3.276601 1_555
Dy2 Sn1 3.282236 1_555
Dy2 Sn0 3.399996 1_555
Dy2 Sn0 3.399996 1_655
Dy3 Sn3 3.276604 1_555
Dy3 Sn0 3.282228 1_555
Dy3 Sn1 3.399993 1_555
Dy3 Sn1 3.399993 1_455
Cu0 Cu10 2.492516 1_465
Cu0 Cu8 2.492516 1_565
Cu0 Cu4 2.498760 1_555
Cu0 Cu9 2.498760 1_455
Cu0 Cu12 2.531851 1_555
Cu0 Cu16 2.578200 1_555
Cu0 Cu19 2.579151 1_565
Cu0 Sn2 2.806719 1_555
Cu0 Sn2 2.806719 1_455
Cu0 Dy2 3.196999 1_555
Cu0 Dy2 3.196999 1_455
Cu0 Dy0 3.392588 1_556
Cu1 Cu11 2.492516 1_645
Cu1 Cu6 2.492516 1_545
Cu1 Cu5 2.498760 1_555
Cu1 Cu7 2.498760 1_655
Cu1 Cu13 2.531851 1_555
Cu1 Cu17 2.578200 1_555
Cu1 Cu18 2.579151 1_545
Cu1 Sn3 2.806719 1_655
Cu1 Sn3 2.806719 1_555
Cu1 Dy3 3.197001 1_655
Cu1 Dy3 3.197001 1_555
Cu1 Dy1 3.392588 1_554
Cu2 Cu7 2.492516 1_655
Cu2 Cu5 2.492516 1_555
Cu2 Cu6 2.498760 1_555
Cu2 Sn0 2.806719 1_655
Cu2 Sn0 2.806719 1_555
Cu2 Dy0 3.196999 1_655
Cu2 Dy0 3.196999 1_555
Cu2 Dy2 3.392588 1_555
Cu3 Cu9 2.492516 1_455
Cu3 Cu4 2.492516 1_555
Cu3 Cu8 2.498760 1_555
Cu3 Sn1 2.806719 1_555
Cu3 Sn1 2.806719 1_455
Cu3 Dy1 3.196999 1_455
Cu3 Dy1 3.196999 1_555
Cu3 Dy3 3.392587 1_555
Cu4 Cu9 2.483580 1_555
Cu4 Cu9 2.511191 1_455
Cu4 Sn2 2.762777 1_555
Cu4 Sn1 2.784867 1_555
Cu4 Dy1 3.167450 1_555
Cu4 Dy2 3.280254 1_555
Cu4 Dy0 3.296856 1_556
Cu5 Cu7 2.483580 1_555
Cu5 Cu7 2.511191 1_655
Cu5 Sn3 2.762777 1_555
Cu5 Sn0 2.784867 1_555
Cu5 Dy0 3.167450 1_555
Cu5 Dy3 3.280250 1_555
Cu5 Dy1 3.296856 1_554
Cu6 Sn0 2.762777 1_555
Cu6 Sn3 2.784867 1_565
Cu6 Dy3 3.167457 1_565
Cu6 Dy0 3.280254 1_555
Cu6 Dy2 3.296856 1_555
Cu7 Sn3 2.762777 1_555
Cu7 Sn0 2.784867 1_555
Cu7 Dy0 3.167450 1_555
Cu7 Dy3 3.280250 1_555
Cu7 Dy1 3.296856 1_454
Cu8 Sn1 2.762777 1_555
Cu8 Sn2 2.784867 1_545
Cu8 Dy2 3.167450 1_545
Cu8 Dy1 3.280254 1_555
Cu8 Dy3 3.296860 1_555
Cu9 Sn2 2.762777 1_555
Cu9 Sn1 2.784867 1_555
Cu9 Dy1 3.167450 1_555
Cu9 Dy2 3.280254 1_555
Cu9 Dy0 3.296856 1_656
Cu10 Cu8 2.483580 1_555
Cu10 Cu13 2.498449 1_555
Cu10 Cu3 2.498760 1_655
Cu10 Cu12 2.510659 1_645
Cu10 Cu8 2.511191 1_655
Cu10 Cu19 2.558721 1_655
Cu10 Sn1 2.762777 1_555
Cu10 Sn2 2.784867 1_545
Cu10 Dy2 3.167450 1_545
Cu10 Dy1 3.280254 1_555
Cu10 Dy3 3.296860 1_655
Cu11 Cu6 2.483580 1_555
Cu11 Cu12 2.498449 1_555
Cu11 Cu2 2.498760 1_455
Cu11 Cu13 2.510659 1_465
Cu11 Cu6 2.511191 1_455
Cu11 Cu18 2.558721 1_455
Cu11 Sn0 2.762777 1_555
Cu11 Sn3 2.784867 1_565
Cu11 Dy3 3.167457 1_565
Cu11 Dy0 3.280254 1_555
Cu11 Dy2 3.296856 1_455
Cu12 Cu6 2.498449 1_555
Cu12 Cu8 2.510659 1_565
Cu12 Sn0 2.788098 1_555
Cu12 Dy2 2.882325 1_555
Cu12 Dy2 2.882325 1_455
Cu12 Dy3 2.905515 1_565
Cu12 Cu16 3.041376 1_555
Cu13 Cu8 2.498449 1_555
Cu13 Cu6 2.510659 1_545
Cu13 Sn1 2.788098 1_555
Cu13 Dy3 2.882329 1_555
Cu13 Dy3 2.882329 1_655
Cu13 Dy2 2.905508 1_545
Cu13 Cu17 3.041376 1_555
Cu14 Cu9 2.498449 1_554
Cu14 Cu4 2.498449 1_554
Cu14 Cu7 2.510659 1_655
Cu14 Cu5 2.510659 1_555
Cu14 Cu2 2.531851 1_555
Cu14 Sn2 2.788098 1_554
Cu14 Dy0 2.882325 1_655
Cu14 Dy0 2.882325 1_555
Cu14 Dy1 2.905508 1_554
Cu14 Cu18 3.041376 1_555
Cu15 Cu5 2.498449 1_556
Cu15 Cu7 2.498449 1_556
Cu15 Cu9 2.510659 1_455
Cu15 Cu4 2.510659 1_555
Cu15 Cu3 2.531851 1_555
Cu15 Sn3 2.788098 1_556
Cu15 Dy1 2.882325 1_455
Cu15 Dy1 2.882325 1_555
Cu15 Dy0 2.905508 1_556
Cu15 Cu19 3.041376 1_555
Cu16 Cu4 2.558721 1_555
Cu16 Cu9 2.558721 1_455
Cu16 Cu3 2.579151 1_555
Cu16 Sn0 2.629779 1_555
Cu16 Dy2 2.968395 1_455
Cu16 Dy2 2.968395 1_555
Cu16 Sn1 3.008742 1_555
Cu16 Sn1 3.008742 1_455
Cu16 Dy3 3.057963 1_555
Cu17 Cu7 2.558721 1_655
Cu17 Cu5 2.558721 1_555
Cu17 Cu2 2.579151 1_555
Cu17 Sn1 2.629779 1_555
Cu17 Dy3 2.968391 1_555
Cu17 Dy3 2.968391 1_655
Cu17 Sn0 3.008742 1_555
Cu17 Sn0 3.008742 1_655
Cu17 Dy2 3.057969 1_555
Cu18 Cu6 2.558721 1_555
Cu18 Cu2 2.578200 1_555
Cu18 Sn2 2.629779 1_554
Cu18 Dy0 2.968395 1_655
Cu18 Dy0 2.968395 1_555
Cu18 Sn3 3.008742 1_665
Cu18 Sn3 3.008742 1_565
Cu18 Dy1 3.057969 1_564
Cu19 Cu8 2.558721 1_555
Cu19 Cu3 2.578200 1_555
Cu19 Sn3 2.629779 1_556
Cu19 Dy1 2.968395 1_455
Cu19 Dy1 2.968395 1_555
Cu19 Sn2 3.008742 1_545
Cu19 Sn2 3.008742 1_445
Cu19 Dy0 3.057969 1_546
