# generated using pymatgen
data_CaSnS3
_symmetry_space_group_name_H-M   'P 1'
_cell_length_a   7.68758400
_cell_length_b   9.26123542
_cell_length_c   15.56159277
_cell_angle_alpha   98.72342962
_cell_angle_beta   90.00000000
_cell_angle_gamma   90.00000000
_symmetry_Int_Tables_number   1
_chemical_formula_structural   CaSnS3
_chemical_formula_sum   'Ca8 Sn8 S24'
_cell_volume   1095.11472738
_cell_formula_units_Z   8
loop_
 _symmetry_equiv_pos_site_id
 _symmetry_equiv_pos_as_xyz
  1  'x, y, z'
loop_
 _atom_site_type_symbol
 _atom_site_label
 _atom_site_symmetry_multiplicity
 _atom_site_fract_x
 _atom_site_fract_y
 _atom_site_fract_z
 _atom_site_occupancy
  Ca  Ca0  1  0.57642500  0.61078900  0.85168500  1
  Ca  Ca1  1  0.07642500  0.88921100  0.64831500  1
  Ca  Ca2  1  0.42357500  0.38921100  0.14831500  1
  Ca  Ca3  1  0.92357500  0.11078900  0.35168500  1
  Ca  Ca4  1  0.40090100  0.89451400  0.12819000  1
  Ca  Ca5  1  0.90090100  0.60548600  0.37181000  1
  Ca  Ca6  1  0.59909900  0.10548600  0.87181000  1
  Ca  Ca7  1  0.09909900  0.39451400  0.62819000  1
  Sn  Sn0  1  0.08906000  0.77520500  0.90034000  1
  Sn  Sn1  1  0.58906000  0.72479500  0.59966000  1
  Sn  Sn2  1  0.91094000  0.22479500  0.09966000  1
  Sn  Sn3  1  0.41094000  0.27520500  0.40034000  1
  Sn  Sn4  1  0.84794200  0.68695100  0.12871600  1
  Sn  Sn5  1  0.34794200  0.81304900  0.37128400  1
  Sn  Sn6  1  0.15205800  0.31304900  0.87128400  1
  Sn  Sn7  1  0.65205800  0.18695100  0.62871600  1
  S  S0  1  0.06953300  0.53239800  0.81164900  1
  S  S1  1  0.56953400  0.96760200  0.68835100  1
  S  S2  1  0.93046600  0.46760200  0.18835100  1
  S  S3  1  0.43046600  0.03239800  0.31164900  1
  S  S4  1  0.83874100  0.85616200  0.83133300  1
  S  S5  1  0.33874100  0.64383800  0.66866700  1
  S  S6  1  0.16125900  0.14383800  0.16866700  1
  S  S7  1  0.66125900  0.35616200  0.33133300  1
  S  S8  1  0.37925300  0.86741800  0.90456700  1
  S  S9  1  0.87925300  0.63258200  0.59543300  1
  S  S10  1  0.62074700  0.13258200  0.09543300  1
  S  S11  1  0.12074700  0.36741800  0.40456700  1
  S  S12  1  0.11175700  0.73080200  0.05029100  1
  S  S13  1  0.61175700  0.76919800  0.44970900  1
  S  S14  1  0.88824300  0.26919800  0.94970900  1
  S  S15  1  0.38824300  0.23080200  0.55029100  1
  S  S16  1  0.82284400  0.83283900  0.26719000  1
  S  S17  1  0.32284400  0.66716100  0.23281000  1
  S  S18  1  0.17715600  0.16716100  0.73281000  1
  S  S19  1  0.67715600  0.33283900  0.76719000  1
  S  S20  1  0.59546600  0.65091900  0.04251400  1
  S  S21  1  0.09546600  0.84908100  0.45748600  1
  S  S22  1  0.40453400  0.34908100  0.95748600  1
  S  S23  1  0.90453400  0.15091900  0.54251400  1
loop_
_geom_bond_atom_site_label_1
_geom_bond_atom_site_label_2
_geom_bond_distance
_geom_bond_site_symmetry_2
Ca0 S19 2.815703 1_555
Ca0 S8 2.833766 1_555
Ca0 S20 2.939953 1_556
Ca0 S4 3.090187 1_555
Ca0 S22 3.397332 1_555
Ca0 S5 3.436308 1_555
Ca1 S18 2.815703 1_565
Ca1 S9 2.833766 1_455
Ca1 S21 2.939953 1_555
Ca1 S5 3.090187 1_555
Ca1 S23 3.397332 1_465
Ca1 S4 3.436308 1_455
Ca2 S17 2.815703 1_555
Ca2 S10 2.833766 1_555
Ca2 S22 2.939953 1_554
Ca2 S6 3.090187 1_555
Ca2 S20 3.397332 1_555
Ca2 S7 3.436308 1_555
Ca3 S16 2.815703 1_545
Ca3 S11 2.833766 1_655
Ca3 S23 2.939953 1_555
Ca3 S7 3.090187 1_555
Ca3 S21 3.397332 1_645
Ca3 S6 3.436308 1_655
Ca4 S12 2.855120 1_555
Ca4 S20 2.862154 1_555
Ca4 S10 2.884147 1_565
Ca4 S17 2.912709 1_555
Ca4 S6 2.946394 1_565
Ca4 S3 2.954154 1_565
Ca5 S13 2.855120 1_555
Ca5 S21 2.862154 1_655
Ca5 S11 2.884147 1_655
Ca5 S16 2.912709 1_555
Ca5 S7 2.946394 1_555
Ca5 S2 2.954154 1_555
Ca6 S14 2.855120 1_555
Ca6 S22 2.862154 1_555
Ca6 S8 2.884147 1_545
Ca6 S19 2.912709 1_555
Ca6 S4 2.946394 1_545
Ca6 S1 2.954154 1_545
Ca7 S15 2.855120 1_555
Ca7 S23 2.862154 1_455
Ca7 S9 2.884147 1_455
Ca7 S18 2.912709 1_555
Ca7 S5 2.946394 1_555
Ca7 S0 2.954154 1_555
S0 Sn6 2.441782 1_555
S0 Sn0 2.458174 1_555
S1 Sn7 2.441780 1_565
S1 Sn1 2.458174 1_555
S2 Sn4 2.441780 1_555
S2 Sn2 2.458174 1_555
S3 Sn5 2.441780 1_545
S3 Sn3 2.458174 1_555
S4 Sn0 2.379633 1_655
S5 Sn1 2.379633 1_555
S6 Sn2 2.379633 1_455
S7 Sn3 2.379633 1_555
S8 Sn0 2.386096 1_555
S9 Sn1 2.386096 1_555
S10 Sn2 2.386096 1_555
S11 Sn3 2.386096 1_555
S12 Sn4 2.432669 1_455
S12 Sn0 2.436337 1_554
S13 Sn5 2.432669 1_555
S13 Sn1 2.436337 1_555
S14 Sn6 2.432669 1_655
S14 Sn2 2.436337 1_556
S15 Sn7 2.432669 1_555
S15 Sn3 2.436337 1_555
S16 Sn4 2.371300 1_555
S17 Sn5 2.371300 1_555
S18 Sn6 2.371300 1_555
S19 Sn7 2.371300 1_555
S20 Sn4 2.354198 1_555
S21 Sn5 2.354198 1_555
S22 Sn6 2.354198 1_555
S23 Sn7 2.354198 1_555
