# generated using pymatgen
data_Li22(VSn)7
_symmetry_space_group_name_H-M   'P 1'
_cell_length_a   4.64273932
_cell_length_b   4.64273932
_cell_length_c   34.59894400
_cell_angle_alpha   90.00000000
_cell_angle_beta   90.00000000
_cell_angle_gamma   119.99999033
_symmetry_Int_Tables_number   1
_chemical_formula_structural   Li22(VSn)7
_chemical_formula_sum   'Li22 V7 Sn7'
_cell_volume   645.86554584
_cell_formula_units_Z   1
loop_
 _symmetry_equiv_pos_site_id
 _symmetry_equiv_pos_as_xyz
  1  'x, y, z'
loop_
 _atom_site_type_symbol
 _atom_site_label
 _atom_site_symmetry_multiplicity
 _atom_site_fract_x
 _atom_site_fract_y
 _atom_site_fract_z
 _atom_site_occupancy
  Li  Li0  1  0.33333300  0.66666700  0.52465300  1
  Li  Li1  1  0.33333300  0.66666700  0.02496500  1
  Li  Li2  1  0.66666700  0.33333300  0.97510400  1
  Li  Li3  1  0.66666700  0.33333300  0.47557500  1
  Li  Li4  1  0.00000000  0.00000000  0.66779100  1
  Li  Li5  1  0.00000000  0.00000000  0.16814000  1
  Li  Li6  1  0.00000000  0.00000000  0.83162600  1
  Li  Li7  1  0.00000000  0.00000000  0.33179600  1
  Li  Li8  1  0.33333300  0.66666700  0.85825400  1
  Li  Li9  1  0.33333300  0.66666700  0.35776100  1
  Li  Li10  1  0.66666700  0.33333300  0.63993200  1
  Li  Li11  1  0.66666700  0.33333300  0.14206600  1
  Li  Li12  1  0.00000000  0.00000000  0.74933200  1
  Li  Li13  1  0.00000000  0.00000000  0.25012400  1
  Li  Li14  1  0.33333300  0.66666700  0.94440900  1
  Li  Li15  1  0.33333300  0.66666700  0.44465600  1
  Li  Li16  1  0.66666700  0.33333300  0.55765200  1
  Li  Li17  1  0.66666700  0.33333300  0.05570000  1
  Li  Li18  1  0.00000000  0.00000000  0.58325100  1
  Li  Li19  1  0.00000000  0.00000000  0.08238600  1
  Li  Li20  1  0.00000000  0.00000000  0.91748300  1
  Li  Li21  1  0.00000000  0.00000000  0.41780900  1
  V  V0  1  0.33333300  0.66666700  0.77623700  1
  V  V1  1  0.33333300  0.66666700  0.27407200  1
  V  V2  1  0.66666700  0.33333300  0.72572200  1
  V  V3  1  0.66666700  0.33333300  0.22568300  1
  V  V4  1  0.33333300  0.66666700  0.11149000  1
  V  V5  1  0.66666700  0.33333300  0.88864900  1
  V  V6  1  0.66666700  0.33333300  0.38822700  1
  Sn  Sn0  1  0.00000000  0.00000000  0.99993500  1
  Sn  Sn1  1  0.00000000  0.00000000  0.49968600  1
  Sn  Sn2  1  0.33333300  0.66666700  0.69640000  1
  Sn  Sn3  1  0.33333300  0.66666700  0.19412300  1
  Sn  Sn4  1  0.66666700  0.33333300  0.80611700  1
  Sn  Sn5  1  0.66666700  0.33333300  0.30572700  1
  Sn  Sn6  1  0.33333300  0.66666700  0.60746900  1
loop_
_geom_bond_atom_site_label_1
_geom_bond_atom_site_label_2
_geom_bond_distance
_geom_bond_site_symmetry_2
Li0 Li15 2.767812 1_555
Li0 Sn1 2.816239 1_565
Li0 Sn1 2.816243 1_665
Li0 Sn1 2.816243 1_555
Li0 Sn6 2.865346 1_555
Li0 Li16 2.913511 1_455
Li0 Li16 2.913511 1_565
Li0 Li16 2.913518 1_555
Li1 Li14 2.787153 1_554
Li1 Sn0 2.816908 1_564
Li1 Sn0 2.816912 1_664
Li1 Sn0 2.816912 1_554
Li1 Li17 2.883715 1_455
Li1 Li17 2.883715 1_565
Li1 Li17 2.883722 1_555
Li1 V4 2.993674 1_555
Li2 Sn0 2.814799 1_655
Li2 Sn0 2.814803 1_555
Li2 Sn0 2.814803 1_665
Li2 V5 2.991252 1_555
Li3 Sn1 2.807296 1_655
Li3 Sn1 2.807300 1_665
Li3 Sn1 2.807300 1_555
Li3 V6 3.022149 1_555
Li4 Sn2 2.857408 1_545
Li4 Sn2 2.857412 1_555
Li4 Sn2 2.857412 1_445
Li5 Sn3 2.827219 1_545
Li5 Sn3 2.827223 1_555
Li5 Sn3 2.827223 1_445
Li6 Sn4 2.822047 1_455
Li6 Sn4 2.822051 1_555
Li6 Sn4 2.822051 1_445
Li7 Sn5 2.828167 1_455
Li7 Sn5 2.828171 1_555
Li7 Sn5 2.828171 1_445
Li8 V0 2.837702 1_555
Li8 V5 2.879398 1_455
Li8 V5 2.879398 1_565
Li8 V5 2.879405 1_555
Li9 V6 2.880296 1_455
Li9 V6 2.880296 1_565
Li9 V6 2.880303 1_555
Li9 V1 2.895551 1_555
Li9 Sn5 3.228956 1_455
Li9 Sn5 3.228956 1_565
Li9 Sn5 3.228962 1_555
Li10 Li16 2.846801 1_555
Li10 Sn6 2.906294 1_545
Li10 Sn6 2.906294 1_655
Li10 Sn6 2.906301 1_555
Li10 V2 2.968243 1_555
Li11 V4 2.881691 1_545
Li11 V4 2.881691 1_655
Li11 V4 2.881698 1_555
Li11 V3 2.893060 1_555
Li11 Li17 2.988172 1_555
Li12 V2 2.802194 1_455
Li12 V2 2.802198 1_555
Li12 V2 2.802198 1_445
Li12 V0 2.837524 1_545
Li12 V0 2.837528 1_555
Li12 V0 2.837528 1_445
Li13 V1 2.805625 1_545
Li13 V1 2.805629 1_555
Li13 V1 2.805629 1_445
Li13 V3 2.810710 1_455
Li13 V3 2.810714 1_445
Li13 V3 2.810714 1_555
Li13 Sn5 3.299397 1_455
Li13 Sn5 3.299401 1_555
Li13 Sn5 3.299401 1_445
Li14 Li20 2.837762 1_565
Li14 Li20 2.837766 1_665
Li14 Li20 2.837766 1_555
Li14 Li2 2.883205 1_455
Li14 Li2 2.883205 1_565
Li14 Li2 2.883212 1_555
Li14 Li8 2.980872 1_555
Li14 Sn0 3.297844 1_565
Li14 Sn0 3.297848 1_555
Li14 Sn0 3.297848 1_665
Li14 V5 3.302568 1_455
Li14 V5 3.302568 1_565
Li14 V5 3.302574 1_555
Li15 Li21 2.836866 1_565
Li15 Li21 2.836870 1_555
Li15 Li21 2.836870 1_665
Li15 Li3 2.886069 1_455
Li15 Li3 2.886069 1_565
Li15 Li3 2.886076 1_555
Li15 Li9 3.006475 1_555
Li15 Sn1 3.287877 1_565
Li15 Sn1 3.287880 1_665
Li15 Sn1 3.287880 1_555
Li15 V6 3.316142 1_455
Li15 V6 3.316142 1_565
Li15 V6 3.316148 1_555
Li16 Li18 2.823022 1_655
Li16 Li18 2.823027 1_555
Li16 Li18 2.823027 1_665
Li16 Li3 2.839778 1_555
Li16 Sn6 3.186824 1_545
Li16 Sn6 3.186824 1_655
Li16 Sn6 3.186830 1_555
Li16 Sn1 3.347727 1_655
Li16 Sn1 3.347730 1_665
Li16 Sn1 3.347730 1_555
Li17 Li2 2.788536 1_554
Li17 Li19 2.835047 1_655
Li17 Li19 2.835051 1_555
Li17 Li19 2.835051 1_665
Li17 Sn0 3.302668 1_654
Li17 Sn0 3.302672 1_664
Li17 Sn0 3.302672 1_554
Li17 V4 3.303174 1_545
Li17 V4 3.303174 1_655
Li17 V4 3.303180 1_555
Li18 Sn6 2.808398 1_545
Li18 Sn6 2.808402 1_445
Li18 Sn6 2.808402 1_555
Li18 Sn1 2.891261 1_555
Li19 Sn0 2.852718 1_554
Li19 V4 2.863386 1_545
Li19 V4 2.863390 1_445
Li19 V4 2.863390 1_555
Li20 Sn0 2.852752 1_555
Li20 V5 2.860114 1_455
Li20 V5 2.860118 1_555
Li20 V5 2.860118 1_445
Li21 Sn1 2.832858 1_555
Li21 V6 2.869244 1_455
Li21 V6 2.869248 1_555
Li21 V6 2.869248 1_445
Sn2 V0 2.762276 1_555
Sn2 V2 2.866047 1_455
Sn2 V2 2.866047 1_565
Sn2 V2 2.866055 1_555
Sn3 V1 2.766151 1_555
Sn3 V4 2.859015 1_555
Sn3 V3 2.894363 1_455
Sn3 V3 2.894363 1_565
Sn3 V3 2.894370 1_555
Sn4 V2 2.781582 1_555
Sn4 V5 2.855520 1_555
Sn4 V0 2.872938 1_545
Sn4 V0 2.872938 1_655
Sn4 V0 2.872945 1_555
Sn5 V3 2.769438 1_555
Sn5 V6 2.854413 1_555
Sn5 V1 2.895604 1_545
Sn5 V1 2.895604 1_655
Sn5 V1 2.895611 1_555
