# generated using pymatgen
data_K2Nd2Mg(SO4)4
_symmetry_space_group_name_H-M   'P 1'
_cell_length_a   5.54757227
_cell_length_b   7.13556368
_cell_length_c   9.88056419
_cell_angle_alpha   99.86859655
_cell_angle_beta   89.73405611
_cell_angle_gamma   86.31635992
_symmetry_Int_Tables_number   1
_chemical_formula_structural   K2Nd2Mg(SO4)4
_chemical_formula_sum   'K2 Nd2 Mg1 S4 O16'
_cell_volume   384.49055791
_cell_formula_units_Z   1
loop_
 _symmetry_equiv_pos_site_id
 _symmetry_equiv_pos_as_xyz
  1  'x, y, z'
loop_
 _atom_site_type_symbol
 _atom_site_label
 _atom_site_symmetry_multiplicity
 _atom_site_fract_x
 _atom_site_fract_y
 _atom_site_fract_z
 _atom_site_occupancy
  K  K0  1  0.72296796  0.19047762  0.10533593  1
  K  K1  1  0.26104043  0.81252860  0.82558540  1
  Nd  Nd0  1  0.16732995  0.72191778  0.27575811  1
  Nd  Nd1  1  0.78530988  0.31452097  0.72446856  1
  Mg  Mg0  1  0.70018972  0.00230712  0.38397668  1
  S  S0  1  0.24300853  0.30833417  0.90930819  1
  S  S1  1  0.76872697  0.76772088  0.58328008  1
  S  S2  1  0.73398309  0.67186006  0.07047222  1
  S  S3  1  0.28588963  0.24803956  0.44012006  1
  O  O0  1  0.70170461  0.53544433  0.94178628  1
  O  O1  1  0.27525255  0.39948769  0.35703211  1
  O  O2  1  0.70743266  0.63185556  0.67532702  1
  O  O3  1  0.99470572  0.69553425  0.50554264  1
  O  O4  1  0.31930842  0.05675224  0.34526696  1
  O  O5  1  0.47105674  0.19063821  0.85969703  1
  O  O6  1  0.94036843  0.79208983  0.05493777  1
  O  O7  1  0.18630007  0.44552117  0.81292840  1
  O  O8  1  0.07331170  0.25496050  0.53159670  1
  O  O9  1  0.50255674  0.79118338  0.10378569  1
  O  O10  1  0.79600272  0.56661247  0.18645362  1
  O  O11  1  0.26376625  0.39796135  0.05312128  1
  O  O12  1  0.03984985  0.17536618  0.89213862  1
  O  O13  1  0.80715782  0.95630275  0.66989119  1
  O  O14  1  0.51567070  0.25236523  0.52376721  1
  O  O15  1  0.56210886  0.79244009  0.48985125  1
loop_
_geom_bond_atom_site_label_1
_geom_bond_atom_site_label_2
_geom_bond_distance
_geom_bond_site_symmetry_2
K0 O12 2.720794 1_654
K0 O10 2.723128 1_555
K0 O5 2.806387 1_554
K0 O11 2.955842 1_555
K0 O6 2.975271 1_545
K0 O0 3.164227 1_554
K0 O9 3.169558 1_545
K0 Mg0 3.268674 1_555
K1 O7 2.659594 1_555
K1 O12 2.764418 1_565
K1 O6 2.903530 1_456
K1 O5 2.974257 1_565
K1 O2 2.982999 1_555
K1 O9 3.086355 1_556
K1 O13 3.162920 1_455
Nd0 O10 2.495026 1_455
Nd0 O3 2.501348 1_455
Nd0 O4 2.567625 1_565
Nd0 O1 2.599499 1_555
Nd0 O6 2.629708 1_455
Nd0 O9 2.639435 1_555
Nd0 O11 2.925049 1_555
Nd0 O15 3.056812 1_555
Nd1 O2 2.408910 1_555
Nd1 O8 2.443726 1_655
Nd1 O0 2.459123 1_555
Nd1 O12 2.475864 1_655
Nd1 O14 2.485562 1_555
Nd1 O5 2.487399 1_555
Nd1 O13 2.515190 1_545
Nd1 O7 2.567371 1_655
Mg0 O15 2.144903 1_545
Mg0 O4 2.171359 1_555
Mg0 O14 2.246490 1_555
O0 S2 1.482069 1_556
O1 S3 1.463440 1_555
O2 S1 1.491433 1_555
O3 S1 1.483021 1_555
O4 S3 1.517619 1_555
O5 S0 1.504232 1_555
O6 S2 1.496718 1_555
O7 S0 1.498941 1_555
O8 S3 1.475607 1_555
O9 S2 1.497039 1_555
O10 S2 1.503684 1_555
O11 S0 1.463169 1_554
O12 S0 1.511034 1_555
O13 S1 1.494109 1_555
O14 S3 1.521527 1_555
O15 S1 1.495586 1_555
