# generated using pymatgen
data_UP2H2CO13
_symmetry_space_group_name_H-M   'P 1'
_cell_length_a   9.57389900
_cell_length_b   9.80070900
_cell_length_c   13.14732974
_cell_angle_alpha   84.57309598
_cell_angle_beta   90.00000000
_cell_angle_gamma   90.00000000
_symmetry_Int_Tables_number   1
_chemical_formula_structural   UP2H2CO13
_chemical_formula_sum   'U4 P8 H8 C4 O52'
_cell_volume   1228.09754163
_cell_formula_units_Z   4
loop_
 _symmetry_equiv_pos_site_id
 _symmetry_equiv_pos_as_xyz
  1  'x, y, z'
loop_
 _atom_site_type_symbol
 _atom_site_label
 _atom_site_symmetry_multiplicity
 _atom_site_fract_x
 _atom_site_fract_y
 _atom_site_fract_z
 _atom_site_occupancy
  U  U0  1  0.75000000  0.37009700  0.97373000  1
  U  U1  1  0.25000000  0.62990300  0.02627000  1
  U  U2  1  0.75000000  0.01331500  0.38638000  1
  U  U3  1  0.25000000  0.98668500  0.61362000  1
  P  P0  1  0.40928200  0.30425200  0.09008400  1
  P  P1  1  0.90928200  0.69574800  0.90991600  1
  P  P2  1  0.59071800  0.69574800  0.90991600  1
  P  P3  1  0.09071800  0.30425200  0.09008400  1
  P  P4  1  0.59260400  0.14954900  0.60909000  1
  P  P5  1  0.09260400  0.85045100  0.39091000  1
  P  P6  1  0.40739600  0.85045100  0.39091000  1
  P  P7  1  0.90739600  0.14954900  0.60909000  1
  H  H0  1  0.25000000  0.28522800  0.95023600  1
  H  H1  1  0.75000000  0.71477200  0.04976400  1
  H  H2  1  0.25000000  0.13497300  0.04001800  1
  H  H3  1  0.75000000  0.86502700  0.95998200  1
  H  H4  1  0.75000000  0.96972500  0.66961500  1
  H  H5  1  0.25000000  0.03027500  0.33038500  1
  H  H6  1  0.75000000  0.10590500  0.75124500  1
  H  H7  1  0.25000000  0.89409500  0.24875500  1
  C  C0  1  0.25000000  0.24743200  0.03199600  1
  C  C1  1  0.75000000  0.75256800  0.96800400  1
  C  C2  1  0.75000000  0.08184200  0.67114900  1
  C  C3  1  0.25000000  0.91815800  0.32885100  1
  O  O0  1  0.75000000  0.27063200  0.86483000  1
  O  O1  1  0.25000000  0.72936800  0.13517000  1
  O  O2  1  0.75000000  0.45264600  0.09048900  1
  O  O3  1  0.25000000  0.54735400  0.90951100  1
  O  O4  1  0.75000000  0.03896900  0.08599200  1
  O  O5  1  0.25000000  0.96103100  0.91400800  1
  O  O6  1  0.53428900  0.26437300  0.02513300  1
  O  O7  1  0.03428900  0.73562700  0.97486700  1
  O  O8  1  0.46571100  0.73562700  0.97486700  1
  O  O9  1  0.96571100  0.26437300  0.02513300  1
  O  O10  1  0.60413600  0.54028600  0.90291800  1
  O  O11  1  0.10413600  0.45971400  0.09708200  1
  O  O12  1  0.39586400  0.45971400  0.09708200  1
  O  O13  1  0.89586400  0.54028600  0.90291800  1
  O  O14  1  0.43031400  0.22642600  0.19735100  1
  O  O15  1  0.93031400  0.77357400  0.80264900  1
  O  O16  1  0.56968600  0.77357400  0.80264900  1
  O  O17  1  0.06968600  0.22642600  0.19735100  1
  O  O18  1  0.75000000  0.87177400  0.48466600  1
  O  O19  1  0.25000000  0.12822600  0.51533400  1
  O  O20  1  0.75000000  0.15146000  0.28518100  1
  O  O21  1  0.25000000  0.84854000  0.71481900  1
  O  O22  1  0.60452800  0.12764100  0.49409500  1
  O  O23  1  0.10452800  0.87235900  0.50590500  1
  O  O24  1  0.39547200  0.87235900  0.50590500  1
  O  O25  1  0.89547200  0.12764100  0.49409500  1
  O  O26  1  0.53067800  0.92896700  0.33817400  1
  O  O27  1  0.03067800  0.07103300  0.66182600  1
  O  O28  1  0.46932200  0.07103300  0.66182600  1
  O  O29  1  0.96932200  0.92896700  0.33817400  1
  O  O30  1  0.75000000  0.85464600  0.24100700  1
  O  O31  1  0.25000000  0.14535400  0.75899300  1
  O  O32  1  0.57852800  0.30589600  0.61269700  1
  O  O33  1  0.07852800  0.69410400  0.38730300  1
  O  O34  1  0.42147200  0.69410400  0.38730300  1
  O  O35  1  0.92147200  0.30589600  0.61269700  1
  O  O36  1  0.75000000  0.54253700  0.31554200  1
  O  O37  1  0.25000000  0.45746300  0.68445800  1
  O  O38  1  0.36508000  0.01802500  0.88095900  1
  O  O39  1  0.86508000  0.98197500  0.11904100  1
  O  O40  1  0.63492000  0.98197500  0.11904100  1
  O  O41  1  0.13492000  0.01802500  0.88095900  1
  O  O42  1  0.75000000  0.61715200  0.60846800  1
  O  O43  1  0.25000000  0.38284800  0.39153200  1
  O  O44  1  0.63499900  0.58724400  0.27427000  1
  O  O45  1  0.13499900  0.41275600  0.72573000  1
  O  O46  1  0.36500100  0.41275600  0.72573000  1
  O  O47  1  0.86500100  0.58724400  0.27427000  1
  O  O48  1  0.36568600  0.36162900  0.34689800  1
  O  O49  1  0.86568600  0.63837100  0.65310200  1
  O  O50  1  0.63431400  0.63837100  0.65310200  1
  O  O51  1  0.13431400  0.36162900  0.34689800  1
loop_
_geom_bond_atom_site_label_1
_geom_bond_atom_site_label_2
_geom_bond_distance
_geom_bond_site_symmetry_2
C0 H2 1.097238 1_555
C0 H0 1.103343 1_554
C0 P0 1.816389 1_555
C0 P3 1.816389 1_555
C1 H3 1.097238 1_555
C1 H1 1.103343 1_556
C1 P1 1.816389 1_555
C1 P2 1.816389 1_555
C2 H6 1.100683 1_555
C2 H4 1.100917 1_545
C2 P7 1.809519 1_555
C2 P4 1.809519 1_555
C3 H7 1.100683 1_555
C3 H5 1.100917 1_565
C3 P6 1.809519 1_555
C3 P5 1.809519 1_555
O0 U0 1.806704 1_555
O1 U1 1.806704 1_555
O2 U0 1.801636 1_554
O3 U1 1.801636 1_556
O4 O40 1.291815 1_545
O6 P0 1.541891 1_555
O6 U0 2.379695 1_554
O7 P1 1.541891 1_455
O7 U1 2.379695 1_556
O8 P2 1.541891 1_555
O8 U1 2.379695 1_556
O9 P3 1.541891 1_655
O9 U0 2.379695 1_554
O10 P2 1.540440 1_555
O10 U0 2.303329 1_555
O11 P3 1.540440 1_555
O11 U1 2.303329 1_555
O12 P0 1.540440 1_555
O12 U1 2.303329 1_555
O13 P1 1.540440 1_555
O13 U0 2.303329 1_555
O14 P0 1.551689 1_555
O15 P1 1.551689 1_555
O16 P2 1.551689 1_555
O17 P3 1.551689 1_555
O18 U2 1.804174 1_565
O19 U3 1.804174 1_545
O20 U2 1.806262 1_555
O21 U3 1.806262 1_555
O22 P4 1.551228 1_555
O22 U2 2.345387 1_555
O23 P5 1.551228 1_555
O23 U3 2.345387 1_555
O24 P6 1.551228 1_555
O24 U3 2.345387 1_555
O25 P7 1.551228 1_555
O25 U2 2.345387 1_555
O26 P6 1.537866 1_555
O26 U2 2.364991 1_565
O27 P7 1.537866 1_455
O27 U3 2.364991 1_545
O28 P4 1.537866 1_555
O28 U3 2.364991 1_545
O29 P5 1.537866 1_655
O29 U2 2.364991 1_565
O30 U2 2.575532 1_565
O31 U3 2.575532 1_545
O32 P4 1.543416 1_555
O33 P5 1.543416 1_555
O34 P6 1.543416 1_555
O35 P7 1.543416 1_555
O36 O47 1.285949 1_555
O36 O44 1.285949 1_555
O37 O46 1.285949 1_555
O37 O45 1.285949 1_555
O38 O5 1.291815 1_545
O39 O4 1.291815 1_565
O41 O5 1.291815 1_545
O42 O49 1.279605 1_555
O42 O50 1.279605 1_555
O43 O51 1.279605 1_555
O43 O48 1.279605 1_555
