# generated using pymatgen
data_Li9Mn2Co5O16
_symmetry_space_group_name_H-M   'P 1'
_cell_length_a   2.94546100
_cell_length_b   9.80054445
_cell_length_c   10.19080536
_cell_angle_alpha   78.87669707
_cell_angle_beta   88.60983954
_cell_angle_gamma   86.58065435
_symmetry_Int_Tables_number   1
_chemical_formula_structural   Li9Mn2Co5O16
_chemical_formula_sum   'Li9 Mn2 Co5 O16'
_cell_volume   288.11454418
_cell_formula_units_Z   1
loop_
 _symmetry_equiv_pos_site_id
 _symmetry_equiv_pos_as_xyz
  1  'x, y, z'
loop_
 _atom_site_type_symbol
 _atom_site_label
 _atom_site_symmetry_multiplicity
 _atom_site_fract_x
 _atom_site_fract_y
 _atom_site_fract_z
 _atom_site_occupancy
  Li  Li0  1  0.99720500  0.75002500  0.87621600  1
  Li  Li1  1  0.49189100  0.49559100  0.49640700  1
  Li  Li2  1  0.99733200  0.24922600  0.12619500  1
  Li  Li3  1  0.50826200  0.00452400  0.74342400  1
  Li  Li4  1  0.49962400  0.49844800  0.00037400  1
  Li  Li5  1  0.99183500  0.25055500  0.62213000  1
  Li  Li6  1  0.50143200  0.99786800  0.26377300  1
  Li  Li7  1  0.01155200  0.75776900  0.37637200  1
  Li  Li8  1  0.98758500  0.99680900  0.49318000  1
  Mn  Mn0  1  0.99592000  0.00153200  0.99704200  1
  Mn  Mn1  1  0.50249300  0.75801400  0.61754800  1
  Co  Co0  1  0.99922600  0.49738000  0.25447100  1
  Co  Co1  1  0.50521700  0.25129800  0.87511600  1
  Co  Co2  1  0.49826400  0.74834300  0.12416700  1
  Co  Co3  1  0.01212700  0.50040500  0.75395600  1
  Co  Co4  1  0.49786200  0.23968300  0.38292700  1
  O  O0  1  0.45873700  0.87556400  0.94226000  1
  O  O1  1  0.02684600  0.63806000  0.57283000  1
  O  O2  1  0.49127800  0.37204900  0.20703000  1
  O  O3  1  0.96322000  0.12799100  0.81755900  1
  O  O4  1  0.98806500  0.62637500  0.07144900  1
  O  O5  1  0.49520000  0.37900400  0.70056100  1
  O  O6  1  0.97040400  0.13648000  0.31612600  1
  O  O7  1  0.49530100  0.86467800  0.44982400  1
  O  O8  1  0.51987200  0.62214600  0.80063900  1
  O  O9  1  0.02754500  0.37072100  0.43125800  1
  O  O10  1  0.52885000  0.12843100  0.04902200  1
  O  O11  1  0.97947700  0.85964600  0.67919700  1
  O  O12  1  0.03672300  0.36985800  0.93187900  1
  O  O13  1  0.50194500  0.14119800  0.54471400  1
  O  O14  1  0.00933800  0.87229500  0.17730800  1
  O  O15  1  0.50937400  0.61803400  0.30505000  1
loop_
_geom_bond_atom_site_label_1
_geom_bond_atom_site_label_2
_geom_bond_distance
_geom_bond_site_symmetry_2
Li0 O11 2.086684 1_555
Li0 O0 2.092415 1_655
Li0 O4 2.121018 1_556
Li0 O0 2.125370 1_555
Li0 O8 2.149119 1_655
Li0 O8 2.185367 1_555
Li1 O15 2.084484 1_555
Li1 O9 2.089574 1_555
Li1 O9 2.111895 1_655
Li1 O1 2.138241 1_555
Li1 O5 2.171762 1_555
Li1 O1 2.404265 1_655
Li2 O6 2.037499 1_555
Li2 O12 2.105810 1_654
Li2 O2 2.111479 1_555
Li2 O10 2.128591 1_555
Li2 O10 2.132940 1_655
Li2 O2 2.212231 1_655
Li3 O3 2.103812 1_555
Li3 O11 2.109570 1_545
Li3 O3 2.162046 1_455
Li3 O0 2.178088 1_545
Li3 O13 2.201706 1_555
Li3 O11 2.354182 1_445
Li4 O4 2.106891 1_455
Li4 O12 2.127216 1_554
Li4 O12 2.150864 1_654
Li4 O8 2.160318 1_554
Li4 O4 2.186882 1_555
Li4 O2 2.228203 1_555
Li5 O13 2.026142 1_655
Li5 O9 2.074262 1_655
Li5 O13 2.102177 1_555
Li5 O5 2.115482 1_555
Li5 O3 2.120672 1_555
Li5 O5 2.256145 1_655
Li6 O7 2.084537 1_555
Li6 O6 2.135946 1_465
Li6 O6 2.139495 1_565
Li6 O14 2.159607 1_655
Li6 O14 2.255007 1_555
Li6 O10 2.314431 1_565
Li7 O7 2.006905 1_455
Li7 O7 2.054460 1_555
Li7 O1 2.116249 1_555
Li7 O14 2.120470 1_555
Li7 O15 2.155607 1_555
Li7 O15 2.295535 1_455
Li8 O7 2.016486 1_655
Li8 O6 2.043304 1_565
Li8 O13 2.081649 1_565
Li8 O11 2.102278 1_555
Li8 O7 2.109613 1_555
Li8 O13 2.270394 1_665
Mn0 O0 1.929348 1_645
Mn0 O10 1.932544 1_556
Mn0 O3 2.002616 1_555
Mn0 O14 2.019992 1_646
Mn0 O10 2.195174 1_656
Mn0 O0 2.209325 1_545
Mn1 O7 1.823307 1_555
Mn1 O11 1.942029 1_455
Mn1 O11 1.952401 1_555
Mn1 O1 1.982694 1_655
Mn1 O1 1.996673 1_555
Mn1 O8 2.072432 1_555
Co0 O15 1.934239 1_555
Co0 O2 1.955962 1_655
Co0 O9 1.981331 1_655
Co0 O4 2.041154 1_555
Co0 O15 2.099165 1_655
Co0 O2 2.112905 1_555
Co1 O12 1.902184 1_555
Co1 O3 1.914412 1_555
Co1 O10 1.941203 1_556
Co1 O5 1.967429 1_555
Co1 O12 2.157755 1_655
Co1 O3 2.214072 1_455
Co2 O4 1.950208 1_555
Co2 O14 1.962203 1_555
Co2 O0 2.026323 1_554
Co2 O15 2.029676 1_555
Co2 O4 2.115905 1_455
Co2 O14 2.132278 1_655
Co3 O8 1.931664 1_455
Co3 O5 1.935602 1_555
Co3 O12 2.007495 1_555
Co3 O1 2.066703 1_555
Co3 O8 2.086364 1_555
Co3 O5 2.129805 1_455
Co4 O13 1.742317 1_555
Co4 O6 1.864263 1_555
Co4 O9 1.951835 1_555
Co4 O2 1.999471 1_555
Co4 O6 2.098709 1_455
Co4 O9 2.201436 1_655
