# generated using pymatgen
data_Li6Mn3V(PO4)6
_symmetry_space_group_name_H-M   'P 1'
_cell_length_a   8.63940900
_cell_length_b   8.71617443
_cell_length_c   12.35553560
_cell_angle_alpha   89.28132383
_cell_angle_beta   87.97684570
_cell_angle_gamma   89.19867728
_symmetry_Int_Tables_number   1
_chemical_formula_structural   Li6Mn3V(PO4)6
_chemical_formula_sum   'Li12 Mn6 V2 P12 O48'
_cell_volume   929.66540227
_cell_formula_units_Z   2
loop_
 _symmetry_equiv_pos_site_id
 _symmetry_equiv_pos_as_xyz
  1  'x, y, z'
loop_
 _atom_site_type_symbol
 _atom_site_label
 _atom_site_symmetry_multiplicity
 _atom_site_fract_x
 _atom_site_fract_y
 _atom_site_fract_z
 _atom_site_occupancy
  Li  Li0  1  0.91888900  0.08083700  0.69552800  1
  Li  Li1  1  0.92188500  0.69749400  0.75872300  1
  Li  Li2  1  0.79163700  0.78131600  0.17664500  1
  Li  Li3  1  0.70750200  0.27894400  0.32639700  1
  Li  Li4  1  0.57566800  0.19290400  0.73974000  1
  Li  Li5  1  0.57781200  0.58446300  0.80275300  1
  Li  Li6  1  0.42211400  0.41824400  0.19836000  1
  Li  Li7  1  0.42120900  0.80531700  0.26416100  1
  Li  Li8  1  0.29152800  0.71896000  0.67245500  1
  Li  Li9  1  0.20869500  0.21652100  0.82717500  1
  Li  Li10  1  0.08795700  0.30516700  0.23815200  1
  Li  Li11  1  0.08153500  0.91717700  0.30307000  1
  Mn  Mn0  1  0.74847400  0.03693500  0.89798500  1
  Mn  Mn1  1  0.74788200  0.95777600  0.39120800  1
  Mn  Mn2  1  0.25176900  0.04087600  0.60856400  1
  Mn  Mn3  1  0.24690100  0.54236000  0.89002900  1
  Mn  Mn4  1  0.25242000  0.96259400  0.10116900  1
  Mn  Mn5  1  0.24864200  0.46370600  0.39894700  1
  V  V0  1  0.75200500  0.53195500  0.60784300  1
  V  V1  1  0.75318900  0.45919000  0.11046600  1
  P  P0  1  0.96485800  0.25085100  0.49279800  1
  P  P1  1  0.89589200  0.38285200  0.85201000  1
  P  P2  1  0.89918300  0.10031700  0.15384000  1
  P  P3  1  0.60084500  0.59841300  0.35028400  1
  P  P4  1  0.60230200  0.88602800  0.64051300  1
  P  P5  1  0.53931400  0.74890000  0.00597500  1
  P  P6  1  0.46103700  0.24749800  0.99711400  1
  P  P7  1  0.39651900  0.11592200  0.35996100  1
  P  P8  1  0.39614500  0.40062700  0.65781700  1
  P  P9  1  0.10056900  0.90164400  0.84466500  1
  P  P10  1  0.10544800  0.61773900  0.13975400  1
  P  P11  1  0.03857600  0.74688300  0.50497400  1
  O  O0  1  0.95119900  0.86608300  0.43337000  1
  O  O1  1  0.91861300  0.89330800  0.84950300  1
  O  O2  1  0.92929300  0.67928200  0.59544900  1
  O  O3  1  0.93058000  0.59574000  0.16567400  1
  O  O4  1  0.89854400  0.36976000  0.57318800  1
  O  O5  1  0.85703400  0.21345000  0.82038000  1
  O  O6  1  0.85138000  0.40889600  0.97149400  1
  O  O7  1  0.85845500  0.98038800  0.24661400  1
  O  O8  1  0.84576800  0.26474900  0.18818700  1
  O  O9  1  0.83267000  0.17655900  0.43407100  1
  O  O10  1  0.82965500  0.04360100  0.05171100  1
  O  O11  1  0.80505700  0.50210600  0.78186000  1
  O  O12  1  0.69465500  0.00540700  0.70200300  1
  O  O13  1  0.67293000  0.54700800  0.45502000  1
  O  O14  1  0.67072400  0.66711000  0.06816400  1
  O  O15  1  0.64982700  0.75880100  0.30743300  1
  O  O16  1  0.63456800  0.89751400  0.51741600  1
  O  O17  1  0.63969200  0.71744200  0.67821500  1
  O  O18  1  0.64108100  0.47595600  0.26043900  1
  O  O19  1  0.60893100  0.86860300  0.92650700  1
  O  O20  1  0.57052100  0.17838600  0.90556700  1
  O  O21  1  0.57739900  0.39350200  0.65323300  1
  O  O22  1  0.57352600  0.09373900  0.33448800  1
  O  O23  1  0.54683600  0.36056100  0.06821100  1
  O  O24  1  0.45450200  0.63534500  0.93492600  1
  O  O25  1  0.42495300  0.90844500  0.66541900  1
  O  O26  1  0.41867800  0.60830900  0.35522500  1
  O  O27  1  0.43122100  0.81816700  0.09726100  1
  O  O28  1  0.39719700  0.12533700  0.07796200  1
  O  O29  1  0.35821100  0.52478300  0.74822500  1
  O  O30  1  0.35893600  0.28544400  0.32234600  1
  O  O31  1  0.36503400  0.10589000  0.48319400  1
  O  O32  1  0.34826200  0.23964500  0.69806500  1
  O  O33  1  0.32736100  0.32496200  0.93717300  1
  O  O34  1  0.32380300  0.45754500  0.55530500  1
  O  O35  1  0.30385900  0.99657900  0.29869700  1
  O  O36  1  0.20169400  0.49777100  0.20219100  1
  O  O37  1  0.17204000  0.95702400  0.94650100  1
  O  O38  1  0.17296600  0.82113100  0.56143300  1
  O  O39  1  0.15148300  0.73956600  0.80604900  1
  O  O40  1  0.13895200  0.02308800  0.75240700  1
  O  O41  1  0.13447300  0.60449100  0.01612200  1
  O  O42  1  0.14175500  0.78703400  0.17471700  1
  O  O43  1  0.09955800  0.62719400  0.42187700  1
  O  O44  1  0.07151500  0.40204900  0.82991900  1
  O  O45  1  0.07454900  0.32042300  0.40232900  1
  O  O46  1  0.08045400  0.10927300  0.15057500  1
  O  O47  1  0.05120800  0.13214000  0.56480900  1
loop_
_geom_bond_atom_site_label_1
_geom_bond_atom_site_label_2
_geom_bond_distance
_geom_bond_site_symmetry_2
Li0 O5 1.992619 1_555
Li0 O47 1.995280 1_655
Li0 O12 2.053035 1_555
Li0 O40 2.102513 1_655
Li0 O1 2.492546 1_545
Li1 O11 2.004067 1_555
Li1 O2 2.024248 1_555
Li1 O1 2.053361 1_555
Li1 O39 2.125711 1_655
Li2 O15 2.002451 1_555
Li2 O3 2.003834 1_555
Li2 O14 2.009988 1_555
Li2 O7 2.047492 1_555
Li3 O9 1.944338 1_555
Li3 O18 1.978010 1_555
Li3 O22 1.998920 1_555
Li3 O8 2.053159 1_555
Li4 O12 1.970587 1_555
Li4 O21 2.037752 1_555
Li4 O20 2.050153 1_555
Li4 O32 2.082008 1_555
Li5 O24 1.969933 1_555
Li5 O17 1.977740 1_555
Li5 O11 2.089444 1_555
Li5 O29 2.109642 1_555
Li5 O21 2.502211 1_555
Li6 O23 1.970403 1_555
Li6 O30 1.974501 1_555
Li6 O36 2.016586 1_555
Li6 O18 2.135135 1_555
Li7 O35 1.982196 1_555
Li7 O26 2.041053 1_555
Li7 O27 2.062602 1_555
Li7 O15 2.097158 1_555
Li8 O38 1.940869 1_555
Li8 O29 2.010939 1_555
Li8 O39 2.020160 1_555
Li8 O25 2.026477 1_555
Li9 O32 1.975393 1_555
Li9 O33 1.987271 1_555
Li9 O44 1.991398 1_555
Li9 O40 2.041036 1_555
Li10 O36 1.994450 1_555
Li10 O45 2.033626 1_555
Li10 O46 2.035885 1_555
Li10 O8 2.236182 1_455
Li11 O0 1.981457 1_455
Li11 O42 2.010665 1_555
Li11 O35 2.049411 1_555
Li11 O7 2.135441 1_455
Li11 O46 2.505040 1_565
Mn0 O19 1.933081 1_545
Mn0 O20 1.957596 1_555
Mn0 O1 1.997950 1_545
Mn0 O5 2.026324 1_555
Mn0 O10 2.049594 1_556
Mn0 O12 2.500990 1_555
Mn1 O16 1.884660 1_555
Mn1 O0 2.002608 1_555
Mn1 O7 2.004759 1_555
Mn1 O22 2.041653 1_565
Mn1 O9 2.131974 1_565
Mn1 O15 2.223709 1_555
Mn2 O31 1.888008 1_555
Mn2 O47 1.985999 1_555
Mn2 O40 2.001918 1_555
Mn2 O25 2.017439 1_545
Mn2 O38 2.136251 1_545
Mn2 O32 2.252321 1_555
Mn3 O41 1.887729 1_556
Mn3 O29 1.975253 1_555
Mn3 O24 2.074511 1_555
Mn3 O33 2.092157 1_555
Mn3 O44 2.120674 1_555
Mn3 O39 2.164899 1_555
Mn4 O28 1.916486 1_565
Mn4 O27 1.978664 1_555
Mn4 O42 2.006517 1_555
Mn4 O46 2.028995 1_565
Mn4 O37 2.057550 1_554
Mn4 O35 2.517934 1_555
Mn5 O43 1.924273 1_555
Mn5 O45 1.967343 1_555
Mn5 O26 2.004261 1_555
Mn5 O30 2.037084 1_555
Mn5 O34 2.059543 1_555
Mn5 O36 2.492128 1_555
O0 P11 1.560183 1_655
O1 P9 1.573678 1_655
O2 P11 1.553296 1_655
O2 V0 2.012945 1_555
O3 P10 1.547293 1_655
O3 V1 2.091835 1_555
O4 P0 1.535587 1_555
O4 V0 1.926545 1_555
O5 P1 1.575816 1_555
O6 P1 1.531249 1_555
O6 V1 1.940561 1_556
O7 P2 1.575500 1_565
O8 P2 1.558877 1_555
O8 V1 2.099915 1_555
O9 P0 1.530038 1_555
O10 P2 1.508295 1_555
O11 P1 1.565289 1_555
O11 V0 2.225486 1_555
O12 P4 1.543491 1_545
O13 P3 1.515838 1_555
O13 V0 2.032638 1_555
O14 P5 1.553305 1_555
O14 V1 2.007857 1_555
O15 P3 1.547860 1_555
O16 P4 1.538825 1_555
O17 P4 1.568671 1_555
O17 V0 2.059896 1_555
O18 P3 1.576220 1_555
O18 V1 2.066192 1_555
O19 P5 1.537710 1_556
O20 P6 1.569264 1_555
O21 P8 1.565343 1_555
O21 V0 2.005142 1_555
O22 P7 1.560217 1_555
O23 P6 1.542856 1_554
O23 V1 2.075983 1_555
O24 P5 1.540986 1_556
O25 P4 1.562154 1_555
O26 P3 1.574043 1_555
O27 P5 1.560664 1_555
O28 P6 1.544872 1_554
O29 P8 1.587709 1_555
O30 P7 1.576288 1_555
O31 P7 1.538850 1_555
O32 P8 1.539952 1_555
O33 P6 1.537583 1_555
O34 P8 1.507464 1_555
O35 P7 1.543273 1_565
O36 P10 1.542944 1_555
O37 P9 1.508595 1_555
O38 P11 1.530686 1_555
O39 P9 1.549696 1_555
O40 P9 1.575648 1_545
O41 P10 1.544720 1_555
O42 P10 1.581428 1_555
O43 P11 1.547039 1_555
O44 P1 1.543161 1_455
O45 P0 1.561900 1_455
O46 P2 1.568180 1_455
O47 P0 1.555943 1_455
