# generated using pymatgen
data_Sm5P12Ru19
_symmetry_space_group_name_H-M   'P 1'
_cell_length_a   12.59010768
_cell_length_b   12.59010768
_cell_length_c   4.01087100
_cell_angle_alpha   90.00000000
_cell_angle_beta   90.00000000
_cell_angle_gamma   119.99999834
_symmetry_Int_Tables_number   1
_chemical_formula_structural   Sm5P12Ru19
_chemical_formula_sum   'Sm5 P12 Ru19'
_cell_volume   550.58987724
_cell_formula_units_Z   1
loop_
 _symmetry_equiv_pos_site_id
 _symmetry_equiv_pos_as_xyz
  1  'x, y, z'
loop_
 _atom_site_type_symbol
 _atom_site_label
 _atom_site_symmetry_multiplicity
 _atom_site_fract_x
 _atom_site_fract_y
 _atom_site_fract_z
 _atom_site_occupancy
  Sm  Sm0  1  0.18412800  0.18412800  0.50000000  1
  Sm  Sm1  1  0.81587200  0.00000000  0.50000000  1
  Sm  Sm2  1  0.00000000  0.81587200  0.50000000  1
  Sm  Sm3  1  0.33333300  0.66666700  0.00000000  1
  Sm  Sm4  1  0.66666700  0.33333300  0.00000000  1
  P  P0  1  0.81356800  0.81356800  0.00000000  1
  P  P1  1  0.18643200  0.00000000  0.00000000  1
  P  P2  1  0.00000000  0.18643200  0.00000000  1
  P  P3  1  0.17039400  0.47654400  0.50000000  1
  P  P4  1  0.52345600  0.69384900  0.50000000  1
  P  P5  1  0.30615100  0.82960600  0.50000000  1
  P  P6  1  0.69384900  0.52345600  0.50000000  1
  P  P7  1  0.82960600  0.30615100  0.50000000  1
  P  P8  1  0.47654400  0.17039400  0.50000000  1
  P  P9  1  0.37422900  0.37422900  0.00000000  1
  P  P10  1  0.62577100  0.00000000  0.00000000  1
  P  P11  1  0.00000000  0.62577100  0.00000000  1
  Ru  Ru0  1  0.55476400  0.55476400  0.00000000  1
  Ru  Ru1  1  0.44523600  0.00000000  0.00000000  1
  Ru  Ru2  1  0.00000000  0.44523600  0.00000000  1
  Ru  Ru3  1  0.71593100  0.71593100  0.50000000  1
  Ru  Ru4  1  0.28406900  0.00000000  0.50000000  1
  Ru  Ru5  1  0.00000000  0.28406900  0.50000000  1
  Ru  Ru6  1  0.18466000  0.37775700  0.00000000  1
  Ru  Ru7  1  0.62224300  0.80690300  0.00000000  1
  Ru  Ru8  1  0.19309700  0.81534000  0.00000000  1
  Ru  Ru9  1  0.80690300  0.62224300  0.00000000  1
  Ru  Ru10  1  0.81534000  0.19309700  0.00000000  1
  Ru  Ru11  1  0.37775700  0.18466000  0.00000000  1
  Ru  Ru12  1  0.36606200  0.49116800  0.50000000  1
  Ru  Ru13  1  0.50883200  0.87489400  0.50000000  1
  Ru  Ru14  1  0.12510600  0.63393800  0.50000000  1
  Ru  Ru15  1  0.87489400  0.50883200  0.50000000  1
  Ru  Ru16  1  0.63393800  0.12510600  0.50000000  1
  Ru  Ru17  1  0.49116800  0.36606200  0.50000000  1
  Ru  Ru18  1  0.00000000  0.00000000  0.00000000  1
loop_
_geom_bond_atom_site_label_1
_geom_bond_atom_site_label_2
_geom_bond_distance
_geom_bond_site_symmetry_2
P0 Ru18 2.347199 1_665
P0 Ru3 2.352202 1_555
P0 Ru3 2.352202 1_554
P0 Ru7 2.367961 1_555
P0 Ru9 2.367961 1_555
P0 Sm2 3.076340 1_654
P0 Sm1 3.076340 1_565
P0 Sm1 3.076340 1_564
P0 Sm2 3.076340 1_655
P1 Ru18 2.347199 1_555
P1 Ru4 2.352202 1_555
P1 Ru4 2.352202 1_554
P1 Ru8 2.367961 1_545
P1 Ru11 2.367961 1_555
P1 Sm0 3.076340 1_554
P1 Sm0 3.076340 1_555
P1 Sm2 3.076340 1_545
P1 Sm2 3.076340 1_544
P2 Ru18 2.347199 1_555
P2 Ru5 2.352202 1_555
P2 Ru5 2.352202 1_554
P2 Ru10 2.367961 1_455
P2 Ru6 2.367961 1_555
P2 Sm0 3.076340 1_554
P2 Sm0 3.076340 1_555
P2 Sm1 3.076340 1_455
P2 Sm1 3.076340 1_454
P3 Ru5 2.296932 1_555
P3 Ru14 2.319860 1_555
P3 Ru12 2.376777 1_555
P3 Ru6 2.413360 1_555
P3 Ru6 2.413360 1_556
P3 Ru2 2.816693 1_556
P3 Ru2 2.816693 1_555
P3 Sm3 3.008210 1_556
P3 Sm3 3.008210 1_555
P4 Ru3 2.296927 1_555
P4 Ru12 2.319851 1_555
P4 Ru13 2.376789 1_555
P4 Ru7 2.413364 1_555
P4 Ru7 2.413364 1_556
P4 Ru0 2.816684 1_555
P4 Ru0 2.816684 1_556
P4 Sm3 3.008217 1_556
P4 Sm3 3.008217 1_555
P5 Ru4 2.296940 1_565
P5 Ru13 2.319847 1_555
P5 Ru14 2.376782 1_555
P5 Ru8 2.413367 1_555
P5 Ru8 2.413367 1_556
P5 Ru1 2.816690 1_566
P5 Ru1 2.816690 1_565
P5 Sm3 3.008198 1_556
P5 Sm3 3.008198 1_555
P6 Ru3 2.296927 1_555
P6 Ru17 2.319851 1_555
P6 Ru15 2.376789 1_555
P6 Ru9 2.413364 1_555
P6 Ru9 2.413364 1_556
P6 Ru0 2.816684 1_555
P6 Ru0 2.816684 1_556
P6 Sm4 3.008217 1_555
P6 Sm4 3.008217 1_556
P7 Ru5 2.296940 1_655
P7 Ru15 2.319847 1_555
P7 Ru16 2.376782 1_555
P7 Ru10 2.413367 1_556
P7 Ru10 2.413367 1_555
P7 Ru2 2.816690 1_655
P7 Ru2 2.816690 1_656
P7 Sm4 3.008198 1_556
P7 Sm4 3.008198 1_555
P8 Ru4 2.296932 1_555
P8 Ru16 2.319860 1_555
P8 Ru17 2.376777 1_555
P8 Ru11 2.413360 1_556
P8 Ru11 2.413360 1_555
P8 Ru1 2.816693 1_556
P8 Ru1 2.816693 1_555
P8 Sm4 3.008210 1_556
P8 Sm4 3.008210 1_555
P9 Ru0 2.272955 1_555
P9 Ru6 2.409210 1_555
P9 Ru11 2.409210 1_555
P9 Ru12 2.520183 1_554
P9 Ru12 2.520183 1_555
P9 Ru17 2.520183 1_554
P9 Ru17 2.520183 1_555
P9 Sm0 3.122515 1_554
P9 Sm0 3.122515 1_555
P10 Ru1 2.272955 1_555
P10 Ru7 2.409210 1_545
P10 Ru10 2.409210 1_555
P10 Ru16 2.520183 1_555
P10 Ru16 2.520183 1_554
P10 Ru13 2.520183 1_544
P10 Ru13 2.520183 1_545
P10 Sm1 3.122515 1_554
P10 Sm1 3.122515 1_555
P11 Ru2 2.272955 1_555
P11 Ru9 2.409210 1_455
P11 Ru8 2.409210 1_555
P11 Ru14 2.520183 1_555
P11 Ru14 2.520183 1_554
P11 Ru15 2.520183 1_455
P11 Ru15 2.520183 1_454
P11 Sm2 3.122515 1_554
P11 Sm2 3.122515 1_555
Ru0 Ru9 2.846406 1_555
Ru0 Ru7 2.846406 1_555
Ru0 Ru12 2.899128 1_555
Ru0 Ru12 2.899128 1_554
Ru0 Ru17 2.899128 1_555
Ru0 Ru17 2.899128 1_554
Ru1 Ru11 2.846406 1_555
Ru1 Ru8 2.846406 1_545
Ru1 Ru13 2.899128 1_544
Ru1 Ru13 2.899128 1_545
Ru1 Ru16 2.899128 1_555
Ru1 Ru16 2.899128 1_554
Ru2 Ru6 2.846406 1_555
Ru3 Ru9 2.841812 1_555
Ru3 Ru9 2.841812 1_556
Ru3 Ru7 2.841812 1_555
Ru3 Ru7 2.841812 1_556
Ru3 Sm2 3.142317 1_655
Ru3 Sm1 3.142317 1_565
Ru4 Ru8 2.841812 1_546
Ru4 Ru8 2.841812 1_545
Ru4 Sm0 3.142317 1_555
Ru4 Sm2 3.142317 1_545
Ru5 Ru6 2.841812 1_556
Ru5 Ru6 2.841812 1_555
Ru5 Sm0 3.142317 1_555
Ru5 Sm1 3.142317 1_455
Ru6 Sm3 3.150535 1_555
Ru6 Sm0 3.154109 1_555
Ru6 Sm0 3.154109 1_554
Ru7 Sm3 3.150536 1_555
Ru7 Sm1 3.154109 1_565
Ru7 Sm1 3.154109 1_564
Ru8 Sm3 3.150525 1_555
Ru8 Sm2 3.154109 1_555
Ru8 Sm2 3.154109 1_554
Ru9 Sm4 3.150536 1_555
Ru9 Sm2 3.154109 1_655
Ru9 Sm2 3.154109 1_654
Ru10 Ru16 2.831179 1_555
Ru10 Ru16 2.831179 1_554
Ru10 Ru5 2.841812 1_655
Ru10 Ru5 2.841812 1_654
Ru10 Ru2 2.846406 1_655
Ru10 Sm4 3.150525 1_555
Ru10 Sm1 3.154109 1_555
Ru10 Sm1 3.154109 1_554
Ru11 Ru17 2.831179 1_554
Ru11 Ru17 2.831179 1_555
Ru11 Ru4 2.841812 1_554
Ru11 Ru4 2.841812 1_555
Ru11 Sm4 3.150535 1_555
Ru11 Sm0 3.154109 1_555
Ru11 Sm0 3.154109 1_554
Ru12 Ru17 2.728150 1_555
Ru12 Ru6 2.831179 1_555
Ru12 Ru6 2.831179 1_556
Ru12 Sm3 3.159771 1_556
Ru12 Sm3 3.159771 1_555
Ru12 Sm0 3.366825 1_555
Ru13 Ru16 2.728150 1_565
Ru13 Ru7 2.831178 1_555
Ru13 Ru7 2.831178 1_556
Ru13 Sm3 3.159765 1_556
Ru13 Sm3 3.159765 1_555
Ru13 Sm1 3.366825 1_565
Ru14 Ru15 2.728150 1_455
Ru14 Ru8 2.831179 1_555
Ru14 Ru8 2.831179 1_556
Ru14 Ru2 2.899128 1_555
Ru14 Ru2 2.899128 1_556
Ru14 Sm3 3.159762 1_556
Ru14 Sm3 3.159762 1_555
Ru14 Sm2 3.366825 1_555
Ru15 Ru9 2.831178 1_555
Ru15 Ru9 2.831178 1_556
Ru15 Ru2 2.899128 1_655
Ru15 Ru2 2.899128 1_656
Ru15 Sm4 3.159765 1_556
Ru15 Sm4 3.159765 1_555
Ru15 Sm2 3.366825 1_655
Ru16 Sm4 3.159762 1_556
Ru16 Sm4 3.159762 1_555
Ru16 Sm1 3.366825 1_555
Ru17 Sm4 3.159771 1_556
Ru17 Sm4 3.159771 1_555
Ru17 Sm0 3.366825 1_555
Ru18 Sm1 3.065254 1_455
Ru18 Sm1 3.065254 1_454
Ru18 Sm2 3.065254 1_544
Ru18 Sm2 3.065254 1_545
Ru18 Sm0 3.065254 1_554
Ru18 Sm0 3.065254 1_555
