# generated using pymatgen
data_Ba2CuOsO6
_symmetry_space_group_name_H-M   'P 1'
_cell_length_a   5.97874830
_cell_length_b   5.97874830
_cell_length_c   5.97874830
_cell_angle_alpha   122.59115928
_cell_angle_beta   122.59115928
_cell_angle_gamma   85.56767234
_symmetry_Int_Tables_number   1
_chemical_formula_structural   Ba2CuOsO6
_chemical_formula_sum   'Ba2 Cu1 Os1 O6'
_cell_volume   144.72702024
_cell_formula_units_Z   1
loop_
 _symmetry_equiv_pos_site_id
 _symmetry_equiv_pos_as_xyz
  1  'x, y, z'
loop_
 _atom_site_type_symbol
 _atom_site_label
 _atom_site_symmetry_multiplicity
 _atom_site_fract_x
 _atom_site_fract_y
 _atom_site_fract_z
 _atom_site_occupancy
  Ba  Ba0  1  0.25000000  0.75000000  0.50000000  1
  Ba  Ba1  1  0.75000000  0.25000000  0.50000000  1
  Cu  Cu0  1  0.00000000  0.00000000  0.00000000  1
  Os  Os0  1  0.50000000  0.50000000  0.00000000  1
  O  O0  1  0.27841100  0.27841100  0.00000000  1
  O  O1  1  0.72158900  0.72158900  0.00000000  1
  O  O2  1  0.72130400  0.75431200  0.47561600  1
  O  O3  1  0.27869600  0.24568800  0.52438400  1
  O  O4  1  0.75431200  0.27869600  0.03300800  1
  O  O5  1  0.24568800  0.72130400  0.96699200  1
loop_
_geom_bond_atom_site_label_1
_geom_bond_atom_site_label_2
_geom_bond_distance
_geom_bond_site_symmetry_2
Ba0 O0 2.882344 1_566
Ba0 O1 2.882344 1_455
Ba0 O1 2.882344 1_556
Ba0 O0 2.882344 1_555
Ba0 O5 2.901686 1_555
Ba0 O2 2.901686 1_555
Ba0 O3 2.901686 1_565
Ba0 O4 2.901686 1_455
Ba0 O3 3.083583 1_555
Ba0 O5 3.083583 1_554
Ba0 O4 3.083583 1_566
Ba0 O2 3.083583 1_455
Ba1 O0 2.882344 1_656
Ba1 O1 2.882344 1_556
Ba1 O1 2.882344 1_545
Ba1 O0 2.882344 1_555
Ba1 O5 2.901686 1_655
Ba1 O3 2.901686 1_555
Ba1 O4 2.901686 1_555
Ba1 O2 2.901686 1_545
Ba1 O4 3.083583 1_556
Ba1 O2 3.083583 1_555
Ba1 O3 3.083583 1_655
Ba1 O5 3.083583 1_544
Cu0 O3 2.133723 1_555
Cu0 O2 2.133723 1_444
Cu0 O5 2.133723 1_544
Cu0 O4 2.133723 1_455
Cu0 O1 2.443297 1_445
Cu0 O0 2.443297 1_555
O0 Os0 1.944635 1_555
O1 Os0 1.944635 1_555
O2 Os0 1.936108 1_555
O3 Os0 1.936108 1_556
O4 Os0 1.936108 1_555
O5 Os0 1.936108 1_556
