# generated using pymatgen
data_BaGaCu2
_symmetry_space_group_name_H-M   'P 1'
_cell_length_a   8.55746212
_cell_length_b   8.55745928
_cell_length_c   12.42393976
_cell_angle_alpha   69.85518543
_cell_angle_beta   69.85518357
_cell_angle_gamma   59.99999522
_symmetry_Int_Tables_number   1
_chemical_formula_structural   BaGaCu2
_chemical_formula_sum   'Ba8 Ga8 Cu16'
_cell_volume   722.93444445
_cell_formula_units_Z   8
loop_
 _symmetry_equiv_pos_site_id
 _symmetry_equiv_pos_as_xyz
  1  'x, y, z'
loop_
 _atom_site_type_symbol
 _atom_site_label
 _atom_site_symmetry_multiplicity
 _atom_site_fract_x
 _atom_site_fract_y
 _atom_site_fract_z
 _atom_site_occupancy
  Ba  Ba0_0  1  0.00000000  0.00000000  0.00000000  1
  Ba  Ba0_1  1  0.00000000  0.00000000  0.50000000  1
  Ba  Ba0_2  1  0.00000000  0.50000000  0.00000000  1
  Ba  Ba0_3  1  0.00000000  0.50000000  0.50000000  1
  Ba  Ba0_4  1  0.50000000  0.00000000  0.00000000  1
  Ba  Ba0_5  1  0.50000000  0.00000000  0.50000000  1
  Ba  Ba0_6  1  0.50000000  0.50000000  0.00000000  1
  Ba  Ba0_7  1  0.50000000  0.50000000  0.50000000  1
  Ga  Ga0_0  1  0.25000000  0.25000000  0.25000000  1
  Ga  Ga0_1  1  0.25000000  0.25000000  0.75000000  1
  Ga  Ga0_2  1  0.25000000  0.75000000  0.25000000  1
  Ga  Ga0_3  1  0.25000000  0.75000000  0.75000000  1
  Ga  Ga0_4  1  0.75000000  0.25000000  0.25000000  1
  Ga  Ga0_5  1  0.75000000  0.25000000  0.75000000  1
  Ga  Ga0_6  1  0.75000000  0.75000000  0.25000000  1
  Ga  Ga0_7  1  0.75000000  0.75000000  0.75000000  1
  Cu  Cu0_0  1  0.40723766  0.40723766  0.27828752  1
  Cu  Cu0_1  1  0.40723766  0.40723766  0.77828752  1
  Cu  Cu0_2  1  0.40723766  0.90723766  0.27828752  1
  Cu  Cu0_3  1  0.40723766  0.90723766  0.77828752  1
  Cu  Cu0_4  1  0.90723766  0.40723766  0.27828752  1
  Cu  Cu0_5  1  0.90723766  0.40723766  0.77828752  1
  Cu  Cu0_6  1  0.90723766  0.90723766  0.27828752  1
  Cu  Cu0_7  1  0.90723766  0.90723766  0.77828752  1
  Cu  Cu1_0  1  0.09276234  0.09276234  0.22171248  1
  Cu  Cu1_1  1  0.09276234  0.09276234  0.72171248  1
  Cu  Cu1_2  1  0.09276234  0.59276234  0.22171248  1
  Cu  Cu1_3  1  0.09276234  0.59276234  0.72171248  1
  Cu  Cu1_4  1  0.59276234  0.09276234  0.22171248  1
  Cu  Cu1_5  1  0.59276234  0.09276234  0.72171248  1
  Cu  Cu1_6  1  0.59276234  0.59276234  0.22171248  1
  Cu  Cu1_7  1  0.59276234  0.59276234  0.72171248  1
loop_
_geom_bond_atom_site_label_1
_geom_bond_atom_site_label_2
_geom_bond_distance
_geom_bond_site_symmetry_2
Ba0_0 Cu0_6 3.172285 1_445
Ba0_0 Cu1_1 3.172285 1_554
Ba0_0 Cu1_0 3.534133 1_555
Ba0_0 Cu0_7 3.534133 1_444
Ba0_0 Cu1_2 3.534135 1_545
Ba0_0 Cu0_5 3.534135 1_454
Ba0_0 Cu1_4 3.534135 1_455
Ba0_0 Cu0_3 3.534135 1_544
Ba0_0 Ga0_6 3.771475 1_445
Ba0_0 Ga0_1 3.771475 1_554
Ba0_0 Ga0_4 3.771475 1_455
Ba0_0 Ga0_3 3.771475 1_544
Ba0_0 Ga0_2 3.771475 1_545
Ba0_0 Ga0_5 3.771475 1_454
Ba0_0 Ba0_2 4.278730 1_545
Ba0_0 Ba0_2 4.278730 1_555
Ba0_0 Ba0_6 4.278730 1_545
Ba0_0 Ba0_6 4.278730 1_455
Ba0_0 Ba0_4 4.278731 1_555
Ba0_0 Ba0_4 4.278731 1_455
Ba0_1 Cu1_0 3.172285 1_555
Ba0_1 Cu0_7 3.172285 1_445
Ba0_1 Cu1_1 3.534133 1_555
Ba0_1 Cu0_6 3.534133 1_445
Ba0_1 Cu1_3 3.534135 1_545
Ba0_1 Cu0_4 3.534135 1_455
Ba0_1 Cu1_5 3.534135 1_455
Ba0_1 Cu0_2 3.534135 1_545
Ba0_1 Ga0_7 3.771475 1_445
Ba0_1 Ga0_0 3.771475 1_555
Ba0_1 Ga0_2 3.771475 1_545
Ba0_1 Ga0_5 3.771475 1_455
Ba0_1 Ga0_4 3.771475 1_455
Ba0_1 Ga0_3 3.771475 1_545
Ba0_1 Ba0_3 4.278730 1_545
Ba0_1 Ba0_3 4.278730 1_555
Ba0_1 Ba0_7 4.278730 1_545
Ba0_1 Ba0_7 4.278730 1_455
Ba0_1 Ba0_5 4.278731 1_555
Ba0_1 Ba0_5 4.278731 1_455
Ba0_2 Cu0_4 3.172285 1_455
Ba0_2 Cu1_3 3.172285 1_554
Ba0_2 Cu1_2 3.534133 1_555
Ba0_2 Cu0_5 3.534133 1_454
Ba0_2 Cu0_7 3.534135 1_454
Ba0_2 Cu1_0 3.534135 1_555
Ba0_2 Cu1_6 3.534135 1_455
Ba0_2 Cu0_1 3.534135 1_554
Ba0_2 Ga0_4 3.771475 1_455
Ba0_2 Ga0_3 3.771475 1_554
Ba0_2 Ga0_6 3.771475 1_455
Ba0_2 Ga0_1 3.771475 1_554
Ba0_2 Ga0_0 3.771475 1_555
Ba0_2 Ga0_7 3.771475 1_454
Ba0_2 Ba0_4 4.278730 1_555
Ba0_2 Ba0_4 4.278730 1_465
Ba0_2 Ba0_6 4.278731 1_555
Ba0_2 Ba0_6 4.278731 1_455
Ba0_3 Cu1_2 3.172285 1_555
Ba0_3 Cu0_5 3.172285 1_455
Ba0_3 Cu1_3 3.534133 1_555
Ba0_3 Cu0_4 3.534133 1_455
Ba0_3 Cu1_1 3.534135 1_555
Ba0_3 Cu0_6 3.534135 1_455
Ba0_3 Cu0_0 3.534135 1_555
Ba0_3 Cu1_7 3.534135 1_455
Ba0_3 Ga0_5 3.771475 1_455
Ba0_3 Ga0_2 3.771475 1_555
Ba0_3 Ga0_0 3.771475 1_555
Ba0_3 Ga0_7 3.771475 1_455
Ba0_3 Ga0_6 3.771475 1_455
Ba0_3 Ga0_1 3.771475 1_555
Ba0_3 Ba0_5 4.278730 1_555
Ba0_3 Ba0_5 4.278730 1_465
Ba0_3 Ba0_7 4.278731 1_455
Ba0_3 Ba0_7 4.278731 1_555
Ba0_4 Cu0_2 3.172285 1_545
Ba0_4 Cu1_5 3.172285 1_554
Ba0_4 Cu1_4 3.534133 1_555
Ba0_4 Cu0_3 3.534133 1_544
Ba0_4 Cu1_6 3.534135 1_545
Ba0_4 Cu0_1 3.534135 1_554
Ba0_4 Cu1_0 3.534135 1_555
Ba0_4 Cu0_7 3.534135 1_544
Ba0_4 Ga0_2 3.771475 1_545
Ba0_4 Ga0_5 3.771475 1_554
Ba0_4 Ga0_0 3.771475 1_555
Ba0_4 Ga0_7 3.771475 1_544
Ba0_4 Ga0_6 3.771475 1_545
Ba0_4 Ga0_1 3.771475 1_554
Ba0_4 Ba0_6 4.278730 1_555
Ba0_4 Ba0_6 4.278730 1_545
Ba0_5 Cu1_4 3.172285 1_555
Ba0_5 Cu0_3 3.172285 1_545
Ba0_5 Cu0_2 3.534133 1_545
Ba0_5 Cu1_5 3.534133 1_555
Ba0_5 Cu0_0 3.534135 1_555
Ba0_5 Cu1_7 3.534135 1_545
Ba0_5 Cu0_6 3.534135 1_545
Ba0_5 Cu1_1 3.534135 1_555
Ba0_5 Ga0_4 3.771475 1_555
Ba0_5 Ga0_3 3.771475 1_545
Ba0_5 Ga0_6 3.771475 1_545
Ba0_5 Ga0_1 3.771475 1_555
Ba0_5 Ga0_0 3.771475 1_555
Ba0_5 Ga0_7 3.771475 1_545
Ba0_5 Ba0_7 4.278730 1_545
Ba0_5 Ba0_7 4.278730 1_555
Ba0_6 Cu0_0 3.172285 1_555
Ba0_6 Cu1_7 3.172285 1_554
Ba0_6 Cu1_6 3.534133 1_555
Ba0_6 Cu0_1 3.534133 1_554
Ba0_6 Cu1_4 3.534135 1_555
Ba0_6 Cu0_3 3.534135 1_554
Ba0_6 Cu1_2 3.534135 1_555
Ba0_6 Cu0_5 3.534135 1_554
Ba0_6 Ga0_0 3.771475 1_555
Ba0_6 Ga0_7 3.771475 1_554
Ba0_6 Ga0_2 3.771475 1_555
Ba0_6 Ga0_5 3.771475 1_554
Ba0_6 Ga0_4 3.771475 1_555
Ba0_6 Ga0_3 3.771475 1_554
Ba0_7 Cu0_1 3.172285 1_555
Ba0_7 Cu1_6 3.172285 1_555
Ba0_7 Cu1_7 3.534133 1_555
Ba0_7 Cu0_0 3.534133 1_555
Ba0_7 Cu0_2 3.534135 1_555
Ba0_7 Cu1_5 3.534135 1_555
Ba0_7 Cu0_4 3.534135 1_555
Ba0_7 Cu1_3 3.534135 1_555
Ba0_7 Ga0_6 3.771475 1_555
Ba0_7 Ga0_1 3.771475 1_555
Ba0_7 Ga0_3 3.771475 1_555
Ba0_7 Ga0_4 3.771475 1_555
Ba0_7 Ga0_5 3.771475 1_555
Ba0_7 Ga0_2 3.771475 1_555
Cu0_0 Ga0_2 2.491281 1_555
Cu0_0 Ga0_4 2.491282 1_555
Cu0_0 Ga0_0 2.491285 1_555
Cu0_0 Cu1_6 2.553116 1_555
Cu0_0 Cu1_4 2.553123 1_555
Cu0_0 Cu1_2 2.553124 1_555
Cu0_1 Ga0_3 2.491281 1_555
Cu0_1 Ga0_5 2.491282 1_555
Cu0_1 Ga0_1 2.491285 1_555
Cu0_1 Cu1_7 2.553116 1_555
Cu0_1 Cu1_5 2.553123 1_555
Cu0_1 Cu1_3 2.553124 1_555
Cu0_2 Ga0_0 2.491281 1_565
Cu0_2 Ga0_6 2.491282 1_555
Cu0_2 Ga0_2 2.491285 1_555
Cu0_2 Cu1_4 2.553116 1_565
Cu0_2 Cu1_6 2.553123 1_555
Cu0_2 Cu1_0 2.553124 1_565
Cu0_3 Ga0_1 2.491281 1_565
Cu0_3 Ga0_7 2.491282 1_555
Cu0_3 Ga0_3 2.491285 1_555
Cu0_3 Cu1_5 2.553116 1_565
Cu0_3 Cu1_7 2.553123 1_555
Cu0_3 Cu1_1 2.553124 1_565
Cu0_4 Ga0_6 2.491281 1_555
Cu0_4 Ga0_0 2.491282 1_655
Cu0_4 Ga0_4 2.491285 1_555
Cu0_4 Cu1_2 2.553116 1_655
Cu0_4 Cu1_0 2.553123 1_655
Cu0_4 Cu1_6 2.553124 1_555
Cu0_5 Ga0_7 2.491281 1_555
Cu0_5 Ga0_1 2.491282 1_655
Cu0_5 Ga0_5 2.491285 1_555
Cu0_5 Cu1_3 2.553116 1_655
Cu0_5 Cu1_1 2.553123 1_655
Cu0_5 Cu1_7 2.553124 1_555
Cu0_6 Ga0_4 2.491281 1_565
Cu0_6 Ga0_2 2.491282 1_655
Cu0_6 Ga0_6 2.491285 1_555
Cu0_6 Cu1_0 2.553116 1_665
Cu0_6 Cu1_2 2.553123 1_655
Cu0_6 Cu1_4 2.553124 1_565
Cu0_7 Ga0_5 2.491281 1_565
Cu0_7 Ga0_3 2.491282 1_655
Cu0_7 Ga0_7 2.491285 1_555
Cu0_7 Cu1_1 2.553116 1_665
Cu0_7 Cu1_3 2.553123 1_655
Cu0_7 Cu1_5 2.553124 1_565
Cu1_0 Ga0_2 2.491281 1_545
Cu1_0 Ga0_4 2.491282 1_455
Cu1_0 Ga0_0 2.491285 1_555
Cu1_1 Ga0_3 2.491281 1_545
Cu1_1 Ga0_5 2.491282 1_455
Cu1_1 Ga0_1 2.491285 1_555
Cu1_2 Ga0_0 2.491281 1_555
Cu1_2 Ga0_6 2.491282 1_455
Cu1_2 Ga0_2 2.491285 1_555
Cu1_3 Ga0_1 2.491281 1_555
Cu1_3 Ga0_7 2.491282 1_455
Cu1_3 Ga0_3 2.491285 1_555
Cu1_4 Ga0_6 2.491281 1_545
Cu1_4 Ga0_0 2.491282 1_555
Cu1_4 Ga0_4 2.491285 1_555
Cu1_5 Ga0_7 2.491281 1_545
Cu1_5 Ga0_1 2.491282 1_555
Cu1_5 Ga0_5 2.491285 1_555
Cu1_6 Ga0_4 2.491281 1_555
Cu1_6 Ga0_2 2.491282 1_555
Cu1_6 Ga0_6 2.491285 1_555
Cu1_7 Ga0_5 2.491281 1_555
Cu1_7 Ga0_3 2.491282 1_555
Cu1_7 Ga0_7 2.491285 1_555
