# generated using pymatgen
data_ZnP4W3O14
_symmetry_space_group_name_H-M   'P 1'
_cell_length_a   8.22561100
_cell_length_b   7.68226100
_cell_length_c   10.07702225
_cell_angle_alpha   69.85335122
_cell_angle_beta   90.00000000
_cell_angle_gamma   90.00000000
_symmetry_Int_Tables_number   1
_chemical_formula_structural   ZnP4W3O14
_chemical_formula_sum   'Zn2 P8 W6 O28'
_cell_volume   597.81810822
_cell_formula_units_Z   2
loop_
 _symmetry_equiv_pos_site_id
 _symmetry_equiv_pos_as_xyz
  1  'x, y, z'
loop_
 _atom_site_type_symbol
 _atom_site_label
 _atom_site_symmetry_multiplicity
 _atom_site_fract_x
 _atom_site_fract_y
 _atom_site_fract_z
 _atom_site_occupancy
  Zn  Zn0  1  0.00000000  0.50000000  0.00000000  1
  Zn  Zn1  1  0.50000000  0.50000000  0.50000000  1
  P  P0  1  0.93361900  0.40541600  0.69667700  1
  P  P1  1  0.43361900  0.59458400  0.80332300  1
  P  P2  1  0.06638100  0.59458400  0.30332300  1
  P  P3  1  0.56638100  0.40541600  0.19667700  1
  P  P4  1  0.19207500  0.10972600  0.70163400  1
  P  P5  1  0.69207500  0.89027400  0.79836600  1
  P  P6  1  0.80792500  0.89027400  0.29836600  1
  P  P7  1  0.30792500  0.10972600  0.20163400  1
  W  W0  1  0.12787300  0.80483400  0.53190000  1
  W  W1  1  0.62787300  0.19516600  0.96810000  1
  W  W2  1  0.87212700  0.19516600  0.46810000  1
  W  W3  1  0.37212700  0.80483400  0.03190000  1
  W  W4  1  0.00000000  0.00000000  0.00000000  1
  W  W5  1  0.50000000  0.00000000  0.50000000  1
  O  O0  1  0.35484000  0.13023600  0.63036300  1
  O  O1  1  0.85484000  0.86976400  0.86963700  1
  O  O2  1  0.64516000  0.86976400  0.36963700  1
  O  O3  1  0.14516000  0.13023600  0.13036300  1
  O  O4  1  0.33823500  0.69632500  0.66867500  1
  O  O5  1  0.83823500  0.30367500  0.83132500  1
  O  O6  1  0.66176500  0.30367500  0.33132500  1
  O  O7  1  0.16176500  0.69632500  0.16867500  1
  O  O8  1  0.84795100  0.39142000  0.56681900  1
  O  O9  1  0.34795100  0.60858000  0.93318100  1
  O  O10  1  0.15204900  0.60858000  0.43318100  1
  O  O11  1  0.65204900  0.39142000  0.06681900  1
  O  O12  1  0.11279200  0.29743500  0.70716400  1
  O  O13  1  0.61279200  0.70256500  0.79283600  1
  O  O14  1  0.88720800  0.70256500  0.29283600  1
  O  O15  1  0.38720800  0.29743500  0.20716400  1
  O  O16  1  0.52201100  0.60350700  0.18137200  1
  O  O17  1  0.02201100  0.39649300  0.31862800  1
  O  O18  1  0.47798900  0.39649300  0.81862800  1
  O  O19  1  0.97798900  0.60350700  0.68137200  1
  O  O20  1  0.79638100  0.01265000  0.13815100  1
  O  O21  1  0.29638100  0.98735000  0.36184900  1
  O  O22  1  0.20361900  0.98735000  0.86184900  1
  O  O23  1  0.70361900  0.01265000  0.63815100  1
  O  O24  1  0.43373400  0.03427200  0.11545200  1
  O  O25  1  0.93373400  0.96572800  0.38454800  1
  O  O26  1  0.56626600  0.96572800  0.88454800  1
  O  O27  1  0.06626600  0.03427200  0.61545200  1
loop_
_geom_bond_atom_site_label_1
_geom_bond_atom_site_label_2
_geom_bond_distance
_geom_bond_site_symmetry_2
O0 P4 1.501726 1_555
O0 W5 2.248962 1_555
O1 P5 1.501726 1_555
O1 W4 2.248962 1_666
O2 P6 1.501726 1_555
O2 W5 2.248962 1_565
O3 P7 1.501726 1_555
O3 W4 2.248962 1_555
O4 P1 1.528723 1_555
O4 W0 2.190261 1_555
O4 W5 2.714887 1_565
O5 P0 1.528723 1_555
O5 W1 2.190261 1_555
O5 W4 2.714887 1_656
O6 P3 1.528723 1_555
O6 W2 2.190261 1_555
O6 W5 2.714887 1_555
O7 P2 1.528723 1_555
O7 W3 2.190261 1_555
O7 W4 2.714887 1_565
O8 P0 1.522311 1_555
O8 W2 2.082161 1_555
O9 P1 1.522311 1_555
O9 W3 2.082161 1_556
O10 P2 1.522311 1_555
O10 W0 2.082161 1_555
O11 P3 1.522311 1_555
O11 W1 2.082161 1_554
O12 P4 1.601003 1_555
O12 P0 1.676610 1_455
O13 P5 1.601003 1_555
O13 P1 1.676610 1_555
O14 P6 1.601003 1_555
O14 P2 1.676610 1_655
O15 P7 1.601003 1_555
O15 P3 1.676610 1_555
O16 P3 1.520247 1_555
O16 W3 2.139186 1_555
O17 P2 1.520247 1_555
O17 W2 2.139186 1_455
O18 P1 1.520247 1_555
O18 W1 2.139186 1_555
O19 P0 1.520247 1_555
O19 W0 2.139186 1_655
O20 P6 1.566487 1_545
O20 W4 2.201359 1_655
O20 W1 2.273445 1_554
O21 P7 1.566487 1_565
O21 W5 2.201359 1_565
O21 W0 2.273445 1_555
O22 P4 1.566487 1_565
O22 W4 2.201359 1_566
O22 W3 2.273445 1_556
O23 P5 1.566487 1_545
O23 W5 2.201359 1_555
O23 W2 2.273445 1_555
O24 P7 1.583641 1_555
O24 W1 2.240192 1_554
O24 W3 2.257151 1_545
O25 P6 1.583641 1_555
O25 W0 2.240192 1_655
O25 W2 2.257151 1_565
O26 P5 1.583641 1_555
O26 W3 2.240192 1_556
O26 W1 2.257151 1_565
O27 P4 1.583641 1_555
O27 W2 2.240192 1_455
O27 W0 2.257151 1_545
