# generated using pymatgen
data_Ba2LaCoCu2O7
_symmetry_space_group_name_H-M   'P 1'
_cell_length_a   3.93280900
_cell_length_b   3.96142800
_cell_length_c   12.00692100
_cell_angle_alpha   90.00000000
_cell_angle_beta   90.00000000
_cell_angle_gamma   90.00000000
_symmetry_Int_Tables_number   1
_chemical_formula_structural   Ba2LaCoCu2O7
_chemical_formula_sum   'Ba2 La1 Co1 Cu2 O7'
_cell_volume   187.06230229
_cell_formula_units_Z   1
loop_
 _symmetry_equiv_pos_site_id
 _symmetry_equiv_pos_as_xyz
  1  'x, y, z'
loop_
 _atom_site_type_symbol
 _atom_site_label
 _atom_site_symmetry_multiplicity
 _atom_site_fract_x
 _atom_site_fract_y
 _atom_site_fract_z
 _atom_site_occupancy
  Ba  Ba0  1  0.50000000  0.50000000  0.18327400  1
  Ba  Ba1  1  0.50000000  0.50000000  0.81672600  1
  La  La0  1  0.50000000  0.50000000  0.50000000  1
  Co  Co0  1  0.00000000  0.00000000  0.00000000  1
  Cu  Cu0  1  0.00000000  0.00000000  0.35366800  1
  Cu  Cu1  1  0.00000000  0.00000000  0.64633200  1
  O  O0  1  0.50000000  0.00000000  0.36852400  1
  O  O1  1  0.50000000  0.00000000  0.63147600  1
  O  O2  1  0.00000000  0.00000000  0.15014600  1
  O  O3  1  0.00000000  0.00000000  0.84985400  1
  O  O4  1  0.00000000  0.50000000  0.36945300  1
  O  O5  1  0.00000000  0.50000000  0.63054700  1
  O  O6  1  0.00000000  0.50000000  0.00000000  1
loop_
_geom_bond_atom_site_label_1
_geom_bond_atom_site_label_2
_geom_bond_distance
_geom_bond_site_symmetry_2
Ba0 O2 2.819254 1_655
Ba0 O2 2.819254 1_565
Ba0 O2 2.819254 1_665
Ba0 O2 2.819254 1_555
Ba0 O6 2.951135 1_555
Ba0 O6 2.951135 1_655
Ba0 O4 2.977234 1_655
Ba0 O4 2.977234 1_555
Ba0 O0 2.978365 1_555
Ba0 O0 2.978365 1_565
Ba1 O3 2.819254 1_555
Ba1 O3 2.819254 1_565
Ba1 O3 2.819254 1_655
Ba1 O3 2.819254 1_665
Ba1 O6 2.951135 1_656
Ba1 O6 2.951135 1_556
Ba1 O5 2.977234 1_655
Ba1 O5 2.977234 1_555
Ba1 O1 2.978365 1_555
Ba1 O1 2.978365 1_565
La0 O5 2.514697 1_555
La0 O5 2.514697 1_655
La0 O4 2.514697 1_655
La0 O4 2.514697 1_555
La0 O0 2.532839 1_555
La0 O0 2.532839 1_565
La0 O1 2.532839 1_565
La0 O1 2.532839 1_555
Co0 O3 1.802791 1_554
Co0 O2 1.802791 1_555
Co0 O6 1.980714 1_555
Co0 O6 1.980714 1_545
Cu0 O0 1.974478 1_555
Cu0 O0 1.974478 1_455
Cu0 O4 1.989761 1_555
Cu0 O4 1.989761 1_545
Cu0 O2 2.443673 1_555
Cu1 O1 1.974478 1_455
Cu1 O1 1.974478 1_555
Cu1 O5 1.989761 1_555
Cu1 O5 1.989761 1_545
Cu1 O3 2.443673 1_555
