# generated using pymatgen
data_CaEuYVO6
_symmetry_space_group_name_H-M   'P 1'
_cell_length_a   5.70462045
_cell_length_b   5.70464112
_cell_length_c   5.70474419
_cell_angle_alpha   59.99940234
_cell_angle_beta   59.99928244
_cell_angle_gamma   60.00150416
_symmetry_Int_Tables_number   1
_chemical_formula_structural   CaEuYVO6
_chemical_formula_sum   'Ca1 Eu1 Y1 V1 O6'
_cell_volume   131.27344383
_cell_formula_units_Z   1
loop_
 _symmetry_equiv_pos_site_id
 _symmetry_equiv_pos_as_xyz
  1  'x, y, z'
loop_
 _atom_site_type_symbol
 _atom_site_label
 _atom_site_symmetry_multiplicity
 _atom_site_fract_x
 _atom_site_fract_y
 _atom_site_fract_z
 _atom_site_occupancy
  Ca  Ca0  1  0.74999938  0.74999979  0.75000042  1
  Eu  Eu0  1  0.25000160  0.25000088  0.24999876  1
  Y  Y0  1  0.49999886  0.50000029  0.50000042  1
  V  V0  1  0.99999801  0.00000361  0.99999919  1
  O  O0  1  0.76828389  0.23171621  0.23171821  1
  O  O1  1  0.23171771  0.76828136  0.76828341  1
  O  O2  1  0.76828389  0.23171621  0.76828169  1
  O  O3  1  0.23171771  0.76828136  0.23171752  1
  O  O4  1  0.76829490  0.76829445  0.23170532  1
  O  O5  1  0.23170405  0.23170584  0.76829505  1
loop_
_geom_bond_atom_site_label_1
_geom_bond_atom_site_label_2
_geom_bond_distance
_geom_bond_site_symmetry_2
Ca0 O3 2.856118 1_556
Ca0 O1 2.856118 1_555
Ca0 O1 2.856125 1_655
Ca0 O3 2.856125 1_655
Ca0 O2 2.856127 1_565
Ca0 O0 2.856127 1_565
Ca0 O0 2.856136 1_556
Ca0 O2 2.856136 1_555
Ca0 O4 2.856188 1_556
Ca0 O4 2.856188 1_555
Ca0 O5 2.856193 1_655
Ca0 O5 2.856199 1_565
Eu0 O2 2.856120 1_554
Eu0 O0 2.856120 1_555
Eu0 O1 2.856121 1_554
Eu0 O3 2.856121 1_555
Eu0 O2 2.856123 1_455
Eu0 O0 2.856123 1_455
Eu0 O3 2.856143 1_545
Eu0 O1 2.856143 1_545
Eu0 O5 2.856189 1_555
Eu0 O5 2.856189 1_554
Eu0 O4 2.856194 1_545
Eu0 O4 2.856197 1_455
O0 V0 1.869422 1_554
O0 Y0 2.164438 1_555
O1 V0 1.869448 1_465
O1 Y0 2.164429 1_555
O2 V0 1.869422 1_555
O2 Y0 2.164438 1_555
O3 V0 1.869448 1_464
O3 Y0 2.164429 1_555
O4 V0 1.869265 1_564
O4 Y0 2.164442 1_555
O5 V0 1.869249 1_455
O5 Y0 2.164439 1_555
