# generated using pymatgen
data_BaSr7Fe6(CoO12)2
_symmetry_space_group_name_H-M   'P 1'
_cell_length_a   7.82150453
_cell_length_b   7.82150453
_cell_length_c   7.88309700
_cell_angle_alpha   90.00000000
_cell_angle_beta   90.00000000
_cell_angle_gamma   90.19960051
_symmetry_Int_Tables_number   1
_chemical_formula_structural   BaSr7Fe6(CoO12)2
_chemical_formula_sum   'Ba1 Sr7 Fe6 Co2 O24'
_cell_volume   482.25288806
_cell_formula_units_Z   1
loop_
 _symmetry_equiv_pos_site_id
 _symmetry_equiv_pos_as_xyz
  1  'x, y, z'
loop_
 _atom_site_type_symbol
 _atom_site_label
 _atom_site_symmetry_multiplicity
 _atom_site_fract_x
 _atom_site_fract_y
 _atom_site_fract_z
 _atom_site_occupancy
  Ba  Ba0  1  0.25200300  0.74799700  0.50000000  1
  Sr  Sr0  1  0.25193600  0.25170300  0.50000000  1
  Sr  Sr1  1  0.74824700  0.25175300  0.50000000  1
  Sr  Sr2  1  0.74829700  0.74806400  0.50000000  1
  Sr  Sr3  1  0.25201200  0.25193000  0.00000000  1
  Sr  Sr4  1  0.74794200  0.25205800  0.00000000  1
  Sr  Sr5  1  0.25192300  0.74807700  0.00000000  1
  Sr  Sr6  1  0.74807000  0.74798800  0.00000000  1
  Fe  Fe0  1  0.99904700  0.00095300  0.75102900  1
  Fe  Fe1  1  0.50100700  0.00144100  0.75097100  1
  Fe  Fe2  1  0.99855900  0.49899300  0.75097100  1
  Fe  Fe3  1  0.99904700  0.00095300  0.24897100  1
  Fe  Fe4  1  0.50100700  0.00144100  0.24902900  1
  Fe  Fe5  1  0.99855900  0.49899300  0.24902900  1
  Co  Co0  1  0.50109000  0.49891000  0.75152400  1
  Co  Co1  1  0.50109000  0.49891000  0.24847600  1
  O  O0  1  0.99602400  0.00397600  0.50000000  1
  O  O1  1  0.50418800  0.00440700  0.50000000  1
  O  O2  1  0.99559300  0.49581200  0.50000000  1
  O  O3  1  0.50400900  0.49599100  0.50000000  1
  O  O4  1  0.99920100  0.00079900  0.00000000  1
  O  O5  1  0.50090600  0.00067100  0.00000000  1
  O  O6  1  0.99932900  0.49909400  0.00000000  1
  O  O7  1  0.50078600  0.49921400  0.00000000  1
  O  O8  1  0.99926200  0.25108900  0.75080700  1
  O  O9  1  0.50167200  0.25894300  0.75066400  1
  O  O10  1  0.99575400  0.74888100  0.75409300  1
  O  O11  1  0.50312600  0.74083600  0.75424300  1
  O  O12  1  0.99926200  0.25108900  0.24919300  1
  O  O13  1  0.50167200  0.25894300  0.24933600  1
  O  O14  1  0.99575400  0.74888100  0.24590700  1
  O  O15  1  0.50312600  0.74083600  0.24575700  1
  O  O16  1  0.25111900  0.00424600  0.75409300  1
  O  O17  1  0.74891100  0.00073800  0.75080700  1
  O  O18  1  0.25916400  0.49687400  0.75424300  1
  O  O19  1  0.74105700  0.49832800  0.75066400  1
  O  O20  1  0.25111900  0.00424600  0.24590700  1
  O  O21  1  0.74891100  0.00073800  0.24919300  1
  O  O22  1  0.25916400  0.49687400  0.24575700  1
  O  O23  1  0.74105700  0.49832800  0.24933600  1
loop_
_geom_bond_atom_site_label_1
_geom_bond_atom_site_label_2
_geom_bond_distance
_geom_bond_site_symmetry_2
Ba0 O3 2.792360 1_555
Ba0 O18 2.806908 1_555
Ba0 O11 2.806908 1_555
Ba0 O22 2.806908 1_555
Ba0 O15 2.806908 1_555
Ba0 O2 2.808049 1_455
Ba0 O1 2.808049 1_565
Ba0 O20 2.833609 1_565
Ba0 O16 2.833609 1_565
Ba0 O14 2.833609 1_455
Ba0 O10 2.833609 1_455
Ba0 O0 2.836382 1_465
Fe0 O17 1.956436 1_555
Fe0 O8 1.956436 1_555
Fe0 O4 1.962663 1_556
Fe0 O10 1.971809 1_545
Fe0 O16 1.971809 1_655
Fe0 O0 1.979169 1_555
Fe1 O17 1.939010 1_555
Fe1 O16 1.954855 1_555
Fe1 O5 1.963129 1_556
Fe1 O1 1.978720 1_555
Fe1 O9 2.014043 1_555
Fe1 O11 2.038611 1_545
Fe2 O8 1.939010 1_555
Fe2 O10 1.954855 1_555
Fe2 O6 1.963129 1_556
Fe2 O2 1.978720 1_555
Fe2 O19 2.014043 1_555
Fe2 O18 2.038611 1_655
Fe3 O21 1.956436 1_555
Fe3 O12 1.956436 1_555
Fe3 O4 1.962663 1_555
Fe3 O14 1.971809 1_545
Fe3 O20 1.971809 1_655
Fe3 O0 1.979169 1_555
Fe4 O21 1.939010 1_555
Fe4 O20 1.954855 1_555
Fe4 O5 1.963129 1_555
Fe4 O1 1.978720 1_555
Fe4 O13 2.014043 1_555
Fe4 O15 2.038611 1_545
Fe5 O12 1.939010 1_555
Fe5 O14 1.954855 1_555
Fe5 O6 1.963129 1_555
Fe5 O2 1.978720 1_555
Fe5 O23 2.014043 1_555
Fe5 O22 2.038611 1_655
Co0 O19 1.876937 1_555
Co0 O9 1.876937 1_555
Co0 O11 1.892358 1_555
Co0 O18 1.892358 1_555
Co0 O7 1.958763 1_556
Co0 O3 1.983052 1_555
Co1 O23 1.876937 1_555
Co1 O13 1.876937 1_555
Co1 O15 1.892358 1_555
Co1 O22 1.892358 1_555
Co1 O7 1.958763 1_555
Co1 O3 1.983052 1_555
O0 Sr1 2.745500 1_555
O0 Sr2 2.780959 1_545
O0 Sr0 2.780959 1_655
O1 Sr1 2.713107 1_555
O1 Sr0 2.767763 1_555
O1 Sr2 2.773459 1_545
O2 Sr1 2.713107 1_555
O2 Sr2 2.767763 1_555
O2 Sr0 2.773459 1_655
O3 Sr1 2.706286 1_555
O3 Sr0 2.740747 1_555
O3 Sr2 2.740747 1_555
O4 Sr6 2.782278 1_545
O4 Sr3 2.782278 1_655
O4 Sr4 2.784082 1_555
O4 Sr5 2.800293 1_645
O5 Sr4 2.751897 1_555
O5 Sr5 2.769277 1_545
O5 Sr6 2.769452 1_545
O5 Sr3 2.771010 1_555
O6 Sr4 2.751897 1_555
O6 Sr5 2.769277 1_655
O6 Sr3 2.769452 1_655
O6 Sr6 2.771010 1_555
O7 Sr4 2.738619 1_555
O7 Sr3 2.738747 1_555
O7 Sr6 2.738747 1_555
O7 Sr5 2.757533 1_555
O8 Sr4 2.779039 1_556
O8 Sr1 2.786354 1_555
O8 Sr3 2.786924 1_656
O8 Sr0 2.795487 1_655
O9 Sr4 2.752676 1_556
O9 Sr1 2.761879 1_555
O9 Sr3 2.771049 1_556
O9 Sr0 2.778933 1_555
O10 Sr6 2.740575 1_556
O10 Sr2 2.785360 1_555
O10 Sr5 2.787914 1_656
O11 Sr6 2.725073 1_556
O11 Sr5 2.760000 1_556
O11 Sr2 2.774268 1_555
O12 Sr4 2.779039 1_555
O12 Sr1 2.786354 1_555
O12 Sr3 2.786924 1_655
O12 Sr0 2.795487 1_655
O13 Sr4 2.752676 1_555
O13 Sr1 2.761879 1_555
O13 Sr3 2.771049 1_555
O13 Sr0 2.778933 1_555
O14 Sr6 2.740575 1_555
O14 Sr2 2.785360 1_555
O14 Sr5 2.787914 1_655
O15 Sr6 2.725073 1_555
O15 Sr5 2.760000 1_555
O15 Sr2 2.774268 1_555
O16 Sr3 2.740575 1_556
O16 Sr0 2.785360 1_555
O16 Sr5 2.787914 1_546
O17 Sr4 2.779039 1_556
O17 Sr1 2.786354 1_555
O17 Sr6 2.786924 1_546
O17 Sr2 2.795487 1_545
O18 Sr3 2.725073 1_556
O18 Sr5 2.760000 1_556
O18 Sr0 2.774268 1_555
O19 Sr4 2.752676 1_556
O19 Sr1 2.761879 1_555
O19 Sr6 2.771049 1_556
O19 Sr2 2.778933 1_555
O20 Sr3 2.740575 1_555
O20 Sr0 2.785360 1_555
O20 Sr5 2.787914 1_545
O21 Sr4 2.779039 1_555
O21 Sr1 2.786354 1_555
O21 Sr6 2.786924 1_545
O21 Sr2 2.795487 1_545
O22 Sr3 2.725073 1_555
O22 Sr5 2.760000 1_555
O22 Sr0 2.774268 1_555
O23 Sr4 2.752676 1_555
O23 Sr1 2.761879 1_555
O23 Sr6 2.771049 1_555
O23 Sr2 2.778933 1_555
