# generated using pymatgen
data_TaCr3(AgS4)2
_symmetry_space_group_name_H-M   'P 1'
_cell_length_a   6.00566100
_cell_length_b   6.93657622
_cell_length_c   13.28126944
_cell_angle_alpha   90.60660107
_cell_angle_beta   90.43365463
_cell_angle_gamma   90.19751234
_symmetry_Int_Tables_number   1
_chemical_formula_structural   TaCr3(AgS4)2
_chemical_formula_sum   'Ta2 Cr6 Ag4 S16'
_cell_volume   553.23045803
_cell_formula_units_Z   2
loop_
 _symmetry_equiv_pos_site_id
 _symmetry_equiv_pos_as_xyz
  1  'x, y, z'
loop_
 _atom_site_type_symbol
 _atom_site_label
 _atom_site_symmetry_multiplicity
 _atom_site_fract_x
 _atom_site_fract_y
 _atom_site_fract_z
 _atom_site_occupancy
  Ta  Ta0  1  0.98340700  0.00723900  0.25318500  1
  Ta  Ta1  1  0.49599400  0.26103900  0.75008200  1
  Cr  Cr0  1  0.99989000  0.00196600  0.75048200  1
  Cr  Cr1  1  0.00661300  0.49795200  0.25041000  1
  Cr  Cr2  1  0.99908200  0.49944800  0.74899800  1
  Cr  Cr3  1  0.50544100  0.24888800  0.24941300  1
  Cr  Cr4  1  0.49855300  0.74594500  0.74918500  1
  Cr  Cr5  1  0.50559500  0.74979500  0.24932600  1
  Ag  Ag0  1  0.34781100  0.98309400  0.99605900  1
  Ag  Ag1  1  0.63649500  0.51533000  0.50189100  1
  Ag  Ag2  1  0.03480800  0.98935500  0.50085400  1
  Ag  Ag3  1  0.96357800  0.50847200  0.00410500  1
  S  S0  1  0.83186300  0.25908200  0.35850600  1
  S  S1  1  0.83133900  0.74425100  0.64994600  1
  S  S2  1  0.17098000  0.74731300  0.14749500  1
  S  S3  1  0.16278200  0.25109400  0.85718900  1
  S  S4  1  0.17426600  0.24676700  0.14567800  1
  S  S5  1  0.16740900  0.75541400  0.84927800  1
  S  S6  1  0.83596200  0.74184700  0.35553800  1
  S  S7  1  0.83485800  0.25142100  0.64364100  1
  S  S8  1  0.66232200  0.99887900  0.14195700  1
  S  S9  1  0.66544400  0.99619400  0.84994300  1
  S  S10  1  0.34697800  0.50027000  0.34648800  1
  S  S11  1  0.32455400  0.50151400  0.64335000  1
  S  S12  1  0.33749600  0.00063100  0.35100200  1
  S  S13  1  0.33184000  0.99303200  0.64772600  1
  S  S14  1  0.67286200  0.49797800  0.15292800  1
  S  S15  1  0.67177900  0.50578900  0.85534400  1
loop_
_geom_bond_atom_site_label_1
_geom_bond_atom_site_label_2
_geom_bond_distance
_geom_bond_site_symmetry_2
Cr0 S5 2.387076 1_645
Cr0 S9 2.412807 1_545
Cr0 S3 2.422252 1_655
Cr0 S13 2.425063 1_645
Cr0 S1 2.433064 1_545
Cr0 S7 2.456121 1_555
Cr1 S14 2.377927 1_455
Cr1 S10 2.401416 1_555
Cr1 S6 2.417768 1_455
Cr1 S2 2.427612 1_555
Cr1 S4 2.442622 1_555
Cr1 S0 2.443187 1_455
Cr2 S1 2.380770 1_555
Cr2 S7 2.409796 1_555
Cr2 S11 2.414851 1_655
Cr2 S5 2.421866 1_655
Cr2 S15 2.429404 1_555
Cr2 S3 2.457998 1_655
Cr3 S10 2.364516 1_555
Cr3 S14 2.385977 1_555
Cr3 S4 2.410825 1_555
Cr3 S12 2.420956 1_555
Cr3 S0 2.429251 1_555
Cr3 S8 2.431284 1_545
Cr4 S9 2.393139 1_555
Cr4 S5 2.401181 1_555
Cr4 S1 2.402379 1_555
Cr4 S13 2.407510 1_555
Cr4 S11 2.420251 1_555
Cr4 S15 2.425853 1_555
Cr5 S10 2.371295 1_555
Cr5 S14 2.384030 1_555
Cr5 S2 2.413703 1_555
Cr5 S12 2.419323 1_565
Cr5 S6 2.426828 1_555
Cr5 S8 2.442529 1_555
Ag0 S8 2.696874 1_556
Ag0 S5 2.712827 1_555
Ag0 S9 2.733442 1_555
Ag0 S2 2.817428 1_556
Ag0 S3 2.854509 1_565
Ag0 S4 2.889241 1_566
Ag1 S11 2.665414 1_555
Ag1 S10 2.689587 1_555
Ag1 S1 2.764709 1_555
Ag1 S6 2.787291 1_555
Ag1 S0 2.852917 1_555
Ag1 S7 2.892871 1_555
Ag2 S13 2.633218 1_555
Ag2 S12 2.707165 1_565
Ag2 S6 2.824776 1_455
Ag2 S7 2.884333 1_465
Ag2 S1 2.897987 1_455
Ag2 S0 2.935312 1_465
Ag3 S15 2.630880 1_554
Ag3 S14 2.648547 1_555
Ag3 S2 2.793935 1_655
Ag3 S3 2.898661 1_654
Ag3 S4 2.912729 1_655
Ag3 S5 2.959603 1_654
S0 Ta0 2.411473 1_555
S2 Ta0 2.544507 1_465
S3 Ta1 2.465191 1_555
S4 Ta0 2.484959 1_455
S6 Ta0 2.465959 1_565
S7 Ta1 2.487378 1_555
S8 Ta0 2.420407 1_565
S9 Ta1 2.492730 1_565
S11 Ta1 2.427301 1_555
S12 Ta0 2.484377 1_455
S13 Ta1 2.487883 1_565
S15 Ta1 2.422040 1_555
