# generated using pymatgen
data_ZrMoWO8
_symmetry_space_group_name_H-M   'P 1'
_cell_length_a   8.39608872
_cell_length_b   8.39608872
_cell_length_c   8.39608930
_cell_angle_alpha   72.74070270
_cell_angle_beta   72.74070270
_cell_angle_gamma   72.74070384
_symmetry_Int_Tables_number   1
_chemical_formula_structural   ZrMoWO8
_chemical_formula_sum   'Zr3 Mo3 W3 O24'
_cell_volume   525.45473044
_cell_formula_units_Z   3
loop_
 _symmetry_equiv_pos_site_id
 _symmetry_equiv_pos_as_xyz
  1  'x, y, z'
loop_
 _atom_site_type_symbol
 _atom_site_label
 _atom_site_symmetry_multiplicity
 _atom_site_fract_x
 _atom_site_fract_y
 _atom_site_fract_z
 _atom_site_occupancy
  Zr  Zr0  1  0.00305700  0.00305700  0.00305700  1
  Zr  Zr1  1  0.29505100  0.29505100  0.29505100  1
  Zr  Zr2  1  0.70355100  0.70355100  0.70355100  1
  Mo  Mo0  1  0.26033200  0.57317100  0.86181400  1
  Mo  Mo1  1  0.57317100  0.86181400  0.26033200  1
  Mo  Mo2  1  0.86181400  0.26033200  0.57317100  1
  W  W0  1  0.73481000  0.43362300  0.13847700  1
  W  W1  1  0.43362300  0.13847700  0.73481000  1
  W  W2  1  0.13847700  0.73481000  0.43362300  1
  O  O0  1  0.81366400  0.44818900  0.30850500  1
  O  O1  1  0.44818900  0.30850500  0.81366400  1
  O  O2  1  0.30850500  0.81366400  0.44818900  1
  O  O3  1  0.18721400  0.55629900  0.68908000  1
  O  O4  1  0.55629900  0.68908000  0.18721400  1
  O  O5  1  0.68908000  0.18721400  0.55629900  1
  O  O6  1  0.53012800  0.37119100  0.19821900  1
  O  O7  1  0.37119100  0.19821900  0.53012800  1
  O  O8  1  0.19821900  0.53012800  0.37119100  1
  O  O9  1  0.46480500  0.62899200  0.80409400  1
  O  O10  1  0.62899200  0.80409400  0.46480500  1
  O  O11  1  0.80409400  0.46480500  0.62899200  1
  O  O12  1  0.78716100  0.58087800  0.92689700  1
  O  O13  1  0.58087800  0.92689700  0.78716100  1
  O  O14  1  0.92689700  0.78716100  0.58087800  1
  O  O15  1  0.21324000  0.42160400  0.06791900  1
  O  O16  1  0.42160400  0.06791900  0.21324000  1
  O  O17  1  0.06791900  0.21324000  0.42160400  1
  O  O18  1  0.87879000  0.23290700  0.08305000  1
  O  O19  1  0.23290700  0.08305000  0.87879000  1
  O  O20  1  0.08305000  0.87879000  0.23290700  1
  O  O21  1  0.11820600  0.76911000  0.91597100  1
  O  O22  1  0.76911000  0.91597100  0.11820600  1
  O  O23  1  0.91597100  0.11820600  0.76911000  1
loop_
_geom_bond_atom_site_label_1
_geom_bond_atom_site_label_2
_geom_bond_distance
_geom_bond_site_symmetry_2
Mo0 O3 1.789448 1_555
Mo0 O9 1.803000 1_555
Mo0 O21 1.814981 1_555
Mo0 O15 1.831976 1_556
Mo0 O1 2.379935 1_555
Mo1 O4 1.789448 1_555
Mo1 O10 1.803000 1_555
Mo1 O22 1.814981 1_555
Mo1 O16 1.831976 1_565
Mo1 O2 2.379935 1_555
Mo2 O5 1.789448 1_555
Mo2 O11 1.803000 1_555
Mo2 O23 1.814981 1_555
Mo2 O17 1.831976 1_655
Mo2 O0 2.379935 1_555
O0 W0 1.789897 1_555
O1 W1 1.789897 1_555
O2 W2 1.789897 1_555
O3 W2 2.294226 1_555
O4 W0 2.294226 1_555
O5 W1 2.294226 1_555
O6 W0 1.829405 1_555
O6 Zr1 2.110303 1_555
O7 W1 1.829405 1_555
O7 Zr1 2.110303 1_555
O8 W2 1.829405 1_555
O8 Zr1 2.110303 1_555
O9 Zr2 2.132972 1_555
O10 Zr2 2.132972 1_555
O11 Zr2 2.132972 1_555
O12 W0 1.852944 1_556
O12 Zr2 2.067883 1_555
O13 W1 1.852944 1_565
O13 Zr2 2.067883 1_555
O14 W2 1.852944 1_655
O14 Zr2 2.067883 1_555
O15 Zr1 2.092694 1_555
O16 Zr1 2.092694 1_555
O17 Zr1 2.092694 1_555
O18 W0 1.854886 1_555
O18 Zr0 2.102964 1_655
O19 W1 1.854886 1_555
O19 Zr0 2.102964 1_556
O20 W2 1.854887 1_555
O20 Zr0 2.102964 1_565
O21 Zr0 2.152549 1_566
O22 Zr0 2.152549 1_665
O23 Zr0 2.152549 1_656
