# generated using pymatgen
data_Ba5SrNd2Fe4O15
_symmetry_space_group_name_H-M   'P 1'
_cell_length_a   11.76836314
_cell_length_b   11.76836314
_cell_length_c   7.03338788
_cell_angle_alpha   89.83944467
_cell_angle_beta   89.83944467
_cell_angle_gamma   119.73297380
_symmetry_Int_Tables_number   1
_chemical_formula_structural   Ba5SrNd2Fe4O15
_chemical_formula_sum   'Ba10 Sr2 Nd4 Fe8 O30'
_cell_volume   845.82954258
_cell_formula_units_Z   2
loop_
 _symmetry_equiv_pos_site_id
 _symmetry_equiv_pos_as_xyz
  1  'x, y, z'
loop_
 _atom_site_type_symbol
 _atom_site_label
 _atom_site_symmetry_multiplicity
 _atom_site_fract_x
 _atom_site_fract_y
 _atom_site_fract_z
 _atom_site_occupancy
  Ba  Ba0  1  -0.00028914  0.00229533  0.49240374  1
  Ba  Ba1  1  0.00229533  -0.00028914  0.99240374  1
  Ba  Ba2  1  0.33319393  0.66874584  0.01522960  1
  Ba  Ba3  1  0.66874584  0.33319393  0.51522960  1
  Ba  Ba4  1  0.82975015  0.65465745  0.83082852  1
  Ba  Ba5  1  0.34722939  0.17220963  0.83903799  1
  Ba  Ba6  1  0.82668983  0.17354388  0.83793694  1
  Ba  Ba7  1  0.17220963  0.34722939  0.33903799  1
  Ba  Ba8  1  0.65465745  0.82975015  0.33082852  1
  Ba  Ba9  1  0.17354388  0.82668983  0.33793694  1
  Sr  Sr0  1  0.52231603  0.04675446  0.16916134  1
  Sr  Sr1  1  0.04675446  0.52231603  0.66916134  1
  Nd  Nd0  1  0.95453476  0.47771291  0.17010402  1
  Nd  Nd1  1  0.52271128  0.47712542  0.16744384  1
  Nd  Nd2  1  0.47771291  0.95453476  0.67010402  1
  Nd  Nd3  1  0.47712542  0.52271128  0.66744384  1
  Fe  Fe0  1  0.66578476  0.33239871  0.97041442  1
  Fe  Fe1  1  0.33239871  0.66578476  0.47041442  1
  Fe  Fe2  1  0.17708798  0.81855069  0.83769184  1
  Fe  Fe3  1  0.18006099  0.35910000  0.84357396  1
  Fe  Fe4  1  0.64288062  0.81888714  0.83460042  1
  Fe  Fe5  1  0.81855069  0.17708798  0.33769184  1
  Fe  Fe6  1  0.81888714  0.64288062  0.33460042  1
  Fe  Fe7  1  0.35910000  0.18006099  0.34357396  1
  O  O0  1  0.93653591  0.32916255  0.46276102  1
  O  O1  1  0.66421740  0.59946719  0.47037629  1
  O  O2  1  0.39475999  0.06801283  0.48849994  1
  O  O3  1  0.93191625  0.60059372  0.45892132  1
  O  O4  1  0.67283292  0.06605145  0.48828433  1
  O  O5  1  0.39680504  0.33387859  0.47495901  1
  O  O6  1  0.06605145  0.67283292  0.98828433  1
  O  O7  1  0.33387859  0.39680504  0.97495901  1
  O  O8  1  0.60059372  0.93191625  0.95892132  1
  O  O9  1  0.06801283  0.39475999  0.98849994  1
  O  O10  1  0.32916255  0.93653591  0.96276102  1
  O  O11  1  0.59946719  0.66421740  0.97037629  1
  O  O12  1  0.41775707  0.58161137  0.33435632  1
  O  O13  1  0.41677457  0.83190514  0.34149793  1
  O  O14  1  0.17051356  0.58457857  0.32872445  1
  O  O15  1  0.58161137  0.41775707  0.83435632  1
  O  O16  1  0.58457857  0.17051356  0.82872445  1
  O  O17  1  0.83190514  0.41677457  0.84149793  1
  O  O18  1  0.75350787  0.25598279  0.16455494  1
  O  O19  1  0.74834562  0.50386962  0.15669918  1
  O  O20  1  0.49897615  0.25690558  0.16490563  1
  O  O21  1  0.25598279  0.75350787  0.66455494  1
  O  O22  1  0.25690558  0.49897615  0.66490563  1
  O  O23  1  0.50386962  0.74834562  0.65669918  1
  O  O24  1  0.09787953  0.19700476  0.73078213  1
  O  O25  1  0.80741158  0.89662899  0.72945447  1
  O  O26  1  0.08928617  0.89273517  0.72128041  1
  O  O27  1  0.89662899  0.80741158  0.22945447  1
  O  O28  1  0.19700476  0.09787953  0.23078213  1
  O  O29  1  0.89273517  0.08928617  0.22128041  1
loop_
_geom_bond_atom_site_label_1
_geom_bond_atom_site_label_2
_geom_bond_distance
_geom_bond_site_symmetry_2
Ba0 O25 2.573587 1_445
Ba0 O26 2.590578 1_545
Ba0 O24 2.608220 1_555
Ba0 O28 2.723223 1_555
Ba0 O27 2.725544 1_445
Ba0 O29 2.747760 1_455
Ba1 O27 2.573587 1_446
Ba1 O29 2.590578 1_456
Ba1 O28 2.608220 1_556
Ba1 O24 2.723223 1_555
Ba1 O25 2.725544 1_445
Ba1 O26 2.747760 1_545
Ba2 O14 2.755211 1_555
Ba2 O13 2.843287 1_555
Ba2 O12 2.844589 1_555
Ba2 O21 2.966780 1_554
Ba2 O22 3.021519 1_554
Ba2 O23 3.059870 1_554
Ba2 O8 3.157583 1_554
Ba2 O6 3.174141 1_554
Ba2 O11 3.175219 1_554
Ba2 O9 3.193201 1_554
Ba2 O10 3.195616 1_554
Ba2 O7 3.217583 1_554
Ba3 O16 2.755211 1_555
Ba3 O17 2.843287 1_555
Ba3 O15 2.844589 1_555
Ba3 O18 2.966780 1_555
Ba3 O20 3.021519 1_555
Ba3 O19 3.059870 1_555
Ba3 O3 3.157583 1_555
Ba3 O4 3.174141 1_555
Ba3 O1 3.175219 1_555
Ba3 O2 3.193201 1_555
Ba3 O0 3.195616 1_555
Ba3 O5 3.217583 1_555
Ba4 O19 2.756538 1_556
Ba4 O17 2.812950 1_555
Ba4 O15 2.867821 1_555
Ba4 O6 2.904145 1_655
Ba4 O11 2.934028 1_555
Ba4 O26 3.042835 1_655
Ba4 O25 3.068971 1_555
Ba4 O1 3.070157 1_555
Ba4 O3 3.072967 1_555
Ba4 O27 3.216975 1_556
Ba5 O20 2.775933 1_556
Ba5 O16 2.803902 1_555
Ba5 O10 2.809843 1_545
Ba5 O15 2.837666 1_555
Ba5 O7 2.889623 1_555
Ba5 O2 2.929953 1_555
Ba5 O5 3.062793 1_555
Ba5 O28 3.147617 1_556
Ba5 O24 3.183778 1_555
Ba5 O26 3.293037 1_545
Ba6 O18 2.791131 1_556
Ba6 O16 2.832662 1_555
Ba6 O17 2.832672 1_555
Ba6 O8 2.891106 1_545
Ba6 O9 2.943285 1_655
Ba6 O4 2.949064 1_555
Ba6 O0 3.097350 1_555
Ba6 O29 3.101302 1_556
Ba6 O24 3.152930 1_655
Ba6 O25 3.245795 1_545
Ba7 O22 2.775933 1_555
Ba7 O14 2.803902 1_555
Ba7 O0 2.809843 1_455
Ba7 O12 2.837666 1_555
Ba7 O5 2.889623 1_555
Ba7 O9 2.929953 1_554
Ba7 O7 3.062793 1_554
Ba7 O24 3.147617 1_555
Ba7 O28 3.183778 1_555
Ba7 O29 3.293037 1_455
Ba8 O23 2.756538 1_555
Ba8 O13 2.812950 1_555
Ba8 O12 2.867821 1_555
Ba8 O4 2.904145 1_565
Ba8 O1 2.934028 1_555
Ba8 O29 3.042835 1_565
Ba8 O27 3.068971 1_555
Ba8 O11 3.070157 1_554
Ba8 O8 3.072967 1_554
Ba8 O25 3.216975 1_555
Ba9 O21 2.791131 1_555
Ba9 O14 2.832662 1_555
Ba9 O13 2.832672 1_555
Ba9 O3 2.891106 1_455
Ba9 O2 2.943285 1_565
Ba9 O6 2.949064 1_554
Ba9 O10 3.097350 1_554
Ba9 O26 3.101302 1_555
Ba9 O28 3.152930 1_565
Ba9 O27 3.245795 1_455
Nd0 O6 2.369678 1_654
Nd0 O9 2.378759 1_654
Nd0 O14 2.477834 1_655
Nd0 O18 2.507006 1_555
Nd0 O3 2.585298 1_555
Nd0 O19 2.594918 1_555
Nd0 O17 2.634405 1_554
Nd0 O0 2.635910 1_555
Nd1 O11 2.363889 1_554
Nd1 O7 2.367522 1_554
Nd1 O12 2.433555 1_555
Nd1 O20 2.465179 1_555
Nd1 O19 2.515035 1_555
Nd1 O15 2.633904 1_554
Nd1 O1 2.654164 1_555
Nd1 O5 2.683151 1_555
Nd2 O4 2.369678 1_565
Nd2 O2 2.378759 1_565
Nd2 O16 2.477834 1_565
Nd2 O21 2.507006 1_555
Nd2 O8 2.585298 1_555
Nd2 O23 2.594918 1_555
Nd2 O13 2.634405 1_555
Nd2 O10 2.635910 1_555
Nd3 O1 2.363889 1_555
Nd3 O5 2.367522 1_555
Nd3 O15 2.433555 1_555
Nd3 O22 2.465179 1_555
Nd3 O23 2.515035 1_555
Nd3 O12 2.633904 1_555
Nd3 O11 2.654164 1_555
Nd3 O7 2.683151 1_555
Fe0 O17 1.920809 1_555
Fe0 O16 1.935448 1_555
Fe0 O15 1.973077 1_555
Fe0 O18 2.158908 1_556
Fe0 O20 2.182283 1_556
Fe0 O19 2.193146 1_556
Fe1 O13 1.920809 1_555
Fe1 O14 1.935448 1_555
Fe1 O12 1.973077 1_555
Fe1 O21 2.158908 1_555
Fe1 O22 2.182283 1_555
Fe1 O23 2.193146 1_555
Fe2 O26 1.842761 1_555
Fe2 O10 1.858882 1_555
Fe2 O6 1.878682 1_555
Fe2 O21 1.906482 1_555
Fe3 O24 1.840218 1_555
Fe3 O9 1.870204 1_555
Fe3 O7 1.882158 1_555
Fe3 O22 1.900552 1_555
Fe4 O25 1.834140 1_555
Fe4 O8 1.855331 1_555
Fe4 O11 1.884471 1_555
Fe4 O23 1.897695 1_555
Fe5 O29 1.842761 1_555
Fe5 O0 1.858882 1_555
Fe5 O4 1.878682 1_555
Fe5 O18 1.906482 1_555
Fe6 O27 1.834140 1_555
Fe6 O3 1.855331 1_555
Fe6 O1 1.884471 1_555
Fe6 O19 1.897695 1_555
Fe7 O28 1.840218 1_555
Fe7 O2 1.870204 1_555
Fe7 O5 1.882158 1_555
Fe7 O20 1.900552 1_555
O0 Sr1 2.461972 1_655
O2 Sr0 2.778019 1_555
O3 Sr1 2.469831 1_655
O4 Sr0 2.802354 1_555
O6 Sr1 2.802354 1_555
O8 Sr0 2.469831 1_566
O9 Sr1 2.778019 1_555
O10 Sr0 2.461972 1_566
O13 Sr0 2.502833 1_565
O14 Sr1 2.702491 1_555
O16 Sr0 2.702491 1_556
O17 Sr1 2.502833 1_655
O18 Sr0 2.611571 1_555
O20 Sr0 2.620339 1_555
O21 Sr1 2.611571 1_555
O22 Sr1 2.620339 1_555
