# generated using pymatgen
data_SrMg6Mo
_symmetry_space_group_name_H-M   'P 1'
_cell_length_a   5.15511600
_cell_length_b   6.57394300
_cell_length_c   11.34962800
_cell_angle_alpha   90.00000000
_cell_angle_beta   90.00000000
_cell_angle_gamma   90.00000000
_symmetry_Int_Tables_number   1
_chemical_formula_structural   SrMg6Mo
_chemical_formula_sum   'Sr2 Mg12 Mo2'
_cell_volume   384.63252285
_cell_formula_units_Z   2
loop_
 _symmetry_equiv_pos_site_id
 _symmetry_equiv_pos_as_xyz
  1  'x, y, z'
loop_
 _atom_site_type_symbol
 _atom_site_label
 _atom_site_symmetry_multiplicity
 _atom_site_fract_x
 _atom_site_fract_y
 _atom_site_fract_z
 _atom_site_occupancy
  Sr  Sr0  1  0.00000000  0.50000000  0.67114400  1
  Sr  Sr1  1  0.00000000  0.00000000  0.17114400  1
  Mg  Mg0  1  0.00000000  0.26793400  0.91480800  1
  Mg  Mg1  1  0.00000000  0.73206600  0.91480800  1
  Mg  Mg2  1  0.00000000  0.50000000  0.16480000  1
  Mg  Mg3  1  0.50000000  0.26574400  0.07619900  1
  Mg  Mg4  1  0.50000000  0.73425600  0.07619900  1
  Mg  Mg5  1  0.50000000  0.50000000  0.33490900  1
  Mg  Mg6  1  0.00000000  0.76793400  0.41480800  1
  Mg  Mg7  1  0.00000000  0.23206600  0.41480800  1
  Mg  Mg8  1  0.00000000  0.00000000  0.66480000  1
  Mg  Mg9  1  0.50000000  0.76574400  0.57619900  1
  Mg  Mg10  1  0.50000000  0.23425600  0.57619900  1
  Mg  Mg11  1  0.50000000  0.00000000  0.83490900  1
  Mo  Mo0  1  0.50000000  0.50000000  0.84713300  1
  Mo  Mo1  1  0.50000000  0.00000000  0.34713300  1
loop_
_geom_bond_atom_site_label_1
_geom_bond_atom_site_label_2
_geom_bond_distance
_geom_bond_site_symmetry_2
Mg0 Mg1 3.051177 1_555
Mg0 Mo0 3.092116 1_555
Mg0 Mo0 3.092116 1_455
Mg0 Sr0 3.158384 1_555
Mg0 Mg3 3.162157 1_556
Mg0 Mg3 3.162157 1_456
Mg0 Mg2 3.221457 1_556
Mg0 Mg11 3.250939 1_455
Mg0 Mg11 3.250939 1_555
Mg0 Mg8 3.339740 1_555
Mg0 Sr1 3.400971 1_556
Mg0 Mg1 3.522766 1_545
Mg1 Mo0 3.092116 1_555
Mg1 Mo0 3.092116 1_455
Mg1 Sr0 3.158384 1_555
Mg1 Mg4 3.162157 1_556
Mg1 Mg4 3.162157 1_456
Mg1 Mg2 3.221457 1_556
Mg1 Mg11 3.250939 1_465
Mg1 Mg11 3.250939 1_565
Mg1 Mg8 3.339740 1_565
Mg1 Sr1 3.400971 1_566
Mg2 Mg3 3.166476 1_455
Mg2 Mg4 3.166476 1_455
Mg2 Mg3 3.166476 1_555
Mg2 Mg4 3.166476 1_555
Mg2 Mg5 3.220451 1_455
Mg2 Mg5 3.220451 1_555
Mg2 Sr1 3.287760 1_555
Mg2 Sr1 3.287760 1_565
Mg2 Mg6 3.339740 1_555
Mg2 Mg7 3.339740 1_555
Mg3 Mo0 3.021686 1_554
Mg3 Sr1 3.294991 1_555
Mg3 Sr1 3.294991 1_655
Mg3 Mg5 3.315598 1_555
Mg3 Mo1 3.536606 1_555
Mg4 Mo0 3.021686 1_554
Mg4 Sr1 3.294991 1_565
Mg4 Sr1 3.294991 1_665
Mg4 Mg5 3.315598 1_555
Mg4 Mo1 3.536606 1_565
Mg5 Mg9 3.248327 1_555
Mg5 Mg7 3.250939 1_655
Mg5 Mg6 3.250939 1_555
Mg5 Mg7 3.250939 1_555
Mg5 Mg6 3.250939 1_655
Mg5 Mo1 3.289898 1_565
Mg5 Mo1 3.289898 1_555
Mg6 Mg7 3.051177 1_565
Mg6 Mo1 3.092116 1_565
Mg6 Mo1 3.092116 1_465
Mg6 Sr1 3.158384 1_565
Mg6 Mg9 3.162157 1_555
Mg6 Mg9 3.162157 1_455
Mg6 Mg8 3.221457 1_565
Mg6 Sr0 3.400971 1_555
Mg6 Mg7 3.522766 1_555
Mg7 Mo1 3.092116 1_455
Mg7 Mo1 3.092116 1_555
Mg7 Sr1 3.158384 1_555
Mg7 Mg8 3.221457 1_555
Mg7 Sr0 3.400971 1_555
Mg8 Mg9 3.166476 1_445
Mg8 Mg9 3.166476 1_545
Mg8 Sr0 3.287760 1_555
Mg8 Sr0 3.287760 1_545
Mg9 Mo1 3.021686 1_565
Mg9 Sr0 3.294991 1_655
Mg9 Sr0 3.294991 1_555
Mg9 Mo0 3.536606 1_555
Mg10 Mo1 3.021686 1_555
Mg10 Mg7 3.162157 1_655
Mg10 Mg7 3.162157 1_555
Mg10 Mg8 3.166476 1_555
Mg10 Mg8 3.166476 1_655
Mg10 Mg5 3.248327 1_555
Mg10 Sr0 3.294991 1_655
Mg10 Sr0 3.294991 1_555
Mg10 Mg11 3.315598 1_555
Mg10 Mo0 3.536606 1_555
Mg11 Mg8 3.220451 1_555
Mg11 Mg8 3.220451 1_655
Mg11 Mg3 3.248327 1_556
Mg11 Mg4 3.248327 1_546
Mg11 Mo0 3.289898 1_555
Mg11 Mo0 3.289898 1_545
Mg11 Mg9 3.315598 1_545
Mo0 Sr0 3.260897 1_555
Mo0 Sr0 3.260897 1_655
Mo1 Sr1 3.260897 1_655
Mo1 Sr1 3.260897 1_555
