# generated using pymatgen
data_CaNb2Te4Cl10O
_symmetry_space_group_name_H-M   'P 1'
_cell_length_a   7.14181632
_cell_length_b   9.10303777
_cell_length_c   9.51248983
_cell_angle_alpha   81.31898988
_cell_angle_beta   89.37860535
_cell_angle_gamma   76.97236661
_symmetry_Int_Tables_number   1
_chemical_formula_structural   CaNb2Te4Cl10O
_chemical_formula_sum   'Ca1 Nb2 Te4 Cl10 O1'
_cell_volume   595.43578573
_cell_formula_units_Z   1
loop_
 _symmetry_equiv_pos_site_id
 _symmetry_equiv_pos_as_xyz
  1  'x, y, z'
loop_
 _atom_site_type_symbol
 _atom_site_label
 _atom_site_symmetry_multiplicity
 _atom_site_fract_x
 _atom_site_fract_y
 _atom_site_fract_z
 _atom_site_occupancy
  Ca  Ca0  1  0.64863900  0.35129500  0.98536200  1
  Nb  Nb0  1  0.50596300  0.65525600  0.63398500  1
  Nb  Nb1  1  0.47813800  0.36675300  0.38504600  1
  Te  Te0  1  0.18929400  0.90094800  0.15712700  1
  Te  Te1  1  0.11593600  0.16992800  0.96525500  1
  Te  Te2  1  0.89663800  0.80882000  0.02912500  1
  Te  Te3  1  0.84974300  0.05925200  0.81611400  1
  Cl  Cl0  1  0.46029800  0.19545300  0.18028700  1
  Cl  Cl1  1  0.34267400  0.49811800  0.82063000  1
  Cl  Cl2  1  0.79096100  0.21390200  0.42531300  1
  Cl  Cl3  1  0.17760400  0.51779000  0.28470300  1
  Cl  Cl4  1  0.62916000  0.52571200  0.18884800  1
  Cl  Cl5  1  0.33639200  0.20075200  0.53613000  1
  Cl  Cl6  1  0.81077600  0.47323100  0.74325000  1
  Cl  Cl7  1  0.68194200  0.78345700  0.47277200  1
  Cl  Cl8  1  0.20433400  0.79641600  0.55911000  1
  Cl  Cl9  1  0.53939700  0.81107900  0.81342500  1
  O  O0  1  0.49951900  0.50040900  0.51066000  1
loop_
_geom_bond_atom_site_label_1
_geom_bond_atom_site_label_2
_geom_bond_distance
_geom_bond_site_symmetry_2
Ca0 Cl4 2.666327 1_556
Ca0 Cl1 2.672465 1_555
Ca0 Cl0 2.696684 1_556
Ca0 Cl6 2.761717 1_555
Ca0 Te3 3.353021 1_555
Ca0 Te1 3.390815 1_655
Nb0 O0 1.973536 1_555
Nb1 O0 1.859565 1_555
Te0 Te1 2.773885 1_564
Te0 Te2 2.776351 1_455
Te1 Te3 2.827616 1_455
Te2 Te3 2.773268 1_564
Cl0 Nb1 2.693215 1_555
Cl1 Nb0 2.549291 1_555
Cl2 Nb1 2.351648 1_555
Cl3 Nb1 2.392932 1_555
Cl4 Nb1 2.566144 1_555
Cl5 Nb1 2.318685 1_555
Cl6 Nb0 2.543193 1_555
Cl7 Nb0 2.317855 1_555
Cl8 Nb0 2.303910 1_555
Cl9 Nb0 2.423851 1_555
