# generated using pymatgen
data_RbMnTe2
_symmetry_space_group_name_H-M   'P 1'
_cell_length_a   8.01144970
_cell_length_b   8.01144970
_cell_length_c   8.01144970
_cell_angle_alpha   148.17027626
_cell_angle_beta   148.17027626
_cell_angle_gamma   45.63406642
_symmetry_Int_Tables_number   1
_chemical_formula_structural   RbMnTe2
_chemical_formula_sum   'Rb1 Mn1 Te2'
_cell_volume   142.55020968
_cell_formula_units_Z   1
loop_
 _symmetry_equiv_pos_site_id
 _symmetry_equiv_pos_as_xyz
  1  'x, y, z'
loop_
 _atom_site_type_symbol
 _atom_site_label
 _atom_site_symmetry_multiplicity
 _atom_site_fract_x
 _atom_site_fract_y
 _atom_site_fract_z
 _atom_site_occupancy
  Rb  Rb0  1  0.00000000  0.00000000  0.00000000  1
  Mn  Mn0  1  0.75000000  0.25000000  0.50000000  1
  Te  Te0  1  0.34999500  0.34999500  0.00000000  1
  Te  Te1  1  0.65000500  0.65000500  0.00000000  1
loop_
_geom_bond_atom_site_label_1
_geom_bond_atom_site_label_2
_geom_bond_distance
_geom_bond_site_symmetry_2
Rb0 Te0 3.815769 1_545
Rb0 Te0 3.815769 1_444
Rb0 Te0 3.815769 1_455
Rb0 Te0 3.815769 1_556
Rb0 Te1 3.815769 1_444
Rb0 Te1 3.815769 1_556
Rb0 Te1 3.815769 1_545
Rb0 Te1 3.815769 1_455
Mn0 Te1 2.647075 1_545
Mn0 Te1 2.647075 1_556
Mn0 Te0 2.647075 1_555
Mn0 Te0 2.647075 1_656
