# generated using pymatgen
data_La2MgSe4
_symmetry_space_group_name_H-M   'P 1'
_cell_length_a   7.80285988
_cell_length_b   7.80285988
_cell_length_c   7.80285988
_cell_angle_alpha   111.12571655
_cell_angle_beta   111.12571655
_cell_angle_gamma   106.21061225
_symmetry_Int_Tables_number   1
_chemical_formula_structural   La2MgSe4
_chemical_formula_sum   'La4 Mg2 Se8'
_cell_volume   364.83044990
_cell_formula_units_Z   2
loop_
 _symmetry_equiv_pos_site_id
 _symmetry_equiv_pos_as_xyz
  1  'x, y, z'
loop_
 _atom_site_type_symbol
 _atom_site_label
 _atom_site_symmetry_multiplicity
 _atom_site_fract_x
 _atom_site_fract_y
 _atom_site_fract_z
 _atom_site_occupancy
  La  La0  1  0.87500000  0.75767500  0.38267500  1
  La  La1  1  0.50767500  0.12500000  0.88267500  1
  La  La2  1  0.37500000  0.49232500  0.61732500  1
  La  La3  1  0.24232500  0.62500000  0.11732500  1
  Mg  Mg0  1  0.00000000  0.00000000  0.00000000  1
  Mg  Mg1  1  0.75000000  0.25000000  0.50000000  1
  Se  Se0  1  0.50633500  0.37532500  0.26767600  1
  Se  Se1  1  0.76134100  0.49366500  0.86899000  1
  Se  Se2  1  0.10764900  0.23865900  0.73232400  1
  Se  Se3  1  0.62467500  0.89235100  0.13101000  1
  Se  Se4  1  0.24366500  0.01134100  0.36899000  1
  Se  Se5  1  0.98865900  0.35764900  0.23232400  1
  Se  Se6  1  0.64235100  0.87467500  0.63101000  1
  Se  Se7  1  0.12532500  0.75633500  0.76767600  1
loop_
_geom_bond_atom_site_label_1
_geom_bond_atom_site_label_2
_geom_bond_distance
_geom_bond_site_symmetry_2
La0 Se7 2.940125 1_655
La0 Se3 2.940125 1_555
La0 Se4 3.065761 1_665
La0 Se0 3.065761 1_555
La0 Se2 3.173230 1_665
La0 Se6 3.173230 1_555
La0 Se1 3.400243 1_554
La0 Se5 3.400243 1_555
La1 Se0 2.940125 1_556
La1 Se6 2.940125 1_545
La1 Se1 3.065761 1_555
La1 Se7 3.065761 1_545
La1 Se5 3.173230 1_556
La1 Se3 3.173230 1_546
La1 Se2 3.400243 1_555
La1 Se4 3.400243 1_555
La2 Se1 2.940125 1_555
La2 Se5 2.940125 1_455
La2 Se2 3.065761 1_555
La2 Se6 3.065761 1_555
La2 Se4 3.173230 1_555
La2 Se0 3.173230 1_555
La2 Se7 3.400243 1_555
La2 Se3 3.400243 1_556
La3 Se4 2.940125 1_565
La3 Se2 2.940125 1_554
La3 Se5 3.065761 1_455
La3 Se3 3.065761 1_555
La3 Se1 3.173230 1_454
La3 Se7 3.173230 1_554
La3 Se6 3.400243 1_555
La3 Se0 3.400243 1_555
Mg0 Se6 2.772878 1_444
Mg0 Se5 2.772878 1_455
Mg0 Se4 2.772878 1_555
Mg0 Se7 2.772878 1_544
Mg1 Se0 2.772878 1_555
Mg1 Se3 2.772878 1_545
Mg1 Se1 2.772878 1_555
Mg1 Se2 2.772878 1_655
