# generated using pymatgen
data_Al2B3HO8
_symmetry_space_group_name_H-M   'P 1'
_cell_length_a   7.47040453
_cell_length_b   8.81244170
_cell_length_c   10.52514248
_cell_angle_alpha   90.00000000
_cell_angle_beta   90.00000000
_cell_angle_gamma   90.00000000
_symmetry_Int_Tables_number   1
_chemical_formula_structural   Al2B3HO8
_chemical_formula_sum   'Al8 B12 H4 O32'
_cell_volume   692.89648858
_cell_formula_units_Z   4
loop_
 _symmetry_equiv_pos_site_id
 _symmetry_equiv_pos_as_xyz
  1  'x, y, z'
loop_
 _atom_site_type_symbol
 _atom_site_label
 _atom_site_symmetry_multiplicity
 _atom_site_fract_x
 _atom_site_fract_y
 _atom_site_fract_z
 _atom_site_occupancy
  Al  Al0  1  0.55764673  0.43315934  0.88472590  1
  Al  Al1  1  0.05764673  0.06684066  0.61527410  1
  Al  Al2  1  0.44235327  0.56684066  0.38472590  1
  Al  Al3  1  0.94235327  0.93315934  0.11527410  1
  Al  Al4  1  0.44235327  0.56684066  0.11527410  1
  Al  Al5  1  0.94235327  0.93315934  0.38472590  1
  Al  Al6  1  0.55764673  0.43315934  0.61527410  1
  Al  Al7  1  0.05764673  0.06684066  0.88472590  1
  B  B0  1  0.77134934  0.66248485  0.75000000  1
  B  B1  1  0.27134934  0.83751515  0.75000000  1
  B  B2  1  0.22865066  0.33751515  0.25000000  1
  B  B3  1  0.72865066  0.16248485  0.25000000  1
  B  B4  1  0.74884877  0.70121219  0.98177465  1
  B  B5  1  0.24884877  0.79878781  0.51822535  1
  B  B6  1  0.25115123  0.29878781  0.48177465  1
  B  B7  1  0.75115123  0.20121219  0.01822535  1
  B  B8  1  0.25115123  0.29878781  0.01822535  1
  B  B9  1  0.75115123  0.20121219  0.48177465  1
  B  B10  1  0.74884877  0.70121219  0.51822535  1
  B  B11  1  0.24884877  0.79878781  0.98177465  1
  H  H0  1  0.31950555  0.31370143  0.75000000  1
  H  H1  1  0.81950555  0.18629857  0.75000000  1
  H  H2  1  0.68049445  0.68629857  0.25000000  1
  H  H3  1  0.18049445  0.81370143  0.25000000  1
  O  O0  1  0.42058809  0.38249984  0.75000000  1
  O  O1  1  0.92058809  0.11750016  0.75000000  1
  O  O2  1  0.57941191  0.61750016  0.25000000  1
  O  O3  1  0.07941191  0.88249984  0.25000000  1
  O  O4  1  0.67660887  0.52991421  0.75000000  1
  O  O5  1  0.17660887  0.97008579  0.75000000  1
  O  O6  1  0.32339113  0.47008579  0.25000000  1
  O  O7  1  0.82339113  0.02991421  0.25000000  1
  O  O8  1  0.82042334  0.73088128  0.86178847  1
  O  O9  1  0.32042334  0.76911872  0.63821153  1
  O  O10  1  0.17957666  0.26911872  0.36178847  1
  O  O11  1  0.67957666  0.23088128  0.13821153  1
  O  O12  1  0.17957666  0.26911872  0.13821153  1
  O  O13  1  0.67957666  0.23088128  0.36178847  1
  O  O14  1  0.82042334  0.73088128  0.63821153  1
  O  O15  1  0.32042334  0.76911872  0.86178847  1
  O  O16  1  0.62097652  0.58748281  0.99333468  1
  O  O17  1  0.12097652  0.91251719  0.50666532  1
  O  O18  1  0.37902348  0.41251719  0.49333468  1
  O  O19  1  0.87902348  0.08748281  0.00666532  1
  O  O20  1  0.37902348  0.41251719  0.00666532  1
  O  O21  1  0.87902348  0.08748281  0.49333468  1
  O  O22  1  0.62097652  0.58748281  0.50666532  1
  O  O23  1  0.12097652  0.91251719  0.99333468  1
  O  O24  1  0.70088478  0.28111307  0.91694782  1
  O  O25  1  0.20088478  0.21888693  0.58305218  1
  O  O26  1  0.29911522  0.71888693  0.41694782  1
  O  O27  1  0.79911522  0.78111307  0.08305218  1
  O  O28  1  0.29911522  0.71888693  0.08305218  1
  O  O29  1  0.79911522  0.78111307  0.41694782  1
  O  O30  1  0.70088478  0.28111307  0.58305218  1
  O  O31  1  0.20088478  0.21888693  0.91694782  1
loop_
_geom_bond_atom_site_label_1
_geom_bond_atom_site_label_2
_geom_bond_distance
_geom_bond_site_symmetry_2
Al0 O24 1.747954 1_555
Al0 O0 1.805101 1_555
Al0 O16 1.838494 1_555
Al0 O20 1.860342 1_556
Al0 O4 1.878174 1_555
Al1 O25 1.747954 1_555
Al1 O1 1.805101 1_455
Al1 O17 1.838494 1_545
Al1 O21 1.860342 1_455
Al1 O5 1.878174 1_545
Al2 O26 1.747954 1_555
Al2 O2 1.805101 1_555
Al2 O18 1.838494 1_555
Al2 O22 1.860342 1_555
Al2 O6 1.878174 1_555
Al3 O27 1.747954 1_555
Al3 O3 1.805101 1_655
Al3 O19 1.838494 1_565
Al3 O23 1.860342 1_654
Al3 O7 1.878174 1_565
Al4 O28 1.747954 1_555
Al4 O2 1.805101 1_555
Al4 O20 1.838494 1_555
Al4 O16 1.860342 1_554
Al4 O6 1.878174 1_555
Al5 O29 1.747954 1_555
Al5 O3 1.805101 1_655
Al5 O21 1.838494 1_565
Al5 O17 1.860342 1_655
Al5 O7 1.878174 1_565
Al6 O30 1.747954 1_555
Al6 O0 1.805101 1_555
Al6 O22 1.838494 1_555
Al6 O18 1.860342 1_555
Al6 O4 1.878174 1_555
Al7 O31 1.747954 1_555
Al7 O1 1.805101 1_455
Al7 O23 1.838494 1_545
Al7 O19 1.860342 1_456
Al7 O5 1.878174 1_545
B0 O4 1.365931 1_555
B0 O14 1.371880 1_555
B0 O8 1.371880 1_555
B1 O5 1.365931 1_555
B1 O9 1.371880 1_555
B1 O15 1.371880 1_555
B2 O6 1.365931 1_555
B2 O12 1.371880 1_555
B2 O10 1.371880 1_555
B3 O7 1.365931 1_555
B3 O11 1.371880 1_555
B3 O13 1.371880 1_555
B4 O27 1.331566 1_556
B4 O16 1.389889 1_555
B4 O8 1.396101 1_555
B5 O26 1.331566 1_555
B5 O17 1.389889 1_555
B5 O9 1.396101 1_555
B6 O25 1.331566 1_555
B6 O18 1.389889 1_555
B6 O10 1.396101 1_555
B7 O24 1.331566 1_554
B7 O19 1.389889 1_555
B7 O11 1.396101 1_555
B8 O31 1.331566 1_554
B8 O20 1.389889 1_555
B8 O12 1.396101 1_555
B9 O30 1.331566 1_555
B9 O21 1.389889 1_555
B9 O13 1.396101 1_555
B10 O29 1.331566 1_555
B10 O22 1.389889 1_555
B10 O14 1.396101 1_555
B11 O28 1.331566 1_556
B11 O23 1.389889 1_555
B11 O15 1.396101 1_555
H0 O0 0.968398 1_555
H1 O1 0.968398 1_555
H2 O2 0.968398 1_555
H3 O3 0.968398 1_555
