# generated using pymatgen
data_Li5Fe3(OF5)2
_symmetry_space_group_name_H-M   'P 1'
_cell_length_a   5.15058727
_cell_length_b   5.56364944
_cell_length_c   9.13629312
_cell_angle_alpha   85.31293698
_cell_angle_beta   73.76390407
_cell_angle_gamma   117.43009660
_symmetry_Int_Tables_number   1
_chemical_formula_structural   Li5Fe3(OF5)2
_chemical_formula_sum   'Li5 Fe3 O2 F10'
_cell_volume   216.19343784
_cell_formula_units_Z   1
loop_
 _symmetry_equiv_pos_site_id
 _symmetry_equiv_pos_as_xyz
  1  'x, y, z'
loop_
 _atom_site_type_symbol
 _atom_site_label
 _atom_site_symmetry_multiplicity
 _atom_site_fract_x
 _atom_site_fract_y
 _atom_site_fract_z
 _atom_site_occupancy
  Li  Li0  1  0.13549200  0.85577700  0.58147300  1
  Li  Li1  1  0.42126100  0.91950500  0.16689300  1
  Li  Li2  1  0.33656100  0.37781500  0.67284600  1
  Li  Li3  1  0.62006500  0.59110600  0.30810400  1
  Li  Li4  1  0.67409500  0.11967000  0.82702400  1
  Fe  Fe0  1  0.15788300  0.39090500  0.07356200  1
  Fe  Fe1  1  0.82760500  0.09384900  0.43643500  1
  Fe  Fe2  1  0.83557400  0.61152500  0.93167300  1
  O  O0  1  0.53963000  0.61736200  0.10839100  1
  O  O1  1  0.79479500  0.26213800  0.02567100  1
  F  F0  1  0.05215700  0.53598700  0.72425300  1
  F  F1  1  0.04929900  0.03611100  0.22623400  1
  F  F2  1  0.45596500  0.88717900  0.38143400  1
  F  F3  1  0.22269700  0.26915100  0.47021900  1
  F  F4  1  0.23825300  0.79617200  0.97283300  1
  F  F5  1  0.75016500  0.73018600  0.52710100  1
  F  F6  1  0.43905100  0.37832200  0.87187000  1
  F  F7  1  0.57697800  0.13044800  0.61984000  1
  F  F8  1  0.92734000  0.44100600  0.29470500  1
  F  F9  1  0.94513200  0.95578700  0.77944000  1
loop_
_geom_bond_atom_site_label_1
_geom_bond_atom_site_label_2
_geom_bond_distance
_geom_bond_site_symmetry_2
Li1 O1 1.957307 1_565
Li1 O0 2.095724 1_555
Li3 O0 1.989265 1_555
Li4 O1 2.172703 1_556
Fe0 O1 1.864523 1_455
Fe0 O0 1.920332 1_555
Fe2 O0 1.899803 1_556
Fe2 O1 1.952027 1_556
F0 Li0 1.911923 1_555
F0 Li2 2.002822 1_555
F0 Fe2 2.095762 1_455
F0 Li4 2.122510 1_455
F1 Fe0 2.061930 1_555
F1 Fe1 2.075501 1_455
F1 Li1 2.237628 1_545
F1 Li3 2.303606 1_445
F2 Fe1 1.960391 1_565
F2 Li1 2.018477 1_555
F2 Li0 2.022490 1_555
F2 Li3 2.241229 1_555
F3 Fe1 1.938917 1_455
F3 Li3 2.021085 1_555
F3 Li2 2.144753 1_555
F3 Li0 2.221537 1_545
F4 Fe2 2.008633 1_455
F4 Li4 2.065613 1_565
F4 Fe0 2.165679 1_556
F4 Li1 2.245055 1_556
F5 Fe1 1.933077 1_565
F5 Li0 2.001061 1_655
F5 Li2 2.072198 1_555
F5 Li3 2.361374 1_555
F6 Fe0 2.029771 1_556
F6 Li2 2.030087 1_555
F6 Fe2 2.109856 1_555
F6 Li4 2.264597 1_555
F7 Fe1 1.898415 1_555
F7 Li4 2.091747 1_555
F7 Li0 2.227232 1_545
F7 Li2 2.237346 1_555
F8 Fe1 1.994073 1_555
F8 Li3 2.084040 1_555
F8 Fe0 2.150637 1_655
F9 Li4 1.966546 1_565
F9 Fe2 2.012815 1_555
F9 Li0 2.053708 1_655
F9 Li2 2.166376 1_665
