# generated using pymatgen
data_Er3(Si3Pd10)2
_symmetry_space_group_name_H-M   'P 1'
_cell_length_a   8.62333251
_cell_length_b   8.62335548
_cell_length_c   8.62334296
_cell_angle_alpha   59.99999897
_cell_angle_beta   59.99996970
_cell_angle_gamma   60.00004912
_symmetry_Int_Tables_number   1
_chemical_formula_structural   Er3(Si3Pd10)2
_chemical_formula_sum   'Er3 Si6 Pd20'
_cell_volume   453.43197396
_cell_formula_units_Z   1
loop_
 _symmetry_equiv_pos_site_id
 _symmetry_equiv_pos_as_xyz
  1  'x, y, z'
loop_
 _atom_site_type_symbol
 _atom_site_label
 _atom_site_symmetry_multiplicity
 _atom_site_fract_x
 _atom_site_fract_y
 _atom_site_fract_z
 _atom_site_occupancy
  Er  Er0  1  0.00001546  0.00001833  -0.00002297  1
  Er  Er1  1  0.24999172  0.25002024  0.25000338  1
  Er  Er2  1  0.74998868  0.74998931  0.75000768  1
  Si  Si0  1  0.73279511  0.26720578  0.26720631  1
  Si  Si1  1  0.26720756  0.73279196  0.73279162  1
  Si  Si2  1  0.26720937  0.73279446  0.26720416  1
  Si  Si3  1  0.73279559  0.26720463  0.73279179  1
  Si  Si4  1  0.26721026  0.26720864  0.73279156  1
  Si  Si5  1  0.73279301  0.73279381  0.26720453  1
  Pd  Pd0  1  0.34542833  0.00001256  0.99998427  1
  Pd  Pd1  1  0.65455768  0.00000789  0.99999092  1
  Pd  Pd2  1  0.00000749  0.34543772  0.65456732  1
  Pd  Pd3  1  0.00000765  0.65453609  0.34545590  1
  Pd  Pd4  1  0.00000034  0.34544449  0.99998906  1
  Pd  Pd5  1  0.65454621  0.00000323  0.34545584  1
  Pd  Pd6  1  0.00001294  0.65454752  0.99999610  1
  Pd  Pd7  1  0.34542292  0.00000317  0.65457495  1
  Pd  Pd8  1  0.00000062  0.00000061  0.34544328  1
  Pd  Pd9  1  0.00000598  0.00000819  0.65455594  1
  Pd  Pd10  1  0.65456298  0.34545185  0.99998773  1
  Pd  Pd11  1  0.34544984  0.65455068  -0.00000359  1
  Pd  Pd12  1  0.38311662  0.38312131  0.38312933  1
  Pd  Pd13  1  0.61687914  0.61686615  0.61688647  1
  Pd  Pd14  1  0.38312597  0.38313118  0.85062012  1
  Pd  Pd15  1  0.38312044  0.85062153  0.38313620  1
  Pd  Pd16  1  0.61687536  0.61686479  0.14937040  1
  Pd  Pd17  1  0.61686777  0.14938091  0.61687237  1
  Pd  Pd18  1  0.85062974  0.38312224  0.38313293  1
  Pd  Pd19  1  0.14937720  0.61686172  0.61687742  1
loop_
_geom_bond_atom_site_label_1
_geom_bond_atom_site_label_2
_geom_bond_distance
_geom_bond_site_symmetry_2
Er0 Pd7 2.978541 1_554
Er0 Pd0 2.978616 1_554
Er0 Pd2 2.978630 1_554
Er0 Pd4 2.978719 1_554
Er0 Pd9 2.978769 1_554
Er0 Pd10 2.978876 1_454
Er0 Pd8 2.978934 1_555
Er0 Pd11 2.978945 1_545
Er0 Pd1 2.978982 1_454
Er0 Pd6 2.979046 1_544
Er0 Pd5 2.979138 1_455
Er0 Pd3 2.979199 1_545
Er1 Pd12 2.811809 1_555
Er1 Pd18 2.811877 1_455
Er1 Pd14 2.812029 1_554
Er1 Pd15 2.812144 1_545
Er2 Pd13 2.811823 1_555
Er2 Pd16 2.811884 1_556
Er2 Pd19 2.812064 1_655
Er2 Pd17 2.812094 1_565
Pd0 Si4 2.400804 1_555
Pd0 Si2 2.401011 1_546
Pd1 Si3 2.400882 1_555
Pd1 Si5 2.401010 1_546
Pd2 Si4 2.400874 1_555
Pd2 Si3 2.401010 1_455
Pd3 Si2 2.400981 1_555
Pd3 Si5 2.401033 1_455
Pd4 Si4 2.400910 1_555
Pd4 Si0 2.400978 1_456
Pd5 Si0 2.400949 1_555
Pd5 Si5 2.401028 1_545
Pd6 Si1 2.400898 1_555
Pd6 Si5 2.401023 1_456
Pd7 Si4 2.400910 1_555
Pd7 Si1 2.400937 1_545
Pd8 Si0 2.400944 1_455
Pd8 Si2 2.400964 1_545
Pd9 Si3 2.400909 1_455
Pd9 Si1 2.400952 1_545
Pd10 Si3 2.400933 1_555
Pd10 Si0 2.400999 1_556
Pd11 Si1 2.400953 1_554
Pd11 Si2 2.400989 1_555
Pd12 Si4 2.461965 1_555
Pd12 Si2 2.462047 1_555
Pd12 Si0 2.462078 1_555
Pd13 Si3 2.461966 1_555
Pd13 Si1 2.462029 1_555
Pd13 Si5 2.462104 1_555
Pd14 Si1 2.461960 1_555
Pd14 Si4 2.461998 1_555
Pd14 Si3 2.462015 1_555
Pd15 Si1 2.461917 1_555
Pd15 Si2 2.462022 1_555
Pd15 Si5 2.462036 1_555
Pd16 Si0 2.461948 1_555
Pd16 Si2 2.461990 1_555
Pd16 Si5 2.462097 1_555
Pd17 Si4 2.461930 1_555
Pd17 Si0 2.461992 1_555
Pd17 Si3 2.462027 1_555
Pd18 Si3 2.461941 1_555
Pd18 Si5 2.462036 1_555
Pd18 Si0 2.462075 1_555
Pd19 Si4 2.461906 1_555
Pd19 Si2 2.462042 1_555
Pd19 Si1 2.462054 1_555
