# generated using pymatgen
data_Nd2MgSe4
_symmetry_space_group_name_H-M   'P 1'
_cell_length_a   8.48973049
_cell_length_b   8.48973049
_cell_length_c   8.48973049
_cell_angle_alpha   60.00000000
_cell_angle_beta   60.00000000
_cell_angle_gamma   60.00000000
_symmetry_Int_Tables_number   1
_chemical_formula_structural   Nd2MgSe4
_chemical_formula_sum   'Nd4 Mg2 Se8'
_cell_volume   432.67989237
_cell_formula_units_Z   2
loop_
 _symmetry_equiv_pos_site_id
 _symmetry_equiv_pos_as_xyz
  1  'x, y, z'
loop_
 _atom_site_type_symbol
 _atom_site_label
 _atom_site_symmetry_multiplicity
 _atom_site_fract_x
 _atom_site_fract_y
 _atom_site_fract_z
 _atom_site_occupancy
  Nd  Nd0  1  0.12500000  0.62500000  0.12500000  1
  Nd  Nd1  1  0.12500000  0.12500000  0.62500000  1
  Nd  Nd2  1  0.62500000  0.12500000  0.12500000  1
  Nd  Nd3  1  0.12500000  0.12500000  0.12500000  1
  Mg  Mg0  1  0.50000000  0.50000000  0.50000000  1
  Mg  Mg1  1  0.75000000  0.75000000  0.75000000  1
  Se  Se0  1  0.87774500  0.87774500  0.87774500  1
  Se  Se1  1  0.36676500  0.87774500  0.87774500  1
  Se  Se2  1  0.87774500  0.36676500  0.87774500  1
  Se  Se3  1  0.87774500  0.87774500  0.36676500  1
  Se  Se4  1  0.37225500  0.37225500  0.88323500  1
  Se  Se5  1  0.37225500  0.88323500  0.37225500  1
  Se  Se6  1  0.88323500  0.37225500  0.37225500  1
  Se  Se7  1  0.37225500  0.37225500  0.37225500  1
loop_
_geom_bond_atom_site_label_1
_geom_bond_atom_site_label_2
_geom_bond_distance
_geom_bond_site_symmetry_2
Nd0 Se0 2.968982 1_454
Nd0 Se1 2.968982 1_554
Nd0 Se4 2.968982 1_554
Nd0 Se7 2.968982 1_555
Nd0 Se6 2.968982 1_455
Nd0 Se3 2.968982 1_455
Nd1 Se0 2.968982 1_445
Nd1 Se7 2.968982 1_555
Nd1 Se1 2.968982 1_545
Nd1 Se2 2.968982 1_455
Nd1 Se6 2.968982 1_455
Nd1 Se5 2.968982 1_545
Nd2 Se2 2.968982 1_554
Nd2 Se0 2.968982 1_544
Nd2 Se3 2.968982 1_545
Nd2 Se7 2.968982 1_555
Nd2 Se4 2.968982 1_554
Nd2 Se5 2.968982 1_545
Nd3 Se1 2.968982 1_544
Nd3 Se2 2.968982 1_454
Nd3 Se3 2.968982 1_445
Nd3 Se6 2.968982 1_455
Nd3 Se4 2.968982 1_554
Nd3 Se5 2.968982 1_545
Mg0 Se6 2.656522 1_555
Mg0 Se4 2.656522 1_555
Mg0 Se5 2.656522 1_555
Mg0 Se7 2.656522 1_555
Mg1 Se1 2.656522 1_555
Mg1 Se3 2.656522 1_555
Mg1 Se0 2.656522 1_555
Mg1 Se2 2.656522 1_555
