# generated using pymatgen
data_Sr3TiRuO7
_symmetry_space_group_name_H-M   'P 1'
_cell_length_a   3.94744700
_cell_length_b   3.94744700
_cell_length_c   10.67968141
_cell_angle_alpha   79.34988433
_cell_angle_beta   79.34988433
_cell_angle_gamma   90.00000000
_symmetry_Int_Tables_number   1
_chemical_formula_structural   Sr3TiRuO7
_chemical_formula_sum   'Sr3 Ti1 Ru1 O7'
_cell_volume   160.62996843
_cell_formula_units_Z   1
loop_
 _symmetry_equiv_pos_site_id
 _symmetry_equiv_pos_as_xyz
  1  'x, y, z'
loop_
 _atom_site_type_symbol
 _atom_site_label
 _atom_site_symmetry_multiplicity
 _atom_site_fract_x
 _atom_site_fract_y
 _atom_site_fract_z
 _atom_site_occupancy
  Sr  Sr0  1  0.49833900  0.49833900  0.00332200  1
  Sr  Sr1  1  0.31613900  0.31613900  0.36772100  1
  Sr  Sr2  1  0.68543400  0.68543400  0.62913200  1
  Ti  Ti0  1  0.90184600  0.90184600  0.19630900  1
  Ru  Ru0  1  0.09734100  0.09734100  0.80531700  1
  O  O0  1  0.19696500  0.19696500  0.60607000  1
  O  O1  1  0.80666500  0.80666500  0.38667000  1
  O  O2  1  0.99822000  0.99822000  0.00355900  1
  O  O3  1  0.59627300  0.09627300  0.80745400  1
  O  O4  1  0.09627300  0.59627300  0.80745400  1
  O  O5  1  0.40325200  0.90325200  0.19349600  1
  O  O6  1  0.90325200  0.40325200  0.19349600  1
loop_
_geom_bond_atom_site_label_1
_geom_bond_atom_site_label_2
_geom_bond_distance
_geom_bond_site_symmetry_2
O0 Ru0 2.053931 1_555
O0 Sr1 2.457012 1_555
O0 Sr2 2.801372 1_555
O0 Sr2 2.801372 1_545
O0 Sr2 2.801372 1_455
O0 Sr2 2.801372 1_445
O1 Ti0 1.962330 1_555
O1 Sr2 2.499411 1_555
O1 Sr1 2.798090 1_665
O1 Sr1 2.798093 1_655
O1 Sr1 2.798093 1_565
O1 Sr1 2.798096 1_555
O2 Ti0 1.986956 1_555
O2 Ru0 2.043571 1_664
O2 Sr0 2.791265 1_555
O2 Sr0 2.791268 1_565
O2 Sr0 2.791268 1_655
O2 Sr0 2.791270 1_665
O3 Ru0 1.973844 1_655
O3 Ru0 1.973848 1_555
O3 Sr2 2.697158 1_545
O3 Sr2 2.697158 1_555
O3 Sr0 2.823534 1_556
O3 Sr0 2.823534 1_546
O4 Ru0 1.973844 1_565
O4 Ru0 1.973848 1_555
O4 Sr2 2.697158 1_455
O4 Sr2 2.697158 1_555
O4 Sr0 2.823534 1_556
O4 Sr0 2.823534 1_456
O5 Ti0 1.973935 1_455
O5 Ti0 1.973938 1_555
O5 Sr1 2.668551 1_565
O5 Sr1 2.668554 1_555
O5 Sr0 2.781863 1_555
O5 Sr0 2.781863 1_565
O6 Ti0 1.973935 1_545
O6 Ti0 1.973938 1_555
O6 Sr1 2.668551 1_655
O6 Sr1 2.668554 1_555
O6 Sr0 2.781863 1_555
O6 Sr0 2.781863 1_655
