# generated using pymatgen
data_Yb(BRu)2
_symmetry_space_group_name_H-M   'P 1'
_cell_length_a   7.78226400
_cell_length_b   7.78123700
_cell_length_c   12.17711537
_cell_angle_alpha   108.63108044
_cell_angle_beta   108.63372606
_cell_angle_gamma   90.00232665
_symmetry_Int_Tables_number   1
_chemical_formula_structural   Yb(BRu)2
_chemical_formula_sum   'Yb8 B16 Ru16'
_cell_volume   657.82618744
_cell_formula_units_Z   8
loop_
 _symmetry_equiv_pos_site_id
 _symmetry_equiv_pos_as_xyz
  1  'x, y, z'
loop_
 _atom_site_type_symbol
 _atom_site_label
 _atom_site_symmetry_multiplicity
 _atom_site_fract_x
 _atom_site_fract_y
 _atom_site_fract_z
 _atom_site_occupancy
  Yb  Yb0  1  0.12502200  0.37502600  0.25004500  1
  Yb  Yb1  1  0.12498600  0.87498400  0.24997400  1
  Yb  Yb2  1  0.12499600  0.87498300  0.74998100  1
  Yb  Yb3  1  0.62500300  0.37500500  0.25000300  1
  Yb  Yb4  1  0.62499600  0.87499400  0.75000400  1
  Yb  Yb5  1  0.62499600  0.87499100  0.24998900  1
  Yb  Yb6  1  0.62499300  0.37500600  0.74999700  1
  Yb  Yb7  1  0.12500800  0.37500900  0.75000500  1
  B  B0  1  0.53968600  0.53967200  0.58131700  1
  B  B1  1  0.04161000  0.04166800  0.58135700  1
  B  B2  1  0.29166500  0.28971300  0.08131100  1
  B  B3  1  0.21034900  0.20834400  0.91867000  1
  B  B4  1  0.71023100  0.21031400  0.91867100  1
  B  B5  1  0.78966800  0.79164500  0.08132200  1
  B  B6  1  0.70836900  0.71035000  0.91869600  1
  B  B7  1  0.20840800  0.70834700  0.91869600  1
  B  B8  1  0.45832600  0.45839200  0.41865500  1
  B  B9  1  0.95835000  0.46032500  0.41867800  1
  B  B10  1  0.96031700  0.96026100  0.41867700  1
  B  B11  1  0.46033100  0.95834600  0.41865600  1
  B  B12  1  0.03972400  0.54166100  0.58131700  1
  B  B13  1  0.54166200  0.03968100  0.58135600  1
  B  B14  1  0.28966700  0.78968600  0.08131100  1
  B  B15  1  0.79164200  0.29159600  0.08132300  1
  Ru  Ru0  1  0.48552100  0.23486300  0.47193800  1
  Ru  Ru1  1  0.98649400  0.23712600  0.47192400  1
  Ru  Ru2  1  0.48714800  0.23551200  0.97193700  1
  Ru  Ru3  1  0.26450000  0.01288600  0.02809500  1
  Ru  Ru4  1  0.76448200  0.51511200  0.02806800  1
  Ru  Ru5  1  0.48489200  0.73646400  0.97190700  1
  Ru  Ru6  1  0.76353600  0.01511800  0.02808300  1
  Ru  Ru7  1  0.26350400  0.51284900  0.02807100  1
  Ru  Ru8  1  0.26287000  0.51350400  0.52807500  1
  Ru  Ru9  1  0.76286600  0.51451000  0.52809900  1
  Ru  Ru10  1  0.26512200  0.01447200  0.52804000  1
  Ru  Ru11  1  0.76508600  0.01351400  0.52805200  1
  Ru  Ru12  1  0.98549100  0.73713500  0.47190200  1
  Ru  Ru13  1  0.48647600  0.73490700  0.47192500  1
  Ru  Ru14  1  0.98486100  0.73551600  0.97191200  1
  Ru  Ru15  1  0.98714700  0.23651200  0.97196100  1
loop_
_geom_bond_atom_site_label_1
_geom_bond_atom_site_label_2
_geom_bond_distance
_geom_bond_site_symmetry_2
B0 B8 1.767025 1_555
B0 Ru9 2.028089 1_555
B0 Ru8 2.031183 1_555
B0 Ru13 2.279111 1_555
B0 Ru0 2.280301 1_555
B0 Yb6 2.666798 1_555
B0 Yb4 2.678070 1_555
B1 B10 1.767221 1_445
B1 Ru11 2.028995 1_455
B1 Ru10 2.031215 1_555
B1 Ru12 2.278668 1_445
B1 Ru1 2.280934 1_455
B1 Yb7 2.666669 1_555
B1 Yb2 2.677658 1_545
B2 B3 1.766797 1_554
B2 Ru7 2.027670 1_555
B2 Ru3 2.031037 1_555
B2 Ru15 2.278543 1_454
B2 Ru2 2.280792 1_554
B2 Yb3 2.667039 1_555
B2 Yb0 2.678740 1_555
B3 Ru15 2.028756 1_455
B3 Ru2 2.031041 1_555
B3 Ru7 2.278362 1_556
B3 Ru3 2.280864 1_556
B3 Yb2 2.666973 1_545
B3 Yb7 2.677968 1_555
B4 Ru2 2.027693 1_555
B4 Ru15 2.031898 1_555
B4 Ru6 2.279029 1_556
B4 Ru4 2.280269 1_556
B4 Yb6 2.666882 1_555
B4 Yb4 2.677966 1_545
B5 B6 1.766634 1_554
B5 Ru4 2.028847 1_555
B5 Ru6 2.030144 1_565
B5 Ru14 2.279214 1_554
B5 Ru5 2.280383 1_554
B5 Yb5 2.666886 1_555
B5 Yb1 2.678073 1_655
B6 Ru14 2.028811 1_555
B6 Ru5 2.030230 1_555
B6 Ru4 2.278950 1_556
B6 Ru6 2.280047 1_566
B6 Yb4 2.666797 1_555
B6 Yb6 2.678251 1_555
B7 Ru5 2.028756 1_555
B7 Ru14 2.030788 1_455
B7 Ru3 2.278577 1_566
B7 Ru7 2.280679 1_556
B7 Yb7 2.666852 1_555
B7 Yb2 2.678315 1_555
B8 Ru13 2.028705 1_555
B8 Ru0 2.030863 1_555
B8 Ru9 2.278906 1_555
B8 Ru8 2.281025 1_555
B8 Yb0 2.666467 1_555
B8 Yb3 2.678091 1_555
B9 Ru1 2.028180 1_555
B9 Ru12 2.030905 1_555
B9 Ru8 2.278669 1_655
B9 Ru9 2.281221 1_555
B9 Yb3 2.667012 1_555
B9 Yb0 2.677869 1_655
B10 Ru12 2.027487 1_555
B10 Ru1 2.031300 1_565
B10 Ru11 2.279151 1_565
B10 Ru10 2.280454 1_665
B10 Yb1 2.667239 1_655
B10 Yb5 2.678254 1_555
B11 B13 1.767438 1_565
B11 Ru0 2.028711 1_565
B11 Ru13 2.030095 1_555
B11 Ru10 2.279087 1_565
B11 Ru11 2.280199 1_565
B11 Yb5 2.666847 1_555
B11 Yb1 2.678364 1_555
B12 B9 1.766775 1_455
B12 Ru8 2.028005 1_555
B12 Ru9 2.031513 1_455
B12 Ru1 2.278540 1_455
B12 Ru12 2.280879 1_455
B12 Yb2 2.666636 1_555
B12 Yb7 2.678129 1_555
B13 Ru10 2.029106 1_555
B13 Ru11 2.030469 1_555
B13 Ru0 2.278992 1_555
B13 Ru13 2.280189 1_545
B13 Yb4 2.666588 1_545
B13 Yb6 2.677877 1_555
B14 B7 1.766514 1_554
B14 Ru3 2.027978 1_565
B14 Ru7 2.031095 1_555
B14 Ru5 2.279373 1_554
B14 Ru14 2.280545 1_454
B14 Yb1 2.666896 1_555
B14 Yb5 2.678254 1_555
B15 B4 1.766916 1_554
B15 Ru6 2.028447 1_555
B15 Ru4 2.030575 1_555
B15 Ru2 2.278465 1_554
B15 Ru15 2.280830 1_554
B15 Yb0 2.667416 1_655
B15 Yb3 2.678162 1_555
Ru0 Yb6 3.020617 1_555
Ru1 Yb7 3.020857 1_655
Ru2 Yb3 3.020694 1_556
Ru3 Yb2 3.021215 1_544
Ru4 Yb6 3.020746 1_554
Ru5 Yb5 3.020866 1_556
Ru6 Yb4 3.020834 1_544
Ru7 Yb7 3.020695 1_554
Ru8 Yb0 3.020303 1_555
Ru9 Yb3 3.021020 1_555
Ru10 Yb1 3.020693 1_545
Ru11 Yb5 3.020659 1_545
Ru12 Yb2 3.020836 1_655
Ru13 Yb4 3.020833 1_555
Ru14 Yb1 3.020649 1_656
Ru15 Yb0 3.020890 1_656
