# generated using pymatgen
data_Ce3Ti6Fe23
_symmetry_space_group_name_H-M   'P 1'
_cell_length_a   6.54740762
_cell_length_b   6.54740762
_cell_length_c   10.57711916
_cell_angle_alpha   85.73447902
_cell_angle_beta   85.73447902
_cell_angle_gamma   82.54144696
_symmetry_Int_Tables_number   1
_chemical_formula_structural   Ce3Ti6Fe23
_chemical_formula_sum   'Ce3 Ti6 Fe23'
_cell_volume   447.38244083
_cell_formula_units_Z   1
loop_
 _symmetry_equiv_pos_site_id
 _symmetry_equiv_pos_as_xyz
  1  'x, y, z'
loop_
 _atom_site_type_symbol
 _atom_site_label
 _atom_site_symmetry_multiplicity
 _atom_site_fract_x
 _atom_site_fract_y
 _atom_site_fract_z
 _atom_site_occupancy
  Ce  Ce0  1  0.17197900  0.17197900  0.40674700  1
  Ce  Ce1  1  0.82802100  0.82802100  0.59325300  1
  Ce  Ce2  1  0.00000000  0.00000000  0.00000000  1
  Ti  Ti0  1  0.28191500  0.28191500  0.86136400  1
  Ti  Ti1  1  0.71808500  0.71808500  0.13863600  1
  Ti  Ti2  1  0.34566400  0.65433600  0.00000000  1
  Ti  Ti3  1  0.65433600  0.34566400  0.00000000  1
  Ti  Ti4  1  0.53067300  0.53067300  0.73726300  1
  Ti  Ti5  1  0.46932700  0.46932700  0.26273700  1
  Fe  Fe0  1  0.72907200  0.72907200  0.88711500  1
  Fe  Fe1  1  0.27092800  0.27092800  0.11288500  1
  Fe  Fe2  1  0.69228600  0.12656000  0.79891300  1
  Fe  Fe3  1  0.30771400  0.87344000  0.20108700  1
  Fe  Fe4  1  0.87344000  0.30771400  0.20108700  1
  Fe  Fe5  1  0.12656000  0.69228600  0.79891300  1
  Fe  Fe6  1  0.31293900  0.81497400  0.59280700  1
  Fe  Fe7  1  0.68706100  0.18502600  0.40719300  1
  Fe  Fe8  1  0.18502600  0.68706100  0.40719300  1
  Fe  Fe9  1  0.81497400  0.31293900  0.59280700  1
  Fe  Fe10  1  0.09298900  0.09298900  0.70413000  1
  Fe  Fe11  1  0.90701100  0.90701100  0.29587000  1
  Fe  Fe12  1  0.50000000  0.00000000  0.00000000  1
  Fe  Fe13  1  0.00000000  0.50000000  0.00000000  1
  Fe  Fe14  1  0.46020800  0.16931000  0.61920900  1
  Fe  Fe15  1  0.53979200  0.83069000  0.38079100  1
  Fe  Fe16  1  0.83069000  0.53979200  0.38079100  1
  Fe  Fe17  1  0.16931000  0.46020800  0.61920900  1
  Fe  Fe18  1  0.40935800  0.90666200  0.79643300  1
  Fe  Fe19  1  0.59064200  0.09333800  0.20356700  1
  Fe  Fe20  1  0.09333800  0.59064200  0.20356700  1
  Fe  Fe21  1  0.90666200  0.40935800  0.79643300  1
  Fe  Fe22  1  0.50000000  0.50000000  0.50000000  1
loop_
_geom_bond_atom_site_label_1
_geom_bond_atom_site_label_2
_geom_bond_distance
_geom_bond_site_symmetry_2
Ce0 Fe11 2.963357 1_445
Ce0 Fe6 3.035499 1_545
Ce0 Fe9 3.035499 1_455
Ce0 Fe14 3.037792 1_555
Ce0 Fe17 3.037792 1_555
Ce0 Fe4 3.039131 1_455
Ce0 Fe3 3.039131 1_545
Ce0 Fe15 3.076358 1_545
Ce0 Fe16 3.076358 1_455
Ce0 Ti5 3.162663 1_555
Ce0 Fe1 3.163906 1_555
Ce0 Fe10 3.164537 1_555
Ce0 Fe7 3.164662 1_455
Ce0 Fe8 3.164662 1_545
Ce0 Fe19 3.364428 1_555
Ce0 Fe20 3.364428 1_555
Ce0 Fe7 3.384962 1_555
Ce0 Fe8 3.384962 1_555
Ce1 Fe10 2.963357 1_665
Ce1 Fe7 3.035499 1_565
Ce1 Fe8 3.035499 1_655
Ce1 Fe16 3.037792 1_555
Ce1 Fe15 3.037792 1_555
Ce1 Fe2 3.039131 1_565
Ce1 Fe5 3.039131 1_655
Ce1 Fe14 3.076358 1_565
Ce1 Fe17 3.076358 1_655
Ce1 Ti4 3.162663 1_555
Ce1 Fe0 3.163906 1_555
Ce1 Fe11 3.164537 1_555
Ce1 Fe6 3.164662 1_655
Ce1 Fe9 3.164662 1_565
Ce1 Fe21 3.364428 1_555
Ce1 Fe18 3.364428 1_555
Ce1 Fe9 3.384962 1_555
Ce1 Fe6 3.384962 1_555
Ce2 Ti2 2.985698 1_545
Ce2 Ti3 2.985698 1_455
Ce2 Ti1 3.007249 1_445
Ce2 Ti0 3.007249 1_554
Ce2 Fe0 3.027534 1_444
Ce2 Fe1 3.027534 1_555
Ce2 Fe4 3.035031 1_455
Ce2 Fe3 3.035031 1_545
Ce2 Fe5 3.035031 1_544
Ce2 Fe2 3.035031 1_454
Ce2 Fe10 3.172414 1_554
Ce2 Fe11 3.172414 1_445
Ce2 Fe12 3.273704 1_555
Ce2 Fe13 3.273704 1_555
Ce2 Fe13 3.273704 1_545
Ce2 Fe12 3.273704 1_455
Ce2 Fe18 3.332449 1_544
Ce2 Fe21 3.332449 1_454
Ce2 Fe20 3.332449 1_545
Ce2 Fe19 3.332449 1_455
Ti0 Ti4 2.661033 1_555
Ti1 Ti5 2.661033 1_555
Ti2 Ti3 2.666177 1_555
Fe0 Fe21 2.480874 1_555
Fe0 Fe18 2.480874 1_555
Fe0 Fe12 2.485902 1_566
Fe0 Fe13 2.485902 1_656
Fe0 Ti4 2.633945 1_555
Fe0 Ti1 2.651851 1_556
Fe0 Fe2 2.685323 1_565
Fe0 Fe5 2.685323 1_655
Fe0 Ti2 2.784411 1_556
Fe0 Ti3 2.784411 1_556
Fe1 Fe19 2.480874 1_555
Fe1 Fe20 2.480874 1_555
Fe1 Fe12 2.485902 1_555
Fe1 Fe13 2.485902 1_555
Fe1 Ti5 2.633945 1_555
Fe1 Ti0 2.651851 1_554
Fe1 Fe3 2.685323 1_545
Fe1 Fe4 2.685323 1_455
Fe1 Ti3 2.784411 1_555
Fe1 Ti2 2.784411 1_555
Fe2 Fe21 2.461955 1_555
Fe2 Fe9 2.546585 1_555
Fe2 Ti3 2.631774 1_556
Fe2 Ti4 2.768529 1_555
Fe2 Ti0 2.795821 1_555
Fe3 Fe8 2.546585 1_555
Fe3 Ti2 2.631774 1_555
Fe3 Ti5 2.768529 1_555
Fe3 Ti1 2.795821 1_555
Fe4 Fe7 2.546585 1_555
Fe4 Ti3 2.631774 1_555
Fe4 Ti5 2.768529 1_555
Fe4 Ti1 2.795821 1_555
Fe5 Fe6 2.546585 1_555
Fe5 Ti2 2.631774 1_556
Fe5 Ti4 2.768529 1_555
Fe5 Ti0 2.795821 1_555
Fe6 Fe8 2.434847 1_555
Fe6 Ti4 2.654020 1_555
Fe7 Fe9 2.434847 1_555
Fe7 Ti5 2.654020 1_555
Fe8 Ti5 2.654020 1_555
Fe9 Ti4 2.654020 1_555
Fe10 Fe6 2.481892 1_545
Fe10 Fe9 2.481892 1_455
Fe10 Fe18 2.489928 1_545
Fe10 Fe21 2.489928 1_455
Fe10 Fe17 2.600233 1_555
Fe10 Fe14 2.600233 1_555
Fe10 Ti0 2.614450 1_555
Fe10 Fe5 2.725488 1_545
Fe10 Fe2 2.725488 1_455
Fe11 Fe8 2.481892 1_655
Fe11 Fe7 2.481892 1_565
Fe11 Fe19 2.489928 1_565
Fe11 Fe20 2.489928 1_655
Fe11 Fe15 2.600233 1_555
Fe11 Fe16 2.600233 1_555
Fe11 Ti1 2.614450 1_555
Fe11 Fe4 2.725488 1_565
Fe11 Fe3 2.725488 1_655
Fe12 Fe19 2.416967 1_555
Fe12 Fe18 2.416967 1_544
Fe12 Fe3 2.530966 1_545
Fe12 Fe2 2.530966 1_554
Fe12 Ti2 2.595561 1_545
Fe12 Ti3 2.595561 1_555
Fe12 Ti0 2.611651 1_554
Fe12 Ti1 2.611651 1_545
Fe13 Fe20 2.416967 1_555
Fe13 Fe21 2.416967 1_454
Fe13 Fe5 2.530966 1_554
Fe13 Fe4 2.530966 1_455
Fe13 Ti3 2.595561 1_455
Fe13 Ti2 2.595561 1_555
Fe13 Ti0 2.611651 1_554
Fe13 Ti1 2.611651 1_455
Fe14 Fe22 2.457054 1_555
Fe14 Fe18 2.481570 1_545
Fe14 Fe2 2.498037 1_555
Fe14 Fe17 2.512652 1_555
Fe14 Fe7 2.599127 1_555
Fe14 Fe9 2.605621 1_555
Fe14 Fe6 2.665940 1_545
Fe14 Ti0 2.842402 1_555
Fe14 Ti4 2.859811 1_555
Fe15 Fe22 2.457054 1_555
Fe15 Fe19 2.481570 1_565
Fe15 Fe3 2.498037 1_555
Fe15 Fe16 2.512652 1_555
Fe15 Fe6 2.599127 1_555
Fe15 Fe8 2.605621 1_555
Fe15 Fe7 2.665940 1_565
Fe15 Ti1 2.842402 1_555
Fe15 Ti5 2.859811 1_555
Fe16 Fe22 2.457054 1_555
Fe16 Fe20 2.481570 1_655
Fe16 Fe4 2.498037 1_555
Fe16 Fe9 2.599127 1_555
Fe16 Fe7 2.605621 1_555
Fe16 Fe8 2.665940 1_655
Fe16 Ti1 2.842402 1_555
Fe16 Ti5 2.859811 1_555
Fe17 Fe22 2.457054 1_555
Fe17 Fe21 2.481570 1_455
Fe17 Fe5 2.498037 1_555
Fe17 Fe8 2.599127 1_555
Fe17 Fe6 2.605621 1_555
Fe17 Fe9 2.665940 1_455
Fe17 Ti0 2.842402 1_555
Fe17 Ti4 2.859811 1_555
Fe18 Fe6 2.427067 1_555
Fe18 Fe5 2.461955 1_555
Fe18 Fe2 2.492072 1_565
Fe18 Ti4 2.594305 1_555
Fe18 Ti0 2.614951 1_565
Fe18 Ti2 2.656217 1_556
Fe19 Fe7 2.427067 1_555
Fe19 Fe4 2.461955 1_555
Fe19 Fe3 2.492072 1_545
Fe19 Ti5 2.594305 1_555
Fe19 Ti1 2.614951 1_545
Fe19 Ti3 2.656217 1_555
Fe20 Fe8 2.427067 1_555
Fe20 Fe3 2.461955 1_555
Fe20 Fe4 2.492072 1_455
Fe20 Ti5 2.594305 1_555
Fe20 Ti1 2.614951 1_455
Fe20 Ti2 2.656217 1_555
Fe21 Fe9 2.427067 1_555
Fe21 Fe5 2.492072 1_655
Fe21 Ti4 2.594305 1_555
Fe21 Ti0 2.614951 1_655
Fe21 Ti3 2.656217 1_556
Fe22 Fe6 2.486591 1_555
Fe22 Fe9 2.486591 1_555
Fe22 Fe7 2.486591 1_555
Fe22 Fe8 2.486591 1_555
Fe22 Ti4 2.557140 1_555
Fe22 Ti5 2.557140 1_555
