# generated using pymatgen
data_NiH20Se2(NO7)2
_symmetry_space_group_name_H-M   'P 1'
_cell_length_a   14.40811400
_cell_length_b   7.40965100
_cell_length_c   9.74344377
_cell_angle_alpha   75.53863577
_cell_angle_beta   90.00000000
_cell_angle_gamma   90.00000000
_symmetry_Int_Tables_number   1
_chemical_formula_structural   NiH20Se2(NO7)2
_chemical_formula_sum   'Ni2 H40 Se4 N4 O28'
_cell_volume   1007.24378251
_cell_formula_units_Z   2
loop_
 _symmetry_equiv_pos_site_id
 _symmetry_equiv_pos_as_xyz
  1  'x, y, z'
loop_
 _atom_site_type_symbol
 _atom_site_label
 _atom_site_symmetry_multiplicity
 _atom_site_fract_x
 _atom_site_fract_y
 _atom_site_fract_z
 _atom_site_occupancy
  Ni  Ni0  1  0.50000000  0.00000000  0.50000000  1
  Ni  Ni1  1  0.00000000  0.00000000  0.00000000  1
  H  H0  1  0.18267900  0.80932600  0.58372300  1
  H  H1  1  0.68267900  0.19067400  0.91627700  1
  H  H2  1  0.81732100  0.19067400  0.41627700  1
  H  H3  1  0.31732100  0.80932600  0.08372300  1
  H  H4  1  0.20662700  0.66082400  0.73732600  1
  H  H5  1  0.70662700  0.33917600  0.76267400  1
  H  H6  1  0.79337300  0.33917600  0.26267400  1
  H  H7  1  0.29337300  0.66082400  0.23732600  1
  H  H8  1  0.18539100  0.58482700  0.59656100  1
  H  H9  1  0.68539100  0.41517300  0.90343900  1
  H  H10  1  0.81460900  0.41517300  0.40343900  1
  H  H11  1  0.31460900  0.58482700  0.09656100  1
  H  H12  1  0.05104300  0.60102700  0.70843500  1
  H  H13  1  0.55104300  0.39897300  0.79156500  1
  H  H14  1  0.94895700  0.39897300  0.29156500  1
  H  H15  1  0.44895700  0.60102700  0.20843500  1
  H  H16  1  0.47512600  0.06103000  0.84975800  1
  H  H17  1  0.97512600  0.93897000  0.65024200  1
  H  H18  1  0.52487400  0.93897000  0.15024200  1
  H  H19  1  0.02487400  0.06103000  0.34975800  1
  H  H20  1  0.38231700  0.93993500  0.67850700  1
  H  H21  1  0.88231700  0.06006500  0.82149300  1
  H  H22  1  0.61768300  0.06006500  0.32149300  1
  H  H23  1  0.11768300  0.93993500  0.17850700  1
  H  H24  1  0.40541600  0.12047200  0.12808400  1
  H  H25  1  0.90541600  0.87952800  0.37191600  1
  H  H26  1  0.59458400  0.87952800  0.87191600  1
  H  H27  1  0.09458400  0.12047200  0.62808400  1
  H  H28  1  0.03642700  0.96466200  0.39354100  1
  H  H29  1  0.53642700  0.03533800  0.10645900  1
  H  H30  1  0.96357300  0.03533800  0.60645900  1
  H  H31  1  0.46357300  0.96466200  0.89354100  1
  H  H32  1  0.53198000  0.61089200  0.31233600  1
  H  H33  1  0.03198000  0.38910800  0.18766400  1
  H  H34  1  0.46802000  0.38910800  0.68766400  1
  H  H35  1  0.96802000  0.61089200  0.81233600  1
  H  H36  1  0.69469300  0.92595700  0.48862800  1
  H  H37  1  0.19469300  0.07404300  0.01137200  1
  H  H38  1  0.30530700  0.07404300  0.51137200  1
  H  H39  1  0.80530700  0.92595700  0.98862800  1
  Se  Se0  1  0.32101600  0.27653700  0.92871500  1
  Se  Se1  1  0.82101600  0.72346300  0.57128500  1
  Se  Se2  1  0.67898400  0.72346300  0.07128500  1
  Se  Se3  1  0.17898400  0.27653700  0.42871500  1
  N  N0  1  0.16558500  0.68253500  0.64896700  1
  N  N1  1  0.66558500  0.31746500  0.85103300  1
  N  N2  1  0.83441500  0.31746500  0.35103300  1
  N  N3  1  0.33441500  0.68253500  0.14896700  1
  O  O0  1  0.24985500  0.44617900  0.93837600  1
  O  O1  1  0.74985500  0.55382100  0.56162400  1
  O  O2  1  0.75014500  0.55382100  0.06162400  1
  O  O3  1  0.25014500  0.44617900  0.43837600  1
  O  O4  1  0.36933900  0.23627900  0.10841500  1
  O  O5  1  0.86933900  0.76372100  0.39158500  1
  O  O6  1  0.63066100  0.76372100  0.89158500  1
  O  O7  1  0.13066100  0.23627900  0.60841500  1
  O  O8  1  0.48690900  0.44936200  0.76103500  1
  O  O9  1  0.98690900  0.55063800  0.73896500  1
  O  O10  1  0.51309100  0.55063800  0.23896500  1
  O  O11  1  0.01309100  0.44936200  0.26103500  1
  O  O12  1  0.25311400  0.06562800  0.95466300  1
  O  O13  1  0.75311400  0.93437200  0.54533700  1
  O  O14  1  0.74688600  0.93437200  0.04533700  1
  O  O15  1  0.24688600  0.06562800  0.45466300  1
  O  O16  1  0.36582600  0.70833800  0.49341200  1
  O  O17  1  0.86582600  0.29166200  0.00658800  1
  O  O18  1  0.63417400  0.29166200  0.50658800  1
  O  O19  1  0.13417400  0.70833800  0.99341200  1
  O  O20  1  0.59767700  0.95238000  0.39540400  1
  O  O21  1  0.09767700  0.04762000  0.10459600  1
  O  O22  1  0.40232300  0.04762000  0.60459600  1
  O  O23  1  0.90232300  0.95238000  0.89540400  1
  O  O24  1  0.45090200  0.73230800  0.50230900  1
  O  O25  1  0.95090200  0.26769200  0.99769100  1
  O  O26  1  0.54909800  0.26769200  0.49769100  1
  O  O27  1  0.04909800  0.73230800  0.00230900  1
loop_
_geom_bond_atom_site_label_1
_geom_bond_atom_site_label_2
_geom_bond_distance
_geom_bond_site_symmetry_2
Ni0 O20 1.823000 1_545
Ni0 O22 1.823000 1_555
Ni0 O26 2.100699 1_555
Ni0 O24 2.100699 1_545
Ni1 O21 1.823000 1_555
Ni1 O23 1.823000 1_444
Ni1 O27 2.100699 1_545
Ni1 O25 2.100699 1_454
H0 N0 1.024259 1_555
H1 N1 1.024259 1_555
H2 N2 1.024259 1_555
H3 N3 1.024259 1_555
H4 N0 1.023510 1_555
H5 N1 1.023510 1_555
H6 N2 1.023510 1_555
H7 N3 1.023510 1_555
H8 N0 1.025158 1_555
H9 N1 1.025158 1_555
H10 N2 1.025158 1_555
H11 N3 1.025158 1_555
H12 O9 1.013057 1_455
H13 O8 1.013057 1_555
H14 O11 1.013057 1_655
H15 O10 1.013057 1_555
H16 H31 0.753276 1_545
H17 H30 0.753276 1_565
H18 H29 0.753276 1_565
H19 H28 0.753276 1_545
H20 O22 0.975380 1_565
H21 O23 0.975380 1_545
H22 O20 0.975380 1_545
H23 O21 0.975380 1_565
H24 O4 0.980359 1_555
H25 O5 0.980359 1_555
H26 O6 0.980359 1_555
H27 O7 0.980359 1_555
H32 O10 0.971529 1_555
H33 O11 0.971529 1_555
H34 O8 0.971529 1_555
H35 O9 0.971529 1_555
H36 O13 1.017309 1_555
H37 O12 1.017309 1_554
H38 O15 1.017309 1_555
H39 O14 1.017309 1_556
O0 Se0 1.642927 1_555
O1 Se1 1.642927 1_555
O2 Se2 1.642927 1_555
O3 Se3 1.642927 1_555
O4 Se0 1.838074 1_554
O5 Se1 1.838074 1_555
O6 Se2 1.838074 1_556
O7 Se3 1.838074 1_555
O12 Se0 1.807196 1_555
O13 Se1 1.807196 1_555
O14 Se2 1.807196 1_555
O15 Se3 1.807196 1_555
O16 O24 1.244708 1_555
O17 O25 1.244708 1_554
O18 O26 1.244708 1_555
O19 O27 1.244708 1_556
