# generated using pymatgen
data_LiV2Zn2(SiO5)2
_symmetry_space_group_name_H-M   'P 1'
_cell_length_a   5.63057647
_cell_length_b   7.46811266
_cell_length_c   8.40140225
_cell_angle_alpha   91.42597025
_cell_angle_beta   37.53308461
_cell_angle_gamma   107.78567130
_symmetry_Int_Tables_number   1
_chemical_formula_structural   LiV2Zn2(SiO5)2
_chemical_formula_sum   'Li1 V2 Zn2 Si2 O10'
_cell_volume   190.00949342
_cell_formula_units_Z   1
loop_
 _symmetry_equiv_pos_site_id
 _symmetry_equiv_pos_as_xyz
  1  'x, y, z'
loop_
 _atom_site_type_symbol
 _atom_site_label
 _atom_site_symmetry_multiplicity
 _atom_site_fract_x
 _atom_site_fract_y
 _atom_site_fract_z
 _atom_site_occupancy
  Li  Li0  1  0.49616100  0.99852000  0.00463600  1
  V  V0  1  0.50127100  0.49907200  0.50046500  1
  V  V1  1  0.50117000  0.99928200  0.50020700  1
  Zn  Zn0  1  0.44952100  0.29086700  0.22454500  1
  Zn  Zn1  1  0.55328500  0.70788100  0.77598100  1
  Si  Si0  1  0.53484400  0.25648500  0.81019700  1
  Si  Si1  1  0.46836300  0.74154600  0.19003900  1
  O  O0  1  0.76946400  0.14688800  0.57466800  1
  O  O1  1  0.48327200  0.43228900  0.74845400  1
  O  O2  1  0.23388700  0.85182000  0.42485800  1
  O  O3  1  0.52043800  0.56616000  0.25190600  1
  O  O4  1  0.19047600  0.67256000  0.16226900  1
  O  O5  1  0.92355400  0.92826200  0.88055300  1
  O  O6  1  0.81193500  0.32512400  0.83856000  1
  O  O7  1  0.07874500  0.06983000  0.11969200  1
  O  O8  1  0.45544800  0.74588200  0.60483000  1
  O  O9  1  0.54755200  0.25244500  0.39541500  1
loop_
_geom_bond_atom_site_label_1
_geom_bond_atom_site_label_2
_geom_bond_distance
_geom_bond_site_symmetry_2
Li0 O7 1.969189 1_565
Li0 O5 1.979528 1_554
Li0 O4 2.151232 1_555
Li0 O6 2.154717 1_564
O0 Si0 1.662731 1_555
O0 Zn0 2.061341 1_655
O0 V1 2.082242 1_545
O1 Si0 1.607131 1_555
O1 Zn1 2.017453 1_555
O1 V0 2.070208 1_555
O2 Si1 1.663044 1_555
O2 Zn1 2.062814 1_455
O2 V1 2.083792 1_555
O3 Si1 1.606839 1_555
O3 Zn0 2.014850 1_555
O3 V0 2.070034 1_555
O4 Si1 1.687766 1_555
O4 Zn1 1.993429 1_554
O4 V0 2.105992 1_455
O5 Si1 1.643714 1_556
O5 V1 1.901990 1_655
O6 Si0 1.687805 1_555
O6 Zn0 1.993155 1_556
O6 V0 2.106803 1_655
O7 Si0 1.643797 1_554
O7 V1 1.903107 1_445
O8 Zn1 1.955428 1_555
O8 V1 1.961225 1_555
O8 V0 2.020908 1_555
O9 Zn0 1.954938 1_555
O9 V1 1.958164 1_545
O9 V0 2.021571 1_555
