# generated using pymatgen
data_MgAlCr3FeO8
_symmetry_space_group_name_H-M   'P 1'
_cell_length_a   5.91113704
_cell_length_b   5.91113704
_cell_length_c   5.91113796
_cell_angle_alpha   61.04345699
_cell_angle_beta   61.04345699
_cell_angle_gamma   61.04345433
_symmetry_Int_Tables_number   1
_chemical_formula_structural   MgAlCr3FeO8
_chemical_formula_sum   'Mg1 Al1 Cr3 Fe1 O8'
_cell_volume   149.48053407
_cell_formula_units_Z   1
loop_
 _symmetry_equiv_pos_site_id
 _symmetry_equiv_pos_as_xyz
  1  'x, y, z'
loop_
 _atom_site_type_symbol
 _atom_site_label
 _atom_site_symmetry_multiplicity
 _atom_site_fract_x
 _atom_site_fract_y
 _atom_site_fract_z
 _atom_site_occupancy
  Mg  Mg0  1  0.12419100  0.12419100  0.12419100  1
  Al  Al0  1  0.49941100  0.49941100  0.49941100  1
  Cr  Cr0  1  0.00069500  0.50000300  0.50000300  1
  Cr  Cr1  1  0.50000300  0.50000300  0.00069500  1
  Cr  Cr2  1  0.50000300  0.00069500  0.50000300  1
  Fe  Fe0  1  0.87600400  0.87600400  0.87600400  1
  O  O0  1  0.29073100  0.72893900  0.72893900  1
  O  O1  1  0.72893900  0.72893900  0.29073100  1
  O  O2  1  0.72893900  0.29073100  0.72893900  1
  O  O3  1  0.73977400  0.73977400  0.73977400  1
  O  O4  1  0.71359400  0.26816400  0.26816400  1
  O  O5  1  0.26816400  0.26816400  0.71359400  1
  O  O6  1  0.26816400  0.71359400  0.26816400  1
  O  O7  1  0.26138800  0.26138800  0.26138800  1
loop_
_geom_bond_atom_site_label_1
_geom_bond_atom_site_label_2
_geom_bond_distance
_geom_bond_site_symmetry_2
Mg0 O7 1.970703 1_555
Mg0 O6 2.010103 1_545
Mg0 O4 2.010103 1_455
Mg0 O5 2.010103 1_554
Al0 O1 1.935099 1_555
Al0 O2 1.935100 1_555
Al0 O0 1.935100 1_555
Al0 O5 1.948765 1_555
Al0 O6 1.948766 1_555
Al0 O4 1.948766 1_555
Cr0 O7 2.017605 1_555
Cr0 O3 2.026857 1_455
Cr0 O6 2.032567 1_555
Cr0 O5 2.032568 1_555
Cr0 O2 2.034777 1_455
Cr0 O1 2.034777 1_455
Cr1 O7 2.017605 1_555
Cr1 O3 2.026857 1_554
Cr1 O4 2.032568 1_555
Cr1 O6 2.032568 1_555
Cr1 O2 2.034777 1_554
Cr1 O0 2.034777 1_554
Cr2 O7 2.017605 1_555
Cr2 O3 2.026857 1_545
Cr2 O4 2.032567 1_555
Cr2 O5 2.032568 1_555
Cr2 O0 2.034777 1_545
Cr2 O1 2.034777 1_545
Fe0 O3 1.956813 1_555
Fe0 O2 2.031241 1_565
Fe0 O0 2.031241 1_655
Fe0 O1 2.031241 1_556
