# generated using pymatgen
data_Mg14NbSiO16
_symmetry_space_group_name_H-M   'P 1'
_cell_length_a   8.66742922
_cell_length_b   8.64828899
_cell_length_c   4.30281827
_cell_angle_alpha   90.00000000
_cell_angle_beta   90.00000000
_cell_angle_gamma   90.00000000
_symmetry_Int_Tables_number   1
_chemical_formula_structural   Mg14NbSiO16
_chemical_formula_sum   'Mg14 Nb1 Si1 O16'
_cell_volume   322.53251369
_cell_formula_units_Z   1
loop_
 _symmetry_equiv_pos_site_id
 _symmetry_equiv_pos_as_xyz
  1  'x, y, z'
loop_
 _atom_site_type_symbol
 _atom_site_label
 _atom_site_symmetry_multiplicity
 _atom_site_fract_x
 _atom_site_fract_y
 _atom_site_fract_z
 _atom_site_occupancy
  Mg  Mg0  1  0.50000000  0.00000000  -0.00000000  1
  Mg  Mg1  1  0.50000000  0.50000000  -0.00000000  1
  Mg  Mg2  1  -0.00000000  0.24833328  0.50000000  1
  Mg  Mg3  1  -0.00000000  0.75166672  0.50000000  1
  Mg  Mg4  1  0.50000000  0.24967875  0.50000000  1
  Mg  Mg5  1  0.50000000  0.75032125  0.50000000  1
  Mg  Mg6  1  0.25373027  0.00000000  0.50000000  1
  Mg  Mg7  1  0.25399651  0.50000000  0.50000000  1
  Mg  Mg8  1  0.74626973  0.00000000  0.50000000  1
  Mg  Mg9  1  0.74600349  0.50000000  0.50000000  1
  Mg  Mg10  1  0.25393939  0.24860716  -0.00000000  1
  Mg  Mg11  1  0.25393939  0.75139284  -0.00000000  1
  Mg  Mg12  1  0.74606061  0.24860716  0.00000000  1
  Mg  Mg13  1  0.74606061  0.75139284  0.00000000  1
  Nb  Nb0  1  -0.00000000  0.50000000  -0.00000000  1
  Si  Si0  1  -0.00000000  0.00000000  -0.00000000  1
  O  O0  1  0.26505303  0.00000000  -0.00000000  1
  O  O1  1  0.26237881  0.50000000  -0.00000000  1
  O  O2  1  0.73494697  0.00000000  0.00000000  1
  O  O3  1  0.73762119  0.50000000  -0.00000000  1
  O  O4  1  0.24899020  0.24989647  0.50000000  1
  O  O5  1  0.24899020  0.75010353  0.50000000  1
  O  O6  1  0.75100980  0.24989647  0.50000000  1
  O  O7  1  0.75100980  0.75010353  0.50000000  1
  O  O8  1  -0.00000000  0.00000000  0.50000000  1
  O  O9  1  -0.00000000  0.50000000  0.50000000  1
  O  O10  1  0.50000000  0.00000000  0.50000000  1
  O  O11  1  0.50000000  0.50000000  0.50000000  1
  O  O12  1  -0.00000000  0.24192872  -0.00000000  1
  O  O13  1  -0.00000000  0.75807128  0.00000000  1
  O  O14  1  0.50000000  0.25100868  0.00000000  1
  O  O15  1  0.50000000  0.74899132  -0.00000000  1
loop_
_geom_bond_atom_site_label_1
_geom_bond_atom_site_label_2
_geom_bond_distance
_geom_bond_site_symmetry_2
Mg0 O2 2.036386 1_555
Mg0 O0 2.036386 1_555
Mg0 O10 2.151409 1_555
Mg0 O10 2.151409 1_554
Mg0 O15 2.170796 1_545
Mg0 O14 2.170796 1_555
Mg1 O1 2.059565 1_555
Mg1 O3 2.059565 1_555
Mg1 O11 2.151409 1_554
Mg1 O11 2.151409 1_555
Mg1 O15 2.153349 1_555
Mg1 O14 2.153349 1_555
Mg2 O8 2.147658 1_555
Mg2 O12 2.152122 1_555
Mg2 O12 2.152122 1_556
Mg2 O4 2.158147 1_555
Mg2 O6 2.158147 1_455
Mg2 O9 2.176487 1_555
Mg3 O8 2.147658 1_565
Mg3 O13 2.152122 1_555
Mg3 O13 2.152122 1_556
Mg3 O5 2.158147 1_555
Mg3 O7 2.158147 1_455
Mg3 O9 2.176487 1_555
Mg4 O14 2.151440 1_556
Mg4 O14 2.151440 1_555
Mg4 O10 2.159294 1_555
Mg4 O11 2.164851 1_555
Mg4 O6 2.175610 1_555
Mg4 O4 2.175610 1_555
Mg5 O15 2.151440 1_556
Mg5 O15 2.151440 1_555
Mg5 O10 2.159294 1_565
Mg5 O11 2.164851 1_555
Mg5 O7 2.175610 1_555
Mg5 O5 2.175610 1_555
Mg6 O10 2.134525 1_555
Mg6 O0 2.153646 1_555
Mg6 O0 2.153646 1_556
Mg6 O5 2.161567 1_545
Mg6 O4 2.161567 1_555
Mg6 O8 2.199189 1_555
Mg7 O11 2.132218 1_555
Mg7 O1 2.152636 1_556
Mg7 O1 2.152636 1_555
Mg7 O4 2.163403 1_555
Mg7 O5 2.163403 1_555
Mg7 O9 2.201497 1_555
Mg8 O10 2.134525 1_555
Mg8 O2 2.153646 1_555
Mg8 O2 2.153646 1_556
Mg8 O6 2.161567 1_555
Mg8 O7 2.161567 1_545
Mg8 O8 2.199189 1_655
Mg9 O11 2.132218 1_555
Mg9 O3 2.152636 1_556
Mg9 O3 2.152636 1_555
Mg9 O6 2.163403 1_555
Mg9 O7 2.163403 1_555
Mg9 O9 2.201497 1_655
Mg10 O14 2.132814 1_555
Mg10 O4 2.151866 1_555
Mg10 O4 2.151866 1_554
Mg10 O0 2.152183 1_555
Mg10 O1 2.175348 1_555
Mg10 O12 2.201759 1_555
Mg11 O15 2.132814 1_555
Mg11 O5 2.151866 1_555
Mg11 O5 2.151866 1_554
Mg11 O0 2.152183 1_565
Mg11 O1 2.175348 1_555
Mg11 O13 2.201759 1_555
Mg12 O14 2.132814 1_555
Mg12 O6 2.151866 1_555
Mg12 O6 2.151866 1_554
Mg12 O2 2.152183 1_555
Mg12 O3 2.175348 1_555
Mg12 O12 2.201759 1_655
Mg13 O15 2.132814 1_555
Mg13 O7 2.151866 1_555
Mg13 O7 2.151866 1_554
Mg13 O2 2.152183 1_565
Mg13 O3 2.175348 1_555
Mg13 O13 2.201759 1_655
Nb0 O9 2.151409 1_554
Nb0 O9 2.151409 1_555
Nb0 O12 2.231875 1_555
Nb0 O13 2.231875 1_555
Nb0 O3 2.274150 1_455
Nb0 O1 2.274150 1_555
O0 Si0 2.297328 1_555
O2 Si0 2.297328 1_655
O8 Si0 2.151409 1_555
O8 Si0 2.151409 1_556
O12 Si0 2.092269 1_555
O13 Si0 2.092269 1_565
