# generated using pymatgen
data_Sr3Ca(PbO4)2
_symmetry_space_group_name_H-M   'P 1'
_cell_length_a   3.52520200
_cell_length_b   6.15233031
_cell_length_c   10.19959802
_cell_angle_alpha   89.74524703
_cell_angle_beta   90.00000000
_cell_angle_gamma   90.00000000
_symmetry_Int_Tables_number   1
_chemical_formula_structural   Sr3Ca(PbO4)2
_chemical_formula_sum   'Sr3 Ca1 Pb2 O8'
_cell_volume   221.20880793
_cell_formula_units_Z   1
loop_
 _symmetry_equiv_pos_site_id
 _symmetry_equiv_pos_as_xyz
  1  'x, y, z'
loop_
 _atom_site_type_symbol
 _atom_site_label
 _atom_site_symmetry_multiplicity
 _atom_site_fract_x
 _atom_site_fract_y
 _atom_site_fract_z
 _atom_site_occupancy
  Sr  Sr0  1  0.50000000  0.42838100  0.82344500  1
  Sr  Sr1  1  0.50000000  0.07518100  0.31369300  1
  Sr  Sr2  1  0.50000000  0.92736100  0.67967600  1
  Ca  Ca0  1  0.50000000  0.57383500  0.18340200  1
  Pb  Pb0  1  0.00000000  0.50196500  0.49646200  1
  Pb  Pb1  1  0.00000000  0.99823100  0.00326400  1
  O  O0  1  0.50000000  0.72897300  0.44692800  1
  O  O1  1  0.50000000  0.27148100  0.54659300  1
  O  O2  1  0.50000000  0.23309100  0.05711100  1
  O  O3  1  0.50000000  0.77125300  0.95566200  1
  O  O4  1  0.00000000  0.84689900  0.19414900  1
  O  O5  1  0.00000000  0.13336200  0.80828500  1
  O  O6  1  0.00000000  0.37638000  0.29813800  1
  O  O7  1  0.00000000  0.63360700  0.69319000  1
loop_
_geom_bond_atom_site_label_1
_geom_bond_atom_site_label_2
_geom_bond_distance
_geom_bond_site_symmetry_2
Ca0 O6 2.437087 1_555
Ca0 O6 2.437087 1_655
Ca0 O4 2.437775 1_555
Ca0 O4 2.437775 1_655
Ca0 O2 2.465365 1_555
Ca0 O3 2.616444 1_554
Ca0 O0 2.856290 1_555
O0 Pb0 2.303543 1_555
O0 Pb0 2.303543 1_655
O0 Sr1 2.521473 1_565
O0 Sr2 2.674150 1_555
O1 Pb0 2.317870 1_555
O1 Pb0 2.317870 1_655
O1 Sr2 2.509829 1_545
O1 Sr1 2.669643 1_555
O1 Sr0 2.988273 1_555
O2 Pb1 2.345911 1_545
O2 Pb1 2.345911 1_645
O2 Sr0 2.664250 1_554
O2 Sr1 2.787489 1_555
O3 Pb1 2.301864 1_556
O3 Pb1 2.301864 1_656
O3 Sr0 2.508733 1_555
O3 Sr2 2.970236 1_555
O4 Pb1 2.154377 1_555
O4 Sr1 2.565387 1_565
O4 Sr1 2.565387 1_465
O5 Pb1 2.152076 1_546
O5 Sr0 2.535269 1_455
O5 Sr0 2.535269 1_555
O5 Sr2 2.539395 1_545
O5 Sr2 2.539395 1_445
O6 Pb0 2.168569 1_555
O6 Sr1 2.561876 1_555
O6 Sr1 2.561876 1_455
O7 Pb0 2.167170 1_555
O7 Sr2 2.527801 1_455
O7 Sr2 2.527801 1_555
O7 Sr0 2.539900 1_455
O7 Sr0 2.539900 1_555
