# generated using pymatgen
data_TlP3(NO6)2
_symmetry_space_group_name_H-M   'P 1'
_cell_length_a   11.73209994
_cell_length_b   11.73209994
_cell_length_c   11.73209994
_cell_angle_alpha   140.19938611
_cell_angle_beta   140.19938611
_cell_angle_gamma   57.55068411
_symmetry_Int_Tables_number   1
_chemical_formula_structural   TlP3(NO6)2
_chemical_formula_sum   'Tl2 P6 N4 O24'
_cell_volume   655.97282612
_cell_formula_units_Z   2
loop_
 _symmetry_equiv_pos_site_id
 _symmetry_equiv_pos_as_xyz
  1  'x, y, z'
loop_
 _atom_site_type_symbol
 _atom_site_label
 _atom_site_symmetry_multiplicity
 _atom_site_fract_x
 _atom_site_fract_y
 _atom_site_fract_z
 _atom_site_occupancy
  Tl  Tl0  1  0.50000000  0.50000000  0.00000000  1
  Tl  Tl1  1  0.25000000  0.75000000  0.50000000  1
  P  P0  1  0.00000000  0.00000000  0.00000000  1
  P  P1  1  0.33870000  0.33870000  0.00000000  1
  P  P2  1  0.66130000  0.66130000  0.00000000  1
  P  P3  1  0.08870000  0.58870000  0.50000000  1
  P  P4  1  0.41130000  0.91130000  0.50000000  1
  P  P5  1  0.75000000  0.25000000  0.50000000  1
  N  N0  1  0.77323300  0.77323300  0.00000000  1
  N  N1  1  0.22676700  0.22676700  0.00000000  1
  N  N2  1  0.97676700  0.47676700  0.50000000  1
  N  N3  1  0.52323300  0.02323300  0.50000000  1
  O  O0  1  0.90200800  0.97406000  0.78890000  1
  O  O1  1  0.21201900  0.31905500  0.79141700  1
  O  O2  1  0.60852700  0.70346300  0.84350100  1
  O  O3  1  0.89003900  0.54653700  0.40506400  1
  O  O4  1  0.22236100  0.93094500  0.39296400  1
  O  O5  1  0.56484000  0.27594000  0.42794800  1
  O  O6  1  0.52763900  0.42060200  0.20858300  1
  O  O7  1  0.85996100  0.76502600  0.15649900  1
  O  O8  1  0.18516000  0.11310800  0.21110000  1
  O  O9  1  0.14147300  0.48497400  0.59493600  1
  O  O10  1  0.53798100  0.82939800  0.60703600  1
  O  O11  1  0.84799200  0.13689200  0.57205200  1
  O  O12  1  0.88689200  0.09799200  0.07205200  1
  O  O13  1  0.23497400  0.39147300  0.09493600  1
  O  O14  1  0.57939800  0.78798100  0.10703600  1
  O  O15  1  0.45346300  0.85852700  0.34350100  1
  O  O16  1  0.72406000  0.15200800  0.28890000  1
  O  O17  1  0.06905500  0.46201900  0.29141700  1
  O  O18  1  0.68094500  0.47236100  0.89296400  1
  O  O19  1  0.02594000  0.81484000  0.92794800  1
  O  O20  1  0.29653700  0.14003900  0.90506400  1
  O  O21  1  0.51502600  0.10996100  0.65649900  1
  O  O22  1  0.86310800  0.43516000  0.71110000  1
  O  O23  1  0.17060200  0.77763900  0.70858300  1
loop_
_geom_bond_atom_site_label_1
_geom_bond_atom_site_label_2
_geom_bond_distance
_geom_bond_site_symmetry_2
N0 O2 1.308288 1_554
N0 O7 1.308292 1_555
N1 O13 1.308288 1_555
N1 O20 1.308291 1_554
N2 O9 1.308288 1_655
N2 O3 1.308291 1_555
N3 O15 1.308288 1_545
N3 O21 1.308292 1_555
O0 P0 1.546097 1_666
O1 P1 1.470689 1_556
O2 P2 1.821899 1_556
O3 P3 1.821887 1_655
O4 P4 1.470698 1_555
O5 P5 1.546097 1_555
O6 P1 1.470696 1_555
O7 P2 1.821888 1_555
O8 P0 1.546097 1_555
O9 P3 1.821899 1_555
O10 P4 1.470689 1_555
O11 P5 1.546097 1_555
O12 P0 1.546097 1_655
O13 P1 1.821899 1_555
O14 P2 1.470689 1_555
O15 P4 1.821899 1_555
O16 P5 1.546097 1_555
O17 P3 1.470689 1_555
O18 P2 1.470698 1_556
O19 P0 1.546097 1_566
O20 P1 1.821887 1_556
O21 P4 1.821888 1_545
O22 P5 1.546097 1_555
O23 P3 1.470696 1_555
