# generated using pymatgen
data_LiP3
_symmetry_space_group_name_H-M   'P 1'
_cell_length_a   4.23433863
_cell_length_b   4.23433863
_cell_length_c   8.03860500
_cell_angle_alpha   90.00000000
_cell_angle_beta   90.00000000
_cell_angle_gamma   120.00000979
_symmetry_Int_Tables_number   1
_chemical_formula_structural   LiP3
_chemical_formula_sum   'Li2 P6'
_cell_volume   124.81950338
_cell_formula_units_Z   2
loop_
 _symmetry_equiv_pos_site_id
 _symmetry_equiv_pos_as_xyz
  1  'x, y, z'
loop_
 _atom_site_type_symbol
 _atom_site_label
 _atom_site_symmetry_multiplicity
 _atom_site_fract_x
 _atom_site_fract_y
 _atom_site_fract_z
 _atom_site_occupancy
  Li  Li0  1  0.33333300  0.66666700  0.25000000  1
  Li  Li1  1  0.66666700  0.33333300  0.75000000  1
  P  P0  1  0.33333300  0.66666700  0.60689500  1
  P  P1  1  0.66666700  0.33333300  0.39310500  1
  P  P2  1  0.66666700  0.33333300  0.10689500  1
  P  P3  1  0.33333300  0.66666700  0.89310500  1
  P  P4  1  0.00000000  0.00000000  0.25000000  1
  P  P5  1  0.00000000  0.00000000  0.75000000  1
loop_
_geom_bond_atom_site_label_1
_geom_bond_atom_site_label_2
_geom_bond_distance
_geom_bond_site_symmetry_2
Li0 P4 2.444694 1_565
Li0 P4 2.444698 1_555
Li0 P4 2.444698 1_665
Li0 P1 2.701827 1_455
Li0 P1 2.701827 1_565
Li0 P2 2.701827 1_455
Li0 P2 2.701827 1_565
Li0 P1 2.701834 1_555
Li0 P2 2.701834 1_555
Li0 P0 2.868938 1_555
Li0 P3 2.868938 1_554
Li1 P5 2.444694 1_655
Li1 P5 2.444698 1_665
Li1 P5 2.444698 1_555
Li1 P3 2.701827 1_545
Li1 P3 2.701827 1_655
Li1 P0 2.701827 1_545
Li1 P0 2.701827 1_655
Li1 P3 2.701834 1_555
Li1 P0 2.701834 1_555
Li1 P2 2.868938 1_556
Li1 P1 2.868938 1_555
P0 P3 2.300729 1_555
P0 P5 2.701827 1_565
P0 P5 2.701830 1_665
P0 P5 2.701830 1_555
P1 P2 2.300729 1_555
P1 P4 2.701827 1_655
P1 P4 2.701830 1_665
P1 P4 2.701830 1_555
P2 P4 2.701827 1_655
P2 P4 2.701830 1_665
P2 P4 2.701830 1_555
P3 P5 2.701827 1_565
P3 P5 2.701830 1_665
P3 P5 2.701830 1_555
