# generated using pymatgen
data_Li3MnCoO5
_symmetry_space_group_name_H-M   'P 1'
_cell_length_a   12.20644603
_cell_length_b   12.20644603
_cell_length_c   5.19364191
_cell_angle_alpha   85.92529178
_cell_angle_beta   85.92529178
_cell_angle_gamma   13.77011069
_symmetry_Int_Tables_number   1
_chemical_formula_structural   Li3MnCoO5
_chemical_formula_sum   'Li6 Mn2 Co2 O10'
_cell_volume   183.72197880
_cell_formula_units_Z   2
loop_
 _symmetry_equiv_pos_site_id
 _symmetry_equiv_pos_as_xyz
  1  'x, y, z'
loop_
 _atom_site_type_symbol
 _atom_site_label
 _atom_site_symmetry_multiplicity
 _atom_site_fract_x
 _atom_site_fract_y
 _atom_site_fract_z
 _atom_site_occupancy
  Li  Li0  1  0.50250500  0.50250500  0.51195500  1
  Li  Li1  1  0.10888400  0.10888400  0.28769200  1
  Li  Li2  1  0.70236900  0.70236900  0.09087700  1
  Li  Li3  1  0.28916200  0.28916200  0.91619300  1
  Li  Li4  1  0.89185000  0.89185000  0.69359500  1
  Li  Li5  1  0.79940100  0.79940100  0.40741200  1
  Mn  Mn0  1  0.00035700  0.00035700  0.00307700  1
  Mn  Mn1  1  0.39752100  0.39752100  0.20793700  1
  Co  Co0  1  0.60572300  0.60572300  0.77919400  1
  Co  Co1  1  0.20883200  0.20883200  0.57677400  1
  O  O0  1  0.45443600  0.45443600  0.88227200  1
  O  O1  1  0.04599100  0.04599100  0.69185600  1
  O  O2  1  0.64683600  0.64683600  0.46949500  1
  O  O3  1  0.24614800  0.24614800  0.26631600  1
  O  O4  1  0.85846500  0.85846500  0.06360100  1
  O  O5  1  0.54277700  0.54277700  0.13760400  1
  O  O6  1  0.14517700  0.14517700  0.93728700  1
  O  O7  1  0.74763900  0.74763900  0.74649500  1
  O  O8  1  0.35762100  0.35762100  0.51334100  1
  O  O9  1  0.94830700  0.94830700  0.31702900  1
loop_
_geom_bond_atom_site_label_1
_geom_bond_atom_site_label_2
_geom_bond_distance
_geom_bond_site_symmetry_2
Li0 O1 2.065428 1_565
Li0 O1 2.065428 1_655
Li0 O5 2.112142 1_555
Li0 O0 2.176150 1_555
Li0 O9 2.254325 1_545
Li0 O9 2.254325 1_455
Li1 O6 1.963810 1_554
Li1 O2 2.000793 1_455
Li1 O2 2.000793 1_545
Li1 O5 2.344084 1_545
Li1 O5 2.344084 1_455
Li1 O1 2.504336 1_555
Li2 O7 2.030274 1_554
Li2 O3 2.058076 1_655
Li2 O3 2.058076 1_565
Li2 O6 2.203908 1_654
Li2 O6 2.203908 1_564
Li2 O2 2.302055 1_555
Li3 O7 2.014388 1_545
Li3 O7 2.014388 1_455
Li3 O3 2.030299 1_556
Li3 O4 2.394314 1_456
Li3 O4 2.394314 1_546
Li3 O8 2.575596 1_555
Li4 O8 1.953724 1_655
Li4 O8 1.953724 1_565
Li4 O4 2.031006 1_556
Li4 O9 2.305261 1_555
Li4 O0 2.369634 1_655
Li4 O0 2.369634 1_565
Li5 O7 2.087826 1_555
Li5 O3 2.116472 1_655
Li5 O3 2.116472 1_565
Li5 O8 2.132161 1_565
Li5 O8 2.132161 1_655
Li5 O4 2.207223 1_555
Mn0 O1 1.892098 1_554
Mn0 O5 1.946595 1_545
Mn0 O5 1.946595 1_455
Mn0 O0 1.968130 1_544
Mn0 O0 1.968130 1_454
Mn0 O9 1.988896 1_445
Mn1 O8 1.797641 1_555
Mn1 O4 1.923735 1_545
Mn1 O4 1.923735 1_455
Mn1 O9 2.019193 1_455
Mn1 O9 2.019193 1_545
Mn1 O0 2.104676 1_554
Co0 O2 1.830477 1_555
Co0 O6 1.960141 1_655
Co0 O6 1.960141 1_565
Co0 O1 2.129984 1_565
Co0 O1 2.129984 1_655
Co0 O5 2.320773 1_556
Co1 O3 1.791393 1_555
Co1 O7 1.980282 1_455
Co1 O7 1.980282 1_545
Co1 O2 2.197554 1_545
Co1 O2 2.197554 1_455
Co1 O6 2.339338 1_555
