# generated using pymatgen
data_Cs2W3(S2O)4
_symmetry_space_group_name_H-M   'P 1'
_cell_length_a   19.98442400
_cell_length_b   7.31439100
_cell_length_c   7.69404801
_cell_angle_alpha   78.44092012
_cell_angle_beta   90.00000000
_cell_angle_gamma   90.00000000
_symmetry_Int_Tables_number   1
_chemical_formula_structural   Cs2W3(S2O)4
_chemical_formula_sum   'Cs4 W6 S16 O8'
_cell_volume   1101.85908305
_cell_formula_units_Z   2
loop_
 _symmetry_equiv_pos_site_id
 _symmetry_equiv_pos_as_xyz
  1  'x, y, z'
loop_
 _atom_site_type_symbol
 _atom_site_label
 _atom_site_symmetry_multiplicity
 _atom_site_fract_x
 _atom_site_fract_y
 _atom_site_fract_z
 _atom_site_occupancy
  Cs  Cs0  1  0.86583800  0.55203500  0.36930700  1
  Cs  Cs1  1  0.64977000  0.01765200  0.88474500  1
  Cs  Cs2  1  0.14977000  0.98234800  0.11525500  1
  Cs  Cs3  1  0.36583800  0.44796500  0.63069300  1
  W  W0  1  0.85887300  0.85425600  0.77847400  1
  W  W1  1  0.64702800  0.36512500  0.32737300  1
  W  W2  1  0.14702800  0.63487500  0.67262700  1
  W  W3  1  0.35887300  0.14574400  0.22152600  1
  W  W4  1  0.00575600  0.75861100  0.79275100  1
  W  W5  1  0.50575600  0.24138900  0.20724900  1
  S  S0  1  0.77538900  0.86903400  0.59042000  1
  S  S1  1  0.71873200  0.40833400  0.10864200  1
  S  S2  1  0.21873200  0.59166600  0.89135800  1
  S  S3  1  0.27538900  0.13096600  0.40958000  1
  S  S4  1  0.94138400  0.08797500  0.74311200  1
  S  S5  1  0.55364700  0.54331900  0.24470000  1
  S  S6  1  0.05364700  0.45668100  0.75530000  1
  S  S7  1  0.44138400  0.91202500  0.25688800  1
  S  S8  1  0.81803000  0.93954100  0.01845200  1
  S  S9  1  0.69321100  0.43361200  0.56331600  1
  S  S10  1  0.19321100  0.56638800  0.43668400  1
  S  S11  1  0.31803000  0.06045900  0.98154800  1
  S  S12  1  0.90213700  0.56112600  0.90226200  1
  S  S13  1  0.60214100  0.07102000  0.38004600  1
  S  S14  1  0.10214100  0.92898000  0.61995400  1
  S  S15  1  0.40213700  0.43887400  0.09773800  1
  O  O0  1  0.98349400  0.17797000  0.24728300  1
  O  O1  1  0.52004400  0.68927800  0.73893300  1
  O  O2  1  0.02004400  0.31072200  0.26106700  1
  O  O3  1  0.48349400  0.82203000  0.75271700  1
  O  O4  1  0.03148800  0.78349200  0.00728700  1
  O  O5  1  0.43753700  0.18367600  0.40324500  1
  O  O6  1  0.93753700  0.81632400  0.59675500  1
  O  O7  1  0.53148800  0.21650800  0.99271300  1
loop_
_geom_bond_atom_site_label_1
_geom_bond_atom_site_label_2
_geom_bond_distance
_geom_bond_site_symmetry_2
Cs0 O6 3.195034 1_555
Cs0 S0 3.621957 1_555
Cs0 S8 3.628693 1_555
Cs0 S12 3.653477 1_554
Cs0 O2 3.727609 1_655
Cs0 S9 3.789695 1_555
Cs0 S1 3.822890 1_555
Cs1 O7 2.979504 1_555
Cs1 S8 3.529325 1_546
Cs1 S9 3.620936 1_555
Cs1 S0 3.687632 1_545
Cs1 S1 3.873712 1_556
Cs1 S13 3.940809 1_555
Cs1 S13 4.022097 1_556
Cs2 O4 2.979504 1_555
Cs2 S11 3.529325 1_564
Cs2 S10 3.620936 1_555
Cs2 S3 3.687632 1_565
Cs2 S2 3.873712 1_554
Cs2 S14 3.940809 1_555
Cs2 S14 4.022097 1_554
Cs3 O5 3.195034 1_555
Cs3 S3 3.621957 1_555
Cs3 S11 3.628693 1_555
Cs3 S15 3.653477 1_556
Cs3 O1 3.727609 1_555
Cs3 S10 3.789695 1_555
Cs3 S2 3.822890 1_555
S0 W0 2.196817 1_555
S1 W1 2.184572 1_555
S2 W2 2.184572 1_555
S3 W3 2.196817 1_555
S4 W0 2.351392 1_545
S4 W4 2.689945 1_645
S5 W1 2.292102 1_555
S5 W5 2.476132 1_555
S6 W2 2.292102 1_555
S6 W4 2.476132 1_555
S7 W3 2.351392 1_565
S7 W5 2.689945 1_565
S8 W0 2.219493 1_554
S9 W1 2.182367 1_555
S10 W2 2.182367 1_555
S11 W3 2.219493 1_556
S12 W0 2.330948 1_555
S12 W4 2.568421 1_655
S13 W1 2.290676 1_555
S13 W5 2.523243 1_555
S14 W2 2.290676 1_555
S14 W4 2.523243 1_555
S15 W3 2.330948 1_555
S15 W5 2.568421 1_555
O0 O2 1.236482 1_655
O1 O3 1.236482 1_555
O4 W4 1.772737 1_554
O5 W5 2.013899 1_555
O5 W3 2.158386 1_555
O5 S7 2.473593 1_545
O6 W4 2.013899 1_655
O6 W0 2.158386 1_555
O6 S4 2.473593 1_565
O7 W5 1.772737 1_556
