# generated using pymatgen
data_Sr2CrCu2O7
_symmetry_space_group_name_H-M   'P 1'
_cell_length_a   13.07147991
_cell_length_b   13.07147991
_cell_length_c   13.07147991
_cell_angle_alpha   157.22760585
_cell_angle_beta   156.55826218
_cell_angle_gamma   32.91107777
_symmetry_Int_Tables_number   1
_chemical_formula_structural   Sr2CrCu2O7
_chemical_formula_sum   'Sr4 Cr2 Cu4 O14'
_cell_volume   343.61217814
_cell_formula_units_Z   2
loop_
 _symmetry_equiv_pos_site_id
 _symmetry_equiv_pos_as_xyz
  1  'x, y, z'
loop_
 _atom_site_type_symbol
 _atom_site_label
 _atom_site_symmetry_multiplicity
 _atom_site_fract_x
 _atom_site_fract_y
 _atom_site_fract_z
 _atom_site_occupancy
  Sr  Sr0  1  0.63658400  0.62480200  0.97092700  1
  Sr  Sr1  1  0.36341600  0.33434300  0.98821800  1
  Sr  Sr2  1  0.15387500  0.12480200  0.98821800  1
  Sr  Sr3  1  0.84612500  0.83434300  0.97092700  1
  Cr  Cr0  1  0.18163700  0.79777900  0.47941600  1
  Cr  Cr1  1  0.81836300  0.29777900  0.61614200  1
  Cu  Cu0  1  0.56330600  0.03867400  0.47988900  1
  Cu  Cu1  1  0.43669400  0.91658400  0.47536800  1
  Cu  Cu2  1  0.05878500  0.53867400  0.47536800  1
  Cu  Cu3  1  0.94121500  0.41658400  0.47988900  1
  O  O0  1  0.85879000  0.65404700  0.01283700  1
  O  O1  1  0.14121000  0.15404700  0.79525700  1
  O  O2  1  0.32600900  0.30334500  0.47842300  1
  O  O3  1  0.67399100  0.15241400  0.97733600  1
  O  O4  1  0.32492200  0.80334500  0.97733600  1
  O  O5  1  0.67507800  0.65241400  0.47842300  1
  O  O6  1  0.82783800  0.80551000  0.47753600  1
  O  O7  1  0.17216200  0.64969800  0.97767200  1
  O  O8  1  0.82797500  0.30551000  0.97767200  1
  O  O9  1  0.17202500  0.14969800  0.47753600  1
  O  O10  1  0.22928500  0.64610100  0.50291600  1
  O  O11  1  0.77071500  0.27363000  0.41681600  1
  O  O12  1  0.64318500  0.14610100  0.41681600  1
  O  O13  1  0.35681500  0.77363000  0.50291600  1
loop_
_geom_bond_atom_site_label_1
_geom_bond_atom_site_label_2
_geom_bond_distance
_geom_bond_site_symmetry_2
Cr0 O13 1.764046 1_555
Cr0 O10 1.764056 1_555
Cr0 O1 1.851253 1_565
Cr0 O0 1.868170 1_455
Cr1 O11 1.764045 1_555
Cr1 O12 1.764056 1_555
Cr1 O0 1.851253 1_556
Cr1 O1 1.868170 1_655
Cu0 O6 1.890496 1_545
Cu0 O8 1.890829 1_555
Cu0 O2 1.893670 1_555
Cu0 O4 1.895987 1_544
Cu1 O7 1.890499 1_554
Cu1 O9 1.890832 1_565
Cu1 O3 1.893673 1_565
Cu1 O5 1.895993 1_555
Cu2 O8 1.890499 1_454
Cu2 O6 1.890826 1_455
Cu2 O4 1.893670 1_555
Cu2 O2 1.895987 1_555
Cu3 O9 1.890502 1_655
Cu3 O7 1.890829 1_655
Cu3 O5 1.893669 1_555
Cu3 O3 1.895990 1_554
O0 Sr0 2.727838 1_554
O0 Sr3 2.727838 1_554
O1 Sr1 2.727838 1_555
O1 Sr2 2.727838 1_555
O2 Sr2 2.520362 1_554
O2 Sr0 2.526365 1_555
O3 Sr3 2.520362 1_545
O3 Sr1 2.526365 1_555
O4 Sr0 2.520362 1_555
O4 Sr2 2.526365 1_565
O5 Sr1 2.520362 1_554
O5 Sr3 2.526365 1_555
O6 Sr0 2.524621 1_554
O6 Sr2 2.535376 1_665
O7 Sr1 2.524621 1_555
O7 Sr3 2.535376 1_455
O8 Sr2 2.524610 1_655
O8 Sr0 2.535371 1_555
O9 Sr3 2.524613 1_444
O9 Sr1 2.535368 1_555
O10 Sr0 2.595335 1_555
O10 Sr2 2.689833 1_554
O10 Sr2 2.878381 1_565
O10 Sr0 3.106742 1_454
O11 Sr1 2.595343 1_554
O11 Sr3 2.689836 1_544
O11 Sr3 2.878387 1_555
O11 Sr1 3.106744 1_655
O12 Sr2 2.595335 1_554
O12 Sr0 2.689833 1_544
O12 Sr0 2.878381 1_555
O12 Sr2 3.106742 1_655
O13 Sr3 2.595338 1_555
O13 Sr1 2.689836 1_554
O13 Sr1 2.878388 1_565
O13 Sr3 3.106749 1_454
