# generated using pymatgen
data_Ba2HgS3
_symmetry_space_group_name_H-M   'P 1'
_cell_length_a   4.39295778
_cell_length_b   9.02360136
_cell_length_c   17.46974988
_cell_angle_alpha   90.00000000
_cell_angle_beta   90.00000000
_cell_angle_gamma   90.00000000
_symmetry_Int_Tables_number   1
_chemical_formula_structural   Ba2HgS3
_chemical_formula_sum   'Ba8 Hg4 S12'
_cell_volume   692.50612264
_cell_formula_units_Z   4
loop_
 _symmetry_equiv_pos_site_id
 _symmetry_equiv_pos_as_xyz
  1  'x, y, z'
loop_
 _atom_site_type_symbol
 _atom_site_label
 _atom_site_symmetry_multiplicity
 _atom_site_fract_x
 _atom_site_fract_y
 _atom_site_fract_z
 _atom_site_occupancy
  Ba  Ba0  1  0.25000000  0.75959849  0.53971382  1
  Ba  Ba1  1  0.25000000  0.92180760  0.28445751  1
  Ba  Ba2  1  0.75000000  0.57819240  0.78445751  1
  Ba  Ba3  1  0.25000000  0.42180760  0.21554249  1
  Ba  Ba4  1  0.25000000  0.25959849  0.96028618  1
  Ba  Ba5  1  0.75000000  0.74040151  0.03971382  1
  Ba  Ba6  1  0.75000000  0.24040151  0.46028618  1
  Ba  Ba7  1  0.75000000  0.07819240  0.71554249  1
  Hg  Hg0  1  0.75000000  0.12390345  0.13299486  1
  Hg  Hg1  1  0.25000000  0.87609655  0.86700514  1
  Hg  Hg2  1  0.75000000  0.62390345  0.36700514  1
  Hg  Hg3  1  0.25000000  0.37609655  0.63299486  1
  S  S0  1  0.25000000  0.31416550  0.77729574  1
  S  S1  1  0.75000000  0.68583450  0.22270426  1
  S  S2  1  0.25000000  0.81416550  0.72270426  1
  S  S3  1  0.75000000  0.18583450  0.27729574  1
  S  S4  1  0.25000000  0.48499616  0.40375103  1
  S  S5  1  0.75000000  0.51500384  0.59624897  1
  S  S6  1  0.25000000  0.98499616  0.09624897  1
  S  S7  1  0.75000000  0.01500384  0.90375103  1
  S  S8  1  0.25000000  0.11776863  0.57226487  1
  S  S9  1  0.75000000  0.38223137  0.07226487  1
  S  S10  1  0.25000000  0.61776863  0.92773513  1
  S  S11  1  0.75000000  0.88223137  0.42773513  1
loop_
_geom_bond_atom_site_label_1
_geom_bond_atom_site_label_2
_geom_bond_distance
_geom_bond_site_symmetry_2
Ba0 S11 3.142600 1_555
Ba0 S11 3.142600 1_455
Ba0 S2 3.234496 1_555
Ba0 S5 3.266708 1_455
Ba0 S5 3.266708 1_555
Ba0 S8 3.281630 1_565
Ba0 S4 3.432454 1_555
Ba1 S3 3.242893 1_565
Ba1 S3 3.242893 1_465
Ba1 S1 3.243824 1_555
Ba1 S1 3.243824 1_455
Ba1 S6 3.337030 1_555
Ba1 S11 3.349207 1_555
Ba1 S11 3.349207 1_455
Ba2 S0 3.242893 1_655
Ba2 S0 3.242893 1_555
Ba2 S2 3.243824 1_555
Ba2 S2 3.243824 1_655
Ba2 S5 3.337030 1_555
Ba2 S10 3.349207 1_555
Ba2 S10 3.349207 1_655
Ba3 S1 3.242893 1_555
Ba3 S1 3.242893 1_455
Ba3 S3 3.243824 1_555
Ba3 S3 3.243824 1_455
Ba3 S4 3.337030 1_555
Ba3 S9 3.349207 1_455
Ba3 S9 3.349207 1_555
Ba4 S9 3.142600 1_456
Ba4 S9 3.142600 1_556
Ba4 S0 3.234496 1_555
Ba4 S7 3.266708 1_455
Ba4 S7 3.266708 1_555
Ba4 S10 3.281630 1_555
Ba4 S6 3.432454 1_546
Ba5 S10 3.142600 1_654
Ba5 S10 3.142600 1_554
Ba5 S1 3.234496 1_555
Ba5 S6 3.266708 1_555
Ba5 S6 3.266708 1_655
Ba5 S9 3.281630 1_555
Ba5 S7 3.432454 1_564
Ba6 S8 3.142600 1_655
Ba6 S8 3.142600 1_555
Ba6 S3 3.234496 1_555
Ba6 S4 3.266708 1_555
Ba6 S4 3.266708 1_655
Ba6 S11 3.281630 1_545
Ba6 S5 3.432454 1_555
Ba7 S2 3.242893 1_545
Ba7 S2 3.242893 1_645
Ba7 S0 3.243824 1_555
Ba7 S0 3.243824 1_655
Ba7 S7 3.337030 1_555
Ba7 S8 3.349207 1_655
Ba7 S8 3.349207 1_555
Hg0 S9 2.561128 1_555
Hg0 S3 2.582100 1_555
Hg0 S6 2.609163 1_545
Hg0 S6 2.609163 1_645
Hg1 S10 2.561128 1_555
Hg1 S2 2.582100 1_555
Hg1 S7 2.609163 1_465
Hg1 S7 2.609163 1_565
Hg2 S11 2.561128 1_555
Hg2 S1 2.582100 1_555
Hg2 S4 2.609163 1_655
Hg2 S4 2.609163 1_555
Hg3 S8 2.561128 1_555
Hg3 S0 2.582100 1_555
Hg3 S5 2.609163 1_555
Hg3 S5 2.609163 1_455
