# generated using pymatgen
data_Li2Al2SiO6
_symmetry_space_group_name_H-M   'P 1'
_cell_length_a   5.31647013
_cell_length_b   5.31646990
_cell_length_c   5.78489300
_cell_angle_alpha   90.00000000
_cell_angle_beta   90.00000000
_cell_angle_gamma   59.93316280
_symmetry_Int_Tables_number   1
_chemical_formula_structural   Li2Al2SiO6
_chemical_formula_sum   'Li2 Al2 Si1 O6'
_cell_volume   141.50761470
_cell_formula_units_Z   1
loop_
 _symmetry_equiv_pos_site_id
 _symmetry_equiv_pos_as_xyz
  1  'x, y, z'
loop_
 _atom_site_type_symbol
 _atom_site_label
 _atom_site_symmetry_multiplicity
 _atom_site_fract_x
 _atom_site_fract_y
 _atom_site_fract_z
 _atom_site_occupancy
  Li  Li0  1  0.00000000  0.00000000  0.61640200  1
  Li  Li1  1  0.00000000  0.00000000  0.05026500  1
  Al  Al0  1  0.50000000  0.00000000  0.67110300  1
  Al  Al1  1  0.00000000  0.50000000  0.99556400  1
  Si  Si0  1  0.50000000  0.50000000  0.33333300  1
  O  O0  1  0.21524300  0.59052900  0.17147400  1
  O  O1  1  0.59052900  0.21524300  0.49519300  1
  O  O2  1  0.17643800  0.17643800  0.83333300  1
  O  O3  1  0.78475700  0.40947100  0.17147400  1
  O  O4  1  0.40947100  0.78475700  0.49519300  1
  O  O5  1  0.82356200  0.82356200  0.83333300  1
loop_
_geom_bond_atom_site_label_1
_geom_bond_atom_site_label_2
_geom_bond_distance
_geom_bond_site_symmetry_2
Li0 O4 2.010981 1_545
Li0 O1 2.010981 1_455
Li0 O5 2.053362 1_445
Li0 O2 2.053362 1_555
Li1 O0 2.010981 1_545
Li1 O3 2.010981 1_455
Li1 O2 2.053365 1_554
Li1 O5 2.053365 1_444
Al0 O5 1.761505 1_545
Al0 O2 1.761505 1_555
Al0 O4 1.768776 1_545
Al0 O1 1.768776 1_555
Al1 O5 1.761508 1_455
Al1 O2 1.761508 1_555
Al1 O3 1.768776 1_456
Al1 O0 1.768776 1_556
O0 Si0 1.634064 1_555
O1 Si0 1.634068 1_555
O3 Si0 1.634064 1_555
O4 Si0 1.634068 1_555
