# generated using pymatgen
data_Cu6SnGe
_symmetry_space_group_name_H-M   'P 1'
_cell_length_a   4.27350600
_cell_length_b   4.63837100
_cell_length_c   5.54169600
_cell_angle_alpha   90.00000000
_cell_angle_beta   90.00000000
_cell_angle_gamma   90.00000000
_symmetry_Int_Tables_number   1
_chemical_formula_structural   Cu6SnGe
_chemical_formula_sum   'Cu6 Sn1 Ge1'
_cell_volume   109.84808719
_cell_formula_units_Z   1
loop_
 _symmetry_equiv_pos_site_id
 _symmetry_equiv_pos_as_xyz
  1  'x, y, z'
loop_
 _atom_site_type_symbol
 _atom_site_label
 _atom_site_symmetry_multiplicity
 _atom_site_fract_x
 _atom_site_fract_y
 _atom_site_fract_z
 _atom_site_occupancy
  Cu  Cu0  1  0.50000000  0.84298900  0.73465400  1
  Cu  Cu1  1  0.00000000  0.16581600  0.26502200  1
  Cu  Cu2  1  0.00000000  0.16581600  0.73497800  1
  Cu  Cu3  1  0.50000000  0.84298900  0.26534600  1
  Cu  Cu4  1  0.00000000  0.66735500  0.50000000  1
  Cu  Cu5  1  0.50000000  0.30611800  0.00000000  1
  Sn  Sn0  1  0.00000000  0.67243500  0.00000000  1
  Ge  Ge0  1  0.50000000  0.33648300  0.50000000  1
loop_
_geom_bond_atom_site_label_1
_geom_bond_atom_site_label_2
_geom_bond_distance
_geom_bond_site_symmetry_2
Cu0 Cu3 2.600762 1_555
Cu0 Cu5 2.603244 1_566
Cu0 Cu2 2.609195 1_665
Cu0 Cu2 2.609195 1_565
Cu0 Cu4 2.630659 1_555
Cu0 Cu4 2.630659 1_655
Cu0 Ge0 2.632594 1_565
Cu0 Ge0 2.685237 1_555
Cu0 Sn0 2.711792 1_656
Cu0 Sn0 2.711792 1_556
Cu0 Cu5 2.891955 1_556
Cu0 Cu3 2.940934 1_556
Cu1 Cu2 2.604353 1_555
Cu1 Cu3 2.609195 1_445
Cu1 Cu3 2.609195 1_545
Cu1 Ge0 2.624507 1_455
Cu1 Ge0 2.624507 1_555
Cu1 Cu4 2.653531 1_545
Cu1 Cu4 2.665980 1_555
Cu1 Cu5 2.673240 1_555
Cu1 Cu5 2.673240 1_455
Cu1 Sn0 2.719220 1_545
Cu1 Sn0 2.771094 1_555
Cu1 Cu2 2.937343 1_554
Cu2 Ge0 2.624507 1_455
Cu2 Ge0 2.624507 1_555
Cu2 Cu4 2.653531 1_545
Cu2 Cu4 2.665980 1_555
Cu2 Cu5 2.673240 1_556
Cu2 Cu5 2.673240 1_456
Cu2 Sn0 2.719220 1_546
Cu2 Sn0 2.771094 1_556
Cu3 Cu5 2.603244 1_565
Cu3 Cu4 2.630659 1_555
Cu3 Cu4 2.630659 1_655
Cu3 Ge0 2.632594 1_565
Cu3 Ge0 2.685237 1_555
Cu3 Sn0 2.711792 1_555
Cu3 Sn0 2.711792 1_655
Cu3 Cu5 2.891955 1_555
Cu4 Ge0 2.630787 1_555
Cu4 Ge0 2.630787 1_455
Cu4 Sn0 2.770948 1_555
Cu4 Sn0 2.770948 1_556
Cu5 Sn0 2.729964 1_555
Cu5 Sn0 2.729964 1_655
Cu5 Ge0 2.774425 1_555
Cu5 Ge0 2.774425 1_554
