# generated using pymatgen
data_La3GaFeS7
_symmetry_space_group_name_H-M   'P 1'
_cell_length_a   5.98504400
_cell_length_b   10.20126700
_cell_length_c   10.26761036
_cell_angle_alpha   60.43327483
_cell_angle_beta   90.00000000
_cell_angle_gamma   90.00000000
_symmetry_Int_Tables_number   1
_chemical_formula_structural   La3GaFeS7
_chemical_formula_sum   'La6 Ga2 Fe2 S14'
_cell_volume   545.25678529
_cell_formula_units_Z   2
loop_
 _symmetry_equiv_pos_site_id
 _symmetry_equiv_pos_as_xyz
  1  'x, y, z'
loop_
 _atom_site_type_symbol
 _atom_site_label
 _atom_site_symmetry_multiplicity
 _atom_site_fract_x
 _atom_site_fract_y
 _atom_site_fract_z
 _atom_site_occupancy
  La  La0  1  0.21931300  0.23387300  0.62458500  1
  La  La1  1  0.21971400  0.62782400  0.14096500  1
  La  La2  1  0.22018000  0.13893600  0.23240800  1
  La  La3  1  0.71931300  0.76612700  0.37541500  1
  La  La4  1  0.71971400  0.37217600  0.85903500  1
  La  La5  1  0.72018000  0.86106400  0.76759200  1
  Ga  Ga0  1  0.13772300  0.66701300  0.66691900  1
  Ga  Ga1  1  0.63772300  0.33298700  0.33308100  1
  Fe  Fe0  1  0.49943900  0.00001900  0.00008700  1
  Fe  Fe1  1  0.99943900  0.99998100  0.99991300  1
  S  S0  1  0.25772100  0.22957900  0.91129200  1
  S  S1  1  0.25717100  0.91368400  0.85755800  1
  S  S2  1  0.25766300  0.85599300  0.23267600  1
  S  S3  1  0.75772100  0.77042100  0.08870800  1
  S  S4  1  0.75717100  0.08631600  0.14244200  1
  S  S5  1  0.75766300  0.14400700  0.76732400  1
  S  S6  1  0.49006700  0.09684600  0.48212800  1
  S  S7  1  0.48999900  0.48354000  0.41958500  1
  S  S8  1  0.49079600  0.41924700  0.09784000  1
  S  S9  1  0.99006700  0.90315400  0.51787200  1
  S  S10  1  0.98999900  0.51646000  0.58041500  1
  S  S11  1  0.99079600  0.58075300  0.90216000  1
  S  S12  1  0.51284500  0.66632200  0.66707700  1
  S  S13  1  0.01284500  0.33367800  0.33292300  1
loop_
_geom_bond_atom_site_label_1
_geom_bond_atom_site_label_2
_geom_bond_distance
_geom_bond_site_symmetry_2
La0 S7 2.872510 1_555
La0 S13 2.919367 1_555
La0 S0 2.931456 1_555
La0 S1 2.954919 1_545
La0 S6 2.955871 1_555
La0 S10 3.018163 1_455
La0 S5 3.049030 1_455
La0 S5 3.470451 1_555
La1 S8 2.878449 1_555
La1 S2 2.918752 1_555
La1 S13 2.930023 1_555
La1 S1 2.940642 1_554
La1 S7 2.968469 1_555
La1 S3 3.046175 1_455
La1 S11 3.046594 1_454
La1 S3 3.464399 1_555
La2 S6 2.877721 1_555
La2 S2 2.893729 1_545
La2 S13 2.928309 1_555
La2 S0 2.961016 1_554
La2 S8 2.968182 1_555
La2 S4 3.051218 1_455
La2 S9 3.052160 1_445
La2 S4 3.458327 1_555
La3 S10 2.872510 1_555
La3 S12 2.919367 1_555
La3 S3 2.931456 1_555
La3 S4 2.954919 1_565
La3 S9 2.955871 1_555
La3 S7 3.018163 1_555
La3 S2 3.049030 1_555
La3 S2 3.470451 1_655
La4 S11 2.878449 1_555
La4 S5 2.918752 1_555
La4 S12 2.930023 1_555
La4 S4 2.940642 1_556
La4 S10 2.968469 1_555
La4 S0 3.046175 1_555
La4 S8 3.046594 1_556
La4 S0 3.464399 1_655
La5 S9 2.877721 1_555
La5 S5 2.893729 1_565
La5 S12 2.928309 1_555
La5 S3 2.961016 1_556
La5 S11 2.968182 1_555
La5 S1 3.051218 1_555
La5 S6 3.052160 1_565
La5 S1 3.458327 1_655
Ga0 S12 2.245131 1_555
Ga0 S10 2.296858 1_455
Ga0 S11 2.298709 1_455
Ga0 S9 2.299522 1_455
Ga1 S13 2.245131 1_655
Ga1 S7 2.296858 1_555
Ga1 S8 2.298709 1_555
Ga1 S6 2.299522 1_555
Fe0 S1 2.508333 1_544
Fe0 S0 2.510210 1_554
Fe0 S2 2.548155 1_545
Fe0 S4 2.561382 1_555
Fe0 S3 2.569079 1_545
Fe0 S5 2.606416 1_554
Fe1 S4 2.508333 1_566
Fe1 S3 2.510210 1_556
Fe1 S5 2.548155 1_565
Fe1 S1 2.561382 1_655
Fe1 S0 2.569079 1_665
Fe1 S2 2.606416 1_656
