# generated using pymatgen
data_SrMgSn(PO4)2
_symmetry_space_group_name_H-M   'P 1'
_cell_length_a   5.61140400
_cell_length_b   7.15356841
_cell_length_c   10.05630402
_cell_angle_alpha   107.48736158
_cell_angle_beta   104.79054662
_cell_angle_gamma   96.83412190
_symmetry_Int_Tables_number   1
_chemical_formula_structural   SrMgSn(PO4)2
_chemical_formula_sum   'Sr2 Mg2 Sn2 P4 O16'
_cell_volume   363.78213199
_cell_formula_units_Z   2
loop_
 _symmetry_equiv_pos_site_id
 _symmetry_equiv_pos_as_xyz
  1  'x, y, z'
loop_
 _atom_site_type_symbol
 _atom_site_label
 _atom_site_symmetry_multiplicity
 _atom_site_fract_x
 _atom_site_fract_y
 _atom_site_fract_z
 _atom_site_occupancy
  Sr  Sr0  1  0.80164900  0.24889300  0.03752900  1
  Sr  Sr1  1  0.19835100  0.75110700  0.96247100  1
  Mg  Mg0  1  0.62097700  0.27830100  0.63842200  1
  Mg  Mg1  1  0.37902300  0.72169900  0.36157800  1
  Sn  Sn0  1  0.96410900  0.75286100  0.58346300  1
  Sn  Sn1  1  0.03589100  0.24713900  0.41653700  1
  P  P0  1  0.84584300  0.79995400  0.21345900  1
  P  P1  1  0.15415700  0.20004600  0.78654100  1
  P  P2  1  0.46382400  0.26724300  0.28160600  1
  P  P3  1  0.53617600  0.73275700  0.71839400  1
  O  O0  1  0.12017500  0.35878900  0.91816100  1
  O  O1  1  0.58200100  0.75088700  0.23216800  1
  O  O2  1  0.12100500  0.98718100  0.80283700  1
  O  O3  1  0.72057900  0.58119600  0.69937700  1
  O  O4  1  0.41799900  0.24911300  0.76783200  1
  O  O5  1  0.51087100  0.81093300  0.58560600  1
  O  O6  1  0.48912900  0.18906700  0.41439400  1
  O  O7  1  0.64371800  0.89440900  0.86817100  1
  O  O8  1  0.87899500  0.01281900  0.19716300  1
  O  O9  1  0.35628200  0.10559100  0.13182900  1
  O  O10  1  0.87982500  0.64121100  0.08183900  1
  O  O11  1  0.06552300  0.82477600  0.35400900  1
  O  O12  1  0.93447700  0.17522400  0.64599100  1
  O  O13  1  0.73011600  0.38271700  0.29802400  1
  O  O14  1  0.27942100  0.41880400  0.30062300  1
  O  O15  1  0.26988400  0.61728300  0.70197600  1
loop_
_geom_bond_atom_site_label_1
_geom_bond_atom_site_label_2
_geom_bond_distance
_geom_bond_site_symmetry_2
Mg0 O4 1.974340 1_555
Mg0 O12 1.979464 1_555
Mg0 O3 2.030195 1_555
Mg0 O6 2.050042 1_555
Mg1 O1 1.974340 1_555
Mg1 O11 1.979464 1_555
Mg1 O14 2.030195 1_555
Mg1 O5 2.050042 1_555
O0 P1 1.534574 1_555
O0 Sr0 2.565526 1_456
O0 Sr1 2.668879 1_555
O1 P0 1.552026 1_555
O1 Sr1 3.002109 1_554
O2 P1 1.574273 1_565
O2 Sn0 2.210520 1_455
O2 Sr1 2.658083 1_555
O3 P3 1.589408 1_555
O3 Sn0 2.451218 1_555
O3 Sr1 3.055354 1_655
O4 P1 1.552026 1_555
O4 Sr0 3.002109 1_556
O5 P3 1.577017 1_555
O5 Sn0 2.629729 1_555
O6 P2 1.577017 1_555
O6 Sn1 2.629729 1_555
O7 P3 1.514303 1_555
O7 Sr0 2.493065 1_566
O7 Sr1 3.062744 1_555
O8 P0 1.574273 1_545
O8 Sn1 2.210520 1_655
O8 Sr0 2.658083 1_555
O9 P2 1.514303 1_555
O9 Sr1 2.493065 1_544
O9 Sr0 3.062744 1_555
O10 P0 1.534574 1_555
O10 Sr1 2.565526 1_654
O10 Sr0 2.668879 1_555
O11 P0 1.567270 1_455
O11 Sn0 2.688319 1_455
O12 P1 1.567270 1_655
O12 Sn1 2.688319 1_655
O13 P2 1.562298 1_555
O13 Sn1 2.313382 1_655
O13 Sr0 2.657279 1_555
O14 P2 1.589408 1_555
O14 Sn1 2.451218 1_555
O14 Sr0 3.055354 1_455
O15 P3 1.562298 1_555
O15 Sn0 2.313382 1_455
O15 Sr1 2.657279 1_555
