# generated using pymatgen
data_Ba3(P3O13)2
_symmetry_space_group_name_H-M   'P 1'
_cell_length_a   11.55574524
_cell_length_b   11.55574524
_cell_length_c   15.21044817
_cell_angle_alpha   62.57605580
_cell_angle_beta   117.42394420
_cell_angle_gamma   142.61186166
_symmetry_Int_Tables_number   1
_chemical_formula_structural   Ba3(P3O13)2
_chemical_formula_sum   'Ba6 P12 O52'
_cell_volume   1077.72353427
_cell_formula_units_Z   2
loop_
 _symmetry_equiv_pos_site_id
 _symmetry_equiv_pos_as_xyz
  1  'x, y, z'
loop_
 _atom_site_type_symbol
 _atom_site_label
 _atom_site_symmetry_multiplicity
 _atom_site_fract_x
 _atom_site_fract_y
 _atom_site_fract_z
 _atom_site_occupancy
  Ba  Ba0  1  0.38775600  0.76589200  0.26003200  1
  Ba  Ba1  1  0.76589200  0.38775600  0.23996800  1
  Ba  Ba2  1  0.61224400  0.23410800  0.73996800  1
  Ba  Ba3  1  0.23410800  0.61224400  0.76003200  1
  Ba  Ba4  1  0.74447700  0.74447700  0.25000000  1
  Ba  Ba5  1  0.25552300  0.25552300  0.75000000  1
  P  P0  1  0.21744100  0.96955600  0.26763100  1
  P  P1  1  0.96955600  0.21744100  0.23236900  1
  P  P2  1  0.78255900  0.03044400  0.73236900  1
  P  P3  1  0.03044400  0.78255900  0.76763100  1
  P  P4  1  0.64586300  0.69330800  0.89001700  1
  P  P5  1  0.69330800  0.64586300  0.60998300  1
  P  P6  1  0.35413700  0.30669200  0.10998300  1
  P  P7  1  0.30669200  0.35413700  0.39001700  1
  P  P8  1  0.19664400  0.45442500  0.06842500  1
  P  P9  1  0.45442500  0.19664400  0.43157500  1
  P  P10  1  0.80335600  0.54557400  0.93157500  1
  P  P11  1  0.54557400  0.80335600  0.56842500  1
  O  O0  1  0.01445400  0.27318200  0.12352500  1
  O  O1  1  0.27318200  0.01445400  0.37647500  1
  O  O2  1  0.98554600  0.72681800  0.87647500  1
  O  O3  1  0.72681800  0.98554600  0.62352500  1
  O  O4  1  0.01934400  0.37428800  0.24607200  1
  O  O5  1  0.37428800  0.01934400  0.25392800  1
  O  O6  1  0.98065600  0.62571200  0.75392800  1
  O  O7  1  0.62571200  0.98065600  0.74607200  1
  O  O8  1  0.76883300  0.01259500  0.23552800  1
  O  O9  1  0.01259500  0.76883300  0.26447200  1
  O  O10  1  0.23116700  0.98740500  0.76447200  1
  O  O11  1  0.98740500  0.23116700  0.73552800  1
  O  O12  1  0.45537300  0.54890000  0.32852700  1
  O  O13  1  0.54890000  0.45537300  0.17147300  1
  O  O14  1  0.54462700  0.45110000  0.67147300  1
  O  O15  1  0.45110000  0.54462700  0.82852700  1
  O  O16  1  0.24971600  0.33843000  0.46708400  1
  O  O17  1  0.33843000  0.24971600  0.03291600  1
  O  O18  1  0.75028400  0.66157000  0.53291600  1
  O  O19  1  0.66157000  0.75028400  0.96708400  1
  O  O20  1  0.62648000  0.74821400  0.55892700  1
  O  O21  1  0.74821400  0.62648000  0.94107300  1
  O  O22  1  0.37352000  0.25178600  0.44107300  1
  O  O23  1  0.25178600  0.37352000  0.05892700  1
  O  O24  1  0.37097600  0.64765400  0.61569500  1
  O  O25  1  0.64765400  0.37097600  0.88430500  1
  O  O26  1  0.62902400  0.35234600  0.38430500  1
  O  O27  1  0.35234600  0.62902400  0.11569500  1
  O  O28  1  0.11499000  0.49624200  0.95415700  1
  O  O29  1  0.49624200  0.11499000  0.54584300  1
  O  O30  1  0.88501000  0.50375800  0.04584300  1
  O  O31  1  0.50375800  0.88501000  0.45415700  1
  O  O32  1  0.11668400  0.20653800  0.30887600  1
  O  O33  1  0.20653800  0.11668400  0.19112400  1
  O  O34  1  0.88331600  0.79346200  0.69112400  1
  O  O35  1  0.79346200  0.88331600  0.80887600  1
  O  O36  1  0.50751400  0.08132700  0.10148200  1
  O  O37  1  0.08132700  0.50751400  0.39851800  1
  O  O38  1  0.49248600  0.91867300  0.89851800  1
  O  O39  1  0.91867300  0.49248600  0.60148200  1
  O  O40  1  0.02127400  0.65104300  0.53130200  1
  O  O41  1  0.65104300  0.02127400  0.96869800  1
  O  O42  1  0.97872600  0.34895700  0.46869800  1
  O  O43  1  0.34895700  0.97872600  0.03130200  1
  O  O44  1  0.33939200  0.98423500  0.60117000  1
  O  O45  1  0.98423500  0.33939200  0.89883000  1
  O  O46  1  0.66060800  0.01576500  0.39883000  1
  O  O47  1  0.01576500  0.66060800  0.10117000  1
  O  O48  1  0.06831200  0.31532400  0.53912300  1
  O  O49  1  0.31532400  0.06831200  0.96087700  1
  O  O50  1  0.93168800  0.68467600  0.46087700  1
  O  O51  1  0.68467600  0.93168800  0.03912300  1
loop_
_geom_bond_atom_site_label_1
_geom_bond_atom_site_label_2
_geom_bond_distance
_geom_bond_site_symmetry_2
Ba0 O46 2.784294 1_565
Ba0 O12 2.817928 1_555
Ba0 O36 2.824647 1_565
Ba0 O4 2.843560 1_555
Ba0 O8 2.870868 1_565
Ba0 O27 2.971771 1_555
Ba0 O5 3.011879 1_565
Ba0 O31 3.094521 1_555
Ba0 O37 3.188614 1_555
Ba0 O47 3.259851 1_555
Ba1 O47 2.784294 1_655
Ba1 O13 2.817928 1_555
Ba1 O37 2.824647 1_655
Ba1 O5 2.843560 1_555
Ba1 O9 2.870868 1_655
Ba1 O26 2.971771 1_555
Ba1 O4 3.011879 1_655
Ba1 O30 3.094521 1_555
Ba1 O36 3.188614 1_555
Ba1 O46 3.259851 1_555
Ba2 O44 2.784294 1_545
Ba2 O14 2.817928 1_555
Ba2 O38 2.824647 1_545
Ba2 O6 2.843560 1_555
Ba2 O10 2.870868 1_545
Ba2 O25 2.971771 1_555
Ba2 O7 3.011879 1_545
Ba2 O29 3.094521 1_555
Ba2 O39 3.188614 1_555
Ba2 O45 3.259851 1_555
Ba3 O45 2.784294 1_455
Ba3 O15 2.817928 1_555
Ba3 O39 2.824647 1_455
Ba3 O7 2.843560 1_555
Ba3 O11 2.870868 1_455
Ba3 O24 2.971771 1_555
Ba3 O6 3.011879 1_455
Ba3 O28 3.094521 1_555
Ba3 O38 3.188614 1_555
Ba3 O44 3.259851 1_555
Ba4 O12 2.624202 1_555
Ba4 O13 2.624202 1_555
Ba4 O8 2.787521 1_565
Ba4 O9 2.787521 1_655
Ba4 O50 3.063982 1_555
Ba4 O51 3.063982 1_555
Ba5 O15 2.624202 1_555
Ba5 O14 2.624202 1_555
Ba5 O10 2.787521 1_545
Ba5 O11 2.787521 1_455
Ba5 O48 3.063982 1_555
Ba5 O49 3.063982 1_555
O0 P8 1.588361 1_555
O0 P1 1.644033 1_455
O1 P9 1.588361 1_555
O1 P0 1.644033 1_545
O2 P10 1.588361 1_555
O2 P3 1.644033 1_655
O3 P11 1.588361 1_555
O3 P2 1.644033 1_565
O4 P1 1.496663 1_455
O5 P0 1.496663 1_545
O6 P3 1.496663 1_655
O7 P2 1.496663 1_565
O8 P1 1.502886 1_555
O9 P0 1.502886 1_555
O10 P3 1.502886 1_555
O11 P2 1.502886 1_555
O12 P7 1.512787 1_555
O13 P6 1.512787 1_555
O14 P5 1.512787 1_555
O15 P4 1.512787 1_555
O16 P7 1.471593 1_555
O17 P6 1.471593 1_555
O18 P5 1.471593 1_555
O19 P4 1.471593 1_555
O20 P11 1.567448 1_555
O20 P5 1.628268 1_555
O21 P10 1.567448 1_555
O21 P4 1.628268 1_555
O22 P9 1.567437 1_555
O22 P7 1.628268 1_555
O23 P8 1.567437 1_555
O23 P6 1.628268 1_555
O24 P11 1.483567 1_555
O25 P10 1.483567 1_555
O26 P9 1.483574 1_555
O27 P8 1.483574 1_555
O28 O45 1.469102 1_455
O28 P8 1.607780 1_556
O29 O44 1.469102 1_545
O29 P9 1.607780 1_555
O30 O47 1.469102 1_655
O30 P10 1.607777 1_554
O31 O46 1.469102 1_565
O31 P11 1.607777 1_555
O32 P1 1.625895 1_455
O32 P7 1.656848 1_555
O33 P0 1.625895 1_545
O33 P6 1.656848 1_555
O34 P3 1.625895 1_655
O34 P5 1.656848 1_555
O35 P2 1.625895 1_565
O35 P4 1.656848 1_555
O36 O43 1.347018 1_545
O37 O42 1.347018 1_455
O38 O41 1.347018 1_565
O39 O40 1.347018 1_655
O40 O50 1.266728 1_455
O41 O51 1.266728 1_546
O42 O48 1.266728 1_655
O43 O49 1.266728 1_564
