# generated using pymatgen
data_Cd(I3N2)2
_symmetry_space_group_name_H-M   'P 1'
_cell_length_a   8.41789900
_cell_length_b   8.41789900
_cell_length_c   12.18411514
_cell_angle_alpha   110.20899940
_cell_angle_beta   110.20899940
_cell_angle_gamma   90.00000000
_symmetry_Int_Tables_number   1
_chemical_formula_structural   Cd(I3N2)2
_chemical_formula_sum   'Cd2 I12 N8'
_cell_volume   753.33686349
_cell_formula_units_Z   2
loop_
 _symmetry_equiv_pos_site_id
 _symmetry_equiv_pos_as_xyz
  1  'x, y, z'
loop_
 _atom_site_type_symbol
 _atom_site_label
 _atom_site_symmetry_multiplicity
 _atom_site_fract_x
 _atom_site_fract_y
 _atom_site_fract_z
 _atom_site_occupancy
  Cd  Cd0  1  0.37500000  0.62500000  0.75000000  1
  Cd  Cd1  1  0.62500000  0.37500000  0.25000000  1
  I  I0  1  0.56332200  0.81332200  0.12664400  1
  I  I1  1  0.81332200  0.56332200  0.62664400  1
  I  I2  1  0.43667800  0.18667800  0.87335600  1
  I  I3  1  0.18667800  0.43667800  0.37335600  1
  I  I4  1  0.80499700  0.23380900  0.96761800  1
  I  I5  1  0.23380900  0.80499700  0.46761800  1
  I  I6  1  0.23380900  0.16262200  0.46761800  1
  I  I7  1  0.16262200  0.23380900  0.96761800  1
  I  I8  1  0.19500300  0.76619100  0.03238200  1
  I  I9  1  0.76619100  0.19500300  0.53238200  1
  I  I10  1  0.76619100  0.83737800  0.53238200  1
  I  I11  1  0.83737800  0.76619100  0.03238200  1
  N  N0  1  0.19629700  0.44629700  0.75000000  1
  N  N1  1  0.19629700  0.80370300  0.75000000  1
  N  N2  1  0.44629700  0.19629700  0.25000000  1
  N  N3  1  0.44629700  0.55370300  0.25000000  1
  N  N4  1  0.55370300  0.44629700  0.75000000  1
  N  N5  1  0.55370300  0.80370300  0.75000000  1
  N  N6  1  0.80370300  0.19629700  0.25000000  1
  N  N7  1  0.80370300  0.55370300  0.25000000  1
loop_
_geom_bond_atom_site_label_1
_geom_bond_atom_site_label_2
_geom_bond_distance
_geom_bond_site_symmetry_2
Cd0 N5 2.127407 1_555
Cd0 N0 2.127407 1_555
Cd0 N4 2.127407 1_555
Cd0 N1 2.127407 1_555
Cd1 N7 2.127407 1_555
Cd1 N6 2.127407 1_555
Cd1 N3 2.127407 1_555
Cd1 N2 2.127407 1_555
I0 I11 2.883459 1_555
I0 I8 2.883467 1_555
I1 I10 2.883459 1_555
I1 I9 2.883467 1_555
I2 I7 2.883459 1_555
I2 I4 2.883467 1_555
I3 I6 2.883459 1_555
I3 I5 2.883467 1_555
I4 I7 3.010451 1_655
I5 I6 3.010451 1_565
I10 I9 3.010451 1_565
I11 I8 3.010451 1_655
