# generated using pymatgen
data_LiTiSn(PO4)3
_symmetry_space_group_name_H-M   'P 1'
_cell_length_a   8.74566895
_cell_length_b   8.74566895
_cell_length_c   8.74566921
_cell_angle_alpha   59.58487523
_cell_angle_beta   59.58487523
_cell_angle_gamma   59.58487496
_symmetry_Int_Tables_number   1
_chemical_formula_structural   LiTiSn(PO4)3
_chemical_formula_sum   'Li2 Ti2 Sn2 P6 O24'
_cell_volume   468.53989941
_cell_formula_units_Z   2
loop_
 _symmetry_equiv_pos_site_id
 _symmetry_equiv_pos_as_xyz
  1  'x, y, z'
loop_
 _atom_site_type_symbol
 _atom_site_label
 _atom_site_symmetry_multiplicity
 _atom_site_fract_x
 _atom_site_fract_y
 _atom_site_fract_z
 _atom_site_occupancy
  Li  Li0  1  0.50145800  0.50145800  0.50145800  1
  Li  Li1  1  0.00145800  0.00145800  0.00145800  1
  Ti  Ti0  1  0.64189600  0.64189600  0.64189600  1
  Ti  Ti1  1  0.14189600  0.14189600  0.14189600  1
  Sn  Sn0  1  0.35681200  0.35681200  0.35681200  1
  Sn  Sn1  1  0.85681200  0.85681200  0.85681200  1
  P  P0  1  0.45502300  0.04087800  0.75152600  1
  P  P1  1  0.04087800  0.75152600  0.45502300  1
  P  P2  1  0.75152600  0.45502300  0.04087800  1
  P  P3  1  0.95502300  0.25152600  0.54087800  1
  P  P4  1  0.25152600  0.54087800  0.95502300  1
  P  P5  1  0.54087800  0.95502300  0.25152600  1
  O  O0  1  0.50066900  0.87539100  0.69698900  1
  O  O1  1  0.87539100  0.69698900  0.50066900  1
  O  O2  1  0.69698900  0.50066900  0.87539100  1
  O  O3  1  0.00066900  0.19698900  0.37539100  1
  O  O4  1  0.19698900  0.37539100  0.00066900  1
  O  O5  1  0.37539100  0.00066900  0.19698900  1
  O  O6  1  0.51001800  0.11313000  0.30433200  1
  O  O7  1  0.11313000  0.30433200  0.51001800  1
  O  O8  1  0.30433200  0.51001800  0.11313000  1
  O  O9  1  0.01001800  0.80433200  0.61313000  1
  O  O10  1  0.80433200  0.61313000  0.01001800  1
  O  O11  1  0.61313000  0.01001800  0.80433200  1
  O  O12  1  0.55929400  0.76648700  0.41745600  1
  O  O13  1  0.76648700  0.41745600  0.55929400  1
  O  O14  1  0.41745600  0.55929400  0.76648700  1
  O  O15  1  0.05929400  0.91745600  0.26648700  1
  O  O16  1  0.91745600  0.26648700  0.05929400  1
  O  O17  1  0.26648700  0.05929400  0.91745600  1
  O  O18  1  0.44030200  0.23115400  0.58718400  1
  O  O19  1  0.23115400  0.58718400  0.44030200  1
  O  O20  1  0.58718400  0.44030200  0.23115400  1
  O  O21  1  0.94030200  0.08718400  0.73115400  1
  O  O22  1  0.08718400  0.73115400  0.94030200  1
  O  O23  1  0.73115400  0.94030200  0.08718400  1
loop_
_geom_bond_atom_site_label_1
_geom_bond_atom_site_label_2
_geom_bond_distance
_geom_bond_site_symmetry_2
Li0 O12 2.292315 1_555
Li0 O13 2.292315 1_555
Li0 O14 2.292315 1_555
Li0 O18 2.348671 1_555
Li0 O19 2.348671 1_555
Li0 O20 2.348671 1_555
Li1 O17 2.292315 1_554
Li1 O16 2.292315 1_455
Li1 O15 2.292315 1_545
Li1 O23 2.348671 1_445
Li1 O22 2.348671 1_544
Li1 O21 2.348671 1_454
O0 P0 1.550057 1_565
O0 Ti0 1.941035 1_555
O1 P1 1.550057 1_655
O1 Ti0 1.941035 1_555
O2 P2 1.550057 1_556
O2 Ti0 1.941035 1_555
O3 P3 1.550057 1_455
O3 Ti1 1.941035 1_555
O4 P4 1.550057 1_554
O4 Ti1 1.941035 1_555
O5 P5 1.550057 1_545
O5 Ti1 1.941035 1_555
O6 P5 1.529915 1_545
O6 Sn0 2.006054 1_555
O7 P3 1.529915 1_455
O7 Sn0 2.006054 1_555
O8 P4 1.529915 1_554
O8 Sn0 2.006054 1_555
O9 P1 1.529915 1_555
O9 Sn1 2.006054 1_455
O10 P2 1.529915 1_555
O10 Sn1 2.006054 1_554
O11 P0 1.529915 1_555
O11 Sn1 2.006054 1_545
O12 P5 1.547778 1_555
O12 Ti0 2.008782 1_555
O13 P3 1.547778 1_555
O13 Ti0 2.008782 1_555
O14 P4 1.547778 1_555
O14 Ti0 2.008782 1_555
O15 P1 1.547778 1_555
O15 Ti1 2.008782 1_565
O16 P2 1.547778 1_555
O16 Ti1 2.008782 1_655
O17 P0 1.547778 1_555
O17 Ti1 2.008782 1_556
O18 P0 1.549279 1_555
O18 Sn0 2.057989 1_555
O19 P1 1.549279 1_555
O19 Sn0 2.057989 1_555
O20 P2 1.549279 1_555
O20 Sn0 2.057989 1_555
O21 P3 1.549279 1_555
O21 Sn1 2.057989 1_545
O22 P4 1.549279 1_555
O22 Sn1 2.057989 1_455
O23 P5 1.549279 1_555
O23 Sn1 2.057989 1_554
