# generated using pymatgen
data_Rb2NbCuSe4
_symmetry_space_group_name_H-M   'P 1'
_cell_length_a   14.46854400
_cell_length_b   12.91482560
_cell_length_c   7.70575853
_cell_angle_alpha   85.14867078
_cell_angle_beta   62.79998488
_cell_angle_gamma   32.05134435
_symmetry_Int_Tables_number   1
_chemical_formula_structural   Rb2NbCuSe4
_chemical_formula_sum   'Rb4 Nb2 Cu2 Se8'
_cell_volume   521.26859519
_cell_formula_units_Z   2
loop_
 _symmetry_equiv_pos_site_id
 _symmetry_equiv_pos_as_xyz
  1  'x, y, z'
loop_
 _atom_site_type_symbol
 _atom_site_label
 _atom_site_symmetry_multiplicity
 _atom_site_fract_x
 _atom_site_fract_y
 _atom_site_fract_z
 _atom_site_occupancy
  Rb  Rb0  1  0.82123000  0.82123000  0.17877000  1
  Rb  Rb1  1  0.17877000  0.17877000  0.82123000  1
  Rb  Rb2  1  0.07123000  0.07123000  0.42877000  1
  Rb  Rb3  1  0.42877000  0.42877000  0.07123000  1
  Nb  Nb0  1  0.25000000  0.25000000  0.25000000  1
  Nb  Nb1  1  0.00000000  0.00000000  0.00000000  1
  Cu  Cu0  1  0.75000000  0.75000000  0.75000000  1
  Cu  Cu1  1  0.50000000  0.50000000  0.50000000  1
  Se  Se0  1  0.71118300  0.39922800  0.09211700  1
  Se  Se1  1  0.79747200  0.09211700  0.39922800  1
  Se  Se2  1  0.09211700  0.79747200  0.71118300  1
  Se  Se3  1  0.39922800  0.71118300  0.79747200  1
  Se  Se4  1  0.15788300  0.45252800  0.53881700  1
  Se  Se5  1  0.85077200  0.53881700  0.45252800  1
  Se  Se6  1  0.45252800  0.15788300  0.85077200  1
  Se  Se7  1  0.53881700  0.85077200  0.15788300  1
loop_
_geom_bond_atom_site_label_1
_geom_bond_atom_site_label_2
_geom_bond_distance
_geom_bond_site_symmetry_2
Rb0 Se4 3.622434 1_565
Rb0 Se6 3.622434 1_654
Rb0 Se6 3.662431 1_565
Rb0 Se4 3.662431 1_654
Rb0 Se2 3.698125 1_654
Rb0 Se1 3.698125 1_565
Rb0 Se5 3.849141 1_555
Rb0 Se7 3.849141 1_555
Rb1 Se5 3.622434 1_456
Rb1 Se7 3.622434 1_545
Rb1 Se7 3.662431 1_456
Rb1 Se5 3.662431 1_545
Rb1 Se0 3.698125 1_456
Rb1 Se3 3.698125 1_545
Rb1 Se6 3.849141 1_555
Rb1 Se4 3.849141 1_555
Rb2 Se0 3.622434 1_456
Rb2 Se3 3.622434 1_544
Rb2 Se0 3.662431 1_545
Rb2 Se3 3.662431 1_455
Rb2 Se7 3.698125 1_545
Rb2 Se5 3.698125 1_455
Rb2 Se1 3.849141 1_455
Rb2 Se2 3.849141 1_545
Rb3 Se2 3.622434 1_644
Rb3 Se1 3.622434 1_465
Rb3 Se1 3.662431 1_554
Rb3 Se2 3.662431 1_555
Rb3 Se4 3.698125 1_555
Rb3 Se6 3.698125 1_554
Rb3 Se3 3.849141 1_554
Rb3 Se0 3.849141 1_555
Nb0 Se4 2.436053 1_555
Nb0 Se5 2.436053 1_455
Nb0 Se7 2.436053 1_545
Nb0 Se6 2.436053 1_554
Nb1 Se2 2.436053 1_544
Nb1 Se1 2.436053 1_455
Nb1 Se3 2.436053 1_544
Nb1 Se0 2.436053 1_455
Cu0 Se7 2.465773 1_556
Cu0 Se4 2.465773 1_655
Cu0 Se6 2.465773 1_565
Cu0 Se5 2.465773 1_555
Cu1 Se2 2.465773 1_555
Cu1 Se3 2.465773 1_555
Cu1 Se0 2.465773 1_555
Cu1 Se1 2.465773 1_555
