# generated using pymatgen
data_Ti2VNi9
_symmetry_space_group_name_H-M   'P 1'
_cell_length_a   5.04610824
_cell_length_b   5.04610824
_cell_length_c   24.86948800
_cell_angle_alpha   90.00000000
_cell_angle_beta   90.00000000
_cell_angle_gamma   120.00000320
_symmetry_Int_Tables_number   1
_chemical_formula_structural   Ti2VNi9
_chemical_formula_sum   'Ti8 V4 Ni36'
_cell_volume   548.41659334
_cell_formula_units_Z   4
loop_
 _symmetry_equiv_pos_site_id
 _symmetry_equiv_pos_as_xyz
  1  'x, y, z'
loop_
 _atom_site_type_symbol
 _atom_site_label
 _atom_site_symmetry_multiplicity
 _atom_site_fract_x
 _atom_site_fract_y
 _atom_site_fract_z
 _atom_site_occupancy
  Ti  Ti0  1  0.33333300  0.66666700  0.66673300  1
  Ti  Ti1  1  0.33333300  0.66666700  0.33326700  1
  Ti  Ti2  1  0.00000000  0.00000000  0.91657600  1
  Ti  Ti3  1  0.00000000  0.00000000  0.58354700  1
  Ti  Ti4  1  0.00000000  0.00000000  0.25006000  1
  Ti  Ti5  1  0.00000000  0.00000000  0.08342400  1
  Ti  Ti6  1  0.00000000  0.00000000  0.74994000  1
  Ti  Ti7  1  0.00000000  0.00000000  0.41645300  1
  V  V0  1  0.66666700  0.33333300  0.83318500  1
  V  V1  1  0.66666700  0.33333300  0.50000000  1
  V  V2  1  0.66666700  0.33333300  0.16681500  1
  V  V3  1  0.33333300  0.66666700  0.00000000  1
  Ni  Ni0  1  0.17051600  0.82948400  0.83341500  1
  Ni  Ni1  1  0.17044500  0.82955500  0.50000000  1
  Ni  Ni2  1  0.17051600  0.82948400  0.16658500  1
  Ni  Ni3  1  0.17051600  0.34103300  0.83341500  1
  Ni  Ni4  1  0.17044500  0.34089000  0.50000000  1
  Ni  Ni5  1  0.17051600  0.34103300  0.16658500  1
  Ni  Ni6  1  0.65896700  0.82948400  0.83341500  1
  Ni  Ni7  1  0.65911000  0.82955500  0.50000000  1
  Ni  Ni8  1  0.65896700  0.82948400  0.16658500  1
  Ni  Ni9  1  0.82968400  0.17031600  0.00000000  1
  Ni  Ni10  1  0.82946500  0.17053500  0.66667600  1
  Ni  Ni11  1  0.82946500  0.17053500  0.33332400  1
  Ni  Ni12  1  0.82968400  0.65936800  0.00000000  1
  Ni  Ni13  1  0.82946500  0.65893000  0.66667600  1
  Ni  Ni14  1  0.82946500  0.65893000  0.33332400  1
  Ni  Ni15  1  0.34063200  0.17031600  0.00000000  1
  Ni  Ni16  1  0.34107000  0.17053500  0.66667600  1
  Ni  Ni17  1  0.34107000  0.17053500  0.33332400  1
  Ni  Ni18  1  0.99930300  0.49965100  0.91652900  1
  Ni  Ni19  1  0.99806300  0.49903200  0.58287400  1
  Ni  Ni20  1  0.99771900  0.49885900  0.24946400  1
  Ni  Ni21  1  0.50034900  0.49965100  0.91652900  1
  Ni  Ni22  1  0.50096800  0.49903200  0.58287400  1
  Ni  Ni23  1  0.50114100  0.49885900  0.24946400  1
  Ni  Ni24  1  0.50034900  0.00069700  0.91652900  1
  Ni  Ni25  1  0.50096800  0.00193700  0.58287400  1
  Ni  Ni26  1  0.50114100  0.00228100  0.24946400  1
  Ni  Ni27  1  0.99930300  0.49965100  0.08347100  1
  Ni  Ni28  1  0.99771900  0.49885900  0.75053600  1
  Ni  Ni29  1  0.99806300  0.49903200  0.41712600  1
  Ni  Ni30  1  0.50034900  0.49965100  0.08347100  1
  Ni  Ni31  1  0.50114100  0.49885900  0.75053600  1
  Ni  Ni32  1  0.50096800  0.49903200  0.41712600  1
  Ni  Ni33  1  0.50114100  0.00228100  0.75053600  1
  Ni  Ni34  1  0.50096800  0.00193700  0.41712600  1
  Ni  Ni35  1  0.50034900  0.00069700  0.08347100  1
loop_
_geom_bond_atom_site_label_1
_geom_bond_atom_site_label_2
_geom_bond_distance
_geom_bond_site_symmetry_2
Ni0 Ni6 2.464777 1_555
Ni0 Ni3 2.464777 1_555
Ni0 Ni33 2.517418 1_565
Ni0 Ni28 2.517418 1_455
Ni0 Ni24 2.520141 1_565
Ni0 Ni18 2.520141 1_455
Ni0 V0 2.523285 1_455
Ni0 V0 2.523285 1_565
Ni0 Ti2 2.549199 1_565
Ni0 Ti6 2.555539 1_565
Ni0 Ni3 2.581332 1_565
Ni0 Ni6 2.581332 1_455
Ni1 Ni4 2.465856 1_555
Ni1 Ni7 2.465856 1_555
Ni1 Ni19 2.517033 1_455
Ni1 Ni29 2.517033 1_455
Ni1 Ni25 2.517033 1_565
Ni1 Ni34 2.517033 1_565
Ni1 V1 2.523270 1_455
Ni1 V1 2.523270 1_565
Ni1 Ti3 2.556632 1_565
Ni1 Ti7 2.556632 1_565
Ni1 Ni7 2.580252 1_455
Ni1 Ni4 2.580252 1_565
Ni2 Ni8 2.464777 1_555
Ni2 Ni5 2.464777 1_555
Ni2 Ni20 2.517418 1_455
Ni2 Ni26 2.517418 1_565
Ni2 Ni35 2.520141 1_565
Ni2 Ni27 2.520141 1_455
Ni2 V2 2.523285 1_455
Ni2 V2 2.523285 1_565
Ni2 Ti5 2.549199 1_565
Ni2 Ti4 2.555539 1_565
Ni2 Ni5 2.581332 1_565
Ni2 Ni8 2.581332 1_455
Ni3 Ni6 2.464776 1_555
Ni3 Ni31 2.517418 1_555
Ni3 V0 2.523280 1_455
Ni3 V0 2.523290 1_555
Ni3 Ti2 2.549202 1_555
Ni3 Ti6 2.555541 1_555
Ni3 Ni6 2.581332 1_445
Ni4 Ni7 2.465856 1_555
Ni4 V1 2.523268 1_455
Ni4 V1 2.523273 1_555
Ni4 Ti3 2.556632 1_555
Ni4 Ti7 2.556632 1_555
Ni4 Ni7 2.580252 1_445
Ni5 Ni8 2.464776 1_555
Ni5 V2 2.523280 1_455
Ni5 V2 2.523290 1_555
Ni5 Ti5 2.549202 1_555
Ni5 Ti4 2.555541 1_555
Ni5 Ni8 2.581332 1_445
Ni6 V0 2.523280 1_565
Ni6 V0 2.523290 1_555
Ni6 Ti2 2.549202 1_665
Ni6 Ti6 2.555541 1_665
Ni7 V1 2.523268 1_565
Ni7 V1 2.523273 1_555
Ni7 Ti3 2.556632 1_665
Ni7 Ti7 2.556632 1_665
Ni8 V2 2.523280 1_565
Ni8 V2 2.523290 1_555
Ni8 Ti5 2.549202 1_665
Ni8 Ti4 2.555541 1_665
Ni9 V3 2.523256 1_545
Ni9 V3 2.523256 1_655
Ni9 Ti5 2.553489 1_655
Ni9 Ti2 2.553489 1_654
Ni10 Ni16 2.464494 1_555
Ni10 Ni13 2.464494 1_555
Ni10 Ti0 2.523281 1_545
Ni10 Ti0 2.523281 1_655
Ni10 Ni19 2.530773 1_555
Ni10 Ni25 2.530773 1_555
Ni10 Ni28 2.531522 1_555
Ni10 Ni33 2.531522 1_555
Ni10 Ti3 2.548651 1_655
Ni10 Ti6 2.551375 1_655
Ni10 Ni13 2.581614 1_545
Ni10 Ni16 2.581614 1_655
Ni11 Ni17 2.464494 1_555
Ni11 Ni14 2.464494 1_555
Ni11 Ti1 2.523281 1_545
Ni11 Ti1 2.523281 1_655
Ni11 Ni29 2.530773 1_555
Ni11 Ni34 2.530773 1_555
Ni11 Ni26 2.531522 1_555
Ni11 Ni20 2.531522 1_555
Ni11 Ti7 2.548651 1_655
Ni11 Ti4 2.551375 1_655
Ni11 Ni14 2.581614 1_545
Ni11 Ni17 2.581614 1_655
Ni12 Ni15 2.467809 1_555
Ni12 Ni9 2.467809 1_555
Ni12 V3 2.523253 1_655
Ni12 V3 2.523258 1_555
Ni12 Ni30 2.526112 1_555
Ni12 Ni21 2.526112 1_554
Ni12 Ni27 2.526114 1_555
Ni12 Ni18 2.526114 1_554
Ni12 Ti5 2.553489 1_665
Ni12 Ti2 2.553489 1_664
Ni12 Ni15 2.578299 1_665
Ni12 Ni9 2.578299 1_565
Ni13 Ni16 2.464494 1_555
Ni13 Ti0 2.523279 1_655
Ni13 Ti0 2.523284 1_555
Ni13 Ni19 2.530771 1_555
Ni13 Ni22 2.530774 1_555
Ni13 Ni31 2.531522 1_555
Ni13 Ni28 2.531524 1_555
Ni13 Ti3 2.548650 1_665
Ni13 Ti6 2.551375 1_665
Ni13 Ni16 2.581614 1_665
Ni14 Ni17 2.464494 1_555
Ni14 Ti1 2.523279 1_655
Ni14 Ti1 2.523284 1_555
Ni14 Ni29 2.530771 1_555
Ni14 Ni32 2.530774 1_555
Ni14 Ni23 2.531522 1_555
Ni14 Ni20 2.531524 1_555
Ni14 Ti7 2.548650 1_665
Ni14 Ti4 2.551375 1_665
Ni14 Ni17 2.581614 1_665
Ni15 Ni9 2.467809 1_555
Ni15 V3 2.523253 1_545
Ni15 V3 2.523258 1_555
Ni15 Ni30 2.526112 1_555
Ni15 Ni21 2.526112 1_554
Ni15 Ni35 2.526114 1_555
Ni15 Ni24 2.526114 1_554
Ni15 Ti5 2.553489 1_555
Ni15 Ti2 2.553489 1_554
Ni15 Ni9 2.578299 1_455
Ni16 Ti0 2.523279 1_545
Ni16 Ti0 2.523284 1_555
Ni16 Ni25 2.530771 1_555
Ni16 Ni22 2.530774 1_555
Ni16 Ni31 2.531522 1_555
Ni16 Ni33 2.531524 1_555
Ni16 Ti3 2.548650 1_555
Ni16 Ti6 2.551375 1_555
Ni17 Ti1 2.523279 1_545
Ni17 Ti1 2.523284 1_555
Ni17 Ni34 2.530771 1_555
Ni17 Ni32 2.530774 1_555
Ni17 Ni23 2.531522 1_555
Ni17 Ni26 2.531524 1_555
Ni17 Ti7 2.548650 1_555
Ni17 Ti4 2.551375 1_555
Ni18 Ni24 2.517776 1_555
Ni18 Ni21 2.517776 1_555
Ni18 Ni3 2.520136 1_655
Ni18 Ti2 2.523054 1_655
Ni18 Ti2 2.523059 1_665
Ni18 Ni9 2.526112 1_556
Ni18 Ni24 2.528332 1_665
Ni18 Ni21 2.528332 1_655
Ni18 V0 2.531648 1_555
Ni18 V3 2.537734 1_656
Ni19 Ni25 2.508395 1_555
Ni19 Ni22 2.508395 1_555
Ni19 Ni4 2.517036 1_655
Ni19 V1 2.518968 1_555
Ni19 Ti3 2.523121 1_665
Ni19 Ti3 2.523126 1_655
Ni19 Ni25 2.537713 1_665
Ni19 Ni22 2.537713 1_655
Ni19 Ti0 2.548745 1_655
Ni20 Ni26 2.505786 1_555
Ni20 Ni23 2.505786 1_555
Ni20 V2 2.513526 1_555
Ni20 Ni5 2.517413 1_655
Ni20 Ti4 2.523115 1_655
Ni20 Ti4 2.523120 1_665
Ni20 Ni26 2.540322 1_665
Ni20 Ni23 2.540322 1_655
Ni20 Ti1 2.548470 1_655
Ni21 Ni24 2.517776 1_555
Ni21 Ni3 2.520141 1_555
Ni21 Ni6 2.520141 1_555
Ni21 Ti2 2.523056 1_555
Ni21 Ti2 2.523056 1_665
Ni21 Ni24 2.528332 1_565
Ni21 V0 2.531649 1_555
Ni21 V3 2.537739 1_556
Ni22 Ni25 2.508395 1_555
Ni22 Ni7 2.517033 1_555
Ni22 Ni4 2.517033 1_555
Ni22 V1 2.518973 1_555
Ni22 Ti3 2.523124 1_555
Ni22 Ti3 2.523124 1_665
Ni22 Ni25 2.537713 1_565
Ni22 Ti0 2.548745 1_555
Ni23 Ni26 2.505786 1_555
Ni23 V2 2.513526 1_555
Ni23 Ni8 2.517418 1_555
Ni23 Ni5 2.517418 1_555
Ni23 Ti4 2.523117 1_555
Ni23 Ti4 2.523117 1_665
Ni23 Ni26 2.540322 1_565
Ni23 Ti1 2.548475 1_555
Ni24 Ni6 2.520136 1_545
Ni24 Ti2 2.523054 1_655
Ni24 Ti2 2.523059 1_555
Ni24 Ni9 2.526112 1_556
Ni24 V0 2.531648 1_555
Ni24 V3 2.537734 1_546
Ni25 Ni7 2.517036 1_545
Ni25 V1 2.518968 1_555
Ni25 Ti3 2.523121 1_555
Ni25 Ti3 2.523126 1_655
Ni25 Ti0 2.548745 1_545
Ni26 V2 2.513526 1_555
Ni26 Ni8 2.517413 1_545
Ni26 Ti4 2.523115 1_655
Ni26 Ti4 2.523120 1_555
Ni26 Ti1 2.548470 1_545
Ni27 Ni35 2.517776 1_555
Ni27 Ni30 2.517776 1_555
Ni27 Ni5 2.520136 1_655
Ni27 Ti5 2.523054 1_655
Ni27 Ti5 2.523059 1_665
Ni27 Ni9 2.526112 1_555
Ni27 Ni35 2.528332 1_665
Ni27 Ni30 2.528332 1_655
Ni27 V2 2.531648 1_555
Ni27 V3 2.537734 1_655
Ni28 Ni33 2.505786 1_555
Ni28 Ni31 2.505786 1_555
Ni28 V0 2.513526 1_555
Ni28 Ni3 2.517413 1_655
Ni28 Ti6 2.523115 1_655
Ni28 Ti6 2.523120 1_665
Ni28 Ni33 2.540322 1_665
Ni28 Ni31 2.540322 1_655
Ni28 Ti0 2.548470 1_655
Ni29 Ni34 2.508395 1_555
Ni29 Ni32 2.508395 1_555
Ni29 Ni4 2.517036 1_655
Ni29 V1 2.518968 1_555
Ni29 Ti7 2.523121 1_665
Ni29 Ti7 2.523126 1_655
Ni29 Ni34 2.537713 1_665
Ni29 Ni32 2.537713 1_655
Ni29 Ti1 2.548745 1_655
Ni30 Ni35 2.517776 1_555
Ni30 Ni5 2.520141 1_555
Ni30 Ni8 2.520141 1_555
Ni30 Ti5 2.523056 1_555
Ni30 Ti5 2.523056 1_665
Ni30 Ni35 2.528332 1_565
Ni30 V2 2.531649 1_555
Ni30 V3 2.537739 1_555
Ni31 Ni33 2.505786 1_555
Ni31 V0 2.513526 1_555
Ni31 Ni6 2.517418 1_555
Ni31 Ti6 2.523117 1_555
Ni31 Ti6 2.523117 1_665
Ni31 Ni33 2.540322 1_565
Ni31 Ti0 2.548475 1_555
Ni32 Ni34 2.508395 1_555
Ni32 Ni7 2.517033 1_555
Ni32 Ni4 2.517033 1_555
Ni32 V1 2.518973 1_555
Ni32 Ti7 2.523124 1_555
Ni32 Ti7 2.523124 1_665
Ni32 Ni34 2.537713 1_565
Ni32 Ti1 2.548745 1_555
Ni33 V0 2.513526 1_555
Ni33 Ni6 2.517413 1_545
Ni33 Ti6 2.523115 1_655
Ni33 Ti6 2.523120 1_555
Ni33 Ti0 2.548470 1_545
Ni34 Ni7 2.517036 1_545
Ni34 V1 2.518968 1_555
Ni34 Ti7 2.523121 1_555
Ni34 Ti7 2.523126 1_655
Ni34 Ti1 2.548745 1_545
Ni35 Ni8 2.520136 1_545
Ni35 Ti5 2.523054 1_655
Ni35 Ti5 2.523059 1_555
Ni35 Ni9 2.526112 1_555
Ni35 V2 2.531648 1_555
Ni35 V3 2.537734 1_545
