# generated using pymatgen
data_Cs2Se
_symmetry_space_group_name_H-M   'P 1'
_cell_length_a   5.71130449
_cell_length_b   5.71130577
_cell_length_c   11.35045457
_cell_angle_alpha   75.42842419
_cell_angle_beta   75.42842066
_cell_angle_gamma   60.00001092
_symmetry_Int_Tables_number   1
_chemical_formula_structural   Cs2Se
_chemical_formula_sum   'Cs4 Se2'
_cell_volume   306.80924849
_cell_formula_units_Z   2
loop_
 _symmetry_equiv_pos_site_id
 _symmetry_equiv_pos_as_xyz
  1  'x, y, z'
loop_
 _atom_site_type_symbol
 _atom_site_label
 _atom_site_symmetry_multiplicity
 _atom_site_fract_x
 _atom_site_fract_y
 _atom_site_fract_z
 _atom_site_occupancy
  Cs  Cs0  1  0.12252245  0.12252245  0.63243265  1
  Cs  Cs1  1  0.87747755  0.87747755  0.36756735  1
  Cs  Cs2  1  0.29703729  0.29703729  0.10889013  1
  Cs  Cs3  1  0.70296271  0.70296271  0.89110987  1
  Se  Se0  1  0.41257118  0.41257118  0.76228747  1
  Se  Se1  1  0.58742882  0.58742882  0.23771253  1
loop_
_geom_bond_atom_site_label_1
_geom_bond_atom_site_label_2
_geom_bond_distance
_geom_bond_site_symmetry_2
Cs0 Se0 3.586372 1_455
Cs0 Se0 3.586372 1_545
Cs0 Se0 3.586376 1_555
Cs1 Se1 3.586372 1_655
Cs1 Se1 3.586372 1_565
Cs1 Se1 3.586376 1_555
Cs2 Se1 3.581969 1_555
Cs2 Se1 3.581983 1_455
Cs2 Se1 3.581984 1_545
Cs2 Se0 3.764427 1_554
Cs3 Se0 3.581969 1_555
Cs3 Se0 3.581983 1_655
Cs3 Se0 3.581984 1_565
Cs3 Se1 3.764427 1_556
