# generated using pymatgen
data_YbTaTiO6
_symmetry_space_group_name_H-M   'P 1'
_cell_length_a   14.96439400
_cell_length_b   5.20572200
_cell_length_c   5.63173984
_cell_angle_alpha   89.81348475
_cell_angle_beta   90.00000000
_cell_angle_gamma   90.00000000
_symmetry_Int_Tables_number   1
_chemical_formula_structural   YbTaTiO6
_chemical_formula_sum   'Yb4 Ta4 Ti4 O24'
_cell_volume   438.71288441
_cell_formula_units_Z   4
loop_
 _symmetry_equiv_pos_site_id
 _symmetry_equiv_pos_as_xyz
  1  'x, y, z'
loop_
 _atom_site_type_symbol
 _atom_site_label
 _atom_site_symmetry_multiplicity
 _atom_site_fract_x
 _atom_site_fract_y
 _atom_site_fract_z
 _atom_site_occupancy
  Yb  Yb0  1  0.99927000  0.74902800  0.23403700  1
  Yb  Yb1  1  0.49927000  0.25097200  0.26596300  1
  Yb  Yb2  1  0.00073000  0.25097200  0.76596300  1
  Yb  Yb3  1  0.50073000  0.74902800  0.73403700  1
  Ta  Ta0  1  0.66692200  0.81502400  0.17513700  1
  Ta  Ta1  1  0.16692200  0.18497600  0.32486300  1
  Ta  Ta2  1  0.33307800  0.18497600  0.82486300  1
  Ta  Ta3  1  0.83307800  0.81502400  0.67513700  1
  Ti  Ti0  1  0.83638100  0.31894600  0.31992000  1
  Ti  Ti1  1  0.33638100  0.68105400  0.18008000  1
  Ti  Ti2  1  0.16361900  0.68105400  0.68008000  1
  Ti  Ti3  1  0.66361900  0.31894600  0.81992000  1
  O  O0  1  0.09651000  0.96589000  0.56508300  1
  O  O1  1  0.40515200  0.47135200  0.93960900  1
  O  O2  1  0.59651000  0.03411000  0.93491700  1
  O  O3  1  0.90515200  0.52864800  0.56039100  1
  O  O4  1  0.90349000  0.03411000  0.43491700  1
  O  O5  1  0.59484800  0.52864800  0.06039100  1
  O  O6  1  0.40349000  0.96589000  0.06508300  1
  O  O7  1  0.09484800  0.47135200  0.43960900  1
  O  O8  1  0.91064400  0.41131500  0.08703800  1
  O  O9  1  0.58752300  0.90949800  0.41308900  1
  O  O10  1  0.41064400  0.58868500  0.41296200  1
  O  O11  1  0.08752300  0.09050200  0.08691100  1
  O  O12  1  0.08935600  0.58868500  0.91296200  1
  O  O13  1  0.41247700  0.09050200  0.58691100  1
  O  O14  1  0.58935600  0.41131500  0.58703800  1
  O  O15  1  0.91247700  0.90949800  0.91308900  1
  O  O16  1  0.74182500  0.14397900  0.14479900  1
  O  O17  1  0.76082300  0.64866000  0.36226000  1
  O  O18  1  0.24182500  0.85602100  0.35520100  1
  O  O19  1  0.26082300  0.35134000  0.13774000  1
  O  O20  1  0.25817500  0.85602100  0.85520100  1
  O  O21  1  0.23917700  0.35134000  0.63774000  1
  O  O22  1  0.75817500  0.14397900  0.64479900  1
  O  O23  1  0.73917700  0.64866000  0.86226000  1
loop_
_geom_bond_atom_site_label_1
_geom_bond_atom_site_label_2
_geom_bond_distance
_geom_bond_site_symmetry_2
O0 Ti2 1.902712 1_555
O0 Ta1 2.056975 1_565
O0 Yb2 2.355319 1_565
O0 Yb0 2.623252 1_455
O1 Ta2 1.951818 1_555
O1 Ti1 2.023476 1_556
O1 Yb3 2.337645 1_555
O1 Yb1 2.581491 1_556
O2 Ti3 1.902712 1_555
O2 Ta0 2.056975 1_546
O2 Yb3 2.355319 1_545
O2 Yb1 2.623252 1_556
O3 Ta3 1.951818 1_555
O3 Ti0 2.023476 1_555
O3 Yb2 2.337645 1_655
O3 Yb0 2.581491 1_555
O4 Ti0 1.902712 1_555
O4 Ta3 2.056975 1_545
O4 Yb0 2.355319 1_545
O4 Yb2 2.623252 1_655
O5 Ta0 1.951818 1_555
O5 Ti3 2.023476 1_554
O5 Yb1 2.337645 1_555
O5 Yb3 2.581491 1_554
O6 Ti1 1.902712 1_555
O6 Ta2 2.056975 1_564
O6 Yb1 2.355319 1_565
O6 Yb3 2.623252 1_554
O7 Ta1 1.951818 1_555
O7 Ti2 2.023476 1_555
O7 Yb0 2.337645 1_455
O7 Yb2 2.581491 1_555
O8 Ti0 1.783875 1_555
O8 Yb0 2.354661 1_555
O8 Yb2 2.406970 1_654
O9 Ta0 1.858415 1_555
O9 Yb1 2.362414 1_565
O9 Yb3 2.375275 1_555
O10 Ti1 1.783875 1_555
O10 Yb1 2.354661 1_555
O10 Yb3 2.406970 1_555
O11 Ta1 1.858415 1_555
O11 Yb0 2.362414 1_445
O11 Yb2 2.375275 1_554
O12 Ti2 1.783875 1_555
O12 Yb2 2.354661 1_555
O12 Yb0 2.406970 1_456
O13 Ta2 1.858415 1_555
O13 Yb3 2.362414 1_545
O13 Yb1 2.375275 1_555
O14 Ti3 1.783875 1_555
O14 Yb3 2.354661 1_555
O14 Yb1 2.406970 1_555
O15 Ta3 1.858415 1_555
O15 Yb2 2.362414 1_665
O15 Yb0 2.375275 1_556
O16 Ti0 1.951991 1_555
O16 Ta0 2.053323 1_545
O16 Ti3 2.352857 1_554
O17 Ta0 1.956822 1_555
O17 Ti0 2.069779 1_555
O17 Ta3 2.243628 1_555
O18 Ti1 1.951991 1_555
O18 Ta1 2.053323 1_565
O18 Ti2 2.352857 1_555
O19 Ta1 1.956822 1_555
O19 Ti1 2.069779 1_555
O19 Ta2 2.243628 1_554
O20 Ti2 1.951991 1_555
O20 Ta2 2.053323 1_565
O20 Ti1 2.352857 1_556
O21 Ta2 1.956822 1_555
O21 Ti2 2.069779 1_555
O21 Ta1 2.243628 1_555
O22 Ti3 1.951991 1_555
O22 Ta3 2.053323 1_545
O22 Ti0 2.352857 1_555
O23 Ta3 1.956822 1_555
O23 Ti3 2.069779 1_555
O23 Ta0 2.243628 1_556
