# generated using pymatgen
data_La2MgCu2
_symmetry_space_group_name_H-M   'P 1'
_cell_length_a   3.90802498
_cell_length_b   7.92846803
_cell_length_c   7.92846803
_cell_angle_alpha   90.00000000
_cell_angle_beta   90.00000000
_cell_angle_gamma   90.00000000
_symmetry_Int_Tables_number   1
_chemical_formula_structural   La2MgCu2
_chemical_formula_sum   'La4 Mg2 Cu4'
_cell_volume   245.66081578
_cell_formula_units_Z   2
loop_
 _symmetry_equiv_pos_site_id
 _symmetry_equiv_pos_as_xyz
  1  'x, y, z'
loop_
 _atom_site_type_symbol
 _atom_site_label
 _atom_site_symmetry_multiplicity
 _atom_site_fract_x
 _atom_site_fract_y
 _atom_site_fract_z
 _atom_site_occupancy
  La  La0  1  0.50000000  0.82785672  0.32785672  1
  La  La1  1  0.50000000  0.67214328  0.82785672  1
  La  La2  1  0.50000000  0.32785672  0.17214328  1
  La  La3  1  0.50000000  0.17214328  0.67214328  1
  Mg  Mg0  1  -0.00000000  0.50000000  0.50000000  1
  Mg  Mg1  1  -0.00000000  -0.00000000  -0.00000000  1
  Cu  Cu0  1  0.00000000  0.62041612  0.12041612  1
  Cu  Cu1  1  -0.00000000  0.87958388  0.62041612  1
  Cu  Cu2  1  -0.00000000  0.37958388  0.87958388  1
  Cu  Cu3  1  0.00000000  0.12041612  0.37958388  1
loop_
_geom_bond_atom_site_label_1
_geom_bond_atom_site_label_2
_geom_bond_distance
_geom_bond_site_symmetry_2
La0 Mg1 3.526729 1_565
La0 Mg0 3.526729 1_655
La0 Mg0 3.526729 1_555
La0 Mg1 3.526729 1_665
La1 Mg0 3.526729 1_655
La1 Mg1 3.526729 1_666
La1 Mg1 3.526729 1_566
La1 Mg0 3.526729 1_555
La2 Mg1 3.526729 1_655
La2 Mg0 3.526729 1_655
La2 Mg1 3.526729 1_555
La2 Mg0 3.526729 1_555
La3 Mg1 3.526729 1_556
La3 Mg0 3.526729 1_655
La3 Mg0 3.526729 1_555
La3 Mg1 3.526729 1_656
Cu0 Cu2 2.700343 1_554
Cu0 La0 3.037787 1_555
Cu0 La0 3.037787 1_455
Cu0 La1 3.060500 1_454
Cu0 La2 3.060500 1_455
Cu0 La2 3.060500 1_555
Cu0 La1 3.060500 1_554
Cu0 Mg0 3.157322 1_555
Cu0 Mg1 3.157322 1_565
Cu1 Cu3 2.700343 1_565
Cu1 La1 3.037787 1_455
Cu1 La1 3.037787 1_555
Cu1 La0 3.060500 1_555
Cu1 La3 3.060500 1_465
Cu1 La0 3.060500 1_455
Cu1 La3 3.060500 1_565
Cu1 Mg0 3.157322 1_555
Cu1 Mg1 3.157322 1_566
Cu2 La3 3.037787 1_555
Cu2 La3 3.037787 1_455
Cu2 La2 3.060500 1_456
Cu2 La1 3.060500 1_555
Cu2 La2 3.060500 1_556
Cu2 La1 3.060500 1_455
Cu2 Mg0 3.157322 1_555
Cu2 Mg1 3.157322 1_556
Cu3 La2 3.037787 1_455
Cu3 La2 3.037787 1_555
Cu3 La3 3.060500 1_555
Cu3 La0 3.060500 1_445
Cu3 La3 3.060500 1_455
Cu3 La0 3.060500 1_545
Cu3 Mg0 3.157322 1_555
Cu3 Mg1 3.157322 1_555
