# generated using pymatgen
data_Li32Mn5Cr11O48
_symmetry_space_group_name_H-M   'P 1'
_cell_length_a   5.00927800
_cell_length_b   5.03274565
_cell_length_c   38.42233228
_cell_angle_alpha   91.20164109
_cell_angle_beta   90.74977363
_cell_angle_gamma   119.56561252
_symmetry_Int_Tables_number   1
_chemical_formula_structural   Li32Mn5Cr11O48
_chemical_formula_sum   'Li32 Mn5 Cr11 O48'
_cell_volume   842.02619944
_cell_formula_units_Z   1
loop_
 _symmetry_equiv_pos_site_id
 _symmetry_equiv_pos_as_xyz
  1  'x, y, z'
loop_
 _atom_site_type_symbol
 _atom_site_label
 _atom_site_symmetry_multiplicity
 _atom_site_fract_x
 _atom_site_fract_y
 _atom_site_fract_z
 _atom_site_occupancy
  Li  Li0  1  0.91651500  0.09189100  0.75022400  1
  Li  Li1  1  0.00235900  0.50531500  0.99979300  1
  Li  Li2  1  0.94240600  0.44210300  0.81254100  1
  Li  Li3  1  0.87377800  0.37459600  0.62513600  1
  Li  Li4  1  0.81367500  0.30878200  0.43744400  1
  Li  Li5  1  0.74620600  0.25033900  0.25001500  1
  Li  Li6  1  0.68734000  0.18740700  0.06247900  1
  Li  Li7  1  0.96697900  0.78439500  0.87488400  1
  Li  Li8  1  0.62354400  0.12436100  0.87501000  1
  Li  Li9  1  0.84144600  0.66285100  0.49986400  1
  Li  Li10  1  0.72079100  0.53893200  0.12501400  1
  Li  Li11  1  0.56079200  0.06614900  0.68759400  1
  Li  Li12  1  0.50177200  0.00134600  0.49991600  1
  Li  Li13  1  0.58712700  0.41096600  0.74990500  1
  Li  Li14  1  0.46204600  0.28544100  0.37505600  1
  Li  Li15  1  0.78503500  0.96444400  0.37515600  1
  Li  Li16  1  0.65921500  0.83550000  0.99994900  1
  Li  Li17  1  0.33824400  0.15966200  0.99970800  1
  Li  Li18  1  0.22087500  0.03987000  0.62514000  1
  Li  Li19  1  0.53111000  0.70941100  0.62506300  1
  Li  Li20  1  0.41681100  0.59230200  0.25022800  1
  Li  Li21  1  0.43730300  0.93740900  0.31251000  1
  Li  Li22  1  0.28497000  0.46590800  0.87508100  1
  Li  Li23  1  0.15583800  0.33662000  0.50010900  1
  Li  Li24  1  0.37410100  0.87560800  0.12498500  1
  Li  Li25  1  0.03097900  0.20924500  0.12493000  1
  Li  Li26  1  0.30772900  0.80949900  0.93745500  1
  Li  Li27  1  0.24630500  0.74594300  0.75009100  1
  Li  Li28  1  0.18741100  0.68747500  0.56246900  1
  Li  Li29  1  0.12778300  0.62563800  0.37506500  1
  Li  Li30  1  0.05975000  0.56557900  0.18752400  1
  Li  Li31  1  0.08735900  0.90750400  0.24972800  1
  Mn  Mn0  1  0.64589400  0.47943600  0.93747900  1
  Mn  Mn1  1  0.72987300  0.89535000  0.18750000  1
  Mn  Mn2  1  0.60443400  0.77085500  0.81251000  1
  Mn  Mn3  1  0.23014000  0.39540500  0.68752200  1
  Mn  Mn4  1  0.14426900  0.97951600  0.43746400  1
  Cr  Cr0  1  0.97342600  0.14007000  0.93736300  1
  Cr  Cr1  1  0.85778900  0.01580600  0.56259800  1
  Cr  Cr2  1  0.89298800  0.73467200  0.68745400  1
  Cr  Cr3  1  0.77759500  0.60910100  0.31276300  1
  Cr  Cr4  1  0.51714900  0.35853700  0.56243500  1
  Cr  Cr5  1  0.39250700  0.23414600  0.18744900  1
  Cr  Cr6  1  0.27613100  0.11048000  0.81263400  1
  Cr  Cr7  1  0.48123800  0.64023000  0.43760200  1
  Cr  Cr8  1  0.35801400  0.51601400  0.06257500  1
  Cr  Cr9  1  0.09777400  0.26599500  0.31224200  1
  Cr  Cr10  1  0.01730300  0.85868000  0.06241000  1
  O  O0  1  0.91438100  0.05285700  0.65966000  1
  O  O1  1  0.94546900  0.08428000  0.84057100  1
  O  O2  1  0.92926300  0.42985400  0.71598600  1
  O  O3  1  0.80991100  0.29941800  0.34141200  1
  O  O4  1  0.94481000  0.45046900  0.90843900  1
  O  O5  1  0.82134000  0.32051200  0.53404700  1
  O  O6  1  0.69565900  0.19391800  0.15908800  1
  O  O7  1  0.68383400  0.18176000  0.96588800  1
  O  O8  1  0.55457000  0.05522500  0.59092400  1
  O  O9  1  0.92859600  0.78653700  0.78440800  1
  O  O10  1  0.56522700  0.06731700  0.78409800  1
  O  O11  1  0.80204900  0.66409200  0.40958000  1
  O  O12  1  0.66898600  0.53091400  0.03419000  1
  O  O13  1  0.96107000  0.81287500  0.96575400  1
  O  O14  1  0.84404100  0.70726800  0.59082100  1
  O  O15  1  0.71875400  0.57883200  0.21582700  1
  O  O16  1  0.79296300  0.94205100  0.28431800  1
  O  O17  1  0.82567200  0.96838300  0.46587500  1
  O  O18  1  0.70590600  0.84307700  0.09087800  1
  O  O19  1  0.54899700  0.40664600  0.65909000  1
  O  O20  1  0.43027600  0.28702900  0.28458900  1
  O  O21  1  0.58579100  0.44428000  0.84033200  1
  O  O22  1  0.46050400  0.32205400  0.46531400  1
  O  O23  1  0.34386900  0.20705700  0.09083400  1
  O  O24  1  0.66599100  0.80664800  0.90969500  1
  O  O25  1  0.53121100  0.66730800  0.53415700  1
  O  O26  1  0.41488200  0.55254800  0.15967900  1
  O  O27  1  0.57233400  0.71082700  0.71534800  1
  O  O28  1  0.44484400  0.58728600  0.34039800  1
  O  O29  1  0.30566400  0.16466200  0.90946800  1
  O  O30  1  0.16954700  0.03189200  0.53411700  1
  O  O31  1  0.21871500  0.07815900  0.71579100  1
  O  O32  1  0.28848100  0.43593900  0.78443100  1
  O  O33  1  0.15625000  0.29676300  0.40919400  1
  O  O34  1  0.03100400  0.16733100  0.03422900  1
  O  O35  1  0.32006500  0.46262900  0.96546100  1
  O  O36  1  0.20586200  0.34342100  0.59084600  1
  O  O37  1  0.43008500  0.93091100  0.21591900  1
  O  O38  1  0.07216300  0.21085200  0.21536900  1
  O  O39  1  0.44520300  0.94500900  0.40899600  1
  O  O40  1  0.32168500  0.82036100  0.03415400  1
  O  O41  1  0.30501000  0.79967600  0.84155800  1
  O  O42  1  0.17987300  0.68122100  0.46588800  1
  O  O43  1  0.05426400  0.55475300  0.09093100  1
  O  O44  1  0.19472900  0.69379800  0.65907200  1
  O  O45  1  0.06522600  0.57532600  0.28354600  1
  O  O46  1  0.04873500  0.90636800  0.15912700  1
  O  O47  1  0.08211700  0.93282200  0.34063500  1
loop_
_geom_bond_atom_site_label_1
_geom_bond_atom_site_label_2
_geom_bond_distance
_geom_bond_site_symmetry_2
Li0 O31 2.049029 1_655
Li0 O9 2.065132 1_545
Li0 O2 2.148601 1_555
Li0 O10 2.158173 1_555
Li0 O32 2.203176 1_655
Li0 O27 2.239398 1_545
Li1 O40 2.041995 1_556
Li1 O7 2.046251 1_455
Li1 O13 2.131416 1_455
Li1 O35 2.167826 1_555
Li1 O12 2.194300 1_456
Li1 O34 2.234919 1_556
Li2 O32 2.067235 1_655
Li2 O9 2.091177 1_555
Li2 O21 2.097670 1_555
Li2 O41 2.101873 1_655
Li2 O1 2.123980 1_555
Li2 O10 2.159747 1_555
Li3 O44 2.043084 1_655
Li3 O8 2.046530 1_555
Li3 O19 2.163453 1_555
Li3 O0 2.197928 1_555
Li3 O36 2.198616 1_655
Li3 O14 2.212966 1_555
Li4 O33 2.067629 1_655
Li4 O17 2.076088 1_545
Li4 O22 2.108118 1_555
Li4 O39 2.117051 1_545
Li4 O11 2.128054 1_555
Li4 O42 2.131014 1_655
Li5 O37 2.037984 1_545
Li5 O45 2.041350 1_655
Li5 O16 2.153033 1_545
Li5 O20 2.153243 1_555
Li5 O15 2.188209 1_555
Li5 O38 2.200819 1_655
Li6 O34 2.089955 1_655
Li6 O23 2.090318 1_555
Li6 O12 2.100383 1_555
Li6 O18 2.106656 1_545
Li6 O40 2.115715 1_545
Li6 O43 2.121465 1_655
Li7 O1 2.065863 1_565
Li7 O24 2.070722 1_555
Li7 O4 2.099827 1_555
Li7 O41 2.108340 1_655
Li7 O29 2.221897 1_665
Li7 O21 2.225171 1_555
Li8 O41 2.037983 1_545
Li8 O4 2.045539 1_555
Li8 O29 2.166150 1_555
Li8 O1 2.181238 1_555
Li8 O21 2.187984 1_555
Li8 O24 2.189844 1_545
Li9 O25 2.058750 1_555
Li9 O17 2.068224 1_555
Li9 O42 2.120138 1_655
Li9 O5 2.151899 1_555
Li9 O30 2.170562 1_665
Li9 O22 2.225695 1_555
Li10 O18 2.064724 1_555
Li10 O26 2.068838 1_555
Li10 O43 2.107619 1_655
Li10 O6 2.151458 1_555
Li10 O46 2.163410 1_655
Li10 O23 2.193254 1_555
Li11 O31 2.064396 1_555
Li11 O19 2.077598 1_555
Li11 O0 2.111240 1_555
Li11 O2 2.115858 1_555
Li11 O27 2.125727 1_545
Li11 O44 2.131983 1_545
Li12 O5 2.044914 1_555
Li12 O42 2.048887 1_545
Li12 O17 2.163977 1_545
Li12 O30 2.195738 1_555
Li12 O22 2.197154 1_555
Li12 O25 2.216107 1_545
Li13 O27 2.058572 1_555
Li13 O32 2.060120 1_555
Li13 O2 2.132525 1_555
Li13 O10 2.154307 1_555
Li13 O31 2.173354 1_555
Li13 O9 2.213809 1_555
Li14 O33 2.050793 1_555
Li14 O28 2.073501 1_555
Li14 O39 2.144070 1_545
Li14 O3 2.157375 1_555
Li14 O11 2.218963 1_555
Li14 O47 2.241249 1_545
Li15 O11 2.061463 1_555
Li15 O47 2.067793 1_655
Li15 O3 2.104079 1_565
Li15 O39 2.120597 1_555
Li15 O33 2.177366 1_665
Li15 O28 2.220922 1_555
Li16 O12 2.059122 1_556
Li16 O13 2.059410 1_555
Li16 O40 2.127673 1_556
Li16 O7 2.156965 1_565
Li16 O34 2.183236 1_666
Li16 O35 2.203251 1_555
Li17 O34 2.058966 1_556
Li17 O35 2.069461 1_555
Li17 O7 2.138402 1_555
Li17 O40 2.152291 1_546
Li17 O12 2.185204 1_556
Li17 O13 2.214409 1_445
Li18 O0 2.066233 1_455
Li18 O36 2.066624 1_555
Li18 O8 2.112521 1_555
Li18 O44 2.150581 1_545
Li18 O19 2.158539 1_555
Li18 O14 2.197288 1_445
Li19 O19 2.062599 1_555
Li19 O14 2.063583 1_555
Li19 O44 2.117601 1_555
Li19 O36 2.157896 1_555
Li19 O8 2.159001 1_565
Li19 O0 2.236674 1_565
Li20 O15 2.046733 1_555
Li20 O20 2.071948 1_555
Li20 O37 2.151957 1_555
Li20 O45 2.159394 1_555
Li20 O16 2.220365 1_555
Li20 O38 2.240721 1_555
Li21 O47 2.084410 1_555
Li21 O16 2.087694 1_555
Li21 O20 2.094620 1_565
Li21 O28 2.097220 1_555
Li21 O3 2.131051 1_565
Li21 O45 2.131190 1_555
Li22 O21 2.067269 1_555
Li22 O29 2.071342 1_555
Li22 O41 2.102012 1_555
Li22 O4 2.117290 1_455
Li22 O1 2.224870 1_455
Li22 O24 2.227184 1_555
Li23 O30 2.061483 1_555
Li23 O22 2.069187 1_555
Li23 O5 2.107631 1_455
Li23 O42 2.155183 1_555
Li23 O17 2.171662 1_445
Li23 O25 2.184715 1_555
Li24 O6 2.046486 1_565
Li24 O43 2.046913 1_555
Li24 O46 2.167409 1_555
Li24 O18 2.196194 1_555
Li24 O23 2.205255 1_565
Li24 O26 2.207649 1_555
Li25 O23 2.059880 1_555
Li25 O46 2.067017 1_545
Li25 O6 2.117529 1_455
Li25 O18 2.154350 1_445
Li25 O43 2.154716 1_555
Li25 O26 2.241234 1_555
Li26 O13 2.067793 1_455
Li26 O35 2.095881 1_555
Li26 O24 2.105570 1_555
Li26 O4 2.105617 1_455
Li26 O29 2.109494 1_565
Li26 O7 2.151747 1_565
Li27 O2 2.033449 1_455
Li27 O10 2.045068 1_565
Li27 O32 2.150342 1_555
Li27 O9 2.162780 1_455
Li27 O27 2.193729 1_555
Li27 O31 2.206140 1_565
Li28 O14 2.090143 1_455
Li28 O25 2.092001 1_555
Li28 O30 2.104508 1_565
Li28 O36 2.104760 1_555
Li28 O5 2.118235 1_455
Li28 O8 2.122908 1_565
Li29 O39 2.036454 1_555
Li29 O3 2.044523 1_455
Li29 O47 2.149243 1_555
Li29 O28 2.163580 1_555
Li29 O33 2.190534 1_555
Li29 O11 2.194545 1_455
Li30 O15 2.064653 1_455
Li30 O46 2.074941 1_555
Li30 O26 2.115562 1_555
Li30 O37 2.123486 1_555
Li30 O6 2.124704 1_455
Li30 O38 2.126857 1_555
Li31 O16 2.065418 1_455
Li31 O38 2.067828 1_565
Li31 O45 2.099386 1_555
Li31 O37 2.124611 1_555
Li31 O15 2.162121 1_455
Li31 O20 2.233329 1_565
Mn0 O35 1.934047 1_555
Mn0 O13 1.937275 1_555
Mn0 O4 1.939230 1_555
Mn0 O24 1.942822 1_555
Mn0 O29 1.946454 1_555
Mn0 O7 1.953484 1_555
Mn1 O46 1.924444 1_655
Mn1 O15 1.926641 1_555
Mn1 O37 1.944078 1_555
Mn1 O6 1.948586 1_565
Mn1 O26 1.949591 1_555
Mn1 O38 1.949792 1_665
Mn2 O9 1.931800 1_555
Mn2 O32 1.938138 1_555
Mn2 O41 1.941162 1_555
Mn2 O21 1.943606 1_555
Mn2 O1 1.946854 1_565
Mn2 O10 1.951481 1_565
Mn3 O19 1.925321 1_555
Mn3 O31 1.927797 1_555
Mn3 O2 1.946989 1_455
Mn3 O27 1.948558 1_555
Mn3 O0 1.951215 1_455
Mn3 O44 1.951469 1_555
Mn4 O17 1.923983 1_455
Mn4 O33 1.926790 1_565
Mn4 O39 1.947447 1_555
Mn4 O11 1.949783 1_455
Mn4 O42 1.950935 1_555
Mn4 O22 1.951829 1_565
Cr0 O24 1.910422 1_545
Cr0 O7 1.918837 1_555
Cr0 O29 1.944951 1_655
Cr0 O13 1.970252 1_545
Cr0 O35 1.977787 1_655
Cr0 O4 1.996388 1_555
Cr1 O14 1.886496 1_545
Cr1 O30 1.888542 1_655
Cr1 O8 1.965329 1_555
Cr1 O5 1.982424 1_555
Cr1 O36 1.993758 1_655
Cr1 O25 1.996971 1_545
Cr2 O27 1.898237 1_555
Cr2 O0 1.903048 1_565
Cr2 O44 1.963855 1_655
Cr2 O31 1.981702 1_665
Cr2 O2 1.982071 1_555
Cr2 O19 1.987570 1_555
Cr3 O47 1.886699 1_655
Cr3 O45 1.908162 1_655
Cr3 O28 1.946395 1_555
Cr3 O20 1.979970 1_555
Cr3 O16 1.989958 1_555
Cr3 O3 1.995808 1_555
Cr4 O36 1.886762 1_555
Cr4 O25 1.888138 1_555
Cr4 O5 1.967417 1_555
Cr4 O8 1.977520 1_555
Cr4 O30 1.992192 1_555
Cr4 O14 1.997016 1_555
Cr5 O38 1.898488 1_555
Cr5 O26 1.901691 1_555
Cr5 O6 1.967725 1_555
Cr5 O37 1.977152 1_545
Cr5 O46 1.985750 1_545
Cr5 O15 1.986272 1_555
Cr6 O21 1.916015 1_555
Cr6 O10 1.920548 1_555
Cr6 O1 1.936519 1_455
Cr6 O32 1.958867 1_555
Cr6 O9 1.985043 1_445
Cr6 O41 1.998673 1_545
Cr7 O11 1.901696 1_555
Cr7 O22 1.902351 1_555
Cr7 O42 1.960496 1_555
Cr7 O33 1.981654 1_555
Cr7 O39 1.982965 1_555
Cr7 O17 1.987006 1_555
Cr8 O12 1.885274 1_555
Cr8 O23 1.888320 1_555
Cr8 O43 1.966576 1_555
Cr8 O40 1.977806 1_555
Cr8 O18 1.993367 1_555
Cr8 O34 1.996335 1_555
Cr9 O16 1.888827 1_445
Cr9 O3 1.907228 1_455
Cr9 O20 1.947136 1_555
Cr9 O28 1.977561 1_555
Cr9 O47 1.989227 1_545
Cr9 O45 1.995891 1_555
Cr10 O34 1.886091 1_565
Cr10 O18 1.887635 1_455
Cr10 O40 1.966057 1_555
Cr10 O43 1.979711 1_555
Cr10 O12 1.994057 1_455
Cr10 O23 1.996329 1_565
