# generated using pymatgen
data_Pr4InSbS9
_symmetry_space_group_name_H-M   'P 1'
_cell_length_a   10.28256500
_cell_length_b   10.28256500
_cell_length_c   28.18766900
_cell_angle_alpha   90.00000000
_cell_angle_beta   90.00000000
_cell_angle_gamma   90.00000000
_symmetry_Int_Tables_number   1
_chemical_formula_structural   Pr4InSbS9
_chemical_formula_sum   'Pr32 In8 Sb8 S72'
_cell_volume   2980.31446129
_cell_formula_units_Z   8
loop_
 _symmetry_equiv_pos_site_id
 _symmetry_equiv_pos_as_xyz
  1  'x, y, z'
loop_
 _atom_site_type_symbol
 _atom_site_label
 _atom_site_symmetry_multiplicity
 _atom_site_fract_x
 _atom_site_fract_y
 _atom_site_fract_z
 _atom_site_occupancy
  Pr  Pr0  1  0.93954000  0.27601500  0.16181600  1
  Pr  Pr1  1  0.06046000  0.72398500  0.66181600  1
  Pr  Pr2  1  0.77601500  0.56046000  0.41181600  1
  Pr  Pr3  1  0.22398500  0.43954000  0.91181600  1
  Pr  Pr4  1  0.72398500  0.06046000  0.33818400  1
  Pr  Pr5  1  0.27601500  0.93954000  0.83818400  1
  Pr  Pr6  1  0.56046000  0.77601500  0.58818400  1
  Pr  Pr7  1  0.43954000  0.22398500  0.08818400  1
  Pr  Pr8  1  0.98949000  0.34934700  0.30278100  1
  Pr  Pr9  1  0.01051000  0.65065300  0.80278100  1
  Pr  Pr10  1  0.84934700  0.51051000  0.55278100  1
  Pr  Pr11  1  0.15065300  0.48949000  0.05278100  1
  Pr  Pr12  1  0.65065300  0.01051000  0.19721900  1
  Pr  Pr13  1  0.34934700  0.98949000  0.69721900  1
  Pr  Pr14  1  0.51051000  0.84934700  0.44721900  1
  Pr  Pr15  1  0.48949000  0.15065300  0.94721900  1
  Pr  Pr16  1  0.26702200  0.49833300  0.19926400  1
  Pr  Pr17  1  0.73297800  0.50166700  0.69926400  1
  Pr  Pr18  1  0.99833300  0.23297800  0.44926400  1
  Pr  Pr19  1  0.00166700  0.76702200  0.94926400  1
  Pr  Pr20  1  0.50166700  0.73297800  0.30073600  1
  Pr  Pr21  1  0.49833300  0.26702200  0.80073600  1
  Pr  Pr22  1  0.23297800  0.99833300  0.55073600  1
  Pr  Pr23  1  0.76702200  0.00166700  0.05073600  1
  Pr  Pr24  1  0.94346200  0.72821400  0.15759900  1
  Pr  Pr25  1  0.05653800  0.27178600  0.65759900  1
  Pr  Pr26  1  0.22821400  0.55653800  0.40759900  1
  Pr  Pr27  1  0.77178600  0.44346200  0.90759900  1
  Pr  Pr28  1  0.27178600  0.05653800  0.34240100  1
  Pr  Pr29  1  0.72821400  0.94346200  0.84240100  1
  Pr  Pr30  1  0.55653800  0.22821400  0.59240100  1
  Pr  Pr31  1  0.44346200  0.77178600  0.09240100  1
  In  In0  1  0.70248200  0.48637300  0.04691800  1
  In  In1  1  0.29751800  0.51362700  0.54691800  1
  In  In2  1  0.98637300  0.79751800  0.29691800  1
  In  In3  1  0.01362700  0.20248200  0.79691800  1
  In  In4  1  0.51362700  0.29751800  0.45308200  1
  In  In5  1  0.48637300  0.70248200  0.95308200  1
  In  In6  1  0.79751800  0.98637300  0.70308200  1
  In  In7  1  0.20248200  0.01362700  0.20308200  1
  Sb  Sb0  1  0.14064400  0.99107500  0.05554700  1
  Sb  Sb1  1  0.85935600  0.00892500  0.55554700  1
  Sb  Sb2  1  0.49107500  0.35935600  0.30554700  1
  Sb  Sb3  1  0.50892500  0.64064400  0.80554700  1
  Sb  Sb4  1  0.00892500  0.85935600  0.44445300  1
  Sb  Sb5  1  0.99107500  0.14064400  0.94445300  1
  Sb  Sb6  1  0.35935600  0.49107500  0.69445300  1
  Sb  Sb7  1  0.64064400  0.50892500  0.19445300  1
  S  S0  1  0.17589600  0.98906600  0.96228100  1
  S  S1  1  0.82410400  0.01093400  0.46228100  1
  S  S2  1  0.48906600  0.32410400  0.21228100  1
  S  S3  1  0.51093400  0.67589600  0.71228100  1
  S  S4  1  0.01093400  0.82410400  0.53771900  1
  S  S5  1  0.98906600  0.17589600  0.03771900  1
  S  S6  1  0.32410400  0.48906600  0.78771900  1
  S  S7  1  0.67589600  0.51093400  0.28771900  1
  S  S8  1  0.97925700  0.81266000  0.04994700  1
  S  S9  1  0.02074300  0.18734000  0.54994700  1
  S  S10  1  0.31266000  0.52074300  0.29994700  1
  S  S11  1  0.68734000  0.47925700  0.79994700  1
  S  S12  1  0.18734000  0.02074300  0.45005300  1
  S  S13  1  0.81266000  0.97925700  0.95005300  1
  S  S14  1  0.52074300  0.31266000  0.70005300  1
  S  S15  1  0.47925700  0.68734000  0.20005300  1
  S  S16  1  0.01179100  0.00559500  0.14778300  1
  S  S17  1  0.98820900  0.99440500  0.64778300  1
  S  S18  1  0.50559500  0.48820900  0.39778300  1
  S  S19  1  0.49440500  0.51179100  0.89778300  1
  S  S20  1  0.99440500  0.98820900  0.35221700  1
  S  S21  1  0.00559500  0.01179100  0.85221700  1
  S  S22  1  0.48820900  0.50559500  0.60221700  1
  S  S23  1  0.51179100  0.49440500  0.10221700  1
  S  S24  1  0.89727600  0.49678400  0.09922600  1
  S  S25  1  0.10272400  0.50321600  0.59922600  1
  S  S26  1  0.99678400  0.60272400  0.34922600  1
  S  S27  1  0.00321600  0.39727600  0.84922600  1
  S  S28  1  0.50321600  0.10272400  0.40077400  1
  S  S29  1  0.49678400  0.89727600  0.90077400  1
  S  S30  1  0.60272400  0.99678400  0.65077400  1
  S  S31  1  0.39727600  0.00321600  0.15077400  1
  S  S32  1  0.69316300  0.69316300  0.00000000  1
  S  S33  1  0.30683700  0.30683700  0.50000000  1
  S  S34  1  0.19316300  0.80683700  0.25000000  1
  S  S35  1  0.80683700  0.19316300  0.75000000  1
  S  S36  1  0.79390700  0.80255800  0.24398500  1
  S  S37  1  0.20609300  0.19744200  0.74398500  1
  S  S38  1  0.30255800  0.70609300  0.49398500  1
  S  S39  1  0.69744200  0.29390700  0.99398500  1
  S  S40  1  0.19744200  0.20609300  0.25601500  1
  S  S41  1  0.80255800  0.79390700  0.75601500  1
  S  S42  1  0.70609300  0.30255800  0.50601500  1
  S  S43  1  0.29390700  0.69744200  0.00601500  1
  S  S44  1  0.99666700  0.50092800  0.21828600  1
  S  S45  1  0.00333300  0.49907200  0.71828600  1
  S  S46  1  0.00092800  0.50333300  0.46828600  1
  S  S47  1  0.99907200  0.49666700  0.96828600  1
  S  S48  1  0.49907200  0.00333300  0.28171400  1
  S  S49  1  0.50092800  0.99666700  0.78171400  1
  S  S50  1  0.50333300  0.00092800  0.53171400  1
  S  S51  1  0.49666700  0.99907200  0.03171400  1
  S  S52  1  0.70198800  0.82484400  0.12353300  1
  S  S53  1  0.29801200  0.17515600  0.62353300  1
  S  S54  1  0.32484400  0.79801200  0.37353300  1
  S  S55  1  0.67515600  0.20198800  0.87353300  1
  S  S56  1  0.17515600  0.29801200  0.37646700  1
  S  S57  1  0.82484400  0.70198800  0.87646700  1
  S  S58  1  0.79801200  0.32484400  0.62646700  1
  S  S59  1  0.20198800  0.67515600  0.12646700  1
  S  S60  1  0.70118900  0.18938500  0.12217500  1
  S  S61  1  0.29881100  0.81061500  0.62217500  1
  S  S62  1  0.68938500  0.79881100  0.37217500  1
  S  S63  1  0.31061500  0.20118900  0.87217500  1
  S  S64  1  0.81061500  0.29881100  0.37782500  1
  S  S65  1  0.18938500  0.70118900  0.87782500  1
  S  S66  1  0.79881100  0.68938500  0.62782500  1
  S  S67  1  0.20118900  0.31061500  0.12782500  1
  S  S68  1  0.81695600  0.18304400  0.25000000  1
  S  S69  1  0.18304400  0.81695600  0.75000000  1
  S  S70  1  0.68304400  0.68304400  0.50000000  1
  S  S71  1  0.31695600  0.31695600  0.00000000  1
loop_
_geom_bond_atom_site_label_1
_geom_bond_atom_site_label_2
_geom_bond_distance
_geom_bond_site_symmetry_2
Pr0 S60 2.837033 1_555
Pr0 S44 2.868318 1_555
Pr0 S67 2.878013 1_655
Pr0 S16 2.905203 1_655
Pr0 S24 2.907700 1_555
Pr0 S68 2.946424 1_555
Pr1 S61 2.837033 1_555
Pr1 S45 2.868318 1_555
Pr1 S66 2.878013 1_455
Pr1 S17 2.905203 1_455
Pr1 S25 2.907700 1_555
Pr1 S69 2.946424 1_555
Pr2 S62 2.837033 1_555
Pr2 S46 2.868318 1_655
Pr2 S64 2.878013 1_555
Pr2 S18 2.905203 1_555
Pr2 S26 2.907700 1_555
Pr2 S70 2.946424 1_555
Pr3 S63 2.837033 1_555
Pr3 S47 2.868318 1_455
Pr3 S65 2.878013 1_555
Pr3 S19 2.905203 1_555
Pr3 S27 2.907700 1_555
Pr3 S71 2.946424 1_556
Pr4 S64 2.837033 1_555
Pr4 S48 2.868318 1_555
Pr4 S62 2.878013 1_545
Pr4 S20 2.905203 1_545
Pr4 S28 2.907700 1_555
Pr4 S68 2.946424 1_555
Pr5 S65 2.837033 1_555
Pr5 S49 2.868318 1_555
Pr5 S63 2.878013 1_565
Pr5 S21 2.905203 1_565
Pr5 S29 2.907700 1_555
Pr5 S69 2.946424 1_555
Pr6 S66 2.837033 1_555
Pr6 S50 2.868318 1_565
Pr6 S61 2.878013 1_555
Pr6 S22 2.905203 1_555
Pr6 S30 2.907700 1_555
Pr6 S70 2.946424 1_555
Pr7 S67 2.837033 1_555
Pr7 S51 2.868318 1_545
Pr7 S60 2.878013 1_555
Pr7 S23 2.905203 1_555
Pr7 S31 2.907700 1_555
Pr7 S71 2.946424 1_555
Pr8 S44 2.847347 1_555
Pr8 S64 2.850892 1_555
Pr8 S56 2.870098 1_655
Pr8 S68 2.878375 1_555
Pr8 S40 2.911999 1_655
Pr8 S26 2.916761 1_555
Pr9 S45 2.847347 1_555
Pr9 S65 2.850892 1_555
Pr9 S57 2.870098 1_455
Pr9 S69 2.878375 1_555
Pr9 S41 2.911999 1_455
Pr9 S27 2.916761 1_555
Pr10 S46 2.847347 1_655
Pr10 S66 2.850892 1_555
Pr10 S58 2.870098 1_555
Pr10 S70 2.878375 1_555
Pr10 S42 2.911999 1_555
Pr10 S25 2.916761 1_655
Pr11 S47 2.847347 1_454
Pr11 S67 2.850892 1_555
Pr11 S59 2.870098 1_555
Pr11 S71 2.878375 1_555
Pr11 S43 2.911999 1_555
Pr11 S24 2.916761 1_455
Pr12 S48 2.847347 1_555
Pr12 S60 2.850892 1_555
Pr12 S52 2.870098 1_545
Pr12 S68 2.878375 1_555
Pr12 S36 2.911999 1_545
Pr12 S31 2.916761 1_555
Pr13 S49 2.847347 1_555
Pr13 S61 2.850892 1_555
Pr13 S53 2.870098 1_565
Pr13 S69 2.878375 1_555
Pr13 S37 2.911999 1_565
Pr13 S30 2.916761 1_555
Pr14 S50 2.847347 1_565
Pr14 S62 2.850892 1_555
Pr14 S54 2.870098 1_555
Pr14 S70 2.878375 1_555
Pr14 S38 2.911999 1_555
Pr14 S28 2.916761 1_565
Pr15 S51 2.847347 1_546
Pr15 S63 2.850892 1_555
Pr15 S55 2.870098 1_555
Pr15 S71 2.878375 1_556
Pr15 S39 2.911999 1_555
Pr15 S29 2.916761 1_545
Pr16 S59 2.821989 1_555
Pr16 S44 2.831305 1_455
Pr16 S67 2.870362 1_555
Pr16 S10 2.885770 1_555
Pr16 S15 2.922348 1_555
Pr16 S2 2.925252 1_555
Pr17 S58 2.821989 1_555
Pr17 S45 2.831305 1_655
Pr17 S66 2.870362 1_555
Pr17 S11 2.885770 1_555
Pr17 S14 2.922348 1_555
Pr17 S3 2.925252 1_555
Pr18 S56 2.821989 1_655
Pr18 S46 2.831305 1_655
Pr18 S64 2.870362 1_555
Pr18 S9 2.885770 1_655
Pr18 S12 2.922348 1_655
Pr18 S1 2.925252 1_555
Pr19 S57 2.821989 1_455
Pr19 S47 2.831305 1_455
Pr19 S65 2.870362 1_555
Pr19 S8 2.885770 1_456
Pr19 S13 2.922348 1_455
Pr19 S0 2.925252 1_555
Pr20 S54 2.821989 1_555
Pr20 S48 2.831305 1_565
Pr20 S62 2.870362 1_555
Pr20 S15 2.885770 1_555
Pr20 S10 2.922348 1_555
Pr20 S7 2.925252 1_555
Pr21 S55 2.821989 1_555
Pr21 S49 2.831305 1_545
Pr21 S63 2.870362 1_555
Pr21 S14 2.885770 1_555
Pr21 S11 2.922348 1_555
Pr21 S6 2.925252 1_555
Pr22 S53 2.821989 1_565
Pr22 S50 2.831305 1_565
Pr22 S61 2.870362 1_555
Pr22 S12 2.885770 1_565
Pr22 S9 2.922348 1_565
Pr22 S4 2.925252 1_555
Pr23 S52 2.821989 1_545
Pr23 S51 2.831305 1_545
Pr23 S60 2.870362 1_555
Pr23 S13 2.885770 1_544
Pr23 S8 2.922348 1_545
Pr23 S5 2.925252 1_555
Pr24 S52 2.841560 1_555
Pr24 S59 2.852076 1_655
Pr24 S24 2.931863 1_555
Pr24 S44 2.947456 1_555
Pr24 S16 2.950454 1_665
Pr24 S36 2.979691 1_555
Pr24 S8 3.177640 1_555
Pr25 S53 2.841560 1_555
Pr25 S58 2.852076 1_455
Pr25 S25 2.931863 1_555
Pr25 S45 2.947456 1_555
Pr25 S17 2.950454 1_445
Pr25 S37 2.979691 1_555
Pr25 S9 3.177640 1_555
Pr26 S54 2.841560 1_555
Pr26 S56 2.852076 1_555
Pr26 S26 2.931863 1_455
Pr26 S46 2.947456 1_555
Pr26 S18 2.950454 1_555
Pr26 S38 2.979691 1_555
Pr26 S10 3.177640 1_555
Pr27 S55 2.841560 1_555
Pr27 S57 2.852076 1_555
Pr27 S27 2.931863 1_655
Pr27 S47 2.947456 1_555
Pr27 S19 2.950454 1_555
Pr27 S39 2.979691 1_555
Pr27 S11 3.177640 1_555
Pr28 S56 2.841560 1_555
Pr28 S54 2.852076 1_545
Pr28 S28 2.931863 1_555
Pr28 S48 2.947456 1_555
Pr28 S20 2.950454 1_445
Pr28 S40 2.979691 1_555
Pr28 S12 3.177640 1_555
Pr29 S57 2.841560 1_555
Pr29 S55 2.852076 1_565
Pr29 S29 2.931863 1_555
Pr29 S49 2.947456 1_555
Pr29 S21 2.950454 1_665
Pr29 S41 2.979691 1_555
Pr29 S13 3.177640 1_555
Pr30 S58 2.841560 1_555
Pr30 S53 2.852076 1_555
Pr30 S30 2.931863 1_545
Pr30 S50 2.947456 1_555
Pr30 S22 2.950454 1_555
Pr30 S42 2.979691 1_555
Pr30 S14 3.177640 1_555
Pr31 S59 2.841560 1_555
Pr31 S52 2.852076 1_555
Pr31 S31 2.931863 1_565
Pr31 S51 2.947456 1_555
Pr31 S23 2.950454 1_555
Pr31 S43 2.979691 1_555
Pr31 S15 3.177640 1_555
In0 S39 2.479020 1_554
In0 S24 2.489452 1_555
In0 S32 2.505893 1_555
In0 S23 2.506238 1_555
In1 S38 2.479020 1_555
In1 S25 2.489452 1_555
In1 S33 2.505893 1_555
In1 S22 2.506238 1_555
In2 S36 2.479020 1_555
In2 S26 2.489452 1_555
In2 S34 2.505893 1_655
In2 S20 2.506238 1_555
In3 S37 2.479020 1_555
In3 S27 2.489452 1_555
In3 S35 2.505893 1_455
In3 S21 2.506238 1_555
In4 S42 2.479020 1_555
In4 S28 2.489452 1_555
In4 S33 2.505893 1_555
In4 S18 2.506238 1_555
In5 S43 2.479020 1_556
In5 S29 2.489452 1_555
In5 S32 2.505893 1_556
In5 S19 2.506238 1_555
In6 S41 2.479020 1_555
In6 S30 2.489452 1_555
In6 S35 2.505893 1_565
In6 S17 2.506238 1_555
In7 S40 2.479020 1_555
In7 S31 2.489452 1_555
In7 S34 2.505893 1_545
In7 S16 2.506238 1_555
S0 Sb5 2.508675 1_465
S0 Sb0 2.653903 1_556
S1 Sb4 2.508675 1_645
S1 Sb1 2.653903 1_555
S2 Sb7 2.508675 1_555
S2 Sb2 2.653903 1_555
S3 Sb6 2.508675 1_555
S3 Sb3 2.653903 1_555
S4 Sb1 2.508675 1_465
S4 Sb4 2.653903 1_555
S5 Sb0 2.508675 1_645
S5 Sb5 2.653903 1_554
S6 Sb3 2.508675 1_555
S6 Sb6 2.653903 1_555
S7 Sb2 2.508675 1_555
S7 Sb7 2.653903 1_555
S8 Sb0 2.478788 1_655
S9 Sb1 2.478788 1_455
S10 Sb2 2.478788 1_555
S11 Sb3 2.478788 1_555
S12 Sb4 2.478788 1_545
S13 Sb5 2.478788 1_565
S14 Sb6 2.478788 1_555
S15 Sb7 2.478788 1_555
S16 Sb0 2.921871 1_545
S17 Sb1 2.921871 1_565
S18 Sb2 2.921871 1_555
S19 Sb3 2.921871 1_555
S20 Sb4 2.921871 1_655
S21 Sb5 2.921871 1_455
S22 Sb6 2.921871 1_555
S23 Sb7 2.921871 1_555
