# generated using pymatgen
data_Pr(TmS2)3
_symmetry_space_group_name_H-M   'P 1'
_cell_length_a   3.94853975
_cell_length_b   10.97874707
_cell_length_c   11.23171169
_cell_angle_alpha   71.10809175
_cell_angle_beta   90.00000000
_cell_angle_gamma   90.00000000
_symmetry_Int_Tables_number   1
_chemical_formula_structural   Pr(TmS2)3
_chemical_formula_sum   'Pr2 Tm6 S12'
_cell_volume   460.66642139
_cell_formula_units_Z   2
loop_
 _symmetry_equiv_pos_site_id
 _symmetry_equiv_pos_as_xyz
  1  'x, y, z'
loop_
 _atom_site_type_symbol
 _atom_site_label
 _atom_site_symmetry_multiplicity
 _atom_site_fract_x
 _atom_site_fract_y
 _atom_site_fract_z
 _atom_site_occupancy
  Pr  Pr0  1  0.75000000  0.55006282  0.80384038  1
  Pr  Pr1  1  0.25000000  0.44993718  0.19615962  1
  Tm  Tm0  1  0.75000000  0.17903046  0.99850732  1
  Tm  Tm1  1  0.25000000  0.82096954  0.00149268  1
  Tm  Tm2  1  0.75000000  0.94267208  0.66665731  1
  Tm  Tm3  1  0.25000000  0.05732792  0.33334269  1
  Tm  Tm4  1  0.75000000  0.66170984  0.41222162  1
  Tm  Tm5  1  0.25000000  0.33829016  0.58777838  1
  S  S0  1  0.75000000  0.97763997  0.88820676  1
  S  S1  1  0.25000000  0.02236003  0.11179324  1
  S  S2  1  0.75000000  0.30108458  0.74872283  1
  S  S3  1  0.25000000  0.69891542  0.25127717  1
  S  S4  1  0.75000000  0.89382496  0.44200678  1
  S  S5  1  0.25000000  0.10617504  0.55799322  1
  S  S6  1  0.75000000  0.41829321  0.40850993  1
  S  S7  1  0.25000000  0.58170679  0.59149007  1
  S  S8  1  0.75000000  0.23164041  0.22917573  1
  S  S9  1  0.25000000  0.76835959  0.77082427  1
  S  S10  1  0.75000000  0.62094676  0.03621753  1
  S  S11  1  0.25000000  0.37905324  0.96378247  1
loop_
_geom_bond_atom_site_label_1
_geom_bond_atom_site_label_2
_geom_bond_distance
_geom_bond_site_symmetry_2
Pr0 S11 2.909588 1_655
Pr0 S11 2.909588 1_555
Pr0 S10 2.955163 1_556
Pr0 S2 2.991806 1_555
Pr0 S7 3.028261 1_555
Pr0 S7 3.028261 1_655
Pr0 S9 3.033735 1_555
Pr0 S9 3.033735 1_655
Pr1 S10 2.909588 1_455
Pr1 S10 2.909588 1_555
Pr1 S11 2.955163 1_554
Pr1 S3 2.991806 1_555
Pr1 S6 3.028261 1_455
Pr1 S6 3.028261 1_555
Pr1 S8 3.033735 1_455
Pr1 S8 3.033735 1_555
S0 Tm2 2.637809 1_555
S0 Tm1 2.656696 1_656
S0 Tm1 2.656696 1_556
S0 Tm0 2.863068 1_565
S1 Tm3 2.637809 1_555
S1 Tm0 2.656696 1_454
S1 Tm0 2.656696 1_554
S1 Tm1 2.863068 1_545
S2 Tm5 2.618043 1_555
S2 Tm5 2.618043 1_655
S2 Tm0 2.689242 1_555
S3 Tm4 2.618043 1_455
S3 Tm4 2.618043 1_555
S3 Tm1 2.689242 1_555
S4 Tm4 2.675440 1_555
S4 Tm3 2.681574 1_565
S4 Tm3 2.681574 1_665
S4 Tm2 2.744165 1_555
S5 Tm5 2.675440 1_555
S5 Tm2 2.681574 1_445
S5 Tm2 2.681574 1_545
S5 Tm3 2.744165 1_555
S6 Tm4 2.686197 1_555
S6 Tm5 2.752839 1_555
S6 Tm5 2.752839 1_655
S7 Tm5 2.686197 1_555
S7 Tm4 2.752839 1_555
S7 Tm4 2.752839 1_455
S8 Tm3 2.734783 1_655
S8 Tm3 2.734783 1_555
S8 Tm0 2.831059 1_554
S9 Tm2 2.734783 1_555
S9 Tm2 2.734783 1_455
S9 Tm1 2.831059 1_556
S10 Tm1 2.884032 1_555
S10 Tm1 2.884032 1_655
S11 Tm0 2.884032 1_555
S11 Tm0 2.884032 1_455
