# generated using pymatgen
data_Mg14MnCo
_symmetry_space_group_name_H-M   'P 1'
_cell_length_a   6.19987388
_cell_length_b   6.18908144
_cell_length_c   9.76922027
_cell_angle_alpha   90.00000000
_cell_angle_beta   90.00000000
_cell_angle_gamma   119.94243818
_symmetry_Int_Tables_number   1
_chemical_formula_structural   Mg14MnCo
_chemical_formula_sum   'Mg14 Mn1 Co1'
_cell_volume   324.82630947
_cell_formula_units_Z   1
loop_
 _symmetry_equiv_pos_site_id
 _symmetry_equiv_pos_as_xyz
  1  'x, y, z'
loop_
 _atom_site_type_symbol
 _atom_site_label
 _atom_site_symmetry_multiplicity
 _atom_site_fract_x
 _atom_site_fract_y
 _atom_site_fract_z
 _atom_site_occupancy
  Mg  Mg0  1  0.17126917  0.33563409  0.62500000  1
  Mg  Mg1  1  0.17056905  0.83528402  0.62500000  1
  Mg  Mg2  1  0.68178204  0.33874837  0.12500000  1
  Mg  Mg3  1  0.66346208  0.33204855  0.62500000  1
  Mg  Mg4  1  0.68178204  0.84303267  0.12500000  1
  Mg  Mg5  1  0.66346208  0.83141253  0.62500000  1
  Mg  Mg6  1  0.32047704  0.16016767  0.34873353  1
  Mg  Mg7  1  0.32047704  0.16016767  0.90126647  1
  Mg  Mg8  1  0.32047704  0.66031037  0.34873353  1
  Mg  Mg9  1  0.32047704  0.66031037  0.90126647  1
  Mg  Mg10  1  0.84401438  0.17200769  0.36907301  1
  Mg  Mg11  1  0.84401438  0.17200769  0.88092699  1
  Mg  Mg12  1  0.84461394  0.67230747  0.36605973  1
  Mg  Mg13  1  0.84461394  0.67230747  0.88394027  1
  Mn  Mn0  1  0.15363808  0.32681854  0.12500000  1
  Co  Co0  1  0.15487068  0.82743484  0.12500000  1
loop_
_geom_bond_atom_site_label_1
_geom_bond_atom_site_label_2
_geom_bond_distance
_geom_bond_site_symmetry_2
Mg0 Mg10 3.056478 1_455
Mg0 Mg11 3.056478 1_455
Mg0 Mg5 3.062670 1_555
Mg0 Mg3 3.062671 1_555
Mg0 Mg1 3.094543 1_555
Mg0 Mg1 3.094543 1_545
Mg0 Mg5 3.137322 1_445
Mg0 Mg3 3.137323 1_455
Mg0 Mg6 3.212796 1_555
Mg0 Mg7 3.212796 1_555
Mg0 Mg8 3.212802 1_555
Mg0 Mg9 3.212802 1_555
Mg1 Mg3 3.067904 1_565
Mg1 Mg5 3.067905 1_555
Mg1 Mg12 3.076625 1_455
Mg1 Mg13 3.076625 1_455
Mg1 Mg3 3.132108 1_455
Mg1 Mg5 3.132108 1_455
Mg1 Mg8 3.213311 1_555
Mg1 Mg9 3.213311 1_555
Mg1 Mg6 3.213317 1_565
Mg1 Mg7 3.213317 1_565
Mg2 Mg7 2.923213 1_554
Mg2 Mg6 2.923213 1_555
Mg2 Mn0 2.962992 1_655
Mg2 Mg4 3.068025 1_545
Mg2 Mg4 3.121057 1_555
Mg2 Mn0 3.238205 1_555
Mg3 Mg5 3.090604 1_555
Mg3 Mg5 3.098477 1_545
Mg3 Mg6 3.267940 1_555
Mg3 Mg7 3.267940 1_555
Mg4 Mg9 2.923213 1_554
Mg4 Mg8 2.923213 1_555
Mg4 Mn0 2.962992 1_665
Mg4 Mn0 3.238205 1_555
Mg5 Mg8 3.267940 1_555
Mg5 Mg9 3.267940 1_555
Mg6 Mn0 2.824195 1_555
Mg6 Mg8 3.093658 1_545
Mg6 Mg8 3.095424 1_555
Mg7 Mn0 2.824195 1_556
Mg7 Mg9 3.093658 1_545
Mg7 Mg9 3.095424 1_555
Mg8 Mn0 2.824201 1_555
Mg9 Mn0 2.824201 1_556
Mg10 Mn0 2.907286 1_655
Mg10 Mg2 2.966174 1_555
Mg10 Mg4 2.966180 1_545
Mg10 Mg8 2.997850 1_655
Mg10 Mg6 2.997850 1_655
Mg10 Mg12 3.094682 1_555
Mg10 Mg12 3.094682 1_545
Mg10 Mg3 3.097102 1_555
Mg10 Mg5 3.097108 1_545
Mg10 Mg8 3.216062 1_545
Mg10 Mg6 3.216062 1_555
Mg11 Mn0 2.907286 1_656
Mg11 Mg2 2.966174 1_556
Mg11 Mg4 2.966180 1_546
Mg11 Mg9 2.997850 1_655
Mg11 Mg7 2.997850 1_655
Mg11 Mg13 3.094682 1_555
Mg11 Mg13 3.094682 1_545
Mg11 Mg3 3.097102 1_555
Mg11 Mg5 3.097108 1_545
Mg11 Mg9 3.216062 1_545
Mg11 Mg7 3.216062 1_555
Mg12 Mg4 2.957423 1_555
Mg12 Mg2 2.957430 1_555
Mg12 Mg6 2.992835 1_665
Mg12 Mg8 2.992835 1_655
Mg12 Mg5 3.119966 1_555
Mg12 Mg3 3.119972 1_555
Mg12 Mg6 3.217621 1_555
Mg12 Mg8 3.217621 1_555
Mg13 Mg4 2.957423 1_556
Mg13 Mg2 2.957430 1_556
Mg13 Mg7 2.992835 1_665
Mg13 Mg9 2.992835 1_655
Mg13 Mg5 3.119966 1_555
Mg13 Mg3 3.119972 1_555
Mg13 Mg7 3.217621 1_555
Mg13 Mg9 3.217621 1_555
Co0 Mg9 2.821616 1_554
Co0 Mg8 2.821616 1_555
Co0 Mg7 2.821622 1_564
Co0 Mg6 2.821622 1_565
Co0 Mg13 2.885155 1_454
Co0 Mg12 2.885155 1_455
Co0 Mg2 2.982447 1_455
Co0 Mg4 2.982447 1_455
Co0 Mn0 3.094548 1_555
Co0 Mn0 3.094548 1_565
Co0 Mg2 3.219686 1_565
Co0 Mg4 3.219687 1_555
