# generated using pymatgen
data_Hg3(PO4)2
_symmetry_space_group_name_H-M   'P 1'
_cell_length_a   11.53792107
_cell_length_b   6.44731717
_cell_length_c   9.81041260
_cell_angle_alpha   80.11543863
_cell_angle_beta   90.00000000
_cell_angle_gamma   90.00000000
_symmetry_Int_Tables_number   1
_chemical_formula_structural   Hg3(PO4)2
_chemical_formula_sum   'Hg12 P8 O32'
_cell_volume   718.95003660
_cell_formula_units_Z   4
loop_
 _symmetry_equiv_pos_site_id
 _symmetry_equiv_pos_as_xyz
  1  'x, y, z'
loop_
 _atom_site_type_symbol
 _atom_site_label
 _atom_site_symmetry_multiplicity
 _atom_site_fract_x
 _atom_site_fract_y
 _atom_site_fract_z
 _atom_site_occupancy
  Hg  Hg0  1  0.16555993  0.08172175  0.65582079  1
  Hg  Hg1  1  0.66555993  0.41827825  0.34417921  1
  Hg  Hg2  1  0.83444007  0.91827825  0.34417921  1
  Hg  Hg3  1  0.33444007  0.58172175  0.65582079  1
  Hg  Hg4  1  0.89216889  0.67296177  0.69916668  1
  Hg  Hg5  1  0.39216889  0.82703823  0.30083332  1
  Hg  Hg6  1  0.10783111  0.32703823  0.30083332  1
  Hg  Hg7  1  0.60783111  0.17296177  0.69916668  1
  Hg  Hg8  1  0.12029772  0.82453725  0.03910424  1
  Hg  Hg9  1  0.62029772  0.67546275  0.96089576  1
  Hg  Hg10  1  0.87970228  0.17546275  0.96089576  1
  Hg  Hg11  1  0.37970228  0.32453725  0.03910424  1
  P  P0  1  0.36692734  0.90354291  0.89582114  1
  P  P1  1  0.86692734  0.59645709  0.10417886  1
  P  P2  1  0.63307266  0.09645709  0.10417886  1
  P  P3  1  0.13307266  0.40354291  0.89582114  1
  P  P4  1  0.89804959  0.19236748  0.61196137  1
  P  P5  1  0.39804959  0.30763252  0.38803863  1
  P  P6  1  0.10195041  0.80763252  0.38803863  1
  P  P7  1  0.60195041  0.69236748  0.61196137  1
  O  O0  1  0.43994480  0.10026728  0.86087651  1
  O  O1  1  0.93994480  0.39973272  0.13912349  1
  O  O2  1  0.56005520  0.89973272  0.13912349  1
  O  O3  1  0.06005520  0.60026728  0.86087651  1
  O  O4  1  0.43926037  0.69750465  0.91615464  1
  O  O5  1  0.93926037  0.80249535  0.08384536  1
  O  O6  1  0.56073963  0.30249535  0.08384536  1
  O  O7  1  0.06073963  0.19750465  0.91615464  1
  O  O8  1  0.28030441  0.87111693  0.78022303  1
  O  O9  1  0.78030441  0.62888307  0.21977697  1
  O  O10  1  0.71969559  0.12888307  0.21977697  1
  O  O11  1  0.21969559  0.37111693  0.78022303  1
  O  O12  1  0.29662929  0.91718015  0.03002890  1
  O  O13  1  0.79662929  0.58281985  0.96997110  1
  O  O14  1  0.70337071  0.08281985  0.96997110  1
  O  O15  1  0.20337071  0.41718015  0.03002890  1
  O  O16  1  0.81039143  0.18129504  0.49813905  1
  O  O17  1  0.31039143  0.31870496  0.50186095  1
  O  O18  1  0.18960857  0.81870496  0.50186095  1
  O  O19  1  0.68960857  0.68129504  0.49813905  1
  O  O20  1  0.47934251  0.74568589  0.55094646  1
  O  O21  1  0.97934251  0.75431411  0.44905354  1
  O  O22  1  0.52065749  0.25431411  0.44905354  1
  O  O23  1  0.02065749  0.24568589  0.55094646  1
  O  O24  1  0.59462561  0.48677733  0.72045537  1
  O  O25  1  0.09462561  0.01322267  0.27954463  1
  O  O26  1  0.40537439  0.51322267  0.27954463  1
  O  O27  1  0.90537439  0.98677733  0.72045537  1
  O  O28  1  0.64195699  0.85496320  0.70251181  1
  O  O29  1  0.14195699  0.64503680  0.29748819  1
  O  O30  1  0.35804301  0.14503680  0.29748819  1
  O  O31  1  0.85804301  0.35496320  0.70251181  1
loop_
_geom_bond_atom_site_label_1
_geom_bond_atom_site_label_2
_geom_bond_distance
_geom_bond_site_symmetry_2
Hg0 O8 2.125320 1_545
Hg0 O23 2.144252 1_555
Hg0 O18 2.472501 1_545
Hg0 O11 2.478447 1_555
Hg0 O17 2.572147 1_555
Hg1 O9 2.125320 1_555
Hg1 O22 2.144252 1_555
Hg1 O19 2.472501 1_555
Hg1 O10 2.478447 1_555
Hg1 O16 2.572147 1_555
Hg2 O10 2.125320 1_565
Hg2 O21 2.144252 1_555
Hg2 O16 2.472501 1_565
Hg2 O9 2.478447 1_555
Hg2 O19 2.572147 1_555
Hg3 O11 2.125320 1_555
Hg3 O20 2.144252 1_555
Hg3 O17 2.472501 1_555
Hg3 O8 2.478447 1_555
Hg3 O18 2.572147 1_555
Hg4 O27 2.074976 1_555
Hg4 O31 2.082423 1_555
Hg4 O3 2.496673 1_655
Hg4 O21 2.620228 1_555
Hg5 O26 2.074976 1_555
Hg5 O30 2.082423 1_565
Hg5 O2 2.496673 1_555
Hg5 O20 2.620228 1_555
Hg6 O25 2.074976 1_555
Hg6 O29 2.082423 1_555
Hg6 O1 2.496673 1_455
Hg6 O23 2.620228 1_555
Hg7 O24 2.074976 1_555
Hg7 O28 2.082423 1_545
Hg7 O0 2.496673 1_555
Hg7 O22 2.620228 1_555
Hg8 O12 2.117929 1_555
Hg8 O5 2.134128 1_455
Hg8 O3 2.549329 1_554
Hg8 O7 2.591059 1_564
Hg8 O29 2.611530 1_555
Hg9 O13 2.117929 1_555
Hg9 O4 2.134128 1_555
Hg9 O2 2.549329 1_556
Hg9 O6 2.591059 1_556
Hg9 O28 2.611530 1_555
Hg10 O14 2.117929 1_555
Hg10 O7 2.134128 1_655
Hg10 O1 2.549329 1_556
Hg10 O5 2.591059 1_546
Hg10 O31 2.611530 1_555
Hg11 O15 2.117929 1_555
Hg11 O6 2.134128 1_555
Hg11 O0 2.549329 1_554
Hg11 O4 2.591059 1_554
Hg11 O30 2.611530 1_555
O0 P0 1.512182 1_545
O1 P1 1.512182 1_555
O2 P2 1.512182 1_565
O3 P3 1.512182 1_555
O4 P0 1.552404 1_555
O5 P1 1.552404 1_555
O6 P2 1.552404 1_555
O7 P3 1.552404 1_555
O8 P0 1.552452 1_555
O9 P1 1.552452 1_555
O10 P2 1.552452 1_555
O11 P3 1.552452 1_555
O12 P0 1.561689 1_554
O13 P1 1.561689 1_556
O14 P2 1.561689 1_556
O15 P3 1.561689 1_554
O16 P4 1.517325 1_555
O17 P5 1.517325 1_555
O18 P6 1.517325 1_555
O19 P7 1.517325 1_555
O20 P7 1.551461 1_555
O21 P6 1.551461 1_655
O22 P5 1.551461 1_555
O23 P4 1.551461 1_455
O24 P7 1.553259 1_555
O25 P6 1.553259 1_545
O26 P5 1.553259 1_555
O27 P4 1.553259 1_565
O28 P7 1.555918 1_555
O29 P6 1.555918 1_555
O30 P5 1.555918 1_555
O31 P4 1.555918 1_555
