# generated using pymatgen
data_Al2Ga2Bi2O9
_symmetry_space_group_name_H-M   'P 1'
_cell_length_a   5.84657000
_cell_length_b   7.94406100
_cell_length_c   8.31215500
_cell_angle_alpha   90.00000000
_cell_angle_beta   90.00000000
_cell_angle_gamma   90.00000000
_symmetry_Int_Tables_number   1
_chemical_formula_structural   Al2Ga2Bi2O9
_chemical_formula_sum   'Al4 Ga4 Bi4 O18'
_cell_volume   386.06226754
_cell_formula_units_Z   2
loop_
 _symmetry_equiv_pos_site_id
 _symmetry_equiv_pos_as_xyz
  1  'x, y, z'
loop_
 _atom_site_type_symbol
 _atom_site_label
 _atom_site_symmetry_multiplicity
 _atom_site_fract_x
 _atom_site_fract_y
 _atom_site_fract_z
 _atom_site_occupancy
  Al  Al0  1  0.24155300  0.00000000  0.50000000  1
  Al  Al1  1  0.75844700  0.00000000  0.50000000  1
  Al  Al2  1  0.75844700  0.50000000  0.00000000  1
  Al  Al3  1  0.24155300  0.50000000  0.00000000  1
  Ga  Ga0  1  0.00000000  0.15271000  0.16370100  1
  Ga  Ga1  1  0.00000000  0.84729000  0.83629900  1
  Ga  Ga2  1  0.00000000  0.34729000  0.66370100  1
  Ga  Ga3  1  0.00000000  0.65271000  0.33629900  1
  Bi  Bi0  1  0.50000000  0.32884200  0.33290500  1
  Bi  Bi1  1  0.50000000  0.67115800  0.66709500  1
  Bi  Bi2  1  0.50000000  0.17115800  0.83290500  1
  Bi  Bi3  1  0.50000000  0.82884200  0.16709500  1
  O  O0  1  0.50000000  0.35900200  0.06900000  1
  O  O1  1  0.50000000  0.64099800  0.93100000  1
  O  O2  1  0.50000000  0.14099800  0.56900000  1
  O  O3  1  0.50000000  0.85900200  0.43100000  1
  O  O4  1  0.25501300  0.12714400  0.29906200  1
  O  O5  1  0.74498700  0.87285600  0.70093800  1
  O  O6  1  0.25501300  0.87285600  0.70093800  1
  O  O7  1  0.74498700  0.37285600  0.79906200  1
  O  O8  1  0.74498700  0.12714400  0.29906200  1
  O  O9  1  0.25501300  0.62714400  0.20093800  1
  O  O10  1  0.74498700  0.62714400  0.20093800  1
  O  O11  1  0.25501300  0.37285600  0.79906200  1
  O  O12  1  0.00000000  0.37129300  0.08738200  1
  O  O13  1  0.00000000  0.62870700  0.91261800  1
  O  O14  1  0.00000000  0.12870700  0.58738200  1
  O  O15  1  0.00000000  0.87129300  0.41261800  1
  O  O16  1  0.00000000  0.00000000  0.00000000  1
  O  O17  1  0.00000000  0.50000000  0.50000000  1
loop_
_geom_bond_atom_site_label_1
_geom_bond_atom_site_label_2
_geom_bond_distance
_geom_bond_site_symmetry_2
Al0 O14 1.888768 1_555
Al0 O15 1.888768 1_545
Al0 O6 1.953467 1_545
Al0 O4 1.953467 1_555
Al0 O3 1.966411 1_545
Al0 O2 1.966411 1_555
Al1 O14 1.888768 1_655
Al1 O15 1.888768 1_645
Al1 O5 1.953467 1_545
Al1 O8 1.953467 1_555
Al1 O3 1.966411 1_545
Al1 O2 1.966411 1_555
Al2 O12 1.888768 1_655
Al2 O13 1.888768 1_654
Al2 O7 1.953467 1_554
Al2 O10 1.953467 1_555
Al2 O1 1.966411 1_554
Al2 O0 1.966411 1_555
Al3 O13 1.888768 1_554
Al3 O12 1.888768 1_555
Al3 O11 1.953467 1_554
Al3 O9 1.953467 1_555
Al3 O1 1.966411 1_554
Al3 O0 1.966411 1_555
Ga0 O16 1.822973 1_555
Ga0 O12 1.848687 1_555
Ga0 O4 1.878864 1_555
Ga0 O8 1.878864 1_455
Ga1 O16 1.822973 1_566
Ga1 O13 1.848687 1_555
Ga1 O6 1.878864 1_555
Ga1 O5 1.878864 1_455
Ga2 O17 1.822973 1_555
Ga2 O14 1.848687 1_555
Ga2 O11 1.878864 1_555
Ga2 O7 1.878864 1_455
Ga3 O17 1.822973 1_555
Ga3 O15 1.848687 1_555
Ga3 O9 1.878864 1_555
Ga3 O10 1.878864 1_455
Bi0 O8 2.167506 1_555
Bi0 O4 2.167506 1_555
Bi0 O0 2.206665 1_555
Bi0 O2 2.465367 1_555
Bi1 O5 2.167506 1_555
Bi1 O6 2.167506 1_555
Bi1 O1 2.206665 1_555
Bi1 O3 2.465367 1_555
Bi2 O7 2.167506 1_555
Bi2 O11 2.167506 1_555
Bi2 O2 2.206665 1_555
Bi2 O0 2.465367 1_556
Bi3 O10 2.167506 1_555
Bi3 O9 2.167506 1_555
Bi3 O3 2.206665 1_555
Bi3 O1 2.465367 1_554
