# generated using pymatgen
data_Al2V2O7
_symmetry_space_group_name_H-M   'P 1'
_cell_length_a   6.73952524
_cell_length_b   6.73952524
_cell_length_c   6.73952524
_cell_angle_alpha   60.00000000
_cell_angle_beta   60.00000000
_cell_angle_gamma   60.00000000
_symmetry_Int_Tables_number   1
_chemical_formula_structural   Al2V2O7
_chemical_formula_sum   'Al4 V4 O14'
_cell_volume   216.45763783
_cell_formula_units_Z   2
loop_
 _symmetry_equiv_pos_site_id
 _symmetry_equiv_pos_as_xyz
  1  'x, y, z'
loop_
 _atom_site_type_symbol
 _atom_site_label
 _atom_site_symmetry_multiplicity
 _atom_site_fract_x
 _atom_site_fract_y
 _atom_site_fract_z
 _atom_site_occupancy
  Al  Al0  1  0.62500000  0.62500000  0.12500000  1
  Al  Al1  1  0.62500000  0.12500000  0.62500000  1
  Al  Al2  1  0.12500000  0.62500000  0.62500000  1
  Al  Al3  1  0.62500000  0.62500000  0.62500000  1
  V  V0  1  0.12500000  0.12500000  0.62500000  1
  V  V1  1  0.12500000  0.62500000  0.12500000  1
  V  V2  1  0.62500000  0.12500000  0.12500000  1
  V  V3  1  0.12500000  0.12500000  0.12500000  1
  O  O0  1  0.75000000  0.75000000  0.75000000  1
  O  O1  1  0.50000000  0.50000000  0.50000000  1
  O  O2  1  0.02710200  0.47289800  0.02710200  1
  O  O3  1  0.77710200  0.22289800  0.77710200  1
  O  O4  1  0.02710200  0.02710200  0.47289800  1
  O  O5  1  0.47289800  0.02710200  0.02710200  1
  O  O6  1  0.02710200  0.47289800  0.47289800  1
  O  O7  1  0.47289800  0.47289800  0.02710200  1
  O  O8  1  0.47289800  0.02710200  0.47289800  1
  O  O9  1  0.22289800  0.77710200  0.77710200  1
  O  O10  1  0.77710200  0.22289800  0.22289800  1
  O  O11  1  0.22289800  0.77710200  0.22289800  1
  O  O12  1  0.77710200  0.77710200  0.22289800  1
  O  O13  1  0.22289800  0.22289800  0.77710200  1
loop_
_geom_bond_atom_site_label_1
_geom_bond_atom_site_label_2
_geom_bond_distance
_geom_bond_site_symmetry_2
Al0 O1 2.063550 1_555
Al0 O0 2.063550 1_554
Al0 O5 2.222716 1_565
Al0 O12 2.222716 1_555
Al0 O2 2.222716 1_655
Al0 O7 2.222716 1_555
Al0 O10 2.222716 1_555
Al0 O11 2.222716 1_555
Al1 O0 2.063550 1_545
Al1 O1 2.063550 1_555
Al1 O3 2.222716 1_555
Al1 O4 2.222716 1_655
Al1 O5 2.222716 1_556
Al1 O8 2.222716 1_555
Al1 O13 2.222716 1_555
Al1 O10 2.222716 1_555
Al2 O1 2.063550 1_555
Al2 O0 2.063550 1_455
Al2 O9 2.222716 1_555
Al2 O4 2.222716 1_565
Al2 O2 2.222716 1_556
Al2 O6 2.222716 1_555
Al2 O11 2.222716 1_555
Al2 O13 2.222716 1_555
Al3 O1 2.063550 1_555
Al3 O0 2.063550 1_555
Al3 O6 2.222716 1_655
Al3 O8 2.222716 1_565
Al3 O7 2.222716 1_556
Al3 O3 2.222716 1_555
Al3 O12 2.222716 1_555
Al3 O9 2.222716 1_555
O2 V3 1.925996 1_555
O2 V1 1.925996 1_555
O3 V2 1.925996 1_556
O3 V0 1.925996 1_655
O4 V3 1.925996 1_555
O4 V0 1.925996 1_555
O5 V3 1.925996 1_555
O5 V2 1.925996 1_555
O6 V0 1.925996 1_555
O6 V1 1.925996 1_555
O7 V2 1.925996 1_555
O7 V1 1.925996 1_555
O8 V2 1.925996 1_555
O8 V0 1.925996 1_555
O9 V1 1.925996 1_556
O9 V0 1.925996 1_565
O10 V2 1.925996 1_555
O10 V3 1.925996 1_655
O11 V1 1.925996 1_555
O11 V3 1.925996 1_565
O12 V1 1.925996 1_655
O12 V2 1.925996 1_565
O13 V0 1.925996 1_555
O13 V3 1.925996 1_556
