# generated using pymatgen
data_K2U2O7
_symmetry_space_group_name_H-M   'P 1'
_cell_length_a   4.03509100
_cell_length_b   6.98762800
_cell_length_c   7.18253927
_cell_angle_alpha   71.12120921
_cell_angle_beta   90.00000000
_cell_angle_gamma   90.00000000
_symmetry_Int_Tables_number   1
_chemical_formula_structural   K2U2O7
_chemical_formula_sum   'K2 U2 O7'
_cell_volume   191.62247668
_cell_formula_units_Z   1
loop_
 _symmetry_equiv_pos_site_id
 _symmetry_equiv_pos_as_xyz
  1  'x, y, z'
loop_
 _atom_site_type_symbol
 _atom_site_label
 _atom_site_symmetry_multiplicity
 _atom_site_fract_x
 _atom_site_fract_y
 _atom_site_fract_z
 _atom_site_occupancy
  K  K0  1  0.00000000  0.50091300  0.50452800  1
  K  K1  1  0.50000000  0.00125300  0.49861400  1
  U  U0  1  0.00000000  0.98143300  0.00280000  1
  U  U1  1  0.50000000  0.51160900  0.01104000  1
  O  O0  1  0.50000000  0.58992300  0.73069700  1
  O  O1  1  0.00000000  0.09266500  0.72841400  1
  O  O2  1  0.50000000  0.41677900  0.29195700  1
  O  O3  1  0.00000000  0.89470900  0.27771600  1
  O  O4  1  0.50000000  0.84774300  0.98049400  1
  O  O5  1  0.00000000  0.61218700  0.02211900  1
  O  O6  1  0.50000000  0.19378700  0.02262200  1
loop_
_geom_bond_atom_site_label_1
_geom_bond_atom_site_label_2
_geom_bond_distance
_geom_bond_site_symmetry_2
K0 O3 2.706442 1_555
K0 O2 2.707046 1_555
K0 O2 2.707046 1_455
K0 O0 2.783896 1_455
K0 O0 2.783896 1_555
K0 O1 2.784796 1_555
K1 O2 2.800848 1_555
K1 O1 2.808037 1_555
K1 O1 2.808037 1_655
K1 O3 2.811847 1_645
K1 O3 2.811847 1_545
K1 O0 2.817680 1_545
O0 U1 1.908107 1_556
O1 U0 1.869986 1_546
O2 U1 1.909181 1_555
O3 U0 1.868662 1_555
O4 U0 2.250711 1_656
O4 U0 2.250711 1_556
O4 U1 2.287230 1_556
O5 U1 2.146379 1_555
O5 U1 2.146379 1_455
O5 U0 2.538653 1_555
O6 U1 2.195317 1_555
O6 U0 2.535604 1_645
O6 U0 2.535604 1_545
