# generated using pymatgen
data_Mg14GaFe
_symmetry_space_group_name_H-M   'P 1'
_cell_length_a   6.22210552
_cell_length_b   6.23768000
_cell_length_c   10.03826465
_cell_angle_alpha   90.00000000
_cell_angle_beta   90.00000000
_cell_angle_gamma   120.08284119
_symmetry_Int_Tables_number   1
_chemical_formula_structural   Mg14GaFe
_chemical_formula_sum   'Mg14 Ga1 Fe1'
_cell_volume   337.12161425
_cell_formula_units_Z   1
loop_
 _symmetry_equiv_pos_site_id
 _symmetry_equiv_pos_as_xyz
  1  'x, y, z'
loop_
 _atom_site_type_symbol
 _atom_site_label
 _atom_site_symmetry_multiplicity
 _atom_site_fract_x
 _atom_site_fract_y
 _atom_site_fract_z
 _atom_site_occupancy
  Mg  Mg0  1  0.16815472  0.33407686  0.62500000  1
  Mg  Mg1  1  0.17016933  0.83508416  0.62500000  1
  Mg  Mg2  1  0.67455091  0.33806056  0.12500000  1
  Mg  Mg3  1  0.66521516  0.33137151  0.62500000  1
  Mg  Mg4  1  0.67455091  0.83648935  0.12500000  1
  Mg  Mg5  1  0.66521516  0.83384265  0.62500000  1
  Mg  Mg6  1  0.32415270  0.16801354  0.35597271  1
  Mg  Mg7  1  0.32415270  0.16801354  0.89402729  1
  Mg  Mg8  1  0.32415270  0.65614017  0.35597271  1
  Mg  Mg9  1  0.32415270  0.65614017  0.89402729  1
  Mg  Mg10  1  0.84404224  0.17202162  0.36465903  1
  Mg  Mg11  1  0.84404224  0.17202162  0.88534097  1
  Mg  Mg12  1  0.83541725  0.66770912  0.37496496  1
  Mg  Mg13  1  0.83541725  0.66770912  0.87503504  1
  Ga  Ga0  1  0.16013059  0.83006480  0.12500000  1
  Fe  Fe0  1  0.16648343  0.33324121  0.12500000  1
loop_
_geom_bond_atom_site_label_1
_geom_bond_atom_site_label_2
_geom_bond_distance
_geom_bond_site_symmetry_2
Mg0 Mg5 3.101255 1_555
Mg0 Mg3 3.101256 1_555
Mg0 Mg1 3.118859 1_555
Mg0 Mg1 3.118859 1_545
Mg0 Mg5 3.120918 1_445
Mg0 Mg3 3.120918 1_455
Mg0 Mg11 3.142421 1_455
Mg0 Mg10 3.142421 1_455
Mg0 Mg6 3.211874 1_555
Mg0 Mg7 3.211874 1_555
Mg0 Mg8 3.211879 1_555
Mg0 Mg9 3.211879 1_555
Mg1 Mg3 3.084116 1_565
Mg1 Mg5 3.084116 1_555
Mg1 Mg13 3.089982 1_455
Mg1 Mg12 3.089982 1_455
Mg1 Mg3 3.138003 1_455
Mg1 Mg5 3.138004 1_455
Mg1 Mg8 3.244845 1_555
Mg1 Mg9 3.244845 1_555
Mg1 Mg6 3.244851 1_565
Mg1 Mg7 3.244851 1_565
Mg2 Mg7 2.989285 1_554
Mg2 Mg6 2.989285 1_555
Mg2 Mg4 3.109039 1_555
Mg2 Mg4 3.128641 1_545
Mg3 Mg5 3.103426 1_545
Mg3 Mg5 3.134254 1_555
Mg3 Mg6 3.266035 1_555
Mg3 Mg7 3.266035 1_555
Mg4 Mg9 2.989284 1_554
Mg4 Mg8 2.989284 1_555
Mg5 Mg8 3.266035 1_555
Mg5 Mg9 3.266035 1_555
Mg10 Mg2 3.011228 1_555
Mg10 Mg4 3.011235 1_545
Mg10 Mg12 3.120901 1_555
Mg10 Mg12 3.120901 1_545
Mg10 Mg3 3.188181 1_555
Mg10 Mg5 3.188187 1_545
Mg11 Mg2 3.011228 1_556
Mg11 Mg4 3.011235 1_546
Mg11 Mg13 3.120901 1_555
Mg11 Mg13 3.120901 1_545
Mg11 Mg3 3.188181 1_555
Mg11 Mg5 3.188187 1_545
Mg12 Mg4 3.076167 1_555
Mg12 Mg2 3.076174 1_555
Mg12 Mg6 3.083668 1_665
Mg12 Mg8 3.083668 1_655
Mg12 Mg5 3.097626 1_555
Mg12 Mg3 3.097632 1_555
Mg12 Mg6 3.151362 1_555
Mg12 Mg8 3.151362 1_555
Mg13 Mg4 3.076167 1_556
Mg13 Mg2 3.076174 1_556
Mg13 Mg7 3.083668 1_665
Mg13 Mg9 3.083668 1_655
Mg13 Mg5 3.097626 1_555
Mg13 Mg3 3.097632 1_555
Mg13 Mg7 3.151362 1_555
Mg13 Mg9 3.151362 1_555
Ga0 Mg9 2.950294 1_554
Ga0 Mg8 2.950294 1_555
Ga0 Mg7 2.950301 1_564
Ga0 Mg6 2.950301 1_565
Ga0 Mg2 3.041613 1_455
Ga0 Mg4 3.041613 1_455
Ga0 Mg12 3.058195 1_455
Ga0 Mg13 3.058195 1_454
Ga0 Mg2 3.180879 1_565
Ga0 Mg4 3.180879 1_555
Fe0 Mg7 2.900691 1_554
Fe0 Mg6 2.900691 1_555
Fe0 Mg9 2.900698 1_554
Fe0 Mg8 2.900698 1_555
Fe0 Mg10 2.966725 1_455
Fe0 Mg11 2.966725 1_454
Fe0 Mg4 3.076034 1_445
Fe0 Mg2 3.076034 1_455
Fe0 Ga0 3.119027 1_545
Fe0 Ga0 3.119028 1_555
Fe0 Mg4 3.146288 1_555
Fe0 Mg2 3.146289 1_555
