# generated using pymatgen
data_CsLaMg14
_symmetry_space_group_name_H-M   'P 1'
_cell_length_a   6.87334797
_cell_length_b   6.87334733
_cell_length_c   10.53200579
_cell_angle_alpha   90.00000000
_cell_angle_beta   90.00000000
_cell_angle_gamma   120.00000305
_symmetry_Int_Tables_number   1
_chemical_formula_structural   CsLaMg14
_chemical_formula_sum   'Cs1 La1 Mg14'
_cell_volume   430.90182049
_cell_formula_units_Z   1
loop_
 _symmetry_equiv_pos_site_id
 _symmetry_equiv_pos_as_xyz
  1  'x, y, z'
loop_
 _atom_site_type_symbol
 _atom_site_label
 _atom_site_symmetry_multiplicity
 _atom_site_fract_x
 _atom_site_fract_y
 _atom_site_fract_z
 _atom_site_occupancy
  Cs  Cs0  1  0.16666700  0.33333300  0.62500000  1
  La  La0  1  0.16666700  0.33333300  0.12500000  1
  Mg  Mg0  1  0.17520484  0.83760192  0.12500000  1
  Mg  Mg1  1  0.17208529  0.83604214  0.62500000  1
  Mg  Mg2  1  0.66239808  0.32479516  0.12500000  1
  Mg  Mg3  1  0.66395786  0.32791471  0.62500000  1
  Mg  Mg4  1  0.66239808  0.83760192  0.12500000  1
  Mg  Mg5  1  0.66395786  0.83604214  0.62500000  1
  Mg  Mg6  1  0.34500702  0.15499298  0.36737890  1
  Mg  Mg7  1  0.34500702  0.15499298  0.88262110  1
  Mg  Mg8  1  0.34500702  0.69001503  0.36737890  1
  Mg  Mg9  1  0.34500702  0.69001503  0.88262110  1
  Mg  Mg10  1  0.80998497  0.15499298  0.36737890  1
  Mg  Mg11  1  0.80998497  0.15499298  0.88262110  1
  Mg  Mg12  1  0.83333300  0.66666700  0.37468899  1
  Mg  Mg13  1  0.83333300  0.66666700  0.87531101  1
loop_
_geom_bond_atom_site_label_1
_geom_bond_atom_site_label_2
_geom_bond_distance
_geom_bond_site_symmetry_2
Cs0 Mg1 3.436825 1_555
Cs0 Mg5 3.436825 1_555
Cs0 Mg5 3.436825 1_445
Cs0 Mg1 3.436825 1_545
Cs0 Mg3 3.436825 1_455
Cs0 Mg3 3.436825 1_555
Cs0 Mg6 3.445217 1_555
Cs0 Mg7 3.445217 1_555
Cs0 Mg8 3.445225 1_555
Cs0 Mg9 3.445225 1_555
Cs0 Mg10 3.445225 1_455
Cs0 Mg11 3.445225 1_455
La0 Mg7 3.320266 1_554
La0 Mg6 3.320266 1_555
La0 Mg8 3.320273 1_555
La0 Mg9 3.320273 1_554
La0 Mg11 3.320274 1_454
La0 Mg10 3.320274 1_455
La0 Mg0 3.437049 1_555
La0 Mg4 3.437049 1_555
La0 Mg0 3.437049 1_545
La0 Mg4 3.437049 1_445
La0 Mg2 3.437050 1_555
La0 Mg2 3.437050 1_455
Mg0 Mg9 3.176725 1_554
Mg0 Mg8 3.176725 1_555
Mg0 Mg7 3.176731 1_564
Mg0 Mg6 3.176731 1_565
Mg0 Mg13 3.325153 1_454
Mg0 Mg12 3.325153 1_455
Mg0 Mg2 3.348648 1_565
Mg0 Mg4 3.348649 1_555
Mg0 Mg2 3.524699 1_455
Mg0 Mg4 3.524699 1_455
Mg1 Mg8 3.312826 1_555
Mg1 Mg9 3.312826 1_555
Mg1 Mg7 3.312833 1_565
Mg1 Mg6 3.312833 1_565
Mg1 Mg12 3.319022 1_455
Mg1 Mg13 3.319022 1_455
Mg1 Mg3 3.380811 1_565
Mg1 Mg5 3.380811 1_555
Mg1 Mg3 3.492536 1_455
Mg1 Mg5 3.492537 1_455
Mg2 Mg7 3.176732 1_554
Mg2 Mg6 3.176732 1_555
Mg2 Mg4 3.348648 1_545
Mg2 Mg4 3.524699 1_555
Mg3 Mg6 3.312833 1_555
Mg3 Mg7 3.312833 1_555
Mg3 Mg5 3.380811 1_545
Mg3 Mg5 3.492536 1_555
Mg4 Mg9 3.176732 1_554
Mg4 Mg8 3.176732 1_555
Mg5 Mg8 3.312833 1_555
Mg5 Mg9 3.312833 1_555
Mg6 Mg8 3.195955 1_545
Mg7 Mg9 3.195955 1_545
Mg10 Mg2 3.176725 1_555
Mg10 Mg4 3.176732 1_545
Mg10 Mg8 3.195955 1_545
Mg10 Mg6 3.195955 1_555
Mg10 Mg3 3.312826 1_555
Mg10 Mg5 3.312833 1_545
Mg10 Mg12 3.440344 1_545
Mg10 Mg12 3.440344 1_555
Mg11 Mg2 3.176725 1_556
Mg11 Mg4 3.176732 1_546
Mg11 Mg9 3.195955 1_545
Mg11 Mg7 3.195955 1_555
Mg11 Mg3 3.312826 1_555
Mg11 Mg5 3.312833 1_545
Mg11 Mg13 3.440344 1_545
Mg11 Mg13 3.440344 1_555
Mg12 Mg5 3.319015 1_555
Mg12 Mg3 3.319022 1_555
Mg12 Mg4 3.325146 1_555
Mg12 Mg2 3.325153 1_555
Mg12 Mg6 3.440344 1_555
Mg12 Mg6 3.440344 1_665
Mg12 Mg8 3.440345 1_555
Mg12 Mg8 3.440345 1_655
Mg13 Mg5 3.319015 1_555
Mg13 Mg3 3.319022 1_555
Mg13 Mg4 3.325146 1_556
Mg13 Mg2 3.325153 1_556
Mg13 Mg7 3.440344 1_555
Mg13 Mg7 3.440344 1_665
Mg13 Mg9 3.440345 1_555
Mg13 Mg9 3.440345 1_655
