# generated using pymatgen
data_Os4SeS11Cl8
_symmetry_space_group_name_H-M   'P 1'
_cell_length_a   9.26368902
_cell_length_b   11.23612400
_cell_length_c   12.42861843
_cell_angle_alpha   90.00000000
_cell_angle_beta   90.68348937
_cell_angle_gamma   90.00000000
_symmetry_Int_Tables_number   1
_chemical_formula_structural   Os4SeS11Cl8
_chemical_formula_sum   'Os8 Se2 S22 Cl16'
_cell_volume   1293.57747294
_cell_formula_units_Z   2
loop_
 _symmetry_equiv_pos_site_id
 _symmetry_equiv_pos_as_xyz
  1  'x, y, z'
loop_
 _atom_site_type_symbol
 _atom_site_label
 _atom_site_symmetry_multiplicity
 _atom_site_fract_x
 _atom_site_fract_y
 _atom_site_fract_z
 _atom_site_occupancy
  Os  Os0  1  0.95335400  0.37075900  0.09185000  1
  Os  Os1  1  0.54664600  0.87075900  0.40815000  1
  Os  Os2  1  0.44858600  0.63062600  0.40837600  1
  Os  Os3  1  0.05141400  0.13062600  0.09162400  1
  Os  Os4  1  0.05233400  0.63148400  0.90798300  1
  Os  Os5  1  0.44766600  0.13148400  0.59201700  1
  Os  Os6  1  0.54949700  0.36873700  0.59225200  1
  Os  Os7  1  0.95050300  0.86873700  0.90774800  1
  Se  Se0  1  0.79947000  0.19785600  0.05010500  1
  Se  Se1  1  0.70053000  0.69785600  0.44989400  1
  S  S0  1  0.96474100  0.33446600  0.26693700  1
  S  S1  1  0.53525900  0.83446600  0.23306300  1
  S  S2  1  0.46653900  0.66370300  0.23400300  1
  S  S3  1  0.03346100  0.16370300  0.26599700  1
  S  S4  1  0.03608300  0.66526800  0.73266500  1
  S  S5  1  0.46391700  0.16526800  0.76733500  1
  S  S6  1  0.53724800  0.33505300  0.76753500  1
  S  S7  1  0.96275200  0.83505300  0.73246500  1
  S  S8  1  0.64437900  0.16080400  0.17174700  1
  S  S9  1  0.85562100  0.66080400  0.32825300  1
  S  S10  1  0.14841000  0.83604900  0.34302300  1
  S  S11  1  0.35159000  0.33604900  0.15697700  1
  S  S12  1  0.34615000  0.83916200  0.84297500  1
  S  S13  1  0.15385000  0.33916200  0.65702500  1
  S  S14  1  0.84602900  0.16109900  0.65684400  1
  S  S15  1  0.65397100  0.66109900  0.84315600  1
  S  S16  1  0.31344300  0.80004800  0.43661100  1
  S  S17  1  0.18655700  0.30004800  0.06338900  1
  S  S18  1  0.18704600  0.80115000  0.93780100  1
  S  S19  1  0.31295400  0.30115000  0.56219900  1
  S  S20  1  0.68353700  0.19903900  0.56273700  1
  S  S21  1  0.81646300  0.69903900  0.93726300  1
  Cl  Cl0  1  0.94925900  0.92722400  0.10369800  1
  Cl  Cl1  1  0.55074100  0.42722400  0.39630200  1
  Cl  Cl2  1  0.44204100  0.07322200  0.39569300  1
  Cl  Cl3  1  0.05795900  0.57322200  0.10430700  1
  Cl  Cl4  1  0.05495900  0.07102500  0.89453700  1
  Cl  Cl5  1  0.44504100  0.57102500  0.60546300  1
  Cl  Cl6  1  0.55284600  0.92912700  0.60488400  1
  Cl  Cl7  1  0.94715400  0.42912700  0.89511600  1
  Cl  Cl8  1  0.73124500  0.47289800  0.10960900  1
  Cl  Cl9  1  0.76875500  0.97289800  0.39039100  1
  Cl  Cl10  1  0.22499200  0.53231400  0.39199400  1
  Cl  Cl11  1  0.27500800  0.03231400  0.10800600  1
  Cl  Cl12  1  0.27504900  0.53187600  0.89324800  1
  Cl  Cl13  1  0.22495100  0.03187600  0.60675200  1
  Cl  Cl14  1  0.77428600  0.46701100  0.60775800  1
  Cl  Cl15  1  0.72571400  0.96701100  0.89224200  1
loop_
_geom_bond_atom_site_label_1
_geom_bond_atom_site_label_2
_geom_bond_distance
_geom_bond_site_symmetry_2
Os0 S0 2.215245 1_555
Os0 S17 2.332723 1_655
Os0 Se0 2.461301 1_555
Os1 S1 2.215245 1_555
Os1 S16 2.332723 1_555
Os1 Se1 2.461298 1_555
Os2 S2 2.207082 1_555
Os2 S16 2.307555 1_555
Os2 Se1 2.501081 1_555
Os3 S3 2.207082 1_555
Os3 S17 2.307555 1_555
Os3 Se0 2.501083 1_455
Os4 S4 2.215131 1_555
Os4 S18 2.306069 1_555
Os4 S21 2.345623 1_455
Os5 S5 2.215131 1_555
Os5 S19 2.306069 1_555
Os5 S20 2.345623 1_555
Os6 S6 2.215399 1_555
Os6 S20 2.307152 1_555
Os6 S19 2.344851 1_555
Os7 S7 2.215399 1_555
Os7 S21 2.307152 1_555
Os7 S18 2.344851 1_655
S0 S3 2.021643 1_655
S1 S2 2.021643 1_555
S4 S7 2.025056 1_455
S5 S6 2.025056 1_555
S8 Se0 2.138916 1_555
S9 Se1 2.138907 1_555
S10 S16 1.952291 1_555
S11 S17 1.952291 1_555
S12 S18 1.945561 1_555
S13 S19 1.945561 1_555
S14 S20 1.942573 1_555
S15 S21 1.942573 1_555
Cl0 Os3 2.478857 1_665
Cl0 Os7 2.522654 1_554
Cl1 Os2 2.478857 1_555
Cl1 Os6 2.522654 1_555
Cl2 Os1 2.476807 1_545
Cl2 Os5 2.526264 1_555
Cl3 Os0 2.476807 1_455
Cl3 Os4 2.526264 1_554
Cl4 Os7 2.476554 1_445
Cl4 Os3 2.540004 1_556
Cl5 Os6 2.476554 1_555
Cl5 Os2 2.540004 1_555
Cl6 Os5 2.478099 1_565
Cl6 Os1 2.531547 1_555
Cl7 Os4 2.478099 1_655
Cl7 Os0 2.531547 1_556
Cl8 Os0 2.368576 1_555
Cl9 Os1 2.368576 1_555
Cl10 Os2 2.354133 1_555
Cl11 Os3 2.354133 1_555
Cl12 Os4 2.356230 1_555
Cl13 Os5 2.356230 1_555
Cl14 Os6 2.362870 1_555
Cl15 Os7 2.362870 1_555
