# generated using pymatgen
data_BaSrDyBiO6
_symmetry_space_group_name_H-M   'P 1'
_cell_length_a   8.60626752
_cell_length_b   8.61359605
_cell_length_c   8.61436239
_cell_angle_alpha   90.00000000
_cell_angle_beta   90.00000000
_cell_angle_gamma   90.00000000
_symmetry_Int_Tables_number   1
_chemical_formula_structural   BaSrDyBiO6
_chemical_formula_sum   'Ba4 Sr4 Dy4 Bi4 O24'
_cell_volume   638.59053954
_cell_formula_units_Z   4
loop_
 _symmetry_equiv_pos_site_id
 _symmetry_equiv_pos_as_xyz
  1  'x, y, z'
loop_
 _atom_site_type_symbol
 _atom_site_label
 _atom_site_symmetry_multiplicity
 _atom_site_fract_x
 _atom_site_fract_y
 _atom_site_fract_z
 _atom_site_occupancy
  Ba  Ba0  1  -0.00000000  -0.00000000  0.00000000  1
  Ba  Ba1  1  0.50000000  0.50000000  0.50000000  1
  Ba  Ba2  1  0.50000000  -0.00000000  0.00000000  1
  Ba  Ba3  1  0.00000000  -0.00000000  0.50000000  1
  Sr  Sr0  1  -0.00000000  0.50000000  0.50000000  1
  Sr  Sr1  1  0.50000000  -0.00000000  0.50000000  1
  Sr  Sr2  1  0.50000000  0.50000000  0.00000000  1
  Sr  Sr3  1  0.00000000  0.50000000  0.00000000  1
  Dy  Dy0  1  0.25002446  0.25256352  0.25053025  1
  Dy  Dy1  1  0.74997554  0.74743648  0.25053025  1
  Dy  Dy2  1  0.74997554  0.25256352  0.74946975  1
  Dy  Dy3  1  0.25002446  0.74743648  0.74946975  1
  Bi  Bi0  1  0.74998520  0.74689057  0.74939888  1
  Bi  Bi1  1  0.25001480  0.25310943  0.74939888  1
  Bi  Bi2  1  0.25001480  0.74689057  0.25060112  1
  Bi  Bi3  1  0.74998520  0.25310943  0.25060112  1
  O  O0  1  0.99452802  0.22424287  0.27671687  1
  O  O1  1  0.00547198  0.77575713  0.27671687  1
  O  O2  1  0.00547198  0.22424287  0.72328313  1
  O  O3  1  0.99452802  0.77575713  0.72328313  1
  O  O4  1  0.27418587  0.99331925  0.22222180  1
  O  O5  1  0.27418587  0.00668075  0.77777820  1
  O  O6  1  0.72581413  0.00668075  0.22222180  1
  O  O7  1  0.72581413  0.99331925  0.77777820  1
  O  O8  1  0.21463183  0.28589576  0.99373264  1
  O  O9  1  0.78536817  0.28589576  0.00626736  1
  O  O10  1  0.21463183  0.71410424  0.00626736  1
  O  O11  1  0.78536817  0.71410424  0.99373264  1
  O  O12  1  0.50652701  0.29050109  0.21371366  1
  O  O13  1  0.49347299  0.70949891  0.21371366  1
  O  O14  1  0.49347299  0.29050109  0.78628634  1
  O  O15  1  0.50652701  0.70949891  0.78628634  1
  O  O16  1  0.21496341  0.50539663  0.29175673  1
  O  O17  1  0.21496341  0.49460337  0.70824327  1
  O  O18  1  0.78503659  0.49460337  0.29175673  1
  O  O19  1  0.78503659  0.50539663  0.70824327  1
  O  O20  1  0.29093336  0.21724827  0.50644209  1
  O  O21  1  0.70906664  0.21724827  0.49355791  1
  O  O22  1  0.29093336  0.78275173  0.49355791  1
  O  O23  1  0.70906664  0.78275173  0.50644209  1
loop_
_geom_bond_atom_site_label_1
_geom_bond_atom_site_label_2
_geom_bond_distance
_geom_bond_site_symmetry_2
Ba0 O6 3.039098 1_455
Ba0 O7 3.039098 1_444
Ba0 O4 3.039098 1_545
Ba0 O5 3.039098 1_554
Ba0 O0 3.068431 1_455
Ba0 O2 3.068431 1_554
Ba0 O1 3.068431 1_545
Ba0 O3 3.068431 1_444
Ba0 O9 3.078853 1_455
Ba0 O11 3.078853 1_444
Ba0 O10 3.078853 1_545
Ba0 O8 3.078853 1_554
Ba1 O22 3.028565 1_555
Ba1 O20 3.028565 1_555
Ba1 O23 3.028565 1_555
Ba1 O21 3.028565 1_555
Ba1 O18 3.039388 1_555
Ba1 O19 3.039388 1_555
Ba1 O16 3.039388 1_555
Ba1 O17 3.039388 1_555
Ba1 O15 3.056392 1_555
Ba1 O12 3.056392 1_555
Ba1 O13 3.056392 1_555
Ba1 O14 3.056392 1_555
Ba2 O4 2.728502 1_545
Ba2 O5 2.728502 1_554
Ba2 O7 2.728502 1_544
Ba2 O6 2.728502 1_555
Ba2 O12 3.107050 1_555
Ba2 O13 3.107050 1_545
Ba2 O15 3.107050 1_544
Ba2 O14 3.107050 1_554
Ba3 O3 2.726295 1_445
Ba3 O1 2.726295 1_545
Ba3 O0 2.726295 1_455
Ba3 O2 2.726295 1_555
Ba3 O20 3.126351 1_555
Ba3 O23 3.126351 1_445
Ba3 O22 3.126351 1_545
Ba3 O21 3.126351 1_455
Ba3 O7 3.361169 1_445
Ba3 O6 3.361169 1_455
Ba3 O5 3.361169 1_555
Ba3 O4 3.361169 1_545
Dy0 O0 2.223832 1_455
Dy0 O16 2.227105 1_555
Dy0 O8 2.251402 1_554
Dy0 O20 2.253083 1_555
Dy0 O12 2.254009 1_555
Dy0 O4 2.255905 1_545
Dy1 O1 2.223832 1_655
Dy1 O18 2.227105 1_555
Dy1 O11 2.251402 1_554
Dy1 O23 2.253083 1_555
Dy1 O13 2.254009 1_555
Dy1 O6 2.255905 1_565
Dy2 O2 2.223832 1_655
Dy2 O19 2.227105 1_555
Dy2 O9 2.251402 1_556
Dy2 O21 2.253083 1_555
Dy2 O14 2.254009 1_555
Dy2 O7 2.255905 1_545
Dy3 O3 2.223832 1_455
Dy3 O17 2.227105 1_555
Dy3 O10 2.251402 1_556
Dy3 O22 2.253083 1_555
Dy3 O15 2.254009 1_555
Dy3 O5 2.255905 1_565
Bi0 O3 2.131145 1_555
Bi0 O19 2.131581 1_555
Bi0 O15 2.143559 1_555
Bi0 O23 2.144699 1_555
Bi0 O11 2.145363 1_555
Bi0 O7 2.146771 1_555
Bi1 O2 2.131145 1_555
Bi1 O17 2.131581 1_555
Bi1 O14 2.143559 1_555
Bi1 O20 2.144699 1_555
Bi1 O8 2.145363 1_555
Bi1 O5 2.146771 1_555
Bi2 O1 2.131145 1_555
Bi2 O16 2.131581 1_555
Bi2 O13 2.143559 1_555
Bi2 O22 2.144699 1_555
Bi2 O10 2.145363 1_555
Bi2 O4 2.146771 1_555
Bi3 O0 2.131145 1_555
Bi3 O18 2.131581 1_555
Bi3 O12 2.143559 1_555
Bi3 O21 2.144699 1_555
Bi3 O9 2.145363 1_555
Bi3 O6 2.146771 1_555
O0 Sr0 3.056748 1_655
O1 Sr0 3.056748 1_555
O2 Sr0 3.056748 1_555
O3 Sr0 3.056748 1_655
O4 Sr1 3.083191 1_565
O5 Sr1 3.083191 1_555
O6 Sr1 3.083191 1_555
O7 Sr1 3.083191 1_565
O8 Sr3 2.610763 1_556
O8 Sr2 3.071763 1_556
O9 Sr3 2.610763 1_655
O9 Sr2 3.071763 1_555
O10 Sr3 2.610763 1_555
O10 Sr2 3.071763 1_555
O11 Sr3 2.610763 1_656
O11 Sr2 3.071763 1_556
O12 Sr2 2.578531 1_555
O13 Sr2 2.578531 1_555
O14 Sr2 2.578531 1_556
O15 Sr2 2.578531 1_556
O16 Sr0 2.577363 1_555
O16 Sr3 3.121129 1_555
O17 Sr0 2.577363 1_555
O17 Sr3 3.121129 1_556
O18 Sr0 2.577363 1_655
O18 Sr3 3.121129 1_655
O19 Sr0 2.577363 1_655
O19 Sr3 3.121129 1_656
O20 Sr1 2.596579 1_555
O21 Sr1 2.596579 1_555
O22 Sr1 2.596579 1_565
O23 Sr1 2.596579 1_565
