# generated using pymatgen
data_Mn2P2O7
_symmetry_space_group_name_H-M   'P 1'
_cell_length_a   4.60700525
_cell_length_b   5.49577054
_cell_length_c   5.49571371
_cell_angle_alpha   104.67690414
_cell_angle_beta   97.74121925
_cell_angle_gamma   97.73665509
_symmetry_Int_Tables_number   1
_chemical_formula_structural   Mn2P2O7
_chemical_formula_sum   'Mn2 P2 O7'
_cell_volume   131.29604746
_cell_formula_units_Z   1
loop_
 _symmetry_equiv_pos_site_id
 _symmetry_equiv_pos_as_xyz
  1  'x, y, z'
loop_
 _atom_site_type_symbol
 _atom_site_label
 _atom_site_symmetry_multiplicity
 _atom_site_fract_x
 _atom_site_fract_y
 _atom_site_fract_z
 _atom_site_occupancy
  Mn  Mn0  1  0.50000900  0.30969400  0.69034300  1
  Mn  Mn1  1  0.50000500  0.68877900  0.31121300  1
  P  P0  1  0.90743800  0.21298400  0.21740900  1
  P  P1  1  0.09256100  0.78258900  0.78700900  1
  O  O0  1  0.99999700  0.99206500  0.00793100  1
  O  O1  1  0.72497400  0.07781100  0.37543000  1
  O  O2  1  0.27502000  0.62456500  0.92218700  1
  O  O3  1  0.72545400  0.36651500  0.07665600  1
  O  O4  1  0.27454400  0.92334300  0.63348100  1
  O  O5  1  0.20555100  0.37156900  0.37251500  1
  O  O6  1  0.79444700  0.62748500  0.62842700  1
loop_
_geom_bond_atom_site_label_1
_geom_bond_atom_site_label_2
_geom_bond_distance
_geom_bond_site_symmetry_2
Mn0 O3 2.160172 1_556
Mn0 O4 2.160437 1_545
Mn0 O5 2.189450 1_555
Mn0 O6 2.189461 1_555
Mn0 O2 2.326749 1_555
Mn0 O1 2.326934 1_555
Mn1 O2 2.166106 1_554
Mn1 O1 2.166196 1_565
Mn1 O6 2.185462 1_555
Mn1 O5 2.185608 1_555
Mn1 O3 2.361415 1_555
Mn1 O4 2.361489 1_555
O0 P0 1.595185 1_565
O0 P1 1.595200 1_654
O1 P0 1.538875 1_555
O2 P1 1.538823 1_555
O3 P0 1.536138 1_555
O4 P1 1.536194 1_555
O5 P0 1.535685 1_455
O6 P1 1.535678 1_655
