# generated using pymatgen
data_CoPt2
_symmetry_space_group_name_H-M   'P 1'
_cell_length_a   5.81275775
_cell_length_b   5.81239137
_cell_length_c   5.81206340
_cell_angle_alpha   89.99420606
_cell_angle_beta   90.04216150
_cell_angle_gamma   90.04030721
_symmetry_Int_Tables_number   1
_chemical_formula_structural   CoPt2
_chemical_formula_sum   'Co4 Pt8'
_cell_volume   196.36640488
_cell_formula_units_Z   4
loop_
 _symmetry_equiv_pos_site_id
 _symmetry_equiv_pos_as_xyz
  1  'x, y, z'
loop_
 _atom_site_type_symbol
 _atom_site_label
 _atom_site_symmetry_multiplicity
 _atom_site_fract_x
 _atom_site_fract_y
 _atom_site_fract_z
 _atom_site_occupancy
  Co  Co0  1  0.99999900  0.50000100  0.50000000  1
  Co  Co1  1  0.50000100  0.49999900  0.99999800  1
  Co  Co2  1  0.50000000  0.99999900  0.50000100  1
  Co  Co3  1  0.00000100  0.00000100  0.00000000  1
  Pt  Pt0  1  0.37064600  0.13094200  0.86974500  1
  Pt  Pt1  1  0.13087800  0.86977900  0.37069000  1
  Pt  Pt2  1  0.86973900  0.37055000  0.13098600  1
  Pt  Pt3  1  0.63043700  0.63047500  0.63051600  1
  Pt  Pt4  1  0.36956400  0.36952600  0.36948500  1
  Pt  Pt5  1  0.13026000  0.62945000  0.86901400  1
  Pt  Pt6  1  0.86912200  0.13022100  0.62931000  1
  Pt  Pt7  1  0.62935400  0.86905900  0.13025400  1
loop_
_geom_bond_atom_site_label_1
_geom_bond_atom_site_label_2
_geom_bond_distance
_geom_bond_site_symmetry_2
Co0 Pt5 2.395088 1_655
Co0 Pt2 2.395090 1_555
Co0 Pt1 2.400268 1_655
Co0 Pt6 2.400275 1_555
Co0 Pt3 2.402083 1_555
Co0 Pt4 2.402099 1_655
Co1 Pt0 2.395238 1_555
Co1 Pt7 2.395256 1_556
Co1 Pt3 2.400584 1_555
Co1 Pt4 2.400607 1_556
Co1 Pt2 2.400940 1_556
Co1 Pt5 2.400952 1_555
Co2 Pt1 2.395174 1_555
Co2 Pt6 2.395174 1_565
Co2 Pt3 2.400941 1_555
Co2 Pt4 2.400957 1_565
Co2 Pt0 2.401298 1_565
Co2 Pt7 2.401308 1_555
Co3 Pt1 2.406548 1_545
Co3 Pt6 2.406548 1_454
Co3 Pt0 2.407090 1_554
Co3 Pt7 2.407101 1_445
Co3 Pt2 2.407306 1_455
Co3 Pt5 2.407311 1_544
Pt0 Pt7 2.621128 1_546
Pt1 Pt6 2.621645 1_465
Pt2 Pt5 2.622170 1_654
Pt3 Pt4 2.625921 1_555
