# generated using pymatgen
data_BaPr2Mn3O9
_symmetry_space_group_name_H-M   'P 1'
_cell_length_a   5.59979090
_cell_length_b   5.59979090
_cell_length_c   13.70097797
_cell_angle_alpha   89.32828365
_cell_angle_beta   89.32828365
_cell_angle_gamma   59.80663064
_symmetry_Int_Tables_number   1
_chemical_formula_structural   BaPr2Mn3O9
_chemical_formula_sum   'Ba2 Pr4 Mn6 O18'
_cell_volume   371.30993536
_cell_formula_units_Z   2
loop_
 _symmetry_equiv_pos_site_id
 _symmetry_equiv_pos_as_xyz
  1  'x, y, z'
loop_
 _atom_site_type_symbol
 _atom_site_label
 _atom_site_symmetry_multiplicity
 _atom_site_fract_x
 _atom_site_fract_y
 _atom_site_fract_z
 _atom_site_occupancy
  Ba  Ba0  1  0.50583000  0.50583000  0.74996600  1
  Ba  Ba1  1  0.49417000  0.49417000  0.25003400  1
  Pr  Pr0  1  0.82424200  0.82424200  0.07597600  1
  Pr  Pr1  1  0.15904400  0.15904400  0.41945700  1
  Pr  Pr2  1  0.84095600  0.84095600  0.58054300  1
  Pr  Pr3  1  0.17575800  0.17575800  0.92402400  1
  Mn  Mn0  1  0.50000000  0.50000000  0.50000000  1
  Mn  Mn1  1  0.83662900  0.83662900  0.83038300  1
  Mn  Mn2  1  0.16337100  0.16337100  0.16961700  1
  Mn  Mn3  1  0.50000000  0.50000000  0.00000000  1
  Mn  Mn4  1  0.83119300  0.83119300  0.33261900  1
  Mn  Mn5  1  0.16880700  0.16880700  0.66738100  1
  O  O0  1  0.82419200  0.29687700  0.58621000  1
  O  O1  1  0.14220400  0.64345000  0.93087700  1
  O  O2  1  0.46927300  0.98972800  0.26621200  1
  O  O3  1  0.01027200  0.53072700  0.73378800  1
  O  O4  1  0.35655000  0.85779600  0.06912300  1
  O  O5  1  0.70312300  0.17580800  0.41379000  1
  O  O6  1  0.29687700  0.82419200  0.58621000  1
  O  O7  1  0.64345000  0.14220400  0.93087700  1
  O  O8  1  0.98972800  0.46927300  0.26621200  1
  O  O9  1  0.53072700  0.01027200  0.73378800  1
  O  O10  1  0.85779600  0.35655000  0.06912300  1
  O  O11  1  0.17580800  0.70312300  0.41379000  1
  O  O12  1  0.68857000  0.68857000  0.44096500  1
  O  O13  1  0.02977900  0.02977900  0.77654500  1
  O  O14  1  0.34114200  0.34114200  0.09295900  1
  O  O15  1  0.65885800  0.65885800  0.90704100  1
  O  O16  1  0.97022100  0.97022100  0.22345500  1
  O  O17  1  0.31143000  0.31143000  0.55903500  1
loop_
_geom_bond_atom_site_label_1
_geom_bond_atom_site_label_2
_geom_bond_distance
_geom_bond_site_symmetry_2
Ba0 O15 2.631574 1_555
Ba0 O9 2.719165 1_555
Ba0 O3 2.719165 1_555
Ba0 O6 2.729609 1_555
Ba0 O0 2.729609 1_555
Ba0 O13 2.825349 1_655
Ba0 O13 2.825349 1_565
Ba0 O3 2.903207 1_655
Ba0 O9 2.903207 1_565
Ba0 O1 3.038411 1_555
Ba0 O7 3.038411 1_555
Ba0 O17 3.246345 1_555
Ba1 O14 2.631574 1_555
Ba1 O2 2.719165 1_555
Ba1 O8 2.719165 1_555
Ba1 O11 2.729609 1_555
Ba1 O5 2.729609 1_555
Ba1 O16 2.825349 1_545
Ba1 O16 2.825349 1_455
Ba1 O8 2.903207 1_455
Ba1 O2 2.903207 1_545
Ba1 O10 3.038411 1_555
Ba1 O4 3.038411 1_555
Ba1 O12 3.246345 1_555
Mn0 O5 1.981519 1_555
Mn0 O0 1.981519 1_555
Mn0 O11 1.981519 1_555
Mn0 O6 1.981519 1_555
Mn0 O17 1.991428 1_555
Mn0 O12 1.991428 1_555
Mn1 O3 1.994727 1_655
Mn1 O9 1.994727 1_565
Mn1 O13 2.005765 1_665
Mn1 O15 2.008186 1_555
Mn1 O7 2.037761 1_565
Mn1 O1 2.037761 1_655
Mn2 O2 1.994727 1_545
Mn2 O8 1.994727 1_455
Mn2 O16 2.005765 1_445
Mn2 O14 2.008186 1_555
Mn2 O4 2.037761 1_545
Mn2 O10 2.037761 1_455
Mn3 O14 1.986866 1_555
Mn3 O15 1.986866 1_554
Mn3 O10 1.991061 1_555
Mn3 O4 1.991061 1_555
Mn3 O1 1.991061 1_554
Mn3 O7 1.991061 1_554
Mn4 O2 1.984422 1_555
Mn4 O8 1.984422 1_555
Mn4 O16 2.001058 1_555
Mn4 O12 2.016254 1_555
Mn4 O11 2.028481 1_655
Mn4 O5 2.028481 1_565
Mn5 O9 1.984422 1_555
Mn5 O3 1.984422 1_555
Mn5 O13 2.001058 1_555
Mn5 O17 2.016254 1_555
Mn5 O0 2.028481 1_455
Mn5 O6 2.028481 1_545
O0 Pr2 2.509258 1_545
O1 Pr0 2.509664 1_456
O1 Pr3 2.532498 1_555
O1 Pr3 3.079894 1_565
O2 Pr1 2.574811 1_565
O2 Pr0 3.112186 1_555
O3 Pr2 2.574811 1_455
O3 Pr3 3.112186 1_555
O4 Pr3 2.509664 1_564
O4 Pr0 2.532498 1_555
O4 Pr0 3.079894 1_455
O5 Pr1 2.509258 1_655
O6 Pr2 2.509258 1_455
O7 Pr0 2.509664 1_546
O7 Pr3 2.532498 1_555
O7 Pr3 3.079894 1_655
O8 Pr1 2.574811 1_655
O8 Pr0 3.112186 1_555
O9 Pr2 2.574811 1_545
O9 Pr3 3.112186 1_555
O10 Pr3 2.509664 1_654
O10 Pr0 2.532498 1_555
O10 Pr0 3.079894 1_545
O11 Pr1 2.509258 1_565
O12 Pr2 2.433597 1_555
O13 Pr3 2.483725 1_555
O14 Pr0 2.806373 1_545
O14 Pr0 2.806373 1_455
O14 Pr3 2.834759 1_554
O15 Pr3 2.806373 1_655
O15 Pr3 2.806373 1_565
O15 Pr0 2.834759 1_556
O16 Pr0 2.483725 1_555
O17 Pr1 2.433597 1_555
