# generated using pymatgen
data_Tm4CdSe7
_symmetry_space_group_name_H-M   'P 1'
_cell_length_a   6.88814338
_cell_length_b   6.88814338
_cell_length_c   12.06462874
_cell_angle_alpha   75.84824049
_cell_angle_beta   75.84824049
_cell_angle_gamma   33.33467416
_symmetry_Int_Tables_number   1
_chemical_formula_structural   Tm4CdSe7
_chemical_formula_sum   'Tm4 Cd1 Se7'
_cell_volume   304.14680172
_cell_formula_units_Z   1
loop_
 _symmetry_equiv_pos_site_id
 _symmetry_equiv_pos_as_xyz
  1  'x, y, z'
loop_
 _atom_site_type_symbol
 _atom_site_label
 _atom_site_symmetry_multiplicity
 _atom_site_fract_x
 _atom_site_fract_y
 _atom_site_fract_z
 _atom_site_occupancy
  Tm  Tm0  1  0.69460700  0.69460700  0.19775200  1
  Tm  Tm1  1  0.30610800  0.30610800  0.80508500  1
  Tm  Tm2  1  0.00011200  0.00011200  0.00192800  1
  Tm  Tm3  1  0.11533000  0.11533000  0.57215000  1
  Cd  Cd0  1  0.88414800  0.88414800  0.42122200  1
  Se  Se0  1  0.74174900  0.74174900  0.64784300  1
  Se  Se1  1  0.25632400  0.25632400  0.35118600  1
  Se  Se2  1  0.34016600  0.34016600  0.04862000  1
  Se  Se3  1  0.66017100  0.66017100  0.94923200  1
  Se  Se4  1  0.03892000  0.03892000  0.21654600  1
  Se  Se5  1  0.96142900  0.96142900  0.78543000  1
  Se  Se6  1  0.50093600  0.50093600  0.50300800  1
loop_
_geom_bond_atom_site_label_1
_geom_bond_atom_site_label_2
_geom_bond_distance
_geom_bond_site_symmetry_2
Cd0 Se4 2.774046 1_665
Cd0 Se6 2.833477 1_565
Cd0 Se6 2.833477 1_655
Cd0 Se1 2.861890 1_565
Cd0 Se1 2.861890 1_655
Cd0 Se0 2.895585 1_555
Se0 Tm3 2.880680 1_565
Se0 Tm3 2.880680 1_655
Se0 Tm1 3.007630 1_655
Se0 Tm1 3.007630 1_565
Se1 Tm3 2.834999 1_555
Se1 Tm0 2.960196 1_455
Se1 Tm0 2.960196 1_545
Se2 Tm2 2.840649 1_655
Se2 Tm2 2.840649 1_565
Se2 Tm0 3.011040 1_455
Se2 Tm0 3.011040 1_545
Se2 Tm1 3.083651 1_554
Se3 Tm2 2.843222 1_656
Se3 Tm2 2.843222 1_566
Se3 Tm1 2.987858 1_655
Se3 Tm1 2.987858 1_565
Se3 Tm0 3.145136 1_556
Se4 Tm2 2.764710 1_555
Se4 Tm0 2.817514 1_545
Se4 Tm0 2.817514 1_455
Se5 Tm2 2.786331 1_666
Se5 Tm1 2.813018 1_565
Se5 Tm1 2.813018 1_655
Se5 Tm3 2.842324 1_665
Se6 Tm3 2.742437 1_655
Se6 Tm3 2.742437 1_565
