# generated using pymatgen
data_Dy2Cu(GeO4)2
_symmetry_space_group_name_H-M   'P 1'
_cell_length_a   8.94351527
_cell_length_b   8.94351527
_cell_length_c   5.14717169
_cell_angle_alpha   73.64102099
_cell_angle_beta   73.64102099
_cell_angle_gamma   114.88485711
_symmetry_Int_Tables_number   1
_chemical_formula_structural   Dy2Cu(GeO4)2
_chemical_formula_sum   'Dy4 Cu2 Ge4 O16'
_cell_volume   318.24196553
_cell_formula_units_Z   2
loop_
 _symmetry_equiv_pos_site_id
 _symmetry_equiv_pos_as_xyz
  1  'x, y, z'
loop_
 _atom_site_type_symbol
 _atom_site_label
 _atom_site_symmetry_multiplicity
 _atom_site_fract_x
 _atom_site_fract_y
 _atom_site_fract_z
 _atom_site_occupancy
  Dy  Dy0  1  0.45999800  0.70027300  0.18432900  1
  Dy  Dy1  1  0.70027300  0.45999800  0.18432900  1
  Dy  Dy2  1  0.19766500  0.95601700  0.67822100  1
  Dy  Dy3  1  0.95601700  0.19766500  0.67822100  1
  Cu  Cu0  1  0.65991800  0.07430600  0.37793200  1
  Cu  Cu1  1  0.07430600  0.65991800  0.37793200  1
  Ge  Ge0  1  0.83711300  0.83711300  0.37464000  1
  Ge  Ge1  1  0.53248800  0.11155300  0.91828400  1
  Ge  Ge2  1  0.11155300  0.53248800  0.91828400  1
  Ge  Ge3  1  0.33350900  0.33350900  0.97849200  1
  O  O0  1  0.37304100  0.90476700  0.92511200  1
  O  O1  1  0.90476700  0.37304100  0.92511200  1
  O  O2  1  0.74844900  0.93579300  0.58371500  1
  O  O3  1  0.93579300  0.74844900  0.58371500  1
  O  O4  1  0.50788200  0.50788200  0.01167900  1
  O  O5  1  0.73614700  0.25355200  0.54974100  1
  O  O6  1  0.25355200  0.73614700  0.54974100  1
  O  O7  1  0.42675200  0.24255700  0.75447000  1
  O  O8  1  0.24255700  0.42675200  0.75447000  1
  O  O9  1  0.66324700  0.66324700  0.33550600  1
  O  O10  1  0.16374900  0.16374900  0.35639200  1
  O  O11  1  0.50120100  0.16122100  0.24325400  1
  O  O12  1  0.16122100  0.50120100  0.24325400  1
  O  O13  1  0.00370400  0.00370400  0.98727500  1
  O  O14  1  0.65439200  0.99630600  0.07055000  1
  O  O15  1  0.99630600  0.65439200  0.07055000  1
loop_
_geom_bond_atom_site_label_1
_geom_bond_atom_site_label_2
_geom_bond_distance
_geom_bond_site_symmetry_2
Dy0 O14 2.248207 1_555
Dy0 O9 2.275438 1_555
Dy0 O4 2.280540 1_555
Dy0 O12 2.374340 1_555
Dy0 O6 2.435525 1_555
Dy0 O0 2.477261 1_554
Dy0 O8 2.667515 1_555
Dy0 O2 2.813415 1_554
Dy1 O15 2.248207 1_555
Dy1 O9 2.275438 1_555
Dy1 O4 2.280540 1_555
Dy1 O11 2.374340 1_555
Dy1 O5 2.435525 1_555
Dy1 O1 2.477261 1_554
Dy1 O7 2.667515 1_555
Dy1 O3 2.813415 1_554
Dy2 O13 2.274186 1_565
Dy2 O10 2.304637 1_565
Dy2 O15 2.322154 1_456
Dy2 O0 2.384290 1_555
Dy2 O11 2.412251 1_565
Dy2 O6 2.434631 1_555
Dy2 O3 2.580585 1_455
Dy2 O7 2.742227 1_565
Dy3 O13 2.274186 1_655
Dy3 O10 2.304637 1_655
Dy3 O14 2.322154 1_546
Dy3 O1 2.384290 1_555
Dy3 O12 2.412251 1_655
Dy3 O5 2.434631 1_555
Dy3 O2 2.580585 1_545
Dy3 O8 2.742227 1_655
Cu0 O14 1.905000 1_545
Cu0 O2 1.960150 1_545
Cu0 O5 2.008765 1_555
Cu0 O11 2.068598 1_555
Cu0 O1 2.461531 1_554
Cu0 O0 2.657813 1_545
Cu1 O15 1.905000 1_455
Cu1 O3 1.960150 1_455
Cu1 O6 2.008765 1_555
Cu1 O12 2.068598 1_555
Cu1 O0 2.461531 1_554
Cu1 O1 2.657813 1_455
Ge0 O9 1.787292 1_555
Ge0 O13 1.788875 1_664
Ge0 O2 1.791382 1_555
Ge0 O3 1.791382 1_555
Ge1 O0 1.780637 1_545
Ge1 O5 1.810729 1_555
Ge1 O11 1.825641 1_556
Ge1 O7 1.950142 1_555
Ge1 O14 1.958896 1_546
Ge2 O1 1.780637 1_455
Ge2 O6 1.810729 1_555
Ge2 O12 1.825641 1_556
Ge2 O8 1.950142 1_555
Ge2 O15 1.958896 1_456
Ge3 O10 1.768221 1_556
Ge3 O4 1.773873 1_556
Ge3 O8 1.801183 1_555
Ge3 O7 1.801183 1_555
