# generated using pymatgen
data_Sr12Tm3Ni5O24
_symmetry_space_group_name_H-M   'P 1'
_cell_length_a   6.76365754
_cell_length_b   6.76365754
_cell_length_c   13.51792578
_cell_angle_alpha   87.35653765
_cell_angle_beta   87.35653765
_cell_angle_gamma   92.66065673
_symmetry_Int_Tables_number   1
_chemical_formula_structural   Sr12Tm3Ni5O24
_chemical_formula_sum   'Sr12 Tm3 Ni5 O24'
_cell_volume   616.35924249
_cell_formula_units_Z   1
loop_
 _symmetry_equiv_pos_site_id
 _symmetry_equiv_pos_as_xyz
  1  'x, y, z'
loop_
 _atom_site_type_symbol
 _atom_site_label
 _atom_site_symmetry_multiplicity
 _atom_site_fract_x
 _atom_site_fract_y
 _atom_site_fract_z
 _atom_site_occupancy
  Sr  Sr0  1  0.11474600  0.88525400  0.00000000  1
  Sr  Sr1  1  0.11795600  0.88204400  0.50000000  1
  Sr  Sr2  1  0.75173400  0.61241500  0.17867200  1
  Sr  Sr3  1  0.74928900  0.62010300  0.68708200  1
  Sr  Sr4  1  0.37989700  0.25071100  0.31291800  1
  Sr  Sr5  1  0.38758500  0.24826600  0.82132800  1
  Sr  Sr6  1  0.25195900  0.37745000  0.06282900  1
  Sr  Sr7  1  0.24659300  0.38041800  0.56684900  1
  Sr  Sr8  1  0.62255000  0.74804100  0.93717100  1
  Sr  Sr9  1  0.61958200  0.75340700  0.43315100  1
  Sr  Sr10  1  0.88053300  0.12207200  0.24184400  1
  Sr  Sr11  1  0.87792800  0.11946700  0.75815600  1
  Tm  Tm0  1  0.74756700  0.25243300  0.50000000  1
  Tm  Tm1  1  0.25023900  0.75081600  0.24718500  1
  Tm  Tm2  1  0.24918400  0.74976100  0.75281500  1
  Ni  Ni0  1  0.50546200  0.00270600  0.12220400  1
  Ni  Ni1  1  0.49848500  0.00076000  0.62670100  1
  Ni  Ni2  1  0.99729400  0.49453800  0.87779600  1
  Ni  Ni3  1  0.99924000  0.50151500  0.37329900  1
  Ni  Ni4  1  0.75263600  0.24736400  0.00000000  1
  O  O0  1  0.78876600  0.96241300  0.08083600  1
  O  O1  1  0.78419900  0.95980300  0.58097900  1
  O  O2  1  0.58784200  0.28248700  0.13996000  1
  O  O3  1  0.58616600  0.28690600  0.64797000  1
  O  O4  1  0.46674900  0.08170300  0.98703400  1
  O  O5  1  0.45750000  0.09329900  0.47796600  1
  O  O6  1  0.09236800  0.46129000  0.22639000  1
  O  O7  1  0.08392700  0.45702500  0.73786100  1
  O  O8  1  0.28479100  0.58423300  0.89638400  1
  O  O9  1  0.28767700  0.59228000  0.39470000  1
  O  O10  1  0.95727500  0.78744100  0.32920100  1
  O  O11  1  0.96025500  0.78909800  0.83230100  1
  O  O12  1  0.21090200  0.03974500  0.16769900  1
  O  O13  1  0.21255900  0.04272500  0.67079900  1
  O  O14  1  0.41576700  0.71520900  0.10361600  1
  O  O15  1  0.40772000  0.71232300  0.60530000  1
  O  O16  1  0.54297500  0.91607300  0.26213900  1
  O  O17  1  0.53871000  0.90763200  0.77361000  1
  O  O18  1  0.91829700  0.53325100  0.01296600  1
  O  O19  1  0.90670100  0.54250000  0.52203400  1
  O  O20  1  0.71309400  0.41383400  0.35203000  1
  O  O21  1  0.71751300  0.41215800  0.86004000  1
  O  O22  1  0.03758700  0.21123400  0.91916400  1
  O  O23  1  0.04019700  0.21580100  0.41902100  1
loop_
_geom_bond_atom_site_label_1
_geom_bond_atom_site_label_2
_geom_bond_distance
_geom_bond_site_symmetry_2
Ni0 O4 1.913070 1_554
Ni0 O2 1.976202 1_555
Ni0 O16 1.985402 1_545
Ni0 O0 2.005592 1_545
Ni0 O14 2.040096 1_545
Ni0 O12 2.087530 1_555
Ni1 O13 2.033749 1_555
Ni1 O3 2.034849 1_555
Ni1 O1 2.036790 1_545
Ni1 O15 2.055186 1_545
Ni1 O17 2.089249 1_545
Ni1 O5 2.112464 1_555
Ni2 O18 1.913070 1_556
Ni2 O21 1.976202 1_555
Ni2 O7 1.985402 1_655
Ni2 O22 2.005592 1_655
Ni2 O8 2.040096 1_655
Ni2 O11 2.087530 1_555
Ni3 O10 2.033749 1_555
Ni3 O20 2.034849 1_555
Ni3 O23 2.036790 1_655
Ni3 O9 2.055186 1_655
Ni3 O6 2.089249 1_655
Ni3 O19 2.112464 1_555
Ni4 O21 2.179417 1_554
Ni4 O2 2.179417 1_555
Ni4 O0 2.200547 1_545
Ni4 O22 2.200547 1_654
Ni4 O18 2.207574 1_555
Ni4 O4 2.207574 1_554
O0 Sr0 2.502966 1_655
O0 Sr10 2.562751 1_565
O0 Sr2 2.653564 1_555
O0 Sr8 2.729024 1_554
O1 Tm0 2.246733 1_565
O1 Sr1 2.550732 1_655
O1 Sr3 2.646960 1_555
O1 Sr9 2.738621 1_555
O1 Sr11 2.760347 1_565
O2 Sr2 2.532566 1_555
O2 Sr6 2.636839 1_555
O2 Sr4 2.667022 1_555
O2 Sr10 2.702996 1_555
O3 Tm0 2.261042 1_555
O3 Sr3 2.551185 1_555
O3 Sr5 2.642841 1_555
O3 Sr7 2.679708 1_555
O3 Sr11 2.778194 1_555
O4 Sr5 2.550948 1_555
O4 Sr8 2.636934 1_545
O4 Sr0 2.666622 1_546
O4 Sr6 2.735542 1_556
O5 Tm0 2.232427 1_555
O5 Sr4 2.515486 1_555
O5 Sr1 2.645284 1_545
O5 Sr9 2.674881 1_545
O5 Sr7 2.750297 1_555
O6 Tm1 2.222224 1_555
O6 Sr6 2.515470 1_555
O6 Sr10 2.642639 1_455
O6 Sr2 2.657800 1_455
O6 Sr4 2.737168 1_555
O7 Tm2 2.250060 1_555
O7 Sr7 2.598430 1_555
O7 Sr11 2.615505 1_455
O7 Sr3 2.667569 1_455
O7 Sr5 2.796610 1_555
O8 Tm2 2.223893 1_555
O8 Sr8 2.586107 1_555
O8 Sr6 2.588955 1_556
O8 Sr5 2.640214 1_555
O8 Sr0 2.786008 1_556
O9 Tm1 2.250530 1_555
O9 Sr9 2.535771 1_555
O9 Sr7 2.672409 1_555
O9 Sr4 2.693378 1_555
O9 Sr1 2.738700 1_555
O10 Tm1 2.255036 1_655
O10 Sr10 2.589525 1_565
O10 Sr9 2.621008 1_555
O10 Sr1 2.687840 1_655
O10 Sr2 2.793746 1_555
O11 Tm2 2.219285 1_655
O11 Sr11 2.503608 1_565
O11 Sr8 2.628707 1_555
O11 Sr0 2.635389 1_656
O11 Sr3 2.740453 1_555
O12 Tm1 2.219285 1_545
O12 Sr10 2.503608 1_455
O12 Sr6 2.628707 1_555
O12 Sr0 2.635389 1_545
O12 Sr4 2.740453 1_555
O13 Tm2 2.255036 1_545
O13 Sr11 2.589525 1_455
O13 Sr7 2.621008 1_555
O13 Sr1 2.687840 1_545
O13 Sr5 2.793746 1_555
O14 Tm1 2.223893 1_555
O14 Sr6 2.586107 1_555
O14 Sr8 2.588955 1_554
O14 Sr2 2.640214 1_555
O14 Sr0 2.786008 1_555
O15 Tm2 2.250530 1_555
O15 Sr7 2.535771 1_555
O15 Sr9 2.672409 1_555
O15 Sr3 2.693378 1_555
O15 Sr1 2.738700 1_555
O16 Tm1 2.250060 1_555
O16 Sr9 2.598430 1_555
O16 Sr10 2.615505 1_565
O16 Sr4 2.667569 1_565
O16 Sr2 2.796610 1_555
O17 Tm2 2.222224 1_555
O17 Sr8 2.515470 1_555
O17 Sr11 2.642639 1_565
O17 Sr5 2.657800 1_565
O17 Sr3 2.737168 1_555
O18 Sr2 2.550948 1_555
O18 Sr6 2.636934 1_655
O18 Sr0 2.666622 1_655
O18 Sr8 2.735542 1_554
O19 Tm0 2.232427 1_555
O19 Sr3 2.515486 1_555
O19 Sr1 2.645284 1_655
O19 Sr7 2.674881 1_655
O19 Sr9 2.750297 1_555
O20 Tm0 2.261042 1_555
O20 Sr4 2.551185 1_555
O20 Sr2 2.642841 1_555
O20 Sr9 2.679708 1_555
O20 Sr10 2.778194 1_555
O21 Sr5 2.532566 1_555
O21 Sr8 2.636839 1_555
O21 Sr3 2.667022 1_555
O21 Sr11 2.702996 1_555
O22 Sr0 2.502966 1_546
O22 Sr11 2.562751 1_455
O22 Sr5 2.653564 1_555
O22 Sr6 2.729024 1_556
O23 Tm0 2.246733 1_455
O23 Sr1 2.550732 1_545
O23 Sr4 2.646960 1_555
O23 Sr7 2.738621 1_555
O23 Sr10 2.760347 1_455
