# generated using pymatgen
data_Yb(SiAg)2
_symmetry_space_group_name_H-M   'P 1'
_cell_length_a   4.08292848
_cell_length_b   4.08292848
_cell_length_c   6.10944583
_cell_angle_alpha   109.52078769
_cell_angle_beta   109.52078769
_cell_angle_gamma   90.00000000
_symmetry_Int_Tables_number   1
_chemical_formula_structural   Yb(SiAg)2
_chemical_formula_sum   'Yb1 Si2 Ag2'
_cell_volume   89.75713266
_cell_formula_units_Z   1
loop_
 _symmetry_equiv_pos_site_id
 _symmetry_equiv_pos_as_xyz
  1  'x, y, z'
loop_
 _atom_site_type_symbol
 _atom_site_label
 _atom_site_symmetry_multiplicity
 _atom_site_fract_x
 _atom_site_fract_y
 _atom_site_fract_z
 _atom_site_occupancy
  Yb  Yb0  1  0.00000000  0.00000000  0.00000000  1
  Si  Si0  1  0.60498636  0.60498636  0.20997273  1
  Si  Si1  1  0.39501364  0.39501364  0.79002727  1
  Ag  Ag0  1  0.75000000  0.25000000  0.50000000  1
  Ag  Ag1  1  0.25000000  0.75000000  0.50000000  1
loop_
_geom_bond_atom_site_label_1
_geom_bond_atom_site_label_2
_geom_bond_distance
_geom_bond_site_symmetry_2
Si0 Si1 2.261092 1_554
Si0 Yb0 3.100530 1_665
Si0 Yb0 3.100530 1_655
Si0 Yb0 3.100530 1_565
Si0 Yb0 3.100530 1_555
Si1 Yb0 3.100530 1_556
Si1 Yb0 3.100530 1_656
Si1 Yb0 3.100530 1_566
Si1 Yb0 3.100530 1_666
Ag0 Si1 2.570235 1_655
Ag0 Si0 2.570235 1_545
Ag0 Si1 2.570235 1_555
Ag0 Si0 2.570235 1_555
Ag0 Ag1 2.887066 1_645
Ag0 Ag1 2.887066 1_655
Ag0 Ag1 2.887066 1_555
Ag0 Ag1 2.887066 1_545
Ag0 Yb0 3.378627 1_656
Ag0 Yb0 3.378627 1_555
Ag0 Yb0 3.378627 1_655
Ag0 Yb0 3.378627 1_666
Ag1 Si1 2.570235 1_565
Ag1 Si0 2.570235 1_455
Ag1 Si1 2.570235 1_555
Ag1 Si0 2.570235 1_555
Ag1 Yb0 3.378627 1_555
Ag1 Yb0 3.378627 1_565
Ag1 Yb0 3.378627 1_566
Ag1 Yb0 3.378627 1_666
