# generated using pymatgen
data_Li3V4FeO12
_symmetry_space_group_name_H-M   'P 1'
_cell_length_a   5.04252500
_cell_length_b   5.35406719
_cell_length_c   7.40760203
_cell_angle_alpha   95.39591961
_cell_angle_beta   90.55700967
_cell_angle_gamma   90.22201089
_symmetry_Int_Tables_number   1
_chemical_formula_structural   Li3V4FeO12
_chemical_formula_sum   'Li3 V4 Fe1 O12'
_cell_volume   199.09263293
_cell_formula_units_Z   1
loop_
 _symmetry_equiv_pos_site_id
 _symmetry_equiv_pos_as_xyz
  1  'x, y, z'
loop_
 _atom_site_type_symbol
 _atom_site_label
 _atom_site_symmetry_multiplicity
 _atom_site_fract_x
 _atom_site_fract_y
 _atom_site_fract_z
 _atom_site_occupancy
  Li  Li0  1  0.50480500  0.07072900  0.21224200  1
  Li  Li1  1  0.00374600  0.57114900  0.21304600  1
  Li  Li2  1  0.49762500  0.06934400  0.71315700  1
  V  V0  1  0.00745800  0.01081700  0.99550000  1
  V  V1  1  0.48931700  0.49040400  0.49841200  1
  V  V2  1  0.99670200  0.99398400  0.48253200  1
  V  V3  1  0.51025200  0.50545300  0.01024700  1
  Fe  Fe0  1  0.99920900  0.58062800  0.71177900  1
  O  O0  1  0.28999600  0.78199400  0.58851100  1
  O  O1  1  0.12459400  0.96458900  0.26483800  1
  O  O2  1  0.30921200  0.15549900  0.95960500  1
  O  O3  1  0.18181400  0.27977200  0.58889200  1
  O  O4  1  0.81135800  0.26828200  0.07706300  1
  O  O5  1  0.38375800  0.46158700  0.26812400  1
  O  O6  1  0.63529500  0.45923000  0.75668600  1
  O  O7  1  0.16846400  0.65325000  0.95296300  1
  O  O8  1  0.82754100  0.66400700  0.46751800  1
  O  O9  1  0.68952400  0.77418900  0.08177200  1
  O  O10  1  0.87314500  0.95669600  0.77373300  1
  O  O11  1  0.69618500  0.14759600  0.45378000  1
loop_
_geom_bond_atom_site_label_1
_geom_bond_atom_site_label_2
_geom_bond_distance
_geom_bond_site_symmetry_2
Li0 O9 2.015641 1_545
Li0 O11 2.031461 1_555
Li0 O1 2.048952 1_545
Li0 O4 2.174301 1_555
Li0 O5 2.185205 1_555
Li0 O2 2.192793 1_554
Li1 O5 2.054503 1_555
Li1 O4 2.060800 1_455
Li1 O8 2.109431 1_455
Li1 O7 2.186876 1_554
Li1 O1 2.188471 1_555
Li1 O9 2.195481 1_455
Li2 O0 2.004296 1_545
Li2 O10 2.047912 1_545
Li2 O2 2.080130 1_555
Li2 O6 2.191180 1_555
Li2 O3 2.198436 1_555
Li2 O11 2.248378 1_555
Fe0 O7 1.977031 1_655
Fe0 O6 1.985902 1_555
Fe0 O3 2.005791 1_655
Fe0 O0 2.084495 1_655
Fe0 O8 2.084937 1_555
Fe0 O10 2.123832 1_555
O0 V1 1.929298 1_555
O0 V2 2.061513 1_455
O1 V2 1.736199 1_455
O1 V0 2.112310 1_564
O2 V0 1.738823 1_555
O2 V3 2.127151 1_556
O3 V2 1.892414 1_445
O3 V1 2.067404 1_555
O4 V0 1.763123 1_654
O4 V3 2.069133 1_555
O5 V1 1.774647 1_555
O5 V3 2.053771 1_555
O6 V3 1.980798 1_556
O6 V1 2.064855 1_555
O7 V3 1.958599 1_556
O7 V0 2.080161 1_565
O8 V2 1.952125 1_555
O8 V1 1.964780 1_555
O9 V3 1.733600 1_555
O9 V0 2.177194 1_664
O10 V0 1.768800 1_665
O10 V2 2.277560 1_555
O11 V2 1.747696 1_545
O11 V1 2.115092 1_555
