# generated using pymatgen
data_Ca5(Si3O11)2
_symmetry_space_group_name_H-M   'P 1'
_cell_length_a   6.74251662
_cell_length_b   6.74251662
_cell_length_c   23.13628229
_cell_angle_alpha   83.78075592
_cell_angle_beta   83.78075592
_cell_angle_gamma   66.77729193
_symmetry_Int_Tables_number   1
_chemical_formula_structural   Ca5(Si3O11)2
_chemical_formula_sum   'Ca10 Si12 O44'
_cell_volume   958.42169004
_cell_formula_units_Z   2
loop_
 _symmetry_equiv_pos_site_id
 _symmetry_equiv_pos_as_xyz
  1  'x, y, z'
loop_
 _atom_site_type_symbol
 _atom_site_label
 _atom_site_symmetry_multiplicity
 _atom_site_fract_x
 _atom_site_fract_y
 _atom_site_fract_z
 _atom_site_occupancy
  Ca  Ca0  1  0.52000600  0.75457400  0.96238000  1
  Ca  Ca1  1  0.75457400  0.52000600  0.46238000  1
  Ca  Ca2  1  0.22938100  0.48759100  0.53644600  1
  Ca  Ca3  1  0.48759100  0.22938100  0.03644600  1
  Ca  Ca4  1  0.02364000  0.25712300  0.94614700  1
  Ca  Ca5  1  0.25712300  0.02364000  0.44614700  1
  Ca  Ca6  1  0.73674000  0.99891500  0.54719700  1
  Ca  Ca7  1  0.99891500  0.73674000  0.04719700  1
  Ca  Ca8  1  0.49086800  0.89501200  0.70572100  1
  Ca  Ca9  1  0.89501200  0.49086800  0.20572100  1
  Si  Si0  1  0.94487500  0.26114600  0.09144000  1
  Si  Si1  1  0.26114600  0.94487500  0.59144000  1
  Si  Si2  1  0.73008900  0.06535400  0.41051300  1
  Si  Si3  1  0.06535400  0.73008900  0.91051300  1
  Si  Si4  1  0.13211300  0.87521300  0.17907100  1
  Si  Si5  1  0.87521300  0.13211300  0.67907100  1
  Si  Si6  1  0.10932600  0.87939900  0.31970700  1
  Si  Si7  1  0.87939900  0.10932600  0.81970700  1
  Si  Si8  1  0.52104600  0.68418200  0.09503400  1
  Si  Si9  1  0.68418200  0.52104600  0.59503400  1
  Si  Si10  1  0.30815200  0.49336400  0.40528700  1
  Si  Si11  1  0.49336400  0.30815200  0.90528700  1
  O  O0  1  0.04549800  0.13712400  0.15431300  1
  O  O1  1  0.13712400  0.04549800  0.65431300  1
  O  O2  1  0.86388000  0.96832400  0.34940800  1
  O  O3  1  0.96832400  0.86388000  0.84940800  1
  O  O4  1  0.39280100  0.77549900  0.15753700  1
  O  O5  1  0.77549900  0.39280100  0.65753700  1
  O  O6  1  0.22845500  0.62455400  0.34233100  1
  O  O7  1  0.62455400  0.22845500  0.84233100  1
  O  O8  1  0.60584800  0.85112500  0.05436400  1
  O  O9  1  0.85112500  0.60584800  0.55436400  1
  O  O10  1  0.13058100  0.41285900  0.44282600  1
  O  O11  1  0.41285900  0.13058100  0.94282600  1
  O  O12  1  0.10986200  0.34304100  0.05009100  1
  O  O13  1  0.34304100  0.10986200  0.55009100  1
  O  O14  1  0.64158500  0.89583600  0.44861500  1
  O  O15  1  0.89583600  0.64158500  0.94861500  1
  O  O16  1  0.38899700  0.60172100  0.05539400  1
  O  O17  1  0.60172100  0.38899700  0.55539400  1
  O  O18  1  0.37401800  0.63703600  0.44643700  1
  O  O19  1  0.63703600  0.37401800  0.94643700  1
  O  O20  1  0.86004800  0.12074300  0.05541000  1
  O  O21  1  0.12074300  0.86004800  0.55541000  1
  O  O22  1  0.86921000  0.13662500  0.45190200  1
  O  O23  1  0.13662500  0.86921000  0.95190200  1
  O  O24  1  0.74582400  0.48037000  0.11837300  1
  O  O25  1  0.48037000  0.74582400  0.61837300  1
  O  O26  1  0.52192100  0.27818300  0.38802000  1
  O  O27  1  0.27818300  0.52192100  0.88802000  1
  O  O28  1  0.10582100  0.88153300  0.24950500  1
  O  O29  1  0.88153300  0.10582100  0.74950500  1
  O  O30  1  0.33211100  0.65061200  0.75028700  1
  O  O31  1  0.65061200  0.33211100  0.25028700  1
  O  O32  1  0.00995800  0.73911900  0.15621900  1
  O  O33  1  0.73911900  0.00995800  0.65621900  1
  O  O34  1  0.24651500  0.01059900  0.34098000  1
  O  O35  1  0.01059900  0.24651500  0.84098000  1
  O  O36  1  0.60516700  0.15269500  0.13481200  1
  O  O37  1  0.15269500  0.60516700  0.63481200  1
  O  O38  1  0.71413500  0.62116800  0.33639500  1
  O  O39  1  0.62116800  0.71413500  0.83639500  1
  O  O40  1  0.26852700  0.09383600  0.78254200  1
  O  O41  1  0.09383600  0.26852700  0.28254200  1
  O  O42  1  0.73304300  0.66068300  0.79049500  1
  O  O43  1  0.66068300  0.73304300  0.29049500  1
loop_
_geom_bond_atom_site_label_1
_geom_bond_atom_site_label_2
_geom_bond_distance
_geom_bond_site_symmetry_2
Ca0 O15 2.336335 1_555
Ca0 O11 2.352004 1_565
Ca0 O23 2.420270 1_555
Ca0 O19 2.426494 1_555
Ca0 O8 2.480342 1_556
Ca0 O16 2.509792 1_556
Ca0 O39 2.937780 1_555
Ca1 O14 2.336335 1_555
Ca1 O10 2.352004 1_655
Ca1 O22 2.420270 1_555
Ca1 O18 2.426494 1_555
Ca1 O9 2.480342 1_555
Ca1 O17 2.509792 1_555
Ca1 O38 2.937780 1_555
Ca2 O13 2.347848 1_555
Ca2 O9 2.356056 1_455
Ca2 O21 2.398773 1_555
Ca2 O17 2.407477 1_555
Ca2 O37 2.426495 1_555
Ca2 O18 2.486634 1_555
Ca2 O10 2.490606 1_555
Ca3 O12 2.347848 1_555
Ca3 O8 2.356056 1_545
Ca3 O20 2.398773 1_555
Ca3 O16 2.407477 1_555
Ca3 O36 2.426495 1_555
Ca3 O19 2.486634 1_554
Ca3 O11 2.490606 1_554
Ca4 O15 2.392771 1_455
Ca4 O19 2.406908 1_455
Ca4 O23 2.411260 1_545
Ca4 O11 2.413637 1_555
Ca4 O35 2.454017 1_555
Ca4 O12 2.706909 1_556
Ca4 O20 2.853904 1_456
Ca5 O14 2.392771 1_545
Ca5 O18 2.406908 1_545
Ca5 O22 2.411260 1_455
Ca5 O10 2.413637 1_555
Ca5 O34 2.454017 1_555
Ca5 O13 2.706909 1_555
Ca5 O21 2.853904 1_545
Ca6 O21 2.402649 1_655
Ca6 O17 2.442287 1_565
Ca6 O9 2.442696 1_555
Ca6 O13 2.452942 1_565
Ca6 O22 2.510921 1_565
Ca6 O33 2.533480 1_565
Ca6 O14 2.666267 1_555
Ca7 O20 2.402649 1_565
Ca7 O16 2.442287 1_655
Ca7 O8 2.442696 1_555
Ca7 O12 2.452942 1_655
Ca7 O23 2.510921 1_654
Ca7 O32 2.533480 1_655
Ca7 O15 2.666267 1_554
Ca8 O33 2.264829 1_565
Ca8 O40 2.357455 1_565
Ca8 O25 2.372448 1_555
Ca8 O30 2.389185 1_555
Ca8 O1 2.564695 1_565
Ca8 O42 2.645265 1_555
Ca9 O32 2.264829 1_655
Ca9 O41 2.357455 1_655
Ca9 O24 2.372448 1_555
Ca9 O31 2.389185 1_555
Ca9 O0 2.564695 1_655
Ca9 O43 2.645265 1_555
O0 Si0 1.666862 1_455
O0 Si4 1.681581 1_545
O1 Si1 1.666862 1_545
O1 Si5 1.681581 1_455
O2 Si6 1.621986 1_655
O2 Si2 1.642895 1_565
O3 Si7 1.621986 1_565
O3 Si3 1.642895 1_655
O4 Si8 1.649270 1_555
O4 Si4 1.655484 1_555
O5 Si9 1.649270 1_555
O5 Si5 1.655484 1_555
O6 Si6 1.636916 1_555
O6 Si10 1.645709 1_555
O7 Si7 1.636916 1_555
O7 Si11 1.645709 1_555
O8 Si8 1.625065 1_555
O9 Si9 1.625065 1_555
O10 Si10 1.633244 1_555
O11 Si11 1.633244 1_555
O12 Si0 1.611514 1_455
O13 Si1 1.611514 1_545
O14 Si2 1.626408 1_565
O15 Si3 1.626408 1_655
O16 Si8 1.618869 1_555
O17 Si9 1.618869 1_555
O18 Si10 1.634853 1_555
O19 Si11 1.634853 1_555
O20 Si0 1.618477 1_555
O21 Si1 1.618477 1_555
O22 Si2 1.636334 1_555
O23 Si3 1.636334 1_555
O24 Si0 1.681754 1_555
O24 Si8 1.688508 1_555
O25 Si1 1.681754 1_555
O25 Si9 1.688508 1_555
O26 Si10 1.641264 1_555
O26 Si2 1.645650 1_555
O27 Si11 1.641264 1_555
O27 Si3 1.645650 1_555
O28 Si4 1.623352 1_555
O28 Si6 1.625367 1_555
O29 Si5 1.623352 1_555
O29 Si7 1.625367 1_555
O32 Si4 1.611026 1_555
O33 Si5 1.611026 1_555
O34 Si6 1.648844 1_545
O35 Si7 1.648844 1_455
O38 O43 1.233535 1_555
O39 O42 1.233535 1_555
