# generated using pymatgen
data_RbO3
_symmetry_space_group_name_H-M   'P 1'
_cell_length_a   6.17611400
_cell_length_b   6.65622500
_cell_length_c   9.01787335
_cell_angle_alpha   56.11994420
_cell_angle_beta   90.00000000
_cell_angle_gamma   90.00000000
_symmetry_Int_Tables_number   1
_chemical_formula_structural   RbO3
_chemical_formula_sum   'Rb4 O12'
_cell_volume   307.77511090
_cell_formula_units_Z   4
loop_
 _symmetry_equiv_pos_site_id
 _symmetry_equiv_pos_as_xyz
  1  'x, y, z'
loop_
 _atom_site_type_symbol
 _atom_site_label
 _atom_site_symmetry_multiplicity
 _atom_site_fract_x
 _atom_site_fract_y
 _atom_site_fract_z
 _atom_site_occupancy
  Rb  Rb0  1  0.74332000  0.22347000  0.41458100  1
  Rb  Rb1  1  0.24332000  0.77653000  0.08541900  1
  Rb  Rb2  1  0.25668000  0.77653000  0.58541900  1
  Rb  Rb3  1  0.75668000  0.22347000  0.91458100  1
  O  O0  1  0.43741100  0.10733500  0.20271500  1
  O  O1  1  0.93741100  0.89266500  0.29728500  1
  O  O2  1  0.56258900  0.89266500  0.79728500  1
  O  O3  1  0.06258900  0.10733500  0.70271500  1
  O  O4  1  0.20580900  0.29048000  0.59988000  1
  O  O5  1  0.70580900  0.70952000  0.90012000  1
  O  O6  1  0.79419100  0.70952000  0.40012000  1
  O  O7  1  0.29419100  0.29048000  0.09988000  1
  O  O8  1  0.25713600  0.31479200  0.44258800  1
  O  O9  1  0.75713600  0.68520800  0.05741200  1
  O  O10  1  0.74286400  0.68520800  0.55741200  1
  O  O11  1  0.24286400  0.31479200  0.94258800  1
loop_
_geom_bond_atom_site_label_1
_geom_bond_atom_site_label_2
_geom_bond_distance
_geom_bond_site_symmetry_2
O0 O7 1.366782 1_555
O0 Rb3 2.999630 1_554
O0 Rb0 3.076374 1_555
O0 Rb2 3.087482 1_545
O0 Rb1 3.162430 1_545
O1 O6 1.366782 1_555
O1 Rb2 2.999630 1_655
O1 Rb1 3.076374 1_655
O1 Rb3 3.087482 1_564
O1 Rb0 3.162430 1_565
O2 O5 1.366782 1_555
O2 Rb1 2.999630 1_556
O2 Rb2 3.076374 1_555
O2 Rb0 3.087482 1_565
O2 Rb3 3.162430 1_565
O3 O4 1.366782 1_555
O3 Rb0 2.999630 1_455
O3 Rb3 3.076374 1_455
O3 Rb1 3.087482 1_546
O3 Rb2 3.162430 1_545
O4 O8 1.372126 1_555
O4 Rb2 3.179973 1_555
O5 O9 1.372126 1_556
O5 Rb3 3.179973 1_555
O6 Rb0 3.179973 1_555
O7 Rb1 3.179973 1_555
O8 Rb1 2.964914 1_555
O8 Rb2 3.057842 1_545
O8 Rb0 3.101745 1_555
O8 Rb0 3.267235 1_455
O9 Rb0 2.964914 1_555
O9 Rb3 3.057842 1_564
O9 Rb1 3.101745 1_655
O9 Rb1 3.267235 1_555
O10 O6 1.372126 1_555
O10 Rb3 2.964914 1_555
O10 Rb0 3.057842 1_565
O10 Rb2 3.101745 1_555
O10 Rb2 3.267235 1_655
O11 O7 1.372126 1_556
O11 Rb2 2.964914 1_555
O11 Rb1 3.057842 1_546
O11 Rb3 3.101745 1_455
O11 Rb3 3.267235 1_555
