# generated using pymatgen
data_SiN4(OF2)3
_symmetry_space_group_name_H-M   'P 1'
_cell_length_a   5.81627397
_cell_length_b   5.81627397
_cell_length_c   14.84647200
_cell_angle_alpha   90.00000000
_cell_angle_beta   90.00000000
_cell_angle_gamma   119.99999961
_symmetry_Int_Tables_number   1
_chemical_formula_structural   SiN4(OF2)3
_chemical_formula_sum   'Si2 N8 O6 F12'
_cell_volume   434.95427834
_cell_formula_units_Z   2
loop_
 _symmetry_equiv_pos_site_id
 _symmetry_equiv_pos_as_xyz
  1  'x, y, z'
loop_
 _atom_site_type_symbol
 _atom_site_label
 _atom_site_symmetry_multiplicity
 _atom_site_fract_x
 _atom_site_fract_y
 _atom_site_fract_z
 _atom_site_occupancy
  Si  Si0  1  0.00000000  0.00000000  0.50000000  1
  Si  Si1  1  0.00000000  0.00000000  0.00000000  1
  N  N0  1  0.33333300  0.66666700  0.40863100  1
  N  N1  1  0.66666700  0.33333300  0.59136900  1
  N  N2  1  0.66666700  0.33333300  0.90863100  1
  N  N3  1  0.33333300  0.66666700  0.09136900  1
  N  N4  1  0.00000000  0.00000000  0.25000000  1
  N  N5  1  0.00000000  0.00000000  0.75000000  1
  N  N6  1  0.33333300  0.66666700  0.75000000  1
  N  N7  1  0.66666700  0.33333300  0.25000000  1
  O  O0  1  0.54311000  0.45689000  0.25000000  1
  O  O1  1  0.54311000  0.08621900  0.25000000  1
  O  O2  1  0.91378100  0.45689000  0.25000000  1
  O  O3  1  0.45689000  0.54311000  0.75000000  1
  O  O4  1  0.45689000  0.91378100  0.75000000  1
  O  O5  1  0.08621900  0.54311000  0.75000000  1
  F  F0  1  0.13791600  0.86208400  0.56688200  1
  F  F1  1  0.13791600  0.27583200  0.56688200  1
  F  F2  1  0.72416800  0.86208400  0.56688200  1
  F  F3  1  0.86208400  0.13791600  0.43311800  1
  F  F4  1  0.86208400  0.72416800  0.43311800  1
  F  F5  1  0.27583200  0.13791600  0.43311800  1
  F  F6  1  0.86208400  0.13791600  0.06688200  1
  F  F7  1  0.86208400  0.72416800  0.06688200  1
  F  F8  1  0.27583200  0.13791600  0.06688200  1
  F  F9  1  0.13791600  0.86208400  0.93311800  1
  F  F10  1  0.13791600  0.27583200  0.93311800  1
  F  F11  1  0.72416800  0.86208400  0.93311800  1
loop_
_geom_bond_atom_site_label_1
_geom_bond_atom_site_label_2
_geom_bond_distance
_geom_bond_site_symmetry_2
N6 O3 1.244723 1_555
N6 O4 1.244723 1_555
N6 O5 1.244723 1_555
N7 O0 1.244723 1_555
N7 O2 1.244723 1_555
N7 O1 1.244723 1_555
F0 Si0 1.707730 1_565
F1 Si0 1.707730 1_555
F2 Si0 1.707730 1_665
F3 Si0 1.707730 1_655
F4 Si0 1.707730 1_665
F5 Si0 1.707730 1_555
F6 Si1 1.707730 1_655
F7 Si1 1.707730 1_665
F8 Si1 1.707730 1_555
F9 Si1 1.707730 1_566
F10 Si1 1.707730 1_556
F11 Si1 1.707730 1_666
