# generated using pymatgen
data_Sr(ZnN)2
_symmetry_space_group_name_H-M   'P 1'
_cell_length_a   6.10860552
_cell_length_b   10.40602066
_cell_length_c   6.32441525
_cell_angle_alpha   90.00000094
_cell_angle_beta   89.98900988
_cell_angle_gamma   31.59738176
_symmetry_Int_Tables_number   1
_chemical_formula_structural   Sr(ZnN)2
_chemical_formula_sum   'Sr3 Zn6 N6'
_cell_volume   210.63690149
_cell_formula_units_Z   3
loop_
 _symmetry_equiv_pos_site_id
 _symmetry_equiv_pos_as_xyz
  1  'x, y, z'
loop_
 _atom_site_type_symbol
 _atom_site_label
 _atom_site_symmetry_multiplicity
 _atom_site_fract_x
 _atom_site_fract_y
 _atom_site_fract_z
 _atom_site_occupancy
  Sr  Sr0  1  -0.00000000  0.32467598  0.50000000  1
  Sr  Sr1  1  0.00000000  0.67532402  0.50000000  1
  Sr  Sr2  1  -0.00000000  0.50000000  -0.00000000  1
  Zn  Zn0  1  0.71492192  0.98011829  0.86208222  1
  Zn  Zn1  1  0.71492192  0.30495879  0.86208222  1
  Zn  Zn2  1  0.28507808  0.01988171  0.13791778  1
  Zn  Zn3  1  0.28507808  0.69504121  0.13791778  1
  Zn  Zn4  1  0.26270262  0.86864819  0.64927096  1
  Zn  Zn5  1  0.73729738  0.13135181  0.35072904  1
  N  N0  1  0.38951952  0.97263472  0.80305239  1
  N  N1  1  0.38951952  0.63784476  0.80305239  1
  N  N2  1  0.61048048  0.02736528  0.19694761  1
  N  N3  1  0.61048048  0.36215524  0.19694761  1
  N  N4  1  0.52272712  0.23863644  0.67827849  1
  N  N5  1  0.47727288  0.76136356  0.32172151  1
loop_
_geom_bond_atom_site_label_1
_geom_bond_atom_site_label_2
_geom_bond_distance
_geom_bond_site_symmetry_2
N0 Zn4 2.035979 1_555
N0 Zn0 2.088202 1_555
N0 Zn2 2.144550 1_566
N0 Zn1 2.191622 1_465
N0 Sr1 2.737743 1_655
N0 Sr0 2.812145 1_565
N0 Sr2 2.899173 1_656
N1 Zn4 2.035979 1_555
N1 Zn1 2.088202 1_555
N1 Zn3 2.144550 1_556
N1 Zn0 2.191622 1_455
N1 Sr0 2.737743 1_655
N1 Sr1 2.812139 1_555
N1 Sr2 2.899179 1_656
N2 Zn5 2.035979 1_555
N2 Zn2 2.088202 1_555
N2 Zn0 2.144550 1_544
N2 Zn3 2.191622 1_645
N2 Sr0 2.737743 1_555
N2 Sr1 2.812145 1_645
N2 Sr2 2.899173 1_555
N3 Zn5 2.035979 1_555
N3 Zn3 2.088202 1_555
N3 Zn1 2.144550 1_554
N3 Zn2 2.191622 1_655
N3 Sr1 2.737743 1_555
N3 Sr0 2.812139 1_655
N3 Sr2 2.899179 1_555
N4 Zn1 2.141680 1_555
N4 Zn0 2.141688 1_545
N4 Zn5 2.182187 1_555
N4 Zn4 2.375383 1_645
N4 Sr2 2.633733 1_556
N4 Sr0 2.720335 1_555
N4 Sr1 2.720335 1_555
N5 Zn3 2.141680 1_555
N5 Zn2 2.141688 1_565
N5 Zn4 2.182187 1_555
N5 Zn5 2.375383 1_465
N5 Sr2 2.633733 1_655
N5 Sr1 2.720335 1_655
N5 Sr0 2.720335 1_655
