# generated using pymatgen
data_DyHSO5
_symmetry_space_group_name_H-M   'P 1'
_cell_length_a   8.05083882
_cell_length_b   8.21744920
_cell_length_c   11.08003600
_cell_angle_alpha   90.00000000
_cell_angle_beta   90.00000000
_cell_angle_gamma   93.85092361
_symmetry_Int_Tables_number   1
_chemical_formula_structural   DyHSO5
_chemical_formula_sum   'Dy8 H8 S8 O40'
_cell_volume   731.37087316
_cell_formula_units_Z   8
loop_
 _symmetry_equiv_pos_site_id
 _symmetry_equiv_pos_as_xyz
  1  'x, y, z'
loop_
 _atom_site_type_symbol
 _atom_site_label
 _atom_site_symmetry_multiplicity
 _atom_site_fract_x
 _atom_site_fract_y
 _atom_site_fract_z
 _atom_site_occupancy
  Dy  Dy0  1  0.68780000  0.90727300  0.92589100  1
  Dy  Dy1  1  0.18780000  0.40727300  0.57410900  1
  Dy  Dy2  1  0.31220000  0.09272700  0.07410900  1
  Dy  Dy3  1  0.81220000  0.59272700  0.42589100  1
  Dy  Dy4  1  0.66234400  0.37180900  0.93542400  1
  Dy  Dy5  1  0.16234400  0.87180900  0.56457600  1
  Dy  Dy6  1  0.33765600  0.62819100  0.06457600  1
  Dy  Dy7  1  0.83765600  0.12819100  0.43542400  1
  H  H0  1  0.31432000  0.36239300  0.91129700  1
  H  H1  1  0.81432000  0.86239300  0.58870300  1
  H  H2  1  0.68568000  0.63760700  0.08870300  1
  H  H3  1  0.18568000  0.13760700  0.41129700  1
  H  H4  1  0.66091400  0.12604900  0.11639200  1
  H  H5  1  0.16091400  0.62604900  0.38360800  1
  H  H6  1  0.33908600  0.87395100  0.88360800  1
  H  H7  1  0.83908600  0.37395100  0.61639200  1
  S  S0  1  0.00154800  0.63552900  0.82992700  1
  S  S1  1  0.50154800  0.13552900  0.67007300  1
  S  S2  1  0.99845200  0.36447100  0.17007300  1
  S  S3  1  0.49845200  0.86447100  0.32992700  1
  S  S4  1  0.04436500  0.13290500  0.80884200  1
  S  S5  1  0.54436500  0.63290500  0.69115800  1
  S  S6  1  0.95563500  0.86709500  0.19115800  1
  S  S7  1  0.45563500  0.36709500  0.30884200  1
  O  O0  1  0.11044400  0.29322600  0.75989300  1
  O  O1  1  0.61044400  0.79322600  0.74010700  1
  O  O2  1  0.88955600  0.70677400  0.24010700  1
  O  O3  1  0.38955600  0.20677400  0.25989300  1
  O  O4  1  0.92615600  0.78308100  0.87354300  1
  O  O5  1  0.42615600  0.28308100  0.62645700  1
  O  O6  1  0.07384400  0.21691900  0.12645700  1
  O  O7  1  0.57384400  0.71691900  0.37354300  1
  O  O8  1  0.01920400  0.01509400  0.70811700  1
  O  O9  1  0.51920400  0.51509400  0.79188300  1
  O  O10  1  0.98079600  0.98490600  0.29188300  1
  O  O11  1  0.48079600  0.48490600  0.20811700  1
  O  O12  1  0.37412200  0.36071100  0.98836300  1
  O  O13  1  0.87412200  0.86071100  0.51163700  1
  O  O14  1  0.62587800  0.63928900  0.01163700  1
  O  O15  1  0.12587800  0.13928900  0.48836300  1
  O  O16  1  0.06012600  0.65652600  0.70113900  1
  O  O17  1  0.56012600  0.15652600  0.79886100  1
  O  O18  1  0.93987400  0.34347400  0.29886100  1
  O  O19  1  0.43987400  0.84347400  0.20113900  1
  O  O20  1  0.16711600  0.07607700  0.89655200  1
  O  O21  1  0.66711600  0.57607700  0.60344800  1
  O  O22  1  0.83288400  0.92392300  0.10344800  1
  O  O23  1  0.33288400  0.42392300  0.39655200  1
  O  O24  1  0.87607300  0.49525200  0.83051300  1
  O  O25  1  0.37607300  0.99525200  0.66948700  1
  O  O26  1  0.12392700  0.50474800  0.16948700  1
  O  O27  1  0.62392700  0.00474800  0.33051300  1
  O  O28  1  0.14744200  0.60357300  0.90635700  1
  O  O29  1  0.64744200  0.10357300  0.59364300  1
  O  O30  1  0.85255800  0.39642700  0.09364300  1
  O  O31  1  0.35255800  0.89642700  0.40635700  1
  O  O32  1  0.59944300  0.13048700  0.04079100  1
  O  O33  1  0.09944300  0.63048700  0.45920900  1
  O  O34  1  0.40055700  0.86951300  0.95920900  1
  O  O35  1  0.90055700  0.36951300  0.54079100  1
  O  O36  1  0.87977100  0.14605300  0.86998200  1
  O  O37  1  0.37977100  0.64605300  0.63001800  1
  O  O38  1  0.12022900  0.85394700  0.13001800  1
  O  O39  1  0.62022900  0.35394700  0.36998200  1
loop_
_geom_bond_atom_site_label_1
_geom_bond_atom_site_label_2
_geom_bond_distance
_geom_bond_site_symmetry_2
Dy0 O22 2.287358 1_556
Dy0 O4 2.307251 1_555
Dy0 O1 2.329195 1_555
Dy0 O34 2.341806 1_555
Dy0 O32 2.380446 1_566
Dy0 O14 2.419326 1_556
Dy0 O36 2.493019 1_565
Dy0 O17 2.741460 1_565
Dy1 O23 2.287358 1_555
Dy1 O5 2.307251 1_555
Dy1 O0 2.329195 1_555
Dy1 O35 2.341806 1_455
Dy1 O33 2.380446 1_555
Dy1 O15 2.419326 1_555
Dy1 O37 2.493019 1_555
Dy1 O16 2.741460 1_555
Dy2 O20 2.287358 1_554
Dy2 O6 2.307251 1_555
Dy2 O3 2.329195 1_555
Dy2 O32 2.341806 1_555
Dy2 O34 2.380446 1_544
Dy2 O12 2.419326 1_554
Dy2 O38 2.493019 1_545
Dy2 O19 2.741460 1_545
Dy3 O21 2.287358 1_555
Dy3 O7 2.307251 1_555
Dy3 O2 2.329195 1_555
Dy3 O33 2.341806 1_655
Dy3 O35 2.380446 1_555
Dy3 O13 2.419326 1_555
Dy3 O39 2.493019 1_555
Dy3 O18 2.741460 1_555
Dy4 O24 2.259766 1_555
Dy4 O32 2.327453 1_556
Dy4 O30 2.327597 1_556
Dy4 O9 2.329406 1_555
Dy4 O12 2.389214 1_555
Dy4 O14 2.391060 1_556
Dy4 O17 2.429168 1_555
Dy4 O36 2.732699 1_555
Dy5 O25 2.259766 1_555
Dy5 O33 2.327453 1_555
Dy5 O31 2.327597 1_555
Dy5 O8 2.329406 1_565
Dy5 O13 2.389214 1_455
Dy5 O15 2.391060 1_565
Dy5 O16 2.429168 1_555
Dy5 O37 2.732699 1_555
Dy6 O26 2.259766 1_555
Dy6 O34 2.327453 1_554
Dy6 O28 2.327597 1_554
Dy6 O11 2.329406 1_555
Dy6 O14 2.389214 1_555
Dy6 O12 2.391060 1_554
Dy6 O19 2.429168 1_555
Dy6 O38 2.732699 1_555
Dy7 O27 2.259766 1_555
Dy7 O35 2.327453 1_555
Dy7 O29 2.327597 1_555
Dy7 O10 2.329406 1_545
Dy7 O15 2.389214 1_655
Dy7 O13 2.391060 1_545
Dy7 O18 2.429168 1_555
Dy7 O39 2.732699 1_555
H0 O12 0.980826 1_555
H1 O13 0.980826 1_555
H2 O14 0.980826 1_555
H3 O15 0.980826 1_555
H4 O32 0.974859 1_555
H5 O33 0.974859 1_555
H6 O34 0.974859 1_555
H7 O35 0.974859 1_555
O0 S4 1.489512 1_555
O1 S5 1.489512 1_555
O2 S6 1.489512 1_555
O3 S7 1.489512 1_555
O4 S0 1.473421 1_655
O5 S1 1.473421 1_555
O6 S2 1.473421 1_455
O7 S3 1.473421 1_555
O8 S4 1.482383 1_555
O9 S5 1.482383 1_555
O10 S6 1.482383 1_555
O11 S7 1.482383 1_555
O16 S0 1.509142 1_555
O17 S1 1.509142 1_555
O18 S2 1.509142 1_555
O19 S3 1.509142 1_555
O20 S4 1.483627 1_555
O21 S5 1.483627 1_555
O22 S6 1.483627 1_555
O23 S7 1.483627 1_555
O24 S0 1.480829 1_655
O25 S1 1.480829 1_565
O26 S2 1.480829 1_455
O27 S3 1.480829 1_545
O28 S0 1.485648 1_555
O29 S1 1.485648 1_555
O30 S2 1.485648 1_555
O31 S3 1.485648 1_555
O36 S4 1.498587 1_655
O37 S5 1.498587 1_555
O38 S6 1.498587 1_455
O39 S7 1.498587 1_555
