# generated using pymatgen
data_Ce5Cu19P12
_symmetry_space_group_name_H-M   'P 1'
_cell_length_a   3.88898432
_cell_length_b   12.58705222
_cell_length_c   12.58597384
_cell_angle_alpha   119.99193566
_cell_angle_beta   89.64177382
_cell_angle_gamma   90.18426843
_symmetry_Int_Tables_number   1
_chemical_formula_structural   Ce5Cu19P12
_chemical_formula_sum   'Ce5 Cu19 P12'
_cell_volume   533.58606229
_cell_formula_units_Z   1
loop_
 _symmetry_equiv_pos_site_id
 _symmetry_equiv_pos_as_xyz
  1  'x, y, z'
loop_
 _atom_site_type_symbol
 _atom_site_label
 _atom_site_symmetry_multiplicity
 _atom_site_fract_x
 _atom_site_fract_y
 _atom_site_fract_z
 _atom_site_occupancy
  Ce  Ce0  1  0.99968700  0.33308300  0.66645700  1
  Ce  Ce1  1  0.99972300  0.66677200  0.33333800  1
  Ce  Ce2  1  0.49952200  0.81371600  0.81371100  1
  Ce  Ce3  1  0.49828100  0.00045100  0.18655500  1
  Ce  Ce4  1  0.49966100  0.18670100  0.00010100  1
  Cu  Cu0  1  0.50860600  0.52134700  0.63962800  1
  Cu  Cu1  1  0.48721100  0.11804400  0.47859700  1
  Cu  Cu2  1  0.51197100  0.36023900  0.88196400  1
  Cu  Cu3  1  0.48696900  0.88212100  0.36055400  1
  Cu  Cu4  1  0.51197400  0.63946900  0.52163700  1
  Cu  Cu5  1  0.50883100  0.47824000  0.11790700  1
  Cu  Cu6  1  0.99492200  0.61986400  0.82641000  1
  Cu  Cu7  1  0.99501800  0.20665600  0.37942000  1
  Cu  Cu8  1  0.00483100  0.17349100  0.79355200  1
  Cu  Cu9  1  0.99508900  0.79356900  0.17330300  1
  Cu  Cu10  1  0.00459800  0.82666700  0.62037200  1
  Cu  Cu11  1  0.99490800  0.38012300  0.20617400  1
  Cu  Cu12  1  0.99872600  0.00012900  0.00004100  1
  Cu  Cu13  1  0.50397400  0.71156300  0.00000400  1
  Cu  Cu14  1  0.50400600  0.28837200  0.28820000  1
  Cu  Cu15  1  0.49641400  0.00006700  0.71201600  1
  Cu  Cu16  1  0.07849300  0.54521700  0.00044200  1
  Cu  Cu17  1  0.07888500  0.45427600  0.45464000  1
  Cu  Cu18  1  0.91954700  0.99988000  0.54529600  1
  P  P0  1  0.99775100  0.00039800  0.82468100  1
  P  P1  1  0.00158900  0.82452000  0.00005400  1
  P  P2  1  0.00161100  0.17588400  0.17533300  1
  P  P3  1  0.50373200  0.17325600  0.68837600  1
  P  P4  1  0.49422800  0.51474900  0.82662900  1
  P  P5  1  0.49682400  0.31135800  0.48471800  1
  P  P6  1  0.49429000  0.48482800  0.31161200  1
  P  P7  1  0.49691700  0.68814600  0.17299900  1
  P  P8  1  0.50365100  0.82694300  0.51536700  1
  P  P9  1  0.00235000  0.63831200  0.63850100  1
  P  P10  1  0.99475900  0.99999900  0.36148500  1
  P  P11  1  0.00245000  0.36145400  0.99992900  1
loop_
_geom_bond_atom_site_label_1
_geom_bond_atom_site_label_2
_geom_bond_distance
_geom_bond_site_symmetry_2
Ce0 P3 2.892508 1_555
Ce0 P5 2.892653 1_655
Ce0 P4 2.898832 1_655
Ce0 P4 2.920192 1_555
Ce0 P3 2.924500 1_655
Ce0 P5 2.925481 1_555
Ce1 P7 2.893817 1_655
Ce1 P8 2.896067 1_555
Ce1 P6 2.900779 1_655
Ce1 P6 2.921450 1_555
Ce1 P7 2.926417 1_555
Ce1 P8 2.926944 1_655
Ce2 P9 2.938385 1_555
Ce2 P9 2.944086 1_655
Ce2 P1 2.982425 1_556
Ce2 P0 2.990741 1_565
Ce2 P0 3.008350 1_465
Ce2 P1 3.011317 1_656
Ce2 Cu12 3.044560 1_466
Ce2 Cu12 3.049691 1_566
Ce2 Cu10 3.179566 1_555
Ce2 Cu6 3.180416 1_555
Ce2 Cu10 3.184458 1_655
Ce2 Cu15 3.184669 1_565
Ce2 Cu13 3.188390 1_556
Ce2 Cu6 3.191454 1_455
Ce2 Cu4 3.203731 1_555
Ce2 Cu0 3.206777 1_555
Ce3 P10 2.939457 1_445
Ce3 P10 2.939571 1_545
Ce3 P2 2.994918 1_555
Ce3 P1 2.996207 1_545
Ce3 P2 3.001359 1_655
Ce3 P1 3.003093 1_645
Ce3 Cu12 3.038384 1_555
Ce3 Cu12 3.054893 1_455
Ce3 Cu7 3.176221 1_555
Ce3 Cu7 3.183388 1_455
Ce3 Cu14 3.183665 1_555
Ce3 Cu9 3.183686 1_545
Ce3 Cu9 3.189887 1_445
Ce3 Cu13 3.193721 1_545
Ce3 Cu1 3.203474 1_555
Ce3 Cu3 3.205547 1_545
Ce4 P11 2.934197 1_554
Ce4 P11 2.939175 1_654
Ce4 P2 2.979820 1_555
Ce4 P0 2.987543 1_554
Ce4 P0 3.005311 1_454
Ce4 P2 3.008150 1_655
Ce4 Cu12 3.046139 1_455
Ce4 Cu12 3.051129 1_555
Ce4 Cu11 3.175393 1_555
Ce4 Cu8 3.180768 1_554
Ce4 Cu14 3.185492 1_555
Ce4 Cu15 3.185934 1_554
Ce4 Cu8 3.186128 1_654
Ce4 Cu11 3.187736 1_455
Ce4 Cu5 3.197806 1_555
Ce4 Cu2 3.198412 1_554
Cu0 P5 2.374423 1_555
Cu0 P4 2.396487 1_555
Cu0 P9 2.420141 1_655
Cu0 P9 2.466543 1_555
Cu1 P3 2.371822 1_555
Cu1 P5 2.395850 1_555
Cu1 P10 2.423944 1_445
Cu1 P10 2.463596 1_545
Cu2 P4 2.372286 1_555
Cu2 P3 2.396714 1_555
Cu2 P11 2.419820 1_655
Cu2 P11 2.464083 1_555
Cu3 P8 2.374433 1_555
Cu3 P7 2.402585 1_555
Cu3 P10 2.422059 1_455
Cu3 P10 2.462815 1_555
Cu4 P6 2.374512 1_555
Cu4 P8 2.400493 1_555
Cu4 P9 2.420159 1_655
Cu4 P9 2.465033 1_555
Cu5 P7 2.373278 1_555
Cu5 P6 2.397904 1_555
Cu5 P11 2.418918 1_654
Cu5 P11 2.465687 1_554
Cu6 P4 2.351410 1_555
Cu6 P4 2.354011 1_655
Cu6 P1 2.405134 1_656
Cu6 P9 2.489217 1_655
Cu7 P5 2.342040 1_555
Cu7 P5 2.360352 1_655
Cu7 P2 2.398570 1_655
Cu7 P10 2.496031 1_545
Cu8 P3 2.341101 1_555
Cu8 P3 2.361842 1_455
Cu8 P0 2.398749 1_455
Cu8 P11 2.490053 1_555
Cu9 P7 2.343669 1_555
Cu9 P7 2.362432 1_655
Cu9 P1 2.399073 1_655
Cu9 P10 2.491665 1_555
Cu10 P8 2.342184 1_555
Cu10 P8 2.361954 1_455
Cu10 P0 2.402637 1_465
Cu10 P9 2.492721 1_555
Cu11 P6 2.350330 1_555
Cu11 P6 2.353067 1_655
Cu11 P2 2.400596 1_655
Cu11 P11 2.486662 1_654
Cu12 P0 2.208798 1_554
Cu12 P2 2.209567 1_655
Cu12 P1 2.210545 1_645
Cu13 P7 2.338615 1_555
Cu13 P4 2.344366 1_554
Cu13 P1 2.397497 1_655
Cu13 P1 2.419849 1_555
Cu14 P6 2.339872 1_555
Cu14 P5 2.342179 1_555
Cu14 P2 2.395832 1_655
Cu14 P2 2.417874 1_555
Cu15 P8 2.341485 1_545
Cu15 P3 2.342949 1_555
Cu15 P0 2.394024 1_455
Cu15 P0 2.416743 1_555
Cu16 P11 2.327728 1_554
Cu16 P4 2.582190 1_554
Cu16 P7 2.592365 1_555
Cu17 P9 2.333710 1_555
Cu17 P6 2.578759 1_555
Cu17 P5 2.593941 1_555
Cu18 P10 2.330786 1_555
Cu18 P8 2.580978 1_555
Cu18 P3 2.584117 1_565
