# generated using pymatgen
data_Ti8Cu3Ni
_symmetry_space_group_name_H-M   'P 1'
_cell_length_a   5.88106694
_cell_length_b   5.88106694
_cell_length_c   41.69586166
_cell_angle_alpha   90.00000000
_cell_angle_beta   90.00000000
_cell_angle_gamma   90.00000000
_symmetry_Int_Tables_number   1
_chemical_formula_structural   Ti8Cu3Ni
_chemical_formula_sum   'Ti64 Cu24 Ni8'
_cell_volume   1442.13261376
_cell_formula_units_Z   8
loop_
 _symmetry_equiv_pos_site_id
 _symmetry_equiv_pos_as_xyz
  1  'x, y, z'
loop_
 _atom_site_type_symbol
 _atom_site_label
 _atom_site_symmetry_multiplicity
 _atom_site_fract_x
 _atom_site_fract_y
 _atom_site_fract_z
 _atom_site_occupancy
  Ti  Ti0_0  1  0.25000000  0.25000000  0.03744723  1
  Ti  Ti0_1  1  0.25000000  0.25000000  0.53744723  1
  Ti  Ti0_2  1  0.25000000  0.75000000  0.03744723  1
  Ti  Ti0_3  1  0.25000000  0.75000000  0.53744723  1
  Ti  Ti0_4  1  0.75000000  0.25000000  0.03744723  1
  Ti  Ti0_5  1  0.75000000  0.25000000  0.53744723  1
  Ti  Ti0_6  1  0.75000000  0.75000000  0.03744723  1
  Ti  Ti0_7  1  0.75000000  0.75000000  0.53744723  1
  Ti  Ti1_0  1  0.00000000  0.00000000  0.16424312  1
  Ti  Ti1_1  1  0.00000000  0.00000000  0.66424312  1
  Ti  Ti1_2  1  0.00000000  0.50000000  0.16424312  1
  Ti  Ti1_3  1  0.00000000  0.50000000  0.66424312  1
  Ti  Ti1_4  1  0.50000000  0.00000000  0.16424312  1
  Ti  Ti1_5  1  0.50000000  0.00000000  0.66424312  1
  Ti  Ti1_6  1  0.50000000  0.50000000  0.16424312  1
  Ti  Ti1_7  1  0.50000000  0.50000000  0.66424312  1
  Ti  Ti2_0  1  0.25000000  0.25000000  0.29079787  1
  Ti  Ti2_1  1  0.25000000  0.25000000  0.79079787  1
  Ti  Ti2_2  1  0.25000000  0.75000000  0.29079787  1
  Ti  Ti2_3  1  0.25000000  0.75000000  0.79079787  1
  Ti  Ti2_4  1  0.75000000  0.25000000  0.29079787  1
  Ti  Ti2_5  1  0.75000000  0.25000000  0.79079787  1
  Ti  Ti2_6  1  0.75000000  0.75000000  0.29079787  1
  Ti  Ti2_7  1  0.75000000  0.75000000  0.79079787  1
  Ti  Ti3_0  1  0.00000000  0.00000000  0.41774181  1
  Ti  Ti3_1  1  0.00000000  0.00000000  0.91774181  1
  Ti  Ti3_2  1  0.00000000  0.50000000  0.41774181  1
  Ti  Ti3_3  1  0.00000000  0.50000000  0.91774181  1
  Ti  Ti3_4  1  0.50000000  0.00000000  0.41774181  1
  Ti  Ti3_5  1  0.50000000  0.00000000  0.91774181  1
  Ti  Ti3_6  1  0.50000000  0.50000000  0.41774181  1
  Ti  Ti3_7  1  0.50000000  0.50000000  0.91774181  1
  Ti  Ti4_0  1  0.00000000  0.00000000  0.08225820  1
  Ti  Ti4_1  1  0.00000000  0.00000000  0.58225819  1
  Ti  Ti4_2  1  0.00000000  0.50000000  0.08225820  1
  Ti  Ti4_3  1  0.00000000  0.50000000  0.58225819  1
  Ti  Ti4_4  1  0.50000000  0.00000000  0.08225820  1
  Ti  Ti4_5  1  0.50000000  0.00000000  0.58225819  1
  Ti  Ti4_6  1  0.50000000  0.50000000  0.08225820  1
  Ti  Ti4_7  1  0.50000000  0.50000000  0.58225819  1
  Ti  Ti5_0  1  0.25000000  0.25000000  0.20920213  1
  Ti  Ti5_1  1  0.25000000  0.25000000  0.70920213  1
  Ti  Ti5_2  1  0.25000000  0.75000000  0.20920213  1
  Ti  Ti5_3  1  0.25000000  0.75000000  0.70920213  1
  Ti  Ti5_4  1  0.75000000  0.25000000  0.20920213  1
  Ti  Ti5_5  1  0.75000000  0.25000000  0.70920213  1
  Ti  Ti5_6  1  0.75000000  0.75000000  0.20920213  1
  Ti  Ti5_7  1  0.75000000  0.75000000  0.70920213  1
  Ti  Ti6_0  1  0.00000000  0.00000000  0.33575688  1
  Ti  Ti6_1  1  0.00000000  0.00000000  0.83575688  1
  Ti  Ti6_2  1  0.00000000  0.50000000  0.33575688  1
  Ti  Ti6_3  1  0.00000000  0.50000000  0.83575688  1
  Ti  Ti6_4  1  0.50000000  0.00000000  0.33575688  1
  Ti  Ti6_5  1  0.50000000  0.00000000  0.83575688  1
  Ti  Ti6_6  1  0.50000000  0.50000000  0.33575688  1
  Ti  Ti6_7  1  0.50000000  0.50000000  0.83575688  1
  Ti  Ti7_0  1  0.25000000  0.25000000  0.46255277  1
  Ti  Ti7_1  1  0.25000000  0.25000000  0.96255277  1
  Ti  Ti7_2  1  0.25000000  0.75000000  0.46255277  1
  Ti  Ti7_3  1  0.25000000  0.75000000  0.96255277  1
  Ti  Ti7_4  1  0.75000000  0.25000000  0.46255277  1
  Ti  Ti7_5  1  0.75000000  0.25000000  0.96255277  1
  Ti  Ti7_6  1  0.75000000  0.75000000  0.46255277  1
  Ti  Ti7_7  1  0.75000000  0.75000000  0.96255277  1
  Cu  Cu0_0  1  0.25000000  0.25000000  0.12325542  1
  Cu  Cu0_1  1  0.25000000  0.25000000  0.62325542  1
  Cu  Cu0_2  1  0.25000000  0.75000000  0.12325542  1
  Cu  Cu0_3  1  0.25000000  0.75000000  0.62325542  1
  Cu  Cu0_4  1  0.75000000  0.25000000  0.12325542  1
  Cu  Cu0_5  1  0.75000000  0.25000000  0.62325542  1
  Cu  Cu0_6  1  0.75000000  0.75000000  0.12325542  1
  Cu  Cu0_7  1  0.75000000  0.75000000  0.62325542  1
  Cu  Cu1_0  1  0.00000000  0.00000000  0.25000000  1
  Cu  Cu1_1  1  0.00000000  0.00000000  0.75000000  1
  Cu  Cu1_2  1  0.00000000  0.50000000  0.25000000  1
  Cu  Cu1_3  1  0.00000000  0.50000000  0.75000000  1
  Cu  Cu1_4  1  0.50000000  0.00000000  0.25000000  1
  Cu  Cu1_5  1  0.50000000  0.00000000  0.75000000  1
  Cu  Cu1_6  1  0.50000000  0.50000000  0.25000000  1
  Cu  Cu1_7  1  0.50000000  0.50000000  0.75000000  1
  Cu  Cu2_0  1  0.25000000  0.25000000  0.37674458  1
  Cu  Cu2_1  1  0.25000000  0.25000000  0.87674458  1
  Cu  Cu2_2  1  0.25000000  0.75000000  0.37674458  1
  Cu  Cu2_3  1  0.25000000  0.75000000  0.87674458  1
  Cu  Cu2_4  1  0.75000000  0.25000000  0.37674458  1
  Cu  Cu2_5  1  0.75000000  0.25000000  0.87674458  1
  Cu  Cu2_6  1  0.75000000  0.75000000  0.37674458  1
  Cu  Cu2_7  1  0.75000000  0.75000000  0.87674458  1
  Ni  Ni0_0  1  0.00000000  0.00000000  0.00000000  1
  Ni  Ni0_1  1  0.00000000  0.00000000  0.50000000  1
  Ni  Ni0_2  1  0.00000000  0.50000000  0.00000000  1
  Ni  Ni0_3  1  0.00000000  0.50000000  0.50000000  1
  Ni  Ni0_4  1  0.50000000  0.00000000  0.00000000  1
  Ni  Ni0_5  1  0.50000000  0.00000000  0.50000000  1
  Ni  Ni0_6  1  0.50000000  0.50000000  0.00000000  1
  Ni  Ni0_7  1  0.50000000  0.50000000  0.50000000  1
loop_
_geom_bond_atom_site_label_1
_geom_bond_atom_site_label_2
_geom_bond_distance
_geom_bond_site_symmetry_2
Ti0_0 Ti4_6 2.795426 1_555
Ti0_0 Ti4_0 2.795426 1_555
Ti0_0 Ti4_4 2.795426 1_555
Ti0_0 Ti4_2 2.795426 1_555
Ti0_0 Ti0_4 2.940533 1_555
Ti0_0 Ti0_4 2.940533 1_455
Ti0_0 Ti0_2 2.940533 1_555
Ti0_0 Ti0_2 2.940533 1_545
Ti0_1 Ti4_5 2.795426 1_555
Ti0_1 Ti4_3 2.795426 1_555
Ti0_1 Ti4_1 2.795426 1_555
Ti0_1 Ti4_7 2.795426 1_555
Ti0_1 Ti0_3 2.940533 1_555
Ti0_1 Ti0_3 2.940533 1_545
Ti0_1 Ti0_5 2.940533 1_455
Ti0_1 Ti0_5 2.940533 1_555
Ti0_2 Ti4_0 2.795426 1_565
Ti0_2 Ti4_6 2.795426 1_555
Ti0_2 Ti4_4 2.795426 1_565
Ti0_2 Ti4_2 2.795426 1_555
Ti0_2 Ti0_6 2.940533 1_555
Ti0_2 Ti0_6 2.940533 1_455
Ti0_3 Ti4_3 2.795426 1_555
Ti0_3 Ti4_1 2.795426 1_565
Ti0_3 Ti4_7 2.795426 1_555
Ti0_3 Ti4_5 2.795426 1_565
Ti0_3 Ti0_7 2.940533 1_555
Ti0_3 Ti0_7 2.940533 1_455
Ti0_4 Ti4_2 2.795426 1_655
Ti0_4 Ti4_6 2.795426 1_555
Ti0_4 Ti4_4 2.795426 1_555
Ti0_4 Ti4_0 2.795426 1_655
Ti0_4 Ti0_6 2.940533 1_555
Ti0_4 Ti0_6 2.940533 1_545
Ti0_5 Ti4_5 2.795426 1_555
Ti0_5 Ti4_1 2.795426 1_655
Ti0_5 Ti4_7 2.795426 1_555
Ti0_5 Ti4_3 2.795426 1_655
Ti0_5 Ti0_7 2.940533 1_555
Ti0_5 Ti0_7 2.940533 1_545
Ti0_6 Ti4_2 2.795426 1_655
Ti0_6 Ti4_6 2.795426 1_555
Ti0_6 Ti4_0 2.795426 1_665
Ti0_6 Ti4_4 2.795426 1_565
Ti0_7 Ti4_1 2.795426 1_665
Ti0_7 Ti4_7 2.795426 1_555
Ti0_7 Ti4_3 2.795426 1_655
Ti0_7 Ti4_5 2.795426 1_565
Ti1_0 Ti5_2 2.799556 1_545
Ti1_0 Ti5_6 2.799556 1_445
Ti1_0 Ti5_4 2.799556 1_455
Ti1_0 Ti5_0 2.799556 1_555
Ti1_0 Ti1_4 2.940533 1_555
Ti1_0 Ti1_2 2.940533 1_545
Ti1_0 Ti1_2 2.940533 1_555
Ti1_0 Ti1_4 2.940533 1_455
Ti1_1 Ti5_5 2.799556 1_455
Ti1_1 Ti5_3 2.799556 1_545
Ti1_1 Ti5_7 2.799556 1_445
Ti1_1 Ti5_1 2.799556 1_555
Ti1_1 Ti1_5 2.940533 1_455
Ti1_1 Ti1_3 2.940533 1_555
Ti1_1 Ti1_3 2.940533 1_545
Ti1_1 Ti1_5 2.940533 1_555
Ti1_2 Ti5_4 2.799556 1_455
Ti1_2 Ti5_2 2.799556 1_555
Ti1_2 Ti5_6 2.799556 1_455
Ti1_2 Ti5_0 2.799556 1_555
Ti1_2 Ti1_6 2.940533 1_455
Ti1_2 Ti1_6 2.940533 1_555
Ti1_3 Ti5_7 2.799556 1_455
Ti1_3 Ti5_5 2.799556 1_455
Ti1_3 Ti5_3 2.799556 1_555
Ti1_3 Ti5_1 2.799556 1_555
Ti1_3 Ti1_7 2.940533 1_555
Ti1_3 Ti1_7 2.940533 1_455
Ti1_4 Ti5_2 2.799556 1_545
Ti1_4 Ti5_6 2.799556 1_545
Ti1_4 Ti5_4 2.799556 1_555
Ti1_4 Ti5_0 2.799556 1_555
Ti1_4 Ti1_6 2.940533 1_545
Ti1_4 Ti1_6 2.940533 1_555
Ti1_5 Ti5_3 2.799556 1_545
Ti1_5 Ti5_7 2.799556 1_545
Ti1_5 Ti5_1 2.799556 1_555
Ti1_5 Ti5_5 2.799556 1_555
Ti1_5 Ti1_7 2.940533 1_555
Ti1_5 Ti1_7 2.940533 1_545
Ti1_6 Ti5_4 2.799556 1_555
Ti1_6 Ti5_6 2.799556 1_555
Ti1_6 Ti5_2 2.799556 1_555
Ti1_6 Ti5_0 2.799556 1_555
Ti1_7 Ti5_3 2.799556 1_555
Ti1_7 Ti5_7 2.799556 1_555
Ti1_7 Ti5_1 2.799556 1_555
Ti1_7 Ti5_5 2.799556 1_555
Ti2_0 Ti6_4 2.799556 1_555
Ti2_0 Ti6_6 2.799556 1_555
Ti2_0 Ti6_2 2.799556 1_555
Ti2_0 Ti6_0 2.799556 1_555
Ti2_0 Ti2_4 2.940533 1_455
Ti2_0 Ti2_4 2.940533 1_555
Ti2_0 Ti2_2 2.940533 1_555
Ti2_0 Ti2_2 2.940533 1_545
Ti2_1 Ti6_1 2.799556 1_555
Ti2_1 Ti6_5 2.799556 1_555
Ti2_1 Ti6_3 2.799556 1_555
Ti2_1 Ti6_7 2.799556 1_555
Ti2_1 Ti2_3 2.940533 1_555
Ti2_1 Ti2_3 2.940533 1_545
Ti2_1 Ti2_5 2.940533 1_455
Ti2_1 Ti2_5 2.940533 1_555
Ti2_2 Ti6_4 2.799556 1_565
Ti2_2 Ti6_2 2.799556 1_555
Ti2_2 Ti6_0 2.799556 1_565
Ti2_2 Ti6_6 2.799556 1_555
Ti2_2 Ti2_6 2.940533 1_555
Ti2_2 Ti2_6 2.940533 1_455
Ti2_3 Ti6_5 2.799556 1_565
Ti2_3 Ti6_1 2.799556 1_565
Ti2_3 Ti6_3 2.799556 1_555
Ti2_3 Ti6_7 2.799556 1_555
Ti2_3 Ti2_7 2.940533 1_455
Ti2_3 Ti2_7 2.940533 1_555
Ti2_4 Ti6_2 2.799556 1_655
Ti2_4 Ti6_4 2.799556 1_555
Ti2_4 Ti6_0 2.799556 1_655
Ti2_4 Ti6_6 2.799556 1_555
Ti2_4 Ti2_6 2.940533 1_545
Ti2_4 Ti2_6 2.940533 1_555
Ti2_5 Ti6_5 2.799556 1_555
Ti2_5 Ti6_1 2.799556 1_655
Ti2_5 Ti6_3 2.799556 1_655
Ti2_5 Ti6_7 2.799556 1_555
Ti2_5 Ti2_7 2.940533 1_555
Ti2_5 Ti2_7 2.940533 1_545
Ti2_6 Ti6_4 2.799556 1_565
Ti2_6 Ti6_2 2.799556 1_655
Ti2_6 Ti6_0 2.799556 1_665
Ti2_6 Ti6_6 2.799556 1_555
Ti2_7 Ti6_5 2.799556 1_565
Ti2_7 Ti6_1 2.799556 1_665
Ti2_7 Ti6_3 2.799556 1_655
Ti2_7 Ti6_7 2.799556 1_555
Ti3_0 Ti7_4 2.795426 1_455
Ti3_0 Ti7_2 2.795426 1_545
Ti3_0 Ti7_0 2.795426 1_555
Ti3_0 Ti7_6 2.795426 1_445
Ti3_0 Ti3_4 2.940533 1_555
Ti3_0 Ti3_4 2.940533 1_455
Ti3_0 Ti3_2 2.940533 1_555
Ti3_0 Ti3_2 2.940533 1_545
Ti3_1 Ti7_1 2.795426 1_555
Ti3_1 Ti7_3 2.795426 1_545
Ti3_1 Ti7_5 2.795426 1_455
Ti3_1 Ti7_7 2.795426 1_445
Ti3_1 Ti3_5 2.940533 1_455
Ti3_1 Ti3_3 2.940533 1_545
Ti3_1 Ti3_5 2.940533 1_555
Ti3_1 Ti3_3 2.940533 1_555
Ti3_2 Ti7_4 2.795426 1_455
Ti3_2 Ti7_2 2.795426 1_555
Ti3_2 Ti7_6 2.795426 1_455
Ti3_2 Ti7_0 2.795426 1_555
Ti3_2 Ti3_6 2.940533 1_455
Ti3_2 Ti3_6 2.940533 1_555
Ti3_3 Ti7_7 2.795426 1_455
Ti3_3 Ti7_3 2.795426 1_555
Ti3_3 Ti7_5 2.795426 1_455
Ti3_3 Ti7_1 2.795426 1_555
Ti3_3 Ti3_7 2.940533 1_555
Ti3_3 Ti3_7 2.940533 1_455
Ti3_4 Ti7_4 2.795426 1_555
Ti3_4 Ti7_2 2.795426 1_545
Ti3_4 Ti7_0 2.795426 1_555
Ti3_4 Ti7_6 2.795426 1_545
Ti3_4 Ti3_6 2.940533 1_545
Ti3_4 Ti3_6 2.940533 1_555
Ti3_5 Ti7_5 2.795426 1_555
Ti3_5 Ti7_3 2.795426 1_545
Ti3_5 Ti7_1 2.795426 1_555
Ti3_5 Ti7_7 2.795426 1_545
Ti3_5 Ti3_7 2.940533 1_555
Ti3_5 Ti3_7 2.940533 1_545
Ti3_6 Ti7_4 2.795426 1_555
Ti3_6 Ti7_2 2.795426 1_555
Ti3_6 Ti7_6 2.795426 1_555
Ti3_6 Ti7_0 2.795426 1_555
Ti3_7 Ti7_3 2.795426 1_555
Ti3_7 Ti7_1 2.795426 1_555
Ti3_7 Ti7_5 2.795426 1_555
Ti3_7 Ti7_7 2.795426 1_555
Ti4_0 Ti4_4 2.940533 1_455
Ti4_0 Ti4_4 2.940533 1_555
Ti4_0 Ti4_2 2.940533 1_545
Ti4_0 Ti4_2 2.940533 1_555
Ti4_1 Ti4_5 2.940533 1_455
Ti4_1 Ti4_3 2.940533 1_545
Ti4_1 Ti4_5 2.940533 1_555
Ti4_1 Ti4_3 2.940533 1_555
Ti4_2 Ti4_6 2.940533 1_555
Ti4_2 Ti4_6 2.940533 1_455
Ti4_3 Ti4_7 2.940533 1_555
Ti4_3 Ti4_7 2.940533 1_455
Ti4_4 Ti4_6 2.940533 1_555
Ti4_4 Ti4_6 2.940533 1_545
Ti4_5 Ti4_7 2.940533 1_555
Ti4_5 Ti4_7 2.940533 1_545
Ti5_0 Ti5_2 2.940533 1_555
Ti5_0 Ti5_2 2.940533 1_545
Ti5_0 Ti5_4 2.940533 1_455
Ti5_0 Ti5_4 2.940533 1_555
Ti5_1 Ti5_5 2.940533 1_555
Ti5_1 Ti5_5 2.940533 1_455
Ti5_1 Ti5_3 2.940533 1_545
Ti5_1 Ti5_3 2.940533 1_555
Ti5_2 Ti5_6 2.940533 1_455
Ti5_2 Ti5_6 2.940533 1_555
Ti5_3 Ti5_7 2.940533 1_555
Ti5_3 Ti5_7 2.940533 1_455
Ti5_4 Ti5_6 2.940533 1_555
Ti5_4 Ti5_6 2.940533 1_545
Ti5_5 Ti5_7 2.940533 1_545
Ti5_5 Ti5_7 2.940533 1_555
Ti6_0 Ti6_4 2.940533 1_455
Ti6_0 Ti6_2 2.940533 1_545
Ti6_0 Ti6_4 2.940533 1_555
Ti6_0 Ti6_2 2.940533 1_555
Ti6_1 Ti6_5 2.940533 1_455
Ti6_1 Ti6_3 2.940533 1_545
Ti6_1 Ti6_3 2.940533 1_555
Ti6_1 Ti6_5 2.940533 1_555
Ti6_2 Ti6_6 2.940533 1_555
Ti6_2 Ti6_6 2.940533 1_455
Ti6_3 Ti6_7 2.940533 1_455
Ti6_3 Ti6_7 2.940533 1_555
Ti6_4 Ti6_6 2.940533 1_545
Ti6_4 Ti6_6 2.940533 1_555
Ti6_5 Ti6_7 2.940533 1_555
Ti6_5 Ti6_7 2.940533 1_545
Ti7_0 Ti7_4 2.940533 1_555
Ti7_0 Ti7_4 2.940533 1_455
Ti7_0 Ti7_2 2.940533 1_545
Ti7_0 Ti7_2 2.940533 1_555
Ti7_1 Ti7_5 2.940533 1_455
Ti7_1 Ti7_5 2.940533 1_555
Ti7_1 Ti7_3 2.940533 1_545
Ti7_1 Ti7_3 2.940533 1_555
Ti7_2 Ti7_6 2.940533 1_455
Ti7_2 Ti7_6 2.940533 1_555
Ti7_3 Ti7_7 2.940533 1_555
Ti7_3 Ti7_7 2.940533 1_455
Ti7_4 Ti7_6 2.940533 1_555
Ti7_4 Ti7_6 2.940533 1_545
Ti7_5 Ti7_7 2.940533 1_545
Ti7_5 Ti7_7 2.940533 1_555
Cu0_0 Ti1_4 2.691488 1_555
Cu0_0 Ti1_6 2.691488 1_555
Cu0_0 Ti1_0 2.691488 1_555
Cu0_0 Ti1_2 2.691488 1_555
Cu0_0 Ti4_0 2.691740 1_555
Cu0_0 Ti4_4 2.691740 1_555
Cu0_0 Ti4_2 2.691740 1_555
Cu0_0 Ti4_6 2.691740 1_555
Cu0_0 Cu0_2 2.940533 1_545
Cu0_0 Cu0_4 2.940533 1_555
Cu0_0 Cu0_2 2.940533 1_555
Cu0_0 Cu0_4 2.940533 1_455
Cu0_1 Ti1_3 2.691488 1_555
Cu0_1 Ti1_7 2.691488 1_555
Cu0_1 Ti1_1 2.691488 1_555
Cu0_1 Ti1_5 2.691488 1_555
Cu0_1 Ti4_1 2.691740 1_555
Cu0_1 Ti4_5 2.691740 1_555
Cu0_1 Ti4_3 2.691740 1_555
Cu0_1 Ti4_7 2.691740 1_555
Cu0_1 Cu0_3 2.940533 1_545
Cu0_1 Cu0_5 2.940533 1_455
Cu0_1 Cu0_5 2.940533 1_555
Cu0_1 Cu0_3 2.940533 1_555
Cu0_2 Ti1_4 2.691488 1_565
Cu0_2 Ti1_6 2.691488 1_555
Cu0_2 Ti1_0 2.691488 1_565
Cu0_2 Ti1_2 2.691488 1_555
Cu0_2 Ti4_4 2.691740 1_565
Cu0_2 Ti4_2 2.691740 1_555
Cu0_2 Ti4_6 2.691740 1_555
Cu0_2 Ti4_0 2.691740 1_565
Cu0_2 Cu0_6 2.940533 1_455
Cu0_2 Cu0_6 2.940533 1_555
Cu0_3 Ti1_1 2.691488 1_565
Cu0_3 Ti1_5 2.691488 1_565
Cu0_3 Ti1_3 2.691488 1_555
Cu0_3 Ti1_7 2.691488 1_555
Cu0_3 Ti4_5 2.691740 1_565
Cu0_3 Ti4_3 2.691740 1_555
Cu0_3 Ti4_7 2.691740 1_555
Cu0_3 Ti4_1 2.691740 1_565
Cu0_3 Cu0_7 2.940533 1_555
Cu0_3 Cu0_7 2.940533 1_455
Cu0_4 Ti1_4 2.691488 1_555
Cu0_4 Ti1_0 2.691488 1_655
Cu0_4 Ti1_6 2.691488 1_555
Cu0_4 Ti1_2 2.691488 1_655
Cu0_4 Ti4_4 2.691740 1_555
Cu0_4 Ti4_0 2.691740 1_655
Cu0_4 Ti4_6 2.691740 1_555
Cu0_4 Ti4_2 2.691740 1_655
Cu0_4 Cu0_6 2.940533 1_545
Cu0_4 Cu0_6 2.940533 1_555
Cu0_5 Ti1_7 2.691488 1_555
Cu0_5 Ti1_5 2.691488 1_555
Cu0_5 Ti1_3 2.691488 1_655
Cu0_5 Ti1_1 2.691488 1_655
Cu0_5 Ti4_3 2.691740 1_655
Cu0_5 Ti4_5 2.691740 1_555
Cu0_5 Ti4_1 2.691740 1_655
Cu0_5 Ti4_7 2.691740 1_555
Cu0_5 Cu0_7 2.940533 1_555
Cu0_5 Cu0_7 2.940533 1_545
Cu0_6 Ti1_4 2.691488 1_565
Cu0_6 Ti1_0 2.691488 1_665
Cu0_6 Ti1_6 2.691488 1_555
Cu0_6 Ti1_2 2.691488 1_655
Cu0_6 Ti4_0 2.691740 1_665
Cu0_6 Ti4_4 2.691740 1_565
Cu0_6 Ti4_2 2.691740 1_655
Cu0_6 Ti4_6 2.691740 1_555
Cu0_7 Ti1_5 2.691488 1_565
Cu0_7 Ti1_1 2.691488 1_665
Cu0_7 Ti1_7 2.691488 1_555
Cu0_7 Ti1_3 2.691488 1_655
Cu0_7 Ti4_3 2.691740 1_655
Cu0_7 Ti4_5 2.691740 1_565
Cu0_7 Ti4_1 2.691740 1_665
Cu0_7 Ti4_7 2.691740 1_555
Cu1_0 Ti5_0 2.686469 1_555
Cu1_0 Ti5_2 2.686469 1_545
Cu1_0 Ti5_6 2.686469 1_445
Cu1_0 Ti5_4 2.686469 1_455
Cu1_0 Ti2_0 2.686469 1_555
Cu1_0 Ti2_4 2.686469 1_455
Cu1_0 Ti2_2 2.686469 1_545
Cu1_0 Ti2_6 2.686469 1_445
Cu1_0 Cu1_2 2.940533 1_555
Cu1_0 Cu1_2 2.940533 1_545
Cu1_0 Cu1_4 2.940533 1_555
Cu1_0 Cu1_4 2.940533 1_455
Cu1_1 Ti5_5 2.686469 1_455
Cu1_1 Ti5_3 2.686469 1_545
Cu1_1 Ti5_7 2.686469 1_445
Cu1_1 Ti5_1 2.686469 1_555
Cu1_1 Ti2_3 2.686469 1_545
Cu1_1 Ti2_7 2.686469 1_445
Cu1_1 Ti2_1 2.686469 1_555
Cu1_1 Ti2_5 2.686469 1_455
Cu1_1 Cu1_5 2.940533 1_455
Cu1_1 Cu1_5 2.940533 1_555
Cu1_1 Cu1_3 2.940533 1_555
Cu1_1 Cu1_3 2.940533 1_545
Cu1_2 Ti5_0 2.686469 1_555
Cu1_2 Ti5_4 2.686469 1_455
Cu1_2 Ti5_2 2.686469 1_555
Cu1_2 Ti5_6 2.686469 1_455
Cu1_2 Ti2_0 2.686469 1_555
Cu1_2 Ti2_4 2.686469 1_455
Cu1_2 Ti2_2 2.686469 1_555
Cu1_2 Ti2_6 2.686469 1_455
Cu1_2 Cu1_6 2.940533 1_455
Cu1_2 Cu1_6 2.940533 1_555
Cu1_3 Ti5_5 2.686469 1_455
Cu1_3 Ti5_3 2.686469 1_555
Cu1_3 Ti5_7 2.686469 1_455
Cu1_3 Ti5_1 2.686469 1_555
Cu1_3 Ti2_1 2.686469 1_555
Cu1_3 Ti2_5 2.686469 1_455
Cu1_3 Ti2_3 2.686469 1_555
Cu1_3 Ti2_7 2.686469 1_455
Cu1_3 Cu1_7 2.940533 1_455
Cu1_3 Cu1_7 2.940533 1_555
Cu1_4 Ti5_0 2.686469 1_555
Cu1_4 Ti5_2 2.686469 1_545
Cu1_4 Ti5_6 2.686469 1_545
Cu1_4 Ti5_4 2.686469 1_555
Cu1_4 Ti2_0 2.686469 1_555
Cu1_4 Ti2_4 2.686469 1_555
Cu1_4 Ti2_2 2.686469 1_545
Cu1_4 Ti2_6 2.686469 1_545
Cu1_4 Cu1_6 2.940533 1_555
Cu1_4 Cu1_6 2.940533 1_545
Cu1_5 Ti5_3 2.686469 1_545
Cu1_5 Ti5_1 2.686469 1_555
Cu1_5 Ti5_7 2.686469 1_545
Cu1_5 Ti5_5 2.686469 1_555
Cu1_5 Ti2_3 2.686469 1_545
Cu1_5 Ti2_7 2.686469 1_545
Cu1_5 Ti2_1 2.686469 1_555
Cu1_5 Ti2_5 2.686469 1_555
Cu1_5 Cu1_7 2.940533 1_545
Cu1_5 Cu1_7 2.940533 1_555
Cu1_6 Ti5_0 2.686469 1_555
Cu1_6 Ti5_4 2.686469 1_555
Cu1_6 Ti5_2 2.686469 1_555
Cu1_6 Ti5_6 2.686469 1_555
Cu1_6 Ti2_0 2.686469 1_555
Cu1_6 Ti2_4 2.686469 1_555
Cu1_6 Ti2_2 2.686469 1_555
Cu1_6 Ti2_6 2.686469 1_555
Cu1_7 Ti5_3 2.686469 1_555
Cu1_7 Ti5_7 2.686469 1_555
Cu1_7 Ti5_1 2.686469 1_555
Cu1_7 Ti5_5 2.686469 1_555
Cu1_7 Ti2_7 2.686469 1_555
Cu1_7 Ti2_1 2.686469 1_555
Cu1_7 Ti2_5 2.686469 1_555
Cu1_7 Ti2_3 2.686469 1_555
Cu2_0 Ti6_0 2.691488 1_555
Cu2_0 Ti6_6 2.691488 1_555
Cu2_0 Ti6_4 2.691488 1_555
Cu2_0 Ti6_2 2.691488 1_555
Cu2_0 Ti3_2 2.691740 1_555
Cu2_0 Ti3_6 2.691740 1_555
Cu2_0 Ti3_0 2.691740 1_555
Cu2_0 Ti3_4 2.691740 1_555
Cu2_0 Cu2_4 2.940533 1_455
Cu2_0 Cu2_4 2.940533 1_555
Cu2_0 Cu2_2 2.940533 1_555
Cu2_0 Cu2_2 2.940533 1_545
Cu2_1 Ti6_5 2.691488 1_555
Cu2_1 Ti6_3 2.691488 1_555
Cu2_1 Ti6_7 2.691488 1_555
Cu2_1 Ti6_1 2.691488 1_555
Cu2_1 Ti3_3 2.691740 1_555
Cu2_1 Ti3_7 2.691740 1_555
Cu2_1 Ti3_1 2.691740 1_555
Cu2_1 Ti3_5 2.691740 1_555
Cu2_1 Cu2_5 2.940533 1_455
Cu2_1 Cu2_3 2.940533 1_545
Cu2_1 Cu2_5 2.940533 1_555
Cu2_1 Cu2_3 2.940533 1_555
Cu2_2 Ti6_0 2.691488 1_565
Cu2_2 Ti6_4 2.691488 1_565
Cu2_2 Ti6_6 2.691488 1_555
Cu2_2 Ti6_2 2.691488 1_555
Cu2_2 Ti3_2 2.691740 1_555
Cu2_2 Ti3_6 2.691740 1_555
Cu2_2 Ti3_0 2.691740 1_565
Cu2_2 Ti3_4 2.691740 1_565
Cu2_2 Cu2_6 2.940533 1_555
Cu2_2 Cu2_6 2.940533 1_455
Cu2_3 Ti6_5 2.691488 1_565
Cu2_3 Ti6_1 2.691488 1_565
Cu2_3 Ti6_3 2.691488 1_555
Cu2_3 Ti6_7 2.691488 1_555
Cu2_3 Ti3_1 2.691740 1_565
Cu2_3 Ti3_3 2.691740 1_555
Cu2_3 Ti3_7 2.691740 1_555
Cu2_3 Ti3_5 2.691740 1_565
Cu2_3 Cu2_7 2.940533 1_555
Cu2_3 Cu2_7 2.940533 1_455
Cu2_4 Ti6_6 2.691488 1_555
Cu2_4 Ti6_2 2.691488 1_655
Cu2_4 Ti6_4 2.691488 1_555
Cu2_4 Ti6_0 2.691488 1_655
Cu2_4 Ti3_6 2.691740 1_555
Cu2_4 Ti3_0 2.691740 1_655
Cu2_4 Ti3_4 2.691740 1_555
Cu2_4 Ti3_2 2.691740 1_655
Cu2_4 Cu2_6 2.940533 1_545
Cu2_4 Cu2_6 2.940533 1_555
Cu2_5 Ti6_5 2.691488 1_555
Cu2_5 Ti6_1 2.691488 1_655
Cu2_5 Ti6_7 2.691488 1_555
Cu2_5 Ti6_3 2.691488 1_655
Cu2_5 Ti3_1 2.691740 1_655
Cu2_5 Ti3_7 2.691740 1_555
Cu2_5 Ti3_3 2.691740 1_655
Cu2_5 Ti3_5 2.691740 1_555
Cu2_5 Cu2_7 2.940533 1_555
Cu2_5 Cu2_7 2.940533 1_545
Cu2_6 Ti6_4 2.691488 1_565
Cu2_6 Ti6_6 2.691488 1_555
Cu2_6 Ti6_2 2.691488 1_655
Cu2_6 Ti6_0 2.691488 1_665
Cu2_6 Ti3_0 2.691740 1_665
Cu2_6 Ti3_6 2.691740 1_555
Cu2_6 Ti3_4 2.691740 1_565
Cu2_6 Ti3_2 2.691740 1_655
Cu2_7 Ti6_5 2.691488 1_565
Cu2_7 Ti6_1 2.691488 1_665
Cu2_7 Ti6_7 2.691488 1_555
Cu2_7 Ti6_3 2.691488 1_655
Cu2_7 Ti3_1 2.691740 1_665
Cu2_7 Ti3_7 2.691740 1_555
Cu2_7 Ti3_3 2.691740 1_655
Cu2_7 Ti3_5 2.691740 1_565
Ni0_0 Ti7_1 2.600254 1_554
Ni0_0 Ti7_5 2.600254 1_454
Ni0_0 Ti7_7 2.600254 1_444
Ni0_0 Ti7_3 2.600254 1_544
Ni0_0 Ti0_2 2.600254 1_545
Ni0_0 Ti0_4 2.600254 1_455
Ni0_0 Ti0_6 2.600254 1_445
Ni0_0 Ti0_0 2.600254 1_555
Ni0_1 Ti7_2 2.600254 1_545
Ni0_1 Ti7_6 2.600254 1_445
Ni0_1 Ti7_0 2.600254 1_555
Ni0_1 Ti7_4 2.600254 1_455
Ni0_1 Ti0_1 2.600254 1_555
Ni0_1 Ti0_5 2.600254 1_455
Ni0_1 Ti0_7 2.600254 1_445
Ni0_1 Ti0_3 2.600254 1_545
Ni0_2 Ti7_1 2.600254 1_554
Ni0_2 Ti7_5 2.600254 1_454
Ni0_2 Ti7_3 2.600254 1_554
Ni0_2 Ti7_7 2.600254 1_454
Ni0_2 Ti0_2 2.600254 1_555
Ni0_2 Ti0_6 2.600254 1_455
Ni0_2 Ti0_4 2.600254 1_455
Ni0_2 Ti0_0 2.600254 1_555
Ni0_3 Ti7_4 2.600254 1_455
Ni0_3 Ti7_2 2.600254 1_555
Ni0_3 Ti7_6 2.600254 1_455
Ni0_3 Ti7_0 2.600254 1_555
Ni0_3 Ti0_3 2.600254 1_555
Ni0_3 Ti0_1 2.600254 1_555
Ni0_3 Ti0_5 2.600254 1_455
Ni0_3 Ti0_7 2.600254 1_455
Ni0_4 Ti7_1 2.600254 1_554
Ni0_4 Ti7_5 2.600254 1_554
Ni0_4 Ti7_7 2.600254 1_544
Ni0_4 Ti7_3 2.600254 1_544
Ni0_4 Ti0_2 2.600254 1_545
Ni0_4 Ti0_0 2.600254 1_555
Ni0_4 Ti0_4 2.600254 1_555
Ni0_4 Ti0_6 2.600254 1_545
Ni0_5 Ti7_2 2.600254 1_545
Ni0_5 Ti7_6 2.600254 1_545
Ni0_5 Ti7_0 2.600254 1_555
Ni0_5 Ti7_4 2.600254 1_555
Ni0_5 Ti0_1 2.600254 1_555
Ni0_5 Ti0_7 2.600254 1_545
Ni0_5 Ti0_5 2.600254 1_555
Ni0_5 Ti0_3 2.600254 1_545
Ni0_6 Ti7_1 2.600254 1_554
Ni0_6 Ti7_5 2.600254 1_554
Ni0_6 Ti7_7 2.600254 1_554
Ni0_6 Ti7_3 2.600254 1_554
Ni0_6 Ti0_2 2.600254 1_555
Ni0_6 Ti0_6 2.600254 1_555
Ni0_6 Ti0_0 2.600254 1_555
Ni0_6 Ti0_4 2.600254 1_555
Ni0_7 Ti7_2 2.600254 1_555
Ni0_7 Ti7_6 2.600254 1_555
Ni0_7 Ti7_0 2.600254 1_555
Ni0_7 Ti7_4 2.600254 1_555
Ni0_7 Ti0_3 2.600254 1_555
Ni0_7 Ti0_7 2.600254 1_555
Ni0_7 Ti0_1 2.600254 1_555
Ni0_7 Ti0_5 2.600254 1_555
