# generated using pymatgen
data_Fe2PClO4
_symmetry_space_group_name_H-M   'P 1'
_cell_length_a   8.24928630
_cell_length_b   8.35818923
_cell_length_c   8.49175126
_cell_angle_alpha   111.70442491
_cell_angle_beta   111.91557517
_cell_angle_gamma   104.07657894
_symmetry_Int_Tables_number   1
_chemical_formula_structural   Fe2PClO4
_chemical_formula_sum   'Fe8 P4 Cl4 O16'
_cell_volume   452.62769863
_cell_formula_units_Z   4
loop_
 _symmetry_equiv_pos_site_id
 _symmetry_equiv_pos_as_xyz
  1  'x, y, z'
loop_
 _atom_site_type_symbol
 _atom_site_label
 _atom_site_symmetry_multiplicity
 _atom_site_fract_x
 _atom_site_fract_y
 _atom_site_fract_z
 _atom_site_occupancy
  Fe  Fe0  1  0.27415300  0.74888700  0.02476000  1
  Fe  Fe1  1  0.72369300  0.25220300  0.97266300  1
  Fe  Fe2  1  0.99969000  0.49905100  0.49871300  1
  Fe  Fe3  1  0.99951800  0.00089900  0.00038400  1
  Fe  Fe4  1  0.55406600  0.31936000  0.24990600  1
  Fe  Fe5  1  0.93139700  0.17652700  0.72998800  1
  Fe  Fe6  1  0.07036400  0.82384500  0.27120300  1
  Fe  Fe7  1  0.44549800  0.68033600  0.75068000  1
  P  P0  1  0.78041600  0.51470200  0.75484500  1
  P  P1  1  0.75622500  0.01438200  0.23856600  1
  P  P2  1  0.21998400  0.48548800  0.24479000  1
  P  P3  1  0.24375500  0.98533800  0.76202000  1
  Cl  Cl0  1  0.33509400  0.07345500  0.26928100  1
  Cl  Cl1  1  0.80159400  0.57319600  0.23689400  1
  Cl  Cl2  1  0.19777200  0.42708000  0.76339300  1
  Cl  Cl3  1  0.66430600  0.92670000  0.73033200  1
  O  O0  1  0.21177300  0.96832700  0.56871700  1
  O  O1  1  0.60080600  0.53576700  0.74691000  1
  O  O2  1  0.39963800  0.46431400  0.25273600  1
  O  O3  1  0.78891600  0.03286100  0.43257200  1
  O  O4  1  0.21895800  0.52398900  0.43876600  1
  O  O5  1  0.08563600  0.02727200  0.80777100  1
  O  O6  1  0.78135200  0.47446600  0.56065700  1
  O  O7  1  0.91427400  0.97198600  0.19280700  1
  O  O8  1  0.77001600  0.20709700  0.23860000  1
  O  O9  1  0.02806100  0.29477800  0.07103100  1
  O  O10  1  0.22942900  0.79179700  0.76026200  1
  O  O11  1  0.97239900  0.70566800  0.92796900  1
  O  O12  1  0.55220000  0.84690800  0.06527700  1
  O  O13  1  0.78878400  0.34504900  0.78987600  1
  O  O14  1  0.21253300  0.65605200  0.21160500  1
  O  O15  1  0.44770000  0.15222200  0.93602800  1
loop_
_geom_bond_atom_site_label_1
_geom_bond_atom_site_label_2
_geom_bond_distance
_geom_bond_site_symmetry_2
Fe0 O12 2.083007 1_555
Fe0 O14 2.167642 1_555
Fe0 O11 2.195028 1_454
Fe0 O10 2.313243 1_554
Fe1 O15 2.081390 1_555
Fe1 O13 2.147133 1_555
Fe1 O9 2.215515 1_656
Fe1 O8 2.333142 1_556
Fe2 O4 2.038819 1_655
Fe2 O6 2.042091 1_555
Fe2 O8 2.250249 1_555
Fe2 O10 2.257047 1_655
Fe3 O5 2.070365 1_654
Fe3 O7 2.071234 1_545
Fe3 O9 2.229808 1_655
Fe3 O11 2.241355 1_544
Fe4 O2 1.960461 1_555
Fe4 O15 2.174762 1_554
Fe4 O6 2.180248 1_555
Fe4 O8 2.222004 1_555
Fe5 O3 2.014051 1_555
Fe5 O13 2.085550 1_555
Fe5 O5 2.089415 1_655
Fe5 O9 2.403225 1_656
Fe6 O0 2.014964 1_555
Fe6 O14 2.077644 1_555
Fe6 O7 2.092755 1_455
Fe6 O11 2.418264 1_454
Fe7 O1 1.964072 1_555
Fe7 O12 2.178877 1_556
Fe7 O4 2.184644 1_555
Fe7 O10 2.216181 1_555
Cl0 Fe4 2.486031 1_555
Cl0 Fe0 2.512886 1_545
Cl0 Fe3 2.585655 1_455
Cl0 Fe6 2.637712 1_545
Cl1 Fe6 2.489279 1_655
Cl1 Fe1 2.505598 1_554
Cl1 Fe2 2.607136 1_555
Cl1 Fe4 2.630094 1_555
Cl2 Fe5 2.480213 1_455
Cl2 Fe0 2.504772 1_556
Cl2 Fe2 2.611555 1_455
Cl2 Fe7 2.626402 1_555
Cl3 Fe7 2.493198 1_555
Cl3 Fe1 2.516862 1_565
Cl3 Fe3 2.582697 1_566
Cl3 Fe5 2.643123 1_565
O0 P3 1.506696 1_555
O1 P0 1.513930 1_555
O2 P2 1.514601 1_555
O3 P1 1.506840 1_555
O4 P2 1.560947 1_555
O5 P3 1.573249 1_545
O6 P0 1.559789 1_555
O7 P1 1.574009 1_565
O8 P1 1.586804 1_555
O9 P2 1.585414 1_555
O10 P3 1.587078 1_555
O11 P0 1.585520 1_555
O12 P1 1.561783 1_565
O13 P0 1.564683 1_555
O14 P2 1.562810 1_555
O15 P3 1.561339 1_545
