# generated using pymatgen
data_Sr2Ca2Fe(CoO4)3
_symmetry_space_group_name_H-M   'P 1'
_cell_length_a   7.82143400
_cell_length_b   7.59093500
_cell_length_c   7.68009502
_cell_angle_alpha   89.99622509
_cell_angle_beta   90.00000000
_cell_angle_gamma   90.00000000
_symmetry_Int_Tables_number   1
_chemical_formula_structural   Sr2Ca2Fe(CoO4)3
_chemical_formula_sum   'Sr4 Ca4 Fe2 Co6 O24'
_cell_volume   455.98257807
_cell_formula_units_Z   2
loop_
 _symmetry_equiv_pos_site_id
 _symmetry_equiv_pos_as_xyz
  1  'x, y, z'
loop_
 _atom_site_type_symbol
 _atom_site_label
 _atom_site_symmetry_multiplicity
 _atom_site_fract_x
 _atom_site_fract_y
 _atom_site_fract_z
 _atom_site_occupancy
  Sr  Sr0  1  0.50000000  0.25100300  0.25345000  1
  Sr  Sr1  1  0.00000000  0.25035800  0.25371900  1
  Sr  Sr2  1  0.00000000  0.25046800  0.74668200  1
  Sr  Sr3  1  0.50000000  0.74856200  0.74664500  1
  Ca  Ca0  1  0.50000000  0.75521700  0.25954000  1
  Ca  Ca1  1  0.00000000  0.75346700  0.25945200  1
  Ca  Ca2  1  0.50000000  0.24589500  0.74042700  1
  Ca  Ca3  1  0.00000000  0.75353200  0.73921600  1
  Fe  Fe0  1  0.24980400  0.99781300  0.99992600  1
  Fe  Fe1  1  0.75019600  0.99781300  0.99992600  1
  Co  Co0  1  0.24997600  0.50051200  0.99996100  1
  Co  Co1  1  0.75002400  0.50051200  0.99996100  1
  Co  Co2  1  0.25011400  0.99876800  0.50015400  1
  Co  Co3  1  0.74988600  0.99876800  0.50015400  1
  Co  Co4  1  0.24986600  0.50169900  0.49989100  1
  Co  Co5  1  0.75013400  0.50169900  0.49989100  1
  O  O0  1  0.24989900  0.99338200  0.24733200  1
  O  O1  1  0.75010100  0.99338200  0.24733200  1
  O  O2  1  0.24975900  0.50397900  0.26527200  1
  O  O3  1  0.75024100  0.50397900  0.26527200  1
  O  O4  1  0.24968000  0.99820400  0.75272200  1
  O  O5  1  0.75032000  0.99820400  0.75272200  1
  O  O6  1  0.24938700  0.50040900  0.73481600  1
  O  O7  1  0.75061300  0.50040900  0.73481600  1
  O  O8  1  0.25119600  0.26294800  0.99836000  1
  O  O9  1  0.74880400  0.26294800  0.99836000  1
  O  O10  1  0.24918900  0.73699100  0.00121000  1
  O  O11  1  0.75081100  0.73699100  0.00121000  1
  O  O12  1  0.24875600  0.23717000  0.50146100  1
  O  O13  1  0.75124400  0.23717000  0.50146100  1
  O  O14  1  0.25273900  0.76188800  0.49870700  1
  O  O15  1  0.74726100  0.76188800  0.49870700  1
  O  O16  1  0.50000000  0.99746300  0.00060500  1
  O  O17  1  0.00000000  0.99439300  0.00030300  1
  O  O18  1  0.50000000  0.50188200  0.00046200  1
  O  O19  1  0.00000000  0.50353800  0.00013000  1
  O  O20  1  0.50000000  0.00040500  0.49923400  1
  O  O21  1  0.00000000  0.98887900  0.49971900  1
  O  O22  1  0.50000000  0.49662100  0.50087700  1
  O  O23  1  0.00000000  0.52079100  0.49991500  1
loop_
_geom_bond_atom_site_label_1
_geom_bond_atom_site_label_2
_geom_bond_distance
_geom_bond_site_symmetry_2
Ca0 O20 2.617891 1_565
Ca0 O1 2.665290 1_555
Ca0 O0 2.665290 1_555
Ca0 O15 2.667698 1_555
Ca0 O14 2.667698 1_555
Ca0 O22 2.699678 1_555
Ca0 O16 2.708447 1_555
Ca0 O3 2.733108 1_555
Ca0 O2 2.733108 1_555
Ca0 O18 2.767256 1_555
Ca0 O10 2.793511 1_555
Ca0 O11 2.793511 1_555
Ca1 O23 2.555333 1_555
Ca1 O21 2.568818 1_555
Ca1 O0 2.673139 1_555
Ca1 O1 2.673139 1_455
Ca1 O14 2.699662 1_555
Ca1 O15 2.699662 1_455
Ca1 O17 2.702864 1_555
Ca1 O2 2.721158 1_555
Ca1 O3 2.721158 1_455
Ca1 O19 2.750707 1_555
Ca1 O10 2.783506 1_555
Ca1 O11 2.783506 1_455
Ca2 O20 2.627625 1_555
Ca2 O22 2.647002 1_555
Ca2 O13 2.689653 1_555
Ca2 O12 2.689653 1_555
Ca2 O4 2.716117 1_545
Ca2 O5 2.716117 1_545
Ca2 O16 2.747478 1_546
Ca2 O6 2.752575 1_555
Ca2 O7 2.752575 1_555
Ca2 O9 2.779907 1_555
Ca2 O8 2.779907 1_555
Ca2 O18 2.786547 1_556
Ca3 O23 2.549400 1_555
Ca3 O21 2.564061 1_555
Ca3 O5 2.697027 1_455
Ca3 O4 2.697027 1_555
Ca3 O14 2.706209 1_555
Ca3 O15 2.706209 1_455
Ca3 O17 2.713688 1_556
Ca3 O6 2.738208 1_555
Ca3 O7 2.738208 1_455
Ca3 O19 2.759730 1_556
Ca3 O10 2.804121 1_556
Ca3 O11 2.804121 1_456
Fe0 O4 1.898553 1_555
Fe0 O0 1.900397 1_556
Fe0 O17 1.954000 1_556
Fe0 O16 1.956900 1_556
Fe0 O10 1.979913 1_556
Fe0 O8 2.012687 1_565
Fe1 O5 1.898553 1_555
Fe1 O1 1.900397 1_556
Fe1 O17 1.954000 1_656
Fe1 O16 1.956900 1_556
Fe1 O11 1.979913 1_556
Fe1 O9 2.012687 1_565
Co0 O10 1.795134 1_556
Co0 O8 1.803401 1_555
Co0 O19 1.955306 1_556
Co0 O18 1.955578 1_556
Co0 O6 2.036344 1_555
Co0 O2 2.037786 1_556
Co1 O11 1.795134 1_556
Co1 O9 1.803401 1_555
Co1 O19 1.955306 1_656
Co1 O18 1.955578 1_556
Co1 O7 2.036344 1_555
Co1 O3 2.037786 1_556
Co2 O14 1.798293 1_555
Co2 O12 1.809754 1_565
Co2 O4 1.939754 1_555
Co2 O0 1.942131 1_555
Co2 O20 1.954519 1_565
Co2 O21 1.957693 1_555
Co3 O15 1.798293 1_555
Co3 O13 1.809754 1_565
Co3 O5 1.939754 1_555
Co3 O1 1.942131 1_555
Co3 O20 1.954519 1_565
Co3 O21 1.957693 1_655
Co4 O2 1.801978 1_555
Co4 O6 1.804276 1_555
Co4 O22 1.956801 1_555
Co4 O23 1.959677 1_555
Co4 O14 1.975226 1_555
Co4 O12 2.008077 1_555
Co5 O3 1.801978 1_555
Co5 O7 1.804276 1_555
Co5 O22 1.956801 1_555
Co5 O23 1.959677 1_655
Co5 O15 1.975226 1_555
Co5 O13 2.008077 1_555
O0 Sr1 2.761873 1_565
O0 Sr0 2.766414 1_565
O1 Sr1 2.761873 1_665
O1 Sr0 2.766414 1_565
O2 Sr0 2.743486 1_555
O2 Sr1 2.744163 1_555
O3 Sr0 2.743486 1_555
O3 Sr1 2.744163 1_655
O4 Sr3 2.725160 1_555
O4 Sr2 2.735453 1_565
O5 Sr3 2.725160 1_555
O5 Sr2 2.735453 1_665
O6 Sr3 2.720083 1_555
O6 Sr2 2.722623 1_555
O7 Sr3 2.720083 1_555
O7 Sr2 2.722623 1_655
O8 Sr2 2.757760 1_555
O8 Sr0 2.762836 1_556
O8 Sr1 2.777668 1_556
O9 Sr2 2.757760 1_655
O9 Sr0 2.762836 1_556
O9 Sr1 2.777668 1_656
O10 Sr3 2.770978 1_554
O11 Sr3 2.770978 1_554
O12 Sr2 2.709720 1_555
O12 Sr1 2.723172 1_555
O12 Sr0 2.738729 1_555
O13 Sr2 2.709720 1_655
O13 Sr1 2.723172 1_655
O13 Sr0 2.738729 1_555
O14 Sr3 2.715924 1_555
O15 Sr3 2.715924 1_555
O16 Sr3 2.715601 1_554
O16 Sr0 2.734131 1_565
O17 Sr1 2.750223 1_565
O17 Sr2 2.751746 1_564
O18 Sr3 2.702927 1_554
O18 Sr0 2.720554 1_555
O19 Sr2 2.734915 1_554
O19 Sr1 2.736092 1_555
O20 Sr0 2.679808 1_555
O20 Sr3 2.695318 1_545
O21 Sr1 2.740198 1_565
O21 Sr2 2.746086 1_565
O22 Sr0 2.662276 1_555
O22 Sr3 2.687145 1_555
O23 Sr1 2.791025 1_555
O23 Sr2 2.793201 1_555
