# generated using pymatgen
data_Li3Fe2P4HO14
_symmetry_space_group_name_H-M   'P 1'
_cell_length_a   5.21052387
_cell_length_b   8.53420721
_cell_length_c   12.94032958
_cell_angle_alpha   81.86853897
_cell_angle_beta   78.79780497
_cell_angle_gamma   88.33968697
_symmetry_Int_Tables_number   1
_chemical_formula_structural   Li3Fe2P4HO14
_chemical_formula_sum   'Li6 Fe4 P8 H2 O28'
_cell_volume   558.78767890
_cell_formula_units_Z   2
loop_
 _symmetry_equiv_pos_site_id
 _symmetry_equiv_pos_as_xyz
  1  'x, y, z'
loop_
 _atom_site_type_symbol
 _atom_site_label
 _atom_site_symmetry_multiplicity
 _atom_site_fract_x
 _atom_site_fract_y
 _atom_site_fract_z
 _atom_site_occupancy
  Li  Li0  1  0.50017200  0.00005000  0.49989100  1
  Li  Li1  1  0.00045100  0.49994900  0.49986800  1
  Li  Li2  1  0.69486000  0.44849600  0.05862400  1
  Li  Li3  1  0.19482100  0.94856200  0.05867400  1
  Li  Li4  1  0.80512100  0.05145500  0.94135000  1
  Li  Li5  1  0.30513100  0.55155800  0.94135400  1
  Fe  Fe0  1  0.37433700  0.91838600  0.76857400  1
  Fe  Fe1  1  0.62577400  0.08153100  0.23126500  1
  Fe  Fe2  1  0.87482100  0.41824400  0.76845200  1
  Fe  Fe3  1  0.12505200  0.58175300  0.23160500  1
  P  P0  1  0.43322100  0.33338700  0.63165200  1
  P  P1  1  0.93282100  0.83349200  0.63175500  1
  P  P2  1  0.06720300  0.16647500  0.36819000  1
  P  P3  1  0.56673600  0.66658000  0.36844700  1
  P  P4  1  0.34907300  0.22821400  0.85749100  1
  P  P5  1  0.84891900  0.72816600  0.85751400  1
  P  P6  1  0.15106500  0.27190700  0.14244300  1
  P  P7  1  0.65083000  0.77176400  0.14257600  1
  H  H0  1  0.75050400  0.24984600  0.49992800  1
  H  H1  1  0.24955300  0.75014700  0.50014700  1
  O  O0  1  0.16437800  0.40959700  0.63361500  1
  O  O1  1  0.66392200  0.90953200  0.63368300  1
  O  O2  1  0.33613800  0.09044700  0.36620200  1
  O  O3  1  0.83555500  0.59030700  0.36638200  1
  O  O4  1  0.18548400  0.37956800  0.86451000  1
  O  O5  1  0.68529600  0.87949900  0.86455800  1
  O  O6  1  0.31468700  0.12057500  0.13539100  1
  O  O7  1  0.81447000  0.62044800  0.13551200  1
  O  O8  1  0.20930200  0.07538000  0.91481200  1
  O  O9  1  0.70929000  0.57531600  0.91483000  1
  O  O10  1  0.29074000  0.42477800  0.08517700  1
  O  O11  1  0.79051700  0.92466100  0.08529700  1
  O  O12  1  0.39027200  0.19020500  0.73462500  1
  O  O13  1  0.89009200  0.69020100  0.73463000  1
  O  O14  1  0.10983600  0.30981700  0.26534300  1
  O  O15  1  0.60955800  0.80970300  0.26544400  1
  O  O16  1  0.51991600  0.24308100  0.53634900  1
  O  O17  1  0.01970100  0.74330500  0.53636600  1
  O  O18  1  0.98045700  0.25659200  0.46361400  1
  O  O19  1  0.48028900  0.75696300  0.46371800  1
  O  O20  1  0.87282800  0.25299500  0.12140200  1
  O  O21  1  0.37257700  0.75289700  0.12151900  1
  O  O22  1  0.62732800  0.24708800  0.87852800  1
  O  O23  1  0.12718900  0.74710200  0.87852800  1
  O  O24  1  0.64250900  0.44116400  0.64983500  1
  O  O25  1  0.14199900  0.94133200  0.64995100  1
  O  O26  1  0.85800300  0.05865400  0.34998700  1
  O  O27  1  0.35720100  0.55883400  0.35039500  1
loop_
_geom_bond_atom_site_label_1
_geom_bond_atom_site_label_2
_geom_bond_distance
_geom_bond_site_symmetry_2
Li0 O2 2.115953 1_555
Li0 O1 2.116507 1_545
Li0 O19 2.199915 1_545
Li0 O16 2.200678 1_555
Li0 O26 2.421492 1_555
Li0 O25 2.423966 1_545
Li1 O3 2.116141 1_455
Li1 O0 2.116188 1_555
Li1 O18 2.202600 1_455
Li1 O17 2.203269 1_555
Li1 O27 2.414807 1_555
Li1 O24 2.422537 1_455
Li2 O9 2.005006 1_554
Li2 O20 2.030558 1_555
Li2 O7 2.058835 1_555
Li2 O10 2.077695 1_555
Li3 O8 2.005709 1_564
Li3 O21 2.031370 1_555
Li3 O6 2.058382 1_565
Li3 O11 2.078759 1_455
Li4 O11 2.006472 1_546
Li4 O22 2.031152 1_555
Li4 O5 2.058531 1_545
Li4 O8 2.078200 1_655
Li5 O10 2.005209 1_556
Li5 O23 2.030996 1_555
Li5 O4 2.058806 1_555
Li5 O9 2.077947 1_555
Fe0 O1 2.082474 1_555
Fe0 O25 2.117417 1_555
Fe0 O23 2.151370 1_555
Fe0 O5 2.216363 1_555
Fe0 O12 2.299972 1_565
Fe0 O8 2.476660 1_565
Fe1 O2 2.083112 1_555
Fe1 O26 2.118084 1_555
Fe1 O20 2.151529 1_555
Fe1 O6 2.216018 1_555
Fe1 O15 2.300214 1_545
Fe1 O11 2.473004 1_545
Fe2 O0 2.081665 1_655
Fe2 O24 2.117262 1_555
Fe2 O22 2.152301 1_555
Fe2 O4 2.215639 1_655
Fe2 O13 2.300966 1_555
Fe2 O9 2.478960 1_555
Fe3 O3 2.080839 1_455
Fe3 O27 2.118503 1_555
Fe3 O21 2.152380 1_555
Fe3 O7 2.215604 1_455
Fe3 O14 2.300738 1_555
Fe3 O10 2.479082 1_555
H0 O18 1.198890 1_555
H0 O16 1.202217 1_555
H1 O17 1.198187 1_555
H1 O19 1.202960 1_555
O0 P0 1.524462 1_555
O1 P1 1.524189 1_555
O2 P2 1.524238 1_555
O3 P3 1.524432 1_555
O4 P4 1.530545 1_555
O5 P5 1.530511 1_555
O6 P6 1.530508 1_555
O7 P7 1.530454 1_555
O8 P4 1.534045 1_555
O9 P5 1.533836 1_555
O10 P6 1.533901 1_555
O11 P7 1.534148 1_555
O12 P4 1.639639 1_555
O12 P0 1.660773 1_555
O13 P5 1.639750 1_555
O13 P1 1.660504 1_555
O14 P6 1.639778 1_555
O14 P2 1.660534 1_555
O15 P7 1.639443 1_555
O15 P3 1.660719 1_555
O16 P0 1.533355 1_555
O17 P1 1.533768 1_455
O18 P2 1.533689 1_655
O19 P3 1.533256 1_555
O20 P6 1.543164 1_655
O21 P7 1.543262 1_555
O22 P4 1.543185 1_555
O23 P5 1.543233 1_455
O24 P0 1.519741 1_555
O25 P1 1.519715 1_455
O26 P2 1.519732 1_655
O27 P3 1.519912 1_555
