# generated using pymatgen
data_Cs2Mg2(WO4)3
_symmetry_space_group_name_H-M   'P 1'
_cell_length_a   11.12928112
_cell_length_b   11.12928112
_cell_length_c   11.12928112
_cell_angle_alpha   90.00000000
_cell_angle_beta   90.00000000
_cell_angle_gamma   90.00000000
_symmetry_Int_Tables_number   1
_chemical_formula_structural   Cs2Mg2(WO4)3
_chemical_formula_sum   'Cs8 Mg8 W12 O48'
_cell_volume   1378.48275638
_cell_formula_units_Z   4
loop_
 _symmetry_equiv_pos_site_id
 _symmetry_equiv_pos_as_xyz
  1  'x, y, z'
loop_
 _atom_site_type_symbol
 _atom_site_label
 _atom_site_symmetry_multiplicity
 _atom_site_fract_x
 _atom_site_fract_y
 _atom_site_fract_z
 _atom_site_occupancy
  Cs  Cs0  1  0.54229379  0.95770621  0.04229379  1
  Cs  Cs1  1  0.95770621  0.04229379  0.54229379  1
  Cs  Cs2  1  0.45770621  0.45770621  0.45770621  1
  Cs  Cs3  1  0.04229379  0.54229379  0.95770621  1
  Cs  Cs4  1  0.67797684  0.67797684  0.67797684  1
  Cs  Cs5  1  0.32202316  0.17797684  0.82202316  1
  Cs  Cs6  1  0.17797684  0.82202316  0.32202316  1
  Cs  Cs7  1  0.82202316  0.32202316  0.17797684  1
  Mg  Mg0  1  0.61350053  0.11350053  0.38649947  1
  Mg  Mg1  1  0.11350053  0.38649947  0.61350053  1
  Mg  Mg2  1  0.38649947  0.61350053  0.11350053  1
  Mg  Mg3  1  0.88649947  0.88649947  0.88649947  1
  Mg  Mg4  1  0.83714862  0.66285138  0.33714862  1
  Mg  Mg5  1  0.66285138  0.33714862  0.83714862  1
  Mg  Mg6  1  0.16285138  0.16285138  0.16285138  1
  Mg  Mg7  1  0.33714862  0.83714862  0.66285138  1
  W  W0  1  0.52613166  0.80130804  0.37600473  1
  W  W1  1  0.62399527  0.02613166  0.69869196  1
  W  W2  1  0.30130804  0.12399527  0.47386834  1
  W  W3  1  0.02613166  0.69869196  0.62399527  1
  W  W4  1  0.12399527  0.47386834  0.30130804  1
  W  W5  1  0.80130804  0.37600473  0.52613166  1
  W  W6  1  0.47386834  0.30130804  0.12399527  1
  W  W7  1  0.37600473  0.52613166  0.80130804  1
  W  W8  1  0.69869196  0.62399527  0.02613166  1
  W  W9  1  0.97386834  0.19869196  0.87600473  1
  W  W10  1  0.87600473  0.97386834  0.19869196  1
  W  W11  1  0.19869196  0.87600473  0.97386834  1
  O  O0  1  0.67878782  0.74802761  0.39559756  1
  O  O1  1  0.60440244  0.17878782  0.75197239  1
  O  O2  1  0.24802761  0.10440244  0.32121218  1
  O  O3  1  0.17878782  0.75197239  0.60440244  1
  O  O4  1  0.10440244  0.32121218  0.24802761  1
  O  O5  1  0.74802761  0.39559756  0.67878782  1
  O  O6  1  0.32121218  0.24802761  0.10440244  1
  O  O7  1  0.39559756  0.67878782  0.74802761  1
  O  O8  1  0.75197239  0.60440244  0.17878782  1
  O  O9  1  0.82121218  0.25197239  0.89559756  1
  O  O10  1  0.89559756  0.82121218  0.25197239  1
  O  O11  1  0.25197239  0.89559756  0.82121218  1
  O  O12  1  0.44575669  0.77877989  0.51632355  1
  O  O13  1  0.48367645  0.94575669  0.72122011  1
  O  O14  1  0.27877989  0.98367645  0.55424331  1
  O  O15  1  0.94575669  0.72122011  0.48367645  1
  O  O16  1  0.98367645  0.55424331  0.27877989  1
  O  O17  1  0.77877989  0.51632355  0.44575669  1
  O  O18  1  0.55424331  0.27877989  0.98367645  1
  O  O19  1  0.51632355  0.44575669  0.77877989  1
  O  O20  1  0.72122011  0.48367645  0.94575669  1
  O  O21  1  0.05424331  0.22122011  0.01632355  1
  O  O22  1  0.01632355  0.05424331  0.22122011  1
  O  O23  1  0.22122011  0.01632355  0.05424331  1
  O  O24  1  0.52116947  0.95776089  0.32909749  1
  O  O25  1  0.67090251  0.02116947  0.54223911  1
  O  O26  1  0.45776089  0.17090251  0.47883053  1
  O  O27  1  0.02116947  0.54223911  0.67090251  1
  O  O28  1  0.17090251  0.47883053  0.45776089  1
  O  O29  1  0.95776089  0.32909749  0.52116947  1
  O  O30  1  0.47883053  0.45776089  0.17090251  1
  O  O31  1  0.32909749  0.52116947  0.95776089  1
  O  O32  1  0.54223911  0.67090251  0.02116947  1
  O  O33  1  0.97883053  0.04223911  0.82909749  1
  O  O34  1  0.82909749  0.97883053  0.04223911  1
  O  O35  1  0.04223911  0.82909749  0.97883053  1
  O  O36  1  0.44857647  0.71352316  0.26228417  1
  O  O37  1  0.73771583  0.94857647  0.78647684  1
  O  O38  1  0.21352316  0.23771583  0.55142353  1
  O  O39  1  0.94857647  0.78647684  0.73771583  1
  O  O40  1  0.23771583  0.55142353  0.21352316  1
  O  O41  1  0.71352316  0.26228417  0.44857647  1
  O  O42  1  0.55142353  0.21352316  0.23771583  1
  O  O43  1  0.26228417  0.44857647  0.71352316  1
  O  O44  1  0.78647684  0.73771583  0.94857647  1
  O  O45  1  0.05142353  0.28647684  0.76228417  1
  O  O46  1  0.76228417  0.05142353  0.28647684  1
  O  O47  1  0.28647684  0.76228417  0.05142353  1
loop_
_geom_bond_atom_site_label_1
_geom_bond_atom_site_label_2
_geom_bond_distance
_geom_bond_site_symmetry_2
Cs0 O34 3.200565 1_555
Cs0 O24 3.200565 1_555
Cs0 O32 3.200565 1_555
Cs0 O37 3.584172 1_554
Cs0 O47 3.584172 1_555
Cs0 O42 3.584172 1_565
Cs0 O18 3.634815 1_564
Cs0 O23 3.634815 1_565
Cs0 O13 3.634815 1_554
Cs1 O25 3.200565 1_555
Cs1 O33 3.200565 1_555
Cs1 O29 3.200565 1_555
Cs1 O46 3.584172 1_555
Cs1 O39 3.584172 1_545
Cs1 O38 3.584172 1_655
Cs1 O15 3.634815 1_545
Cs1 O22 3.634815 1_655
Cs1 O14 3.634815 1_645
Cs2 O26 3.200565 1_555
Cs2 O30 3.200565 1_555
Cs2 O28 3.200565 1_555
Cs2 O36 3.584172 1_555
Cs2 O43 3.584172 1_555
Cs2 O41 3.584172 1_555
Cs2 O19 3.634815 1_555
Cs2 O12 3.634815 1_555
Cs2 O17 3.634815 1_555
Cs3 O31 3.200565 1_555
Cs3 O27 3.200565 1_555
Cs3 O35 3.200565 1_555
Cs3 O44 3.584172 1_455
Cs3 O45 3.584172 1_555
Cs3 O40 3.584172 1_556
Cs3 O16 3.634815 1_456
Cs3 O21 3.634815 1_556
Cs3 O20 3.634815 1_455
Cs4 O7 3.237948 1_555
Cs4 O0 3.237948 1_555
Cs4 O5 3.237948 1_555
Cs4 O44 3.312063 1_555
Cs4 O39 3.312063 1_555
Cs4 O37 3.312063 1_555
Cs4 O17 3.342848 1_555
Cs4 O12 3.342848 1_555
Cs4 O19 3.342848 1_555
Cs5 O1 3.237948 1_555
Cs5 O11 3.237948 1_545
Cs5 O6 3.237948 1_556
Cs5 O43 3.312063 1_555
Cs5 O45 3.312063 1_555
Cs5 O38 3.312063 1_555
Cs5 O13 3.342848 1_545
Cs5 O23 3.342848 1_556
Cs5 O18 3.342848 1_555
Cs6 O3 3.237948 1_555
Cs6 O10 3.237948 1_455
Cs6 O2 3.237948 1_565
Cs6 O36 3.312063 1_555
Cs6 O40 3.312063 1_555
Cs6 O47 3.312063 1_555
Cs6 O15 3.342848 1_455
Cs6 O22 3.342848 1_565
Cs6 O14 3.342848 1_555
Cs7 O8 3.237948 1_555
Cs7 O9 3.237948 1_554
Cs7 O4 3.237948 1_655
Cs7 O41 3.312063 1_555
Cs7 O42 3.312063 1_555
Cs7 O46 3.312063 1_555
Cs7 O20 3.342848 1_554
Cs7 O21 3.342848 1_655
Cs7 O16 3.342848 1_555
Mg0 O46 2.111476 1_555
Mg0 O41 2.111476 1_555
Mg0 O42 2.111476 1_555
Mg0 O26 2.113827 1_555
Mg0 O25 2.113827 1_555
Mg0 O24 2.113827 1_545
Mg1 O45 2.111476 1_555
Mg1 O43 2.111476 1_555
Mg1 O38 2.111476 1_555
Mg1 O27 2.113827 1_555
Mg1 O28 2.113827 1_555
Mg1 O29 2.113827 1_455
Mg2 O36 2.111476 1_555
Mg2 O47 2.111476 1_555
Mg2 O40 2.111476 1_555
Mg2 O32 2.113827 1_555
Mg2 O30 2.113827 1_555
Mg2 O31 2.113827 1_554
Mg3 O39 2.111476 1_555
Mg3 O37 2.111476 1_555
Mg3 O44 2.111476 1_555
Mg3 O33 2.113827 1_565
Mg3 O35 2.113827 1_655
Mg3 O34 2.113827 1_556
Mg4 O8 2.104270 1_555
Mg4 O0 2.104270 1_555
Mg4 O10 2.104270 1_555
Mg4 O17 2.131280 1_555
Mg4 O16 2.131280 1_555
Mg4 O15 2.131280 1_555
Mg5 O1 2.104270 1_555
Mg5 O5 2.104270 1_555
Mg5 O9 2.104270 1_555
Mg5 O18 2.131280 1_555
Mg5 O19 2.131280 1_555
Mg5 O20 2.131280 1_555
Mg6 O2 2.104270 1_555
Mg6 O6 2.104270 1_555
Mg6 O4 2.104270 1_555
Mg6 O22 2.131280 1_555
Mg6 O23 2.131280 1_555
Mg6 O21 2.131280 1_555
Mg7 O3 2.104270 1_555
Mg7 O7 2.104270 1_555
Mg7 O11 2.104270 1_555
Mg7 O14 2.131280 1_555
Mg7 O12 2.131280 1_555
Mg7 O13 2.131280 1_555
O0 W0 1.812624 1_555
O1 W1 1.812624 1_555
O2 W2 1.812624 1_555
O3 W3 1.812624 1_555
O4 W4 1.812624 1_555
O5 W5 1.812624 1_555
O6 W6 1.812624 1_555
O7 W7 1.812624 1_555
O8 W8 1.812624 1_555
O9 W9 1.812624 1_555
O10 W10 1.812624 1_555
O11 W11 1.812624 1_555
O12 W0 1.817075 1_555
O13 W1 1.817075 1_565
O14 W2 1.817075 1_565
O15 W3 1.817075 1_655
O16 W4 1.817075 1_655
O17 W5 1.817075 1_555
O18 W6 1.817075 1_556
O19 W7 1.817075 1_555
O20 W8 1.817075 1_556
O21 W9 1.817075 1_454
O22 W10 1.817075 1_445
O23 W11 1.817075 1_544
O24 W0 1.818621 1_555
O25 W1 1.818621 1_555
O26 W2 1.818621 1_555
O27 W3 1.818621 1_555
O28 W4 1.818621 1_555
O29 W5 1.818621 1_555
O30 W6 1.818621 1_555
O31 W7 1.818621 1_555
O32 W8 1.818621 1_555
O33 W9 1.818621 1_555
O34 W10 1.818621 1_555
O35 W11 1.818621 1_555
O36 W0 1.816950 1_555
O37 W1 1.816950 1_565
O38 W2 1.816950 1_555
O39 W3 1.816950 1_655
O40 W4 1.816950 1_555
O41 W5 1.816950 1_555
O42 W6 1.816950 1_555
O43 W7 1.816950 1_555
O44 W8 1.816950 1_556
O45 W9 1.816950 1_455
O46 W10 1.816950 1_545
O47 W11 1.816950 1_554
