# generated using pymatgen
data_Li2Mg
_symmetry_space_group_name_H-M   'P 1'
_cell_length_a   11.70797113
_cell_length_b   11.70797113
_cell_length_c   14.55928988
_cell_angle_alpha   74.00401148
_cell_angle_beta   74.00401148
_cell_angle_gamma   30.79336758
_symmetry_Int_Tables_number   1
_chemical_formula_structural   Li2Mg
_chemical_formula_sum   'Li32 Mg16'
_cell_volume   979.08021394
_cell_formula_units_Z   16
loop_
 _symmetry_equiv_pos_site_id
 _symmetry_equiv_pos_as_xyz
  1  'x, y, z'
loop_
 _atom_site_type_symbol
 _atom_site_label
 _atom_site_symmetry_multiplicity
 _atom_site_fract_x
 _atom_site_fract_y
 _atom_site_fract_z
 _atom_site_occupancy
  Li  Li0_0  1  0.40347051  0.40347051  0.31820739  1
  Li  Li0_1  1  0.40347051  0.40347052  0.81820739  1
  Li  Li0_2  1  0.40347052  0.90347052  0.31820738  1
  Li  Li0_3  1  0.40347052  0.90347051  0.81820738  1
  Li  Li0_4  1  0.90347052  0.40347052  0.31820738  1
  Li  Li0_5  1  0.90347051  0.40347052  0.81820738  1
  Li  Li0_6  1  0.90347052  0.90347052  0.31820739  1
  Li  Li0_7  1  0.90347051  0.90347051  0.81820738  1
  Li  Li1_0  1  0.07106326  0.07106326  0.48325088  1
  Li  Li1_1  1  0.07106326  0.07106326  0.98325088  1
  Li  Li1_2  1  0.07106326  0.57106326  0.48325088  1
  Li  Li1_3  1  0.07106326  0.57106326  0.98325087  1
  Li  Li1_4  1  0.57106326  0.07106326  0.48325088  1
  Li  Li1_5  1  0.57106326  0.07106326  0.98325087  1
  Li  Li1_6  1  0.57106326  0.57106326  0.48325088  1
  Li  Li1_7  1  0.57106325  0.57106325  0.98325088  1
  Li  Li2_0  1  0.42893675  0.42893675  0.01674913  1
  Li  Li2_1  1  0.42893675  0.42893675  0.51674913  1
  Li  Li2_2  1  0.42893675  0.92893675  0.01674913  1
  Li  Li2_3  1  0.42893675  0.92893675  0.51674913  1
  Li  Li2_4  1  0.92893675  0.42893675  0.01674913  1
  Li  Li2_5  1  0.92893675  0.42893675  0.51674913  1
  Li  Li2_6  1  0.92893675  0.92893675  0.01674912  1
  Li  Li2_7  1  0.92893675  0.92893674  0.51674913  1
  Li  Li3_0  1  0.09652949  0.09652949  0.18179261  1
  Li  Li3_1  1  0.09652949  0.09652949  0.68179261  1
  Li  Li3_2  1  0.09652948  0.59652948  0.18179261  1
  Li  Li3_3  1  0.09652949  0.59652949  0.68179261  1
  Li  Li3_4  1  0.59652948  0.09652948  0.18179261  1
  Li  Li3_5  1  0.59652949  0.09652949  0.68179261  1
  Li  Li3_6  1  0.59652949  0.59652949  0.18179261  1
  Li  Li3_7  1  0.59652949  0.59652949  0.68179261  1
  Mg  Mg0_0  1  0.26240441  0.26240441  0.35157637  1
  Mg  Mg0_1  1  0.26240441  0.26240441  0.85157637  1
  Mg  Mg0_2  1  0.26240441  0.76240441  0.35157637  1
  Mg  Mg0_3  1  0.26240441  0.76240441  0.85157637  1
  Mg  Mg0_4  1  0.76240441  0.26240441  0.35157637  1
  Mg  Mg0_5  1  0.76240441  0.26240441  0.85157637  1
  Mg  Mg0_6  1  0.76240441  0.76240440  0.35157637  1
  Mg  Mg0_7  1  0.76240441  0.76240441  0.85157637  1
  Mg  Mg1_0  1  0.23759559  0.23759560  0.14842362  1
  Mg  Mg1_1  1  0.23759559  0.23759559  0.64842363  1
  Mg  Mg1_2  1  0.23759559  0.73759559  0.14842363  1
  Mg  Mg1_3  1  0.23759560  0.73759560  0.64842362  1
  Mg  Mg1_4  1  0.73759559  0.23759559  0.14842363  1
  Mg  Mg1_5  1  0.73759560  0.23759560  0.64842362  1
  Mg  Mg1_6  1  0.73759560  0.73759560  0.14842363  1
  Mg  Mg1_7  1  0.73759560  0.73759560  0.64842362  1
loop_
_geom_bond_atom_site_label_1
_geom_bond_atom_site_label_2
_geom_bond_distance
_geom_bond_site_symmetry_2
Li0_0 Li1_4 3.015824 1_555
Li0_0 Li1_2 3.015824 1_555
Li0_0 Mg0_2 3.063096 1_555
Li0_0 Mg0_4 3.063096 1_555
Li0_0 Mg1_2 3.073960 1_555
Li0_0 Mg1_4 3.073960 1_555
Li0_0 Li3_4 3.077691 1_555
Li0_0 Li3_2 3.077691 1_555
Li0_0 Mg0_0 3.081159 1_555
Li0_0 Li2_1 3.104233 1_555
Li0_0 Li0_6 3.108470 1_455
Li0_0 Li0_6 3.108470 1_545
Li0_1 Li1_5 3.015824 1_555
Li0_1 Li1_3 3.015824 1_555
Li0_1 Mg0_3 3.063096 1_555
Li0_1 Mg0_5 3.063096 1_555
Li0_1 Mg1_3 3.073960 1_555
Li0_1 Mg1_5 3.073960 1_555
Li0_1 Li3_3 3.077691 1_555
Li0_1 Li3_5 3.077691 1_555
Li0_1 Mg0_1 3.081159 1_555
Li0_1 Li2_0 3.104233 1_556
Li0_1 Li0_7 3.108470 1_455
Li0_1 Li0_7 3.108470 1_545
Li0_2 Li1_6 3.015824 1_555
Li0_2 Li1_0 3.015824 1_565
Li0_2 Mg0_6 3.063096 1_555
Li0_2 Mg0_0 3.063096 1_565
Li0_2 Mg1_0 3.073960 1_565
Li0_2 Mg1_6 3.073960 1_555
Li0_2 Li3_0 3.077691 1_565
Li0_2 Li3_6 3.077691 1_555
Li0_2 Mg0_2 3.081159 1_555
Li0_2 Li2_3 3.104233 1_555
Li0_2 Li0_4 3.108470 1_465
Li0_2 Li0_4 3.108470 1_555
Li0_3 Li1_7 3.015824 1_555
Li0_3 Li1_1 3.015824 1_565
Li0_3 Mg0_1 3.063096 1_565
Li0_3 Mg0_7 3.063096 1_555
Li0_3 Mg1_1 3.073960 1_565
Li0_3 Mg1_7 3.073960 1_555
Li0_3 Li3_7 3.077691 1_555
Li0_3 Li3_1 3.077691 1_565
Li0_3 Mg0_3 3.081159 1_555
Li0_3 Li2_2 3.104233 1_556
Li0_3 Li0_5 3.108470 1_555
Li0_3 Li0_5 3.108470 1_465
Li0_4 Li1_6 3.015824 1_555
Li0_4 Li1_0 3.015824 1_655
Li0_4 Mg0_6 3.063096 1_555
Li0_4 Mg0_0 3.063096 1_655
Li0_4 Mg1_0 3.073960 1_655
Li0_4 Mg1_6 3.073960 1_555
Li0_4 Li3_0 3.077691 1_655
Li0_4 Li3_6 3.077691 1_555
Li0_4 Mg0_4 3.081159 1_555
Li0_4 Li2_5 3.104233 1_555
Li0_5 Li1_7 3.015824 1_555
Li0_5 Li1_1 3.015824 1_655
Li0_5 Mg0_1 3.063096 1_655
Li0_5 Mg0_7 3.063096 1_555
Li0_5 Mg1_1 3.073960 1_655
Li0_5 Mg1_7 3.073960 1_555
Li0_5 Li3_7 3.077691 1_555
Li0_5 Li3_1 3.077691 1_655
Li0_5 Mg0_5 3.081159 1_555
Li0_5 Li2_4 3.104233 1_556
Li0_6 Li1_4 3.015824 1_565
Li0_6 Li1_2 3.015824 1_655
Li0_6 Mg0_2 3.063096 1_655
Li0_6 Mg0_4 3.063096 1_565
Li0_6 Mg1_4 3.073960 1_565
Li0_6 Mg1_2 3.073960 1_655
Li0_6 Li3_2 3.077691 1_655
Li0_6 Li3_4 3.077691 1_565
Li0_6 Mg0_6 3.081159 1_555
Li0_6 Li2_7 3.104233 1_555
Li0_7 Li1_5 3.015824 1_565
Li0_7 Li1_3 3.015824 1_655
Li0_7 Mg0_3 3.063096 1_655
Li0_7 Mg0_5 3.063096 1_565
Li0_7 Mg1_5 3.073960 1_565
Li0_7 Mg1_3 3.073960 1_655
Li0_7 Li3_5 3.077691 1_565
Li0_7 Li3_3 3.077691 1_655
Li0_7 Mg0_7 3.081159 1_555
Li0_7 Li2_6 3.104233 1_556
Li1_0 Mg1_5 3.026380 1_455
Li1_0 Mg1_3 3.026380 1_545
Li1_0 Li2_3 3.043548 1_545
Li1_0 Li2_5 3.043548 1_455
Li1_0 Mg0_2 3.048901 1_545
Li1_0 Mg0_4 3.048901 1_455
Li1_0 Li3_1 3.104233 1_555
Li1_0 Li2_7 3.104565 1_445
Li1_0 Li1_6 3.108470 1_455
Li1_0 Li1_6 3.108470 1_545
Li1_1 Mg1_2 3.026380 1_546
Li1_1 Mg1_4 3.026380 1_456
Li1_1 Li2_2 3.043548 1_546
Li1_1 Li2_4 3.043548 1_456
Li1_1 Mg0_3 3.048901 1_545
Li1_1 Mg0_5 3.048901 1_455
Li1_1 Li3_0 3.104233 1_556
Li1_1 Li2_6 3.104565 1_446
Li1_1 Li1_7 3.108470 1_455
Li1_1 Li1_7 3.108470 1_545
Li1_2 Mg1_7 3.026380 1_455
Li1_2 Mg1_1 3.026380 1_555
Li1_2 Li2_7 3.043548 1_455
Li1_2 Li2_1 3.043548 1_555
Li1_2 Mg0_6 3.048901 1_455
Li1_2 Mg0_0 3.048901 1_555
Li1_2 Li3_3 3.104233 1_555
Li1_2 Li2_5 3.104565 1_455
Li1_2 Li1_4 3.108470 1_465
Li1_2 Li1_4 3.108470 1_555
Li1_3 Mg1_6 3.026380 1_456
Li1_3 Mg1_0 3.026380 1_556
Li1_3 Li2_6 3.043548 1_456
Li1_3 Li2_0 3.043548 1_556
Li1_3 Mg0_7 3.048901 1_455
Li1_3 Mg0_1 3.048901 1_555
Li1_3 Li3_2 3.104233 1_556
Li1_3 Li2_4 3.104565 1_456
Li1_3 Li1_5 3.108470 1_555
Li1_3 Li1_5 3.108470 1_465
Li1_4 Mg1_7 3.026380 1_545
Li1_4 Mg1_1 3.026380 1_555
Li1_4 Li2_7 3.043548 1_545
Li1_4 Li2_1 3.043548 1_555
Li1_4 Mg0_0 3.048901 1_555
Li1_4 Mg0_6 3.048901 1_545
Li1_4 Li3_5 3.104233 1_555
Li1_4 Li2_3 3.104565 1_545
Li1_5 Mg1_6 3.026380 1_546
Li1_5 Mg1_0 3.026380 1_556
Li1_5 Li2_0 3.043548 1_556
Li1_5 Li2_6 3.043548 1_546
Li1_5 Mg0_7 3.048901 1_545
Li1_5 Mg0_1 3.048901 1_555
Li1_5 Li3_4 3.104233 1_556
Li1_5 Li2_2 3.104565 1_546
Li1_6 Mg1_3 3.026380 1_555
Li1_6 Mg1_5 3.026380 1_555
Li1_6 Li2_3 3.043548 1_555
Li1_6 Li2_5 3.043548 1_555
Li1_6 Mg0_4 3.048901 1_555
Li1_6 Mg0_2 3.048901 1_555
Li1_6 Li3_7 3.104233 1_555
Li1_6 Li2_1 3.104565 1_555
Li1_7 Mg1_4 3.026380 1_556
Li1_7 Mg1_2 3.026380 1_556
Li1_7 Li2_4 3.043548 1_556
Li1_7 Li2_2 3.043548 1_556
Li1_7 Mg0_3 3.048901 1_555
Li1_7 Mg0_5 3.048901 1_555
Li1_7 Li3_6 3.104233 1_556
Li1_7 Li2_0 3.104565 1_556
Li2_0 Li3_4 3.015824 1_555
Li2_0 Li3_2 3.015824 1_555
Li2_0 Mg0_5 3.026380 1_554
Li2_0 Mg0_3 3.026380 1_554
Li2_0 Mg1_4 3.048901 1_555
Li2_0 Mg1_2 3.048901 1_555
Li2_0 Li2_6 3.108470 1_545
Li2_0 Li2_6 3.108470 1_455
Li2_1 Li3_3 3.015824 1_555
Li2_1 Li3_5 3.015824 1_555
Li2_1 Mg0_4 3.026380 1_555
Li2_1 Mg0_2 3.026380 1_555
Li2_1 Mg1_5 3.048901 1_555
Li2_1 Mg1_3 3.048901 1_555
Li2_1 Li2_7 3.108470 1_455
Li2_1 Li2_7 3.108470 1_545
Li2_2 Li3_6 3.015824 1_555
Li2_2 Li3_0 3.015824 1_565
Li2_2 Mg0_1 3.026380 1_564
Li2_2 Mg0_7 3.026380 1_554
Li2_2 Mg1_0 3.048901 1_565
Li2_2 Mg1_6 3.048901 1_555
Li2_2 Li2_4 3.108470 1_555
Li2_2 Li2_4 3.108470 1_465
Li2_3 Li3_7 3.015824 1_555
Li2_3 Li3_1 3.015824 1_565
Li2_3 Mg0_6 3.026380 1_555
Li2_3 Mg0_0 3.026380 1_565
Li2_3 Mg1_1 3.048901 1_565
Li2_3 Mg1_7 3.048901 1_555
Li2_3 Li2_5 3.108470 1_555
Li2_3 Li2_5 3.108470 1_465
Li2_4 Li3_6 3.015824 1_555
Li2_4 Li3_0 3.015824 1_655
Li2_4 Mg0_1 3.026380 1_654
Li2_4 Mg0_7 3.026380 1_554
Li2_4 Mg1_0 3.048901 1_655
Li2_4 Mg1_6 3.048901 1_555
Li2_5 Li3_1 3.015824 1_655
Li2_5 Li3_7 3.015824 1_555
Li2_5 Mg0_0 3.026380 1_655
Li2_5 Mg0_6 3.026380 1_555
Li2_5 Mg1_1 3.048901 1_655
Li2_5 Mg1_7 3.048901 1_555
Li2_6 Li3_4 3.015824 1_565
Li2_6 Li3_2 3.015824 1_655
Li2_6 Mg0_3 3.026380 1_654
Li2_6 Mg0_5 3.026380 1_564
Li2_6 Mg1_4 3.048901 1_565
Li2_6 Mg1_2 3.048901 1_655
Li2_7 Li3_3 3.015824 1_655
Li2_7 Li3_5 3.015824 1_565
Li2_7 Mg0_2 3.026380 1_655
Li2_7 Mg0_4 3.026380 1_565
Li2_7 Mg1_3 3.048901 1_655
Li2_7 Mg1_5 3.048901 1_565
Li3_0 Mg1_2 3.063096 1_545
Li3_0 Mg1_4 3.063096 1_455
Li3_0 Mg0_4 3.073960 1_455
Li3_0 Mg0_2 3.073960 1_545
Li3_0 Mg1_0 3.081159 1_555
Li3_0 Li3_6 3.108470 1_545
Li3_0 Li3_6 3.108470 1_455
Li3_1 Mg1_5 3.063096 1_455
Li3_1 Mg1_3 3.063096 1_545
Li3_1 Mg0_3 3.073960 1_545
Li3_1 Mg0_5 3.073960 1_455
Li3_1 Mg1_1 3.081159 1_555
Li3_1 Li3_7 3.108470 1_455
Li3_1 Li3_7 3.108470 1_545
Li3_2 Mg1_6 3.063096 1_455
Li3_2 Mg1_0 3.063096 1_555
Li3_2 Mg0_6 3.073960 1_455
Li3_2 Mg0_0 3.073960 1_555
Li3_2 Mg1_2 3.081159 1_555
Li3_2 Li3_4 3.108470 1_555
Li3_2 Li3_4 3.108470 1_465
Li3_3 Mg1_7 3.063096 1_455
Li3_3 Mg1_1 3.063096 1_555
Li3_3 Mg0_7 3.073960 1_455
Li3_3 Mg0_1 3.073960 1_555
Li3_3 Mg1_3 3.081159 1_555
Li3_3 Li3_5 3.108470 1_465
Li3_3 Li3_5 3.108470 1_555
Li3_4 Mg1_6 3.063096 1_545
Li3_4 Mg1_0 3.063096 1_555
Li3_4 Mg0_0 3.073960 1_555
Li3_4 Mg0_6 3.073960 1_545
Li3_4 Mg1_4 3.081159 1_555
Li3_5 Mg1_7 3.063096 1_545
Li3_5 Mg1_1 3.063096 1_555
Li3_5 Mg0_7 3.073960 1_545
Li3_5 Mg0_1 3.073960 1_555
Li3_5 Mg1_5 3.081159 1_555
Li3_6 Mg1_4 3.063096 1_555
Li3_6 Mg1_2 3.063096 1_555
Li3_6 Mg0_4 3.073960 1_555
Li3_6 Mg0_2 3.073960 1_555
Li3_6 Mg1_6 3.081159 1_555
Li3_7 Mg1_5 3.063096 1_555
Li3_7 Mg1_3 3.063096 1_555
Li3_7 Mg0_5 3.073960 1_555
Li3_7 Mg0_3 3.073960 1_555
Li3_7 Mg1_7 3.081159 1_555
Mg0_0 Mg0_6 3.108470 1_545
Mg0_0 Mg0_6 3.108470 1_455
Mg0_0 Mg1_0 3.163702 1_555
Mg0_1 Mg0_7 3.108470 1_545
Mg0_1 Mg0_7 3.108470 1_455
Mg0_1 Mg1_1 3.163702 1_555
Mg0_2 Mg0_4 3.108470 1_465
Mg0_2 Mg0_4 3.108470 1_555
Mg0_2 Mg1_2 3.163702 1_555
Mg0_3 Mg0_5 3.108470 1_555
Mg0_3 Mg0_5 3.108470 1_465
Mg0_3 Mg1_3 3.163702 1_555
Mg0_4 Mg1_4 3.163702 1_555
Mg0_5 Mg1_5 3.163702 1_555
Mg0_6 Mg1_6 3.163702 1_555
Mg0_7 Mg1_7 3.163702 1_555
Mg1_0 Mg1_6 3.108470 1_455
Mg1_0 Mg1_6 3.108470 1_545
Mg1_1 Mg1_7 3.108470 1_545
Mg1_1 Mg1_7 3.108470 1_455
Mg1_2 Mg1_4 3.108470 1_465
Mg1_2 Mg1_4 3.108470 1_555
Mg1_3 Mg1_5 3.108470 1_555
Mg1_3 Mg1_5 3.108470 1_465
