# generated using pymatgen
data_Zr2Ga3Cu
_symmetry_space_group_name_H-M   'P 1'
_cell_length_a   5.36600250
_cell_length_b   5.36600250
_cell_length_c   6.58626820
_cell_angle_alpha   52.29378954
_cell_angle_beta   52.29378954
_cell_angle_gamma   45.22917826
_symmetry_Int_Tables_number   1
_chemical_formula_structural   Zr2Ga3Cu
_chemical_formula_sum   'Zr2 Ga3 Cu1'
_cell_volume   100.84301367
_cell_formula_units_Z   1
loop_
 _symmetry_equiv_pos_site_id
 _symmetry_equiv_pos_as_xyz
  1  'x, y, z'
loop_
 _atom_site_type_symbol
 _atom_site_label
 _atom_site_symmetry_multiplicity
 _atom_site_fract_x
 _atom_site_fract_y
 _atom_site_fract_z
 _atom_site_occupancy
  Zr  Zr0  1  0.54032925  0.54032925  0.20253625  1
  Zr  Zr1  1  0.45629263  0.45629263  0.79097320  1
  Ga  Ga0  1  0.85025636  0.85025636  0.61578580  1
  Ga  Ga1  1  0.82623696  0.82623696  0.20719540  1
  Ga  Ga2  1  0.16033784  0.16033784  0.79526441  1
  Cu  Cu0  1  0.16654598  0.16654598  0.38824494  1
loop_
_geom_bond_atom_site_label_1
_geom_bond_atom_site_label_2
_geom_bond_distance
_geom_bond_site_symmetry_2
Zr0 Zr1 3.321331 1_554
Zr0 Zr1 3.381987 1_555
Ga0 Ga2 2.499553 1_565
Ga0 Ga2 2.499553 1_655
Ga0 Ga1 2.854315 1_555
Ga0 Zr1 2.880724 1_565
Ga0 Zr1 2.880724 1_655
Ga0 Zr0 2.901724 1_655
Ga0 Zr0 2.901724 1_565
Ga0 Zr0 2.939137 1_556
Ga0 Zr1 3.255279 1_555
Ga1 Ga2 2.533118 1_664
Ga1 Zr0 2.852868 1_555
Ga1 Zr0 2.944628 1_655
Ga1 Zr0 2.944628 1_565
Ga1 Zr1 2.958426 1_564
Ga1 Zr1 2.958426 1_654
Ga1 Zr1 3.089113 1_555
Ga2 Zr1 2.901780 1_545
Ga2 Zr1 2.901780 1_455
Ga2 Zr1 2.913330 1_555
Ga2 Zr0 2.939459 1_546
Ga2 Zr0 2.939459 1_456
Ga2 Zr0 3.152414 1_555
Cu0 Ga1 2.383806 1_455
Cu0 Ga1 2.383806 1_545
Cu0 Ga0 2.416971 1_445
Cu0 Ga2 2.640392 1_555
Cu0 Zr1 2.882827 1_455
Cu0 Zr1 2.882827 1_545
Cu0 Zr1 2.958276 1_554
Cu0 Zr0 3.034235 1_555
Cu0 Zr0 3.056760 1_545
Cu0 Zr0 3.056760 1_455
