# generated using pymatgen
data_ErCu(WO4)2
_symmetry_space_group_name_H-M   'P 1'
_cell_length_a   5.98453300
_cell_length_b   5.08166100
_cell_length_c   10.98478638
_cell_angle_alpha   65.29131063
_cell_angle_beta   90.00000000
_cell_angle_gamma   90.00000000
_symmetry_Int_Tables_number   1
_chemical_formula_structural   ErCu(WO4)2
_chemical_formula_sum   'Er2 Cu2 W4 O16'
_cell_volume   303.47723038
_cell_formula_units_Z   2
loop_
 _symmetry_equiv_pos_site_id
 _symmetry_equiv_pos_as_xyz
  1  'x, y, z'
loop_
 _atom_site_type_symbol
 _atom_site_label
 _atom_site_symmetry_multiplicity
 _atom_site_fract_x
 _atom_site_fract_y
 _atom_site_fract_z
 _atom_site_occupancy
  Er  Er0  1  0.33406400  0.00000000  0.75000000  1
  Er  Er1  1  0.66593600  0.00000000  0.25000000  1
  Cu  Cu0  1  0.71613100  0.50000000  0.75000000  1
  Cu  Cu1  1  0.28386900  0.50000000  0.25000000  1
  W  W0  1  0.16901500  0.76218300  0.48896000  1
  W  W1  1  0.83098500  0.23781700  0.51104000  1
  W  W2  1  0.16901500  0.23781700  0.01104000  1
  W  W3  1  0.83098500  0.76218300  0.98896000  1
  O  O0  1  0.36099000  0.73128900  0.36348300  1
  O  O1  1  0.36099000  0.26871100  0.13651700  1
  O  O2  1  0.63901000  0.26871100  0.63651700  1
  O  O3  1  0.63901000  0.73128900  0.86348300  1
  O  O4  1  0.91037000  0.16171200  0.88929800  1
  O  O5  1  0.91037000  0.83828800  0.61070200  1
  O  O6  1  0.08963000  0.83828800  0.11070200  1
  O  O7  1  0.08963000  0.16171200  0.38929800  1
  O  O8  1  0.63433400  0.21652000  0.38779500  1
  O  O9  1  0.63433400  0.78348000  0.11220500  1
  O  O10  1  0.36566600  0.78348000  0.61220500  1
  O  O11  1  0.36566600  0.21652000  0.88779500  1
  O  O12  1  0.88542800  0.66059700  0.40276400  1
  O  O13  1  0.11457200  0.33940300  0.59723600  1
  O  O14  1  0.88542800  0.33940300  0.09723600  1
  O  O15  1  0.11457200  0.66059700  0.90276400  1
loop_
_geom_bond_atom_site_label_1
_geom_bond_atom_site_label_2
_geom_bond_distance
_geom_bond_site_symmetry_2
Er0 O10 2.220325 1_545
Er0 O11 2.220325 1_555
Er0 O13 2.257537 1_555
Er0 O15 2.257537 1_545
Er0 O3 2.307807 1_545
Er0 O2 2.307807 1_555
Er1 O9 2.220325 1_545
Er1 O8 2.220325 1_555
Er1 O12 2.257537 1_545
Er1 O14 2.257537 1_555
Er1 O0 2.307807 1_545
Er1 O1 2.307807 1_555
Cu0 O2 2.091239 1_555
Cu0 O3 2.091239 1_555
Cu0 O4 2.109203 1_555
Cu0 O5 2.109203 1_555
Cu1 O0 2.091239 1_555
Cu1 O1 2.091239 1_555
Cu1 O6 2.109203 1_555
Cu1 O7 2.109203 1_555
O0 W0 1.850755 1_555
O1 W2 1.850755 1_555
O2 W1 1.850755 1_555
O3 W3 1.850755 1_555
O4 W3 1.920427 1_545
O4 W2 2.183172 1_656
O5 W1 1.920427 1_565
O5 W0 2.183172 1_655
O6 W2 1.920427 1_565
O6 W3 2.183172 1_454
O7 W0 1.920427 1_545
O7 W1 2.183172 1_455
O8 W1 1.830858 1_555
O9 W3 1.830858 1_554
O10 W0 1.830858 1_555
O11 W2 1.830858 1_556
O12 W1 2.000066 1_555
O12 W0 2.109953 1_655
O13 W0 2.000066 1_555
O13 W1 2.109953 1_455
O14 W3 2.000066 1_554
O14 W2 2.109953 1_655
O15 W2 2.000066 1_556
O15 W3 2.109953 1_455
