# generated using pymatgen
data_Er3BeCrS7
_symmetry_space_group_name_H-M   'P 1'
_cell_length_a   9.55184575
_cell_length_b   9.55184575
_cell_length_c   5.95043200
_cell_angle_alpha   90.00000000
_cell_angle_beta   90.00000000
_cell_angle_gamma   119.99999827
_symmetry_Int_Tables_number   1
_chemical_formula_structural   Er3BeCrS7
_chemical_formula_sum   'Er6 Be2 Cr2 S14'
_cell_volume   470.16872483
_cell_formula_units_Z   2
loop_
 _symmetry_equiv_pos_site_id
 _symmetry_equiv_pos_as_xyz
  1  'x, y, z'
loop_
 _atom_site_type_symbol
 _atom_site_label
 _atom_site_symmetry_multiplicity
 _atom_site_fract_x
 _atom_site_fract_y
 _atom_site_fract_z
 _atom_site_occupancy
  Er  Er0  1  0.60861400  0.85902700  0.25593500  1
  Er  Er1  1  0.14097300  0.74958700  0.25593500  1
  Er  Er2  1  0.25041300  0.39138600  0.25593500  1
  Er  Er3  1  0.39138600  0.14097300  0.75593500  1
  Er  Er4  1  0.85902700  0.25041300  0.75593500  1
  Er  Er5  1  0.74958700  0.60861400  0.75593500  1
  Be  Be0  1  0.33333300  0.66666700  0.83747100  1
  Be  Be1  1  0.66666700  0.33333300  0.33747100  1
  Cr  Cr0  1  0.00000000  0.00000000  0.47742800  1
  Cr  Cr1  1  0.00000000  0.00000000  0.97742800  1
  S  S0  1  0.77136600  0.91697100  0.72046200  1
  S  S1  1  0.08302900  0.85439500  0.72046200  1
  S  S2  1  0.14560500  0.22863400  0.72046200  1
  S  S3  1  0.22863400  0.08302900  0.22046200  1
  S  S4  1  0.91697100  0.14560500  0.22046200  1
  S  S5  1  0.85439500  0.77136600  0.22046200  1
  S  S6  1  0.48276900  0.58601400  0.97946200  1
  S  S7  1  0.41398600  0.89675500  0.97946200  1
  S  S8  1  0.10324500  0.51723100  0.97946200  1
  S  S9  1  0.51723100  0.41398600  0.47946200  1
  S  S10  1  0.58601400  0.10324500  0.47946200  1
  S  S11  1  0.89675500  0.48276900  0.47946200  1
  S  S12  1  0.33333300  0.66666700  0.48551600  1
  S  S13  1  0.66666700  0.33333300  0.98551600  1
loop_
_geom_bond_atom_site_label_1
_geom_bond_atom_site_label_2
_geom_bond_distance
_geom_bond_site_symmetry_2
Er0 S7 2.638632 1_554
Er0 S12 2.706456 1_555
Er0 S10 2.785845 1_565
Er0 S6 2.795928 1_554
Er0 S4 2.854884 1_565
Er0 S5 2.867567 1_555
Er0 S0 3.082708 1_555
Er0 S0 3.466283 1_554
Er1 S8 2.638632 1_554
Er1 S12 2.706450 1_555
Er1 S11 2.785845 1_455
Er1 S7 2.795928 1_554
Er1 S5 2.854883 1_455
Er1 S3 2.867567 1_565
Er1 S1 3.082708 1_555
Er1 S1 3.466283 1_554
Er2 S6 2.638632 1_554
Er2 S12 2.706458 1_555
Er2 S9 2.785845 1_555
Er2 S8 2.795928 1_554
Er2 S3 2.854883 1_555
Er2 S4 2.867567 1_455
Er2 S2 3.082708 1_555
Er2 S2 3.466283 1_554
Er3 S10 2.638632 1_555
Er3 S13 2.706456 1_555
Er3 S7 2.785845 1_545
Er3 S9 2.795928 1_555
Er3 S1 2.854884 1_545
Er3 S2 2.867567 1_555
Er3 S3 3.082708 1_556
Er3 S3 3.466283 1_555
Er4 S11 2.638632 1_555
Er4 S13 2.706450 1_555
Er4 S8 2.785845 1_655
Er4 S10 2.795928 1_555
Er4 S2 2.854883 1_655
Er4 S0 2.867567 1_545
Er4 S4 3.082708 1_556
Er4 S4 3.466283 1_555
Er5 S9 2.638632 1_555
Er5 S13 2.706458 1_555
Er5 S6 2.785845 1_555
Er5 S11 2.795928 1_555
Er5 S0 2.854883 1_555
Er5 S1 2.867567 1_655
Er5 S5 3.082708 1_556
Er5 S5 3.466283 1_555
Be0 S12 2.094284 1_555
Be0 S7 2.108177 1_555
Be0 S8 2.108178 1_555
Be0 S6 2.108185 1_555
Be1 S13 2.094284 1_554
Be1 S10 2.108177 1_555
Be1 S11 2.108178 1_555
Be1 S9 2.108185 1_555
Cr0 S1 2.399516 1_545
Cr0 S0 2.399516 1_445
Cr0 S2 2.399516 1_555
Cr0 S4 2.450372 1_455
Cr0 S3 2.450372 1_555
Cr0 S5 2.450372 1_445
Cr1 S4 2.399516 1_456
Cr1 S3 2.399516 1_556
Cr1 S5 2.399516 1_446
Cr1 S1 2.450372 1_545
Cr1 S0 2.450372 1_445
Cr1 S2 2.450372 1_555
