# generated using pymatgen
data_Ho3Th
_symmetry_space_group_name_H-M   'P 1'
_cell_length_a   7.16316195
_cell_length_b   7.16316195
_cell_length_c   5.73104465
_cell_angle_alpha   90.00000000
_cell_angle_beta   90.00000000
_cell_angle_gamma   120.00000180
_symmetry_Int_Tables_number   1
_chemical_formula_structural   Ho3Th
_chemical_formula_sum   'Ho6 Th2'
_cell_volume   254.66775311
_cell_formula_units_Z   2
loop_
 _symmetry_equiv_pos_site_id
 _symmetry_equiv_pos_as_xyz
  1  'x, y, z'
loop_
 _atom_site_type_symbol
 _atom_site_label
 _atom_site_symmetry_multiplicity
 _atom_site_fract_x
 _atom_site_fract_y
 _atom_site_fract_z
 _atom_site_occupancy
  Ho  Ho0  1  0.16762866  0.33525933  0.25000000  1
  Ho  Ho1  1  0.66474067  0.83237134  0.25000000  1
  Ho  Ho2  1  0.16762866  0.83237134  0.25000000  1
  Ho  Ho3  1  0.83237134  0.66474067  0.75000000  1
  Ho  Ho4  1  0.33525933  0.16762866  0.75000000  1
  Ho  Ho5  1  0.83237134  0.16762866  0.75000000  1
  Th  Th0  1  0.33333300  0.66666700  0.75000000  1
  Th  Th1  1  0.66666700  0.33333300  0.25000000  1
loop_
_geom_bond_atom_site_label_1
_geom_bond_atom_site_label_2
_geom_bond_distance
_geom_bond_site_symmetry_2
Ho0 Th0 3.526736 1_555
Ho0 Th0 3.526736 1_554
Ho0 Ho5 3.540710 1_455
Ho0 Ho5 3.540710 1_454
Ho0 Ho4 3.540725 1_554
Ho0 Ho4 3.540725 1_555
Ho0 Ho1 3.560894 1_555
Ho0 Ho2 3.560894 1_555
Ho0 Th1 3.581590 1_455
Ho0 Th1 3.581612 1_555
Ho0 Ho1 3.602268 1_445
Ho0 Ho2 3.602268 1_545
Ho1 Th0 3.526736 1_554
Ho1 Th0 3.526736 1_555
Ho1 Ho5 3.540710 1_565
Ho1 Ho5 3.540710 1_564
Ho1 Ho3 3.540725 1_555
Ho1 Ho3 3.540725 1_554
Ho1 Ho2 3.560894 1_555
Ho1 Th1 3.581590 1_565
Ho1 Th1 3.581612 1_555
Ho1 Ho2 3.602268 1_655
Ho2 Th0 3.526739 1_554
Ho2 Th0 3.526739 1_555
Ho2 Ho3 3.540710 1_454
Ho2 Ho3 3.540710 1_455
Ho2 Ho4 3.540710 1_564
Ho2 Ho4 3.540710 1_565
Ho2 Th1 3.581601 1_455
Ho2 Th1 3.581601 1_565
Ho3 Th1 3.526736 1_556
Ho3 Th1 3.526736 1_555
Ho3 Ho4 3.560894 1_555
Ho3 Ho5 3.560894 1_555
Ho3 Th0 3.581590 1_655
Ho3 Th0 3.581612 1_555
Ho3 Ho4 3.602268 1_665
Ho3 Ho5 3.602268 1_565
Ho4 Th1 3.526736 1_556
Ho4 Th1 3.526736 1_555
Ho4 Ho5 3.560894 1_555
Ho4 Th0 3.581590 1_545
Ho4 Th0 3.581612 1_555
Ho4 Ho5 3.602268 1_455
Ho5 Th1 3.526739 1_556
Ho5 Th1 3.526739 1_555
Ho5 Th0 3.581601 1_545
Ho5 Th0 3.581601 1_655
