# generated using pymatgen
data_CsMgBO3
_symmetry_space_group_name_H-M   'P 1'
_cell_length_a   4.94028100
_cell_length_b   16.91670800
_cell_length_c   20.50868208
_cell_angle_alpha   65.67962065
_cell_angle_beta   90.00000000
_cell_angle_gamma   90.00000000
_symmetry_Int_Tables_number   1
_chemical_formula_structural   CsMgBO3
_chemical_formula_sum   'Cs16 Mg16 B16 O48'
_cell_volume   1561.87424347
_cell_formula_units_Z   16
loop_
 _symmetry_equiv_pos_site_id
 _symmetry_equiv_pos_as_xyz
  1  'x, y, z'
loop_
 _atom_site_type_symbol
 _atom_site_label
 _atom_site_symmetry_multiplicity
 _atom_site_fract_x
 _atom_site_fract_y
 _atom_site_fract_z
 _atom_site_occupancy
  Cs  Cs0  1  0.26333000  0.14162300  0.72833400  1
  Cs  Cs1  1  0.76333000  0.35837700  0.27166600  1
  Cs  Cs2  1  0.73667000  0.85837700  0.27166600  1
  Cs  Cs3  1  0.23667000  0.64162300  0.72833400  1
  Cs  Cs4  1  0.27729000  0.40037900  0.55795600  1
  Cs  Cs5  1  0.77729000  0.09962100  0.44204400  1
  Cs  Cs6  1  0.72271000  0.59962100  0.44204400  1
  Cs  Cs7  1  0.22271000  0.90037900  0.55795600  1
  Cs  Cs8  1  0.27457800  0.95847700  0.94228800  1
  Cs  Cs9  1  0.77457800  0.54152300  0.05771200  1
  Cs  Cs10  1  0.72542200  0.04152300  0.05771200  1
  Cs  Cs11  1  0.22542200  0.45847700  0.94228800  1
  Cs  Cs12  1  0.24529900  0.37009900  0.77187600  1
  Cs  Cs13  1  0.74529900  0.12990100  0.22812400  1
  Cs  Cs14  1  0.75470100  0.62990100  0.22812400  1
  Cs  Cs15  1  0.25470100  0.87009900  0.77187600  1
  Mg  Mg0  1  0.72699900  0.28081800  0.94142000  1
  Mg  Mg1  1  0.22699900  0.21918200  0.05858000  1
  Mg  Mg2  1  0.27300100  0.71918200  0.05858000  1
  Mg  Mg3  1  0.77300100  0.78081800  0.94142000  1
  Mg  Mg4  1  0.26565600  0.49072300  0.34465100  1
  Mg  Mg5  1  0.76565600  0.00927700  0.65534900  1
  Mg  Mg6  1  0.73434400  0.50927700  0.65534900  1
  Mg  Mg7  1  0.23434400  0.99072300  0.34465100  1
  Mg  Mg8  1  0.78078300  0.22193600  0.55874800  1
  Mg  Mg9  1  0.28078300  0.27806400  0.44125200  1
  Mg  Mg10  1  0.21921700  0.77806400  0.44125200  1
  Mg  Mg11  1  0.71921700  0.72193600  0.55874800  1
  Mg  Mg12  1  0.74304400  0.16510500  0.84479400  1
  Mg  Mg13  1  0.24304400  0.33489500  0.15520600  1
  Mg  Mg14  1  0.25695600  0.83489500  0.15520600  1
  Mg  Mg15  1  0.75695600  0.66510500  0.84479400  1
  B  B0  1  0.26724000  0.51487600  0.17666900  1
  B  B1  1  0.76724000  0.98512400  0.82333100  1
  B  B2  1  0.73276000  0.48512400  0.82333100  1
  B  B3  1  0.23276000  0.01487600  0.17666900  1
  B  B4  1  0.78259800  0.38469300  0.41962000  1
  B  B5  1  0.28259800  0.11530700  0.58038000  1
  B  B6  1  0.21740200  0.61530700  0.58038000  1
  B  B7  1  0.71740200  0.88469300  0.41962000  1
  B  B8  1  0.22469500  0.69208200  0.32305600  1
  B  B9  1  0.72469500  0.80791800  0.67694400  1
  B  B10  1  0.77530500  0.30791800  0.67694400  1
  B  B11  1  0.27530500  0.19208200  0.32305600  1
  B  B12  1  0.22544400  0.19577700  0.91944600  1
  B  B13  1  0.72544400  0.30422300  0.08055400  1
  B  B14  1  0.77455600  0.80422300  0.08055400  1
  B  B15  1  0.27455600  0.69577700  0.91944600  1
  O  O0  1  0.26422200  0.60142700  0.12730100  1
  O  O1  1  0.76422200  0.89857300  0.87269900  1
  O  O2  1  0.73577800  0.39857300  0.87269900  1
  O  O3  1  0.23577800  0.10142700  0.12730100  1
  O  O4  1  0.24289300  0.49351400  0.24916400  1
  O  O5  1  0.74289300  0.00648600  0.75083600  1
  O  O6  1  0.75710700  0.50648600  0.75083600  1
  O  O7  1  0.25710700  0.99351400  0.24916400  1
  O  O8  1  0.77064000  0.26922100  0.62867300  1
  O  O9  1  0.27064000  0.23077900  0.37132700  1
  O  O10  1  0.22936000  0.73077900  0.37132700  1
  O  O11  1  0.72936000  0.76922100  0.62867300  1
  O  O12  1  0.77072100  0.25808300  0.74991300  1
  O  O13  1  0.27072100  0.24191700  0.25008700  1
  O  O14  1  0.22927900  0.74191700  0.25008700  1
  O  O15  1  0.72927900  0.75808300  0.74991300  1
  O  O16  1  0.79505600  0.04904600  0.84914600  1
  O  O17  1  0.29505600  0.45095400  0.15085400  1
  O  O18  1  0.20494400  0.95095400  0.15085400  1
  O  O19  1  0.70494400  0.54904600  0.84914600  1
  O  O20  1  0.21217100  0.60181500  0.35039100  1
  O  O21  1  0.71217100  0.89818500  0.64960900  1
  O  O22  1  0.78782900  0.39818500  0.64960900  1
  O  O23  1  0.28782900  0.10181500  0.35039100  1
  O  O24  1  0.56596400  0.11360700  0.58350600  1
  O  O25  1  0.06596400  0.38639300  0.41649400  1
  O  O26  1  0.43403600  0.88639300  0.41649400  1
  O  O27  1  0.93403600  0.61360700  0.58350600  1
  O  O28  1  0.63696900  0.45742400  0.38148100  1
  O  O29  1  0.13696900  0.04257600  0.61851900  1
  O  O30  1  0.36303100  0.54257600  0.61851900  1
  O  O31  1  0.86303100  0.95742400  0.38148100  1
  O  O32  1  0.37068800  0.16164600  0.88087000  1
  O  O33  1  0.87068800  0.33835400  0.11913000  1
  O  O34  1  0.62931200  0.83835400  0.11913000  1
  O  O35  1  0.12931200  0.66164600  0.88087000  1
  O  O36  1  0.94208400  0.19714100  0.91667600  1
  O  O37  1  0.44208400  0.30285900  0.08332400  1
  O  O38  1  0.05791600  0.80285900  0.08332400  1
  O  O39  1  0.55791600  0.69714100  0.91667600  1
  O  O40  1  0.35129500  0.23311100  0.96164900  1
  O  O41  1  0.85129500  0.26688900  0.03835100  1
  O  O42  1  0.64870500  0.76688900  0.03835100  1
  O  O43  1  0.14870500  0.73311100  0.96164900  1
  O  O44  1  0.15704900  0.19495600  0.53832500  1
  O  O45  1  0.65704900  0.30504400  0.46167500  1
  O  O46  1  0.84295100  0.80504400  0.46167500  1
  O  O47  1  0.34295100  0.69495600  0.53832500  1
loop_
_geom_bond_atom_site_label_1
_geom_bond_atom_site_label_2
_geom_bond_distance
_geom_bond_site_symmetry_2
Cs0 O5 3.191101 1_555
Cs0 O12 3.273824 1_455
Cs0 O16 3.278316 1_455
Cs0 O32 3.324931 1_555
Cs0 O12 3.328468 1_555
Cs0 O8 3.335777 1_455
Cs0 O5 3.343757 1_455
Cs0 O8 3.388839 1_555
Cs1 O4 3.191101 1_655
Cs1 O13 3.273824 1_555
Cs1 O17 3.278316 1_555
Cs1 O33 3.324931 1_555
Cs1 O13 3.328468 1_655
Cs1 O9 3.335777 1_555
Cs1 O4 3.343757 1_555
Cs1 O9 3.388839 1_655
Cs2 O7 3.191101 1_555
Cs2 O14 3.273824 1_655
Cs2 O18 3.278316 1_655
Cs2 O34 3.324931 1_555
Cs2 O14 3.328468 1_555
Cs2 O10 3.335777 1_655
Cs2 O7 3.343757 1_655
Cs2 O10 3.388839 1_555
Cs3 O6 3.191101 1_455
Cs3 O15 3.273824 1_555
Cs3 O19 3.278316 1_555
Cs3 O35 3.324931 1_555
Cs3 O15 3.328468 1_455
Cs3 O11 3.335777 1_555
Cs3 O6 3.343757 1_555
Cs3 O11 3.388839 1_455
Cs4 O22 3.053556 1_455
Cs4 O22 3.136661 1_555
Cs4 O30 3.157466 1_555
Cs4 O25 3.182495 1_555
Cs4 O8 3.211880 1_555
Cs4 O8 3.262020 1_455
Cs5 O23 3.053556 1_555
Cs5 O23 3.136661 1_655
Cs5 O31 3.157466 1_545
Cs5 O24 3.182495 1_555
Cs5 O9 3.211880 1_655
Cs5 O9 3.262020 1_555
Cs6 O20 3.053556 1_655
Cs6 O20 3.136661 1_555
Cs6 O28 3.157466 1_555
Cs6 O27 3.182495 1_555
Cs6 O10 3.211880 1_555
Cs6 O10 3.262020 1_655
Cs7 O21 3.053556 1_555
Cs7 O21 3.136661 1_455
Cs7 O29 3.157466 1_565
Cs7 O26 3.182495 1_555
Cs7 O11 3.211880 1_455
Cs7 O11 3.262020 1_555
Cs8 O16 3.032777 1_465
Cs8 O32 3.171564 1_565
Cs8 O1 3.179071 1_555
Cs8 O38 3.189107 1_556
Cs8 O16 3.193325 1_565
Cs8 O1 3.257606 1_455
Cs9 O17 3.032777 1_555
Cs9 O33 3.171564 1_555
Cs9 O0 3.179071 1_655
Cs9 O39 3.189107 1_554
Cs9 O17 3.193325 1_655
Cs9 O0 3.257606 1_555
Cs10 O18 3.032777 1_645
Cs10 O34 3.171564 1_545
Cs10 O3 3.179071 1_555
Cs10 O36 3.189107 1_554
Cs10 O18 3.193325 1_545
Cs10 O3 3.257606 1_655
Cs11 O19 3.032777 1_555
Cs11 O35 3.171564 1_555
Cs11 O2 3.179071 1_455
Cs11 O37 3.189107 1_556
Cs11 O19 3.193325 1_455
Cs11 O2 3.257606 1_555
Cs12 O12 3.161273 1_455
Cs12 O6 3.241332 1_455
Cs12 O22 3.261885 1_455
Cs12 O6 3.329056 1_555
Cs12 O30 3.344371 1_555
Cs12 O2 3.346553 1_555
Cs12 O12 3.351800 1_555
Cs12 O32 3.364940 1_555
Cs12 O2 3.415284 1_455
Cs13 O13 3.161273 1_555
Cs13 O7 3.241332 1_545
Cs13 O23 3.261885 1_555
Cs13 O7 3.329056 1_645
Cs13 O31 3.344371 1_545
Cs13 O3 3.346553 1_655
Cs13 O13 3.351800 1_655
Cs13 O33 3.364940 1_555
Cs13 O3 3.415284 1_555
Cs14 O14 3.161273 1_655
Cs14 O4 3.241332 1_655
Cs14 O20 3.261885 1_655
Cs14 O4 3.329056 1_555
Cs14 O28 3.344371 1_555
Cs14 O0 3.346553 1_555
Cs14 O14 3.351800 1_555
Cs14 O34 3.364940 1_555
Cs14 O0 3.415284 1_655
Cs15 O15 3.161273 1_555
Cs15 O5 3.241332 1_565
Cs15 O21 3.261885 1_555
Cs15 O5 3.329056 1_465
Cs15 O29 3.344371 1_565
Cs15 O1 3.346553 1_455
Cs15 O15 3.351800 1_455
Cs15 O35 3.364940 1_555
Cs15 O1 3.415284 1_555
Mg0 O2 1.908903 1_555
Mg0 O36 1.995503 1_555
Mg0 O40 1.998175 1_555
Mg0 O41 1.999654 1_556
Mg1 O3 1.908903 1_555
Mg1 O37 1.995503 1_555
Mg1 O41 1.998175 1_455
Mg1 O40 1.999654 1_554
Mg2 O0 1.908903 1_555
Mg2 O38 1.995503 1_555
Mg2 O42 1.998175 1_555
Mg2 O43 1.999654 1_554
Mg3 O1 1.908903 1_555
Mg3 O39 1.995503 1_555
Mg3 O43 1.998175 1_655
Mg3 O42 1.999654 1_556
Mg4 O4 1.942603 1_555
Mg4 O20 1.948771 1_555
Mg4 O28 1.975442 1_555
Mg4 O25 2.029086 1_555
Mg5 O5 1.942603 1_555
Mg5 O21 1.948771 1_545
Mg5 O29 1.975442 1_655
Mg5 O24 2.029086 1_555
Mg6 O6 1.942603 1_555
Mg6 O22 1.948771 1_555
Mg6 O30 1.975442 1_555
Mg6 O27 2.029086 1_555
Mg7 O7 1.942603 1_555
Mg7 O23 1.948771 1_565
Mg7 O31 1.975442 1_455
Mg7 O26 2.029086 1_555
Mg8 O8 1.908867 1_555
Mg8 O24 1.993987 1_555
Mg8 O44 1.999142 1_655
Mg8 O45 2.002066 1_555
Mg9 O9 1.908867 1_555
Mg9 O25 1.993987 1_555
Mg9 O45 1.999142 1_555
Mg9 O44 2.002066 1_555
Mg10 O10 1.908867 1_555
Mg10 O26 1.993987 1_555
Mg10 O46 1.999142 1_455
Mg10 O47 2.002066 1_555
Mg11 O11 1.908867 1_555
Mg11 O27 1.993987 1_555
Mg11 O47 1.999142 1_555
Mg11 O46 2.002066 1_555
Mg12 O12 1.938591 1_555
Mg12 O16 1.945339 1_555
Mg12 O32 1.974612 1_555
Mg12 O36 2.022858 1_555
Mg13 O13 1.938591 1_555
Mg13 O17 1.945339 1_555
Mg13 O33 1.974612 1_455
Mg13 O37 2.022858 1_555
Mg14 O14 1.938591 1_555
Mg14 O18 1.945339 1_555
Mg14 O34 1.974612 1_555
Mg14 O38 2.022858 1_555
Mg15 O15 1.938591 1_555
Mg15 O19 1.945339 1_555
Mg15 O35 1.974612 1_655
Mg15 O39 2.022858 1_555
B0 O4 1.383118 1_555
B0 O17 1.392859 1_555
B0 O0 1.395724 1_555
B1 O5 1.383118 1_565
B1 O16 1.392859 1_565
B1 O1 1.395724 1_555
B2 O6 1.383118 1_555
B2 O19 1.392859 1_555
B2 O2 1.395724 1_555
B3 O7 1.383118 1_545
B3 O18 1.392859 1_545
B3 O3 1.395724 1_555
B4 O28 1.360345 1_555
B4 O25 1.401128 1_655
B4 O45 1.409564 1_555
B5 O29 1.360345 1_555
B5 O24 1.401128 1_555
B5 O44 1.409564 1_555
B6 O30 1.360345 1_555
B6 O27 1.401128 1_455
B6 O47 1.409564 1_555
B7 O31 1.360345 1_555
B7 O26 1.401128 1_555
B7 O46 1.409564 1_555
B8 O14 1.382599 1_555
B8 O10 1.393883 1_555
B8 O20 1.394555 1_555
B9 O15 1.382599 1_555
B9 O11 1.393883 1_555
B9 O21 1.394555 1_555
B10 O12 1.382599 1_555
B10 O8 1.393883 1_555
B10 O22 1.394555 1_555
B11 O13 1.382599 1_555
B11 O9 1.393883 1_555
B11 O23 1.394555 1_555
B12 O32 1.360295 1_555
B12 O36 1.400835 1_455
B12 O40 1.408841 1_555
B12 Cs12 3.242562 1_555
B13 O33 1.360295 1_555
B13 O37 1.400835 1_555
B13 O41 1.408841 1_555
B13 Cs13 3.242562 1_555
B14 O34 1.360295 1_555
B14 O38 1.400835 1_655
B14 O42 1.408841 1_555
B14 Cs14 3.242562 1_555
B15 O35 1.360295 1_555
B15 O39 1.400835 1_555
B15 O43 1.408841 1_555
B15 Cs15 3.242562 1_555
