# generated using pymatgen
data_Rb2Mn3O4
_symmetry_space_group_name_H-M   'P 1'
_cell_length_a   5.97898654
_cell_length_b   6.65294700
_cell_length_c   8.46408269
_cell_angle_alpha   113.15901637
_cell_angle_beta   100.95558417
_cell_angle_gamma   89.99884207
_symmetry_Int_Tables_number   1
_chemical_formula_structural   Rb2Mn3O4
_chemical_formula_sum   'Rb4 Mn6 O8'
_cell_volume   302.86755363
_cell_formula_units_Z   2
loop_
 _symmetry_equiv_pos_site_id
 _symmetry_equiv_pos_as_xyz
  1  'x, y, z'
loop_
 _atom_site_type_symbol
 _atom_site_label
 _atom_site_symmetry_multiplicity
 _atom_site_fract_x
 _atom_site_fract_y
 _atom_site_fract_z
 _atom_site_occupancy
  Rb  Rb0  1  0.50606758  0.50870066  0.76788145  1
  Rb  Rb1  1  0.99402733  0.74043199  0.23198922  1
  Rb  Rb2  1  0.49393232  0.49129937  0.23211839  1
  Rb  Rb3  1  0.00597290  0.25956869  0.76801097  1
  Mn  Mn0  1  0.24995262  0.97764182  -0.00020033  1
  Mn  Mn1  1  0.75004684  0.02235779  0.00020011  1
  Mn  Mn2  1  0.40712458  0.92127604  0.61405506  1
  Mn  Mn3  1  0.09305623  0.30713316  0.38613418  1
  Mn  Mn4  1  0.59287542  0.07872366  0.38594467  1
  Mn  Mn5  1  0.90694389  0.69286696  0.61386578  1
  O  O0  1  0.45477133  0.10448677  0.87855672  1
  O  O1  1  0.04548894  0.22595788  0.12161530  1
  O  O2  1  0.54522918  0.89551372  0.12144370  1
  O  O3  1  0.95451156  0.77404165  0.87838501  1
  O  O4  1  0.20949055  0.63598424  0.52156713  1
  O  O5  1  0.29053547  0.11435708  0.47847161  1
  O  O6  1  0.79050912  0.36401563  0.47843280  1
  O  O7  1  0.70946414  0.88564290  0.52152822  1
loop_
_geom_bond_atom_site_label_1
_geom_bond_atom_site_label_2
_geom_bond_distance
_geom_bond_site_symmetry_2
Mn0 O3 2.055814 1_454
Mn0 O2 2.055971 1_555
Mn0 O0 2.103287 1_564
Mn0 O1 2.103802 1_565
Mn1 O1 2.055819 1_655
Mn1 O0 2.055966 1_554
Mn1 O2 2.103283 1_545
Mn1 O3 2.103805 1_544
Mn2 O4 2.022727 1_555
Mn2 O0 2.046978 1_565
Mn2 O5 2.075667 1_565
Mn2 O7 2.080698 1_555
Mn3 O5 2.021740 1_555
Mn3 O1 2.047480 1_555
Mn3 O4 2.075895 1_555
Mn3 O6 2.080938 1_455
Mn4 O6 2.022727 1_555
Mn4 O2 2.046972 1_545
Mn4 O7 2.075666 1_545
Mn4 O5 2.080700 1_555
Mn5 O7 2.021741 1_555
Mn5 O3 2.047483 1_555
Mn5 O6 2.075897 1_555
Mn5 O4 2.080936 1_655
O0 Rb3 2.990871 1_555
O0 Rb2 3.051081 1_556
O0 Rb0 3.208456 1_555
O1 Rb2 2.988045 1_555
O1 Rb3 3.053052 1_554
O1 Rb1 3.205754 1_455
O2 Rb1 2.990869 1_555
O2 Rb0 3.051085 1_554
O2 Rb2 3.208457 1_555
O3 Rb0 2.988047 1_555
O3 Rb1 3.053048 1_556
O3 Rb3 3.205746 1_655
O4 Rb0 2.862053 1_555
O4 Rb1 2.879128 1_455
O4 Rb2 3.090249 1_555
O5 Rb1 2.862883 1_445
O5 Rb0 2.879141 1_555
O5 Rb3 3.091350 1_555
O6 Rb2 2.862054 1_555
O6 Rb3 2.879128 1_655
O6 Rb0 3.090247 1_555
O7 Rb3 2.862888 1_665
O7 Rb2 2.879141 1_555
O7 Rb1 3.091350 1_555
