# generated using pymatgen
data_DyMgTiS4
_symmetry_space_group_name_H-M   'P 1'
_cell_length_a   7.75151795
_cell_length_b   7.60720666
_cell_length_c   7.60030167
_cell_angle_alpha   58.66867511
_cell_angle_beta   59.36751187
_cell_angle_gamma   59.34563601
_symmetry_Int_Tables_number   1
_chemical_formula_structural   DyMgTiS4
_chemical_formula_sum   'Dy2 Mg2 Ti2 S8'
_cell_volume   310.56953774
_cell_formula_units_Z   2
loop_
 _symmetry_equiv_pos_site_id
 _symmetry_equiv_pos_as_xyz
  1  'x, y, z'
loop_
 _atom_site_type_symbol
 _atom_site_label
 _atom_site_symmetry_multiplicity
 _atom_site_fract_x
 _atom_site_fract_y
 _atom_site_fract_z
 _atom_site_occupancy
  Dy  Dy0  1  0.50000300  0.50001200  0.49998000  1
  Dy  Dy1  1  0.00000100  0.49999000  0.50001000  1
  Mg  Mg0  1  0.87678200  0.87321200  0.87322900  1
  Mg  Mg1  1  0.12322000  0.12678800  0.12677100  1
  Ti  Ti0  1  0.49999600  0.50000300  0.00000300  1
  Ti  Ti1  1  0.50000100  0.99999200  0.50001100  1
  S  S0  1  0.72118500  0.75275600  0.75273300  1
  S  S1  1  0.26789500  0.23286300  0.73132500  1
  S  S2  1  0.26797900  0.73104300  0.23298900  1
  S  S3  1  0.72669100  0.24727900  0.24724200  1
  S  S4  1  0.73200600  0.26895500  0.76700000  1
  S  S5  1  0.27330700  0.75272300  0.75275200  1
  S  S6  1  0.27881700  0.24723300  0.24728100  1
  S  S7  1  0.73211900  0.76714400  0.26867500  1
loop_
_geom_bond_atom_site_label_1
_geom_bond_atom_site_label_2
_geom_bond_distance
_geom_bond_site_symmetry_2
Dy0 S2 2.688545 1_555
Dy0 S4 2.688578 1_555
Dy0 S7 2.692056 1_555
Dy0 S1 2.692085 1_555
Dy0 S3 2.725789 1_555
Dy0 S5 2.725852 1_555
Dy1 S1 2.689680 1_555
Dy1 S7 2.689717 1_455
Dy1 S2 2.690794 1_555
Dy1 S4 2.690794 1_455
Dy1 S6 2.725897 1_555
Dy1 S0 2.725912 1_455
Mg0 S7 2.430580 1_556
Mg0 S4 2.434101 1_565
Mg0 S5 2.501587 1_655
Mg0 S0 2.501682 1_555
Mg1 S1 2.430576 1_554
Mg1 S2 2.434120 1_545
Mg1 S3 2.501616 1_455
Mg1 S6 2.501700 1_555
S0 Ti1 2.544999 1_555
S0 Ti0 2.547277 1_556
S1 Ti1 2.496291 1_545
S2 Ti0 2.495431 1_555
S3 Ti0 2.545180 1_555
S3 Ti1 2.547435 1_545
S4 Ti0 2.495565 1_556
S5 Ti0 2.545212 1_556
S5 Ti1 2.547356 1_555
S6 Ti1 2.545043 1_545
S6 Ti0 2.547317 1_555
S7 Ti1 2.496286 1_555
