# generated using pymatgen
data_FeH2(CO3)2
_symmetry_space_group_name_H-M   'P 1'
_cell_length_a   7.17333800
_cell_length_b   8.47132400
_cell_length_c   9.33732513
_cell_angle_alpha   84.04825503
_cell_angle_beta   90.00000000
_cell_angle_gamma   90.00000000
_symmetry_Int_Tables_number   1
_chemical_formula_structural   FeH2(CO3)2
_chemical_formula_sum   'Fe4 H8 C8 O24'
_cell_volume   564.34892926
_cell_formula_units_Z   4
loop_
 _symmetry_equiv_pos_site_id
 _symmetry_equiv_pos_as_xyz
  1  'x, y, z'
loop_
 _atom_site_type_symbol
 _atom_site_label
 _atom_site_symmetry_multiplicity
 _atom_site_fract_x
 _atom_site_fract_y
 _atom_site_fract_z
 _atom_site_occupancy
  Fe  Fe0  1  0.50000000  0.50000000  0.50000000  1
  Fe  Fe1  1  0.00000000  0.50000000  0.00000000  1
  Fe  Fe2  1  0.00000000  0.00000000  0.50000000  1
  Fe  Fe3  1  0.50000000  0.00000000  0.00000000  1
  H  H0  1  0.70948800  0.41344200  0.77072700  1
  H  H1  1  0.20948800  0.58655800  0.72927300  1
  H  H2  1  0.29051200  0.58655800  0.22927300  1
  H  H3  1  0.79051200  0.41344200  0.27072700  1
  H  H4  1  0.50396700  0.82705400  0.63332600  1
  H  H5  1  0.00396700  0.17294600  0.86667400  1
  H  H6  1  0.49603300  0.17294600  0.36667400  1
  H  H7  1  0.99603300  0.82705400  0.13332600  1
  C  C0  1  0.76849100  0.52990100  0.73025200  1
  C  C1  1  0.26849100  0.47009900  0.76974800  1
  C  C2  1  0.23150900  0.47009900  0.26974800  1
  C  C3  1  0.73150900  0.52990100  0.23025200  1
  C  C4  1  0.37650100  0.82604000  0.56632400  1
  C  C5  1  0.87650100  0.17396000  0.93367600  1
  C  C6  1  0.62349900  0.17396000  0.43367600  1
  C  C7  1  0.12349900  0.82604000  0.06632400  1
  O  O0  1  0.70946200  0.59592400  0.61016900  1
  O  O1  1  0.20946200  0.40407600  0.88983100  1
  O  O2  1  0.29053800  0.40407600  0.38983100  1
  O  O3  1  0.79053800  0.59592400  0.11016900  1
  O  O4  1  0.89038200  0.59146300  0.80567900  1
  O  O5  1  0.39038200  0.40853700  0.69432100  1
  O  O6  1  0.10961800  0.40853700  0.19432100  1
  O  O7  1  0.60961800  0.59146300  0.30567900  1
  O  O8  1  0.34558000  0.70516700  0.49912500  1
  O  O9  1  0.84558000  0.29483300  0.00087500  1
  O  O10  1  0.65442000  0.29483300  0.50087500  1
  O  O11  1  0.15442000  0.70516700  0.99912500  1
  O  O12  1  0.27271400  0.94624200  0.56700500  1
  O  O13  1  0.77271400  0.05375800  0.93299500  1
  O  O14  1  0.72728600  0.05375800  0.43299500  1
  O  O15  1  0.22728600  0.94624200  0.06700500  1
  O  O16  1  0.00763200  0.81680500  0.40405700  1
  O  O17  1  0.50763200  0.18319500  0.09594300  1
  O  O18  1  0.99236800  0.18319500  0.59594300  1
  O  O19  1  0.49236800  0.81680500  0.90405700  1
  O  O20  1  0.08613500  0.04949100  0.31850600  1
  O  O21  1  0.58613500  0.95050900  0.18149400  1
  O  O22  1  0.91386500  0.95050900  0.68149400  1
  O  O23  1  0.41386500  0.04949100  0.81850600  1
loop_
_geom_bond_atom_site_label_1
_geom_bond_atom_site_label_2
_geom_bond_distance
_geom_bond_site_symmetry_2
Fe0 O0 2.037032 1_555
Fe0 O2 2.037032 1_555
Fe0 O5 2.054090 1_555
Fe0 O7 2.054090 1_555
Fe0 O8 2.060317 1_555
Fe0 O10 2.060317 1_555
Fe1 O3 2.037032 1_455
Fe1 O1 2.037032 1_554
Fe1 O6 2.054090 1_555
Fe1 O4 2.054090 1_454
Fe1 O11 2.060317 1_554
Fe1 O9 2.060317 1_455
Fe2 O22 1.811657 1_445
Fe2 O20 1.811657 1_555
Fe2 O16 1.871435 1_545
Fe2 O18 1.871435 1_455
Fe2 O12 2.089672 1_545
Fe2 O14 2.089672 1_455
Fe3 O23 1.811657 1_554
Fe3 O21 1.811657 1_545
Fe3 O17 1.871435 1_555
Fe3 O19 1.871435 1_544
Fe3 O15 2.089672 1_545
Fe3 O13 2.089672 1_554
C0 H0 1.103608 1_555
C0 O4 1.268337 1_555
C0 O0 1.272507 1_555
C1 H1 1.103608 1_555
C1 O5 1.268337 1_555
C1 O1 1.272507 1_555
C2 H2 1.103608 1_555
C2 O6 1.268337 1_555
C2 O2 1.272507 1_555
C3 H3 1.103608 1_555
C3 O7 1.268337 1_555
C3 O3 1.272507 1_555
C4 H4 1.108439 1_555
C4 O12 1.261957 1_555
C4 O8 1.274608 1_555
C5 H5 1.108439 1_655
C5 O13 1.261957 1_555
C5 O9 1.274608 1_556
C6 H6 1.108439 1_555
C6 O14 1.261957 1_555
C6 O10 1.274608 1_555
C7 H7 1.108439 1_455
C7 O15 1.261957 1_555
C7 O11 1.274608 1_554
