# generated using pymatgen
data_Al4Si2H(O3F)3
_symmetry_space_group_name_H-M   'P 1'
_cell_length_a   4.72164800
_cell_length_b   8.49101125
_cell_length_c   8.92861016
_cell_angle_alpha   89.97521332
_cell_angle_beta   90.00000000
_cell_angle_gamma   90.00000000
_symmetry_Int_Tables_number   1
_chemical_formula_structural   Al4Si2H(O3F)3
_chemical_formula_sum   'Al8 Si4 H2 O18 F6'
_cell_volume   357.96193260
_cell_formula_units_Z   2
loop_
 _symmetry_equiv_pos_site_id
 _symmetry_equiv_pos_as_xyz
  1  'x, y, z'
loop_
 _atom_site_type_symbol
 _atom_site_label
 _atom_site_symmetry_multiplicity
 _atom_site_fract_x
 _atom_site_fract_y
 _atom_site_fract_z
 _atom_site_occupancy
  Al  Al0  1  0.09762000  0.58296200  0.86842000  1
  Al  Al1  1  0.09629000  0.91783800  0.86906300  1
  Al  Al2  1  0.40254600  0.92055500  0.36731700  1
  Al  Al3  1  0.40532900  0.58295400  0.37084400  1
  Al  Al4  1  0.59762000  0.41703800  0.63158000  1
  Al  Al5  1  0.59629000  0.08216200  0.63093700  1
  Al  Al6  1  0.90254600  0.07944500  0.13268300  1
  Al  Al7  1  0.90532900  0.41704600  0.12915600  1
  Si  Si0  1  0.10049400  0.25083600  0.44321500  1
  Si  Si1  1  0.39731300  0.25063800  0.93933700  1
  Si  Si2  1  0.60049400  0.74916400  0.05678500  1
  Si  Si3  1  0.89731300  0.74936200  0.56066300  1
  H  H0  1  0.49181300  0.16695300  0.25296500  1
  H  H1  1  0.99181300  0.83304700  0.24703500  1
  O  O0  1  0.05195000  0.25209000  0.25746600  1
  O  O1  1  0.08976800  0.93339200  0.24707500  1
  O  O2  1  0.20190800  0.74753200  0.46777100  1
  O  O3  1  0.20535000  0.09492900  0.98705700  1
  O  O4  1  0.20932800  0.40810300  0.98838800  1
  O  O5  1  0.28720200  0.09438200  0.49375500  1
  O  O6  1  0.29093700  0.40803700  0.48987500  1
  O  O7  1  0.29462500  0.74903100  0.96754500  1
  O  O8  1  0.46330200  0.25055800  0.75667700  1
  O  O9  1  0.55195000  0.74791000  0.24253400  1
  O  O10  1  0.58976800  0.06660800  0.25292500  1
  O  O11  1  0.70190900  0.25246800  0.03222900  1
  O  O12  1  0.70932800  0.59189700  0.51161200  1
  O  O13  1  0.70535000  0.90507100  0.51294300  1
  O  O14  1  0.79093700  0.59196300  0.01012500  1
  O  O15  1  0.78720200  0.90561800  0.00624500  1
  O  O16  1  0.79462500  0.25096900  0.53245500  1
  O  O17  1  0.96330200  0.74944200  0.74332300  1
  F  F0  1  0.09896300  0.55831800  0.24736500  1
  F  F1  1  0.40621000  0.55582500  0.74957300  1
  F  F2  1  0.40405000  0.94452800  0.75034100  1
  F  F3  1  0.59896300  0.44168200  0.25263500  1
  F  F4  1  0.90405000  0.05547200  0.74965900  1
  F  F5  1  0.90621000  0.44417500  0.75042700  1
loop_
_geom_bond_atom_site_label_1
_geom_bond_atom_site_label_2
_geom_bond_distance
_geom_bond_site_symmetry_2
Al0 F1 1.817230 1_555
Al0 F5 1.821124 1_455
Al0 O4 1.904889 1_555
Al0 O7 1.907356 1_555
Al0 O17 1.909614 1_455
Al0 O14 1.924467 1_456
Al1 F2 1.812843 1_555
Al1 F4 1.823503 1_465
Al1 O3 1.907224 1_565
Al1 O15 1.908078 1_456
Al1 O17 1.923687 1_455
Al1 O7 1.924457 1_555
Al2 O1 1.829044 1_555
Al2 O10 1.833432 1_565
Al2 O5 1.936743 1_565
Al2 O13 1.936981 1_555
Al2 O2 1.964471 1_555
Al2 O9 1.972133 1_555
Al3 F0 1.830838 1_555
Al3 F3 1.841154 1_555
Al3 O2 1.904036 1_555
Al3 O6 1.904141 1_555
Al3 O12 1.909413 1_555
Al3 O9 1.937047 1_555
Al4 F5 1.817230 1_555
Al4 F1 1.821124 1_555
Al4 O12 1.904889 1_555
Al4 O16 1.907356 1_555
Al4 O8 1.909614 1_555
Al4 O6 1.924467 1_555
Al5 F4 1.812843 1_555
Al5 F2 1.823503 1_545
Al5 O13 1.907224 1_545
Al5 O5 1.908078 1_555
Al5 O8 1.923687 1_555
Al5 O16 1.924457 1_555
Al6 O10 1.829044 1_555
Al6 O1 1.833432 1_645
Al6 O15 1.936743 1_545
Al6 O3 1.936981 1_654
Al6 O11 1.964469 1_555
Al6 O0 1.972133 1_655
Al7 F3 1.830838 1_555
Al7 F0 1.841154 1_655
Al7 O11 1.904033 1_555
Al7 O14 1.904141 1_555
Al7 O4 1.909413 1_654
Al7 O0 1.937047 1_655
H0 O10 0.969469 1_555
H1 O1 0.969469 1_655
O0 Si0 1.674273 1_555
O2 Si3 1.660284 1_455
O3 Si1 1.658493 1_555
O4 Si1 1.663675 1_555
O5 Si0 1.656823 1_555
O6 Si0 1.662616 1_555
O7 Si2 1.649426 1_556
O8 Si1 1.660396 1_555
O9 Si2 1.674273 1_555
O11 Si1 1.660288 1_554
O12 Si3 1.663675 1_555
O13 Si3 1.658493 1_555
O14 Si2 1.662616 1_555
O15 Si2 1.656823 1_555
O16 Si0 1.649426 1_655
O17 Si3 1.660396 1_555
