# generated using pymatgen
data_K2NbV(PO5)2
_symmetry_space_group_name_H-M   'P 1'
_cell_length_a   6.55366600
_cell_length_b   10.94595500
_cell_length_c   13.15462500
_cell_angle_alpha   90.00000000
_cell_angle_beta   90.00000000
_cell_angle_gamma   90.00000000
_symmetry_Int_Tables_number   1
_chemical_formula_structural   K2NbV(PO5)2
_chemical_formula_sum   'K8 Nb4 V4 P8 O40'
_cell_volume   943.66193016
_cell_formula_units_Z   4
loop_
 _symmetry_equiv_pos_site_id
 _symmetry_equiv_pos_as_xyz
  1  'x, y, z'
loop_
 _atom_site_type_symbol
 _atom_site_label
 _atom_site_symmetry_multiplicity
 _atom_site_fract_x
 _atom_site_fract_y
 _atom_site_fract_z
 _atom_site_occupancy
  K  K0  1  0.72430000  0.30464300  0.87615000  1
  K  K1  1  0.27570000  0.80464300  0.12385000  1
  K  K2  1  0.22430000  0.80464300  0.62385000  1
  K  K3  1  0.77570000  0.30464300  0.37615000  1
  K  K4  1  0.81551200  0.06823400  0.60271800  1
  K  K5  1  0.18448800  0.56823400  0.39728200  1
  K  K6  1  0.31551200  0.56823400  0.89728200  1
  K  K7  1  0.68448800  0.06823400  0.10271800  1
  Nb  Nb0  1  0.00557000  0.00353400  0.86908600  1
  Nb  Nb1  1  0.99443000  0.50353400  0.13091400  1
  Nb  Nb2  1  0.50557000  0.50353400  0.63091400  1
  Nb  Nb3  1  0.49443000  0.00353400  0.36908600  1
  V  V0  1  0.25112700  0.25124800  0.74622200  1
  V  V1  1  0.74887300  0.75124800  0.25377800  1
  V  V2  1  0.75112700  0.75124800  0.75377800  1
  V  V3  1  0.24887300  0.25124800  0.24622200  1
  P  P0  1  0.99984000  0.50272900  0.68306300  1
  P  P1  1  0.00016000  0.00272900  0.31693700  1
  P  P2  1  0.49984000  0.00272900  0.81693700  1
  P  P3  1  0.50016000  0.50272900  0.18306300  1
  P  P4  1  0.16399100  0.25518200  0.99852000  1
  P  P5  1  0.83600900  0.75518200  0.00148000  1
  P  P6  1  0.66399100  0.75518200  0.50148000  1
  P  P7  1  0.33600900  0.25518200  0.49852000  1
  O  O0  1  0.46202700  0.38186900  0.72704000  1
  O  O1  1  0.53797300  0.88186900  0.27296000  1
  O  O2  1  0.96202700  0.88186900  0.77296000  1
  O  O3  1  0.03797300  0.38186900  0.22704000  1
  O  O4  1  0.03103200  0.37349500  0.01082300  1
  O  O5  1  0.96896800  0.87349500  0.98917700  1
  O  O6  1  0.53103200  0.87349500  0.48917700  1
  O  O7  1  0.46896800  0.37349500  0.51082300  1
  O  O8  1  0.29954700  0.23285500  0.09284900  1
  O  O9  1  0.70045300  0.73285500  0.90715100  1
  O  O10  1  0.79954700  0.73285500  0.40715100  1
  O  O11  1  0.20045300  0.23285500  0.59284900  1
  O  O12  1  0.03392300  0.38771000  0.74767500  1
  O  O13  1  0.96607700  0.88771000  0.25232500  1
  O  O14  1  0.53392300  0.88771000  0.75232500  1
  O  O15  1  0.46607700  0.38771000  0.24767500  1
  O  O16  1  0.53668300  0.62801200  0.72544900  1
  O  O17  1  0.46331700  0.12801200  0.27455100  1
  O  O18  1  0.03668300  0.12801200  0.77455100  1
  O  O19  1  0.96331700  0.62801200  0.22544900  1
  O  O20  1  0.96522400  0.61342400  0.75392800  1
  O  O21  1  0.03477600  0.11342400  0.24607200  1
  O  O22  1  0.46522400  0.11342400  0.74607200  1
  O  O23  1  0.53477600  0.61342400  0.25392800  1
  O  O24  1  0.81319200  0.48155400  0.61027500  1
  O  O25  1  0.18680800  0.98155400  0.38972500  1
  O  O26  1  0.31319200  0.98155400  0.88972500  1
  O  O27  1  0.68680800  0.48155400  0.11027500  1
  O  O28  1  0.30082700  0.27275100  0.90321300  1
  O  O29  1  0.69917300  0.77275100  0.09678700  1
  O  O30  1  0.80082700  0.77275100  0.59678700  1
  O  O31  1  0.19917300  0.27275100  0.40321300  1
  O  O32  1  0.18746500  0.53157100  0.61306100  1
  O  O33  1  0.81253500  0.03157100  0.38693900  1
  O  O34  1  0.68746500  0.03157100  0.88693900  1
  O  O35  1  0.31253500  0.53157100  0.11306100  1
  O  O36  1  0.01118700  0.14659100  0.98457200  1
  O  O37  1  0.98881300  0.64659100  0.01542800  1
  O  O38  1  0.51118700  0.64659100  0.51542800  1
  O  O39  1  0.48881300  0.14659100  0.48457200  1
loop_
_geom_bond_atom_site_label_1
_geom_bond_atom_site_label_2
_geom_bond_distance
_geom_bond_site_symmetry_2
K0 O0 2.741610 1_555
K0 O4 2.783422 1_656
K0 O12 2.792934 1_655
K0 O28 2.819733 1_555
K0 O36 2.926124 1_655
K0 O34 3.002123 1_555
K0 O18 3.116968 1_655
K0 O22 3.192456 1_555
K1 O1 2.741610 1_555
K1 O5 2.783422 1_454
K1 O13 2.792934 1_455
K1 O29 2.819733 1_555
K1 O37 2.926124 1_455
K1 O35 3.002123 1_555
K1 O19 3.116968 1_455
K1 O23 3.192456 1_555
K2 O2 2.741610 1_455
K2 O6 2.783422 1_555
K2 O14 2.792934 1_555
K2 O30 2.819733 1_455
K2 O38 2.926124 1_555
K2 O32 3.002123 1_555
K2 O16 3.116968 1_555
K2 O20 3.192456 1_455
K3 O3 2.741610 1_655
K3 O7 2.783422 1_555
K3 O15 2.792934 1_555
K3 O31 2.819733 1_655
K3 O39 2.926124 1_555
K3 O33 3.002123 1_555
K3 O17 3.116968 1_555
K3 O21 3.192456 1_655
K4 O18 2.763791 1_655
K4 O39 2.781236 1_555
K4 O33 2.866787 1_555
K4 O22 3.011794 1_555
K4 O11 3.102936 1_655
K4 O2 3.177829 1_545
K4 O6 3.201638 1_545
K4 O30 3.236716 1_545
K4 O14 3.344155 1_545
K5 O19 2.763791 1_455
K5 O38 2.781236 1_555
K5 O32 2.866787 1_555
K5 O23 3.011794 1_555
K5 O10 3.102936 1_455
K5 O3 3.177829 1_555
K5 O7 3.201638 1_555
K5 O31 3.236716 1_555
K5 O15 3.344155 1_555
K6 O16 2.763791 1_555
K6 O37 2.781236 1_456
K6 O35 2.866787 1_556
K6 O20 3.011794 1_455
K6 O9 3.102936 1_555
K6 O0 3.177829 1_555
K6 O4 3.201638 1_556
K6 O28 3.236716 1_555
K6 O12 3.344155 1_555
K7 O17 2.763791 1_555
K7 O36 2.781236 1_654
K7 O34 2.866787 1_554
K7 O21 3.011794 1_655
K7 O8 3.102936 1_555
K7 O1 3.177829 1_545
K7 O5 3.201638 1_544
K7 O29 3.236716 1_545
K7 O13 3.344155 1_545
Nb0 O18 1.855947 1_555
Nb0 O2 1.858475 1_445
Nb0 O26 2.048429 1_545
Nb0 O34 2.120268 1_455
Nb0 O5 2.139913 1_445
Nb0 O36 2.182035 1_555
Nb1 O19 1.855947 1_555
Nb1 O3 1.858475 1_655
Nb1 O27 2.048429 1_555
Nb1 O35 2.120268 1_655
Nb1 O4 2.139913 1_655
Nb1 O37 2.182035 1_555
Nb2 O16 1.855947 1_555
Nb2 O0 1.858475 1_555
Nb2 O24 2.048429 1_555
Nb2 O32 2.120268 1_555
Nb2 O7 2.139913 1_555
Nb2 O38 2.182035 1_555
Nb3 O17 1.855947 1_555
Nb3 O1 1.858475 1_545
Nb3 O25 2.048429 1_545
Nb3 O33 2.120268 1_555
Nb3 O6 2.139913 1_545
Nb3 O39 2.182035 1_555
O0 V0 2.004572 1_555
O1 V1 2.004572 1_555
O2 V2 2.004572 1_555
O3 V3 2.004572 1_555
O4 P4 1.569276 1_554
O5 P5 1.569276 1_556
O6 P6 1.569276 1_555
O7 P7 1.569276 1_555
O8 P4 1.545542 1_554
O8 V3 2.054602 1_555
O9 P5 1.545542 1_556
O9 V2 2.054602 1_555
O10 P6 1.545542 1_555
O10 V1 2.054602 1_555
O11 P7 1.545542 1_555
O11 V0 2.054602 1_555
O12 P0 1.535372 1_455
O12 V0 2.063451 1_555
O13 P1 1.535372 1_665
O13 V1 2.063451 1_555
O14 P2 1.535372 1_565
O14 V2 2.063451 1_555
O15 P3 1.535372 1_555
O15 V3 2.063451 1_555
O16 V2 1.983339 1_555
O17 V3 1.983339 1_555
O18 V0 1.983339 1_555
O19 V1 1.983339 1_555
O20 P0 1.545508 1_555
O20 V2 2.060260 1_555
O21 P1 1.545508 1_555
O21 V3 2.060260 1_555
O22 P2 1.545508 1_555
O22 V0 2.060260 1_555
O23 P3 1.545508 1_555
O23 V1 2.060260 1_555
O24 P0 1.570610 1_555
O25 P1 1.570610 1_565
O26 P2 1.570610 1_565
O27 P3 1.570610 1_555
O28 P4 1.553392 1_555
O28 V0 2.103893 1_555
O29 P5 1.553392 1_555
O29 V1 2.103893 1_555
O30 P6 1.553392 1_555
O30 V2 2.103893 1_555
O31 P7 1.553392 1_555
O31 V3 2.103893 1_555
O32 P0 1.568320 1_455
O33 P1 1.568320 1_655
O34 P2 1.568320 1_555
O35 P3 1.568320 1_555
O36 P4 1.565045 1_555
O37 P5 1.565045 1_555
O38 P6 1.565045 1_555
O39 P7 1.565045 1_555
