# generated using pymatgen
data_Ca5Mg
_symmetry_space_group_name_H-M   'P 1'
_cell_length_a   19.80917188
_cell_length_b   19.80917188
_cell_length_c   12.37519826
_cell_angle_alpha   90.00000000
_cell_angle_beta   90.00000000
_cell_angle_gamma   157.01843200
_symmetry_Int_Tables_number   1
_chemical_formula_structural   Ca5Mg
_chemical_formula_sum   'Ca40 Mg8'
_cell_volume   1895.97902896
_cell_formula_units_Z   8
loop_
 _symmetry_equiv_pos_site_id
 _symmetry_equiv_pos_as_xyz
  1  'x, y, z'
loop_
 _atom_site_type_symbol
 _atom_site_label
 _atom_site_symmetry_multiplicity
 _atom_site_fract_x
 _atom_site_fract_y
 _atom_site_fract_z
 _atom_site_occupancy
  Ca  Ca0_0  1  0.99898818  0.50101182  0.00000000  1
  Ca  Ca0_1  1  0.99898818  0.50101182  0.50000000  1
  Ca  Ca0_2  1  0.99898818  0.00101182  0.00000000  1
  Ca  Ca0_3  1  0.99898818  0.00101182  0.50000000  1
  Ca  Ca0_4  1  0.49898818  0.50101181  0.00000000  1
  Ca  Ca0_5  1  0.49898818  0.50101181  0.50000000  1
  Ca  Ca0_6  1  0.49898818  0.00101182  0.00000000  1
  Ca  Ca0_7  1  0.49898818  0.00101182  0.50000000  1
  Ca  Ca1_0  1  0.16307665  0.33692335  0.00000000  1
  Ca  Ca1_1  1  0.16307665  0.33692335  0.50000000  1
  Ca  Ca1_2  1  0.16307665  0.83692335  0.00000000  1
  Ca  Ca1_3  1  0.16307665  0.83692335  0.50000000  1
  Ca  Ca1_4  1  0.66307665  0.33692335  0.00000000  1
  Ca  Ca1_5  1  0.66307665  0.33692335  0.50000000  1
  Ca  Ca1_6  1  0.66307665  0.83692335  0.00000000  1
  Ca  Ca1_7  1  0.66307665  0.83692335  0.50000000  1
  Ca  Ca2_0  1  0.33289731  0.16710269  0.00000000  1
  Ca  Ca2_1  1  0.33289731  0.16710269  0.50000000  1
  Ca  Ca2_2  1  0.33289731  0.66710269  0.00000000  1
  Ca  Ca2_3  1  0.33289731  0.66710269  0.50000000  1
  Ca  Ca2_4  1  0.83289731  0.16710269  0.00000000  1
  Ca  Ca2_5  1  0.83289731  0.16710269  0.50000000  1
  Ca  Ca2_6  1  0.83289731  0.66710269  0.00000000  1
  Ca  Ca2_7  1  0.83289731  0.66710269  0.50000000  1
  Ca  Ca3_0  1  0.06227064  0.43772986  0.25000000  1
  Ca  Ca3_1  1  0.06227064  0.43772986  0.75000000  1
  Ca  Ca3_2  1  0.06227064  0.93772985  0.25000000  1
  Ca  Ca3_3  1  0.06227064  0.93772985  0.75000000  1
  Ca  Ca3_4  1  0.56227064  0.43772985  0.25000000  1
  Ca  Ca3_5  1  0.56227064  0.43772985  0.75000000  1
  Ca  Ca3_6  1  0.56227064  0.93772985  0.25000000  1
  Ca  Ca3_7  1  0.56227064  0.93772985  0.75000000  1
  Ca  Ca4_0  1  0.21941348  0.28058651  0.25000000  1
  Ca  Ca4_1  1  0.21941348  0.28058651  0.75000000  1
  Ca  Ca4_2  1  0.21941348  0.78058651  0.25000000  1
  Ca  Ca4_3  1  0.21941348  0.78058651  0.75000000  1
  Ca  Ca4_4  1  0.71941348  0.28058651  0.25000000  1
  Ca  Ca4_5  1  0.71941348  0.28058651  0.75000000  1
  Ca  Ca4_6  1  0.71941348  0.78058651  0.25000000  1
  Ca  Ca4_7  1  0.71941348  0.78058651  0.75000000  1
  Mg  Mg0_0  1  0.39002022  0.10997977  0.25000000  1
  Mg  Mg0_1  1  0.39002022  0.10997977  0.75000000  1
  Mg  Mg0_2  1  0.39002022  0.60997978  0.25000000  1
  Mg  Mg0_3  1  0.39002022  0.60997978  0.75000000  1
  Mg  Mg0_4  1  0.89002022  0.10997977  0.25000000  1
  Mg  Mg0_5  1  0.89002022  0.10997977  0.75000000  1
  Mg  Mg0_6  1  0.89002022  0.60997977  0.25000000  1
  Mg  Mg0_7  1  0.89002022  0.60997977  0.75000000  1
loop_
_geom_bond_atom_site_label_1
_geom_bond_atom_site_label_2
_geom_bond_distance
_geom_bond_site_symmetry_2
Ca0_0 Ca2_2 3.808646 1_655
Ca0_0 Ca2_4 3.808646 1_555
Ca0_0 Ca4_3 3.844880 1_654
Ca0_0 Ca4_5 3.844880 1_554
Ca0_0 Ca4_2 3.844880 1_655
Ca0_0 Ca4_4 3.844880 1_555
Ca0_0 Ca1_2 3.875351 1_655
Ca0_0 Ca1_4 3.875351 1_555
Ca0_0 Ca0_6 3.946191 1_665
Ca0_0 Ca0_6 3.946191 1_555
Ca0_0 Ca3_1 3.950681 1_654
Ca0_0 Ca3_0 3.950681 1_655
Ca0_1 Ca2_3 3.808646 1_655
Ca0_1 Ca2_5 3.808646 1_555
Ca0_1 Ca4_2 3.844880 1_655
Ca0_1 Ca4_3 3.844880 1_655
Ca0_1 Ca4_4 3.844880 1_555
Ca0_1 Ca4_5 3.844880 1_555
Ca0_1 Ca1_3 3.875351 1_655
Ca0_1 Ca1_5 3.875351 1_555
Ca0_1 Ca0_7 3.946191 1_665
Ca0_1 Ca0_7 3.946191 1_555
Ca0_1 Ca3_0 3.950681 1_655
Ca0_1 Ca3_1 3.950681 1_655
Ca0_2 Ca2_0 3.808646 1_655
Ca0_2 Ca2_6 3.808646 1_545
Ca0_2 Ca4_1 3.844880 1_654
Ca0_2 Ca4_7 3.844880 1_544
Ca0_2 Ca4_0 3.844880 1_655
Ca0_2 Ca4_6 3.844880 1_545
Ca0_2 Ca1_6 3.875351 1_545
Ca0_2 Ca1_0 3.875351 1_655
Ca0_2 Ca0_4 3.946191 1_655
Ca0_2 Ca0_4 3.946191 1_545
Ca0_2 Ca3_3 3.950681 1_644
Ca0_2 Ca3_2 3.950681 1_645
Ca0_3 Ca2_1 3.808646 1_655
Ca0_3 Ca2_7 3.808646 1_545
Ca0_3 Ca4_0 3.844880 1_655
Ca0_3 Ca4_6 3.844880 1_545
Ca0_3 Ca4_1 3.844880 1_655
Ca0_3 Ca4_7 3.844880 1_545
Ca0_3 Ca1_7 3.875351 1_545
Ca0_3 Ca1_1 3.875351 1_655
Ca0_3 Ca0_5 3.946191 1_655
Ca0_3 Ca0_5 3.946191 1_545
Ca0_3 Ca3_2 3.950681 1_645
Ca0_3 Ca3_3 3.950681 1_645
Ca0_4 Ca2_0 3.808646 1_555
Ca0_4 Ca2_6 3.808646 1_555
Ca0_4 Ca4_1 3.844880 1_554
Ca0_4 Ca4_7 3.844880 1_554
Ca0_4 Ca4_6 3.844880 1_555
Ca0_4 Ca4_0 3.844880 1_555
Ca0_4 Ca1_6 3.875351 1_555
Ca0_4 Ca1_0 3.875351 1_555
Ca0_4 Ca3_5 3.950681 1_554
Ca0_4 Ca3_4 3.950681 1_555
Ca0_5 Ca2_1 3.808646 1_555
Ca0_5 Ca2_7 3.808646 1_555
Ca0_5 Ca4_6 3.844880 1_555
Ca0_5 Ca4_0 3.844880 1_555
Ca0_5 Ca4_1 3.844880 1_555
Ca0_5 Ca4_7 3.844880 1_555
Ca0_5 Ca1_7 3.875351 1_555
Ca0_5 Ca1_1 3.875351 1_555
Ca0_5 Ca3_4 3.950681 1_555
Ca0_5 Ca3_5 3.950681 1_555
Ca0_6 Ca2_4 3.808646 1_555
Ca0_6 Ca2_2 3.808646 1_545
Ca0_6 Ca4_3 3.844880 1_544
Ca0_6 Ca4_5 3.844880 1_554
Ca0_6 Ca4_4 3.844880 1_555
Ca0_6 Ca4_2 3.844880 1_545
Ca0_6 Ca1_4 3.875351 1_555
Ca0_6 Ca1_2 3.875351 1_545
Ca0_6 Ca3_7 3.950681 1_544
Ca0_6 Ca3_6 3.950681 1_545
Ca0_7 Ca2_5 3.808646 1_555
Ca0_7 Ca2_3 3.808646 1_545
Ca0_7 Ca4_4 3.844880 1_555
Ca0_7 Ca4_2 3.844880 1_545
Ca0_7 Ca4_5 3.844880 1_555
Ca0_7 Ca4_3 3.844880 1_545
Ca0_7 Ca1_3 3.875351 1_545
Ca0_7 Ca1_5 3.875351 1_555
Ca0_7 Ca3_6 3.950681 1_545
Ca0_7 Ca3_7 3.950681 1_545
Ca1_0 Ca2_2 3.685550 1_555
Ca1_0 Ca2_4 3.685550 1_455
Ca1_0 Mg0_3 3.777035 1_554
Ca1_0 Mg0_5 3.777035 1_454
Ca1_0 Mg0_4 3.777035 1_455
Ca1_0 Mg0_2 3.777035 1_555
Ca1_0 Ca4_1 3.788878 1_554
Ca1_0 Ca4_0 3.788878 1_555
Ca1_0 Ca1_6 3.946191 1_555
Ca1_0 Ca1_6 3.946191 1_445
Ca1_1 Ca2_3 3.685550 1_555
Ca1_1 Ca2_5 3.685550 1_455
Ca1_1 Mg0_4 3.777035 1_455
Ca1_1 Mg0_2 3.777035 1_555
Ca1_1 Mg0_3 3.777035 1_555
Ca1_1 Mg0_5 3.777035 1_455
Ca1_1 Ca4_0 3.788878 1_555
Ca1_1 Ca4_1 3.788878 1_555
Ca1_1 Ca1_7 3.946191 1_555
Ca1_1 Ca1_7 3.946191 1_445
Ca1_2 Ca2_0 3.685550 1_565
Ca1_2 Ca2_6 3.685550 1_455
Ca1_2 Mg0_1 3.777035 1_564
Ca1_2 Mg0_7 3.777035 1_454
Ca1_2 Mg0_6 3.777035 1_455
Ca1_2 Mg0_0 3.777035 1_565
Ca1_2 Ca4_3 3.788878 1_554
Ca1_2 Ca4_2 3.788878 1_555
Ca1_2 Ca1_4 3.946191 1_565
Ca1_2 Ca1_4 3.946191 1_455
Ca1_3 Ca2_1 3.685550 1_565
Ca1_3 Ca2_7 3.685550 1_455
Ca1_3 Mg0_6 3.777035 1_455
Ca1_3 Mg0_0 3.777035 1_565
Ca1_3 Mg0_7 3.777035 1_455
Ca1_3 Mg0_1 3.777035 1_565
Ca1_3 Ca4_2 3.788878 1_555
Ca1_3 Ca4_3 3.788878 1_555
Ca1_3 Ca1_5 3.946191 1_565
Ca1_3 Ca1_5 3.946191 1_455
Ca1_4 Ca2_6 3.685550 1_555
Ca1_4 Ca2_0 3.685550 1_555
Ca1_4 Mg0_7 3.777035 1_554
Ca1_4 Mg0_1 3.777035 1_554
Ca1_4 Mg0_6 3.777035 1_555
Ca1_4 Mg0_0 3.777035 1_555
Ca1_4 Ca4_5 3.788878 1_554
Ca1_4 Ca4_4 3.788878 1_555
Ca1_5 Ca2_7 3.685550 1_555
Ca1_5 Ca2_1 3.685550 1_555
Ca1_5 Mg0_6 3.777035 1_555
Ca1_5 Mg0_0 3.777035 1_555
Ca1_5 Mg0_1 3.777035 1_555
Ca1_5 Mg0_7 3.777035 1_555
Ca1_5 Ca4_4 3.788878 1_555
Ca1_5 Ca4_5 3.788878 1_555
Ca1_6 Ca2_2 3.685550 1_555
Ca1_6 Ca2_4 3.685550 1_565
Ca1_6 Mg0_3 3.777035 1_554
Ca1_6 Mg0_5 3.777035 1_564
Ca1_6 Mg0_2 3.777035 1_555
Ca1_6 Mg0_4 3.777035 1_565
Ca1_6 Ca4_7 3.788878 1_554
Ca1_6 Ca4_6 3.788878 1_555
Ca1_7 Ca2_3 3.685550 1_555
Ca1_7 Ca2_5 3.685550 1_565
Ca1_7 Mg0_2 3.777035 1_555
Ca1_7 Mg0_3 3.777035 1_555
Ca1_7 Mg0_4 3.777035 1_565
Ca1_7 Mg0_5 3.777035 1_565
Ca1_7 Ca4_6 3.788878 1_555
Ca1_7 Ca4_7 3.788878 1_555
Ca2_0 Ca3_3 3.755797 1_544
Ca2_0 Ca3_2 3.755797 1_545
Ca2_0 Ca3_5 3.755800 1_554
Ca2_0 Ca3_4 3.755800 1_555
Ca2_0 Mg0_1 3.806578 1_554
Ca2_0 Mg0_0 3.806578 1_555
Ca2_0 Ca2_6 3.946191 1_555
Ca2_0 Ca2_6 3.946191 1_445
Ca2_1 Ca3_2 3.755797 1_545
Ca2_1 Ca3_3 3.755797 1_545
Ca2_1 Ca3_4 3.755800 1_555
Ca2_1 Ca3_5 3.755800 1_555
Ca2_1 Mg0_0 3.806578 1_555
Ca2_1 Mg0_1 3.806578 1_555
Ca2_1 Ca2_7 3.946191 1_555
Ca2_1 Ca2_7 3.946191 1_445
Ca2_2 Ca3_1 3.755797 1_554
Ca2_2 Ca3_0 3.755797 1_555
Ca2_2 Ca3_7 3.755800 1_554
Ca2_2 Ca3_6 3.755800 1_555
Ca2_2 Mg0_3 3.806578 1_554
Ca2_2 Mg0_2 3.806578 1_555
Ca2_2 Ca2_4 3.946191 1_565
Ca2_2 Ca2_4 3.946191 1_455
Ca2_3 Ca3_0 3.755797 1_555
Ca2_3 Ca3_1 3.755797 1_555
Ca2_3 Ca3_6 3.755800 1_555
Ca2_3 Ca3_7 3.755800 1_555
Ca2_3 Mg0_2 3.806578 1_555
Ca2_3 Mg0_3 3.806578 1_555
Ca2_3 Ca2_5 3.946191 1_565
Ca2_3 Ca2_5 3.946191 1_455
Ca2_4 Ca3_7 3.755797 1_544
Ca2_4 Ca3_6 3.755797 1_545
Ca2_4 Ca3_1 3.755800 1_654
Ca2_4 Ca3_0 3.755800 1_655
Ca2_4 Mg0_5 3.806578 1_554
Ca2_4 Mg0_4 3.806578 1_555
Ca2_5 Ca3_6 3.755797 1_545
Ca2_5 Ca3_7 3.755797 1_545
Ca2_5 Ca3_0 3.755800 1_655
Ca2_5 Ca3_1 3.755800 1_655
Ca2_5 Mg0_4 3.806578 1_555
Ca2_5 Mg0_5 3.806578 1_555
Ca2_6 Ca3_5 3.755797 1_554
Ca2_6 Ca3_4 3.755797 1_555
Ca2_6 Ca3_3 3.755800 1_654
Ca2_6 Ca3_2 3.755800 1_655
Ca2_6 Mg0_7 3.806578 1_554
Ca2_6 Mg0_6 3.806578 1_555
Ca2_7 Ca3_4 3.755797 1_555
Ca2_7 Ca3_5 3.755797 1_555
Ca2_7 Ca3_2 3.755800 1_655
Ca2_7 Ca3_3 3.755800 1_655
Ca2_7 Mg0_6 3.806578 1_555
Ca2_7 Mg0_7 3.806578 1_555
Ca3_0 Mg0_2 3.606234 1_555
Ca3_0 Mg0_4 3.606236 1_455
Ca3_1 Mg0_3 3.606234 1_555
Ca3_1 Mg0_5 3.606236 1_455
Ca3_2 Mg0_0 3.606234 1_565
Ca3_2 Mg0_6 3.606236 1_455
Ca3_3 Mg0_1 3.606234 1_565
Ca3_3 Mg0_7 3.606236 1_455
Ca3_4 Mg0_6 3.606234 1_555
Ca3_4 Mg0_0 3.606236 1_555
Ca3_5 Mg0_7 3.606234 1_555
Ca3_5 Mg0_1 3.606236 1_555
Ca3_6 Mg0_4 3.606234 1_565
Ca3_6 Mg0_2 3.606236 1_555
Ca3_7 Mg0_5 3.606234 1_565
Ca3_7 Mg0_3 3.606236 1_555
Ca4_0 Mg0_4 3.659809 1_455
Ca4_0 Mg0_2 3.659809 1_555
Ca4_1 Mg0_5 3.659809 1_455
Ca4_1 Mg0_3 3.659809 1_555
Ca4_2 Mg0_6 3.659809 1_455
Ca4_2 Mg0_0 3.659809 1_565
Ca4_3 Mg0_7 3.659809 1_455
Ca4_3 Mg0_1 3.659809 1_565
Ca4_4 Mg0_6 3.659809 1_555
Ca4_4 Mg0_0 3.659809 1_555
Ca4_5 Mg0_7 3.659809 1_555
Ca4_5 Mg0_1 3.659809 1_555
Ca4_6 Mg0_2 3.659809 1_555
Ca4_6 Mg0_4 3.659809 1_565
Ca4_7 Mg0_3 3.659809 1_555
Ca4_7 Mg0_5 3.659809 1_565
