# generated using pymatgen
data_Na7Fe7P6(O8F)3
_symmetry_space_group_name_H-M   'P 1'
_cell_length_a   13.76538379
_cell_length_b   13.76538379
_cell_length_c   6.79719700
_cell_angle_alpha   90.00000000
_cell_angle_beta   90.00000000
_cell_angle_gamma   119.99999901
_symmetry_Int_Tables_number   1
_chemical_formula_structural   Na7Fe7P6(O8F)3
_chemical_formula_sum   'Na14 Fe14 P12 O48 F6'
_cell_volume   1115.41669918
_cell_formula_units_Z   2
loop_
 _symmetry_equiv_pos_site_id
 _symmetry_equiv_pos_as_xyz
  1  'x, y, z'
loop_
 _atom_site_type_symbol
 _atom_site_label
 _atom_site_symmetry_multiplicity
 _atom_site_fract_x
 _atom_site_fract_y
 _atom_site_fract_z
 _atom_site_occupancy
  Na  Na0  1  0.05990000  0.24900900  0.25731600  1
  Na  Na1  1  0.18910900  0.94010000  0.25731600  1
  Na  Na2  1  0.75099100  0.81089100  0.25731600  1
  Na  Na3  1  0.94010000  0.75099100  0.75731600  1
  Na  Na4  1  0.81089100  0.05990000  0.75731600  1
  Na  Na5  1  0.24900900  0.18910900  0.75731600  1
  Na  Na6  1  0.33333300  0.66666700  0.99028200  1
  Na  Na7  1  0.66666700  0.33333300  0.49028200  1
  Na  Na8  1  0.61143200  0.11397400  0.25899400  1
  Na  Na9  1  0.50254300  0.38856800  0.25899400  1
  Na  Na10  1  0.88602600  0.49745700  0.25899400  1
  Na  Na11  1  0.38856800  0.88602600  0.75899400  1
  Na  Na12  1  0.49745700  0.61143200  0.75899400  1
  Na  Na13  1  0.11397400  0.50254300  0.75899400  1
  Fe  Fe0  1  0.86754100  0.29314900  0.00562300  1
  Fe  Fe1  1  0.42560800  0.13245900  0.00562300  1
  Fe  Fe2  1  0.70685100  0.57439200  0.00562300  1
  Fe  Fe3  1  0.13245900  0.70685100  0.50562300  1
  Fe  Fe4  1  0.57439200  0.86754100  0.50562300  1
  Fe  Fe5  1  0.29314900  0.42560800  0.50562300  1
  Fe  Fe6  1  0.87398400  0.29249300  0.51268300  1
  Fe  Fe7  1  0.41850800  0.12601600  0.51268300  1
  Fe  Fe8  1  0.70750700  0.58149200  0.51268300  1
  Fe  Fe9  1  0.12601600  0.70750700  0.01268300  1
  Fe  Fe10  1  0.58149200  0.87398400  0.01268300  1
  Fe  Fe11  1  0.29249300  0.41850800  0.01268300  1
  Fe  Fe12  1  0.00000000  0.00000000  0.00416900  1
  Fe  Fe13  1  0.00000000  0.00000000  0.50416900  1
  P  P0  1  0.81738700  0.06499700  0.25540500  1
  P  P1  1  0.24761000  0.18261300  0.25540500  1
  P  P2  1  0.93500300  0.75239000  0.25540500  1
  P  P3  1  0.18261300  0.93500300  0.75540500  1
  P  P4  1  0.75239000  0.81738700  0.75540500  1
  P  P5  1  0.06499700  0.24761000  0.75540500  1
  P  P6  1  0.50886200  0.62383200  0.26040600  1
  P  P7  1  0.11497000  0.49113800  0.26040600  1
  P  P8  1  0.37616800  0.88503000  0.26040600  1
  P  P9  1  0.49113800  0.37616800  0.76040600  1
  P  P10  1  0.88503000  0.50886200  0.76040600  1
  P  P11  1  0.62383200  0.11497000  0.76040600  1
  O  O0  1  0.44401500  0.56184700  0.44659900  1
  O  O1  1  0.11783200  0.55598500  0.44659900  1
  O  O2  1  0.43815300  0.88216800  0.44659900  1
  O  O3  1  0.55598500  0.43815300  0.94659900  1
  O  O4  1  0.88216800  0.44401500  0.94659900  1
  O  O5  1  0.56184700  0.11783200  0.94659900  1
  O  O6  1  0.85072500  0.13751700  0.44395100  1
  O  O7  1  0.28679200  0.14927500  0.44395100  1
  O  O8  1  0.86248300  0.71320800  0.44395100  1
  O  O9  1  0.14927500  0.86248300  0.94395100  1
  O  O10  1  0.71320800  0.85072500  0.94395100  1
  O  O11  1  0.13751700  0.28679200  0.94395100  1
  O  O12  1  0.29493800  0.31169700  0.25368100  1
  O  O13  1  0.01675900  0.70506200  0.25368100  1
  O  O14  1  0.68830300  0.98324100  0.25368100  1
  O  O15  1  0.70506200  0.68830300  0.75368100  1
  O  O16  1  0.98324100  0.29493800  0.75368100  1
  O  O17  1  0.31169700  0.01675900  0.75368100  1
  O  O18  1  0.20958400  0.46051300  0.26218500  1
  O  O19  1  0.25092900  0.79041600  0.26218500  1
  O  O20  1  0.53948700  0.74907100  0.26218500  1
  O  O21  1  0.79041600  0.53948700  0.76218500  1
  O  O22  1  0.74907100  0.20958400  0.76218500  1
  O  O23  1  0.46051300  0.25092900  0.76218500  1
  O  O24  1  0.88600800  0.00148900  0.25458600  1
  O  O25  1  0.11548100  0.11399200  0.25458600  1
  O  O26  1  0.99851100  0.88451900  0.25458600  1
  O  O27  1  0.11399200  0.99851100  0.75458600  1
  O  O28  1  0.88451900  0.88600800  0.75458600  1
  O  O29  1  0.00148900  0.11548100  0.75458600  1
  O  O30  1  0.85273900  0.14065600  0.07130100  1
  O  O31  1  0.28791700  0.14726100  0.07130100  1
  O  O32  1  0.85934400  0.71208300  0.07130100  1
  O  O33  1  0.14726100  0.85934400  0.57130100  1
  O  O34  1  0.71208300  0.85273900  0.57130100  1
  O  O35  1  0.14065600  0.28791700  0.57130100  1
  O  O36  1  0.99757000  0.38002100  0.25171800  1
  O  O37  1  0.38245100  0.00243000  0.25171800  1
  O  O38  1  0.61997900  0.61754900  0.25171800  1
  O  O39  1  0.00243000  0.61997900  0.75171800  1
  O  O40  1  0.61754900  0.99757000  0.75171800  1
  O  O41  1  0.38002100  0.38245100  0.75171800  1
  O  O42  1  0.56729000  0.13141200  0.57546600  1
  O  O43  1  0.56412200  0.43271000  0.57546600  1
  O  O44  1  0.86858800  0.43587800  0.57546600  1
  O  O45  1  0.43271000  0.86858800  0.07546600  1
  O  O46  1  0.43587800  0.56729000  0.07546600  1
  O  O47  1  0.13141200  0.56412200  0.07546600  1
  F  F0  1  0.76930700  0.28201300  0.26955100  1
  F  F1  1  0.51270600  0.23069300  0.26955100  1
  F  F2  1  0.71798700  0.48729400  0.26955100  1
  F  F3  1  0.23069300  0.71798700  0.76955100  1
  F  F4  1  0.48729400  0.76930700  0.76955100  1
  F  F5  1  0.28201300  0.51270600  0.76955100  1
loop_
_geom_bond_atom_site_label_1
_geom_bond_atom_site_label_2
_geom_bond_distance
_geom_bond_site_symmetry_2
Na0 O11 2.322341 1_554
Na0 O25 2.337078 1_555
Na0 O35 2.341388 1_555
Na0 O36 2.353148 1_455
Na0 O18 2.593095 1_555
Na0 O30 2.775231 1_455
Na0 O6 2.799368 1_455
Na1 O9 2.322341 1_554
Na1 O26 2.337078 1_455
Na1 O33 2.341388 1_555
Na1 O37 2.353148 1_565
Na1 O19 2.593095 1_555
Na1 O31 2.775231 1_565
Na1 O7 2.799368 1_565
Na2 O10 2.322341 1_554
Na2 O24 2.337078 1_565
Na2 O34 2.341388 1_555
Na2 O38 2.353148 1_555
Na2 O20 2.593095 1_555
Na2 O32 2.775231 1_555
Na2 O8 2.799368 1_555
Na3 O8 2.322341 1_555
Na3 O28 2.337078 1_555
Na3 O32 2.341388 1_556
Na3 O39 2.353148 1_655
Na3 O21 2.593095 1_555
Na3 O33 2.775231 1_655
Na3 O9 2.799368 1_655
Na4 O6 2.322341 1_555
Na4 O29 2.337078 1_655
Na4 O30 2.341388 1_556
Na4 O40 2.353148 1_545
Na4 O22 2.593095 1_555
Na4 O34 2.775231 1_545
Na4 O10 2.799368 1_545
Na5 O7 2.322341 1_555
Na5 O27 2.337078 1_545
Na5 O31 2.341388 1_556
Na5 O41 2.353148 1_555
Na5 O23 2.593095 1_555
Na5 O35 2.775231 1_555
Na5 O11 2.799368 1_555
Na6 O45 2.475890 1_556
Na6 O47 2.475890 1_556
Na6 O46 2.475901 1_556
Na7 O42 2.475890 1_555
Na7 O44 2.475890 1_555
Na7 O43 2.475901 1_555
Na8 O5 2.239157 1_554
Na8 O42 2.280355 1_555
Na8 O14 2.502754 1_545
Na8 O37 2.730471 1_555
Na9 O3 2.239155 1_554
Na9 O43 2.280352 1_555
Na9 O12 2.502767 1_555
Na9 O38 2.730471 1_555
Na10 O4 2.239153 1_554
Na10 O44 2.280351 1_555
Na10 O13 2.502765 1_655
Na10 O36 2.730459 1_555
Na11 O2 2.239157 1_555
Na11 O45 2.280355 1_556
Na11 O17 2.502754 1_565
Na11 O40 2.730471 1_555
Na12 O0 2.239155 1_555
Na12 O46 2.280352 1_556
Na12 O15 2.502767 1_555
Na12 O41 2.730471 1_555
Na13 O1 2.239153 1_555
Na13 O47 2.280351 1_556
Na13 O16 2.502765 1_455
Na13 O39 2.730459 1_555
Fe0 O4 2.023897 1_554
Fe0 O30 2.054125 1_555
Fe0 O22 2.201086 1_554
Fe0 O36 2.300314 1_555
Fe0 O16 2.330362 1_554
Fe1 O5 2.023897 1_554
Fe1 O31 2.054125 1_555
Fe1 O23 2.201086 1_554
Fe1 O37 2.300314 1_555
Fe1 O17 2.330362 1_554
Fe2 O3 2.023897 1_554
Fe2 O32 2.054125 1_555
Fe2 O21 2.201086 1_554
Fe2 O38 2.300314 1_555
Fe2 O15 2.330362 1_554
Fe3 O1 2.023897 1_555
Fe3 O33 2.054125 1_555
Fe3 O19 2.201086 1_555
Fe3 O39 2.300314 1_555
Fe3 O13 2.330362 1_555
Fe4 O2 2.023897 1_555
Fe4 O34 2.054125 1_555
Fe4 O20 2.201086 1_555
Fe4 O40 2.300314 1_555
Fe4 O14 2.330362 1_555
Fe5 O0 2.023897 1_555
Fe5 O35 2.054125 1_555
Fe5 O18 2.201086 1_555
Fe5 O41 2.300314 1_555
Fe5 O12 2.330362 1_555
Fe6 O6 2.046641 1_555
Fe6 O44 2.056678 1_555
Fe6 O16 2.212653 1_555
Fe6 O22 2.274387 1_555
Fe6 O36 2.332928 1_555
Fe7 O7 2.046628 1_555
Fe7 O42 2.056692 1_555
Fe7 O17 2.212648 1_555
Fe7 O23 2.274385 1_555
Fe7 O37 2.332930 1_555
Fe8 O8 2.046636 1_555
Fe8 O43 2.056685 1_555
Fe8 O15 2.212643 1_555
Fe8 O21 2.274394 1_555
Fe8 O38 2.332921 1_555
Fe9 O9 2.046641 1_554
Fe9 O47 2.056678 1_555
Fe9 O13 2.212653 1_555
Fe9 O19 2.274387 1_555
Fe9 O39 2.332928 1_554
Fe10 O10 2.046628 1_554
Fe10 O45 2.056692 1_555
Fe10 O14 2.212648 1_555
Fe10 O20 2.274385 1_555
Fe10 O40 2.332930 1_554
Fe11 O11 2.046636 1_554
Fe11 O46 2.056685 1_555
Fe11 O12 2.212643 1_555
Fe11 O18 2.274394 1_555
Fe11 O41 2.332921 1_554
Fe12 O27 2.317927 1_544
Fe12 O29 2.317927 1_554
Fe12 O28 2.317927 1_444
Fe12 O24 2.322079 1_455
Fe12 O26 2.322079 1_445
Fe12 O25 2.322079 1_555
Fe13 O24 2.317927 1_455
Fe13 O26 2.317927 1_445
Fe13 O25 2.317927 1_555
Fe13 O27 2.322079 1_545
Fe13 O29 2.322079 1_555
Fe13 O28 2.322079 1_445
O0 P6 1.537829 1_555
O1 P7 1.537829 1_555
O2 P8 1.537829 1_555
O3 P9 1.537829 1_555
O4 P10 1.537829 1_555
O5 P11 1.537829 1_555
O6 P0 1.546440 1_555
O7 P1 1.546440 1_555
O8 P2 1.546440 1_555
O9 P3 1.546440 1_555
O10 P4 1.546440 1_555
O11 P5 1.546440 1_555
O12 P1 1.557014 1_555
O13 P2 1.557014 1_455
O14 P0 1.557014 1_565
O15 P4 1.557014 1_555
O16 P5 1.557014 1_655
O17 P3 1.557014 1_545
O18 P7 1.556647 1_555
O19 P8 1.556647 1_555
O20 P6 1.556647 1_555
O21 P10 1.556647 1_555
O22 P11 1.556647 1_555
O23 P9 1.556647 1_555
O24 P0 1.575535 1_555
O25 P1 1.575535 1_555
O26 P2 1.575535 1_555
O27 P3 1.575535 1_555
O28 P4 1.575535 1_555
O29 P5 1.575535 1_555
O30 P0 1.542934 1_555
O31 P1 1.542934 1_555
O32 P2 1.542934 1_555
O33 P3 1.542934 1_555
O34 P4 1.542934 1_555
O35 P5 1.542934 1_555
O36 P7 1.575702 1_655
O37 P8 1.575702 1_545
O38 P6 1.575702 1_555
O39 P10 1.575702 1_455
O40 P11 1.575702 1_565
O41 P9 1.575702 1_555
O42 P11 1.553513 1_555
O43 P9 1.553513 1_555
O44 P10 1.553513 1_555
O45 P8 1.553513 1_555
O46 P6 1.553513 1_555
O47 P7 1.553513 1_555
F0 Fe6 2.149495 1_555
F0 Fe0 2.205236 1_555
F0 Na8 2.247582 1_555
F0 Na7 2.396759 1_555
F0 Na10 2.572330 1_555
F1 Fe7 2.149499 1_555
F1 Fe1 2.205236 1_555
F1 Na9 2.247574 1_555
F1 Na7 2.396767 1_555
F1 Na8 2.572342 1_555
F2 Fe8 2.149504 1_555
F2 Fe2 2.205236 1_555
F2 Na10 2.247588 1_555
F2 Na7 2.396769 1_555
F2 Na9 2.572330 1_555
F3 Fe9 2.149495 1_556
F3 Fe3 2.205236 1_555
F3 Na11 2.247582 1_555
F3 Na6 2.396759 1_555
F3 Na13 2.572330 1_555
F4 Fe10 2.149499 1_556
F4 Fe4 2.205236 1_555
F4 Na12 2.247574 1_555
F4 Na6 2.396767 1_555
F4 Na11 2.572342 1_555
F5 Fe11 2.149504 1_556
F5 Fe5 2.205236 1_555
F5 Na13 2.247588 1_555
F5 Na6 2.396769 1_555
F5 Na12 2.572330 1_555
