# generated using pymatgen
data_La3Tl
_symmetry_space_group_name_H-M   'P 1'
_cell_length_a   6.32555577
_cell_length_b   6.32555577
_cell_length_c   6.32555577
_cell_angle_alpha   133.63882144
_cell_angle_beta   133.63882144
_cell_angle_gamma   67.65268235
_symmetry_Int_Tables_number   1
_chemical_formula_structural   La3Tl
_chemical_formula_sum   'La3 Tl1'
_cell_volume   130.31449455
_cell_formula_units_Z   1
loop_
 _symmetry_equiv_pos_site_id
 _symmetry_equiv_pos_as_xyz
  1  'x, y, z'
loop_
 _atom_site_type_symbol
 _atom_site_label
 _atom_site_symmetry_multiplicity
 _atom_site_fract_x
 _atom_site_fract_y
 _atom_site_fract_z
 _atom_site_occupancy
  La  La0  1  0.75000000  0.25000000  0.50000000  1
  La  La1  1  0.25000000  0.75000000  0.50000000  1
  La  La2  1  0.50000000  0.50000000  0.00000000  1
  Tl  Tl0  1  0.00000000  0.00000000  0.00000000  1
loop_
_geom_bond_atom_site_label_1
_geom_bond_atom_site_label_2
_geom_bond_distance
_geom_bond_site_symmetry_2
La0 La1 3.521295 1_555
La0 La1 3.521295 1_645
La0 La1 3.521295 1_544
La0 La1 3.521295 1_656
La0 Tl0 3.619813 1_555
La0 La2 3.619813 1_656
La0 Tl0 3.619813 1_656
La0 Tl0 3.619813 1_655
La0 La2 3.619813 1_555
La0 La2 3.619813 1_545
La0 La2 3.619813 1_556
La0 Tl0 3.619813 1_666
La1 La2 3.619813 1_455
La1 Tl0 3.619813 1_666
La1 Tl0 3.619813 1_565
La1 La2 3.619813 1_555
La1 La2 3.619813 1_556
La1 Tl0 3.619813 1_566
La1 La2 3.619813 1_566
La1 Tl0 3.619813 1_555
La2 Tl0 3.521295 1_565
La2 Tl0 3.521295 1_655
La2 Tl0 3.521295 1_666
La2 Tl0 3.521295 1_554
