# generated using pymatgen
data_UNiP2
_symmetry_space_group_name_H-M   'P 1'
_cell_length_a   3.79259529
_cell_length_b   3.79877092
_cell_length_c   13.56958571
_cell_angle_alpha   90.00000000
_cell_angle_beta   90.00000000
_cell_angle_gamma   90.00000000
_symmetry_Int_Tables_number   1
_chemical_formula_structural   UNiP2
_chemical_formula_sum   'U3 Ni3 P6'
_cell_volume   195.49974473
_cell_formula_units_Z   3
loop_
 _symmetry_equiv_pos_site_id
 _symmetry_equiv_pos_as_xyz
  1  'x, y, z'
loop_
 _atom_site_type_symbol
 _atom_site_label
 _atom_site_symmetry_multiplicity
 _atom_site_fract_x
 _atom_site_fract_y
 _atom_site_fract_z
 _atom_site_occupancy
  U  U0  1  0.50000000  0.00000000  0.35083929  1
  U  U1  1  0.50000000  -0.00000000  0.65925885  1
  U  U2  1  -0.00000000  0.50000000  0.98964550  1
  Ni  Ni0  1  0.00000000  -0.00000000  0.17051841  1
  Ni  Ni1  1  0.50000000  0.50000000  0.16965356  1
  Ni  Ni2  1  0.00000000  -0.00000000  0.82637147  1
  P  P0  1  0.50000000  0.00000000  0.08180318  1
  P  P1  1  0.50000000  0.00000000  0.91183397  1
  P  P2  1  -0.00000000  0.50000000  0.26480709  1
  P  P3  1  -0.00000000  0.50000000  0.73908189  1
  P  P4  1  0.50000000  0.50000000  0.50466820  1
  P  P5  1  -0.00000000  0.00000000  0.50421760  1
loop_
_geom_bond_atom_site_label_1
_geom_bond_atom_site_label_2
_geom_bond_distance
_geom_bond_site_symmetry_2
Ni0 P0 2.246141 1_455
Ni0 P0 2.246141 1_555
Ni0 P2 2.290126 1_545
Ni0 P2 2.290126 1_555
Ni0 U0 3.095669 1_455
Ni0 U0 3.095669 1_555
Ni0 U2 3.103482 1_554
Ni0 U2 3.103482 1_544
Ni1 P0 2.242488 1_565
Ni1 P0 2.242488 1_555
Ni1 P2 2.294151 1_555
Ni1 P2 2.294151 1_655
Ni1 U2 3.092315 1_654
Ni1 U2 3.092315 1_554
Ni1 U0 3.106840 1_555
Ni1 U0 3.106840 1_565
Ni2 P1 2.222797 1_555
Ni2 P1 2.222797 1_455
Ni2 P3 2.238452 1_545
Ni2 P3 2.238452 1_555
Ni2 U2 2.918283 1_545
Ni2 U2 2.918283 1_555
Ni2 U1 2.956041 1_555
Ni2 U1 2.956041 1_455
P0 P1 2.306412 1_554
P0 U2 2.960990 1_554
P0 U2 2.960990 1_654
P0 U2 2.960990 1_544
P0 U2 2.960990 1_644
P1 U2 2.884176 1_545
P1 U2 2.884176 1_645
P1 U2 2.884176 1_555
P1 U2 2.884176 1_655
P2 U0 2.926855 1_465
P2 U0 2.926855 1_555
P2 U0 2.926855 1_565
P2 U0 2.926855 1_455
P3 U1 2.894280 1_465
P3 U1 2.894280 1_455
P3 U1 2.894280 1_555
P3 U1 2.894280 1_565
P3 U2 3.400044 1_555
P4 P5 2.683961 1_655
P4 P5 2.683961 1_565
P4 P5 2.683961 1_665
P4 P5 2.683961 1_555
P4 U0 2.822212 1_565
P4 U0 2.822212 1_555
P4 U1 2.829866 1_565
P4 U1 2.829866 1_555
P5 U0 2.815612 1_555
P5 U0 2.815612 1_455
P5 U1 2.832333 1_555
P5 U1 2.832333 1_455
