# generated using pymatgen
data_Cr3(PO4)2
_symmetry_space_group_name_H-M   'P 1'
_cell_length_a   4.83687353
_cell_length_b   7.99944735
_cell_length_c   10.78228600
_cell_angle_alpha   90.00000000
_cell_angle_beta   90.00000000
_cell_angle_gamma   98.04748127
_symmetry_Int_Tables_number   1
_chemical_formula_structural   Cr3(PO4)2
_chemical_formula_sum   'Cr6 P4 O16'
_cell_volume   413.08326960
_cell_formula_units_Z   2
loop_
 _symmetry_equiv_pos_site_id
 _symmetry_equiv_pos_as_xyz
  1  'x, y, z'
loop_
 _atom_site_type_symbol
 _atom_site_label
 _atom_site_symmetry_multiplicity
 _atom_site_fract_x
 _atom_site_fract_y
 _atom_site_fract_z
 _atom_site_occupancy
  Cr  Cr0  1  0.47915800  0.45534200  0.81821900  1
  Cr  Cr1  1  0.97915800  0.95534200  0.68178100  1
  Cr  Cr2  1  0.52084200  0.54465800  0.18178100  1
  Cr  Cr3  1  0.02084200  0.04465800  0.31821900  1
  Cr  Cr4  1  0.50000000  0.50000000  0.50000000  1
  Cr  Cr5  1  0.00000000  0.00000000  0.00000000  1
  P  P0  1  0.05560800  0.58791400  0.68136100  1
  P  P1  1  0.55560800  0.08791400  0.81863900  1
  P  P2  1  0.94439200  0.41208600  0.31863900  1
  P  P3  1  0.44439200  0.91208600  0.18136100  1
  O  O0  1  0.72445200  0.55887100  0.67292800  1
  O  O1  1  0.22445200  0.05887100  0.82707200  1
  O  O2  1  0.27554800  0.44112900  0.32707200  1
  O  O3  1  0.77554800  0.94112900  0.17292800  1
  O  O4  1  0.17168200  0.44293000  0.61235200  1
  O  O5  1  0.67168200  0.94293000  0.88764800  1
  O  O6  1  0.82831800  0.55707000  0.38764800  1
  O  O7  1  0.32831800  0.05707000  0.11235200  1
  O  O8  1  0.16274500  0.76192900  0.62237500  1
  O  O9  1  0.66274500  0.26192900  0.87762500  1
  O  O10  1  0.83725500  0.23807100  0.37762500  1
  O  O11  1  0.33725500  0.73807100  0.12237500  1
  O  O12  1  0.14772300  0.58386700  0.81927800  1
  O  O13  1  0.64772300  0.08386700  0.68072200  1
  O  O14  1  0.85227700  0.41613300  0.18072200  1
  O  O15  1  0.35227700  0.91613300  0.31927800  1
loop_
_geom_bond_atom_site_label_1
_geom_bond_atom_site_label_2
_geom_bond_distance
_geom_bond_site_symmetry_2
Cr0 O9 1.994315 1_555
Cr0 O12 2.022032 1_555
Cr0 O0 2.067021 1_555
Cr1 O8 1.994315 1_655
Cr1 O13 2.022032 1_565
Cr1 O1 2.067021 1_665
Cr2 O11 1.994315 1_555
Cr2 O14 2.022032 1_555
Cr2 O2 2.067021 1_555
Cr3 O10 1.994315 1_455
Cr3 O15 2.022032 1_545
Cr3 O3 2.067021 1_445
Cr4 O6 1.998699 1_555
Cr4 O4 1.998699 1_555
Cr4 O0 2.175739 1_555
Cr4 O2 2.175739 1_555
Cr5 O5 1.998699 1_444
Cr5 O7 1.998699 1_555
Cr5 O1 2.175739 1_554
Cr5 O3 2.175739 1_445
O0 P0 1.588611 1_655
O1 P1 1.588611 1_555
O2 P2 1.588611 1_455
O3 P3 1.588611 1_555
O4 P0 1.547995 1_555
O5 P1 1.547995 1_565
O6 P2 1.547995 1_555
O7 P3 1.547995 1_545
O8 P0 1.552031 1_555
O9 P1 1.552031 1_555
O10 P2 1.552031 1_555
O11 P3 1.552031 1_555
O12 P0 1.554011 1_555
O13 P1 1.554011 1_555
O14 P2 1.554011 1_555
O15 P3 1.554011 1_555
