# generated using pymatgen
data_KVPO4F
_symmetry_space_group_name_H-M   'P 1'
_cell_length_a   6.49820000
_cell_length_b   10.83800200
_cell_length_c   13.04120400
_cell_angle_alpha   90.00000000
_cell_angle_beta   90.00000000
_cell_angle_gamma   90.00000000
_symmetry_Int_Tables_number   1
_chemical_formula_structural   KVPO4F
_chemical_formula_sum   'K8 V8 P8 O32 F8'
_cell_volume   918.45945465
_cell_formula_units_Z   8
loop_
 _symmetry_equiv_pos_site_id
 _symmetry_equiv_pos_as_xyz
  1  'x, y, z'
loop_
 _atom_site_type_symbol
 _atom_site_label
 _atom_site_symmetry_multiplicity
 _atom_site_fract_x
 _atom_site_fract_y
 _atom_site_fract_z
 _atom_site_occupancy
  K  K0  1  0.22444500  0.80092500  0.62164400  1
  K  K1  1  0.72444500  0.30092500  0.87835600  1
  K  K2  1  0.27555500  0.80092500  0.12164400  1
  K  K3  1  0.77555500  0.30092500  0.37835600  1
  K  K4  1  0.70147200  0.06001100  0.10325200  1
  K  K5  1  0.29852800  0.56001100  0.89674800  1
  K  K6  1  0.79852800  0.06001100  0.60325200  1
  K  K7  1  0.20147200  0.56001100  0.39674800  1
  V  V0  1  0.49470000  0.00315300  0.38446600  1
  V  V1  1  0.50530000  0.50315300  0.61553400  1
  V  V2  1  0.00530000  0.00315300  0.88446600  1
  V  V3  1  0.99470000  0.50315300  0.11553400  1
  V  V4  1  0.24953500  0.25214300  0.24666300  1
  V  V5  1  0.75046500  0.75214300  0.75333700  1
  V  V6  1  0.25046500  0.25214300  0.74666300  1
  V  V7  1  0.74953500  0.75214300  0.25333700  1
  P  P0  1  0.33393300  0.25416200  0.49876100  1
  P  P1  1  0.66606700  0.75416200  0.50123900  1
  P  P2  1  0.16606700  0.25416200  0.99876100  1
  P  P3  1  0.83393300  0.75416200  0.00123900  1
  P  P4  1  0.49762500  0.50418900  0.18045000  1
  P  P5  1  0.50237500  0.00418900  0.81955000  1
  P  P6  1  0.00237500  0.50418900  0.68045000  1
  P  P7  1  0.99762500  0.00418900  0.31955000  1
  O  O0  1  0.48539000  0.14401000  0.48366300  1
  O  O1  1  0.51461000  0.64401000  0.51633700  1
  O  O2  1  0.01461000  0.14401000  0.98366300  1
  O  O3  1  0.98539000  0.64401000  0.01633700  1
  O  O4  1  0.47278500  0.37056600  0.51018600  1
  O  O5  1  0.52721500  0.87056600  0.48981400  1
  O  O6  1  0.02721500  0.37056600  0.01018600  1
  O  O7  1  0.97278500  0.87056600  0.98981400  1
  O  O8  1  0.19671400  0.27283700  0.40241100  1
  O  O9  1  0.80328600  0.77283700  0.59758900  1
  O  O10  1  0.30328600  0.27283700  0.90241100  1
  O  O11  1  0.69671400  0.77283700  0.09758900  1
  O  O12  1  0.19785700  0.23167500  0.59414600  1
  O  O13  1  0.80214300  0.73167500  0.40585400  1
  O  O14  1  0.30214300  0.23167500  0.09414600  1
  O  O15  1  0.69785700  0.73167500  0.90585400  1
  O  O16  1  0.30836000  0.53028600  0.11115400  1
  O  O17  1  0.69164000  0.03028600  0.88884600  1
  O  O18  1  0.19164000  0.53028600  0.61115400  1
  O  O19  1  0.80836000  0.03028600  0.38884600  1
  O  O20  1  0.68634600  0.47816300  0.11218100  1
  O  O21  1  0.31365400  0.97816300  0.88781900  1
  O  O22  1  0.81365400  0.47816300  0.61218100  1
  O  O23  1  0.18634600  0.97816300  0.38781900  1
  O  O24  1  0.53340100  0.61931500  0.25092900  1
  O  O25  1  0.46659900  0.11931500  0.74907100  1
  O  O26  1  0.96659900  0.61931500  0.75092900  1
  O  O27  1  0.03340100  0.11931500  0.24907100  1
  O  O28  1  0.45382000  0.39279100  0.25327000  1
  O  O29  1  0.54618000  0.89279100  0.74673000  1
  O  O30  1  0.04618000  0.39279100  0.75327000  1
  O  O31  1  0.95382000  0.89279100  0.24673000  1
  F  F0  1  0.52362300  0.88100900  0.26900500  1
  F  F1  1  0.47637700  0.38100900  0.73099500  1
  F  F2  1  0.97637700  0.88100900  0.76900500  1
  F  F3  1  0.02362300  0.38100900  0.23099500  1
  F  F4  1  0.48003300  0.12993600  0.26969700  1
  F  F5  1  0.51996700  0.62993600  0.73030300  1
  F  F6  1  0.01996700  0.12993600  0.76969700  1
  F  F7  1  0.98003300  0.62993600  0.23030300  1
loop_
_geom_bond_atom_site_label_1
_geom_bond_atom_site_label_2
_geom_bond_distance
_geom_bond_site_symmetry_2
K0 O5 2.719614 1_555
K0 O9 2.771466 1_455
K0 O29 2.832556 1_555
K0 O1 2.886785 1_555
K0 O18 2.944102 1_555
K0 O26 3.086144 1_455
K1 O6 2.719614 1_656
K1 O10 2.771466 1_555
K1 O30 2.832556 1_655
K1 O2 2.886785 1_655
K1 O17 2.944102 1_555
K1 O25 3.086144 1_555
K2 O7 2.719614 1_454
K2 O11 2.771466 1_555
K2 O31 2.832556 1_455
K2 O3 2.886785 1_455
K2 O16 2.944102 1_555
K2 O24 3.086144 1_555
K3 O4 2.719614 1_555
K3 O8 2.771466 1_655
K3 O28 2.832556 1_555
K3 O0 2.886785 1_555
K3 O19 2.944102 1_555
K3 O27 3.086144 1_655
K4 O2 2.720596 1_654
K4 O17 2.815335 1_554
K4 O27 2.946489 1_655
K4 O31 3.078088 1_545
K4 O7 3.084236 1_544
K4 O11 3.113422 1_545
K4 O14 3.195176 1_555
K5 O3 2.720596 1_456
K5 O16 2.815335 1_556
K5 O26 2.946489 1_455
K5 O30 3.078088 1_555
K5 O6 3.084236 1_556
K5 O10 3.113422 1_555
K5 O15 3.195176 1_555
K6 O0 2.720596 1_555
K6 O19 2.815335 1_555
K6 O25 2.946489 1_555
K6 O29 3.078088 1_545
K6 O5 3.084236 1_545
K6 O9 3.113422 1_545
K6 O12 3.195176 1_655
K7 O1 2.720596 1_555
K7 O18 2.815335 1_555
K7 O24 2.946489 1_555
K7 O28 3.078088 1_555
K7 O4 3.084236 1_555
K7 O8 3.113422 1_555
K7 O13 3.195176 1_455
O0 P0 1.559692 1_555
O0 V0 2.001929 1_555
O1 P1 1.559692 1_555
O1 V1 2.001929 1_555
O2 P2 1.559692 1_555
O2 V2 2.001929 1_555
O3 P3 1.559692 1_555
O3 V3 2.001929 1_555
O4 P0 1.558180 1_555
O4 V1 1.999263 1_555
O5 P1 1.558180 1_555
O5 V0 1.999263 1_565
O6 P2 1.558180 1_554
O6 V3 1.999263 1_455
O7 P3 1.558180 1_556
O7 V2 1.999263 1_665
O8 P0 1.553993 1_555
O8 V4 2.072113 1_555
O9 P1 1.553993 1_555
O9 V5 2.072113 1_555
O10 P2 1.553993 1_555
O10 V6 2.072113 1_555
O11 P3 1.553993 1_555
O11 V7 2.072113 1_555
O12 P0 1.545532 1_555
O12 V6 2.030325 1_555
O13 P1 1.545532 1_555
O13 V7 2.030325 1_555
O14 P2 1.545532 1_554
O14 V4 2.030325 1_555
O15 P3 1.545532 1_556
O15 V5 2.030325 1_555
O16 P4 1.552188 1_555
O16 V3 2.060122 1_455
O17 P5 1.552188 1_555
O17 V2 2.060122 1_655
O18 P6 1.552188 1_555
O18 V1 2.060122 1_555
O19 P7 1.552188 1_555
O19 V0 2.060122 1_555
O20 P4 1.541474 1_555
O20 V3 2.022440 1_555
O21 P5 1.541474 1_565
O21 V2 2.022440 1_565
O22 P6 1.541474 1_655
O22 V1 2.022440 1_555
O23 P7 1.541474 1_465
O23 V0 2.022440 1_565
O24 P4 1.567065 1_555
O24 V7 2.011461 1_555
O25 P5 1.567065 1_555
O25 V6 2.011461 1_555
O26 P6 1.567065 1_655
O26 V5 2.011461 1_555
O27 P7 1.567065 1_455
O27 V4 2.011461 1_555
O28 P4 1.562220 1_555
O28 V4 2.023181 1_555
O29 P5 1.562220 1_565
O29 V5 2.023181 1_555
O30 P6 1.562220 1_555
O30 V6 2.023181 1_555
O31 P7 1.562220 1_565
O31 V7 2.023181 1_555
F0 V0 2.013715 1_565
F0 V7 2.036533 1_555
F0 K2 2.654251 1_555
F0 K4 3.126008 1_565
F1 V1 2.013715 1_555
F1 V6 2.036533 1_555
F1 K1 2.654251 1_555
F1 K5 3.126008 1_555
F2 V2 2.013715 1_665
F2 V5 2.036533 1_555
F2 K0 2.654251 1_655
F2 K6 3.126008 1_565
F3 V3 2.013715 1_455
F3 V4 2.036533 1_555
F3 K3 2.654251 1_455
F3 K7 3.126008 1_555
F4 V4 2.021869 1_555
F4 V0 2.034048 1_555
F4 K4 2.712308 1_555
F4 K3 3.021601 1_555
F5 V5 2.021869 1_555
F5 V1 2.034048 1_555
F5 K5 2.712308 1_555
F5 K0 3.021601 1_555
F6 V6 2.021869 1_555
F6 V2 2.034048 1_555
F6 K6 2.712308 1_455
F6 K1 3.021601 1_455
F7 V7 2.021869 1_555
F7 V3 2.034048 1_555
F7 K7 2.712308 1_655
F7 K2 3.021601 1_655
