# generated using pymatgen
data_HoV2ZnO6
_symmetry_space_group_name_H-M   'P 1'
_cell_length_a   5.44116800
_cell_length_b   5.26780700
_cell_length_c   9.23791633
_cell_angle_alpha   55.61982635
_cell_angle_beta   90.00000000
_cell_angle_gamma   90.00000000
_symmetry_Int_Tables_number   1
_chemical_formula_structural   HoV2ZnO6
_chemical_formula_sum   'Ho2 V4 Zn2 O12'
_cell_volume   218.53075593
_cell_formula_units_Z   2
loop_
 _symmetry_equiv_pos_site_id
 _symmetry_equiv_pos_as_xyz
  1  'x, y, z'
loop_
 _atom_site_type_symbol
 _atom_site_label
 _atom_site_symmetry_multiplicity
 _atom_site_fract_x
 _atom_site_fract_y
 _atom_site_fract_z
 _atom_site_occupancy
  Ho  Ho0  1  0.18108900  0.73347500  0.25108400  1
  Ho  Ho1  1  0.81891100  0.73347500  0.75108400  1
  V  V0  1  0.73780400  0.00213800  0.99742000  1
  V  V1  1  0.73158800  0.49992900  0.50151400  1
  V  V2  1  0.26219600  0.00213800  0.49742000  1
  V  V3  1  0.26841200  0.49992900  0.00151400  1
  Zn  Zn0  1  0.73293200  0.25316300  0.24982900  1
  Zn  Zn1  1  0.26706800  0.25316300  0.74982900  1
  O  O0  1  0.69728800  0.14053700  0.74810400  1
  O  O1  1  0.44306600  0.74579800  0.06311100  1
  O  O2  1  0.45597000  0.38201500  0.44058700  1
  O  O3  1  0.95260600  0.61607000  0.05941500  1
  O  O4  1  0.94259600  0.25046400  0.43801700  1
  O  O5  1  0.21194700  0.87642600  0.75093100  1
  O  O6  1  0.30271200  0.14053700  0.24810400  1
  O  O7  1  0.55693400  0.74579800  0.56311100  1
  O  O8  1  0.54403000  0.38201500  0.94058700  1
  O  O9  1  0.05740400  0.25046400  0.93801700  1
  O  O10  1  0.04739400  0.61607000  0.55941500  1
  O  O11  1  0.78805300  0.87642600  0.25093100  1
loop_
_geom_bond_atom_site_label_1
_geom_bond_atom_site_label_2
_geom_bond_distance
_geom_bond_site_symmetry_2
Ho0 O1 2.219055 1_555
Ho0 O6 2.229385 1_565
Ho0 O2 2.251454 1_555
Ho0 O11 2.267018 1_455
Ho0 O4 2.485519 1_455
Ho0 O3 2.509964 1_455
Ho0 O10 2.652400 1_555
Ho0 O9 2.709017 1_564
Ho1 O7 2.219055 1_555
Ho1 O0 2.229385 1_565
Ho1 O8 2.251454 1_555
Ho1 O5 2.267018 1_655
Ho1 O9 2.485519 1_655
Ho1 O10 2.509964 1_655
Ho1 O3 2.652400 1_556
Ho1 O4 2.709017 1_565
O0 V1 1.984355 1_555
O0 V0 1.997077 1_555
O0 Zn1 2.417175 1_555
O1 V3 1.933071 1_555
O1 V0 1.959122 1_564
O2 V1 1.829343 1_555
O2 V2 2.050671 1_555
O3 V3 1.995678 1_655
O3 Zn0 2.092792 1_555
O3 V0 2.124779 1_564
O4 V2 2.055662 1_655
O4 V1 2.063925 1_555
O4 Zn0 2.072682 1_555
O5 Zn1 2.001447 1_565
O5 V3 2.049757 1_556
O5 V2 2.060668 1_565
O6 V3 1.984355 1_555
O6 V2 1.997077 1_555
O6 Zn0 2.417175 1_555
O7 V1 1.933071 1_555
O7 V2 1.959122 1_565
O8 V3 1.829343 1_556
O8 V0 2.050671 1_555
O9 V0 2.055662 1_455
O9 V3 2.063925 1_556
O9 Zn1 2.072682 1_555
O10 V1 1.995678 1_455
O10 Zn1 2.092792 1_555
O10 V2 2.124779 1_565
O11 Zn0 2.001447 1_565
O11 V1 2.049757 1_555
O11 V0 2.060668 1_564
