# generated using pymatgen
data_Y2SO2
_symmetry_space_group_name_H-M   'P 1'
_cell_length_a   3.79129384
_cell_length_b   3.79129424
_cell_length_c   6.59676255
_cell_angle_alpha   90.00000000
_cell_angle_beta   90.00000000
_cell_angle_gamma   119.99999651
_symmetry_Int_Tables_number   1
_chemical_formula_structural   Y2SO2
_chemical_formula_sum   'Y2 S1 O2'
_cell_volume   82.11763538
_cell_formula_units_Z   1
loop_
 _symmetry_equiv_pos_site_id
 _symmetry_equiv_pos_as_xyz
  1  'x, y, z'
loop_
 _atom_site_type_symbol
 _atom_site_label
 _atom_site_symmetry_multiplicity
 _atom_site_fract_x
 _atom_site_fract_y
 _atom_site_fract_z
 _atom_site_occupancy
  Y  Y0  1  0.66666700  0.33333300  0.71722436  1
  Y  Y1  1  0.33333300  0.66666700  0.28277564  1
  S  S0  1  -0.00000000  -0.00000000  -0.00000000  1
  O  O0  1  0.33333300  0.66666700  0.62951527  1
  O  O1  1  0.66666700  0.33333300  0.37048473  1
loop_
_geom_bond_atom_site_label_1
_geom_bond_atom_site_label_2
_geom_bond_distance
_geom_bond_site_symmetry_2
S0 Y1 2.875939 1_545
S0 Y0 2.875939 1_454
S0 Y0 2.875941 1_554
S0 Y1 2.875941 1_445
S0 Y1 2.875942 1_555
S0 Y0 2.875942 1_444
O0 Y0 2.264082 1_455
O0 Y0 2.264082 1_565
O0 Y0 2.264088 1_555
O0 Y1 2.287359 1_555
O1 Y1 2.264082 1_655
O1 Y1 2.264082 1_545
O1 Y1 2.264088 1_555
O1 Y0 2.287359 1_555
