# generated using pymatgen
data_CeTl(MoO4)2
_symmetry_space_group_name_H-M   'P 1'
_cell_length_a   5.26058900
_cell_length_b   8.39494600
_cell_length_c   18.82460500
_cell_angle_alpha   90.00000000
_cell_angle_beta   90.00000000
_cell_angle_gamma   90.00000000
_symmetry_Int_Tables_number   1
_chemical_formula_structural   CeTl(MoO4)2
_chemical_formula_sum   'Ce4 Tl4 Mo8 O32'
_cell_volume   831.33899385
_cell_formula_units_Z   4
loop_
 _symmetry_equiv_pos_site_id
 _symmetry_equiv_pos_as_xyz
  1  'x, y, z'
loop_
 _atom_site_type_symbol
 _atom_site_label
 _atom_site_symmetry_multiplicity
 _atom_site_fract_x
 _atom_site_fract_y
 _atom_site_fract_z
 _atom_site_occupancy
  Ce  Ce0  1  0.00000000  0.75000000  0.00682100  1
  Ce  Ce1  1  0.00000000  0.25000000  0.99317900  1
  Ce  Ce2  1  0.50000000  0.25000000  0.49317900  1
  Ce  Ce3  1  0.50000000  0.75000000  0.50682100  1
  Tl  Tl0  1  0.00000000  0.75000000  0.76951000  1
  Tl  Tl1  1  0.00000000  0.25000000  0.23049000  1
  Tl  Tl2  1  0.50000000  0.25000000  0.73049000  1
  Tl  Tl3  1  0.50000000  0.75000000  0.26951000  1
  Mo  Mo0  1  0.02266900  0.51648800  0.39851800  1
  Mo  Mo1  1  0.97733100  0.48351200  0.60148200  1
  Mo  Mo2  1  0.47733100  0.01648800  0.10148200  1
  Mo  Mo3  1  0.97733100  0.98351200  0.39851800  1
  Mo  Mo4  1  0.52266900  0.98351200  0.89851800  1
  Mo  Mo5  1  0.02266900  0.01648800  0.60148200  1
  Mo  Mo6  1  0.52266900  0.48351200  0.10148200  1
  Mo  Mo7  1  0.47733100  0.51648800  0.89851800  1
  O  O0  1  0.10229400  0.97543000  0.31191800  1
  O  O1  1  0.89770600  0.02457000  0.68808200  1
  O  O2  1  0.39770600  0.47543000  0.18808200  1
  O  O3  1  0.89770600  0.52457000  0.31191800  1
  O  O4  1  0.60229400  0.52457000  0.81191800  1
  O  O5  1  0.10229400  0.47543000  0.68808200  1
  O  O6  1  0.60229400  0.02457000  0.18808200  1
  O  O7  1  0.39770600  0.97543000  0.81191800  1
  O  O8  1  0.27530700  0.84306900  0.09978400  1
  O  O9  1  0.72469300  0.15693100  0.90021600  1
  O  O10  1  0.22469300  0.34306900  0.40021600  1
  O  O11  1  0.72469300  0.65693100  0.09978400  1
  O  O12  1  0.77530700  0.65693100  0.59978400  1
  O  O13  1  0.27530700  0.34306900  0.90021600  1
  O  O14  1  0.77530700  0.15693100  0.40021600  1
  O  O15  1  0.22469300  0.84306900  0.59978400  1
  O  O16  1  0.25624600  0.50273900  0.03646900  1
  O  O17  1  0.74375400  0.49726100  0.96353100  1
  O  O18  1  0.24375400  0.00273900  0.46353100  1
  O  O19  1  0.74375400  0.99726100  0.03646900  1
  O  O20  1  0.75624600  0.99726100  0.53646900  1
  O  O21  1  0.25624600  0.00273900  0.96353100  1
  O  O22  1  0.75624600  0.49726100  0.46353100  1
  O  O23  1  0.24375400  0.50273900  0.53646900  1
  O  O24  1  0.24049100  0.68533300  0.40788000  1
  O  O25  1  0.75950900  0.31466700  0.59212000  1
  O  O26  1  0.25950900  0.18533300  0.09212000  1
  O  O27  1  0.75950900  0.81466700  0.40788000  1
  O  O28  1  0.74049100  0.81466700  0.90788000  1
  O  O29  1  0.24049100  0.18533300  0.59212000  1
  O  O30  1  0.74049100  0.31466700  0.09212000  1
  O  O31  1  0.25950900  0.68533300  0.90788000  1
loop_
_geom_bond_atom_site_label_1
_geom_bond_atom_site_label_2
_geom_bond_distance
_geom_bond_site_symmetry_2
Ce0 O31 2.372215 1_554
Ce0 O28 2.372215 1_454
Ce0 O11 2.402170 1_455
Ce0 O8 2.402170 1_555
Ce0 O19 2.537186 1_455
Ce0 O16 2.537186 1_555
Ce0 O17 2.642527 1_454
Ce0 O21 2.642527 1_564
Ce1 O30 2.372215 1_456
Ce1 O26 2.372215 1_556
Ce1 O9 2.402170 1_455
Ce1 O13 2.402170 1_555
Ce1 O21 2.537186 1_555
Ce1 O17 2.537186 1_455
Ce1 O19 2.642527 1_446
Ce1 O16 2.642527 1_556
Ce2 O29 2.372215 1_555
Ce2 O25 2.372215 1_555
Ce2 O14 2.402170 1_555
Ce2 O10 2.402170 1_555
Ce2 O18 2.537186 1_555
Ce2 O22 2.537186 1_555
Ce2 O23 2.642527 1_555
Ce2 O20 2.642527 1_545
Ce3 O27 2.372215 1_555
Ce3 O24 2.372215 1_555
Ce3 O12 2.402170 1_555
Ce3 O15 2.402170 1_555
Ce3 O20 2.537186 1_555
Ce3 O23 2.537186 1_555
Ce3 O22 2.642527 1_555
Ce3 O18 2.642527 1_565
Mo0 O3 1.759073 1_455
Mo0 O10 1.802768 1_555
Mo0 O24 1.831183 1_555
Mo0 O22 1.867664 1_455
Mo1 O5 1.759073 1_655
Mo1 O12 1.802768 1_555
Mo1 O25 1.831183 1_555
Mo1 O23 1.867664 1_655
Mo2 O6 1.759073 1_555
Mo2 O8 1.802768 1_545
Mo2 O26 1.831183 1_555
Mo2 O19 1.867664 1_545
Mo3 O0 1.759073 1_655
Mo3 O14 1.802768 1_565
Mo3 O27 1.831183 1_555
Mo3 O18 1.867664 1_665
Mo4 O7 1.759073 1_555
Mo4 O9 1.802768 1_565
Mo4 O28 1.831183 1_555
Mo4 O21 1.867664 1_565
Mo5 O1 1.759073 1_455
Mo5 O15 1.802768 1_545
Mo5 O29 1.831183 1_555
Mo5 O20 1.867664 1_445
Mo6 O2 1.759073 1_555
Mo6 O11 1.802768 1_555
Mo6 O30 1.831183 1_555
Mo6 O16 1.867664 1_555
Mo7 O4 1.759073 1_555
Mo7 O13 1.802768 1_555
Mo7 O31 1.831183 1_555
Mo7 O17 1.867664 1_555
O0 Tl1 2.819971 1_565
O1 Tl0 2.819971 1_645
O2 Tl3 2.819971 1_555
O3 Tl1 2.819971 1_655
O4 Tl2 2.819971 1_555
O5 Tl0 2.819971 1_555
O6 Tl3 2.819971 1_545
O7 Tl2 2.819971 1_565
