# generated using pymatgen
data_Hf2MnOs
_symmetry_space_group_name_H-M   'P 1'
_cell_length_a   4.52721998
_cell_length_b   4.52721998
_cell_length_c   4.52721998
_cell_angle_alpha   60.00000000
_cell_angle_beta   60.00000000
_cell_angle_gamma   60.00000000
_symmetry_Int_Tables_number   1
_chemical_formula_structural   Hf2MnOs
_chemical_formula_sum   'Hf2 Mn1 Os1'
_cell_volume   65.61147420
_cell_formula_units_Z   1
loop_
 _symmetry_equiv_pos_site_id
 _symmetry_equiv_pos_as_xyz
  1  'x, y, z'
loop_
 _atom_site_type_symbol
 _atom_site_label
 _atom_site_symmetry_multiplicity
 _atom_site_fract_x
 _atom_site_fract_y
 _atom_site_fract_z
 _atom_site_occupancy
  Hf  Hf0  1  0.25000000  0.25000000  0.25000000  1
  Hf  Hf1  1  0.75000000  0.75000000  0.75000000  1
  Mn  Mn0  1  0.50000000  0.50000000  0.50000000  1
  Os  Os0  1  0.00000000  -0.00000000  0.00000000  1
loop_
_geom_bond_atom_site_label_1
_geom_bond_atom_site_label_2
_geom_bond_distance
_geom_bond_site_symmetry_2
Hf0 Mn0 2.772345 1_555
Hf0 Os0 2.772345 1_655
Hf0 Mn0 2.772345 1_545
Hf0 Os0 2.772345 1_555
Hf0 Mn0 2.772345 1_554
Hf0 Os0 2.772345 1_556
Hf0 Os0 2.772345 1_565
Hf0 Mn0 2.772345 1_455
Hf1 Mn0 2.772345 1_555
Hf1 Mn0 2.772345 1_556
Hf1 Os0 2.772345 1_656
Hf1 Mn0 2.772345 1_655
Hf1 Os0 2.772345 1_666
Hf1 Os0 2.772345 1_665
Hf1 Mn0 2.772345 1_565
Hf1 Os0 2.772345 1_566
