# generated using pymatgen
data_K3Zn4As3O17
_symmetry_space_group_name_H-M   'P 1'
_cell_length_a   11.10387250
_cell_length_b   11.10387250
_cell_length_c   11.10387250
_cell_angle_alpha   120.67505885
_cell_angle_beta   120.30669884
_cell_angle_gamma   89.15215555
_symmetry_Int_Tables_number   1
_chemical_formula_structural   K3Zn4As3O17
_chemical_formula_sum   'K6 Zn8 As6 O34'
_cell_volume   960.76421074
_cell_formula_units_Z   2
loop_
 _symmetry_equiv_pos_site_id
 _symmetry_equiv_pos_as_xyz
  1  'x, y, z'
loop_
 _atom_site_type_symbol
 _atom_site_label
 _atom_site_symmetry_multiplicity
 _atom_site_fract_x
 _atom_site_fract_y
 _atom_site_fract_z
 _atom_site_occupancy
  K  K0  1  0.97983600  0.02872800  0.50450600  1
  K  K1  1  0.52538200  0.02538200  0.50000000  1
  K  K2  1  0.52422200  0.47533100  0.49549400  1
  K  K3  1  0.47983600  0.97533100  0.95110800  1
  K  K4  1  0.02538200  0.52538200  0.50000000  1
  K  K5  1  0.02422200  0.52872800  0.04889200  1
  Zn  Zn0  1  0.57287300  0.71897600  0.14487100  1
  Zn  Zn1  1  0.57410500  0.42800300  0.85512900  1
  Zn  Zn2  1  0.27959400  0.42795500  0.85398700  1
  Zn  Zn3  1  0.57396800  0.42560600  0.14601300  1
  Zn  Zn4  1  0.77959400  0.92560600  0.85163900  1
  Zn  Zn5  1  0.07287300  0.92800300  0.85389800  1
  Zn  Zn6  1  0.07410500  0.21897600  0.14610200  1
  Zn  Zn7  1  0.07396800  0.92795500  0.14836100  1
  As  As0  1  0.75021600  0.75021600  0.00000000  1
  As  As1  1  0.75106600  0.75149000  0.49987500  1
  As  As2  1  0.25106600  0.75119100  0.99957600  1
  As  As3  1  0.25161500  0.25119100  0.50012500  1
  As  As4  1  0.75161500  0.25149000  0.00042400  1
  As  As5  1  0.25021600  0.25021600  0.00000000  1
  O  O0  1  0.49952200  0.49952200  0.00000000  1
  O  O1  1  0.99952200  0.99952200  0.00000000  1
  O  O2  1  0.42230900  0.79646200  0.17481900  1
  O  O3  1  0.62630500  0.80276700  0.05115600  1
  O  O4  1  0.75355600  0.80050100  0.37625900  1
  O  O5  1  0.62164300  0.24749000  0.82518100  1
  O  O6  1  0.75161100  0.57514900  0.94884400  1
  O  O7  1  0.42424200  0.37729700  0.62374100  1
  O  O8  1  0.20193100  0.57799800  0.82033900  1
  O  O9  1  0.19940700  0.37640000  0.95196800  1
  O  O10  1  0.20550500  0.24696400  0.62522100  1
  O  O11  1  0.75765900  0.38159100  0.17966100  1
  O  O12  1  0.42443200  0.24743900  0.04803200  1
  O  O13  1  0.62174300  0.58028400  0.37477900  1
  O  O14  1  0.70550500  0.08028400  0.95854200  1
  O  O15  1  0.70193100  0.88159100  0.62393300  1
  O  O16  1  0.69940700  0.74743900  0.82300700  1
  O  O17  1  0.25355600  0.87729700  0.95305500  1
  O  O18  1  0.92230900  0.74749000  0.62584700  1
  O  O19  1  0.12630500  0.07514900  0.82353800  1
  O  O20  1  0.92424200  0.30050100  0.04694500  1
  O  O21  1  0.12164300  0.29646200  0.37415300  1
  O  O22  1  0.25161100  0.30276700  0.17646200  1
  O  O23  1  0.12174300  0.74696400  0.04145800  1
  O  O24  1  0.25765900  0.07799800  0.37606700  1
  O  O25  1  0.92443200  0.87640000  0.17699300  1
  O  O26  1  0.31119900  0.00027800  0.64053500  1
  O  O27  1  0.35974300  0.67066400  0.35946500  1
  O  O28  1  0.00067300  0.68687200  0.34172900  1
  O  O29  1  0.34514300  0.65894400  0.65827100  1
  O  O30  1  0.50067300  0.15894400  0.31380100  1
  O  O31  1  0.81119900  0.17066400  0.31092000  1
  O  O32  1  0.85974300  0.50027800  0.68908000  1
  O  O33  1  0.84514300  0.18687200  0.68619900  1
loop_
_geom_bond_atom_site_label_1
_geom_bond_atom_site_label_2
_geom_bond_distance
_geom_bond_site_symmetry_2
K0 O10 2.724618 1_655
K0 O4 2.767356 1_545
K0 O19 2.794094 1_655
K0 O25 2.821573 1_545
K0 O33 2.956947 1_555
K0 O31 3.149257 1_555
K0 O26 3.280668 1_655
K0 O28 3.335424 1_645
K1 O5 2.712787 1_555
K1 O2 2.712787 1_545
K1 O24 2.777149 1_555
K1 O15 2.777158 1_545
K1 O33 3.015539 1_555
K1 O30 3.015539 1_555
K2 O13 2.724610 1_555
K2 O7 2.767363 1_555
K2 O22 2.794095 1_555
K2 O16 2.821569 1_555
K2 O30 2.956956 1_555
K2 O32 3.149253 1_555
K2 O27 3.280658 1_555
K2 O29 3.335420 1_555
K3 O14 2.724606 1_565
K3 O17 2.767360 1_555
K3 O3 2.794104 1_556
K3 O12 2.821564 1_566
K3 O29 2.956954 1_555
K3 O26 3.149243 1_565
K3 O31 3.280664 1_566
K3 O30 3.335424 1_566
K4 O21 2.712787 1_555
K4 O18 2.712787 1_455
K4 O11 2.777148 1_455
K4 O8 2.777149 1_555
K4 O28 3.015539 1_555
K4 O29 3.015539 1_555
K5 O23 2.724625 1_555
K5 O20 2.767356 1_455
K5 O6 2.794094 1_454
K5 O9 2.821573 1_554
K5 O28 2.956947 1_555
K5 O27 3.149250 1_555
K5 O32 3.280658 1_454
K5 O33 3.335424 1_454
As0 O6 1.727153 1_554
As0 O3 1.727153 1_555
As0 O25 1.732431 1_555
As0 O16 1.732431 1_554
As1 O18 1.717746 1_555
As1 O13 1.725925 1_555
As1 O4 1.726829 1_555
As1 O15 1.728264 1_555
As2 O2 1.717746 1_556
As2 O23 1.725917 1_556
As2 O17 1.726829 1_555
As2 O8 1.728269 1_555
As3 O21 1.717746 1_555
As3 O10 1.725925 1_555
As3 O7 1.726829 1_555
As3 O24 1.728269 1_555
As4 O5 1.717746 1_554
As4 O14 1.725930 1_554
As4 O20 1.726829 1_555
As4 O11 1.728266 1_555
As5 O22 1.727153 1_555
As5 O19 1.727153 1_554
As5 O12 1.732431 1_555
As5 O9 1.732431 1_554
O0 Zn0 1.981365 1_555
O0 Zn1 1.981366 1_554
O0 Zn2 1.992640 1_554
O0 Zn3 1.992649 1_555
O1 Zn5 1.981357 1_654
O1 Zn6 1.981366 1_665
O1 Zn7 1.992640 1_655
O1 Zn4 1.992640 1_554
O2 Zn0 1.967871 1_555
O3 Zn0 1.981872 1_555
O4 Zn0 1.980931 1_555
O5 Zn1 1.967882 1_555
O6 Zn1 1.981866 1_555
O7 Zn1 1.980927 1_555
O8 Zn2 1.981526 1_555
O9 Zn2 1.983034 1_555
O10 Zn2 1.974650 1_555
O11 Zn3 1.981526 1_555
O12 Zn3 1.983026 1_555
O13 Zn3 1.974653 1_555
O14 Zn4 1.974661 1_545
O15 Zn4 1.981526 1_555
O16 Zn4 1.983024 1_555
O17 Zn5 1.980935 1_555
O18 Zn5 1.967879 1_655
O19 Zn5 1.981870 1_545
O20 Zn6 1.980927 1_655
O21 Zn6 1.967882 1_555
O22 Zn6 1.981866 1_555
O23 Zn7 1.974653 1_555
O24 Zn7 1.981526 1_545
O25 Zn7 1.983034 1_655
