# generated using pymatgen
data_Ba2PrTaO6
_symmetry_space_group_name_H-M   'P 1'
_cell_length_a   6.09008929
_cell_length_b   6.09008929
_cell_length_c   6.15707350
_cell_angle_alpha   59.96854013
_cell_angle_beta   59.96854013
_cell_angle_gamma   60.03956441
_symmetry_Int_Tables_number   1
_chemical_formula_structural   Ba2PrTaO6
_chemical_formula_sum   'Ba2 Pr1 Ta1 O6'
_cell_volume   161.44683993
_cell_formula_units_Z   1
loop_
 _symmetry_equiv_pos_site_id
 _symmetry_equiv_pos_as_xyz
  1  'x, y, z'
loop_
 _atom_site_type_symbol
 _atom_site_label
 _atom_site_symmetry_multiplicity
 _atom_site_fract_x
 _atom_site_fract_y
 _atom_site_fract_z
 _atom_site_occupancy
  Ba  Ba0  1  0.75172812  0.75172812  0.74359791  1
  Ba  Ba1  1  0.24827188  0.24827188  0.25640209  1
  Pr  Pr0  1  0.00000000  0.00000000  0.00000000  1
  Ta  Ta0  1  0.50000000  0.50000000  0.50000000  1
  O  O0  1  0.69767148  0.23481208  0.30683339  1
  O  O1  1  0.30232852  0.76518792  0.69316661  1
  O  O2  1  0.76518792  0.30232852  0.69316661  1
  O  O3  1  0.23481208  0.69767148  0.30683339  1
  O  O4  1  0.72817371  0.72817371  0.20878075  1
  O  O5  1  0.27182629  0.27182629  0.79121925  1
loop_
_geom_bond_atom_site_label_1
_geom_bond_atom_site_label_2
_geom_bond_distance
_geom_bond_site_symmetry_2
Ba0 O4 2.728122 1_556
Ba0 O3 2.827581 1_655
Ba0 O0 2.827581 1_565
Ba0 O2 2.862647 1_555
Ba0 O1 2.862647 1_555
Ba0 O5 3.079957 1_565
Ba0 O5 3.079957 1_655
Ba0 O2 3.248691 1_565
Ba0 O1 3.248691 1_655
Ba0 O0 3.318100 1_556
Ba0 O3 3.318100 1_556
Ba0 O4 3.442467 1_555
Ba1 O5 2.728122 1_554
Ba1 O2 2.827581 1_455
Ba1 O1 2.827581 1_545
Ba1 O3 2.862647 1_555
Ba1 O0 2.862647 1_555
Ba1 O4 3.079957 1_545
Ba1 O4 3.079957 1_455
Ba1 O3 3.248691 1_545
Ba1 O0 3.248691 1_455
Ba1 O1 3.318100 1_554
Ba1 O2 3.318100 1_554
Ba1 O5 3.442467 1_555
O0 Ta0 2.004905 1_555
O0 Pr0 2.365738 1_655
O1 Ta0 2.004905 1_555
O1 Pr0 2.365738 1_566
O2 Ta0 2.004905 1_555
O2 Pr0 2.365738 1_656
O3 Ta0 2.004905 1_555
O3 Pr0 2.365738 1_565
O4 Ta0 2.004420 1_555
O4 Pr0 2.368661 1_665
O5 Ta0 2.004420 1_555
O5 Pr0 2.368661 1_556
