# generated using pymatgen
data_P4H36W(C6Cl)2
_symmetry_space_group_name_H-M   'P 1'
_cell_length_a   9.54330413
_cell_length_b   9.54330413
_cell_length_c   9.54330413
_cell_angle_alpha   117.62121426
_cell_angle_beta   117.62121426
_cell_angle_gamma   94.17205374
_symmetry_Int_Tables_number   1
_chemical_formula_structural   P4H36W(C6Cl)2
_chemical_formula_sum   'P4 H36 W1 C12 Cl2'
_cell_volume   634.86083570
_cell_formula_units_Z   1
loop_
 _symmetry_equiv_pos_site_id
 _symmetry_equiv_pos_as_xyz
  1  'x, y, z'
loop_
 _atom_site_type_symbol
 _atom_site_label
 _atom_site_symmetry_multiplicity
 _atom_site_fract_x
 _atom_site_fract_y
 _atom_site_fract_z
 _atom_site_occupancy
  P  P0  1  0.35474200  0.35474200  0.64809500  1
  P  P1  1  0.70664700  0.70664700  0.35190500  1
  P  P2  1  0.29335300  0.64525800  0.00000000  1
  P  P3  1  0.64525800  0.29335300  0.00000000  1
  H  H0  1  0.24413000  0.41260700  0.39950900  1
  H  H1  1  0.01309800  0.84462100  0.60049100  1
  H  H2  1  0.98690200  0.58739300  0.83152200  1
  H  H3  1  0.75587000  0.15537900  0.16847800  1
  H  H4  1  0.15537900  0.75587000  0.16847800  1
  H  H5  1  0.58739300  0.98690200  0.83152200  1
  H  H6  1  0.41260700  0.24413000  0.39950900  1
  H  H7  1  0.84462100  0.01309800  0.60049100  1
  H  H8  1  0.18424400  0.51775300  0.56280700  1
  H  H9  1  0.95494600  0.62143700  0.43719300  1
  H  H10  1  0.04505400  0.48224700  0.66649100  1
  H  H11  1  0.81575600  0.37856300  0.33350900  1
  H  H12  1  0.37856300  0.81575600  0.33350900  1
  H  H13  1  0.48224700  0.04505400  0.66649100  1
  H  H14  1  0.51775300  0.18424400  0.56280700  1
  H  H15  1  0.62143700  0.95494600  0.43719300  1
  H  H16  1  0.39691000  0.59945800  0.63436200  1
  H  H17  1  0.96509600  0.76254800  0.36563800  1
  H  H18  1  0.03490400  0.40054200  0.79745200  1
  H  H19  1  0.60309000  0.23745200  0.20254800  1
  H  H20  1  0.23745200  0.60309000  0.20254800  1
  H  H21  1  0.40054200  0.03490400  0.79745200  1
  H  H22  1  0.59945800  0.39691000  0.63436200  1
  H  H23  1  0.76254800  0.96509600  0.36563800  1
  H  H24  1  0.11568300  0.11568300  0.33001800  1
  H  H25  1  0.78566500  0.78566500  0.66998200  1
  H  H26  1  0.21433500  0.88431700  0.00000000  1
  H  H27  1  0.88431700  0.21433500  0.00000000  1
  H  H28  1  0.06159200  0.18862500  0.50122900  1
  H  H29  1  0.68739600  0.56036300  0.49877100  1
  H  H30  1  0.31260400  0.81137500  0.87296700  1
  H  H31  1  0.93840800  0.43963700  0.12703300  1
  H  H32  1  0.43963700  0.93840800  0.12703300  1
  H  H33  1  0.81137500  0.31260400  0.87296700  1
  H  H34  1  0.18862500  0.06159200  0.50122900  1
  H  H35  1  0.56036300  0.68739600  0.49877100  1
  W  W0  1  0.50000000  0.50000000  0.00000000  1
  C  C0  1  0.16174100  0.16174100  0.47856500  1
  C  C1  1  0.68317600  0.68317600  0.52143500  1
  C  C2  1  0.31682400  0.83825900  0.00000000  1
  C  C3  1  0.83825900  0.31682400  0.00000000  1
  C  C4  1  0.28701700  0.48292300  0.55051700  1
  C  C5  1  0.93240600  0.73650100  0.44948300  1
  C  C6  1  0.06759400  0.51707700  0.80409400  1
  C  C7  1  0.71298300  0.26349900  0.19590600  1
  C  C8  1  0.26349900  0.71298300  0.19590600  1
  C  C9  1  0.51707700  0.06759400  0.80409400  1
  C  C10  1  0.48292300  0.28701700  0.55051700  1
  C  C11  1  0.73650100  0.93240600  0.44948300  1
  Cl  Cl0  1  0.69025900  0.69025900  0.00000000  1
  Cl  Cl1  1  0.30974100  0.30974100  0.00000000  1
loop_
_geom_bond_atom_site_label_1
_geom_bond_atom_site_label_2
_geom_bond_distance
_geom_bond_site_symmetry_2
P0 W0 2.491707 1_556
P1 W0 2.491707 1_555
P2 W0 2.491707 1_555
P3 W0 2.491707 1_555
C0 H34 1.096345 1_555
C0 H28 1.096345 1_555
C0 H24 1.101091 1_555
C0 P0 1.839189 1_555
C1 H35 1.096345 1_555
C1 H29 1.096345 1_555
C1 H25 1.101091 1_555
C1 P1 1.839189 1_555
C2 H30 1.096345 1_554
C2 H32 1.096345 1_555
C2 H26 1.101091 1_555
C2 P2 1.839189 1_555
C3 H33 1.096345 1_554
C3 H31 1.096345 1_555
C3 H27 1.101091 1_555
C3 P3 1.839189 1_555
C4 H16 1.097265 1_555
C4 H8 1.097338 1_555
C4 H0 1.100478 1_555
C4 P0 1.842417 1_555
C5 H17 1.097260 1_555
C5 H9 1.097347 1_555
C5 H1 1.100476 1_655
C5 P1 1.842416 1_555
C6 H18 1.097265 1_555
C6 H10 1.097338 1_555
C6 H2 1.100476 1_455
C6 P2 1.842417 1_556
C7 H19 1.097263 1_555
C7 H11 1.097341 1_555
C7 H3 1.100471 1_555
C7 P3 1.842423 1_555
C8 H20 1.097263 1_555
C8 H12 1.097341 1_555
C8 H4 1.100471 1_555
C8 P2 1.842423 1_555
C9 H21 1.097265 1_555
C9 H13 1.097338 1_555
C9 H5 1.100476 1_545
C9 P3 1.842417 1_556
C10 H22 1.097265 1_555
C10 H14 1.097338 1_555
C10 H6 1.100478 1_555
C10 P0 1.842417 1_555
C11 H23 1.097260 1_555
C11 H15 1.097347 1_555
C11 H7 1.100476 1_565
C11 P1 1.842416 1_555
Cl0 W0 2.472618 1_555
Cl1 W0 2.472618 1_555
