# generated using pymatgen
data_CrN2
_symmetry_space_group_name_H-M   'P 1'
_cell_length_a   11.53065027
_cell_length_b   11.53065027
_cell_length_c   11.53065027
_cell_angle_alpha   60.00000000
_cell_angle_beta   60.00000000
_cell_angle_gamma   60.00000000
_symmetry_Int_Tables_number   1
_chemical_formula_structural   CrN2
_chemical_formula_sum   'Cr8 N16'
_cell_volume   1084.04273323
_cell_formula_units_Z   8
loop_
 _symmetry_equiv_pos_site_id
 _symmetry_equiv_pos_as_xyz
  1  'x, y, z'
loop_
 _atom_site_type_symbol
 _atom_site_label
 _atom_site_symmetry_multiplicity
 _atom_site_fract_x
 _atom_site_fract_y
 _atom_site_fract_z
 _atom_site_occupancy
  Cr  Cr0  1  0.56410900  0.30767300  0.56410900  1
  Cr  Cr1  1  0.56410900  0.56410900  0.56410900  1
  Cr  Cr2  1  0.30767300  0.56410900  0.56410900  1
  Cr  Cr3  1  0.56410900  0.56410900  0.30767300  1
  Cr  Cr4  1  0.68589100  0.94232700  0.68589100  1
  Cr  Cr5  1  0.68589100  0.68589100  0.68589100  1
  Cr  Cr6  1  0.94232700  0.68589100  0.68589100  1
  Cr  Cr7  1  0.68589100  0.68589100  0.94232700  1
  N  N0  1  0.37817900  0.62182100  0.62182100  1
  N  N1  1  0.37817900  0.37817900  0.62182100  1
  N  N2  1  0.62182100  0.37817900  0.62182100  1
  N  N3  1  0.62182100  0.62182100  0.37817900  1
  N  N4  1  0.37817900  0.62182100  0.37817900  1
  N  N5  1  0.62182100  0.37817900  0.37817900  1
  N  N6  1  0.87182100  0.62817900  0.62817900  1
  N  N7  1  0.87182100  0.87182100  0.62817900  1
  N  N8  1  0.62817900  0.87182100  0.62817900  1
  N  N9  1  0.62817900  0.62817900  0.87182100  1
  N  N10  1  0.87182100  0.62817900  0.87182100  1
  N  N11  1  0.62817900  0.87182100  0.87182100  1
  N  N12  1  0.62500000  0.12500000  0.62500000  1
  N  N13  1  0.62500000  0.62500000  0.62500000  1
  N  N14  1  0.12500000  0.62500000  0.62500000  1
  N  N15  1  0.62500000  0.62500000  0.12500000  1
loop_
_geom_bond_atom_site_label_1
_geom_bond_atom_site_label_2
_geom_bond_distance
_geom_bond_site_symmetry_2
Cr0 N12 1.719818 1_555
Cr0 N5 1.752553 1_555
Cr0 N2 1.752553 1_555
Cr0 N1 1.752553 1_555
Cr1 N13 1.719818 1_555
Cr1 N3 1.752553 1_555
Cr1 N2 1.752553 1_555
Cr1 N0 1.752553 1_555
Cr2 N14 1.719818 1_555
Cr2 N1 1.752553 1_555
Cr2 N4 1.752553 1_555
Cr2 N0 1.752553 1_555
Cr3 N15 1.719818 1_555
Cr3 N5 1.752553 1_555
Cr3 N3 1.752553 1_555
Cr3 N4 1.752553 1_555
Cr4 N12 1.719818 1_565
Cr4 N8 1.752553 1_555
Cr4 N7 1.752553 1_555
Cr4 N11 1.752553 1_555
Cr5 N13 1.719818 1_555
Cr5 N6 1.752553 1_555
Cr5 N9 1.752553 1_555
Cr5 N8 1.752553 1_555
Cr6 N14 1.719818 1_655
Cr6 N6 1.752553 1_555
Cr6 N7 1.752553 1_555
Cr6 N10 1.752553 1_555
Cr7 N15 1.719818 1_556
Cr7 N9 1.752553 1_555
Cr7 N10 1.752553 1_555
Cr7 N11 1.752553 1_555
