# generated using pymatgen
data_TiAlN2
_symmetry_space_group_name_H-M   'P 1'
_cell_length_a   5.19097528
_cell_length_b   5.19097528
_cell_length_c   5.19097511
_cell_angle_alpha   32.69750804
_cell_angle_beta   32.69750804
_cell_angle_gamma   32.69750870
_symmetry_Int_Tables_number   1
_chemical_formula_structural   TiAlN2
_chemical_formula_sum   'Ti1 Al1 N2'
_cell_volume   36.30764601
_cell_formula_units_Z   1
loop_
 _symmetry_equiv_pos_site_id
 _symmetry_equiv_pos_as_xyz
  1  'x, y, z'
loop_
 _atom_site_type_symbol
 _atom_site_label
 _atom_site_symmetry_multiplicity
 _atom_site_fract_x
 _atom_site_fract_y
 _atom_site_fract_z
 _atom_site_occupancy
  Ti  Ti0  1  0.50000000  0.50000000  0.50000000  1
  Al  Al0  1  0.00000000  0.00000000  0.00000000  1
  N  N0  1  0.25604700  0.25604700  0.25604700  1
  N  N1  1  0.74395300  0.74395300  0.74395300  1
loop_
_geom_bond_atom_site_label_1
_geom_bond_atom_site_label_2
_geom_bond_distance
_geom_bond_site_symmetry_2
Al0 N1 2.035254 1_445
Al0 N0 2.035254 1_554
Al0 N1 2.035254 1_454
Al0 N0 2.035254 1_545
Al0 N0 2.035254 1_455
Al0 N1 2.035254 1_544
N0 Ti0 2.139964 1_554
N0 Ti0 2.139964 1_455
N0 Ti0 2.139964 1_545
N1 Ti0 2.139964 1_556
N1 Ti0 2.139964 1_655
N1 Ti0 2.139964 1_565
