# generated using pymatgen
data_LaAl2BOs2
_symmetry_space_group_name_H-M   'P 1'
_cell_length_a   4.23861800
_cell_length_b   4.23861800
_cell_length_c   5.65705500
_cell_angle_alpha   90.00000000
_cell_angle_beta   90.00000000
_cell_angle_gamma   90.00000000
_symmetry_Int_Tables_number   1
_chemical_formula_structural   LaAl2BOs2
_chemical_formula_sum   'La1 Al2 B1 Os2'
_cell_volume   101.63398571
_cell_formula_units_Z   1
loop_
 _symmetry_equiv_pos_site_id
 _symmetry_equiv_pos_as_xyz
  1  'x, y, z'
loop_
 _atom_site_type_symbol
 _atom_site_label
 _atom_site_symmetry_multiplicity
 _atom_site_fract_x
 _atom_site_fract_y
 _atom_site_fract_z
 _atom_site_occupancy
  La  La0  1  0.50000000  0.50000000  0.50000000  1
  Al  Al0  1  0.00000000  0.00000000  0.74021900  1
  Al  Al1  1  0.00000000  0.00000000  0.25978100  1
  B  B0  1  0.50000000  0.50000000  0.00000000  1
  Os  Os0  1  0.00000000  0.50000000  0.00000000  1
  Os  Os1  1  0.50000000  0.00000000  0.00000000  1
loop_
_geom_bond_atom_site_label_1
_geom_bond_atom_site_label_2
_geom_bond_distance
_geom_bond_site_symmetry_2
Al0 Os1 2.578988 1_456
Al0 Os1 2.578988 1_556
Al0 Os0 2.578988 1_556
Al0 Os0 2.578988 1_546
Al1 Os0 2.578988 1_545
Al1 Os1 2.578988 1_555
Al1 Os0 2.578988 1_555
Al1 Os1 2.578988 1_455
B0 Os0 2.119309 1_655
B0 Os1 2.119309 1_555
B0 Os1 2.119309 1_565
B0 Os0 2.119309 1_555
B0 La0 2.828527 1_554
B0 La0 2.828527 1_555
