# generated using pymatgen
data_Li4Mn3CoO8
_symmetry_space_group_name_H-M   'P 1'
_cell_length_a   5.09449494
_cell_length_b   6.05620551
_cell_length_c   10.01529968
_cell_angle_alpha   90.00061823
_cell_angle_beta   77.65339287
_cell_angle_gamma   90.00037722
_symmetry_Int_Tables_number   1
_chemical_formula_structural   Li4Mn3CoO8
_chemical_formula_sum   'Li8 Mn6 Co2 O16'
_cell_volume   301.85844639
_cell_formula_units_Z   2
loop_
 _symmetry_equiv_pos_site_id
 _symmetry_equiv_pos_as_xyz
  1  'x, y, z'
loop_
 _atom_site_type_symbol
 _atom_site_label
 _atom_site_symmetry_multiplicity
 _atom_site_fract_x
 _atom_site_fract_y
 _atom_site_fract_z
 _atom_site_occupancy
  Li  Li0  1  0.25559600  0.00000100  0.26014900  1
  Li  Li1  1  0.75565600  0.50000100  0.76001600  1
  Li  Li2  1  0.24434300  0.50000100  0.23998400  1
  Li  Li3  1  0.74440400  0.00000100  0.73985100  1
  Li  Li4  1  0.49999800  0.26492000  0.00000000  1
  Li  Li5  1  0.00000200  0.76477000  0.50000000  1
  Li  Li6  1  0.50000100  0.73508200  0.00000000  1
  Li  Li7  1  0.99999700  0.23523200  0.50000100  1
  Mn  Mn0  1  0.00001400  0.49998300  0.99999700  1
  Mn  Mn1  1  0.50000400  0.99998800  0.49999600  1
  Mn  Mn2  1  0.74976100  0.74995800  0.25020200  1
  Mn  Mn3  1  0.25023800  0.25004200  0.74979800  1
  Mn  Mn4  1  0.74976900  0.25004100  0.25019900  1
  Mn  Mn5  1  0.25023000  0.74996000  0.74980200  1
  Co  Co0  1  0.50000000  0.50000100  0.50000000  1
  Co  Co1  1  0.00000000  0.00000100  0.00000000  1
  O  O0  1  0.85822200  0.00000300  0.38621500  1
  O  O1  1  0.35792800  0.50000200  0.88624600  1
  O  O2  1  0.64207100  0.50000100  0.11375400  1
  O  O3  1  0.14177600  0.00000000  0.61378600  1
  O  O4  1  0.85828200  0.50000300  0.35680900  1
  O  O5  1  0.35985600  0.99999700  0.85623900  1
  O  O6  1  0.64014300  0.00000400  0.14376200  1
  O  O7  1  0.14171800  0.49999900  0.64319100  1
  O  O8  1  0.09994100  0.26893100  0.11869300  1
  O  O9  1  0.59940400  0.76823200  0.61820700  1
  O  O10  1  0.09993300  0.73108200  0.11868700  1
  O  O11  1  0.59940700  0.23175400  0.61821800  1
  O  O12  1  0.40059200  0.76824800  0.38178300  1
  O  O13  1  0.90006600  0.26892000  0.88131300  1
  O  O14  1  0.40059400  0.23177100  0.38179400  1
  O  O15  1  0.90005700  0.73107100  0.88130800  1
loop_
_geom_bond_atom_site_label_1
_geom_bond_atom_site_label_2
_geom_bond_distance
_geom_bond_site_symmetry_2
Li0 O6 2.054295 1_555
Li0 O12 2.093914 1_545
Li0 O14 2.094036 1_555
Li0 O0 2.144604 1_455
Li0 O10 2.401877 1_545
Li0 O8 2.401892 1_555
Li1 O7 2.062314 1_655
Li1 O15 2.087420 1_555
Li1 O13 2.087543 1_555
Li1 O1 2.146715 1_555
Li1 O11 2.402711 1_555
Li1 O9 2.402753 1_555
Li2 O4 2.062309 1_455
Li2 O8 2.087416 1_555
Li2 O10 2.087543 1_555
Li2 O2 2.146715 1_555
Li2 O12 2.402717 1_555
Li2 O14 2.402753 1_555
Li3 O5 2.054303 1_545
Li3 O11 2.093910 1_555
Li3 O9 2.094030 1_545
Li3 O3 2.144592 1_655
Li3 O13 2.401875 1_555
Li3 O15 2.401894 1_545
Li4 O2 2.049718 1_555
Li4 O1 2.049738 1_554
Li4 O8 2.128712 1_555
Li4 O13 2.128737 1_554
Li4 O5 2.365694 1_544
Li4 O6 2.365706 1_555
Li5 O3 2.049829 1_565
Li5 O0 2.049873 1_465
Li5 O9 2.129273 1_455
Li5 O12 2.129275 1_555
Li5 O4 2.364700 1_455
Li5 O7 2.364735 1_555
Li6 O1 2.049713 1_554
Li6 O2 2.049734 1_555
Li6 O15 2.128704 1_554
Li6 O10 2.128737 1_555
Li6 O5 2.365696 1_554
Li6 O6 2.365697 1_565
Li7 O0 2.049827 1_555
Li7 O3 2.049866 1_655
Li7 O14 2.129269 1_655
Li7 O11 2.129275 1_555
Li7 O7 2.364695 1_655
Li7 O4 2.364739 1_555
Mn0 O1 1.932431 1_555
Mn0 O2 1.932575 1_456
Mn0 O13 1.972101 1_455
Mn0 O8 1.972114 1_556
Mn0 O10 1.972238 1_556
Mn0 O15 1.972282 1_455
Mn1 O0 1.933814 1_565
Mn1 O3 1.933890 1_565
Mn1 O12 1.970862 1_555
Mn1 O9 1.970918 1_555
Mn1 O14 1.970995 1_565
Mn1 O11 1.971016 1_565
Mn2 O12 1.977549 1_555
Mn2 O10 1.981310 1_655
Mn2 O4 1.997411 1_555
Mn2 O6 1.999028 1_565
Mn2 O0 2.185394 1_565
Mn2 O2 2.186465 1_555
Mn3 O11 1.977544 1_555
Mn3 O13 1.981310 1_455
Mn3 O7 1.997418 1_555
Mn3 O5 1.999029 1_545
Mn3 O3 2.185376 1_555
Mn3 O1 2.186478 1_555
Mn4 O14 1.977633 1_555
Mn4 O8 1.981272 1_655
Mn4 O4 1.997422 1_555
Mn4 O6 1.998962 1_555
Mn4 O0 2.185394 1_555
Mn4 O2 2.186498 1_555
Mn5 O9 1.977629 1_555
Mn5 O15 1.981276 1_455
Mn5 O7 1.997421 1_555
Mn5 O5 1.998962 1_555
Mn5 O3 2.185405 1_565
Mn5 O1 2.186483 1_555
Co0 O4 2.066112 1_555
Co0 O7 2.066112 1_555
Co0 O14 2.133825 1_555
Co0 O9 2.133832 1_555
Co0 O12 2.133998 1_555
Co0 O11 2.134002 1_555
Co1 O5 2.074890 1_544
Co1 O6 2.074898 1_455
Co1 O10 2.140899 1_545
Co1 O13 2.140901 1_454
Co1 O15 2.140974 1_444
Co1 O8 2.140976 1_555
