# generated using pymatgen
data_Ba3Zn3Te(PO7)2
_symmetry_space_group_name_H-M   'P 1'
_cell_length_a   8.61338009
_cell_length_b   8.61338009
_cell_length_c   5.35532100
_cell_angle_alpha   90.00000000
_cell_angle_beta   90.00000000
_cell_angle_gamma   120.00000072
_symmetry_Int_Tables_number   1
_chemical_formula_structural   Ba3Zn3Te(PO7)2
_chemical_formula_sum   'Ba3 Zn3 Te1 P2 O14'
_cell_volume   344.08311469
_cell_formula_units_Z   1
loop_
 _symmetry_equiv_pos_site_id
 _symmetry_equiv_pos_as_xyz
  1  'x, y, z'
loop_
 _atom_site_type_symbol
 _atom_site_label
 _atom_site_symmetry_multiplicity
 _atom_site_fract_x
 _atom_site_fract_y
 _atom_site_fract_z
 _atom_site_occupancy
  Ba  Ba0  1  0.56395800  0.00000000  0.00000000  1
  Ba  Ba1  1  0.43604200  0.43604200  0.00000000  1
  Ba  Ba2  1  0.00000000  0.56395800  0.00000000  1
  Zn  Zn0  1  0.76498400  0.76498400  0.50000000  1
  Zn  Zn1  1  0.00000000  0.23501600  0.50000000  1
  Zn  Zn2  1  0.23501600  0.00000000  0.50000000  1
  Te  Te0  1  0.00000000  0.00000000  0.00000000  1
  P  P0  1  0.33333300  0.66666700  0.46504800  1
  P  P1  1  0.66666700  0.33333300  0.53495200  1
  O  O0  1  0.33333300  0.66666700  0.75361000  1
  O  O1  1  0.66666700  0.33333300  0.24639000  1
  O  O2  1  0.90289100  0.78345900  0.20732700  1
  O  O3  1  0.88056800  0.09710900  0.20732700  1
  O  O4  1  0.21654100  0.11943200  0.20732700  1
  O  O5  1  0.11943200  0.21654100  0.79267300  1
  O  O6  1  0.09710900  0.88056800  0.79267300  1
  O  O7  1  0.78345900  0.90289100  0.79267300  1
  O  O8  1  0.51781100  0.70636200  0.35472700  1
  O  O9  1  0.18855100  0.48218900  0.35472700  1
  O  O10  1  0.29363800  0.81144900  0.35472700  1
  O  O11  1  0.81144900  0.29363800  0.64527300  1
  O  O12  1  0.48218900  0.18855100  0.64527300  1
  O  O13  1  0.70636200  0.51781100  0.64527300  1
loop_
_geom_bond_atom_site_label_1
_geom_bond_atom_site_label_2
_geom_bond_distance
_geom_bond_site_symmetry_2
Ba0 O3 2.662394 1_555
Ba0 O7 2.662394 1_544
Ba0 O10 2.808244 1_545
Ba0 O12 2.808244 1_554
Ba0 O1 2.868287 1_555
Ba0 O0 2.868288 1_544
Ba0 O11 3.026281 1_554
Ba0 O8 3.026281 1_545
Ba1 O4 2.662394 1_555
Ba1 O5 2.662394 1_554
Ba1 O13 2.808244 1_554
Ba1 O8 2.808244 1_555
Ba1 O1 2.868294 1_555
Ba1 O0 2.868294 1_554
Ba1 O9 3.026281 1_555
Ba1 O12 3.026281 1_554
Ba2 O6 2.662394 1_554
Ba2 O2 2.662394 1_455
Ba2 O11 2.808244 1_454
Ba2 O9 2.808244 1_555
Ba2 O0 2.868287 1_554
Ba2 O1 2.868288 1_455
Ba2 O10 3.026281 1_555
Ba2 O13 3.026281 1_454
O0 P0 1.545342 1_555
O1 P1 1.545342 1_555
O2 Zn0 1.924548 1_555
O2 Te0 1.962423 1_665
O3 Zn1 1.924548 1_655
O3 Te0 1.962423 1_655
O4 Zn2 1.924548 1_555
O4 Te0 1.962423 1_555
O5 Zn1 1.924548 1_555
O5 Te0 1.962423 1_556
O6 Zn2 1.924548 1_565
O6 Te0 1.962423 1_566
O7 Zn0 1.924548 1_555
O7 Te0 1.962423 1_666
O8 P0 1.564455 1_555
O8 Zn0 2.077940 1_555
O9 P0 1.564453 1_555
O9 Zn1 2.077940 1_555
O10 P0 1.564448 1_555
O10 Zn2 2.077940 1_565
O11 P1 1.564448 1_555
O11 Zn1 2.077940 1_655
O12 P1 1.564453 1_555
O12 Zn2 2.077940 1_555
O13 P1 1.564455 1_555
O13 Zn0 2.077940 1_555
