# generated using pymatgen
data_Li6NiO4
_symmetry_space_group_name_H-M   'P 1'
_cell_length_a   6.60063926
_cell_length_b   8.08130338
_cell_length_c   8.08150936
_cell_angle_alpha   109.47817819
_cell_angle_beta   90.03271964
_cell_angle_gamma   89.97227224
_symmetry_Int_Tables_number   1
_chemical_formula_structural   Li6NiO4
_chemical_formula_sum   'Li24 Ni4 O16'
_cell_volume   406.41046949
_cell_formula_units_Z   4
loop_
 _symmetry_equiv_pos_site_id
 _symmetry_equiv_pos_as_xyz
  1  'x, y, z'
loop_
 _atom_site_type_symbol
 _atom_site_label
 _atom_site_symmetry_multiplicity
 _atom_site_fract_x
 _atom_site_fract_y
 _atom_site_fract_z
 _atom_site_occupancy
  Li  Li0  1  0.24999100  0.47543100  0.22540500  1
  Li  Li1  1  0.24998900  0.97537600  0.72536300  1
  Li  Li2  1  0.24998700  0.22540800  0.97539000  1
  Li  Li3  1  0.24998900  0.72540600  0.47538900  1
  Li  Li4  1  0.75015000  0.52635800  0.77638800  1
  Li  Li5  1  0.74989000  0.02639100  0.27634200  1
  Li  Li6  1  0.74999900  0.77627200  0.02625700  1
  Li  Li7  1  0.75003900  0.27626600  0.52625200  1
  Li  Li8  1  0.03112000  0.64110600  0.10757700  1
  Li  Li9  1  0.03094500  0.14115600  0.60779200  1
  Li  Li10  1  0.03014900  0.85838700  0.89085800  1
  Li  Li11  1  0.03009800  0.35815100  0.39073700  1
  Li  Li12  1  0.46991300  0.64074300  0.10813300  1
  Li  Li13  1  0.46989200  0.14083400  0.60838800  1
  Li  Li14  1  0.46900700  0.85779200  0.89113800  1
  Li  Li15  1  0.46887200  0.35758300  0.39107400  1
  Li  Li16  1  0.53207200  0.13975400  0.10954900  1
  Li  Li17  1  0.53223900  0.63955700  0.60948200  1
  Li  Li18  1  0.53347000  0.35906000  0.89034900  1
  Li  Li19  1  0.53338700  0.85895400  0.39018900  1
  Li  Li20  1  0.96655400  0.14032100  0.10907500  1
  Li  Li21  1  0.96665800  0.64016800  0.60896200  1
  Li  Li22  1  0.96794700  0.35958300  0.88972200  1
  Li  Li23  1  0.96777300  0.85950000  0.38950300  1
  Ni  Ni0  1  0.75006300  0.99613900  0.74615100  1
  Ni  Ni1  1  0.25004300  0.49550300  0.74560100  1
  Ni  Ni2  1  0.24995400  0.99580000  0.24590000  1
  Ni  Ni3  1  0.75000500  0.49647800  0.24626700  1
  O  O0  1  0.01111500  0.60693500  0.35634000  1
  O  O1  1  0.01110800  0.10691900  0.85635000  1
  O  O2  1  0.48885900  0.60636900  0.35692600  1
  O  O3  1  0.48890900  0.10635900  0.85688900  1
  O  O4  1  0.24936300  0.23704000  0.22597400  1
  O  O5  1  0.24942400  0.73705900  0.72585200  1
  O  O6  1  0.25067000  0.47597100  0.98701300  1
  O  O7  1  0.25059300  0.97588300  0.48713000  1
  O  O8  1  0.51648400  0.39519000  0.64565700  1
  O  O9  1  0.51631200  0.89519700  0.14569500  1
  O  O10  1  0.98372100  0.39569200  0.64520100  1
  O  O11  1  0.98362400  0.89570400  0.14523600  1
  O  O12  1  0.74947600  0.76239100  0.77868100  1
  O  O13  1  0.74937600  0.26239900  0.27889200  1
  O  O14  1  0.75060800  0.52890500  0.01234200  1
  O  O15  1  0.75051600  0.02869000  0.51240300  1
loop_
_geom_bond_atom_site_label_1
_geom_bond_atom_site_label_2
_geom_bond_distance
_geom_bond_site_symmetry_2
Li0 O6 1.928034 1_554
Li0 O4 1.928055 1_555
Li0 O2 1.996242 1_555
Li0 O0 1.996372 1_555
Li1 O7 1.926659 1_555
Li1 O5 1.927239 1_555
Li1 O3 1.996656 1_565
Li1 O1 1.996659 1_565
Li2 O1 1.927157 1_555
Li2 O3 1.927582 1_555
Li2 O6 1.995527 1_555
Li2 O4 1.995727 1_556
Li3 O0 1.927106 1_555
Li3 O2 1.927167 1_555
Li3 O7 1.994554 1_555
Li3 O5 1.994700 1_555
Li4 O14 1.900101 1_556
Li4 O12 1.901359 1_555
Li4 O10 1.967136 1_555
Li4 O8 1.967615 1_555
Li5 O13 1.900481 1_555
Li5 O15 1.901617 1_555
Li5 O9 1.966993 1_545
Li5 O11 1.967804 1_545
Li6 O11 1.901295 1_555
Li6 O9 1.901633 1_555
Li6 O14 1.964415 1_555
Li6 O12 1.966230 1_554
Li7 O8 1.900833 1_555
Li7 O10 1.901502 1_555
Li7 O13 1.964520 1_555
Li7 O15 1.966251 1_555
Li8 O6 1.990713 1_554
Li8 O11 2.001509 1_455
Li8 O14 2.092218 1_455
Li8 O0 2.122709 1_555
Li9 O7 1.991960 1_545
Li9 O10 2.001125 1_455
Li9 O15 2.092678 1_455
Li9 O1 2.121237 1_555
Li10 O5 1.990801 1_555
Li10 O11 1.999645 1_456
Li10 O12 2.094358 1_455
Li10 O1 2.121495 1_565
Li11 O4 1.989289 1_555
Li11 O10 1.999827 1_455
Li11 O13 2.093370 1_455
Li11 O0 2.123089 1_555
Li12 O6 1.989082 1_554
Li12 O9 1.999654 1_555
Li12 O14 2.093393 1_555
Li12 O2 2.123103 1_555
Li13 O7 1.990382 1_545
Li13 O8 1.999529 1_555
Li13 O15 2.094096 1_555
Li13 O3 2.121157 1_555
Li14 O5 1.991719 1_555
Li14 O9 2.001401 1_556
Li14 O12 2.093043 1_555
Li14 O3 2.121322 1_565
Li15 O4 1.990192 1_555
Li15 O8 2.001611 1_555
Li15 O13 2.092164 1_555
Li15 O2 2.122746 1_555
Li16 O3 1.988761 1_554
Li16 O13 2.001789 1_555
Li16 O9 2.094591 1_545
Li16 O4 2.119629 1_555
Li17 O2 1.988487 1_555
Li17 O12 2.001279 1_555
Li17 O8 2.093176 1_555
Li17 O5 2.120491 1_555
Li18 O3 1.990539 1_555
Li18 O14 2.001992 1_556
Li18 O8 2.095953 1_555
Li18 O6 2.120156 1_555
Li19 O2 1.989916 1_555
Li19 O15 2.001962 1_565
Li19 O9 2.094815 1_555
Li19 O7 2.120663 1_555
Li20 O1 1.990901 1_654
Li20 O13 2.002403 1_555
Li20 O11 2.095457 1_545
Li20 O4 2.120146 1_655
Li21 O0 1.990273 1_655
Li21 O12 2.002319 1_555
Li21 O10 2.094613 1_555
Li21 O5 2.120180 1_655
Li22 O1 1.988805 1_655
Li22 O14 2.001949 1_556
Li22 O10 2.094226 1_555
Li22 O6 2.119488 1_655
Li23 O0 1.988541 1_655
Li23 O15 2.001615 1_565
Li23 O11 2.092568 1_555
Li23 O7 2.120644 1_655
Ni0 O12 1.992133 1_555
Ni0 O15 1.992252 1_565
Ni0 O1 2.007878 1_665
Ni0 O3 2.008578 1_565
Ni1 O10 1.990586 1_455
Ni1 O8 1.991503 1_555
Ni1 O6 2.009126 1_555
Ni1 O5 2.010945 1_555
Ni2 O11 1.991835 1_455
Ni2 O9 1.992227 1_555
Ni2 O7 2.008914 1_555
Ni2 O4 2.008976 1_565
Ni3 O14 1.993224 1_555
Ni3 O13 1.995132 1_555
Ni3 O0 2.007169 1_655
Ni3 O2 2.007560 1_555
