# generated using pymatgen
data_Hg2Pt
_symmetry_space_group_name_H-M   'P 1'
_cell_length_a   5.89170902
_cell_length_b   9.58184562
_cell_length_c   9.58184562
_cell_angle_alpha   90.00000000
_cell_angle_beta   90.00000000
_cell_angle_gamma   90.00000000
_symmetry_Int_Tables_number   1
_chemical_formula_structural   Hg2Pt
_chemical_formula_sum   'Hg16 Pt8'
_cell_volume   540.92820685
_cell_formula_units_Z   8
loop_
 _symmetry_equiv_pos_site_id
 _symmetry_equiv_pos_as_xyz
  1  'x, y, z'
loop_
 _atom_site_type_symbol
 _atom_site_label
 _atom_site_symmetry_multiplicity
 _atom_site_fract_x
 _atom_site_fract_y
 _atom_site_fract_z
 _atom_site_occupancy
  Hg  Hg0_0  1  0.25000000  0.25000000  0.00000000  1
  Hg  Hg0_1  1  0.25000000  0.25000000  0.50000000  1
  Hg  Hg0_2  1  0.25000000  0.75000000  0.00000000  1
  Hg  Hg0_3  1  0.25000000  0.75000000  0.50000000  1
  Hg  Hg0_4  1  0.75000000  0.25000000  0.00000000  1
  Hg  Hg0_5  1  0.75000000  0.25000000  0.50000000  1
  Hg  Hg0_6  1  0.75000000  0.75000000  0.00000000  1
  Hg  Hg0_7  1  0.75000000  0.75000000  0.50000000  1
  Hg  Hg1_0  1  0.25000000  0.00000000  0.25000000  1
  Hg  Hg1_1  1  0.25000000  0.00000000  0.75000000  1
  Hg  Hg1_2  1  0.25000000  0.50000000  0.25000000  1
  Hg  Hg1_3  1  0.25000000  0.50000000  0.75000000  1
  Hg  Hg1_4  1  0.75000000  0.00000000  0.25000000  1
  Hg  Hg1_5  1  0.75000000  0.00000000  0.75000000  1
  Hg  Hg1_6  1  0.75000000  0.50000000  0.25000000  1
  Hg  Hg1_7  1  0.75000000  0.50000000  0.75000000  1
  Pt  Pt0_0  1  0.00000000  0.00000000  0.00000000  1
  Pt  Pt0_1  1  0.00000000  0.00000000  0.50000000  1
  Pt  Pt0_2  1  0.00000000  0.50000000  0.00000000  1
  Pt  Pt0_3  1  0.00000000  0.50000000  0.50000000  1
  Pt  Pt0_4  1  0.50000000  0.00000000  0.00000000  1
  Pt  Pt0_5  1  0.50000000  0.00000000  0.50000000  1
  Pt  Pt0_6  1  0.50000000  0.50000000  0.00000000  1
  Pt  Pt0_7  1  0.50000000  0.50000000  0.50000000  1
loop_
_geom_bond_atom_site_label_1
_geom_bond_atom_site_label_2
_geom_bond_distance
_geom_bond_site_symmetry_2
Hg0_0 Pt0_0 2.812072 1_555
Hg0_0 Pt0_4 2.812072 1_555
Hg0_0 Pt0_2 2.812072 1_555
Hg0_0 Pt0_6 2.812072 1_555
Hg0_0 Hg0_4 2.945855 1_455
Hg0_0 Hg0_4 2.945855 1_555
Hg0_1 Pt0_7 2.812072 1_555
Hg0_1 Pt0_1 2.812072 1_555
Hg0_1 Pt0_5 2.812072 1_555
Hg0_1 Pt0_3 2.812072 1_555
Hg0_1 Hg0_5 2.945855 1_455
Hg0_1 Hg0_5 2.945855 1_555
Hg0_2 Pt0_0 2.812072 1_565
Hg0_2 Pt0_2 2.812072 1_555
Hg0_2 Pt0_4 2.812072 1_565
Hg0_2 Pt0_6 2.812072 1_555
Hg0_2 Hg0_6 2.945855 1_455
Hg0_2 Hg0_6 2.945855 1_555
Hg0_3 Pt0_7 2.812072 1_555
Hg0_3 Pt0_1 2.812072 1_565
Hg0_3 Pt0_3 2.812072 1_555
Hg0_3 Pt0_5 2.812072 1_565
Hg0_3 Hg0_7 2.945855 1_455
Hg0_3 Hg0_7 2.945855 1_555
Hg0_4 Pt0_2 2.812072 1_655
Hg0_4 Pt0_0 2.812072 1_655
Hg0_4 Pt0_6 2.812072 1_555
Hg0_4 Pt0_4 2.812072 1_555
Hg0_5 Pt0_1 2.812072 1_655
Hg0_5 Pt0_3 2.812072 1_655
Hg0_5 Pt0_7 2.812072 1_555
Hg0_5 Pt0_5 2.812072 1_555
Hg0_6 Pt0_2 2.812072 1_655
Hg0_6 Pt0_0 2.812072 1_665
Hg0_6 Pt0_6 2.812072 1_555
Hg0_6 Pt0_4 2.812072 1_565
Hg0_7 Pt0_1 2.812072 1_665
Hg0_7 Pt0_3 2.812072 1_655
Hg0_7 Pt0_5 2.812072 1_565
Hg0_7 Pt0_7 2.812072 1_555
Hg1_0 Pt0_1 2.812072 1_555
Hg1_0 Pt0_0 2.812072 1_555
Hg1_0 Pt0_4 2.812072 1_555
Hg1_0 Pt0_5 2.812072 1_555
Hg1_0 Hg1_4 2.945855 1_455
Hg1_0 Hg1_4 2.945855 1_555
Hg1_1 Pt0_1 2.812072 1_555
Hg1_1 Pt0_4 2.812072 1_556
Hg1_1 Pt0_5 2.812072 1_555
Hg1_1 Pt0_0 2.812072 1_556
Hg1_1 Hg1_5 2.945855 1_455
Hg1_1 Hg1_5 2.945855 1_555
Hg1_2 Pt0_7 2.812072 1_555
Hg1_2 Pt0_2 2.812072 1_555
Hg1_2 Pt0_6 2.812072 1_555
Hg1_2 Pt0_3 2.812072 1_555
Hg1_2 Hg1_6 2.945855 1_455
Hg1_2 Hg1_6 2.945855 1_555
Hg1_3 Pt0_7 2.812072 1_555
Hg1_3 Pt0_2 2.812072 1_556
Hg1_3 Pt0_3 2.812072 1_555
Hg1_3 Pt0_6 2.812072 1_556
Hg1_3 Hg1_7 2.945855 1_455
Hg1_3 Hg1_7 2.945855 1_555
Hg1_4 Pt0_1 2.812072 1_655
Hg1_4 Pt0_0 2.812072 1_655
Hg1_4 Pt0_4 2.812072 1_555
Hg1_4 Pt0_5 2.812072 1_555
Hg1_5 Pt0_1 2.812072 1_655
Hg1_5 Pt0_0 2.812072 1_656
Hg1_5 Pt0_4 2.812072 1_556
Hg1_5 Pt0_5 2.812072 1_555
Hg1_6 Pt0_2 2.812072 1_655
Hg1_6 Pt0_3 2.812072 1_655
Hg1_6 Pt0_6 2.812072 1_555
Hg1_6 Pt0_7 2.812072 1_555
Hg1_7 Pt0_2 2.812072 1_656
Hg1_7 Pt0_3 2.812072 1_655
Hg1_7 Pt0_6 2.812072 1_556
Hg1_7 Pt0_7 2.812072 1_555
Pt0_0 Pt0_4 2.945855 1_455
Pt0_0 Pt0_4 2.945855 1_555
Pt0_1 Pt0_5 2.945855 1_555
Pt0_1 Pt0_5 2.945855 1_455
Pt0_2 Pt0_6 2.945855 1_455
Pt0_2 Pt0_6 2.945855 1_555
Pt0_3 Pt0_7 2.945855 1_455
Pt0_3 Pt0_7 2.945855 1_555
