# generated using pymatgen
data_K2HgAsF6
_symmetry_space_group_name_H-M   'P 1'
_cell_length_a   6.57227186
_cell_length_b   6.57227186
_cell_length_c   6.57227186
_cell_angle_alpha   60.00000000
_cell_angle_beta   60.00000000
_cell_angle_gamma   60.00000000
_symmetry_Int_Tables_number   1
_chemical_formula_structural   K2HgAsF6
_chemical_formula_sum   'K2 Hg1 As1 F6'
_cell_volume   200.73890968
_cell_formula_units_Z   1
loop_
 _symmetry_equiv_pos_site_id
 _symmetry_equiv_pos_as_xyz
  1  'x, y, z'
loop_
 _atom_site_type_symbol
 _atom_site_label
 _atom_site_symmetry_multiplicity
 _atom_site_fract_x
 _atom_site_fract_y
 _atom_site_fract_z
 _atom_site_occupancy
  K  K0  1  0.25000000  0.25000000  0.25000000  1
  K  K1  1  0.75000000  0.75000000  0.75000000  1
  Hg  Hg0  1  0.50000000  0.50000000  0.50000000  1
  As  As0  1  0.00000000  0.00000000  0.00000000  1
  F  F0  1  0.21571900  0.21571900  0.78428100  1
  F  F1  1  0.21571900  0.78428100  0.78428100  1
  F  F2  1  0.78428100  0.78428100  0.21571900  1
  F  F3  1  0.21571900  0.78428100  0.21571900  1
  F  F4  1  0.78428100  0.21571900  0.78428100  1
  F  F5  1  0.78428100  0.21571900  0.21571900  1
loop_
_geom_bond_atom_site_label_1
_geom_bond_atom_site_label_2
_geom_bond_distance
_geom_bond_site_symmetry_2
As0 F1 2.005021 1_544
As0 F5 2.005021 1_455
As0 F2 2.005021 1_445
As0 F0 2.005021 1_554
As0 F4 2.005021 1_454
As0 F3 2.005021 1_545
F0 Hg0 2.642277 1_555
F0 K0 3.301547 1_555
F0 K0 3.301547 1_556
F0 K1 3.301547 1_545
F0 K1 3.301547 1_455
F1 Hg0 2.642277 1_555
F1 K0 3.301547 1_556
F1 K1 3.301547 1_555
F1 K0 3.301547 1_565
F1 K1 3.301547 1_455
F2 Hg0 2.642277 1_555
F2 K0 3.301547 1_655
F2 K1 3.301547 1_555
F2 K1 3.301547 1_554
F2 K0 3.301547 1_565
F3 Hg0 2.642277 1_555
F3 K0 3.301547 1_555
F3 K1 3.301547 1_554
F3 K0 3.301547 1_565
F3 K1 3.301547 1_455
F4 Hg0 2.642277 1_555
F4 K0 3.301547 1_655
F4 K0 3.301547 1_556
F4 K1 3.301547 1_555
F4 K1 3.301547 1_545
F5 Hg0 2.642277 1_555
F5 K0 3.301547 1_555
F5 K0 3.301547 1_655
F5 K1 3.301547 1_554
F5 K1 3.301547 1_545
