# generated using pymatgen
data_CrN2
_symmetry_space_group_name_H-M   'P 1'
_cell_length_a   13.73304493
_cell_length_b   13.73304493
_cell_length_c   13.73304493
_cell_angle_alpha   133.14926022
_cell_angle_beta   133.14926022
_cell_angle_gamma   68.41984081
_symmetry_Int_Tables_number   1
_chemical_formula_structural   CrN2
_chemical_formula_sum   'Cr16 N32'
_cell_volume   1354.09758527
_cell_formula_units_Z   16
loop_
 _symmetry_equiv_pos_site_id
 _symmetry_equiv_pos_as_xyz
  1  'x, y, z'
loop_
 _atom_site_type_symbol
 _atom_site_label
 _atom_site_symmetry_multiplicity
 _atom_site_fract_x
 _atom_site_fract_y
 _atom_site_fract_z
 _atom_site_occupancy
  Cr  Cr0  1  0.32929200  0.52164900  0.49324800  1
  Cr  Cr1  1  0.02840200  0.83604400  0.50675200  1
  Cr  Cr2  1  0.72159800  0.41395600  0.99324800  1
  Cr  Cr3  1  0.42070800  0.72835100  0.00675200  1
  Cr  Cr4  1  0.32929200  0.83604400  0.80764200  1
  Cr  Cr5  1  0.02840200  0.52164900  0.19235800  1
  Cr  Cr6  1  0.72159800  0.72835100  0.30764200  1
  Cr  Cr7  1  0.42070800  0.41395600  0.69235800  1
  Cr  Cr8  1  0.16395600  0.97159800  0.49324800  1
  Cr  Cr9  1  0.47835100  0.67070800  0.50675200  1
  Cr  Cr10  1  0.27164900  0.57929200  0.99324800  1
  Cr  Cr11  1  0.58604400  0.27840200  0.00675200  1
  Cr  Cr12  1  0.16395600  0.67070800  0.19235800  1
  Cr  Cr13  1  0.47835100  0.97159800  0.80764200  1
  Cr  Cr14  1  0.27164900  0.27840200  0.69235800  1
  Cr  Cr15  1  0.58604400  0.57929200  0.30764200  1
  N  N0  1  0.44579400  0.55420600  0.50000000  1
  N  N1  1  0.05420600  0.94579400  0.50000000  1
  N  N2  1  0.69579400  0.30420600  0.00000000  1
  N  N3  1  0.30420600  0.69579400  0.00000000  1
  N  N4  1  0.44579400  0.94579400  0.89158800  1
  N  N5  1  0.05420600  0.55420600  0.10841200  1
  N  N6  1  0.69579400  0.69579400  0.39158800  1
  N  N7  1  0.30420600  0.30420600  0.60841200  1
  N  N8  1  0.42231700  0.57380400  0.84851300  1
  N  N9  1  0.72529000  0.57380400  0.15148700  1
  N  N10  1  0.02471000  0.67619600  0.34851300  1
  N  N11  1  0.32768300  0.67619600  0.65148700  1
  N  N12  1  0.42619600  0.27471000  0.84851300  1
  N  N13  1  0.42619600  0.57768300  0.15148700  1
  N  N14  1  0.32380400  0.67231700  0.34851300  1
  N  N15  1  0.32380400  0.97529000  0.65148700  1
  N  N16  1  0.58163700  0.78471500  0.20307800  1
  N  N17  1  0.58163700  0.37856000  0.79692200  1
  N  N18  1  0.16836300  0.87144000  0.70307800  1
  N  N19  1  0.16836300  0.46528500  0.29692200  1
  N  N20  1  0.62144000  0.41836300  0.20307800  1
  N  N21  1  0.21528500  0.41836300  0.79692200  1
  N  N22  1  0.53471500  0.83163700  0.70307800  1
  N  N23  1  0.12856000  0.83163700  0.29692200  1
  N  N24  1  0.37500000  0.41525200  0.54025200  1
  N  N25  1  0.87500000  0.83474800  0.45974800  1
  N  N26  1  0.87500000  0.41525200  0.04025200  1
  N  N27  1  0.37500000  0.83474800  0.95974800  1
  N  N28  1  0.16525200  0.12500000  0.54025200  1
  N  N29  1  0.58474800  0.62500000  0.45974800  1
  N  N30  1  0.16525200  0.62500000  0.04025200  1
  N  N31  1  0.58474800  0.12500000  0.95974800  1
loop_
_geom_bond_atom_site_label_1
_geom_bond_atom_site_label_2
_geom_bond_distance
_geom_bond_site_symmetry_2
Cr0 N11 1.717573 1_555
Cr0 N19 1.733875 1_555
Cr0 N24 1.734030 1_555
Cr0 N0 1.742082 1_555
Cr1 N10 1.717573 1_555
Cr1 N18 1.733878 1_555
Cr1 N25 1.734044 1_455
Cr1 N1 1.742074 1_555
Cr2 N9 1.717573 1_556
Cr2 N17 1.733878 1_555
Cr2 N26 1.734044 1_556
Cr2 N2 1.742074 1_556
Cr3 N8 1.717573 1_554
Cr3 N16 1.733875 1_555
Cr3 N27 1.734030 1_554
Cr3 N3 1.742082 1_555
Cr4 N11 1.717568 1_555
Cr4 N18 1.733868 1_555
Cr4 N27 1.734044 1_555
Cr4 N4 1.742074 1_555
Cr5 N10 1.717568 1_555
Cr5 N19 1.733865 1_555
Cr5 N26 1.734037 1_455
Cr5 N5 1.742085 1_555
Cr6 N9 1.717568 1_555
Cr6 N16 1.733865 1_555
Cr6 N25 1.734037 1_555
Cr6 N6 1.742085 1_555
Cr7 N8 1.717568 1_555
Cr7 N17 1.733868 1_555
Cr7 N24 1.734044 1_555
Cr7 N7 1.742074 1_555
Cr8 N15 1.717573 1_555
Cr8 N23 1.733878 1_555
Cr8 N28 1.734044 1_565
Cr8 N1 1.742074 1_555
Cr9 N14 1.717573 1_555
Cr9 N22 1.733875 1_555
Cr9 N29 1.734030 1_555
Cr9 N0 1.742082 1_555
Cr10 N13 1.717573 1_556
Cr10 N21 1.733875 1_555
Cr10 N30 1.734030 1_556
Cr10 N3 1.742082 1_556
Cr11 N12 1.717573 1_554
Cr11 N20 1.733878 1_555
Cr11 N31 1.734044 1_554
Cr11 N2 1.742074 1_555
Cr12 N14 1.717568 1_555
Cr12 N23 1.733868 1_555
Cr12 N30 1.734044 1_555
Cr12 N5 1.742074 1_555
Cr13 N15 1.717568 1_555
Cr13 N22 1.733865 1_555
Cr13 N31 1.734037 1_565
Cr13 N4 1.742085 1_555
Cr14 N12 1.717568 1_555
Cr14 N21 1.733865 1_555
Cr14 N28 1.734037 1_555
Cr14 N7 1.742085 1_555
Cr15 N13 1.717568 1_555
Cr15 N20 1.733868 1_555
Cr15 N29 1.734044 1_555
Cr15 N6 1.742074 1_555
