# generated using pymatgen
data_LiTm6B3O14
_symmetry_space_group_name_H-M   'P 1'
_cell_length_a   8.29766320
_cell_length_b   8.76420959
_cell_length_c   15.38903500
_cell_angle_alpha   90.00000000
_cell_angle_beta   90.00000000
_cell_angle_gamma   91.76511450
_symmetry_Int_Tables_number   1
_chemical_formula_structural   LiTm6B3O14
_chemical_formula_sum   'Li4 Tm24 B12 O56'
_cell_volume   1118.59744662
_cell_formula_units_Z   4
loop_
 _symmetry_equiv_pos_site_id
 _symmetry_equiv_pos_as_xyz
  1  'x, y, z'
loop_
 _atom_site_type_symbol
 _atom_site_label
 _atom_site_symmetry_multiplicity
 _atom_site_fract_x
 _atom_site_fract_y
 _atom_site_fract_z
 _atom_site_occupancy
  Li  Li0  1  0.68132200  0.56147000  0.39574300  1
  Li  Li1  1  0.31867800  0.43853000  0.60425700  1
  Li  Li2  1  0.81867800  0.93853000  0.89574300  1
  Li  Li3  1  0.18132200  0.06147000  0.10425700  1
  Tm  Tm0  1  0.14301800  0.69256500  0.17805800  1
  Tm  Tm1  1  0.85698200  0.30743500  0.82194200  1
  Tm  Tm2  1  0.35698200  0.80743500  0.67805800  1
  Tm  Tm3  1  0.64301800  0.19256500  0.32194200  1
  Tm  Tm4  1  0.96056800  0.94330900  0.67336000  1
  Tm  Tm5  1  0.03943200  0.05669100  0.32664000  1
  Tm  Tm6  1  0.53943200  0.55669100  0.17336000  1
  Tm  Tm7  1  0.46056800  0.44330900  0.82664000  1
  Tm  Tm8  1  0.72565000  0.57490300  0.64419600  1
  Tm  Tm9  1  0.27435000  0.42509700  0.35580400  1
  Tm  Tm10  1  0.77435000  0.92509700  0.14419600  1
  Tm  Tm11  1  0.22565000  0.07490300  0.85580400  1
  Tm  Tm12  1  0.05116500  0.71756600  0.48684200  1
  Tm  Tm13  1  0.94883500  0.28243400  0.51315800  1
  Tm  Tm14  1  0.44883500  0.78243400  0.98684200  1
  Tm  Tm15  1  0.55116500  0.21756600  0.01315800  1
  Tm  Tm16  1  0.69907700  0.93933200  0.49646500  1
  Tm  Tm17  1  0.30092300  0.06066800  0.50353500  1
  Tm  Tm18  1  0.80092300  0.56066800  0.99646500  1
  Tm  Tm19  1  0.19907700  0.43933200  0.00353500  1
  Tm  Tm20  1  0.42134900  0.83587200  0.33365100  1
  Tm  Tm21  1  0.57865100  0.16412800  0.66634900  1
  Tm  Tm22  1  0.07865100  0.66412800  0.83365100  1
  Tm  Tm23  1  0.92134900  0.33587200  0.16634900  1
  B  B0  1  0.42921500  0.97236600  0.17268000  1
  B  B1  1  0.57078500  0.02763400  0.82732000  1
  B  B2  1  0.07078500  0.52763400  0.67268000  1
  B  B3  1  0.92921500  0.47236600  0.32732000  1
  B  B4  1  0.06450400  0.85384300  0.00030100  1
  B  B5  1  0.93549600  0.14615700  0.99969900  1
  B  B6  1  0.43549600  0.64615700  0.50030100  1
  B  B7  1  0.56450400  0.35384300  0.49969900  1
  B  B8  1  0.82052100  0.77817400  0.30738700  1
  B  B9  1  0.17947900  0.22182600  0.69261300  1
  B  B10  1  0.67947900  0.72182600  0.80738700  1
  B  B11  1  0.32052100  0.27817400  0.19261300  1
  O  O0  1  0.94135600  0.82318900  0.24856800  1
  O  O1  1  0.05864400  0.17681100  0.75143200  1
  O  O2  1  0.55864400  0.67681100  0.74856800  1
  O  O3  1  0.44135600  0.32318900  0.25143200  1
  O  O4  1  0.71163700  0.40822100  0.53379000  1
  O  O5  1  0.28836300  0.59177900  0.46621000  1
  O  O6  1  0.78836300  0.09177900  0.03379000  1
  O  O7  1  0.21163700  0.90822100  0.96621000  1
  O  O8  1  0.84291100  0.77828300  0.57961000  1
  O  O9  1  0.15708900  0.22171700  0.42039000  1
  O  O10  1  0.65708900  0.72171700  0.07961000  1
  O  O11  1  0.34291100  0.27828300  0.92039000  1
  O  O12  1  0.02748400  0.88080200  0.08630300  1
  O  O13  1  0.97251600  0.11919800  0.91369700  1
  O  O14  1  0.47251600  0.61919800  0.58630300  1
  O  O15  1  0.52748400  0.38080200  0.41369700  1
  O  O16  1  0.46614400  0.99145900  0.08645700  1
  O  O17  1  0.53385600  0.00854100  0.91354300  1
  O  O18  1  0.03385600  0.50854100  0.58645700  1
  O  O19  1  0.96614400  0.49145900  0.41354300  1
  O  O20  1  0.28196200  0.92080800  0.20526600  1
  O  O21  1  0.71803800  0.07919200  0.79473400  1
  O  O22  1  0.21803800  0.57919200  0.70526600  1
  O  O23  1  0.78196200  0.42080800  0.29473400  1
  O  O24  1  0.45749400  0.27473200  0.55232500  1
  O  O25  1  0.54250600  0.72526800  0.44767500  1
  O  O26  1  0.04250600  0.22526800  0.05232500  1
  O  O27  1  0.95749400  0.77473200  0.94767500  1
  O  O28  1  0.19271600  0.89491000  0.40177200  1
  O  O29  1  0.80728400  0.10509000  0.59822800  1
  O  O30  1  0.30728400  0.60509000  0.90177200  1
  O  O31  1  0.69271600  0.39491000  0.09822800  1
  O  O32  1  0.00912500  0.53694600  0.08955700  1
  O  O33  1  0.99087500  0.46305400  0.91044300  1
  O  O34  1  0.49087500  0.96305400  0.58955700  1
  O  O35  1  0.50912500  0.03694600  0.41044300  1
  O  O36  1  0.16212800  0.87543400  0.58515200  1
  O  O37  1  0.83787200  0.12456600  0.41484800  1
  O  O38  1  0.33787200  0.62456600  0.08515200  1
  O  O39  1  0.66212800  0.37543400  0.91484800  1
  O  O40  1  0.15322700  0.87728300  0.76823600  1
  O  O41  1  0.84677300  0.12271700  0.23176400  1
  O  O42  1  0.34677300  0.62271700  0.26823600  1
  O  O43  1  0.65322700  0.37728300  0.73176400  1
  O  O44  1  0.82661500  0.77401200  0.77477900  1
  O  O45  1  0.17338500  0.22598800  0.22522100  1
  O  O46  1  0.67338500  0.72598800  0.27477900  1
  O  O47  1  0.32661500  0.27401200  0.72522100  1
  O  O48  1  0.85167000  0.79979700  0.39488900  1
  O  O49  1  0.14833000  0.20020300  0.60511100  1
  O  O50  1  0.64833000  0.70020300  0.89488900  1
  O  O51  1  0.35167000  0.29979700  0.10511100  1
  O  O52  1  0.55115300  0.99746400  0.23313400  1
  O  O53  1  0.44884700  0.00253600  0.76686600  1
  O  O54  1  0.94884700  0.50253600  0.73313400  1
  O  O55  1  0.05115300  0.49746400  0.26686600  1
loop_
_geom_bond_atom_site_label_1
_geom_bond_atom_site_label_2
_geom_bond_distance
_geom_bond_site_symmetry_2
Li0 O15 2.021994 1_555
Li0 O25 2.031784 1_555
Li0 O23 2.167211 1_555
Li0 O46 2.356784 1_555
Li0 O19 2.475140 1_555
Li0 O48 2.485782 1_555
Li0 O4 2.530047 1_555
Li1 O14 2.021994 1_555
Li1 O24 2.031784 1_555
Li1 O22 2.167211 1_555
Li1 O47 2.356784 1_555
Li1 O18 2.475140 1_555
Li1 O49 2.485782 1_555
Li1 O5 2.530047 1_555
Li2 O13 2.021994 1_565
Li2 O27 2.031784 1_555
Li2 O21 2.167211 1_565
Li2 O44 2.356784 1_555
Li2 O17 2.475140 1_565
Li2 O50 2.485782 1_555
Li2 O6 2.530047 1_566
Li3 O12 2.021994 1_545
Li3 O26 2.031784 1_555
Li3 O20 2.167211 1_545
Li3 O45 2.356784 1_555
Li3 O16 2.475140 1_545
Li3 O51 2.485782 1_555
Li3 O7 2.530047 1_544
B0 O16 1.370902 1_555
B0 O20 1.383680 1_555
B0 O52 1.387056 1_555
B1 O17 1.370902 1_555
B1 O21 1.383680 1_555
B1 O53 1.387056 1_555
B2 O18 1.370902 1_555
B2 O22 1.383680 1_555
B2 O54 1.387056 1_455
B3 O19 1.370902 1_555
B3 O23 1.383680 1_555
B3 O55 1.387056 1_655
B4 O27 1.373719 1_454
B4 O12 1.380680 1_555
B4 O7 1.398935 1_554
B5 O26 1.373719 1_656
B5 O13 1.380680 1_555
B5 O6 1.398935 1_556
B6 O25 1.373719 1_555
B6 O14 1.380680 1_555
B6 O5 1.398935 1_555
B7 O24 1.373719 1_555
B7 O15 1.380680 1_555
B7 O4 1.398935 1_555
B8 O48 1.383096 1_555
B8 O46 1.384614 1_555
B8 O0 1.398538 1_555
B9 O49 1.383096 1_555
B9 O47 1.384614 1_555
B9 O1 1.398538 1_555
B10 O50 1.383096 1_555
B10 O44 1.384614 1_555
B10 O2 1.398538 1_555
B11 O51 1.383096 1_555
B11 O45 1.384614 1_555
B11 O3 1.398538 1_555
O0 Tm10 2.318212 1_555
O0 Tm0 2.325087 1_655
O0 Tm5 2.488205 1_665
O1 Tm11 2.318212 1_555
O1 Tm1 2.325087 1_455
O1 Tm4 2.488205 1_445
O2 Tm8 2.318212 1_555
O2 Tm2 2.325087 1_555
O2 Tm7 2.488205 1_555
O3 Tm9 2.318212 1_555
O3 Tm3 2.325087 1_555
O3 Tm6 2.488205 1_555
O4 Tm8 2.241393 1_555
O4 Tm13 2.307289 1_555
O5 Tm9 2.241393 1_555
O5 Tm12 2.307289 1_555
O6 Tm10 2.241393 1_545
O6 Tm15 2.307289 1_555
O7 Tm11 2.241393 1_565
O7 Tm14 2.307289 1_555
O8 Tm8 2.237168 1_555
O8 Tm4 2.244867 1_555
O8 Tm16 2.271035 1_555
O8 Tm12 2.316019 1_655
O9 Tm9 2.237168 1_555
O9 Tm5 2.244867 1_555
O9 Tm17 2.271035 1_555
O9 Tm13 2.316019 1_455
O10 Tm10 2.237168 1_555
O10 Tm6 2.244867 1_555
O10 Tm18 2.271035 1_554
O10 Tm14 2.316019 1_554
O11 Tm11 2.237168 1_555
O11 Tm7 2.244867 1_555
O11 Tm19 2.271035 1_556
O11 Tm15 2.316019 1_556
O12 Tm10 2.325175 1_455
O12 Tm0 2.394146 1_555
O13 Tm11 2.325175 1_655
O13 Tm1 2.394146 1_555
O14 Tm8 2.325175 1_555
O14 Tm2 2.394146 1_555
O15 Tm9 2.325175 1_555
O15 Tm3 2.394146 1_555
O16 Tm15 2.368732 1_565
O16 Tm14 2.389653 1_554
O17 Tm14 2.368732 1_545
O17 Tm15 2.389653 1_556
O18 Tm13 2.368732 1_455
O18 Tm12 2.389653 1_555
O19 Tm12 2.368732 1_655
O19 Tm13 2.389653 1_555
O20 Tm0 2.316014 1_555
O20 Tm20 2.418333 1_555
O21 Tm1 2.316014 1_555
O21 Tm21 2.418333 1_555
O22 Tm2 2.316014 1_555
O22 Tm22 2.418333 1_555
O23 Tm3 2.316014 1_555
O23 Tm23 2.418333 1_555
O24 Tm21 2.255969 1_555
O24 Tm17 2.370908 1_555
O25 Tm20 2.255969 1_555
O25 Tm16 2.370908 1_555
O26 Tm23 2.255969 1_455
O26 Tm19 2.370908 1_555
O27 Tm22 2.255969 1_655
O27 Tm18 2.370908 1_555
O28 Tm20 2.241925 1_555
O28 Tm5 2.253006 1_565
O28 Tm17 2.299721 1_565
O28 Tm12 2.323087 1_555
O29 Tm21 2.241925 1_555
O29 Tm4 2.253006 1_545
O29 Tm16 2.299721 1_545
O29 Tm13 2.323087 1_555
O30 Tm22 2.241925 1_555
O30 Tm7 2.253006 1_555
O30 Tm19 2.299721 1_556
O30 Tm14 2.323087 1_555
O31 Tm23 2.241925 1_555
O31 Tm6 2.253006 1_555
O31 Tm18 2.299721 1_554
O31 Tm15 2.323087 1_555
O32 Tm0 2.203640 1_555
O32 Tm23 2.225643 1_455
O32 Tm19 2.247593 1_555
O32 Tm18 2.258816 1_454
O33 Tm1 2.203640 1_555
O33 Tm22 2.225643 1_655
O33 Tm18 2.247593 1_555
O33 Tm19 2.258816 1_656
O34 Tm2 2.203640 1_555
O34 Tm21 2.225643 1_565
O34 Tm17 2.247593 1_565
O34 Tm16 2.258816 1_555
O35 Tm3 2.203640 1_555
O35 Tm20 2.225643 1_545
O35 Tm16 2.247593 1_545
O35 Tm17 2.258816 1_555
O36 Tm12 2.229897 1_555
O36 Tm4 2.248327 1_455
O36 Tm2 2.252290 1_555
O36 Tm17 2.329002 1_565
O37 Tm13 2.229897 1_555
O37 Tm5 2.248327 1_655
O37 Tm3 2.252290 1_555
O37 Tm16 2.329002 1_545
O38 Tm14 2.229897 1_554
O38 Tm6 2.248327 1_555
O38 Tm0 2.252290 1_555
O38 Tm19 2.329002 1_555
O39 Tm15 2.229897 1_556
O39 Tm7 2.248327 1_555
O39 Tm1 2.252290 1_555
O39 Tm18 2.329002 1_555
O40 Tm22 2.194317 1_555
O40 Tm4 2.253702 1_455
O40 Tm11 2.261143 1_565
O40 Tm2 2.285343 1_555
O41 Tm23 2.194317 1_555
O41 Tm5 2.253702 1_655
O41 Tm10 2.261143 1_545
O41 Tm3 2.285343 1_555
O42 Tm20 2.194317 1_555
O42 Tm6 2.253702 1_555
O42 Tm9 2.261143 1_555
O42 Tm0 2.285343 1_555
O43 Tm21 2.194317 1_555
O43 Tm7 2.253702 1_555
O43 Tm8 2.261143 1_555
O43 Tm1 2.285343 1_555
O44 Tm4 2.402346 1_555
O44 Tm22 2.499183 1_655
O45 Tm5 2.402346 1_555
O45 Tm23 2.499183 1_455
O46 Tm6 2.402346 1_555
O46 Tm20 2.499183 1_555
O47 Tm7 2.402346 1_555
O47 Tm21 2.499183 1_555
O48 Tm12 2.309862 1_655
O48 Tm16 2.374351 1_555
O49 Tm13 2.309862 1_455
O49 Tm17 2.374351 1_555
O50 Tm14 2.309862 1_555
O50 Tm18 2.374351 1_555
O51 Tm15 2.309862 1_555
O51 Tm19 2.374351 1_555
O52 Tm3 2.300504 1_565
O52 Tm20 2.337644 1_555
O52 Tm10 2.403712 1_555
O53 Tm2 2.300504 1_545
O53 Tm21 2.337644 1_555
O53 Tm11 2.403712 1_555
O54 Tm1 2.300504 1_555
O54 Tm22 2.337644 1_655
O54 Tm8 2.403712 1_555
O55 Tm0 2.300504 1_555
O55 Tm23 2.337644 1_455
O55 Tm9 2.403712 1_555
