# generated using pymatgen
data_Mn4FeO5
_symmetry_space_group_name_H-M   'P 1'
_cell_length_a   11.26630415
_cell_length_b   11.26630415
_cell_length_c   11.26630415
_cell_angle_alpha   163.81276118
_cell_angle_beta   163.81276118
_cell_angle_gamma   22.96966430
_symmetry_Int_Tables_number   1
_chemical_formula_structural   Mn4FeO5
_chemical_formula_sum   'Mn4 Fe1 O5'
_cell_volume   111.11435004
_cell_formula_units_Z   1
loop_
 _symmetry_equiv_pos_site_id
 _symmetry_equiv_pos_as_xyz
  1  'x, y, z'
loop_
 _atom_site_type_symbol
 _atom_site_label
 _atom_site_symmetry_multiplicity
 _atom_site_fract_x
 _atom_site_fract_y
 _atom_site_fract_z
 _atom_site_occupancy
  Mn  Mn0  1  0.40289500  0.40289500  0.00000000  1
  Mn  Mn1  1  0.80104200  0.80104200  0.00000000  1
  Mn  Mn2  1  0.19895800  0.19895800  0.00000000  1
  Mn  Mn3  1  0.59710500  0.59710500  0.00000000  1
  Fe  Fe0  1  0.00000000  0.00000000  0.00000000  1
  O  O0  1  0.09595000  0.09595000  0.00000000  1
  O  O1  1  0.50000000  0.50000000  0.00000000  1
  O  O2  1  0.90405000  0.90405000  0.00000000  1
  O  O3  1  0.30052600  0.30052600  0.00000000  1
  O  O4  1  0.69947400  0.69947400  0.00000000  1
loop_
_geom_bond_atom_site_label_1
_geom_bond_atom_site_label_2
_geom_bond_distance
_geom_bond_site_symmetry_2
Mn0 O1 2.144219 1_555
Mn0 O2 2.243362 1_556
Mn0 O2 2.243362 1_444
Mn0 O2 2.243362 1_545
Mn0 O2 2.243362 1_455
Mn0 O3 2.260456 1_555
Mn1 O4 2.242769 1_555
Mn1 O3 2.243246 1_554
Mn1 O3 2.243246 1_655
Mn1 O3 2.243246 1_666
Mn1 O3 2.243246 1_565
Mn1 O2 2.274566 1_555
Mn2 O3 2.242769 1_555
Mn2 O4 2.243246 1_444
Mn2 O4 2.243246 1_545
Mn2 O4 2.243246 1_455
Mn2 O4 2.243246 1_556
Mn2 O0 2.274566 1_555
Mn3 O1 2.144219 1_555
Mn3 O0 2.243362 1_666
Mn3 O0 2.243362 1_554
Mn3 O0 2.243362 1_655
Mn3 O0 2.243362 1_565
Mn3 O4 2.260456 1_555
Fe0 O2 2.118715 1_445
Fe0 O0 2.118715 1_555
Fe0 O1 2.243217 1_455
Fe0 O1 2.243217 1_556
Fe0 O1 2.243217 1_545
Fe0 O1 2.243217 1_444
