# generated using pymatgen
data_Te2MoWS2
_symmetry_space_group_name_H-M   'P 1'
_cell_length_a   3.35995938
_cell_length_b   3.35995938
_cell_length_c   38.44101800
_cell_angle_alpha   90.00000000
_cell_angle_beta   90.00000000
_cell_angle_gamma   119.99998780
_symmetry_Int_Tables_number   1
_chemical_formula_structural   Te2MoWS2
_chemical_formula_sum   'Te4 Mo2 W2 S4'
_cell_volume   375.83188261
_cell_formula_units_Z   2
loop_
 _symmetry_equiv_pos_site_id
 _symmetry_equiv_pos_as_xyz
  1  'x, y, z'
loop_
 _atom_site_type_symbol
 _atom_site_label
 _atom_site_symmetry_multiplicity
 _atom_site_fract_x
 _atom_site_fract_y
 _atom_site_fract_z
 _atom_site_occupancy
  Te  Te0  1  0.00000000  0.00000000  0.70657600  1
  Te  Te1  1  0.33333300  0.66666700  0.42021900  1
  Te  Te2  1  0.33333300  0.66666700  0.51894900  1
  Te  Te3  1  0.00000000  0.00000000  0.60862600  1
  Mo  Mo0  1  0.00000000  0.00000000  0.09392800  1
  Mo  Mo1  1  0.33333300  0.66666700  0.65762900  1
  W  W0  1  0.00000000  0.00000000  0.46960500  1
  W  W1  1  0.33333300  0.66666700  0.28180300  1
  S  S0  1  0.00000000  0.00000000  0.32124400  1
  S  S1  1  0.33333300  0.66666700  0.05450000  1
  S  S2  1  0.33333300  0.66666700  0.13334500  1
  S  S3  1  0.00000000  0.00000000  0.24232400  1
loop_
_geom_bond_atom_site_label_1
_geom_bond_atom_site_label_2
_geom_bond_distance
_geom_bond_site_symmetry_2
Te1 W0 2.714260 1_565
Te1 W0 2.714262 1_555
Te1 W0 2.714262 1_665
Te2 W0 2.713131 1_565
Te2 W0 2.713133 1_665
Te2 W0 2.713133 1_555
Mo0 S2 2.461508 1_545
Mo0 S2 2.461511 1_555
Mo0 S2 2.461511 1_445
Mo0 S1 2.461768 1_545
Mo0 S1 2.461771 1_445
Mo0 S1 2.461771 1_555
Mo1 Te0 2.702483 1_565
Mo1 Te0 2.702486 1_665
Mo1 Te0 2.702486 1_555
Mo1 Te3 2.703983 1_565
Mo1 Te3 2.703985 1_665
Mo1 Te3 2.703985 1_555
S0 W1 2.462076 1_545
S0 W1 2.462079 1_555
S0 W1 2.462079 1_445
S3 W1 2.462976 1_545
S3 W1 2.462978 1_445
S3 W1 2.462978 1_555
