# generated using pymatgen
data_Ti4Cr
_symmetry_space_group_name_H-M   'P 1'
_cell_length_a   22.69859521
_cell_length_b   22.41846484
_cell_length_c   5.60791121
_cell_angle_alpha   85.70977018
_cell_angle_beta   80.02756369
_cell_angle_gamma   14.26266614
_symmetry_Int_Tables_number   1
_chemical_formula_structural   Ti4Cr
_chemical_formula_sum   'Ti32 Cr8'
_cell_volume   639.52164050
_cell_formula_units_Z   8
loop_
 _symmetry_equiv_pos_site_id
 _symmetry_equiv_pos_as_xyz
  1  'x, y, z'
loop_
 _atom_site_type_symbol
 _atom_site_label
 _atom_site_symmetry_multiplicity
 _atom_site_fract_x
 _atom_site_fract_y
 _atom_site_fract_z
 _atom_site_occupancy
  Ti  Ti0_0  1  0.20691350  0.20691350  0.29308650  1
  Ti  Ti0_1  1  0.20691350  0.20691350  0.79308650  1
  Ti  Ti0_2  1  0.20691350  0.70691350  0.29308650  1
  Ti  Ti0_3  1  0.20691350  0.70691350  0.79308650  1
  Ti  Ti0_4  1  0.70691350  0.20691350  0.29308650  1
  Ti  Ti0_5  1  0.70691350  0.20691350  0.79308650  1
  Ti  Ti0_6  1  0.70691350  0.70691350  0.29308650  1
  Ti  Ti0_7  1  0.70691350  0.70691350  0.79308650  1
  Ti  Ti1_0  1  0.40170600  0.40170600  0.09829400  1
  Ti  Ti1_1  1  0.40170600  0.40170600  0.59829400  1
  Ti  Ti1_2  1  0.40170600  0.90170600  0.09829400  1
  Ti  Ti1_3  1  0.40170600  0.90170600  0.59829400  1
  Ti  Ti1_4  1  0.90170600  0.40170600  0.09829400  1
  Ti  Ti1_5  1  0.90170600  0.40170600  0.59829400  1
  Ti  Ti1_6  1  0.90170600  0.90170600  0.09829400  1
  Ti  Ti1_7  1  0.90170600  0.90170600  0.59829400  1
  Ti  Ti2_0  1  0.09829400  0.09829400  0.40170600  1
  Ti  Ti2_1  1  0.09829400  0.09829400  0.90170600  1
  Ti  Ti2_2  1  0.09829400  0.59829400  0.40170600  1
  Ti  Ti2_3  1  0.09829400  0.59829400  0.90170600  1
  Ti  Ti2_4  1  0.59829400  0.09829400  0.40170600  1
  Ti  Ti2_5  1  0.59829400  0.09829400  0.90170600  1
  Ti  Ti2_6  1  0.59829400  0.59829400  0.40170600  1
  Ti  Ti2_7  1  0.59829400  0.59829400  0.90170600  1
  Ti  Ti3_0  1  0.29308650  0.29308650  0.20691350  1
  Ti  Ti3_1  1  0.29308650  0.29308650  0.70691350  1
  Ti  Ti3_2  1  0.29308650  0.79308650  0.20691350  1
  Ti  Ti3_3  1  0.29308650  0.79308650  0.70691350  1
  Ti  Ti3_4  1  0.79308650  0.29308650  0.20691350  1
  Ti  Ti3_5  1  0.79308650  0.29308650  0.70691350  1
  Ti  Ti3_6  1  0.79308650  0.79308650  0.20691350  1
  Ti  Ti3_7  1  0.79308650  0.79308650  0.70691350  1
  Cr  Cr0_0  1  0.00000000  0.00000000  0.00000000  1
  Cr  Cr0_1  1  0.00000000  0.00000000  0.50000000  1
  Cr  Cr0_2  1  0.00000000  0.50000000  0.00000000  1
  Cr  Cr0_3  1  0.00000000  0.50000000  0.50000000  1
  Cr  Cr0_4  1  0.50000000  0.00000000  0.00000000  1
  Cr  Cr0_5  1  0.50000000  0.00000000  0.50000000  1
  Cr  Cr0_6  1  0.50000000  0.50000000  0.00000000  1
  Cr  Cr0_7  1  0.50000000  0.50000000  0.50000000  1
loop_
_geom_bond_atom_site_label_1
_geom_bond_atom_site_label_2
_geom_bond_distance
_geom_bond_site_symmetry_2
Ti0_0 Ti1_5 2.892036 1_455
Ti0_0 Ti1_2 2.892036 1_545
Ti0_1 Ti1_4 2.892036 1_456
Ti0_1 Ti1_3 2.892036 1_545
Ti0_2 Ti1_7 2.892036 1_455
Ti0_2 Ti1_0 2.892036 1_555
Ti0_3 Ti1_6 2.892036 1_456
Ti0_3 Ti1_1 2.892036 1_555
Ti0_4 Ti1_6 2.892036 1_545
Ti0_4 Ti1_1 2.892036 1_555
Ti0_5 Ti1_7 2.892036 1_545
Ti0_5 Ti1_0 2.892036 1_556
Ti0_6 Ti1_3 2.892036 1_555
Ti0_6 Ti1_4 2.892036 1_555
Ti0_7 Ti1_5 2.892036 1_555
Ti0_7 Ti1_2 2.892036 1_556
Ti1_0 Ti1_6 2.803956 1_455
Ti1_0 Ti1_1 2.803956 1_555
Ti1_0 Ti1_6 2.803956 1_545
Ti1_0 Ti1_1 2.803956 1_554
Ti1_0 Ti2_2 2.824737 1_555
Ti1_0 Ti2_5 2.824737 1_554
Ti1_0 Ti1_7 3.066758 1_455
Ti1_0 Ti1_7 3.066758 1_544
Ti1_1 Ti1_7 2.803956 1_455
Ti1_1 Ti1_7 2.803956 1_545
Ti1_1 Ti2_3 2.824737 1_555
Ti1_1 Ti2_4 2.824737 1_555
Ti1_1 Ti1_6 3.066758 1_456
Ti1_1 Ti1_6 3.066758 1_545
Ti1_2 Ti1_3 2.803956 1_555
Ti1_2 Ti1_4 2.803956 1_555
Ti1_2 Ti1_4 2.803956 1_465
Ti1_2 Ti1_3 2.803956 1_554
Ti1_2 Ti2_0 2.824737 1_565
Ti1_2 Ti2_7 2.824737 1_554
Ti1_2 Ti1_5 3.066758 1_554
Ti1_2 Ti1_5 3.066758 1_465
Ti1_3 Ti1_5 2.803956 1_465
Ti1_3 Ti1_5 2.803956 1_555
Ti1_3 Ti2_6 2.824737 1_555
Ti1_3 Ti2_1 2.824737 1_565
Ti1_3 Ti1_4 3.066758 1_555
Ti1_3 Ti1_4 3.066758 1_466
Ti1_4 Ti1_5 2.803956 1_554
Ti1_4 Ti1_5 2.803956 1_555
Ti1_4 Ti2_1 2.824737 1_654
Ti1_4 Ti2_6 2.824737 1_555
Ti1_5 Ti2_0 2.824737 1_655
Ti1_5 Ti2_7 2.824737 1_555
Ti1_6 Ti1_7 2.803956 1_554
Ti1_6 Ti1_7 2.803956 1_555
Ti1_6 Ti2_3 2.824737 1_654
Ti1_6 Ti2_4 2.824737 1_565
Ti1_7 Ti2_2 2.824737 1_655
Ti1_7 Ti2_5 2.824737 1_565
Ti2_0 Ti2_6 2.803956 1_455
Ti2_0 Ti2_1 2.803956 1_554
Ti2_0 Ti2_6 2.803956 1_545
Ti2_0 Ti2_1 2.803956 1_555
Ti2_0 Ti3_5 2.892036 1_455
Ti2_0 Ti3_2 2.892036 1_545
Ti2_0 Ti2_7 3.066758 1_455
Ti2_0 Ti2_7 3.066758 1_544
Ti2_1 Ti2_7 2.803956 1_455
Ti2_1 Ti2_7 2.803956 1_545
Ti2_1 Ti3_3 2.892036 1_545
Ti2_1 Ti3_4 2.892036 1_456
Ti2_1 Ti2_6 3.066758 1_456
Ti2_1 Ti2_6 3.066758 1_545
Ti2_2 Ti2_4 2.803956 1_465
Ti2_2 Ti2_4 2.803956 1_555
Ti2_2 Ti2_3 2.803956 1_554
Ti2_2 Ti2_3 2.803956 1_555
Ti2_2 Ti3_0 2.892036 1_555
Ti2_2 Ti3_7 2.892036 1_455
Ti2_2 Ti2_5 3.066758 1_465
Ti2_2 Ti2_5 3.066758 1_554
Ti2_3 Ti2_5 2.803956 1_465
Ti2_3 Ti2_5 2.803956 1_555
Ti2_3 Ti3_1 2.892036 1_555
Ti2_3 Ti3_6 2.892036 1_456
Ti2_3 Ti2_4 3.066758 1_466
Ti2_3 Ti2_4 3.066758 1_555
Ti2_4 Ti2_5 2.803956 1_555
Ti2_4 Ti2_5 2.803956 1_554
Ti2_4 Ti3_1 2.892036 1_555
Ti2_4 Ti3_6 2.892036 1_545
Ti2_5 Ti3_0 2.892036 1_556
Ti2_5 Ti3_7 2.892036 1_545
Ti2_6 Ti2_7 2.803956 1_554
Ti2_6 Ti2_7 2.803956 1_555
Ti2_6 Ti3_3 2.892036 1_555
Ti2_6 Ti3_4 2.892036 1_555
Ti2_7 Ti3_5 2.892036 1_555
Ti2_7 Ti3_2 2.892036 1_556
Cr0_0 Ti0_4 2.452248 1_455
Cr0_0 Ti0_3 2.452248 1_544
Cr0_0 Ti3_4 2.452248 1_455
Cr0_0 Ti3_3 2.452248 1_544
Cr0_1 Ti0_5 2.452248 1_455
Cr0_1 Ti0_2 2.452248 1_545
Cr0_1 Ti3_2 2.452248 1_545
Cr0_1 Ti3_5 2.452248 1_455
Cr0_2 Ti0_6 2.452248 1_455
Cr0_2 Ti0_1 2.452248 1_554
Cr0_2 Ti3_6 2.452248 1_455
Cr0_2 Ti3_1 2.452248 1_554
Cr0_3 Ti0_7 2.452248 1_455
Cr0_3 Ti3_7 2.452248 1_455
Cr0_3 Ti0_0 2.452248 1_555
Cr0_3 Ti3_0 2.452248 1_555
Cr0_4 Ti0_7 2.452248 1_544
Cr0_4 Ti0_0 2.452248 1_555
Cr0_4 Ti3_7 2.452248 1_544
Cr0_4 Ti3_0 2.452248 1_555
Cr0_5 Ti3_6 2.452248 1_545
Cr0_5 Ti3_1 2.452248 1_555
Cr0_5 Ti0_6 2.452248 1_545
Cr0_5 Ti0_1 2.452248 1_555
Cr0_6 Ti0_2 2.452248 1_555
Cr0_6 Ti0_5 2.452248 1_554
Cr0_6 Ti3_2 2.452248 1_555
Cr0_6 Ti3_5 2.452248 1_554
Cr0_7 Ti0_3 2.452248 1_555
Cr0_7 Ti0_4 2.452248 1_555
Cr0_7 Ti3_3 2.452248 1_555
Cr0_7 Ti3_4 2.452248 1_555
