# generated using pymatgen
data_AgW2(Br3O)2
_symmetry_space_group_name_H-M   'P 1'
_cell_length_a   7.50077918
_cell_length_b   7.50077918
_cell_length_c   11.53532194
_cell_angle_alpha   69.65990543
_cell_angle_beta   69.65990543
_cell_angle_gamma   29.89417882
_symmetry_Int_Tables_number   1
_chemical_formula_structural   AgW2(Br3O)2
_chemical_formula_sum   'Ag1 W2 Br6 O2'
_cell_volume   301.80185345
_cell_formula_units_Z   1
loop_
 _symmetry_equiv_pos_site_id
 _symmetry_equiv_pos_as_xyz
  1  'x, y, z'
loop_
 _atom_site_type_symbol
 _atom_site_label
 _atom_site_symmetry_multiplicity
 _atom_site_fract_x
 _atom_site_fract_y
 _atom_site_fract_z
 _atom_site_occupancy
  Ag  Ag0  1  0.25737100  0.25737100  0.47256100  1
  W  W0  1  0.08797300  0.08797300  0.82343100  1
  W  W1  1  0.91580900  0.91580900  0.17307000  1
  Br  Br0  1  0.27559800  0.27559800  0.71076300  1
  Br  Br1  1  0.72642700  0.72642700  0.29651600  1
  Br  Br2  1  0.11073200  0.11073200  0.04306500  1
  Br  Br3  1  0.89196500  0.89196500  0.95453100  1
  Br  Br4  1  0.05292900  0.05292900  0.62214700  1
  Br  Br5  1  0.94495500  0.94495500  0.37697000  1
  O  O0  1  0.58553400  0.58553400  0.82764800  1
  O  O1  1  0.41610900  0.41610900  0.16699900  1
loop_
_geom_bond_atom_site_label_1
_geom_bond_atom_site_label_2
_geom_bond_distance
_geom_bond_site_symmetry_2
Ag0 Br4 2.842335 1_555
Ag0 Br0 2.853446 1_555
Ag0 Br1 2.953517 1_455
Ag0 Br1 2.953517 1_545
Ag0 Br5 3.192758 1_455
Ag0 Br5 3.192758 1_545
Br0 W0 2.557609 1_555
Br1 W1 2.598034 1_555
Br2 W0 2.670023 1_554
Br2 W1 2.679969 1_445
Br3 W1 2.664831 1_556
Br3 W0 2.695662 1_665
Br4 W0 2.549052 1_555
Br5 W1 2.534864 1_555
O0 W0 1.935268 1_565
O0 W0 1.935268 1_655
O1 W1 1.935868 1_455
O1 W1 1.935868 1_545
