# generated using pymatgen
data_RhN7ClO6
_symmetry_space_group_name_H-M   'P 1'
_cell_length_a   7.08222716
_cell_length_b   7.08222716
_cell_length_c   7.08222716
_cell_angle_alpha   120.19995162
_cell_angle_beta   120.19995162
_cell_angle_gamma   89.65402114
_symmetry_Int_Tables_number   1
_chemical_formula_structural   RhN7ClO6
_chemical_formula_sum   'Rh1 N7 Cl1 O6'
_cell_volume   250.42139876
_cell_formula_units_Z   1
loop_
 _symmetry_equiv_pos_site_id
 _symmetry_equiv_pos_as_xyz
  1  'x, y, z'
loop_
 _atom_site_type_symbol
 _atom_site_label
 _atom_site_symmetry_multiplicity
 _atom_site_fract_x
 _atom_site_fract_y
 _atom_site_fract_z
 _atom_site_occupancy
  Rh  Rh0  1  0.15783400  0.15783400  0.00000000  1
  N  N0  1  0.39621200  0.39621200  0.38211300  1
  N  N1  1  0.01409800  0.01409800  0.61788700  1
  N  N2  1  0.39621200  0.01409800  0.00000000  1
  N  N3  1  0.01409800  0.39621200  0.00000000  1
  N  N4  1  0.95236100  0.45236100  0.50000000  1
  N  N5  1  0.45236100  0.95236100  0.50000000  1
  N  N6  1  0.98664200  0.98664200  0.00000000  1
  Cl  Cl0  1  0.41908700  0.41908700  0.00000000  1
  O  O0  1  0.57843400  0.07843400  0.50000000  1
  O  O1  1  0.07843400  0.57843400  0.50000000  1
  O  O2  1  0.88975600  0.54344400  0.65368800  1
  O  O3  1  0.88975600  0.23606900  0.34631200  1
  O  O4  1  0.54344400  0.88975600  0.65368800  1
  O  O5  1  0.23606900  0.88975600  0.34631200  1
loop_
_geom_bond_atom_site_label_1
_geom_bond_atom_site_label_2
_geom_bond_distance
_geom_bond_site_symmetry_2
N0 Rh0 1.966132 1_555
N1 Rh0 1.966129 1_556
N2 Rh0 1.966135 1_555
N3 Rh0 1.966135 1_555
N4 O3 1.254238 1_555
N4 O2 1.254244 1_555
N4 O1 1.266526 1_655
N5 O5 1.254238 1_555
N5 O4 1.254244 1_555
N5 O0 1.266526 1_565
N6 Rh0 1.719791 1_665
Cl0 Rh0 2.624541 1_555
