# generated using pymatgen
data_Ba5Cd2(Sb2O)2
_symmetry_space_group_name_H-M   'P 1'
_cell_length_a   5.01514100
_cell_length_b   9.12769065
_cell_length_c   9.53143491
_cell_angle_alpha   83.79978969
_cell_angle_beta   74.74685288
_cell_angle_gamma   74.05460065
_symmetry_Int_Tables_number   1
_chemical_formula_structural   Ba5Cd2(Sb2O)2
_chemical_formula_sum   'Ba5 Cd2 Sb4 O2'
_cell_volume   404.45031570
_cell_formula_units_Z   1
loop_
 _symmetry_equiv_pos_site_id
 _symmetry_equiv_pos_as_xyz
  1  'x, y, z'
loop_
 _atom_site_type_symbol
 _atom_site_label
 _atom_site_symmetry_multiplicity
 _atom_site_fract_x
 _atom_site_fract_y
 _atom_site_fract_z
 _atom_site_occupancy
  Ba  Ba0  1  0.97464300  0.34763300  0.70308000  1
  Ba  Ba1  1  0.02535700  0.65236700  0.29692000  1
  Ba  Ba2  1  0.69992700  0.95002300  0.65012200  1
  Ba  Ba3  1  0.30007300  0.04997700  0.34987800  1
  Ba  Ba4  1  0.00000000  0.00000000  0.00000000  1
  Cd  Cd0  1  0.73864000  0.40016600  0.12255300  1
  Cd  Cd1  1  0.26136000  0.59983400  0.87744700  1
  Sb  Sb0  1  0.63508600  0.71966700  0.01016000  1
  Sb  Sb1  1  0.36491400  0.28033300  0.98984000  1
  Sb  Sb2  1  0.60668200  0.35368400  0.43295300  1
  Sb  Sb3  1  0.39331800  0.64631600  0.56704700  1
  O  O0  1  0.87077000  0.94556200  0.31289700  1
  O  O1  1  0.12923000  0.05443800  0.68710300  1
loop_
_geom_bond_atom_site_label_1
_geom_bond_atom_site_label_2
_geom_bond_distance
_geom_bond_site_symmetry_2
Ba0 O1 2.583058 1_655
Ba0 Sb2 3.528568 1_555
Ba0 Sb2 3.528575 1_655
Ba0 Sb1 3.670190 1_555
Ba0 Sb1 3.670196 1_655
Ba0 Sb3 3.804180 1_655
Ba0 Sb3 3.804181 1_555
Ba1 O0 2.583058 1_455
Ba1 Sb3 3.528568 1_555
Ba1 Sb3 3.528575 1_455
Ba1 Sb0 3.670190 1_555
Ba1 Sb0 3.670196 1_455
Ba1 Sb2 3.804180 1_455
Ba1 Sb2 3.804181 1_555
Ba2 O1 2.695796 1_565
Ba2 O1 2.695806 1_665
Ba2 O0 3.102764 1_555
Ba2 Sb3 3.759408 1_555
Ba2 Sb3 3.759408 1_655
Ba2 Sb0 3.812228 1_556
Ba2 Sb2 3.999252 1_565
Ba3 O0 2.695796 1_545
Ba3 O0 2.695806 1_445
Ba3 O1 3.102764 1_555
Ba3 Sb2 3.759408 1_555
Ba3 Sb2 3.759408 1_455
Ba3 Sb1 3.812228 1_554
Ba3 Sb3 3.999252 1_545
Ba4 O1 2.898485 1_554
Ba4 O0 2.898485 1_445
Ba4 Sb0 3.511723 1_545
Ba4 Sb1 3.511723 1_454
Ba4 Sb1 3.511726 1_554
Ba4 Sb0 3.511726 1_445
Cd0 Sb2 2.867745 1_555
Cd0 Sb0 2.950917 1_555
Cd0 Sb1 2.997030 1_554
Cd0 Sb1 2.997039 1_654
Cd1 Sb3 2.867745 1_555
Cd1 Sb1 2.950917 1_555
Cd1 Sb0 2.997030 1_556
Cd1 Sb0 2.997039 1_456
Sb2 Sb3 2.891456 1_555
