# generated using pymatgen
data_KCu3P3(O4F3)2
_symmetry_space_group_name_H-M   'P 1'
_cell_length_a   10.36432342
_cell_length_b   10.36432342
_cell_length_c   7.91686191
_cell_angle_alpha   78.04467186
_cell_angle_beta   78.04467186
_cell_angle_gamma   43.10593143
_symmetry_Int_Tables_number   1
_chemical_formula_structural   KCu3P3(O4F3)2
_chemical_formula_sum   'K2 Cu6 P6 O16 F12'
_cell_volume   566.53900583
_cell_formula_units_Z   2
loop_
 _symmetry_equiv_pos_site_id
 _symmetry_equiv_pos_as_xyz
  1  'x, y, z'
loop_
 _atom_site_type_symbol
 _atom_site_label
 _atom_site_symmetry_multiplicity
 _atom_site_fract_x
 _atom_site_fract_y
 _atom_site_fract_z
 _atom_site_occupancy
  K  K0  1  0.65750200  0.34249800  0.25000000  1
  K  K1  1  0.34249800  0.65750200  0.75000000  1
  Cu  Cu0  1  0.87025000  0.80493500  0.81070400  1
  Cu  Cu1  1  0.19506500  0.12975000  0.68929600  1
  Cu  Cu2  1  0.12975000  0.19506500  0.18929600  1
  Cu  Cu3  1  0.80493500  0.87025000  0.31070400  1
  Cu  Cu4  1  0.50000000  0.00000000  0.00000000  1
  Cu  Cu5  1  0.00000000  0.50000000  0.50000000  1
  P  P0  1  0.87552200  0.12447800  0.75000000  1
  P  P1  1  0.12447800  0.87552200  0.25000000  1
  P  P2  1  0.84663000  0.50134000  0.90990500  1
  P  P3  1  0.49866000  0.15337000  0.59009500  1
  P  P4  1  0.15337000  0.49866000  0.09009500  1
  P  P5  1  0.50134000  0.84663000  0.40990500  1
  O  O0  1  0.91560300  0.96458300  0.70474300  1
  O  O1  1  0.03541700  0.08439700  0.79525700  1
  O  O2  1  0.08439700  0.03541700  0.29525700  1
  O  O3  1  0.96458300  0.91560300  0.20474300  1
  O  O4  1  0.79644500  0.67602400  0.93437200  1
  O  O5  1  0.32397600  0.20355500  0.56562800  1
  O  O6  1  0.20355500  0.32397600  0.06562800  1
  O  O7  1  0.67602400  0.79644500  0.43437200  1
  O  O8  1  0.89369000  0.36970000  0.07249400  1
  O  O9  1  0.63030000  0.10631000  0.42750600  1
  O  O10  1  0.10631000  0.63030000  0.92750600  1
  O  O11  1  0.36970000  0.89369000  0.57249400  1
  O  O12  1  0.98464400  0.40085600  0.74963700  1
  O  O13  1  0.59914400  0.01535600  0.75036200  1
  O  O14  1  0.01535600  0.59914400  0.25036300  1
  O  O15  1  0.40085600  0.98464400  0.24963700  1
  F  F0  1  0.65236000  0.58107900  0.86828400  1
  F  F1  1  0.41892100  0.34764000  0.63171600  1
  F  F2  1  0.34764000  0.41892100  0.13171600  1
  F  F3  1  0.58107900  0.65236000  0.36828400  1
  F  F4  1  0.98766200  0.67080600  0.57198100  1
  F  F5  1  0.32919400  0.01233800  0.92801900  1
  F  F6  1  0.01233800  0.32919400  0.42801900  1
  F  F7  1  0.67080600  0.98766200  0.07198100  1
  F  F8  1  0.76396600  0.29085300  0.60203900  1
  F  F9  1  0.70914700  0.23603400  0.89796100  1
  F  F10  1  0.23603400  0.70914700  0.39796100  1
  F  F11  1  0.29085300  0.76396600  0.10203900  1
loop_
_geom_bond_atom_site_label_1
_geom_bond_atom_site_label_2
_geom_bond_distance
_geom_bond_site_symmetry_2
K0 O8 2.732228 1_555
K0 O9 2.732228 1_555
K0 O2 3.075111 1_655
K0 O3 3.075111 1_545
K1 O11 2.732228 1_555
K1 O10 2.732228 1_555
K1 O1 3.075111 1_565
K1 O0 3.075111 1_455
Cu0 O10 1.973508 1_655
Cu0 O4 1.992210 1_555
Cu0 O13 2.014006 1_565
Cu0 O0 2.014887 1_555
Cu0 F4 2.156557 1_555
Cu0 F7 2.504688 1_556
Cu1 O11 1.973508 1_545
Cu1 O5 1.992210 1_555
Cu1 O12 2.014004 1_455
Cu1 O1 2.014887 1_555
Cu1 F5 2.156557 1_555
Cu1 F6 2.504688 1_555
Cu2 O8 1.973508 1_455
Cu2 O6 1.992210 1_555
Cu2 O15 2.014004 1_545
Cu2 O2 2.014887 1_555
Cu2 F6 2.156557 1_555
Cu2 F5 2.504688 1_554
Cu3 O9 1.973508 1_565
Cu3 O7 1.992210 1_555
Cu3 O14 2.014004 1_655
Cu3 O3 2.014887 1_555
Cu3 F7 2.156557 1_555
Cu3 F4 2.504688 1_555
Cu4 F5 1.879423 1_554
Cu4 F7 1.879423 1_545
Cu4 O15 2.062586 1_545
Cu4 O13 2.062593 1_554
Cu4 O6 2.445791 1_555
Cu4 O4 2.445791 1_544
Cu5 F4 1.879423 1_455
Cu5 F6 1.879423 1_555
Cu5 O12 2.062586 1_455
Cu5 O14 2.062586 1_555
Cu5 O7 2.445791 1_455
Cu5 O5 2.445791 1_555
O0 P0 1.492104 1_565
O1 P0 1.492104 1_455
O2 P1 1.492104 1_545
O3 P1 1.492104 1_655
O4 P2 1.521319 1_555
O5 P3 1.521319 1_555
O6 P4 1.521319 1_555
O7 P5 1.521319 1_555
O8 P2 1.522191 1_554
O9 P3 1.522191 1_555
O10 P4 1.522191 1_556
O11 P5 1.522191 1_555
O12 P2 1.536523 1_555
O13 P3 1.536517 1_555
O14 P4 1.536523 1_555
O15 P5 1.536523 1_555
F0 P2 1.605598 1_555
F0 K1 3.007060 1_555
F1 P3 1.605598 1_555
F1 K1 3.007060 1_555
F2 P4 1.605598 1_555
F2 K0 3.007060 1_555
F3 P5 1.605598 1_555
F3 K0 3.007060 1_555
F8 P0 1.579704 1_555
F8 K0 3.010862 1_555
F8 K1 3.221794 1_555
F9 P0 1.579704 1_555
F9 K0 3.010862 1_556
F9 K1 3.221794 1_555
F10 P1 1.579704 1_555
F10 K1 3.010862 1_555
F10 K0 3.221794 1_555
F11 P1 1.579704 1_555
F11 K1 3.010862 1_554
F11 K0 3.221794 1_555
