# generated using pymatgen
data_Li7Mn5O12
_symmetry_space_group_name_H-M   'P 1'
_cell_length_a   5.22236700
_cell_length_b   6.01924567
_cell_length_c   7.78882001
_cell_angle_alpha   76.34136911
_cell_angle_beta   74.93515015
_cell_angle_gamma   70.38030977
_symmetry_Int_Tables_number   1
_chemical_formula_structural   Li7Mn5O12
_chemical_formula_sum   'Li7 Mn5 O12'
_cell_volume   219.69554366
_cell_formula_units_Z   1
loop_
 _symmetry_equiv_pos_site_id
 _symmetry_equiv_pos_as_xyz
  1  'x, y, z'
loop_
 _atom_site_type_symbol
 _atom_site_label
 _atom_site_symmetry_multiplicity
 _atom_site_fract_x
 _atom_site_fract_y
 _atom_site_fract_z
 _atom_site_occupancy
  Li  Li0  1  0.49491500  0.17287100  0.83878700  1
  Li  Li1  1  0.50000000  0.00000000  0.50000000  1
  Li  Li2  1  0.50508500  0.82712900  0.16121300  1
  Li  Li3  1  0.49578300  0.65806200  0.83852400  1
  Li  Li4  1  0.50000000  0.50000000  0.50000000  1
  Li  Li5  1  0.50421700  0.34193800  0.16147600  1
  Li  Li6  1  0.00000000  0.50000000  0.00000000  1
  Mn  Mn0  1  0.00000000  0.00000000  0.00000000  1
  Mn  Mn1  1  0.99868000  0.16874900  0.32876700  1
  Mn  Mn2  1  0.00132000  0.83125100  0.67123300  1
  Mn  Mn3  1  0.99414200  0.66209600  0.32933200  1
  Mn  Mn4  1  0.00585800  0.33790400  0.67066800  1
  O  O0  1  0.77154100  0.31662200  0.90689400  1
  O  O1  1  0.78382300  0.15713500  0.58072500  1
  O  O2  1  0.75975100  0.98470400  0.23682500  1
  O  O3  1  0.78711200  0.85083700  0.91359600  1
  O  O4  1  0.76439000  0.65389200  0.57268700  1
  O  O5  1  0.77400900  0.48847600  0.25812300  1
  O  O6  1  0.24024900  0.01529600  0.76317500  1
  O  O7  1  0.21617700  0.84286500  0.41927500  1
  O  O8  1  0.22845900  0.68337800  0.09310600  1
  O  O9  1  0.22599100  0.51152400  0.74187700  1
  O  O10  1  0.23561000  0.34610800  0.42731300  1
  O  O11  1  0.21288800  0.14916300  0.08640400  1
loop_
_geom_bond_atom_site_label_1
_geom_bond_atom_site_label_2
_geom_bond_distance
_geom_bond_site_symmetry_2
Li0 O3 2.089941 1_545
Li0 O11 2.108048 1_556
Li0 O6 2.129162 1_555
Li0 O0 2.138147 1_555
Li0 O9 2.144581 1_555
Li0 O1 2.177840 1_555
Li1 O10 2.117721 1_555
Li1 O4 2.117721 1_545
Li1 O6 2.147140 1_555
Li1 O2 2.147140 1_545
Li1 O1 2.278973 1_555
Li1 O7 2.278973 1_545
Li2 O11 2.089941 1_565
Li2 O3 2.108048 1_554
Li2 O2 2.129162 1_555
Li2 O8 2.138147 1_555
Li2 O5 2.144581 1_555
Li2 O7 2.177840 1_555
Li3 O8 2.113035 1_556
Li3 O0 2.115550 1_555
Li3 O6 2.152462 1_565
Li3 O4 2.178681 1_555
Li3 O9 2.242611 1_555
Li3 O3 2.443667 1_555
Li4 O5 2.048268 1_555
Li4 O9 2.048268 1_555
Li4 O4 2.144285 1_555
Li4 O10 2.144285 1_555
Li4 O1 2.160764 1_555
Li4 O7 2.160764 1_555
Li5 O0 2.113035 1_554
Li5 O8 2.115550 1_555
Li5 O2 2.152462 1_545
Li5 O10 2.178681 1_555
Li5 O5 2.242611 1_555
Li5 O11 2.443667 1_555
Li6 O5 2.048266 1_455
Li6 O9 2.048266 1_554
Li6 O11 2.071139 1_555
Li6 O3 2.071139 1_454
Li6 O8 2.209056 1_555
Li6 O0 2.209056 1_454
Mn0 O2 1.944091 1_445
Mn0 O6 1.944091 1_554
Mn0 O11 1.959527 1_555
Mn0 O3 1.959527 1_444
Mn0 O0 1.962548 1_454
Mn0 O8 1.962548 1_545
Mn1 O5 1.924129 1_555
Mn1 O11 1.935878 1_655
Mn1 O7 1.975298 1_645
Mn1 O1 1.989567 1_555
Mn1 O10 2.242231 1_655
Mn1 O2 2.250436 1_545
Mn2 O9 1.924129 1_555
Mn2 O3 1.935878 1_455
Mn2 O1 1.975298 1_465
Mn2 O7 1.989567 1_555
Mn2 O4 2.242231 1_455
Mn2 O6 2.250436 1_565
Mn3 O8 1.929434 1_655
Mn3 O4 1.961676 1_555
Mn3 O2 1.997435 1_555
Mn3 O10 1.998571 1_655
Mn3 O5 2.033074 1_555
Mn3 O7 2.156113 1_655
Mn4 O0 1.929434 1_455
Mn4 O10 1.961676 1_555
Mn4 O6 1.997435 1_555
Mn4 O4 1.998571 1_455
Mn4 O9 2.033074 1_555
Mn4 O1 2.156113 1_455
