# generated using pymatgen
data_Mg14TiBi
_symmetry_space_group_name_H-M   'P 1'
_cell_length_a   6.37211088
_cell_length_b   6.37211036
_cell_length_c   10.41139335
_cell_angle_alpha   90.00000000
_cell_angle_beta   90.00000000
_cell_angle_gamma   120.00000269
_symmetry_Int_Tables_number   1
_chemical_formula_structural   Mg14TiBi
_chemical_formula_sum   'Mg14 Ti1 Bi1'
_cell_volume   366.10536059
_cell_formula_units_Z   1
loop_
 _symmetry_equiv_pos_site_id
 _symmetry_equiv_pos_as_xyz
  1  'x, y, z'
loop_
 _atom_site_type_symbol
 _atom_site_label
 _atom_site_symmetry_multiplicity
 _atom_site_fract_x
 _atom_site_fract_y
 _atom_site_fract_z
 _atom_site_occupancy
  Mg  Mg0  1  0.16826855  0.83413378  0.12500000  1
  Mg  Mg1  1  0.16471142  0.83235521  0.62500000  1
  Mg  Mg2  1  0.66586622  0.33173145  0.12500000  1
  Mg  Mg3  1  0.66764479  0.33528858  0.62500000  1
  Mg  Mg4  1  0.66586622  0.83413378  0.12500000  1
  Mg  Mg5  1  0.66764479  0.83235521  0.62500000  1
  Mg  Mg6  1  0.33234135  0.16765865  0.36724218  1
  Mg  Mg7  1  0.33234135  0.16765865  0.88275782  1
  Mg  Mg8  1  0.33234135  0.66468369  0.36724218  1
  Mg  Mg9  1  0.33234135  0.66468369  0.88275782  1
  Mg  Mg10  1  0.83531631  0.16765865  0.36724218  1
  Mg  Mg11  1  0.83531631  0.16765865  0.88275782  1
  Mg  Mg12  1  0.83333300  0.66666700  0.37260679  1
  Mg  Mg13  1  0.83333300  0.66666700  0.87739321  1
  Ti  Ti0  1  0.16666700  0.33333300  0.12500000  1
  Bi  Bi0  1  0.16666700  0.33333300  0.62500000  1
loop_
_geom_bond_atom_site_label_1
_geom_bond_atom_site_label_2
_geom_bond_distance
_geom_bond_site_symmetry_2
Mg0 Mg9 3.122287 1_554
Mg0 Mg8 3.122287 1_555
Mg0 Mg7 3.122293 1_564
Mg0 Mg6 3.122293 1_565
Mg0 Mg2 3.170747 1_565
Mg0 Mg4 3.170748 1_555
Mg0 Mg13 3.172064 1_454
Mg0 Mg12 3.172064 1_455
Mg0 Ti0 3.186067 1_565
Mg0 Ti0 3.186067 1_555
Mg0 Mg2 3.201363 1_455
Mg0 Mg4 3.201363 1_455
Mg1 Mg12 3.201441 1_455
Mg1 Mg13 3.201441 1_455
Mg1 Mg8 3.259682 1_555
Mg1 Mg9 3.259682 1_555
Mg1 Mg6 3.259689 1_565
Mg1 Mg7 3.259689 1_565
Mg2 Mg7 3.122293 1_554
Mg2 Mg6 3.122293 1_555
Mg2 Mg4 3.170747 1_545
Mg2 Ti0 3.186068 1_555
Mg2 Ti0 3.186068 1_655
Mg2 Mg4 3.201363 1_555
Mg3 Mg6 3.259689 1_555
Mg3 Mg7 3.259689 1_555
Mg4 Mg9 3.122293 1_554
Mg4 Mg8 3.122293 1_555
Mg4 Ti0 3.186067 1_555
Mg4 Ti0 3.186067 1_665
Mg5 Mg8 3.259689 1_555
Mg5 Mg9 3.259689 1_555
Mg6 Ti0 3.115182 1_555
Mg6 Mg8 3.167098 1_555
Mg6 Mg8 3.205012 1_545
Mg7 Ti0 3.115182 1_556
Mg7 Mg9 3.167098 1_555
Mg7 Mg9 3.205012 1_545
Mg8 Ti0 3.115188 1_555
Mg9 Ti0 3.115188 1_556
Mg10 Ti0 3.115188 1_655
Mg10 Mg2 3.122287 1_555
Mg10 Mg4 3.122293 1_545
Mg10 Mg8 3.167098 1_655
Mg10 Mg6 3.167099 1_655
Mg10 Mg12 3.186563 1_545
Mg10 Mg12 3.186564 1_555
Mg10 Mg8 3.205012 1_545
Mg10 Mg6 3.205012 1_555
Mg10 Mg3 3.259682 1_555
Mg10 Mg5 3.259689 1_545
Mg11 Ti0 3.115188 1_656
Mg11 Mg2 3.122287 1_556
Mg11 Mg4 3.122293 1_546
Mg11 Mg9 3.167098 1_655
Mg11 Mg7 3.167099 1_655
Mg11 Mg13 3.186563 1_545
Mg11 Mg13 3.186564 1_555
Mg11 Mg9 3.205012 1_545
Mg11 Mg7 3.205012 1_555
Mg11 Mg3 3.259682 1_555
Mg11 Mg5 3.259689 1_545
Mg12 Mg4 3.172057 1_555
Mg12 Mg2 3.172064 1_555
Mg12 Mg6 3.186564 1_665
Mg12 Mg6 3.186564 1_555
Mg12 Mg8 3.186564 1_555
Mg12 Mg8 3.186564 1_655
Mg12 Mg5 3.201435 1_555
Mg12 Mg3 3.201441 1_555
Mg13 Mg4 3.172057 1_556
Mg13 Mg2 3.172064 1_556
Mg13 Mg7 3.186564 1_665
Mg13 Mg7 3.186564 1_555
Mg13 Mg9 3.186564 1_555
Mg13 Mg9 3.186564 1_655
Mg13 Mg5 3.201435 1_555
Mg13 Mg3 3.201441 1_555
Bi0 Mg5 3.186073 1_445
Bi0 Mg1 3.186073 1_545
Bi0 Mg1 3.186073 1_555
Bi0 Mg5 3.186073 1_555
Bi0 Mg3 3.186074 1_455
Bi0 Mg3 3.186074 1_555
Bi0 Mg6 3.247350 1_555
Bi0 Mg7 3.247350 1_555
Bi0 Mg8 3.247356 1_555
Bi0 Mg9 3.247356 1_555
Bi0 Mg10 3.247356 1_455
Bi0 Mg11 3.247356 1_455
