# generated using pymatgen
data_Y2Co2O5
_symmetry_space_group_name_H-M   'P 1'
_cell_length_a   3.77050700
_cell_length_b   3.77050700
_cell_length_c   6.77052600
_cell_angle_alpha   90.00000000
_cell_angle_beta   90.00000000
_cell_angle_gamma   90.00000000
_symmetry_Int_Tables_number   1
_chemical_formula_structural   Y2Co2O5
_chemical_formula_sum   'Y2 Co2 O5'
_cell_volume   96.25469296
_cell_formula_units_Z   1
loop_
 _symmetry_equiv_pos_site_id
 _symmetry_equiv_pos_as_xyz
  1  'x, y, z'
loop_
 _atom_site_type_symbol
 _atom_site_label
 _atom_site_symmetry_multiplicity
 _atom_site_fract_x
 _atom_site_fract_y
 _atom_site_fract_z
 _atom_site_occupancy
  Y  Y0  1  0.00000000  0.00000000  0.00000000  1
  Y  Y1  1  0.00000000  0.00000000  0.50000000  1
  Co  Co0  1  0.50000000  0.50000000  0.20286800  1
  Co  Co1  1  0.50000000  0.50000000  0.79713200  1
  O  O0  1  0.50000000  0.00000000  0.22447200  1
  O  O1  1  0.50000000  0.00000000  0.77552800  1
  O  O2  1  0.00000000  0.50000000  0.22447200  1
  O  O3  1  0.00000000  0.50000000  0.77552800  1
  O  O4  1  0.50000000  0.50000000  0.50000000  1
loop_
_geom_bond_atom_site_label_1
_geom_bond_atom_site_label_2
_geom_bond_distance
_geom_bond_site_symmetry_2
Co0 O2 1.890919 1_555
Co0 O0 1.890919 1_555
Co0 O0 1.890919 1_565
Co0 O2 1.890919 1_655
Co0 O4 2.011740 1_555
Co1 O3 1.890919 1_555
Co1 O1 1.890919 1_555
Co1 O3 1.890919 1_655
Co1 O1 1.890919 1_565
Co1 O4 2.011740 1_555
O0 Y0 2.421560 1_655
O0 Y0 2.421560 1_555
O0 Y1 2.652199 1_555
O0 Y1 2.652199 1_655
O1 Y0 2.421560 1_556
O1 Y0 2.421560 1_656
O1 Y1 2.652199 1_555
O1 Y1 2.652199 1_655
O2 Y0 2.421560 1_555
O2 Y0 2.421560 1_565
O2 Y1 2.652199 1_565
O2 Y1 2.652199 1_555
O3 Y0 2.421560 1_556
O3 Y0 2.421560 1_566
O3 Y1 2.652199 1_565
O3 Y1 2.652199 1_555
O4 Y1 2.666151 1_565
O4 Y1 2.666151 1_555
O4 Y1 2.666151 1_665
O4 Y1 2.666151 1_655
