# generated using pymatgen
data_Bi4Pb7Se13
_symmetry_space_group_name_H-M   'P 1'
_cell_length_a   7.46793105
_cell_length_b   7.46793105
_cell_length_c   23.93844560
_cell_angle_alpha   83.00011640
_cell_angle_beta   83.00011640
_cell_angle_gamma   33.46755427
_symmetry_Int_Tables_number   1
_chemical_formula_structural   Bi4Pb7Se13
_chemical_formula_sum   'Bi4 Pb7 Se13'
_cell_volume   730.24559753
_cell_formula_units_Z   1
loop_
 _symmetry_equiv_pos_site_id
 _symmetry_equiv_pos_as_xyz
  1  'x, y, z'
loop_
 _atom_site_type_symbol
 _atom_site_label
 _atom_site_symmetry_multiplicity
 _atom_site_fract_x
 _atom_site_fract_y
 _atom_site_fract_z
 _atom_site_occupancy
  Bi  Bi0  1  0.24847100  0.24847100  0.91330100  1
  Bi  Bi1  1  0.75152900  0.75152900  0.08669900  1
  Bi  Bi2  1  0.06147600  0.06147600  0.62265900  1
  Bi  Bi3  1  0.93852400  0.93852400  0.37734100  1
  Pb  Pb0  1  0.50000000  0.50000000  0.00000000  1
  Pb  Pb1  1  0.35346300  0.35346300  0.54197900  1
  Pb  Pb2  1  0.64653700  0.64653700  0.45802100  1
  Pb  Pb3  1  0.98919400  0.98919400  0.83678900  1
  Pb  Pb4  1  0.01080600  0.01080600  0.16321100  1
  Pb  Pb5  1  0.76734800  0.76734800  0.71811800  1
  Pb  Pb6  1  0.23265200  0.23265200  0.28188200  1
  Se  Se0  1  0.86835100  0.86835100  0.96010300  1
  Se  Se1  1  0.13164900  0.13164900  0.03989700  1
  Se  Se2  1  0.62639600  0.62639600  0.88185000  1
  Se  Se3  1  0.37360400  0.37360400  0.11815000  1
  Se  Se4  1  0.70777600  0.70777600  0.58957700  1
  Se  Se5  1  0.29222400  0.29222400  0.41042300  1
  Se  Se6  1  0.35773400  0.35773400  0.80675000  1
  Se  Se7  1  0.64226600  0.64226600  0.19325000  1
  Se  Se8  1  0.42333700  0.42333700  0.65250500  1
  Se  Se9  1  0.57666300  0.57666300  0.34749500  1
  Se  Se10  1  0.00000000  0.00000000  0.50000000  1
  Se  Se11  1  0.12309100  0.12309100  0.73030200  1
  Se  Se12  1  0.87690900  0.87690900  0.26969800  1
loop_
_geom_bond_atom_site_label_1
_geom_bond_atom_site_label_2
_geom_bond_distance
_geom_bond_site_symmetry_2
Bi0 Se6 2.816696 1_555
Bi0 Se2 2.928074 1_455
Bi0 Se2 2.928074 1_545
Bi0 Se0 3.050852 1_455
Bi0 Se0 3.050852 1_545
Bi0 Se1 3.269138 1_556
Bi1 Se7 2.816696 1_555
Bi1 Se3 2.928074 1_565
Bi1 Se3 2.928074 1_655
Bi1 Se1 3.050852 1_655
Bi1 Se1 3.050852 1_565
Bi1 Se0 3.269138 1_554
Bi2 Se11 2.827474 1_555
Bi2 Se8 2.945938 1_545
Bi2 Se8 2.945938 1_455
Bi2 Se4 3.034414 1_455
Bi2 Se4 3.034414 1_545
Bi2 Se10 3.170485 1_555
Bi3 Se12 2.827474 1_555
Bi3 Se9 2.945938 1_565
Bi3 Se9 2.945938 1_655
Bi3 Se5 3.034414 1_565
Bi3 Se5 3.034414 1_655
Bi3 Se10 3.170485 1_665
Pb0 Se1 3.088535 1_565
Pb0 Se1 3.088535 1_655
Pb0 Se0 3.088535 1_454
Pb0 Se0 3.088535 1_544
Pb0 Se2 3.156976 1_554
Pb0 Se3 3.156976 1_555
Pb1 Se8 2.944868 1_555
Pb1 Se10 3.080627 1_565
Pb1 Se10 3.080627 1_655
Pb1 Se4 3.107998 1_455
Pb1 Se4 3.107998 1_545
Pb1 Se5 3.374473 1_555
Pb2 Se9 2.944868 1_555
Pb2 Se10 3.080627 1_655
Pb2 Se10 3.080627 1_565
Pb2 Se5 3.107998 1_565
Pb2 Se5 3.107998 1_655
Pb2 Se4 3.374473 1_555
Pb3 Se11 2.987214 1_665
Pb3 Se6 3.003366 1_655
Pb3 Se6 3.003366 1_565
Pb3 Se2 3.190132 1_565
Pb3 Se2 3.190132 1_655
Pb3 Se0 3.225362 1_555
Pb4 Se12 2.987214 1_445
Pb4 Se7 3.003366 1_545
Pb4 Se7 3.003366 1_455
Pb4 Se3 3.190132 1_545
Pb4 Se3 3.190132 1_455
Pb4 Se1 3.225362 1_555
Pb5 Se11 2.968626 1_655
Pb5 Se11 2.968626 1_565
Pb5 Se4 3.295713 1_555
Pb5 Se8 3.343140 1_565
Pb5 Se8 3.343140 1_655
Pb5 Se6 3.390364 1_565
Pb5 Se6 3.390364 1_655
Pb6 Se12 2.968626 1_545
Pb6 Se12 2.968626 1_455
Pb6 Se5 3.295713 1_555
Pb6 Se9 3.343140 1_545
Pb6 Se9 3.343140 1_455
Pb6 Se7 3.390364 1_545
Pb6 Se7 3.390364 1_455
