# generated using pymatgen
data_Mg4Si3
_symmetry_space_group_name_H-M   'P 1'
_cell_length_a   6.58860800
_cell_length_b   7.22299520
_cell_length_c   12.24452963
_cell_angle_alpha   96.12316306
_cell_angle_beta   90.76538715
_cell_angle_gamma   106.52275675
_symmetry_Int_Tables_number   1
_chemical_formula_structural   Mg4Si3
_chemical_formula_sum   'Mg16 Si12'
_cell_volume   554.87790827
_cell_formula_units_Z   4
loop_
 _symmetry_equiv_pos_site_id
 _symmetry_equiv_pos_as_xyz
  1  'x, y, z'
loop_
 _atom_site_type_symbol
 _atom_site_label
 _atom_site_symmetry_multiplicity
 _atom_site_fract_x
 _atom_site_fract_y
 _atom_site_fract_z
 _atom_site_occupancy
  Mg  Mg0  1  0.59603800  0.94761500  0.90645200  1
  Mg  Mg1  1  0.64276800  0.48607300  0.89055400  1
  Mg  Mg2  1  0.09864900  0.85120600  0.46057700  1
  Mg  Mg3  1  0.17577300  0.57325100  0.26668500  1
  Mg  Mg4  1  0.07574100  0.84190100  0.89875700  1
  Mg  Mg5  1  0.02604200  0.28244700  0.87904800  1
  Mg  Mg6  1  0.56837800  0.85856600  0.40016000  1
  Mg  Mg7  1  0.36978100  0.24268300  0.36835400  1
  Mg  Mg8  1  0.37306800  0.86337000  0.66358400  1
  Mg  Mg9  1  0.32395800  0.28964900  0.67118600  1
  Mg  Mg10  1  0.91875200  0.85337500  0.21179300  1
  Mg  Mg11  1  0.82316300  0.21973800  0.30459800  1
  Mg  Mg12  1  0.96461600  0.51915400  0.67308500  1
  Mg  Mg13  1  0.87775900  0.92428300  0.67402100  1
  Mg  Mg14  1  0.56570100  0.46531600  0.15582000  1
  Mg  Mg15  1  0.43508000  0.95781000  0.15503100  1
  Si  Si0  1  0.65883100  0.20907000  0.54238600  1
  Si  Si1  1  0.26421900  0.54760400  0.49965900  1
  Si  Si2  1  0.33842200  0.19534500  0.99051500  1
  Si  Si3  1  0.95261000  0.56437500  0.05518200  1
  Si  Si4  1  0.32668800  0.60675900  0.81218200  1
  Si  Si5  1  0.66686500  0.18886600  0.74113600  1
  Si  Si6  1  0.77153100  0.57373100  0.35257500  1
  Si  Si7  1  0.16375800  0.20234800  0.16362400  1
  Si  Si8  1  0.64279200  0.57423600  0.53608200  1
  Si  Si9  1  0.01722600  0.19981800  0.50098100  1
  Si  Si10  1  0.31992400  0.60975400  0.01361800  1
  Si  Si11  1  0.82282000  0.20849600  0.07648000  1
loop_
_geom_bond_atom_site_label_1
_geom_bond_atom_site_label_2
_geom_bond_distance
_geom_bond_site_symmetry_2
Mg0 Si4 2.719753 1_555
Mg0 Si11 2.756120 1_566
Mg0 Si5 2.768920 1_565
Mg0 Si2 2.919495 1_565
Mg0 Si10 3.034554 1_556
Mg1 Si4 2.678680 1_555
Mg1 Si5 2.710101 1_555
Mg1 Si3 2.746060 1_556
Mg1 Si2 2.854385 1_555
Mg1 Si10 2.910758 1_556
Mg2 Si6 2.704120 1_455
Mg2 Si9 2.717106 1_565
Mg2 Si1 2.792576 1_555
Mg3 Si7 2.816279 1_555
Mg3 Si6 2.877328 1_455
Mg3 Si1 2.939605 1_555
Mg3 Si3 2.946532 1_455
Mg4 Si2 2.756466 1_565
Mg4 Si4 2.828800 1_555
Mg4 Si3 2.877606 1_456
Mg4 Si10 3.058602 1_556
Mg5 Si2 2.709111 1_555
Mg5 Si5 2.765610 1_455
Mg5 Si11 2.806666 1_456
Mg5 Si4 2.809733 1_555
Mg5 Si10 2.921195 1_556
Mg5 Si3 2.946773 1_456
Mg6 Si6 2.774027 1_555
Mg6 Si0 2.823284 1_565
Mg6 Si8 2.916866 1_555
Mg6 Si1 2.938353 1_555
Mg7 Si7 2.782074 1_555
Mg7 Si9 2.815614 1_555
Mg7 Si1 2.839920 1_555
Mg7 Si0 2.914048 1_555
Mg7 Si6 3.045255 1_555
Mg7 Si8 3.096840 1_555
Mg8 Si5 2.657486 1_565
Mg8 Si4 2.692883 1_555
Mg8 Si1 2.792778 1_555
Mg8 Si0 3.189549 1_565
Mg9 Si4 2.712811 1_555
Mg9 Si5 2.717470 1_555
Mg9 Si9 2.775199 1_555
Mg9 Si0 2.884701 1_555
Mg9 Si1 3.044248 1_555
Mg9 Si8 3.120423 1_555
Mg10 Si7 2.708407 1_665
Mg10 Si3 2.739859 1_555
Mg10 Si6 2.768630 1_555
Mg11 Si6 2.679208 1_555
Mg11 Si9 2.744818 1_655
Mg11 Si11 2.785658 1_555
Mg11 Si7 2.872057 1_655
Mg11 Si0 3.120941 1_555
Mg12 Si4 2.791954 1_655
Mg12 Si8 2.827647 1_555
Mg12 Si5 2.835485 1_555
Mg12 Si0 2.866901 1_555
Mg12 Si1 2.902148 1_655
Mg12 Si9 3.052632 1_655
Mg13 Si5 2.732058 1_565
Mg13 Si8 2.904279 1_555
Mg13 Si9 3.034123 1_665
Mg14 Si6 2.676310 1_555
Mg14 Si2 2.749161 1_554
Mg14 Si3 2.786282 1_555
Mg14 Si7 2.795443 1_555
Mg14 Si10 2.831172 1_555
Mg14 Si11 2.949849 1_555
Mg15 Si10 2.800968 1_555
Mg15 Si7 2.843914 1_565
Mg15 Si11 2.921671 1_565
Mg15 Si2 2.954938 1_564
Si0 Si9 2.439644 1_655
Si0 Si5 2.454226 1_555
Si0 Si8 2.678763 1_555
Si1 Si8 2.477166 1_555
Si1 Si9 2.577421 1_555
Si2 Si7 2.427994 1_556
Si6 Si8 2.412306 1_555
Si10 Si3 2.416728 1_455
Si10 Si4 2.465385 1_554
Si11 Si7 2.487819 1_655
Si11 Si3 2.511072 1_555
