# generated using pymatgen
data_Li2Cr3SnO8
_symmetry_space_group_name_H-M   'P 1'
_cell_length_a   6.01223419
_cell_length_b   6.13174261
_cell_length_c   10.26654721
_cell_angle_alpha   106.14091473
_cell_angle_beta   89.99989982
_cell_angle_gamma   60.63777958
_symmetry_Int_Tables_number   1
_chemical_formula_structural   Li2Cr3SnO8
_chemical_formula_sum   'Li4 Cr6 Sn2 O16'
_cell_volume   312.62916661
_cell_formula_units_Z   2
loop_
 _symmetry_equiv_pos_site_id
 _symmetry_equiv_pos_as_xyz
  1  'x, y, z'
loop_
 _atom_site_type_symbol
 _atom_site_label
 _atom_site_symmetry_multiplicity
 _atom_site_fract_x
 _atom_site_fract_y
 _atom_site_fract_z
 _atom_site_occupancy
  Li  Li0  1  0.31789800  0.36249100  0.55797700  1
  Li  Li1  1  0.81963300  0.36243600  0.05799400  1
  Li  Li2  1  0.18036100  0.63757800  0.94200300  1
  Li  Li3  1  0.68209600  0.63752500  0.44203000  1
  Cr  Cr0  1  0.25007100  0.00090200  0.75057700  1
  Cr  Cr1  1  0.74990600  0.99912300  0.24944500  1
  Cr  Cr2  1  0.00001200  0.99994800  0.49998500  1
  Cr  Cr3  1  0.75073900  0.99937300  0.74973300  1
  Cr  Cr4  1  0.24930000  0.00060600  0.25023900  1
  Cr  Cr5  1  0.50001700  0.99999000  0.00001400  1
  Sn  Sn0  1  0.75368300  0.49995700  0.74992100  1
  Sn  Sn1  1  0.24633700  0.50001500  0.25005600  1
  O  O0  1  0.10444200  0.79957300  0.62584200  1
  O  O1  1  0.59618300  0.79927300  0.12566800  1
  O  O2  1  0.40385100  0.20069800  0.87433500  1
  O  O3  1  0.89557700  0.20038800  0.37413800  1
  O  O4  1  0.88447500  0.23081800  0.85732400  1
  O  O5  1  0.38473400  0.23063900  0.35712900  1
  O  O6  1  0.66332900  0.22649800  0.62281700  1
  O  O7  1  0.15634600  0.22765500  0.12611700  1
  O  O8  1  0.11594900  0.22776500  0.62625100  1
  O  O9  1  0.61020100  0.22645500  0.12273900  1
  O  O10  1  0.38978100  0.77359000  0.87728500  1
  O  O11  1  0.88400400  0.77224000  0.37375700  1
  O  O12  1  0.84365900  0.77238100  0.87389700  1
  O  O13  1  0.33668900  0.77348200  0.37716600  1
  O  O14  1  0.61523700  0.76939600  0.64287200  1
  O  O15  1  0.11549100  0.76920500  0.14268700  1
loop_
_geom_bond_atom_site_label_1
_geom_bond_atom_site_label_2
_geom_bond_distance
_geom_bond_site_symmetry_2
Li0 O5 1.954870 1_555
Li0 O8 1.988350 1_555
Li0 O6 2.015431 1_555
Li0 O0 2.214509 1_555
Li1 O4 1.953124 1_554
Li1 O7 1.987718 1_655
Li1 O9 2.015008 1_555
Li1 O1 2.213293 1_555
Li2 O15 1.953259 1_556
Li2 O12 1.987585 1_455
Li2 O10 2.014979 1_555
Li2 O2 2.213515 1_555
Li3 O14 1.954814 1_555
Li3 O11 1.988090 1_555
Li3 O13 2.015421 1_555
Li3 O3 2.214784 1_555
Cr0 O8 2.025262 1_555
Cr0 O0 2.027684 1_545
Cr0 O4 2.030290 1_455
Cr0 O14 2.031955 1_545
Cr0 O10 2.049512 1_545
Cr0 O2 2.053129 1_555
Cr1 O11 2.025217 1_555
Cr1 O3 2.027416 1_565
Cr1 O15 2.030281 1_655
Cr1 O5 2.031907 1_565
Cr1 O9 2.049573 1_565
Cr1 O1 2.053177 1_555
Cr2 O0 1.923418 1_555
Cr2 O3 1.923597 1_465
Cr2 O13 1.971173 1_555
Cr2 O6 1.971268 1_465
Cr2 O11 2.016022 1_455
Cr2 O8 2.016362 1_565
Cr3 O12 2.024418 1_555
Cr3 O2 2.026610 1_565
Cr3 O14 2.030338 1_555
Cr3 O4 2.031764 1_565
Cr3 O6 2.050538 1_565
Cr3 O0 2.054175 1_655
Cr4 O7 2.024306 1_555
Cr4 O1 2.026438 1_545
Cr4 O5 2.030393 1_555
Cr4 O15 2.031748 1_545
Cr4 O13 2.050636 1_545
Cr4 O3 2.054310 1_455
Cr5 O1 1.923057 1_555
Cr5 O2 1.923237 1_564
Cr5 O10 1.970729 1_554
Cr5 O9 1.970773 1_565
Cr5 O12 2.015052 1_554
Cr5 O7 2.015111 1_565
O4 Sn0 2.072877 1_555
O5 Sn1 2.071413 1_555
O6 Sn0 2.118065 1_555
O7 Sn1 2.098911 1_555
O8 Sn0 2.097233 1_455
O9 Sn1 2.119037 1_555
O10 Sn0 2.119426 1_555
O11 Sn1 2.097640 1_655
O12 Sn0 2.099295 1_555
O13 Sn1 2.118118 1_555
O14 Sn0 2.071520 1_555
O15 Sn1 2.072847 1_555
