# generated using pymatgen
data_Sr5Ca3TiMn7O20
_symmetry_space_group_name_H-M   'P 1'
_cell_length_a   11.05823444
_cell_length_b   11.20448757
_cell_length_c   17.69623495
_cell_angle_alpha   108.39372987
_cell_angle_beta   108.33213285
_cell_angle_gamma   90.01151149
_symmetry_Int_Tables_number   1
_chemical_formula_structural   Sr5Ca3TiMn7O20
_chemical_formula_sum   'Sr20 Ca12 Ti4 Mn28 O80'
_cell_volume   1962.91304711
_cell_formula_units_Z   4
loop_
 _symmetry_equiv_pos_site_id
 _symmetry_equiv_pos_as_xyz
  1  'x, y, z'
loop_
 _atom_site_type_symbol
 _atom_site_label
 _atom_site_symmetry_multiplicity
 _atom_site_fract_x
 _atom_site_fract_y
 _atom_site_fract_z
 _atom_site_occupancy
  Sr  Sr0  1  0.30790600  0.05827100  0.60790800  1
  Sr  Sr1  1  0.30945700  0.55901600  0.60838900  1
  Sr  Sr2  1  0.80742300  0.05883200  0.60821700  1
  Sr  Sr3  1  0.80763400  0.55861900  0.60971800  1
  Sr  Sr4  1  0.19749500  0.43884800  0.38845600  1
  Sr  Sr5  1  0.19930400  0.44021900  0.89133800  1
  Sr  Sr6  1  0.69784700  0.43926000  0.38855000  1
  Sr  Sr7  1  0.69852100  0.94091900  0.38762200  1
  Sr  Sr8  1  0.69981800  0.94123000  0.89051200  1
  Sr  Sr9  1  0.05918000  0.29883000  0.60861300  1
  Sr  Sr10  1  0.05990700  0.80093000  0.60953800  1
  Sr  Sr11  1  0.55915800  0.30226700  0.61023300  1
  Sr  Sr12  1  0.55892700  0.80001600  0.60914100  1
  Sr  Sr13  1  0.44819000  0.19918500  0.38856100  1
  Sr  Sr14  1  0.44860300  0.20508100  0.89106500  1
  Sr  Sr15  1  0.44683700  0.70015800  0.38842300  1
  Sr  Sr16  1  0.44346500  0.69575500  0.89030900  1
  Sr  Sr17  1  0.94796100  0.19582800  0.38728800  1
  Sr  Sr18  1  0.94773300  0.20292700  0.89008100  1
  Sr  Sr19  1  0.94975100  0.69979300  0.38803800  1
  Ca  Ca0  1  0.30565000  0.06583200  0.10839700  1
  Ca  Ca1  1  0.30966100  0.56586500  0.10724900  1
  Ca  Ca2  1  0.80442600  0.06773700  0.10896100  1
  Ca  Ca3  1  0.80100000  0.56128000  0.10886800  1
  Ca  Ca4  1  0.19838400  0.93711200  0.39367200  1
  Ca  Ca5  1  0.19568600  0.93733000  0.89234600  1
  Ca  Ca6  1  0.69740400  0.43463000  0.89388300  1
  Ca  Ca7  1  0.05492100  0.29240400  0.10911900  1
  Ca  Ca8  1  0.05992500  0.79595300  0.11007300  1
  Ca  Ca9  1  0.55412200  0.29469800  0.10782300  1
  Ca  Ca10  1  0.54949600  0.79307700  0.10970400  1
  Ca  Ca11  1  0.95258200  0.70632000  0.89482200  1
  Ti  Ti0  1  0.00912300  0.00138600  0.00414600  1
  Ti  Ti1  1  0.00762200  0.50558800  0.00627600  1
  Ti  Ti2  1  0.50305800  0.00014400  0.00050000  1
  Ti  Ti3  1  0.75604600  0.74919200  0.00350100  1
  Mn  Mn0  1  0.00368200  0.99730000  0.49682800  1
  Mn  Mn1  1  0.00302400  0.49948200  0.49887500  1
  Mn  Mn2  1  0.50274400  0.99974300  0.49811200  1
  Mn  Mn3  1  0.50657200  0.50033400  0.00372400  1
  Mn  Mn4  1  0.50459200  0.50104500  0.49998000  1
  Mn  Mn5  1  0.25554100  0.25154900  0.00350900  1
  Mn  Mn6  1  0.25259800  0.24774400  0.49641600  1
  Mn  Mn7  1  0.25597100  0.75347600  0.00396100  1
  Mn  Mn8  1  0.25424700  0.74975300  0.49872200  1
  Mn  Mn9  1  0.75758900  0.25275900  0.00438200  1
  Mn  Mn10  1  0.75371900  0.24967600  0.49911100  1
  Mn  Mn11  1  0.75450200  0.74920200  0.49988900  1
  Mn  Mn12  1  0.10710600  0.09052500  0.24616200  1
  Mn  Mn13  1  0.11111900  0.09421600  0.75082400  1
  Mn  Mn14  1  0.10973000  0.59696300  0.24620900  1
  Mn  Mn15  1  0.10856900  0.59988000  0.75144300  1
  Mn  Mn16  1  0.60548400  0.09120500  0.24278100  1
  Mn  Mn17  1  0.61068600  0.09981400  0.74939600  1
  Mn  Mn18  1  0.60817000  0.59216000  0.24644700  1
  Mn  Mn19  1  0.61998800  0.59763000  0.75487700  1
  Mn  Mn20  1  0.35642700  0.40219500  0.24646300  1
  Mn  Mn21  1  0.36412800  0.40372600  0.74992300  1
  Mn  Mn22  1  0.35368900  0.90527100  0.24926100  1
  Mn  Mn23  1  0.36262000  0.90407800  0.75261100  1
  Mn  Mn24  1  0.85890700  0.40212600  0.24703000  1
  Mn  Mn25  1  0.86139800  0.40951000  0.75755300  1
  Mn  Mn26  1  0.86052400  0.90081200  0.24391500  1
  Mn  Mn27  1  0.86817600  0.90218900  0.75260900  1
  O  O0  1  0.12591400  0.11876600  0.49178500  1
  O  O1  1  0.12669700  0.11909500  0.99112300  1
  O  O2  1  0.12428100  0.62161400  0.49300700  1
  O  O3  1  0.12127100  0.62602200  0.99024400  1
  O  O4  1  0.62547100  0.12402800  0.49481600  1
  O  O5  1  0.62683800  0.12168600  0.99643700  1
  O  O6  1  0.62457800  0.62247200  0.49282000  1
  O  O7  1  0.63303200  0.62312000  0.99186800  1
  O  O8  1  0.13428600  0.38353400  0.01494500  1
  O  O9  1  0.13029700  0.37537500  0.50381900  1
  O  O10  1  0.13747300  0.88269500  0.01439200  1
  O  O11  1  0.13129100  0.87748100  0.50384900  1
  O  O12  1  0.64014500  0.37684900  0.01422800  1
  O  O13  1  0.62962400  0.37604000  0.50247200  1
  O  O14  1  0.64006700  0.88003000  0.01715000  1
  O  O15  1  0.62936600  0.87658300  0.50299100  1
  O  O16  1  0.37180900  0.11681500  0.49003200  1
  O  O17  1  0.37465200  0.11510800  0.99283900  1
  O  O18  1  0.37495300  0.62053400  0.49229000  1
  O  O19  1  0.37347300  0.62739100  0.99830100  1
  O  O20  1  0.87674000  0.12111200  0.49493500  1
  O  O21  1  0.87944900  0.12053500  0.99510300  1
  O  O22  1  0.87471000  0.62141500  0.49334400  1
  O  O23  1  0.87644100  0.61806400  0.98712500  1
  O  O24  1  0.38323200  0.37875300  0.01491500  1
  O  O25  1  0.38081000  0.37738100  0.50360700  1
  O  O26  1  0.38820300  0.88500200  0.01619100  1
  O  O27  1  0.37970100  0.87874800  0.50341300  1
  O  O28  1  0.88613000  0.38822400  0.01382500  1
  O  O29  1  0.88046500  0.37753500  0.50348500  1
  O  O30  1  0.89166200  0.88523800  0.01579300  1
  O  O31  1  0.88088800  0.87729300  0.50308900  1
  O  O32  1  0.08415500  0.09081500  0.12849200  1
  O  O33  1  0.07704600  0.07887400  0.63522800  1
  O  O34  1  0.07692600  0.59642600  0.12609900  1
  O  O35  1  0.07112500  0.58175000  0.63597600  1
  O  O36  1  0.57734100  0.09204600  0.12970700  1
  O  O37  1  0.57230900  0.08245400  0.63408800  1
  O  O38  1  0.58549400  0.59800000  0.13744300  1
  O  O39  1  0.57713500  0.58083400  0.63380600  1
  O  O40  1  0.43628400  0.42069700  0.36188200  1
  O  O41  1  0.44478700  0.41662400  0.86522200  1
  O  O42  1  0.43878700  0.92159000  0.36358400  1
  O  O43  1  0.45185900  0.91561300  0.87752000  1
  O  O44  1  0.93538000  0.42025000  0.36257500  1
  O  O45  1  0.94778800  0.41692300  0.87284800  1
  O  O46  1  0.94391200  0.91931700  0.36576800  1
  O  O47  1  0.95108000  0.91081200  0.87515700  1
  O  O48  1  0.33477000  0.28607300  0.13934100  1
  O  O49  1  0.32456200  0.30150300  0.63536000  1
  O  O50  1  0.32808800  0.79028800  0.14102400  1
  O  O51  1  0.32109700  0.80053600  0.63093000  1
  O  O52  1  0.84081800  0.28843200  0.13967500  1
  O  O53  1  0.82606300  0.31224500  0.64341200  1
  O  O54  1  0.83705900  0.77864500  0.12587000  1
  O  O55  1  0.82428200  0.80250800  0.63368100  1
  O  O56  1  0.18475500  0.19550900  0.36289900  1
  O  O57  1  0.18945800  0.20374200  0.86202500  1
  O  O58  1  0.19020600  0.70580000  0.36704900  1
  O  O59  1  0.19163900  0.71275000  0.86295700  1
  O  O60  1  0.68285900  0.18757900  0.35688800  1
  O  O61  1  0.69116600  0.20836200  0.86276500  1
  O  O62  1  0.68551100  0.69151200  0.36110000  1
  O  O63  1  0.70578800  0.71385100  0.87619700  1
  O  O64  1  0.42333200  0.06348300  0.24014400  1
  O  O65  1  0.43752700  0.07137900  0.75223900  1
  O  O66  1  0.42897800  0.56327800  0.23969700  1
  O  O67  1  0.43779900  0.56406700  0.75157100  1
  O  O68  1  0.92420300  0.06907000  0.23903200  1
  O  O69  1  0.93701000  0.07097500  0.75141300  1
  O  O70  1  0.92406000  0.55966900  0.23986400  1
  O  O71  1  0.93581300  0.57682500  0.76018100  1
  O  O72  1  0.17988100  0.42247100  0.24006600  1
  O  O73  1  0.18693700  0.43954600  0.75238600  1
  O  O74  1  0.17603500  0.91939000  0.24859300  1
  O  O75  1  0.18400400  0.93498300  0.75993500  1
  O  O76  1  0.67539600  0.42281600  0.24002100  1
  O  O77  1  0.68769400  0.42691600  0.76056900  1
  O  O78  1  0.67372700  0.92725700  0.23875900  1
  O  O79  1  0.69040300  0.94208300  0.75237500  1
loop_
_geom_bond_atom_site_label_1
_geom_bond_atom_site_label_2
_geom_bond_distance
_geom_bond_site_symmetry_2
Ca0 O64 2.293460 1_555
Ca0 O48 2.351384 1_555
Ca0 O10 2.516869 1_545
Ca0 O26 2.540136 1_545
Ca0 O32 2.586398 1_555
Ca0 O17 2.600529 1_554
Ca0 O1 2.603421 1_554
Ca0 O36 2.910683 1_555
Ca1 O66 2.309291 1_555
Ca1 O50 2.386712 1_555
Ca1 O19 2.526778 1_554
Ca1 O24 2.530229 1_555
Ca1 O8 2.549992 1_555
Ca1 O3 2.692467 1_554
Ca1 O34 2.705632 1_555
Ca1 O38 2.927788 1_555
Ca2 O68 2.261238 1_555
Ca2 O52 2.363429 1_555
Ca2 O14 2.520081 1_545
Ca2 O5 2.547007 1_554
Ca2 O30 2.589170 1_545
Ca2 O21 2.627053 1_554
Ca2 O36 2.651789 1_555
Ca2 O32 3.004267 1_655
Ca3 O70 2.295203 1_555
Ca3 O54 2.375439 1_555
Ca3 O12 2.485877 1_555
Ca3 O28 2.532458 1_555
Ca3 O7 2.589142 1_554
Ca3 O38 2.594487 1_555
Ca3 O23 2.781650 1_554
Ca3 O34 2.982729 1_655
Ca4 O74 2.443549 1_555
Ca4 O58 2.479866 1_555
Ca4 O16 2.532634 1_565
Ca4 O0 2.538718 1_565
Ca4 O11 2.555411 1_555
Ca4 O27 2.563553 1_555
Ca4 O46 2.695513 1_455
Ca4 O42 2.865860 1_555
Ca5 O75 2.297511 1_555
Ca5 O59 2.400769 1_555
Ca5 O1 2.525466 1_565
Ca5 O17 2.568241 1_565
Ca5 O47 2.631049 1_455
Ca5 O10 2.676276 1_556
Ca5 O26 2.748729 1_556
Ca5 O43 2.929238 1_555
Ca6 O77 2.301430 1_555
Ca6 O61 2.414603 1_555
Ca6 O7 2.537636 1_555
Ca6 O23 2.582581 1_555
Ca6 O28 2.653558 1_556
Ca6 O12 2.659639 1_556
Ca6 O41 2.673109 1_555
Ca6 O45 2.906227 1_555
Ca7 O72 2.292757 1_555
Ca7 O32 2.396462 1_555
Ca7 O8 2.565872 1_555
Ca7 O21 2.574517 1_454
Ca7 O28 2.577542 1_455
Ca7 O52 2.592368 1_455
Ca7 O1 2.691672 1_554
Ca7 O48 2.975020 1_555
Ca8 O74 2.334539 1_555
Ca8 O34 2.341030 1_555
Ca8 O30 2.519481 1_455
Ca8 O10 2.549205 1_555
Ca8 O54 2.580104 1_455
Ca8 O3 2.634276 1_554
Ca8 O23 2.703321 1_454
Ca8 O50 2.845696 1_555
Ca9 O76 2.288738 1_555
Ca9 O36 2.421611 1_555
Ca9 O24 2.486907 1_555
Ca9 O12 2.539346 1_555
Ca9 O5 2.622205 1_554
Ca9 O17 2.646175 1_554
Ca9 O48 2.662545 1_555
Ca10 O78 2.285159 1_555
Ca10 O38 2.394037 1_555
Ca10 O26 2.490036 1_555
Ca10 O19 2.529164 1_554
Ca10 O14 2.583296 1_555
Ca10 O50 2.677174 1_555
Ca10 O7 2.744873 1_554
Ca11 O71 2.314476 1_555
Ca11 O47 2.422948 1_555
Ca11 O3 2.473575 1_655
Ca11 O23 2.497798 1_555
Ca11 O63 2.648696 1_555
Ca11 O10 2.683445 1_656
Ca11 O30 2.693459 1_556
Ca11 O59 2.876592 1_655
Mn0 O11 1.950589 1_555
Mn0 O0 1.959334 1_565
Mn0 O31 1.962663 1_455
Mn0 O20 1.973991 1_465
Mn0 O46 2.082284 1_455
Mn0 O33 2.197508 1_565
Mn1 O29 1.962022 1_455
Mn1 O2 1.964150 1_555
Mn1 O22 1.971606 1_455
Mn1 O9 1.980460 1_555
Mn1 O44 2.163060 1_455
Mn1 O35 2.177643 1_555
Mn2 O16 1.956125 1_565
Mn2 O27 1.964136 1_555
Mn2 O15 1.967797 1_555
Mn2 O4 1.970972 1_565
Mn2 O42 2.135287 1_555
Mn2 O37 2.160719 1_565
Mn3 O24 2.023526 1_555
Mn3 O12 2.030036 1_555
Mn3 O19 2.049486 1_554
Mn3 O7 2.063555 1_554
Mn3 O38 2.150575 1_555
Mn3 O41 2.202117 1_554
Mn4 O6 1.959948 1_555
Mn4 O18 1.964464 1_555
Mn4 O13 1.968946 1_555
Mn4 O25 1.976931 1_555
Mn4 O39 2.125965 1_555
Mn4 O40 2.191655 1_555
Mn5 O24 1.924655 1_555
Mn5 O1 1.969256 1_554
Mn5 O8 2.002104 1_555
Mn5 O17 2.020575 1_554
Mn5 O48 2.187097 1_555
Mn5 O57 2.256581 1_554
Mn6 O9 1.971104 1_555
Mn6 O16 1.972946 1_555
Mn6 O25 1.976153 1_555
Mn6 O0 1.977341 1_555
Mn6 O56 2.121328 1_555
Mn6 O49 2.208171 1_555
Mn7 O19 1.920276 1_554
Mn7 O10 1.957458 1_555
Mn7 O3 1.967218 1_554
Mn7 O26 1.988853 1_555
Mn7 O50 2.200203 1_555
Mn7 O59 2.259469 1_554
Mn8 O27 1.967608 1_555
Mn8 O18 1.970584 1_555
Mn8 O11 1.975225 1_555
Mn8 O2 1.988262 1_555
Mn8 O58 2.100272 1_555
Mn8 O51 2.101344 1_555
Mn9 O12 1.907968 1_555
Mn9 O5 2.002021 1_554
Mn9 O21 2.006038 1_554
Mn9 O28 2.010428 1_555
Mn9 O52 2.179157 1_555
Mn9 O61 2.263320 1_554
Mn10 O4 1.965422 1_555
Mn10 O29 1.970719 1_555
Mn10 O13 1.972374 1_555
Mn10 O20 1.981919 1_555
Mn10 O60 2.255335 1_555
Mn10 O53 2.288493 1_555
Mn11 O22 1.955351 1_555
Mn11 O6 1.967259 1_555
Mn11 O31 1.978487 1_555
Mn11 O15 1.988470 1_555
Mn11 O55 2.125066 1_555
Mn11 O62 2.202551 1_555
Mn12 O56 1.933582 1_555
Mn12 O68 1.996168 1_455
Mn12 O32 2.017991 1_555
Mn12 O74 2.071617 1_545
Mn13 O57 1.879369 1_555
Mn13 O33 1.910305 1_555
Mn13 O69 1.946530 1_455
Mn13 O75 1.989741 1_545
Mn14 O58 2.002155 1_555
Mn14 O34 2.038692 1_555
Mn14 O70 2.056161 1_455
Mn14 O72 2.086988 1_555
Mn15 O35 1.895709 1_555
Mn15 O59 1.903063 1_555
Mn15 O71 1.987714 1_455
Mn15 O73 1.997251 1_555
Mn16 O60 1.874108 1_555
Mn16 O36 1.929003 1_555
Mn16 O78 1.975041 1_545
Mn16 O64 2.021745 1_555
Mn17 O37 1.893780 1_555
Mn17 O61 1.905956 1_555
Mn17 O65 1.959870 1_555
Mn17 O79 1.983279 1_545
Mn18 O38 1.887708 1_555
Mn18 O62 1.889414 1_555
Mn18 O66 1.967733 1_555
Mn18 O76 2.020725 1_555
Mn19 O39 1.989254 1_555
Mn19 O67 2.028664 1_555
Mn19 O63 2.039350 1_555
Mn19 O77 2.074632 1_555
Mn20 O48 1.871219 1_555
Mn20 O40 1.895428 1_555
Mn20 O72 1.937327 1_555
Mn20 O66 2.027736 1_555
Mn21 O49 1.894669 1_555
Mn21 O41 1.910125 1_555
Mn21 O67 1.960483 1_555
Mn21 O73 2.011294 1_555
Mn22 O50 1.873522 1_555
Mn22 O42 1.892289 1_555
Mn22 O74 1.967556 1_555
Mn22 O64 2.004904 1_565
Mn23 O51 1.998680 1_555
Mn23 O75 2.042307 1_555
Mn23 O65 2.051978 1_565
Mn23 O43 2.079421 1_555
Mn24 O52 1.872298 1_555
Mn24 O44 1.894044 1_555
Mn24 O70 1.961960 1_555
Mn24 O76 2.011770 1_555
Mn25 O53 1.879992 1_555
Mn25 O45 1.936293 1_555
Mn25 O77 1.946447 1_555
Mn25 O71 2.028308 1_555
Mn26 O46 2.002513 1_555
Mn26 O54 2.039378 1_555
Mn26 O68 2.048910 1_565
Mn26 O78 2.064403 1_555
Mn27 O55 1.945773 1_555
Mn27 O79 2.015144 1_555
Mn27 O47 2.042031 1_555
Mn27 O69 2.047230 1_565
O0 Sr17 2.599375 1_455
O0 Sr0 2.647734 1_555
O0 Sr9 2.686485 1_555
O1 Ti0 1.965339 1_556
O1 Sr18 2.613559 1_455
O2 Sr19 2.591341 1_455
O2 Sr4 2.612267 1_555
O2 Sr10 2.665558 1_555
O2 Sr1 2.669904 1_555
O3 Ti1 1.986459 1_556
O3 Sr5 2.606394 1_555
O4 Sr13 2.601743 1_555
O4 Sr7 2.639815 1_545
O4 Sr2 2.644792 1_555
O4 Sr11 2.658234 1_555
O5 Ti2 1.963732 1_556
O5 Sr8 2.610268 1_545
O5 Sr14 2.650148 1_555
O6 Sr15 2.601003 1_555
O6 Sr6 2.612627 1_555
O6 Sr12 2.660438 1_555
O6 Sr3 2.681289 1_555
O7 Ti3 1.878233 1_556
O7 Sr16 2.615436 1_555
O8 Ti1 1.963069 1_555
O8 Sr18 2.746309 1_454
O8 Sr5 2.751512 1_554
O9 Sr9 2.591122 1_555
O9 Sr1 2.621528 1_555
O9 Sr4 2.663828 1_555
O9 Sr17 2.670171 1_455
O10 Ti0 1.951144 1_565
O11 Sr0 2.586629 1_565
O11 Sr10 2.607228 1_555
O11 Sr19 2.651279 1_455
O12 Sr14 2.718064 1_554
O13 Sr11 2.618438 1_555
O13 Sr3 2.619122 1_555
O13 Sr13 2.636075 1_555
O13 Sr6 2.644402 1_555
O14 Ti3 1.955618 1_555
O14 Ti2 2.040527 1_565
O14 Sr8 2.798214 1_554
O14 Sr16 2.834004 1_554
O15 Sr2 2.608923 1_565
O15 Sr12 2.609305 1_555
O15 Sr15 2.643306 1_555
O15 Sr7 2.680154 1_555
O16 Sr13 2.605605 1_555
O16 Sr0 2.659222 1_555
O16 Sr11 2.751575 1_555
O17 Ti2 1.919297 1_556
O17 Sr14 2.645870 1_555
O18 Sr4 2.596309 1_555
O18 Sr15 2.599988 1_555
O18 Sr1 2.655231 1_555
O18 Sr12 2.680792 1_555
O19 Sr16 2.586876 1_555
O19 Sr5 2.624950 1_555
O20 Sr7 2.605963 1_545
O20 Sr17 2.626756 1_555
O20 Sr2 2.634845 1_555
O20 Sr9 2.645648 1_655
O21 Ti0 1.963503 1_656
O21 Sr8 2.597432 1_545
O21 Sr18 2.615655 1_555
O22 Sr6 2.599599 1_555
O22 Sr19 2.633965 1_555
O22 Sr3 2.676079 1_555
O22 Sr10 2.684594 1_655
O23 Ti1 1.941235 1_656
O23 Ti3 1.997470 1_556
O24 Sr14 2.723654 1_554
O24 Sr5 2.747094 1_554
O25 Sr1 2.596545 1_555
O25 Sr11 2.611552 1_555
O25 Sr4 2.650238 1_555
O25 Sr13 2.660063 1_555
O26 Ti2 1.949840 1_565
O26 Sr16 2.776303 1_554
O27 Sr0 2.583121 1_565
O27 Sr12 2.629925 1_555
O27 Sr15 2.660300 1_555
O28 Ti1 1.942959 1_655
O28 Sr18 2.763965 1_554
O29 Sr3 2.616358 1_555
O29 Sr9 2.620605 1_655
O29 Sr6 2.645333 1_555
O29 Sr17 2.693388 1_555
O30 Ti0 1.939134 1_665
O30 Ti3 2.050495 1_555
O30 Sr8 2.780100 1_554
O31 Sr2 2.611820 1_565
O31 Sr10 2.621364 1_655
O31 Sr7 2.660467 1_555
O31 Sr19 2.664749 1_555
O32 Ti0 1.998539 1_555
O33 Sr9 2.647411 1_555
O33 Sr0 2.740536 1_555
O33 Sr2 2.864274 1_455
O33 Sr10 2.998840 1_545
O34 Ti1 1.932582 1_555
O35 Sr10 2.637031 1_555
O35 Sr3 2.800894 1_455
O35 Sr1 2.824957 1_555
O35 Sr9 3.048203 1_555
O36 Ti2 2.072530 1_555
O37 Sr11 2.623520 1_555
O37 Sr2 2.777037 1_555
O37 Sr0 2.811619 1_555
O37 Sr12 3.050961 1_545
O39 Sr12 2.623643 1_555
O39 Sr3 2.712449 1_555
O39 Sr1 2.848991 1_555
O39 Sr11 3.013523 1_555
O40 Sr13 2.664717 1_555
O40 Sr6 2.776914 1_555
O40 Sr4 2.820670 1_555
O40 Sr15 3.012639 1_555
O41 Sr14 2.549686 1_555
O41 Sr5 2.892222 1_555
O41 Sr16 3.017705 1_555
O42 Sr15 2.649598 1_555
O42 Sr7 2.765941 1_555
O42 Sr13 2.997260 1_565
O43 Ti2 1.969186 1_566
O43 Sr16 2.548160 1_555
O43 Sr8 2.686117 1_555
O43 Sr14 3.176927 1_565
O44 Sr17 2.681296 1_555
O44 Sr4 2.785518 1_655
O44 Sr6 2.802522 1_555
O44 Sr19 3.017059 1_555
O45 Ti1 2.129905 1_656
O45 Sr18 2.510700 1_555
O45 Sr5 2.698942 1_655
O46 Sr19 2.608673 1_555
O46 Sr7 2.858857 1_555
O46 Sr17 2.998379 1_565
O47 Ti0 2.066016 1_666
O47 Sr8 2.885654 1_555
O49 Sr0 2.608662 1_555
O49 Sr11 2.766907 1_555
O49 Sr9 2.820352 1_555
O49 Sr1 3.065908 1_555
O51 Sr1 2.604811 1_555
O51 Sr12 2.775247 1_555
O51 Sr10 2.792645 1_555
O51 Sr0 3.038394 1_565
O53 Sr2 2.700991 1_555
O53 Sr11 2.817251 1_555
O53 Sr9 2.826223 1_655
O53 Sr3 2.996652 1_555
O54 Ti3 1.982245 1_555
O55 Sr3 2.626877 1_555
O55 Sr10 2.769025 1_655
O55 Sr12 2.826755 1_555
O55 Sr2 3.041411 1_565
O56 Sr4 2.615283 1_555
O56 Sr17 2.784402 1_455
O56 Sr13 2.801820 1_555
O57 Sr5 2.529487 1_555
O57 Sr14 2.746854 1_555
O57 Sr18 2.868705 1_455
O58 Sr15 2.746015 1_555
O58 Sr19 2.801746 1_455
O58 Sr4 3.129283 1_555
O59 Sr16 2.689957 1_555
O60 Sr6 2.690320 1_555
O60 Sr17 2.805075 1_555
O60 Sr13 2.816789 1_555
O60 Sr7 2.975461 1_545
O61 Sr18 2.728164 1_555
O61 Sr14 2.881593 1_555
O61 Sr8 3.179121 1_545
O62 Sr7 2.679503 1_555
O62 Sr19 2.805326 1_555
O62 Sr15 2.825322 1_555
O62 Sr6 3.011274 1_555
O63 Ti3 2.046983 1_556
O63 Sr8 2.482423 1_555
O63 Sr16 3.000950 1_555
O64 Sr13 2.512165 1_555
O65 Sr14 2.404705 1_555
O65 Sr0 2.461681 1_555
O66 Sr15 2.538414 1_555
O67 Sr16 2.413663 1_555
O67 Sr1 2.466754 1_555
O68 Sr17 2.486769 1_555
O69 Sr18 2.397671 1_555
O69 Sr2 2.447735 1_555
O70 Sr19 2.520783 1_555
O71 Sr3 2.534430 1_555
O72 Sr4 2.518202 1_555
O73 Sr5 2.416991 1_555
O73 Sr9 2.482215 1_555
O75 Sr10 2.530110 1_555
O76 Sr6 2.507582 1_555
O77 Sr11 2.514790 1_555
O78 Sr7 2.515824 1_555
O79 Sr8 2.416854 1_555
O79 Sr12 2.491375 1_555
