# generated using pymatgen
data_Ni7(PO4)6
_symmetry_space_group_name_H-M   'P 1'
_cell_length_a   8.77775609
_cell_length_b   8.77775609
_cell_length_c   6.57099583
_cell_angle_alpha   80.45165971
_cell_angle_beta   80.45165971
_cell_angle_gamma   108.41766894
_symmetry_Int_Tables_number   1
_chemical_formula_structural   Ni7(PO4)6
_chemical_formula_sum   'Ni7 P6 O24'
_cell_volume   460.62860182
_cell_formula_units_Z   1
loop_
 _symmetry_equiv_pos_site_id
 _symmetry_equiv_pos_as_xyz
  1  'x, y, z'
loop_
 _atom_site_type_symbol
 _atom_site_label
 _atom_site_symmetry_multiplicity
 _atom_site_fract_x
 _atom_site_fract_y
 _atom_site_fract_z
 _atom_site_occupancy
  Ni  Ni0  1  0.99368900  0.35625000  0.19341800  1
  Ni  Ni1  1  0.00000000  0.00000000  0.00000000  1
  Ni  Ni2  1  0.35625000  0.99368900  0.19341800  1
  Ni  Ni3  1  0.64375000  0.00631100  0.80658200  1
  Ni  Ni4  1  0.32459500  0.67540500  0.00000000  1
  Ni  Ni5  1  0.67540500  0.32459500  0.00000000  1
  Ni  Ni6  1  0.00631100  0.64375000  0.80658200  1
  P  P0  1  0.27604000  0.90581400  0.70500900  1
  P  P1  1  0.09418600  0.72396000  0.29499100  1
  P  P2  1  0.66794200  0.66794200  0.07500000  1
  P  P3  1  0.72396000  0.09418600  0.29499100  1
  P  P4  1  0.90581400  0.27604000  0.70500900  1
  P  P5  1  0.33205800  0.33205800  0.92500000  1
  O  O0  1  0.74921000  0.56902800  0.94134100  1
  O  O1  1  0.35016100  0.02288400  0.49057500  1
  O  O2  1  0.60796100  0.03875400  0.13400200  1
  O  O3  1  0.90363000  0.10867500  0.21084700  1
  O  O4  1  0.56902800  0.74921000  0.94134100  1
  O  O5  1  0.73857200  0.27123600  0.28864800  1
  O  O6  1  0.24951800  0.71647200  0.71828100  1
  O  O7  1  0.97711600  0.64983900  0.50942500  1
  O  O8  1  0.03875400  0.60796100  0.13400200  1
  O  O9  1  0.27123600  0.73857200  0.28864800  1
  O  O10  1  0.02288400  0.35016100  0.49057500  1
  O  O11  1  0.44598300  0.44598300  0.73638400  1
  O  O12  1  0.38420300  0.94756100  0.87247400  1
  O  O13  1  0.80083100  0.80083100  0.13549700  1
  O  O14  1  0.09637000  0.89132500  0.78915300  1
  O  O15  1  0.19916900  0.19916900  0.86450300  1
  O  O16  1  0.24125400  0.42204000  0.06959200  1
  O  O17  1  0.89132500  0.09637000  0.78915300  1
  O  O18  1  0.10867500  0.90363000  0.21084700  1
  O  O19  1  0.94756100  0.38420300  0.87247400  1
  O  O20  1  0.64983900  0.97711600  0.50942500  1
  O  O21  1  0.71647200  0.24951800  0.71828100  1
  O  O22  1  0.55401700  0.55401700  0.26361600  1
  O  O23  1  0.42204000  0.24125400  0.06959200  1
loop_
_geom_bond_atom_site_label_1
_geom_bond_atom_site_label_2
_geom_bond_distance
_geom_bond_site_symmetry_2
Ni0 O10 2.005314 1_655
Ni0 O3 2.040221 1_555
Ni0 O16 2.045068 1_655
Ni0 O5 2.070606 1_555
Ni0 O8 2.073868 1_655
Ni0 O19 2.201385 1_554
Ni1 O15 1.985304 1_554
Ni1 O13 1.985304 1_445
Ni1 O18 2.025984 1_545
Ni1 O3 2.025984 1_455
Ni1 O17 2.025984 1_454
Ni1 O14 2.025984 1_544
Ni2 O1 2.005314 1_565
Ni2 O18 2.040221 1_555
Ni2 O23 2.045068 1_565
Ni2 O9 2.070606 1_555
Ni2 O2 2.073868 1_565
Ni2 O12 2.201385 1_554
Ni3 O21 1.976526 1_555
Ni3 O20 2.005314 1_545
Ni3 O17 2.040221 1_555
Ni3 O12 2.121337 1_545
Ni3 O4 2.125169 1_545
Ni3 O2 2.200954 1_556
Ni4 O4 1.983994 1_554
Ni4 O16 2.052784 1_555
Ni4 O6 2.079550 1_554
Ni4 O9 2.083882 1_555
Ni4 O12 2.254659 1_554
Ni4 O8 2.361488 1_555
Ni5 O0 1.983994 1_554
Ni5 O23 2.052784 1_555
Ni5 O21 2.079550 1_554
Ni5 O5 2.083882 1_555
Ni5 O19 2.254659 1_554
Ni5 O2 2.361488 1_555
Ni6 O6 1.976526 1_555
Ni6 O7 2.005314 1_455
Ni6 O14 2.040221 1_555
Ni6 O19 2.121337 1_455
Ni6 O0 2.125169 1_455
Ni6 O8 2.200954 1_556
O0 P2 1.571806 1_556
O1 P0 1.502571 1_545
O2 P3 1.614813 1_555
O3 P3 1.539404 1_555
O4 P2 1.571806 1_556
O5 P3 1.511358 1_555
O6 P0 1.588940 1_555
O7 P1 1.502571 1_655
O8 P1 1.614813 1_555
O9 P1 1.511358 1_555
O10 P4 1.502571 1_455
O11 P5 1.442867 1_555
O12 P0 1.583398 1_555
O13 P2 1.525524 1_555
O14 P0 1.539404 1_555
O15 P5 1.525524 1_555
O16 P5 1.599183 1_554
O17 P4 1.539404 1_555
O18 P1 1.539404 1_555
O19 P4 1.583398 1_555
O20 P3 1.502571 1_565
O21 P4 1.588940 1_555
O22 P2 1.442867 1_555
O23 P5 1.599183 1_554
