# generated using pymatgen
data_Al2NiPt
_symmetry_space_group_name_H-M   'P 1'
_cell_length_a   2.99899900
_cell_length_b   2.99899900
_cell_length_c   5.98324100
_cell_angle_alpha   90.00000000
_cell_angle_beta   90.00000000
_cell_angle_gamma   90.00000000
_symmetry_Int_Tables_number   1
_chemical_formula_structural   Al2NiPt
_chemical_formula_sum   'Al2 Ni1 Pt1'
_cell_volume   53.81323965
_cell_formula_units_Z   1
loop_
 _symmetry_equiv_pos_site_id
 _symmetry_equiv_pos_as_xyz
  1  'x, y, z'
loop_
 _atom_site_type_symbol
 _atom_site_label
 _atom_site_symmetry_multiplicity
 _atom_site_fract_x
 _atom_site_fract_y
 _atom_site_fract_z
 _atom_site_occupancy
  Al  Al0  1  0.50000000  0.50000000  0.23015700  1
  Al  Al1  1  0.50000000  0.50000000  0.76984300  1
  Ni  Ni0  1  0.00000000  0.00000000  0.00000000  1
  Pt  Pt0  1  0.00000000  0.00000000  0.50000000  1
loop_
_geom_bond_atom_site_label_1
_geom_bond_atom_site_label_2
_geom_bond_distance
_geom_bond_site_symmetry_2
Al0 Ni0 2.528509 1_555
Al0 Ni0 2.528509 1_565
Al0 Ni0 2.528509 1_665
Al0 Ni0 2.528509 1_655
Al0 Pt0 2.665281 1_665
Al0 Pt0 2.665281 1_655
Al0 Pt0 2.665281 1_555
Al0 Pt0 2.665281 1_565
Al1 Ni0 2.528509 1_656
Al1 Ni0 2.528509 1_666
Al1 Ni0 2.528509 1_566
Al1 Ni0 2.528509 1_556
Al1 Pt0 2.665281 1_665
Al1 Pt0 2.665281 1_655
Al1 Pt0 2.665281 1_555
Al1 Pt0 2.665281 1_565
