# generated using pymatgen
data_V4Fe2O13
_symmetry_space_group_name_H-M   'P 1'
_cell_length_a   9.56080100
_cell_length_b   8.59668700
_cell_length_c   14.89908958
_cell_angle_alpha   76.15214115
_cell_angle_beta   90.00000000
_cell_angle_gamma   90.00000000
_symmetry_Int_Tables_number   1
_chemical_formula_structural   V4Fe2O13
_chemical_formula_sum   'V16 Fe8 O52'
_cell_volume   1188.98163112
_cell_formula_units_Z   4
loop_
 _symmetry_equiv_pos_site_id
 _symmetry_equiv_pos_as_xyz
  1  'x, y, z'
loop_
 _atom_site_type_symbol
 _atom_site_label
 _atom_site_symmetry_multiplicity
 _atom_site_fract_x
 _atom_site_fract_y
 _atom_site_fract_z
 _atom_site_occupancy
  V  V0  1  0.75910500  0.48648200  0.42602900  1
  V  V1  1  0.25910500  0.51351800  0.07397100  1
  V  V2  1  0.24089500  0.51351800  0.57397100  1
  V  V3  1  0.74089500  0.48648200  0.92602900  1
  V  V4  1  0.74688100  0.87761500  0.42608400  1
  V  V5  1  0.24688100  0.12238500  0.07391600  1
  V  V6  1  0.25311900  0.12238500  0.57391600  1
  V  V7  1  0.75311900  0.87761500  0.92608400  1
  V  V8  1  0.77917200  0.28115700  0.65739800  1
  V  V9  1  0.27917200  0.71884300  0.84260200  1
  V  V10  1  0.22082800  0.71884300  0.34260200  1
  V  V11  1  0.72082800  0.28115700  0.15739800  1
  V  V12  1  0.70249100  0.79097300  0.66024600  1
  V  V13  1  0.20249100  0.20902700  0.83975400  1
  V  V14  1  0.29750900  0.20902700  0.33975400  1
  V  V15  1  0.79750900  0.79097300  0.16024600  1
  Fe  Fe0  1  0.50009000  0.05605000  0.77025000  1
  Fe  Fe1  1  0.00009000  0.94395000  0.72975000  1
  Fe  Fe2  1  0.49991000  0.94395000  0.22975000  1
  Fe  Fe3  1  0.99991000  0.05605000  0.27025000  1
  Fe  Fe4  1  0.50169900  0.43854900  0.75387000  1
  Fe  Fe5  1  0.00169900  0.56145100  0.74613000  1
  Fe  Fe6  1  0.49830100  0.56145100  0.24613000  1
  Fe  Fe7  1  0.99830100  0.43854900  0.25387000  1
  O  O0  1  0.68800300  0.89048700  0.53894500  1
  O  O1  1  0.18800300  0.10951300  0.96105500  1
  O  O2  1  0.31199700  0.10951300  0.46105500  1
  O  O3  1  0.81199700  0.89048700  0.03894500  1
  O  O4  1  0.81591000  0.67788100  0.44040800  1
  O  O5  1  0.31591000  0.32211900  0.05959200  1
  O  O6  1  0.18409000  0.32211900  0.55959200  1
  O  O7  1  0.68409000  0.67788100  0.94040800  1
  O  O8  1  0.73170200  0.35787400  0.53752700  1
  O  O9  1  0.23170200  0.64212600  0.96247300  1
  O  O10  1  0.26829800  0.64212600  0.46247300  1
  O  O11  1  0.76829800  0.35787400  0.03752700  1
  O  O12  1  0.61853500  0.25560700  0.71916300  1
  O  O13  1  0.11853500  0.74439300  0.78083700  1
  O  O14  1  0.38146500  0.74439300  0.28083700  1
  O  O15  1  0.88146500  0.25560700  0.21916300  1
  O  O16  1  0.38189900  0.23554000  0.80609400  1
  O  O17  1  0.88189900  0.76446000  0.69390600  1
  O  O18  1  0.61810100  0.76446000  0.19390600  1
  O  O19  1  0.11810100  0.23554000  0.30609400  1
  O  O20  1  0.61508800  0.41081500  0.86855600  1
  O  O21  1  0.11508800  0.58918500  0.63144400  1
  O  O22  1  0.38491200  0.58918500  0.13144400  1
  O  O23  1  0.88491200  0.41081500  0.36855600  1
  O  O24  1  0.39024800  0.48421700  0.63657700  1
  O  O25  1  0.89024800  0.51578300  0.86342300  1
  O  O26  1  0.60975200  0.51578300  0.36342300  1
  O  O27  1  0.10975200  0.48421700  0.13657700  1
  O  O28  1  0.35680100  0.90014700  0.83266800  1
  O  O29  1  0.85680100  0.09985300  0.66733200  1
  O  O30  1  0.64319900  0.09985300  0.16733200  1
  O  O31  1  0.14319900  0.90014700  0.33266800  1
  O  O32  1  0.38872900  0.09362200  0.64902400  1
  O  O33  1  0.88872900  0.90637800  0.85097600  1
  O  O34  1  0.61127100  0.90637800  0.35097600  1
  O  O35  1  0.11127100  0.09362200  0.14902400  1
  O  O36  1  0.63409000  0.60353800  0.68071200  1
  O  O37  1  0.13409000  0.39646200  0.81928800  1
  O  O38  1  0.36591000  0.39646200  0.31928800  1
  O  O39  1  0.86591000  0.60353800  0.18071200  1
  O  O40  1  0.62031200  0.00703500  0.88594000  1
  O  O41  1  0.12031200  0.99296500  0.61406000  1
  O  O42  1  0.37968800  0.99296500  0.11406000  1
  O  O43  1  0.87968800  0.00703500  0.38594000  1
  O  O44  1  0.38753400  0.59364400  0.80363400  1
  O  O45  1  0.88753400  0.40635600  0.69636600  1
  O  O46  1  0.61246600  0.40635600  0.19636600  1
  O  O47  1  0.11246600  0.59364400  0.30363400  1
  O  O48  1  0.61377000  0.89602600  0.72493100  1
  O  O49  1  0.11377000  0.10397400  0.77506900  1
  O  O50  1  0.38623000  0.10397400  0.27506900  1
  O  O51  1  0.88623000  0.89602600  0.22493100  1
loop_
_geom_bond_atom_site_label_1
_geom_bond_atom_site_label_2
_geom_bond_distance
_geom_bond_site_symmetry_2
Fe0 O28 1.985262 1_545
Fe0 O48 1.993572 1_545
Fe0 O40 2.030295 1_555
Fe0 O12 2.044437 1_555
Fe0 O32 2.054473 1_555
Fe0 O16 2.082659 1_555
Fe1 O29 1.985262 1_465
Fe1 O49 1.993572 1_565
Fe1 O41 2.030295 1_555
Fe1 O13 2.044437 1_555
Fe1 O33 2.054473 1_455
Fe1 O17 2.082659 1_455
Fe2 O30 1.985262 1_565
Fe2 O50 1.993572 1_565
Fe2 O42 2.030295 1_555
Fe2 O14 2.044437 1_555
Fe2 O34 2.054473 1_555
Fe2 O18 2.082659 1_555
Fe3 O31 1.985262 1_645
Fe3 O51 1.993572 1_545
Fe3 O43 2.030295 1_555
Fe3 O15 2.044437 1_555
Fe3 O35 2.054473 1_655
Fe3 O19 2.082659 1_655
Fe4 O20 1.989169 1_555
Fe4 O44 1.998007 1_555
Fe4 O24 2.003770 1_555
Fe4 O36 2.015421 1_555
Fe4 O16 2.076787 1_555
Fe4 O12 2.092331 1_555
Fe5 O21 1.989169 1_555
Fe5 O45 1.998007 1_455
Fe5 O25 2.003770 1_455
Fe5 O37 2.015421 1_555
Fe5 O17 2.076787 1_455
Fe5 O13 2.092331 1_555
Fe6 O22 1.989169 1_555
Fe6 O46 1.998007 1_555
Fe6 O26 2.003770 1_555
Fe6 O38 2.015421 1_555
Fe6 O18 2.076787 1_555
Fe6 O14 2.092331 1_555
Fe7 O23 1.989169 1_555
Fe7 O47 1.998007 1_655
Fe7 O27 2.003770 1_655
Fe7 O39 2.015421 1_555
Fe7 O19 2.076787 1_655
Fe7 O15 2.092331 1_555
O0 V4 1.801590 1_555
O0 V12 1.810301 1_555
O1 V5 1.801590 1_556
O1 V13 1.810301 1_555
O2 V6 1.801590 1_555
O2 V14 1.810301 1_555
O3 V7 1.801590 1_554
O3 V15 1.810301 1_555
O4 V0 1.793579 1_555
O4 V4 1.803874 1_555
O5 V1 1.793579 1_555
O5 V5 1.803874 1_555
O6 V2 1.793579 1_555
O6 V6 1.803874 1_555
O7 V3 1.793579 1_555
O7 V7 1.803874 1_555
O8 V0 1.780860 1_555
O8 V8 1.807426 1_555
O9 V1 1.780860 1_556
O9 V9 1.807426 1_555
O10 V2 1.780860 1_555
O10 V10 1.807426 1_555
O11 V3 1.780860 1_554
O11 V11 1.807426 1_555
O12 V8 1.776815 1_555
O13 V9 1.776815 1_555
O14 V10 1.776815 1_555
O15 V11 1.776815 1_555
O16 V13 1.786320 1_555
O17 V12 1.786320 1_555
O18 V15 1.786320 1_555
O19 V14 1.786320 1_555
O20 V3 1.694040 1_555
O21 V2 1.694040 1_555
O22 V1 1.694040 1_555
O23 V0 1.694040 1_555
O24 V2 1.691165 1_555
O25 V3 1.691165 1_555
O26 V0 1.691165 1_555
O27 V1 1.691165 1_555
O28 V9 1.700473 1_555
O29 V8 1.700473 1_555
O30 V11 1.700473 1_555
O31 V10 1.700473 1_555
O32 V6 1.691732 1_555
O33 V7 1.691732 1_555
O34 V4 1.691732 1_555
O35 V5 1.691732 1_555
O36 V12 1.697590 1_555
O37 V13 1.697590 1_555
O38 V14 1.697590 1_555
O39 V15 1.697590 1_555
O40 V7 1.699787 1_545
O41 V6 1.699787 1_565
O42 V5 1.699787 1_565
O43 V4 1.699787 1_545
O44 V9 1.693510 1_555
O45 V8 1.693510 1_555
O46 V11 1.693510 1_555
O47 V10 1.693510 1_555
O48 V12 1.697223 1_555
O49 V13 1.697223 1_555
O50 V14 1.697223 1_555
O51 V15 1.697223 1_555
