# generated using pymatgen
data_Zn2As2O9
_symmetry_space_group_name_H-M   'P 1'
_cell_length_a   14.38027700
_cell_length_b   6.55870000
_cell_length_c   9.68189430
_cell_angle_alpha   53.45650426
_cell_angle_beta   90.00000000
_cell_angle_gamma   90.00000000
_symmetry_Int_Tables_number   1
_chemical_formula_structural   Zn2As2O9
_chemical_formula_sum   'Zn8 As8 O36'
_cell_volume   733.63480182
_cell_formula_units_Z   4
loop_
 _symmetry_equiv_pos_site_id
 _symmetry_equiv_pos_as_xyz
  1  'x, y, z'
loop_
 _atom_site_type_symbol
 _atom_site_label
 _atom_site_symmetry_multiplicity
 _atom_site_fract_x
 _atom_site_fract_y
 _atom_site_fract_z
 _atom_site_occupancy
  Zn  Zn0  1  0.73929800  0.71919500  0.85373700  1
  Zn  Zn1  1  0.76070200  0.71919500  0.35373700  1
  Zn  Zn2  1  0.26070200  0.28080500  0.14626300  1
  Zn  Zn3  1  0.23929800  0.28080500  0.64626300  1
  Zn  Zn4  1  0.88363100  0.19302500  0.57553100  1
  Zn  Zn5  1  0.61636900  0.19302500  0.07553100  1
  Zn  Zn6  1  0.11636900  0.80697500  0.42446900  1
  Zn  Zn7  1  0.38363100  0.80697500  0.92446900  1
  As  As0  1  0.82439400  0.11122400  0.95446700  1
  As  As1  1  0.67560600  0.11122400  0.45446700  1
  As  As2  1  0.17560600  0.88877600  0.04553300  1
  As  As3  1  0.32439400  0.88877600  0.54553300  1
  As  As4  1  0.92543600  0.60850200  0.66296400  1
  As  As5  1  0.57456400  0.60850200  0.16296400  1
  As  As6  1  0.07456400  0.39149800  0.33703600  1
  As  As7  1  0.42543600  0.39149800  0.83703600  1
  O  O0  1  0.79860500  0.04134400  0.81342500  1
  O  O1  1  0.70139500  0.04134400  0.31342500  1
  O  O2  1  0.20139500  0.95865600  0.18657500  1
  O  O3  1  0.29860500  0.95865600  0.68657500  1
  O  O4  1  0.84882800  0.85881300  0.15642600  1
  O  O5  1  0.65117200  0.85881300  0.65642600  1
  O  O6  1  0.15117200  0.14118700  0.84357400  1
  O  O7  1  0.34882800  0.14118700  0.34357400  1
  O  O8  1  0.73863100  0.31389900  0.93467500  1
  O  O9  1  0.76136900  0.31389900  0.43467500  1
  O  O10  1  0.26136900  0.68610100  0.06532500  1
  O  O11  1  0.23863100  0.68610100  0.56532500  1
  O  O12  1  0.92704200  0.30316200  0.87064100  1
  O  O13  1  0.57295800  0.30316200  0.37064100  1
  O  O14  1  0.07295800  0.69683800  0.12935900  1
  O  O15  1  0.42704200  0.69683800  0.62935900  1
  O  O16  1  0.03544100  0.71279200  0.62436500  1
  O  O17  1  0.46455900  0.71279200  0.12436500  1
  O  O18  1  0.96455900  0.28720800  0.37563500  1
  O  O19  1  0.53544100  0.28720800  0.87563500  1
  O  O20  1  0.87636500  0.55289200  0.52613600  1
  O  O21  1  0.62363500  0.55289200  0.02613600  1
  O  O22  1  0.12363500  0.44710800  0.47386400  1
  O  O23  1  0.37636500  0.44710800  0.97386400  1
  O  O24  1  0.85397100  0.80396500  0.67944100  1
  O  O25  1  0.64602900  0.80396500  0.17944100  1
  O  O26  1  0.14602900  0.19603500  0.32055900  1
  O  O27  1  0.35397100  0.19603500  0.82055900  1
  O  O28  1  0.82262700  0.46699700  0.05885900  1
  O  O29  1  0.67737300  0.46699700  0.55885900  1
  O  O30  1  0.17737300  0.53300300  0.94114100  1
  O  O31  1  0.32262700  0.53300300  0.44114100  1
  O  O32  1  0.98098900  0.98223700  0.76562400  1
  O  O33  1  0.51901100  0.98223700  0.26562400  1
  O  O34  1  0.01901100  0.01776300  0.23437600  1
  O  O35  1  0.48098900  0.01776300  0.73437600  1
loop_
_geom_bond_atom_site_label_1
_geom_bond_atom_site_label_2
_geom_bond_distance
_geom_bond_site_symmetry_2
As0 O4 1.683028 1_546
As0 O0 1.719781 1_555
As0 O8 1.738216 1_555
As0 O12 1.790425 1_555
As1 O5 1.683028 1_545
As1 O1 1.719781 1_555
As1 O9 1.738216 1_555
As1 O13 1.790425 1_555
As2 O6 1.683028 1_564
As2 O2 1.719781 1_555
As2 O10 1.738216 1_555
As2 O14 1.790425 1_555
As3 O7 1.683028 1_565
As3 O3 1.719781 1_555
As3 O11 1.738216 1_555
As3 O15 1.790425 1_555
As4 O16 1.674972 1_655
As4 O20 1.720857 1_555
As4 O24 1.722968 1_555
As4 O12 1.805200 1_555
As5 O17 1.674972 1_555
As5 O21 1.720857 1_555
As5 O25 1.722968 1_555
As5 O13 1.805200 1_555
As6 O18 1.674972 1_455
As6 O22 1.720857 1_555
As6 O26 1.722968 1_555
As6 O14 1.805200 1_555
As7 O19 1.674972 1_555
As7 O23 1.720857 1_555
As7 O27 1.722968 1_555
As7 O15 1.805200 1_555
O0 Zn0 2.088515 1_545
O0 Zn4 2.249668 1_555
O1 Zn1 2.088515 1_545
O1 Zn5 2.249668 1_555
O2 Zn2 2.088515 1_565
O2 Zn6 2.249668 1_555
O3 Zn3 2.088515 1_565
O3 Zn7 2.249668 1_555
O4 Zn1 2.002679 1_555
O5 Zn0 2.002679 1_555
O6 Zn3 2.002679 1_555
O7 Zn2 2.002679 1_555
O8 Zn5 2.071700 1_556
O8 Zn0 2.280269 1_555
O9 Zn4 2.071700 1_555
O9 Zn1 2.280269 1_555
O10 Zn7 2.071700 1_554
O10 Zn2 2.280269 1_555
O11 Zn6 2.071700 1_555
O11 Zn3 2.280269 1_555
O16 Zn6 2.014422 1_555
O17 Zn7 2.014422 1_554
O18 Zn4 2.014422 1_555
O19 Zn5 2.014422 1_556
O20 Zn4 2.113350 1_555
O20 Zn1 2.138720 1_555
O21 Zn5 2.113350 1_555
O21 Zn0 2.138720 1_554
O22 Zn6 2.113350 1_555
O22 Zn3 2.138720 1_555
O23 Zn7 2.113350 1_555
O23 Zn2 2.138720 1_556
O24 Zn4 2.155974 1_565
O24 Zn0 2.181472 1_555
O25 Zn5 2.155974 1_565
O25 Zn1 2.181472 1_555
O26 Zn6 2.155974 1_545
O26 Zn2 2.181472 1_555
O27 Zn7 2.155974 1_545
O27 Zn3 2.181472 1_555
O28 Zn0 2.050375 1_554
O29 Zn1 2.050375 1_555
O30 Zn2 2.050375 1_556
O31 Zn3 2.050375 1_555
O32 Zn4 2.056359 1_565
O33 Zn5 2.056359 1_565
O34 Zn6 2.056359 1_545
O35 Zn7 2.056359 1_545
