# generated using pymatgen
data_MgCoMo2O7
_symmetry_space_group_name_H-M   'P 1'
_cell_length_a   15.51196900
_cell_length_b   6.97452300
_cell_length_c   11.50789348
_cell_angle_alpha   75.78024844
_cell_angle_beta   90.00000000
_cell_angle_gamma   90.00000000
_symmetry_Int_Tables_number   1
_chemical_formula_structural   MgCoMo2O7
_chemical_formula_sum   'Mg8 Co8 Mo16 O56'
_cell_volume   1206.87611741
_cell_formula_units_Z   8
loop_
 _symmetry_equiv_pos_site_id
 _symmetry_equiv_pos_as_xyz
  1  'x, y, z'
loop_
 _atom_site_type_symbol
 _atom_site_label
 _atom_site_symmetry_multiplicity
 _atom_site_fract_x
 _atom_site_fract_y
 _atom_site_fract_z
 _atom_site_occupancy
  Mg  Mg0  1  0.53003500  0.97358900  0.74723900  1
  Mg  Mg1  1  0.86141800  0.69240700  0.97500600  1
  Mg  Mg2  1  0.36141800  0.30759300  0.52499400  1
  Mg  Mg3  1  0.13858200  0.30759300  0.02499400  1
  Mg  Mg4  1  0.63858200  0.69240700  0.47500600  1
  Mg  Mg5  1  0.96996500  0.97358900  0.24723900  1
  Mg  Mg6  1  0.46996500  0.02641100  0.25276100  1
  Mg  Mg7  1  0.03003500  0.02641100  0.75276100  1
  Co  Co0  1  0.62462100  0.32978300  0.09138200  1
  Co  Co1  1  0.12462100  0.67021700  0.40861800  1
  Co  Co2  1  0.37537900  0.67021700  0.90861800  1
  Co  Co3  1  0.87537900  0.32978300  0.59138200  1
  Co  Co4  1  0.75012000  0.02447400  0.24351300  1
  Co  Co5  1  0.25012000  0.97552600  0.25648700  1
  Co  Co6  1  0.24988000  0.97552600  0.75648700  1
  Co  Co7  1  0.74988000  0.02447400  0.74351300  1
  Mo  Mo0  1  0.89452500  0.17800100  0.98068900  1
  Mo  Mo1  1  0.03373800  0.54759700  0.70864700  1
  Mo  Mo2  1  0.46626200  0.54759700  0.20864700  1
  Mo  Mo3  1  0.96626200  0.45240300  0.29135300  1
  Mo  Mo4  1  0.73087400  0.50527200  0.78736400  1
  Mo  Mo5  1  0.23087400  0.49472800  0.71263600  1
  Mo  Mo6  1  0.26912600  0.49472800  0.21263600  1
  Mo  Mo7  1  0.76912600  0.50527200  0.28736400  1
  Mo  Mo8  1  0.53373800  0.45240300  0.79135300  1
  Mo  Mo9  1  0.14290700  0.14884000  0.48034800  1
  Mo  Mo10  1  0.64290700  0.85116000  0.01965200  1
  Mo  Mo11  1  0.85709300  0.85116000  0.51965200  1
  Mo  Mo12  1  0.39452500  0.82199900  0.51931100  1
  Mo  Mo13  1  0.60547500  0.17800100  0.48068900  1
  Mo  Mo14  1  0.10547500  0.82199900  0.01931100  1
  Mo  Mo15  1  0.35709300  0.14884000  0.98034800  1
  O  O0  1  0.00780100  0.21969600  0.97816700  1
  O  O1  1  0.50780100  0.78030400  0.52183300  1
  O  O2  1  0.99219900  0.78030400  0.02183300  1
  O  O3  1  0.49219900  0.21969600  0.47816700  1
  O  O4  1  0.86215200  0.01077100  0.89290700  1
  O  O5  1  0.36215200  0.98922900  0.60709300  1
  O  O6  1  0.13784800  0.98922900  0.10709300  1
  O  O7  1  0.63784800  0.01077100  0.39290700  1
  O  O8  1  0.86379500  0.04702200  0.13156300  1
  O  O9  1  0.36379500  0.95297800  0.36843700  1
  O  O10  1  0.13620500  0.95297800  0.86843700  1
  O  O11  1  0.63620500  0.04702200  0.63156300  1
  O  O12  1  0.26205100  0.29173100  0.95840400  1
  O  O13  1  0.76205100  0.70826900  0.54159600  1
  O  O14  1  0.73794900  0.70826900  0.04159600  1
  O  O15  1  0.23794900  0.29173100  0.45840400  1
  O  O16  1  0.36666500  0.02388800  0.13780400  1
  O  O17  1  0.86666500  0.97611200  0.36219600  1
  O  O18  1  0.63333500  0.97611200  0.86219600  1
  O  O19  1  0.13333500  0.02388800  0.63780400  1
  O  O20  1  0.34844900  0.96050600  0.89789700  1
  O  O21  1  0.47591200  0.70596200  0.80077300  1
  O  O22  1  0.84844900  0.03949400  0.60210300  1
  O  O23  1  0.15155100  0.96050600  0.39789700  1
  O  O24  1  0.49217500  0.24832400  0.72426800  1
  O  O25  1  0.99217500  0.75167600  0.77573200  1
  O  O26  1  0.50782500  0.75167600  0.27573200  1
  O  O27  1  0.00782500  0.24832400  0.22426800  1
  O  O28  1  0.44708900  0.31435600  0.94021500  1
  O  O29  1  0.94708900  0.68564400  0.55978500  1
  O  O30  1  0.55291100  0.68564400  0.05978500  1
  O  O31  1  0.05291100  0.31435600  0.44021500  1
  O  O32  1  0.87201900  0.57464400  0.17365500  1
  O  O33  1  0.37201900  0.42535600  0.32634500  1
  O  O34  1  0.12798100  0.42535600  0.82634500  1
  O  O35  1  0.62798100  0.57464400  0.67365500  1
  O  O36  1  0.72066800  0.30978300  0.20579000  1
  O  O37  1  0.22066800  0.69021700  0.29421000  1
  O  O38  1  0.27933200  0.69021700  0.79421000  1
  O  O39  1  0.77933200  0.30978300  0.70579000  1
  O  O40  1  0.66251700  0.41233300  0.43596300  1
  O  O41  1  0.16251700  0.58766700  0.06403700  1
  O  O42  1  0.33748300  0.58766700  0.56403700  1
  O  O43  1  0.83748300  0.41233300  0.93596300  1
  O  O44  1  0.71618800  0.74582200  0.29993500  1
  O  O45  1  0.21618800  0.25417800  0.20006500  1
  O  O46  1  0.28381200  0.25417800  0.70006500  1
  O  O47  1  0.78381200  0.74582200  0.79993500  1
  O  O48  1  0.86528200  0.41792000  0.40837800  1
  O  O49  1  0.36528200  0.58208000  0.09162200  1
  O  O50  1  0.13471800  0.58208000  0.59162200  1
  O  O51  1  0.63471800  0.41792000  0.90837800  1
  O  O52  1  0.02408800  0.70596200  0.30077300  1
  O  O53  1  0.52408800  0.29403800  0.19922700  1
  O  O54  1  0.97591200  0.29403800  0.69922700  1
  O  O55  1  0.65155100  0.03949400  0.10210300  1
loop_
_geom_bond_atom_site_label_1
_geom_bond_atom_site_label_2
_geom_bond_distance
_geom_bond_site_symmetry_2
Mg0 O24 1.958966 1_565
Mg0 O21 2.000883 1_555
Mg0 O18 2.080742 1_555
Mg0 O11 2.100409 1_565
Mg1 O14 2.075884 1_556
Mg1 O43 2.141636 1_555
Mg1 O4 2.189169 1_565
Mg1 O2 2.223514 1_556
Mg1 O32 2.237218 1_556
Mg1 O47 2.297443 1_555
Mg2 O15 2.075884 1_555
Mg2 O42 2.141636 1_555
Mg2 O5 2.189169 1_545
Mg2 O3 2.223514 1_555
Mg2 O33 2.237218 1_555
Mg2 O46 2.297443 1_555
Mg3 O12 2.075884 1_554
Mg3 O41 2.141636 1_555
Mg3 O6 2.189169 1_545
Mg3 O0 2.223514 1_554
Mg3 O34 2.237218 1_554
Mg3 O45 2.297443 1_555
Mg4 O13 2.075884 1_555
Mg4 O40 2.141636 1_555
Mg4 O7 2.189169 1_565
Mg4 O1 2.223514 1_555
Mg4 O35 2.237218 1_555
Mg4 O44 2.297443 1_555
Mg5 O27 1.958966 1_665
Mg5 O52 2.000883 1_655
Mg5 O17 2.080742 1_555
Mg5 O8 2.100409 1_565
Mg6 O26 1.958966 1_545
Mg6 O53 2.000883 1_555
Mg6 O16 2.080742 1_555
Mg6 O9 2.100409 1_545
Mg7 O25 1.958966 1_445
Mg7 O54 2.000883 1_455
Mg7 O19 2.080742 1_555
Mg7 O10 2.100409 1_545
Co0 O53 1.970363 1_555
Co0 O36 1.970379 1_555
Co0 O55 2.041109 1_555
Co0 O51 2.049779 1_554
Co0 O30 2.662015 1_555
Co1 O52 1.970363 1_555
Co1 O37 1.970379 1_555
Co1 O23 2.041109 1_555
Co1 O50 2.049779 1_555
Co1 O31 2.662015 1_555
Co2 O21 1.970363 1_555
Co2 O38 1.970379 1_555
Co2 O20 2.041109 1_555
Co2 O49 2.049779 1_556
Co2 O28 2.662015 1_555
Co3 O54 1.970363 1_555
Co3 O39 1.970379 1_555
Co3 O22 2.041109 1_555
Co3 O48 2.049779 1_555
Co3 O29 2.662015 1_555
Co4 O44 1.963605 1_545
Co4 O36 1.983044 1_555
Co4 O8 2.166620 1_555
Co4 O55 2.216589 1_555
Co4 O17 2.240787 1_545
Co4 O7 2.432514 1_555
Co5 O45 1.963605 1_565
Co5 O37 1.983044 1_555
Co5 O9 2.166620 1_555
Co5 O23 2.216589 1_555
Co5 O16 2.240787 1_565
Co5 O6 2.432514 1_555
Co6 O46 1.963605 1_565
Co6 O38 1.983044 1_555
Co6 O10 2.166620 1_555
Co6 O20 2.216589 1_555
Co6 O19 2.240787 1_565
Co6 O5 2.432514 1_555
Co7 O47 1.963605 1_545
Co7 O39 1.983044 1_555
Co7 O11 2.166620 1_555
Co7 O22 2.216589 1_555
Co7 O18 2.240787 1_545
Co7 O4 2.432514 1_555
Mo0 O0 1.780107 1_655
Mo0 O4 1.792168 1_555
Mo0 O8 1.815780 1_556
Mo0 O43 1.818156 1_555
Mo1 O25 1.891412 1_455
Mo1 O54 2.009468 1_455
Mo1 O34 2.032547 1_555
Mo1 O50 2.041068 1_555
Mo1 O29 2.204078 1_455
Mo2 O26 1.891412 1_555
Mo2 O53 2.009468 1_555
Mo2 O33 2.032547 1_555
Mo2 O49 2.041068 1_555
Mo2 O30 2.204078 1_555
Mo3 O27 1.891412 1_655
Mo3 O52 2.009468 1_655
Mo3 O32 2.032547 1_555
Mo3 O48 2.041068 1_555
Mo3 O31 2.204078 1_655
Mo4 O47 1.905057 1_555
Mo4 O39 1.983443 1_555
Mo4 O51 2.029411 1_555
Mo4 O35 2.045192 1_555
Mo4 O43 2.352591 1_555
Mo5 O46 1.905057 1_555
Mo5 O38 1.983443 1_555
Mo5 O50 2.029411 1_555
Mo5 O34 2.045192 1_555
Mo5 O42 2.352591 1_555
Mo6 O45 1.905057 1_555
Mo6 O37 1.983443 1_555
Mo6 O49 2.029411 1_555
Mo6 O33 2.045192 1_555
Mo6 O41 2.352591 1_555
Mo7 O44 1.905057 1_555
Mo7 O36 1.983443 1_555
Mo7 O48 2.029411 1_555
Mo7 O32 2.045192 1_555
Mo7 O40 2.352591 1_555
Mo8 O24 1.891412 1_555
Mo8 O21 2.009468 1_555
Mo8 O35 2.032547 1_555
Mo8 O51 2.041068 1_555
Mo8 O28 2.204078 1_555
Mo9 O15 1.762629 1_555
Mo9 O31 1.798015 1_555
Mo9 O23 1.804428 1_545
Mo9 O19 1.813568 1_555
Mo10 O14 1.762629 1_555
Mo10 O30 1.798015 1_555
Mo10 O55 1.804428 1_565
Mo10 O18 1.813568 1_554
Mo11 O13 1.762629 1_555
Mo11 O29 1.798015 1_555
Mo11 O22 1.804428 1_565
Mo11 O17 1.813568 1_555
Mo12 O1 1.780107 1_555
Mo12 O5 1.792168 1_555
Mo12 O9 1.815780 1_555
Mo12 O42 1.818156 1_555
Mo13 O3 1.780107 1_555
Mo13 O7 1.792168 1_555
Mo13 O11 1.815780 1_555
Mo13 O40 1.818156 1_555
Mo14 O2 1.780107 1_455
Mo14 O6 1.792168 1_555
Mo14 O10 1.815780 1_554
Mo14 O41 1.818156 1_555
Mo15 O12 1.762629 1_555
Mo15 O28 1.798015 1_555
Mo15 O20 1.804428 1_545
Mo15 O16 1.813568 1_556
