# generated using pymatgen
data_NaAu(S2O7)2
_symmetry_space_group_name_H-M   'P 1'
_cell_length_a   5.53336600
_cell_length_b   12.31866800
_cell_length_c   10.17446783
_cell_angle_alpha   90.00000000
_cell_angle_beta   113.09263904
_cell_angle_gamma   90.00000000
_symmetry_Int_Tables_number   1
_chemical_formula_structural   NaAu(S2O7)2
_chemical_formula_sum   'Na2 Au2 S8 O28'
_cell_volume   637.95816580
_cell_formula_units_Z   2
loop_
 _symmetry_equiv_pos_site_id
 _symmetry_equiv_pos_as_xyz
  1  'x, y, z'
loop_
 _atom_site_type_symbol
 _atom_site_label
 _atom_site_symmetry_multiplicity
 _atom_site_fract_x
 _atom_site_fract_y
 _atom_site_fract_z
 _atom_site_occupancy
  Na  Na0  1  0.50000000  0.50000000  0.00000000  1
  Na  Na1  1  0.50000000  0.00000000  0.50000000  1
  Au  Au0  1  0.00000000  0.00000000  0.00000000  1
  Au  Au1  1  0.00000000  0.50000000  0.50000000  1
  S  S0  1  0.21679000  0.03779800  0.76174700  1
  S  S1  1  0.21679000  0.46220200  0.26174700  1
  S  S2  1  0.78321000  0.96220200  0.23825300  1
  S  S3  1  0.78321000  0.53779800  0.73825300  1
  S  S4  1  0.14451100  0.22504600  0.91620400  1
  S  S5  1  0.14451100  0.27495400  0.41620400  1
  S  S6  1  0.85548900  0.77495400  0.08379600  1
  S  S7  1  0.85548900  0.72504600  0.58379600  1
  O  O0  1  0.43324000  0.00467200  0.72691800  1
  O  O1  1  0.43324000  0.49532800  0.22691800  1
  O  O2  1  0.56676000  0.99532800  0.27308200  1
  O  O3  1  0.56676000  0.50467200  0.77308200  1
  O  O4  1  0.31470000  0.15598100  0.83886600  1
  O  O5  1  0.31470000  0.34401900  0.33886600  1
  O  O6  1  0.68530000  0.84401900  0.16113400  1
  O  O7  1  0.68530000  0.65598100  0.66113400  1
  O  O8  1  0.88123000  0.23801900  0.81356700  1
  O  O9  1  0.88123000  0.26198100  0.31356700  1
  O  O10  1  0.11877000  0.76198100  0.18643300  1
  O  O11  1  0.11877000  0.73801900  0.68643300  1
  O  O12  1  0.21921700  0.96461600  0.88482000  1
  O  O13  1  0.21921700  0.53538400  0.38482000  1
  O  O14  1  0.78078300  0.03538400  0.11518000  1
  O  O15  1  0.78078300  0.46461600  0.61518000  1
  O  O16  1  0.96065300  0.04965900  0.64979600  1
  O  O17  1  0.96065300  0.45034100  0.14979600  1
  O  O18  1  0.03934700  0.95034100  0.35020400  1
  O  O19  1  0.03934700  0.54965900  0.85020400  1
  O  O20  1  0.16717900  0.15053800  0.04231000  1
  O  O21  1  0.16717900  0.34946200  0.54231000  1
  O  O22  1  0.83282100  0.84946200  0.95769000  1
  O  O23  1  0.83282100  0.65053800  0.45769000  1
  O  O24  1  0.31118000  0.31665800  0.97463800  1
  O  O25  1  0.31118000  0.18334200  0.47463800  1
  O  O26  1  0.68882000  0.68334200  0.02536200  1
  O  O27  1  0.68882000  0.81665800  0.52536200  1
loop_
_geom_bond_atom_site_label_1
_geom_bond_atom_site_label_2
_geom_bond_distance
_geom_bond_site_symmetry_2
Na0 O26 2.459203 1_555
Na0 O24 2.459203 1_554
Na0 O3 2.477745 1_554
Na0 O1 2.477745 1_555
Na0 O19 2.479285 1_554
Na0 O17 2.479285 1_555
Na1 O27 2.459203 1_545
Na1 O25 2.459203 1_555
Na1 O0 2.477745 1_555
Na1 O2 2.477745 1_545
Na1 O16 2.479285 1_555
Na1 O18 2.479285 1_545
Au0 O12 2.037109 1_544
Au0 O14 2.037109 1_455
Au0 O22 2.041464 1_444
Au0 O20 2.041464 1_555
Au1 O15 2.037109 1_455
Au1 O13 2.037109 1_555
Au1 O23 2.041464 1_455
Au1 O21 2.041464 1_555
O0 S0 1.435098 1_555
O1 S1 1.435098 1_555
O2 S2 1.435098 1_555
O3 S3 1.435098 1_555
O4 S0 1.641719 1_555
O4 S4 1.676640 1_555
O5 S1 1.641719 1_555
O5 S5 1.676640 1_555
O6 S2 1.641719 1_555
O6 S6 1.676640 1_555
O7 S3 1.641719 1_555
O7 S7 1.676640 1_555
O8 S4 1.430040 1_655
O9 S5 1.430040 1_655
O10 S6 1.430040 1_455
O11 S7 1.430040 1_455
O12 S0 1.538737 1_565
O13 S1 1.538737 1_555
O14 S2 1.538737 1_545
O15 S3 1.538737 1_555
O16 S0 1.435666 1_655
O17 S1 1.435666 1_655
O18 S2 1.435666 1_455
O19 S3 1.435666 1_455
O20 S4 1.542130 1_554
O21 S5 1.542130 1_555
O22 S6 1.542130 1_556
O23 S7 1.542130 1_555
O24 S4 1.430904 1_555
O25 S5 1.430904 1_555
O26 S6 1.430904 1_555
O27 S7 1.430904 1_555
