# generated using pymatgen
data_LiBeB
_symmetry_space_group_name_H-M   'P 1'
_cell_length_a   3.70384387
_cell_length_b   2.99866847
_cell_length_c   5.74522609
_cell_angle_alpha   90.00000000
_cell_angle_beta   98.56630942
_cell_angle_gamma   90.00000000
_symmetry_Int_Tables_number   1
_chemical_formula_structural   LiBeB
_chemical_formula_sum   'Li2 Be2 B2'
_cell_volume   63.09807242
_cell_formula_units_Z   2
loop_
 _symmetry_equiv_pos_site_id
 _symmetry_equiv_pos_as_xyz
  1  'x, y, z'
loop_
 _atom_site_type_symbol
 _atom_site_label
 _atom_site_symmetry_multiplicity
 _atom_site_fract_x
 _atom_site_fract_y
 _atom_site_fract_z
 _atom_site_occupancy
  Li  Li0  1  0.22002543  0.25000000  0.33549533  1
  Li  Li1  1  0.77997457  0.75000000  0.66450467  1
  Be  Be0  1  0.35212102  0.25000000  0.88900660  1
  Be  Be1  1  0.64787898  0.75000000  0.11099340  1
  B  B0  1  0.88241580  0.25000000  0.97333047  1
  B  B1  1  0.11758420  0.75000000  0.02666953  1
loop_
_geom_bond_atom_site_label_1
_geom_bond_atom_site_label_2
_geom_bond_distance
_geom_bond_site_symmetry_2
B0 B1 1.738126 1_656
B0 B1 1.738126 1_646
B0 Be0 1.874138 1_655
B0 Be0 1.951674 1_555
B0 Be1 1.957761 1_556
B0 Be1 1.957761 1_546
B0 Li0 2.262281 1_656
B0 Li1 2.310728 1_555
B0 Li1 2.310728 1_545
B1 Be1 1.874138 1_455
B1 Be1 1.951674 1_555
B1 Be0 1.957761 1_554
B1 Be0 1.957761 1_564
B1 Li1 2.262281 1_454
B1 Li0 2.310728 1_565
B1 Li0 2.310728 1_555
