# generated using pymatgen
data_AlAgO3
_symmetry_space_group_name_H-M   'P 1'
_cell_length_a   6.04946803
_cell_length_b   6.04946803
_cell_length_c   10.84698400
_cell_angle_alpha   90.00000000
_cell_angle_beta   90.00000000
_cell_angle_gamma   120.00000031
_symmetry_Int_Tables_number   1
_chemical_formula_structural   AlAgO3
_chemical_formula_sum   'Al6 Ag6 O18'
_cell_volume   343.77477104
_cell_formula_units_Z   6
loop_
 _symmetry_equiv_pos_site_id
 _symmetry_equiv_pos_as_xyz
  1  'x, y, z'
loop_
 _atom_site_type_symbol
 _atom_site_label
 _atom_site_symmetry_multiplicity
 _atom_site_fract_x
 _atom_site_fract_y
 _atom_site_fract_z
 _atom_site_occupancy
  Al  Al0  1  0.66666700  0.33333300  0.24283300  1
  Al  Al1  1  0.33333300  0.66666700  0.74283300  1
  Al  Al2  1  0.66666700  0.33333300  0.74283300  1
  Al  Al3  1  0.33333300  0.66666700  0.24283300  1
  Al  Al4  1  0.00000000  0.00000000  0.74429700  1
  Al  Al5  1  0.00000000  0.00000000  0.24429700  1
  Ag  Ag0  1  0.67420500  0.00000000  0.49713200  1
  Ag  Ag1  1  0.67420500  0.67420500  0.99713200  1
  Ag  Ag2  1  0.00000000  0.32579500  0.99713200  1
  Ag  Ag3  1  0.00000000  0.67420500  0.49713200  1
  Ag  Ag4  1  0.32579500  0.32579500  0.49713200  1
  Ag  Ag5  1  0.32579500  0.00000000  0.99713200  1
  O  O0  1  0.66666700  0.33333300  0.06749600  1
  O  O1  1  0.33333300  0.66666700  0.56749600  1
  O  O2  1  0.66666700  0.33333300  0.56749600  1
  O  O3  1  0.33333300  0.66666700  0.06749600  1
  O  O4  1  0.00000000  0.00000000  0.91069900  1
  O  O5  1  0.00000000  0.00000000  0.41069900  1
  O  O6  1  0.44499300  0.00000000  0.82134700  1
  O  O7  1  0.44499300  0.44499300  0.32134700  1
  O  O8  1  0.00000000  0.55500700  0.32134700  1
  O  O9  1  0.00000000  0.44499300  0.82134700  1
  O  O10  1  0.55500700  0.55500700  0.82134700  1
  O  O11  1  0.55500700  0.00000000  0.32134700  1
  O  O12  1  0.27157300  0.00000000  0.18130300  1
  O  O13  1  0.27157300  0.27157300  0.68130300  1
  O  O14  1  0.00000000  0.72842700  0.68130300  1
  O  O15  1  0.00000000  0.27157300  0.18130300  1
  O  O16  1  0.72842700  0.72842700  0.18130300  1
  O  O17  1  0.72842700  0.00000000  0.68130300  1
loop_
_geom_bond_atom_site_label_1
_geom_bond_atom_site_label_2
_geom_bond_distance
_geom_bond_site_symmetry_2
Al0 O0 1.901878 1_555
Al0 O11 1.971214 1_555
Al0 O8 1.971215 1_655
Al0 O7 1.971219 1_555
Al0 O15 2.324789 1_655
Al0 O12 2.324792 1_555
Al0 O16 2.324794 1_555
Al1 O1 1.901878 1_555
Al1 O6 1.971214 1_565
Al1 O9 1.971215 1_555
Al1 O10 1.971219 1_555
Al1 O14 2.324789 1_555
Al1 O17 2.324792 1_565
Al1 O13 2.324794 1_555
Al2 O2 1.901878 1_555
Al2 O9 1.971214 1_655
Al2 O6 1.971215 1_555
Al2 O10 1.971219 1_555
Al2 O17 2.324789 1_555
Al2 O14 2.324792 1_655
Al2 O13 2.324794 1_555
Al3 O3 1.901878 1_555
Al3 O8 1.971214 1_555
Al3 O11 1.971215 1_565
Al3 O7 1.971219 1_555
Al3 O12 2.324789 1_565
Al3 O15 2.324792 1_555
Al3 O16 2.324794 1_555
Al4 O13 1.779303 1_555
Al4 O17 1.779303 1_455
Al4 O14 1.779303 1_545
Al4 O4 1.804960 1_555
Al5 O16 1.779303 1_445
Al5 O15 1.779303 1_555
Al5 O12 1.779303 1_555
Al5 O5 1.804960 1_555
Ag0 O17 2.024450 1_555
Ag0 O11 2.038531 1_555
Ag0 O2 2.177794 1_555
Ag0 O1 2.177797 1_545
Ag0 O5 2.182515 1_655
Ag1 O16 2.024450 1_556
Ag1 O10 2.038531 1_555
Ag1 O3 2.177799 1_556
Ag1 O0 2.177799 1_556
Ag1 O4 2.182515 1_665
Ag2 O15 2.024450 1_556
Ag2 O9 2.038531 1_555
Ag2 O0 2.177794 1_456
Ag2 O3 2.177797 1_556
Ag2 O4 2.182515 1_555
Ag3 O14 2.024450 1_555
Ag3 O8 2.038531 1_555
Ag3 O1 2.177794 1_555
Ag3 O2 2.177797 1_455
Ag3 O5 2.182515 1_565
Ag4 O13 2.024450 1_555
Ag4 O7 2.038531 1_555
Ag4 O2 2.177799 1_555
Ag4 O1 2.177799 1_555
Ag4 O5 2.182515 1_555
Ag5 O12 2.024450 1_556
Ag5 O6 2.038531 1_555
Ag5 O3 2.177794 1_546
Ag5 O0 2.177797 1_556
Ag5 O4 2.182515 1_555
