# generated using pymatgen
data_Mg14CrCO16
_symmetry_space_group_name_H-M   'P 1'
_cell_length_a   8.49212571
_cell_length_b   8.49212571
_cell_length_c   4.29664522
_cell_angle_alpha   90.00000000
_cell_angle_beta   90.00000000
_cell_angle_gamma   90.00000000
_symmetry_Int_Tables_number   1
_chemical_formula_structural   Mg14CrCO16
_chemical_formula_sum   'Mg14 Cr1 C1 O16'
_cell_volume   309.85772204
_cell_formula_units_Z   1
loop_
 _symmetry_equiv_pos_site_id
 _symmetry_equiv_pos_as_xyz
  1  'x, y, z'
loop_
 _atom_site_type_symbol
 _atom_site_label
 _atom_site_symmetry_multiplicity
 _atom_site_fract_x
 _atom_site_fract_y
 _atom_site_fract_z
 _atom_site_occupancy
  Mg  Mg0  1  0.00000000  0.50000000  0.00000000  1
  Mg  Mg1  1  0.50000000  0.00000000  0.00000000  1
  Mg  Mg2  1  0.00000000  0.25175105  0.50000000  1
  Mg  Mg3  1  0.00000000  0.74824895  0.50000000  1
  Mg  Mg4  1  0.50000000  0.25526320  0.50000000  1
  Mg  Mg5  1  0.50000000  0.74473680  0.50000000  1
  Mg  Mg6  1  0.25175105  0.00000000  0.50000000  1
  Mg  Mg7  1  0.25526320  0.50000000  0.50000000  1
  Mg  Mg8  1  0.74824895  0.00000000  0.50000000  1
  Mg  Mg9  1  0.74473680  0.50000000  0.50000000  1
  Mg  Mg10  1  0.25441173  0.25441173  0.00000000  1
  Mg  Mg11  1  0.25441173  0.74558827  0.00000000  1
  Mg  Mg12  1  0.74558827  0.25441173  0.00000000  1
  Mg  Mg13  1  0.74558827  0.74558827  0.00000000  1
  Cr  Cr0  1  0.00000000  0.00000000  0.00000000  1
  C  C0  1  0.50000000  0.50000000  0.00000000  1
  O  O0  1  0.24904964  0.00000000  0.00000000  1
  O  O1  1  0.24481274  0.50000000  0.00000000  1
  O  O2  1  0.75095036  0.00000000  0.00000000  1
  O  O3  1  0.75518726  0.50000000  0.00000000  1
  O  O4  1  0.25019724  0.25019724  0.50000000  1
  O  O5  1  0.25019724  0.74980276  0.50000000  1
  O  O6  1  0.74980276  0.25019724  0.50000000  1
  O  O7  1  0.74980276  0.74980276  0.50000000  1
  O  O8  1  0.00000000  0.00000000  0.50000000  1
  O  O9  1  0.00000000  0.50000000  0.50000000  1
  O  O10  1  0.50000000  0.00000000  0.50000000  1
  O  O11  1  0.50000000  0.50000000  0.50000000  1
  O  O12  1  0.00000000  0.24904964  0.00000000  1
  O  O13  1  0.00000000  0.75095036  0.00000000  1
  O  O14  1  0.50000000  0.24481274  0.00000000  1
  O  O15  1  0.50000000  0.75518726  0.00000000  1
loop_
_geom_bond_atom_site_label_1
_geom_bond_atom_site_label_2
_geom_bond_distance
_geom_bond_site_symmetry_2
Mg0 O1 2.078981 1_555
Mg0 O3 2.078981 1_455
Mg0 O12 2.131102 1_555
Mg0 O13 2.131102 1_555
Mg0 O9 2.148323 1_554
Mg0 O9 2.148323 1_555
Mg1 O15 2.078981 1_545
Mg1 O14 2.078981 1_555
Mg1 O0 2.131102 1_555
Mg1 O2 2.131102 1_555
Mg1 O10 2.148323 1_555
Mg1 O10 2.148323 1_554
Mg2 O9 2.108161 1_555
Mg2 O4 2.124747 1_555
Mg2 O6 2.124747 1_455
Mg2 O8 2.137902 1_555
Mg2 O12 2.148445 1_555
Mg2 O12 2.148445 1_556
Mg3 O9 2.108161 1_555
Mg3 O7 2.124747 1_455
Mg3 O5 2.124747 1_555
Mg3 O8 2.137902 1_565
Mg3 O13 2.148445 1_556
Mg3 O13 2.148445 1_555
Mg4 O11 2.078336 1_555
Mg4 O4 2.121793 1_555
Mg4 O6 2.121793 1_555
Mg4 O14 2.150155 1_555
Mg4 O14 2.150155 1_556
Mg4 O10 2.167727 1_555
Mg5 O11 2.078336 1_555
Mg5 O7 2.121793 1_555
Mg5 O5 2.121793 1_555
Mg5 O15 2.150155 1_556
Mg5 O15 2.150155 1_555
Mg5 O10 2.167727 1_565
Mg6 O10 2.108161 1_555
Mg6 O4 2.124747 1_555
Mg6 O5 2.124747 1_545
Mg6 O8 2.137902 1_555
Mg6 O0 2.148445 1_555
Mg6 O0 2.148445 1_556
Mg7 O11 2.078336 1_555
Mg7 O4 2.121793 1_555
Mg7 O5 2.121793 1_555
Mg7 O1 2.150155 1_555
Mg7 O1 2.150155 1_556
Mg7 O9 2.167727 1_555
Mg8 O10 2.108161 1_555
Mg8 O6 2.124747 1_555
Mg8 O7 2.124747 1_545
Mg8 O8 2.137902 1_655
Mg8 O2 2.148445 1_555
Mg8 O2 2.148445 1_556
Mg9 O11 2.078336 1_555
Mg9 O6 2.121793 1_555
Mg9 O7 2.121793 1_555
Mg9 O3 2.150155 1_556
Mg9 O3 2.150155 1_555
Mg9 O9 2.167727 1_655
Mg10 O1 2.087159 1_555
Mg10 O14 2.087159 1_555
Mg10 O4 2.148919 1_554
Mg10 O4 2.148919 1_555
Mg10 O0 2.160976 1_555
Mg10 O12 2.160976 1_555
Mg11 O15 2.087159 1_555
Mg11 O1 2.087159 1_555
Mg11 O5 2.148919 1_554
Mg11 O5 2.148919 1_555
Mg11 O0 2.160976 1_565
Mg11 O13 2.160976 1_555
Mg12 O3 2.087159 1_555
Mg12 O14 2.087159 1_555
Mg12 O6 2.148919 1_555
Mg12 O6 2.148919 1_554
Mg12 O12 2.160976 1_655
Mg12 O2 2.160976 1_555
Mg13 O3 2.087159 1_555
Mg13 O15 2.087159 1_555
Mg13 O7 2.148919 1_555
Mg13 O7 2.148919 1_554
Mg13 O2 2.160976 1_565
Mg13 O13 2.160976 1_655
Cr0 O13 2.114961 1_545
Cr0 O2 2.114961 1_455
Cr0 O12 2.114961 1_555
Cr0 O0 2.114961 1_555
Cr0 O8 2.148323 1_555
Cr0 O8 2.148323 1_554
C0 O11 2.148323 1_554
C0 O11 2.148323 1_555
C0 O14 2.167082 1_555
C0 O15 2.167082 1_555
C0 O3 2.167082 1_555
C0 O1 2.167082 1_555
