# generated using pymatgen
data_KLaMg6
_symmetry_space_group_name_H-M   'P 1'
_cell_length_a   5.42101900
_cell_length_b   7.05765800
_cell_length_c   12.03469400
_cell_angle_alpha   90.00000000
_cell_angle_beta   90.00000000
_cell_angle_gamma   90.00000000
_symmetry_Int_Tables_number   1
_chemical_formula_structural   KLaMg6
_chemical_formula_sum   'K2 La2 Mg12'
_cell_volume   460.44375933
_cell_formula_units_Z   2
loop_
 _symmetry_equiv_pos_site_id
 _symmetry_equiv_pos_as_xyz
  1  'x, y, z'
loop_
 _atom_site_type_symbol
 _atom_site_label
 _atom_site_symmetry_multiplicity
 _atom_site_fract_x
 _atom_site_fract_y
 _atom_site_fract_z
 _atom_site_occupancy
  K  K0  1  0.50000000  0.00000000  0.35005100  1
  K  K1  1  0.50000000  0.50000000  0.85005100  1
  La  La0  1  0.00000000  0.00000000  0.15944900  1
  La  La1  1  0.00000000  0.50000000  0.65944900  1
  Mg  Mg0  1  0.50000000  0.24832600  0.58682900  1
  Mg  Mg1  1  0.50000000  0.75167400  0.58682900  1
  Mg  Mg2  1  0.50000000  0.00000000  0.83436900  1
  Mg  Mg3  1  0.00000000  0.27492100  0.41704400  1
  Mg  Mg4  1  0.00000000  0.72507900  0.41704400  1
  Mg  Mg5  1  0.00000000  0.00000000  0.64840000  1
  Mg  Mg6  1  0.50000000  0.74832600  0.08682900  1
  Mg  Mg7  1  0.50000000  0.25167400  0.08682900  1
  Mg  Mg8  1  0.50000000  0.50000000  0.33436900  1
  Mg  Mg9  1  0.00000000  0.77492100  0.91704400  1
  Mg  Mg10  1  0.00000000  0.22507900  0.91704400  1
  Mg  Mg11  1  0.00000000  0.50000000  0.14840000  1
loop_
_geom_bond_atom_site_label_1
_geom_bond_atom_site_label_2
_geom_bond_distance
_geom_bond_site_symmetry_2
K0 Mg1 3.345377 1_545
K0 Mg0 3.345377 1_555
K0 Mg3 3.429525 1_655
K0 Mg3 3.429525 1_555
K0 Mg4 3.429525 1_545
K0 Mg4 3.429525 1_645
K0 Mg8 3.533872 1_555
K0 Mg8 3.533872 1_545
K0 La0 3.550852 1_655
K0 La0 3.550852 1_555
K0 Mg7 3.631793 1_555
K0 Mg6 3.631793 1_545
K1 Mg6 3.345377 1_556
K1 Mg7 3.345377 1_556
K1 Mg10 3.429525 1_555
K1 Mg10 3.429525 1_655
K1 Mg9 3.429525 1_655
K1 Mg9 3.429525 1_555
K1 Mg2 3.533872 1_555
K1 Mg2 3.533872 1_565
K1 La1 3.550852 1_555
K1 La1 3.550852 1_655
K1 Mg1 3.631793 1_555
K1 Mg0 3.631793 1_555
La0 Mg9 3.321731 1_544
La0 Mg10 3.321731 1_554
La0 Mg7 3.356435 1_455
La0 Mg7 3.356435 1_555
La0 Mg6 3.356435 1_445
La0 Mg6 3.356435 1_545
La0 Mg11 3.531333 1_545
La0 Mg11 3.531333 1_555
La0 Mg3 3.657217 1_555
La0 Mg4 3.657217 1_545
La1 Mg4 3.321731 1_555
La1 Mg3 3.321731 1_555
La1 Mg1 3.356435 1_555
La1 Mg0 3.356435 1_455
La1 Mg0 3.356435 1_555
La1 Mg1 3.356435 1_455
La1 Mg5 3.531333 1_565
La1 Mg5 3.531333 1_555
La1 Mg10 3.657217 1_555
La1 Mg9 3.657217 1_555
Mg0 Mg5 3.311726 1_555
Mg0 Mg5 3.311726 1_655
Mg0 Mg3 3.399590 1_655
Mg0 Mg3 3.399590 1_555
Mg0 Mg2 3.456364 1_555
Mg0 Mg1 3.505200 1_545
Mg0 Mg8 3.519393 1_555
Mg0 Mg1 3.552458 1_555
Mg1 Mg5 3.311726 1_565
Mg1 Mg5 3.311726 1_665
Mg1 Mg4 3.399590 1_655
Mg1 Mg4 3.399590 1_555
Mg1 Mg2 3.456364 1_565
Mg1 Mg8 3.519393 1_555
Mg2 Mg9 3.295490 1_545
Mg2 Mg9 3.295490 1_645
Mg2 Mg5 3.515091 1_555
Mg2 Mg5 3.515091 1_655
Mg2 Mg7 3.519393 1_556
Mg2 Mg6 3.519393 1_546
Mg3 Mg4 3.177061 1_555
Mg3 Mg8 3.295490 1_455
Mg3 Mg8 3.295490 1_555
Mg3 Mg5 3.393682 1_555
Mg4 Mg8 3.295490 1_555
Mg4 Mg8 3.295490 1_455
Mg4 Mg5 3.393682 1_565
Mg6 Mg9 3.399590 1_554
Mg6 Mg9 3.399590 1_654
Mg6 Mg8 3.456364 1_555
Mg6 Mg7 3.505200 1_555
Mg6 Mg7 3.552458 1_565
Mg7 Mg8 3.456364 1_555
Mg10 Mg9 3.177061 1_545
Mg10 Mg2 3.295490 1_455
Mg10 Mg2 3.295490 1_555
Mg10 Mg11 3.393682 1_556
Mg10 Mg7 3.399590 1_456
Mg10 Mg7 3.399590 1_556
Mg11 Mg6 3.311726 1_455
Mg11 Mg6 3.311726 1_555
Mg11 Mg7 3.311726 1_455
Mg11 Mg7 3.311726 1_555
Mg11 Mg9 3.393682 1_554
Mg11 Mg8 3.515091 1_555
Mg11 Mg8 3.515091 1_455
