# generated using pymatgen
data_HoMnGa
_symmetry_space_group_name_H-M   'P 1'
_cell_length_a   3.67343300
_cell_length_b   7.42607646
_cell_length_c   7.42607646
_cell_angle_alpha   120.00000412
_cell_angle_beta   90.00000000
_cell_angle_gamma   90.00000000
_symmetry_Int_Tables_number   1
_chemical_formula_structural   HoMnGa
_chemical_formula_sum   'Ho3 Mn3 Ga3'
_cell_volume   175.43715260
_cell_formula_units_Z   3
loop_
 _symmetry_equiv_pos_site_id
 _symmetry_equiv_pos_as_xyz
  1  'x, y, z'
loop_
 _atom_site_type_symbol
 _atom_site_label
 _atom_site_symmetry_multiplicity
 _atom_site_fract_x
 _atom_site_fract_y
 _atom_site_fract_z
 _atom_site_occupancy
  Ho  Ho0  1  0.50000000  0.39845600  0.00000000  1
  Ho  Ho1  1  0.50000000  0.00000000  0.39845600  1
  Ho  Ho2  1  0.50000000  0.60154400  0.60154400  1
  Mn  Mn0  1  0.00000000  0.66666700  0.33333300  1
  Mn  Mn1  1  0.00000000  0.33333300  0.66666700  1
  Mn  Mn2  1  0.50000000  0.00000000  0.00000000  1
  Ga  Ga0  1  0.00000000  0.27363200  0.27363200  1
  Ga  Ga1  1  0.00000000  0.00000000  0.72636800  1
  Ga  Ga2  1  0.00000000  0.72636800  0.00000000  1
loop_
_geom_bond_atom_site_label_1
_geom_bond_atom_site_label_2
_geom_bond_distance
_geom_bond_site_symmetry_2
Ho0 Mn1 2.921933 1_554
Ho0 Mn1 2.921933 1_654
Ho0 Mn0 2.921934 1_655
Ho0 Mn0 2.921934 1_555
Ho0 Mn2 2.958965 1_555
Ho1 Mn0 2.921933 1_545
Ho1 Mn0 2.921933 1_645
Ho1 Mn1 2.921934 1_555
Ho1 Mn1 2.921934 1_655
Ho1 Mn2 2.958965 1_555
Ho2 Mn0 2.921938 1_655
Ho2 Mn1 2.921938 1_655
Ho2 Mn0 2.921938 1_555
Ho2 Mn1 2.921938 1_555
Ho2 Mn2 2.958965 1_566
Ga0 Mn0 2.724228 1_555
Ga0 Mn1 2.724228 1_555
Ga0 Mn2 2.739088 1_455
Ga0 Mn2 2.739088 1_555
Ga0 Ho2 3.050121 1_555
Ga0 Ho2 3.050121 1_455
Ga0 Ho0 3.200847 1_555
Ga0 Ho1 3.200847 1_555
Ga0 Ho1 3.200847 1_455
Ga0 Ho0 3.200847 1_455
Ga1 Mn1 2.724221 1_555
Ga1 Mn0 2.724225 1_545
Ga1 Mn2 2.739088 1_556
Ga1 Mn2 2.739088 1_456
Ga1 Ho1 3.050121 1_555
Ga1 Ho1 3.050121 1_455
Ga1 Ho0 3.200847 1_556
Ga1 Ho0 3.200847 1_456
Ga1 Ho2 3.200847 1_545
Ga1 Ho2 3.200847 1_445
Ga2 Mn0 2.724221 1_555
Ga2 Mn1 2.724225 1_554
Ga2 Mn2 2.739088 1_465
Ga2 Mn2 2.739088 1_565
Ga2 Ho0 3.050121 1_555
Ga2 Ho0 3.050121 1_455
Ga2 Ho1 3.200847 1_565
Ga2 Ho1 3.200847 1_465
Ga2 Ho2 3.200847 1_454
Ga2 Ho2 3.200847 1_554
