# generated using pymatgen
data_CsGaNiF6
_symmetry_space_group_name_H-M   'P 1'
_cell_length_a   7.24940920
_cell_length_b   7.24940920
_cell_length_c   7.24940920
_cell_angle_alpha   120.28213300
_cell_angle_beta   119.67899926
_cell_angle_gamma   90.03445690
_symmetry_Int_Tables_number   1
_chemical_formula_structural   CsGaNiF6
_chemical_formula_sum   'Cs2 Ga2 Ni2 F12'
_cell_volume   269.46681274
_cell_formula_units_Z   2
loop_
 _symmetry_equiv_pos_site_id
 _symmetry_equiv_pos_as_xyz
  1  'x, y, z'
loop_
 _atom_site_type_symbol
 _atom_site_label
 _atom_site_symmetry_multiplicity
 _atom_site_fract_x
 _atom_site_fract_y
 _atom_site_fract_z
 _atom_site_occupancy
  Cs  Cs0  1  0.87042324  0.62042324  0.25000000  1
  Cs  Cs1  1  0.12957676  0.37957676  0.75000000  1
  Ga  Ga0  1  0.50000000  0.00000000  0.50000000  1
  Ga  Ga1  1  0.00000000  0.00000000  0.00000000  1
  Ni  Ni0  1  0.50000000  0.00000000  0.00000000  1
  Ni  Ni1  1  0.50000000  0.50000000  0.50000000  1
  F  F0  1  0.81187743  0.06187743  0.75000000  1
  F  F1  1  0.42398654  0.67398654  0.75000000  1
  F  F2  1  0.82794296  0.69043107  0.76344734  1
  F  F3  1  0.42698373  0.06449561  0.73655266  1
  F  F4  1  0.82794296  0.06449561  0.13751188  1
  F  F5  1  0.42698373  0.69043107  0.36248812  1
  F  F6  1  0.18812257  0.93812257  0.25000000  1
  F  F7  1  0.57601346  0.32601346  0.25000000  1
  F  F8  1  0.17205704  0.30956893  0.23655266  1
  F  F9  1  0.57301627  0.93550439  0.26344734  1
  F  F10  1  0.17205704  0.93550439  0.86248812  1
  F  F11  1  0.57301627  0.30956893  0.63751188  1
loop_
_geom_bond_atom_site_label_1
_geom_bond_atom_site_label_2
_geom_bond_distance
_geom_bond_site_symmetry_2
Cs0 F7 3.017444 1_555
Cs0 F8 3.140826 1_655
Cs0 F9 3.140827 1_555
Cs0 F11 3.140827 1_554
Cs0 F10 3.140827 1_655
Cs0 F6 3.256142 1_655
Cs1 F1 3.017444 1_555
Cs1 F2 3.140826 1_455
Cs1 F5 3.140827 1_556
Cs1 F3 3.140827 1_555
Cs1 F4 3.140827 1_455
Cs1 F0 3.256142 1_455
F0 Ga0 1.928404 1_555
F0 Ga1 1.928404 1_656
F1 Ni0 1.965604 1_566
F1 Ni1 1.965604 1_555
F2 Ga1 1.878865 1_666
F2 Ni1 2.011475 1_555
F3 Ga0 1.878865 1_555
F3 Ni0 2.011475 1_556
F4 Ga1 1.878865 1_655
F4 Ni0 2.011475 1_555
F5 Ga0 1.878865 1_565
F5 Ni1 2.011475 1_555
F6 Ga1 1.928404 1_565
F6 Ga0 1.928404 1_565
F7 Ni0 1.965604 1_555
F7 Ni1 1.965604 1_555
F8 Ga1 1.878865 1_555
F8 Ni1 2.011475 1_555
F9 Ga0 1.878865 1_565
F9 Ni0 2.011475 1_565
F10 Ga1 1.878865 1_566
F10 Ni0 2.011475 1_566
F11 Ga0 1.878865 1_555
F11 Ni1 2.011475 1_555
