# generated using pymatgen
data_ZnCoAs2O7
_symmetry_space_group_name_H-M   'P 1'
_cell_length_a   8.75716900
_cell_length_b   7.35130400
_cell_length_c   9.66434763
_cell_angle_alpha   65.90923846
_cell_angle_beta   90.00000000
_cell_angle_gamma   90.00000000
_symmetry_Int_Tables_number   1
_chemical_formula_structural   ZnCoAs2O7
_chemical_formula_sum   'Zn4 Co4 As8 O28'
_cell_volume   567.96799820
_cell_formula_units_Z   4
loop_
 _symmetry_equiv_pos_site_id
 _symmetry_equiv_pos_as_xyz
  1  'x, y, z'
loop_
 _atom_site_type_symbol
 _atom_site_label
 _atom_site_symmetry_multiplicity
 _atom_site_fract_x
 _atom_site_fract_y
 _atom_site_fract_z
 _atom_site_occupancy
  Zn  Zn0  1  0.08028200  0.71911500  0.88914900  1
  Zn  Zn1  1  0.58028200  0.28088500  0.61085100  1
  Zn  Zn2  1  0.91971800  0.28088500  0.11085100  1
  Zn  Zn3  1  0.41971800  0.71911500  0.38914900  1
  Co  Co0  1  0.94045200  0.18324000  0.68839200  1
  Co  Co1  1  0.44045200  0.81676000  0.81160800  1
  Co  Co2  1  0.05954800  0.81676000  0.31160800  1
  Co  Co3  1  0.55954800  0.18324000  0.18839200  1
  As  As0  1  0.76868400  0.56892000  0.75564700  1
  As  As1  1  0.26868400  0.43108000  0.74435300  1
  As  As2  1  0.23131600  0.43108000  0.24435300  1
  As  As3  1  0.73131600  0.56892000  0.25564700  1
  As  As4  1  0.72076500  0.98932300  0.95803000  1
  As  As5  1  0.22076500  0.01067700  0.54197000  1
  As  As6  1  0.27923500  0.01067700  0.04197000  1
  As  As7  1  0.77923500  0.98932300  0.45803000  1
  O  O0  1  0.72645400  0.14411000  0.05262900  1
  O  O1  1  0.22645400  0.85589000  0.44737100  1
  O  O2  1  0.27354600  0.85589000  0.94737100  1
  O  O3  1  0.77354600  0.14411000  0.55262900  1
  O  O4  1  0.59353300  0.63544600  0.78881600  1
  O  O5  1  0.09353300  0.36455400  0.71118400  1
  O  O6  1  0.40646700  0.36455400  0.21118400  1
  O  O7  1  0.90646700  0.63544600  0.28881600  1
  O  O8  1  0.90123100  0.53656900  0.89508100  1
  O  O9  1  0.40123100  0.46343100  0.60491900  1
  O  O10  1  0.09876900  0.46343100  0.10491900  1
  O  O11  1  0.59876900  0.53656900  0.39508100  1
  O  O12  1  0.84775200  0.75104400  0.58420400  1
  O  O13  1  0.34775200  0.24895600  0.91579600  1
  O  O14  1  0.15224800  0.24895600  0.41579600  1
  O  O15  1  0.65224800  0.75104400  0.08420400  1
  O  O16  1  0.92220300  0.03914600  0.32690600  1
  O  O17  1  0.42220300  0.96085400  0.17309400  1
  O  O18  1  0.07779700  0.96085400  0.67309400  1
  O  O19  1  0.57779700  0.03914600  0.82690600  1
  O  O20  1  0.73725000  0.36437400  0.21310000  1
  O  O21  1  0.23725000  0.63562600  0.28690000  1
  O  O22  1  0.26275000  0.63562600  0.78690000  1
  O  O23  1  0.76275000  0.36437400  0.71310000  1
  O  O24  1  0.60376900  0.95984400  0.39116300  1
  O  O25  1  0.10376900  0.04015600  0.10883700  1
  O  O26  1  0.39623100  0.04015600  0.60883700  1
  O  O27  1  0.89623100  0.95984400  0.89116300  1
loop_
_geom_bond_atom_site_label_1
_geom_bond_atom_site_label_2
_geom_bond_distance
_geom_bond_site_symmetry_2
Co0 O5 1.965172 1_655
Co0 O27 2.014924 1_545
Co0 O3 2.061240 1_555
Co0 O18 2.082895 1_645
Co0 O23 2.123989 1_555
Co1 O4 1.965172 1_555
Co1 O26 2.014924 1_565
Co1 O2 2.061240 1_555
Co1 O19 2.082895 1_565
Co1 O22 2.123989 1_555
Co2 O7 1.965172 1_455
Co2 O25 2.014924 1_565
Co2 O1 2.061240 1_555
Co2 O16 2.082895 1_465
Co2 O21 2.123989 1_555
Co3 O6 1.965172 1_555
Co3 O24 2.014924 1_545
Co3 O0 2.061240 1_555
Co3 O17 2.082895 1_545
Co3 O20 2.123989 1_555
As0 O4 1.680040 1_555
As0 O23 1.713939 1_555
As0 O8 1.719914 1_555
As0 O12 1.790602 1_555
As1 O5 1.680040 1_555
As1 O22 1.713939 1_555
As1 O9 1.719914 1_555
As1 O13 1.790602 1_555
As2 O6 1.680040 1_555
As2 O21 1.713939 1_555
As2 O10 1.719914 1_555
As2 O14 1.790602 1_555
As3 O7 1.680040 1_555
As3 O20 1.713939 1_555
As3 O11 1.719914 1_555
As3 O15 1.790602 1_555
As4 O19 1.711315 1_565
As4 O27 1.714640 1_555
As4 O0 1.726952 1_566
As4 O15 1.780877 1_556
As5 O18 1.711315 1_545
As5 O26 1.714640 1_555
As5 O1 1.726952 1_545
As5 O14 1.780877 1_555
As6 O17 1.711315 1_545
As6 O25 1.714640 1_555
As6 O2 1.726952 1_544
As6 O13 1.780877 1_554
As7 O16 1.711315 1_565
As7 O24 1.714640 1_555
As7 O3 1.726952 1_565
As7 O12 1.780877 1_555
O0 Zn2 2.157272 1_555
O1 Zn3 2.157272 1_555
O2 Zn0 2.157272 1_555
O3 Zn1 2.157272 1_555
O8 Zn0 2.049360 1_655
O8 Zn2 2.169739 1_556
O9 Zn1 2.049360 1_555
O9 Zn3 2.169739 1_555
O10 Zn2 2.049360 1_455
O10 Zn0 2.169739 1_554
O11 Zn3 2.049360 1_555
O11 Zn1 2.169739 1_555
O16 Zn2 2.118769 1_555
O17 Zn3 2.118769 1_555
O18 Zn0 2.118769 1_555
O19 Zn1 2.118769 1_555
O20 Zn2 2.097996 1_555
O21 Zn3 2.097996 1_555
O22 Zn0 2.097996 1_555
O23 Zn1 2.097996 1_555
O24 Zn3 2.399589 1_555
O25 Zn2 2.399589 1_455
O26 Zn1 2.399589 1_555
O27 Zn0 2.399589 1_655
