# generated using pymatgen
data_BaYF5
_symmetry_space_group_name_H-M   'P 1'
_cell_length_a   7.69686300
_cell_length_b   11.04588900
_cell_length_c   15.40212404
_cell_angle_alpha   47.01896105
_cell_angle_beta   90.00000000
_cell_angle_gamma   90.00000000
_symmetry_Int_Tables_number   1
_chemical_formula_structural   BaYF5
_chemical_formula_sum   'Ba8 Y8 F40'
_cell_volume   957.98010557
_cell_formula_units_Z   8
loop_
 _symmetry_equiv_pos_site_id
 _symmetry_equiv_pos_as_xyz
  1  'x, y, z'
loop_
 _atom_site_type_symbol
 _atom_site_label
 _atom_site_symmetry_multiplicity
 _atom_site_fract_x
 _atom_site_fract_y
 _atom_site_fract_z
 _atom_site_occupancy
  Ba  Ba0  1  0.75090600  0.96507600  0.19660100  1
  Ba  Ba1  1  0.74936500  0.23544900  0.29724300  1
  Ba  Ba2  1  0.25090600  0.03492400  0.30339900  1
  Ba  Ba3  1  0.24936500  0.76455100  0.20275700  1
  Ba  Ba4  1  0.75063500  0.23544900  0.79724300  1
  Ba  Ba5  1  0.74909400  0.96507600  0.69660100  1
  Ba  Ba6  1  0.25063500  0.76455100  0.70275700  1
  Ba  Ba7  1  0.24909400  0.03492400  0.80339900  1
  Y  Y0  1  0.25486300  0.24118500  0.97511100  1
  Y  Y1  1  0.24665200  0.51853100  0.10016700  1
  Y  Y2  1  0.74665200  0.48146900  0.39983300  1
  Y  Y3  1  0.75486300  0.75881500  0.52488900  1
  Y  Y4  1  0.24513700  0.24118500  0.47511100  1
  Y  Y5  1  0.25334800  0.51853100  0.60016700  1
  Y  Y6  1  0.75334800  0.48146900  0.89983300  1
  Y  Y7  1  0.74513700  0.75881500  0.02488900  1
  F  F0  1  0.25519500  0.37335500  0.03562200  1
  F  F1  1  0.74957900  0.95147100  0.03122400  1
  F  F2  1  0.75136700  0.28371400  0.09554200  1
  F  F3  1  0.41698100  0.04176200  0.14110400  1
  F  F4  1  0.44549300  0.69526200  0.07411600  1
  F  F5  1  0.03648400  0.68444000  0.07651200  1
  F  F6  1  0.08542900  0.04259500  0.13915700  1
  F  F7  1  0.43842500  0.31954800  0.21143800  1
  F  F8  1  0.06029400  0.31389700  0.21107700  1
  F  F9  1  0.74042000  0.53801700  0.22004400  1
  F  F10  1  0.58542900  0.95740500  0.36084300  1
  F  F11  1  0.24042000  0.46198300  0.27995600  1
  F  F12  1  0.56029400  0.68610300  0.28892300  1
  F  F13  1  0.93842500  0.68045200  0.28856200  1
  F  F14  1  0.91698100  0.95823800  0.35889600  1
  F  F15  1  0.25136700  0.71628600  0.40445800  1
  F  F16  1  0.53648400  0.31556000  0.42348800  1
  F  F17  1  0.94549300  0.30473800  0.42588400  1
  F  F18  1  0.75519500  0.62664500  0.46437800  1
  F  F19  1  0.24957900  0.04852900  0.46877600  1
  F  F20  1  0.75042100  0.95147100  0.53122400  1
  F  F21  1  0.24480500  0.37335500  0.53562200  1
  F  F22  1  0.05450700  0.69526200  0.57411600  1
  F  F23  1  0.46351600  0.68444000  0.57651200  1
  F  F24  1  0.74863300  0.28371400  0.59554200  1
  F  F25  1  0.08301900  0.04176200  0.64110400  1
  F  F26  1  0.06157500  0.31954800  0.71143800  1
  F  F27  1  0.43970600  0.31389700  0.71107700  1
  F  F28  1  0.75958000  0.53801700  0.72004400  1
  F  F29  1  0.41457100  0.04259500  0.63915700  1
  F  F30  1  0.25958000  0.46198300  0.77995600  1
  F  F31  1  0.93970600  0.68610300  0.78892300  1
  F  F32  1  0.56157500  0.68045200  0.78856200  1
  F  F33  1  0.91457100  0.95740500  0.86084300  1
  F  F34  1  0.96351600  0.31556000  0.92348800  1
  F  F35  1  0.55450700  0.30473800  0.92588400  1
  F  F36  1  0.58301900  0.95823800  0.85889600  1
  F  F37  1  0.24863300  0.71628600  0.90445800  1
  F  F38  1  0.25042100  0.04852900  0.96877600  1
  F  F39  1  0.74480500  0.62664500  0.96437800  1
loop_
_geom_bond_atom_site_label_1
_geom_bond_atom_site_label_2
_geom_bond_distance
_geom_bond_site_symmetry_2
Ba0 F1 2.651911 1_555
Ba0 F3 2.658328 1_565
Ba0 F6 2.666925 1_665
Ba0 F2 2.709386 1_565
Ba0 F14 2.762362 1_555
Ba0 F12 2.774070 1_555
Ba0 F10 2.781433 1_555
Ba0 F13 2.811015 1_555
Ba1 F7 2.581330 1_555
Ba1 F8 2.582910 1_655
Ba1 F9 2.677672 1_555
Ba1 F20 2.722731 1_545
Ba1 F2 2.770791 1_555
Ba1 F10 2.807504 1_545
Ba1 F14 2.824459 1_545
Ba1 F17 2.976237 1_555
Ba1 F16 3.097536 1_555
Ba2 F19 2.651911 1_555
Ba2 F14 2.658328 1_445
Ba2 F10 2.666925 1_545
Ba2 F15 2.709386 1_545
Ba2 F3 2.762362 1_555
Ba2 F8 2.774070 1_555
Ba2 F6 2.781433 1_555
Ba2 F7 2.811015 1_555
Ba3 F13 2.581330 1_455
Ba3 F12 2.582910 1_555
Ba3 F11 2.677672 1_555
Ba3 F38 2.722731 1_564
Ba3 F15 2.770791 1_555
Ba3 F6 2.807504 1_565
Ba3 F3 2.824459 1_565
Ba3 F4 2.976237 1_555
Ba3 F5 3.097536 1_555
Ba4 F26 2.581330 1_655
Ba4 F27 2.582910 1_555
Ba4 F28 2.677672 1_555
Ba4 F1 2.722731 1_546
Ba4 F24 2.770791 1_555
Ba4 F33 2.807504 1_545
Ba4 F36 2.824459 1_545
Ba4 F35 2.976237 1_555
Ba4 F34 3.097536 1_555
Ba5 F20 2.651911 1_555
Ba5 F25 2.658328 1_665
Ba5 F29 2.666925 1_565
Ba5 F24 2.709386 1_565
Ba5 F36 2.762362 1_555
Ba5 F31 2.774070 1_555
Ba5 F33 2.781433 1_555
Ba5 F32 2.811015 1_555
Ba6 F32 2.581330 1_555
Ba6 F31 2.582910 1_455
Ba6 F30 2.677672 1_555
Ba6 F19 2.722731 1_565
Ba6 F37 2.770791 1_555
Ba6 F29 2.807504 1_565
Ba6 F25 2.824459 1_565
Ba6 F22 2.976237 1_555
Ba6 F23 3.097536 1_555
Ba7 F38 2.651911 1_555
Ba7 F36 2.658328 1_545
Ba7 F33 2.666925 1_445
Ba7 F37 2.709386 1_545
Ba7 F25 2.762362 1_555
Ba7 F27 2.774070 1_555
Ba7 F29 2.781433 1_555
Ba7 F26 2.811015 1_555
F0 Y0 2.203477 1_554
F0 Y1 2.395378 1_555
F1 Y7 2.196004 1_555
F2 Y6 2.209067 1_554
F3 Y0 2.294945 1_554
F4 Y1 2.290449 1_555
F4 Y7 2.379294 1_555
F5 Y1 2.279813 1_555
F5 Y7 2.333468 1_455
F6 Y0 2.310703 1_554
F7 Y1 2.193324 1_555
F8 Y1 2.195427 1_555
F9 Y7 2.233539 1_555
F9 Y2 2.387914 1_555
F10 Y3 2.310703 1_555
F11 Y4 2.233539 1_555
F11 Y1 2.387914 1_555
F12 Y2 2.195427 1_555
F13 Y2 2.193324 1_555
F14 Y3 2.294945 1_555
F15 Y5 2.209067 1_555
F16 Y2 2.279813 1_555
F16 Y4 2.333468 1_555
F17 Y2 2.290449 1_555
F17 Y4 2.379294 1_655
F18 Y3 2.203477 1_555
F18 Y2 2.395378 1_555
F19 Y4 2.196004 1_555
F20 Y3 2.196004 1_555
F21 Y4 2.203477 1_555
F21 Y5 2.395378 1_555
F22 Y5 2.290449 1_555
F22 Y3 2.379294 1_455
F23 Y5 2.279813 1_555
F23 Y3 2.333468 1_555
F24 Y2 2.209067 1_555
F25 Y4 2.294945 1_555
F26 Y5 2.193324 1_555
F27 Y5 2.195427 1_555
F28 Y3 2.233539 1_555
F28 Y6 2.387914 1_555
F29 Y4 2.310703 1_555
F30 Y0 2.233539 1_555
F30 Y5 2.387914 1_555
F31 Y6 2.195427 1_555
F32 Y6 2.193324 1_555
F33 Y7 2.310703 1_556
F34 Y6 2.279813 1_555
F34 Y0 2.333468 1_655
F35 Y6 2.290449 1_555
F35 Y0 2.379294 1_555
F36 Y7 2.294945 1_556
F37 Y1 2.209067 1_556
F38 Y0 2.196004 1_555
F39 Y7 2.203477 1_556
F39 Y6 2.395378 1_555
