# generated using pymatgen
data_ZnNiMoP2O9
_symmetry_space_group_name_H-M   'P 1'
_cell_length_a   6.43820400
_cell_length_b   7.61643900
_cell_length_c   14.34196700
_cell_angle_alpha   90.00000000
_cell_angle_beta   90.00000000
_cell_angle_gamma   90.00000000
_symmetry_Int_Tables_number   1
_chemical_formula_structural   ZnNiMoP2O9
_chemical_formula_sum   'Zn4 Ni4 Mo4 P8 O36'
_cell_volume   703.27539061
_cell_formula_units_Z   4
loop_
 _symmetry_equiv_pos_site_id
 _symmetry_equiv_pos_as_xyz
  1  'x, y, z'
loop_
 _atom_site_type_symbol
 _atom_site_label
 _atom_site_symmetry_multiplicity
 _atom_site_fract_x
 _atom_site_fract_y
 _atom_site_fract_z
 _atom_site_occupancy
  Zn  Zn0  1  0.25000000  0.43949900  0.78051800  1
  Zn  Zn1  1  0.25000000  0.06050100  0.28051800  1
  Zn  Zn2  1  0.75000000  0.56050100  0.21948200  1
  Zn  Zn3  1  0.75000000  0.93949900  0.71948200  1
  Ni  Ni0  1  0.00000000  0.50000000  0.00000000  1
  Ni  Ni1  1  0.00000000  0.00000000  0.50000000  1
  Ni  Ni2  1  0.50000000  0.00000000  0.50000000  1
  Ni  Ni3  1  0.50000000  0.50000000  0.00000000  1
  Mo  Mo0  1  0.25000000  0.85627200  0.88478500  1
  Mo  Mo1  1  0.75000000  0.14372800  0.11521500  1
  Mo  Mo2  1  0.75000000  0.35627200  0.61521500  1
  Mo  Mo3  1  0.25000000  0.64372800  0.38478500  1
  P  P0  1  0.75000000  0.84668100  0.92750700  1
  P  P1  1  0.25000000  0.15331900  0.07249300  1
  P  P2  1  0.25000000  0.34668100  0.57249300  1
  P  P3  1  0.75000000  0.65331900  0.42750700  1
  P  P4  1  0.25000000  0.87678200  0.69234600  1
  P  P5  1  0.75000000  0.12321800  0.30765400  1
  P  P6  1  0.75000000  0.37678200  0.80765400  1
  P  P7  1  0.25000000  0.62321800  0.19234600  1
  O  O0  1  0.54175300  0.11506900  0.36220100  1
  O  O1  1  0.04175300  0.88493100  0.63779900  1
  O  O2  1  0.45824700  0.61506900  0.13779900  1
  O  O3  1  0.95824700  0.38493100  0.86220100  1
  O  O4  1  0.45824700  0.88493100  0.63779900  1
  O  O5  1  0.95824700  0.11506900  0.36220100  1
  O  O6  1  0.54175300  0.38493100  0.86220100  1
  O  O7  1  0.04175300  0.61506900  0.13779900  1
  O  O8  1  0.75000000  0.83565500  0.47237900  1
  O  O9  1  0.25000000  0.16434500  0.52762100  1
  O  O10  1  0.25000000  0.33565500  0.02762100  1
  O  O11  1  0.75000000  0.66434500  0.97237900  1
  O  O12  1  0.25000000  0.63096800  0.94369500  1
  O  O13  1  0.75000000  0.36903200  0.05630500  1
  O  O14  1  0.75000000  0.13096800  0.55630500  1
  O  O15  1  0.25000000  0.86903200  0.44369500  1
  O  O16  1  0.25000000  0.70433100  0.75565700  1
  O  O17  1  0.75000000  0.29566900  0.24434300  1
  O  O18  1  0.75000000  0.20433100  0.74434300  1
  O  O19  1  0.25000000  0.79566900  0.25565700  1
  O  O20  1  0.93299900  0.62706400  0.35871600  1
  O  O21  1  0.43299900  0.37293600  0.64128400  1
  O  O22  1  0.06700100  0.12706400  0.14128400  1
  O  O23  1  0.56700100  0.87293600  0.85871600  1
  O  O24  1  0.06700100  0.37293600  0.64128400  1
  O  O25  1  0.56700100  0.62706400  0.35871600  1
  O  O26  1  0.93299900  0.87293600  0.85871600  1
  O  O27  1  0.43299900  0.12706400  0.14128400  1
  O  O28  1  0.25000000  0.47716400  0.26827600  1
  O  O29  1  0.75000000  0.52283600  0.73172400  1
  O  O30  1  0.75000000  0.97716400  0.23172400  1
  O  O31  1  0.25000000  0.02283600  0.76827600  1
  O  O32  1  0.25000000  0.48634000  0.49527500  1
  O  O33  1  0.75000000  0.51366000  0.50472500  1
  O  O34  1  0.75000000  0.98634000  0.00472500  1
  O  O35  1  0.25000000  0.01366000  0.99527500  1
loop_
_geom_bond_atom_site_label_1
_geom_bond_atom_site_label_2
_geom_bond_distance
_geom_bond_site_symmetry_2
Ni0 O12 2.058586 1_554
Ni0 O13 2.058586 1_455
Ni0 O10 2.077112 1_555
Ni0 O11 2.077112 1_454
Ni0 O7 2.178569 1_555
Ni0 O3 2.178569 1_454
Ni1 O14 2.058586 1_455
Ni1 O15 2.058586 1_545
Ni1 O9 2.077112 1_555
Ni1 O8 2.077112 1_445
Ni1 O5 2.178569 1_455
Ni1 O1 2.178569 1_545
Ni2 O14 2.058586 1_555
Ni2 O15 2.058586 1_545
Ni2 O9 2.077112 1_555
Ni2 O8 2.077112 1_545
Ni2 O0 2.178569 1_555
Ni2 O4 2.178569 1_545
Ni3 O12 2.058586 1_554
Ni3 O13 2.058586 1_555
Ni3 O11 2.077112 1_554
Ni3 O10 2.077112 1_555
Ni3 O2 2.178569 1_555
Ni3 O6 2.178569 1_554
Mo0 O12 1.912730 1_555
Mo0 O35 1.986974 1_565
Mo0 O23 2.078759 1_555
Mo0 O26 2.078759 1_455
Mo0 O31 2.097985 1_565
Mo0 O16 2.183791 1_555
Mo1 O13 1.912730 1_555
Mo1 O34 1.986974 1_545
Mo1 O22 2.078759 1_655
Mo1 O27 2.078759 1_555
Mo1 O30 2.097985 1_545
Mo1 O17 2.183791 1_555
Mo2 O14 1.912730 1_555
Mo2 O33 1.986974 1_555
Mo2 O24 2.078759 1_655
Mo2 O21 2.078759 1_555
Mo2 O29 2.097985 1_555
Mo2 O18 2.183791 1_555
Mo3 O15 1.912730 1_555
Mo3 O32 1.986974 1_555
Mo3 O25 2.078759 1_555
Mo3 O20 2.078759 1_455
Mo3 O28 2.097985 1_555
Mo3 O19 2.183791 1_555
O0 P5 1.553524 1_555
O0 Zn1 2.252419 1_555
O1 P4 1.553524 1_555
O1 Zn3 2.252419 1_455
O2 P7 1.553524 1_555
O2 Zn2 2.252419 1_555
O3 P6 1.553524 1_555
O3 Zn0 2.252419 1_655
O4 P4 1.553524 1_555
O4 Zn3 2.252419 1_555
O5 P5 1.553524 1_555
O5 Zn1 2.252419 1_655
O6 P6 1.553524 1_555
O6 Zn0 2.252419 1_555
O7 P7 1.553524 1_555
O7 Zn2 2.252419 1_455
O8 P3 1.530617 1_555
O9 P2 1.530617 1_555
O10 P1 1.530617 1_555
O11 P0 1.530617 1_555
O16 P4 1.596764 1_555
O16 Zn0 2.048348 1_555
O17 P5 1.596764 1_555
O17 Zn2 2.048348 1_555
O18 P6 1.596764 1_555
O18 Zn3 2.048348 1_545
O19 P7 1.596764 1_555
O19 Zn1 2.048348 1_565
O20 P3 1.549672 1_555
O20 Zn2 2.373333 1_555
O21 P2 1.549672 1_555
O21 Zn0 2.373333 1_555
O22 P1 1.549672 1_555
O22 Zn1 2.373333 1_555
O23 P0 1.549672 1_555
O23 Zn3 2.373333 1_555
O24 P2 1.549672 1_555
O24 Zn0 2.373333 1_555
O25 P3 1.549672 1_555
O25 Zn2 2.373333 1_555
O26 P0 1.549672 1_555
O26 Zn3 2.373333 1_555
O27 P1 1.549672 1_555
O27 Zn1 2.373333 1_555
O28 P7 1.556711 1_555
O29 P6 1.556711 1_555
O30 P5 1.556711 1_565
O31 P4 1.556711 1_545
O32 P2 1.535555 1_555
O33 P3 1.535555 1_555
O34 P0 1.535555 1_554
O35 P1 1.535555 1_556
