# generated using pymatgen
data_BaPd(IO3)4
_symmetry_space_group_name_H-M   'P 1'
_cell_length_a   6.01964050
_cell_length_b   7.51575545
_cell_length_c   8.18090687
_cell_angle_alpha   105.44987192
_cell_angle_beta   94.58113596
_cell_angle_gamma   112.85497916
_symmetry_Int_Tables_number   1
_chemical_formula_structural   BaPd(IO3)4
_chemical_formula_sum   'Ba1 Pd1 I4 O12'
_cell_volume   321.65937983
_cell_formula_units_Z   1
loop_
 _symmetry_equiv_pos_site_id
 _symmetry_equiv_pos_as_xyz
  1  'x, y, z'
loop_
 _atom_site_type_symbol
 _atom_site_label
 _atom_site_symmetry_multiplicity
 _atom_site_fract_x
 _atom_site_fract_y
 _atom_site_fract_z
 _atom_site_occupancy
  Ba  Ba0  1  0.02547700  0.74379300  0.75436200  1
  Pd  Pd0  1  0.25601300  0.74159000  0.22610000  1
  I  I0  1  0.33073200  0.38466200  0.92472400  1
  I  I1  1  0.33240300  0.44199600  0.44345800  1
  I  I2  1  0.63524200  0.08811500  0.60127900  1
  I  I3  1  0.71203800  0.04706400  0.09312300  1
  O  O0  1  0.14279600  0.53369000  0.98671500  1
  O  O1  1  0.44973200  0.38970800  0.13822700  1
  O  O2  1  0.05823600  0.13864700  0.84525000  1
  O  O3  1  0.11665100  0.52897100  0.34470100  1
  O  O4  1  0.20060300  0.45026100  0.63920100  1
  O  O5  1  0.60959500  0.68308600  0.52651700  1
  O  O6  1  0.32250400  0.95450500  0.45675700  1
  O  O7  1  0.65739400  0.34468100  0.63238000  1
  O  O8  1  0.50655700  0.05070900  0.79291100  1
  O  O9  1  0.37550400  0.95301600  0.10286500  1
  O  O10  1  0.84197800  0.08594000  0.31619000  1
  O  O11  1  0.72066500  0.80623700  0.97928900  1
loop_
_geom_bond_atom_site_label_1
_geom_bond_atom_site_label_2
_geom_bond_distance
_geom_bond_site_symmetry_2
Ba0 O11 2.778688 1_455
Ba0 O4 2.779161 1_555
Ba0 O2 2.782967 1_565
Ba0 O7 2.791436 1_455
Ba0 O5 2.804298 1_455
Ba0 O8 2.843275 1_565
Ba0 O0 2.975999 1_555
Ba0 O9 3.019752 1_556
I0 O1 1.819092 1_556
I0 O2 1.834476 1_555
I0 O0 1.888093 1_555
I0 O4 2.633270 1_555
I1 O5 1.828512 1_555
I1 O4 1.840081 1_555
I1 O3 1.881498 1_555
I1 O1 2.619753 1_555
I2 O7 1.825993 1_555
I2 O8 1.842960 1_555
I2 O6 1.869150 1_545
I3 O11 1.824477 1_544
I3 O10 1.826961 1_555
I3 O9 1.885041 1_545
I3 O8 2.672000 1_554
O0 Pd0 2.017540 1_556
O3 Pd0 2.028178 1_555
O6 Pd0 2.013608 1_555
O9 Pd0 2.034777 1_555
