# generated using pymatgen
data_Na(RuO2)2
_symmetry_space_group_name_H-M   'P 1'
_cell_length_a   2.77849710
_cell_length_b   9.38980200
_cell_length_c   11.16765495
_cell_angle_alpha   90.00000000
_cell_angle_beta   90.00000000
_cell_angle_gamma   90.00000000
_symmetry_Int_Tables_number   1
_chemical_formula_structural   Na(RuO2)2
_chemical_formula_sum   'Na4 Ru8 O16'
_cell_volume   291.35895402
_cell_formula_units_Z   4
loop_
 _symmetry_equiv_pos_site_id
 _symmetry_equiv_pos_as_xyz
  1  'x, y, z'
loop_
 _atom_site_type_symbol
 _atom_site_label
 _atom_site_symmetry_multiplicity
 _atom_site_fract_x
 _atom_site_fract_y
 _atom_site_fract_z
 _atom_site_occupancy
  Na  Na0  1  0.25000000  0.24090230  0.65604548  1
  Na  Na1  1  0.25000000  0.74090230  0.84395452  1
  Na  Na2  1  0.75000000  0.75909770  0.34395452  1
  Na  Na3  1  0.75000000  0.25909770  0.15604548  1
  Ru  Ru0  1  0.25000000  0.06003802  0.88328708  1
  Ru  Ru1  1  0.25000000  0.56003802  0.61671292  1
  Ru  Ru2  1  0.75000000  0.93996198  0.11671292  1
  Ru  Ru3  1  0.75000000  0.43996198  0.38328708  1
  Ru  Ru4  1  0.25000000  0.08503200  0.39475154  1
  Ru  Ru5  1  0.25000000  0.58503200  0.10524846  1
  Ru  Ru6  1  0.75000000  0.91496800  0.60524846  1
  Ru  Ru7  1  0.75000000  0.41496800  0.89475154  1
  O  O0  1  0.25000000  0.29139554  0.33945465  1
  O  O1  1  0.25000000  0.79139554  0.16054535  1
  O  O2  1  0.75000000  0.70860446  0.66054535  1
  O  O3  1  0.75000000  0.20860446  0.83945465  1
  O  O4  1  0.25000000  0.38869225  0.02725099  1
  O  O5  1  0.25000000  0.88869225  0.47274901  1
  O  O6  1  0.75000000  0.61130775  0.97274901  1
  O  O7  1  0.75000000  0.11130775  0.52725099  1
  O  O8  1  0.25000000  0.47236808  0.77751258  1
  O  O9  1  0.25000000  0.97236808  0.72248742  1
  O  O10  1  0.75000000  0.52763192  0.22248742  1
  O  O11  1  0.75000000  0.02763192  0.27751258  1
  O  O12  1  0.25000000  0.08638859  0.06328849  1
  O  O13  1  0.25000000  0.58638859  0.43671151  1
  O  O14  1  0.75000000  0.91361141  0.93671151  1
  O  O15  1  0.75000000  0.41361141  0.56328849  1
loop_
_geom_bond_atom_site_label_1
_geom_bond_atom_site_label_2
_geom_bond_distance
_geom_bond_site_symmetry_2
Na0 O7 2.340850 1_455
Na0 O7 2.340850 1_555
Na0 O15 2.373390 1_555
Na0 O15 2.373390 1_455
Na0 O3 2.493454 1_555
Na0 O3 2.493454 1_455
Na0 O8 2.562000 1_555
Na0 O9 2.628392 1_545
Na1 O6 2.340850 1_455
Na1 O6 2.340850 1_555
Na1 O14 2.373390 1_455
Na1 O14 2.373390 1_555
Na1 O2 2.493454 1_455
Na1 O2 2.493454 1_555
Na1 O9 2.562000 1_555
Na1 O8 2.628392 1_555
Na2 O5 2.340850 1_555
Na2 O5 2.340850 1_655
Na2 O13 2.373390 1_555
Na2 O13 2.373390 1_655
Na2 O1 2.493454 1_555
Na2 O1 2.493454 1_655
Na2 O10 2.562000 1_555
Na2 O11 2.628392 1_565
Na3 O4 2.340850 1_555
Na3 O4 2.340850 1_655
Na3 O12 2.373390 1_655
Na3 O12 2.373390 1_555
Na3 O0 2.493454 1_555
Na3 O0 2.493454 1_655
Na3 O11 2.562000 1_555
Na3 O10 2.628392 1_555
O0 Ru3 2.028714 1_555
O0 Ru3 2.028714 1_455
O0 Ru4 2.033736 1_555
O1 Ru2 2.028714 1_455
O1 Ru2 2.028714 1_555
O1 Ru5 2.033736 1_555
O2 Ru1 2.028714 1_655
O2 Ru1 2.028714 1_555
O2 Ru6 2.033736 1_555
O3 Ru0 2.028714 1_555
O3 Ru0 2.028714 1_655
O3 Ru7 2.033736 1_555
O4 Ru5 2.039008 1_555
O4 Ru7 2.044608 1_454
O4 Ru7 2.044608 1_554
O5 Ru4 2.039008 1_565
O5 Ru6 2.044608 1_455
O5 Ru6 2.044608 1_555
O6 Ru7 2.039008 1_555
O6 Ru5 2.044608 1_656
O6 Ru5 2.044608 1_556
O7 Ru6 2.039008 1_545
O7 Ru4 2.044608 1_655
O7 Ru4 2.044608 1_555
O8 Ru1 1.975449 1_555
O8 Ru7 1.983616 1_555
O8 Ru7 1.983616 1_455
O9 Ru0 1.975449 1_565
O9 Ru6 1.983616 1_455
O9 Ru6 1.983616 1_555
O10 Ru3 1.975449 1_555
O10 Ru5 1.983616 1_655
O10 Ru5 1.983616 1_555
O11 Ru2 1.975449 1_545
O11 Ru4 1.983616 1_555
O11 Ru4 1.983616 1_655
O12 Ru0 2.025364 1_554
O12 Ru2 2.043617 1_445
O12 Ru2 2.043617 1_545
O13 Ru1 2.025364 1_555
O13 Ru3 2.043617 1_555
O13 Ru3 2.043617 1_455
O14 Ru2 2.025364 1_556
O14 Ru0 2.043617 1_565
O14 Ru0 2.043617 1_665
O15 Ru3 2.025364 1_555
O15 Ru1 2.043617 1_555
O15 Ru1 2.043617 1_655
