# generated using pymatgen
data_SrU2I2O13
_symmetry_space_group_name_H-M   'P 1'
_cell_length_a   6.96360500
_cell_length_b   7.91854152
_cell_length_c   21.80150090
_cell_angle_alpha   99.26235327
_cell_angle_beta   90.00000000
_cell_angle_gamma   90.00000000
_symmetry_Int_Tables_number   1
_chemical_formula_structural   SrU2I2O13
_chemical_formula_sum   'Sr4 U8 I8 O52'
_cell_volume   1186.49527766
_cell_formula_units_Z   4
loop_
 _symmetry_equiv_pos_site_id
 _symmetry_equiv_pos_as_xyz
  1  'x, y, z'
loop_
 _atom_site_type_symbol
 _atom_site_label
 _atom_site_symmetry_multiplicity
 _atom_site_fract_x
 _atom_site_fract_y
 _atom_site_fract_z
 _atom_site_occupancy
  Sr  Sr0  1  0.62662100  0.13416800  0.63145500  1
  Sr  Sr1  1  0.12662100  0.86583200  0.86854500  1
  Sr  Sr2  1  0.37337900  0.86583200  0.36854500  1
  Sr  Sr3  1  0.87337900  0.13416800  0.13145500  1
  U  U0  1  0.82348100  0.61156500  0.62564500  1
  U  U1  1  0.32348100  0.38843500  0.87435500  1
  U  U2  1  0.17651900  0.38843500  0.37435500  1
  U  U3  1  0.67651900  0.61156500  0.12564500  1
  U  U4  1  0.80378100  0.47379400  0.77965100  1
  U  U5  1  0.30378100  0.52620600  0.72034900  1
  U  U6  1  0.19621900  0.52620600  0.22034900  1
  U  U7  1  0.69621900  0.47379400  0.27965100  1
  I  I0  1  0.81978000  0.83546100  0.47113200  1
  I  I1  1  0.31978000  0.16453900  0.02886800  1
  I  I2  1  0.18022000  0.16453900  0.52886800  1
  I  I3  1  0.68022000  0.83546100  0.97113200  1
  I  I4  1  0.32483600  0.70148300  0.55042400  1
  I  I5  1  0.82483600  0.29851700  0.94957600  1
  I  I6  1  0.67516400  0.29851700  0.44957600  1
  I  I7  1  0.17516400  0.70148300  0.05042400  1
  O  O0  1  0.91083300  0.68396800  0.52049700  1
  O  O1  1  0.41083300  0.31603200  0.97950300  1
  O  O2  1  0.08916700  0.31603200  0.47950300  1
  O  O3  1  0.58916700  0.68396800  0.02049700  1
  O  O4  1  0.56283300  0.78173800  0.46637000  1
  O  O5  1  0.06283300  0.21826200  0.03363000  1
  O  O6  1  0.43716700  0.21826200  0.53363000  1
  O  O7  1  0.93716700  0.78173800  0.96637000  1
  O  O8  1  0.81804000  0.02940900  0.53023800  1
  O  O9  1  0.31804000  0.97059100  0.96976200  1
  O  O10  1  0.18196000  0.97059100  0.46976200  1
  O  O11  1  0.68196000  0.02940900  0.03023800  1
  O  O12  1  0.18518700  0.61678800  0.61166000  1
  O  O13  1  0.68518700  0.38321200  0.88834000  1
  O  O14  1  0.81481300  0.38321200  0.38834000  1
  O  O15  1  0.31481300  0.61678800  0.11166000  1
  O  O16  1  0.54456800  0.59104000  0.56790700  1
  O  O17  1  0.04456800  0.40896000  0.93209300  1
  O  O18  1  0.45543200  0.40896000  0.43209300  1
  O  O19  1  0.95543200  0.59104000  0.06790700  1
  O  O20  1  0.35738900  0.91635500  0.59231600  1
  O  O21  1  0.85738900  0.08364500  0.90768400  1
  O  O22  1  0.64261100  0.08364500  0.40768400  1
  O  O23  1  0.14261100  0.91635500  0.09231600  1
  O  O24  1  0.84279500  0.37654300  0.59643000  1
  O  O25  1  0.34279500  0.62345700  0.90357000  1
  O  O26  1  0.15720500  0.62345700  0.40357000  1
  O  O27  1  0.65720500  0.37654300  0.09643000  1
  O  O28  1  0.78862200  0.84526200  0.64828700  1
  O  O29  1  0.28862200  0.15473800  0.85171300  1
  O  O30  1  0.21137800  0.15473800  0.35171300  1
  O  O31  1  0.71137800  0.84526200  0.14828700  1
  O  O32  1  0.61568700  0.55147200  0.69601300  1
  O  O33  1  0.11568700  0.44852800  0.80398700  1
  O  O34  1  0.38431300  0.44852800  0.30398700  1
  O  O35  1  0.88431300  0.55147200  0.19601300  1
  O  O36  1  0.80877600  0.25472300  0.73230500  1
  O  O37  1  0.30877600  0.74527700  0.76769500  1
  O  O38  1  0.19122400  0.74527700  0.26769500  1
  O  O39  1  0.69122400  0.25472300  0.23230500  1
  O  O40  1  0.80438800  0.69084000  0.82742700  1
  O  O41  1  0.30438800  0.30916000  0.67257300  1
  O  O42  1  0.19561200  0.30916000  0.17257300  1
  O  O43  1  0.69561200  0.69084000  0.32742700  1
  O  O44  1  0.98699000  0.57268800  0.70807200  1
  O  O45  1  0.48699000  0.42731200  0.79192800  1
  O  O46  1  0.01301000  0.42731200  0.29192800  1
  O  O47  1  0.51301000  0.57268800  0.20807200  1
  O  O48  1  0.51535400  0.02584500  0.73526200  1
  O  O49  1  0.01535400  0.97415500  0.76473800  1
  O  O50  1  0.48464600  0.97415500  0.26473800  1
  O  O51  1  0.98464600  0.02584500  0.23526200  1
loop_
_geom_bond_atom_site_label_1
_geom_bond_atom_site_label_2
_geom_bond_distance
_geom_bond_site_symmetry_2
I0 O4 1.838218 1_555
I0 O8 1.839078 1_565
I0 O0 1.847959 1_555
I1 O5 1.838218 1_555
I1 O9 1.839078 1_544
I1 O1 1.847959 1_554
I2 O6 1.838218 1_555
I2 O10 1.839078 1_545
I2 O2 1.847959 1_555
I3 O7 1.838218 1_555
I3 O11 1.839078 1_566
I3 O3 1.847959 1_556
I4 O20 1.811157 1_555
I4 O16 1.832677 1_555
I4 O12 1.861723 1_555
I4 O4 2.623646 1_555
I5 O21 1.811157 1_555
I5 O17 1.832677 1_655
I5 O13 1.861723 1_555
I5 O5 2.623646 1_656
I6 O22 1.811157 1_555
I6 O18 1.832677 1_555
I6 O14 1.861723 1_555
I6 O6 2.623646 1_555
I7 O23 1.811157 1_555
I7 O19 1.832677 1_455
I7 O15 1.861723 1_555
I7 O7 2.623646 1_454
O0 U0 2.525237 1_555
O1 U1 2.525237 1_555
O2 U2 2.525237 1_555
O3 U3 2.525237 1_555
O4 Sr2 2.681353 1_555
O5 Sr3 2.681353 1_455
O6 Sr0 2.681353 1_555
O7 Sr1 2.681353 1_655
O8 Sr0 2.597136 1_555
O9 Sr1 2.597136 1_555
O10 Sr2 2.597136 1_555
O11 Sr3 2.597136 1_555
O12 U0 2.538301 1_455
O12 U5 2.712667 1_555
O13 U1 2.538301 1_555
O13 U4 2.712667 1_555
O14 U2 2.538301 1_655
O14 U7 2.712667 1_555
O15 U3 2.538301 1_555
O15 U6 2.712667 1_555
O16 U0 2.305942 1_555
O17 U1 2.305942 1_555
O18 U2 2.305942 1_555
O19 U3 2.305942 1_555
O20 Sr0 2.596943 1_565
O21 Sr1 2.596943 1_645
O22 Sr2 2.596943 1_545
O23 Sr3 2.596943 1_465
O24 U0 1.872333 1_555
O24 Sr0 2.646598 1_555
O25 U1 1.872333 1_555
O25 Sr1 2.646598 1_555
O26 U2 1.872333 1_555
O26 Sr2 2.646598 1_555
O27 U3 1.872333 1_555
O27 Sr3 2.646598 1_555
O28 U0 1.852844 1_555
O28 Sr0 2.628912 1_565
O29 U1 1.852844 1_555
O29 Sr1 2.628912 1_545
O30 U2 1.852844 1_555
O30 Sr2 2.628912 1_545
O31 U3 1.852844 1_555
O31 Sr3 2.628912 1_565
O32 U0 2.215576 1_555
O32 U5 2.252384 1_555
O32 U4 2.404145 1_555
O33 U1 2.215576 1_555
O33 U4 2.252384 1_455
O33 U5 2.404145 1_555
O34 U2 2.215576 1_555
O34 U7 2.252384 1_555
O34 U6 2.404145 1_555
O35 U3 2.215576 1_555
O35 U6 2.252384 1_655
O35 U7 2.404145 1_555
O36 U4 1.870701 1_555
O36 Sr0 2.584341 1_555
O37 U5 1.870701 1_555
O37 Sr1 2.584341 1_555
O38 U6 1.870701 1_555
O38 Sr2 2.584341 1_555
O39 U7 1.870701 1_555
O39 Sr3 2.584341 1_555
O40 U4 1.860790 1_555
O40 Sr1 2.712737 1_655
O41 U5 1.860790 1_555
O41 Sr0 2.712737 1_555
O42 U6 1.860790 1_555
O42 Sr3 2.712737 1_455
O43 U7 1.860790 1_555
O43 Sr2 2.712737 1_555
O44 U0 2.190575 1_555
O44 U4 2.251563 1_555
O44 U5 2.259491 1_655
O45 U1 2.190575 1_555
O45 U5 2.251563 1_555
O45 U4 2.259491 1_555
O46 U2 2.190575 1_555
O46 U6 2.251563 1_555
O46 U7 2.259491 1_455
O47 U3 2.190575 1_555
O47 U7 2.251563 1_555
O47 U6 2.259491 1_555
O48 Sr0 2.661361 1_555
O49 Sr1 2.661361 1_555
O50 Sr2 2.661361 1_555
O51 Sr3 2.661361 1_555
