# generated using pymatgen
data_ErSi2Ni
_symmetry_space_group_name_H-M   'P 1'
_cell_length_a   8.42588065
_cell_length_b   8.42588065
_cell_length_c   3.90587776
_cell_angle_alpha   90.00000000
_cell_angle_beta   90.00000000
_cell_angle_gamma   152.96056688
_symmetry_Int_Tables_number   1
_chemical_formula_structural   ErSi2Ni
_chemical_formula_sum   'Er2 Si4 Ni2'
_cell_volume   126.06140423
_cell_formula_units_Z   2
loop_
 _symmetry_equiv_pos_site_id
 _symmetry_equiv_pos_as_xyz
  1  'x, y, z'
loop_
 _atom_site_type_symbol
 _atom_site_label
 _atom_site_symmetry_multiplicity
 _atom_site_fract_x
 _atom_site_fract_y
 _atom_site_fract_z
 _atom_site_occupancy
  Er  Er0  1  0.10598105  0.89401895  0.25000000  1
  Er  Er1  1  0.89401895  0.10598105  0.75000000  1
  Si  Si0  1  0.75013414  0.24986586  0.25000000  1
  Si  Si1  1  0.24986586  0.75013414  0.75000000  1
  Si  Si2  1  0.54037181  0.45962819  0.75000000  1
  Si  Si3  1  0.45962819  0.54037181  0.25000000  1
  Ni  Ni0  1  0.67665764  0.32334236  0.75000000  1
  Ni  Ni1  1  0.32334236  0.67665764  0.25000000  1
loop_
_geom_bond_atom_site_label_1
_geom_bond_atom_site_label_2
_geom_bond_distance
_geom_bond_site_symmetry_2
Er0 Si2 2.974845 1_454
Er0 Si2 2.974845 1_455
Er0 Si2 2.974845 1_564
Er0 Si2 2.974845 1_565
Er0 Ni0 3.005845 1_565
Er0 Ni0 3.005845 1_564
Er0 Ni0 3.005845 1_455
Er0 Ni0 3.005845 1_454
Er0 Si1 3.061353 1_554
Er0 Si1 3.061353 1_555
Er0 Si0 3.075513 1_455
Er0 Si0 3.075513 1_565
Er0 Si3 3.103278 1_565
Er0 Si3 3.103278 1_455
Er1 Si3 2.974845 1_545
Er1 Si3 2.974845 1_546
Er1 Si3 2.974845 1_655
Er1 Si3 2.974845 1_656
Er1 Ni1 3.005845 1_546
Er1 Ni1 3.005845 1_656
Er1 Ni1 3.005845 1_545
Er1 Ni1 3.005845 1_655
Er1 Si0 3.061353 1_555
Er1 Si0 3.061353 1_556
Er1 Si1 3.075513 1_545
Er1 Si1 3.075513 1_655
Er1 Si2 3.103278 1_655
Er1 Si2 3.103278 1_545
Si2 Si3 2.358858 1_556
Si2 Si3 2.358858 1_555
Ni0 Si2 2.233015 1_555
Ni0 Si0 2.294197 1_555
Ni0 Si0 2.294197 1_556
Ni0 Si1 2.306279 1_545
Ni0 Si1 2.306279 1_655
Ni1 Si3 2.233015 1_555
Ni1 Si1 2.294197 1_554
Ni1 Si1 2.294197 1_555
Ni1 Si0 2.306279 1_455
Ni1 Si0 2.306279 1_565
