# generated using pymatgen
data_GdCrGeO5
_symmetry_space_group_name_H-M   'P 1'
_cell_length_a   5.84467300
_cell_length_b   7.51134400
_cell_length_c   8.54002700
_cell_angle_alpha   90.00000000
_cell_angle_beta   90.00000000
_cell_angle_gamma   90.00000000
_symmetry_Int_Tables_number   1
_chemical_formula_structural   GdCrGeO5
_chemical_formula_sum   'Gd4 Cr4 Ge4 O20'
_cell_volume   374.91870981
_cell_formula_units_Z   4
loop_
 _symmetry_equiv_pos_site_id
 _symmetry_equiv_pos_as_xyz
  1  'x, y, z'
loop_
 _atom_site_type_symbol
 _atom_site_label
 _atom_site_symmetry_multiplicity
 _atom_site_fract_x
 _atom_site_fract_y
 _atom_site_fract_z
 _atom_site_occupancy
  Gd  Gd0  1  0.50000000  0.35716100  0.32656000  1
  Gd  Gd1  1  0.50000000  0.64283900  0.67344000  1
  Gd  Gd2  1  0.50000000  0.14283900  0.82656000  1
  Gd  Gd3  1  0.50000000  0.85716100  0.17344000  1
  Cr  Cr0  1  0.24831100  0.00000000  0.50000000  1
  Cr  Cr1  1  0.75168900  0.00000000  0.50000000  1
  Cr  Cr2  1  0.75168900  0.50000000  0.00000000  1
  Cr  Cr3  1  0.24831100  0.50000000  0.00000000  1
  Ge  Ge0  1  0.00000000  0.11664400  0.14391700  1
  Ge  Ge1  1  0.00000000  0.88335600  0.85608300  1
  Ge  Ge2  1  0.00000000  0.38335600  0.64391700  1
  Ge  Ge3  1  0.00000000  0.61664400  0.35608300  1
  O  O0  1  0.24700500  0.10948500  0.28274200  1
  O  O1  1  0.75299500  0.89051500  0.71725800  1
  O  O2  1  0.24700500  0.89051500  0.71725800  1
  O  O3  1  0.75299500  0.39051500  0.78274200  1
  O  O4  1  0.75299500  0.10948500  0.28274200  1
  O  O5  1  0.24700500  0.60948500  0.21725800  1
  O  O6  1  0.75299500  0.60948500  0.21725800  1
  O  O7  1  0.24700500  0.39051500  0.78274200  1
  O  O8  1  0.00000000  0.34152300  0.07993700  1
  O  O9  1  0.00000000  0.65847700  0.92006300  1
  O  O10  1  0.00000000  0.15847700  0.57993700  1
  O  O11  1  0.00000000  0.84152300  0.42006300  1
  O  O12  1  0.50000000  0.33351100  0.05609800  1
  O  O13  1  0.50000000  0.66648900  0.94390200  1
  O  O14  1  0.50000000  0.16648900  0.55609800  1
  O  O15  1  0.50000000  0.83351100  0.44390200  1
  O  O16  1  0.20941900  0.00000000  0.00000000  1
  O  O17  1  0.79058100  0.00000000  0.00000000  1
  O  O18  1  0.79058100  0.50000000  0.50000000  1
  O  O19  1  0.20941900  0.50000000  0.50000000  1
loop_
_geom_bond_atom_site_label_1
_geom_bond_atom_site_label_2
_geom_bond_distance
_geom_bond_site_symmetry_2
Gd0 O12 2.316574 1_555
Gd0 O0 2.405726 1_555
Gd0 O4 2.405726 1_555
Gd0 O14 2.427721 1_555
Gd0 O18 2.495884 1_555
Gd0 O19 2.495884 1_555
Gd0 O6 2.578744 1_555
Gd0 O5 2.578744 1_555
Gd1 O13 2.316574 1_555
Gd1 O1 2.405726 1_555
Gd1 O2 2.405726 1_555
Gd1 O15 2.427721 1_555
Gd1 O19 2.495884 1_555
Gd1 O18 2.495884 1_555
Gd1 O3 2.578744 1_555
Gd1 O7 2.578744 1_555
Gd2 O14 2.316574 1_555
Gd2 O7 2.405726 1_555
Gd2 O3 2.405726 1_555
Gd2 O12 2.427721 1_556
Gd2 O16 2.495884 1_556
Gd2 O17 2.495884 1_556
Gd2 O1 2.578744 1_545
Gd2 O2 2.578744 1_545
Gd3 O15 2.316574 1_555
Gd3 O6 2.405726 1_555
Gd3 O5 2.405726 1_555
Gd3 O13 2.427721 1_554
Gd3 O17 2.495884 1_565
Gd3 O16 2.495884 1_565
Gd3 O4 2.578744 1_565
Gd3 O0 2.578744 1_565
Cr0 O14 1.989313 1_555
Cr0 O15 1.989313 1_545
Cr0 O11 1.997320 1_545
Cr0 O10 1.997320 1_555
Cr0 O0 2.029491 1_555
Cr0 O2 2.029491 1_545
Cr1 O14 1.989313 1_555
Cr1 O15 1.989313 1_545
Cr1 O11 1.997320 1_645
Cr1 O10 1.997320 1_655
Cr1 O4 2.029491 1_555
Cr1 O1 2.029491 1_545
Cr2 O13 1.989313 1_554
Cr2 O12 1.989313 1_555
Cr2 O9 1.997320 1_654
Cr2 O8 1.997320 1_655
Cr2 O3 2.029491 1_554
Cr2 O6 2.029491 1_555
Cr3 O12 1.989313 1_555
Cr3 O13 1.989313 1_554
Cr3 O8 1.997320 1_555
Cr3 O9 1.997320 1_554
Cr3 O7 2.029491 1_554
Cr3 O5 2.029491 1_555
Ge0 O8 1.775317 1_555
Ge0 O4 1.868858 1_455
Ge0 O0 1.868858 1_555
Ge0 O17 1.943286 1_455
Ge0 O16 1.943286 1_555
Ge1 O9 1.775317 1_555
Ge1 O1 1.868858 1_455
Ge1 O2 1.868858 1_555
Ge1 O17 1.943286 1_466
Ge1 O16 1.943286 1_566
Ge2 O10 1.775317 1_555
Ge2 O7 1.868858 1_555
Ge2 O3 1.868858 1_455
Ge2 O19 1.943286 1_555
Ge2 O18 1.943286 1_455
Ge3 O11 1.775317 1_555
Ge3 O5 1.868858 1_555
Ge3 O6 1.868858 1_455
Ge3 O19 1.943286 1_555
Ge3 O18 1.943286 1_455
