# generated using pymatgen
data_Li3Cr3CoO8
_symmetry_space_group_name_H-M   'P 1'
_cell_length_a   5.09022000
_cell_length_b   5.86035066
_cell_length_c   10.55389335
_cell_angle_alpha   106.01739800
_cell_angle_beta   94.50745010
_cell_angle_gamma   106.57230330
_symmetry_Int_Tables_number   1
_chemical_formula_structural   Li3Cr3CoO8
_chemical_formula_sum   'Li6 Cr6 Co2 O16'
_cell_volume   285.77669273
_cell_formula_units_Z   2
loop_
 _symmetry_equiv_pos_site_id
 _symmetry_equiv_pos_as_xyz
  1  'x, y, z'
loop_
 _atom_site_type_symbol
 _atom_site_label
 _atom_site_symmetry_multiplicity
 _atom_site_fract_x
 _atom_site_fract_y
 _atom_site_fract_z
 _atom_site_occupancy
  Li  Li0  1  0.50000000  0.00000000  0.50000000  1
  Li  Li1  1  0.50264400  0.86716100  0.25295800  1
  Li  Li2  1  0.50000000  0.50000000  0.50000000  1
  Li  Li3  1  0.50664100  0.26103900  0.00269300  1
  Li  Li4  1  0.49735600  0.13283900  0.74704200  1
  Li  Li5  1  0.49335900  0.73896100  0.99730700  1
  Cr  Cr0  1  0.00070900  0.80998300  0.62383600  1
  Cr  Cr1  1  0.00914300  0.06338800  0.12757200  1
  Cr  Cr2  1  0.99929100  0.19001700  0.37616400  1
  Cr  Cr3  1  0.00516300  0.56279500  0.12865200  1
  Cr  Cr4  1  0.99085700  0.93661200  0.87242800  1
  Cr  Cr5  1  0.99483700  0.43720500  0.87134800  1
  Co  Co0  1  0.99232800  0.68457200  0.37581900  1
  Co  Co1  1  0.00767200  0.31542800  0.62418100  1
  O  O0  1  0.78541600  0.99641100  0.68243000  1
  O  O1  1  0.77328100  0.84816400  0.43822600  1
  O  O2  1  0.78746800  0.46366600  0.68290100  1
  O  O3  1  0.77347500  0.09706400  0.94432000  1
  O  O4  1  0.78937300  0.73922700  0.18986400  1
  O  O5  1  0.79129000  0.35277400  0.45031200  1
  O  O6  1  0.78982400  0.21830600  0.18839500  1
  O  O7  1  0.77843000  0.59551600  0.94570700  1
  O  O8  1  0.20871000  0.64722600  0.54968800  1
  O  O9  1  0.21458400  0.00358900  0.31757000  1
  O  O10  1  0.21253200  0.53633400  0.31709900  1
  O  O11  1  0.22671900  0.15183600  0.56177400  1
  O  O12  1  0.22652500  0.90293600  0.05568000  1
  O  O13  1  0.22157000  0.40448400  0.05429300  1
  O  O14  1  0.21017600  0.78169400  0.81160500  1
  O  O15  1  0.21062700  0.26077300  0.81013600  1
loop_
_geom_bond_atom_site_label_1
_geom_bond_atom_site_label_2
_geom_bond_distance
_geom_bond_site_symmetry_2
Li0 O1 1.918426 1_545
Li0 O11 1.918426 1_555
Li0 O9 2.327711 1_555
Li0 O0 2.327711 1_545
Li0 O8 2.391528 1_545
Li0 O5 2.391528 1_555
Li1 O4 1.907133 1_555
Li1 O9 1.944033 1_565
Li1 O1 2.348960 1_555
Li2 O8 1.954533 1_555
Li2 O5 1.954533 1_555
Li2 O1 2.404315 1_555
Li2 O11 2.404315 1_555
Li2 O2 2.423478 1_555
Li2 O10 2.423478 1_555
Li3 O13 1.917362 1_555
Li3 O3 1.922799 1_554
Li3 O7 2.313502 1_554
Li3 O12 2.411630 1_545
Li3 O15 2.432270 1_554
Li3 O6 2.452428 1_555
Li4 O15 1.907133 1_555
Li4 O0 1.944033 1_545
Li4 O11 2.348960 1_555
Li5 O7 1.917362 1_555
Li5 O12 1.922799 1_556
Li5 O13 2.313502 1_556
Li5 O3 2.411630 1_565
Li5 O4 2.432270 1_556
Li5 O14 2.452428 1_555
Cr0 O8 1.713925 1_555
Cr0 O0 1.787088 1_455
Cr0 O1 2.293637 1_455
Cr0 O11 2.300846 1_565
Cr1 O6 1.688727 1_455
Cr1 O12 1.736671 1_545
Cr1 O4 2.210207 1_445
Cr1 O9 2.346177 1_555
Cr1 O13 2.348334 1_555
Cr2 O5 1.713925 1_555
Cr2 O9 1.787088 1_655
Cr2 O11 2.293637 1_655
Cr2 O1 2.300846 1_545
Cr3 O13 1.734102 1_555
Cr3 O4 1.756051 1_455
Cr3 O7 2.253221 1_454
Cr4 O14 1.688727 1_655
Cr4 O3 1.736671 1_565
Cr4 O15 2.210207 1_665
Cr4 O0 2.346177 1_555
Cr4 O7 2.348334 1_555
Cr5 O7 1.734102 1_555
Cr5 O15 1.756051 1_655
Cr5 O13 2.253221 1_656
Co0 O10 1.662132 1_655
Co0 O1 1.724207 1_555
Co0 O8 2.160955 1_655
Co0 O9 2.165660 1_665
Co0 O4 2.288764 1_555
Co0 O5 2.298084 1_555
Co1 O2 1.662132 1_455
Co1 O11 1.724207 1_555
Co1 O5 2.160955 1_455
Co1 O0 2.165660 1_445
Co1 O15 2.288764 1_555
Co1 O8 2.298084 1_555
