# generated using pymatgen
data_RbC2S2NO5F6
_symmetry_space_group_name_H-M   'P 1'
_cell_length_a   12.44140218
_cell_length_b   12.44140218
_cell_length_c   12.44140218
_cell_angle_alpha   95.57493244
_cell_angle_beta   95.57493244
_cell_angle_gamma   143.67840237
_symmetry_Int_Tables_number   1
_chemical_formula_structural   RbC2S2NO5F6
_chemical_formula_sum   'Rb4 C8 S8 N4 O20 F24'
_cell_volume   1083.85340290
_cell_formula_units_Z   4
loop_
 _symmetry_equiv_pos_site_id
 _symmetry_equiv_pos_as_xyz
  1  'x, y, z'
loop_
 _atom_site_type_symbol
 _atom_site_label
 _atom_site_symmetry_multiplicity
 _atom_site_fract_x
 _atom_site_fract_y
 _atom_site_fract_z
 _atom_site_occupancy
  Rb  Rb0  1  0.51762600  0.91646400  0.94263000  1
  Rb  Rb1  1  0.97383300  0.57499600  0.05737000  1
  Rb  Rb2  1  0.42500400  0.48237400  0.39883700  1
  Rb  Rb3  1  0.08353600  0.02616700  0.60116300  1
  C  C0  1  0.61127800  0.96038600  0.57004900  1
  C  C1  1  0.39033800  0.04123000  0.42995100  1
  C  C2  1  0.95877000  0.38872200  0.34910800  1
  C  C3  1  0.03961400  0.60966200  0.65089200  1
  C  C4  1  0.12433700  0.29042600  0.93574500  1
  C  C5  1  0.35468100  0.18859200  0.06425500  1
  C  C6  1  0.81140800  0.87566300  0.16608900  1
  C  C7  1  0.70957400  0.64531900  0.83391100  1
  S  S0  1  0.73035300  0.95888200  0.67275900  1
  S  S1  1  0.28612200  0.05759300  0.32724100  1
  S  S2  1  0.94240700  0.26964700  0.22852900  1
  S  S3  1  0.04111800  0.71387800  0.77147100  1
  S  S4  1  0.04521500  0.32823900  0.83020900  1
  S  S5  1  0.49803000  0.21500600  0.16979100  1
  S  S6  1  0.78499400  0.95478500  0.28302400  1
  S  S7  1  0.67176100  0.50197000  0.71697600  1
  N  N0  1  0.94771900  0.17500000  0.71526300  1
  N  N1  1  0.45973700  0.23245600  0.28473700  1
  N  N2  1  0.76754400  0.05228100  0.22728100  1
  N  N3  1  0.82500000  0.54026300  0.77271900  1
  O  O0  1  0.63041600  0.88551500  0.75714300  1
  O  O1  1  0.12837200  0.87327300  0.24285700  1
  O  O2  1  0.12672700  0.36958400  0.25509900  1
  O  O3  1  0.11448500  0.87162800  0.74490200  1
  O  O4  1  0.72020700  0.84942400  0.60217900  1
  O  O5  1  0.24724500  0.11802800  0.39782100  1
  O  O6  1  0.88197200  0.27979300  0.12921700  1
  O  O7  1  0.15057600  0.75275500  0.87078300  1
  O  O8  1  0.91979200  0.29705300  0.87390600  1
  O  O9  1  0.42314700  0.04588600  0.12609400  1
  O  O10  1  0.95411400  0.08020800  0.37726100  1
  O  O11  1  0.70294700  0.57685300  0.62273900  1
  O  O12  1  0.22091600  0.51453500  0.82249300  1
  O  O13  1  0.69204100  0.39842300  0.17750700  1
  O  O14  1  0.60157700  0.77908400  0.29361900  1
  O  O15  1  0.48546500  0.30795900  0.70638100  1
  O  O16  1  0.60989000  0.21023000  0.85810200  1
  O  O17  1  0.35212900  0.75178800  0.14189800  1
  O  O18  1  0.24821200  0.39011000  0.60034000  1
  O  O19  1  0.78977000  0.64787100  0.39966000  1
  F  F0  1  0.43661700  0.77867400  0.51005700  1
  F  F1  1  0.26861800  0.92656100  0.48994300  1
  F  F2  1  0.07343900  0.56338300  0.34205700  1
  F  F3  1  0.22132600  0.73138200  0.65794300  1
  F  F4  1  0.71236200  0.05668300  0.49825600  1
  F  F5  1  0.55842700  0.21410600  0.50174400  1
  F  F6  1  0.78589400  0.28763800  0.34432100  1
  F  F7  1  0.94331700  0.44157300  0.65567900  1
  F  F8  1  0.59308300  0.04148800  0.62626100  1
  F  F9  1  0.41522800  0.96682200  0.37373900  1
  F  F10  1  0.03317800  0.40691700  0.44840600  1
  F  F11  1  0.95851200  0.58477200  0.55159400  1
  F  F12  1  0.20661800  0.27281000  0.89195800  1
  F  F13  1  0.38085200  0.31466000  0.10804200  1
  F  F14  1  0.68534000  0.79338200  0.06619200  1
  F  F15  1  0.72719000  0.61914800  0.93380800  1
  F  F16  1  0.97429700  0.13107200  0.96342000  1
  F  F17  1  0.16765300  0.01087700  0.03658000  1
  F  F18  1  0.98912300  0.02570300  0.15677600  1
  F  F19  1  0.86892800  0.83234700  0.84322400  1
  F  F20  1  0.25206400  0.44042200  0.03020200  1
  F  F21  1  0.41022000  0.22186300  0.96979800  1
  F  F22  1  0.77813700  0.74793600  0.18835800  1
  F  F23  1  0.55957800  0.58978000  0.81164200  1
loop_
_geom_bond_atom_site_label_1
_geom_bond_atom_site_label_2
_geom_bond_distance
_geom_bond_site_symmetry_2
C0 F4 1.346490 1_565
C0 F8 1.349144 1_565
C0 F0 1.353078 1_555
C0 S0 1.873363 1_555
C1 F5 1.346484 1_555
C1 F9 1.349154 1_545
C1 F1 1.353078 1_545
C1 S1 1.873362 1_555
C2 F6 1.346480 1_555
C2 F10 1.349160 1_655
C2 F2 1.353078 1_655
C2 S2 1.873378 1_555
C3 F7 1.346480 1_455
C3 F11 1.349154 1_455
C3 F3 1.353078 1_555
C3 S3 1.873378 1_555
C4 F20 1.349530 1_556
C4 F16 1.351899 1_455
C4 F12 1.356262 1_555
C4 S4 1.878693 1_555
C5 F21 1.349530 1_554
C5 F17 1.351894 1_555
C5 F13 1.356262 1_555
C5 S5 1.878693 1_555
C6 F22 1.349522 1_555
C6 F18 1.351894 1_565
C6 F14 1.356262 1_555
C6 S6 1.878693 1_555
C7 F23 1.349530 1_555
C7 F19 1.351895 1_555
C7 F15 1.356262 1_555
C7 S7 1.878693 1_555
N0 S0 1.597302 1_545
N0 S4 1.599371 1_655
N1 S1 1.597310 1_555
N1 S5 1.599371 1_555
N2 S2 1.597302 1_555
N2 S6 1.599371 1_545
N3 S3 1.597302 1_655
N3 S7 1.599371 1_555
O0 S0 1.446480 1_555
O0 Rb0 2.961455 1_555
O1 S1 1.446475 1_565
O1 Rb1 2.961449 1_455
O2 S2 1.446469 1_455
O2 Rb2 2.961449 1_555
O3 S3 1.446464 1_555
O3 Rb3 2.961465 1_565
O4 S0 1.452812 1_555
O4 Rb3 3.044348 1_665
O4 Rb2 3.109127 1_555
O5 S1 1.452811 1_555
O5 Rb2 3.044359 1_555
O5 Rb3 3.109132 1_555
O6 S2 1.452819 1_555
O6 Rb0 3.044357 1_544
O6 Rb1 3.109127 1_555
O7 S3 1.452819 1_555
O7 Rb1 3.044359 1_456
O7 Rb0 3.109120 1_555
O8 S4 1.453016 1_655
O9 S5 1.453016 1_555
O10 S6 1.453016 1_545
O11 S7 1.453016 1_555
O12 S4 1.442021 1_555
O12 Rb0 2.932006 1_555
O13 S5 1.442016 1_555
O13 Rb1 2.932006 1_555
O14 S6 1.442021 1_555
O14 Rb2 2.931998 1_555
O15 S7 1.442016 1_555
O15 Rb3 2.932004 1_555
O16 Rb1 3.124800 1_556
O16 Rb0 3.162670 1_545
O17 Rb0 3.124799 1_554
O17 Rb1 3.162692 1_455
O18 Rb3 3.124793 1_555
O18 Rb2 3.162681 1_555
O19 Rb2 3.124806 1_555
O19 Rb3 3.162688 1_665
