# generated using pymatgen
data_LiMg14CoO16
_symmetry_space_group_name_H-M   'P 1'
_cell_length_a   8.47338491
_cell_length_b   8.50066431
_cell_length_c   4.23149425
_cell_angle_alpha   90.00000000
_cell_angle_beta   90.00000000
_cell_angle_gamma   90.00000000
_symmetry_Int_Tables_number   1
_chemical_formula_structural   LiMg14CoO16
_chemical_formula_sum   'Li1 Mg14 Co1 O16'
_cell_volume   304.79199485
_cell_formula_units_Z   1
loop_
 _symmetry_equiv_pos_site_id
 _symmetry_equiv_pos_as_xyz
  1  'x, y, z'
loop_
 _atom_site_type_symbol
 _atom_site_label
 _atom_site_symmetry_multiplicity
 _atom_site_fract_x
 _atom_site_fract_y
 _atom_site_fract_z
 _atom_site_occupancy
  Li  Li0  1  0.00000000  0.50000000  0.00000000  1
  Mg  Mg0  1  0.50000000  0.00000000  0.00000000  1
  Mg  Mg1  1  0.50000000  0.50000000  0.00000000  1
  Mg  Mg2  1  0.00000000  0.25641455  0.50000000  1
  Mg  Mg3  1  0.00000000  0.74358545  0.50000000  1
  Mg  Mg4  1  0.50000000  0.25188828  0.50000000  1
  Mg  Mg5  1  0.50000000  0.74811172  0.50000000  1
  Mg  Mg6  1  0.24774416  0.00000000  0.50000000  1
  Mg  Mg7  1  0.24419772  0.50000000  0.50000000  1
  Mg  Mg8  1  0.75225584  0.00000000  0.50000000  1
  Mg  Mg9  1  0.75580228  0.50000000  0.50000000  1
  Mg  Mg10  1  0.24727190  0.25477588  0.00000000  1
  Mg  Mg11  1  0.24727190  0.74522412  0.00000000  1
  Mg  Mg12  1  0.75272810  0.25477588  0.00000000  1
  Mg  Mg13  1  0.75272810  0.74522412  0.00000000  1
  Co  Co0  1  0.00000000  0.00000000  0.00000000  1
  O  O0  1  0.23756791  0.00000000  0.00000000  1
  O  O1  1  0.25412455  0.50000000  0.00000000  1
  O  O2  1  0.76243209  0.00000000  0.00000000  1
  O  O3  1  0.74587545  0.50000000  0.00000000  1
  O  O4  1  0.24878695  0.24811679  0.50000000  1
  O  O5  1  0.24878695  0.75188321  0.50000000  1
  O  O6  1  0.75121305  0.24811679  0.50000000  1
  O  O7  1  0.75121305  0.75188321  0.50000000  1
  O  O8  1  0.00000000  0.00000000  0.50000000  1
  O  O9  1  0.00000000  0.50000000  0.50000000  1
  O  O10  1  0.50000000  0.00000000  0.50000000  1
  O  O11  1  0.50000000  0.50000000  0.50000000  1
  O  O12  1  0.00000000  0.22837328  0.00000000  1
  O  O13  1  0.00000000  0.77162672  0.00000000  1
  O  O14  1  0.50000000  0.24463293  0.00000000  1
  O  O15  1  0.50000000  0.75536707  0.00000000  1
loop_
_geom_bond_atom_site_label_1
_geom_bond_atom_site_label_2
_geom_bond_distance
_geom_bond_site_symmetry_2
Li0 O9 2.115747 1_555
Li0 O9 2.115747 1_554
Li0 O3 2.153295 1_455
Li0 O1 2.153295 1_555
Li0 O12 2.309008 1_555
Li0 O13 2.309008 1_555
Mg0 O15 2.079542 1_545
Mg0 O14 2.079542 1_555
Mg0 O10 2.115747 1_554
Mg0 O10 2.115747 1_555
Mg0 O0 2.223688 1_555
Mg0 O2 2.223688 1_555
Mg1 O3 2.083397 1_555
Mg1 O1 2.083397 1_555
Mg1 O11 2.115747 1_554
Mg1 O11 2.115747 1_555
Mg1 O14 2.170790 1_555
Mg1 O15 2.170790 1_555
Mg2 O9 2.070638 1_555
Mg2 O6 2.109247 1_455
Mg2 O4 2.109247 1_555
Mg2 O12 2.129133 1_556
Mg2 O12 2.129133 1_555
Mg2 O8 2.179694 1_555
Mg3 O9 2.070638 1_555
Mg3 O7 2.109247 1_455
Mg3 O5 2.109247 1_555
Mg3 O13 2.129133 1_555
Mg3 O13 2.129133 1_556
Mg3 O8 2.179694 1_565
Mg4 O11 2.109114 1_555
Mg4 O14 2.116646 1_555
Mg4 O14 2.116646 1_556
Mg4 O4 2.128866 1_555
Mg4 O6 2.128866 1_555
Mg4 O10 2.141218 1_555
Mg5 O11 2.109114 1_555
Mg5 O15 2.116646 1_556
Mg5 O15 2.116646 1_555
Mg5 O5 2.128866 1_555
Mg5 O7 2.128866 1_555
Mg5 O10 2.141218 1_565
Mg6 O8 2.099232 1_555
Mg6 O4 2.109176 1_555
Mg6 O5 2.109176 1_545
Mg6 O0 2.117503 1_555
Mg6 O0 2.117503 1_556
Mg6 O10 2.137461 1_555
Mg7 O9 2.069181 1_555
Mg7 O1 2.117418 1_556
Mg7 O1 2.117418 1_555
Mg7 O4 2.141528 1_555
Mg7 O5 2.141528 1_555
Mg7 O11 2.167511 1_555
Mg8 O8 2.099232 1_655
Mg8 O7 2.109176 1_545
Mg8 O6 2.109176 1_555
Mg8 O2 2.117503 1_555
Mg8 O2 2.117503 1_556
Mg8 O10 2.137461 1_555
Mg9 O9 2.069181 1_655
Mg9 O3 2.117418 1_556
Mg9 O3 2.117418 1_555
Mg9 O6 2.141528 1_555
Mg9 O7 2.141528 1_555
Mg9 O11 2.167511 1_555
Mg10 O1 2.085376 1_555
Mg10 O12 2.107217 1_555
Mg10 O4 2.116543 1_554
Mg10 O4 2.116543 1_555
Mg10 O14 2.143198 1_555
Mg10 O0 2.167325 1_555
Mg11 O1 2.085376 1_555
Mg11 O13 2.107217 1_555
Mg11 O5 2.116543 1_554
Mg11 O5 2.116543 1_555
Mg11 O15 2.143198 1_555
Mg11 O0 2.167325 1_565
Mg12 O3 2.085376 1_555
Mg12 O12 2.107217 1_655
Mg12 O6 2.116543 1_555
Mg12 O6 2.116543 1_554
Mg12 O14 2.143198 1_555
Mg12 O2 2.167325 1_555
Mg13 O3 2.085376 1_555
Mg13 O13 2.107217 1_655
Mg13 O7 2.116543 1_555
Mg13 O7 2.116543 1_554
Mg13 O15 2.143198 1_555
Mg13 O2 2.167325 1_565
Co0 O13 1.941325 1_545
Co0 O12 1.941325 1_555
Co0 O0 2.013004 1_555
Co0 O2 2.013004 1_455
Co0 O8 2.115747 1_554
Co0 O8 2.115747 1_555
