# generated using pymatgen
data_Lu6Sb2Mo
_symmetry_space_group_name_H-M   'P 1'
_cell_length_a   7.93307609
_cell_length_b   7.93308412
_cell_length_c   4.28349110
_cell_angle_alpha   90.00000000
_cell_angle_beta   90.00000000
_cell_angle_gamma   120.00004189
_symmetry_Int_Tables_number   1
_chemical_formula_structural   Lu6Sb2Mo
_chemical_formula_sum   'Lu6 Sb2 Mo1'
_cell_volume   233.45973953
_cell_formula_units_Z   1
loop_
 _symmetry_equiv_pos_site_id
 _symmetry_equiv_pos_as_xyz
  1  'x, y, z'
loop_
 _atom_site_type_symbol
 _atom_site_label
 _atom_site_symmetry_multiplicity
 _atom_site_fract_x
 _atom_site_fract_y
 _atom_site_fract_z
 _atom_site_occupancy
  Lu  Lu0  1  0.60630465  0.00000000  0.50000000  1
  Lu  Lu1  1  0.39369535  0.39369535  0.50000000  1
  Lu  Lu2  1  0.00000000  0.60630365  0.50000000  1
  Lu  Lu3  1  -0.00000000  0.23809591  -0.00000000  1
  Lu  Lu4  1  0.76190409  0.76190309  0.00000000  1
  Lu  Lu5  1  0.23809591  -0.00000000  0.00000000  1
  Sb  Sb0  1  0.66666700  0.33333300  0.00000000  1
  Sb  Sb1  1  0.33333300  0.66666700  0.00000000  1
  Mo  Mo0  1  0.00000000  0.00000100  0.50000000  1
loop_
_geom_bond_atom_site_label_1
_geom_bond_atom_site_label_2
_geom_bond_distance
_geom_bond_site_symmetry_2
Lu0 Mo0 3.123211 1_655
Lu0 Sb0 3.246958 1_555
Lu0 Sb0 3.246958 1_556
Lu0 Sb1 3.246958 1_546
Lu0 Sb1 3.246958 1_545
Lu1 Mo0 3.123211 1_555
Lu1 Sb0 3.246963 1_556
Lu1 Sb0 3.246963 1_555
Lu1 Sb1 3.246964 1_555
Lu1 Sb1 3.246964 1_556
Lu2 Mo0 3.123234 1_565
Lu2 Sb1 3.246954 1_556
Lu2 Sb1 3.246954 1_555
Lu2 Sb0 3.246956 1_456
Lu2 Sb0 3.246956 1_455
Lu3 Mo0 2.855651 1_554
Lu3 Mo0 2.855651 1_555
Lu3 Sb0 3.092137 1_455
Lu3 Sb1 3.092142 1_555
Lu4 Mo0 2.855660 1_664
Lu4 Mo0 2.855660 1_665
Lu4 Sb0 3.092139 1_555
Lu4 Sb1 3.092146 1_555
Lu5 Mo0 2.855657 1_554
Lu5 Mo0 2.855657 1_555
Lu5 Sb1 3.092139 1_545
Lu5 Sb0 3.092140 1_555
