# generated using pymatgen
data_Ba2La3Ti2Nb2O15
_symmetry_space_group_name_H-M   'P 1'
_cell_length_a   5.72241496
_cell_length_b   5.72241496
_cell_length_c   23.38059400
_cell_angle_alpha   90.00000000
_cell_angle_beta   90.00000000
_cell_angle_gamma   120.00001106
_symmetry_Int_Tables_number   1
_chemical_formula_structural   Ba2La3Ti2Nb2O15
_chemical_formula_sum   'Ba4 La6 Ti4 Nb4 O30'
_cell_volume   663.04776907
_cell_formula_units_Z   2
loop_
 _symmetry_equiv_pos_site_id
 _symmetry_equiv_pos_as_xyz
  1  'x, y, z'
loop_
 _atom_site_type_symbol
 _atom_site_label
 _atom_site_symmetry_multiplicity
 _atom_site_fract_x
 _atom_site_fract_y
 _atom_site_fract_z
 _atom_site_occupancy
  Ba  Ba0  1  0.33333300  0.66666700  0.53683600  1
  Ba  Ba1  1  0.66666700  0.33333300  0.46316400  1
  Ba  Ba2  1  0.66666700  0.33333300  0.96316400  1
  Ba  Ba3  1  0.33333300  0.66666700  0.03683600  1
  La  La0  1  0.33333300  0.66666700  0.85601700  1
  La  La1  1  0.66666700  0.33333300  0.14398300  1
  La  La2  1  0.66666700  0.33333300  0.64398300  1
  La  La3  1  0.33333300  0.66666700  0.35601700  1
  La  La4  1  0.00000000  0.00000000  0.75000000  1
  La  La5  1  0.00000000  0.00000000  0.25000000  1
  Ti  Ti0  1  0.33333300  0.66666700  0.70362900  1
  Ti  Ti1  1  0.66666700  0.33333300  0.29637100  1
  Ti  Ti2  1  0.66666700  0.33333300  0.79637100  1
  Ti  Ti3  1  0.33333300  0.66666700  0.20362900  1
  Nb  Nb0  1  0.00000000  0.00000000  0.59878700  1
  Nb  Nb1  1  0.00000000  0.00000000  0.40121300  1
  Nb  Nb2  1  0.00000000  0.00000000  0.90121300  1
  Nb  Nb3  1  0.00000000  0.00000000  0.09878700  1
  O  O0  1  0.44099700  0.00000000  0.75000000  1
  O  O1  1  0.55900300  0.00000000  0.25000000  1
  O  O2  1  0.00000000  0.44099700  0.75000000  1
  O  O3  1  0.00000000  0.55900300  0.25000000  1
  O  O4  1  0.55900300  0.55900300  0.75000000  1
  O  O5  1  0.44099700  0.44099700  0.25000000  1
  O  O6  1  0.34052500  0.13590500  0.56103500  1
  O  O7  1  0.65947500  0.86409500  0.43896500  1
  O  O8  1  0.86409500  0.20462000  0.56103500  1
  O  O9  1  0.13590500  0.34052500  0.93896500  1
  O  O10  1  0.13590500  0.79538000  0.43896500  1
  O  O11  1  0.86409500  0.65947500  0.06103500  1
  O  O12  1  0.79538000  0.65947500  0.56103500  1
  O  O13  1  0.20462000  0.86409500  0.93896500  1
  O  O14  1  0.20462000  0.34052500  0.43896500  1
  O  O15  1  0.79538000  0.13590500  0.06103500  1
  O  O16  1  0.65947500  0.79538000  0.93896500  1
  O  O17  1  0.34052500  0.20462000  0.06103500  1
  O  O18  1  0.22453700  0.32640000  0.65808800  1
  O  O19  1  0.77546300  0.67360000  0.34191200  1
  O  O20  1  0.67360000  0.89813700  0.65808800  1
  O  O21  1  0.32640000  0.22453700  0.84191200  1
  O  O22  1  0.32640000  0.10186300  0.34191200  1
  O  O23  1  0.67360000  0.77546300  0.15808800  1
  O  O24  1  0.10186300  0.77546300  0.65808800  1
  O  O25  1  0.89813700  0.67360000  0.84191200  1
  O  O26  1  0.89813700  0.22453700  0.34191200  1
  O  O27  1  0.10186300  0.32640000  0.15808800  1
  O  O28  1  0.77546300  0.10186300  0.84191200  1
  O  O29  1  0.22453700  0.89813700  0.15808800  1
loop_
_geom_bond_atom_site_label_1
_geom_bond_atom_site_label_2
_geom_bond_distance
_geom_bond_site_symmetry_2
Ba0 O6 2.724236 1_565
Ba0 O8 2.724238 1_455
Ba0 O12 2.724241 1_555
Ba0 O10 2.808422 1_555
Ba0 O7 2.808425 1_555
Ba0 O14 2.808425 1_555
Ba0 O12 3.109920 1_455
Ba0 O8 3.109922 1_565
Ba0 O6 3.109926 1_555
Ba0 O24 3.317172 1_555
Ba0 O20 3.317174 1_555
Ba0 O18 3.317175 1_555
Ba1 O7 2.724236 1_545
Ba1 O10 2.724238 1_655
Ba1 O14 2.724241 1_555
Ba1 O8 2.808422 1_555
Ba1 O6 2.808425 1_555
Ba1 O12 2.808425 1_555
Ba1 O14 3.109920 1_655
Ba1 O10 3.109922 1_545
Ba1 O7 3.109926 1_555
Ba1 O26 3.317172 1_555
Ba1 O22 3.317174 1_555
Ba1 O19 3.317175 1_555
Ba2 O9 2.724236 1_655
Ba2 O13 2.724238 1_545
Ba2 O16 2.724241 1_555
Ba2 O15 2.808422 1_556
Ba2 O11 2.808425 1_556
Ba2 O17 2.808425 1_556
Ba2 O16 3.109920 1_545
Ba2 O13 3.109922 1_655
Ba2 O9 3.109926 1_555
Ba2 O28 3.317172 1_555
Ba2 O25 3.317174 1_555
Ba2 O21 3.317175 1_555
Ba3 O11 2.724236 1_455
Ba3 O15 2.724238 1_565
Ba3 O17 2.724241 1_555
Ba3 O13 2.808422 1_554
Ba3 O9 2.808425 1_554
Ba3 O16 2.808425 1_554
Ba3 O17 3.109920 1_565
Ba3 O15 3.109922 1_455
Ba3 O11 3.109926 1_555
Ba3 O29 3.317172 1_555
Ba3 O27 3.317174 1_555
Ba3 O23 3.317175 1_555
La0 O25 2.532012 1_455
La0 O28 2.532015 1_565
La0 O21 2.532018 1_555
La0 O13 2.532226 1_555
La0 O9 2.532229 1_555
La0 O16 2.532230 1_555
La1 O27 2.532012 1_655
La1 O29 2.532015 1_545
La1 O23 2.532018 1_555
La1 O15 2.532226 1_555
La1 O11 2.532229 1_555
La1 O17 2.532230 1_555
La2 O20 2.532012 1_545
La2 O24 2.532015 1_655
La2 O18 2.532018 1_555
La2 O8 2.532226 1_555
La2 O6 2.532229 1_555
La2 O12 2.532230 1_555
La3 O22 2.532012 1_565
La3 O26 2.532015 1_455
La3 O19 2.532018 1_555
La3 O10 2.532226 1_555
La3 O7 2.532229 1_555
La3 O14 2.532230 1_555
La4 O4 2.523567 1_445
La4 O0 2.523568 1_555
La4 O2 2.523568 1_555
La4 O18 2.712510 1_555
La4 O21 2.712510 1_555
La4 O20 2.712510 1_445
La4 O25 2.712510 1_445
La4 O28 2.712510 1_455
La4 O24 2.712510 1_545
La5 O5 2.523567 1_555
La5 O1 2.523568 1_455
La5 O3 2.523568 1_545
La5 O19 2.712510 1_445
La5 O23 2.712510 1_445
La5 O27 2.712510 1_555
La5 O22 2.712510 1_555
La5 O29 2.712510 1_545
La5 O26 2.712510 1_455
Nb0 O12 1.914577 1_445
Nb0 O6 1.914577 1_555
Nb0 O8 1.914577 1_455
Nb0 O18 2.159179 1_555
Nb0 O20 2.159180 1_445
Nb0 O24 2.159180 1_545
Nb1 O14 1.914577 1_555
Nb1 O7 1.914577 1_445
Nb1 O10 1.914577 1_545
Nb1 O19 2.159179 1_445
Nb1 O22 2.159180 1_555
Nb1 O26 2.159180 1_455
Nb2 O16 1.914577 1_445
Nb2 O9 1.914577 1_555
Nb2 O13 1.914577 1_545
Nb2 O21 2.159179 1_555
Nb2 O25 2.159180 1_445
Nb2 O28 2.159180 1_455
Nb3 O17 1.914577 1_555
Nb3 O11 1.914577 1_445
Nb3 O15 1.914577 1_455
Nb3 O23 2.159179 1_445
Nb3 O27 2.159180 1_555
Nb3 O29 2.159180 1_545
O0 Ti0 2.004564 1_545
O0 Ti2 2.004565 1_555
O1 Ti1 2.004564 1_555
O1 Ti3 2.004565 1_545
O2 Ti2 2.004564 1_455
O2 Ti0 2.004565 1_555
O3 Ti3 2.004564 1_555
O3 Ti1 2.004565 1_455
O4 Ti2 2.004569 1_555
O4 Ti0 2.004569 1_555
O5 Ti1 2.004569 1_555
O5 Ti3 2.004569 1_555
O18 Ti0 2.024966 1_555
O19 Ti1 2.024966 1_555
O20 Ti0 2.024965 1_555
O21 Ti2 2.024966 1_555
O22 Ti1 2.024965 1_555
O23 Ti3 2.024966 1_555
O24 Ti0 2.024962 1_555
O25 Ti2 2.024965 1_555
O26 Ti1 2.024962 1_555
O27 Ti3 2.024965 1_555
O28 Ti2 2.024962 1_555
O29 Ti3 2.024962 1_555
