# generated using pymatgen
data_P2Ir
_symmetry_space_group_name_H-M   'P 1'
_cell_length_a   5.77233510
_cell_length_b   5.80673151
_cell_length_c   5.87245964
_cell_angle_alpha   90.00000000
_cell_angle_beta   111.25101518
_cell_angle_gamma   90.00000000
_symmetry_Int_Tables_number   1
_chemical_formula_structural   P2Ir
_chemical_formula_sum   'P8 Ir4'
_cell_volume   183.45092592
_cell_formula_units_Z   4
loop_
 _symmetry_equiv_pos_site_id
 _symmetry_equiv_pos_as_xyz
  1  'x, y, z'
loop_
 _atom_site_type_symbol
 _atom_site_label
 _atom_site_symmetry_multiplicity
 _atom_site_fract_x
 _atom_site_fract_y
 _atom_site_fract_z
 _atom_site_occupancy
  P  P0  1  0.15800670  0.88188186  0.87028772  1
  P  P1  1  0.84199330  0.38188186  0.62971228  1
  P  P2  1  0.84199330  0.11811814  0.12971228  1
  P  P3  1  0.15800670  0.61811814  0.37028772  1
  P  P4  1  0.33432299  0.37720527  0.18854639  1
  P  P5  1  0.66567701  0.87720527  0.31145361  1
  P  P6  1  0.66567701  0.62279473  0.81145361  1
  P  P7  1  0.33432299  0.12279473  0.68854639  1
  Ir  Ir0  1  0.27186641  0.49883041  0.79157869  1
  Ir  Ir1  1  0.72813359  0.99883041  0.70842131  1
  Ir  Ir2  1  0.72813359  0.50116959  0.20842131  1
  Ir  Ir3  1  0.27186641  0.00116959  0.29157869  1
loop_
_geom_bond_atom_site_label_1
_geom_bond_atom_site_label_2
_geom_bond_distance
_geom_bond_site_symmetry_2
P0 P7 2.217942 1_565
P1 P6 2.217942 1_555
P2 P5 2.217942 1_545
P3 P4 2.217942 1_555
Ir0 P7 2.328525 1_555
Ir0 P4 2.335359 1_556
Ir0 P6 2.346681 1_555
Ir0 P1 2.410828 1_455
Ir0 P0 2.411064 1_555
Ir0 P3 2.419461 1_555
Ir1 P6 2.328525 1_555
Ir1 P5 2.335359 1_555
Ir1 P7 2.346681 1_565
Ir1 P0 2.410828 1_655
Ir1 P1 2.411064 1_565
Ir1 P2 2.419461 1_566
Ir2 P5 2.328525 1_555
Ir2 P6 2.335359 1_554
Ir2 P4 2.346681 1_555
Ir2 P3 2.410828 1_655
Ir2 P2 2.411064 1_555
Ir2 P1 2.419461 1_555
Ir3 P4 2.328525 1_555
Ir3 P7 2.335359 1_555
Ir3 P5 2.346681 1_545
Ir3 P2 2.410828 1_455
Ir3 P3 2.411064 1_545
Ir3 P0 2.419461 1_544
