# generated using pymatgen
data_FeCu(RhSe2)4
_symmetry_space_group_name_H-M   'P 1'
_cell_length_a   7.36059268
_cell_length_b   7.36059268
_cell_length_c   7.36059268
_cell_angle_alpha   60.00000000
_cell_angle_beta   60.00000000
_cell_angle_gamma   60.00000000
_symmetry_Int_Tables_number   1
_chemical_formula_structural   FeCu(RhSe2)4
_chemical_formula_sum   'Fe1 Cu1 Rh4 Se8'
_cell_volume   281.98328077
_cell_formula_units_Z   1
loop_
 _symmetry_equiv_pos_site_id
 _symmetry_equiv_pos_as_xyz
  1  'x, y, z'
loop_
 _atom_site_type_symbol
 _atom_site_label
 _atom_site_symmetry_multiplicity
 _atom_site_fract_x
 _atom_site_fract_y
 _atom_site_fract_z
 _atom_site_occupancy
  Fe  Fe0  1  0.50000000  0.50000000  0.50000000  1
  Cu  Cu0  1  0.75000000  0.75000000  0.75000000  1
  Rh  Rh0  1  0.62753500  0.12415500  0.12415500  1
  Rh  Rh1  1  0.12415500  0.62753500  0.12415500  1
  Rh  Rh2  1  0.12415500  0.12415500  0.62753500  1
  Rh  Rh3  1  0.12415500  0.12415500  0.12415500  1
  Se  Se0  1  0.34327700  0.88557400  0.88557400  1
  Se  Se1  1  0.88557400  0.34327700  0.88557400  1
  Se  Se2  1  0.88557400  0.88557400  0.34327700  1
  Se  Se3  1  0.88557400  0.88557400  0.88557400  1
  Se  Se4  1  0.89925700  0.36691400  0.36691400  1
  Se  Se5  1  0.36691400  0.89925700  0.36691400  1
  Se  Se6  1  0.36691400  0.36691400  0.89925700  1
  Se  Se7  1  0.36691400  0.36691400  0.36691400  1
loop_
_geom_bond_atom_site_label_1
_geom_bond_atom_site_label_2
_geom_bond_distance
_geom_bond_site_symmetry_2
Fe0 Se5 2.399494 1_555
Fe0 Se4 2.399494 1_555
Fe0 Se6 2.399494 1_555
Fe0 Se7 2.399500 1_555
Cu0 Se3 2.444358 1_555
Cu0 Se2 2.444364 1_555
Cu0 Se0 2.444364 1_555
Cu0 Se1 2.444364 1_555
Rh0 Se2 2.487618 1_545
Rh0 Se1 2.487618 1_554
Rh0 Se3 2.487623 1_544
Rh0 Se7 2.530406 1_555
Rh0 Se6 2.530411 1_554
Rh0 Se5 2.530411 1_545
Rh1 Se0 2.487618 1_554
Rh1 Se2 2.487618 1_455
Rh1 Se3 2.487623 1_454
Rh1 Se7 2.530406 1_555
Rh1 Se4 2.530411 1_455
Rh1 Se6 2.530411 1_554
Rh2 Se1 2.487618 1_455
Rh2 Se0 2.487618 1_545
Rh2 Se3 2.487623 1_445
Rh2 Se7 2.530406 1_555
Rh2 Se4 2.530411 1_455
Rh2 Se5 2.530411 1_545
Rh3 Se2 2.487624 1_445
Rh3 Se1 2.487624 1_454
Rh3 Se0 2.487624 1_544
Rh3 Se4 2.530405 1_455
Rh3 Se6 2.530405 1_554
Rh3 Se5 2.530405 1_545
