# generated using pymatgen
data_TiTc2Sn
_symmetry_space_group_name_H-M   'P 1'
_cell_length_a   4.47857510
_cell_length_b   4.47857510
_cell_length_c   4.47857510
_cell_angle_alpha   60.00000000
_cell_angle_beta   60.00000000
_cell_angle_gamma   60.00000000
_symmetry_Int_Tables_number   1
_chemical_formula_structural   TiTc2Sn
_chemical_formula_sum   'Ti1 Tc2 Sn1'
_cell_volume   63.51913633
_cell_formula_units_Z   1
loop_
 _symmetry_equiv_pos_site_id
 _symmetry_equiv_pos_as_xyz
  1  'x, y, z'
loop_
 _atom_site_type_symbol
 _atom_site_label
 _atom_site_symmetry_multiplicity
 _atom_site_fract_x
 _atom_site_fract_y
 _atom_site_fract_z
 _atom_site_occupancy
  Ti  Ti0  1  0.00000000  -0.00000000  0.00000000  1
  Tc  Tc0  1  0.75000000  0.75000000  0.75000000  1
  Tc  Tc1  1  0.25000000  0.25000000  0.25000000  1
  Sn  Sn0  1  0.50000000  0.50000000  0.50000000  1
loop_
_geom_bond_atom_site_label_1
_geom_bond_atom_site_label_2
_geom_bond_distance
_geom_bond_site_symmetry_2
Tc0 Ti0 2.742556 1_566
Tc0 Ti0 2.742556 1_665
Tc0 Ti0 2.742556 1_656
Tc0 Ti0 2.742556 1_666
Tc1 Ti0 2.742556 1_565
Tc1 Ti0 2.742556 1_655
Tc1 Ti0 2.742556 1_556
Tc1 Ti0 2.742556 1_555
Sn0 Tc0 2.742556 1_455
Sn0 Tc0 2.742556 1_545
Sn0 Tc0 2.742556 1_555
Sn0 Tc0 2.742556 1_554
Sn0 Tc1 2.742556 1_556
Sn0 Tc1 2.742556 1_565
Sn0 Tc1 2.742556 1_555
Sn0 Tc1 2.742556 1_655
