# generated using pymatgen
data_CaEu(SnO3)4
_symmetry_space_group_name_H-M   'P 1'
_cell_length_a   5.70944091
_cell_length_b   5.70944091
_cell_length_c   8.07196522
_cell_angle_alpha   90.00000000
_cell_angle_beta   90.00000000
_cell_angle_gamma   89.61005747
_symmetry_Int_Tables_number   1
_chemical_formula_structural   CaEu(SnO3)4
_chemical_formula_sum   'Ca1 Eu1 Sn4 O12'
_cell_volume   263.12153202
_cell_formula_units_Z   1
loop_
 _symmetry_equiv_pos_site_id
 _symmetry_equiv_pos_as_xyz
  1  'x, y, z'
loop_
 _atom_site_type_symbol
 _atom_site_label
 _atom_site_symmetry_multiplicity
 _atom_site_fract_x
 _atom_site_fract_y
 _atom_site_fract_z
 _atom_site_occupancy
  Ca  Ca0  1  0.47394677  0.52605323  0.00000000  1
  Eu  Eu0  1  0.02251770  0.97748230  0.50000000  1
  Sn  Sn0  1  0.51110162  0.01119772  0.24474656  1
  Sn  Sn1  1  0.51110162  0.01119772  0.75525344  1
  Sn  Sn2  1  0.98880228  0.48889838  0.75525344  1
  Sn  Sn3  1  0.98880228  0.48889838  0.24474656  1
  O  O0  1  0.19593414  0.19081059  0.27456574  1
  O  O1  1  0.80918941  0.80406586  0.27456574  1
  O  O2  1  0.80918941  0.80406586  0.72543426  1
  O  O3  1  0.19593414  0.19081059  0.72543426  1
  O  O4  1  0.27575528  0.72424472  0.30096551  1
  O  O5  1  0.68309832  0.31690168  0.19427765  1
  O  O6  1  0.68309832  0.31690168  0.80572235  1
  O  O7  1  0.27575528  0.72424472  0.69903449  1
  O  O8  1  0.47590157  0.92357242  -0.00000000  1
  O  O9  1  0.57765127  0.04540698  0.50000000  1
  O  O10  1  0.07642758  0.52409843  -0.00000000  1
  O  O11  1  0.95459302  0.42234873  0.50000000  1
loop_
_geom_bond_atom_site_label_1
_geom_bond_atom_site_label_2
_geom_bond_distance
_geom_bond_site_symmetry_2
Ca0 O8 2.269716 1_555
Ca0 O10 2.269716 1_555
Ca0 O6 2.300387 1_554
Ca0 O5 2.300387 1_555
Ca0 O4 2.906087 1_555
Ca0 O7 2.906087 1_554
Eu0 O3 2.406558 1_565
Eu0 O0 2.406558 1_565
Eu0 O2 2.406558 1_455
Eu0 O1 2.406558 1_455
Eu0 O11 2.566764 1_465
Eu0 O9 2.566764 1_465
Eu0 O7 2.594926 1_555
Eu0 O4 2.594926 1_555
O0 Sn0 2.079037 1_555
O0 Sn3 2.079811 1_455
O1 Sn3 2.079037 1_555
O1 Sn0 2.079811 1_565
O2 Sn2 2.079037 1_555
O2 Sn1 2.079811 1_565
O3 Sn1 2.079037 1_555
O3 Sn2 2.079811 1_455
O4 Sn3 2.173839 1_455
O4 Sn0 2.173839 1_565
O5 Sn3 2.049400 1_555
O5 Sn0 2.049400 1_555
O6 Sn1 2.049400 1_555
O6 Sn2 2.049400 1_555
O7 Sn2 2.173839 1_455
O7 Sn1 2.173839 1_565
O8 Sn1 2.048167 1_564
O8 Sn0 2.048167 1_565
O9 Sn0 2.104463 1_555
O9 Sn1 2.104463 1_555
O10 Sn2 2.048167 1_454
O10 Sn3 2.048167 1_455
O11 Sn3 2.104463 1_555
O11 Sn2 2.104463 1_555
