# generated using pymatgen
data_Mg14MnCoO16
_symmetry_space_group_name_H-M   'P 1'
_cell_length_a   4.28418500
_cell_length_b   8.54460600
_cell_length_c   8.56881600
_cell_angle_alpha   90.00000000
_cell_angle_beta   90.00000000
_cell_angle_gamma   90.00000000
_symmetry_Int_Tables_number   1
_chemical_formula_structural   Mg14MnCoO16
_chemical_formula_sum   'Mg14 Mn1 Co1 O16'
_cell_volume   313.67584408
_cell_formula_units_Z   1
loop_
 _symmetry_equiv_pos_site_id
 _symmetry_equiv_pos_as_xyz
  1  'x, y, z'
loop_
 _atom_site_type_symbol
 _atom_site_label
 _atom_site_symmetry_multiplicity
 _atom_site_fract_x
 _atom_site_fract_y
 _atom_site_fract_z
 _atom_site_occupancy
  Mg  Mg0  1  0.00000000  0.50000000  0.00000000  1
  Mg  Mg1  1  0.00000000  0.50000000  0.50000000  1
  Mg  Mg2  1  0.50000000  0.00000000  0.25311600  1
  Mg  Mg3  1  0.50000000  0.00000000  0.74688400  1
  Mg  Mg4  1  0.50000000  0.50000000  0.24999600  1
  Mg  Mg5  1  0.50000000  0.50000000  0.75000400  1
  Mg  Mg6  1  0.50000000  0.25169700  0.00000000  1
  Mg  Mg7  1  0.50000000  0.24904500  0.50000000  1
  Mg  Mg8  1  0.50000000  0.74830300  0.00000000  1
  Mg  Mg9  1  0.50000000  0.75095500  0.50000000  1
  Mg  Mg10  1  0.00000000  0.25033700  0.25098800  1
  Mg  Mg11  1  0.00000000  0.25033700  0.74901200  1
  Mg  Mg12  1  0.00000000  0.74966300  0.25098800  1
  Mg  Mg13  1  0.00000000  0.74966300  0.74901200  1
  Mn  Mn0  1  0.00000000  0.00000000  0.00000000  1
  Co  Co0  1  0.00000000  0.00000000  0.50000000  1
  O  O0  1  0.00000000  0.25743200  0.00000000  1
  O  O1  1  0.00000000  0.25205400  0.50000000  1
  O  O2  1  0.00000000  0.74256800  0.00000000  1
  O  O3  1  0.00000000  0.74794600  0.50000000  1
  O  O4  1  0.50000000  0.24933400  0.25012300  1
  O  O5  1  0.50000000  0.24933400  0.74987700  1
  O  O6  1  0.50000000  0.75066600  0.25012300  1
  O  O7  1  0.50000000  0.75066600  0.74987700  1
  O  O8  1  0.50000000  0.00000000  0.00000000  1
  O  O9  1  0.50000000  0.00000000  0.50000000  1
  O  O10  1  0.50000000  0.50000000  0.00000000  1
  O  O11  1  0.50000000  0.50000000  0.50000000  1
  O  O12  1  0.00000000  0.00000000  0.25430900  1
  O  O13  1  0.00000000  0.00000000  0.74569100  1
  O  O14  1  0.00000000  0.50000000  0.25112100  1
  O  O15  1  0.00000000  0.50000000  0.74887900  1
loop_
_geom_bond_atom_site_label_1
_geom_bond_atom_site_label_2
_geom_bond_distance
_geom_bond_site_symmetry_2
Mg0 O0 2.072648 1_555
Mg0 O2 2.072648 1_555
Mg0 O10 2.142092 1_455
Mg0 O10 2.142092 1_555
Mg0 O14 2.151810 1_555
Mg0 O15 2.151810 1_554
Mg1 O1 2.118601 1_555
Mg1 O3 2.118601 1_555
Mg1 O15 2.132598 1_555
Mg1 O14 2.132598 1_555
Mg1 O11 2.142092 1_455
Mg1 O11 2.142092 1_555
Mg2 O9 2.115504 1_555
Mg2 O4 2.130615 1_555
Mg2 O6 2.130615 1_545
Mg2 O12 2.142117 1_655
Mg2 O12 2.142117 1_555
Mg2 O8 2.168904 1_555
Mg3 O9 2.115504 1_555
Mg3 O5 2.130615 1_555
Mg3 O7 2.130615 1_545
Mg3 O13 2.142117 1_655
Mg3 O13 2.142117 1_555
Mg3 O8 2.168904 1_556
Mg4 O4 2.141842 1_555
Mg4 O6 2.141842 1_555
Mg4 O14 2.142114 1_555
Mg4 O14 2.142114 1_655
Mg4 O10 2.142170 1_555
Mg4 O11 2.142238 1_555
Mg5 O5 2.141842 1_555
Mg5 O7 2.141842 1_555
Mg5 O15 2.142114 1_555
Mg5 O15 2.142114 1_655
Mg5 O10 2.142170 1_556
Mg5 O11 2.142238 1_555
Mg6 O10 2.121651 1_555
Mg6 O0 2.142653 1_555
Mg6 O0 2.142653 1_655
Mg6 O4 2.143353 1_555
Mg6 O5 2.143353 1_554
Mg6 O8 2.150652 1_555
Mg7 O9 2.127991 1_555
Mg7 O5 2.141151 1_555
Mg7 O4 2.141151 1_555
Mg7 O1 2.142247 1_555
Mg7 O1 2.142247 1_655
Mg7 O11 2.144312 1_555
Mg8 O10 2.121651 1_555
Mg8 O2 2.142653 1_655
Mg8 O2 2.142653 1_555
Mg8 O6 2.143353 1_555
Mg8 O7 2.143353 1_554
Mg8 O8 2.150652 1_565
Mg9 O9 2.127991 1_565
Mg9 O6 2.141151 1_555
Mg9 O7 2.141151 1_555
Mg9 O3 2.142247 1_655
Mg9 O3 2.142247 1_555
Mg9 O11 2.144312 1_555
Mg10 O14 2.133272 1_555
Mg10 O1 2.133788 1_555
Mg10 O12 2.139220 1_555
Mg10 O4 2.142122 1_455
Mg10 O4 2.142122 1_555
Mg10 O0 2.151524 1_555
Mg11 O15 2.133272 1_555
Mg11 O1 2.133788 1_555
Mg11 O13 2.139220 1_555
Mg11 O5 2.142122 1_455
Mg11 O5 2.142122 1_555
Mg11 O0 2.151524 1_556
Mg12 O14 2.133272 1_555
Mg12 O3 2.133788 1_555
Mg12 O12 2.139220 1_565
Mg12 O6 2.142122 1_455
Mg12 O6 2.142122 1_555
Mg12 O2 2.151524 1_555
Mg13 O15 2.133272 1_555
Mg13 O3 2.133788 1_555
Mg13 O13 2.139220 1_565
Mg13 O7 2.142122 1_555
Mg13 O7 2.142122 1_455
Mg13 O2 2.151524 1_556
Mn0 O8 2.142092 1_455
Mn0 O8 2.142092 1_555
Mn0 O13 2.179127 1_554
Mn0 O12 2.179127 1_555
Mn0 O0 2.199655 1_555
Mn0 O2 2.199655 1_545
Co0 O12 2.105281 1_555
Co0 O13 2.105281 1_555
Co0 O9 2.142092 1_555
Co0 O9 2.142092 1_455
Co0 O1 2.153702 1_555
Co0 O3 2.153702 1_545
