# generated using pymatgen
data_CaMg6Al
_symmetry_space_group_name_H-M   'P 1'
_cell_length_a   5.16090900
_cell_length_b   6.44642200
_cell_length_c   11.52721300
_cell_angle_alpha   90.00000000
_cell_angle_beta   90.00000000
_cell_angle_gamma   90.00000000
_symmetry_Int_Tables_number   1
_chemical_formula_structural   CaMg6Al
_chemical_formula_sum   'Ca2 Mg12 Al2'
_cell_volume   383.50342926
_cell_formula_units_Z   2
loop_
 _symmetry_equiv_pos_site_id
 _symmetry_equiv_pos_as_xyz
  1  'x, y, z'
loop_
 _atom_site_type_symbol
 _atom_site_label
 _atom_site_symmetry_multiplicity
 _atom_site_fract_x
 _atom_site_fract_y
 _atom_site_fract_z
 _atom_site_occupancy
  Ca  Ca0  1  0.50000000  0.50000000  0.16850400  1
  Ca  Ca1  1  0.50000000  0.00000000  0.66850400  1
  Mg  Mg0  1  0.50000000  0.25325700  0.41787000  1
  Mg  Mg1  1  0.50000000  0.74674300  0.41787000  1
  Mg  Mg2  1  0.00000000  0.76203500  0.08265400  1
  Mg  Mg3  1  0.00000000  0.23796500  0.08265400  1
  Mg  Mg4  1  0.00000000  0.00000000  0.32941300  1
  Mg  Mg5  1  0.00000000  0.50000000  0.33851800  1
  Mg  Mg6  1  0.50000000  0.75325700  0.91787000  1
  Mg  Mg7  1  0.50000000  0.24674300  0.91787000  1
  Mg  Mg8  1  0.00000000  0.26203500  0.58265400  1
  Mg  Mg9  1  0.00000000  0.73796500  0.58265400  1
  Mg  Mg10  1  0.00000000  0.50000000  0.82941300  1
  Mg  Mg11  1  0.00000000  0.00000000  0.83851800  1
  Al  Al0  1  0.50000000  0.00000000  0.16251100  1
  Al  Al1  1  0.50000000  0.50000000  0.66251100  1
loop_
_geom_bond_atom_site_label_1
_geom_bond_atom_site_label_2
_geom_bond_distance
_geom_bond_site_symmetry_2
Ca0 Mg2 3.239048 1_655
Ca0 Mg2 3.239048 1_555
Ca0 Mg3 3.239048 1_655
Ca0 Mg3 3.239048 1_555
Ca0 Mg5 3.240295 1_555
Ca0 Mg5 3.240295 1_655
Ca0 Mg1 3.285234 1_555
Ca0 Mg0 3.285234 1_555
Ca0 Mg6 3.318487 1_554
Ca0 Mg7 3.318487 1_554
Ca1 Mg8 3.239048 1_555
Ca1 Mg8 3.239048 1_655
Ca1 Mg9 3.239048 1_545
Ca1 Mg9 3.239048 1_645
Ca1 Mg11 3.240295 1_555
Ca1 Mg11 3.240295 1_655
Ca1 Mg7 3.285234 1_555
Ca1 Mg6 3.285234 1_545
Ca1 Mg0 3.318487 1_555
Ca1 Mg1 3.318487 1_545
Mg0 Mg5 3.166303 1_655
Mg0 Mg5 3.166303 1_555
Mg0 Mg1 3.181219 1_555
Mg0 Mg8 3.204692 1_555
Mg0 Mg8 3.204692 1_655
Mg0 Mg4 3.219293 1_555
Mg0 Mg4 3.219293 1_655
Mg0 Mg1 3.265203 1_545
Mg1 Mg5 3.166303 1_655
Mg1 Mg5 3.166303 1_555
Mg1 Mg9 3.204692 1_655
Mg1 Mg9 3.204692 1_555
Mg1 Mg4 3.219293 1_565
Mg1 Mg4 3.219293 1_665
Mg2 Mg3 3.068046 1_565
Mg2 Mg6 3.204692 1_454
Mg2 Mg6 3.204692 1_554
Mg2 Mg4 3.231731 1_565
Mg2 Mg3 3.378376 1_555
Mg2 Mg5 3.398869 1_555
Mg3 Mg7 3.204692 1_554
Mg3 Mg7 3.204692 1_454
Mg3 Mg4 3.231731 1_555
Mg3 Mg5 3.398869 1_555
Mg4 Mg5 3.224919 1_545
Mg4 Mg5 3.224919 1_555
Mg4 Mg8 3.372665 1_555
Mg4 Mg9 3.372665 1_545
Mg5 Mg9 3.205151 1_555
Mg5 Mg8 3.205151 1_555
Mg6 Mg7 3.181219 1_565
Mg6 Mg7 3.265203 1_555
Mg8 Mg9 3.068046 1_555
Mg8 Mg9 3.378376 1_545
Mg10 Mg6 3.219293 1_455
Mg10 Mg7 3.219293 1_555
Mg10 Mg6 3.219293 1_555
Mg10 Mg7 3.219293 1_455
Mg10 Mg11 3.224919 1_555
Mg10 Mg11 3.224919 1_565
Mg10 Mg9 3.231731 1_555
Mg10 Mg8 3.231731 1_555
Mg10 Mg2 3.372665 1_556
Mg10 Mg3 3.372665 1_556
Mg11 Mg7 3.166303 1_555
Mg11 Mg7 3.166303 1_455
Mg11 Mg6 3.166303 1_445
Mg11 Mg6 3.166303 1_545
Mg11 Mg3 3.205151 1_556
Mg11 Mg2 3.205151 1_546
Mg11 Mg8 3.398869 1_555
Mg11 Mg9 3.398869 1_545
Al0 Mg3 3.139959 1_555
Al0 Mg3 3.139959 1_655
Al0 Mg2 3.139959 1_645
Al0 Mg2 3.139959 1_545
Al0 Mg4 3.218726 1_655
Al0 Mg4 3.218726 1_555
Al0 Ca0 3.223951 1_545
Al0 Ca0 3.223951 1_555
Al0 Mg7 3.237685 1_554
Al0 Mg6 3.237685 1_544
Al0 Mg0 3.366012 1_555
Al0 Mg1 3.366012 1_545
Al1 Mg9 3.139959 1_655
Al1 Mg9 3.139959 1_555
Al1 Mg8 3.139959 1_555
Al1 Mg8 3.139959 1_655
Al1 Mg10 3.218726 1_555
Al1 Mg10 3.218726 1_655
Al1 Ca1 3.223951 1_555
Al1 Ca1 3.223951 1_565
Al1 Mg1 3.237685 1_555
Al1 Mg0 3.237685 1_555
Al1 Mg6 3.366012 1_555
Al1 Mg7 3.366012 1_555
