# generated using pymatgen
data_CdRh2Pb
_symmetry_space_group_name_H-M   'P 1'
_cell_length_a   4.66766277
_cell_length_b   4.66766277
_cell_length_c   4.66766277
_cell_angle_alpha   60.00000000
_cell_angle_beta   60.00000000
_cell_angle_gamma   60.00000000
_symmetry_Int_Tables_number   1
_chemical_formula_structural   CdRh2Pb
_chemical_formula_sum   'Cd1 Rh2 Pb1'
_cell_volume   71.90902793
_cell_formula_units_Z   1
loop_
 _symmetry_equiv_pos_site_id
 _symmetry_equiv_pos_as_xyz
  1  'x, y, z'
loop_
 _atom_site_type_symbol
 _atom_site_label
 _atom_site_symmetry_multiplicity
 _atom_site_fract_x
 _atom_site_fract_y
 _atom_site_fract_z
 _atom_site_occupancy
  Cd  Cd0  1  0.25000000  0.25000000  0.25000000  1
  Rh  Rh0  1  0.50000100  0.50000100  0.50000100  1
  Rh  Rh1  1  0.00000000  0.00000000  0.00000000  1
  Pb  Pb0  1  0.75000000  0.75000000  0.75000000  1
loop_
_geom_bond_atom_site_label_1
_geom_bond_atom_site_label_2
_geom_bond_distance
_geom_bond_site_symmetry_2
Cd0 Rh0 2.858344 1_455
Cd0 Rh0 2.858344 1_554
Cd0 Rh0 2.858344 1_545
Cd0 Rh1 2.858348 1_655
Cd0 Rh1 2.858348 1_555
Cd0 Rh1 2.858348 1_556
Cd0 Rh1 2.858348 1_565
Cd0 Rh0 2.858359 1_555
Cd0 Pb0 3.300536 1_455
Cd0 Pb0 3.300536 1_545
Cd0 Pb0 3.300536 1_454
Cd0 Pb0 3.300536 1_544
Cd0 Pb0 3.300536 1_554
Cd0 Pb0 3.300536 1_445
Pb0 Rh0 2.858337 1_555
Pb0 Rh1 2.858348 1_566
Pb0 Rh1 2.858348 1_666
Pb0 Rh1 2.858348 1_665
Pb0 Rh1 2.858348 1_656
Pb0 Rh0 2.858352 1_655
Pb0 Rh0 2.858352 1_565
Pb0 Rh0 2.858352 1_556
