# generated using pymatgen
data_UCd
_symmetry_space_group_name_H-M   'P 1'
_cell_length_a   13.09742199
_cell_length_b   13.09742199
_cell_length_c   13.09742061
_cell_angle_alpha   25.86164889
_cell_angle_beta   25.86164889
_cell_angle_gamma   25.86164015
_symmetry_Int_Tables_number   1
_chemical_formula_structural   UCd
_chemical_formula_sum   'U8 Cd8'
_cell_volume   376.49934560
_cell_formula_units_Z   8
loop_
 _symmetry_equiv_pos_site_id
 _symmetry_equiv_pos_as_xyz
  1  'x, y, z'
loop_
 _atom_site_type_symbol
 _atom_site_label
 _atom_site_symmetry_multiplicity
 _atom_site_fract_x
 _atom_site_fract_y
 _atom_site_fract_z
 _atom_site_occupancy
  U  U0_0  1  0.34406050  0.34406050  0.34406050  1
  U  U0_1  1  0.34406050  0.34406050  0.84406050  1
  U  U0_2  1  0.34406050  0.84406050  0.34406050  1
  U  U0_3  1  0.34406050  0.84406050  0.84406050  1
  U  U0_4  1  0.84406050  0.34406050  0.34406050  1
  U  U0_5  1  0.84406050  0.34406050  0.84406050  1
  U  U0_6  1  0.84406050  0.84406050  0.34406050  1
  U  U0_7  1  0.84406050  0.84406050  0.84406050  1
  Cd  Cd0_0  1  0.43343950  0.43343950  0.43343950  1
  Cd  Cd0_1  1  0.43343950  0.43343950  0.93343950  1
  Cd  Cd0_2  1  0.43343950  0.93343950  0.43343950  1
  Cd  Cd0_3  1  0.43343950  0.93343950  0.93343950  1
  Cd  Cd0_4  1  0.93343950  0.43343950  0.43343950  1
  Cd  Cd0_5  1  0.93343950  0.43343950  0.93343950  1
  Cd  Cd0_6  1  0.93343950  0.93343950  0.43343950  1
  Cd  Cd0_7  1  0.93343950  0.93343950  0.93343950  1
loop_
_geom_bond_atom_site_label_1
_geom_bond_atom_site_label_2
_geom_bond_distance
_geom_bond_site_symmetry_2
U0_0 U0_6 2.930868 1_455
U0_0 U0_6 2.930868 1_545
U0_0 U0_5 2.930869 1_554
U0_0 U0_3 2.930869 1_554
U0_0 U0_3 2.930869 1_545
U0_0 U0_5 2.930869 1_455
U0_1 U0_7 2.930868 1_455
U0_1 U0_7 2.930868 1_545
U0_1 U0_4 2.930869 1_555
U0_1 U0_2 2.930869 1_555
U0_1 U0_2 2.930869 1_546
U0_1 U0_4 2.930869 1_456
U0_2 U0_4 2.930868 1_555
U0_2 U0_4 2.930868 1_465
U0_2 U0_7 2.930869 1_554
U0_2 U0_7 2.930869 1_455
U0_3 U0_5 2.930868 1_555
U0_3 U0_5 2.930868 1_465
U0_3 U0_6 2.930869 1_456
U0_3 U0_6 2.930869 1_555
U0_4 U0_7 2.930869 1_545
U0_4 U0_7 2.930869 1_554
U0_5 U0_6 2.930869 1_546
U0_5 U0_6 2.930869 1_555
Cd0_0 Cd0_6 2.930868 1_455
Cd0_0 Cd0_6 2.930868 1_545
Cd0_0 Cd0_5 2.930869 1_554
Cd0_0 Cd0_3 2.930869 1_554
Cd0_0 Cd0_5 2.930869 1_455
Cd0_0 Cd0_3 2.930869 1_545
Cd0_0 U0_1 3.386708 1_555
Cd0_0 U0_4 3.386709 1_555
Cd0_0 U0_2 3.386709 1_555
Cd0_0 U0_0 3.392639 1_555
Cd0_1 Cd0_7 2.930868 1_455
Cd0_1 Cd0_7 2.930868 1_545
Cd0_1 Cd0_4 2.930869 1_555
Cd0_1 Cd0_2 2.930869 1_555
Cd0_1 Cd0_4 2.930869 1_456
Cd0_1 Cd0_2 2.930869 1_546
Cd0_1 U0_0 3.386708 1_556
Cd0_1 U0_5 3.386709 1_555
Cd0_1 U0_3 3.386709 1_555
Cd0_1 U0_1 3.392639 1_555
Cd0_2 Cd0_4 2.930868 1_555
Cd0_2 Cd0_4 2.930868 1_465
Cd0_2 Cd0_7 2.930869 1_455
Cd0_2 Cd0_7 2.930869 1_554
Cd0_2 U0_3 3.386708 1_555
Cd0_2 U0_0 3.386709 1_565
Cd0_2 U0_6 3.386709 1_555
Cd0_2 U0_2 3.392639 1_555
Cd0_3 Cd0_5 2.930868 1_555
Cd0_3 Cd0_5 2.930868 1_465
Cd0_3 Cd0_6 2.930869 1_456
Cd0_3 Cd0_6 2.930869 1_555
Cd0_3 U0_2 3.386708 1_556
Cd0_3 U0_7 3.386709 1_555
Cd0_3 U0_1 3.386709 1_565
Cd0_3 U0_3 3.392639 1_555
Cd0_4 Cd0_7 2.930869 1_545
Cd0_4 Cd0_7 2.930869 1_554
Cd0_4 U0_5 3.386708 1_555
Cd0_4 U0_0 3.386709 1_655
Cd0_4 U0_6 3.386709 1_555
Cd0_4 U0_4 3.392639 1_555
Cd0_5 Cd0_6 2.930869 1_546
Cd0_5 Cd0_6 2.930869 1_555
Cd0_5 U0_4 3.386708 1_556
Cd0_5 U0_7 3.386709 1_555
Cd0_5 U0_1 3.386709 1_655
Cd0_5 U0_5 3.392639 1_555
Cd0_6 U0_7 3.386708 1_555
Cd0_6 U0_4 3.386709 1_565
Cd0_6 U0_2 3.386709 1_655
Cd0_6 U0_6 3.392639 1_555
Cd0_7 U0_6 3.386708 1_556
Cd0_7 U0_3 3.386709 1_655
Cd0_7 U0_5 3.386709 1_565
Cd0_7 U0_7 3.392639 1_555
