# generated using pymatgen
data_HfAlZn
_symmetry_space_group_name_H-M   'P 1'
_cell_length_a   5.18606230
_cell_length_b   5.18606230
_cell_length_c   5.18606230
_cell_angle_alpha   120.36490538
_cell_angle_beta   119.29788048
_cell_angle_gamma   90.29475620
_symmetry_Int_Tables_number   1
_chemical_formula_structural   HfAlZn
_chemical_formula_sum   'Hf2 Al2 Zn2'
_cell_volume   98.86682311
_cell_formula_units_Z   2
loop_
 _symmetry_equiv_pos_site_id
 _symmetry_equiv_pos_as_xyz
  1  'x, y, z'
loop_
 _atom_site_type_symbol
 _atom_site_label
 _atom_site_symmetry_multiplicity
 _atom_site_fract_x
 _atom_site_fract_y
 _atom_site_fract_z
 _atom_site_occupancy
  Hf  Hf0  1  0.12369911  0.87369911  0.25000000  1
  Hf  Hf1  1  0.87630189  0.12630089  0.75000000  1
  Al  Al0  1  0.50000000  0.50000000  -0.00000000  1
  Al  Al1  1  -0.00000000  0.50000000  0.50000000  1
  Zn  Zn0  1  0.50000000  0.50000000  0.50000000  1
  Zn  Zn1  1  0.50000000  -0.00000000  -0.00000000  1
loop_
_geom_bond_atom_site_label_1
_geom_bond_atom_site_label_2
_geom_bond_distance
_geom_bond_site_symmetry_2
Hf0 Zn1 3.039756 1_565
Hf0 Zn0 3.039756 1_565
Hf0 Zn1 3.057500 1_465
Hf0 Zn1 3.057500 1_566
Hf0 Zn0 3.057500 1_454
Hf0 Zn0 3.057500 1_555
Hf0 Hf1 3.150414 1_465
Hf0 Hf1 3.150418 1_454
Hf0 Hf1 3.206495 1_464
Hf0 Hf1 3.206500 1_565
Hf1 Zn0 3.039759 1_545
Hf1 Zn1 3.039761 1_556
Hf1 Zn1 3.057496 1_656
Hf1 Zn0 3.057498 1_656
Hf1 Zn1 3.057500 1_555
Hf1 Zn0 3.057503 1_555
Al0 Zn1 2.593031 1_565
Al0 Zn0 2.593031 1_555
Al0 Zn0 2.593031 1_554
Al0 Zn1 2.593031 1_555
Al0 Al1 2.620501 1_554
Al0 Al1 2.620501 1_655
Al0 Hf1 3.031498 1_454
Al0 Hf0 3.031503 1_655
Al0 Hf0 3.036475 1_544
Al0 Hf0 3.036475 1_555
Al0 Hf1 3.036475 1_565
Al0 Hf1 3.036479 1_554
Al1 Zn1 2.593031 1_566
Al1 Zn0 2.593031 1_455
Al1 Zn0 2.593031 1_555
Al1 Zn1 2.593031 1_455
Al1 Hf1 3.031500 1_455
Al1 Hf0 3.031503 1_555
Al1 Hf1 3.036473 1_465
Al1 Hf0 3.036475 1_556
Al1 Hf0 3.036475 1_545
Al1 Hf1 3.036477 1_454
Zn0 Zn1 2.578716 1_555
Zn0 Zn1 2.578716 1_566
