# generated using pymatgen
data_Mg3Si2
_symmetry_space_group_name_H-M   'P 1'
_cell_length_a   5.36179000
_cell_length_b   5.29512100
_cell_length_c   13.50695169
_cell_angle_alpha   82.08789655
_cell_angle_beta   90.00000000
_cell_angle_gamma   90.00000000
_symmetry_Int_Tables_number   1
_chemical_formula_structural   Mg3Si2
_chemical_formula_sum   'Mg12 Si8'
_cell_volume   379.82970347
_cell_formula_units_Z   4
loop_
 _symmetry_equiv_pos_site_id
 _symmetry_equiv_pos_as_xyz
  1  'x, y, z'
loop_
 _atom_site_type_symbol
 _atom_site_label
 _atom_site_symmetry_multiplicity
 _atom_site_fract_x
 _atom_site_fract_y
 _atom_site_fract_z
 _atom_site_occupancy
  Mg  Mg0  1  0.13372600  0.35473500  0.73970000  1
  Mg  Mg1  1  0.63372600  0.64526500  0.76030000  1
  Mg  Mg2  1  0.11339200  0.82465700  0.87395500  1
  Mg  Mg3  1  0.61339200  0.17534300  0.62604500  1
  Mg  Mg4  1  0.38660800  0.82465700  0.37395500  1
  Mg  Mg5  1  0.34674000  0.25368600  0.99114600  1
  Mg  Mg6  1  0.36627400  0.35473500  0.23970000  1
  Mg  Mg7  1  0.86627400  0.64526500  0.26030000  1
  Mg  Mg8  1  0.15326000  0.25368600  0.49114600  1
  Mg  Mg9  1  0.88660800  0.17534300  0.12604500  1
  Mg  Mg10  1  0.65326000  0.74631400  0.00885400  1
  Mg  Mg11  1  0.84674000  0.74631400  0.50885400  1
  Si  Si0  1  0.85967800  0.33821500  0.92335100  1
  Si  Si1  1  0.35967800  0.66178500  0.57664900  1
  Si  Si2  1  0.57663700  0.10197000  0.83038500  1
  Si  Si3  1  0.07663700  0.89803000  0.66961500  1
  Si  Si4  1  0.64032200  0.33821500  0.42335100  1
  Si  Si5  1  0.14032200  0.66178500  0.07664900  1
  Si  Si6  1  0.92336300  0.10197000  0.33038500  1
  Si  Si7  1  0.42336300  0.89803000  0.16961500  1
loop_
_geom_bond_atom_site_label_1
_geom_bond_atom_site_label_2
_geom_bond_distance
_geom_bond_site_symmetry_2
Mg0 Si3 2.732815 1_545
Mg0 Si1 2.824115 1_555
Mg0 Si0 2.874059 1_455
Mg0 Si2 2.912046 1_555
Mg0 Si3 2.918240 1_555
Mg1 Si2 2.732815 1_565
Mg1 Si0 2.824115 1_555
Mg1 Si1 2.874059 1_555
Mg1 Si3 2.912046 1_655
Mg1 Si2 2.918240 1_555
Mg2 Si3 2.740844 1_555
Mg2 Si5 2.758627 1_556
Mg2 Si2 2.904137 1_565
Mg2 Si0 2.908125 1_455
Mg2 Si0 3.192193 1_465
Mg3 Si2 2.740844 1_555
Mg3 Si4 2.758627 1_555
Mg3 Si3 2.904137 1_645
Mg3 Si1 2.908125 1_555
Mg3 Si1 3.192193 1_545
Mg4 Si7 2.740844 1_555
Mg4 Si1 2.758627 1_555
Mg4 Si6 2.904137 1_465
Mg4 Si4 2.908125 1_555
Mg4 Si4 3.192193 1_565
Mg5 Si2 2.712934 1_555
Mg5 Si0 2.783177 1_455
Mg5 Si5 2.813432 1_556
Mg5 Si7 2.876879 1_546
Mg5 Si0 2.913756 1_555
Mg6 Si7 2.732815 1_545
Mg6 Si5 2.824115 1_555
Mg6 Si4 2.874059 1_555
Mg6 Si6 2.912046 1_455
Mg6 Si7 2.918240 1_555
Mg7 Si6 2.732815 1_565
Mg7 Si4 2.824115 1_555
Mg7 Si5 2.874059 1_655
Mg7 Si7 2.912046 1_555
Mg7 Si6 2.918240 1_555
Mg8 Si6 2.712934 1_455
Mg8 Si4 2.783177 1_555
Mg8 Si1 2.813432 1_555
Mg8 Si3 2.876879 1_545
Mg8 Si4 2.913756 1_455
Mg9 Si6 2.740844 1_555
Mg9 Si0 2.758627 1_554
Mg9 Si7 2.904137 1_545
Mg9 Si5 2.908125 1_655
Mg9 Si5 3.192193 1_645
Mg10 Si7 2.712934 1_555
Mg10 Si5 2.783177 1_655
Mg10 Si0 2.813432 1_554
Mg10 Si2 2.876879 1_564
Mg10 Si5 2.913756 1_555
Mg11 Si3 2.712934 1_655
Mg11 Si1 2.783177 1_555
Mg11 Si4 2.813432 1_555
Mg11 Si6 2.876879 1_565
Mg11 Si1 2.913756 1_655
Si0 Si2 2.424293 1_555
Si1 Si3 2.424293 1_555
Si4 Si6 2.424293 1_555
Si5 Si7 2.424293 1_555
