# generated using pymatgen
data_Co8Cu7(MoO4)12
_symmetry_space_group_name_H-M   'P 1'
_cell_length_a   10.65720400
_cell_length_b   5.13973400
_cell_length_c   18.02554210
_cell_angle_alpha   89.61350932
_cell_angle_beta   90.00000000
_cell_angle_gamma   90.00000000
_symmetry_Int_Tables_number   1
_chemical_formula_structural   Co8Cu7(MoO4)12
_chemical_formula_sum   'Co8 Cu7 Mo12 O48'
_cell_volume   987.33009756
_cell_formula_units_Z   1
loop_
 _symmetry_equiv_pos_site_id
 _symmetry_equiv_pos_as_xyz
  1  'x, y, z'
loop_
 _atom_site_type_symbol
 _atom_site_label
 _atom_site_symmetry_multiplicity
 _atom_site_fract_x
 _atom_site_fract_y
 _atom_site_fract_z
 _atom_site_occupancy
  Co  Co0  1  0.82583800  0.24497800  0.02749600  1
  Co  Co1  1  0.17512100  0.75051400  0.47312600  1
  Co  Co2  1  0.32265900  0.75286400  0.97130400  1
  Co  Co3  1  0.67759900  0.25076600  0.52853400  1
  Co  Co4  1  0.67734100  0.75286400  0.97130400  1
  Co  Co5  1  0.32240100  0.25076600  0.52853400  1
  Co  Co6  1  0.17416200  0.24497800  0.02749600  1
  Co  Co7  1  0.82487900  0.75051400  0.47312600  1
  Cu  Cu0  1  0.00000000  0.21734100  0.18294500  1
  Cu  Cu1  1  0.00000000  0.71579700  0.31723400  1
  Cu  Cu2  1  0.50000000  0.78778600  0.81773800  1
  Cu  Cu3  1  0.50000000  0.28373700  0.68158900  1
  Cu  Cu4  1  0.00000000  0.60678300  0.75108800  1
  Cu  Cu5  1  0.50000000  0.88827700  0.25250200  1
  Cu  Cu6  1  0.50000000  0.38775400  0.24746800  1
  Mo  Mo0  1  0.77820300  0.72271600  0.15548900  1
  Mo  Mo1  1  0.22154900  0.22286600  0.34480900  1
  Mo  Mo2  1  0.27795100  0.28084400  0.84294800  1
  Mo  Mo3  1  0.72090400  0.77388500  0.65619500  1
  Mo  Mo4  1  0.72204900  0.28084400  0.84294800  1
  Mo  Mo5  1  0.27909600  0.77388500  0.65619500  1
  Mo  Mo6  1  0.22179700  0.72271600  0.15548900  1
  Mo  Mo7  1  0.77845100  0.22286600  0.34480900  1
  Mo  Mo8  1  0.00000000  0.77750900  0.94564200  1
  Mo  Mo9  1  0.00000000  0.27640800  0.55525600  1
  Mo  Mo10  1  0.50000000  0.22196900  0.05405000  1
  Mo  Mo11  1  0.50000000  0.72416900  0.44578900  1
  O  O0  1  0.13767800  0.83565500  0.70228100  1
  O  O1  1  0.86029000  0.37591300  0.79781700  1
  O  O2  1  0.63604200  0.14657900  0.29688600  1
  O  O3  1  0.36405100  0.64557800  0.20386000  1
  O  O4  1  0.36395800  0.14657900  0.29688600  1
  O  O5  1  0.63594900  0.64557800  0.20386000  1
  O  O6  1  0.86232200  0.83565500  0.70228100  1
  O  O7  1  0.13971000  0.37591300  0.79781700  1
  O  O8  1  0.36598600  0.07004200  0.62615900  1
  O  O9  1  0.63199400  0.56730200  0.87472600  1
  O  O10  1  0.86638200  0.93042100  0.37449800  1
  O  O11  1  0.13374700  0.43381600  0.12557000  1
  O  O12  1  0.13361800  0.93042100  0.37449800  1
  O  O13  1  0.86625300  0.43381600  0.12557000  1
  O  O14  1  0.63401400  0.07004200  0.62615900  1
  O  O15  1  0.36800600  0.56730200  0.87472600  1
  O  O16  1  0.00000000  0.55917600  0.49134800  1
  O  O17  1  0.00000000  0.06655100  0.00710900  1
  O  O18  1  0.50000000  0.43787600  0.50769200  1
  O  O19  1  0.50000000  0.93627300  0.99230700  1
  O  O20  1  0.00000000  0.37118000  0.64705900  1
  O  O21  1  0.00000000  0.85363900  0.85183400  1
  O  O22  1  0.50000000  0.64205400  0.35092100  1
  O  O23  1  0.50000000  0.13986500  0.14932700  1
  O  O24  1  0.25879600  0.41865200  0.42767200  1
  O  O25  1  0.73954700  0.91976400  0.07228800  1
  O  O26  1  0.75791600  0.58190800  0.57201300  1
  O  O27  1  0.23930200  0.08361900  0.92684900  1
  O  O28  1  0.24208400  0.58190800  0.57201300  1
  O  O29  1  0.76069800  0.08361900  0.92684900  1
  O  O30  1  0.74120400  0.41865200  0.42767200  1
  O  O31  1  0.26045300  0.91976400  0.07228800  1
  O  O32  1  0.37337600  0.55999200  0.71192200  1
  O  O33  1  0.62988300  0.06211300  0.78773800  1
  O  O34  1  0.87275400  0.43425200  0.28867100  1
  O  O35  1  0.12756400  0.93338600  0.21084700  1
  O  O36  1  0.12724600  0.43425200  0.28867100  1
  O  O37  1  0.87243600  0.93338600  0.21084700  1
  O  O38  1  0.62662400  0.55999200  0.71192200  1
  O  O39  1  0.37011700  0.06211300  0.78773800  1
  O  O40  1  0.13827700  0.07608900  0.53637700  1
  O  O41  1  0.86190300  0.57835900  0.96547400  1
  O  O42  1  0.63743200  0.92420500  0.46412200  1
  O  O43  1  0.36272600  0.42211600  0.03584000  1
  O  O44  1  0.36256800  0.92420500  0.46412200  1
  O  O45  1  0.63727400  0.42211600  0.03584000  1
  O  O46  1  0.86172300  0.07608900  0.53637700  1
  O  O47  1  0.13809700  0.57835900  0.96547400  1
loop_
_geom_bond_atom_site_label_1
_geom_bond_atom_site_label_2
_geom_bond_distance
_geom_bond_site_symmetry_2
Co0 O25 2.067208 1_545
Co0 O13 2.067832 1_555
Co0 O41 2.075526 1_554
Co0 O17 2.103720 1_655
Co0 O29 2.116936 1_554
Co0 O45 2.211725 1_555
Co1 O12 2.046737 1_555
Co1 O40 2.068812 1_565
Co1 O24 2.096358 1_555
Co1 O28 2.101594 1_555
Co1 O16 2.133948 1_555
Co1 O44 2.193626 1_555
Co2 O15 2.048463 1_555
Co2 O27 2.074341 1_565
Co2 O43 2.097323 1_556
Co2 O31 2.123647 1_556
Co2 O19 2.146794 1_555
Co2 O47 2.164605 1_555
Co3 O14 2.037942 1_555
Co3 O26 2.064372 1_555
Co3 O42 2.091589 1_545
Co3 O30 2.118574 1_555
Co3 O18 2.154872 1_555
Co3 O46 2.162110 1_555
Co4 O9 2.048463 1_555
Co4 O29 2.074341 1_565
Co4 O45 2.097323 1_556
Co4 O25 2.123647 1_556
Co4 O19 2.146794 1_555
Co4 O41 2.164605 1_555
Co5 O8 2.037942 1_555
Co5 O28 2.064372 1_555
Co5 O44 2.091589 1_545
Co5 O24 2.118574 1_555
Co5 O18 2.154872 1_555
Co5 O40 2.162110 1_555
Co6 O31 2.067208 1_545
Co6 O11 2.067832 1_555
Co6 O47 2.075526 1_554
Co6 O17 2.103720 1_555
Co6 O27 2.116936 1_554
Co6 O43 2.211725 1_555
Co7 O10 2.046737 1_555
Co7 O46 2.068812 1_565
Co7 O30 2.096358 1_555
Co7 O26 2.101594 1_555
Co7 O16 2.133948 1_655
Co7 O42 2.193626 1_555
Cu0 O35 2.054564 1_545
Cu0 O37 2.054564 1_445
Cu0 O13 2.079348 1_455
Cu0 O11 2.079348 1_555
Cu0 O34 2.596635 1_455
Cu0 O36 2.596635 1_555
Cu1 O34 2.051367 1_455
Cu1 O36 2.051367 1_555
Cu1 O10 2.079769 1_455
Cu1 O12 2.079769 1_555
Cu1 O37 2.597587 1_455
Cu1 O35 2.597587 1_555
Cu2 O33 2.046004 1_565
Cu2 O39 2.046004 1_565
Cu2 O9 2.074245 1_555
Cu2 O15 2.074245 1_555
Cu3 O38 2.036300 1_555
Cu3 O32 2.036300 1_555
Cu3 O14 2.063796 1_555
Cu3 O8 2.063796 1_555
Cu4 O6 2.072842 1_455
Cu4 O0 2.072842 1_555
Cu4 O1 2.078685 1_455
Cu4 O7 2.078685 1_555
Cu4 O21 2.222326 1_555
Cu4 O20 2.239040 1_555
Cu5 O3 2.106819 1_555
Cu5 O5 2.106819 1_555
Cu5 O4 2.125778 1_565
Cu5 O2 2.125778 1_565
Cu5 O22 2.172217 1_555
Cu5 O23 2.257975 1_565
Cu6 O4 2.101702 1_555
Cu6 O2 2.101702 1_555
Cu6 O3 2.111628 1_555
Cu6 O5 2.111628 1_555
Cu6 O23 2.187056 1_555
Cu6 O22 2.284445 1_555
Mo0 O37 1.786411 1_555
Mo0 O5 1.791955 1_555
Mo0 O13 1.840387 1_555
Mo0 O25 1.850450 1_555
Mo1 O36 1.788741 1_555
Mo1 O4 1.791056 1_555
Mo1 O12 1.847424 1_545
Mo1 O24 1.849717 1_555
Mo2 O7 1.750914 1_555
Mo2 O39 1.798373 1_555
Mo2 O15 1.851569 1_555
Mo2 O27 1.861119 1_555
Mo3 O6 1.750962 1_555
Mo3 O38 1.792279 1_555
Mo3 O26 1.857947 1_555
Mo3 O14 1.859164 1_565
Mo4 O1 1.750914 1_555
Mo4 O33 1.798373 1_555
Mo4 O9 1.851569 1_555
Mo4 O29 1.861119 1_555
Mo5 O0 1.750962 1_555
Mo5 O32 1.792279 1_555
Mo5 O28 1.857947 1_555
Mo5 O8 1.859164 1_565
Mo6 O35 1.786411 1_555
Mo6 O3 1.791955 1_555
Mo6 O11 1.840387 1_555
Mo6 O31 1.850450 1_555
Mo7 O34 1.788741 1_555
Mo7 O2 1.791056 1_555
Mo7 O10 1.847424 1_545
Mo7 O30 1.849717 1_555
Mo8 O21 1.733049 1_555
Mo8 O41 1.826623 1_455
Mo8 O47 1.826623 1_555
Mo8 O17 1.859253 1_566
Mo9 O20 1.728150 1_555
Mo9 O46 1.830906 1_455
Mo9 O40 1.830906 1_555
Mo9 O16 1.848431 1_555
Mo10 O23 1.765738 1_555
Mo10 O43 1.817047 1_555
Mo10 O45 1.817047 1_555
Mo10 O19 1.848489 1_544
Mo11 O22 1.764121 1_555
Mo11 O44 1.820993 1_555
Mo11 O42 1.820993 1_555
Mo11 O18 1.840696 1_555
