# generated using pymatgen
data_Li12Mo5O17
_symmetry_space_group_name_H-M   'P 1'
_cell_length_a   6.65697700
_cell_length_b   9.29119948
_cell_length_c   11.62972906
_cell_angle_alpha   101.21253437
_cell_angle_beta   96.50902609
_cell_angle_gamma   107.14521184
_symmetry_Int_Tables_number   1
_chemical_formula_structural   Li12Mo5O17
_chemical_formula_sum   'Li24 Mo10 O34'
_cell_volume   662.95585594
_cell_formula_units_Z   2
loop_
 _symmetry_equiv_pos_site_id
 _symmetry_equiv_pos_as_xyz
  1  'x, y, z'
loop_
 _atom_site_type_symbol
 _atom_site_label
 _atom_site_symmetry_multiplicity
 _atom_site_fract_x
 _atom_site_fract_y
 _atom_site_fract_z
 _atom_site_occupancy
  Li  Li0  1  0.54683000  0.15999100  0.57772100  1
  Li  Li1  1  0.45317000  0.84000900  0.42227900  1
  Li  Li2  1  0.92783100  0.42283800  0.59620200  1
  Li  Li3  1  0.07216900  0.57716200  0.40379800  1
  Li  Li4  1  0.01993100  0.76260500  0.75086400  1
  Li  Li5  1  0.98006900  0.23739500  0.24913600  1
  Li  Li6  1  0.40319100  0.01270000  0.77933200  1
  Li  Li7  1  0.59680900  0.98730000  0.22066800  1
  Li  Li8  1  0.27568200  0.86039700  0.98816000  1
  Li  Li9  1  0.72431800  0.13960300  0.01184000  1
  Li  Li10  1  0.14703800  0.88764500  0.55485200  1
  Li  Li11  1  0.85296200  0.11235500  0.44514800  1
  Li  Li12  1  0.33074100  0.69546000  0.62850100  1
  Li  Li13  1  0.66925900  0.30454000  0.37149900  1
  Li  Li14  1  0.60186100  0.47302100  0.72573800  1
  Li  Li15  1  0.39813900  0.52697900  0.27426200  1
  Li  Li16  1  0.79410800  0.27019100  0.81660400  1
  Li  Li17  1  0.20589200  0.72980900  0.18339600  1
  Li  Li18  1  0.51398400  0.65471900  0.07716200  1
  Li  Li19  1  0.48601600  0.34528100  0.92283800  1
  Li  Li20  1  0.94434700  0.93431900  0.10282100  1
  Li  Li21  1  0.05565300  0.06568100  0.89717900  1
  Li  Li22  1  0.88034900  0.60581400  0.96148000  1
  Li  Li23  1  0.11965100  0.39418600  0.03852000  1
  Mo  Mo0  1  0.18726800  0.21640600  0.69593000  1
  Mo  Mo1  1  0.81273200  0.78359400  0.30407000  1
  Mo  Mo2  1  0.21184400  0.54413700  0.84036500  1
  Mo  Mo3  1  0.78815600  0.45586300  0.15963500  1
  Mo  Mo4  1  0.24708700  0.04630800  0.34013900  1
  Mo  Mo5  1  0.75291300  0.95369200  0.65986100  1
  Mo  Mo6  1  0.65556800  0.81291500  0.88148200  1
  Mo  Mo7  1  0.34443200  0.18708500  0.11851800  1
  Mo  Mo8  1  0.71960500  0.63179600  0.51660900  1
  Mo  Mo9  1  0.28039500  0.36820400  0.48339100  1
  O  O0  1  0.49137800  0.24808300  0.74947300  1
  O  O1  1  0.50862200  0.75191700  0.25052700  1
  O  O2  1  0.15704700  0.32122100  0.86275400  1
  O  O3  1  0.84295300  0.67877900  0.13724600  1
  O  O4  1  0.25962600  0.44852000  0.66580700  1
  O  O5  1  0.74037400  0.55148000  0.33419300  1
  O  O6  1  0.86028800  0.17364700  0.63559800  1
  O  O7  1  0.13971200  0.82635300  0.36440200  1
  O  O8  1  0.21868900  0.14625600  0.51894700  1
  O  O9  1  0.78131100  0.85374400  0.48105300  1
  O  O10  1  0.08260700  0.98769000  0.71952700  1
  O  O11  1  0.91739300  0.01231000  0.28047300  1
  O  O12  1  0.20731900  0.62414800  0.00607500  1
  O  O13  1  0.79268100  0.37585200  0.99392500  1
  O  O14  1  0.54283400  0.58334900  0.89030900  1
  O  O15  1  0.45716600  0.41665100  0.10969100  1
  O  O16  1  0.93154400  0.51234900  0.77809600  1
  O  O17  1  0.06845600  0.48765100  0.22190400  1
  O  O18  1  0.32961600  0.76430900  0.81406300  1
  O  O19  1  0.67038400  0.23569100  0.18593700  1
  O  O20  1  0.54700700  0.07839400  0.39530000  1
  O  O21  1  0.45299300  0.92160600  0.60470000  1
  O  O22  1  0.31441500  0.26723400  0.30412900  1
  O  O23  1  0.68558500  0.73276600  0.69587100  1
  O  O24  1  0.26773700  0.97244400  0.15857700  1
  O  O25  1  0.73226300  0.02755600  0.84142300  1
  O  O26  1  0.94847000  0.82756100  0.92002500  1
  O  O27  1  0.05153000  0.17243900  0.07997500  1
  O  O28  1  0.61654500  0.89416800  0.03236800  1
  O  O29  1  0.38345500  0.10583200  0.96763200  1
  O  O30  1  0.01850900  0.66268500  0.57057500  1
  O  O31  1  0.98149100  0.33731500  0.42942500  1
  O  O32  1  0.38771900  0.58707700  0.45900900  1
  O  O33  1  0.61228100  0.41292300  0.54099100  1
loop_
_geom_bond_atom_site_label_1
_geom_bond_atom_site_label_2
_geom_bond_distance
_geom_bond_site_symmetry_2
Li0 O6 2.077415 1_555
Li0 O20 2.109776 1_555
Li0 O0 2.122596 1_555
Li0 O8 2.172192 1_555
Li0 O21 2.212085 1_545
Li0 O33 2.392466 1_555
Li1 O7 2.077415 1_555
Li1 O21 2.109776 1_555
Li1 O1 2.122596 1_555
Li1 O9 2.172192 1_555
Li1 O20 2.212085 1_565
Li1 O32 2.392466 1_555
Li2 O31 2.060584 1_555
Li2 O33 2.095336 1_555
Li2 O16 2.111621 1_555
Li2 O4 2.190792 1_655
Li2 O30 2.219288 1_655
Li2 O6 2.370250 1_555
Li3 O30 2.060584 1_555
Li3 O32 2.095336 1_555
Li3 O17 2.111621 1_555
Li3 O5 2.190792 1_455
Li3 O31 2.219288 1_455
Li3 O7 2.370250 1_555
Li4 O26 2.092967 1_455
Li4 O18 2.103143 1_555
Li4 O30 2.119313 1_555
Li4 O10 2.120589 1_555
Li4 O23 2.164320 1_455
Li4 O16 2.318396 1_455
Li5 O27 2.092967 1_655
Li5 O19 2.103143 1_555
Li5 O31 2.119313 1_555
Li5 O11 2.120589 1_555
Li5 O22 2.164320 1_655
Li5 O17 2.318396 1_655
Li6 O10 2.097725 1_545
Li6 O21 2.144881 1_545
Li6 O25 2.182578 1_555
Li6 O0 2.198350 1_555
Li6 O29 2.226412 1_555
Li6 O18 2.338832 1_545
Li7 O11 2.097725 1_565
Li7 O20 2.144881 1_565
Li7 O24 2.182578 1_555
Li7 O1 2.198350 1_555
Li7 O28 2.226412 1_555
Li7 O19 2.338832 1_565
Li8 O24 2.066000 1_556
Li8 O26 2.142091 1_455
Li8 O18 2.162451 1_555
Li8 O12 2.163120 1_556
Li8 O28 2.182811 1_556
Li8 O29 2.248963 1_565
Li9 O25 2.066000 1_554
Li9 O27 2.142091 1_655
Li9 O19 2.162451 1_555
Li9 O13 2.163120 1_554
Li9 O29 2.182811 1_554
Li9 O28 2.248963 1_545
Li10 O21 1.966262 1_555
Li10 O30 2.064931 1_555
Li10 O10 2.108247 1_555
Li10 O7 2.168177 1_555
Li10 O9 2.394216 1_455
Li10 O8 2.436181 1_565
Li11 O20 1.966262 1_555
Li11 O31 2.064931 1_555
Li11 O11 2.108247 1_555
Li11 O6 2.168177 1_555
Li11 O8 2.394216 1_655
Li11 O9 2.436181 1_545
Li12 O30 2.023953 1_555
Li12 O21 2.103070 1_555
Li12 O18 2.129789 1_555
Li12 O32 2.160119 1_555
Li12 O23 2.303472 1_555
Li12 O4 2.338754 1_555
Li13 O31 2.023953 1_555
Li13 O20 2.103070 1_555
Li13 O19 2.129789 1_555
Li13 O33 2.160119 1_555
Li13 O22 2.303472 1_555
Li13 O5 2.338754 1_555
Li14 O0 2.085451 1_555
Li14 O16 2.111548 1_555
Li14 O14 2.124446 1_555
Li14 O33 2.126725 1_555
Li14 O4 2.236189 1_555
Li14 O23 2.415028 1_555
Li15 O1 2.085451 1_555
Li15 O17 2.111548 1_555
Li15 O15 2.124446 1_555
Li15 O32 2.126725 1_555
Li15 O5 2.236189 1_555
Li15 O22 2.415028 1_555
Li16 O0 2.012429 1_555
Li16 O13 2.106924 1_555
Li16 O25 2.251173 1_555
Li16 O6 2.266909 1_555
Li16 O2 2.298245 1_655
Li16 O16 2.317526 1_555
Li17 O1 2.012429 1_555
Li17 O12 2.106924 1_555
Li17 O24 2.251173 1_555
Li17 O7 2.266909 1_555
Li17 O3 2.298245 1_455
Li17 O17 2.317526 1_555
Li18 O12 2.028762 1_555
Li18 O1 2.051602 1_555
Li18 O3 2.153544 1_555
Li18 O14 2.192729 1_554
Li18 O15 2.245760 1_555
Li18 O28 2.307146 1_555
Li19 O13 2.028762 1_555
Li19 O0 2.051602 1_555
Li19 O2 2.153544 1_555
Li19 O15 2.192729 1_556
Li19 O14 2.245760 1_555
Li19 O29 2.307146 1_555
Li20 O24 2.079678 1_655
Li20 O11 2.098644 1_565
Li20 O28 2.137328 1_555
Li20 O26 2.170985 1_554
Li20 O27 2.194393 1_665
Li20 O3 2.395646 1_555
Li21 O25 2.079678 1_455
Li21 O10 2.098644 1_545
Li21 O29 2.137328 1_555
Li21 O27 2.170985 1_556
Li21 O26 2.194393 1_445
Li21 O2 2.395646 1_555
Li22 O3 2.091867 1_556
Li22 O12 2.127632 1_656
Li22 O26 2.137263 1_555
Li22 O13 2.162499 1_555
Li22 O14 2.238655 1_555
Li22 O16 2.244488 1_555
Li23 O2 2.091867 1_554
Li23 O13 2.127632 1_454
Li23 O27 2.137263 1_555
Li23 O12 2.162499 1_555
Li23 O15 2.238655 1_555
Li23 O17 2.244488 1_555
Mo0 O0 1.965809 1_555
Mo0 O2 2.054787 1_555
Mo0 O8 2.088370 1_555
Mo0 O6 2.103243 1_455
Mo0 O10 2.115129 1_545
Mo0 O4 2.173787 1_555
Mo1 O1 1.965809 1_555
Mo1 O3 2.054787 1_555
Mo1 O9 2.088370 1_555
Mo1 O7 2.103243 1_655
Mo1 O11 2.115129 1_565
Mo1 O5 2.173787 1_555
Mo2 O16 1.838196 1_455
Mo2 O12 1.933058 1_556
Mo2 O18 2.060362 1_555
Mo2 O2 2.067938 1_555
Mo2 O14 2.116434 1_555
Mo2 O4 2.150165 1_555
Mo3 O17 1.838196 1_655
Mo3 O13 1.933058 1_554
Mo3 O19 2.060362 1_555
Mo3 O3 2.067938 1_555
Mo3 O15 2.116434 1_555
Mo3 O5 2.150165 1_555
Mo4 O20 1.941899 1_555
Mo4 O7 2.043469 1_545
Mo4 O22 2.103366 1_555
Mo4 O24 2.122797 1_545
Mo4 O11 2.135180 1_455
Mo4 O8 2.159632 1_555
Mo5 O21 1.941899 1_555
Mo5 O6 2.043469 1_565
Mo5 O23 2.103366 1_555
Mo5 O25 2.122797 1_565
Mo5 O10 2.135180 1_655
Mo5 O9 2.159632 1_555
Mo6 O28 1.849431 1_556
Mo6 O26 1.908667 1_555
Mo6 O25 2.066340 1_565
Mo6 O14 2.069311 1_555
Mo6 O18 2.103759 1_555
Mo6 O23 2.194183 1_555
Mo7 O29 1.849431 1_554
Mo7 O27 1.908667 1_555
Mo7 O24 2.066340 1_545
Mo7 O15 2.069311 1_555
Mo7 O19 2.103759 1_555
Mo7 O22 2.194183 1_555
Mo8 O30 1.935376 1_655
Mo8 O33 2.034678 1_555
Mo8 O9 2.112567 1_555
Mo8 O32 2.125468 1_555
Mo8 O5 2.142006 1_555
Mo8 O23 2.179299 1_555
Mo9 O31 1.935376 1_455
Mo9 O32 2.034678 1_555
Mo9 O8 2.112567 1_555
Mo9 O33 2.125468 1_555
Mo9 O4 2.142006 1_555
Mo9 O22 2.179299 1_555
