# generated using pymatgen
data_Mn2HO4
_symmetry_space_group_name_H-M   'P 1'
_cell_length_a   5.99303600
_cell_length_b   10.25627200
_cell_length_c   10.25755105
_cell_angle_alpha   90.00542928
_cell_angle_beta   89.99993720
_cell_angle_gamma   90.00009393
_symmetry_Int_Tables_number   1
_chemical_formula_structural   Mn2HO4
_chemical_formula_sum   'Mn16 H8 O32'
_cell_volume   630.49275680
_cell_formula_units_Z   8
loop_
 _symmetry_equiv_pos_site_id
 _symmetry_equiv_pos_as_xyz
  1  'x, y, z'
loop_
 _atom_site_type_symbol
 _atom_site_label
 _atom_site_symmetry_multiplicity
 _atom_site_fract_x
 _atom_site_fract_y
 _atom_site_fract_z
 _atom_site_occupancy
  Mn  Mn0  1  0.49627800  0.64740700  0.83310100  1
  Mn  Mn1  1  0.00524600  0.64532400  0.83773700  1
  Mn  Mn2  1  0.50527400  0.16225000  0.64530700  1
  Mn  Mn3  1  0.99630500  0.16688800  0.64738500  1
  Mn  Mn4  1  0.99618800  0.83309500  0.35259700  1
  Mn  Mn5  1  0.50515600  0.83770900  0.35469600  1
  Mn  Mn6  1  0.00520300  0.35467500  0.16225100  1
  Mn  Mn7  1  0.49624700  0.35259600  0.16687700  1
  Mn  Mn8  1  0.25370500  0.14729800  0.33323800  1
  Mn  Mn9  1  0.74473100  0.14518900  0.33787200  1
  Mn  Mn10  1  0.24471000  0.66215000  0.14515300  1
  Mn  Mn11  1  0.75368500  0.66677500  0.14726900  1
  Mn  Mn12  1  0.24481300  0.33784900  0.85482800  1
  Mn  Mn13  1  0.75378400  0.33323300  0.85270100  1
  Mn  Mn14  1  0.25373800  0.85268000  0.66674200  1
  Mn  Mn15  1  0.74477500  0.85479400  0.66211700  1
  H  H0  1  0.25143100  0.64520600  0.43201200  1
  H  H1  1  0.49864700  0.14534300  0.93209300  1
  H  H2  1  0.49841300  0.85482700  0.06809400  1
  H  H3  1  0.99840800  0.06794700  0.14530300  1
  H  H4  1  0.99858900  0.93207300  0.85467000  1
  H  H5  1  0.25173100  0.35489000  0.56812000  1
  H  H6  1  0.75169100  0.56800200  0.64516900  1
  H  H7  1  0.75151200  0.43206000  0.35476300  1
  O  O0  1  0.25326000  0.33812700  0.04767100  1
  O  O1  1  0.74960700  0.33405600  0.04362900  1
  O  O2  1  0.24953900  0.95635200  0.33411100  1
  O  O3  1  0.75319900  0.95230300  0.33818300  1
  O  O4  1  0.24963600  0.04362400  0.66590100  1
  O  O5  1  0.75330900  0.04765800  0.66181100  1
  O  O6  1  0.25329200  0.66189500  0.95230300  1
  O  O7  1  0.74959300  0.66596800  0.95634700  1
  O  O8  1  0.00034500  0.83415400  0.54350800  1
  O  O9  1  0.49672900  0.83827300  0.54751700  1
  O  O10  1  0.99678200  0.45246500  0.83834300  1
  O  O11  1  0.50041000  0.45648000  0.83422200  1
  O  O12  1  0.50032600  0.54352900  0.16577000  1
  O  O13  1  0.99669100  0.54752900  0.16158100  1
  O  O14  1  0.49669900  0.16168400  0.45246400  1
  O  O15  1  0.00036300  0.16582500  0.45647700  1
  O  O16  1  0.50188000  0.16052900  0.20637400  1
  O  O17  1  0.99496200  0.14333600  0.20313400  1
  O  O18  1  0.00184100  0.79365200  0.16054600  1
  O  O19  1  0.49494900  0.79689800  0.14340400  1
  O  O20  1  0.99504600  0.85664700  0.79685200  1
  O  O21  1  0.50191700  0.83946200  0.79359000  1
  O  O22  1  0.49509800  0.20311400  0.85665600  1
  O  O23  1  0.00194600  0.20635500  0.83944600  1
  O  O24  1  0.24810900  0.66059700  0.70621400  1
  O  O25  1  0.75502300  0.64338600  0.70299400  1
  O  O26  1  0.25506000  0.29700100  0.64346000  1
  O  O27  1  0.74814300  0.29378200  0.66063100  1
  O  O28  1  0.24806800  0.33938700  0.29375300  1
  O  O29  1  0.75494600  0.35661300  0.29698500  1
  O  O30  1  0.25487100  0.70298300  0.35657800  1
  O  O31  1  0.74805000  0.70618800  0.33935500  1
loop_
_geom_bond_atom_site_label_1
_geom_bond_atom_site_label_2
_geom_bond_distance
_geom_bond_site_symmetry_2
Mn0 O6 1.907269 1_555
Mn0 O11 1.958391 1_555
Mn0 O24 1.981007 1_555
Mn0 O7 1.984719 1_555
Mn0 O21 2.011352 1_555
Mn0 O25 2.046304 1_555
Mn1 O6 1.902549 1_555
Mn1 O7 1.967856 1_455
Mn1 O10 1.978675 1_455
Mn1 O24 1.990752 1_555
Mn1 O25 2.039479 1_455
Mn1 O20 2.208473 1_455
Mn2 O5 1.902533 1_555
Mn2 O4 1.967765 1_555
Mn2 O14 1.978772 1_555
Mn2 O27 1.990750 1_555
Mn2 O26 2.039372 1_555
Mn2 O22 2.208867 1_555
Mn3 O5 1.907371 1_555
Mn3 O15 1.958429 1_655
Mn3 O27 1.980940 1_555
Mn3 O4 1.984792 1_655
Mn3 O23 2.011477 1_655
Mn3 O26 2.046266 1_655
Mn4 O3 1.907188 1_555
Mn4 O8 1.958467 1_655
Mn4 O31 1.980914 1_555
Mn4 O2 1.984805 1_655
Mn4 O18 2.011328 1_655
Mn4 O30 2.045947 1_655
Mn5 O3 1.902588 1_555
Mn5 O2 1.967768 1_555
Mn5 O9 1.978524 1_555
Mn5 O31 1.990800 1_555
Mn5 O30 2.039511 1_555
Mn5 O19 2.208195 1_555
Mn6 O0 1.902667 1_555
Mn6 O1 1.967640 1_455
Mn6 O13 1.978633 1_455
Mn6 O28 1.990630 1_555
Mn6 O29 2.039564 1_455
Mn6 O17 2.208636 1_455
Mn7 O0 1.907287 1_555
Mn7 O12 1.958447 1_555
Mn7 O28 1.980989 1_555
Mn7 O1 1.984916 1_555
Mn7 O16 2.011443 1_555
Mn7 O29 2.046103 1_555
Mn8 O14 1.907384 1_555
Mn8 O2 1.958575 1_545
Mn8 O16 1.980906 1_555
Mn8 O15 1.984762 1_555
Mn8 O28 2.011640 1_555
Mn8 O17 2.046265 1_455
Mn9 O14 1.902577 1_555
Mn9 O15 1.967719 1_655
Mn9 O3 1.978945 1_545
Mn9 O16 1.990583 1_555
Mn9 O17 2.039469 1_555
Mn9 O29 2.209496 1_555
Mn10 O13 1.902570 1_455
Mn10 O12 1.967659 1_555
Mn10 O6 1.978839 1_554
Mn10 O18 1.990600 1_555
Mn10 O19 2.039449 1_555
Mn10 O30 2.209569 1_555
Mn11 O13 1.907434 1_555
Mn11 O7 1.958562 1_554
Mn11 O18 1.980817 1_655
Mn11 O12 1.984784 1_555
Mn11 O31 2.011616 1_555
Mn11 O19 2.046238 1_555
Mn12 O10 1.902649 1_455
Mn12 O11 1.967619 1_555
Mn12 O0 1.978746 1_556
Mn12 O23 1.990524 1_555
Mn12 O22 2.039572 1_555
Mn12 O26 2.209039 1_555
Mn13 O10 1.907339 1_555
Mn13 O1 1.958631 1_556
Mn13 O23 1.980839 1_655
Mn13 O11 1.984841 1_555
Mn13 O27 2.011534 1_555
Mn13 O22 2.045999 1_555
Mn14 O9 1.907379 1_555
Mn14 O4 1.958548 1_565
Mn14 O21 1.980809 1_555
Mn14 O8 1.984964 1_555
Mn14 O24 2.011552 1_555
Mn14 O20 2.046072 1_455
Mn15 O9 1.902719 1_555
Mn15 O8 1.967458 1_655
Mn15 O5 1.978729 1_565
Mn15 O21 1.990431 1_555
Mn15 O20 2.039626 1_555
Mn15 O25 2.209321 1_555
H0 O30 0.974872 1_555
H1 O22 0.974873 1_555
H2 O19 0.974816 1_555
H3 O17 0.974723 1_555
H4 O20 0.974955 1_555
H5 O26 0.974793 1_555
H6 O25 0.974631 1_555
H7 O29 0.974863 1_555
