# generated using pymatgen
data_Ba2MgNb6(NO7)2
_symmetry_space_group_name_H-M   'P 1'
_cell_length_a   9.78015207
_cell_length_b   9.82108632
_cell_length_c   3.99486132
_cell_angle_alpha   89.81257115
_cell_angle_beta   89.95782926
_cell_angle_gamma   84.57738762
_symmetry_Int_Tables_number   1
_chemical_formula_structural   Ba2MgNb6(NO7)2
_chemical_formula_sum   'Ba2 Mg1 Nb6 N2 O14'
_cell_volume   381.99399802
_cell_formula_units_Z   1
loop_
 _symmetry_equiv_pos_site_id
 _symmetry_equiv_pos_as_xyz
  1  'x, y, z'
loop_
 _atom_site_type_symbol
 _atom_site_label
 _atom_site_symmetry_multiplicity
 _atom_site_fract_x
 _atom_site_fract_y
 _atom_site_fract_z
 _atom_site_occupancy
  Ba  Ba0  1  0.20576300  0.01042600  0.76083900  1
  Ba  Ba1  1  0.81035600  0.11282300  0.74814400  1
  Mg  Mg0  1  0.51304400  0.94405800  0.25586500  1
  Nb  Nb0  1  0.06204000  0.30557200  0.25849600  1
  Nb  Nb1  1  0.23386500  0.47204200  0.75594600  1
  Nb  Nb2  1  0.45956600  0.25465700  0.24782900  1
  Nb  Nb3  1  0.53926000  0.69942600  0.75964400  1
  Nb  Nb4  1  0.72828900  0.52368600  0.26304100  1
  Nb  Nb5  1  0.88403400  0.73949500  0.76191300  1
  N  N0  1  0.72953900  0.57725300  0.76235900  1
  N  N1  1  0.88031900  0.37883400  0.26419900  1
  O  O0  1  0.98922900  0.88453100  0.76246400  1
  O  O1  1  0.11587900  0.29312700  0.75826600  1
  O  O2  1  0.08335900  0.59552700  0.75858200  1
  O  O3  1  0.25794300  0.41525100  0.25616100  1
  O  O4  1  0.34683800  0.09958200  0.25938300  1
  O  O5  1  0.38323000  0.59786700  0.75760600  1
  O  O6  1  0.41755600  0.29090100  0.75633700  1
  O  O7  1  0.45416000  0.89149600  0.75758800  1
  O  O8  1  0.61550800  0.11922800  0.24836300  1
  O  O9  1  0.56060000  0.71922300  0.25939700  1
  O  O10  1  0.58260400  0.40394100  0.26092300  1
  O  O11  1  0.71950900  0.85704700  0.75754600  1
  O  O12  1  0.87759800  0.69024200  0.26117300  1
  O  O13  1  0.02460400  0.11928900  0.25963400  1
loop_
_geom_bond_atom_site_label_1
_geom_bond_atom_site_label_2
_geom_bond_distance
_geom_bond_site_symmetry_2
Ba0 O0 2.551158 1_445
Ba0 O7 2.594222 1_545
Ba0 O4 2.623104 1_556
Ba0 O4 2.626052 1_555
Ba0 O13 2.811311 1_556
Ba0 O13 2.815032 1_555
Ba0 O1 2.831957 1_555
Ba1 O0 2.710826 1_545
Ba1 O11 2.742652 1_545
Ba1 O8 2.757031 1_556
Ba1 O8 2.757497 1_555
Ba1 O13 2.867303 1_655
Ba1 O13 2.932942 1_656
Mg0 O8 2.071286 1_565
Mg0 O4 2.122817 1_565
Mg0 O7 2.150584 1_554
Mg0 O7 2.159427 1_555
Mg0 O9 2.213150 1_555
Nb0 O13 1.899392 1_555
Nb0 O1 2.065440 1_555
Nb0 O1 2.067240 1_554
Nb0 O3 2.285007 1_555
Nb1 O2 1.816660 1_555
Nb1 O5 2.000579 1_555
Nb1 O3 2.080451 1_556
Nb1 O3 2.081972 1_555
Nb1 O1 2.191406 1_555
Nb1 O6 2.405885 1_555
Nb2 O8 1.926576 1_555
Nb2 O4 1.963159 1_555
Nb2 O10 1.983512 1_555
Nb2 O6 2.029678 1_554
Nb2 O6 2.097150 1_555
Nb2 O3 2.406143 1_555
Nb3 O5 1.900348 1_555
Nb3 O7 1.988522 1_555
Nb3 O9 2.019399 1_556
Nb3 O9 2.019789 1_555
Nb3 O11 2.453519 1_555
Nb4 O10 1.931322 1_555
Nb4 O12 2.293361 1_555
Nb4 O9 2.404655 1_555
Nb5 O0 1.834238 1_555
Nb5 O11 1.889733 1_555
Nb5 O12 2.053079 1_556
Nb5 O12 2.061980 1_555
Nb5 O2 2.297554 1_655
N0 Nb4 2.064918 1_555
N0 Nb4 2.066841 1_556
N0 Nb3 2.116812 1_555
N0 Nb5 2.297171 1_555
N1 Nb0 1.853436 1_655
N1 Nb4 1.958266 1_555
