# generated using pymatgen
data_Ca(FeAs)2
_symmetry_space_group_name_H-M   'P 1'
_cell_length_a   5.48800167
_cell_length_b   6.51045827
_cell_length_c   5.49520747
_cell_angle_alpha   65.01488176
_cell_angle_beta   90.00086560
_cell_angle_gamma   89.99818649
_symmetry_Int_Tables_number   1
_chemical_formula_structural   Ca(FeAs)2
_chemical_formula_sum   'Ca2 Fe4 As4'
_cell_volume   177.96646804
_cell_formula_units_Z   2
loop_
 _symmetry_equiv_pos_site_id
 _symmetry_equiv_pos_as_xyz
  1  'x, y, z'
loop_
 _atom_site_type_symbol
 _atom_site_label
 _atom_site_symmetry_multiplicity
 _atom_site_fract_x
 _atom_site_fract_y
 _atom_site_fract_z
 _atom_site_occupancy
  Ca  Ca0  1  0.49998660  0.00000577  0.49999681  1
  Ca  Ca1  1  0.00000311  0.00000562  -0.00000237  1
  Fe  Fe0  1  0.25004727  0.50000810  -0.00000356  1
  Fe  Fe1  1  0.74993900  0.50000171  0.00001414  1
  Fe  Fe2  1  0.75002043  0.49999034  0.49998570  1
  Fe  Fe3  1  0.24996672  0.50001850  0.49998414  1
  As  As0  1  0.50006668  0.75249973  0.12368344  1
  As  As1  1  -0.00005391  0.75245368  0.62368511  1
  As  As2  1  0.00001824  0.24751812  0.37633828  1
  As  As3  1  0.50000485  0.24749842  0.87631831  1
loop_
_geom_bond_atom_site_label_1
_geom_bond_atom_site_label_2
_geom_bond_distance
_geom_bond_site_symmetry_2
As0 Fe1 2.447093 1_555
As0 Fe2 2.447107 1_555
As0 Fe3 2.447587 1_555
As0 Fe0 2.447614 1_555
As0 Ca1 3.108256 1_665
As0 Ca1 3.108764 1_565
As0 Ca0 3.110866 1_564
As0 Ca0 3.112517 1_565
As1 Fe2 2.447218 1_455
As1 Fe3 2.447324 1_555
As1 Fe1 2.447329 1_456
As1 Fe0 2.447458 1_556
As1 Ca0 3.108388 1_465
As1 Ca0 3.108889 1_565
As1 Ca1 3.110886 1_565
As1 Ca1 3.112751 1_566
As2 Fe2 2.447279 1_455
As2 Fe3 2.447313 1_555
As2 Fe1 2.447507 1_455
As2 Fe0 2.447514 1_555
As2 Ca0 3.108321 1_555
As2 Ca0 3.108736 1_455
As2 Ca1 3.110736 1_556
As2 Ca1 3.112683 1_555
As3 Fe1 2.447438 1_556
As3 Fe0 2.447442 1_556
As3 Fe2 2.447448 1_555
As3 Fe3 2.447487 1_555
As3 Ca1 3.108411 1_656
As3 Ca1 3.108536 1_556
As3 Ca0 3.110822 1_556
As3 Ca0 3.112487 1_555
