# generated using pymatgen
data_ScMnGaS4
_symmetry_space_group_name_H-M   'P 1'
_cell_length_a   6.11615000
_cell_length_b   7.42039700
_cell_length_c   12.86500700
_cell_angle_alpha   90.00000000
_cell_angle_beta   90.00000000
_cell_angle_gamma   90.00000000
_symmetry_Int_Tables_number   1
_chemical_formula_structural   ScMnGaS4
_chemical_formula_sum   'Sc4 Mn4 Ga4 S16'
_cell_volume   583.86883689
_cell_formula_units_Z   4
loop_
 _symmetry_equiv_pos_site_id
 _symmetry_equiv_pos_as_xyz
  1  'x, y, z'
loop_
 _atom_site_type_symbol
 _atom_site_label
 _atom_site_symmetry_multiplicity
 _atom_site_fract_x
 _atom_site_fract_y
 _atom_site_fract_z
 _atom_site_occupancy
  Sc  Sc0  1  0.00335900  0.75000000  0.26700000  1
  Sc  Sc1  1  0.49664100  0.75000000  0.76700000  1
  Sc  Sc2  1  0.99664100  0.25000000  0.73300000  1
  Sc  Sc3  1  0.50335900  0.25000000  0.23300000  1
  Mn  Mn0  1  0.00000000  0.50000000  0.00000000  1
  Mn  Mn1  1  0.50000000  0.00000000  0.50000000  1
  Mn  Mn2  1  0.00000000  0.00000000  0.00000000  1
  Mn  Mn3  1  0.50000000  0.50000000  0.50000000  1
  Ga  Ga0  1  0.58095700  0.75000000  0.08836900  1
  Ga  Ga1  1  0.91904300  0.75000000  0.58836900  1
  Ga  Ga2  1  0.41904300  0.25000000  0.91163100  1
  Ga  Ga3  1  0.08095700  0.25000000  0.41163100  1
  S  S0  1  0.21264300  0.75000000  0.09008700  1
  S  S1  1  0.28735700  0.75000000  0.59008700  1
  S  S2  1  0.78735700  0.25000000  0.90991300  1
  S  S3  1  0.71264300  0.25000000  0.40991300  1
  S  S4  1  0.75166600  0.75000000  0.42780600  1
  S  S5  1  0.74833400  0.75000000  0.92780600  1
  S  S6  1  0.24833400  0.25000000  0.57219400  1
  S  S7  1  0.25166600  0.25000000  0.07219400  1
  S  S8  1  0.75627200  0.50988900  0.16802600  1
  S  S9  1  0.74372800  0.99011100  0.66802600  1
  S  S10  1  0.24372800  0.00988900  0.83197400  1
  S  S11  1  0.25627200  0.49011100  0.33197400  1
  S  S12  1  0.24372800  0.49011100  0.83197400  1
  S  S13  1  0.25627200  0.00988900  0.33197400  1
  S  S14  1  0.75627200  0.99011100  0.16802600  1
  S  S15  1  0.74372800  0.50988900  0.66802600  1
loop_
_geom_bond_atom_site_label_1
_geom_bond_atom_site_label_2
_geom_bond_distance
_geom_bond_site_symmetry_2
Mn0 S0 2.544809 1_555
Mn0 S2 2.544809 1_454
Mn0 S7 2.583261 1_555
Mn0 S5 2.583261 1_454
Mn0 S8 2.626834 1_455
Mn0 S12 2.626834 1_554
Mn1 S1 2.544809 1_545
Mn1 S3 2.544809 1_555
Mn1 S6 2.583261 1_555
Mn1 S4 2.583261 1_545
Mn1 S13 2.626834 1_555
Mn1 S9 2.626834 1_545
Mn2 S0 2.544809 1_545
Mn2 S2 2.544809 1_454
Mn2 S7 2.583261 1_555
Mn2 S5 2.583261 1_444
Mn2 S14 2.626834 1_445
Mn2 S10 2.626834 1_554
Mn3 S1 2.544809 1_555
Mn3 S3 2.544809 1_555
Mn3 S6 2.583261 1_555
Mn3 S4 2.583261 1_555
Mn3 S15 2.626834 1_555
Mn3 S11 2.626834 1_555
Ga0 S0 2.252772 1_555
Ga0 S5 2.305397 1_554
Ga0 S14 2.318284 1_555
Ga0 S8 2.318284 1_555
Ga1 S1 2.252772 1_655
Ga1 S4 2.305397 1_555
Ga1 S9 2.318284 1_555
Ga1 S15 2.318284 1_555
Ga2 S2 2.252772 1_555
Ga2 S7 2.305397 1_556
Ga2 S12 2.318284 1_555
Ga2 S10 2.318284 1_555
Ga3 S3 2.252772 1_455
Ga3 S6 2.305397 1_555
Ga3 S11 2.318284 1_555
Ga3 S13 2.318284 1_555
S0 Sc0 2.611235 1_555
S1 Sc1 2.611235 1_555
S2 Sc2 2.611235 1_555
S3 Sc3 2.611235 1_555
S4 Sc0 2.578670 1_655
S5 Sc1 2.578670 1_555
S6 Sc2 2.578670 1_455
S7 Sc3 2.578670 1_555
S8 Sc3 2.609694 1_555
S8 Sc0 2.660753 1_655
S9 Sc2 2.609694 1_565
S9 Sc1 2.660753 1_555
S10 Sc1 2.609694 1_545
S10 Sc2 2.660753 1_455
S11 Sc0 2.609694 1_555
S11 Sc3 2.660753 1_555
S12 Sc1 2.609694 1_555
S12 Sc2 2.660753 1_455
S13 Sc0 2.609694 1_545
S13 Sc3 2.660753 1_555
S14 Sc3 2.609694 1_565
S14 Sc0 2.660753 1_655
S15 Sc2 2.609694 1_555
S15 Sc1 2.660753 1_555
