# generated using pymatgen
data_Sr10Fe3Co2(MoO6)5
_symmetry_space_group_name_H-M   'P 1'
_cell_length_a   7.86319171
_cell_length_b   9.62644467
_cell_length_c   9.69325540
_cell_angle_alpha   79.93984087
_cell_angle_beta   66.06070260
_cell_angle_gamma   65.92494038
_symmetry_Int_Tables_number   1
_chemical_formula_structural   Sr10Fe3Co2(MoO6)5
_chemical_formula_sum   'Sr10 Fe3 Co2 Mo5 O30'
_cell_volume   612.23680114
_cell_formula_units_Z   1
loop_
 _symmetry_equiv_pos_site_id
 _symmetry_equiv_pos_as_xyz
  1  'x, y, z'
loop_
 _atom_site_type_symbol
 _atom_site_label
 _atom_site_symmetry_multiplicity
 _atom_site_fract_x
 _atom_site_fract_y
 _atom_site_fract_z
 _atom_site_occupancy
  Sr  Sr0  1  0.15099770  0.39862262  0.29974798  1
  Sr  Sr1  1  0.75069496  0.00059250  0.49906425  1
  Sr  Sr2  1  0.94957208  0.19944652  0.90099321  1
  Sr  Sr3  1  0.54980459  0.80186811  0.09850587  1
  Sr  Sr4  1  0.34917391  0.60073931  0.69995758  1
  Sr  Sr5  1  0.65082609  0.39926069  0.30004242  1
  Sr  Sr6  1  0.24930504  0.99940750  0.50093575  1
  Sr  Sr7  1  0.45019541  0.19813189  0.90149413  1
  Sr  Sr8  1  0.05042792  0.80055348  0.09900679  1
  Sr  Sr9  1  0.84900230  0.60137738  0.70025202  1
  Fe  Fe0  1  0.29944833  0.30134829  0.60020552  1
  Fe  Fe1  1  0.50000000  0.50000000  0.00000000  1
  Fe  Fe2  1  0.70055167  0.69865171  0.39979448  1
  Co  Co0  1  0.90077011  0.89865498  0.79956386  1
  Co  Co1  1  0.09922989  0.10134502  0.20043614  1
  Mo  Mo0  1  0.80091705  0.29831205  0.60043787  1
  Mo  Mo1  1  0.39893810  0.90109612  0.80056284  1
  Mo  Mo2  1  0.60106190  0.09890388  0.19943716  1
  Mo  Mo3  1  0.19908295  0.70168795  0.39956213  1
  Mo  Mo4  1  -0.00000000  0.50000000  0.00000000  1
  O  O0  1  0.85300278  0.59844321  0.19643124  1
  O  O1  1  0.45273348  0.19832788  0.39650127  1
  O  O2  1  0.65412686  0.39728006  0.79470459  1
  O  O3  1  0.25499201  0.99702141  0.99344656  1
  O  O4  1  0.05662664  0.79553801  0.59283031  1
  O  O5  1  0.94337336  0.20446199  0.40716969  1
  O  O6  1  0.54726652  0.80167212  0.60349873  1
  O  O7  1  0.74500799  0.00297859  0.00655344  1
  O  O8  1  0.34587314  0.60271994  0.20529541  1
  O  O9  1  0.14699722  0.40155679  0.80356876  1
  O  O10  1  0.12050841  0.89527899  0.30248911  1
  O  O11  1  0.31956970  0.09607158  0.70154287  1
  O  O12  1  0.51964027  0.29665905  0.10176975  1
  O  O13  1  0.71986154  0.49580866  0.50282248  1
  O  O14  1  0.92232049  0.69388209  0.90289285  1
  O  O15  1  0.07767951  0.30611791  0.09710715  1
  O  O16  1  0.28013846  0.50419134  0.49717752  1
  O  O17  1  0.48035973  0.70334095  0.89823025  1
  O  O18  1  0.68043030  0.90392842  0.29845713  1
  O  O19  1  0.87949159  0.10472101  0.69751089  1
  O  O20  1  0.23958819  0.52426094  0.98764923  1
  O  O21  1  0.43939909  0.72462240  0.38625185  1
  O  O22  1  0.63565588  0.92323478  0.78642138  1
  O  O23  1  0.83288170  0.12555127  0.18925599  1
  O  O24  1  0.03803544  0.32507396  0.58803421  1
  O  O25  1  0.76041181  0.47573906  0.01235077  1
  O  O26  1  0.96196456  0.67492604  0.41196579  1
  O  O27  1  0.16711830  0.87444873  0.81074401  1
  O  O28  1  0.36434412  0.07676522  0.21357862  1
  O  O29  1  0.56060091  0.27537760  0.61374815  1
loop_
_geom_bond_atom_site_label_1
_geom_bond_atom_site_label_2
_geom_bond_distance
_geom_bond_site_symmetry_2
Fe0 O16 2.008273 1_555
Fe0 O9 2.014097 1_555
Fe0 O29 2.021141 1_555
Fe0 O11 2.021814 1_555
Fe0 O24 2.023782 1_555
Fe0 O1 2.027963 1_555
Fe1 O17 2.007732 1_554
Fe1 O12 2.007732 1_555
Fe1 O20 2.015150 1_554
Fe1 O25 2.015150 1_555
Fe1 O8 2.039391 1_555
Fe1 O2 2.039391 1_554
Fe2 O13 2.008273 1_555
Fe2 O0 2.014097 1_555
Fe2 O21 2.021141 1_555
Fe2 O18 2.021814 1_555
Fe2 O26 2.023782 1_555
Fe2 O6 2.027963 1_555
Co0 O14 2.023143 1_555
Co0 O19 2.029663 1_565
Co0 O4 2.052409 1_655
Co0 O22 2.054388 1_555
Co0 O27 2.056584 1_655
Co0 O7 2.059236 1_566
Co1 O15 2.023143 1_555
Co1 O10 2.029663 1_545
Co1 O5 2.052409 1_455
Co1 O28 2.054388 1_555
Co1 O23 2.056584 1_455
Co1 O3 2.059236 1_544
Mo0 O5 1.908721 1_555
Mo0 O19 1.913081 1_555
Mo0 O2 1.936907 1_555
Mo0 O24 1.938133 1_655
Mo0 O29 1.941324 1_555
Mo0 O13 1.946377 1_555
Mo1 O27 1.903933 1_555
Mo1 O22 1.906629 1_555
Mo1 O3 1.913778 1_555
Mo1 O11 1.932523 1_565
Mo1 O17 1.948855 1_555
Mo1 O6 1.960904 1_555
Mo2 O23 1.903933 1_555
Mo2 O28 1.906629 1_555
Mo2 O7 1.913778 1_555
Mo2 O18 1.932523 1_545
Mo2 O12 1.948855 1_555
Mo2 O1 1.960904 1_555
Mo3 O4 1.908721 1_555
Mo3 O10 1.913081 1_555
Mo3 O8 1.936907 1_555
Mo3 O26 1.938133 1_455
Mo3 O21 1.941324 1_555
Mo3 O16 1.946377 1_555
Mo4 O15 1.914487 1_555
Mo4 O14 1.914487 1_454
Mo4 O25 1.945309 1_455
Mo4 O20 1.945309 1_554
Mo4 O0 1.951968 1_455
Mo4 O9 1.951968 1_554
O0 Sr8 2.778429 1_655
O0 Sr5 2.780455 1_555
O0 Sr0 2.783457 1_655
O0 Sr3 2.792463 1_555
O1 Sr0 2.769154 1_555
O1 Sr5 2.772404 1_555
O1 Sr1 2.773366 1_555
O1 Sr6 2.785321 1_545
O2 Sr2 2.780764 1_555
O2 Sr9 2.781328 1_555
O2 Sr4 2.785057 1_555
O2 Sr7 2.790314 1_555
O3 Sr7 2.758575 1_565
O3 Sr3 2.763078 1_556
O3 Sr8 2.771560 1_556
O3 Sr2 2.772417 1_465
O4 Sr4 2.761383 1_555
O4 Sr6 2.767735 1_555
O4 Sr9 2.770032 1_455
O4 Sr1 2.789783 1_465
O5 Sr5 2.761383 1_555
O5 Sr1 2.767735 1_555
O5 Sr0 2.770032 1_655
O5 Sr6 2.789783 1_645
O6 Sr9 2.769154 1_555
O6 Sr4 2.772404 1_555
O6 Sr6 2.773366 1_555
O6 Sr1 2.785321 1_565
O7 Sr3 2.758575 1_545
O7 Sr7 2.763078 1_554
O7 Sr2 2.771560 1_554
O7 Sr8 2.772417 1_645
O8 Sr8 2.780764 1_555
O8 Sr0 2.781328 1_555
O8 Sr5 2.785057 1_555
O8 Sr3 2.790314 1_555
O9 Sr2 2.778429 1_455
O9 Sr4 2.780455 1_555
O9 Sr9 2.783457 1_455
O9 Sr7 2.792463 1_555
O10 Sr1 2.624412 1_465
O10 Sr8 2.635516 1_555
O10 Sr6 2.968757 1_555
O10 Sr3 2.973403 1_555
O11 Sr6 2.622188 1_545
O11 Sr2 2.633967 1_455
O11 Sr1 2.979542 1_555
O11 Sr7 2.980097 1_555
O12 Sr0 2.621272 1_555
O12 Sr7 2.625380 1_554
O12 Sr2 2.967805 1_554
O12 Sr5 2.972649 1_555
O13 Sr4 2.630568 1_555
O13 Sr5 2.633977 1_555
O13 Sr9 2.970653 1_555
O13 Sr0 2.980445 1_655
O14 Sr9 2.632976 1_555
O14 Sr3 2.636842 1_556
O14 Sr4 2.956654 1_655
O14 Sr8 2.960211 1_656
O15 Sr0 2.632976 1_555
O15 Sr7 2.636842 1_554
O15 Sr5 2.956654 1_455
O15 Sr2 2.960211 1_454
O16 Sr5 2.630568 1_555
O16 Sr4 2.633977 1_555
O16 Sr0 2.970653 1_555
O16 Sr9 2.980445 1_455
O17 Sr9 2.621272 1_555
O17 Sr3 2.625380 1_556
O17 Sr8 2.967805 1_556
O17 Sr4 2.972649 1_555
O18 Sr1 2.622188 1_565
O18 Sr8 2.633967 1_655
O18 Sr6 2.979542 1_555
O18 Sr3 2.980097 1_555
O19 Sr6 2.624412 1_645
O19 Sr2 2.635516 1_555
O19 Sr1 2.968757 1_555
O19 Sr7 2.973403 1_555
O20 Sr4 2.628956 1_555
O20 Sr8 2.631355 1_556
O20 Sr0 2.966317 1_556
O20 Sr7 2.974559 1_555
O21 Sr6 2.630615 1_555
O21 Sr3 2.631205 1_555
O21 Sr5 2.968299 1_555
O21 Sr4 2.974014 1_555
O22 Sr1 2.628982 1_565
O22 Sr7 2.633686 1_565
O22 Sr9 2.939049 1_555
O22 Sr3 2.953549 1_556
O23 Sr5 2.609320 1_555
O23 Sr2 2.629251 1_554
O23 Sr1 2.946213 1_555
O23 Sr8 2.975713 1_645
O24 Sr0 2.628048 1_555
O24 Sr9 2.634451 1_455
O24 Sr6 2.972919 1_545
O24 Sr2 2.973416 1_455
O25 Sr5 2.628956 1_555
O25 Sr2 2.631355 1_554
O25 Sr9 2.966317 1_554
O25 Sr3 2.974559 1_555
O26 Sr9 2.628048 1_555
O26 Sr0 2.634451 1_655
O26 Sr1 2.972919 1_565
O26 Sr8 2.973416 1_655
O27 Sr4 2.609320 1_555
O27 Sr8 2.629251 1_556
O27 Sr6 2.946213 1_555
O27 Sr2 2.975713 1_465
O28 Sr6 2.628982 1_545
O28 Sr3 2.633686 1_545
O28 Sr0 2.939049 1_555
O28 Sr7 2.953549 1_554
O29 Sr1 2.630615 1_555
O29 Sr7 2.631205 1_555
O29 Sr4 2.968299 1_555
O29 Sr5 2.974014 1_555
