# generated using pymatgen
data_Na2LiMnPCO7
_symmetry_space_group_name_H-M   'P 1'
_cell_length_a   6.79246800
_cell_length_b   8.87919073
_cell_length_c   10.28883020
_cell_angle_alpha   90.86366113
_cell_angle_beta   90.18738830
_cell_angle_gamma   91.00603918
_symmetry_Int_Tables_number   1
_chemical_formula_structural   Na2LiMnPCO7
_chemical_formula_sum   'Na8 Li4 Mn4 P4 C4 O28'
_cell_volume   620.36598530
_cell_formula_units_Z   4
loop_
 _symmetry_equiv_pos_site_id
 _symmetry_equiv_pos_as_xyz
  1  'x, y, z'
loop_
 _atom_site_type_symbol
 _atom_site_label
 _atom_site_symmetry_multiplicity
 _atom_site_fract_x
 _atom_site_fract_y
 _atom_site_fract_z
 _atom_site_occupancy
  Na  Na0  1  0.23474900  0.91806100  0.87877300  1
  Na  Na1  1  0.24714400  0.91554800  0.37902200  1
  Na  Na2  1  0.50160700  0.74737700  0.62659600  1
  Na  Na3  1  0.99922800  0.74346500  0.12554300  1
  Na  Na4  1  0.50044900  0.74258300  0.12432200  1
  Na  Na5  1  0.50130600  0.25293800  0.87375300  1
  Na  Na6  1  0.50327500  0.25523500  0.37758200  1
  Na  Na7  1  0.99717200  0.25407300  0.37540700  1
  Li  Li0  1  0.03698800  0.71932000  0.60941400  1
  Li  Li1  1  0.97029500  0.27526600  0.88832300  1
  Li  Li2  1  0.77787500  0.08802200  0.63042200  1
  Li  Li3  1  0.75548200  0.09968600  0.12263800  1
  Mn  Mn0  1  0.74997500  0.64003600  0.88334000  1
  Mn  Mn1  1  0.75453700  0.63547900  0.39443300  1
  Mn  Mn2  1  0.24749700  0.35365300  0.61685200  1
  Mn  Mn3  1  0.24438500  0.35872500  0.10705100  1
  P  P0  1  0.23848300  0.58669800  0.85008600  1
  P  P1  1  0.25195400  0.58569300  0.35880200  1
  P  P2  1  0.75862800  0.40650300  0.65090500  1
  P  P3  1  0.74720700  0.40772300  0.14262500  1
  C  C0  1  0.75995600  0.95759300  0.86744900  1
  C  C1  1  0.75068100  0.94826900  0.36291600  1
  C  C2  1  0.23981700  0.05111600  0.63225600  1
  C  C3  1  0.24853100  0.05982200  0.13279300  1
  O  O0  1  0.22397300  0.90590700  0.64077100  1
  O  O1  1  0.25457800  0.91532100  0.14430100  1
  O  O2  1  0.75382900  0.92373200  0.99004900  1
  O  O3  1  0.74866000  0.92106500  0.48661700  1
  O  O4  1  0.74730300  0.85198300  0.77848900  1
  O  O5  1  0.75859100  0.83694300  0.27872300  1
  O  O6  1  0.06521800  0.68246900  0.90112200  1
  O  O7  1  0.43160000  0.67203000  0.89028100  1
  O  O8  1  0.07326900  0.67871900  0.40837600  1
  O  O9  1  0.43928400  0.67951500  0.39817900  1
  O  O10  1  0.22772100  0.57591400  0.69795000  1
  O  O11  1  0.76997400  0.56996000  0.59643000  1
  O  O12  1  0.24216800  0.56985300  0.20718700  1
  O  O13  1  0.74724000  0.56647400  0.08253900  1
  O  O14  1  0.23016600  0.42287800  0.90252000  1
  O  O15  1  0.77222800  0.42105300  0.80246600  1
  O  O16  1  0.25274500  0.42637200  0.41661000  1
  O  O17  1  0.75767700  0.42736200  0.29355400  1
  O  O18  1  0.56478300  0.32203800  0.61226900  1
  O  O19  1  0.92751300  0.30501400  0.60076400  1
  O  O20  1  0.56096200  0.31229700  0.10458300  1
  O  O21  1  0.92299500  0.31012800  0.09438700  1
  O  O22  1  0.24957200  0.13581500  0.73621600  1
  O  O23  1  0.24216300  0.14677400  0.23574300  1
  O  O24  1  0.24634100  0.11553500  0.51942300  1
  O  O25  1  0.24795300  0.12102700  0.01902300  1
  O  O26  1  0.77872500  0.09656700  0.83064200  1
  O  O27  1  0.74554700  0.08437300  0.31948200  1
loop_
_geom_bond_atom_site_label_1
_geom_bond_atom_site_label_2
_geom_bond_distance
_geom_bond_site_symmetry_2
Na0 O25 2.291992 1_566
Na0 O6 2.384629 1_555
Na0 O22 2.445290 1_565
Na0 O0 2.450311 1_555
Na0 O7 2.585244 1_555
Na0 O1 2.735346 1_556
Na1 O24 2.272233 1_565
Na1 O1 2.415669 1_555
Na1 O8 2.417088 1_555
Na1 O9 2.498253 1_555
Na1 O23 2.546155 1_565
Na1 O0 2.700757 1_555
Na2 O0 2.376510 1_555
Na2 O4 2.444374 1_555
Na2 O11 2.447577 1_555
Na2 O9 2.450980 1_555
Na2 O10 2.502190 1_555
Na2 O3 2.694541 1_555
Na2 O7 2.843610 1_555
Na3 O1 2.295666 1_655
Na3 O13 2.339823 1_555
Na3 O6 2.409036 1_654
Na3 O5 2.422712 1_555
Na3 O12 2.433987 1_655
Na3 O2 2.725737 1_554
Na4 O1 2.294895 1_555
Na4 O13 2.348730 1_555
Na4 O12 2.472177 1_555
Na4 O5 2.488011 1_555
Na4 O7 2.519230 1_554
Na4 O2 2.728212 1_554
Na4 O9 2.910757 1_555
Na5 O26 2.398775 1_555
Na5 O14 2.417448 1_555
Na5 O22 2.425925 1_555
Na5 O20 2.455798 1_556
Na5 O15 2.469415 1_555
Na5 O25 2.562450 1_556
Na5 O18 2.801512 1_555
Na6 O27 2.331058 1_555
Na6 O16 2.333028 1_555
Na6 O17 2.454833 1_555
Na6 O23 2.466484 1_555
Na6 O18 2.509674 1_555
Na6 O24 2.590256 1_555
Na6 O20 2.888418 1_555
Na7 O27 2.323733 1_555
Na7 O16 2.327275 1_655
Na7 O23 2.402468 1_655
Na7 O19 2.405769 1_555
Na7 O17 2.416837 1_555
Na7 O24 2.585513 1_655
Li0 O10 2.052994 1_555
Li0 O0 2.090293 1_555
Li0 O8 2.110246 1_555
Li0 O11 2.230404 1_455
Li1 O15 2.086588 1_555
Li1 O26 2.111184 1_555
Li1 O21 2.163856 1_556
Li1 O14 2.183189 1_655
Li2 O26 2.060269 1_555
Li2 O3 2.085142 1_545
Li2 O19 2.188473 1_555
Li2 O18 2.561837 1_555
Li3 O27 2.033158 1_555
Li3 O2 2.058406 1_544
Li3 O21 2.194200 1_555
Li3 O20 2.332523 1_555
Mn0 O15 2.111460 1_555
Mn0 O13 2.160488 1_556
Mn0 O6 2.174288 1_655
Mn0 O4 2.183579 1_555
Mn0 O7 2.187328 1_555
Mn1 O17 2.106236 1_555
Mn1 O5 2.163498 1_555
Mn1 O11 2.169328 1_555
Mn1 O9 2.183854 1_555
Mn1 O8 2.195958 1_655
Mn2 O10 2.137608 1_555
Mn2 O16 2.168550 1_555
Mn2 O18 2.178813 1_555
Mn2 O19 2.213699 1_455
Mn2 O22 2.306978 1_555
Mn2 O24 2.326079 1_555
Mn3 O12 2.125764 1_555
Mn3 O14 2.190657 1_554
Mn3 O20 2.196752 1_555
Mn3 O21 2.220847 1_455
Mn3 O25 2.284664 1_555
Mn3 O23 2.317206 1_555
C0 O26 1.300479 1_565
C0 O2 1.301776 1_555
C0 O4 1.302026 1_555
C1 O27 1.295777 1_565
C1 O3 1.299101 1_555
C1 O5 1.306419 1_555
C2 O0 1.296243 1_545
C2 O22 1.299084 1_555
C2 O24 1.302434 1_555
C3 O1 1.291637 1_545
C3 O25 1.297994 1_555
C3 O23 1.302594 1_555
O6 P0 1.552311 1_555
O7 P0 1.554953 1_555
O8 P1 1.562715 1_555
O9 P1 1.557707 1_555
O10 P0 1.568174 1_555
O11 P2 1.564424 1_555
O12 P1 1.565246 1_555
O13 P3 1.547697 1_555
O14 P0 1.559178 1_555
O15 P2 1.565079 1_555
O16 P1 1.542923 1_555
O17 P3 1.561278 1_555
O18 P2 1.551473 1_555
O19 P2 1.555731 1_555
O20 P3 1.555839 1_555
O21 P3 1.565319 1_555
