# generated using pymatgen
data_SO5
_symmetry_space_group_name_H-M   'P 1'
_cell_length_a   6.67723500
_cell_length_b   8.04802900
_cell_length_c   9.78717620
_cell_angle_alpha   68.97040121
_cell_angle_beta   90.00000000
_cell_angle_gamma   90.00000000
_symmetry_Int_Tables_number   1
_chemical_formula_structural   SO5
_chemical_formula_sum   'S4 O20'
_cell_volume   490.91821949
_cell_formula_units_Z   4
loop_
 _symmetry_equiv_pos_site_id
 _symmetry_equiv_pos_as_xyz
  1  'x, y, z'
loop_
 _atom_site_type_symbol
 _atom_site_label
 _atom_site_symmetry_multiplicity
 _atom_site_fract_x
 _atom_site_fract_y
 _atom_site_fract_z
 _atom_site_occupancy
  S  S0  1  0.31609800  0.76460400  0.47704300  1
  S  S1  1  0.81609800  0.23539600  0.02295700  1
  S  S2  1  0.68390200  0.23539600  0.52295700  1
  S  S3  1  0.18390200  0.76460400  0.97704300  1
  O  O0  1  0.19765700  0.87829100  0.52948800  1
  O  O1  1  0.69765700  0.12170900  0.97051200  1
  O  O2  1  0.80234300  0.12170900  0.47051200  1
  O  O3  1  0.30234300  0.87829100  0.02948800  1
  O  O4  1  0.26099700  0.58101000  0.51407000  1
  O  O5  1  0.76099700  0.41899000  0.98593000  1
  O  O6  1  0.73900300  0.41899000  0.48593000  1
  O  O7  1  0.23900300  0.58101000  0.01407000  1
  O  O8  1  0.48188200  0.83684300  0.38066400  1
  O  O9  1  0.98188200  0.16315700  0.11933600  1
  O  O10  1  0.51811800  0.16315700  0.61933600  1
  O  O11  1  0.01811800  0.83684300  0.88066400  1
  O  O12  1  0.55810600  0.68799700  0.71420600  1
  O  O13  1  0.05810600  0.31200300  0.78579400  1
  O  O14  1  0.44189400  0.31200300  0.28579400  1
  O  O15  1  0.94189400  0.68799700  0.21420600  1
  O  O16  1  0.22730500  0.24921200  0.81589600  1
  O  O17  1  0.72730500  0.75078800  0.68410400  1
  O  O18  1  0.77269500  0.75078800  0.18410400  1
  O  O19  1  0.27269500  0.24921200  0.31589600  1
loop_
_geom_bond_atom_site_label_1
_geom_bond_atom_site_label_2
_geom_bond_distance
_geom_bond_site_symmetry_2
O0 S0 1.436358 1_555
O1 S1 1.436358 1_556
O2 S2 1.436358 1_555
O3 S3 1.436358 1_554
O4 S0 1.437223 1_555
O5 S1 1.437223 1_556
O6 S2 1.437223 1_555
O7 S3 1.437223 1_554
O8 S0 1.435127 1_555
O9 S1 1.435127 1_555
O10 S2 1.435127 1_555
O11 S3 1.435127 1_555
O12 O17 1.229522 1_555
O13 O16 1.229522 1_555
O14 O19 1.229522 1_555
O15 O18 1.229522 1_555
