# generated using pymatgen
data_ZrPt8
_symmetry_space_group_name_H-M   'P 1'
_cell_length_a   3.97084059
_cell_length_b   6.29701089
_cell_length_c   6.29701089
_cell_angle_alpha   84.29472198
_cell_angle_beta   71.62133087
_cell_angle_gamma   71.62133087
_symmetry_Int_Tables_number   1
_chemical_formula_structural   ZrPt8
_chemical_formula_sum   'Zr1 Pt8'
_cell_volume   141.80050612
_cell_formula_units_Z   1
loop_
 _symmetry_equiv_pos_site_id
 _symmetry_equiv_pos_as_xyz
  1  'x, y, z'
loop_
 _atom_site_type_symbol
 _atom_site_label
 _atom_site_symmetry_multiplicity
 _atom_site_fract_x
 _atom_site_fract_y
 _atom_site_fract_z
 _atom_site_occupancy
  Zr  Zr0  1  0.00000000  -0.00000000  -0.00000000  1
  Pt  Pt0  1  0.33212565  0.66787435  0.66787435  1
  Pt  Pt1  1  0.66787435  0.33212565  0.33212565  1
  Pt  Pt2  1  0.00000000  0.33212565  0.66787435  1
  Pt  Pt3  1  0.00000000  0.66787435  0.33212565  1
  Pt  Pt4  1  0.33496818  -0.00000000  0.33006265  1
  Pt  Pt5  1  0.66503182  0.00000000  0.66993735  1
  Pt  Pt6  1  0.66503182  0.66993735  0.00000000  1
  Pt  Pt7  1  0.33496818  0.33006265  -0.00000000  1
loop_
_geom_bond_atom_site_label_1
_geom_bond_atom_site_label_2
_geom_bond_distance
_geom_bond_site_symmetry_2
Pt0 Zr0 2.806823 1_566
Pt1 Zr0 2.806823 1_655
Pt2 Zr0 2.806823 1_556
Pt3 Zr0 2.806823 1_565
Pt4 Zr0 2.798612 1_555
Pt4 Zr0 2.798615 1_655
Pt5 Zr0 2.798612 1_656
Pt5 Zr0 2.798615 1_556
Pt6 Zr0 2.798612 1_665
Pt6 Zr0 2.798615 1_565
Pt7 Zr0 2.798612 1_555
Pt7 Zr0 2.798615 1_655
