# generated using pymatgen
data_Tb5(In2Pd)2
_symmetry_space_group_name_H-M   'P 1'
_cell_length_a   8.06403957
_cell_length_b   18.26175944
_cell_length_c   3.64852900
_cell_angle_alpha   90.00000000
_cell_angle_beta   90.00000000
_cell_angle_gamma   90.00000000
_symmetry_Int_Tables_number   1
_chemical_formula_structural   Tb5(In2Pd)2
_chemical_formula_sum   'Tb10 In8 Pd4'
_cell_volume   537.29533553
_cell_formula_units_Z   2
loop_
 _symmetry_equiv_pos_site_id
 _symmetry_equiv_pos_as_xyz
  1  'x, y, z'
loop_
 _atom_site_type_symbol
 _atom_site_label
 _atom_site_symmetry_multiplicity
 _atom_site_fract_x
 _atom_site_fract_y
 _atom_site_fract_z
 _atom_site_occupancy
  Tb  Tb0  1  0.50000000  0.50000000  0.00000000  1
  Tb  Tb1  1  0.00000000  -0.00000000  0.00000000  1
  Tb  Tb2  1  0.74317164  0.28030225  0.00000000  1
  Tb  Tb3  1  0.25682836  0.71969775  0.00000000  1
  Tb  Tb4  1  0.75682836  0.78030225  0.00000000  1
  Tb  Tb5  1  0.24317164  0.21969775  0.00000000  1
  Tb  Tb6  1  0.61754003  0.08281809  0.00000000  1
  Tb  Tb7  1  0.38245997  0.91718191  0.00000000  1
  Tb  Tb8  1  0.88245997  0.58281809  0.00000000  1
  Tb  Tb9  1  0.11754003  0.41718191  0.00000000  1
  In  In0  1  0.70983353  0.93094587  0.50000000  1
  In  In1  1  0.29016647  0.06905413  0.50000000  1
  In  In2  1  0.79016647  0.43094587  0.50000000  1
  In  In3  1  0.20983353  0.56905413  0.50000000  1
  In  In4  1  0.57620781  0.65013851  0.50000000  1
  In  In5  1  0.42379219  0.34986149  0.50000000  1
  In  In6  1  0.92379219  0.15013851  0.50000000  1
  In  In7  1  0.07620781  0.84986149  0.50000000  1
  Pd  Pd0  1  0.52734952  0.19538083  0.50000000  1
  Pd  Pd1  1  0.47265048  0.80461917  0.50000000  1
  Pd  Pd2  1  0.97265048  0.69538083  0.50000000  1
  Pd  Pd3  1  0.02734952  0.30461917  0.50000000  1
loop_
_geom_bond_atom_site_label_1
_geom_bond_atom_site_label_2
_geom_bond_distance
_geom_bond_site_symmetry_2
In0 Pd1 2.996707 1_555
In0 Tb7 3.218769 1_556
In0 Tb7 3.218769 1_555
In0 Tb1 3.223877 1_665
In0 Tb1 3.223877 1_666
In0 In7 3.304756 1_655
In0 Tb4 3.322598 1_555
In0 Tb4 3.322598 1_556
In0 Tb6 3.402045 1_565
In0 Tb6 3.402045 1_566
In1 Pd0 2.996707 1_555
In1 Tb6 3.218769 1_556
In1 Tb6 3.218769 1_555
In1 Tb1 3.223877 1_556
In1 Tb1 3.223877 1_555
In1 In6 3.304756 1_455
In1 Tb5 3.322598 1_555
In1 Tb5 3.322598 1_556
In1 Tb7 3.402045 1_545
In1 Tb7 3.402045 1_546
In2 Pd3 2.996707 1_655
In2 Tb9 3.218769 1_655
In2 Tb9 3.218769 1_656
In2 Tb0 3.223877 1_555
In2 Tb0 3.223877 1_556
In2 In5 3.304756 1_555
In2 Tb2 3.322598 1_555
In2 Tb2 3.322598 1_556
In2 Tb8 3.402045 1_556
In2 Tb8 3.402045 1_555
In3 Pd2 2.996707 1_455
In3 Tb8 3.218769 1_455
In3 Tb8 3.218769 1_456
In3 Tb0 3.223877 1_555
In3 Tb0 3.223877 1_556
In3 In4 3.304756 1_555
In3 Tb3 3.322598 1_556
In3 Tb3 3.322598 1_555
In3 Tb9 3.402045 1_555
In3 Tb9 3.402045 1_556
In4 Pd1 2.942094 1_555
In4 Pd2 3.301965 1_555
In4 Tb8 3.307327 1_556
In4 Tb8 3.307327 1_555
In4 Tb4 3.331613 1_555
In4 Tb4 3.331613 1_556
In4 Tb0 3.350080 1_555
In4 Tb0 3.350080 1_556
In4 Tb3 3.402158 1_556
In4 Tb3 3.402158 1_555
In5 Pd0 2.942094 1_555
In5 Pd3 3.301965 1_555
In5 Tb9 3.307327 1_555
In5 Tb9 3.307327 1_556
In5 Tb5 3.331613 1_556
In5 Tb5 3.331613 1_555
In5 Tb0 3.350080 1_555
In5 Tb0 3.350080 1_556
In5 Tb2 3.402158 1_555
In5 Tb2 3.402158 1_556
In6 Pd3 2.942094 1_655
In6 Pd0 3.301965 1_555
In6 Tb6 3.307327 1_556
In6 Tb6 3.307327 1_555
In6 Tb2 3.331613 1_555
In6 Tb2 3.331613 1_556
In6 Tb1 3.350080 1_656
In6 Tb1 3.350080 1_655
In6 Tb5 3.402158 1_655
In6 Tb5 3.402158 1_656
In7 Pd2 2.942094 1_455
In7 Pd1 3.301965 1_555
In7 Tb7 3.307327 1_555
In7 Tb7 3.307327 1_556
In7 Tb3 3.331613 1_556
In7 Tb3 3.331613 1_555
In7 Tb1 3.350080 1_565
In7 Tb1 3.350080 1_566
In7 Tb4 3.402158 1_455
In7 Tb4 3.402158 1_456
Pd0 Tb6 2.842951 1_556
Pd0 Tb6 2.842951 1_555
Pd0 Tb2 2.960060 1_555
Pd0 Tb2 2.960060 1_556
Pd0 Tb5 2.962544 1_555
Pd0 Tb5 2.962544 1_556
Pd1 Tb7 2.842951 1_556
Pd1 Tb7 2.842951 1_555
Pd1 Tb3 2.960060 1_555
Pd1 Tb3 2.960060 1_556
Pd1 Tb4 2.962544 1_555
Pd1 Tb4 2.962544 1_556
Pd2 Tb8 2.842951 1_555
Pd2 Tb8 2.842951 1_556
Pd2 Tb4 2.960060 1_555
Pd2 Tb4 2.960060 1_556
Pd2 Tb3 2.962544 1_655
Pd2 Tb3 2.962544 1_656
Pd3 Tb9 2.842951 1_555
Pd3 Tb9 2.842951 1_556
Pd3 Tb5 2.960060 1_555
Pd3 Tb5 2.960060 1_556
Pd3 Tb2 2.962544 1_455
Pd3 Tb2 2.962544 1_456
