# generated using pymatgen
data_GaNi3
_symmetry_space_group_name_H-M   'P 1'
_cell_length_a   5.02249463
_cell_length_b   5.02249091
_cell_length_c   4.06191274
_cell_angle_alpha   90.00000000
_cell_angle_beta   90.00000000
_cell_angle_gamma   119.99667387
_symmetry_Int_Tables_number   1
_chemical_formula_structural   GaNi3
_chemical_formula_sum   'Ga2 Ni6'
_cell_volume   88.73897672
_cell_formula_units_Z   2
loop_
 _symmetry_equiv_pos_site_id
 _symmetry_equiv_pos_as_xyz
  1  'x, y, z'
loop_
 _atom_site_type_symbol
 _atom_site_label
 _atom_site_symmetry_multiplicity
 _atom_site_fract_x
 _atom_site_fract_y
 _atom_site_fract_z
 _atom_site_occupancy
  Ga  Ga0  1  0.33333187  0.66666833  0.75000000  1
  Ga  Ga1  1  0.66666813  0.33333167  0.25000000  1
  Ni  Ni0  1  0.16415916  0.32832718  0.25000000  1
  Ni  Ni1  1  0.67167770  0.83584111  0.25000000  1
  Ni  Ni2  1  0.16415768  0.83583804  0.25000000  1
  Ni  Ni3  1  0.83584084  0.67167282  0.75000000  1
  Ni  Ni4  1  0.32832230  0.16415889  0.75000000  1
  Ni  Ni5  1  0.83584232  0.16416196  0.75000000  1
loop_
_geom_bond_atom_site_label_1
_geom_bond_atom_site_label_2
_geom_bond_distance
_geom_bond_site_symmetry_2
Ga0 Ni2 2.508087 1_555
Ga0 Ni2 2.508087 1_556
Ga0 Ni0 2.508123 1_555
Ga0 Ni0 2.508123 1_556
Ga0 Ni1 2.508136 1_555
Ga0 Ni1 2.508136 1_556
Ga0 Ni3 2.511307 1_455
Ga0 Ni4 2.511315 1_565
Ga0 Ni4 2.511365 1_555
Ga0 Ni3 2.511377 1_555
Ga0 Ni5 2.511457 1_455
Ga0 Ni5 2.511478 1_565
Ga1 Ni5 2.508087 1_554
Ga1 Ni5 2.508087 1_555
Ga1 Ni3 2.508123 1_554
Ga1 Ni3 2.508123 1_555
Ga1 Ni4 2.508136 1_555
Ga1 Ni4 2.508136 1_554
Ga1 Ni0 2.511307 1_655
Ga1 Ni1 2.511315 1_545
Ga1 Ni1 2.511365 1_555
Ga1 Ni0 2.511377 1_555
Ga1 Ni2 2.511457 1_655
Ga1 Ni2 2.511478 1_545
Ni0 Ni2 2.473519 1_545
Ni0 Ni1 2.473621 1_445
Ni0 Ni4 2.482785 1_555
Ni0 Ni4 2.482785 1_554
Ni0 Ni5 2.482790 1_455
Ni0 Ni5 2.482790 1_454
Ni0 Ni2 2.548972 1_555
Ni0 Ni1 2.549125 1_555
Ni1 Ni2 2.473486 1_655
Ni1 Ni3 2.482785 1_554
Ni1 Ni3 2.482785 1_555
Ni1 Ni5 2.482799 1_565
Ni1 Ni5 2.482799 1_564
Ni1 Ni2 2.549009 1_555
Ni2 Ni3 2.482790 1_455
Ni2 Ni3 2.482790 1_454
Ni2 Ni4 2.482799 1_565
Ni2 Ni4 2.482799 1_564
Ni3 Ni5 2.473519 1_565
Ni3 Ni4 2.473621 1_665
Ni3 Ni5 2.548972 1_555
Ni3 Ni4 2.549125 1_555
Ni4 Ni5 2.473486 1_455
Ni4 Ni5 2.549009 1_555
