# generated using pymatgen
data_Zn2NiO3
_symmetry_space_group_name_H-M   'P 1'
_cell_length_a   5.26597646
_cell_length_b   5.26597646
_cell_length_c   5.26597646
_cell_angle_alpha   146.43233647
_cell_angle_beta   131.82566319
_cell_angle_gamma   59.99340121
_symmetry_Int_Tables_number   1
_chemical_formula_structural   Zn2NiO3
_chemical_formula_sum   'Zn2 Ni1 O3'
_cell_volume   59.61775007
_cell_formula_units_Z   1
loop_
 _symmetry_equiv_pos_site_id
 _symmetry_equiv_pos_as_xyz
  1  'x, y, z'
loop_
 _atom_site_type_symbol
 _atom_site_label
 _atom_site_symmetry_multiplicity
 _atom_site_fract_x
 _atom_site_fract_y
 _atom_site_fract_z
 _atom_site_occupancy
  Zn  Zn0  1  0.66638800  0.66638800  0.00000000  1
  Zn  Zn1  1  0.33361200  0.33361200  0.00000000  1
  Ni  Ni0  1  0.00000000  0.00000000  0.00000000  1
  O  O0  1  0.50000000  0.00000000  0.50000000  1
  O  O1  1  0.16374900  0.66374900  0.50000000  1
  O  O2  1  0.83625100  0.33625100  0.50000000  1
loop_
_geom_bond_atom_site_label_1
_geom_bond_atom_site_label_2
_geom_bond_distance
_geom_bond_site_symmetry_2
Ni0 O1 2.131451 1_555
Ni0 O1 2.131451 1_544
Ni0 O2 2.131451 1_455
Ni0 O2 2.131451 1_444
Ni0 O0 2.149182 1_454
Ni0 O0 2.149182 1_555
O0 Zn0 2.148387 1_545
O0 Zn0 2.148387 1_556
O0 Zn1 2.148387 1_545
O0 Zn1 2.148387 1_556
O1 Zn0 2.149317 1_556
O1 Zn0 2.149317 1_455
O1 Zn1 2.170894 1_555
O1 Zn1 2.170894 1_566
O2 Zn1 2.149317 1_656
O2 Zn1 2.149317 1_555
O2 Zn0 2.170894 1_545
O2 Zn0 2.170894 1_556
