# generated using pymatgen
data_HfCdC6O17
_symmetry_space_group_name_H-M   'P 1'
_cell_length_a   17.02676300
_cell_length_b   8.94650700
_cell_length_c   9.95080118
_cell_angle_alpha   73.48673541
_cell_angle_beta   90.00000000
_cell_angle_gamma   90.00000000
_symmetry_Int_Tables_number   1
_chemical_formula_structural   HfCdC6O17
_chemical_formula_sum   'Hf4 Cd4 C24 O68'
_cell_volume   1453.28508078
_cell_formula_units_Z   4
loop_
 _symmetry_equiv_pos_site_id
 _symmetry_equiv_pos_as_xyz
  1  'x, y, z'
loop_
 _atom_site_type_symbol
 _atom_site_label
 _atom_site_symmetry_multiplicity
 _atom_site_fract_x
 _atom_site_fract_y
 _atom_site_fract_z
 _atom_site_occupancy
  Hf  Hf0  1  0.41018400  0.81118900  0.87342100  1
  Hf  Hf1  1  0.91018400  0.18881100  0.62657900  1
  Hf  Hf2  1  0.58981600  0.18881100  0.12657900  1
  Hf  Hf3  1  0.08981600  0.81118900  0.37342100  1
  Cd  Cd0  1  0.37370800  0.45348900  0.47248800  1
  Cd  Cd1  1  0.87370800  0.54651100  0.02751200  1
  Cd  Cd2  1  0.62629200  0.54651100  0.52751200  1
  Cd  Cd3  1  0.12629200  0.45348900  0.97248800  1
  C  C0  1  0.56411600  0.37549700  0.31537200  1
  C  C1  1  0.06411600  0.62450300  0.18462800  1
  C  C2  1  0.43588400  0.62450300  0.68462800  1
  C  C3  1  0.93588400  0.37549700  0.81537200  1
  C  C4  1  0.65434700  0.34409300  0.32124700  1
  C  C5  1  0.15434700  0.65590700  0.17875300  1
  C  C6  1  0.34565300  0.65590700  0.67875300  1
  C  C7  1  0.84565300  0.34409300  0.82124700  1
  C  C8  1  0.40852400  0.70461500  0.18839400  1
  C  C9  1  0.90852400  0.29538500  0.31160600  1
  C  C10  1  0.59147600  0.29538500  0.81160600  1
  C  C11  1  0.09147600  0.70461500  0.68839400  1
  C  C12  1  0.37400100  0.56363300  0.14687400  1
  C  C13  1  0.87400100  0.43636700  0.35312600  1
  C  C14  1  0.62599900  0.43636700  0.85312600  1
  C  C15  1  0.12599900  0.56363300  0.64687400  1
  C  C16  1  0.88983000  0.84164500  0.75664500  1
  C  C17  1  0.38983000  0.15835500  0.74335500  1
  C  C18  1  0.11017000  0.15835500  0.24335500  1
  C  C19  1  0.61017000  0.84164500  0.25664500  1
  C  C20  1  0.40552300  0.09574300  0.61603300  1
  C  C21  1  0.90552300  0.90425700  0.88396700  1
  C  C22  1  0.59447700  0.90425700  0.38396700  1
  C  C23  1  0.09447700  0.09574300  0.11603300  1
  O  O0  1  0.53214600  0.43427700  0.39976700  1
  O  O1  1  0.03214600  0.56572300  0.10023300  1
  O  O2  1  0.46785400  0.56572300  0.60023300  1
  O  O3  1  0.96785400  0.43427700  0.89976700  1
  O  O4  1  0.47173200  0.66470600  0.78419900  1
  O  O5  1  0.97173200  0.33529400  0.71580100  1
  O  O6  1  0.52826800  0.33529400  0.21580100  1
  O  O7  1  0.02826800  0.66470600  0.28419900  1
  O  O8  1  0.32171100  0.73232300  0.76479800  1
  O  O9  1  0.82171100  0.26767700  0.73520200  1
  O  O10  1  0.67828900  0.26767700  0.23520200  1
  O  O11  1  0.17828900  0.73232300  0.26479800  1
  O  O12  1  0.30372800  0.61029000  0.59662100  1
  O  O13  1  0.80372800  0.38971000  0.90337900  1
  O  O14  1  0.69627200  0.38971000  0.40337900  1
  O  O15  1  0.19627200  0.61029000  0.09662100  1
  O  O16  1  0.93565900  0.18729300  0.41806800  1
  O  O17  1  0.43565900  0.81270700  0.08193200  1
  O  O18  1  0.06434100  0.81270700  0.58193200  1
  O  O19  1  0.56434100  0.18729300  0.91806800  1
  O  O20  1  0.90791400  0.29192500  0.18817600  1
  O  O21  1  0.40791400  0.70807500  0.31182400  1
  O  O22  1  0.09208600  0.70807500  0.81182400  1
  O  O23  1  0.59208600  0.29192500  0.68817600  1
  O  O24  1  0.37091500  0.58798600  0.01312600  1
  O  O25  1  0.87091500  0.41201400  0.48687400  1
  O  O26  1  0.62908500  0.41201400  0.98687400  1
  O  O27  1  0.12908500  0.58798600  0.51312600  1
  O  O28  1  0.85321000  0.55530100  0.26137600  1
  O  O29  1  0.35321000  0.44469900  0.23862400  1
  O  O30  1  0.14679000  0.44469900  0.73862400  1
  O  O31  1  0.64679000  0.55530100  0.76137600  1
  O  O32  1  0.89314100  0.95042100  0.63839600  1
  O  O33  1  0.39314100  0.04957900  0.86160400  1
  O  O34  1  0.10685900  0.04957900  0.36160400  1
  O  O35  1  0.60685900  0.95042100  0.13839600  1
  O  O36  1  0.37536300  0.29779300  0.72691900  1
  O  O37  1  0.87536300  0.70220700  0.77308100  1
  O  O38  1  0.62463700  0.70220700  0.27308100  1
  O  O39  1  0.12463700  0.29779300  0.22691900  1
  O  O40  1  0.39727400  0.18309300  0.49487200  1
  O  O41  1  0.89727400  0.81690700  0.00512800  1
  O  O42  1  0.60272600  0.81690700  0.50512800  1
  O  O43  1  0.10272600  0.18309300  0.99487200  1
  O  O44  1  0.57457300  0.04872700  0.34820300  1
  O  O45  1  0.07457300  0.95127300  0.15179700  1
  O  O46  1  0.42542700  0.95127300  0.65179700  1
  O  O47  1  0.92542700  0.04872700  0.84820300  1
  O  O48  1  0.44832600  0.11786800  0.13348000  1
  O  O49  1  0.94832600  0.88213200  0.36652000  1
  O  O50  1  0.55167400  0.88213200  0.86652000  1
  O  O51  1  0.05167400  0.11786800  0.63348000  1
  O  O52  1  0.24001800  0.34879900  0.48023000  1
  O  O53  1  0.74001800  0.65120100  0.01977000  1
  O  O54  1  0.75998200  0.65120100  0.51977000  1
  O  O55  1  0.25998200  0.34879900  0.98023000  1
  O  O56  1  0.26712100  0.90537000  0.99417500  1
  O  O57  1  0.76712100  0.09463000  0.50582500  1
  O  O58  1  0.73287900  0.09463000  0.00582500  1
  O  O59  1  0.23287900  0.90537000  0.49417500  1
  O  O60  1  0.27251900  0.99247900  0.06966300  1
  O  O61  1  0.77251900  0.00752100  0.43033700  1
  O  O62  1  0.72748100  0.00752100  0.93033700  1
  O  O63  1  0.22748100  0.99247900  0.56966300  1
  O  O64  1  0.59437800  0.92028600  0.76253000  1
  O  O65  1  0.09437800  0.07971400  0.73747000  1
  O  O66  1  0.40562200  0.07971400  0.23747000  1
  O  O67  1  0.90562200  0.92028600  0.26253000  1
loop_
_geom_bond_atom_site_label_1
_geom_bond_atom_site_label_2
_geom_bond_distance
_geom_bond_site_symmetry_2
Hf0 O4 2.065269 1_555
Hf0 O8 2.090207 1_555
Hf0 O33 2.122292 1_565
Hf0 O17 2.123525 1_556
Hf0 O24 2.188403 1_556
Hf0 O46 2.220439 1_555
Hf0 O50 2.487291 1_555
Hf0 O56 2.943291 1_555
Hf1 O5 2.065269 1_555
Hf1 O9 2.090207 1_555
Hf1 O32 2.122292 1_545
Hf1 O16 2.123525 1_555
Hf1 O25 2.188403 1_555
Hf1 O47 2.220439 1_555
Hf1 O51 2.487291 1_655
Hf1 O57 2.943291 1_555
Hf2 O6 2.065269 1_555
Hf2 O10 2.090207 1_555
Hf2 O35 2.122292 1_545
Hf2 O19 2.123525 1_554
Hf2 O26 2.188403 1_554
Hf2 O44 2.220439 1_555
Hf2 O48 2.487291 1_555
Hf2 O58 2.943291 1_555
Hf3 O7 2.065269 1_555
Hf3 O11 2.090207 1_555
Hf3 O34 2.122292 1_565
Hf3 O18 2.123525 1_555
Hf3 O27 2.188403 1_555
Hf3 O45 2.220439 1_555
Hf3 O49 2.487291 1_455
Hf3 O59 2.943291 1_555
Cd0 O29 2.376464 1_555
Cd0 O40 2.399239 1_555
Cd0 O12 2.428680 1_555
Cd0 O2 2.432958 1_555
Cd0 O21 2.452112 1_555
Cd0 O52 2.454329 1_555
Cd0 O36 2.519174 1_555
Cd1 O28 2.376464 1_555
Cd1 O41 2.399239 1_555
Cd1 O13 2.428680 1_554
Cd1 O3 2.432958 1_554
Cd1 O20 2.452112 1_555
Cd1 O53 2.454329 1_555
Cd1 O37 2.519174 1_554
Cd2 O31 2.376464 1_555
Cd2 O42 2.399239 1_555
Cd2 O14 2.428680 1_555
Cd2 O0 2.432958 1_555
Cd2 O23 2.452112 1_555
Cd2 O54 2.454329 1_555
Cd2 O38 2.519174 1_555
Cd3 O30 2.376464 1_555
Cd3 O43 2.399239 1_555
Cd3 O15 2.428680 1_556
Cd3 O1 2.432958 1_556
Cd3 O22 2.452112 1_555
Cd3 O55 2.454329 1_555
Cd3 O39 2.519174 1_556
C0 O0 1.236597 1_555
C0 O6 1.298545 1_555
C1 O1 1.236597 1_555
C1 O7 1.298545 1_555
C2 O2 1.236597 1_555
C2 O4 1.298545 1_555
C3 O3 1.236597 1_555
C3 O5 1.298545 1_555
C4 O14 1.238422 1_555
C4 O10 1.303624 1_555
C5 O15 1.238422 1_555
C5 O11 1.303624 1_555
C6 O12 1.238422 1_555
C6 O8 1.303624 1_555
C7 O13 1.238422 1_555
C7 O9 1.303624 1_555
C8 O21 1.237425 1_555
C8 O17 1.299441 1_555
C9 O20 1.237425 1_555
C9 O16 1.299441 1_555
C10 O23 1.237425 1_555
C10 O19 1.299441 1_555
C11 O22 1.237425 1_555
C11 O18 1.299441 1_555
C12 O29 1.240485 1_555
C12 O24 1.287123 1_555
C13 O28 1.240485 1_555
C13 O25 1.287123 1_555
C14 O31 1.240485 1_555
C14 O26 1.287123 1_555
C15 O30 1.240485 1_555
C15 O27 1.287123 1_555
C16 O37 1.235983 1_555
C16 O32 1.297624 1_555
C17 O36 1.235983 1_555
C17 O33 1.297624 1_555
C18 O39 1.235983 1_555
C18 O34 1.297624 1_555
C19 O38 1.235983 1_555
C19 O35 1.297624 1_555
C20 O40 1.244353 1_555
C20 O46 1.284749 1_545
C21 O41 1.244353 1_556
C21 O47 1.284749 1_565
C22 O42 1.244353 1_555
C22 O44 1.284749 1_565
C23 O43 1.244353 1_554
C23 O45 1.284749 1_545
O48 O66 1.230930 1_555
O49 O67 1.230930 1_555
O50 O64 1.230930 1_555
O51 O65 1.230930 1_555
O56 O60 1.229969 1_556
O57 O61 1.229969 1_555
O58 O62 1.229969 1_554
O59 O63 1.229969 1_555
