# generated using pymatgen
data_KTb2CuS4
_symmetry_space_group_name_H-M   'P 1'
_cell_length_a   7.07370565
_cell_length_b   7.07370565
_cell_length_c   13.77138500
_cell_angle_alpha   90.00000000
_cell_angle_beta   90.00000000
_cell_angle_gamma   147.38747094
_symmetry_Int_Tables_number   1
_chemical_formula_structural   KTb2CuS4
_chemical_formula_sum   'K2 Tb4 Cu2 S8'
_cell_volume   371.38476830
_cell_formula_units_Z   2
loop_
 _symmetry_equiv_pos_site_id
 _symmetry_equiv_pos_as_xyz
  1  'x, y, z'
loop_
 _atom_site_type_symbol
 _atom_site_label
 _atom_site_symmetry_multiplicity
 _atom_site_fract_x
 _atom_site_fract_y
 _atom_site_fract_z
 _atom_site_occupancy
  K  K0  1  0.10921200  0.89078800  0.25000000  1
  K  K1  1  0.89078800  0.10921200  0.75000000  1
  Tb  Tb0  1  0.63426700  0.36573300  0.93689100  1
  Tb  Tb1  1  0.36573300  0.63426700  0.43689100  1
  Tb  Tb2  1  0.63426700  0.36573300  0.56310900  1
  Tb  Tb3  1  0.36573300  0.63426700  0.06310900  1
  Cu  Cu0  1  0.16256000  0.83744000  0.75000000  1
  Cu  Cu1  1  0.83744000  0.16256000  0.25000000  1
  S  S0  1  0.00000000  0.00000000  0.50000000  1
  S  S1  1  0.00000000  0.00000000  0.00000000  1
  S  S2  1  0.73736100  0.26263900  0.11148700  1
  S  S3  1  0.26263900  0.73736100  0.88851300  1
  S  S4  1  0.56909000  0.43091000  0.75000000  1
  S  S5  1  0.73736100  0.26263900  0.38851300  1
  S  S6  1  0.43091000  0.56909000  0.25000000  1
  S  S7  1  0.26263900  0.73736100  0.61148700  1
loop_
_geom_bond_atom_site_label_1
_geom_bond_atom_site_label_2
_geom_bond_distance
_geom_bond_site_symmetry_2
K0 S6 3.131457 1_455
K0 S6 3.131457 1_565
K0 S5 3.257447 1_455
K0 S5 3.257447 1_565
K0 S2 3.257447 1_455
K0 S2 3.257447 1_565
K1 S4 3.131457 1_545
K1 S4 3.131457 1_655
K1 S3 3.257447 1_545
K1 S7 3.257447 1_545
K1 S3 3.257447 1_655
K1 S7 3.257447 1_655
Cu0 S7 2.342059 1_555
Cu0 S3 2.342059 1_555
Cu0 S4 2.356981 1_565
Cu0 S4 2.356981 1_455
Cu1 S5 2.342059 1_555
Cu1 S2 2.342059 1_555
Cu1 S6 2.356981 1_655
Cu1 S6 2.356981 1_545
S0 Tb2 2.832610 1_555
S0 Tb2 2.832610 1_445
S0 Tb1 2.832610 1_445
S0 Tb1 2.832610 1_555
S1 Tb3 2.832610 1_445
S1 Tb3 2.832610 1_555
S1 Tb0 2.832610 1_444
S1 Tb0 2.832610 1_554
S2 Tb3 2.725208 1_545
S2 Tb3 2.725208 1_655
S2 Tb0 2.782237 1_554
S3 Tb0 2.725208 1_455
S3 Tb0 2.725208 1_565
S3 Tb3 2.782237 1_556
S4 Tb0 2.721653 1_555
S4 Tb2 2.721653 1_555
S5 Tb1 2.725208 1_545
S5 Tb1 2.725208 1_655
S5 Tb2 2.782237 1_555
S6 Tb1 2.721653 1_555
S6 Tb3 2.721653 1_555
S7 Tb2 2.725208 1_455
S7 Tb2 2.725208 1_565
S7 Tb1 2.782237 1_555
