# generated using pymatgen
data_RbMg30BO31
_symmetry_space_group_name_H-M   'P 1'
_cell_length_a   8.33913500
_cell_length_b   8.71938000
_cell_length_c   8.82529600
_cell_angle_alpha   90.00000000
_cell_angle_beta   90.00000000
_cell_angle_gamma   90.00000000
_symmetry_Int_Tables_number   1
_chemical_formula_structural   RbMg30BO31
_chemical_formula_sum   'Rb1 Mg30 B1 O31'
_cell_volume   641.70568999
_cell_formula_units_Z   1
loop_
 _symmetry_equiv_pos_site_id
 _symmetry_equiv_pos_as_xyz
  1  'x, y, z'
loop_
 _atom_site_type_symbol
 _atom_site_label
 _atom_site_symmetry_multiplicity
 _atom_site_fract_x
 _atom_site_fract_y
 _atom_site_fract_z
 _atom_site_occupancy
  Rb  Rb0  1  0.00000000  0.00617200  0.00000000  1
  Mg  Mg0  1  0.00000000  0.00269800  0.50000000  1
  Mg  Mg1  1  0.50000000  0.00611000  0.50000000  1
  Mg  Mg2  1  0.00000000  0.50478800  0.00000000  1
  Mg  Mg3  1  0.50000000  0.50114400  0.00000000  1
  Mg  Mg4  1  0.00000000  0.50020500  0.50000000  1
  Mg  Mg5  1  0.50000000  0.49739000  0.50000000  1
  Mg  Mg6  1  0.25705700  0.99950100  0.26457300  1
  Mg  Mg7  1  0.74294300  0.99950100  0.26457300  1
  Mg  Mg8  1  0.25705700  0.99950100  0.73542700  1
  Mg  Mg9  1  0.74294300  0.99950100  0.73542700  1
  Mg  Mg10  1  0.25127000  0.50283800  0.25166100  1
  Mg  Mg11  1  0.74873000  0.50283800  0.25166100  1
  Mg  Mg12  1  0.25127000  0.50283800  0.74833900  1
  Mg  Mg13  1  0.74873000  0.50283800  0.74833900  1
  Mg  Mg14  1  0.25071600  0.74368600  0.00000000  1
  Mg  Mg15  1  0.74928400  0.74368600  0.00000000  1
  Mg  Mg16  1  0.24835300  0.74917800  0.50000000  1
  Mg  Mg17  1  0.75164700  0.74917800  0.50000000  1
  Mg  Mg18  1  0.25768300  0.26872500  0.00000000  1
  Mg  Mg19  1  0.74231700  0.26872500  0.00000000  1
  Mg  Mg20  1  0.25141400  0.25229200  0.50000000  1
  Mg  Mg21  1  0.74858600  0.25229200  0.50000000  1
  Mg  Mg22  1  0.00000000  0.74901800  0.25533400  1
  Mg  Mg23  1  0.50000000  0.75425300  0.26404500  1
  Mg  Mg24  1  0.00000000  0.74901800  0.74466600  1
  Mg  Mg25  1  0.50000000  0.75425300  0.73595500  1
  Mg  Mg26  1  0.00000000  0.25510300  0.25276400  1
  Mg  Mg27  1  0.50000000  0.24260800  0.24016700  1
  Mg  Mg28  1  0.00000000  0.25510300  0.74723600  1
  Mg  Mg29  1  0.50000000  0.24260800  0.75983300  1
  B  B0  1  0.50000000  0.91938100  0.00000000  1
  O  O0  1  0.00000000  0.72756100  0.00000000  1
  O  O1  1  0.00000000  0.74423800  0.50000000  1
  O  O2  1  0.50000000  0.74464200  0.50000000  1
  O  O3  1  0.00000000  0.28305400  0.00000000  1
  O  O4  1  0.50000000  0.27452300  0.00000000  1
  O  O5  1  0.00000000  0.25702600  0.50000000  1
  O  O6  1  0.50000000  0.25572800  0.50000000  1
  O  O7  1  0.25001100  0.75258200  0.24934700  1
  O  O8  1  0.74998900  0.75258200  0.24934700  1
  O  O9  1  0.25001100  0.75258200  0.75065300  1
  O  O10  1  0.74998900  0.75258200  0.75065300  1
  O  O11  1  0.24986700  0.24726300  0.24348700  1
  O  O12  1  0.75013300  0.24726300  0.24348700  1
  O  O13  1  0.24986700  0.24726300  0.75651300  1
  O  O14  1  0.75013300  0.24726300  0.75651300  1
  O  O15  1  0.34147100  0.97655500  0.00000000  1
  O  O16  1  0.65852900  0.97655500  0.00000000  1
  O  O17  1  0.25081100  0.00159100  0.50000000  1
  O  O18  1  0.74918900  0.00159100  0.50000000  1
  O  O19  1  0.25564500  0.50901100  0.00000000  1
  O  O20  1  0.74435500  0.50901100  0.00000000  1
  O  O21  1  0.25101400  0.49976000  0.50000000  1
  O  O22  1  0.74898600  0.49976000  0.50000000  1
  O  O23  1  0.00000000  0.99955000  0.27688500  1
  O  O24  1  0.50000000  0.99901000  0.27554800  1
  O  O25  1  0.00000000  0.99955000  0.72311500  1
  O  O26  1  0.50000000  0.99901000  0.72445200  1
  O  O27  1  0.00000000  0.50177100  0.25556500  1
  O  O28  1  0.50000000  0.50618600  0.25052000  1
  O  O29  1  0.00000000  0.50177100  0.74443500  1
  O  O30  1  0.50000000  0.50618600  0.74948000  1
loop_
_geom_bond_atom_site_label_1
_geom_bond_atom_site_label_2
_geom_bond_distance
_geom_bond_site_symmetry_2
Mg0 O25 1.969247 1_545
Mg0 O23 1.969247 1_545
Mg0 O18 2.091569 1_455
Mg0 O17 2.091569 1_555
Mg0 O5 2.217582 1_555
Mg0 O1 2.253611 1_545
Mg1 O26 1.981822 1_545
Mg1 O24 1.981822 1_545
Mg1 O17 2.078394 1_555
Mg1 O18 2.078394 1_555
Mg1 O6 2.176514 1_555
Mg1 O2 2.279839 1_545
Mg2 O3 1.933383 1_555
Mg2 O0 1.942442 1_555
Mg2 O19 2.132176 1_555
Mg2 O20 2.132176 1_455
Mg2 O27 2.255590 1_555
Mg2 O29 2.255590 1_554
Mg3 O4 1.975995 1_555
Mg3 O20 2.038864 1_555
Mg3 O19 2.038864 1_555
Mg3 O30 2.211350 1_554
Mg3 O28 2.211350 1_555
Mg4 O22 2.093243 1_455
Mg4 O21 2.093243 1_555
Mg4 O5 2.120370 1_555
Mg4 O1 2.127816 1_555
Mg4 O29 2.157254 1_555
Mg4 O27 2.157254 1_555
Mg5 O21 2.076431 1_555
Mg5 O22 2.076431 1_555
Mg5 O6 2.107143 1_555
Mg5 O2 2.155884 1_555
Mg5 O28 2.203070 1_555
Mg5 O30 2.203070 1_555
Mg6 O24 2.028253 1_555
Mg6 O17 2.078446 1_565
Mg6 O23 2.146385 1_555
Mg6 O7 2.157970 1_555
Mg6 O11 2.169160 1_565
Mg6 O15 2.446933 1_555
Mg7 O24 2.028253 1_555
Mg7 O18 2.078446 1_565
Mg7 O23 2.146385 1_655
Mg7 O8 2.157970 1_555
Mg7 O12 2.169160 1_565
Mg7 O16 2.446933 1_555
Mg8 O26 2.028253 1_555
Mg8 O17 2.078446 1_565
Mg8 O25 2.146385 1_555
Mg8 O9 2.157970 1_555
Mg8 O13 2.169160 1_565
Mg8 O15 2.446933 1_556
Mg9 O26 2.028253 1_555
Mg9 O18 2.078446 1_565
Mg9 O25 2.146385 1_655
Mg9 O10 2.157970 1_555
Mg9 O14 2.169160 1_565
Mg9 O16 2.446933 1_556
Mg10 O28 2.074423 1_555
Mg10 O27 2.095678 1_555
Mg10 O7 2.177734 1_555
Mg10 O21 2.191831 1_555
Mg10 O19 2.221934 1_555
Mg10 O11 2.229654 1_555
Mg11 O28 2.074423 1_555
Mg11 O27 2.095678 1_655
Mg11 O8 2.177734 1_555
Mg11 O22 2.191831 1_555
Mg11 O20 2.221934 1_555
Mg11 O12 2.229654 1_555
Mg12 O30 2.074423 1_555
Mg12 O29 2.095678 1_555
Mg12 O9 2.177734 1_555
Mg12 O21 2.191831 1_555
Mg12 O19 2.221934 1_556
Mg12 O13 2.229654 1_555
Mg13 O30 2.074423 1_555
Mg13 O29 2.095678 1_655
Mg13 O10 2.177734 1_555
Mg13 O22 2.191831 1_555
Mg13 O20 2.221934 1_556
Mg13 O14 2.229654 1_555
Mg14 O19 2.046633 1_555
Mg14 O0 2.095477 1_555
Mg14 O15 2.166932 1_555
Mg14 O9 2.201936 1_554
Mg14 O7 2.201936 1_555
Mg15 O20 2.046633 1_555
Mg15 O0 2.095477 1_655
Mg15 O16 2.166932 1_555
Mg15 O10 2.201936 1_554
Mg15 O8 2.201936 1_555
Mg16 O1 2.071497 1_555
Mg16 O2 2.098891 1_555
Mg16 O21 2.174884 1_555
Mg16 O17 2.200980 1_565
Mg16 O9 2.212329 1_555
Mg16 O7 2.212329 1_555
Mg17 O1 2.071497 1_655
Mg17 O2 2.098891 1_555
Mg17 O22 2.174884 1_555
Mg17 O18 2.200980 1_565
Mg17 O10 2.212329 1_555
Mg17 O8 2.212329 1_555
Mg18 O4 2.021346 1_555
Mg18 O19 2.095214 1_555
Mg18 O3 2.152482 1_555
Mg18 O13 2.157962 1_554
Mg18 O11 2.157962 1_555
Mg18 O15 2.641624 1_545
Mg19 O4 2.021346 1_555
Mg19 O20 2.095214 1_555
Mg19 O3 2.152482 1_655
Mg19 O12 2.157962 1_555
Mg19 O14 2.157962 1_554
Mg19 O16 2.641624 1_545
Mg20 O6 2.073209 1_555
Mg20 O5 2.096982 1_555
Mg20 O21 2.157770 1_555
Mg20 O17 2.185963 1_555
Mg20 O11 2.264265 1_555
Mg20 O13 2.264265 1_555
Mg21 O6 2.073209 1_555
Mg21 O5 2.096982 1_655
Mg21 O22 2.157770 1_555
Mg21 O18 2.185963 1_555
Mg21 O14 2.264265 1_555
Mg21 O12 2.264265 1_555
Mg22 O7 2.085776 1_555
Mg22 O8 2.085776 1_455
Mg22 O27 2.155842 1_555
Mg22 O1 2.159652 1_555
Mg22 O23 2.192748 1_555
Mg22 O0 2.261152 1_555
Mg23 O2 2.084058 1_555
Mg23 O7 2.088774 1_555
Mg23 O8 2.088774 1_555
Mg23 O24 2.136542 1_555
Mg23 O28 2.166281 1_555
Mg24 O9 2.085776 1_555
Mg24 O10 2.085776 1_455
Mg24 O29 2.155842 1_555
Mg24 O1 2.159652 1_555
Mg24 O25 2.192748 1_555
Mg24 O0 2.261152 1_556
Mg25 O2 2.084058 1_555
Mg25 O9 2.088774 1_555
Mg25 O10 2.088774 1_555
Mg25 O26 2.136542 1_555
Mg25 O30 2.166281 1_555
Mg26 O12 2.086403 1_455
Mg26 O11 2.086403 1_555
Mg26 O27 2.150934 1_555
Mg26 O5 2.181995 1_555
Mg26 O23 2.238409 1_545
Mg26 O3 2.243991 1_555
Mg27 O11 2.086493 1_555
Mg27 O12 2.086493 1_555
Mg27 O4 2.137735 1_555
Mg27 O24 2.146852 1_545
Mg27 O6 2.295955 1_555
Mg27 O28 2.300052 1_555
Mg28 O14 2.086403 1_455
Mg28 O13 2.086403 1_555
Mg28 O29 2.150934 1_555
Mg28 O5 2.181995 1_555
Mg28 O25 2.238409 1_545
Mg28 O3 2.243991 1_556
Mg29 O13 2.086493 1_555
Mg29 O14 2.086493 1_555
Mg29 O4 2.137735 1_556
Mg29 O26 2.146852 1_545
Mg29 O6 2.295955 1_555
Mg29 O30 2.300052 1_555
B0 O15 1.412867 1_555
B0 O16 1.412867 1_555
O0 Rb0 2.429315 1_565
O3 Rb0 2.414239 1_555
O15 Rb0 2.859259 1_565
O16 Rb0 2.859259 1_665
O23 Rb0 2.444274 1_565
O25 Rb0 2.444274 1_566
