# generated using pymatgen
data_HgPb2
_symmetry_space_group_name_H-M   'P 1'
_cell_length_a   7.01753670
_cell_length_b   7.01753670
_cell_length_c   17.13475898
_cell_angle_alpha   83.85694976
_cell_angle_beta   83.85694976
_cell_angle_gamma   61.99419748
_symmetry_Int_Tables_number   1
_chemical_formula_structural   HgPb2
_chemical_formula_sum   'Hg8 Pb16'
_cell_volume   739.17638710
_cell_formula_units_Z   8
loop_
 _symmetry_equiv_pos_site_id
 _symmetry_equiv_pos_as_xyz
  1  'x, y, z'
loop_
 _atom_site_type_symbol
 _atom_site_label
 _atom_site_symmetry_multiplicity
 _atom_site_fract_x
 _atom_site_fract_y
 _atom_site_fract_z
 _atom_site_occupancy
  Hg  Hg0_0  1  0.00000000  0.00000000  0.00000000  1
  Hg  Hg0_1  1  0.00000000  0.00000000  0.50000000  1
  Hg  Hg0_2  1  0.00000000  0.50000000  0.00000000  1
  Hg  Hg0_3  1  0.00000000  0.50000000  0.50000000  1
  Hg  Hg0_4  1  0.50000000  0.00000000  0.00000000  1
  Hg  Hg0_5  1  0.50000000  0.00000000  0.50000000  1
  Hg  Hg0_6  1  0.50000000  0.50000000  0.00000000  1
  Hg  Hg0_7  1  0.50000000  0.50000000  0.50000000  1
  Pb  Pb0_0  1  0.33232850  0.33232850  0.33399900  1
  Pb  Pb0_1  1  0.33232850  0.33232850  0.83399900  1
  Pb  Pb0_2  1  0.33232850  0.83232850  0.33399900  1
  Pb  Pb0_3  1  0.33232850  0.83232850  0.83399900  1
  Pb  Pb0_4  1  0.83232850  0.33232850  0.33399900  1
  Pb  Pb0_5  1  0.83232850  0.33232850  0.83399900  1
  Pb  Pb0_6  1  0.83232850  0.83232850  0.33399900  1
  Pb  Pb0_7  1  0.83232850  0.83232850  0.83399900  1
  Pb  Pb1_0  1  0.16767150  0.16767150  0.16600100  1
  Pb  Pb1_1  1  0.16767150  0.16767150  0.66600100  1
  Pb  Pb1_2  1  0.16767150  0.66767150  0.16600100  1
  Pb  Pb1_3  1  0.16767150  0.66767150  0.66600100  1
  Pb  Pb1_4  1  0.66767150  0.16767150  0.16600100  1
  Pb  Pb1_5  1  0.66767150  0.16767150  0.66600100  1
  Pb  Pb1_6  1  0.66767150  0.66767150  0.16600100  1
  Pb  Pb1_7  1  0.66767150  0.66767150  0.66600100  1
loop_
_geom_bond_atom_site_label_1
_geom_bond_atom_site_label_2
_geom_bond_distance
_geom_bond_site_symmetry_2
Hg0_0 Pb1_2 3.410777 1_545
Hg0_0 Pb1_4 3.410777 1_455
Hg0_0 Pb0_5 3.410777 1_454
Hg0_0 Pb0_3 3.410777 1_544
Hg0_1 Pb1_3 3.410777 1_545
Hg0_1 Pb1_5 3.410777 1_455
Hg0_1 Pb0_4 3.410777 1_455
Hg0_1 Pb0_2 3.410777 1_545
Hg0_2 Pb1_6 3.410777 1_455
Hg0_2 Pb1_0 3.410777 1_555
Hg0_2 Pb0_1 3.410777 1_554
Hg0_2 Pb0_7 3.410777 1_454
Hg0_3 Pb1_7 3.410777 1_455
Hg0_3 Pb1_1 3.410777 1_555
Hg0_3 Pb0_6 3.410777 1_455
Hg0_3 Pb0_0 3.410777 1_555
Hg0_4 Pb1_0 3.410777 1_555
Hg0_4 Pb1_6 3.410777 1_545
Hg0_4 Pb0_1 3.410777 1_554
Hg0_4 Pb0_7 3.410777 1_544
Hg0_5 Pb1_1 3.410777 1_555
Hg0_5 Pb1_7 3.410777 1_545
Hg0_5 Pb0_6 3.410777 1_545
Hg0_5 Pb0_0 3.410777 1_555
Hg0_6 Pb1_2 3.410777 1_555
Hg0_6 Pb1_4 3.410777 1_555
Hg0_6 Pb0_3 3.410777 1_554
Hg0_6 Pb0_5 3.410777 1_554
Hg0_7 Pb1_3 3.410777 1_555
Hg0_7 Pb1_5 3.410777 1_555
Hg0_7 Pb0_4 3.410777 1_555
Hg0_7 Pb0_2 3.410777 1_555
Pb0_0 Pb1_2 3.444976 1_555
Pb0_0 Pb1_4 3.444976 1_555
Pb0_0 Pb0_4 3.508768 1_555
Pb0_0 Pb0_2 3.508768 1_555
Pb0_0 Pb0_2 3.508768 1_545
Pb0_0 Pb0_4 3.508768 1_455
Pb0_1 Pb1_5 3.444976 1_555
Pb0_1 Pb1_3 3.444976 1_555
Pb0_1 Pb0_5 3.508768 1_555
Pb0_1 Pb0_3 3.508768 1_555
Pb0_1 Pb0_3 3.508768 1_545
Pb0_1 Pb0_5 3.508768 1_455
Pb0_2 Pb1_6 3.444976 1_555
Pb0_2 Pb1_0 3.444976 1_565
Pb0_2 Pb0_6 3.508768 1_555
Pb0_2 Pb0_6 3.508768 1_455
Pb0_3 Pb1_7 3.444976 1_555
Pb0_3 Pb1_1 3.444976 1_565
Pb0_3 Pb0_7 3.508768 1_455
Pb0_3 Pb0_7 3.508768 1_555
Pb0_4 Pb1_0 3.444976 1_655
Pb0_4 Pb1_6 3.444976 1_555
Pb0_4 Pb0_6 3.508768 1_555
Pb0_4 Pb0_6 3.508768 1_545
Pb0_5 Pb1_7 3.444976 1_555
Pb0_5 Pb1_1 3.444976 1_655
Pb0_5 Pb0_7 3.508768 1_545
Pb0_5 Pb0_7 3.508768 1_555
Pb0_6 Pb1_4 3.444976 1_565
Pb0_6 Pb1_2 3.444976 1_655
Pb0_7 Pb1_3 3.444976 1_655
Pb0_7 Pb1_5 3.444976 1_565
Pb1_0 Pb1_2 3.508768 1_555
Pb1_0 Pb1_4 3.508768 1_455
Pb1_0 Pb1_4 3.508768 1_555
Pb1_0 Pb1_2 3.508768 1_545
Pb1_1 Pb1_5 3.508768 1_455
Pb1_1 Pb1_3 3.508768 1_545
Pb1_1 Pb1_3 3.508768 1_555
Pb1_1 Pb1_5 3.508768 1_555
Pb1_2 Pb1_6 3.508768 1_455
Pb1_2 Pb1_6 3.508768 1_555
Pb1_3 Pb1_7 3.508768 1_555
Pb1_3 Pb1_7 3.508768 1_455
Pb1_4 Pb1_6 3.508768 1_545
Pb1_4 Pb1_6 3.508768 1_555
Pb1_5 Pb1_7 3.508768 1_555
Pb1_5 Pb1_7 3.508768 1_545
