# generated using pymatgen
data_Zr2Mn4P3
_symmetry_space_group_name_H-M   'P 1'
_cell_length_a   12.63527154
_cell_length_b   12.63527154
_cell_length_c   3.58499300
_cell_angle_alpha   90.00000000
_cell_angle_beta   90.00000000
_cell_angle_gamma   119.99999757
_symmetry_Int_Tables_number   1
_chemical_formula_structural   Zr2Mn4P3
_chemical_formula_sum   'Zr8 Mn16 P12'
_cell_volume   495.66484000
_cell_formula_units_Z   4
loop_
 _symmetry_equiv_pos_site_id
 _symmetry_equiv_pos_as_xyz
  1  'x, y, z'
loop_
 _atom_site_type_symbol
 _atom_site_label
 _atom_site_symmetry_multiplicity
 _atom_site_fract_x
 _atom_site_fract_y
 _atom_site_fract_z
 _atom_site_occupancy
  Zr  Zr0  1  0.00000000  0.17165000  0.50000000  1
  Zr  Zr1  1  0.82835000  0.82835000  0.50000000  1
  Zr  Zr2  1  0.17165000  0.00000000  0.50000000  1
  Zr  Zr3  1  0.66666700  0.33333300  0.00000000  1
  Zr  Zr4  1  0.33333300  0.66666700  0.00000000  1
  Zr  Zr5  1  0.00000000  0.54441000  0.00000000  1
  Zr  Zr6  1  0.45559000  0.45559000  0.00000000  1
  Zr  Zr7  1  0.54441000  0.00000000  0.00000000  1
  Mn  Mn0  1  0.00000000  0.71619100  0.50000000  1
  Mn  Mn1  1  0.28380900  0.28380900  0.50000000  1
  Mn  Mn2  1  0.71619100  0.00000000  0.50000000  1
  Mn  Mn3  1  0.80161300  0.17427900  0.00000000  1
  Mn  Mn4  1  0.82572100  0.62733400  0.00000000  1
  Mn  Mn5  1  0.37266600  0.19838700  0.00000000  1
  Mn  Mn6  1  0.17427900  0.80161300  0.00000000  1
  Mn  Mn7  1  0.62733400  0.82572100  0.00000000  1
  Mn  Mn8  1  0.19838700  0.37266600  0.00000000  1
  Mn  Mn9  1  0.87450400  0.34264200  0.50000000  1
  Mn  Mn10  1  0.65735800  0.53186100  0.50000000  1
  Mn  Mn11  1  0.46813900  0.12549600  0.50000000  1
  Mn  Mn12  1  0.34264200  0.87450400  0.50000000  1
  Mn  Mn13  1  0.53186100  0.65735800  0.50000000  1
  Mn  Mn14  1  0.12549600  0.46813900  0.50000000  1
  Mn  Mn15  1  0.00000000  0.00000000  0.00000000  1
  P  P0  1  0.00000000  0.82596700  0.00000000  1
  P  P1  1  0.17403300  0.17403300  0.00000000  1
  P  P2  1  0.82596700  0.00000000  0.00000000  1
  P  P3  1  0.67939700  0.17046300  0.50000000  1
  P  P4  1  0.82953700  0.50893400  0.50000000  1
  P  P5  1  0.49106600  0.32060300  0.50000000  1
  P  P6  1  0.17046300  0.67939700  0.50000000  1
  P  P7  1  0.50893400  0.82953700  0.50000000  1
  P  P8  1  0.32060300  0.49106600  0.50000000  1
  P  P9  1  0.00000000  0.33659400  0.00000000  1
  P  P10  1  0.66340600  0.66340600  0.00000000  1
  P  P11  1  0.33659400  0.00000000  0.00000000  1
loop_
_geom_bond_atom_site_label_1
_geom_bond_atom_site_label_2
_geom_bond_distance
_geom_bond_site_symmetry_2
Mn0 P0 2.266484 1_555
Mn0 P0 2.266484 1_556
Mn0 P6 2.420024 1_555
Mn0 P4 2.420024 1_455
Mn0 Zr5 2.814980 1_556
Mn0 Zr5 2.814980 1_555
Mn1 P1 2.266484 1_556
Mn1 P1 2.266484 1_555
Mn1 P5 2.420024 1_555
Mn1 P8 2.420024 1_555
Mn1 Zr6 2.814980 1_556
Mn1 Zr6 2.814980 1_555
Mn2 P2 2.266484 1_555
Mn2 P2 2.266484 1_556
Mn2 P3 2.420024 1_555
Mn2 P7 2.420024 1_545
Mn2 Zr7 2.814980 1_555
Mn2 Zr7 2.814980 1_556
Mn3 P9 2.312716 1_655
Mn3 P3 2.350652 1_555
Mn3 P3 2.350652 1_554
Mn3 P2 2.370947 1_555
Mn3 Zr7 2.873003 1_555
Mn4 P10 2.312716 1_555
Mn4 P4 2.350652 1_554
Mn4 P4 2.350652 1_555
Mn4 P0 2.370947 1_655
Mn4 Zr5 2.873003 1_655
Mn5 P11 2.312716 1_555
Mn5 P5 2.350652 1_554
Mn5 P5 2.350652 1_555
Mn5 P1 2.370947 1_555
Mn5 Zr6 2.873003 1_555
Mn6 P11 2.312716 1_565
Mn6 P6 2.350652 1_555
Mn6 P6 2.350652 1_554
Mn6 P0 2.370947 1_555
Mn6 Zr5 2.873003 1_555
Mn7 P10 2.312716 1_555
Mn7 P7 2.350652 1_554
Mn7 P7 2.350652 1_555
Mn7 P2 2.370947 1_565
Mn7 Zr7 2.873003 1_565
Mn8 P9 2.312716 1_555
Mn8 P8 2.350652 1_555
Mn8 P8 2.350652 1_554
Mn8 P1 2.370947 1_555
Mn8 Zr6 2.873003 1_555
Mn9 P3 2.333903 1_555
Mn9 P9 2.419592 1_655
Mn9 P9 2.419592 1_656
Mn9 P4 2.435453 1_555
Mn9 Zr5 2.860823 1_655
Mn9 Zr5 2.860823 1_656
Mn10 P4 2.333896 1_555
Mn10 P10 2.419601 1_556
Mn10 P10 2.419601 1_555
Mn10 P5 2.435445 1_555
Mn10 Zr6 2.860824 1_555
Mn10 Zr6 2.860824 1_556
Mn11 P5 2.333908 1_555
Mn11 P11 2.419597 1_555
Mn11 P11 2.419597 1_556
Mn11 P3 2.435441 1_555
Mn11 Zr7 2.860815 1_555
Mn11 Zr7 2.860815 1_556
Mn12 P6 2.333903 1_555
Mn12 P11 2.419592 1_566
Mn12 P11 2.419592 1_565
Mn12 P7 2.435453 1_555
Mn12 Zr7 2.860823 1_566
Mn12 Zr7 2.860823 1_565
Mn13 P7 2.333896 1_555
Mn13 P10 2.419601 1_556
Mn13 P10 2.419601 1_555
Mn13 P8 2.435445 1_555
Mn13 Zr6 2.860824 1_555
Mn13 Zr6 2.860824 1_556
Mn14 P8 2.333908 1_555
Mn14 P9 2.419597 1_556
Mn14 P9 2.419597 1_555
Mn14 P6 2.435441 1_555
Mn14 Zr5 2.860815 1_556
Mn14 Zr5 2.860815 1_555
Mn15 P2 2.198954 1_455
Mn15 P0 2.198954 1_545
Mn15 P1 2.198954 1_555
Mn15 Zr0 2.813704 1_555
Mn15 Zr0 2.813704 1_554
Mn15 Zr2 2.813704 1_554
Mn15 Zr2 2.813704 1_555
Mn15 Zr1 2.813704 1_444
Mn15 Zr1 2.813704 1_445
P0 Zr1 2.825445 1_455
P0 Zr1 2.825445 1_454
P0 Zr2 2.825445 1_565
P0 Zr2 2.825445 1_564
P1 Zr2 2.825445 1_554
P1 Zr0 2.825445 1_555
P1 Zr0 2.825445 1_554
P1 Zr2 2.825445 1_555
P2 Zr1 2.825445 1_544
P2 Zr1 2.825445 1_545
P2 Zr0 2.825445 1_654
P2 Zr0 2.825445 1_655
P3 Zr7 2.662248 1_555
P3 Zr7 2.662248 1_556
P3 Zr3 2.793726 1_555
P3 Zr3 2.793726 1_556
P4 Zr5 2.662248 1_655
P4 Zr5 2.662248 1_656
P4 Zr3 2.793731 1_555
P4 Zr3 2.793731 1_556
P5 Zr6 2.662248 1_555
P5 Zr6 2.662248 1_556
P5 Zr3 2.793735 1_555
P5 Zr3 2.793735 1_556
P6 Zr5 2.662248 1_556
P6 Zr5 2.662248 1_555
P6 Zr4 2.793726 1_555
P6 Zr4 2.793726 1_556
P7 Zr7 2.662248 1_565
P7 Zr7 2.662248 1_566
P7 Zr4 2.793731 1_555
P7 Zr4 2.793731 1_556
P8 Zr6 2.662248 1_555
P8 Zr6 2.662248 1_556
P8 Zr4 2.793735 1_556
P8 Zr4 2.793735 1_555
P9 Zr5 2.625812 1_555
P9 Zr0 2.748921 1_555
P9 Zr0 2.748921 1_554
P10 Zr6 2.625812 1_555
P10 Zr1 2.748921 1_555
P10 Zr1 2.748921 1_554
P11 Zr7 2.625812 1_555
P11 Zr2 2.748921 1_554
P11 Zr2 2.748921 1_555
