# generated using pymatgen
data_Zn2InI4
_symmetry_space_group_name_H-M   'P 1'
_cell_length_a   8.47105426
_cell_length_b   10.50158900
_cell_length_c   8.41318018
_cell_angle_alpha   90.00000000
_cell_angle_beta   125.24880206
_cell_angle_gamma   90.00000000
_symmetry_Int_Tables_number   1
_chemical_formula_structural   Zn2InI4
_chemical_formula_sum   'Zn4 In2 I8'
_cell_volume   611.21015870
_cell_formula_units_Z   2
loop_
 _symmetry_equiv_pos_site_id
 _symmetry_equiv_pos_as_xyz
  1  'x, y, z'
loop_
 _atom_site_type_symbol
 _atom_site_label
 _atom_site_symmetry_multiplicity
 _atom_site_fract_x
 _atom_site_fract_y
 _atom_site_fract_z
 _atom_site_occupancy
  Zn  Zn0  1  0.22331500  0.25000000  0.39317000  1
  Zn  Zn1  1  0.77668500  0.75000000  0.60683000  1
  Zn  Zn2  1  0.22686300  0.25000000  0.92721100  1
  Zn  Zn3  1  0.77313700  0.75000000  0.07278900  1
  In  In0  1  0.86418900  0.25000000  0.85484300  1
  In  In1  1  0.13581100  0.75000000  0.14515700  1
  I  I0  1  0.49590800  0.25000000  0.32711900  1
  I  I1  1  0.50409200  0.75000000  0.67288100  1
  I  I2  1  0.99160500  0.05382000  0.23632700  1
  I  I3  1  0.00839500  0.94618000  0.76367300  1
  I  I4  1  0.00839500  0.55382000  0.76367300  1
  I  I5  1  0.99160500  0.44618000  0.23632700  1
  I  I6  1  0.44637000  0.25000000  0.78801100  1
  I  I7  1  0.55363000  0.75000000  0.21198900  1
loop_
_geom_bond_atom_site_label_1
_geom_bond_atom_site_label_2
_geom_bond_distance
_geom_bond_site_symmetry_2
In0 Zn2 2.765908 1_655
In1 Zn3 2.765908 1_455
I0 Zn0 2.668728 1_555
I0 Zn2 2.768262 1_554
I1 Zn1 2.668728 1_555
I1 Zn3 2.768262 1_556
I2 Zn0 2.617013 1_655
I2 In0 3.422243 1_554
I3 Zn1 2.617013 1_455
I3 In1 3.422243 1_556
I4 Zn1 2.617013 1_455
I4 In1 3.422243 1_556
I5 Zn0 2.617013 1_655
I5 In0 3.422243 1_554
I6 Zn2 2.709730 1_555
I6 Zn0 2.712957 1_555
I6 In0 3.247493 1_555
I7 Zn3 2.709730 1_555
I7 Zn1 2.712957 1_555
I7 In1 3.247493 1_555
