# generated using pymatgen
data_Mg14TiCu
_symmetry_space_group_name_H-M   'P 1'
_cell_length_a   6.28526622
_cell_length_b   6.24388976
_cell_length_c   10.00949425
_cell_angle_alpha   90.00000000
_cell_angle_beta   90.00000000
_cell_angle_gamma   119.78247634
_symmetry_Int_Tables_number   1
_chemical_formula_structural   Mg14TiCu
_chemical_formula_sum   'Mg14 Ti1 Cu1'
_cell_volume   340.93331309
_cell_formula_units_Z   1
loop_
 _symmetry_equiv_pos_site_id
 _symmetry_equiv_pos_as_xyz
  1  'x, y, z'
loop_
 _atom_site_type_symbol
 _atom_site_label
 _atom_site_symmetry_multiplicity
 _atom_site_fract_x
 _atom_site_fract_y
 _atom_site_fract_z
 _atom_site_occupancy
  Mg  Mg0  1  0.16759882  0.33379891  0.62500000  1
  Mg  Mg1  1  0.16931699  0.83465800  0.62500000  1
  Mg  Mg2  1  0.66238398  0.33813645  0.12500000  1
  Mg  Mg3  1  0.66520575  0.33147140  0.62500000  1
  Mg  Mg4  1  0.66238398  0.82424653  0.12500000  1
  Mg  Mg5  1  0.66520575  0.83373335  0.62500000  1
  Mg  Mg6  1  0.32753805  0.16448123  0.36344567  1
  Mg  Mg7  1  0.32753805  0.16448123  0.88655433  1
  Mg  Mg8  1  0.32753805  0.66305782  0.36344567  1
  Mg  Mg9  1  0.32753805  0.66305782  0.88655433  1
  Mg  Mg10  1  0.84227607  0.17113854  0.36393615  1
  Mg  Mg11  1  0.84227607  0.17113854  0.88606385  1
  Mg  Mg12  1  0.84035763  0.67017932  0.37371041  1
  Mg  Mg13  1  0.84035763  0.67017932  0.87628959  1
  Ti  Ti0  1  0.15776743  0.82888322  0.12500000  1
  Cu  Cu0  1  0.17471767  0.33735834  0.12500000  1
loop_
_geom_bond_atom_site_label_1
_geom_bond_atom_site_label_2
_geom_bond_distance
_geom_bond_site_symmetry_2
Mg0 Mg1 3.121959 1_545
Mg0 Mg1 3.121959 1_555
Mg0 Mg5 3.134836 1_555
Mg0 Mg3 3.134836 1_555
Mg0 Mg5 3.150481 1_445
Mg0 Mg3 3.150481 1_455
Mg0 Mg11 3.158769 1_455
Mg0 Mg10 3.158769 1_455
Mg0 Mg7 3.168289 1_555
Mg0 Mg6 3.168289 1_555
Mg0 Mg9 3.168295 1_555
Mg0 Mg8 3.168295 1_555
Mg1 Mg13 3.089803 1_455
Mg1 Mg12 3.089803 1_455
Mg1 Mg3 3.119664 1_565
Mg1 Mg5 3.119665 1_555
Mg1 Mg3 3.165609 1_455
Mg1 Mg5 3.165610 1_455
Mg1 Mg8 3.170100 1_555
Mg1 Mg9 3.170100 1_555
Mg1 Mg7 3.170106 1_565
Mg1 Mg6 3.170106 1_565
Mg2 Mg6 3.005740 1_555
Mg2 Mg7 3.005740 1_554
Mg2 Mg4 3.035218 1_555
Mg2 Ti0 3.099338 1_655
Mg2 Ti0 3.186128 1_545
Mg2 Mg4 3.208672 1_545
Mg3 Mg5 3.107822 1_545
Mg3 Mg5 3.136068 1_555
Mg3 Mg7 3.201123 1_555
Mg3 Mg6 3.201123 1_555
Mg4 Mg8 3.005740 1_555
Mg4 Mg9 3.005740 1_554
Mg4 Ti0 3.099339 1_655
Mg4 Ti0 3.186129 1_555
Mg5 Mg9 3.201123 1_555
Mg5 Mg8 3.201123 1_555
Mg6 Ti0 3.000778 1_545
Mg6 Mg8 3.113057 1_555
Mg6 Mg8 3.130832 1_545
Mg7 Ti0 3.000778 1_546
Mg7 Mg9 3.113057 1_555
Mg7 Mg9 3.130832 1_545
Mg8 Ti0 3.000772 1_555
Mg9 Ti0 3.000772 1_556
Mg10 Mg2 3.042494 1_555
Mg10 Mg4 3.042501 1_545
Mg10 Mg8 3.070863 1_655
Mg10 Mg6 3.070864 1_655
Mg10 Mg12 3.123495 1_545
Mg10 Mg12 3.123495 1_555
Mg10 Mg3 3.189989 1_555
Mg10 Mg5 3.189995 1_545
Mg10 Mg8 3.214825 1_545
Mg10 Mg6 3.214825 1_555
Mg11 Mg2 3.042494 1_556
Mg11 Mg4 3.042501 1_546
Mg11 Mg9 3.070863 1_655
Mg11 Mg7 3.070864 1_655
Mg11 Mg13 3.123495 1_545
Mg11 Mg13 3.123495 1_555
Mg11 Mg3 3.189989 1_555
Mg11 Mg5 3.189995 1_545
Mg11 Mg9 3.214825 1_545
Mg11 Mg7 3.214825 1_555
Mg12 Ti0 3.032413 1_655
Mg12 Mg4 3.072968 1_555
Mg12 Mg2 3.072974 1_555
Mg12 Mg6 3.086097 1_665
Mg12 Mg8 3.086097 1_655
Mg12 Mg5 3.114205 1_555
Mg12 Mg3 3.114212 1_555
Mg12 Mg6 3.203002 1_555
Mg12 Mg8 3.203002 1_555
Mg13 Ti0 3.032413 1_656
Mg13 Mg4 3.072968 1_556
Mg13 Mg2 3.072974 1_556
Mg13 Mg7 3.086097 1_665
Mg13 Mg9 3.086097 1_655
Mg13 Mg5 3.114205 1_555
Mg13 Mg3 3.114212 1_555
Mg13 Mg7 3.203002 1_555
Mg13 Mg9 3.203002 1_555
Cu0 Mg6 2.968867 1_555
Cu0 Mg7 2.968867 1_554
Cu0 Mg9 2.968873 1_554
Cu0 Mg8 2.968873 1_555
Cu0 Mg11 3.001445 1_454
Cu0 Mg10 3.001445 1_455
Cu0 Mg4 3.062702 1_555
Cu0 Mg2 3.062702 1_555
Cu0 Ti0 3.123314 1_545
Cu0 Ti0 3.123314 1_555
Cu0 Mg4 3.222569 1_445
Cu0 Mg2 3.222570 1_455
