# generated using pymatgen
data_CeNdAl2O6
_symmetry_space_group_name_H-M   'P 1'
_cell_length_a   5.35415952
_cell_length_b   5.35415952
_cell_length_c   5.35077820
_cell_angle_alpha   60.25174585
_cell_angle_beta   60.25174585
_cell_angle_gamma   90.00594756
_symmetry_Int_Tables_number   1
_chemical_formula_structural   CeNdAl2O6
_chemical_formula_sum   'Ce1 Nd1 Al2 O6'
_cell_volume   109.27846625
_cell_formula_units_Z   1
loop_
 _symmetry_equiv_pos_site_id
 _symmetry_equiv_pos_as_xyz
  1  'x, y, z'
loop_
 _atom_site_type_symbol
 _atom_site_label
 _atom_site_symmetry_multiplicity
 _atom_site_fract_x
 _atom_site_fract_y
 _atom_site_fract_z
 _atom_site_occupancy
  Ce  Ce0  1  0.75083500  0.75083500  0.49894000  1
  Nd  Nd0  1  0.24749100  0.24749100  0.50222000  1
  Al  Al0  1  0.99974300  0.50022100  0.99999600  1
  Al  Al1  1  0.50022100  0.99974300  0.99999600  1
  O  O0  1  0.21413400  0.78904400  0.99703300  1
  O  O1  1  0.78904400  0.21413400  0.99703300  1
  O  O2  1  0.23392200  0.76777900  0.49986600  1
  O  O3  1  0.76777900  0.23392200  0.49986600  1
  O  O4  1  0.69561000  0.69561000  0.03428800  1
  O  O5  1  0.30122000  0.30122000  0.97076300  1
loop_
_geom_bond_atom_site_label_1
_geom_bond_atom_site_label_2
_geom_bond_distance
_geom_bond_site_symmetry_2
Ce0 O5 2.429058 1_555
Ce0 O1 2.500227 1_564
Ce0 O0 2.500227 1_654
Ce0 O4 2.588297 1_556
Ce0 O2 2.590653 1_655
Ce0 O3 2.590653 1_565
Ce0 O3 2.766757 1_555
Ce0 O2 2.766757 1_555
Ce0 O4 2.795596 1_555
Ce0 O1 2.888507 1_555
Ce0 O0 2.888507 1_555
Ce0 O5 2.970455 1_664
Nd0 O4 2.420314 1_555
Nd0 O1 2.479558 1_455
Nd0 O0 2.479558 1_545
Nd0 O5 2.574591 1_554
Nd0 O3 2.575921 1_455
Nd0 O2 2.575921 1_545
Nd0 O3 2.780597 1_555
Nd0 O2 2.780597 1_555
Nd0 O5 2.807550 1_555
Nd0 O1 2.906431 1_554
Nd0 O0 2.906431 1_554
Nd0 O4 2.978124 1_446
Al0 O3 1.909952 1_556
Al0 O2 1.910797 1_655
Al0 O1 1.913286 1_555
Al0 O0 1.914810 1_655
Al0 O4 1.916776 1_556
Al0 O5 1.918439 1_655
Al1 O2 1.909952 1_556
Al1 O3 1.910797 1_565
Al1 O0 1.913286 1_555
Al1 O1 1.914810 1_565
Al1 O4 1.916776 1_556
Al1 O5 1.918439 1_565
