# generated using pymatgen
data_Rb2NiAuF6
_symmetry_space_group_name_H-M   'P 1'
_cell_length_a   6.09877100
_cell_length_b   6.09877158
_cell_length_c   6.09877165
_cell_angle_alpha   59.99999574
_cell_angle_beta   59.99999812
_cell_angle_gamma   59.99999773
_symmetry_Int_Tables_number   1
_chemical_formula_structural   Rb2NiAuF6
_chemical_formula_sum   'Rb2 Ni1 Au1 F6'
_cell_volume   160.40283581
_cell_formula_units_Z   1
loop_
 _symmetry_equiv_pos_site_id
 _symmetry_equiv_pos_as_xyz
  1  'x, y, z'
loop_
 _atom_site_type_symbol
 _atom_site_label
 _atom_site_symmetry_multiplicity
 _atom_site_fract_x
 _atom_site_fract_y
 _atom_site_fract_z
 _atom_site_occupancy
  Rb  Rb0  1  0.25000000  0.25000000  0.25000000  1
  Rb  Rb1  1  0.75000000  0.75000000  0.75000000  1
  Ni  Ni0  1  0.00000000  0.00000000  0.00000000  1
  Au  Au0  1  0.50000000  0.50000000  0.50000000  1
  F  F0  1  0.22773500  0.77226500  0.22773500  1
  F  F1  1  0.77226500  0.77226500  0.22773500  1
  F  F2  1  0.77226500  0.22773500  0.77226500  1
  F  F3  1  0.77226500  0.22773500  0.22773500  1
  F  F4  1  0.22773500  0.77226500  0.77226500  1
  F  F5  1  0.22773500  0.22773500  0.77226500  1
loop_
_geom_bond_atom_site_label_1
_geom_bond_atom_site_label_2
_geom_bond_distance
_geom_bond_site_symmetry_2
Au0 F0 2.348276 1_555
Au0 F1 2.348276 1_555
Au0 F5 2.348276 1_555
Au0 F2 2.348276 1_555
Au0 F3 2.348276 1_555
Au0 F4 2.348276 1_555
F0 Ni0 1.964206 1_565
F0 Rb1 3.055426 1_554
F0 Rb1 3.055426 1_455
F0 Rb0 3.055426 1_555
F0 Rb0 3.055427 1_565
F1 Ni0 1.964206 1_665
F1 Rb0 3.055426 1_565
F1 Rb0 3.055426 1_655
F1 Rb1 3.055427 1_555
F1 Rb1 3.055427 1_554
F2 Ni0 1.964206 1_656
F2 Rb0 3.055426 1_556
F2 Rb0 3.055426 1_655
F2 Rb1 3.055426 1_555
F2 Rb1 3.055427 1_545
F3 Ni0 1.964207 1_655
F3 Rb0 3.055426 1_555
F3 Rb0 3.055426 1_655
F3 Rb1 3.055426 1_554
F3 Rb1 3.055426 1_545
F4 Ni0 1.964207 1_566
F4 Rb1 3.055426 1_555
F4 Rb1 3.055426 1_455
F4 Rb0 3.055426 1_556
F4 Rb0 3.055426 1_565
F5 Ni0 1.964206 1_556
F5 Rb1 3.055426 1_545
F5 Rb1 3.055426 1_455
F5 Rb0 3.055427 1_555
F5 Rb0 3.055427 1_556
