# generated using pymatgen
data_SmCdCu
_symmetry_space_group_name_H-M   'P 1'
_cell_length_a   7.52485758
_cell_length_b   7.52485758
_cell_length_c   3.95787634
_cell_angle_alpha   90.00000000
_cell_angle_beta   90.00000000
_cell_angle_gamma   120.00000140
_symmetry_Int_Tables_number   1
_chemical_formula_structural   SmCdCu
_chemical_formula_sum   'Sm3 Cd3 Cu3'
_cell_volume   194.08385765
_cell_formula_units_Z   3
loop_
 _symmetry_equiv_pos_site_id
 _symmetry_equiv_pos_as_xyz
  1  'x, y, z'
loop_
 _atom_site_type_symbol
 _atom_site_label
 _atom_site_symmetry_multiplicity
 _atom_site_fract_x
 _atom_site_fract_y
 _atom_site_fract_z
 _atom_site_occupancy
  Sm  Sm0  1  0.41263617  0.41263617  0.50000000  1
  Sm  Sm1  1  0.58736383  -0.00000000  0.50000000  1
  Sm  Sm2  1  -0.00000000  0.58736383  0.50000000  1
  Cd  Cd0  1  0.75248293  0.75248293  0.00000000  1
  Cd  Cd1  1  0.24751707  0.00000000  0.00000000  1
  Cd  Cd2  1  0.00000000  0.24751707  -0.00000000  1
  Cu  Cu0  1  0.66666700  0.33333300  -0.00000000  1
  Cu  Cu1  1  0.33333300  0.66666700  0.00000000  1
  Cu  Cu2  1  -0.00000000  0.00000000  0.50000000  1
loop_
_geom_bond_atom_site_label_1
_geom_bond_atom_site_label_2
_geom_bond_distance
_geom_bond_site_symmetry_2
Cd0 Cu2 2.717576 1_664
Cd0 Cu2 2.717576 1_665
Cd0 Cu1 2.885872 1_555
Cd0 Cu0 2.885872 1_555
Cd0 Sm0 3.233569 1_554
Cd0 Sm0 3.233569 1_555
Cd0 Sm1 3.353089 1_565
Cd0 Sm1 3.353089 1_564
Cd0 Sm2 3.353089 1_655
Cd0 Sm2 3.353089 1_654
Cd1 Cu2 2.717576 1_554
Cd1 Cu2 2.717576 1_555
Cd1 Cu1 2.885864 1_545
Cd1 Cu0 2.885869 1_555
Cd1 Sm1 3.233570 1_554
Cd1 Sm1 3.233570 1_555
Cd1 Sm2 3.353089 1_545
Cd1 Sm2 3.353089 1_544
Cd1 Sm0 3.353089 1_554
Cd1 Sm0 3.353089 1_555
Cd2 Cu2 2.717576 1_554
Cd2 Cu2 2.717576 1_555
Cd2 Cu0 2.885864 1_455
Cd2 Cu1 2.885869 1_555
Cd2 Sm2 3.233570 1_555
Cd2 Sm2 3.233570 1_554
Cd2 Sm1 3.353089 1_455
Cd2 Sm1 3.353089 1_454
Cd2 Sm0 3.353089 1_554
Cd2 Sm0 3.353089 1_555
Cu0 Sm1 3.011143 1_554
Cu0 Sm1 3.011143 1_555
Cu0 Sm2 3.011144 1_654
Cu0 Sm2 3.011144 1_655
Cu0 Sm0 3.011148 1_555
Cu0 Sm0 3.011148 1_554
Cu1 Sm2 3.011143 1_555
Cu1 Sm2 3.011143 1_554
Cu1 Sm1 3.011144 1_565
Cu1 Sm1 3.011144 1_564
Cu1 Sm0 3.011148 1_555
Cu1 Sm0 3.011148 1_554
Cu2 Sm0 3.105028 1_555
Cu2 Sm2 3.105028 1_545
Cu2 Sm1 3.105028 1_455
