# generated using pymatgen
data_La7SmCo5(CuO8)3
_symmetry_space_group_name_H-M   'P 1'
_cell_length_a   7.67578715
_cell_length_b   7.68625901
_cell_length_c   7.67569814
_cell_angle_alpha   90.00289368
_cell_angle_beta   89.97845746
_cell_angle_gamma   89.99382389
_symmetry_Int_Tables_number   1
_chemical_formula_structural   La7SmCo5(CuO8)3
_chemical_formula_sum   'La7 Sm1 Co5 Cu3 O24'
_cell_volume   452.85148010
_cell_formula_units_Z   1
loop_
 _symmetry_equiv_pos_site_id
 _symmetry_equiv_pos_as_xyz
  1  'x, y, z'
loop_
 _atom_site_type_symbol
 _atom_site_label
 _atom_site_symmetry_multiplicity
 _atom_site_fract_x
 _atom_site_fract_y
 _atom_site_fract_z
 _atom_site_occupancy
  La  La0  1  0.25117100  0.24899900  0.25118400  1
  La  La1  1  0.25103600  0.24931800  0.74896300  1
  La  La2  1  0.25121000  0.75101100  0.25114100  1
  La  La3  1  0.25106500  0.75084000  0.74894700  1
  La  La4  1  0.74881500  0.24899000  0.74879200  1
  La  La5  1  0.74892700  0.75078900  0.25107800  1
  La  La6  1  0.74882600  0.75103500  0.74877700  1
  Sm  Sm0  1  0.74914100  0.24942400  0.25087400  1
  Co  Co0  1  0.99979100  0.00018700  0.00020600  1
  Co  Co1  1  0.99974600  0.00023800  0.49972400  1
  Co  Co2  1  0.50027900  0.00024000  0.00025800  1
  Co  Co3  1  0.50014500  0.00016200  0.49985800  1
  Co  Co4  1  0.50025800  0.49959900  0.49973800  1
  Cu  Cu0  1  0.99975500  0.49976000  0.00023300  1
  Cu  Cu1  1  0.99979200  0.49978800  0.49982800  1
  Cu  Cu2  1  0.50018300  0.49978400  0.00021400  1
  O  O0  1  0.25054600  0.00016200  0.00119400  1
  O  O1  1  0.25107900  0.00001300  0.49960600  1
  O  O2  1  0.25112200  0.49993900  0.00004500  1
  O  O3  1  0.25647300  0.49999800  0.50000000  1
  O  O4  1  0.74943100  0.00200100  0.00100300  1
  O  O5  1  0.74885300  0.00212400  0.49825300  1
  O  O6  1  0.74884700  0.49785300  0.00218100  1
  O  O7  1  0.74362500  0.49784300  0.49788300  1
  O  O8  1  0.99784400  0.24713800  0.00217100  1
  O  O9  1  0.99787300  0.24528100  0.49792400  1
  O  O10  1  0.99996500  0.75285300  0.00003700  1
  O  O11  1  0.99996100  0.75473100  0.49990100  1
  O  O12  1  0.50207600  0.24528300  0.00212800  1
  O  O13  1  0.50226400  0.24860100  0.49773100  1
  O  O14  1  0.50008900  0.75473000  0.00004000  1
  O  O15  1  0.49994700  0.75136000  0.50006700  1
  O  O16  1  0.99900100  0.00201300  0.25057300  1
  O  O17  1  0.99881000  0.00016200  0.74944700  1
  O  O18  1  0.99782700  0.49784100  0.25115600  1
  O  O19  1  0.99996700  0.49994000  0.74887400  1
  O  O20  1  0.50174700  0.00212400  0.25114900  1
  O  O21  1  0.50039800  0.00000700  0.74891600  1
  O  O22  1  0.50211300  0.49783400  0.25638900  1
  O  O23  1  0.50000300  0.50000500  0.74352000  1
loop_
_geom_bond_atom_site_label_1
_geom_bond_atom_site_label_2
_geom_bond_distance
_geom_bond_site_symmetry_2
La0 O13 2.701598 1_555
La0 O1 2.701633 1_555
La0 O20 2.701710 1_555
La0 O0 2.709202 1_555
La0 O16 2.711327 1_455
La0 O12 2.713229 1_555
La0 O9 2.713868 1_455
La0 O22 2.714899 1_555
La0 O3 2.714924 1_555
La0 O2 2.726996 1_555
La0 O8 2.727137 1_455
La0 O18 2.727455 1_455
La1 O21 2.708299 1_555
La1 O1 2.708301 1_555
La1 O3 2.714108 1_555
La1 O23 2.714260 1_555
La1 O0 2.723269 1_556
La1 O17 2.723335 1_455
La1 O19 2.724688 1_455
La1 O2 2.724815 1_556
La1 O13 2.726629 1_555
La1 O9 2.737307 1_455
La1 O12 2.737321 1_556
La1 O8 2.748057 1_456
La2 O15 2.701610 1_555
La2 O1 2.701816 1_565
La2 O0 2.710809 1_565
La2 O14 2.713347 1_555
La2 O11 2.713505 1_455
La2 O3 2.715359 1_555
La2 O20 2.724767 1_565
La2 O10 2.727083 1_455
La2 O2 2.727343 1_555
La2 O16 2.732949 1_465
La2 O22 2.738018 1_555
La2 O18 2.751391 1_455
La3 O15 2.701133 1_555
La3 O1 2.707633 1_565
La3 O21 2.707650 1_565
La3 O23 2.714614 1_555
La3 O3 2.714759 1_555
La3 O14 2.715119 1_556
La3 O11 2.715296 1_455
La3 O17 2.724097 1_465
La3 O0 2.724116 1_566
La3 O10 2.725201 1_456
La3 O2 2.726561 1_556
La3 O19 2.726650 1_455
La4 O13 2.701444 1_555
La4 O5 2.701520 1_555
La4 O21 2.701682 1_555
La4 O17 2.709119 1_555
La4 O4 2.711474 1_556
La4 O9 2.713037 1_555
La4 O12 2.714070 1_556
La4 O7 2.714720 1_555
La4 O23 2.714923 1_555
La4 O19 2.727215 1_555
La4 O8 2.727505 1_556
La4 O6 2.727876 1_556
La5 O15 2.702256 1_555
La5 O20 2.707566 1_565
La5 O5 2.707601 1_565
La5 O11 2.713716 1_555
La5 O14 2.713816 1_555
La5 O7 2.714901 1_555
La5 O22 2.715091 1_555
La5 O4 2.722713 1_565
La5 O16 2.722867 1_565
La5 O10 2.724604 1_555
La5 O6 2.725642 1_555
La5 O18 2.725661 1_555
La6 O15 2.701208 1_555
La6 O21 2.701391 1_565
La6 O17 2.710974 1_565
La6 O14 2.713455 1_556
La6 O11 2.713514 1_555
La6 O23 2.715352 1_555
La6 O5 2.724472 1_565
La6 O10 2.727355 1_556
La6 O19 2.727650 1_555
La6 O4 2.732909 1_566
La6 O7 2.738110 1_555
La6 O6 2.751475 1_556
Co0 O8 1.898246 1_555
Co0 O10 1.901074 1_545
Co0 O4 1.921767 1_555
Co0 O16 1.921799 1_555
Co0 O0 1.924760 1_655
Co0 O17 1.924768 1_554
Co1 O9 1.883569 1_555
Co1 O11 1.887031 1_545
Co1 O16 1.912468 1_555
Co1 O17 1.916809 1_555
Co1 O5 1.925892 1_555
Co1 O1 1.929179 1_655
Co2 O12 1.883570 1_555
Co2 O14 1.887055 1_545
Co2 O4 1.912498 1_555
Co2 O0 1.916908 1_555
Co2 O20 1.925855 1_555
Co2 O21 1.929226 1_554
Co3 O20 1.909111 1_555
Co3 O5 1.909126 1_555
Co3 O13 1.909708 1_555
Co3 O21 1.911696 1_555
Co3 O1 1.911780 1_555
Co3 O15 1.912358 1_545
Co4 O22 1.867971 1_555
Co4 O7 1.868129 1_555
Co4 O23 1.871200 1_555
Co4 O3 1.871244 1_555
Co4 O13 1.929356 1_555
Co4 O15 1.935103 1_555
Cu0 O6 1.926026 1_555
Cu0 O18 1.926118 1_555
Cu0 O19 1.929356 1_554
Cu0 O2 1.929440 1_655
Cu0 O8 1.941833 1_555
Cu0 O10 1.945340 1_555
Cu1 O18 1.908854 1_555
Cu1 O19 1.911603 1_555
Cu1 O9 1.956318 1_555
Cu1 O11 1.959559 1_555
Cu1 O7 1.966404 1_555
Cu1 O3 1.970230 1_655
Cu2 O6 1.908813 1_555
Cu2 O2 1.911740 1_555
Cu2 O12 1.956269 1_555
Cu2 O14 1.959582 1_555
Cu2 O22 1.966441 1_555
Cu2 O23 1.970307 1_554
O4 Sm0 2.700886 1_555
O5 Sm0 2.686805 1_555
O6 Sm0 2.700073 1_555
O7 Sm0 2.691077 1_555
O8 Sm0 2.699253 1_555
O9 Sm0 2.691600 1_555
O12 Sm0 2.691759 1_555
O13 Sm0 2.679280 1_555
O16 Sm0 2.700700 1_555
O18 Sm0 2.700063 1_555
O20 Sm0 2.686978 1_555
O22 Sm0 2.691071 1_555
