# generated using pymatgen
data_Zr4Co2N
_symmetry_space_group_name_H-M   'P 1'
_cell_length_a   8.62601967
_cell_length_b   8.62601967
_cell_length_c   8.62601967
_cell_angle_alpha   60.00000000
_cell_angle_beta   60.00000000
_cell_angle_gamma   60.00000000
_symmetry_Int_Tables_number   1
_chemical_formula_structural   Zr4Co2N
_chemical_formula_sum   'Zr16 Co8 N4'
_cell_volume   453.85417396
_cell_formula_units_Z   4
loop_
 _symmetry_equiv_pos_site_id
 _symmetry_equiv_pos_as_xyz
  1  'x, y, z'
loop_
 _atom_site_type_symbol
 _atom_site_label
 _atom_site_symmetry_multiplicity
 _atom_site_fract_x
 _atom_site_fract_y
 _atom_site_fract_z
 _atom_site_occupancy
  Zr  Zr0  1  0.12500000  0.62500000  0.62500000  1
  Zr  Zr1  1  0.62500000  0.12500000  0.62500000  1
  Zr  Zr2  1  0.62500000  0.62500000  0.12500000  1
  Zr  Zr3  1  0.62500000  0.62500000  0.62500000  1
  Zr  Zr4  1  0.81502800  0.81502800  0.18497200  1
  Zr  Zr5  1  0.18497200  0.18497200  0.81502800  1
  Zr  Zr6  1  0.81502800  0.18497200  0.81502800  1
  Zr  Zr7  1  0.18497200  0.81502800  0.18497200  1
  Zr  Zr8  1  0.18497200  0.81502800  0.81502800  1
  Zr  Zr9  1  0.81502800  0.18497200  0.18497200  1
  Zr  Zr10  1  0.43497200  0.43497200  0.06502800  1
  Zr  Zr11  1  0.06502800  0.06502800  0.43497200  1
  Zr  Zr12  1  0.43497200  0.06502800  0.43497200  1
  Zr  Zr13  1  0.06502800  0.43497200  0.06502800  1
  Zr  Zr14  1  0.06502800  0.43497200  0.43497200  1
  Zr  Zr15  1  0.43497200  0.06502800  0.06502800  1
  Co  Co0  1  0.76304200  0.41231900  0.41231900  1
  Co  Co1  1  0.41231900  0.76304200  0.41231900  1
  Co  Co2  1  0.41231900  0.41231900  0.76304200  1
  Co  Co3  1  0.41231900  0.41231900  0.41231900  1
  Co  Co4  1  0.48695800  0.83768100  0.83768100  1
  Co  Co5  1  0.83768100  0.48695800  0.83768100  1
  Co  Co6  1  0.83768100  0.83768100  0.48695800  1
  Co  Co7  1  0.83768100  0.83768100  0.83768100  1
  N  N0  1  0.62500000  0.12500000  0.12500000  1
  N  N1  1  0.12500000  0.62500000  0.12500000  1
  N  N2  1  0.12500000  0.12500000  0.62500000  1
  N  N3  1  0.12500000  0.12500000  0.12500000  1
loop_
_geom_bond_atom_site_label_1
_geom_bond_atom_site_label_2
_geom_bond_distance
_geom_bond_site_symmetry_2
Co0 Zr2 2.673188 1_555
Co0 Zr1 2.673188 1_555
Co0 Zr3 2.673195 1_555
Co0 Zr11 2.813940 1_655
Co0 Zr13 2.813940 1_655
Co0 Zr14 2.813945 1_655
Co1 Zr2 2.673188 1_555
Co1 Zr0 2.673188 1_555
Co1 Zr3 2.673195 1_555
Co1 Zr11 2.813940 1_565
Co1 Zr15 2.813940 1_565
Co1 Zr12 2.813945 1_565
Co2 Zr1 2.673188 1_555
Co2 Zr0 2.673188 1_555
Co2 Zr3 2.673195 1_555
Co2 Zr15 2.813940 1_556
Co2 Zr13 2.813940 1_556
Co2 Zr10 2.813945 1_556
Co3 Zr2 2.673193 1_555
Co3 Zr0 2.673193 1_555
Co3 Zr1 2.673193 1_555
Co3 Zr14 2.813936 1_555
Co3 Zr12 2.813936 1_555
Co3 Zr10 2.813936 1_555
Co4 Zr2 2.673188 1_556
Co4 Zr1 2.673188 1_565
Co4 Zr3 2.673195 1_555
Co4 Zr5 2.813940 1_565
Co4 Zr7 2.813940 1_556
Co4 Zr8 2.813945 1_555
Co5 Zr0 2.673188 1_655
Co5 Zr2 2.673188 1_556
Co5 Zr3 2.673195 1_555
Co5 Zr9 2.813940 1_556
Co5 Zr5 2.813940 1_655
Co5 Zr6 2.813945 1_555
Co6 Zr0 2.673188 1_655
Co6 Zr1 2.673188 1_565
Co6 Zr3 2.673195 1_555
Co6 Zr9 2.813940 1_565
Co6 Zr7 2.813940 1_655
Co6 Zr4 2.813945 1_555
Co7 Zr0 2.673193 1_655
Co7 Zr2 2.673193 1_556
Co7 Zr1 2.673193 1_565
Co7 Zr6 2.813936 1_565
Co7 Zr8 2.813936 1_655
Co7 Zr4 2.813936 1_556
N0 Zr12 2.277225 1_555
N0 Zr10 2.277225 1_555
N0 Zr9 2.277225 1_555
N0 Zr6 2.277225 1_554
N0 Zr4 2.277225 1_545
N0 Zr15 2.277225 1_555
N1 Zr14 2.277225 1_555
N1 Zr10 2.277225 1_555
N1 Zr4 2.277225 1_455
N1 Zr7 2.277225 1_555
N1 Zr8 2.277225 1_554
N1 Zr13 2.277225 1_555
N2 Zr14 2.277225 1_555
N2 Zr12 2.277225 1_555
N2 Zr5 2.277225 1_555
N2 Zr6 2.277225 1_455
N2 Zr8 2.277225 1_545
N2 Zr11 2.277225 1_555
N3 Zr11 2.277225 1_555
N3 Zr15 2.277225 1_555
N3 Zr13 2.277225 1_555
N3 Zr7 2.277225 1_545
N3 Zr9 2.277225 1_455
N3 Zr5 2.277225 1_554
