# generated using pymatgen
data_Al3Co(PO4)4
_symmetry_space_group_name_H-M   'P 1'
_cell_length_a   8.88085384
_cell_length_b   8.88085384
_cell_length_c   28.55668698
_cell_angle_alpha   89.11698146
_cell_angle_beta   89.11698146
_cell_angle_gamma   109.35922224
_symmetry_Int_Tables_number   1
_chemical_formula_structural   Al3Co(PO4)4
_chemical_formula_sum   'Al12 Co4 P16 O64'
_cell_volume   2124.15337007
_cell_formula_units_Z   4
loop_
 _symmetry_equiv_pos_site_id
 _symmetry_equiv_pos_as_xyz
  1  'x, y, z'
loop_
 _atom_site_type_symbol
 _atom_site_label
 _atom_site_symmetry_multiplicity
 _atom_site_fract_x
 _atom_site_fract_y
 _atom_site_fract_z
 _atom_site_occupancy
  Al  Al0  1  0.16668200  0.11693200  0.69316600  1
  Al  Al1  1  0.83331800  0.88306800  0.30683400  1
  Al  Al2  1  0.88306800  0.83331800  0.80683400  1
  Al  Al3  1  0.11693200  0.16668200  0.19316600  1
  Al  Al4  1  0.34692200  0.35670800  0.55710100  1
  Al  Al5  1  0.65307800  0.64329200  0.44289900  1
  Al  Al6  1  0.64329200  0.65307800  0.94289900  1
  Al  Al7  1  0.35670800  0.34692200  0.05710100  1
  Al  Al8  1  0.71753800  0.97735100  0.61705800  1
  Al  Al9  1  0.28246200  0.02264900  0.38294200  1
  Al  Al10  1  0.02264900  0.28246200  0.88294200  1
  Al  Al11  1  0.97735100  0.71753800  0.11705800  1
  Co  Co0  1  0.49694900  0.20665900  0.86683200  1
  Co  Co1  1  0.50305100  0.79334100  0.13316800  1
  Co  Co2  1  0.79334100  0.50305100  0.63316800  1
  Co  Co3  1  0.20665900  0.49694900  0.36683200  1
  P  P0  1  0.71956900  0.97831800  0.88339700  1
  P  P1  1  0.28043100  0.02168200  0.11660300  1
  P  P2  1  0.02168200  0.28043100  0.61660300  1
  P  P3  1  0.97831800  0.71956900  0.38339700  1
  P  P4  1  0.18306200  0.13739400  0.80335300  1
  P  P5  1  0.81693800  0.86260600  0.19664700  1
  P  P6  1  0.86260600  0.81693800  0.69664700  1
  P  P7  1  0.13739400  0.18306200  0.30335300  1
  P  P8  1  0.64240700  0.67077800  0.55485700  1
  P  P9  1  0.35759300  0.32922200  0.44514300  1
  P  P10  1  0.32922200  0.35759300  0.94514300  1
  P  P11  1  0.67077800  0.64240700  0.05485700  1
  P  P12  1  0.48879500  0.18737800  0.63290100  1
  P  P13  1  0.51120500  0.81262200  0.36709900  1
  P  P14  1  0.81262200  0.51120500  0.86709900  1
  P  P15  1  0.18737800  0.48879500  0.13290100  1
  O  O0  1  0.60930300  0.33959700  0.65341600  1
  O  O1  1  0.39069700  0.66040300  0.34658400  1
  O  O2  1  0.66040300  0.39069700  0.84658400  1
  O  O3  1  0.33959700  0.60930300  0.15341600  1
  O  O4  1  0.18621400  0.18042000  0.75099700  1
  O  O5  1  0.81378600  0.81958000  0.24900300  1
  O  O6  1  0.81958000  0.81378600  0.74900300  1
  O  O7  1  0.18042000  0.18621400  0.25099700  1
  O  O8  1  0.75479200  0.91596800  0.83585000  1
  O  O9  1  0.24520800  0.08403200  0.16415000  1
  O  O10  1  0.08403200  0.24520800  0.66415000  1
  O  O11  1  0.91596800  0.75479200  0.33585000  1
  O  O12  1  0.91874400  0.03957500  0.18810200  1
  O  O13  1  0.08125600  0.96042500  0.81189800  1
  O  O14  1  0.96042500  0.08125600  0.31189800  1
  O  O15  1  0.03957500  0.91874400  0.68810200  1
  O  O16  1  0.34844400  0.12281200  0.66791500  1
  O  O17  1  0.65155600  0.87718800  0.33208500  1
  O  O18  1  0.87718800  0.65155600  0.83208500  1
  O  O19  1  0.12281200  0.34844400  0.16791500  1
  O  O20  1  0.65484300  0.83543800  0.57360100  1
  O  O21  1  0.34515700  0.16456200  0.42639900  1
  O  O22  1  0.16456200  0.34515700  0.92639900  1
  O  O23  1  0.83543800  0.65484300  0.07360100  1
  O  O24  1  0.58579200  0.05033600  0.87719700  1
  O  O25  1  0.41420800  0.94966400  0.12280300  1
  O  O26  1  0.94966400  0.41420800  0.62280300  1
  O  O27  1  0.05033600  0.58579200  0.37719700  1
  O  O28  1  0.75292800  0.88775000  0.66914200  1
  O  O29  1  0.24707200  0.11225000  0.33085800  1
  O  O30  1  0.11225000  0.24707200  0.83085800  1
  O  O31  1  0.88775000  0.75292800  0.16914200  1
  O  O32  1  0.56619400  0.05848600  0.62622200  1
  O  O33  1  0.43380600  0.94151400  0.37377800  1
  O  O34  1  0.94151400  0.43380600  0.87377800  1
  O  O35  1  0.05848600  0.56619400  0.12622200  1
  O  O36  1  0.66164400  0.84045200  0.91924400  1
  O  O37  1  0.33835600  0.15954800  0.08075600  1
  O  O38  1  0.15954800  0.33835600  0.58075600  1
  O  O39  1  0.84045200  0.66164400  0.41924400  1
  O  O40  1  0.35493000  0.16288300  0.81838500  1
  O  O41  1  0.64507000  0.83711700  0.18161500  1
  O  O42  1  0.83711700  0.64507000  0.68161500  1
  O  O43  1  0.16288300  0.35493000  0.31838500  1
  O  O44  1  0.42939900  0.22526100  0.58503700  1
  O  O45  1  0.57060100  0.77473900  0.41496300  1
  O  O46  1  0.77473900  0.57060100  0.91496300  1
  O  O47  1  0.22526100  0.42939900  0.08503700  1
  O  O48  1  0.47204100  0.55436700  0.56476800  1
  O  O49  1  0.52795900  0.44563300  0.43523200  1
  O  O50  1  0.44563300  0.52795900  0.93523200  1
  O  O51  1  0.55436700  0.47204100  0.06476800  1
  O  O52  1  0.67717500  0.68885000  0.50201600  1
  O  O53  1  0.32282500  0.31115000  0.49798400  1
  O  O54  1  0.31115000  0.32282500  0.99798400  1
  O  O55  1  0.68885000  0.67717500  0.00201600  1
  O  O56  1  0.39110200  0.23216900  0.92160000  1
  O  O57  1  0.60889800  0.76783100  0.07840000  1
  O  O58  1  0.76783100  0.60889800  0.57840000  1
  O  O59  1  0.23216900  0.39110200  0.42160000  1
  O  O60  1  0.87177500  0.10500900  0.90131900  1
  O  O61  1  0.12822500  0.89499100  0.09868100  1
  O  O62  1  0.89499100  0.12822500  0.59868100  1
  O  O63  1  0.10500900  0.87177500  0.40131900  1
loop_
_geom_bond_atom_site_label_1
_geom_bond_atom_site_label_2
_geom_bond_distance
_geom_bond_site_symmetry_2
Al0 O16 1.742245 1_555
Al0 O4 1.745853 1_555
Al0 O10 1.751324 1_555
Al0 O15 1.757465 1_545
Al1 O17 1.742245 1_555
Al1 O5 1.745853 1_555
Al1 O11 1.751324 1_555
Al1 O14 1.757465 1_565
Al2 O18 1.742245 1_555
Al2 O6 1.745853 1_555
Al2 O8 1.751324 1_555
Al2 O13 1.757465 1_655
Al3 O19 1.742245 1_555
Al3 O7 1.745853 1_555
Al3 O9 1.751324 1_555
Al3 O12 1.757465 1_455
Al4 O38 1.741856 1_555
Al4 O53 1.741909 1_555
Al4 O48 1.757889 1_555
Al4 O44 1.758366 1_555
Al5 O39 1.741856 1_555
Al5 O52 1.741909 1_555
Al5 O49 1.757889 1_555
Al5 O45 1.758366 1_555
Al6 O36 1.741856 1_555
Al6 O55 1.741909 1_556
Al6 O50 1.757889 1_555
Al6 O46 1.758366 1_555
Al7 O37 1.741856 1_555
Al7 O54 1.741909 1_554
Al7 O51 1.757889 1_555
Al7 O47 1.758366 1_555
Al8 O32 1.741041 1_565
Al8 O20 1.744338 1_555
Al8 O28 1.757244 1_555
Al8 O62 1.762719 1_565
Al9 O33 1.741041 1_545
Al9 O21 1.744338 1_555
Al9 O29 1.757244 1_555
Al9 O63 1.762719 1_545
Al10 O34 1.741041 1_455
Al10 O22 1.744338 1_555
Al10 O30 1.757244 1_555
Al10 O60 1.762719 1_455
Al11 O35 1.741041 1_655
Al11 O23 1.744338 1_555
Al11 O31 1.757244 1_555
Al11 O61 1.762719 1_655
Co0 O24 1.832537 1_555
Co0 O40 1.844235 1_555
Co0 O2 1.866783 1_555
Co0 O56 1.867569 1_555
Co1 O25 1.832537 1_555
Co1 O41 1.844235 1_555
Co1 O3 1.866783 1_555
Co1 O57 1.867569 1_555
Co2 O26 1.832537 1_555
Co2 O42 1.844235 1_555
Co2 O0 1.866783 1_555
Co2 O58 1.867569 1_555
Co3 O27 1.832537 1_555
Co3 O43 1.844235 1_555
Co3 O1 1.866783 1_555
Co3 O59 1.867569 1_555
O0 P12 1.549384 1_555
O1 P13 1.549384 1_555
O2 P14 1.549384 1_555
O3 P15 1.549384 1_555
O4 P4 1.534981 1_555
O5 P5 1.534981 1_555
O6 P6 1.534981 1_555
O7 P7 1.534981 1_555
O8 P0 1.540439 1_555
O9 P1 1.540439 1_555
O10 P2 1.540439 1_555
O11 P3 1.540439 1_555
O12 P5 1.544778 1_545
O13 P4 1.544778 1_565
O14 P7 1.544778 1_655
O15 P6 1.544778 1_455
O16 P12 1.533701 1_555
O17 P13 1.533701 1_555
O18 P14 1.533701 1_555
O19 P15 1.533701 1_555
O20 P8 1.534916 1_555
O21 P9 1.534916 1_555
O22 P10 1.534916 1_555
O23 P11 1.534916 1_555
O24 P0 1.535789 1_545
O25 P1 1.535789 1_565
O26 P2 1.535789 1_655
O27 P3 1.535789 1_455
O28 P6 1.541303 1_555
O29 P7 1.541303 1_555
O30 P4 1.541303 1_555
O31 P5 1.541303 1_555
O32 P12 1.530835 1_555
O33 P13 1.530835 1_555
O34 P14 1.530835 1_555
O35 P15 1.530835 1_555
O36 P0 1.529437 1_555
O37 P1 1.529437 1_555
O38 P2 1.529437 1_555
O39 P3 1.529437 1_555
O40 P4 1.536011 1_555
O41 P5 1.536011 1_555
O42 P6 1.536011 1_555
O43 P7 1.536011 1_555
O44 P12 1.544467 1_555
O45 P13 1.544467 1_555
O46 P14 1.544467 1_555
O47 P15 1.544467 1_555
O48 P8 1.542344 1_555
O49 P9 1.542344 1_555
O50 P10 1.542344 1_555
O51 P11 1.542344 1_555
O52 P8 1.530813 1_555
O53 P9 1.530813 1_555
O54 P10 1.530813 1_555
O55 P11 1.530813 1_555
O56 P10 1.553137 1_555
O57 P11 1.553137 1_555
O58 P8 1.553137 1_555
O59 P9 1.553137 1_555
O60 P0 1.544590 1_545
O61 P1 1.544590 1_565
O62 P2 1.544590 1_655
O63 P3 1.544590 1_455
