# generated using pymatgen
data_PuNp3
_symmetry_space_group_name_H-M   'P 1'
_cell_length_a   4.60483068
_cell_length_b   4.60483068
_cell_length_c   4.60483068
_cell_angle_alpha   60.00000000
_cell_angle_beta   60.00000000
_cell_angle_gamma   60.00000000
_symmetry_Int_Tables_number   1
_chemical_formula_structural   PuNp3
_chemical_formula_sum   'Pu1 Np3'
_cell_volume   69.04400884
_cell_formula_units_Z   1
loop_
 _symmetry_equiv_pos_site_id
 _symmetry_equiv_pos_as_xyz
  1  'x, y, z'
loop_
 _atom_site_type_symbol
 _atom_site_label
 _atom_site_symmetry_multiplicity
 _atom_site_fract_x
 _atom_site_fract_y
 _atom_site_fract_z
 _atom_site_occupancy
  Pu  Pu0  1  0.75000000  0.75000000  0.75000000  1
  Np  Np0  1  0.00000000  0.00000000  0.00000000  1
  Np  Np1  1  0.49999900  0.49999900  0.49999900  1
  Np  Np2  1  0.25000000  0.25000000  0.25000000  1
loop_
_geom_bond_atom_site_label_1
_geom_bond_atom_site_label_2
_geom_bond_distance
_geom_bond_site_symmetry_2
Np0 Np2 2.819871 1_555
Np0 Np2 2.819871 1_545
Np0 Pu0 2.819871 1_444
Np0 Pu0 2.819871 1_544
Np0 Np2 2.819871 1_455
Np0 Pu0 2.819871 1_454
Np0 Np2 2.819871 1_554
Np0 Pu0 2.819871 1_445
Np1 Np2 2.819860 1_555
Np1 Pu0 2.819868 1_455
Np1 Pu0 2.819868 1_554
Np1 Pu0 2.819868 1_545
Np1 Np2 2.819875 1_655
Np1 Np2 2.819875 1_556
Np1 Np2 2.819875 1_565
Np1 Pu0 2.819883 1_555
Np2 Pu0 3.256107 1_544
Np2 Pu0 3.256107 1_454
Np2 Pu0 3.256107 1_445
Np2 Pu0 3.256107 1_455
Np2 Pu0 3.256107 1_554
Np2 Pu0 3.256107 1_545
