# generated using pymatgen
data_MgFe10O9F11
_symmetry_space_group_name_H-M   'P 1'
_cell_length_a   4.85244535
_cell_length_b   4.93702334
_cell_length_c   15.55374021
_cell_angle_alpha   89.58636652
_cell_angle_beta   90.38187407
_cell_angle_gamma   95.97981017
_symmetry_Int_Tables_number   1
_chemical_formula_structural   MgFe10O9F11
_chemical_formula_sum   'Mg1 Fe10 O9 F11'
_cell_volume   370.57156176
_cell_formula_units_Z   1
loop_
 _symmetry_equiv_pos_site_id
 _symmetry_equiv_pos_as_xyz
  1  'x, y, z'
loop_
 _atom_site_type_symbol
 _atom_site_label
 _atom_site_symmetry_multiplicity
 _atom_site_fract_x
 _atom_site_fract_y
 _atom_site_fract_z
 _atom_site_occupancy
  Mg  Mg0  1  0.99057376  0.51517931  0.80080603  1
  Fe  Fe0  1  0.98999485  0.99454871  0.00654123  1
  Fe  Fe1  1  0.99382244  0.98985865  0.20389246  1
  Fe  Fe2  1  0.99132903  0.98126504  0.40311158  1
  Fe  Fe3  1  0.04064494  0.00041232  0.60218776  1
  Fe  Fe4  1  0.07053912  0.02477310  0.79425431  1
  Fe  Fe5  1  0.49119330  0.49232403  0.10649608  1
  Fe  Fe6  1  0.49085215  0.46997759  0.48844015  1
  Fe  Fe7  1  0.49359550  0.48922954  0.29890210  1
  Fe  Fe8  1  0.45727177  0.52507998  0.68978310  1
  Fe  Fe9  1  0.49220739  0.48994119  0.91624948  1
  O  O0  1  0.17948340  0.76933935  0.70373811  1
  O  O1  1  0.28988631  0.27119150  0.01291020  1
  O  O2  1  0.29232346  0.28864483  0.20410672  1
  O  O3  1  0.29317968  0.27949525  0.39613815  1
  O  O4  1  0.33159271  0.31083868  0.59374819  1
  O  O5  1  0.34314228  0.34527920  0.80054104  1
  O  O6  1  0.68710545  0.70952281  0.01015193  1
  O  O7  1  0.69300619  0.69051238  0.20416666  1
  O  O8  1  0.69524424  0.68348928  0.39953412  1
  F  F0  1  0.17693942  0.79370311  0.10713280  1
  F  F1  1  0.18334174  0.79833436  0.30234237  1
  F  F2  1  0.19846800  0.78436985  0.49404248  1
  F  F3  1  0.14781548  0.77517041  0.90115005  1
  F  F4  1  0.69150147  0.72640032  0.59759458  1
  F  F5  1  0.70138227  0.75669407  0.79656860  1
  F  F6  1  0.80148086  0.18409425  0.10682567  1
  F  F7  1  0.80725956  0.18800171  0.49521791  1
  F  F8  1  0.80331709  0.17144002  0.30240983  1
  F  F9  1  0.84740824  0.23043811  0.89373316  1
  F  F10  1  0.82021089  0.27044805  0.70895016  1
loop_
_geom_bond_atom_site_label_1
_geom_bond_atom_site_label_2
_geom_bond_distance
_geom_bond_site_symmetry_2
Mg0 O5 1.982334 1_655
Mg0 O0 2.108468 1_655
Fe0 O1 1.891758 1_665
Fe0 O6 1.926790 1_555
Fe1 O2 1.956741 1_665
Fe1 O7 1.966054 1_555
Fe2 O8 1.946434 1_555
Fe2 O3 1.968627 1_665
Fe3 O4 1.976862 1_555
Fe3 O0 2.090467 1_545
Fe4 O5 1.956414 1_555
Fe4 O0 2.006574 1_545
Fe5 O7 2.006531 1_555
Fe5 O2 2.010639 1_555
Fe5 O1 2.011636 1_555
Fe5 O6 2.020527 1_555
Fe6 O3 1.917992 1_555
Fe6 O4 1.941420 1_555
Fe6 O8 1.945873 1_555
Fe7 O7 1.972945 1_555
Fe7 O2 1.977078 1_555
Fe7 O3 2.022978 1_555
Fe7 O8 2.032939 1_555
Fe8 O4 1.896864 1_555
Fe8 O0 1.914336 1_555
Fe8 O5 1.987608 1_555
Fe9 O6 1.998407 1_556
Fe9 O5 2.041023 1_555
Fe9 O1 2.041033 1_556
F0 Fe1 2.051951 1_455
F0 Fe0 2.097647 1_455
F0 Fe5 2.238854 1_555
F1 Fe1 2.055743 1_455
F1 Fe2 2.086996 1_455
F1 Fe7 2.253699 1_555
F2 Fe2 2.029849 1_455
F2 Fe3 2.183288 1_565
F2 Fe6 2.211825 1_555
F3 Mg0 2.115329 1_455
F3 Fe4 2.117045 1_565
F3 Fe0 2.159115 1_456
F3 Fe9 2.304597 1_555
F4 Fe8 2.025212 1_555
F4 Fe3 2.056147 1_665
F4 Fe6 2.277106 1_555
F5 Mg0 1.934308 1_555
F5 Fe4 2.113760 1_665
F5 Fe8 2.277782 1_555
F5 Fe9 2.437426 1_555
F6 Fe1 2.053490 1_545
F6 Fe0 2.088995 1_545
F6 Fe5 2.249417 1_555
F7 Fe2 2.029776 1_545
F7 Fe6 2.178870 1_555
F7 Fe3 2.253795 1_655
F8 Fe1 2.053674 1_545
F8 Fe2 2.074923 1_545
F8 Fe7 2.283030 1_555
F9 Mg0 2.080495 1_555
F9 Fe4 2.207125 1_655
F9 Fe0 2.244052 1_546
F9 Fe9 2.282421 1_555
F10 Mg0 1.996373 1_555
F10 Fe4 2.229190 1_655
F10 Fe8 2.284676 1_555
F10 Fe3 2.455950 1_655
