# generated using pymatgen
data_Co2S3
_symmetry_space_group_name_H-M   'P 1'
_cell_length_a   5.98334754
_cell_length_b   5.98334754
_cell_length_c   5.98334867
_cell_angle_alpha   56.52860088
_cell_angle_beta   56.52860088
_cell_angle_gamma   56.52860792
_symmetry_Int_Tables_number   1
_chemical_formula_structural   Co2S3
_chemical_formula_sum   'Co4 S6'
_cell_volume   139.31540508
_cell_formula_units_Z   2
loop_
 _symmetry_equiv_pos_site_id
 _symmetry_equiv_pos_as_xyz
  1  'x, y, z'
loop_
 _atom_site_type_symbol
 _atom_site_label
 _atom_site_symmetry_multiplicity
 _atom_site_fract_x
 _atom_site_fract_y
 _atom_site_fract_z
 _atom_site_occupancy
  Co  Co0  1  0.84939174  0.84939174  0.84939174  1
  Co  Co1  1  0.65060826  0.65060826  0.65060826  1
  Co  Co2  1  0.34939174  0.34939174  0.34939174  1
  Co  Co3  1  0.15060826  0.15060826  0.15060826  1
  S  S0  1  0.55288166  0.94711834  0.25000000  1
  S  S1  1  0.94711834  0.25000000  0.55288166  1
  S  S2  1  0.25000000  0.55288166  0.94711834  1
  S  S3  1  0.75000000  0.44711834  0.05288166  1
  S  S4  1  0.05288166  0.75000000  0.44711834  1
  S  S5  1  0.44711834  0.05288166  0.75000000  1
loop_
_geom_bond_atom_site_label_1
_geom_bond_atom_site_label_2
_geom_bond_distance
_geom_bond_site_symmetry_2
Co0 S1 2.223947 1_565
Co0 S2 2.223947 1_655
Co0 S0 2.223947 1_556
Co0 S3 2.275330 1_556
Co0 S5 2.275330 1_565
Co0 S4 2.275330 1_655
Co1 S2 2.223947 1_555
Co1 S1 2.223947 1_555
Co1 S0 2.223947 1_555
Co1 S4 2.275330 1_655
Co1 S5 2.275330 1_565
Co1 S3 2.275330 1_556
Co2 S3 2.223947 1_555
Co2 S4 2.223947 1_555
Co2 S5 2.223947 1_555
Co2 S1 2.275330 1_455
Co2 S0 2.275330 1_545
Co2 S2 2.275330 1_554
Co3 S4 2.223947 1_545
Co3 S3 2.223947 1_455
Co3 S5 2.223947 1_554
Co3 S2 2.275330 1_554
Co3 S0 2.275330 1_545
Co3 S1 2.275330 1_455
