# generated using pymatgen
data_Tm2CuO4
_symmetry_space_group_name_H-M   'P 1'
_cell_length_a   7.70190003
_cell_length_b   5.48364013
_cell_length_c   6.13602021
_cell_angle_alpha   109.14952386
_cell_angle_beta   103.47914112
_cell_angle_gamma   44.62017525
_symmetry_Int_Tables_number   1
_chemical_formula_structural   Tm2CuO4
_chemical_formula_sum   'Tm4 Cu2 O8'
_cell_volume   171.95646012
_cell_formula_units_Z   2
loop_
 _symmetry_equiv_pos_site_id
 _symmetry_equiv_pos_as_xyz
  1  'x, y, z'
loop_
 _atom_site_type_symbol
 _atom_site_label
 _atom_site_symmetry_multiplicity
 _atom_site_fract_x
 _atom_site_fract_y
 _atom_site_fract_z
 _atom_site_occupancy
  Tm  Tm0  1  0.01986100  0.65724000  0.31117100  1
  Tm  Tm1  1  0.51952600  0.30333700  0.68879000  1
  Tm  Tm2  1  0.48045300  0.69669500  0.31120700  1
  Tm  Tm3  1  0.98012100  0.34277000  0.68883000  1
  Cu  Cu0  1  0.00000800  0.99998600  0.99999600  1
  Cu  Cu1  1  0.50000700  0.99999300  0.00000800  1
  O  O0  1  0.19491800  0.12197000  0.03300500  1
  O  O1  1  0.25204900  0.25153500  0.52621900  1
  O  O2  1  0.30515900  0.51167200  0.03315400  1
  O  O3  1  0.24783000  0.75574700  0.52638900  1
  O  O4  1  0.75214800  0.24427700  0.47360400  1
  O  O5  1  0.69487500  0.48828800  0.96683600  1
  O  O6  1  0.74792900  0.74849000  0.47378800  1
  O  O7  1  0.80511600  0.87800000  0.96700300  1
loop_
_geom_bond_atom_site_label_1
_geom_bond_atom_site_label_2
_geom_bond_distance
_geom_bond_site_symmetry_2
Cu0 O5 1.977541 1_465
Cu0 O2 1.977602 1_556
Cu0 O7 1.985052 1_455
Cu0 O0 1.985159 1_566
Cu1 O0 1.976187 1_565
Cu1 O7 1.976302 1_554
Cu1 O2 1.984935 1_565
Cu1 O5 1.984991 1_554
O0 Tm0 2.344977 1_555
O0 Tm3 2.420789 1_454
O0 Tm2 2.598018 1_545
O1 Tm3 2.187990 1_455
O1 Tm2 2.218428 1_545
O1 Tm1 2.238046 1_555
O1 Tm0 2.247433 1_555
O2 Tm2 2.345968 1_555
O2 Tm1 2.419389 1_554
O2 Tm0 2.594761 1_555
O3 Tm1 2.187715 1_555
O3 Tm0 2.218056 1_555
O3 Tm3 2.238643 1_465
O3 Tm2 2.248239 1_555
O4 Tm2 2.187726 1_555
O4 Tm3 2.218050 1_555
O4 Tm0 2.238682 1_645
O4 Tm1 2.248223 1_555
O5 Tm1 2.346013 1_555
O5 Tm2 2.419541 1_556
O5 Tm3 2.594538 1_555
O6 Tm0 2.187990 1_655
O6 Tm1 2.218432 1_565
O6 Tm2 2.238026 1_555
O6 Tm3 2.247455 1_555
O7 Tm3 2.344922 1_555
O7 Tm0 2.420636 1_656
O7 Tm1 2.598266 1_565
