# generated using pymatgen
data_Ca8P6O29
_symmetry_space_group_name_H-M   'P 1'
_cell_length_a   6.87132700
_cell_length_b   9.63350393
_cell_length_c   18.91094100
_cell_angle_alpha   100.62353835
_cell_angle_beta   92.15554059
_cell_angle_gamma   90.11053535
_symmetry_Int_Tables_number   1
_chemical_formula_structural   Ca8P6O29
_chemical_formula_sum   'Ca16 P12 O58'
_cell_volume   1229.43185718
_cell_formula_units_Z   2
loop_
 _symmetry_equiv_pos_site_id
 _symmetry_equiv_pos_as_xyz
  1  'x, y, z'
loop_
 _atom_site_type_symbol
 _atom_site_label
 _atom_site_symmetry_multiplicity
 _atom_site_fract_x
 _atom_site_fract_y
 _atom_site_fract_z
 _atom_site_occupancy
  Ca  Ca0  1  0.99851900  0.72088900  0.92793200  1
  Ca  Ca1  1  0.00148100  0.27911100  0.07206800  1
  Ca  Ca2  1  0.49752000  0.73506400  0.92736900  1
  Ca  Ca3  1  0.50248000  0.26493600  0.07263100  1
  Ca  Ca4  1  0.98031500  0.66819600  0.62808400  1
  Ca  Ca5  1  0.01968500  0.33180400  0.37191600  1
  Ca  Ca6  1  0.46788800  0.46037200  0.63464800  1
  Ca  Ca7  1  0.53211200  0.53962800  0.36535200  1
  Ca  Ca8  1  0.23654700  0.34117500  0.88368800  1
  Ca  Ca9  1  0.76345300  0.65882500  0.11631200  1
  Ca  Ca10  1  0.73066700  0.45867800  0.79659900  1
  Ca  Ca11  1  0.26933300  0.54132200  0.20340100  1
  Ca  Ca12  1  0.23751300  0.92368700  0.77288000  1
  Ca  Ca13  1  0.76248700  0.07631300  0.22712000  1
  Ca  Ca14  1  0.73919400  0.08905800  0.88457600  1
  Ca  Ca15  1  0.26080600  0.91094200  0.11542400  1
  P  P0  1  0.74089200  0.40450000  0.95731400  1
  P  P1  1  0.25910800  0.59550000  0.04268600  1
  P  P2  1  0.22751000  0.56971800  0.79036900  1
  P  P3  1  0.77249000  0.43028200  0.20963100  1
  P  P4  1  0.73104600  0.77227900  0.76219100  1
  P  P5  1  0.26895400  0.22772100  0.23780900  1
  P  P6  1  0.24179600  0.01538200  0.94201100  1
  P  P7  1  0.75820400  0.98461800  0.05798900  1
  P  P8  1  0.72817700  0.36728800  0.50446000  1
  P  P9  1  0.27182300  0.63271200  0.49554000  1
  P  P10  1  0.74953700  0.17041700  0.70087200  1
  P  P11  1  0.25046300  0.82958300  0.29912800  1
  O  O0  1  0.92844500  0.31960100  0.93567600  1
  O  O1  1  0.07155500  0.68039900  0.06432400  1
  O  O2  1  0.56311800  0.30968400  0.92556900  1
  O  O3  1  0.43688200  0.69031600  0.07443100  1
  O  O4  1  0.40717700  0.48480100  0.81012900  1
  O  O5  1  0.59282300  0.51519900  0.18987100  1
  O  O6  1  0.05037000  0.50217500  0.82072700  1
  O  O7  1  0.94963000  0.49782500  0.17927300  1
  O  O8  1  0.92479900  0.82748600  0.73837600  1
  O  O9  1  0.07520100  0.17251400  0.26162400  1
  O  O10  1  0.57028600  0.88313800  0.75933800  1
  O  O11  1  0.42971400  0.11686200  0.24066200  1
  O  O12  1  0.42448200  0.99832200  0.89518800  1
  O  O13  1  0.57551800  0.00167800  0.10481200  1
  O  O14  1  0.05968900  0.00071100  0.88956800  1
  O  O15  1  0.94031100  0.99928900  0.11043200  1
  O  O16  1  0.89548700  0.25613800  0.50331900  1
  O  O17  1  0.10451300  0.74386200  0.49668100  1
  O  O18  1  0.52533800  0.31380100  0.51972800  1
  O  O19  1  0.47466200  0.68619900  0.48027200  1
  O  O20  1  0.73817600  0.54542300  0.92909100  1
  O  O21  1  0.26182400  0.45457700  0.07090900  1
  O  O22  1  0.26455100  0.56858400  0.95900300  1
  O  O23  1  0.73544900  0.43141600  0.04099700  1
  O  O24  1  0.24785800  0.72377800  0.83416700  1
  O  O25  1  0.75214200  0.27622200  0.16583300  1
  O  O26  1  0.20731200  0.56869100  0.70907000  1
  O  O27  1  0.79268800  0.43130900  0.29093000  1
  O  O28  1  0.74666100  0.75043500  0.84212000  1
  O  O29  1  0.25333900  0.24956500  0.15788000  1
  O  O30  1  0.68743700  0.62572600  0.71347100  1
  O  O31  1  0.31256300  0.37427400  0.28652900  1
  O  O32  1  0.24486800  0.15915100  0.99477600  1
  O  O33  1  0.75513200  0.84084900  0.00522400  1
  O  O34  1  0.24174400  0.89120900  0.98477800  1
  O  O35  1  0.75825600  0.10879100  0.01522200  1
  O  O36  1  0.78299100  0.48960000  0.56752400  1
  O  O37  1  0.21700900  0.51040000  0.43247600  1
  O  O38  1  0.26787300  0.58431500  0.56872100  1
  O  O39  1  0.73212700  0.41568500  0.43127900  1
  O  O40  1  0.77044200  0.19495300  0.78382800  1
  O  O41  1  0.22955800  0.80504700  0.21617200  1
  O  O42  1  0.59685300  0.05112900  0.66949200  1
  O  O43  1  0.40314700  0.94887100  0.33050800  1
  O  O44  1  0.93809400  0.11177500  0.66430400  1
  O  O45  1  0.06190600  0.88822500  0.33569600  1
  O  O46  1  0.68563400  0.31320300  0.68215900  1
  O  O47  1  0.31436600  0.68679700  0.31784100  1
  O  O48  1  0.74477700  0.81514700  0.56496200  1
  O  O49  1  0.25522300  0.18485300  0.43503800  1
  O  O50  1  0.19097800  0.87656700  0.62975100  1
  O  O51  1  0.80902200  0.12343300  0.37024900  1
  O  O52  1  0.30203900  0.20526400  0.66320800  1
  O  O53  1  0.69796100  0.79473600  0.33679200  1
  O  O54  1  0.24068500  0.16924000  0.76902800  1
  O  O55  1  0.75931500  0.83076000  0.23097200  1
  O  O56  1  0.32772900  0.01956700  0.58075200  1
  O  O57  1  0.67227100  0.98043300  0.41924800  1
loop_
_geom_bond_atom_site_label_1
_geom_bond_atom_site_label_2
_geom_bond_distance
_geom_bond_site_symmetry_2
Ca0 O28 2.381253 1_555
Ca0 O33 2.416068 1_556
Ca0 O34 2.417621 1_655
Ca0 O20 2.462292 1_555
Ca0 O22 2.467184 1_655
Ca0 O24 2.515326 1_655
Ca0 O6 2.675576 1_655
Ca0 O1 2.707607 1_656
Ca0 O14 2.951151 1_665
Ca1 O29 2.381253 1_555
Ca1 O32 2.416068 1_554
Ca1 O35 2.417621 1_455
Ca1 O21 2.462292 1_555
Ca1 O23 2.467184 1_455
Ca1 O25 2.515326 1_455
Ca1 O7 2.675576 1_455
Ca1 O0 2.707607 1_454
Ca1 O15 2.951151 1_445
Ca2 O33 2.362918 1_556
Ca2 O24 2.400521 1_555
Ca2 O28 2.417906 1_555
Ca2 O22 2.430735 1_555
Ca2 O34 2.466135 1_555
Ca2 O20 2.470358 1_555
Ca2 O12 2.757721 1_555
Ca2 O3 2.936385 1_556
Ca2 O4 3.005544 1_555
Ca3 O32 2.362918 1_554
Ca3 O25 2.400521 1_555
Ca3 O29 2.417906 1_555
Ca3 O23 2.430735 1_555
Ca3 O35 2.466135 1_555
Ca3 O21 2.470358 1_555
Ca3 O13 2.757721 1_555
Ca3 O2 2.936385 1_554
Ca3 O5 3.005544 1_555
Ca4 O36 2.292992 1_555
Ca4 O38 2.378230 1_655
Ca4 O8 2.394273 1_555
Ca4 O26 2.462659 1_655
Ca4 O50 2.467346 1_655
Ca4 O48 2.556359 1_555
Ca4 O30 2.703639 1_555
Ca4 O17 2.873957 1_655
Ca5 O37 2.292992 1_555
Ca5 O39 2.378230 1_455
Ca5 O9 2.394273 1_555
Ca5 O27 2.462659 1_455
Ca5 O51 2.467346 1_455
Ca5 O49 2.556359 1_555
Ca5 O31 2.703639 1_555
Ca5 O16 2.873957 1_455
Ca6 O38 2.301131 1_555
Ca6 O46 2.330803 1_555
Ca6 O18 2.409940 1_555
Ca6 O26 2.435324 1_555
Ca6 O30 2.445675 1_555
Ca6 O36 2.591287 1_555
Ca6 O52 2.855698 1_555
Ca7 O39 2.301131 1_555
Ca7 O47 2.330803 1_555
Ca7 O19 2.409940 1_555
Ca7 O27 2.435324 1_555
Ca7 O31 2.445675 1_555
Ca7 O37 2.591287 1_555
Ca7 O53 2.855698 1_555
Ca8 O22 2.385845 1_555
Ca8 O2 2.390034 1_555
Ca8 O0 2.392062 1_455
Ca8 O6 2.456373 1_555
Ca8 O4 2.459721 1_555
Ca8 O54 2.475179 1_555
Ca8 O32 2.973382 1_555
Ca9 O23 2.385845 1_555
Ca9 O3 2.390034 1_555
Ca9 O1 2.392062 1_655
Ca9 O7 2.456373 1_555
Ca9 O5 2.459721 1_555
Ca9 O55 2.475179 1_555
Ca9 O33 2.973382 1_555
Ca10 O6 2.249486 1_655
Ca10 O4 2.256294 1_555
Ca10 O46 2.360734 1_555
Ca10 O30 2.459411 1_555
Ca10 O20 2.489351 1_555
Ca10 O40 2.523700 1_555
Ca10 O28 2.784318 1_555
Ca11 O7 2.249486 1_455
Ca11 O5 2.256294 1_555
Ca11 O47 2.360734 1_555
Ca11 O31 2.459411 1_555
Ca11 O21 2.489351 1_555
Ca11 O41 2.523700 1_555
Ca11 O29 2.784318 1_555
Ca12 O10 2.336084 1_555
Ca12 O8 2.359170 1_455
Ca12 O54 2.380125 1_565
Ca12 O24 2.423720 1_555
Ca12 O14 2.552574 1_565
Ca12 O12 2.583987 1_555
Ca12 O50 2.667557 1_555
Ca13 O11 2.336084 1_555
Ca13 O9 2.359170 1_655
Ca13 O55 2.380125 1_545
Ca13 O25 2.423720 1_555
Ca13 O15 2.552574 1_545
Ca13 O13 2.583987 1_555
Ca13 O51 2.667557 1_555
Ca14 O40 2.337367 1_555
Ca14 O12 2.360238 1_545
Ca14 O14 2.367337 1_655
Ca14 O35 2.441258 1_556
Ca14 O2 2.460704 1_555
Ca14 O0 2.580784 1_555
Ca15 O41 2.337367 1_555
Ca15 O13 2.360238 1_565
Ca15 O15 2.367337 1_455
Ca15 O34 2.441258 1_554
Ca15 O3 2.460704 1_555
Ca15 O1 2.580784 1_555
O0 P0 1.554846 1_555
O1 P1 1.554846 1_555
O2 P0 1.557315 1_555
O3 P1 1.557315 1_555
O4 P2 1.553982 1_555
O5 P3 1.553982 1_555
O6 P2 1.556199 1_555
O7 P3 1.556199 1_555
O8 P4 1.545584 1_555
O9 P5 1.545584 1_555
O10 P4 1.544339 1_555
O11 P5 1.544339 1_555
O12 P6 1.554857 1_565
O13 P7 1.554857 1_545
O14 P6 1.556796 1_555
O15 P7 1.556796 1_555
O16 P8 1.570597 1_555
O17 P9 1.570597 1_555
O18 P8 1.540723 1_555
O19 P9 1.540723 1_555
O20 P0 1.547496 1_555
O21 P1 1.547496 1_555
O22 P1 1.557629 1_556
O23 P0 1.557629 1_554
O24 P2 1.563803 1_555
O25 P3 1.563803 1_555
O26 P2 1.536691 1_555
O27 P3 1.536691 1_555
O28 P4 1.563871 1_555
O29 P5 1.563871 1_555
O30 P4 1.558809 1_555
O31 P5 1.558809 1_555
O32 P6 1.550190 1_555
O33 P7 1.550190 1_555
O34 P6 1.562619 1_565
O35 P7 1.562619 1_545
O36 P8 1.548840 1_555
O37 P9 1.548840 1_555
O38 P9 1.540788 1_555
O39 P8 1.540788 1_555
O40 P10 1.543942 1_555
O41 P11 1.543942 1_555
O42 P10 1.571782 1_555
O43 P11 1.571782 1_555
O44 P10 1.549910 1_555
O45 P11 1.549910 1_555
O46 P10 1.542803 1_555
O47 P11 1.542803 1_555
O50 O56 2.042181 1_565
O51 O57 2.042181 1_545
