# generated using pymatgen
data_Yb5Sb3
_symmetry_space_group_name_H-M   'P 1'
_cell_length_a   8.26793900
_cell_length_b   9.57970800
_cell_length_c   12.51976100
_cell_angle_alpha   90.00000000
_cell_angle_beta   90.00000000
_cell_angle_gamma   90.00000000
_symmetry_Int_Tables_number   1
_chemical_formula_structural   Yb5Sb3
_chemical_formula_sum   'Yb20 Sb12'
_cell_volume   991.62067624
_cell_formula_units_Z   4
loop_
 _symmetry_equiv_pos_site_id
 _symmetry_equiv_pos_as_xyz
  1  'x, y, z'
loop_
 _atom_site_type_symbol
 _atom_site_label
 _atom_site_symmetry_multiplicity
 _atom_site_fract_x
 _atom_site_fract_y
 _atom_site_fract_z
 _atom_site_occupancy
  Yb  Yb0  1  0.46408400  0.75000000  0.00419500  1
  Yb  Yb1  1  0.96408400  0.25000000  0.49580500  1
  Yb  Yb2  1  0.53591600  0.25000000  0.99580500  1
  Yb  Yb3  1  0.03591600  0.75000000  0.50419500  1
  Yb  Yb4  1  0.65452600  0.75000000  0.29187100  1
  Yb  Yb5  1  0.15452600  0.25000000  0.20812900  1
  Yb  Yb6  1  0.34547400  0.25000000  0.70812900  1
  Yb  Yb7  1  0.84547400  0.75000000  0.79187100  1
  Yb  Yb8  1  0.31737700  0.75000000  0.72889100  1
  Yb  Yb9  1  0.81737700  0.25000000  0.77110900  1
  Yb  Yb10  1  0.68262300  0.25000000  0.27110900  1
  Yb  Yb11  1  0.18262300  0.75000000  0.22889100  1
  Yb  Yb12  1  0.30569100  0.45785800  0.42324600  1
  Yb  Yb13  1  0.80569100  0.54214200  0.07675400  1
  Yb  Yb14  1  0.69430900  0.95785800  0.57675400  1
  Yb  Yb15  1  0.19430900  0.04214200  0.92324600  1
  Yb  Yb16  1  0.69430900  0.54214200  0.57675400  1
  Yb  Yb17  1  0.19430900  0.45785800  0.92324600  1
  Yb  Yb18  1  0.30569100  0.04214200  0.42324600  1
  Yb  Yb19  1  0.80569100  0.95785800  0.07675400  1
  Sb  Sb0  1  0.43705700  0.01159300  0.17133700  1
  Sb  Sb1  1  0.93705700  0.98840700  0.32866300  1
  Sb  Sb2  1  0.56294300  0.51159300  0.82866300  1
  Sb  Sb3  1  0.06294300  0.48840700  0.67133700  1
  Sb  Sb4  1  0.56294300  0.98840700  0.82866300  1
  Sb  Sb5  1  0.06294300  0.01159300  0.67133700  1
  Sb  Sb6  1  0.43705700  0.48840700  0.17133700  1
  Sb  Sb7  1  0.93705700  0.51159300  0.32866300  1
  Sb  Sb8  1  0.07786100  0.75000000  0.98405000  1
  Sb  Sb9  1  0.57786100  0.25000000  0.51595000  1
  Sb  Sb10  1  0.92213900  0.25000000  0.01595000  1
  Sb  Sb11  1  0.42213900  0.75000000  0.48405000  1
loop_
_geom_bond_atom_site_label_1
_geom_bond_atom_site_label_2
_geom_bond_distance
_geom_bond_site_symmetry_2
Sb0 Yb0 3.272426 1_545
Sb0 Yb2 3.273174 1_554
Sb0 Yb5 3.299226 1_555
Sb0 Yb10 3.301300 1_555
Sb0 Yb19 3.310069 1_545
Sb0 Yb18 3.348436 1_555
Sb0 Yb11 3.350297 1_545
Sb0 Yb4 3.433670 1_545
Sb0 Yb15 3.709620 1_554
Sb1 Yb1 3.272426 1_565
Sb1 Yb3 3.273174 1_655
Sb1 Yb4 3.299226 1_555
Sb1 Yb11 3.301300 1_655
Sb1 Yb18 3.310069 1_665
Sb1 Yb19 3.348436 1_555
Sb1 Yb10 3.350297 1_565
Sb1 Yb5 3.433670 1_665
Sb1 Yb14 3.709620 1_555
Sb2 Yb2 3.272426 1_555
Sb2 Yb0 3.273174 1_556
Sb2 Yb7 3.299226 1_555
Sb2 Yb8 3.301300 1_555
Sb2 Yb17 3.310069 1_555
Sb2 Yb16 3.348436 1_555
Sb2 Yb9 3.350297 1_555
Sb2 Yb6 3.433670 1_555
Sb2 Yb13 3.709620 1_556
Sb3 Yb3 3.272426 1_555
Sb3 Yb1 3.273174 1_455
Sb3 Yb6 3.299226 1_555
Sb3 Yb9 3.301300 1_455
Sb3 Yb16 3.310069 1_455
Sb3 Yb17 3.348436 1_555
Sb3 Yb8 3.350297 1_555
Sb3 Yb7 3.433670 1_455
Sb3 Yb12 3.709620 1_555
Sb4 Yb2 3.272426 1_565
Sb4 Yb0 3.273174 1_556
Sb4 Yb7 3.299226 1_555
Sb4 Yb8 3.301300 1_555
Sb4 Yb15 3.310069 1_565
Sb4 Yb14 3.348436 1_555
Sb4 Yb9 3.350297 1_565
Sb4 Yb6 3.433670 1_565
Sb4 Yb19 3.709620 1_556
Sb5 Yb3 3.272426 1_545
Sb5 Yb1 3.273174 1_455
Sb5 Yb6 3.299226 1_555
Sb5 Yb9 3.301300 1_455
Sb5 Yb14 3.310069 1_445
Sb5 Yb15 3.348436 1_555
Sb5 Yb8 3.350297 1_545
Sb5 Yb7 3.433670 1_445
Sb5 Yb18 3.709620 1_555
Sb6 Yb0 3.272426 1_555
Sb6 Yb2 3.273174 1_554
Sb6 Yb5 3.299226 1_555
Sb6 Yb10 3.301300 1_555
Sb6 Yb13 3.310069 1_555
Sb6 Yb12 3.348436 1_555
Sb6 Yb11 3.350297 1_555
Sb6 Yb4 3.433670 1_555
Sb6 Yb17 3.709620 1_554
Sb7 Yb1 3.272426 1_555
Sb7 Yb3 3.273174 1_655
Sb7 Yb4 3.299226 1_555
Sb7 Yb11 3.301300 1_655
Sb7 Yb12 3.310069 1_655
Sb7 Yb13 3.348436 1_555
Sb7 Yb10 3.350297 1_555
Sb7 Yb5 3.433670 1_655
Sb7 Yb16 3.709620 1_555
Sb8 Yb15 3.055948 1_565
Sb8 Yb17 3.055948 1_555
Sb8 Yb7 3.079064 1_455
Sb8 Yb11 3.185376 1_556
Sb8 Yb0 3.203213 1_556
Sb8 Yb19 3.221149 1_456
Sb8 Yb13 3.221149 1_456
Sb8 Yb8 3.758540 1_555
Sb9 Yb16 3.055948 1_555
Sb9 Yb14 3.055948 1_545
Sb9 Yb6 3.079064 1_555
Sb9 Yb10 3.185376 1_555
Sb9 Yb1 3.203213 1_555
Sb9 Yb12 3.221149 1_555
Sb9 Yb18 3.221149 1_555
Sb9 Yb9 3.758540 1_555
Sb10 Yb13 3.055948 1_555
Sb10 Yb19 3.055948 1_545
Sb10 Yb5 3.079064 1_655
Sb10 Yb9 3.185376 1_554
Sb10 Yb2 3.203213 1_554
Sb10 Yb15 3.221149 1_654
Sb10 Yb17 3.221149 1_654
Sb10 Yb10 3.758540 1_555
Sb11 Yb18 3.055948 1_565
Sb11 Yb12 3.055948 1_555
Sb11 Yb4 3.079064 1_555
Sb11 Yb8 3.185376 1_555
Sb11 Yb3 3.203213 1_555
Sb11 Yb16 3.221149 1_555
Sb11 Yb14 3.221149 1_555
Sb11 Yb11 3.758540 1_555
