# generated using pymatgen
data_K3YN6
_symmetry_space_group_name_H-M   'P 1'
_cell_length_a   7.86858616
_cell_length_b   7.86858616
_cell_length_c   7.86858568
_cell_angle_alpha   91.70744981
_cell_angle_beta   91.70744981
_cell_angle_gamma   91.70744515
_symmetry_Int_Tables_number   1
_chemical_formula_structural   K3YN6
_chemical_formula_sum   'K6 Y2 N12'
_cell_volume   486.51858931
_cell_formula_units_Z   2
loop_
 _symmetry_equiv_pos_site_id
 _symmetry_equiv_pos_as_xyz
  1  'x, y, z'
loop_
 _atom_site_type_symbol
 _atom_site_label
 _atom_site_symmetry_multiplicity
 _atom_site_fract_x
 _atom_site_fract_y
 _atom_site_fract_z
 _atom_site_occupancy
  K  K0  1  0.00000000  0.65537400  0.34462600  1
  K  K1  1  0.65537400  0.34462600  0.00000000  1
  K  K2  1  0.34462600  0.00000000  0.65537400  1
  K  K3  1  0.50000000  0.84724300  0.15275700  1
  K  K4  1  0.84724300  0.15275700  0.50000000  1
  K  K5  1  0.15275700  0.50000000  0.84724300  1
  Y  Y0  1  0.74760700  0.74760700  0.74760700  1
  Y  Y1  1  0.25239300  0.25239300  0.25239300  1
  N  N0  1  0.47258500  0.68392700  0.80975800  1
  N  N1  1  0.68392700  0.80975800  0.47258500  1
  N  N2  1  0.80975800  0.47258500  0.68392700  1
  N  N3  1  0.52741500  0.19024200  0.31607300  1
  N  N4  1  0.31607300  0.52741500  0.19024200  1
  N  N5  1  0.19024200  0.31607300  0.52741500  1
  N  N6  1  0.81627000  0.68964600  0.02452300  1
  N  N7  1  0.68964600  0.02452300  0.81627000  1
  N  N8  1  0.02452300  0.81627000  0.68964600  1
  N  N9  1  0.18373000  0.97547700  0.31035400  1
  N  N10  1  0.31035400  0.18373000  0.97547700  1
  N  N11  1  0.97547700  0.31035400  0.18373000  1
loop_
_geom_bond_atom_site_label_1
_geom_bond_atom_site_label_2
_geom_bond_distance
_geom_bond_site_symmetry_2
K0 N6 2.890262 1_455
K0 N9 2.890262 1_555
K0 N8 2.959679 1_555
K0 N11 2.959679 1_455
K0 N1 2.988519 1_455
K0 N4 2.988519 1_555
K1 N11 2.890262 1_555
K1 N7 2.890262 1_554
K1 N6 2.959679 1_555
K1 N10 2.959679 1_554
K1 N3 2.988519 1_555
K1 N2 2.988519 1_554
K2 N10 2.890262 1_555
K2 N8 2.890262 1_545
K2 N9 2.959679 1_545
K2 N7 2.959679 1_555
K2 N5 2.988519 1_555
K2 N0 2.988519 1_545
K3 N1 2.892644 1_555
K3 N4 2.892645 1_555
K3 N0 2.953673 1_554
K3 N3 2.953673 1_565
K3 N6 3.001330 1_555
K3 N9 3.001330 1_555
K3 N10 3.393281 1_564
K3 N7 3.393281 1_564
K4 N2 2.892645 1_555
K4 N3 2.892645 1_555
K4 N5 2.953673 1_655
K4 N1 2.953673 1_545
K4 N11 3.001330 1_555
K4 N7 3.001330 1_555
K4 N8 3.393281 1_645
K4 N9 3.393281 1_645
K5 N5 2.892644 1_555
K5 N0 2.892645 1_555
K5 N4 2.953673 1_556
K5 N2 2.953673 1_455
K5 N10 3.001330 1_555
K5 N8 3.001330 1_555
K5 N6 3.393281 1_456
K5 N11 3.393281 1_456
N0 Y0 2.277351 1_555
N1 Y0 2.277351 1_555
N2 Y0 2.277351 1_555
N3 Y1 2.277351 1_555
N4 Y1 2.277351 1_555
N5 Y1 2.277351 1_555
N6 Y0 2.291598 1_554
N7 Y0 2.291598 1_545
N8 Y0 2.291598 1_455
N9 Y1 2.291598 1_565
N10 Y1 2.291598 1_556
N11 Y1 2.291598 1_655
