# generated using pymatgen
data_Dy2In3Cu
_symmetry_space_group_name_H-M   'P 1'
_cell_length_a   6.76681000
_cell_length_b   10.67117886
_cell_length_c   18.72015110
_cell_angle_alpha   89.96929156
_cell_angle_beta   90.00000000
_cell_angle_gamma   90.00000000
_symmetry_Int_Tables_number   1
_chemical_formula_structural   Dy2In3Cu
_chemical_formula_sum   'Dy16 In24 Cu8'
_cell_volume   1351.77891777
_cell_formula_units_Z   8
loop_
 _symmetry_equiv_pos_site_id
 _symmetry_equiv_pos_as_xyz
  1  'x, y, z'
loop_
 _atom_site_type_symbol
 _atom_site_label
 _atom_site_symmetry_multiplicity
 _atom_site_fract_x
 _atom_site_fract_y
 _atom_site_fract_z
 _atom_site_occupancy
  Dy  Dy0_0  1  0.25000000  0.00001600  0.00798600  1
  Dy  Dy0_1  1  0.25000000  0.00001600  0.50798600  1
  Dy  Dy0_2  1  0.25000000  0.50001600  0.00798600  1
  Dy  Dy0_3  1  0.25000000  0.50001600  0.50798600  1
  Dy  Dy0_4  1  0.75000000  0.00001600  0.00798600  1
  Dy  Dy0_5  1  0.75000000  0.00001600  0.50798600  1
  Dy  Dy0_6  1  0.75000000  0.50001600  0.00798600  1
  Dy  Dy0_7  1  0.75000000  0.50001600  0.50798600  1
  Dy  Dy1_0  1  0.25000000  0.24991900  0.24459300  1
  Dy  Dy1_1  1  0.25000000  0.24991900  0.74459300  1
  Dy  Dy1_2  1  0.25000000  0.74991900  0.24459300  1
  Dy  Dy1_3  1  0.25000000  0.74991900  0.74459300  1
  Dy  Dy1_4  1  0.75000000  0.24991900  0.24459300  1
  Dy  Dy1_5  1  0.75000000  0.24991900  0.74459300  1
  Dy  Dy1_6  1  0.75000000  0.74991900  0.24459300  1
  Dy  Dy1_7  1  0.75000000  0.74991900  0.74459300  1
  In  In0_0  1  0.25000000  0.24993550  0.41503850  1
  In  In0_1  1  0.25000000  0.24993550  0.91503850  1
  In  In0_2  1  0.25000000  0.74993550  0.41503850  1
  In  In0_3  1  0.25000000  0.74993550  0.91503850  1
  In  In0_4  1  0.75000000  0.24993550  0.41503850  1
  In  In0_5  1  0.75000000  0.24993550  0.91503850  1
  In  In0_6  1  0.75000000  0.74993550  0.41503850  1
  In  In0_7  1  0.75000000  0.74993550  0.91503850  1
  In  In1_0  1  0.25000000  0.24993200  0.08682600  1
  In  In1_1  1  0.25000000  0.24993200  0.58682600  1
  In  In1_2  1  0.25000000  0.74993200  0.08682600  1
  In  In1_3  1  0.25000000  0.74993200  0.58682600  1
  In  In1_4  1  0.75000000  0.24993200  0.08682600  1
  In  In1_5  1  0.75000000  0.24993200  0.58682600  1
  In  In1_6  1  0.75000000  0.74993200  0.08682600  1
  In  In1_7  1  0.75000000  0.74993200  0.58682600  1
  In  In2_0  1  0.25000000  0.49996950  0.32932950  1
  In  In2_1  1  0.25000000  0.49996950  0.82932950  1
  In  In2_2  1  0.25000000  0.99996950  0.32932950  1
  In  In2_3  1  0.25000000  0.99996950  0.82932950  1
  In  In2_4  1  0.75000000  0.49996950  0.32932950  1
  In  In2_5  1  0.75000000  0.49996950  0.82932950  1
  In  In2_6  1  0.75000000  0.99996950  0.32932950  1
  In  In2_7  1  0.75000000  0.99996950  0.82932950  1
  Cu  Cu0_0  1  0.25000000  0.00012800  0.16622700  1
  Cu  Cu0_1  1  0.25000000  0.00012800  0.66622700  1
  Cu  Cu0_2  1  0.25000000  0.50012800  0.16622700  1
  Cu  Cu0_3  1  0.25000000  0.50012800  0.66622700  1
  Cu  Cu0_4  1  0.75000000  0.00012800  0.16622700  1
  Cu  Cu0_5  1  0.75000000  0.00012800  0.66622700  1
  Cu  Cu0_6  1  0.75000000  0.50012800  0.16622700  1
  Cu  Cu0_7  1  0.75000000  0.50012800  0.66622700  1
loop_
_geom_bond_atom_site_label_1
_geom_bond_atom_site_label_2
_geom_bond_distance
_geom_bond_site_symmetry_2
Dy0_0 In1_0 3.048744 1_555
Dy0_0 In1_2 3.048928 1_545
Dy0_0 In0_1 3.183574 1_554
Dy0_0 In0_3 3.186575 1_544
Dy0_0 In2_3 3.344477 1_544
Dy0_0 Dy0_4 3.383405 1_455
Dy0_0 Dy0_4 3.383405 1_555
Dy0_1 In1_1 3.048744 1_555
Dy0_1 In1_3 3.048928 1_545
Dy0_1 In0_0 3.183574 1_555
Dy0_1 In0_2 3.186575 1_545
Dy0_1 In2_2 3.344477 1_545
Dy0_1 Dy0_5 3.383405 1_455
Dy0_1 Dy0_5 3.383405 1_555
Dy0_2 In1_2 3.048744 1_555
Dy0_2 In1_0 3.048928 1_555
Dy0_2 In0_3 3.183574 1_554
Dy0_2 In0_1 3.186575 1_554
Dy0_2 In2_1 3.344477 1_554
Dy0_2 Dy0_6 3.383405 1_455
Dy0_2 Dy0_6 3.383405 1_555
Dy0_3 In1_3 3.048744 1_555
Dy0_3 In1_1 3.048928 1_555
Dy0_3 In0_2 3.183574 1_555
Dy0_3 In0_0 3.186575 1_555
Dy0_3 In2_0 3.344477 1_555
Dy0_3 Dy0_7 3.383405 1_555
Dy0_3 Dy0_7 3.383405 1_455
Dy0_4 In1_4 3.048744 1_555
Dy0_4 In1_6 3.048928 1_545
Dy0_4 In0_5 3.183574 1_554
Dy0_4 In0_7 3.186575 1_544
Dy0_4 In2_7 3.344477 1_544
Dy0_5 In1_5 3.048744 1_555
Dy0_5 In1_7 3.048928 1_545
Dy0_5 In0_4 3.183574 1_555
Dy0_5 In0_6 3.186575 1_545
Dy0_5 In2_6 3.344477 1_545
Dy0_6 In1_6 3.048744 1_555
Dy0_6 In1_4 3.048928 1_555
Dy0_6 In0_7 3.183574 1_554
Dy0_6 In0_5 3.186575 1_554
Dy0_6 In2_5 3.344477 1_554
Dy0_7 In1_7 3.048744 1_555
Dy0_7 In1_5 3.048928 1_555
Dy0_7 In0_6 3.183574 1_555
Dy0_7 In0_4 3.186575 1_555
Dy0_7 In2_4 3.344477 1_555
Dy1_0 In1_0 2.953422 1_555
Dy1_0 In2_2 3.102580 1_545
Dy1_0 In2_0 3.104968 1_555
Dy1_0 In0_0 3.190766 1_555
Dy1_0 Dy1_4 3.383405 1_555
Dy1_0 Dy1_4 3.383405 1_455
Dy1_1 In1_1 2.953422 1_555
Dy1_1 In2_3 3.102580 1_545
Dy1_1 In2_1 3.104968 1_555
Dy1_1 In0_1 3.190766 1_555
Dy1_1 Dy1_5 3.383405 1_555
Dy1_1 Dy1_5 3.383405 1_455
Dy1_2 In1_2 2.953422 1_555
Dy1_2 In2_0 3.102580 1_555
Dy1_2 In2_2 3.104968 1_555
Dy1_2 In0_2 3.190766 1_555
Dy1_2 Dy1_6 3.383405 1_555
Dy1_2 Dy1_6 3.383405 1_455
Dy1_3 In1_3 2.953422 1_555
Dy1_3 In2_1 3.102580 1_555
Dy1_3 In2_3 3.104968 1_555
Dy1_3 In0_3 3.190766 1_555
Dy1_3 Dy1_7 3.383405 1_455
Dy1_3 Dy1_7 3.383405 1_555
Dy1_4 In1_4 2.953422 1_555
Dy1_4 In2_6 3.102580 1_545
Dy1_4 In2_4 3.104968 1_555
Dy1_4 In0_4 3.190766 1_555
Dy1_5 In1_5 2.953422 1_555
Dy1_5 In2_7 3.102580 1_545
Dy1_5 In2_5 3.104968 1_555
Dy1_5 In0_5 3.190766 1_555
Dy1_6 In1_6 2.953422 1_555
Dy1_6 In2_4 3.102580 1_555
Dy1_6 In2_6 3.104968 1_555
Dy1_6 In0_6 3.190766 1_555
Dy1_7 In1_7 2.953422 1_555
Dy1_7 In2_5 3.102580 1_555
Dy1_7 In2_7 3.104968 1_555
Dy1_7 In0_7 3.190766 1_555
In0_0 In2_0 3.112692 1_555
In0_0 In2_2 3.113544 1_545
In0_0 In1_1 3.215888 1_555
In0_0 In0_4 3.383405 1_555
In0_0 In0_4 3.383405 1_455
In0_1 In2_1 3.112692 1_555
In0_1 In2_3 3.113544 1_545
In0_1 In1_0 3.215888 1_556
In0_1 In0_5 3.383405 1_555
In0_1 In0_5 3.383405 1_455
In0_2 In2_2 3.112692 1_555
In0_2 In2_0 3.113544 1_555
In0_2 In1_3 3.215888 1_555
In0_2 In0_6 3.383405 1_455
In0_2 In0_6 3.383405 1_555
In0_3 In2_3 3.112692 1_555
In0_3 In2_1 3.113544 1_555
In0_3 In1_2 3.215888 1_556
In0_3 In0_7 3.383405 1_555
In0_3 In0_7 3.383405 1_455
In0_4 In2_4 3.112692 1_555
In0_4 In2_6 3.113544 1_545
In0_4 In1_5 3.215888 1_555
In0_5 In2_5 3.112692 1_555
In0_5 In2_7 3.113544 1_545
In0_5 In1_4 3.215888 1_556
In0_6 In2_6 3.112692 1_555
In0_6 In2_4 3.113544 1_555
In0_6 In1_7 3.215888 1_555
In0_7 In2_7 3.112692 1_555
In0_7 In2_5 3.113544 1_555
In0_7 In1_6 3.215888 1_556
In1_0 In1_4 3.383405 1_555
In1_0 In1_4 3.383405 1_455
In1_1 In1_5 3.383405 1_455
In1_1 In1_5 3.383405 1_555
In1_2 In1_6 3.383405 1_555
In1_2 In1_6 3.383405 1_455
In1_3 In1_7 3.383405 1_455
In1_3 In1_7 3.383405 1_555
In2_0 In2_4 3.383405 1_455
In2_0 In2_4 3.383405 1_555
In2_1 In2_5 3.383405 1_455
In2_1 In2_5 3.383405 1_555
In2_2 In2_6 3.383405 1_455
In2_2 In2_6 3.383405 1_555
In2_3 In2_7 3.383405 1_555
In2_3 In2_7 3.383405 1_455
Cu0_0 Dy0_0 2.962296 1_555
Cu0_0 Dy1_0 3.043285 1_555
Cu0_0 Dy1_2 3.045816 1_545
Cu0_0 In1_0 3.051411 1_555
Cu0_0 In2_2 3.053303 1_545
Cu0_0 In1_2 3.056457 1_545
Cu0_1 Dy0_1 2.962296 1_555
Cu0_1 Dy1_1 3.043285 1_555
Cu0_1 Dy1_3 3.045816 1_545
Cu0_1 In1_1 3.051411 1_555
Cu0_1 In2_3 3.053303 1_545
Cu0_1 In1_3 3.056457 1_545
Cu0_2 Dy0_2 2.962296 1_555
Cu0_2 Dy1_2 3.043285 1_555
Cu0_2 Dy1_0 3.045816 1_555
Cu0_2 In1_2 3.051411 1_555
Cu0_2 In2_0 3.053303 1_555
Cu0_2 In1_0 3.056457 1_555
Cu0_3 Dy0_3 2.962296 1_555
Cu0_3 Dy1_3 3.043285 1_555
Cu0_3 Dy1_1 3.045816 1_555
Cu0_3 In1_3 3.051411 1_555
Cu0_3 In2_1 3.053303 1_555
Cu0_3 In1_1 3.056457 1_555
Cu0_4 Dy0_4 2.962296 1_555
Cu0_4 Dy1_4 3.043285 1_555
Cu0_4 Dy1_6 3.045816 1_545
Cu0_4 In1_4 3.051411 1_555
Cu0_4 In2_6 3.053303 1_545
Cu0_4 In1_6 3.056457 1_545
Cu0_5 Dy0_5 2.962296 1_555
Cu0_5 Dy1_5 3.043285 1_555
Cu0_5 Dy1_7 3.045816 1_545
Cu0_5 In1_5 3.051411 1_555
Cu0_5 In2_7 3.053303 1_545
Cu0_5 In1_7 3.056457 1_545
Cu0_6 Dy0_6 2.962296 1_555
Cu0_6 Dy1_6 3.043285 1_555
Cu0_6 Dy1_4 3.045816 1_555
Cu0_6 In1_6 3.051411 1_555
Cu0_6 In2_4 3.053303 1_555
Cu0_6 In1_4 3.056457 1_555
Cu0_7 Dy0_7 2.962296 1_555
Cu0_7 Dy1_7 3.043285 1_555
Cu0_7 Dy1_5 3.045816 1_555
Cu0_7 In1_7 3.051411 1_555
Cu0_7 In2_5 3.053303 1_555
Cu0_7 In1_5 3.056457 1_555
