# generated using pymatgen
data_PtS(NO)4
_symmetry_space_group_name_H-M   'P 1'
_cell_length_a   7.08534900
_cell_length_b   7.08534900
_cell_length_c   8.88511246
_cell_angle_alpha   113.49819762
_cell_angle_beta   113.49819762
_cell_angle_gamma   90.00000000
_symmetry_Int_Tables_number   1
_chemical_formula_structural   PtS(NO)4
_chemical_formula_sum   'Pt2 S2 N8 O8'
_cell_volume   368.37634786
_cell_formula_units_Z   2
loop_
 _symmetry_equiv_pos_site_id
 _symmetry_equiv_pos_as_xyz
  1  'x, y, z'
loop_
 _atom_site_type_symbol
 _atom_site_label
 _atom_site_symmetry_multiplicity
 _atom_site_fract_x
 _atom_site_fract_y
 _atom_site_fract_z
 _atom_site_occupancy
  Pt  Pt0  1  0.25000000  0.75000000  0.50000000  1
  Pt  Pt1  1  0.00000000  0.00000000  0.00000000  1
  S  S0  1  0.75000000  0.25000000  0.50000000  1
  S  S1  1  0.50000000  0.50000000  0.00000000  1
  N  N0  1  0.43573200  0.56426800  0.50000000  1
  N  N1  1  0.06426800  0.93573200  0.50000000  1
  N  N2  1  0.18573200  0.81426800  0.00000000  1
  N  N3  1  0.81426800  0.18573200  0.00000000  1
  N  N4  1  0.06426800  0.56426800  0.50000000  1
  N  N5  1  0.43573200  0.93573200  0.50000000  1
  N  N6  1  0.81426800  0.81426800  0.00000000  1
  N  N7  1  0.18573200  0.18573200  0.00000000  1
  O  O0  1  0.85777400  0.18898900  0.37797800  1
  O  O1  1  0.52020300  0.18898900  0.37797800  1
  O  O2  1  0.72979700  0.56101100  0.12202200  1
  O  O3  1  0.39222600  0.56101100  0.12202200  1
  O  O4  1  0.81101100  0.14222600  0.62202200  1
  O  O5  1  0.81101100  0.47979700  0.62202200  1
  O  O6  1  0.43898900  0.27020300  0.87797800  1
  O  O7  1  0.43898900  0.60777400  0.87797800  1
loop_
_geom_bond_atom_site_label_1
_geom_bond_atom_site_label_2
_geom_bond_distance
_geom_bond_site_symmetry_2
N0 Pt0 1.861071 1_555
N1 Pt0 1.861071 1_555
N2 Pt1 1.861071 1_565
N3 Pt1 1.861071 1_655
N4 Pt0 1.861071 1_555
N5 Pt0 1.861071 1_555
N6 Pt1 1.861071 1_665
N7 Pt1 1.861071 1_555
O0 S0 1.493949 1_555
O1 S0 1.493955 1_555
O2 S1 1.493955 1_555
O3 S1 1.493949 1_555
O4 S0 1.493949 1_555
O5 S0 1.493955 1_555
O6 S1 1.493955 1_556
O7 S1 1.493949 1_556
