# generated using pymatgen
data_Ca3Nb3N5
_symmetry_space_group_name_H-M   'P 1'
_cell_length_a   6.03487687
_cell_length_b   7.44502471
_cell_length_c   8.46260425
_cell_angle_alpha   106.73505720
_cell_angle_beta   103.91453795
_cell_angle_gamma   99.88899953
_symmetry_Int_Tables_number   1
_chemical_formula_structural   Ca3Nb3N5
_chemical_formula_sum   'Ca6 Nb6 N10'
_cell_volume   341.35073294
_cell_formula_units_Z   2
loop_
 _symmetry_equiv_pos_site_id
 _symmetry_equiv_pos_as_xyz
  1  'x, y, z'
loop_
 _atom_site_type_symbol
 _atom_site_label
 _atom_site_symmetry_multiplicity
 _atom_site_fract_x
 _atom_site_fract_y
 _atom_site_fract_z
 _atom_site_occupancy
  Ca  Ca0  1  0.80041100  0.45828500  0.61333800  1
  Ca  Ca1  1  0.19958900  0.54171500  0.38666200  1
  Ca  Ca2  1  0.68545200  0.85031000  0.89128200  1
  Ca  Ca3  1  0.31454800  0.14969000  0.10871800  1
  Ca  Ca4  1  0.66463600  0.63034100  0.20039100  1
  Ca  Ca5  1  0.33536400  0.36965900  0.79960900  1
  Nb  Nb0  1  0.88209700  0.30477600  0.94791400  1
  Nb  Nb1  1  0.11790300  0.69522400  0.05208600  1
  Nb  Nb2  1  0.74288800  0.98788400  0.56846700  1
  Nb  Nb3  1  0.25711200  0.01211600  0.43153300  1
  Nb  Nb4  1  0.17194000  0.87848900  0.70173000  1
  Nb  Nb5  1  0.82806000  0.12151100  0.29827000  1
  N  N0  1  0.01168500  0.08171800  0.81866100  1
  N  N1  1  0.98831500  0.91828200  0.18133900  1
  N  N2  1  0.89262800  0.72480600  0.50138500  1
  N  N3  1  0.10737200  0.27519400  0.49861500  1
  N  N4  1  0.75726100  0.54085200  0.89689500  1
  N  N5  1  0.24273900  0.45914800  0.10310500  1
  N  N6  1  0.44298200  0.85148200  0.59437300  1
  N  N7  1  0.55701800  0.14851800  0.40562700  1
  N  N8  1  0.28716900  0.76826800  0.90093500  1
  N  N9  1  0.71283100  0.23173200  0.09906500  1
loop_
_geom_bond_atom_site_label_1
_geom_bond_atom_site_label_2
_geom_bond_distance
_geom_bond_site_symmetry_2
Ca0 N4 2.389547 1_555
Ca0 N7 2.413729 1_555
Ca0 N2 2.470119 1_555
Ca0 N3 2.683744 1_655
Ca1 N5 2.389547 1_555
Ca1 N6 2.413729 1_555
Ca1 N3 2.470119 1_555
Ca1 N2 2.683744 1_455
Ca2 N8 2.403309 1_555
Ca2 N4 2.427793 1_555
Ca2 N1 2.535975 1_556
Ca2 N6 2.589065 1_555
Ca2 N0 2.692316 1_665
Ca2 N9 2.829595 1_566
Ca3 N9 2.403309 1_555
Ca3 N5 2.427793 1_555
Ca3 N0 2.535975 1_554
Ca3 N7 2.589065 1_555
Ca3 N1 2.692316 1_445
Ca3 N8 2.829595 1_544
Ca4 N2 2.413774 1_555
Ca4 N5 2.461257 1_555
Ca4 N4 2.680635 1_554
Ca4 N1 2.710976 1_555
Ca4 N9 2.928785 1_555
Ca5 N3 2.413774 1_555
Ca5 N4 2.461257 1_555
Ca5 N5 2.680635 1_556
Ca5 N0 2.710976 1_555
Ca5 N8 2.928785 1_555
N0 Nb4 2.074719 1_545
N0 Nb0 2.092193 1_455
N0 Nb2 2.170124 1_445
N1 Nb5 2.074719 1_565
N1 Nb1 2.092193 1_655
N1 Nb3 2.170124 1_665
N2 Nb4 1.967448 1_655
N2 Nb2 2.278028 1_555
N3 Nb5 1.967448 1_455
N3 Nb3 2.278028 1_555
N4 Nb0 2.139741 1_555
N4 Nb1 2.163194 1_656
N5 Nb1 2.139741 1_555
N5 Nb0 2.163194 1_454
N6 Nb2 2.010671 1_555
N6 Nb4 2.064911 1_555
N6 Nb3 2.292140 1_565
N7 Nb3 2.010671 1_555
N7 Nb5 2.064911 1_555
N7 Nb2 2.292140 1_545
N8 Nb1 1.952841 1_556
N8 Nb4 2.104212 1_555
N9 Nb0 1.952841 1_554
N9 Nb5 2.104212 1_555
