# generated using pymatgen
data_Li9Mn2Co5O16
_symmetry_space_group_name_H-M   'P 1'
_cell_length_a   9.83702173
_cell_length_b   9.83702173
_cell_length_c   10.32810361
_cell_angle_alpha   83.90161226
_cell_angle_beta   83.90161226
_cell_angle_gamma   16.88403419
_symmetry_Int_Tables_number   1
_chemical_formula_structural   Li9Mn2Co5O16
_chemical_formula_sum   'Li9 Mn2 Co5 O16'
_cell_volume   288.58805351
_cell_formula_units_Z   1
loop_
 _symmetry_equiv_pos_site_id
 _symmetry_equiv_pos_as_xyz
  1  'x, y, z'
loop_
 _atom_site_type_symbol
 _atom_site_label
 _atom_site_symmetry_multiplicity
 _atom_site_fract_x
 _atom_site_fract_y
 _atom_site_fract_z
 _atom_site_occupancy
  Li  Li0  1  0.36748600  0.36748600  0.92910100  1
  Li  Li1  1  0.12828300  0.12828300  0.80696200  1
  Li  Li2  1  0.87327300  0.87327300  0.68980600  1
  Li  Li3  1  0.63067500  0.63067500  0.56346800  1
  Li  Li4  1  0.37268800  0.37268800  0.44328700  1
  Li  Li5  1  0.12798400  0.12798400  0.31272200  1
  Li  Li6  1  0.86952400  0.86952400  0.18433200  1
  Li  Li7  1  0.62936400  0.62936400  0.06716300  1
  Li  Li8  1  0.75190400  0.75190400  0.87667000  1
  Mn  Mn0  1  0.00048700  0.00048700  0.99483100  1
  Mn  Mn1  1  0.49891000  0.49891000  0.25420500  1
  Co  Co0  1  0.50006300  0.50006300  0.74589100  1
  Co  Co1  1  0.25459500  0.25459500  0.64319300  1
  Co  Co2  1  0.00057700  0.00057700  0.50402600  1
  Co  Co3  1  0.74697900  0.74697900  0.37615400  1
  Co  Co4  1  0.24920800  0.24920800  0.11659700  1
  O  O0  1  0.44448800  0.44448800  0.08472100  1
  O  O1  1  0.19459900  0.19459900  0.99327000  1
  O  O2  1  0.94467200  0.94467200  0.82998900  1
  O  O3  1  0.69164000  0.69164000  0.71211700  1
  O  O4  1  0.44481600  0.44481600  0.58273600  1
  O  O5  1  0.19072200  0.19072200  0.46040900  1
  O  O6  1  0.94065700  0.94065700  0.33375700  1
  O  O7  1  0.69283600  0.69283600  0.21681900  1
  O  O8  1  0.31173400  0.31173400  0.76939300  1
  O  O9  1  0.05599800  0.05599800  0.66613400  1
  O  O10  1  0.80537100  0.80537100  0.52785700  1
  O  O11  1  0.55434500  0.55434500  0.41591800  1
  O  O12  1  0.30185500  0.30185500  0.27120800  1
  O  O13  1  0.05605200  0.05605200  0.17128500  1
  O  O14  1  0.80859800  0.80859800  0.04014700  1
  O  O15  1  0.55961600  0.55961600  0.91583400  1
loop_
_geom_bond_atom_site_label_1
_geom_bond_atom_site_label_2
_geom_bond_distance
_geom_bond_site_symmetry_2
Li0 O8 2.069394 1_555
Li0 O14 2.105227 1_546
Li0 O14 2.105227 1_456
Li0 O2 2.249328 1_455
Li0 O2 2.249328 1_545
Li0 O0 2.312188 1_556
Li1 O3 2.075081 1_545
Li1 O3 2.075081 1_455
Li1 O9 2.129298 1_555
Li1 O15 2.193844 1_455
Li1 O15 2.193844 1_545
Li1 O1 2.429312 1_555
Li2 O8 1.996008 1_655
Li2 O8 1.996008 1_565
Li2 O2 2.111632 1_555
Li2 O4 2.217253 1_655
Li2 O4 2.217253 1_565
Li2 O10 2.240229 1_555
Li3 O3 2.038604 1_555
Li3 O5 2.077721 1_565
Li3 O5 2.077721 1_655
Li3 O9 2.234042 1_655
Li3 O9 2.234042 1_565
Li3 O11 2.239443 1_555
Li4 O10 2.078206 1_545
Li4 O10 2.078206 1_455
Li4 O4 2.116329 1_555
Li4 O6 2.189409 1_545
Li4 O6 2.189409 1_455
Li4 O12 2.363268 1_555
Li5 O5 2.053615 1_555
Li5 O7 2.095470 1_545
Li5 O7 2.095470 1_455
Li5 O13 2.129017 1_555
Li5 O11 2.224229 1_545
Li5 O11 2.224229 1_455
Li6 O14 2.000668 1_555
Li6 O12 2.090715 1_565
Li6 O12 2.090715 1_655
Li6 O6 2.181034 1_555
Li6 O0 2.224839 1_655
Li6 O0 2.224839 1_565
Li7 O1 2.017826 1_654
Li7 O1 2.017826 1_564
Li7 O7 2.079650 1_555
Li7 O15 2.177360 1_554
Li7 O13 2.224410 1_565
Li7 O13 2.224410 1_655
Li8 O8 2.095657 1_565
Li8 O8 2.095657 1_655
Li8 O14 2.113803 1_556
Li8 O1 2.119206 1_655
Li8 O1 2.119206 1_565
Li8 O3 2.166089 1_555
Mn0 O15 1.968177 1_455
Mn0 O15 1.968177 1_545
Mn0 O0 1.979349 1_456
Mn0 O0 1.979349 1_546
Mn0 O2 2.115561 1_445
Mn0 O13 2.216726 1_556
Mn1 O6 1.961059 1_545
Mn1 O6 1.961059 1_455
Mn1 O13 1.962416 1_565
Mn1 O13 1.962416 1_655
Mn1 O11 2.083362 1_555
Mn1 O0 2.141023 1_555
Co0 O9 1.938159 1_655
Co0 O9 1.938159 1_565
Co0 O2 1.949587 1_545
Co0 O2 1.949587 1_455
Co0 O4 2.093947 1_555
Co0 O15 2.204723 1_555
Co1 O8 1.801854 1_555
Co1 O3 1.976363 1_545
Co1 O3 1.976363 1_455
Co1 O10 2.056247 1_455
Co1 O10 2.056247 1_545
Co1 O5 2.369175 1_555
Co2 O4 1.932491 1_455
Co2 O4 1.932491 1_545
Co2 O11 1.950394 1_455
Co2 O11 1.950394 1_545
Co2 O9 2.086697 1_555
Co2 O6 2.211962 1_445
Co3 O5 1.958775 1_655
Co3 O5 1.958775 1_565
Co3 O10 2.031903 1_555
Co3 O12 2.037711 1_655
Co3 O12 2.037711 1_565
Co3 O7 2.047136 1_555
Co4 O1 1.744298 1_554
Co4 O14 1.961847 1_545
Co4 O14 1.961847 1_455
Co4 O12 1.987720 1_555
Co4 O7 2.028948 1_545
Co4 O7 2.028948 1_455
