# generated using pymatgen
data_Y(PO3)3
_symmetry_space_group_name_H-M   'P 1'
_cell_length_a   7.85510883
_cell_length_b   7.85510883
_cell_length_c   10.04119909
_cell_angle_alpha   56.61780023
_cell_angle_beta   56.61780023
_cell_angle_gamma   50.75445679
_symmetry_Int_Tables_number   1
_chemical_formula_structural   Y(PO3)3
_chemical_formula_sum   'Y2 P6 O18'
_cell_volume   380.58489493
_cell_formula_units_Z   2
loop_
 _symmetry_equiv_pos_site_id
 _symmetry_equiv_pos_as_xyz
  1  'x, y, z'
loop_
 _atom_site_type_symbol
 _atom_site_label
 _atom_site_symmetry_multiplicity
 _atom_site_fract_x
 _atom_site_fract_y
 _atom_site_fract_z
 _atom_site_occupancy
  Y  Y0  1  0.68118684  0.21474164  0.25396258  1
  Y  Y1  1  0.21474164  0.68118684  0.75396258  1
  P  P0  1  0.39950128  0.18980489  0.09124307  1
  P  P1  1  0.18980489  0.39950128  0.59124307  1
  P  P2  1  0.62362979  0.78697540  0.98018709  1
  P  P3  1  0.78697540  0.62362979  0.48018709  1
  P  P4  1  0.18777729  0.01129290  0.91944662  1
  P  P5  1  0.01129290  0.18777729  0.41944662  1
  O  O0  1  0.57835436  0.95138648  0.05363424  1
  O  O1  1  0.95138648  0.57835436  0.55363424  1
  O  O2  1  0.44535394  0.94874344  0.87732412  1
  O  O3  1  0.94874344  0.44535394  0.37732412  1
  O  O4  1  0.10726597  0.24639074  0.77538231  1
  O  O5  1  0.24639074  0.10726597  0.27538231  1
  O  O6  1  0.52732809  0.26542183  0.09565348  1
  O  O7  1  0.26542183  0.52732809  0.59565348  1
  O  O8  1  0.26142152  0.35523507  0.97314811  1
  O  O9  1  0.35523507  0.26142152  0.47314811  1
  O  O10  1  0.57358147  0.59604763  0.12176135  1
  O  O11  1  0.59604763  0.57358147  0.62176135  1
  O  O12  1  0.85787882  0.72665494  0.85645885  1
  O  O13  1  0.72665494  0.85787882  0.35645885  1
  O  O14  1  0.04024239  0.06267069  0.08117215  1
  O  O15  1  0.06267069  0.04024239  0.58117215  1
  O  O16  1  0.19478571  0.83412388  0.89812704  1
  O  O17  1  0.83412388  0.19478571  0.39812704  1
loop_
_geom_bond_atom_site_label_1
_geom_bond_atom_site_label_2
_geom_bond_distance
_geom_bond_site_symmetry_2
O0 P0 1.577683 1_565
O0 P2 1.586383 1_554
O1 P1 1.577683 1_655
O1 P3 1.586383 1_555
O2 P2 1.593238 1_555
O2 P4 1.594722 1_565
O3 P3 1.593238 1_555
O3 P5 1.594722 1_655
O4 P4 1.578660 1_555
O4 P1 1.582998 1_555
O5 P5 1.578660 1_555
O5 P0 1.582998 1_555
O6 P0 1.481718 1_555
O6 Y0 2.225981 1_555
O7 P1 1.481718 1_555
O7 Y1 2.225981 1_555
O8 P0 1.485766 1_556
O8 Y1 2.243430 1_555
O9 P1 1.485766 1_555
O9 Y0 2.243430 1_555
O10 P2 1.486459 1_554
O10 Y0 2.259172 1_555
O11 P3 1.486459 1_555
O11 Y1 2.259172 1_555
O12 P2 1.477426 1_555
O12 Y1 2.237772 1_655
O13 P3 1.477426 1_555
O13 Y0 2.237772 1_565
O14 P4 1.483735 1_554
O14 Y0 2.241611 1_455
O15 P5 1.483735 1_555
O15 Y1 2.241611 1_545
O16 P4 1.484445 1_565
O16 Y1 2.233609 1_555
O17 P5 1.484445 1_655
O17 Y0 2.233609 1_555
