# generated using pymatgen
data_LiMg14GaO16
_symmetry_space_group_name_H-M   'P 1'
_cell_length_a   8.50092444
_cell_length_b   8.49582612
_cell_length_c   4.24964892
_cell_angle_alpha   90.00000000
_cell_angle_beta   90.00000000
_cell_angle_gamma   90.00000000
_symmetry_Int_Tables_number   1
_chemical_formula_structural   LiMg14GaO16
_chemical_formula_sum   'Li1 Mg14 Ga1 O16'
_cell_volume   306.91974175
_cell_formula_units_Z   1
loop_
 _symmetry_equiv_pos_site_id
 _symmetry_equiv_pos_as_xyz
  1  'x, y, z'
loop_
 _atom_site_type_symbol
 _atom_site_label
 _atom_site_symmetry_multiplicity
 _atom_site_fract_x
 _atom_site_fract_y
 _atom_site_fract_z
 _atom_site_occupancy
  Li  Li0  1  0.00000000  0.00000000  0.00000000  1
  Mg  Mg0  1  0.50000000  0.00000000  0.00000000  1
  Mg  Mg1  1  0.50000000  0.50000000  0.00000000  1
  Mg  Mg2  1  0.00000000  0.24083747  0.50000000  1
  Mg  Mg3  1  0.00000000  0.75916253  0.50000000  1
  Mg  Mg4  1  0.50000000  0.24760538  0.50000000  1
  Mg  Mg5  1  0.50000000  0.75239462  0.50000000  1
  Mg  Mg6  1  0.24455506  0.00000000  0.50000000  1
  Mg  Mg7  1  0.25161494  0.50000000  0.50000000  1
  Mg  Mg8  1  0.75544494  0.00000000  0.50000000  1
  Mg  Mg9  1  0.74838506  0.50000000  0.50000000  1
  Mg  Mg10  1  0.24930467  0.24381522  -0.00000000  1
  Mg  Mg11  1  0.24930467  0.75618478  -0.00000000  1
  Mg  Mg12  1  0.75069533  0.24381522  0.00000000  1
  Mg  Mg13  1  0.75069533  0.75618478  -0.00000000  1
  Ga  Ga0  1  0.00000000  0.50000000  0.00000000  1
  O  O0  1  0.25521829  0.00000000  0.00000000  1
  O  O1  1  0.24334441  0.50000000  0.00000000  1
  O  O2  1  0.74478171  -0.00000000  -0.00000000  1
  O  O3  1  0.75665559  0.50000000  0.00000000  1
  O  O4  1  0.24939215  0.25199189  0.50000000  1
  O  O5  1  0.24939215  0.74800811  0.50000000  1
  O  O6  1  0.75060785  0.25199189  0.50000000  1
  O  O7  1  0.75060785  0.74800811  0.50000000  1
  O  O8  1  0.00000000  0.00000000  0.50000000  1
  O  O9  1  0.00000000  0.50000000  0.50000000  1
  O  O10  1  0.50000000  0.00000000  0.50000000  1
  O  O11  1  0.50000000  0.50000000  0.50000000  1
  O  O12  1  0.00000000  0.26903011  -0.00000000  1
  O  O13  1  0.00000000  0.73096989  0.00000000  1
  O  O14  1  0.50000000  0.25388753  0.00000000  1
  O  O15  1  0.50000000  0.74611247  0.00000000  1
loop_
_geom_bond_atom_site_label_1
_geom_bond_atom_site_label_2
_geom_bond_distance
_geom_bond_site_symmetry_2
Li0 O8 2.124824 1_554
Li0 O8 2.124824 1_555
Li0 O2 2.169591 1_455
Li0 O0 2.169591 1_555
Li0 O13 2.285633 1_545
Li0 O12 2.285633 1_555
Mg0 O0 2.080871 1_555
Mg0 O2 2.080871 1_555
Mg0 O10 2.124824 1_554
Mg0 O10 2.124824 1_555
Mg0 O15 2.156984 1_545
Mg0 O14 2.156984 1_555
Mg1 O14 2.090929 1_555
Mg1 O15 2.090929 1_555
Mg1 O11 2.124824 1_554
Mg1 O11 2.124824 1_555
Mg1 O1 2.181810 1_555
Mg1 O3 2.181810 1_555
Mg2 O8 2.046113 1_555
Mg2 O4 2.122181 1_555
Mg2 O6 2.122181 1_455
Mg2 O12 2.138282 1_556
Mg2 O12 2.138282 1_555
Mg2 O9 2.201800 1_555
Mg3 O8 2.046113 1_565
Mg3 O5 2.122181 1_555
Mg3 O7 2.122181 1_455
Mg3 O13 2.138282 1_555
Mg3 O13 2.138282 1_556
Mg3 O9 2.201800 1_555
Mg4 O10 2.103612 1_555
Mg4 O14 2.125495 1_556
Mg4 O14 2.125495 1_555
Mg4 O6 2.130724 1_555
Mg4 O4 2.130724 1_555
Mg4 O11 2.144301 1_555
Mg5 O10 2.103612 1_565
Mg5 O15 2.125495 1_556
Mg5 O15 2.125495 1_555
Mg5 O5 2.130724 1_555
Mg5 O7 2.130724 1_555
Mg5 O11 2.144301 1_555
Mg6 O8 2.078944 1_555
Mg6 O0 2.126757 1_556
Mg6 O0 2.126757 1_555
Mg6 O5 2.141274 1_545
Mg6 O4 2.141274 1_555
Mg6 O10 2.171518 1_555
Mg7 O4 2.107119 1_555
Mg7 O5 2.107119 1_555
Mg7 O11 2.111503 1_555
Mg7 O1 2.125987 1_556
Mg7 O1 2.125987 1_555
Mg7 O9 2.138960 1_555
Mg8 O8 2.078944 1_655
Mg8 O2 2.126757 1_555
Mg8 O2 2.126757 1_556
Mg8 O6 2.141274 1_555
Mg8 O7 2.141274 1_545
Mg8 O10 2.171518 1_555
Mg9 O6 2.107119 1_555
Mg9 O7 2.107119 1_555
Mg9 O11 2.111503 1_555
Mg9 O3 2.125987 1_556
Mg9 O3 2.125987 1_555
Mg9 O9 2.138960 1_655
Mg10 O0 2.072022 1_555
Mg10 O4 2.125960 1_554
Mg10 O4 2.125960 1_555
Mg10 O12 2.130119 1_555
Mg10 O14 2.132859 1_555
Mg10 O1 2.177091 1_555
Mg11 O0 2.072022 1_565
Mg11 O5 2.125960 1_554
Mg11 O5 2.125960 1_555
Mg11 O13 2.130119 1_555
Mg11 O15 2.132859 1_555
Mg11 O1 2.177091 1_555
Mg12 O2 2.072022 1_555
Mg12 O6 2.125960 1_554
Mg12 O6 2.125960 1_555
Mg12 O12 2.130119 1_655
Mg12 O14 2.132859 1_555
Mg12 O3 2.177091 1_555
Mg13 O2 2.072022 1_565
Mg13 O7 2.125960 1_555
Mg13 O7 2.125960 1_554
Mg13 O13 2.130119 1_655
Mg13 O15 2.132859 1_555
Mg13 O3 2.177091 1_555
Ga0 O12 1.962280 1_555
Ga0 O13 1.962280 1_555
Ga0 O3 2.068652 1_455
Ga0 O1 2.068652 1_555
Ga0 O9 2.124824 1_554
Ga0 O9 2.124824 1_555
