# generated using pymatgen
data_Li7Mn2(CoO4)3
_symmetry_space_group_name_H-M   'P 1'
_cell_length_a   5.12417500
_cell_length_b   5.84551858
_cell_length_c   7.70333589
_cell_angle_alpha   100.59733190
_cell_angle_beta   109.36944047
_cell_angle_gamma   90.23358398
_symmetry_Int_Tables_number   1
_chemical_formula_structural   Li7Mn2(CoO4)3
_chemical_formula_sum   'Li7 Mn2 Co3 O12'
_cell_volume   213.44128156
_cell_formula_units_Z   1
loop_
 _symmetry_equiv_pos_site_id
 _symmetry_equiv_pos_as_xyz
  1  'x, y, z'
loop_
 _atom_site_type_symbol
 _atom_site_label
 _atom_site_symmetry_multiplicity
 _atom_site_fract_x
 _atom_site_fract_y
 _atom_site_fract_z
 _atom_site_occupancy
  Li  Li0  1  0.99711800  0.75700800  0.49929000  1
  Li  Li1  1  0.66601300  0.91697500  0.17374500  1
  Li  Li2  1  0.33398700  0.08302500  0.82625500  1
  Li  Li3  1  0.65841300  0.41877900  0.16832000  1
  Li  Li4  1  0.34158700  0.58122100  0.83168000  1
  Li  Li5  1  0.00288200  0.24299200  0.50071000  1
  Li  Li6  1  0.50000000  0.00000000  0.50000000  1
  Mn  Mn0  1  0.83789200  0.83239000  0.82829300  1
  Mn  Mn1  1  0.16210800  0.16761000  0.17170700  1
  Co  Co0  1  0.83168100  0.33073500  0.82290100  1
  Co  Co1  1  0.50000000  0.50000000  0.50000000  1
  Co  Co2  1  0.16831900  0.66926500  0.17709900  1
  O  O0  1  0.54872700  0.68994200  0.33250300  1
  O  O1  1  0.22820200  0.89018300  0.00835400  1
  O  O2  1  0.92019400  0.03245300  0.67853600  1
  O  O3  1  0.22516900  0.36603800  0.00581100  1
  O  O4  1  0.93010400  0.56038300  0.68394700  1
  O  O5  1  0.53956300  0.22118400  0.32835700  1
  O  O6  1  0.46043700  0.77881600  0.67164300  1
  O  O7  1  0.07980600  0.96754700  0.32146400  1
  O  O8  1  0.77179800  0.10981700  0.99164600  1
  O  O9  1  0.06989600  0.43961700  0.31605300  1
  O  O10  1  0.77483100  0.63396200  0.99418900  1
  O  O11  1  0.45127300  0.31005800  0.66749700  1
loop_
_geom_bond_atom_site_label_1
_geom_bond_atom_site_label_2
_geom_bond_distance
_geom_bond_site_symmetry_2
Li0 O2 2.050099 1_565
Li0 O4 2.093934 1_555
Li0 O7 2.138109 1_655
Li0 O0 2.220996 1_555
Li0 O9 2.228289 1_655
Li0 O6 2.293455 1_655
Li1 O7 2.036874 1_655
Li1 O8 2.147864 1_564
Li1 O10 2.153710 1_554
Li1 O0 2.167049 1_555
Li1 O1 2.169911 1_555
Li1 O5 2.177816 1_565
Li2 O2 2.036874 1_455
Li2 O1 2.147864 1_546
Li2 O3 2.153710 1_556
Li2 O11 2.167049 1_555
Li2 O8 2.169911 1_555
Li2 O6 2.177816 1_545
Li3 O9 2.027568 1_655
Li3 O0 2.041919 1_555
Li3 O5 2.059342 1_555
Li3 O3 2.144689 1_555
Li3 O10 2.209675 1_554
Li3 O8 2.254021 1_554
Li4 O4 2.027568 1_455
Li4 O11 2.041919 1_555
Li4 O6 2.059342 1_555
Li4 O10 2.144689 1_555
Li4 O3 2.209675 1_556
Li4 O1 2.254021 1_556
Li5 O7 2.050099 1_545
Li5 O9 2.093934 1_555
Li5 O2 2.138109 1_455
Li5 O11 2.220996 1_555
Li5 O4 2.228289 1_455
Li5 O5 2.293455 1_455
Li6 O6 2.065312 1_545
Li6 O5 2.065312 1_555
Li6 O0 2.090308 1_545
Li6 O11 2.090308 1_555
Li6 O2 2.121318 1_555
Li6 O7 2.121318 1_545
Mn0 O6 1.898177 1_555
Mn0 O2 1.921276 1_565
Mn0 O4 1.921509 1_555
Mn0 O8 1.965880 1_565
Mn0 O10 1.974603 1_555
Mn0 O1 2.005031 1_656
Mn1 O5 1.898177 1_555
Mn1 O7 1.921276 1_545
Mn1 O9 1.921509 1_555
Mn1 O1 1.965880 1_545
Mn1 O3 1.974603 1_555
Mn1 O8 2.005031 1_454
Co0 O11 1.909030 1_555
Co0 O4 2.020715 1_555
Co0 O3 2.024491 1_656
Co0 O2 2.027428 1_555
Co0 O8 2.080947 1_555
Co0 O10 2.089657 1_555
Co1 O0 1.923106 1_555
Co1 O11 1.923106 1_555
Co1 O6 1.957950 1_555
Co1 O5 1.957950 1_555
Co1 O4 2.174388 1_555
Co1 O9 2.174388 1_555
Co2 O0 1.909030 1_555
Co2 O9 2.020715 1_555
Co2 O10 2.024491 1_454
Co2 O7 2.027428 1_555
Co2 O1 2.080947 1_555
Co2 O3 2.089657 1_555
