# generated using pymatgen
data_ErAl8Ni3
_symmetry_space_group_name_H-M   'P 1'
_cell_length_a   3.78217080
_cell_length_b   6.92779287
_cell_length_c   7.48706010
_cell_angle_alpha   90.00000000
_cell_angle_beta   75.36973048
_cell_angle_gamma   90.00000000
_symmetry_Int_Tables_number   1
_chemical_formula_structural   ErAl8Ni3
_chemical_formula_sum   'Er1 Al8 Ni3'
_cell_volume   189.81580823
_cell_formula_units_Z   1
loop_
 _symmetry_equiv_pos_site_id
 _symmetry_equiv_pos_as_xyz
  1  'x, y, z'
loop_
 _atom_site_type_symbol
 _atom_site_label
 _atom_site_symmetry_multiplicity
 _atom_site_fract_x
 _atom_site_fract_y
 _atom_site_fract_z
 _atom_site_occupancy
  Er  Er0  1  0.12008394  0.75000000  0.75983311  1
  Al  Al0  1  0.92111697  0.75000000  0.15776605  1
  Al  Al1  1  0.07481323  0.25000000  0.85037355  1
  Al  Al2  1  0.48852760  0.46222591  0.02294580  1
  Al  Al3  1  0.48852760  0.03777409  0.02294580  1
  Al  Al4  1  0.31471411  0.55261044  0.37057277  1
  Al  Al5  1  0.68849111  0.43989565  0.62301677  1
  Al  Al6  1  0.31471411  0.94738956  0.37057277  1
  Al  Al7  1  0.68849111  0.06010435  0.62301677  1
  Ni  Ni0  1  0.76066765  0.75000000  0.47866370  1
  Ni  Ni1  1  0.23934556  0.25000000  0.52130987  1
  Ni  Ni2  1  0.90050799  0.25000000  0.19898502  1
loop_
_geom_bond_atom_site_label_1
_geom_bond_atom_site_label_2
_geom_bond_distance
_geom_bond_site_symmetry_2
Er0 Ni0 2.779397 1_555
Er0 Ni0 2.779403 1_455
Al0 Ni0 2.324678 1_555
Al0 Al6 2.796931 1_555
Al0 Al4 2.796931 1_555
Al0 Al4 2.796933 1_655
Al0 Al6 2.796933 1_655
Al0 Er0 2.882745 1_654
Al0 Al2 2.916281 1_555
Al0 Al3 2.916281 1_565
Al0 Al2 2.916283 1_655
Al0 Al3 2.916283 1_665
Al1 Ni1 2.383836 1_555
Al1 Ni2 2.525446 1_456
Al1 Al2 2.701993 1_456
Al1 Al3 2.701993 1_456
Al1 Al2 2.701996 1_556
Al1 Al3 2.701996 1_556
Al1 Al7 2.831895 1_555
Al1 Al5 2.831895 1_555
Al1 Al5 2.831898 1_455
Al1 Al7 2.831898 1_455
Al2 Al4 2.594993 1_555
Al2 Ni2 2.713706 1_455
Al2 Ni2 2.713706 1_555
Al2 Al5 2.901333 1_554
Al2 Al3 2.940514 1_555
Al2 Er0 3.344233 1_654
Al2 Er0 3.344233 1_554
Al3 Al6 2.594993 1_545
Al3 Ni2 2.713706 1_455
Al3 Ni2 2.713706 1_555
Al3 Al7 2.901333 1_554
Al3 Er0 3.344233 1_644
Al3 Er0 3.344233 1_544
Al4 Ni1 2.363772 1_555
Al4 Ni0 2.461571 1_555
Al4 Ni0 2.461577 1_455
Al4 Al6 2.734948 1_555
Al4 Al5 2.744153 1_555
Al4 Al5 2.744158 1_455
Al4 Ni2 3.084854 1_555
Al4 Ni2 3.084854 1_455
Al4 Er0 3.133995 1_555
Al5 Ni0 2.389336 1_555
Al5 Ni1 2.418625 1_555
Al5 Ni1 2.418631 1_655
Al5 Al7 2.631115 1_555
Al5 Er0 3.028845 1_555
Al5 Er0 3.028850 1_655
Al6 Ni1 2.363772 1_565
Al6 Ni0 2.461571 1_555
Al6 Ni0 2.461577 1_455
Al6 Al7 2.744153 1_565
Al6 Al7 2.744158 1_465
Al6 Ni2 3.084854 1_565
Al6 Ni2 3.084854 1_465
Al6 Er0 3.133995 1_555
Al7 Ni0 2.389336 1_545
Al7 Ni1 2.418625 1_555
Al7 Ni1 2.418631 1_655
Al7 Er0 3.028845 1_545
Al7 Er0 3.028850 1_645
Ni1 Ni2 3.004748 1_555
Ni1 Ni2 3.004748 1_455
