# generated using pymatgen
data_Ba2NaNb5O15
_symmetry_space_group_name_H-M   'P 1'
_cell_length_a   8.19816282
_cell_length_b   17.89052333
_cell_length_c   18.29466026
_cell_angle_alpha   90.00000000
_cell_angle_beta   102.94754561
_cell_angle_gamma   90.00000000
_symmetry_Int_Tables_number   1
_chemical_formula_structural   Ba2NaNb5O15
_chemical_formula_sum   'Ba16 Na8 Nb40 O120'
_cell_volume   2615.04680686
_cell_formula_units_Z   8
loop_
 _symmetry_equiv_pos_site_id
 _symmetry_equiv_pos_as_xyz
  1  'x, y, z'
loop_
 _atom_site_type_symbol
 _atom_site_label
 _atom_site_symmetry_multiplicity
 _atom_site_fract_x
 _atom_site_fract_y
 _atom_site_fract_z
 _atom_site_occupancy
  Ba  Ba0  1  0.62465055  0.07638188  0.75595120  1
  Ba  Ba1  1  0.86869935  0.92361812  0.24404880  1
  Ba  Ba2  1  0.62465055  0.42361812  0.75595120  1
  Ba  Ba3  1  0.86869935  0.57638188  0.24404880  1
  Ba  Ba4  1  0.11893418  0.08186309  0.73868393  1
  Ba  Ba5  1  0.38025025  0.91813691  0.26131607  1
  Ba  Ba6  1  0.11893418  0.41813691  0.73868393  1
  Ba  Ba7  1  0.38025025  0.58186309  0.26131607  1
  Ba  Ba8  1  0.79141606  0.25000000  0.07836005  1
  Ba  Ba9  1  0.71305601  0.75000000  0.92163995  1
  Ba  Ba10  1  0.28612166  0.25000000  0.07804241  1
  Ba  Ba11  1  0.20807925  0.75000000  0.92195759  1
  Ba  Ba12  1  0.03889328  0.75000000  0.57631457  1
  Ba  Ba13  1  0.46257871  0.25000000  0.42368543  1
  Ba  Ba14  1  0.53860201  0.75000000  0.58018919  1
  Ba  Ba15  1  0.95841282  0.25000000  0.41981081  1
  Na  Na0  1  0.74698689  0.00000000  1.00000000  1
  Na  Na1  1  0.74698689  0.50000000  1.00000000  1
  Na  Na2  1  0.24111772  0.00000000  1.00000000  1
  Na  Na3  1  0.24111772  0.50000000  1.00000000  1
  Na  Na4  1  0.99726123  0.49907388  0.49962637  1
  Na  Na5  1  0.49763486  0.50092612  0.50037363  1
  Na  Na6  1  0.99726123  0.00092612  0.49962637  1
  Na  Na7  1  0.49763486  0.99907388  0.50037363  1
  Nb  Nb0  1  0.86533333  0.25000000  0.75157432  1
  Nb  Nb1  1  0.11375901  0.75000000  0.24842568  1
  Nb  Nb2  1  0.36642864  0.25000000  0.74894013  1
  Nb  Nb3  1  0.61748851  0.75000000  0.25105987  1
  Nb  Nb4  1  0.86749101  0.75000000  0.74954143  1
  Nb  Nb5  1  0.11794958  0.25000000  0.25045857  1
  Nb  Nb6  1  0.36786964  0.75000000  0.75062116  1
  Nb  Nb7  1  0.61724848  0.25000000  0.24937884  1
  Nb  Nb8  1  0.96010263  0.14109994  0.93039857  1
  Nb  Nb9  1  0.02970406  0.85890006  0.06960143  1
  Nb  Nb10  1  0.96010263  0.35890006  0.93039857  1
  Nb  Nb11  1  0.02970406  0.64109994  0.06960143  1
  Nb  Nb12  1  0.46076512  0.14163846  0.93381554  1
  Nb  Nb13  1  0.52694958  0.85836154  0.06618446  1
  Nb  Nb14  1  0.46076512  0.35836154  0.93381554  1
  Nb  Nb15  1  0.52694958  0.64163846  0.06618446  1
  Nb  Nb16  1  0.20999444  0.64152736  0.43427712  1
  Nb  Nb17  1  0.77571732  0.35847264  0.56572288  1
  Nb  Nb18  1  0.20999444  0.85847264  0.43427712  1
  Nb  Nb19  1  0.77571732  0.14152736  0.56572288  1
  Nb  Nb20  1  0.70989948  0.64165626  0.43144354  1
  Nb  Nb21  1  0.27845594  0.35834374  0.56855646  1
  Nb  Nb22  1  0.70989948  0.85834374  0.43144354  1
  Nb  Nb23  1  0.27845594  0.14165626  0.56855646  1
  Nb  Nb24  1  0.06515506  0.06572634  0.14155729  1
  Nb  Nb25  1  0.92359777  0.93427366  0.85844271  1
  Nb  Nb26  1  0.06515506  0.43427366  0.14155729  1
  Nb  Nb27  1  0.92359777  0.56572634  0.85844271  1
  Nb  Nb28  1  0.56289939  0.06878925  0.14028410  1
  Nb  Nb29  1  0.42261529  0.93121075  0.85971590  1
  Nb  Nb30  1  0.56289939  0.43121075  0.14028410  1
  Nb  Nb31  1  0.42261529  0.56878925  0.85971590  1
  Nb  Nb32  1  0.31636188  0.56723911  0.64091060  1
  Nb  Nb33  1  0.67545129  0.43276089  0.35908940  1
  Nb  Nb34  1  0.31636188  0.93276089  0.64091060  1
  Nb  Nb35  1  0.67545129  0.06723911  0.35908940  1
  Nb  Nb36  1  0.81430327  0.56769962  0.64313526  1
  Nb  Nb37  1  0.17116801  0.43230038  0.35686474  1
  Nb  Nb38  1  0.81430327  0.93230038  0.64313526  1
  Nb  Nb39  1  0.17116801  0.06769962  0.35686474  1
  O  O0  1  0.95786403  0.16880330  0.82418426  1
  O  O1  1  0.13367977  0.83119670  0.17581574  1
  O  O2  1  0.95786403  0.33119670  0.82418426  1
  O  O3  1  0.13367977  0.66880330  0.17581574  1
  O  O4  1  0.40725689  0.16752825  0.82404063  1
  O  O5  1  0.58321626  0.83247175  0.17595937  1
  O  O6  1  0.40725689  0.33247175  0.82404063  1
  O  O7  1  0.58321626  0.66752825  0.17595937  1
  O  O8  1  0.15702767  0.66873607  0.32531183  1
  O  O9  1  0.83171584  0.33126393  0.67468817  1
  O  O10  1  0.15702767  0.83126393  0.32531183  1
  O  O11  1  0.83171584  0.16873607  0.67468817  1
  O  O12  1  0.70791833  0.66950860  0.32550989  1
  O  O13  1  0.38240844  0.33049140  0.67449011  1
  O  O14  1  0.70791833  0.83049140  0.32550989  1
  O  O15  1  0.38240844  0.16950860  0.67449011  1
  O  O16  1  0.98742922  0.25000000  0.96577491  1
  O  O17  1  0.02165430  0.75000000  0.03422509  1
  O  O18  1  0.51298054  0.25000000  0.96363966  1
  O  O19  1  0.54934089  0.75000000  0.03636034  1
  O  O20  1  0.25609713  0.75000000  0.46684598  1
  O  O21  1  0.78925116  0.25000000  0.53315402  1
  O  O22  1  0.73882045  0.75000000  0.46752621  1
  O  O23  1  0.27129424  0.25000000  0.53247379  1
  O  O24  1  0.90855406  0.96663842  0.75054682  1
  O  O25  1  0.15800724  0.03336158  0.24945318  1
  O  O26  1  0.90855406  0.53336158  0.75054682  1
  O  O27  1  0.15800724  0.46663842  0.24945318  1
  O  O28  1  0.37248612  0.96532881  0.75053791  1
  O  O29  1  0.62194821  0.03467119  0.24946209  1
  O  O30  1  0.37248612  0.53467119  0.75053791  1
  O  O31  1  0.62194821  0.46532881  0.24946209  1
  O  O32  1  0.99368424  0.03551033  0.89513809  1
  O  O33  1  0.09854615  0.96448967  0.10486191  1
  O  O34  1  0.99368424  0.46448967  0.89513809  1
  O  O35  1  0.09854615  0.53551033  0.10486191  1
  O  O36  1  0.44841826  0.03548681  0.89456909  1
  O  O37  1  0.55384916  0.96451319  0.10543091  1
  O  O38  1  0.44841826  0.46451319  0.89456909  1
  O  O39  1  0.55384916  0.53548681  0.10543091  1
  O  O40  1  0.20738955  0.53620527  0.39416567  1
  O  O41  1  0.81322388  0.46379473  0.60583433  1
  O  O42  1  0.20738955  0.96379473  0.39416567  1
  O  O43  1  0.81322388  0.03620527  0.60583433  1
  O  O44  1  0.73297977  0.53614450  0.39361889  1
  O  O45  1  0.33936089  0.46385550  0.60638111  1
  O  O46  1  0.73297977  0.96385550  0.39361889  1
  O  O47  1  0.33936089  0.03614450  0.60638111  1
  O  O48  1  0.97274406  0.89564007  0.96538173  1
  O  O49  1  0.00736233  0.10435993  0.03461827  1
  O  O50  1  0.97274406  0.60435993  0.96538173  1
  O  O51  1  0.00736233  0.39564007  0.03461827  1
  O  O52  1  0.53534544  0.89380267  0.96464120  1
  O  O53  1  0.57070424  0.10619733  0.03535880  1
  O  O54  1  0.53534544  0.60619733  0.96464120  1
  O  O55  1  0.57070424  0.39380267  0.03535880  1
  O  O56  1  0.22465118  0.39572902  0.46445174  1
  O  O57  1  0.76019944  0.60427098  0.53554826  1
  O  O58  1  0.22465118  0.10427098  0.46445174  1
  O  O59  1  0.76019944  0.89572902  0.53554826  1
  O  O60  1  0.78233849  0.39462334  0.46425970  1
  O  O61  1  0.31807879  0.60537666  0.53574030  1
  O  O62  1  0.78233849  0.10537666  0.46425970  1
  O  O63  1  0.31807879  0.89462334  0.53574030  1
  O  O64  1  0.92068179  0.82512915  0.83219190  1
  O  O65  1  0.08848989  0.17487085  0.16780810  1
  O  O66  1  0.92068179  0.67487085  0.83219190  1
  O  O67  1  0.08848989  0.32512915  0.16780810  1
  O  O68  1  0.45159468  0.82509112  0.83014956  1
  O  O69  1  0.62144512  0.17490888  0.16985044  1
  O  O70  1  0.45159468  0.67490888  0.83014956  1
  O  O71  1  0.62144512  0.32509112  0.16985044  1
  O  O72  1  0.19983612  0.32512512  0.33168909  1
  O  O73  1  0.86814703  0.67487488  0.66831091  1
  O  O74  1  0.19983612  0.17487488  0.33168909  1
  O  O75  1  0.86814703  0.82512512  0.66831091  1
  O  O76  1  0.67483045  0.32437706  0.33297099  1
  O  O77  1  0.34185945  0.67562294  0.66702901  1
  O  O78  1  0.67483045  0.17562294  0.33297099  1
  O  O79  1  0.34185945  0.82437706  0.66702901  1
  O  O80  1  0.72959511  0.13483397  0.91729077  1
  O  O81  1  0.81230434  0.86516603  0.08270923  1
  O  O82  1  0.72959511  0.36516603  0.91729077  1
  O  O83  1  0.81230434  0.63483397  0.08270923  1
  O  O84  1  0.47904249  0.63793484  0.41966165  1
  O  O85  1  0.05938084  0.36206516  0.58033835  1
  O  O86  1  0.47904249  0.86206516  0.41966165  1
  O  O87  1  0.05938084  0.13793484  0.58033835  1
  O  O88  1  0.24644448  0.14439941  0.95118960  1
  O  O89  1  0.29525488  0.85560059  0.04881040  1
  O  O90  1  0.24644448  0.35560059  0.95118960  1
  O  O91  1  0.29525488  0.64439941  0.04881040  1
  O  O92  1  0.99403010  0.64161631  0.45042181  1
  O  O93  1  0.54360829  0.35838369  0.54957819  1
  O  O94  1  0.99403010  0.85838369  0.45042181  1
  O  O95  1  0.54360829  0.14161631  0.54957819  1
  O  O96  1  0.69646962  0.94801094  0.85285690  1
  O  O97  1  0.84361273  0.05198906  0.14714310  1
  O  O98  1  0.69646962  0.55198906  0.85285690  1
  O  O99  1  0.84361273  0.44801094  0.14714310  1
  O  O100  1  0.94201165  0.43285235  0.34705662  1
  O  O101  1  0.59495502  0.56714765  0.65294338  1
  O  O102  1  0.94201165  0.06714765  0.34705662  1
  O  O103  1  0.59495502  0.93285235  0.65294338  1
  O  O104  1  0.20480621  0.92028001  0.87042750  1
  O  O105  1  0.33437872  0.07971999  0.12957250  1
  O  O106  1  0.20480621  0.57971999  0.87042750  1
  O  O107  1  0.33437872  0.42028001  0.12957250  1
  O  O108  1  0.45583646  0.43792840  0.37053377  1
  O  O109  1  0.08530269  0.56207160  0.62946623  1
  O  O110  1  0.45583646  0.06207160  0.37053377  1
  O  O111  1  0.08530269  0.93792840  0.62946623  1
  O  O112  1  0.65017456  0.25000000  0.76610292  1
  O  O113  1  0.88407164  0.75000000  0.23389708  1
  O  O114  1  0.13562229  0.25000000  0.73439865  1
  O  O115  1  0.40122365  0.75000000  0.26560135  1
  O  O116  1  0.89803973  0.25000000  0.26003172  1
  O  O117  1  0.63800801  0.75000000  0.73996828  1
  O  O118  1  0.38743513  0.25000000  0.24043096  1
  O  O119  1  0.14700417  0.75000000  0.75956904  1
loop_
_geom_bond_atom_site_label_1
_geom_bond_atom_site_label_2
_geom_bond_distance
_geom_bond_site_symmetry_2
Ba0 O15 2.759444 1_555
Ba0 O28 2.852910 1_545
Ba0 O96 2.880349 1_545
Ba0 O4 2.895157 1_555
Ba0 O11 2.992125 1_555
Ba0 O24 3.063480 1_545
Ba0 O80 3.067255 1_555
Ba0 O112 3.115901 1_555
Ba0 O103 3.162070 1_545
Ba0 O0 3.197891 1_555
Ba0 O47 3.257001 1_555
Ba0 O36 3.270425 1_555
Ba1 O14 2.759444 1_555
Ba1 O29 2.852910 1_565
Ba1 O97 2.880349 1_565
Ba1 O5 2.895157 1_555
Ba1 O10 2.992125 1_655
Ba1 O25 3.063480 1_665
Ba1 O81 3.067255 1_555
Ba1 O113 3.115901 1_555
Ba1 O102 3.162070 1_565
Ba1 O1 3.197891 1_655
Ba1 O46 3.257002 1_555
Ba1 O37 3.270425 1_555
Ba2 O13 2.759444 1_555
Ba2 O30 2.852910 1_555
Ba2 O98 2.880349 1_555
Ba2 O6 2.895157 1_555
Ba2 O9 2.992125 1_555
Ba2 O26 3.063480 1_555
Ba2 O82 3.067255 1_555
Ba2 O112 3.115901 1_555
Ba2 O101 3.162070 1_555
Ba2 O2 3.197891 1_555
Ba2 O45 3.257001 1_555
Ba2 O38 3.270425 1_555
Ba3 O12 2.759444 1_555
Ba3 O31 2.852910 1_555
Ba3 O99 2.880349 1_555
Ba3 O7 2.895157 1_555
Ba3 O8 2.992125 1_655
Ba3 O27 3.063480 1_655
Ba3 O83 3.067255 1_555
Ba3 O113 3.115901 1_555
Ba3 O100 3.162070 1_555
Ba3 O3 3.197891 1_655
Ba3 O44 3.257002 1_555
Ba3 O39 3.270425 1_555
Ba4 O24 2.727458 1_445
Ba4 O0 2.745042 1_455
Ba4 O11 2.845232 1_455
Ba4 O28 2.917617 1_545
Ba4 O4 2.953042 1_555
Ba4 O87 3.000466 1_555
Ba4 O114 3.012985 1_555
Ba4 O15 3.104882 1_555
Ba4 O43 3.182136 1_455
Ba4 O111 3.233036 1_545
Ba4 O32 3.354357 1_455
Ba4 O47 3.428287 1_555
Ba4 O36 3.558906 1_555
Ba5 O25 2.727458 1_565
Ba5 O1 2.745042 1_555
Ba5 O10 2.845232 1_555
Ba5 O29 2.917617 1_565
Ba5 O5 2.953042 1_555
Ba5 O86 3.000466 1_555
Ba5 O115 3.012985 1_555
Ba5 O14 3.104882 1_555
Ba5 O42 3.182136 1_555
Ba5 O110 3.233036 1_565
Ba5 O33 3.354357 1_555
Ba5 O46 3.428287 1_555
Ba5 O37 3.558906 1_555
Ba6 O26 2.727458 1_455
Ba6 O2 2.745042 1_455
Ba6 O9 2.845232 1_455
Ba6 O30 2.917617 1_555
Ba6 O6 2.953042 1_555
Ba6 O85 3.000466 1_555
Ba6 O114 3.012985 1_555
Ba6 O13 3.104882 1_555
Ba6 O41 3.182136 1_455
Ba6 O109 3.233036 1_555
Ba6 O34 3.354357 1_455
Ba6 O45 3.428287 1_555
Ba6 O38 3.558906 1_555
Ba7 O27 2.727458 1_555
Ba7 O3 2.745042 1_555
Ba7 O8 2.845232 1_555
Ba7 O31 2.917617 1_555
Ba7 O7 2.953042 1_555
Ba7 O84 3.000466 1_555
Ba7 O115 3.012985 1_555
Ba7 O12 3.104882 1_555
Ba7 O40 3.182136 1_555
Ba7 O108 3.233036 1_555
Ba7 O35 3.354357 1_555
Ba7 O44 3.428287 1_555
Ba7 O39 3.558906 1_555
Ba8 O18 2.732863 1_554
Ba8 O71 2.755576 1_555
Ba8 O69 2.755576 1_555
Ba8 O16 2.882338 1_554
Ba8 O65 2.937686 1_655
Ba8 O67 2.937686 1_655
Ba8 O53 3.142270 1_555
Ba8 O55 3.142270 1_555
Ba8 O116 3.241705 1_555
Ba8 O51 3.346410 1_655
Ba8 O49 3.346410 1_655
Ba9 O19 2.732863 1_556
Ba9 O70 2.755575 1_555
Ba9 O68 2.755575 1_555
Ba9 O17 2.882338 1_656
Ba9 O64 2.937686 1_555
Ba9 O66 2.937686 1_555
Ba9 O54 3.142270 1_555
Ba9 O52 3.142270 1_555
Ba9 O117 3.241705 1_555
Ba9 O48 3.346410 1_555
Ba9 O50 3.346410 1_555
Ba10 O16 2.821521 1_454
Ba10 O67 2.884611 1_555
Ba10 O65 2.884611 1_555
Ba10 O118 2.900006 1_555
Ba10 O90 2.953401 1_554
Ba10 O88 2.953401 1_554
Ba10 O18 3.095763 1_554
Ba10 O69 3.180242 1_555
Ba10 O71 3.180242 1_555
Ba10 O107 3.187265 1_555
Ba10 O105 3.187265 1_555
Ba11 O17 2.821522 1_556
Ba11 O64 2.884610 1_455
Ba11 O66 2.884610 1_455
Ba11 O119 2.900006 1_555
Ba11 O91 2.953401 1_556
Ba11 O89 2.953401 1_556
Ba11 O19 3.095763 1_556
Ba11 O70 3.180242 1_555
Ba11 O68 3.180242 1_555
Ba11 O104 3.187265 1_555
Ba11 O106 3.187265 1_555
Ba12 O73 2.766628 1_455
Ba12 O75 2.766628 1_455
Ba12 O22 2.796226 1_455
Ba12 O20 2.963041 1_555
Ba12 O92 2.969870 1_455
Ba12 O94 2.969870 1_455
Ba12 O79 2.974355 1_555
Ba12 O77 2.974355 1_555
Ba13 O72 2.766628 1_555
Ba13 O74 2.766628 1_555
Ba13 O23 2.796226 1_555
Ba13 O21 2.963041 1_555
Ba13 O93 2.969870 1_555
Ba13 O95 2.969870 1_555
Ba13 O78 2.974356 1_555
Ba13 O76 2.974356 1_555
Ba14 O20 2.740731 1_555
Ba14 O77 2.836269 1_555
Ba14 O79 2.836269 1_555
Ba14 O117 2.853276 1_555
Ba14 O22 2.908367 1_555
Ba15 O21 2.740731 1_555
Ba15 O76 2.836269 1_555
Ba15 O78 2.836269 1_555
Ba15 O116 2.853276 1_555
Ba15 O23 2.908367 1_655
Na0 O52 2.556498 1_545
Na0 O53 2.556498 1_556
Na0 O97 2.789900 1_556
Na0 O96 2.789900 1_545
Na0 O49 2.799589 1_656
Na0 O48 2.799590 1_545
Na0 O36 2.828264 1_555
Na0 O37 2.828264 1_546
Na0 O81 2.834111 1_546
Na0 O80 2.834111 1_555
Na1 O54 2.556498 1_555
Na1 O55 2.556498 1_556
Na1 O99 2.789900 1_556
Na1 O98 2.789900 1_555
Na1 O51 2.799589 1_656
Na1 O50 2.799590 1_555
Na1 O38 2.828264 1_555
Na1 O39 2.828264 1_556
Na1 O83 2.834111 1_556
Na1 O82 2.834111 1_555
Na2 O32 2.540644 1_455
Na2 O33 2.540644 1_546
Na2 O105 2.725020 1_556
Na2 O104 2.725020 1_545
Na2 O89 2.736902 1_546
Na2 O88 2.736902 1_555
Na2 O48 2.846634 1_445
Na2 O49 2.846634 1_556
Na2 O37 2.912147 1_546
Na2 O36 2.912147 1_555
Na3 O34 2.540644 1_455
Na3 O35 2.540644 1_556
Na3 O107 2.725020 1_556
Na3 O106 2.725020 1_555
Na3 O91 2.736902 1_556
Na3 O90 2.736902 1_555
Na3 O50 2.846634 1_455
Na3 O51 2.846634 1_556
Na3 O39 2.912147 1_556
Na3 O38 2.912147 1_555
Na4 O60 2.550344 1_555
Na4 O109 2.581734 1_655
Na4 O44 2.648079 1_555
Na4 O92 2.702527 1_555
Na4 O41 2.786368 1_555
Na4 O56 2.800936 1_655
Na4 O85 2.847963 1_655
Na4 O57 2.885021 1_555
Na4 O40 2.936107 1_655
Na4 O100 2.972051 1_555
Na5 O61 2.550344 1_555
Na5 O108 2.581734 1_555
Na5 O45 2.648079 1_555
Na5 O93 2.702527 1_555
Na5 O40 2.786368 1_555
Na5 O57 2.800936 1_555
Na5 O84 2.847963 1_555
Na5 O56 2.885021 1_555
Na5 O41 2.936107 1_555
Na5 O101 2.972051 1_555
Na6 O62 2.550344 1_555
Na6 O111 2.581734 1_645
Na6 O46 2.648079 1_545
Na6 O94 2.702527 1_545
Na6 O43 2.786368 1_555
Na6 O58 2.800936 1_655
Na6 O87 2.847963 1_655
Na6 O59 2.885021 1_545
Na6 O42 2.936107 1_645
Na6 O102 2.972051 1_555
Na7 O63 2.550344 1_555
Na7 O110 2.581734 1_565
Na7 O47 2.648079 1_565
Na7 O95 2.702527 1_565
Na7 O42 2.786368 1_555
Na7 O59 2.800936 1_555
Na7 O86 2.847963 1_555
Na7 O58 2.885021 1_565
Na7 O43 2.936107 1_565
Na7 O103 2.972051 1_555
Nb0 O112 1.841768 1_555
Nb0 O9 1.998617 1_555
Nb0 O11 1.998617 1_555
Nb0 O2 1.999665 1_555
Nb0 O0 1.999665 1_555
Nb0 O114 2.306695 1_655
Nb1 O113 1.841768 1_455
Nb1 O8 1.998617 1_555
Nb1 O10 1.998617 1_555
Nb1 O3 1.999665 1_555
Nb1 O1 1.999665 1_555
Nb1 O115 2.306695 1_555
Nb2 O114 1.850831 1_555
Nb2 O6 1.992649 1_555
Nb2 O4 1.992649 1_555
Nb2 O13 2.006481 1_555
Nb2 O15 2.006481 1_555
Nb2 O112 2.276504 1_555
Nb3 O115 1.850831 1_555
Nb3 O7 1.992649 1_555
Nb3 O5 1.992649 1_555
Nb3 O12 2.006481 1_555
Nb3 O14 2.006481 1_555
Nb3 O113 2.276504 1_555
Nb4 O117 1.849989 1_555
Nb4 O66 1.996903 1_555
Nb4 O64 1.996903 1_555
Nb4 O73 2.004612 1_555
Nb4 O75 2.004612 1_555
Nb4 O119 2.257481 1_655
Nb5 O116 1.849989 1_455
Nb5 O65 1.996903 1_555
Nb5 O67 1.996903 1_555
Nb5 O74 2.004612 1_555
Nb5 O72 2.004612 1_555
Nb5 O118 2.257481 1_555
Nb6 O119 1.854245 1_555
Nb6 O70 1.986267 1_555
Nb6 O68 1.986267 1_555
Nb6 O77 2.002169 1_555
Nb6 O79 2.002169 1_555
Nb6 O117 2.266279 1_555
Nb7 O118 1.854245 1_555
Nb7 O69 1.986267 1_555
Nb7 O71 1.986267 1_555
Nb7 O76 2.002169 1_555
Nb7 O78 2.002169 1_555
Nb7 O116 2.266279 1_555
Nb8 O80 1.854215 1_555
Nb8 O49 1.971417 1_656
Nb8 O0 2.001463 1_555
Nb8 O32 2.034706 1_555
Nb8 O16 2.049359 1_555
Nb8 O88 2.293183 1_655
Nb9 O81 1.854215 1_455
Nb9 O48 1.971417 1_454
Nb9 O1 2.001463 1_555
Nb9 O33 2.034706 1_555
Nb9 O17 2.049359 1_555
Nb9 O89 2.293183 1_555
Nb10 O82 1.854215 1_555
Nb10 O51 1.971417 1_656
Nb10 O2 2.001463 1_555
Nb10 O34 2.034706 1_555
Nb10 O16 2.049359 1_555
Nb10 O90 2.293183 1_655
Nb11 O83 1.854215 1_455
Nb11 O50 1.971417 1_454
Nb11 O3 2.001463 1_555
Nb11 O35 2.034706 1_555
Nb11 O17 2.049359 1_555
Nb11 O91 2.293183 1_555
Nb12 O88 1.854968 1_555
Nb12 O53 1.978665 1_556
Nb12 O4 2.011326 1_555
Nb12 O36 2.024800 1_555
Nb12 O18 2.033378 1_555
Nb12 O80 2.293908 1_555
Nb13 O89 1.854968 1_555
Nb13 O52 1.978665 1_554
Nb13 O5 2.011326 1_555
Nb13 O37 2.024800 1_555
Nb13 O19 2.033378 1_555
Nb13 O81 2.293908 1_555
Nb14 O90 1.854968 1_555
Nb14 O55 1.978665 1_556
Nb14 O6 2.011326 1_555
Nb14 O38 2.024800 1_555
Nb14 O18 2.033378 1_555
Nb14 O82 2.293908 1_555
Nb15 O91 1.854968 1_555
Nb15 O54 1.978665 1_554
Nb15 O7 2.011326 1_555
Nb15 O39 2.024800 1_555
Nb15 O19 2.033378 1_555
Nb15 O83 2.293908 1_555
Nb16 O92 1.859110 1_455
Nb16 O61 1.977877 1_555
Nb16 O8 2.002893 1_555
Nb16 O40 2.020494 1_555
Nb16 O20 2.040346 1_555
Nb16 O84 2.281452 1_555
Nb17 O93 1.859110 1_555
Nb17 O60 1.977877 1_555
Nb17 O9 2.002893 1_555
Nb17 O41 2.020494 1_555
Nb17 O21 2.040346 1_555
Nb17 O85 2.281452 1_655
Nb18 O94 1.859110 1_455
Nb18 O63 1.977877 1_555
Nb18 O10 2.002893 1_555
Nb18 O42 2.020494 1_555
Nb18 O20 2.040346 1_555
Nb18 O86 2.281452 1_555
Nb19 O95 1.859110 1_555
Nb19 O62 1.977877 1_555
Nb19 O11 2.002893 1_555
Nb19 O43 2.020494 1_555
Nb19 O21 2.040346 1_555
Nb19 O87 2.281452 1_655
Nb20 O84 1.857426 1_555
Nb20 O57 1.973019 1_555
Nb20 O12 1.997593 1_555
Nb20 O44 2.033861 1_555
Nb20 O22 2.044247 1_555
Nb20 O92 2.276840 1_555
Nb21 O85 1.857426 1_555
Nb21 O56 1.973019 1_555
Nb21 O13 1.997593 1_555
Nb21 O45 2.033861 1_555
Nb21 O23 2.044247 1_555
Nb21 O93 2.276840 1_555
Nb22 O86 1.857426 1_555
Nb22 O59 1.973019 1_555
Nb22 O14 1.997593 1_555
Nb22 O46 2.033861 1_555
Nb22 O22 2.044247 1_555
Nb22 O94 2.276840 1_555
Nb23 O87 1.857426 1_555
Nb23 O58 1.973019 1_555
Nb23 O15 1.997593 1_555
Nb23 O47 2.033861 1_555
Nb23 O23 2.044247 1_555
Nb23 O95 2.276840 1_555
Nb24 O97 1.858156 1_455
Nb24 O33 1.971886 1_545
Nb24 O65 2.009706 1_555
Nb24 O49 2.028393 1_555
Nb24 O25 2.034144 1_555
Nb24 O105 2.280148 1_555
Nb25 O96 1.858156 1_555
Nb25 O32 1.971886 1_565
Nb25 O64 2.009706 1_555
Nb25 O48 2.028393 1_555
Nb25 O24 2.034144 1_555
Nb25 O104 2.280148 1_655
Nb26 O99 1.858156 1_455
Nb26 O35 1.971886 1_555
Nb26 O67 2.009706 1_555
Nb26 O51 2.028393 1_555
Nb26 O27 2.034144 1_555
Nb26 O107 2.280148 1_555
Nb27 O98 1.858156 1_555
Nb27 O34 1.971886 1_555
Nb27 O66 2.009706 1_555
Nb27 O50 2.028393 1_555
Nb27 O26 2.034144 1_555
Nb27 O106 2.280148 1_655
Nb28 O105 1.849849 1_555
Nb28 O37 1.967527 1_545
Nb28 O69 2.002760 1_555
Nb28 O29 2.040376 1_555
Nb28 O53 2.047386 1_555
Nb28 O97 2.296261 1_555
Nb29 O104 1.849849 1_555
Nb29 O36 1.967527 1_565
Nb29 O68 2.002760 1_555
Nb29 O28 2.040376 1_555
Nb29 O52 2.047386 1_555
Nb29 O96 2.296261 1_555
Nb30 O107 1.849849 1_555
Nb30 O39 1.967527 1_555
Nb30 O71 2.002760 1_555
Nb30 O31 2.040376 1_555
Nb30 O55 2.047386 1_555
Nb30 O99 2.296261 1_555
Nb31 O106 1.849849 1_555
Nb31 O38 1.967527 1_555
Nb31 O70 2.002760 1_555
Nb31 O30 2.040376 1_555
Nb31 O54 2.047386 1_555
Nb31 O98 2.296261 1_555
Nb32 O109 1.860882 1_555
Nb32 O45 1.977106 1_555
Nb32 O77 1.996784 1_555
Nb32 O30 2.039627 1_555
Nb32 O61 2.044470 1_555
Nb32 O101 2.244904 1_555
Nb33 O108 1.860882 1_555
Nb33 O44 1.977106 1_555
Nb33 O76 1.996784 1_555
Nb33 O31 2.039627 1_555
Nb33 O60 2.044469 1_555
Nb33 O100 2.244904 1_555
Nb34 O111 1.860882 1_555
Nb34 O47 1.977106 1_565
Nb34 O79 1.996784 1_555
Nb34 O28 2.039627 1_555
Nb34 O63 2.044470 1_555
Nb34 O103 2.244904 1_555
Nb35 O110 1.860882 1_555
Nb35 O46 1.977106 1_545
Nb35 O78 1.996784 1_555
Nb35 O29 2.039627 1_555
Nb35 O62 2.044469 1_555
Nb35 O102 2.244904 1_555
Nb36 O101 1.846782 1_555
Nb36 O41 1.979548 1_555
Nb36 O73 1.998095 1_555
Nb36 O57 2.026741 1_555
Nb36 O26 2.038500 1_555
Nb36 O109 2.292941 1_655
Nb37 O100 1.846782 1_455
Nb37 O40 1.979548 1_555
Nb37 O72 1.998095 1_555
Nb37 O56 2.026741 1_555
Nb37 O27 2.038500 1_555
Nb37 O108 2.292941 1_555
Nb38 O103 1.846782 1_555
Nb38 O43 1.979548 1_565
Nb38 O75 1.998095 1_555
Nb38 O59 2.026741 1_555
Nb38 O24 2.038500 1_555
Nb38 O111 2.292941 1_655
Nb39 O102 1.846782 1_455
Nb39 O42 1.979548 1_545
Nb39 O74 1.998095 1_555
Nb39 O58 2.026741 1_555
Nb39 O25 2.038500 1_555
Nb39 O110 2.292941 1_555
