# generated using pymatgen
data_YFeO3
_symmetry_space_group_name_H-M   'P 1'
_cell_length_a   3.54362468
_cell_length_b   12.16016060
_cell_length_c   6.12944940
_cell_angle_alpha   75.40342711
_cell_angle_beta   90.00431811
_cell_angle_gamma   81.61830938
_symmetry_Int_Tables_number   1
_chemical_formula_structural   YFeO3
_chemical_formula_sum   'Y4 Fe4 O12'
_cell_volume   252.68252179
_cell_formula_units_Z   4
loop_
 _symmetry_equiv_pos_site_id
 _symmetry_equiv_pos_as_xyz
  1  'x, y, z'
loop_
 _atom_site_type_symbol
 _atom_site_label
 _atom_site_symmetry_multiplicity
 _atom_site_fract_x
 _atom_site_fract_y
 _atom_site_fract_z
 _atom_site_occupancy
  Y  Y0  1  0.24999616  0.50000770  0.24999584  1
  Y  Y1  1  0.75000380  0.49999228  0.75000351  1
  Y  Y2  1  0.50000685  0.99998265  0.50000861  1
  Y  Y3  1  0.99999083  0.00002095  -0.00000969  1
  Fe  Fe0  1  0.62481974  0.75000285  0.95707857  1
  Fe  Fe1  1  0.37517788  0.24999848  0.04292640  1
  Fe  Fe2  1  0.12482043  0.75000185  0.45707983  1
  Fe  Fe3  1  0.87517815  0.24999821  0.54291716  1
  O  O0  1  0.37506611  0.25001896  0.37623001  1
  O  O1  1  0.87507164  0.25000656  0.87622878  1
  O  O2  1  0.12493900  0.74997062  0.12377456  1
  O  O3  1  0.62492535  0.75000080  0.62376721  1
  O  O4  1  0.29257426  0.41492365  0.95918646  1
  O  O5  1  0.79257068  0.41492868  0.45918488  1
  O  O6  1  0.54253312  0.91490188  0.87591709  1
  O  O7  1  0.04253230  0.91489862  0.37587218  1
  O  O8  1  0.70742889  0.58507170  0.04080421  1
  O  O9  1  0.20742731  0.58507496  0.54082556  1
  O  O10  1  0.45746581  0.08510383  0.12412372  1
  O  O11  1  0.95746567  0.08509877  0.62408611  1
loop_
_geom_bond_atom_site_label_1
_geom_bond_atom_site_label_2
_geom_bond_distance
_geom_bond_site_symmetry_2
Fe0 O6 1.918350 1_555
Fe0 O8 1.918723 1_556
Fe0 O3 2.043021 1_555
Fe0 O2 2.045013 1_556
Fe0 O2 2.045513 1_656
Fe1 O10 1.918298 1_555
Fe1 O4 1.918654 1_554
Fe1 O0 2.043030 1_555
Fe1 O1 2.045058 1_554
Fe1 O1 2.045552 1_454
Fe2 O7 1.918322 1_555
Fe2 O9 1.918674 1_555
Fe2 O2 2.043074 1_555
Fe2 O3 2.045030 1_455
Fe2 O3 2.045538 1_555
Fe3 O11 1.918354 1_555
Fe3 O5 1.918715 1_555
Fe3 O1 2.043042 1_555
Fe3 O0 2.045008 1_655
Fe3 O0 2.045499 1_555
O4 Y0 2.270378 1_556
O4 Y1 2.272002 1_455
O4 Y1 2.272051 1_555
O5 Y1 2.270269 1_555
O5 Y0 2.272054 1_555
O5 Y0 2.272109 1_655
O6 Y2 2.270467 1_555
O6 Y3 2.272179 1_466
O6 Y3 2.272283 1_566
O7 Y3 2.270417 1_465
O7 Y2 2.272130 1_455
O7 Y2 2.272229 1_555
O8 Y1 2.270294 1_554
O8 Y0 2.272006 1_655
O8 Y0 2.272060 1_555
O9 Y0 2.270359 1_555
O9 Y1 2.272037 1_555
O9 Y1 2.272091 1_455
O10 Y2 2.270431 1_545
O10 Y3 2.272114 1_555
O10 Y3 2.272213 1_455
O11 Y3 2.270437 1_556
O11 Y2 2.272173 1_645
O11 Y2 2.272275 1_545
