# generated using pymatgen
data_Ba2CdGe
_symmetry_space_group_name_H-M   'P 1'
_cell_length_a   13.55137012
_cell_length_b   13.84320425
_cell_length_c   13.84320390
_cell_angle_alpha   60.51451540
_cell_angle_beta   60.69495189
_cell_angle_gamma   60.69495239
_symmetry_Int_Tables_number   1
_chemical_formula_structural   Ba2CdGe
_chemical_formula_sum   'Ba2 Cd1 Ge1'
_cell_volume   1862.59986011
_cell_formula_units_Z   1
loop_
 _symmetry_equiv_pos_site_id
 _symmetry_equiv_pos_as_xyz
  1  'x, y, z'
loop_
 _atom_site_type_symbol
 _atom_site_label
 _atom_site_symmetry_multiplicity
 _atom_site_fract_x
 _atom_site_fract_y
 _atom_site_fract_z
 _atom_site_occupancy
  Ba  Ba0  1  0.78308462  1.00000000  0.00000000  1
  Ba  Ba1  1  0.21691538  0.00000000  1.00000000  1
  Cd  Cd0  1  0.50000000  0.00000000  0.00000000  1
  Ge  Ge0  1  -0.00000000  0.00000000  0.00000000  1
loop_
_geom_bond_atom_site_label_1
_geom_bond_atom_site_label_2
_geom_bond_distance
_geom_bond_site_symmetry_2
Ba0 Ge0 2.939501 1_665
Ba0 Cd0 3.836184 1_565
Ba1 Ge0 2.939501 1_556
Ba1 Cd0 3.836184 1_556
