# generated using pymatgen
data_La3Fe2S7
_symmetry_space_group_name_H-M   'P 1'
_cell_length_a   10.37630635
_cell_length_b   10.37630635
_cell_length_c   5.92031800
_cell_angle_alpha   90.00000000
_cell_angle_beta   90.00000000
_cell_angle_gamma   120.00000224
_symmetry_Int_Tables_number   1
_chemical_formula_structural   La3Fe2S7
_chemical_formula_sum   'La6 Fe4 S14'
_cell_volume   552.02815373
_cell_formula_units_Z   2
loop_
 _symmetry_equiv_pos_site_id
 _symmetry_equiv_pos_as_xyz
  1  'x, y, z'
loop_
 _atom_site_type_symbol
 _atom_site_label
 _atom_site_symmetry_multiplicity
 _atom_site_fract_x
 _atom_site_fract_y
 _atom_site_fract_z
 _atom_site_occupancy
  La  La0  1  0.62442700  0.86862900  0.25078100  1
  La  La1  1  0.13137100  0.75579800  0.25078100  1
  La  La2  1  0.24420200  0.37557300  0.25078100  1
  La  La3  1  0.37557300  0.13137100  0.75078100  1
  La  La4  1  0.86862900  0.24420200  0.75078100  1
  La  La5  1  0.75579800  0.62442700  0.75078100  1
  Fe  Fe0  1  0.00000000  0.00000000  0.22031100  1
  Fe  Fe1  1  0.00000000  0.00000000  0.72031100  1
  Fe  Fe2  1  0.33333300  0.66666700  0.83686600  1
  Fe  Fe3  1  0.66666700  0.33333300  0.33686600  1
  S  S0  1  0.75487100  0.91557800  0.73866400  1
  S  S1  1  0.08442200  0.83929200  0.73866400  1
  S  S2  1  0.16070800  0.24512900  0.73866400  1
  S  S3  1  0.24512900  0.08442200  0.23866400  1
  S  S4  1  0.91557800  0.16070800  0.23866400  1
  S  S5  1  0.83929200  0.75487100  0.23866400  1
  S  S6  1  0.48459500  0.58875100  0.98155800  1
  S  S7  1  0.41124900  0.89584400  0.98155800  1
  S  S8  1  0.10415600  0.51540500  0.98155800  1
  S  S9  1  0.51540500  0.41124900  0.48155800  1
  S  S10  1  0.58875100  0.10415600  0.48155800  1
  S  S11  1  0.89584400  0.48459500  0.48155800  1
  S  S12  1  0.33333300  0.66666700  0.46177200  1
  S  S13  1  0.66666700  0.33333300  0.96177200  1
loop_
_geom_bond_atom_site_label_1
_geom_bond_atom_site_label_2
_geom_bond_distance
_geom_bond_site_symmetry_2
La0 S7 2.852685 1_554
La0 S12 2.957276 1_555
La0 S6 2.977553 1_554
La0 S10 2.980115 1_565
La0 S5 3.000139 1_555
La0 S4 3.026748 1_565
La0 S0 3.122973 1_555
La0 S0 3.256128 1_554
La1 S8 2.852685 1_554
La1 S12 2.957269 1_555
La1 S7 2.977553 1_554
La1 S11 2.980115 1_455
La1 S3 3.000149 1_565
La1 S5 3.026753 1_455
La1 S1 3.122969 1_555
La1 S1 3.256124 1_554
La2 S6 2.852685 1_554
La2 S12 2.957278 1_555
La2 S8 2.977553 1_554
La2 S9 2.980115 1_555
La2 S4 3.000147 1_455
La2 S3 3.026743 1_555
La2 S2 3.122973 1_555
La2 S2 3.256127 1_554
La3 S10 2.852685 1_555
La3 S13 2.957276 1_555
La3 S9 2.977553 1_555
La3 S7 2.980115 1_545
La3 S2 3.000139 1_555
La3 S1 3.026748 1_545
La3 S3 3.122973 1_556
La3 S3 3.256128 1_555
La4 S11 2.852685 1_555
La4 S13 2.957269 1_555
La4 S10 2.977553 1_555
La4 S8 2.980115 1_655
La4 S0 3.000149 1_545
La4 S2 3.026753 1_655
La4 S4 3.122969 1_556
La4 S4 3.256124 1_555
La5 S9 2.852685 1_555
La5 S13 2.957278 1_555
La5 S11 2.977553 1_555
La5 S6 2.980115 1_555
La5 S1 3.000147 1_655
La5 S0 3.026743 1_555
La5 S5 3.122973 1_556
La5 S5 3.256127 1_555
Fe0 S3 2.240674 1_555
Fe0 S5 2.240676 1_445
Fe0 S4 2.240684 1_455
Fe1 S0 2.240674 1_445
Fe1 S2 2.240676 1_555
Fe1 S1 2.240684 1_545
Fe2 S12 2.220676 1_555
Fe2 S7 2.262698 1_555
Fe2 S8 2.262700 1_555
Fe2 S6 2.262707 1_555
Fe3 S13 2.220676 1_554
Fe3 S10 2.262698 1_555
Fe3 S11 2.262700 1_555
Fe3 S9 2.262707 1_555
