# generated using pymatgen
data_Li4MnCo2O7
_symmetry_space_group_name_H-M   'P 1'
_cell_length_a   5.18592800
_cell_length_b   5.89531424
_cell_length_c   8.58792644
_cell_angle_alpha   91.83996001
_cell_angle_beta   94.37668510
_cell_angle_gamma   109.21788495
_symmetry_Int_Tables_number   1
_chemical_formula_structural   Li4MnCo2O7
_chemical_formula_sum   'Li8 Mn2 Co4 O14'
_cell_volume   246.74457712
_cell_formula_units_Z   2
loop_
 _symmetry_equiv_pos_site_id
 _symmetry_equiv_pos_as_xyz
  1  'x, y, z'
loop_
 _atom_site_type_symbol
 _atom_site_label
 _atom_site_symmetry_multiplicity
 _atom_site_fract_x
 _atom_site_fract_y
 _atom_site_fract_z
 _atom_site_occupancy
  Li  Li0  1  0.42299500  0.85286800  0.35861200  1
  Li  Li1  1  0.28543600  0.57152000  0.07120000  1
  Li  Li2  1  0.85853600  0.71574800  0.21483800  1
  Li  Li3  1  0.71456400  0.42848000  0.92880000  1
  Li  Li4  1  0.14146400  0.28425200  0.78516200  1
  Li  Li5  1  0.57700500  0.14713200  0.64138800  1
  Li  Li6  1  0.00000000  0.00000000  0.50000000  1
  Li  Li7  1  0.00000000  0.50000000  0.50000000  1
  Mn  Mn0  1  0.57156400  0.64426800  0.64396100  1
  Mn  Mn1  1  0.42843600  0.35573200  0.35603900  1
  Co  Co0  1  0.28533600  0.06996100  0.07085300  1
  Co  Co1  1  0.14260500  0.78534100  0.78556500  1
  Co  Co2  1  0.85739500  0.21465900  0.21443500  1
  Co  Co3  1  0.71466400  0.93003900  0.92914700  1
  O  O0  1  0.68611700  0.66623600  0.43374000  1
  O  O1  1  0.55017800  0.37876100  0.14699000  1
  O  O2  1  0.15120700  0.50147900  0.28732900  1
  O  O3  1  0.97868200  0.23195900  0.00631000  1
  O  O4  1  0.40659900  0.08884500  0.86521600  1
  O  O5  1  0.83752100  0.95495300  0.71941700  1
  O  O6  1  0.30189700  0.80360100  0.59075600  1
  O  O7  1  0.16247900  0.04504700  0.28058300  1
  O  O8  1  0.02131800  0.76804100  0.99369000  1
  O  O9  1  0.59340100  0.91115500  0.13478400  1
  O  O10  1  0.44982200  0.62123900  0.85301000  1
  O  O11  1  0.84879300  0.49852100  0.71267100  1
  O  O12  1  0.31388300  0.33376400  0.56626000  1
  O  O13  1  0.69810300  0.19639900  0.40924400  1
loop_
_geom_bond_atom_site_label_1
_geom_bond_atom_site_label_2
_geom_bond_distance
_geom_bond_site_symmetry_2
Li0 O13 2.067046 1_565
Li0 O0 2.094841 1_555
Li0 O7 2.115682 1_565
Li0 O2 2.125415 1_555
Li0 O6 2.135773 1_555
Li0 O9 2.166961 1_555
Li1 O2 2.038959 1_555
Li1 O10 2.106742 1_554
Li1 O1 2.130290 1_555
Li1 O3 2.131928 1_455
Li1 O9 2.132932 1_555
Li1 O8 2.148591 1_554
Li2 O7 2.085988 1_665
Li2 O8 2.127349 1_654
Li2 O1 2.129670 1_555
Li2 O0 2.130436 1_555
Li2 O9 2.153973 1_555
Li2 O2 2.335650 1_655
Li3 O11 2.038959 1_555
Li3 O1 2.106742 1_556
Li3 O10 2.130290 1_555
Li3 O8 2.131928 1_655
Li3 O4 2.132932 1_555
Li3 O3 2.148591 1_556
Li4 O5 2.085988 1_445
Li4 O3 2.127349 1_456
Li4 O10 2.129670 1_555
Li4 O12 2.130436 1_555
Li4 O4 2.153973 1_555
Li4 O11 2.335650 1_455
Li5 O6 2.067046 1_545
Li5 O12 2.094841 1_555
Li5 O5 2.115682 1_545
Li5 O11 2.125415 1_555
Li5 O13 2.135773 1_555
Li5 O4 2.166961 1_555
Li6 O5 2.111490 1_445
Li6 O7 2.111490 1_555
Li6 O0 2.126799 1_445
Li6 O12 2.126799 1_555
Li6 O13 2.337578 1_455
Li6 O6 2.337578 1_545
Li7 O13 2.035076 1_455
Li7 O6 2.035076 1_555
Li7 O2 2.041034 1_555
Li7 O11 2.041034 1_455
Li7 O12 2.208733 1_555
Li7 O0 2.208733 1_455
Mn0 O12 1.938277 1_555
Mn0 O0 1.938318 1_555
Mn0 O10 1.942251 1_555
Mn0 O5 1.949676 1_555
Mn0 O6 1.960010 1_555
Mn0 O11 1.967158 1_555
Mn1 O0 1.938277 1_555
Mn1 O12 1.938318 1_555
Mn1 O1 1.942251 1_555
Mn1 O7 1.949676 1_555
Mn1 O13 1.960010 1_555
Mn1 O2 1.967158 1_555
Co0 O4 1.913802 1_554
Co0 O8 1.913976 1_544
Co0 O1 1.941261 1_555
Co0 O7 1.949913 1_555
Co0 O9 2.148034 1_545
Co0 O3 2.155835 1_455
Co1 O6 1.912301 1_555
Co1 O11 1.913891 1_455
Co1 O4 1.926005 1_565
Co1 O8 1.934360 1_555
Co1 O10 2.172450 1_555
Co1 O5 2.183230 1_455
Co2 O13 1.912301 1_555
Co2 O2 1.913891 1_655
Co2 O9 1.926005 1_545
Co2 O3 1.934360 1_555
Co2 O1 2.172450 1_555
Co2 O7 2.183230 1_655
Co3 O9 1.913802 1_556
Co3 O3 1.913976 1_566
Co3 O10 1.941261 1_555
Co3 O5 1.949913 1_555
Co3 O4 2.148034 1_565
Co3 O8 2.155835 1_655
