# generated using pymatgen
data_Li2Fe(CoO3)2
_symmetry_space_group_name_H-M   'P 1'
_cell_length_a   5.07135255
_cell_length_b   10.12175918
_cell_length_c   5.01210258
_cell_angle_alpha   89.54927149
_cell_angle_beta   59.60861519
_cell_angle_gamma   89.10674470
_symmetry_Int_Tables_number   1
_chemical_formula_structural   Li2Fe(CoO3)2
_chemical_formula_sum   'Li4 Fe2 Co4 O12'
_cell_volume   221.89691546
_cell_formula_units_Z   2
loop_
 _symmetry_equiv_pos_site_id
 _symmetry_equiv_pos_as_xyz
  1  'x, y, z'
loop_
 _atom_site_type_symbol
 _atom_site_label
 _atom_site_symmetry_multiplicity
 _atom_site_fract_x
 _atom_site_fract_y
 _atom_site_fract_z
 _atom_site_occupancy
  Li  Li0  1  0.16095000  0.74903600  0.50285400  1
  Li  Li1  1  0.33620500  0.25096900  0.50285700  1
  Li  Li2  1  0.66195100  0.74934700  0.49861600  1
  Li  Li3  1  0.83945400  0.25065600  0.49859900  1
  Fe  Fe0  1  0.49886100  0.49999500  0.00229400  1
  Fe  Fe1  1  0.99915400  0.00000200  0.00164500  1
  Co  Co0  1  0.16504900  0.50000000  0.66987100  1
  Co  Co1  1  0.66657700  0.00000400  0.66688000  1
  Co  Co2  1  0.33869200  0.00000400  0.32262100  1
  Co  Co3  1  0.83589900  0.50000200  0.32818300  1
  O  O0  1  0.14894000  0.59688600  0.00610200  1
  O  O1  1  0.34759800  0.09706400  0.99238800  1
  O  O2  1  0.66005400  0.90293400  0.99235800  1
  O  O3  1  0.84495600  0.40309300  0.00608300  1
  O  O4  1  0.97062700  0.89105100  0.36193500  1
  O  O5  1  0.15123700  0.39640500  0.35186700  1
  O  O6  1  0.49688000  0.60358700  0.35185600  1
  O  O7  1  0.66747000  0.10895800  0.36192800  1
  O  O8  1  0.00057500  0.10255800  0.64749400  1
  O  O9  1  0.35191900  0.89745300  0.64749200  1
  O  O10  1  0.51135900  0.39784900  0.64303200  1
  O  O11  1  0.84559300  0.60214600  0.64304400  1
loop_
_geom_bond_atom_site_label_1
_geom_bond_atom_site_label_2
_geom_bond_distance
_geom_bond_site_symmetry_2
Li0 O4 2.031560 1_455
Li0 O11 2.045155 1_455
Li0 O6 2.068149 1_555
Li0 O9 2.119687 1_555
Li1 O7 2.031589 1_555
Li1 O10 2.044970 1_555
Li1 O5 2.068163 1_555
Li1 O8 2.119746 1_555
Li2 O4 1.986576 1_555
Li2 O9 2.008279 1_555
Li2 O6 2.024140 1_555
Li2 O11 2.057463 1_555
Li3 O7 1.986443 1_555
Li3 O8 2.008187 1_655
Li3 O5 2.023943 1_655
Li3 O10 2.057467 1_555
Fe0 O3 2.005678 1_555
Fe0 O0 2.005747 1_555
Fe0 O6 2.044489 1_555
Fe0 O5 2.044643 1_555
Fe0 O11 2.055969 1_554
Fe0 O10 2.055991 1_554
Fe1 O2 2.014750 1_544
Fe1 O1 2.015037 1_654
Fe1 O8 2.046134 1_654
Fe1 O9 2.046153 1_644
Fe1 O7 2.051005 1_555
Fe1 O4 2.051172 1_545
Co0 O0 1.921600 1_556
Co0 O3 1.921651 1_456
Co0 O5 1.945856 1_555
Co0 O6 1.945912 1_555
Co0 O11 1.969177 1_455
Co0 O10 1.969295 1_555
Co1 O4 1.875832 1_545
Co1 O7 1.875899 1_555
Co1 O2 1.883844 1_545
Co1 O1 1.883882 1_555
Co1 O8 1.960276 1_655
Co1 O9 1.960459 1_545
Co2 O1 1.899186 1_554
Co2 O2 1.899351 1_544
Co2 O9 1.953204 1_545
Co2 O8 1.953241 1_555
Co2 O4 2.104222 1_445
Co2 O7 2.104320 1_555
Co3 O0 1.875769 1_655
Co3 O3 1.875905 1_555
Co3 O11 1.915077 1_555
Co3 O10 1.915114 1_555
Co3 O6 1.951574 1_555
Co3 O5 1.951631 1_655
