# generated using pymatgen
data_Mg2CoWO6
_symmetry_space_group_name_H-M   'P 1'
_cell_length_a   5.21658557
_cell_length_b   5.56906349
_cell_length_c   9.00897590
_cell_angle_alpha   74.43495374
_cell_angle_beta   89.81224474
_cell_angle_gamma   62.26282173
_symmetry_Int_Tables_number   1
_chemical_formula_structural   Mg2CoWO6
_chemical_formula_sum   'Mg4 Co2 W2 O12'
_cell_volume   220.87309245
_cell_formula_units_Z   2
loop_
 _symmetry_equiv_pos_site_id
 _symmetry_equiv_pos_as_xyz
  1  'x, y, z'
loop_
 _atom_site_type_symbol
 _atom_site_label
 _atom_site_symmetry_multiplicity
 _atom_site_fract_x
 _atom_site_fract_y
 _atom_site_fract_z
 _atom_site_occupancy
  Mg  Mg0  1  0.32489500  0.36579200  0.10367900  1
  Mg  Mg1  1  0.82500300  0.36578000  0.60362500  1
  Mg  Mg2  1  0.07135900  0.87035500  0.35385800  1
  Mg  Mg3  1  0.57129300  0.87040000  0.85385700  1
  Co  Co0  1  0.24868000  0.51191800  0.74605600  1
  Co  Co1  1  0.74858000  0.51196900  0.24609200  1
  W  W0  1  0.51746600  0.97783900  0.50193300  1
  W  W1  1  0.01749900  0.97778200  0.00186300  1
  O  O0  1  0.86257600  0.70146200  0.05062300  1
  O  O1  1  0.36254200  0.70144500  0.55059100  1
  O  O2  1  0.30508600  0.70155100  0.19304400  1
  O  O3  1  0.80493800  0.70163500  0.69305800  1
  O  O4  1  0.79963000  0.69943000  0.40075700  1
  O  O5  1  0.29963200  0.69940900  0.90075600  1
  O  O6  1  0.73601600  0.18084300  0.45264600  1
  O  O7  1  0.23612400  0.18078600  0.95266700  1
  O  O8  1  0.77968200  0.18221900  0.13503000  1
  O  O9  1  0.27968800  0.18232600  0.63501700  1
  O  O10  1  0.23793900  0.17880500  0.31596200  1
  O  O11  1  0.73815400  0.17876500  0.81593900  1
loop_
_geom_bond_atom_site_label_1
_geom_bond_atom_site_label_2
_geom_bond_distance
_geom_bond_site_symmetry_2
Mg0 O10 2.076744 1_555
Mg0 O7 2.080224 1_554
Mg0 O8 2.084504 1_555
Mg0 O5 2.182247 1_554
Mg0 O2 2.186944 1_555
Mg0 O0 2.207009 1_455
Mg1 O11 2.076769 1_555
Mg1 O6 2.080206 1_555
Mg1 O9 2.084073 1_655
Mg1 O4 2.181864 1_555
Mg1 O3 2.187339 1_555
Mg1 O1 2.207521 1_555
Mg2 O2 2.030194 1_555
Mg2 O1 2.031334 1_555
Mg2 O4 2.032272 1_455
Mg2 O6 2.200498 1_465
Mg2 O10 2.212517 1_565
Mg2 O8 2.222695 1_465
Mg3 O3 2.029836 1_555
Mg3 O0 2.031817 1_556
Mg3 O5 2.032218 1_555
Mg3 O7 2.199934 1_565
Mg3 O11 2.213177 1_565
Mg3 O9 2.222724 1_565
Co0 O5 2.035925 1_555
Co0 O1 2.036419 1_555
Co0 O3 2.040247 1_455
Co0 O9 2.259194 1_555
Co0 O7 2.266967 1_555
Co0 O11 2.309194 1_555
Co1 O4 2.035729 1_555
Co1 O0 2.036736 1_555
Co1 O2 2.039190 1_555
Co1 O8 2.259970 1_555
Co1 O6 2.266654 1_555
Co1 O10 2.308760 1_655
O0 W1 2.001666 1_655
O1 W0 2.002030 1_555
O2 W1 2.007592 1_555
O3 W0 2.006997 1_555
O4 W0 2.006660 1_555
O5 W1 2.006079 1_556
O6 W0 1.924090 1_545
O7 W1 1.924371 1_546
O8 W1 1.919140 1_645
O9 W0 1.918608 1_545
O10 W0 1.917413 1_545
O11 W1 1.916641 1_646
