# generated using pymatgen
data_Fe2O3
_symmetry_space_group_name_H-M   'P 1'
_cell_length_a   5.16483500
_cell_length_b   5.40720000
_cell_length_c   15.05091200
_cell_angle_alpha   90.00000000
_cell_angle_beta   90.00000000
_cell_angle_gamma   90.00000000
_symmetry_Int_Tables_number   1
_chemical_formula_structural   Fe2O3
_chemical_formula_sum   'Fe16 O24'
_cell_volume   420.33127166
_cell_formula_units_Z   8
loop_
 _symmetry_equiv_pos_site_id
 _symmetry_equiv_pos_as_xyz
  1  'x, y, z'
loop_
 _atom_site_type_symbol
 _atom_site_label
 _atom_site_symmetry_multiplicity
 _atom_site_fract_x
 _atom_site_fract_y
 _atom_site_fract_z
 _atom_site_occupancy
  Fe  Fe0  1  0.99871500  0.20084400  0.07142600  1
  Fe  Fe1  1  0.99880500  0.76658300  0.18062800  1
  Fe  Fe2  1  0.99871500  0.29915600  0.57142600  1
  Fe  Fe3  1  0.99880500  0.73341700  0.68062800  1
  Fe  Fe4  1  0.50119500  0.26658300  0.18062800  1
  Fe  Fe5  1  0.50119500  0.23341700  0.68062800  1
  Fe  Fe6  1  0.50128500  0.70084400  0.07142600  1
  Fe  Fe7  1  0.50128500  0.79915600  0.57142600  1
  Fe  Fe8  1  0.49871500  0.20084400  0.42857400  1
  Fe  Fe9  1  0.49871500  0.29915600  0.92857400  1
  Fe  Fe10  1  0.49880500  0.76658300  0.31937200  1
  Fe  Fe11  1  0.49880500  0.73341700  0.81937200  1
  Fe  Fe12  1  0.00128500  0.70084400  0.42857400  1
  Fe  Fe13  1  0.00119500  0.26658300  0.31937200  1
  Fe  Fe14  1  0.00119500  0.23341700  0.81937200  1
  Fe  Fe15  1  0.00128500  0.79915600  0.92857400  1
  O  O0  1  0.14209800  0.12957500  0.20322900  1
  O  O1  1  0.14209800  0.37042500  0.70322900  1
  O  O2  1  0.15026300  0.84255900  0.05124500  1
  O  O3  1  0.15026300  0.65744100  0.55124500  1
  O  O4  1  0.19795100  0.98185500  0.37639300  1
  O  O5  1  0.19795100  0.51814500  0.87639300  1
  O  O6  1  0.30204900  0.48185500  0.37639300  1
  O  O7  1  0.30204900  0.01814500  0.87639300  1
  O  O8  1  0.34973700  0.15744100  0.55124500  1
  O  O9  1  0.34973700  0.34255900  0.05124500  1
  O  O10  1  0.35790200  0.62957500  0.20322900  1
  O  O11  1  0.35790200  0.87042500  0.70322900  1
  O  O12  1  0.64209800  0.12957500  0.29677100  1
  O  O13  1  0.64209800  0.37042500  0.79677100  1
  O  O14  1  0.65026300  0.84255900  0.44875500  1
  O  O15  1  0.65026300  0.65744100  0.94875500  1
  O  O16  1  0.69795100  0.51814500  0.62360700  1
  O  O17  1  0.69795100  0.98185500  0.12360700  1
  O  O18  1  0.80204900  0.48185500  0.12360700  1
  O  O19  1  0.80204900  0.01814500  0.62360700  1
  O  O20  1  0.84973700  0.34255900  0.44875500  1
  O  O21  1  0.84973700  0.15744100  0.94875500  1
  O  O22  1  0.85790200  0.87042500  0.79677100  1
  O  O23  1  0.85790200  0.62957500  0.29677100  1
loop_
_geom_bond_atom_site_label_1
_geom_bond_atom_site_label_2
_geom_bond_distance
_geom_bond_site_symmetry_2
Fe0 O18 1.989316 1_555
Fe0 O9 1.991560 1_655
Fe0 O21 2.013949 1_554
Fe0 O17 2.105228 1_545
Fe0 O2 2.111425 1_645
Fe0 O0 2.152256 1_655
Fe1 O10 2.025924 1_655
Fe1 O23 2.033259 1_555
Fe1 O18 2.034585 1_555
Fe1 O17 2.122725 1_555
Fe1 O0 2.125066 1_665
Fe1 O2 2.138410 1_655
Fe2 O19 1.989316 1_555
Fe2 O8 1.991560 1_655
Fe2 O20 2.013949 1_555
Fe2 O16 2.105228 1_555
Fe2 O3 2.111425 1_655
Fe2 O1 2.152256 1_655
Fe3 O11 2.025924 1_655
Fe3 O22 2.033259 1_555
Fe3 O19 2.034585 1_565
Fe3 O16 2.122725 1_555
Fe3 O1 2.125066 1_655
Fe3 O3 2.138410 1_655
Fe4 O0 2.025924 1_555
Fe4 O12 2.033259 1_555
Fe4 O17 2.034585 1_545
Fe4 O18 2.122725 1_555
Fe4 O10 2.125066 1_555
Fe4 O9 2.138410 1_555
Fe5 O1 2.025924 1_555
Fe5 O13 2.033259 1_555
Fe5 O16 2.034585 1_555
Fe5 O19 2.122725 1_555
Fe5 O11 2.125066 1_545
Fe5 O8 2.138410 1_555
Fe6 O17 1.989316 1_555
Fe6 O2 1.991560 1_555
Fe6 O15 2.013949 1_554
Fe6 O18 2.105228 1_555
Fe6 O9 2.111425 1_555
Fe6 O10 2.152256 1_555
Fe7 O16 1.989316 1_555
Fe7 O3 1.991560 1_555
Fe7 O14 2.013949 1_555
Fe7 O19 2.105228 1_565
Fe7 O8 2.111425 1_565
Fe7 O11 2.152256 1_555
Fe8 O6 1.989316 1_555
Fe8 O20 1.991560 1_555
Fe8 O8 2.013949 1_555
Fe8 O4 2.105228 1_545
Fe8 O14 2.111425 1_545
Fe8 O12 2.152256 1_555
Fe9 O7 1.989316 1_555
Fe9 O21 1.991560 1_555
Fe9 O9 2.013949 1_556
Fe9 O5 2.105228 1_555
Fe9 O15 2.111425 1_555
Fe9 O13 2.152256 1_555
Fe10 O23 2.025924 1_555
Fe10 O10 2.033259 1_555
Fe10 O6 2.034585 1_555
Fe10 O4 2.122725 1_555
Fe10 O12 2.125066 1_565
Fe10 O14 2.138410 1_555
Fe11 O22 2.025924 1_555
Fe11 O11 2.033259 1_555
Fe11 O7 2.034585 1_565
Fe11 O5 2.122725 1_555
Fe11 O13 2.125066 1_555
Fe11 O15 2.138410 1_555
Fe12 O4 1.989316 1_555
Fe12 O14 1.991560 1_455
Fe12 O3 2.013949 1_555
Fe12 O6 2.105228 1_555
Fe12 O20 2.111425 1_455
Fe12 O23 2.152256 1_455
Fe13 O12 2.025924 1_455
Fe13 O0 2.033259 1_555
Fe13 O4 2.034585 1_545
Fe13 O6 2.122725 1_555
Fe13 O23 2.125066 1_455
Fe13 O20 2.138410 1_455
Fe14 O13 2.025924 1_455
Fe14 O1 2.033259 1_555
Fe14 O5 2.034585 1_555
Fe14 O7 2.122725 1_555
Fe14 O22 2.125066 1_445
Fe14 O21 2.138410 1_455
Fe15 O5 1.989316 1_555
Fe15 O15 1.991560 1_455
Fe15 O2 2.013949 1_556
Fe15 O7 2.105228 1_565
Fe15 O21 2.111425 1_465
Fe15 O22 2.152256 1_455
