# generated using pymatgen
data_Dy(Mo3S4)2
_symmetry_space_group_name_H-M   'P 1'
_cell_length_a   6.47980187
_cell_length_b   6.47980188
_cell_length_c   6.47980182
_cell_angle_alpha   89.48539484
_cell_angle_beta   89.48539475
_cell_angle_gamma   89.48539700
_symmetry_Int_Tables_number   1
_chemical_formula_structural   Dy(Mo3S4)2
_chemical_formula_sum   'Dy1 Mo6 S8'
_cell_volume   272.04010699
_cell_formula_units_Z   1
loop_
 _symmetry_equiv_pos_site_id
 _symmetry_equiv_pos_as_xyz
  1  'x, y, z'
loop_
 _atom_site_type_symbol
 _atom_site_label
 _atom_site_symmetry_multiplicity
 _atom_site_fract_x
 _atom_site_fract_y
 _atom_site_fract_z
 _atom_site_occupancy
  Dy  Dy0  1  -0.00000000  0.00000000  -0.00000000  1
  Mo  Mo0  1  0.77357518  0.57984854  0.43974341  1
  Mo  Mo1  1  0.43974341  0.77357518  0.57984854  1
  Mo  Mo2  1  0.57984854  0.43974341  0.77357518  1
  Mo  Mo3  1  0.22642482  0.42015146  0.56025659  1
  Mo  Mo4  1  0.56025659  0.22642482  0.42015146  1
  Mo  Mo5  1  0.42015146  0.56025659  0.22642482  1
  S  S0  1  0.76160279  0.76160279  0.76160279  1
  S  S1  1  0.23839721  0.23839721  0.23839721  1
  S  S2  1  0.24848277  0.63120699  0.87314151  1
  S  S3  1  0.87314151  0.24848277  0.63120699  1
  S  S4  1  0.63120699  0.87314151  0.24848277  1
  S  S5  1  0.75151723  0.36879301  0.12685849  1
  S  S6  1  0.12685849  0.75151723  0.36879301  1
  S  S7  1  0.36879301  0.12685849  0.75151723  1
loop_
_geom_bond_atom_site_label_1
_geom_bond_atom_site_label_2
_geom_bond_distance
_geom_bond_site_symmetry_2
Dy0 S1 2.699538 1_555
Dy0 S0 2.699538 1_444
Dy0 S4 2.986852 1_445
Dy0 S7 2.986852 1_554
Dy0 S3 2.986852 1_454
Dy0 S6 2.986852 1_545
Dy0 S2 2.986852 1_544
Dy0 S5 2.986852 1_455
Mo0 S0 2.404643 1_555
Mo0 S4 2.438348 1_555
Mo0 S5 2.461658 1_555
Mo0 S3 2.550979 1_555
Mo0 S6 2.589762 1_655
Mo1 S0 2.404643 1_555
Mo1 S2 2.438348 1_555
Mo1 S6 2.461658 1_555
Mo1 S4 2.550978 1_555
Mo1 S7 2.589762 1_565
Mo2 S0 2.404643 1_555
Mo2 S3 2.438348 1_555
Mo2 S7 2.461657 1_555
Mo2 S2 2.550979 1_555
Mo2 S5 2.589762 1_556
Mo3 S1 2.404643 1_555
Mo3 S7 2.438348 1_555
Mo3 S2 2.461658 1_555
Mo3 S6 2.550979 1_555
Mo3 S3 2.589762 1_455
Mo4 S1 2.404643 1_555
Mo4 S5 2.438348 1_555
Mo4 S3 2.461658 1_555
Mo4 S7 2.550978 1_555
Mo4 S4 2.589762 1_545
Mo5 S1 2.404643 1_555
Mo5 S6 2.438348 1_555
Mo5 S4 2.461657 1_555
Mo5 S5 2.550979 1_555
Mo5 S2 2.589762 1_554
