# generated using pymatgen
data_Na2Sn(S2O7)3
_symmetry_space_group_name_H-M   'P 1'
_cell_length_a   13.32055162
_cell_length_b   15.84002742
_cell_length_c   15.84000023
_cell_angle_alpha   120.00000576
_cell_angle_beta   90.00015276
_cell_angle_gamma   89.99987744
_symmetry_Int_Tables_number   1
_chemical_formula_structural   Na2Sn(S2O7)3
_chemical_formula_sum   'Na12 Sn6 S36 O126'
_cell_volume   2894.43585343
_cell_formula_units_Z   6
loop_
 _symmetry_equiv_pos_site_id
 _symmetry_equiv_pos_as_xyz
  1  'x, y, z'
loop_
 _atom_site_type_symbol
 _atom_site_label
 _atom_site_symmetry_multiplicity
 _atom_site_fract_x
 _atom_site_fract_y
 _atom_site_fract_z
 _atom_site_occupancy
  Na  Na0  1  0.04754671  0.96934665  0.31054914  1
  Na  Na1  1  0.04755388  0.68945692  0.65880019  1
  Na  Na2  1  0.04754795  0.34119907  0.03065157  1
  Na  Na3  1  0.95245329  0.03065335  0.68945086  1
  Na  Na4  1  0.95244612  0.31054308  0.34119981  1
  Na  Na5  1  0.95245205  0.65880093  0.96934843  1
  Na  Na6  1  0.46166957  0.02607319  0.35170452  1
  Na  Na7  1  0.46166830  0.64829911  0.67436941  1
  Na  Na8  1  0.46166567  0.32562716  0.97392569  1
  Na  Na9  1  0.53833043  0.97392681  0.64829548  1
  Na  Na10  1  0.53833170  0.35170089  0.32563059  1
  Na  Na11  1  0.53833433  0.67437284  0.02607431  1
  Sn  Sn0  1  0.76924419  0.33333717  0.66666827  1
  Sn  Sn1  1  0.23075581  0.66666283  0.33333173  1
  Sn  Sn2  1  0.74202068  0.99999953  0.99999947  1
  Sn  Sn3  1  0.25797932  0.00000047  0.00000053  1
  Sn  Sn4  1  0.25805544  0.33334003  0.66667100  1
  Sn  Sn5  1  0.74194456  0.66665997  0.33332900  1
  S  S0  1  0.13854437  0.22200082  0.45201278  1
  S  S1  1  0.13854412  0.54799161  0.76999074  1
  S  S2  1  0.13854449  0.23001266  0.77800022  1
  S  S3  1  0.86145563  0.77799918  0.54798722  1
  S  S4  1  0.86145588  0.45200839  0.23000926  1
  S  S5  1  0.86145551  0.76998734  0.22199978  1
  S  S6  1  0.34749733  0.27344007  0.45407816  1
  S  S7  1  0.34749673  0.54592612  0.81936536  1
  S  S8  1  0.34749711  0.18063946  0.72656070  1
  S  S9  1  0.65250267  0.72655993  0.54592184  1
  S  S10  1  0.65250327  0.45407388  0.18063464  1
  S  S11  1  0.65250289  0.81936054  0.27343930  1
  S  S12  1  0.63360931  0.10841793  0.22176212  1
  S  S13  1  0.63360932  0.77823712  0.88665498  1
  S  S14  1  0.63360952  0.11334451  0.89158151  1
  S  S15  1  0.36639069  0.89158207  0.77823788  1
  S  S16  1  0.36639068  0.22176288  0.11334502  1
  S  S17  1  0.36639048  0.88665549  0.10841849  1
  S  S18  1  0.84413008  0.05280417  0.20633626  1
  S  S19  1  0.84413022  0.79366347  0.84646773  1
  S  S20  1  0.84412997  0.15353179  0.94719565  1
  S  S21  1  0.15586992  0.94719583  0.79366374  1
  S  S22  1  0.15586978  0.20633653  0.15353227  1
  S  S23  1  0.15587003  0.84646821  0.05280435  1
  S  S24  1  0.64635220  0.45576700  0.57721121  1
  S  S25  1  0.64635251  0.42278987  0.87855532  1
  S  S26  1  0.64635216  0.12144670  0.54423497  1
  S  S27  1  0.35364780  0.54423300  0.42278879  1
  S  S28  1  0.35364749  0.57721013  0.12144468  1
  S  S29  1  0.35364784  0.87855330  0.45576503  1
  S  S30  1  0.86241769  0.46785105  0.58677520  1
  S  S31  1  0.86241797  0.41322539  0.88107581  1
  S  S32  1  0.86241838  0.11892623  0.53214981  1
  S  S33  1  0.13758231  0.53214895  0.41322480  1
  S  S34  1  0.13758203  0.58677461  0.11892419  1
  S  S35  1  0.13758162  0.88107377  0.46785019  1
  O  O0  1  0.16755651  0.23628883  0.55143322  1
  O  O1  1  0.16755522  0.44857209  0.68485601  1
  O  O2  1  0.16755548  0.31514769  0.76371605  1
  O  O3  1  0.83244349  0.76371117  0.44856678  1
  O  O4  1  0.83244478  0.55142791  0.31514399  1
  O  O5  1  0.83244452  0.68485231  0.23628395  1
  O  O6  1  0.22858330  0.28036929  0.42869335  1
  O  O7  1  0.22858330  0.57130850  0.85167654  1
  O  O8  1  0.22858274  0.14832642  0.71963218  1
  O  O9  1  0.77141670  0.71963071  0.57130665  1
  O  O10  1  0.77141670  0.42869150  0.14832346  1
  O  O11  1  0.77141726  0.85167358  0.28036782  1
  O  O12  1  0.35025854  0.34028921  0.56455272  1
  O  O13  1  0.35025959  0.43545117  0.77573863  1
  O  O14  1  0.35025843  0.22426731  0.65971429  1
  O  O15  1  0.64974146  0.65971079  0.43544728  1
  O  O16  1  0.64974041  0.56454883  0.22426137  1
  O  O17  1  0.64974157  0.77573269  0.34028571  1
  O  O18  1  0.36887098  0.17377386  0.42522504  1
  O  O19  1  0.36887059  0.57477912  0.74855092  1
  O  O20  1  0.36887079  0.25145177  0.82622841  1
  O  O21  1  0.63112902  0.82622614  0.57477496  1
  O  O22  1  0.63112941  0.42522088  0.25144908  1
  O  O23  1  0.63112921  0.74854823  0.17377159  1
  O  O24  1  0.14495706  0.12037408  0.38032816  1
  O  O25  1  0.14495581  0.61967798  0.74005042  1
  O  O26  1  0.14495648  0.25995271  0.87962724  1
  O  O27  1  0.85504294  0.87962592  0.61967184  1
  O  O28  1  0.85504419  0.38032202  0.25994958  1
  O  O29  1  0.85504352  0.74004729  0.12037276  1
  O  O30  1  0.72774310  0.05172379  0.24205931  1
  O  O31  1  0.72774310  0.75794033  0.80966424  1
  O  O32  1  0.72774314  0.19033598  0.94827593  1
  O  O33  1  0.27225690  0.94827621  0.75794069  1
  O  O34  1  0.27225690  0.24205967  0.19033576  1
  O  O35  1  0.27225686  0.80966402  0.05172407  1
  O  O36  1  0.65114140  0.08761956  0.11810323  1
  O  O37  1  0.65114156  0.88189664  0.96951592  1
  O  O38  1  0.65114149  0.03048394  0.91238001  1
  O  O39  1  0.34885860  0.91238044  0.88189677  1
  O  O40  1  0.34885844  0.11810336  0.03048408  1
  O  O41  1  0.34885851  0.96951606  0.08761999  1
  O  O42  1  0.83645939  0.98614142  0.09625975  1
  O  O43  1  0.83645915  0.90374061  0.88988157  1
  O  O44  1  0.83645928  0.11011874  0.01385920  1
  O  O45  1  0.16354061  0.01385858  0.90374025  1
  O  O46  1  0.16354085  0.09625939  0.11011843  1
  O  O47  1  0.16354072  0.88988126  0.98614080  1
  O  O48  1  0.05075812  0.27601033  0.45577161  1
  O  O49  1  0.05075796  0.54423134  0.82023994  1
  O  O50  1  0.05075866  0.17976245  0.72398953  1
  O  O51  1  0.94924188  0.72398967  0.54422839  1
  O  O52  1  0.94924204  0.45576866  0.17976006  1
  O  O53  1  0.94924134  0.82023755  0.27601047  1
  O  O54  1  0.86069054  0.38822673  0.48811654  1
  O  O55  1  0.86069062  0.51188557  0.90011238  1
  O  O56  1  0.86069034  0.09989116  0.61177503  1
  O  O57  1  0.13930946  0.61177327  0.51188346  1
  O  O58  1  0.13930938  0.48811443  0.09988762  1
  O  O59  1  0.13930966  0.90010884  0.38822497  1
  O  O60  1  0.75155205  0.52155957  0.60978019  1
  O  O61  1  0.75155154  0.39021987  0.91177779  1
  O  O62  1  0.75155113  0.08822357  0.47844170  1
  O  O63  1  0.24844795  0.47844043  0.39021981  1
  O  O64  1  0.24844846  0.60978013  0.08822221  1
  O  O65  1  0.24844887  0.91177643  0.52155830  1
  O  O66  1  0.54786314  0.05767051  0.22894693  1
  O  O67  1  0.54786337  0.77105255  0.82872281  1
  O  O68  1  0.54786300  0.17127701  0.94232974  1
  O  O69  1  0.45213686  0.94232949  0.77105307  1
  O  O70  1  0.45213663  0.22894745  0.17127719  1
  O  O71  1  0.45213700  0.82872299  0.05767026  1
  O  O72  1  0.64392622  0.21101222  0.28853393  1
  O  O73  1  0.64392636  0.71146602  0.92247854  1
  O  O74  1  0.64392583  0.07752144  0.78898714  1
  O  O75  1  0.35607378  0.78898778  0.71146607  1
  O  O76  1  0.35607364  0.28853398  0.07752146  1
  O  O77  1  0.35607417  0.92247856  0.21101286  1
  O  O78  1  0.39953153  0.31979640  0.40916509  1
  O  O79  1  0.39953085  0.59083957  0.91063283  1
  O  O80  1  0.39953127  0.08937072  0.68020349  1
  O  O81  1  0.60046847  0.68020360  0.59083491  1
  O  O82  1  0.60046915  0.40916043  0.08936717  1
  O  O83  1  0.60046873  0.91062928  0.31979651  1
  O  O84  1  0.67415565  0.36399529  0.58020602  1
  O  O85  1  0.67415584  0.41979560  0.78378940  1
  O  O86  1  0.67415419  0.21621352  0.63600727  1
  O  O87  1  0.32584435  0.63600471  0.41979398  1
  O  O88  1  0.32584416  0.58020440  0.21621060  1
  O  O89  1  0.32584581  0.78378648  0.36399273  1
  O  O90  1  0.86604393  0.43397904  0.66168057  1
  O  O91  1  0.86604470  0.33832152  0.77229822  1
  O  O92  1  0.86604531  0.22770343  0.56602254  1
  O  O93  1  0.13395607  0.56602096  0.33831943  1
  O  O94  1  0.13395530  0.66167848  0.22770178  1
  O  O95  1  0.13395469  0.77229657  0.43397746  1
  O  O96  1  0.89897823  0.00265252  0.24556704  1
  O  O97  1  0.89897839  0.75443314  0.75708591  1
  O  O98  1  0.89897865  0.24291445  0.99734731  1
  O  O99  1  0.10102177  0.99734748  0.75443296  1
  O  O100  1  0.10102161  0.24556686  0.24291409  1
  O  O101  1  0.10102135  0.75708555  0.00265269  1
  O  O102  1  0.86993742  0.15125626  0.23367888  1
  O  O103  1  0.86993737  0.76632167  0.91757769  1
  O  O104  1  0.86993742  0.08242292  0.84874416  1
  O  O105  1  0.13006258  0.84874374  0.76632112  1
  O  O106  1  0.13006263  0.23367833  0.08242231  1
  O  O107  1  0.13006258  0.91757708  0.15125584  1
  O  O108  1  0.62516062  0.43028113  0.47850754  1
  O  O109  1  0.62516066  0.52149306  0.95177502  1
  O  O110  1  0.62516095  0.04822821  0.56972138  1
  O  O111  1  0.37483938  0.56971887  0.52149246  1
  O  O112  1  0.37483934  0.47850694  0.04822498  1
  O  O113  1  0.37483905  0.95177179  0.43027862  1
  O  O114  1  0.57763870  0.51723967  0.65287707  1
  O  O115  1  0.57763848  0.34712308  0.86436111  1
  O  O116  1  0.57763816  0.13564004  0.48276153  1
  O  O117  1  0.42236130  0.48276033  0.34712293  1
  O  O118  1  0.42236152  0.65287692  0.13563889  1
  O  O119  1  0.42236184  0.86435996  0.51723847  1
  O  O120  1  0.93223201  0.54605016  0.61473651  1
  O  O121  1  0.93223150  0.38526293  0.93131179  1
  O  O122  1  0.93223231  0.06869014  0.45395056  1
  O  O123  1  0.06776799  0.45394984  0.38526349  1
  O  O124  1  0.06776850  0.61473707  0.06868821  1
  O  O125  1  0.06776769  0.93130986  0.54604944  1
loop_
_geom_bond_atom_site_label_1
_geom_bond_atom_site_label_2
_geom_bond_distance
_geom_bond_site_symmetry_2
Na0 O59 2.357996 1_555
Na0 O96 2.407765 1_465
Na0 O24 2.446255 1_565
Na0 O107 2.485572 1_555
Na0 O53 2.510064 1_455
Na0 O122 2.533949 1_465
Na1 O57 2.357988 1_555
Na1 O97 2.407821 1_455
Na1 O25 2.446211 1_555
Na1 O105 2.485454 1_555
Na1 O51 2.510066 1_455
Na1 O120 2.534061 1_455
Na2 O58 2.358012 1_555
Na2 O98 2.407754 1_454
Na2 O26 2.446204 1_554
Na2 O106 2.485535 1_555
Na2 O52 2.510056 1_455
Na2 O121 2.533971 1_454
Na3 O56 2.357996 1_555
Na3 O99 2.407765 1_645
Na3 O27 2.446255 1_545
Na3 O104 2.485572 1_555
Na3 O50 2.510064 1_655
Na3 O125 2.533949 1_645
Na4 O54 2.357988 1_555
Na4 O100 2.407821 1_655
Na4 O28 2.446211 1_555
Na4 O102 2.485454 1_555
Na4 O48 2.510066 1_655
Na4 O123 2.534061 1_655
Na5 O55 2.358012 1_555
Na5 O101 2.407754 1_656
Na5 O29 2.446204 1_556
Na5 O103 2.485535 1_555
Na5 O49 2.510056 1_655
Na5 O124 2.533971 1_656
Na6 O18 2.373451 1_555
Na6 O113 2.395179 1_545
Na6 O77 2.445548 1_545
Na6 O83 2.468497 1_545
Na6 O116 2.470841 1_555
Na6 O66 2.514553 1_555
Na7 O19 2.373457 1_555
Na7 O111 2.395181 1_555
Na7 O75 2.445507 1_555
Na7 O81 2.468470 1_555
Na7 O114 2.470877 1_555
Na7 O67 2.514526 1_555
Na8 O20 2.373382 1_555
Na8 O112 2.395202 1_556
Na8 O76 2.445506 1_556
Na8 O82 2.468513 1_556
Na8 O115 2.470897 1_555
Na8 O68 2.514515 1_555
Na9 O21 2.373451 1_555
Na9 O110 2.395179 1_565
Na9 O74 2.445548 1_565
Na9 O80 2.468497 1_565
Na9 O119 2.470841 1_555
Na9 O69 2.514553 1_555
Na10 O22 2.373457 1_555
Na10 O108 2.395181 1_555
Na10 O72 2.445507 1_555
Na10 O78 2.468470 1_555
Na10 O117 2.470877 1_555
Na10 O70 2.514526 1_555
Na11 O23 2.373382 1_555
Na11 O109 2.395202 1_554
Na11 O73 2.445506 1_554
Na11 O79 2.468513 1_554
Na11 O118 2.470897 1_555
Na11 O71 2.514515 1_555
O0 S0 1.524536 1_555
O0 Sn4 2.083825 1_555
O1 S1 1.524540 1_555
O1 Sn4 2.083770 1_555
O2 S2 1.524539 1_555
O2 Sn4 2.083804 1_555
O3 S3 1.524536 1_555
O3 Sn5 2.083825 1_555
O4 S4 1.524540 1_555
O4 Sn5 2.083770 1_555
O5 S5 1.524539 1_555
O5 Sn5 2.083804 1_555
O6 S6 1.651337 1_555
O6 S0 1.664708 1_555
O7 S7 1.651319 1_555
O7 S1 1.664690 1_555
O8 S8 1.651340 1_555
O8 S2 1.664685 1_555
O9 S9 1.651337 1_555
O9 S3 1.664708 1_555
O10 S10 1.651319 1_555
O10 S4 1.664690 1_555
O11 S11 1.651340 1_555
O11 S5 1.664685 1_555
O12 S6 1.527037 1_555
O12 Sn4 2.077288 1_555
O13 S7 1.527043 1_555
O13 Sn4 2.077254 1_555
O14 S8 1.527029 1_555
O14 Sn4 2.077309 1_555
O15 S9 1.527037 1_555
O15 Sn5 2.077288 1_555
O16 S10 1.527043 1_555
O16 Sn5 2.077254 1_555
O17 S11 1.527029 1_555
O17 Sn5 2.077309 1_555
O18 S6 1.435533 1_555
O19 S7 1.435551 1_555
O20 S8 1.435545 1_555
O21 S9 1.435533 1_555
O22 S10 1.435551 1_555
O23 S11 1.435545 1_555
O24 S0 1.435309 1_555
O25 S1 1.435314 1_555
O26 S2 1.435318 1_555
O27 S3 1.435309 1_555
O28 S4 1.435314 1_555
O29 S5 1.435318 1_555
O30 S18 1.653397 1_555
O30 S12 1.664589 1_555
O31 S19 1.653397 1_555
O31 S13 1.664587 1_555
O32 S20 1.653397 1_555
O32 S14 1.664591 1_555
O33 S21 1.653397 1_555
O33 S15 1.664589 1_555
O34 S22 1.653397 1_555
O34 S16 1.664587 1_555
O35 S23 1.653397 1_555
O35 S17 1.664591 1_555
O36 S12 1.522551 1_555
O36 Sn2 2.072452 1_544
O37 S13 1.522561 1_555
O37 Sn2 2.072443 1_555
O38 S14 1.522554 1_555
O38 Sn2 2.072447 1_545
O39 S15 1.522551 1_555
O39 Sn3 2.072452 1_566
O40 S16 1.522561 1_555
O40 Sn3 2.072443 1_555
O41 S17 1.522554 1_555
O41 Sn3 2.072447 1_565
O42 S18 1.524625 1_565
O42 Sn2 2.071300 1_554
O43 S19 1.524637 1_555
O43 Sn2 2.071292 1_555
O44 S20 1.524629 1_554
O44 Sn2 2.071308 1_544
O45 S21 1.524625 1_545
O45 Sn3 2.071300 1_556
O46 S22 1.524637 1_555
O46 Sn3 2.071292 1_555
O47 S23 1.524629 1_556
O47 Sn3 2.071308 1_566
O48 S0 1.432449 1_555
O49 S1 1.432444 1_555
O50 S2 1.432449 1_555
O51 S3 1.432449 1_555
O52 S4 1.432444 1_555
O53 S5 1.432449 1_555
O54 S30 1.436126 1_555
O55 S31 1.436140 1_555
O56 S32 1.436147 1_555
O57 S33 1.436126 1_555
O58 S34 1.436140 1_555
O59 S35 1.436147 1_555
O60 S30 1.651500 1_555
O60 S24 1.666822 1_555
O61 S31 1.651505 1_555
O61 S25 1.666808 1_555
O62 S32 1.651516 1_555
O62 S26 1.666817 1_555
O63 S33 1.651500 1_555
O63 S27 1.666822 1_555
O64 S34 1.651505 1_555
O64 S28 1.666808 1_555
O65 S35 1.651516 1_555
O65 S29 1.666817 1_555
O66 S12 1.433593 1_555
O67 S13 1.433587 1_555
O68 S14 1.433600 1_555
O69 S15 1.433593 1_555
O70 S16 1.433587 1_555
O71 S17 1.433600 1_555
O72 S12 1.435156 1_555
O73 S13 1.435158 1_555
O74 S14 1.435153 1_555
O75 S15 1.435156 1_555
O76 S16 1.435158 1_555
O77 S17 1.435153 1_555
O78 S6 1.431123 1_555
O79 S7 1.431095 1_555
O80 S8 1.431113 1_555
O81 S9 1.431123 1_555
O82 S10 1.431095 1_555
O83 S11 1.431113 1_555
O84 S24 1.523653 1_555
O84 Sn0 2.093077 1_555
O85 S25 1.523646 1_555
O85 Sn0 2.093073 1_555
O86 S26 1.523654 1_555
O86 Sn0 2.093125 1_555
O87 S27 1.523653 1_555
O87 Sn1 2.093077 1_555
O88 S28 1.523646 1_555
O88 Sn1 2.093073 1_555
O89 S29 1.523654 1_555
O89 Sn1 2.093125 1_555
O90 S30 1.527934 1_555
O90 Sn0 2.082353 1_555
O91 S31 1.527932 1_555
O91 Sn0 2.082377 1_555
O92 S32 1.527932 1_555
O92 Sn0 2.082412 1_555
O93 S33 1.527934 1_555
O93 Sn1 2.082353 1_555
O94 S34 1.527932 1_555
O94 Sn1 2.082377 1_555
O95 S35 1.527932 1_555
O95 Sn1 2.082412 1_555
O96 S18 1.429920 1_555
O97 S19 1.429915 1_555
O98 S20 1.429929 1_555
O99 S21 1.429920 1_555
O100 S22 1.429915 1_555
O101 S23 1.429929 1_555
O102 S18 1.436080 1_555
O103 S19 1.436074 1_555
O104 S20 1.436069 1_555
O105 S21 1.436080 1_555
O106 S22 1.436074 1_555
O107 S23 1.436069 1_555
O108 S24 1.433846 1_555
O109 S25 1.433852 1_555
O110 S26 1.433864 1_555
O111 S27 1.433846 1_555
O112 S28 1.433852 1_555
O113 S29 1.433864 1_555
O114 S24 1.433660 1_555
O115 S25 1.433674 1_555
O116 S26 1.433672 1_555
O117 S27 1.433660 1_555
O118 S28 1.433674 1_555
O119 S29 1.433672 1_555
O120 S30 1.430631 1_555
O121 S31 1.430610 1_555
O122 S32 1.430624 1_555
O123 S33 1.430631 1_555
O124 S34 1.430610 1_555
O125 S35 1.430624 1_555
