# generated using pymatgen
data_Ce2Te7Cl2O17
_symmetry_space_group_name_H-M   'P 1'
_cell_length_a   5.44753700
_cell_length_b   9.86587400
_cell_length_c   20.58117844
_cell_angle_alpha   67.91675801
_cell_angle_beta   90.00000000
_cell_angle_gamma   90.00000000
_symmetry_Int_Tables_number   1
_chemical_formula_structural   Ce2Te7Cl2O17
_chemical_formula_sum   'Ce4 Te14 Cl4 O34'
_cell_volume   1024.98236365
_cell_formula_units_Z   2
loop_
 _symmetry_equiv_pos_site_id
 _symmetry_equiv_pos_as_xyz
  1  'x, y, z'
loop_
 _atom_site_type_symbol
 _atom_site_label
 _atom_site_symmetry_multiplicity
 _atom_site_fract_x
 _atom_site_fract_y
 _atom_site_fract_z
 _atom_site_occupancy
  Ce  Ce0  1  0.63723300  0.00541600  0.09101500  1
  Ce  Ce1  1  0.36276700  0.99458400  0.90898500  1
  Ce  Ce2  1  0.63723300  0.99458400  0.40898500  1
  Ce  Ce3  1  0.36276700  0.00541600  0.59101500  1
  Te  Te0  1  0.94624800  0.00000000  0.25000000  1
  Te  Te1  1  0.05375200  0.00000000  0.75000000  1
  Te  Te2  1  0.10416600  0.29178900  0.08701400  1
  Te  Te3  1  0.89583400  0.70821100  0.91298600  1
  Te  Te4  1  0.10416600  0.70821100  0.41298600  1
  Te  Te5  1  0.89583400  0.29178900  0.58701400  1
  Te  Te6  1  0.82226400  0.26910000  0.91785000  1
  Te  Te7  1  0.17773600  0.73090000  0.08215000  1
  Te  Te8  1  0.82226400  0.73090000  0.58215000  1
  Te  Te9  1  0.17773600  0.26910000  0.41785000  1
  Te  Te10  1  0.51054900  0.32747300  0.74202600  1
  Te  Te11  1  0.48945100  0.67252700  0.25797400  1
  Te  Te12  1  0.51054900  0.67252700  0.75797400  1
  Te  Te13  1  0.48945100  0.32747300  0.24202600  1
  Cl  Cl0  1  0.67250800  0.52973400  0.08022100  1
  Cl  Cl1  1  0.32749200  0.47026600  0.91977900  1
  Cl  Cl2  1  0.67250800  0.47026600  0.41977900  1
  Cl  Cl3  1  0.32749200  0.52973400  0.58022100  1
  O  O0  1  0.07127100  0.14252200  0.90995600  1
  O  O1  1  0.92872900  0.85747800  0.09004400  1
  O  O2  1  0.07127100  0.85747800  0.59004400  1
  O  O3  1  0.92872900  0.14252200  0.40995600  1
  O  O4  1  0.90215200  0.22972500  0.02054200  1
  O  O5  1  0.09784800  0.77027500  0.97945800  1
  O  O6  1  0.90215200  0.77027500  0.47945800  1
  O  O7  1  0.09784800  0.22972500  0.52054200  1
  O  O8  1  0.33914200  0.14431300  0.09742800  1
  O  O9  1  0.66085800  0.85568700  0.90257200  1
  O  O10  1  0.33914200  0.85568700  0.40257200  1
  O  O11  1  0.66085800  0.14431300  0.59742800  1
  O  O12  1  0.61845600  0.21205300  0.83598800  1
  O  O13  1  0.38154400  0.78794700  0.16401200  1
  O  O14  1  0.61845600  0.78794700  0.66401200  1
  O  O15  1  0.38154400  0.21205300  0.33598800  1
  O  O16  1  0.59705500  0.11631700  0.96701000  1
  O  O17  1  0.40294500  0.88368300  0.03299000  1
  O  O18  1  0.59705500  0.88368300  0.53299000  1
  O  O19  1  0.40294500  0.11631700  0.46701000  1
  O  O20  1  0.68723500  0.50000000  0.75000000  1
  O  O21  1  0.31276500  0.50000000  0.25000000  1
  O  O22  1  0.22686900  0.27845000  0.19593000  1
  O  O23  1  0.77313100  0.72155000  0.80407000  1
  O  O24  1  0.22686900  0.72155000  0.30407000  1
  O  O25  1  0.77313100  0.27845000  0.69593000  1
  O  O26  1  0.71436100  0.90047400  0.21465700  1
  O  O27  1  0.28563900  0.09952600  0.78534300  1
  O  O28  1  0.71436100  0.09952600  0.28534300  1
  O  O29  1  0.28563900  0.90047400  0.71465700  1
  O  O30  1  0.86569600  0.15960100  0.14920800  1
  O  O31  1  0.13430400  0.84039900  0.85079200  1
  O  O32  1  0.86569600  0.84039900  0.35079200  1
  O  O33  1  0.13430400  0.15960100  0.64920800  1
loop_
_geom_bond_atom_site_label_1
_geom_bond_atom_site_label_2
_geom_bond_distance
_geom_bond_site_symmetry_2
Ce0 O8 2.160596 1_555
Ce0 O1 2.161971 1_545
Ce0 O17 2.361341 1_545
Ce0 O16 2.378858 1_554
Ce0 O26 2.396447 1_545
Ce0 O13 2.525233 1_545
Ce0 O30 2.582094 1_555
Ce0 O4 2.582701 1_555
Ce1 O9 2.160596 1_555
Ce1 O0 2.161971 1_565
Ce1 O16 2.361341 1_565
Ce1 O17 2.378858 1_556
Ce1 O27 2.396447 1_565
Ce1 O12 2.525233 1_565
Ce1 O31 2.582094 1_555
Ce1 O5 2.582701 1_555
Ce2 O10 2.160596 1_555
Ce2 O3 2.161971 1_565
Ce2 O19 2.361341 1_565
Ce2 O18 2.378858 1_555
Ce2 O28 2.396447 1_565
Ce2 O15 2.525233 1_565
Ce2 O32 2.582094 1_555
Ce2 O6 2.582701 1_555
Ce3 O11 2.160596 1_555
Ce3 O2 2.161971 1_545
Ce3 O18 2.361341 1_545
Ce3 O19 2.378858 1_555
Ce3 O29 2.396447 1_545
Ce3 O14 2.525233 1_545
Ce3 O33 2.582094 1_555
Ce3 O7 2.582701 1_555
O0 Te6 1.891688 1_455
O1 Te7 1.891688 1_655
O2 Te8 1.891688 1_455
O3 Te9 1.891688 1_655
O4 Te2 2.021750 1_655
O4 Te6 2.046933 1_554
O5 Te3 2.021750 1_455
O5 Te7 2.046933 1_556
O6 Te4 2.021750 1_655
O6 Te8 2.046933 1_555
O7 Te5 2.021750 1_455
O7 Te9 2.046933 1_555
O8 Te2 1.888631 1_555
O9 Te3 1.888631 1_555
O10 Te4 1.888631 1_555
O11 Te5 1.888631 1_555
O12 Te10 1.930340 1_555
O12 Te6 2.258544 1_555
O13 Te11 1.930340 1_555
O13 Te7 2.258544 1_555
O14 Te12 1.930340 1_555
O14 Te8 2.258544 1_555
O15 Te13 1.930340 1_555
O15 Te9 2.258544 1_555
O16 Te6 1.911584 1_555
O17 Te7 1.911584 1_555
O18 Te8 1.911584 1_555
O19 Te9 1.911584 1_555
O20 Te12 2.015101 1_555
O20 Te10 2.015101 1_555
O21 Te11 2.015101 1_555
O21 Te13 2.015101 1_555
O22 Te13 1.877525 1_555
O22 Te2 2.295030 1_555
O23 Te12 1.877525 1_555
O23 Te3 2.295030 1_555
O24 Te11 1.877525 1_555
O24 Te4 2.295030 1_555
O25 Te10 1.877525 1_555
O25 Te5 2.295030 1_555
O26 Te0 1.904209 1_565
O26 Te11 2.417839 1_555
O27 Te1 1.904209 1_555
O27 Te10 2.417839 1_555
O28 Te0 1.904209 1_555
O28 Te13 2.417839 1_555
O29 Te1 1.904209 1_565
O29 Te12 2.417839 1_555
O30 Te2 1.942080 1_655
O30 Te0 2.125823 1_555
O31 Te3 1.942080 1_455
O31 Te1 2.125823 1_565
O32 Te4 1.942080 1_655
O32 Te0 2.125823 1_565
O33 Te5 1.942080 1_455
O33 Te1 2.125823 1_555
