# generated using pymatgen
data_Sm2ReO5
_symmetry_space_group_name_H-M   'P 1'
_cell_length_a   8.64928294
_cell_length_b   8.64928294
_cell_length_c   5.76058773
_cell_angle_alpha   90.00000000
_cell_angle_beta   90.00000000
_cell_angle_gamma   90.00000000
_symmetry_Int_Tables_number   1
_chemical_formula_structural   Sm2ReO5
_chemical_formula_sum   'Sm8 Re4 O20'
_cell_volume   430.95011750
_cell_formula_units_Z   4
loop_
 _symmetry_equiv_pos_site_id
 _symmetry_equiv_pos_as_xyz
  1  'x, y, z'
loop_
 _atom_site_type_symbol
 _atom_site_label
 _atom_site_symmetry_multiplicity
 _atom_site_fract_x
 _atom_site_fract_y
 _atom_site_fract_z
 _atom_site_occupancy
  Sm  Sm0  1  0.35773047  0.64995217  0.24934591  1
  Sm  Sm1  1  0.14995217  0.14226953  0.24934591  1
  Sm  Sm2  1  0.85004783  0.85773047  0.24934591  1
  Sm  Sm3  1  0.64226953  0.35004783  0.24934591  1
  Sm  Sm4  1  0.85773047  0.14995217  0.75065409  1
  Sm  Sm5  1  0.64995217  0.64226953  0.75065409  1
  Sm  Sm6  1  0.35004783  0.35773047  0.75065409  1
  Sm  Sm7  1  0.14226953  0.85004783  0.75065409  1
  Re  Re0  1  0.00000000  0.50000000  0.15281665  1
  Re  Re1  1  0.50000000  0.00000000  0.84718335  1
  Re  Re2  1  0.00000000  0.50000000  0.54275689  1
  Re  Re3  1  0.50000000  0.00000000  0.45724311  1
  O  O0  1  0.70026687  0.08951735  0.39558483  1
  O  O1  1  0.58951735  0.79973313  0.39558483  1
  O  O2  1  0.41048265  0.20026687  0.39558483  1
  O  O3  1  0.29973313  0.91048265  0.39558483  1
  O  O4  1  0.79973313  0.41048265  0.60441517  1
  O  O5  1  0.91048265  0.70026687  0.60441517  1
  O  O6  1  0.08951735  0.29973313  0.60441517  1
  O  O7  1  0.20026687  0.58951735  0.60441517  1
  O  O8  1  0.70063627  0.90905985  0.89987395  1
  O  O9  1  0.40905985  0.79936373  0.89987395  1
  O  O10  1  0.59094015  0.20063627  0.89987395  1
  O  O11  1  0.29936373  0.09094015  0.89987395  1
  O  O12  1  0.50000000  0.50000000  0.00000000  1
  O  O13  1  0.00000000  0.00000000  0.00000000  1
  O  O14  1  0.50000000  0.50000000  0.50000000  1
  O  O15  1  0.00000000  0.00000000  0.50000000  1
  O  O16  1  0.20063627  0.40905985  0.10012605  1
  O  O17  1  0.90905985  0.29936373  0.10012605  1
  O  O18  1  0.09094015  0.70063627  0.10012605  1
  O  O19  1  0.79936373  0.59094015  0.10012605  1
loop_
_geom_bond_atom_site_label_1
_geom_bond_atom_site_label_2
_geom_bond_distance
_geom_bond_site_symmetry_2
O0 Re3 1.930294 1_555
O0 Sm3 2.457465 1_555
O0 Sm4 2.512335 1_555
O0 Sm2 2.531240 1_545
O1 Re3 1.930294 1_565
O1 Sm2 2.457465 1_555
O1 Sm5 2.512335 1_555
O1 Sm0 2.531240 1_555
O2 Re3 1.930294 1_555
O2 Sm1 2.457465 1_555
O2 Sm6 2.512335 1_555
O2 Sm3 2.531240 1_555
O3 Re3 1.930294 1_565
O3 Sm0 2.457465 1_555
O3 Sm7 2.512335 1_555
O3 Sm1 2.531240 1_565
O4 Re2 1.930294 1_655
O4 Sm4 2.457465 1_555
O4 Sm3 2.512335 1_555
O4 Sm5 2.531240 1_555
O5 Re2 1.930294 1_655
O5 Sm5 2.457465 1_555
O5 Sm2 2.512335 1_555
O5 Sm7 2.531240 1_655
O6 Re2 1.930294 1_555
O6 Sm6 2.457465 1_555
O6 Sm1 2.512335 1_555
O6 Sm4 2.531240 1_455
O7 Re2 1.930294 1_555
O7 Sm7 2.457465 1_555
O7 Sm0 2.512335 1_555
O7 Sm6 2.531240 1_555
O8 Re1 1.929324 1_565
O8 Sm2 2.433101 1_556
O8 Sm5 2.501168 1_555
O8 Sm4 2.631781 1_565
O9 Re1 1.929324 1_565
O9 Sm0 2.433101 1_556
O9 Sm7 2.501168 1_555
O9 Sm5 2.631781 1_555
O10 Re1 1.929324 1_555
O10 Sm3 2.433101 1_556
O10 Sm4 2.501168 1_555
O10 Sm6 2.631781 1_555
O11 Re1 1.929324 1_555
O11 Sm1 2.433101 1_556
O11 Sm6 2.501168 1_555
O11 Sm7 2.631781 1_545
O12 Sm6 2.293369 1_554
O12 Sm3 2.293369 1_555
O12 Sm5 2.293369 1_554
O12 Sm0 2.293369 1_555
O13 Sm4 2.293369 1_454
O13 Sm1 2.293369 1_555
O13 Sm2 2.293369 1_445
O13 Sm7 2.293369 1_544
O14 Sm3 2.298096 1_555
O14 Sm0 2.298096 1_555
O14 Sm6 2.298096 1_555
O14 Sm5 2.298096 1_555
O15 Sm4 2.298096 1_455
O15 Sm1 2.298096 1_555
O15 Sm7 2.298096 1_545
O15 Sm2 2.298096 1_445
O16 Re0 1.929324 1_555
O16 Sm6 2.433101 1_554
O16 Sm1 2.501168 1_555
O16 Sm0 2.631781 1_555
O17 Re0 1.929324 1_655
O17 Sm4 2.433101 1_554
O17 Sm3 2.501168 1_555
O17 Sm1 2.631781 1_655
O18 Re0 1.929324 1_555
O18 Sm7 2.433101 1_554
O18 Sm0 2.501168 1_555
O18 Sm2 2.631781 1_455
O19 Re0 1.929324 1_655
O19 Sm5 2.433101 1_554
O19 Sm2 2.501168 1_555
O19 Sm3 2.631781 1_555
