# generated using pymatgen
data_NdAl2Pt3
_symmetry_space_group_name_H-M   'P 1'
_cell_length_a   5.58176648
_cell_length_b   5.58176648
_cell_length_c   3.95632340
_cell_angle_alpha   90.00000000
_cell_angle_beta   90.00000000
_cell_angle_gamma   119.99999835
_symmetry_Int_Tables_number   1
_chemical_formula_structural   NdAl2Pt3
_chemical_formula_sum   'Nd1 Al2 Pt3'
_cell_volume   106.74947562
_cell_formula_units_Z   1
loop_
 _symmetry_equiv_pos_site_id
 _symmetry_equiv_pos_as_xyz
  1  'x, y, z'
loop_
 _atom_site_type_symbol
 _atom_site_label
 _atom_site_symmetry_multiplicity
 _atom_site_fract_x
 _atom_site_fract_y
 _atom_site_fract_z
 _atom_site_occupancy
  Nd  Nd0  1  0.00000000  0.00000000  -0.00000000  1
  Al  Al0  1  0.66666700  0.33333300  0.00000000  1
  Al  Al1  1  0.33333300  0.66666700  -0.00000000  1
  Pt  Pt0  1  0.50000000  0.50000000  0.50000000  1
  Pt  Pt1  1  0.50000000  0.00000000  0.50000000  1
  Pt  Pt2  1  0.00000000  0.50000000  0.50000000  1
loop_
_geom_bond_atom_site_label_1
_geom_bond_atom_site_label_2
_geom_bond_distance
_geom_bond_site_symmetry_2
Nd0 Pt2 3.420841 1_545
Nd0 Pt2 3.420841 1_544
Nd0 Pt1 3.420841 1_454
Nd0 Pt1 3.420841 1_555
Nd0 Pt1 3.420841 1_455
Nd0 Pt2 3.420841 1_554
Nd0 Pt1 3.420841 1_554
Nd0 Pt2 3.420841 1_555
Nd0 Pt0 3.420841 1_444
Nd0 Pt0 3.420841 1_554
Nd0 Pt0 3.420841 1_555
Nd0 Pt0 3.420841 1_445
Al0 Pt1 2.551365 1_555
Al0 Pt1 2.551365 1_554
Al0 Pt2 2.551365 1_655
Al0 Pt2 2.551365 1_654
Al0 Pt0 2.551368 1_554
Al0 Pt0 2.551368 1_555
Al0 Nd0 3.222631 1_655
Al0 Nd0 3.222636 1_555
Al0 Nd0 3.222636 1_665
Al1 Pt1 2.551365 1_565
Al1 Pt2 2.551365 1_554
Al1 Pt2 2.551365 1_555
Al1 Pt1 2.551365 1_564
Al1 Pt0 2.551368 1_554
Al1 Pt0 2.551368 1_555
Al1 Nd0 3.222631 1_565
Al1 Nd0 3.222636 1_555
Al1 Nd0 3.222636 1_665
