# generated using pymatgen
data_KNa(BiO3)2
_symmetry_space_group_name_H-M   'P 1'
_cell_length_a   4.25510266
_cell_length_b   4.25510266
_cell_length_c   8.52905081
_cell_angle_alpha   90.00000000
_cell_angle_beta   90.00000000
_cell_angle_gamma   90.00000000
_symmetry_Int_Tables_number   1
_chemical_formula_structural   KNa(BiO3)2
_chemical_formula_sum   'K1 Na1 Bi2 O6'
_cell_volume   154.42612952
_cell_formula_units_Z   1
loop_
 _symmetry_equiv_pos_site_id
 _symmetry_equiv_pos_as_xyz
  1  'x, y, z'
loop_
 _atom_site_type_symbol
 _atom_site_label
 _atom_site_symmetry_multiplicity
 _atom_site_fract_x
 _atom_site_fract_y
 _atom_site_fract_z
 _atom_site_occupancy
  K  K0  1  0.50000000  0.50000000  0.50000000  1
  Na  Na0  1  0.50000000  0.50000000  -0.00000000  1
  Bi  Bi0  1  -0.00000000  -0.00000000  0.75069951  1
  Bi  Bi1  1  -0.00000000  0.00000000  0.24930049  1
  O  O0  1  0.50000000  -0.00000000  0.75096672  1
  O  O1  1  0.50000000  0.00000000  0.24903328  1
  O  O2  1  -0.00000000  0.00000000  0.50000000  1
  O  O3  1  -0.00000000  0.00000000  0.00000000  1
  O  O4  1  -0.00000000  0.50000000  0.75096672  1
  O  O5  1  -0.00000000  0.50000000  0.24903328  1
loop_
_geom_bond_atom_site_label_1
_geom_bond_atom_site_label_2
_geom_bond_distance
_geom_bond_site_symmetry_2
K0 O2 3.008812 1_655
K0 O2 3.008812 1_555
K0 O2 3.008812 1_565
K0 O2 3.008812 1_665
K0 O1 3.017988 1_565
K0 O0 3.017988 1_555
K0 O1 3.017988 1_555
K0 O4 3.017988 1_555
K0 O4 3.017988 1_655
K0 O0 3.017988 1_565
K0 O5 3.017988 1_555
K0 O5 3.017988 1_655
Na0 O4 3.006314 1_654
Na0 O5 3.006314 1_555
Na0 O0 3.006314 1_554
Na0 O4 3.006314 1_554
Na0 O1 3.006314 1_555
Na0 O0 3.006314 1_564
Na0 O5 3.006314 1_655
Na0 O1 3.006314 1_565
Na0 O3 3.008812 1_555
Na0 O3 3.008812 1_565
Na0 O3 3.008812 1_665
Na0 O3 3.008812 1_655
Bi0 O3 2.126297 1_556
Bi0 O0 2.127553 1_455
Bi0 O4 2.127553 1_545
Bi0 O0 2.127553 1_555
Bi0 O4 2.127553 1_555
Bi0 O2 2.138229 1_555
Bi1 O3 2.126297 1_555
Bi1 O5 2.127553 1_555
Bi1 O5 2.127553 1_545
Bi1 O1 2.127553 1_455
Bi1 O1 2.127553 1_555
Bi1 O2 2.138229 1_555
