# generated using pymatgen
data_Ca2W3O8
_symmetry_space_group_name_H-M   'P 1'
_cell_length_a   6.52036400
_cell_length_b   6.52036462
_cell_length_c   10.32126300
_cell_angle_alpha   90.00000000
_cell_angle_beta   90.00000000
_cell_angle_gamma   120.00000702
_symmetry_Int_Tables_number   1
_chemical_formula_structural   Ca2W3O8
_chemical_formula_sum   'Ca4 W6 O16'
_cell_volume   380.02062555
_cell_formula_units_Z   2
loop_
 _symmetry_equiv_pos_site_id
 _symmetry_equiv_pos_as_xyz
  1  'x, y, z'
loop_
 _atom_site_type_symbol
 _atom_site_label
 _atom_site_symmetry_multiplicity
 _atom_site_fract_x
 _atom_site_fract_y
 _atom_site_fract_z
 _atom_site_occupancy
  Ca  Ca0  1  0.66666700  0.33333400  0.02988700  1
  Ca  Ca1  1  0.33333300  0.66666600  0.52988800  1
  Ca  Ca2  1  0.66666700  0.33333400  0.41709900  1
  Ca  Ca3  1  0.33333300  0.66666600  0.91710000  1
  W  W0  1  0.67113200  0.83556700  0.24511700  1
  W  W1  1  0.83556800  0.16443400  0.74511700  1
  W  W2  1  0.16443400  0.32886900  0.24511700  1
  W  W3  1  0.83556600  0.67113200  0.74511700  1
  W  W4  1  0.32886900  0.16443400  0.74511700  1
  W  W5  1  0.16443400  0.83556700  0.24511700  1
  O  O0  1  0.84067700  0.15932400  0.15457700  1
  O  O1  1  0.68135400  0.84067700  0.65457600  1
  O  O2  1  0.15932400  0.31864700  0.65457600  1
  O  O3  1  0.84067600  0.68135400  0.15457700  1
  O  O4  1  0.31864600  0.15932400  0.15457700  1
  O  O5  1  0.15932400  0.84067700  0.65457600  1
  O  O6  1  0.52484900  0.47515000  0.85418800  1
  O  O7  1  0.04969900  0.52484900  0.35418700  1
  O  O8  1  0.47515100  0.95030200  0.35418700  1
  O  O9  1  0.52484900  0.04969900  0.85418800  1
  O  O10  1  0.00000000  0.00000000  0.34653800  1
  O  O11  1  0.00000000  0.00000000  0.84653800  1
  O  O12  1  0.33333300  0.66666600  0.13833100  1
  O  O13  1  0.95030000  0.47515000  0.85418800  1
  O  O14  1  0.47515000  0.52484900  0.35418700  1
  O  O15  1  0.66666700  0.33333400  0.63833100  1
loop_
_geom_bond_atom_site_label_1
_geom_bond_atom_site_label_2
_geom_bond_distance
_geom_bond_site_symmetry_2
Ca0 O3 2.349100 1_555
Ca0 O0 2.349100 1_555
Ca0 O4 2.349105 1_555
Ca0 O13 2.419449 1_554
Ca0 O6 2.419453 1_554
Ca0 O9 2.419456 1_554
Ca1 O2 2.349084 1_555
Ca1 O5 2.349089 1_555
Ca1 O1 2.349093 1_555
Ca1 O7 2.419468 1_555
Ca1 O14 2.419468 1_555
Ca1 O8 2.419475 1_555
Ca2 O7 2.258272 1_655
Ca2 O8 2.258272 1_545
Ca2 O14 2.258272 1_555
Ca2 O15 2.283394 1_555
Ca3 O6 2.258272 1_555
Ca3 O13 2.258277 1_455
Ca3 O9 2.258277 1_565
Ca3 O12 2.283383 1_556
O0 W2 2.053789 1_655
O0 W0 2.053789 1_545
O1 W1 2.053793 1_565
O1 W3 2.053794 1_555
O2 W1 2.053788 1_455
O2 W4 2.053799 1_555
O3 W0 2.053789 1_555
O3 W5 2.053794 1_655
O4 W5 2.053789 1_545
O4 W2 2.053789 1_555
O5 W4 2.053794 1_565
O5 W3 2.053798 1_455
O6 W4 2.101409 1_555
O6 W3 2.101415 1_555
O7 W2 2.101400 1_555
O7 W5 2.101415 1_555
O8 W0 2.101405 1_555
O8 W5 2.101410 1_555
O9 W4 2.101405 1_555
O9 W1 2.101425 1_555
O10 W5 2.131759 1_545
O10 W0 2.131764 1_445
O10 W2 2.131769 1_555
O11 W1 2.131754 1_455
O11 W3 2.131764 1_445
O11 W4 2.131769 1_555
O12 W2 2.203003 1_555
O12 W0 2.203013 1_555
O12 W5 2.203018 1_555
O13 W3 2.101411 1_555
O13 W1 2.101413 1_555
O14 W2 2.101404 1_555
O14 W0 2.101414 1_555
O15 W4 2.203008 1_555
O15 W3 2.203008 1_555
O15 W1 2.203023 1_555
