# generated using pymatgen
data_B
_symmetry_space_group_name_H-M   'P 1'
_cell_length_a   7.27084570
_cell_length_b   3.40486758
_cell_length_c   3.40486672
_cell_angle_alpha   120.00002756
_cell_angle_beta   90.00000000
_cell_angle_gamma   90.00000000
_symmetry_Int_Tables_number   1
_chemical_formula_structural   B
_chemical_formula_sum   B8
_cell_volume   72.99881036
_cell_formula_units_Z   8
loop_
 _symmetry_equiv_pos_site_id
 _symmetry_equiv_pos_as_xyz
  1  'x, y, z'
loop_
 _atom_site_type_symbol
 _atom_site_label
 _atom_site_symmetry_multiplicity
 _atom_site_fract_x
 _atom_site_fract_y
 _atom_site_fract_z
 _atom_site_occupancy
  B  B0_0  1  0.00000000  0.00000000  0.00000000  1
  B  B0_1  1  0.00000000  0.00000000  0.50000000  1
  B  B0_2  1  0.00000000  0.50000000  0.00000000  1
  B  B0_3  1  0.00000000  0.50000000  0.50000000  1
  B  B0_4  1  0.50000000  0.00000000  0.00000000  1
  B  B0_5  1  0.50000000  0.00000000  0.50000000  1
  B  B0_6  1  0.50000000  0.50000000  0.00000000  1
  B  B0_7  1  0.50000000  0.50000000  0.50000000  1
loop_
_geom_bond_atom_site_label_1
_geom_bond_atom_site_label_2
_geom_bond_distance
_geom_bond_site_symmetry_2
B0_0 B0_3 1.702433 1_544
B0_0 B0_3 1.702433 1_555
B0_0 B0_1 1.702433 1_555
B0_0 B0_1 1.702433 1_554
B0_0 B0_2 1.702434 1_555
B0_0 B0_2 1.702434 1_545
B0_1 B0_2 1.702433 1_556
B0_1 B0_2 1.702433 1_545
B0_1 B0_3 1.702434 1_545
B0_1 B0_3 1.702434 1_555
B0_2 B0_3 1.702433 1_555
B0_2 B0_3 1.702433 1_554
B0_4 B0_7 1.702433 1_555
B0_4 B0_7 1.702433 1_544
B0_4 B0_5 1.702433 1_555
B0_4 B0_5 1.702433 1_554
B0_4 B0_6 1.702434 1_545
B0_4 B0_6 1.702434 1_555
B0_5 B0_6 1.702433 1_545
B0_5 B0_6 1.702433 1_556
B0_5 B0_7 1.702434 1_555
B0_5 B0_7 1.702434 1_545
B0_6 B0_7 1.702433 1_554
B0_6 B0_7 1.702433 1_555
