# generated using pymatgen
data_Ba2Dy2Co4O11
_symmetry_space_group_name_H-M   'P 1'
_cell_length_a   3.92521200
_cell_length_b   7.70064700
_cell_length_c   7.79406600
_cell_angle_alpha   90.00000000
_cell_angle_beta   90.00000000
_cell_angle_gamma   90.00000000
_symmetry_Int_Tables_number   1
_chemical_formula_structural   Ba2Dy2Co4O11
_chemical_formula_sum   'Ba2 Dy2 Co4 O11'
_cell_volume   235.58867662
_cell_formula_units_Z   1
loop_
 _symmetry_equiv_pos_site_id
 _symmetry_equiv_pos_as_xyz
  1  'x, y, z'
loop_
 _atom_site_type_symbol
 _atom_site_label
 _atom_site_symmetry_multiplicity
 _atom_site_fract_x
 _atom_site_fract_y
 _atom_site_fract_z
 _atom_site_occupancy
  Ba  Ba0  1  0.50000000  0.00000000  0.24918200  1
  Ba  Ba1  1  0.50000000  0.00000000  0.75081800  1
  Dy  Dy0  1  0.50000000  0.50000000  0.22863600  1
  Dy  Dy1  1  0.50000000  0.50000000  0.77136400  1
  Co  Co0  1  0.00000000  0.25537300  0.00000000  1
  Co  Co1  1  0.00000000  0.74462700  0.00000000  1
  Co  Co2  1  0.00000000  0.26003600  0.50000000  1
  Co  Co3  1  0.00000000  0.73996400  0.50000000  1
  O  O0  1  0.50000000  0.31830400  0.50000000  1
  O  O1  1  0.50000000  0.68169600  0.50000000  1
  O  O2  1  0.50000000  0.28012400  0.00000000  1
  O  O3  1  0.50000000  0.71987600  0.00000000  1
  O  O4  1  0.00000000  0.00000000  0.50000000  1
  O  O5  1  0.00000000  0.50000000  0.00000000  1
  O  O6  1  0.00000000  0.00000000  0.00000000  1
  O  O7  1  0.00000000  0.30290700  0.26855700  1
  O  O8  1  0.00000000  0.69709300  0.73144300  1
  O  O9  1  0.00000000  0.69709300  0.26855700  1
  O  O10  1  0.00000000  0.30290700  0.73144300  1
loop_
_geom_bond_atom_site_label_1
_geom_bond_atom_site_label_2
_geom_bond_distance
_geom_bond_site_symmetry_2
Ba0 O6 2.761111 1_655
Ba0 O6 2.761111 1_555
Ba0 O4 2.770095 1_555
Ba0 O4 2.770095 1_655
Ba0 O3 2.902610 1_545
Ba0 O2 2.902610 1_555
Ba0 O7 3.052139 1_555
Ba0 O7 3.052139 1_655
Ba0 O9 3.052139 1_545
Ba0 O9 3.052139 1_645
Ba0 O1 3.135239 1_545
Ba0 O0 3.135239 1_555
Ba1 O6 2.761111 1_556
Ba1 O6 2.761111 1_656
Ba1 O4 2.770095 1_555
Ba1 O4 2.770095 1_655
Ba1 O3 2.902610 1_546
Ba1 O2 2.902610 1_556
Ba1 O10 3.052139 1_655
Ba1 O10 3.052139 1_555
Ba1 O8 3.052139 1_545
Ba1 O8 3.052139 1_645
Ba1 O1 3.135239 1_545
Ba1 O0 3.135239 1_555
Dy0 O2 2.458134 1_555
Dy0 O3 2.458134 1_555
Dy0 O9 2.500436 1_655
Dy0 O9 2.500436 1_555
Dy0 O7 2.500436 1_555
Dy0 O7 2.500436 1_655
Dy0 O0 2.535950 1_555
Dy0 O1 2.535950 1_555
Dy0 O5 2.650917 1_555
Dy0 O5 2.650917 1_655
Dy1 O2 2.458134 1_556
Dy1 O3 2.458134 1_556
Dy1 O8 2.500436 1_655
Dy1 O8 2.500436 1_555
Dy1 O10 2.500436 1_655
Dy1 O10 2.500436 1_555
Dy1 O0 2.535950 1_555
Dy1 O1 2.535950 1_555
Dy1 O5 2.650917 1_556
Dy1 O5 2.650917 1_656
Co0 O5 1.883786 1_555
Co0 O6 1.966537 1_555
Co0 O2 1.971839 1_555
Co0 O2 1.971839 1_455
Co0 O7 2.124916 1_555
Co0 O10 2.124916 1_554
Co1 O5 1.883786 1_555
Co1 O6 1.966537 1_565
Co1 O3 1.971839 1_555
Co1 O3 1.971839 1_455
Co1 O9 2.124916 1_555
Co1 O8 2.124916 1_554
Co2 O10 1.833843 1_555
Co2 O7 1.833843 1_555
Co2 O4 2.002445 1_555
Co2 O0 2.013245 1_455
Co2 O0 2.013245 1_555
Co3 O8 1.833843 1_555
Co3 O9 1.833843 1_555
Co3 O4 2.002445 1_565
Co3 O1 2.013245 1_455
Co3 O1 2.013245 1_555
