# generated using pymatgen
data_MgV8(OF)8
_symmetry_space_group_name_H-M   'P 1'
_cell_length_a   4.92631587
_cell_length_b   10.52289636
_cell_length_c   5.74835096
_cell_angle_alpha   85.04993622
_cell_angle_beta   95.09364485
_cell_angle_gamma   90.56101114
_symmetry_Int_Tables_number   1
_chemical_formula_structural   MgV8(OF)8
_chemical_formula_sum   'Mg1 V8 O8 F8'
_cell_volume   295.70491188
_cell_formula_units_Z   1
loop_
 _symmetry_equiv_pos_site_id
 _symmetry_equiv_pos_as_xyz
  1  'x, y, z'
loop_
 _atom_site_type_symbol
 _atom_site_label
 _atom_site_symmetry_multiplicity
 _atom_site_fract_x
 _atom_site_fract_y
 _atom_site_fract_z
 _atom_site_occupancy
  Mg  Mg0  1  0.50000000  0.00000000  0.00000000  1
  V  V0  1  0.48376945  0.27131446  0.72501829  1
  V  V1  1  0.50000000  0.00000000  0.50000000  1
  V  V2  1  0.51623055  0.72868554  0.27498171  1
  V  V3  1  0.50000000  0.50000000  0.00000000  1
  V  V4  1  0.96930071  0.23893088  0.24971247  1
  V  V5  1  0.03069929  0.76106912  0.75028753  1
  V  V6  1  0.00000000  0.50000000  0.50000000  1
  V  V7  1  0.00000000  0.00000000  0.00000000  1
  O  O0  1  0.76560922  0.07645181  0.23809744  1
  O  O1  1  0.71980231  0.81900314  0.51824793  1
  O  O2  1  0.71235066  0.56552676  0.27558870  1
  O  O3  1  0.69733766  0.33117159  0.00410032  1
  O  O4  1  0.28764934  0.43447324  0.72441130  1
  O  O5  1  0.30266234  0.66882841  0.99589968  1
  O  O6  1  0.28019769  0.18099686  0.48175207  1
  O  O7  1  0.23439078  0.92354819  0.76190256  1
  F  F0  1  0.81397060  0.58179475  0.76730917  1
  F  F1  1  0.78771300  0.32736034  0.51242547  1
  F  F2  1  0.75830015  0.83607746  0.01642892  1
  F  F3  1  0.71532416  0.09402899  0.76167073  1
  F  F4  1  0.28467584  0.90597101  0.23832927  1
  F  F5  1  0.21228700  0.67263966  0.48757453  1
  F  F6  1  0.24169985  0.16392254  0.98357108  1
  F  F7  1  0.18602940  0.41820525  0.23269083  1
loop_
_geom_bond_atom_site_label_1
_geom_bond_atom_site_label_2
_geom_bond_distance
_geom_bond_site_symmetry_2
Mg0 O7 2.020885 1_544
Mg0 O0 2.020885 1_555
O0 V4 1.977074 1_555
O0 V7 2.083888 1_655
O0 V1 2.178539 1_555
O1 V2 1.956050 1_555
O1 V5 2.002929 1_655
O1 V1 2.190154 1_565
O2 V6 1.920576 1_655
O2 V2 1.977894 1_555
O2 V3 1.989858 1_555
O3 V0 1.984695 1_554
O3 V3 2.030845 1_555
O3 V4 2.045382 1_555
O4 V6 1.920576 1_555
O4 V0 1.977894 1_555
O4 V3 1.989858 1_556
O5 V2 1.984695 1_556
O5 V3 2.030845 1_556
O5 V5 2.045382 1_555
O6 V0 1.956050 1_555
O6 V4 2.002929 1_455
O6 V1 2.190154 1_555
O7 V5 1.977074 1_555
O7 V7 2.083888 1_566
O7 V1 2.178539 1_565
F0 V6 2.106071 1_655
F0 V5 2.157680 1_655
F0 V3 2.250539 1_556
F1 V0 2.065542 1_555
F1 V6 2.086322 1_655
F1 V4 2.108418 1_555
F2 V7 2.086555 1_665
F2 Mg0 2.144072 1_565
F2 V2 2.215078 1_555
F2 V5 2.314725 1_654
F3 Mg0 1.996168 1_556
F3 V7 2.067544 1_656
F3 V1 2.078399 1_555
F3 V0 2.181073 1_555
F4 Mg0 1.996168 1_565
F4 V7 2.067544 1_565
F4 V1 2.078399 1_565
F4 V2 2.181073 1_555
F5 V2 2.065542 1_555
F5 V6 2.086322 1_555
F5 V5 2.108418 1_555
F6 V7 2.086555 1_556
F6 Mg0 2.144072 1_556
F6 V0 2.215078 1_555
F6 V4 2.314725 1_456
F7 V6 2.106071 1_555
F7 V4 2.157680 1_455
F7 V3 2.250539 1_555
