# generated using pymatgen
data_RbMgBO3
_symmetry_space_group_name_H-M   'P 1'
_cell_length_a   7.02225200
_cell_length_b   7.02225200
_cell_length_c   7.02225200
_cell_angle_alpha   90.00000000
_cell_angle_beta   90.00000000
_cell_angle_gamma   90.00000000
_symmetry_Int_Tables_number   1
_chemical_formula_structural   RbMgBO3
_chemical_formula_sum   'Rb4 Mg4 B4 O12'
_cell_volume   346.28145320
_cell_formula_units_Z   4
loop_
 _symmetry_equiv_pos_site_id
 _symmetry_equiv_pos_as_xyz
  1  'x, y, z'
loop_
 _atom_site_type_symbol
 _atom_site_label
 _atom_site_symmetry_multiplicity
 _atom_site_fract_x
 _atom_site_fract_y
 _atom_site_fract_z
 _atom_site_occupancy
  Rb  Rb0  1  0.60859400  0.39140600  0.89140600  1
  Rb  Rb1  1  0.10859400  0.10859400  0.10859400  1
  Rb  Rb2  1  0.89140600  0.60859400  0.39140600  1
  Rb  Rb3  1  0.39140600  0.89140600  0.60859400  1
  Mg  Mg0  1  0.10963400  0.60963400  0.89036600  1
  Mg  Mg1  1  0.60963400  0.89036600  0.10963400  1
  Mg  Mg2  1  0.89036600  0.10963400  0.60963400  1
  Mg  Mg3  1  0.39036600  0.39036600  0.39036600  1
  B  B0  1  0.14712800  0.35287200  0.64712800  1
  B  B1  1  0.35287200  0.64712800  0.14712800  1
  B  B2  1  0.85287200  0.85287200  0.85287200  1
  B  B3  1  0.64712800  0.14712800  0.35287200  1
  O  O0  1  0.00115200  0.34662900  0.77962900  1
  O  O1  1  0.22037100  0.50115200  0.15337100  1
  O  O2  1  0.84662900  0.72037100  0.99884800  1
  O  O3  1  0.50115200  0.15337100  0.22037100  1
  O  O4  1  0.72037100  0.99884800  0.84662900  1
  O  O5  1  0.34662900  0.77962900  0.00115200  1
  O  O6  1  0.99884800  0.84662900  0.72037100  1
  O  O7  1  0.77962900  0.00115200  0.34662900  1
  O  O8  1  0.15337100  0.22037100  0.50115200  1
  O  O9  1  0.49884800  0.65337100  0.27962900  1
  O  O10  1  0.27962900  0.49884800  0.65337100  1
  O  O11  1  0.65337100  0.27962900  0.49884800  1
loop_
_geom_bond_atom_site_label_1
_geom_bond_atom_site_label_2
_geom_bond_distance
_geom_bond_site_symmetry_2
Mg0 O1 2.143831 1_556
Mg0 O2 2.143831 1_455
Mg0 O0 2.143831 1_555
Mg0 O10 2.190880 1_555
Mg0 O6 2.190880 1_455
Mg0 O5 2.190880 1_556
Mg1 O3 2.143831 1_565
Mg1 O4 2.143831 1_554
Mg1 O5 2.143831 1_555
Mg1 O9 2.190880 1_555
Mg1 O2 2.190880 1_554
Mg1 O7 2.190880 1_565
Mg2 O8 2.143831 1_655
Mg2 O6 2.143831 1_545
Mg2 O7 2.143831 1_555
Mg2 O11 2.190880 1_555
Mg2 O4 2.190880 1_545
Mg2 O0 2.190880 1_655
Mg3 O9 2.143831 1_555
Mg3 O10 2.143831 1_555
Mg3 O11 2.143831 1_555
Mg3 O3 2.190880 1_555
Mg3 O8 2.190880 1_555
Mg3 O1 2.190880 1_555
B0 O8 1.385084 1_555
B0 O10 1.385084 1_555
B0 O0 1.385084 1_555
B1 O1 1.385084 1_555
B1 O9 1.385084 1_555
B1 O5 1.385084 1_555
B2 O6 1.385084 1_555
B2 O4 1.385084 1_555
B2 O2 1.385084 1_555
B3 O11 1.385084 1_555
B3 O3 1.385084 1_555
B3 O7 1.385084 1_555
O0 Rb0 2.883409 1_455
O0 Rb1 2.949533 1_556
O1 Rb1 2.883409 1_555
O1 Rb2 2.949533 1_455
O2 Rb2 2.883409 1_556
O2 Rb0 2.949533 1_555
O3 Rb1 2.883409 1_555
O3 Rb0 2.949533 1_554
O4 Rb0 2.883409 1_565
O4 Rb3 2.949533 1_555
O5 Rb3 2.883409 1_554
O5 Rb1 2.949533 1_565
O6 Rb3 2.883409 1_655
O6 Rb2 2.949533 1_555
O7 Rb2 2.883409 1_545
O7 Rb1 2.949533 1_655
O8 Rb1 2.883409 1_555
O8 Rb3 2.949533 1_545
O9 Rb2 2.883409 1_555
O9 Rb3 2.949533 1_555
O10 Rb3 2.883409 1_555
O10 Rb0 2.949533 1_555
O11 Rb0 2.883409 1_555
O11 Rb2 2.949533 1_555
