# generated using pymatgen
data_NaNbO3
_symmetry_space_group_name_H-M   'P 1'
_cell_length_a   7.92643002
_cell_length_b   7.96962381
_cell_length_c   23.70330800
_cell_angle_alpha   90.00000000
_cell_angle_beta   90.00000000
_cell_angle_gamma   90.00000000
_symmetry_Int_Tables_number   1
_chemical_formula_structural   NaNbO3
_chemical_formula_sum   'Na24 Nb24 O72'
_cell_volume   1497.35373891
_cell_formula_units_Z   24
loop_
 _symmetry_equiv_pos_site_id
 _symmetry_equiv_pos_as_xyz
  1  'x, y, z'
loop_
 _atom_site_type_symbol
 _atom_site_label
 _atom_site_symmetry_multiplicity
 _atom_site_fract_x
 _atom_site_fract_y
 _atom_site_fract_z
 _atom_site_occupancy
  Na  Na0  1  0.75000000  0.48838951  0.49844094  1
  Na  Na1  1  0.75000000  0.98838951  0.00155906  1
  Na  Na2  1  0.25000000  0.51161049  0.50155906  1
  Na  Na3  1  0.25000000  0.01161049  0.99844094  1
  Na  Na4  1  0.75000000  0.49670960  0.33444851  1
  Na  Na5  1  0.75000000  0.99670960  0.16555149  1
  Na  Na6  1  0.25000000  0.50329040  0.66555149  1
  Na  Na7  1  0.25000000  0.00329040  0.83444851  1
  Na  Na8  1  0.75000000  0.49475584  0.16889432  1
  Na  Na9  1  0.75000000  0.99475584  0.33110568  1
  Na  Na10  1  0.25000000  0.50524416  0.83110568  1
  Na  Na11  1  0.25000000  0.00524416  0.66889432  1
  Na  Na12  1  0.75000000  0.49574476  0.00124490  1
  Na  Na13  1  0.75000000  0.99574476  0.49875510  1
  Na  Na14  1  0.25000000  0.50425524  0.99875510  1
  Na  Na15  1  0.25000000  0.00425524  0.50124490  1
  Na  Na16  1  0.75000000  0.50148154  0.83337978  1
  Na  Na17  1  0.75000000  0.00148154  0.66662022  1
  Na  Na18  1  0.25000000  0.49851846  0.16662022  1
  Na  Na19  1  0.25000000  0.99851846  0.33337978  1
  Na  Na20  1  0.75000000  0.49196152  0.66370974  1
  Na  Na21  1  0.75000000  0.99196152  0.83629026  1
  Na  Na22  1  0.25000000  0.50803848  0.33629026  1
  Na  Na23  1  0.25000000  0.00803848  0.16370974  1
  Nb  Nb0  1  0.99759058  0.75922711  0.41555873  1
  Nb  Nb1  1  0.50240942  0.25922711  0.08444127  1
  Nb  Nb2  1  0.49759058  0.24077289  0.58444127  1
  Nb  Nb3  1  0.00240942  0.74077289  0.91555873  1
  Nb  Nb4  1  0.00240942  0.24077289  0.58444127  1
  Nb  Nb5  1  0.49759058  0.74077289  0.91555873  1
  Nb  Nb6  1  0.50240942  0.75922711  0.41555873  1
  Nb  Nb7  1  0.99759058  0.25922711  0.08444127  1
  Nb  Nb8  1  0.99791174  0.74083207  0.58232712  1
  Nb  Nb9  1  0.50208826  0.24083207  0.91767288  1
  Nb  Nb10  1  0.49791174  0.25916793  0.41767288  1
  Nb  Nb11  1  0.00208826  0.75916793  0.08232712  1
  Nb  Nb12  1  0.00208826  0.25916793  0.41767288  1
  Nb  Nb13  1  0.49791174  0.75916793  0.08232712  1
  Nb  Nb14  1  0.50208826  0.74083207  0.58232712  1
  Nb  Nb15  1  0.99791174  0.24083207  0.91767288  1
  Nb  Nb16  1  0.99921327  0.75896044  0.74900734  1
  Nb  Nb17  1  0.50078673  0.25896044  0.75099266  1
  Nb  Nb18  1  0.49921327  0.24103956  0.25099266  1
  Nb  Nb19  1  0.00078673  0.74103956  0.24900734  1
  Nb  Nb20  1  0.00078673  0.24103956  0.25099266  1
  Nb  Nb21  1  0.49921327  0.74103956  0.24900734  1
  Nb  Nb22  1  0.50078673  0.75896044  0.74900734  1
  Nb  Nb23  1  0.99921327  0.25896044  0.75099266  1
  O  O0  1  0.75000000  0.72996974  0.90576541  1
  O  O1  1  0.75000000  0.22996974  0.59423459  1
  O  O2  1  0.25000000  0.27003026  0.09423459  1
  O  O3  1  0.25000000  0.77003026  0.40576541  1
  O  O4  1  0.75000000  0.77990135  0.09212488  1
  O  O5  1  0.75000000  0.27990135  0.40787512  1
  O  O6  1  0.25000000  0.22009865  0.90787512  1
  O  O7  1  0.25000000  0.72009865  0.59212488  1
  O  O8  1  0.75000000  0.75723576  0.23998642  1
  O  O9  1  0.75000000  0.25723576  0.26001358  1
  O  O10  1  0.25000000  0.24276424  0.76001358  1
  O  O11  1  0.25000000  0.74276424  0.73998642  1
  O  O12  1  0.75000000  0.71851233  0.42867532  1
  O  O13  1  0.75000000  0.21851233  0.07132468  1
  O  O14  1  0.25000000  0.28148767  0.57132468  1
  O  O15  1  0.25000000  0.78148767  0.92867532  1
  O  O16  1  0.75000000  0.79037749  0.57527395  1
  O  O17  1  0.75000000  0.29037749  0.92472605  1
  O  O18  1  0.25000000  0.20962251  0.42472605  1
  O  O19  1  0.25000000  0.70962251  0.07527395  1
  O  O20  1  0.75000000  0.75297604  0.76190000  1
  O  O21  1  0.75000000  0.25297604  0.73810000  1
  O  O22  1  0.25000000  0.24702396  0.23810000  1
  O  O23  1  0.25000000  0.74702396  0.26190000  1
  O  O24  1  0.03003355  0.78492464  0.50007699  1
  O  O25  1  0.46996645  0.28492464  0.99992301  1
  O  O26  1  0.53003355  0.21507536  0.49992301  1
  O  O27  1  0.96996645  0.71507536  0.00007699  1
  O  O28  1  0.96996645  0.21507536  0.49992301  1
  O  O29  1  0.53003355  0.71507536  0.00007699  1
  O  O30  1  0.46996645  0.78492464  0.50007699  1
  O  O31  1  0.03003355  0.28492464  0.99992301  1
  O  O32  1  0.96850618  0.71706858  0.66681657  1
  O  O33  1  0.53149382  0.21706858  0.83318343  1
  O  O34  1  0.46850618  0.28293142  0.33318343  1
  O  O35  1  0.03149382  0.78293142  0.16681657  1
  O  O36  1  0.03149382  0.28293142  0.33318343  1
  O  O37  1  0.46850618  0.78293142  0.16681657  1
  O  O38  1  0.53149382  0.71706858  0.66681657  1
  O  O39  1  0.96850618  0.21706858  0.83318343  1
  O  O40  1  0.03104251  0.78969586  0.83382627  1
  O  O41  1  0.46895749  0.28969586  0.66617373  1
  O  O42  1  0.53104251  0.21030414  0.16617373  1
  O  O43  1  0.96895749  0.71030414  0.33382627  1
  O  O44  1  0.96895749  0.21030414  0.16617373  1
  O  O45  1  0.53104251  0.71030414  0.33382627  1
  O  O46  1  0.46895749  0.78969586  0.83382627  1
  O  O47  1  0.03104251  0.28969586  0.66617373  1
  O  O48  1  0.03106351  0.49566392  0.42846672  1
  O  O49  1  0.46893649  0.99566392  0.07153328  1
  O  O50  1  0.53106351  0.50433608  0.57153328  1
  O  O51  1  0.96893649  0.00433608  0.92846672  1
  O  O52  1  0.96893649  0.50433608  0.57153328  1
  O  O53  1  0.53106351  0.00433608  0.92846672  1
  O  O54  1  0.46893649  0.49566392  0.42846672  1
  O  O55  1  0.03106351  0.99566392  0.07153328  1
  O  O56  1  0.00010644  0.49973264  0.76287373  1
  O  O57  1  0.49989356  -0.00026736  0.73712627  1
  O  O58  1  0.50010644  0.50026736  0.23712627  1
  O  O59  1  -0.00010644  0.00026736  0.26287373  1
  O  O60  1  -0.00010644  0.50026736  0.23712627  1
  O  O61  1  0.50010644  0.00026736  0.26287373  1
  O  O62  1  0.49989356  0.49973264  0.76287373  1
  O  O63  1  0.00010644  -0.00026736  0.73712627  1
  O  O64  1  0.03093184  0.50384505  0.90488055  1
  O  O65  1  0.46906816  0.00384505  0.59511945  1
  O  O66  1  0.53093184  0.49615495  0.09511945  1
  O  O67  1  0.96906816  0.99615495  0.40488055  1
  O  O68  1  0.96906816  0.49615495  0.09511945  1
  O  O69  1  0.53093184  0.99615495  0.40488055  1
  O  O70  1  0.46906816  0.50384505  0.90488055  1
  O  O71  1  0.03093184  0.00384505  0.59511945  1
loop_
_geom_bond_atom_site_label_1
_geom_bond_atom_site_label_2
_geom_bond_distance
_geom_bond_site_symmetry_2
Na0 O52 2.455478 1_555
Na0 O50 2.455478 1_555
Na0 O12 2.469448 1_555
Na0 O5 2.714624 1_555
Na0 O54 2.778059 1_555
Na0 O48 2.778059 1_655
Na0 O28 2.790304 1_555
Na0 O26 2.790304 1_555
Na1 O51 2.455478 1_564
Na1 O53 2.455478 1_564
Na1 O13 2.469448 1_565
Na1 O4 2.714624 1_555
Na1 O49 2.778059 1_555
Na1 O55 2.778059 1_655
Na1 O27 2.790304 1_555
Na1 O29 2.790304 1_555
Na2 O54 2.455478 1_555
Na2 O48 2.455478 1_555
Na2 O14 2.469448 1_555
Na2 O7 2.714624 1_555
Na2 O50 2.778059 1_555
Na2 O52 2.778059 1_455
Na2 O30 2.790304 1_555
Na2 O24 2.790304 1_555
Na3 O55 2.455478 1_546
Na3 O49 2.455478 1_546
Na3 O15 2.469448 1_545
Na3 O6 2.714624 1_555
Na3 O53 2.778059 1_555
Na3 O51 2.778059 1_455
Na3 O31 2.790304 1_555
Na3 O25 2.790304 1_555
Na4 O45 2.431064 1_555
Na4 O43 2.431064 1_555
Na4 O5 2.452498 1_555
Na4 O9 2.599111 1_555
Na4 O36 2.807497 1_655
Na4 O34 2.807497 1_555
Na4 O12 2.848363 1_555
Na5 O44 2.431064 1_565
Na5 O42 2.431064 1_565
Na5 O4 2.452498 1_555
Na5 O8 2.599111 1_555
Na5 O35 2.807497 1_655
Na5 O37 2.807497 1_555
Na5 O13 2.848363 1_565
Na6 O47 2.431064 1_555
Na6 O41 2.431064 1_555
Na6 O7 2.452498 1_555
Na6 O11 2.599111 1_555
Na6 O38 2.807497 1_555
Na6 O32 2.807497 1_455
Na6 O14 2.848363 1_555
Na7 O46 2.431064 1_545
Na7 O40 2.431064 1_545
Na7 O6 2.452498 1_555
Na7 O10 2.599111 1_555
Na7 O33 2.807497 1_555
Na7 O39 2.807497 1_455
Na7 O15 2.848363 1_545
Na8 O66 2.464404 1_555
Na8 O68 2.464404 1_555
Na8 O60 2.557555 1_655
Na8 O58 2.557555 1_555
Na8 O8 2.686173 1_555
Na8 O44 2.855777 1_555
Na8 O42 2.855777 1_555
Na8 O9 2.871951 1_555
Na8 O4 2.911278 1_555
Na9 O69 2.464404 1_555
Na9 O67 2.464404 1_555
Na9 O61 2.557555 1_565
Na9 O59 2.557555 1_665
Na9 O9 2.686173 1_565
Na9 O45 2.855777 1_555
Na9 O43 2.855777 1_555
Na9 O8 2.871951 1_555
Na9 O5 2.911278 1_565
Na10 O64 2.464404 1_555
Na10 O70 2.464404 1_555
Na10 O62 2.557555 1_555
Na10 O56 2.557555 1_555
Na10 O10 2.686173 1_555
Na10 O40 2.855777 1_555
Na10 O46 2.855777 1_555
Na10 O11 2.871951 1_555
Na10 O6 2.911278 1_555
Na11 O71 2.464404 1_555
Na11 O65 2.464404 1_555
Na11 O63 2.557555 1_555
Na11 O57 2.557555 1_555
Na11 O11 2.686173 1_545
Na11 O41 2.855777 1_555
Na11 O47 2.855777 1_555
Na11 O10 2.871951 1_555
Na11 O7 2.911278 1_545
Na12 O17 2.443046 1_554
Na12 O29 2.469042 1_555
Na12 O27 2.469042 1_555
Na12 O13 2.764226 1_555
Na12 O31 2.784031 1_654
Na12 O25 2.784031 1_554
Na12 O68 2.822487 1_555
Na12 O66 2.822487 1_555
Na12 O0 2.933683 1_554
Na13 O16 2.443046 1_555
Na13 O26 2.469042 1_565
Na13 O28 2.469042 1_565
Na13 O12 2.764226 1_555
Na13 O24 2.784031 1_655
Na13 O30 2.784031 1_555
Na13 O67 2.822487 1_555
Na13 O69 2.822487 1_555
Na13 O1 2.933683 1_565
Na14 O19 2.443046 1_556
Na14 O25 2.469042 1_555
Na14 O31 2.469042 1_555
Na14 O15 2.764226 1_555
Na14 O27 2.784031 1_456
Na14 O29 2.784031 1_556
Na14 O70 2.822487 1_555
Na14 O64 2.822487 1_555
Na14 O2 2.933683 1_556
Na15 O18 2.443046 1_555
Na15 O24 2.469042 1_545
Na15 O30 2.469042 1_545
Na15 O14 2.764226 1_555
Na15 O26 2.784031 1_555
Na15 O28 2.784031 1_455
Na15 O65 2.822487 1_555
Na15 O71 2.822487 1_555
Na15 O3 2.933683 1_545
Na16 O0 2.501961 1_555
Na16 O56 2.592934 1_655
Na16 O62 2.592934 1_555
Na16 O20 2.624493 1_555
Na16 O17 2.742019 1_555
Na16 O70 2.798445 1_555
Na16 O64 2.798445 1_655
Na16 O33 2.852634 1_555
Na16 O39 2.852634 1_555
Na16 O21 3.003821 1_555
Na17 O1 2.501961 1_555
Na17 O63 2.592934 1_655
Na17 O57 2.592934 1_555
Na17 O21 2.624493 1_555
Na17 O16 2.742019 1_545
Na17 O65 2.798445 1_555
Na17 O71 2.798445 1_655
Na17 O38 2.852634 1_545
Na17 O32 2.852634 1_545
Na17 O20 3.003821 1_545
Na18 O2 2.501961 1_555
Na18 O60 2.592934 1_555
Na18 O58 2.592934 1_555
Na18 O22 2.624493 1_555
Na18 O19 2.742019 1_555
Na18 O68 2.798445 1_455
Na18 O66 2.798445 1_555
Na18 O37 2.852634 1_555
Na18 O35 2.852634 1_555
Na18 O23 3.003821 1_555
Na19 O3 2.501961 1_555
Na19 O59 2.592934 1_565
Na19 O61 2.592934 1_565
Na19 O23 2.624493 1_555
Na19 O18 2.742019 1_565
Na19 O69 2.798445 1_555
Na19 O67 2.798445 1_455
Na19 O36 2.852634 1_565
Na19 O34 2.852634 1_565
Na19 O22 3.003821 1_565
Na20 O38 2.494726 1_555
Na20 O32 2.494726 1_555
Na20 O21 2.595535 1_555
Na20 O1 2.659241 1_555
Na20 O41 2.750342 1_555
Na20 O47 2.750342 1_655
Na20 O52 2.791956 1_555
Na20 O50 2.791956 1_555
Na21 O39 2.494726 1_565
Na21 O33 2.494726 1_565
Na21 O20 2.595535 1_555
Na21 O0 2.659241 1_555
Na21 O40 2.750342 1_655
Na21 O46 2.750342 1_555
Na21 O51 2.791956 1_565
Na21 O53 2.791956 1_565
Na22 O34 2.494726 1_555
Na22 O36 2.494726 1_555
Na22 O23 2.595535 1_555
Na22 O3 2.659241 1_555
Na22 O45 2.750342 1_555
Na22 O43 2.750342 1_455
Na22 O48 2.791956 1_555
Na22 O54 2.791956 1_555
Na23 O37 2.494726 1_545
Na23 O35 2.494726 1_545
Na23 O22 2.595535 1_555
Na23 O2 2.659241 1_555
Na23 O42 2.750342 1_555
Na23 O44 2.750342 1_455
Na23 O55 2.791956 1_545
Na23 O49 2.791956 1_545
Nb0 O67 1.918482 1_555
Nb0 O43 1.989165 1_555
Nb0 O12 2.013304 1_555
Nb0 O3 2.015967 1_655
Nb0 O24 2.030156 1_655
Nb0 O48 2.139183 1_655
Nb1 O66 1.918482 1_555
Nb1 O42 1.989165 1_555
Nb1 O13 2.013304 1_555
Nb1 O2 2.015967 1_555
Nb1 O25 2.030156 1_554
Nb1 O49 2.139183 1_545
Nb2 O65 1.918482 1_555
Nb2 O41 1.989165 1_555
Nb2 O14 2.013304 1_555
Nb2 O1 2.015967 1_555
Nb2 O26 2.030156 1_555
Nb2 O50 2.139183 1_555
Nb3 O64 1.918482 1_555
Nb3 O40 1.989165 1_555
Nb3 O15 2.013304 1_555
Nb3 O0 2.015967 1_455
Nb3 O27 2.030156 1_456
Nb3 O51 2.139183 1_465
Nb4 O71 1.918482 1_555
Nb4 O47 1.989165 1_555
Nb4 O14 2.013304 1_555
Nb4 O1 2.015967 1_455
Nb4 O28 2.030156 1_455
Nb4 O52 2.139183 1_455
Nb5 O70 1.918482 1_555
Nb5 O46 1.989165 1_555
Nb5 O15 2.013304 1_555
Nb5 O0 2.015967 1_555
Nb5 O29 2.030156 1_556
Nb5 O53 2.139183 1_565
Nb6 O69 1.918482 1_555
Nb6 O45 1.989165 1_555
Nb6 O12 2.013304 1_555
Nb6 O3 2.015967 1_555
Nb6 O30 2.030156 1_555
Nb6 O54 2.139183 1_555
Nb7 O68 1.918482 1_555
Nb7 O44 1.989165 1_555
Nb7 O13 2.013304 1_555
Nb7 O2 2.015967 1_655
Nb7 O31 2.030156 1_654
Nb7 O55 2.139183 1_645
Nb8 O52 1.915886 1_555
Nb8 O24 1.997311 1_655
Nb8 O16 2.011294 1_555
Nb8 O7 2.018386 1_655
Nb8 O32 2.025073 1_555
Nb8 O71 2.134044 1_665
Nb9 O53 1.915886 1_555
Nb9 O25 1.997311 1_555
Nb9 O17 2.011294 1_555
Nb9 O6 2.018386 1_555
Nb9 O33 2.025073 1_555
Nb9 O70 2.134044 1_555
Nb10 O54 1.915886 1_555
Nb10 O26 1.997311 1_555
Nb10 O18 2.011294 1_555
Nb10 O5 2.018386 1_555
Nb10 O34 2.025073 1_555
Nb10 O69 2.134044 1_545
Nb11 O55 1.915886 1_555
Nb11 O27 1.997311 1_455
Nb11 O19 2.011294 1_555
Nb11 O4 2.018386 1_455
Nb11 O35 2.025073 1_555
Nb11 O68 2.134044 1_455
Nb12 O48 1.915886 1_555
Nb12 O28 1.997311 1_455
Nb12 O18 2.011294 1_555
Nb12 O5 2.018386 1_455
Nb12 O36 2.025073 1_555
Nb12 O67 2.134044 1_445
Nb13 O49 1.915886 1_555
Nb13 O29 1.997311 1_555
Nb13 O19 2.011294 1_555
Nb13 O4 2.018386 1_555
Nb13 O37 2.025073 1_555
Nb13 O66 2.134044 1_555
Nb14 O50 1.915886 1_555
Nb14 O30 1.997311 1_555
Nb14 O16 2.011294 1_555
Nb14 O7 2.018386 1_555
Nb14 O38 2.025073 1_555
Nb14 O65 2.134044 1_565
Nb15 O51 1.915886 1_555
Nb15 O31 1.997311 1_655
Nb15 O17 2.011294 1_555
Nb15 O6 2.018386 1_655
Nb15 O39 2.025073 1_555
Nb15 O64 2.134044 1_655
Nb16 O63 1.939433 1_665
Nb16 O32 1.991523 1_555
Nb16 O20 1.999439 1_555
Nb16 O11 2.003473 1_655
Nb16 O40 2.041009 1_655
Nb16 O56 2.091942 1_655
Nb17 O62 1.939433 1_555
Nb17 O33 1.991523 1_555
Nb17 O21 1.999439 1_555
Nb17 O10 2.003473 1_555
Nb17 O41 2.041009 1_555
Nb17 O57 2.091942 1_555
Nb18 O61 1.939433 1_555
Nb18 O34 1.991523 1_555
Nb18 O22 1.999439 1_555
Nb18 O9 2.003473 1_555
Nb18 O42 2.041009 1_555
Nb18 O58 2.091942 1_555
Nb19 O60 1.939433 1_555
Nb19 O35 1.991523 1_555
Nb19 O23 1.999439 1_555
Nb19 O8 2.003473 1_455
Nb19 O43 2.041009 1_455
Nb19 O59 2.091942 1_565
Nb20 O59 1.939433 1_555
Nb20 O36 1.991523 1_555
Nb20 O22 1.999439 1_555
Nb20 O9 2.003473 1_455
Nb20 O44 2.041009 1_455
Nb20 O60 2.091942 1_555
Nb21 O58 1.939433 1_555
Nb21 O37 1.991523 1_555
Nb21 O23 1.999439 1_555
Nb21 O8 2.003473 1_555
Nb21 O45 2.041009 1_555
Nb21 O61 2.091942 1_565
Nb22 O57 1.939433 1_565
Nb22 O38 1.991523 1_555
Nb22 O20 1.999439 1_555
Nb22 O11 2.003473 1_555
Nb22 O46 2.041009 1_555
Nb22 O62 2.091942 1_555
Nb23 O56 1.939433 1_655
Nb23 O39 1.991523 1_555
Nb23 O21 1.999439 1_555
Nb23 O10 2.003473 1_655
Nb23 O47 2.041009 1_655
Nb23 O63 2.091942 1_655
