# generated using pymatgen
data_Ba2In3Au
_symmetry_space_group_name_H-M   'P 1'
_cell_length_a   6.53338020
_cell_length_b   6.53338020
_cell_length_c   8.42479314
_cell_angle_alpha   51.89685409
_cell_angle_beta   51.89685409
_cell_angle_gamma   46.18137953
_symmetry_Int_Tables_number   1
_chemical_formula_structural   Ba2In3Au
_chemical_formula_sum   'Ba2 In3 Au1'
_cell_volume   192.43021159
_cell_formula_units_Z   1
loop_
 _symmetry_equiv_pos_site_id
 _symmetry_equiv_pos_as_xyz
  1  'x, y, z'
loop_
 _atom_site_type_symbol
 _atom_site_label
 _atom_site_symmetry_multiplicity
 _atom_site_fract_x
 _atom_site_fract_y
 _atom_site_fract_z
 _atom_site_occupancy
  Ba  Ba0  1  0.04590500  0.04590500  0.70153100  1
  Ba  Ba1  1  0.95319200  0.95319200  0.30180500  1
  In  In0  1  0.65601500  0.65601500  0.28374500  1
  In  In1  1  0.67332800  0.67332800  0.89484200  1
  In  In2  1  0.33678700  0.33678700  0.09881600  1
  Au  Au0  1  0.33477300  0.33477300  0.71926100  1
loop_
_geom_bond_atom_site_label_1
_geom_bond_atom_site_label_2
_geom_bond_distance
_geom_bond_site_symmetry_2
Ba0 In2 3.577554 1_456
Ba0 In2 3.577554 1_546
Ba0 In1 3.594818 1_445
Ba0 In2 3.766831 1_555
Ba0 In0 3.802086 1_455
Ba0 In0 3.802086 1_545
Ba0 In1 3.861376 1_455
Ba0 In1 3.861376 1_545
Ba0 In0 3.896349 1_446
Ba0 Ba1 4.197345 1_445
Ba0 Ba1 4.388149 1_446
Ba0 Ba1 4.444540 1_455
Ba0 Ba1 4.444540 1_545
Ba1 In0 3.469058 1_565
Ba1 In0 3.469058 1_655
Ba1 In1 3.626362 1_654
Ba1 In1 3.626362 1_564
Ba1 In0 3.675843 1_555
Ba1 In2 3.688484 1_665
Ba1 In1 3.705306 1_555
Ba1 In2 3.828576 1_655
Ba1 In2 3.828576 1_565
In0 In2 3.028571 1_565
In0 In2 3.028571 1_655
In0 In1 3.140623 1_554
In1 In2 3.160745 1_556
Au0 In1 2.944162 1_545
Au0 In1 2.944162 1_455
Au0 In0 3.060111 1_555
Au0 In2 3.213962 1_556
Au0 Ba0 3.538297 1_655
Au0 Ba0 3.538297 1_565
Au0 Ba0 3.574089 1_555
Au0 Ba1 3.774165 1_455
Au0 Ba1 3.774165 1_545
Au0 Ba1 3.863007 1_446
