# generated using pymatgen
data_UVH3O7
_symmetry_space_group_name_H-M   'P 1'
_cell_length_a   6.96615282
_cell_length_b   8.29642200
_cell_length_c   10.58814749
_cell_angle_alpha   90.00000000
_cell_angle_beta   109.43324785
_cell_angle_gamma   90.00000000
_symmetry_Int_Tables_number   1
_chemical_formula_structural   UVH3O7
_chemical_formula_sum   'U4 V4 H12 O28'
_cell_volume   577.07094478
_cell_formula_units_Z   4
loop_
 _symmetry_equiv_pos_site_id
 _symmetry_equiv_pos_as_xyz
  1  'x, y, z'
loop_
 _atom_site_type_symbol
 _atom_site_label
 _atom_site_symmetry_multiplicity
 _atom_site_fract_x
 _atom_site_fract_y
 _atom_site_fract_z
 _atom_site_occupancy
  U  U0  1  0.51572400  0.48255600  0.82355700  1
  U  U1  1  0.48427600  0.98255600  0.67644300  1
  U  U2  1  0.48427600  0.51744400  0.17644300  1
  U  U3  1  0.51572400  0.01744400  0.32355700  1
  V  V0  1  0.63103800  0.64275900  0.56170900  1
  V  V1  1  0.36896200  0.14275900  0.93829100  1
  V  V2  1  0.36896200  0.35724100  0.43829100  1
  V  V3  1  0.63103800  0.85724100  0.06170900  1
  H  H0  1  0.86691800  0.73689500  0.81501400  1
  H  H1  1  0.13308200  0.23689500  0.68498600  1
  H  H2  1  0.13308200  0.26310500  0.18498600  1
  H  H3  1  0.86691800  0.76310500  0.31501400  1
  H  H4  1  0.10136600  0.68746300  0.81020100  1
  H  H5  1  0.89863400  0.18746300  0.68979900  1
  H  H6  1  0.89863400  0.31253700  0.18979900  1
  H  H7  1  0.10136600  0.81253700  0.31020100  1
  H  H8  1  0.07317500  0.70399200  0.95585300  1
  H  H9  1  0.92682500  0.20399200  0.54414700  1
  H  H10  1  0.92682500  0.29600800  0.04414700  1
  H  H11  1  0.07317500  0.79600800  0.45585300  1
  O  O0  1  0.52744200  0.44449300  0.61078000  1
  O  O1  1  0.47255800  0.94449300  0.88922000  1
  O  O2  1  0.47255800  0.55550700  0.38922000  1
  O  O3  1  0.52744200  0.05550700  0.11078000  1
  O  O4  1  0.77592400  0.40354400  0.89793600  1
  O  O5  1  0.22407600  0.90354400  0.60206400  1
  O  O6  1  0.22407600  0.59645600  0.10206400  1
  O  O7  1  0.77592400  0.09645600  0.39793600  1
  O  O8  1  0.86579500  0.62392600  0.57081300  1
  O  O9  1  0.13420500  0.12392600  0.92918700  1
  O  O10  1  0.13420500  0.37607400  0.42918700  1
  O  O11  1  0.86579500  0.87607400  0.07081300  1
  O  O12  1  0.55678400  0.84841300  0.50344100  1
  O  O13  1  0.44321600  0.34841300  0.99655900  1
  O  O14  1  0.44321600  0.15158700  0.49655900  1
  O  O15  1  0.55678400  0.65158700  0.00344100  1
  O  O16  1  0.64315200  0.71275500  0.73678600  1
  O  O17  1  0.35684800  0.21275500  0.76321400  1
  O  O18  1  0.35684800  0.28724500  0.26321400  1
  O  O19  1  0.64315200  0.78724500  0.23678600  1
  O  O20  1  0.25790700  0.56574300  0.76055300  1
  O  O21  1  0.74209300  0.06574300  0.73944700  1
  O  O22  1  0.74209300  0.43425700  0.23944700  1
  O  O23  1  0.25790700  0.93425700  0.26055300  1
  O  O24  1  0.02612800  0.74798700  0.86228700  1
  O  O25  1  0.97387200  0.24798700  0.63771300  1
  O  O26  1  0.97387200  0.25201300  0.13771300  1
  O  O27  1  0.02612800  0.75201300  0.36228700  1
loop_
_geom_bond_atom_site_label_1
_geom_bond_atom_site_label_2
_geom_bond_distance
_geom_bond_site_symmetry_2
H0 O24 1.058144 1_655
H0 O16 1.515538 1_555
H1 O25 1.058144 1_455
H1 O17 1.515538 1_555
H2 O26 1.058144 1_455
H2 O18 1.515538 1_555
H3 O27 1.058144 1_655
H3 O19 1.515538 1_555
H4 O24 1.011594 1_555
H4 O20 1.693143 1_555
H5 O25 1.011594 1_555
H5 O21 1.693143 1_555
H6 O26 1.011594 1_555
H6 O22 1.693143 1_555
H7 O27 1.011594 1_555
H7 O23 1.693143 1_555
H8 O24 1.003022 1_555
H9 O25 1.003022 1_555
H10 O26 1.003022 1_555
H11 O27 1.003022 1_555
O0 V2 1.933045 1_555
O0 V0 1.935445 1_555
O0 U0 2.303124 1_555
O1 V3 1.933045 1_556
O1 V1 1.935445 1_565
O1 U1 2.303124 1_555
O2 V0 1.933045 1_555
O2 V2 1.935445 1_555
O2 U2 2.303124 1_555
O3 V1 1.933045 1_554
O3 V3 1.935445 1_545
O3 U3 2.303124 1_555
O4 U0 1.839983 1_555
O5 U1 1.839983 1_555
O6 U2 1.839983 1_555
O7 U3 1.839983 1_555
O8 V0 1.613440 1_555
O9 V1 1.613440 1_555
O10 V2 1.613440 1_555
O11 V3 1.613440 1_555
O12 V0 1.829462 1_555
O12 U3 2.305113 1_565
O12 U1 2.337678 1_555
O13 V1 1.829462 1_555
O13 U2 2.305113 1_556
O13 U0 2.337678 1_555
O14 V2 1.829462 1_555
O14 U1 2.305113 1_545
O14 U3 2.337678 1_555
O15 V3 1.829462 1_555
O15 U0 2.305113 1_554
O15 U2 2.337678 1_555
O16 V0 1.917450 1_555
O16 U0 2.412923 1_555
O16 U1 2.484542 1_555
O17 V1 1.917450 1_555
O17 U1 2.412923 1_545
O17 U0 2.484542 1_555
O18 V2 1.917450 1_555
O18 U2 2.412923 1_555
O18 U3 2.484542 1_555
O19 V3 1.917450 1_555
O19 U3 2.412923 1_565
O19 U2 2.484542 1_555
O20 U0 1.830214 1_555
O21 U1 1.830214 1_545
O22 U2 1.830214 1_555
O23 U3 1.830214 1_565
