# generated using pymatgen
data_BaNdNb4O12
_symmetry_space_group_name_H-M   'P 1'
_cell_length_a   5.70110440
_cell_length_b   5.70110440
_cell_length_c   8.04082599
_cell_angle_alpha   90.00000000
_cell_angle_beta   90.00000000
_cell_angle_gamma   89.89379480
_symmetry_Int_Tables_number   1
_chemical_formula_structural   BaNdNb4O12
_chemical_formula_sum   'Ba1 Nd1 Nb4 O12'
_cell_volume   261.34723251
_cell_formula_units_Z   1
loop_
 _symmetry_equiv_pos_site_id
 _symmetry_equiv_pos_as_xyz
  1  'x, y, z'
loop_
 _atom_site_type_symbol
 _atom_site_label
 _atom_site_symmetry_multiplicity
 _atom_site_fract_x
 _atom_site_fract_y
 _atom_site_fract_z
 _atom_site_occupancy
  Ba  Ba0  1  0.50000000  0.50000000  -0.00000000  1
  Nd  Nd0  1  0.00000000  0.00000000  0.50000000  1
  Nb  Nb0  1  0.00000000  0.50000000  0.25188066  1
  Nb  Nb1  1  0.00000000  0.50000000  0.74811934  1
  Nb  Nb2  1  0.50000000  0.00000000  0.25188066  1
  Nb  Nb3  1  0.50000000  0.00000000  0.74811934  1
  O  O0  1  0.25304601  0.25304601  0.26017917  1
  O  O1  1  0.25304601  0.25304601  0.73982083  1
  O  O2  1  0.74695399  0.74695399  0.26017917  1
  O  O3  1  0.74695399  0.74695399  0.73982083  1
  O  O4  1  0.76580720  0.23419280  0.73769684  1
  O  O5  1  0.76580720  0.23419280  0.26230316  1
  O  O6  1  0.23419280  0.76580720  0.73769684  1
  O  O7  1  0.23419280  0.76580720  0.26230316  1
  O  O8  1  0.00000000  0.50000000  -0.00000000  1
  O  O9  1  0.00000000  0.50000000  0.50000000  1
  O  O10  1  0.50000000  0.00000000  -0.00000000  1
  O  O11  1  0.50000000  0.00000000  0.50000000  1
loop_
_geom_bond_atom_site_label_1
_geom_bond_atom_site_label_2
_geom_bond_distance
_geom_bond_site_symmetry_2
Ba0 O8 2.850552 1_655
Ba0 O10 2.850552 1_555
Ba0 O10 2.850552 1_565
Ba0 O8 2.850552 1_555
Ba0 O0 2.889372 1_555
Ba0 O1 2.889372 1_554
Ba0 O2 2.889372 1_555
Ba0 O3 2.889372 1_554
Ba0 O5 3.005457 1_555
Ba0 O6 3.005457 1_554
Ba0 O4 3.005457 1_554
Ba0 O7 3.005457 1_555
Nd0 O6 2.685455 1_545
Nd0 O7 2.685455 1_545
Nd0 O4 2.685455 1_455
Nd0 O5 2.685455 1_455
Nd0 O2 2.808685 1_445
Nd0 O3 2.808685 1_445
Nd0 O1 2.808685 1_555
Nd0 O0 2.808685 1_555
Nd0 O11 2.850552 1_455
Nd0 O9 2.850552 1_545
Nd0 O11 2.850552 1_555
Nd0 O9 2.850552 1_555
Nb0 O9 1.995084 1_555
Nb0 O0 2.015031 1_555
Nb0 O2 2.015031 1_455
Nb0 O7 2.023262 1_555
Nb0 O5 2.023262 1_455
Nb0 O8 2.025329 1_555
Nb1 O9 1.995084 1_555
Nb1 O3 2.015031 1_455
Nb1 O1 2.015031 1_555
Nb1 O6 2.023262 1_555
Nb1 O4 2.023262 1_455
Nb1 O8 2.025329 1_556
Nb2 O11 1.995084 1_555
Nb2 O2 2.015031 1_545
Nb2 O0 2.015031 1_555
Nb2 O5 2.023262 1_555
Nb2 O7 2.023262 1_545
Nb2 O10 2.025329 1_555
Nb3 O11 1.995084 1_555
Nb3 O1 2.015031 1_555
Nb3 O3 2.015031 1_545
Nb3 O4 2.023262 1_555
Nb3 O6 2.023262 1_545
Nb3 O10 2.025329 1_556
