# generated using pymatgen
data_Pr3Bi(Ru2O7)2
_symmetry_space_group_name_H-M   'P 1'
_cell_length_a   7.38295828
_cell_length_b   7.38295828
_cell_length_c   7.38295832
_cell_angle_alpha   60.38651358
_cell_angle_beta   60.38651358
_cell_angle_gamma   60.38650860
_symmetry_Int_Tables_number   1
_chemical_formula_structural   Pr3Bi(Ru2O7)2
_chemical_formula_sum   'Pr3 Bi1 Ru4 O14'
_cell_volume   287.04908668
_cell_formula_units_Z   1
loop_
 _symmetry_equiv_pos_site_id
 _symmetry_equiv_pos_as_xyz
  1  'x, y, z'
loop_
 _atom_site_type_symbol
 _atom_site_label
 _atom_site_symmetry_multiplicity
 _atom_site_fract_x
 _atom_site_fract_y
 _atom_site_fract_z
 _atom_site_occupancy
  Pr  Pr0  1  0.00000000  0.50000000  0.00000000  1
  Pr  Pr1  1  0.50000000  0.00000000  0.00000000  1
  Pr  Pr2  1  0.00000000  0.00000000  0.50000000  1
  Bi  Bi0  1  0.00000000  0.00000000  0.00000000  1
  Ru  Ru0  1  0.50000000  0.50000000  0.50000000  1
  Ru  Ru1  1  0.50000000  0.00000000  0.50000000  1
  Ru  Ru2  1  0.00000000  0.50000000  0.50000000  1
  Ru  Ru3  1  0.50000000  0.50000000  0.00000000  1
  O  O0  1  0.12498500  0.12498500  0.12498500  1
  O  O1  1  0.87501500  0.87501500  0.87501500  1
  O  O2  1  0.42070900  0.42070900  0.82911400  1
  O  O3  1  0.82911400  0.42070900  0.42070900  1
  O  O4  1  0.42070900  0.82911400  0.42070900  1
  O  O5  1  0.82741700  0.82741700  0.41986200  1
  O  O6  1  0.41986200  0.82741700  0.82741700  1
  O  O7  1  0.82741700  0.41986200  0.82741700  1
  O  O8  1  0.57929100  0.57929100  0.17088600  1
  O  O9  1  0.17088600  0.57929100  0.57929100  1
  O  O10  1  0.57929100  0.17088600  0.57929100  1
  O  O11  1  0.17258300  0.17258300  0.58013800  1
  O  O12  1  0.58013800  0.17258300  0.17258300  1
  O  O13  1  0.17258300  0.58013800  0.17258300  1
loop_
_geom_bond_atom_site_label_1
_geom_bond_atom_site_label_2
_geom_bond_distance
_geom_bond_site_symmetry_2
Bi0 O0 2.253664 1_555
Bi0 O1 2.253664 1_444
Bi0 O7 2.579439 1_454
Bi0 O6 2.579439 1_544
Bi0 O12 2.579439 1_455
Bi0 O13 2.579439 1_545
Bi0 O5 2.579439 1_445
Bi0 O11 2.579439 1_554
O0 Pr0 2.271649 1_555
O0 Pr1 2.271649 1_555
O0 Pr2 2.271650 1_555
O1 Pr0 2.271649 1_656
O1 Pr1 2.271649 1_566
O1 Pr2 2.271650 1_665
O2 Ru3 2.018828 1_556
O2 Ru0 2.028945 1_555
O2 Pr0 2.577242 1_556
O2 Pr1 2.577242 1_556
O3 Ru2 2.018828 1_655
O3 Ru0 2.028945 1_555
O3 Pr2 2.577242 1_655
O3 Pr0 2.577242 1_655
O4 Ru1 2.018828 1_565
O4 Ru0 2.028945 1_555
O4 Pr2 2.577242 1_565
O4 Pr1 2.577242 1_565
O5 Ru1 2.025959 1_565
O5 Ru2 2.025959 1_655
O5 Pr2 2.586831 1_665
O6 Ru3 2.025959 1_556
O6 Ru1 2.025959 1_565
O6 Pr1 2.586831 1_566
O7 Ru3 2.025959 1_556
O7 Ru2 2.025959 1_655
O7 Pr0 2.586831 1_656
O8 Ru3 2.018828 1_555
O8 Ru0 2.028945 1_555
O8 Pr0 2.577242 1_655
O8 Pr1 2.577242 1_565
O9 Ru2 2.018828 1_555
O9 Ru0 2.028945 1_555
O9 Pr2 2.577242 1_565
O9 Pr0 2.577242 1_556
O10 Ru1 2.018828 1_555
O10 Ru0 2.028945 1_555
O10 Pr2 2.577242 1_655
O10 Pr1 2.577242 1_556
O11 Ru1 2.025959 1_555
O11 Ru2 2.025959 1_555
O11 Pr2 2.586831 1_555
O12 Ru3 2.025959 1_555
O12 Ru1 2.025959 1_555
O12 Pr1 2.586831 1_555
O13 Ru3 2.025959 1_555
O13 Ru2 2.025959 1_555
O13 Pr0 2.586831 1_555
