# generated using pymatgen
data_LiLuSn
_symmetry_space_group_name_H-M   'P 1'
_cell_length_a   9.27944466
_cell_length_b   9.27944466
_cell_length_c   7.13141800
_cell_angle_alpha   90.00000000
_cell_angle_beta   90.00000000
_cell_angle_gamma   120.00000471
_symmetry_Int_Tables_number   1
_chemical_formula_structural   LiLuSn
_chemical_formula_sum   'Li8 Lu8 Sn8'
_cell_volume   531.80262442
_cell_formula_units_Z   8
loop_
 _symmetry_equiv_pos_site_id
 _symmetry_equiv_pos_as_xyz
  1  'x, y, z'
loop_
 _atom_site_type_symbol
 _atom_site_label
 _atom_site_symmetry_multiplicity
 _atom_site_fract_x
 _atom_site_fract_y
 _atom_site_fract_z
 _atom_site_occupancy
  Li  Li0  1  0.16525200  0.33050500  0.28825600  1
  Li  Li1  1  0.16525200  0.83474800  0.28825600  1
  Li  Li2  1  0.66949500  0.83474800  0.28825600  1
  Li  Li3  1  0.83474800  0.66949500  0.78825600  1
  Li  Li4  1  0.83474800  0.16525200  0.78825600  1
  Li  Li5  1  0.33050500  0.16525200  0.78825600  1
  Li  Li6  1  0.33333300  0.66666700  0.65942800  1
  Li  Li7  1  0.66666700  0.33333300  0.15942800  1
  Lu  Lu0  1  0.51346600  0.02693200  0.49477900  1
  Lu  Lu1  1  0.51346600  0.48653400  0.49477900  1
  Lu  Lu2  1  0.97306800  0.48653400  0.49477900  1
  Lu  Lu3  1  0.48653400  0.97306800  0.99477900  1
  Lu  Lu4  1  0.48653400  0.51346600  0.99477900  1
  Lu  Lu5  1  0.02693200  0.51346600  0.99477900  1
  Lu  Lu6  1  0.00000000  0.00000000  0.50204800  1
  Lu  Lu7  1  0.00000000  0.00000000  0.00204800  1
  Sn  Sn0  1  0.16661600  0.33323200  0.73185800  1
  Sn  Sn1  1  0.16661600  0.83338400  0.73185800  1
  Sn  Sn2  1  0.66676800  0.83338400  0.73185800  1
  Sn  Sn3  1  0.83338400  0.66676800  0.23185800  1
  Sn  Sn4  1  0.83338400  0.16661600  0.23185800  1
  Sn  Sn5  1  0.33323200  0.16661600  0.23185800  1
  Sn  Sn6  1  0.33333300  0.66666700  0.26484400  1
  Sn  Sn7  1  0.66666700  0.33333300  0.76484400  1
loop_
_geom_bond_atom_site_label_1
_geom_bond_atom_site_label_2
_geom_bond_distance
_geom_bond_site_symmetry_2
Li0 Sn4 2.697192 1_455
Li0 Sn5 2.697201 1_555
Li0 Sn6 2.706631 1_555
Li0 Lu6 3.062507 1_555
Li0 Sn0 3.163587 1_555
Li0 Lu2 3.166684 1_455
Li0 Lu1 3.166691 1_555
Li0 Lu5 3.330062 1_554
Li0 Lu4 3.330068 1_554
Li0 Lu7 3.349684 1_555
Li1 Sn3 2.697192 1_455
Li1 Sn5 2.697192 1_565
Li1 Sn6 2.706631 1_555
Li1 Lu6 3.062500 1_565
Li1 Sn1 3.163587 1_555
Li1 Lu2 3.166691 1_455
Li1 Lu0 3.166691 1_565
Li1 Lu5 3.330069 1_554
Li1 Lu3 3.330069 1_554
Li1 Lu7 3.349678 1_565
Li2 Sn4 2.697192 1_565
Li2 Sn3 2.697201 1_555
Li2 Sn6 2.706631 1_555
Li2 Lu6 3.062507 1_665
Li2 Sn2 3.163587 1_555
Li2 Lu0 3.166684 1_565
Li2 Lu1 3.166691 1_555
Li2 Lu3 3.330062 1_554
Li2 Lu4 3.330068 1_554
Li2 Lu7 3.349684 1_665
Li3 Sn1 2.697192 1_655
Li3 Sn2 2.697201 1_555
Li3 Sn7 2.706631 1_555
Li3 Lu7 3.062507 1_666
Li3 Sn3 3.163587 1_556
Li3 Lu5 3.166684 1_655
Li3 Lu4 3.166691 1_555
Li3 Lu2 3.330062 1_555
Li3 Lu1 3.330068 1_555
Li3 Lu6 3.349684 1_665
Li4 Sn2 2.697192 1_545
Li4 Sn0 2.697192 1_655
Li4 Sn7 2.706631 1_555
Li4 Lu7 3.062500 1_656
Li4 Sn4 3.163587 1_556
Li4 Lu3 3.166691 1_545
Li4 Lu5 3.166691 1_655
Li4 Lu0 3.330069 1_555
Li4 Lu2 3.330069 1_555
Li4 Lu6 3.349678 1_655
Li5 Sn1 2.697192 1_545
Li5 Sn0 2.697201 1_555
Li5 Sn7 2.706631 1_555
Li5 Lu7 3.062507 1_556
Li5 Sn5 3.163587 1_556
Li5 Lu3 3.166684 1_545
Li5 Lu4 3.166691 1_555
Li5 Lu0 3.330062 1_555
Li5 Lu1 3.330068 1_555
Li5 Lu6 3.349684 1_555
Li6 Sn1 2.728885 1_555
Li6 Sn2 2.728892 1_555
Li6 Sn0 2.728892 1_555
Li6 Sn6 2.813943 1_555
Li6 Lu0 3.124217 1_565
Li6 Lu2 3.124217 1_455
Li6 Lu1 3.124225 1_555
Li6 Lu3 3.432547 1_555
Li6 Lu5 3.432547 1_555
Li6 Lu4 3.432553 1_555
Li7 Sn4 2.728885 1_555
Li7 Sn3 2.728892 1_555
Li7 Sn5 2.728892 1_555
Li7 Sn7 2.813943 1_554
Li7 Lu5 3.124217 1_654
Li7 Lu3 3.124217 1_544
Li7 Lu4 3.124225 1_554
Li7 Lu2 3.432547 1_555
Li7 Lu0 3.432547 1_555
Li7 Lu1 3.432553 1_555
Lu0 Sn7 3.126058 1_555
Lu0 Sn4 3.187590 1_555
Lu0 Sn5 3.187591 1_555
Lu0 Sn1 3.265392 1_545
Lu0 Sn2 3.265392 1_545
Lu0 Sn6 3.327289 1_545
Lu1 Sn7 3.126065 1_555
Lu1 Sn5 3.187590 1_555
Lu1 Sn3 3.187590 1_555
Lu1 Sn0 3.265392 1_555
Lu1 Sn2 3.265392 1_555
Lu1 Sn6 3.327296 1_555
Lu2 Sn7 3.126058 1_555
Lu2 Sn4 3.187590 1_555
Lu2 Sn3 3.187591 1_555
Lu2 Sn1 3.265392 1_655
Lu2 Sn0 3.265392 1_655
Lu2 Sn6 3.327289 1_655
Lu3 Sn6 3.126058 1_556
Lu3 Sn1 3.187590 1_555
Lu3 Sn2 3.187591 1_555
Lu3 Sn4 3.265392 1_566
Lu3 Sn5 3.265392 1_566
Lu3 Sn7 3.327289 1_565
Lu4 Sn6 3.126065 1_556
Lu4 Sn0 3.187590 1_555
Lu4 Sn2 3.187590 1_555
Lu4 Sn5 3.265392 1_556
Lu4 Sn3 3.265392 1_556
Lu4 Sn7 3.327296 1_555
Lu5 Sn6 3.126058 1_556
Lu5 Sn1 3.187590 1_555
Lu5 Sn0 3.187591 1_555
Lu5 Sn4 3.265392 1_456
Lu5 Sn3 3.265392 1_456
Lu5 Sn7 3.327289 1_455
Lu6 Sn0 3.139619 1_555
Lu6 Sn2 3.139619 1_445
Lu6 Sn1 3.139620 1_545
Lu6 Sn5 3.299093 1_555
Lu6 Sn3 3.299093 1_445
Lu6 Sn4 3.299093 1_455
Lu7 Sn5 3.139619 1_555
Lu7 Sn3 3.139619 1_445
Lu7 Sn4 3.139620 1_455
Lu7 Sn0 3.299093 1_554
Lu7 Sn2 3.299093 1_444
Lu7 Sn1 3.299093 1_544
