# generated using pymatgen
data_CrSi2
_symmetry_space_group_name_H-M   'P 1'
_cell_length_a   4.41048967
_cell_length_b   4.41048967
_cell_length_c   6.37076200
_cell_angle_alpha   90.00000000
_cell_angle_beta   90.00000000
_cell_angle_gamma   119.99999502
_symmetry_Int_Tables_number   1
_chemical_formula_structural   CrSi2
_chemical_formula_sum   'Cr3 Si6'
_cell_volume   107.32370393
_cell_formula_units_Z   3
loop_
 _symmetry_equiv_pos_site_id
 _symmetry_equiv_pos_as_xyz
  1  'x, y, z'
loop_
 _atom_site_type_symbol
 _atom_site_label
 _atom_site_symmetry_multiplicity
 _atom_site_fract_x
 _atom_site_fract_y
 _atom_site_fract_z
 _atom_site_occupancy
  Cr  Cr0  1  0.50000000  0.00000000  0.50000000  1
  Cr  Cr1  1  0.00000000  0.50000000  0.16666700  1
  Cr  Cr2  1  0.50000000  0.50000000  0.83333300  1
  Si  Si0  1  0.16616400  0.83383600  0.83333300  1
  Si  Si1  1  0.33232900  0.16616400  0.16666700  1
  Si  Si2  1  0.83383600  0.66767100  0.50000000  1
  Si  Si3  1  0.83383600  0.16616400  0.83333300  1
  Si  Si4  1  0.66767100  0.83383600  0.16666700  1
  Si  Si5  1  0.16616400  0.33232900  0.50000000  1
loop_
_geom_bond_atom_site_label_1
_geom_bond_atom_site_label_2
_geom_bond_distance
_geom_bond_site_symmetry_2
Cr0 Si1 2.477003 1_555
Cr0 Si4 2.477003 1_545
Cr0 Si3 2.477005 1_555
Cr0 Si0 2.477005 1_545
Cr0 Si5 2.544480 1_655
Cr0 Si2 2.544480 1_445
Cr0 Si2 2.544483 1_545
Cr0 Si5 2.544483 1_555
Cr0 Si2 2.550234 1_555
Cr0 Si5 2.550234 1_545
Cr1 Si5 2.477003 1_555
Cr1 Si2 2.477003 1_455
Cr1 Si0 2.477010 1_554
Cr1 Si3 2.477010 1_454
Cr1 Si1 2.544480 1_565
Cr1 Si4 2.544480 1_445
Cr1 Si4 2.544483 1_455
Cr1 Si1 2.544483 1_555
Cr1 Si1 2.550234 1_455
Cr1 Si4 2.550234 1_555
Cr2 Si2 2.477005 1_555
Cr2 Si5 2.477005 1_555
Cr2 Si4 2.477010 1_556
Cr2 Si1 2.477010 1_556
Cr2 Si0 2.544480 1_655
Cr2 Si3 2.544480 1_565
Cr2 Si0 2.544480 1_545
Cr2 Si3 2.544480 1_455
Cr2 Si0 2.550237 1_555
Cr2 Si3 2.550237 1_555
Si0 Si2 2.474042 1_455
Si0 Si1 2.474048 1_566
Si0 Si3 2.538717 1_465
Si0 Si3 2.550246 1_565
Si0 Si3 2.550246 1_455
Si1 Si5 2.474046 1_555
Si1 Si4 2.538725 1_445
Si1 Si4 2.550238 1_545
Si1 Si4 2.550246 1_555
Si2 Si4 2.474046 1_555
Si2 Si5 2.538725 1_665
Si2 Si5 2.550238 1_655
Si2 Si5 2.550246 1_555
Si3 Si5 2.474042 1_655
Si3 Si4 2.474048 1_546
