# generated using pymatgen
data_AlSi3O8
_symmetry_space_group_name_H-M   'P 1'
_cell_length_a   7.46415500
_cell_length_b   7.63626300
_cell_length_c   7.97984902
_cell_angle_alpha   116.45452732
_cell_angle_beta   104.94859789
_cell_angle_gamma   102.07244186
_symmetry_Int_Tables_number   1
_chemical_formula_structural   AlSi3O8
_chemical_formula_sum   'Al2 Si6 O16'
_cell_volume   364.77571109
_cell_formula_units_Z   2
loop_
 _symmetry_equiv_pos_site_id
 _symmetry_equiv_pos_as_xyz
  1  'x, y, z'
loop_
 _atom_site_type_symbol
 _atom_site_label
 _atom_site_symmetry_multiplicity
 _atom_site_fract_x
 _atom_site_fract_y
 _atom_site_fract_z
 _atom_site_occupancy
  Al  Al0  1  0.21690900  0.64621600  0.19393200  1
  Al  Al1  1  0.78309100  0.35378400  0.80606800  1
  Si  Si0  1  0.34176500  0.76692900  0.81200900  1
  Si  Si1  1  0.34174500  0.22068300  0.58027100  1
  Si  Si2  1  0.65823500  0.23307100  0.18799100  1
  Si  Si3  1  0.65825500  0.77931700  0.41972900  1
  Si  Si4  1  0.22979200  0.35093900  0.84172800  1
  Si  Si5  1  0.77020800  0.64906100  0.15827200  1
  O  O0  1  0.41695200  0.75155300  0.33463600  1
  O  O1  1  0.41386300  0.25942200  0.06804300  1
  O  O2  1  0.58304800  0.24844700  0.66536400  1
  O  O3  1  0.58613700  0.74057800  0.93195700  1
  O  O4  1  0.24657900  0.38130800  0.34094700  1
  O  O5  1  0.24986100  0.59833800  0.72900100  1
  O  O6  1  0.75342100  0.61869200  0.65905300  1
  O  O7  1  0.75013900  0.40166200  0.27099900  1
  O  O8  1  0.98233900  0.71185700  0.14240800  1
  O  O9  1  0.01766100  0.28814300  0.85759200  1
  O  O10  1  0.24904300  0.73498600  0.96876100  1
  O  O11  1  0.25496200  0.26351000  0.70843200  1
  O  O12  1  0.75095700  0.26501400  0.03123900  1
  O  O13  1  0.74503800  0.73649000  0.29156800  1
  O  O14  1  0.28810100  0.98921600  0.61523700  1
  O  O15  1  0.71189900  0.01078400  0.38476300  1
loop_
_geom_bond_atom_site_label_1
_geom_bond_atom_site_label_2
_geom_bond_distance
_geom_bond_site_symmetry_2
Al0 O0 1.401855 1_555
Al0 O8 1.914466 1_455
Al0 O10 2.232755 1_554
Al1 O2 1.401855 1_555
Al1 O9 1.914466 1_655
Al1 O12 2.232755 1_556
O0 Si3 1.682592 1_555
O1 Si2 1.925659 1_555
O1 Si4 2.425614 1_554
O2 Si1 1.682592 1_555
O3 Si0 1.925659 1_555
O3 Si5 2.425614 1_556
O5 Si0 1.096868 1_555
O7 Si2 1.096868 1_555
O8 Si5 1.610265 1_555
O9 Si4 1.610265 1_555
O10 Si0 1.658611 1_555
O11 Si4 1.065498 1_555
O11 Si1 1.305703 1_555
O12 Si2 1.658611 1_555
O13 Si5 1.065498 1_555
O13 Si3 1.305703 1_555
O14 Si1 1.887697 1_565
O15 Si3 1.887697 1_545
