# generated using pymatgen
data_CsZnPO4
_symmetry_space_group_name_H-M   'P 1'
_cell_length_a   5.58652000
_cell_length_b   9.19528600
_cell_length_c   9.77019200
_cell_angle_alpha   90.00000000
_cell_angle_beta   90.00000000
_cell_angle_gamma   90.00000000
_symmetry_Int_Tables_number   1
_chemical_formula_structural   CsZnPO4
_chemical_formula_sum   'Cs4 Zn4 P4 O16'
_cell_volume   501.89133512
_cell_formula_units_Z   4
loop_
 _symmetry_equiv_pos_site_id
 _symmetry_equiv_pos_as_xyz
  1  'x, y, z'
loop_
 _atom_site_type_symbol
 _atom_site_label
 _atom_site_symmetry_multiplicity
 _atom_site_fract_x
 _atom_site_fract_y
 _atom_site_fract_z
 _atom_site_occupancy
  Cs  Cs0  1  0.25000000  0.48776700  0.69060300  1
  Cs  Cs1  1  0.75000000  0.51223300  0.30939700  1
  Cs  Cs2  1  0.25000000  0.98776700  0.80939700  1
  Cs  Cs3  1  0.75000000  0.01223300  0.19060300  1
  Zn  Zn0  1  0.25000000  0.66241900  0.09568800  1
  Zn  Zn1  1  0.75000000  0.33758100  0.90431200  1
  Zn  Zn2  1  0.25000000  0.16241900  0.40431200  1
  Zn  Zn3  1  0.75000000  0.83758100  0.59568800  1
  P  P0  1  0.25000000  0.28745400  0.07262400  1
  P  P1  1  0.75000000  0.71254600  0.92737600  1
  P  P2  1  0.25000000  0.78745400  0.42737600  1
  P  P3  1  0.75000000  0.21254600  0.57262400  1
  O  O0  1  0.97452200  0.75768100  0.01246900  1
  O  O1  1  0.47452200  0.24231900  0.98753100  1
  O  O2  1  0.52547800  0.25768100  0.48753100  1
  O  O3  1  0.02547800  0.74231900  0.51246900  1
  O  O4  1  0.02547800  0.24231900  0.98753100  1
  O  O5  1  0.52547800  0.75768100  0.01246900  1
  O  O6  1  0.47452200  0.74231900  0.51246900  1
  O  O7  1  0.97452200  0.25768100  0.48753100  1
  O  O8  1  0.25000000  0.19580900  0.20514200  1
  O  O9  1  0.75000000  0.80419100  0.79485800  1
  O  O10  1  0.25000000  0.69580900  0.29485800  1
  O  O11  1  0.75000000  0.30419100  0.70514200  1
  O  O12  1  0.75000000  0.04896800  0.60527800  1
  O  O13  1  0.25000000  0.95103200  0.39472200  1
  O  O14  1  0.75000000  0.54896800  0.89472200  1
  O  O15  1  0.25000000  0.45103200  0.10527800  1
loop_
_geom_bond_atom_site_label_1
_geom_bond_atom_site_label_2
_geom_bond_distance
_geom_bond_site_symmetry_2
Cs0 O3 3.175065 1_555
Cs0 O6 3.175065 1_555
Cs0 O11 3.266793 1_555
Cs0 O11 3.266793 1_455
Cs0 O7 3.283456 1_455
Cs0 O2 3.283456 1_555
Cs0 O14 3.477954 1_555
Cs0 O14 3.477954 1_455
Cs1 O2 3.175065 1_555
Cs1 O7 3.175065 1_555
Cs1 O10 3.266793 1_655
Cs1 O10 3.266793 1_555
Cs1 O6 3.283456 1_555
Cs1 O3 3.283456 1_655
Cs1 O15 3.477954 1_555
Cs1 O15 3.477954 1_655
Cs2 O4 3.175065 1_565
Cs2 O1 3.175065 1_565
Cs2 O9 3.266793 1_455
Cs2 O9 3.266793 1_555
Cs2 O5 3.283456 1_556
Cs2 O0 3.283456 1_456
Cs2 O12 3.477954 1_465
Cs2 O12 3.477954 1_565
Cs3 O5 3.175065 1_545
Cs3 O0 3.175065 1_545
Cs3 O8 3.266793 1_555
Cs3 O8 3.266793 1_655
Cs3 O1 3.283456 1_554
Cs3 O4 3.283456 1_654
Cs3 O13 3.477954 1_545
Cs3 O13 3.477954 1_645
O0 P1 1.560991 1_554
O0 Zn0 1.948536 1_655
O1 P0 1.560991 1_556
O1 Zn1 1.948536 1_555
O2 P3 1.560991 1_555
O2 Zn2 1.948536 1_555
O3 P2 1.560991 1_555
O3 Zn3 1.948536 1_455
O4 P0 1.560991 1_556
O4 Zn1 1.948536 1_455
O5 P1 1.560991 1_554
O5 Zn0 1.948536 1_555
O6 P2 1.560991 1_555
O6 Zn3 1.948536 1_555
O7 P3 1.560991 1_555
O7 Zn2 1.948536 1_655
O8 P0 1.544818 1_555
O8 Zn2 1.970002 1_555
O9 P1 1.544818 1_555
O9 Zn3 1.970002 1_555
O10 P2 1.544818 1_555
O10 Zn0 1.970002 1_555
O11 P3 1.544818 1_555
O11 Zn1 1.970002 1_555
O12 P3 1.537609 1_555
O12 Zn3 1.946021 1_545
O13 P2 1.537609 1_555
O13 Zn2 1.946021 1_565
O14 P1 1.537609 1_555
O14 Zn1 1.946021 1_555
O15 P0 1.537609 1_555
O15 Zn0 1.946021 1_555
