# generated using pymatgen
data_Li2MnCoO4
_symmetry_space_group_name_H-M   'P 1'
_cell_length_a   5.35135668
_cell_length_b   5.70882232
_cell_length_c   6.02961527
_cell_angle_alpha   118.22504453
_cell_angle_beta   69.46493648
_cell_angle_gamma   90.04234523
_symmetry_Int_Tables_number   1
_chemical_formula_structural   Li2MnCoO4
_chemical_formula_sum   'Li4 Mn2 Co2 O8'
_cell_volume   148.91297901
_cell_formula_units_Z   2
loop_
 _symmetry_equiv_pos_site_id
 _symmetry_equiv_pos_as_xyz
  1  'x, y, z'
loop_
 _atom_site_type_symbol
 _atom_site_label
 _atom_site_symmetry_multiplicity
 _atom_site_fract_x
 _atom_site_fract_y
 _atom_site_fract_z
 _atom_site_occupancy
  Li  Li0  1  0.00347800  0.00107500  0.50200100  1
  Li  Li1  1  0.99656600  0.49871600  0.49799100  1
  Li  Li2  1  0.49136900  0.75235200  0.50500800  1
  Li  Li3  1  0.50868600  0.24731000  0.49500400  1
  Mn  Mn0  1  0.99984700  0.50015600  0.99993600  1
  Mn  Mn1  1  0.50000600  0.24887500  0.99993200  1
  Co  Co0  1  0.50000800  0.75113800  0.99999000  1
  Co  Co1  1  0.00010800  0.00126500  0.00017600  1
  O  O0  1  0.76483200  0.86171900  0.21678600  1
  O  O1  1  0.26614500  0.11925300  0.23427100  1
  O  O2  1  0.23510800  0.64517100  0.78325300  1
  O  O3  1  0.73333900  0.88445600  0.76614300  1
  O  O4  1  0.77411900  0.36058000  0.22707900  1
  O  O5  1  0.27276300  0.61619600  0.23700600  1
  O  O6  1  0.22585200  0.13361500  0.77299100  1
  O  O7  1  0.72777400  0.37812400  0.76243100  1
loop_
_geom_bond_atom_site_label_1
_geom_bond_atom_site_label_2
_geom_bond_distance
_geom_bond_site_symmetry_2
Li0 O3 2.110897 1_445
Li0 O7 2.111419 1_455
Li0 O1 2.115128 1_555
Li0 O5 2.127428 1_545
Li0 O6 2.202692 1_555
Li0 O0 2.338063 1_445
Li1 O1 2.107012 1_655
Li1 O5 2.115601 1_655
Li1 O3 2.118192 1_555
Li1 O7 2.124401 1_555
Li1 O4 2.202631 1_555
Li1 O2 2.337858 1_655
Li2 O2 2.103650 1_555
Li2 O6 2.105824 1_565
Li2 O5 2.172742 1_555
Li2 O4 2.186526 1_555
Li2 O0 2.189133 1_555
Li2 O3 2.242847 1_555
Li3 O4 2.102955 1_555
Li3 O0 2.106430 1_545
Li3 O7 2.172179 1_555
Li3 O6 2.183890 1_555
Li3 O2 2.192902 1_555
Li3 O1 2.243577 1_555
Mn0 O4 1.959586 1_556
Mn0 O2 1.960842 1_655
Mn0 O6 1.961666 1_655
Mn0 O0 1.961942 1_556
Mn0 O7 2.274549 1_555
Mn0 O5 2.276539 1_656
Mn1 O7 1.963258 1_555
Mn1 O1 1.964005 1_556
Mn1 O5 1.966824 1_556
Mn1 O3 1.967077 1_545
Mn1 O6 2.238993 1_555
Mn1 O4 2.239683 1_556
Co0 O3 1.976098 1_555
Co0 O1 1.983356 1_566
Co0 O5 1.983774 1_556
Co0 O7 1.991448 1_555
Co0 O0 2.152541 1_556
Co0 O2 2.152658 1_555
Co1 O6 1.929600 1_554
Co1 O4 1.931425 1_455
Co1 O0 1.937702 1_445
Co1 O2 1.938980 1_544
Co1 O1 2.232023 1_555
Co1 O3 2.235118 1_444
