# generated using pymatgen
data_Ho2CdCu2
_symmetry_space_group_name_H-M   'P 1'
_cell_length_a   7.43030679
_cell_length_b   7.43030679
_cell_length_c   3.69861184
_cell_angle_alpha   90.00000000
_cell_angle_beta   90.00000000
_cell_angle_gamma   90.00000000
_symmetry_Int_Tables_number   1
_chemical_formula_structural   Ho2CdCu2
_chemical_formula_sum   'Ho4 Cd2 Cu4'
_cell_volume   204.19835871
_cell_formula_units_Z   2
loop_
 _symmetry_equiv_pos_site_id
 _symmetry_equiv_pos_as_xyz
  1  'x, y, z'
loop_
 _atom_site_type_symbol
 _atom_site_label
 _atom_site_symmetry_multiplicity
 _atom_site_fract_x
 _atom_site_fract_y
 _atom_site_fract_z
 _atom_site_occupancy
  Ho  Ho0  1  0.67460619  0.17460619  0.50000000  1
  Ho  Ho1  1  0.32539381  0.82539381  0.50000000  1
  Ho  Ho2  1  0.17460619  0.32539381  0.50000000  1
  Ho  Ho3  1  0.82539381  0.67460619  0.50000000  1
  Cd  Cd0  1  -0.00000000  0.00000000  0.00000000  1
  Cd  Cd1  1  0.50000000  0.50000000  0.00000000  1
  Cu  Cu0  1  0.12014050  0.62014050  -0.00000000  1
  Cu  Cu1  1  0.87985950  0.37985950  -0.00000000  1
  Cu  Cu2  1  0.62014050  0.87985950  -0.00000000  1
  Cu  Cu3  1  0.37985950  0.12014050  0.00000000  1
loop_
_geom_bond_atom_site_label_1
_geom_bond_atom_site_label_2
_geom_bond_distance
_geom_bond_site_symmetry_2
Cd0 Cu2 2.960275 1_445
Cd0 Cu1 2.960275 1_455
Cd0 Cu0 2.960275 1_545
Cd0 Cu3 2.960275 1_555
Cd0 Ho1 3.308891 1_545
Cd0 Ho0 3.308891 1_455
Cd0 Ho0 3.308891 1_454
Cd0 Ho1 3.308891 1_544
Cd0 Ho3 3.308891 1_445
Cd0 Ho2 3.308891 1_555
Cd0 Ho3 3.308891 1_444
Cd0 Ho2 3.308891 1_554
Cd1 Cu2 2.960275 1_555
Cd1 Cu1 2.960275 1_555
Cd1 Cu0 2.960275 1_555
Cd1 Cu3 2.960275 1_555
Cd1 Ho3 3.308891 1_554
Cd1 Ho2 3.308891 1_554
Cd1 Ho2 3.308891 1_555
Cd1 Ho3 3.308891 1_555
Cd1 Ho0 3.308891 1_555
Cd1 Ho0 3.308891 1_554
Cd1 Ho1 3.308891 1_555
Cd1 Ho1 3.308891 1_554
Cu0 Cu1 2.524883 1_455
Cu0 Ho1 2.841085 1_555
Cu0 Ho1 2.841085 1_554
Cu0 Ho3 2.894835 1_455
Cu0 Ho2 2.894835 1_555
Cu0 Ho3 2.894835 1_454
Cu0 Ho2 2.894835 1_554
Cu1 Ho0 2.841085 1_554
Cu1 Ho0 2.841085 1_555
Cu1 Ho3 2.894835 1_555
Cu1 Ho3 2.894835 1_554
Cu1 Ho2 2.894835 1_655
Cu1 Ho2 2.894835 1_654
Cu2 Cu3 2.524883 1_565
Cu2 Ho3 2.841085 1_555
Cu2 Ho3 2.841085 1_554
Cu2 Ho0 2.894835 1_564
Cu2 Ho1 2.894835 1_555
Cu2 Ho1 2.894835 1_554
Cu2 Ho0 2.894835 1_565
Cu3 Ho2 2.841085 1_554
Cu3 Ho2 2.841085 1_555
Cu3 Ho0 2.894835 1_555
Cu3 Ho0 2.894835 1_554
Cu3 Ho1 2.894835 1_545
Cu3 Ho1 2.894835 1_544
