# generated using pymatgen
data_CsLaMg14
_symmetry_space_group_name_H-M   'P 1'
_cell_length_a   6.70456749
_cell_length_b   6.67095551
_cell_length_c   10.85149461
_cell_angle_alpha   90.00000000
_cell_angle_beta   90.00000000
_cell_angle_gamma   119.83430551
_symmetry_Int_Tables_number   1
_chemical_formula_structural   CsLaMg14
_chemical_formula_sum   'Cs1 La1 Mg14'
_cell_volume   421.01900615
_cell_formula_units_Z   1
loop_
 _symmetry_equiv_pos_site_id
 _symmetry_equiv_pos_as_xyz
  1  'x, y, z'
loop_
 _atom_site_type_symbol
 _atom_site_label
 _atom_site_symmetry_multiplicity
 _atom_site_fract_x
 _atom_site_fract_y
 _atom_site_fract_z
 _atom_site_occupancy
  Cs  Cs0  1  0.16814373  0.83407136  0.12500000  1
  La  La0  1  0.18129624  0.34064762  0.12500000  1
  Mg  Mg0  1  0.16021692  0.33010796  0.62500000  1
  Mg  Mg1  1  0.16334702  0.83167301  0.62500000  1
  Mg  Mg2  1  0.66896168  0.33154139  0.12500000  1
  Mg  Mg3  1  0.66849861  0.33305857  0.62500000  1
  Mg  Mg4  1  0.66896168  0.83741929  0.12500000  1
  Mg  Mg5  1  0.66849861  0.83543904  0.62500000  1
  Mg  Mg6  1  0.34066201  0.17769772  0.39769272  1
  Mg  Mg7  1  0.34066201  0.17769772  0.85230728  1
  Mg  Mg8  1  0.34066201  0.66296528  0.39769272  1
  Mg  Mg9  1  0.34066201  0.66296528  0.85230728  1
  Mg  Mg10  1  0.82836857  0.16418478  0.37868597  1
  Mg  Mg11  1  0.82836857  0.16418478  0.87131403  1
  Mg  Mg12  1  0.81634518  0.65817309  0.38830943  1
  Mg  Mg13  1  0.81634518  0.65817309  0.86169057  1
loop_
_geom_bond_atom_site_label_1
_geom_bond_atom_site_label_2
_geom_bond_distance
_geom_bond_site_symmetry_2
Cs0 La0 3.336355 1_555
Cs0 La0 3.336355 1_565
Cs0 Mg2 3.346713 1_565
Cs0 Mg4 3.346713 1_555
Cs0 Mg2 3.357966 1_455
Cs0 Mg4 3.357967 1_455
Cs0 Mg13 3.514331 1_454
Cs0 Mg12 3.514331 1_455
Cs0 Mg8 3.565222 1_555
Cs0 Mg9 3.565222 1_554
Cs0 Mg7 3.565228 1_564
Cs0 Mg6 3.565228 1_565
La0 Mg4 3.300228 1_555
La0 Mg2 3.300228 1_555
La0 Mg4 3.405168 1_445
La0 Mg2 3.405168 1_455
La0 Mg10 3.433887 1_455
La0 Mg11 3.433887 1_454
La0 Mg7 3.497906 1_554
La0 Mg6 3.497906 1_555
La0 Mg8 3.497912 1_555
La0 Mg9 3.497912 1_554
Mg0 Mg6 3.131367 1_555
Mg0 Mg7 3.131367 1_555
Mg0 Mg9 3.131373 1_555
Mg0 Mg8 3.131373 1_555
Mg0 Mg10 3.296858 1_455
Mg0 Mg11 3.296858 1_455
Mg0 Mg5 3.306595 1_445
Mg0 Mg3 3.306595 1_455
Mg0 Mg1 3.335527 1_555
Mg0 Mg1 3.335527 1_545
Mg0 Mg5 3.398059 1_555
Mg0 Mg3 3.398059 1_555
Mg1 Mg9 3.177324 1_555
Mg1 Mg8 3.177324 1_555
Mg1 Mg7 3.177331 1_565
Mg1 Mg6 3.177331 1_565
Mg1 Mg12 3.266480 1_455
Mg1 Mg13 3.266480 1_455
Mg1 Mg3 3.330314 1_455
Mg1 Mg5 3.330314 1_455
Mg1 Mg3 3.374394 1_565
Mg1 Mg5 3.374395 1_555
Mg2 Mg4 3.296267 1_545
Mg2 Mg4 3.374689 1_555
Mg2 Mg6 3.522344 1_555
Mg2 Mg7 3.522344 1_554
Mg3 Mg6 3.118170 1_555
Mg3 Mg7 3.118170 1_555
Mg3 Mg5 3.319598 1_545
Mg3 Mg5 3.351358 1_555
Mg4 Mg8 3.522344 1_555
Mg4 Mg9 3.522344 1_554
Mg5 Mg9 3.118169 1_555
Mg5 Mg8 3.118169 1_555
Mg6 Mg8 3.237198 1_555
Mg6 Mg8 3.433757 1_545
Mg7 Mg9 3.237198 1_555
Mg7 Mg9 3.433757 1_545
Mg10 Mg3 3.280809 1_555
Mg10 Mg5 3.280816 1_545
Mg10 Mg8 3.322038 1_545
Mg10 Mg6 3.322039 1_555
Mg10 Mg12 3.337845 1_545
Mg10 Mg12 3.337845 1_555
Mg10 Mg2 3.339784 1_555
Mg10 Mg4 3.339791 1_545
Mg10 Mg8 3.397028 1_655
Mg10 Mg6 3.397029 1_655
Mg11 Mg3 3.280809 1_555
Mg11 Mg5 3.280816 1_545
Mg11 Mg9 3.322038 1_545
Mg11 Mg7 3.322039 1_555
Mg11 Mg13 3.337845 1_545
Mg11 Mg13 3.337845 1_555
Mg11 Mg2 3.339784 1_556
Mg11 Mg4 3.339791 1_546
Mg11 Mg9 3.397028 1_655
Mg11 Mg7 3.397029 1_655
Mg12 Mg5 3.184993 1_555
Mg12 Mg3 3.185000 1_555
Mg12 Mg6 3.206891 1_555
Mg12 Mg8 3.206891 1_555
Mg12 Mg4 3.427249 1_555
Mg12 Mg2 3.427256 1_555
Mg12 Mg6 3.501004 1_665
Mg12 Mg8 3.501004 1_655
Mg13 Mg5 3.184993 1_555
Mg13 Mg3 3.185000 1_555
Mg13 Mg7 3.206891 1_555
Mg13 Mg9 3.206891 1_555
Mg13 Mg4 3.427249 1_556
Mg13 Mg2 3.427256 1_556
Mg13 Mg7 3.501004 1_665
Mg13 Mg9 3.501004 1_655
