# generated using pymatgen
data_CdH12C2S2(N4Cl)2
_symmetry_space_group_name_H-M   'P 1'
_cell_length_a   8.89188000
_cell_length_b   6.15854500
_cell_length_c   14.46353361
_cell_angle_alpha   90.00000000
_cell_angle_beta   121.17490637
_cell_angle_gamma   90.00000000
_symmetry_Int_Tables_number   1
_chemical_formula_structural   CdH12C2S2(N4Cl)2
_chemical_formula_sum   'Cd2 H24 C4 S4 N16 Cl4'
_cell_volume   677.66078961
_cell_formula_units_Z   2
loop_
 _symmetry_equiv_pos_site_id
 _symmetry_equiv_pos_as_xyz
  1  'x, y, z'
loop_
 _atom_site_type_symbol
 _atom_site_label
 _atom_site_symmetry_multiplicity
 _atom_site_fract_x
 _atom_site_fract_y
 _atom_site_fract_z
 _atom_site_occupancy
  Cd  Cd0  1  0.50000000  0.00000000  0.00000000  1
  Cd  Cd1  1  0.50000000  0.50000000  0.50000000  1
  H  H0  1  0.41572200  0.40205400  0.07266400  1
  H  H1  1  0.41572200  0.09794600  0.57266400  1
  H  H2  1  0.58427800  0.59794600  0.92733600  1
  H  H3  1  0.58427800  0.90205400  0.42733600  1
  H  H4  1  0.38225600  0.19738500  0.13459200  1
  H  H5  1  0.38225600  0.30261500  0.63459200  1
  H  H6  1  0.61774400  0.80261500  0.86540800  1
  H  H7  1  0.61774400  0.69738500  0.36540800  1
  H  H8  1  0.11046600  0.38726500  0.98649800  1
  H  H9  1  0.11046600  0.11273500  0.48649800  1
  H  H10  1  0.88953400  0.61273500  0.01350200  1
  H  H11  1  0.88953400  0.88726500  0.51350200  1
  H  H12  1  0.84392800  0.01774500  0.79290500  1
  H  H13  1  0.84392800  0.48225500  0.29290500  1
  H  H14  1  0.15607200  0.98225500  0.20709500  1
  H  H15  1  0.15607200  0.51774500  0.70709500  1
  H  H16  1  0.72630500  0.29165400  0.85656600  1
  H  H17  1  0.72630500  0.20834600  0.35656600  1
  H  H18  1  0.27369500  0.70834600  0.14343400  1
  H  H19  1  0.27369500  0.79165400  0.64343400  1
  H  H20  1  0.80778800  0.41749600  0.78933100  1
  H  H21  1  0.80778800  0.08250400  0.28933100  1
  H  H22  1  0.19221200  0.58250400  0.21066900  1
  H  H23  1  0.19221200  0.91749600  0.71066900  1
  C  C0  1  0.09052100  0.09781400  0.91509200  1
  C  C1  1  0.09052100  0.40218600  0.41509200  1
  C  C2  1  0.90947900  0.90218600  0.08490800  1
  C  C3  1  0.90947900  0.59781400  0.58490800  1
  S  S0  1  0.17546400  0.85892700  0.90287400  1
  S  S1  1  0.17546400  0.64107300  0.40287400  1
  S  S2  1  0.82453600  0.14107300  0.09712600  1
  S  S3  1  0.82453600  0.35892700  0.59712600  1
  N  N0  1  0.91616000  0.13005900  0.85199200  1
  N  N1  1  0.91616000  0.36994100  0.35199200  1
  N  N2  1  0.08384000  0.86994100  0.14800800  1
  N  N3  1  0.08384000  0.63005900  0.64800800  1
  N  N4  1  0.83938000  0.32635300  0.85658900  1
  N  N5  1  0.83938000  0.17364700  0.35658900  1
  N  N6  1  0.16062000  0.67364700  0.14341100  1
  N  N7  1  0.16062000  0.82635300  0.64341100  1
  N  N8  1  0.36228000  0.24777600  0.06116000  1
  N  N9  1  0.36228000  0.25222400  0.56116000  1
  N  N10  1  0.63772000  0.75222400  0.93884000  1
  N  N11  1  0.63772000  0.74777600  0.43884000  1
  N  N12  1  0.18217800  0.25881100  0.98487200  1
  N  N13  1  0.18217800  0.24118900  0.48487200  1
  N  N14  1  0.81782200  0.74118900  0.01512800  1
  N  N15  1  0.81782200  0.75881100  0.51512800  1
  Cl  Cl0  1  0.57901700  0.70479300  0.16391400  1
  Cl  Cl1  1  0.57901700  0.79520700  0.66391400  1
  Cl  Cl2  1  0.42098300  0.29520700  0.83608600  1
  Cl  Cl3  1  0.42098300  0.20479300  0.33608600  1
loop_
_geom_bond_atom_site_label_1
_geom_bond_atom_site_label_2
_geom_bond_distance
_geom_bond_site_symmetry_2
Cd0 N10 2.394183 1_544
Cd0 N8 2.394183 1_555
Cd0 S0 2.618922 1_544
Cd0 S2 2.618922 1_555
Cd0 Cl0 2.773984 1_545
Cd0 Cl2 2.773984 1_554
Cd1 N11 2.394183 1_555
Cd1 N9 2.394183 1_555
Cd1 S1 2.618922 1_555
Cd1 S3 2.618922 1_555
Cd1 Cl3 2.773984 1_555
Cd1 Cl1 2.773984 1_555
H0 N8 1.036525 1_555
H1 N9 1.036525 1_555
H2 N10 1.036525 1_555
H3 N11 1.036525 1_555
H4 N8 1.029841 1_555
H5 N9 1.029841 1_555
H6 N10 1.029841 1_555
H7 N11 1.029841 1_555
H8 N12 1.023965 1_555
H9 N13 1.023965 1_555
H10 N14 1.023965 1_555
H11 N15 1.023965 1_555
H12 N0 1.026176 1_555
H13 N1 1.026176 1_555
H14 N2 1.026176 1_555
H15 N3 1.026176 1_555
H16 N4 1.027739 1_555
H17 N5 1.027739 1_555
H18 N6 1.027739 1_555
H19 N7 1.027739 1_555
H20 N4 1.028290 1_555
H21 N5 1.028290 1_555
H22 N6 1.028290 1_555
H23 N7 1.028290 1_555
C0 N0 1.345797 1_455
C0 N12 1.346974 1_555
C0 S0 1.704205 1_545
C1 N1 1.345797 1_455
C1 N13 1.346974 1_555
C1 S1 1.704205 1_555
C2 N2 1.345797 1_655
C2 N14 1.346974 1_555
C2 S2 1.704205 1_565
C3 N3 1.345797 1_655
C3 N15 1.346974 1_555
C3 S3 1.704205 1_555
N0 N4 1.406743 1_555
N1 N5 1.406743 1_555
N2 N6 1.406743 1_555
N3 N7 1.406743 1_555
N10 N14 1.399041 1_556
N11 N15 1.399041 1_555
N12 N8 1.399041 1_556
N13 N9 1.399041 1_555
