# generated using pymatgen
data_PrVSb3
_symmetry_space_group_name_H-M   'P 1'
_cell_length_a   6.27206377
_cell_length_b   6.20187894
_cell_length_c   13.24995256
_cell_angle_alpha   90.00000000
_cell_angle_beta   90.00000000
_cell_angle_gamma   90.00000000
_symmetry_Int_Tables_number   1
_chemical_formula_structural   PrVSb3
_chemical_formula_sum   'Pr4 V4 Sb12'
_cell_volume   515.40434237
_cell_formula_units_Z   4
loop_
 _symmetry_equiv_pos_site_id
 _symmetry_equiv_pos_as_xyz
  1  'x, y, z'
loop_
 _atom_site_type_symbol
 _atom_site_label
 _atom_site_symmetry_multiplicity
 _atom_site_fract_x
 _atom_site_fract_y
 _atom_site_fract_z
 _atom_site_occupancy
  Pr  Pr0  1  0.25000000  0.50231467  0.31164737  1
  Pr  Pr1  1  0.75000000  0.49768533  0.68835263  1
  Pr  Pr2  1  0.25000000  0.00231467  0.68835263  1
  Pr  Pr3  1  0.75000000  0.99768533  0.31164737  1
  V  V0  1  -0.00000000  0.75000000  0.90711186  1
  V  V1  1  0.00000000  0.25000000  0.09288814  1
  V  V2  1  0.50000000  0.25000000  0.09288814  1
  V  V3  1  0.50000000  0.75000000  0.90711186  1
  Sb  Sb0  1  0.00000000  0.75000000  0.50137366  1
  Sb  Sb1  1  0.00000000  0.25000000  0.49862634  1
  Sb  Sb2  1  0.50000000  0.25000000  0.49862634  1
  Sb  Sb3  1  0.50000000  0.75000000  0.50137366  1
  Sb  Sb4  1  0.25000000  0.60641900  0.06466393  1
  Sb  Sb5  1  0.75000000  0.39358100  0.93533607  1
  Sb  Sb6  1  0.25000000  0.10641900  0.93533607  1
  Sb  Sb7  1  0.75000000  0.89358100  0.06466393  1
  Sb  Sb8  1  0.25000000  0.99598731  0.21821235  1
  Sb  Sb9  1  0.75000000  0.00401269  0.78178765  1
  Sb  Sb10  1  0.25000000  0.49598731  0.78178765  1
  Sb  Sb11  1  0.75000000  0.50401269  0.21821235  1
loop_
_geom_bond_atom_site_label_1
_geom_bond_atom_site_label_2
_geom_bond_distance
_geom_bond_site_symmetry_2
Pr0 Sb8 3.302524 1_555
Pr0 Sb1 3.323428 1_555
Pr0 Sb2 3.323428 1_555
Pr0 Sb4 3.335601 1_555
Pr0 Sb0 3.337340 1_555
Pr0 Sb3 3.337340 1_555
Pr0 Sb11 3.371569 1_455
Pr0 Sb11 3.371569 1_555
Pr0 Sb8 3.375412 1_545
Pr1 Sb9 3.302524 1_555
Pr1 Sb0 3.323428 1_655
Pr1 Sb3 3.323428 1_555
Pr1 Sb5 3.335601 1_555
Pr1 Sb2 3.337340 1_555
Pr1 Sb1 3.337340 1_655
Pr1 Sb10 3.371569 1_555
Pr1 Sb10 3.371569 1_655
Pr1 Sb9 3.375412 1_565
Pr2 Sb10 3.302524 1_555
Pr2 Sb3 3.323428 1_545
Pr2 Sb0 3.323428 1_545
Pr2 Sb6 3.335601 1_555
Pr2 Sb1 3.337340 1_555
Pr2 Sb2 3.337340 1_555
Pr2 Sb9 3.371569 1_555
Pr2 Sb9 3.371569 1_455
Pr2 Sb10 3.375412 1_545
Pr3 Sb11 3.302524 1_555
Pr3 Sb1 3.323428 1_665
Pr3 Sb2 3.323428 1_565
Pr3 Sb7 3.335601 1_555
Pr3 Sb3 3.337340 1_555
Pr3 Sb0 3.337340 1_655
Pr3 Sb8 3.371569 1_555
Pr3 Sb8 3.371569 1_655
Pr3 Sb11 3.375412 1_565
Sb0 Sb1 3.101153 1_555
Sb0 Sb1 3.101153 1_565
Sb0 Sb3 3.136032 1_555
Sb0 Sb3 3.136032 1_455
Sb1 Sb2 3.136032 1_455
Sb1 Sb2 3.136032 1_555
Sb2 Sb3 3.101153 1_555
Sb2 Sb3 3.101153 1_545
Sb4 V1 2.735817 1_555
Sb4 V2 2.735817 1_555
Sb4 V0 2.758534 1_554
Sb4 V3 2.758534 1_554
Sb4 Sb8 3.158568 1_555
Sb5 V0 2.735817 1_655
Sb5 V3 2.735817 1_555
Sb5 V2 2.758534 1_556
Sb5 V1 2.758534 1_656
Sb5 Sb9 3.158568 1_555
Sb6 V3 2.735817 1_545
Sb6 V0 2.735817 1_545
Sb6 V2 2.758534 1_556
Sb6 V1 2.758534 1_556
Sb7 V1 2.735817 1_665
Sb7 V2 2.735817 1_565
Sb7 V0 2.758534 1_654
Sb7 V3 2.758534 1_554
Sb8 V1 2.774493 1_565
Sb8 V2 2.774493 1_565
Sb9 V0 2.774493 1_645
Sb9 V3 2.774493 1_545
Sb10 V3 2.774493 1_555
Sb10 V0 2.774493 1_555
Sb10 Sb6 3.158568 1_555
Sb11 V1 2.774493 1_655
Sb11 V2 2.774493 1_555
Sb11 Sb7 3.158568 1_555
