# generated using pymatgen
data_BaEuNbSbO6
_symmetry_space_group_name_H-M   'P 1'
_cell_length_a   8.60651023
_cell_length_b   8.68942703
_cell_length_c   8.58839292
_cell_angle_alpha   90.00000000
_cell_angle_beta   90.00000000
_cell_angle_gamma   90.00000000
_symmetry_Int_Tables_number   1
_chemical_formula_structural   BaEuNbSbO6
_chemical_formula_sum   'Ba4 Eu4 Nb4 Sb4 O24'
_cell_volume   642.28848365
_cell_formula_units_Z   4
loop_
 _symmetry_equiv_pos_site_id
 _symmetry_equiv_pos_as_xyz
  1  'x, y, z'
loop_
 _atom_site_type_symbol
 _atom_site_label
 _atom_site_symmetry_multiplicity
 _atom_site_fract_x
 _atom_site_fract_y
 _atom_site_fract_z
 _atom_site_occupancy
  Ba  Ba0  1  -0.00000000  0.00000000  0.00000000  1
  Ba  Ba1  1  0.50000000  0.50000000  0.50000000  1
  Ba  Ba2  1  0.50000000  0.00000000  0.50000000  1
  Ba  Ba3  1  0.50000000  0.50000000  -0.00000000  1
  Eu  Eu0  1  -0.00000000  0.50000000  0.50000000  1
  Eu  Eu1  1  0.50000000  0.00000000  -0.00000000  1
  Eu  Eu2  1  -0.00000000  0.50000000  0.00000000  1
  Eu  Eu3  1  -0.00000000  0.00000000  0.50000000  1
  Nb  Nb0  1  0.75009307  0.75162136  0.74967972  1
  Nb  Nb1  1  0.24990693  0.24837864  0.74967972  1
  Nb  Nb2  1  0.24990693  0.75162136  0.25032028  1
  Nb  Nb3  1  0.75009307  0.24837864  0.25032028  1
  Sb  Sb0  1  0.24782645  0.24982021  0.25008298  1
  Sb  Sb1  1  0.75217355  0.75017979  0.25008298  1
  Sb  Sb2  1  0.75217355  0.24982021  0.74991702  1
  Sb  Sb3  1  0.24782645  0.75017979  0.74991702  1
  O  O0  1  0.98509965  0.21829145  0.28131286  1
  O  O1  1  0.01490035  0.78170855  0.28131286  1
  O  O2  1  0.01490035  0.21829145  0.71868714  1
  O  O3  1  0.98509965  0.78170855  0.71868714  1
  O  O4  1  0.27891609  0.98294484  0.21706977  1
  O  O5  1  0.27891609  0.01705516  0.78293023  1
  O  O6  1  0.72108391  0.01705516  0.21706977  1
  O  O7  1  0.72108391  0.98294484  0.78293023  1
  O  O8  1  0.21687454  0.27977688  0.98294982  1
  O  O9  1  0.78312546  0.27977688  0.01705018  1
  O  O10  1  0.21687454  0.72022312  0.01705018  1
  O  O11  1  0.78312546  0.72022312  0.98294982  1
  O  O12  1  0.51880089  0.27652814  0.22508341  1
  O  O13  1  0.48119911  0.72347186  0.22508341  1
  O  O14  1  0.48119911  0.27652814  0.77491659  1
  O  O15  1  0.51880089  0.72347186  0.77491659  1
  O  O16  1  0.21790449  0.51526113  0.28311024  1
  O  O17  1  0.21790449  0.48473887  0.71688976  1
  O  O18  1  0.78209551  0.48473887  0.28311024  1
  O  O19  1  0.78209551  0.51526113  0.71688976  1
  O  O20  1  0.27543929  0.22498099  0.51723942  1
  O  O21  1  0.72456071  0.22498099  0.48276058  1
  O  O22  1  0.27543929  0.77501901  0.48276058  1
  O  O23  1  0.72456071  0.77501901  0.51723942  1
loop_
_geom_bond_atom_site_label_1
_geom_bond_atom_site_label_2
_geom_bond_distance
_geom_bond_site_symmetry_2
Ba0 O7 3.043005 1_444
Ba0 O5 3.043005 1_554
Ba0 O6 3.043005 1_455
Ba0 O4 3.043005 1_545
Ba0 O11 3.068491 1_444
Ba0 O9 3.068491 1_455
Ba0 O10 3.068491 1_545
Ba0 O8 3.068491 1_554
Ba0 O1 3.074342 1_545
Ba0 O3 3.074342 1_444
Ba0 O2 3.074342 1_554
Ba0 O0 3.074342 1_455
Ba1 O13 3.061321 1_555
Ba1 O14 3.061321 1_555
Ba1 O15 3.061321 1_555
Ba1 O12 3.061321 1_555
Ba1 O17 3.062982 1_555
Ba1 O19 3.062982 1_555
Ba1 O18 3.062982 1_555
Ba1 O16 3.062982 1_555
Ba1 O20 3.077033 1_555
Ba1 O21 3.077033 1_555
Ba1 O22 3.077033 1_555
Ba1 O23 3.077033 1_555
Ba2 O22 2.753006 1_545
Ba2 O23 2.753006 1_545
Ba2 O20 2.753006 1_555
Ba2 O21 2.753006 1_555
Ba2 O6 3.089815 1_555
Ba2 O4 3.089815 1_545
Ba2 O5 3.089815 1_555
Ba2 O7 3.089815 1_545
Ba2 O12 3.372644 1_555
Ba2 O14 3.372644 1_555
Ba2 O15 3.372644 1_545
Ba2 O13 3.372644 1_545
Ba3 O15 2.744782 1_554
Ba3 O14 2.744782 1_554
Ba3 O12 2.744782 1_555
Ba3 O13 2.744782 1_555
Ba3 O8 3.101769 1_554
Ba3 O10 3.101769 1_555
Ba3 O11 3.101769 1_554
Ba3 O9 3.101769 1_555
Eu0 O17 2.646598 1_555
Eu0 O18 2.646598 1_455
Eu0 O19 2.646598 1_455
Eu0 O16 2.646598 1_555
Eu0 O0 3.088060 1_455
Eu0 O2 3.088060 1_555
Eu0 O1 3.088060 1_555
Eu0 O3 3.088060 1_455
Eu1 O7 2.667959 1_544
Eu1 O5 2.667959 1_554
Eu1 O4 2.667959 1_545
Eu1 O6 2.667959 1_555
Eu1 O14 3.088182 1_554
Eu1 O15 3.088182 1_544
Eu1 O12 3.088182 1_555
Eu1 O13 3.088182 1_545
Eu2 O10 2.677182 1_555
Eu2 O11 2.677182 1_454
Eu2 O9 2.677182 1_455
Eu2 O8 2.677182 1_554
Eu2 O17 3.073550 1_554
Eu2 O18 3.073550 1_455
Eu2 O19 3.073550 1_454
Eu2 O16 3.073550 1_555
Eu3 O1 2.672438 1_545
Eu3 O3 2.672438 1_445
Eu3 O0 2.672438 1_455
Eu3 O2 2.672438 1_555
Eu3 O22 3.076261 1_545
Eu3 O23 3.076261 1_445
Eu3 O20 3.076261 1_555
Eu3 O21 3.076261 1_455
Nb0 O15 2.017268 1_555
Nb0 O23 2.018611 1_555
Nb0 O11 2.041797 1_555
Nb0 O7 2.045546 1_555
Nb0 O3 2.056710 1_555
Nb0 O19 2.091269 1_555
Nb1 O14 2.017268 1_555
Nb1 O20 2.018611 1_555
Nb1 O8 2.041797 1_555
Nb1 O5 2.045546 1_555
Nb1 O2 2.056710 1_555
Nb1 O17 2.091269 1_555
Nb2 O13 2.017268 1_555
Nb2 O22 2.018611 1_555
Nb2 O10 2.041797 1_555
Nb2 O4 2.045546 1_555
Nb2 O1 2.056710 1_555
Nb2 O16 2.091269 1_555
Nb3 O12 2.017268 1_555
Nb3 O21 2.018611 1_555
Nb3 O9 2.041797 1_555
Nb3 O6 2.045546 1_555
Nb3 O0 2.056710 1_555
Nb3 O18 2.091269 1_555
O0 Sb0 2.293435 1_655
O1 Sb1 2.293435 1_455
O2 Sb2 2.293435 1_455
O3 Sb3 2.293435 1_655
O4 Sb0 2.351535 1_565
O5 Sb3 2.351535 1_545
O6 Sb1 2.351535 1_545
O7 Sb2 2.351535 1_565
O8 Sb0 2.324281 1_556
O9 Sb2 2.324281 1_554
O10 Sb3 2.324281 1_554
O11 Sb1 2.324281 1_556
O12 Sb0 2.353477 1_555
O13 Sb1 2.353477 1_555
O14 Sb2 2.353477 1_555
O15 Sb3 2.353477 1_555
O16 Sb0 2.338131 1_555
O17 Sb3 2.338131 1_555
O18 Sb1 2.338131 1_555
O19 Sb2 2.338131 1_555
O20 Sb0 2.316795 1_555
O21 Sb2 2.316795 1_555
O22 Sb3 2.316795 1_555
O23 Sb1 2.316795 1_555
