# generated using pymatgen
data_Sm2(Al3Ir)3
_symmetry_space_group_name_H-M   'P 1'
_cell_length_a   7.54039111
_cell_length_b   7.54039111
_cell_length_c   9.52300089
_cell_angle_alpha   90.00000000
_cell_angle_beta   90.00000000
_cell_angle_gamma   119.40204789
_symmetry_Int_Tables_number   1
_chemical_formula_structural   Sm2(Al3Ir)3
_chemical_formula_sum   'Sm4 Al18 Ir6'
_cell_volume   471.71270625
_cell_formula_units_Z   2
loop_
 _symmetry_equiv_pos_site_id
 _symmetry_equiv_pos_as_xyz
  1  'x, y, z'
loop_
 _atom_site_type_symbol
 _atom_site_label
 _atom_site_symmetry_multiplicity
 _atom_site_fract_x
 _atom_site_fract_y
 _atom_site_fract_z
 _atom_site_occupancy
  Sm  Sm0  1  0.99498597  0.67104226  0.75000000  1
  Sm  Sm1  1  0.00501403  0.32895774  0.25000000  1
  Sm  Sm2  1  0.67104226  0.99498597  0.75000000  1
  Sm  Sm3  1  0.32895774  0.00501403  0.25000000  1
  Al  Al0  1  0.13123193  0.13123193  0.75000000  1
  Al  Al1  1  0.86876807  0.86876807  0.25000000  1
  Al  Al2  1  0.00254733  0.33530107  0.57235557  1
  Al  Al3  1  0.99745267  0.66469893  0.42764443  1
  Al  Al4  1  0.99745267  0.66469893  0.07235557  1
  Al  Al5  1  0.33530107  0.00254733  0.92764443  1
  Al  Al6  1  0.00254733  0.33530107  0.92764443  1
  Al  Al7  1  0.66469893  0.99745267  0.07235557  1
  Al  Al8  1  0.66469893  0.99745267  0.42764443  1
  Al  Al9  1  0.33530107  0.00254733  0.57235557  1
  Al  Al10  1  0.33426478  0.33426478  0.04714994  1
  Al  Al11  1  0.66573522  0.66573522  0.95285006  1
  Al  Al12  1  0.66573522  0.66573522  0.54714994  1
  Al  Al13  1  0.33426478  0.33426478  0.45285006  1
  Al  Al14  1  0.33938257  0.54666161  0.75000000  1
  Al  Al15  1  0.66061743  0.45333839  0.25000000  1
  Al  Al16  1  0.54666161  0.33938257  0.75000000  1
  Al  Al17  1  0.45333839  0.66061743  0.25000000  1
  Ir  Ir0  1  0.67151072  0.32848928  0.50000000  1
  Ir  Ir1  1  0.32848928  0.67151072  0.50000000  1
  Ir  Ir2  1  0.32848928  0.67151072  -0.00000000  1
  Ir  Ir3  1  0.67151072  0.32848928  -0.00000000  1
  Ir  Ir4  1  0.00000000  -0.00000000  0.50000000  1
  Ir  Ir5  1  0.00000000  -0.00000000  -0.00000000  1
loop_
_geom_bond_atom_site_label_1
_geom_bond_atom_site_label_2
_geom_bond_distance
_geom_bond_site_symmetry_2
Al0 Ir5 2.581649 1_556
Al0 Ir4 2.581649 1_555
Al0 Sm0 3.097764 1_445
Al0 Sm2 3.097764 1_445
Al1 Ir5 2.581649 1_665
Al1 Ir4 2.581649 1_665
Al1 Sm1 3.097764 1_665
Al1 Sm3 3.097764 1_665
Al2 Ir0 2.565594 1_455
Al2 Ir4 2.611469 1_555
Al2 Ir1 2.612366 1_555
Al2 Sm2 3.065458 1_445
Al2 Sm0 3.068542 1_455
Al2 Sm1 3.070364 1_555
Al3 Ir1 2.565594 1_655
Al3 Ir4 2.611469 1_665
Al3 Ir0 2.612366 1_555
Al3 Sm3 3.065458 1_665
Al3 Sm1 3.068542 1_655
Al3 Sm0 3.070364 1_555
Al4 Ir2 2.565594 1_655
Al4 Ir5 2.611469 1_665
Al4 Ir3 2.612366 1_555
Al4 Sm3 3.065458 1_665
Al4 Sm1 3.068542 1_655
Al4 Sm0 3.070364 1_554
Al5 Ir2 2.565594 1_546
Al5 Ir5 2.611469 1_556
Al5 Ir3 2.612366 1_556
Al5 Sm0 3.065458 1_445
Al5 Sm2 3.068542 1_545
Al5 Sm3 3.070364 1_556
Al6 Ir3 2.565594 1_456
Al6 Ir5 2.611469 1_556
Al6 Ir2 2.612366 1_556
Al6 Sm2 3.065458 1_445
Al6 Sm0 3.068542 1_455
Al6 Sm1 3.070364 1_556
Al7 Ir3 2.565594 1_565
Al7 Ir5 2.611469 1_665
Al7 Ir2 2.612366 1_555
Al7 Sm1 3.065458 1_665
Al7 Sm3 3.068542 1_565
Al7 Sm2 3.070364 1_554
Al8 Ir0 2.565594 1_565
Al8 Ir4 2.611469 1_665
Al8 Ir1 2.612366 1_555
Al8 Sm1 3.065458 1_665
Al8 Sm3 3.068542 1_565
Al8 Sm2 3.070364 1_555
Al9 Ir1 2.565594 1_545
Al9 Ir4 2.611469 1_555
Al9 Ir0 2.612366 1_555
Al9 Sm0 3.065458 1_445
Al9 Sm2 3.068542 1_545
Al9 Sm3 3.070364 1_555
Al10 Ir5 2.582565 1_555
Al10 Ir3 2.603636 1_555
Al10 Ir2 2.603636 1_555
Al10 Sm1 3.130395 1_555
Al10 Sm3 3.130395 1_555
Al11 Ir5 2.582565 1_666
Al11 Ir3 2.603636 1_556
Al11 Ir2 2.603636 1_556
Al11 Sm2 3.130395 1_555
Al11 Sm0 3.130395 1_555
Al12 Ir4 2.582565 1_665
Al12 Ir0 2.603636 1_555
Al12 Ir1 2.603636 1_555
Al12 Sm2 3.130395 1_555
Al12 Sm0 3.130395 1_555
Al13 Ir4 2.582565 1_555
Al13 Ir1 2.603636 1_555
Al13 Ir0 2.603636 1_555
Al13 Sm1 3.130395 1_555
Al13 Sm3 3.130395 1_555
Al14 Ir2 2.576218 1_556
Al14 Ir1 2.576218 1_555
Al14 Sm2 3.062899 1_555
Al14 Sm0 3.164622 1_455
Al15 Ir3 2.576218 1_555
Al15 Ir0 2.576218 1_555
Al15 Sm3 3.062899 1_555
Al15 Sm1 3.164622 1_655
Al16 Ir0 2.576218 1_555
Al16 Ir3 2.576218 1_556
Al16 Sm0 3.062899 1_555
Al16 Sm2 3.164622 1_545
Al17 Ir1 2.576218 1_555
Al17 Ir2 2.576218 1_555
Al17 Sm1 3.062899 1_555
Al17 Sm3 3.164622 1_565
