# generated using pymatgen
data_KEu2Cd2Sb3
_symmetry_space_group_name_H-M   'P 1'
_cell_length_a   12.65911200
_cell_length_b   4.87896300
_cell_length_c   16.29576100
_cell_angle_alpha   90.00000000
_cell_angle_beta   90.00000000
_cell_angle_gamma   90.00000000
_symmetry_Int_Tables_number   1
_chemical_formula_structural   KEu2Cd2Sb3
_chemical_formula_sum   'K4 Eu8 Cd8 Sb12'
_cell_volume   1006.48061190
_cell_formula_units_Z   4
loop_
 _symmetry_equiv_pos_site_id
 _symmetry_equiv_pos_as_xyz
  1  'x, y, z'
loop_
 _atom_site_type_symbol
 _atom_site_label
 _atom_site_symmetry_multiplicity
 _atom_site_fract_x
 _atom_site_fract_y
 _atom_site_fract_z
 _atom_site_occupancy
  K  K0  1  0.40779700  0.25000000  0.45390300  1
  K  K1  1  0.90779700  0.25000000  0.04609700  1
  K  K2  1  0.59220300  0.75000000  0.54609700  1
  K  K3  1  0.09220300  0.75000000  0.95390300  1
  Eu  Eu0  1  0.10044500  0.25000000  0.57614500  1
  Eu  Eu1  1  0.60044500  0.25000000  0.92385500  1
  Eu  Eu2  1  0.89955500  0.75000000  0.42385500  1
  Eu  Eu3  1  0.39955500  0.75000000  0.07614500  1
  Eu  Eu4  1  0.36433400  0.25000000  0.71970400  1
  Eu  Eu5  1  0.86433400  0.25000000  0.78029600  1
  Eu  Eu6  1  0.63566600  0.75000000  0.28029600  1
  Eu  Eu7  1  0.13566600  0.75000000  0.21970400  1
  Cd  Cd0  1  0.30268200  0.25000000  0.92380400  1
  Cd  Cd1  1  0.80268200  0.25000000  0.57619600  1
  Cd  Cd2  1  0.69731800  0.75000000  0.07619600  1
  Cd  Cd3  1  0.19731800  0.75000000  0.42380400  1
  Cd  Cd4  1  0.37037600  0.25000000  0.21950300  1
  Cd  Cd5  1  0.87037600  0.25000000  0.28049700  1
  Cd  Cd6  1  0.62962400  0.75000000  0.78049700  1
  Cd  Cd7  1  0.12962400  0.75000000  0.71950300  1
  Sb  Sb0  1  0.07853300  0.25000000  0.37258500  1
  Sb  Sb1  1  0.57853300  0.25000000  0.12741500  1
  Sb  Sb2  1  0.92146700  0.75000000  0.62741500  1
  Sb  Sb3  1  0.42146700  0.75000000  0.87258500  1
  Sb  Sb4  1  0.12256400  0.25000000  0.80782600  1
  Sb  Sb5  1  0.62256400  0.25000000  0.69217400  1
  Sb  Sb6  1  0.87743600  0.75000000  0.19217400  1
  Sb  Sb7  1  0.37743600  0.75000000  0.30782600  1
  Sb  Sb8  1  0.71086500  0.25000000  0.41272900  1
  Sb  Sb9  1  0.21086500  0.25000000  0.08727100  1
  Sb  Sb10  1  0.28913500  0.75000000  0.58727100  1
  Sb  Sb11  1  0.78913500  0.75000000  0.91272900  1
loop_
_geom_bond_atom_site_label_1
_geom_bond_atom_site_label_2
_geom_bond_distance
_geom_bond_site_symmetry_2
K0 Sb7 3.430053 1_555
K0 Sb7 3.430053 1_545
K0 Sb10 3.595959 1_555
K0 Sb10 3.595959 1_545
K0 Sb8 3.894801 1_555
K1 Sb6 3.430053 1_555
K1 Sb6 3.430053 1_545
K1 Sb11 3.595959 1_544
K1 Sb11 3.595959 1_554
K1 Sb9 3.894801 1_655
K2 Sb5 3.430053 1_565
K2 Sb5 3.430053 1_555
K2 Sb8 3.595959 1_555
K2 Sb8 3.595959 1_565
K2 Sb10 3.894801 1_555
K3 Sb4 3.430053 1_565
K3 Sb4 3.430053 1_555
K3 Sb9 3.595959 1_566
K3 Sb9 3.595959 1_556
K3 Sb11 3.894801 1_455
Eu0 Sb0 3.328743 1_555
Eu0 Sb10 3.419003 1_555
Eu0 Sb10 3.419003 1_545
Eu0 Sb2 3.432566 1_445
Eu0 Sb2 3.432566 1_455
Eu0 Sb4 3.785787 1_555
Eu1 Sb1 3.328743 1_556
Eu1 Sb11 3.419003 1_545
Eu1 Sb11 3.419003 1_555
Eu1 Sb3 3.432566 1_545
Eu1 Sb3 3.432566 1_555
Eu1 Sb5 3.785787 1_555
Eu2 Sb2 3.328743 1_555
Eu2 Sb8 3.419003 1_565
Eu2 Sb8 3.419003 1_555
Eu2 Sb0 3.432566 1_655
Eu2 Sb0 3.432566 1_665
Eu2 Sb6 3.785787 1_555
Eu3 Sb3 3.328743 1_554
Eu3 Sb9 3.419003 1_555
Eu3 Sb9 3.419003 1_565
Eu3 Sb1 3.432566 1_565
Eu3 Sb1 3.432566 1_555
Eu3 Sb7 3.785787 1_555
Eu4 Sb5 3.299603 1_555
Eu4 Sb4 3.380735 1_555
Eu4 Sb10 3.393326 1_555
Eu4 Sb10 3.393326 1_545
Eu4 Sb3 3.561011 1_555
Eu4 Sb3 3.561011 1_545
Eu5 Sb4 3.299603 1_655
Eu5 Sb5 3.380735 1_555
Eu5 Sb11 3.393326 1_545
Eu5 Sb11 3.393326 1_555
Eu5 Sb2 3.561011 1_545
Eu5 Sb2 3.561011 1_555
Eu6 Sb7 3.299603 1_555
Eu6 Sb6 3.380735 1_555
Eu6 Sb8 3.393326 1_565
Eu6 Sb8 3.393326 1_555
Eu6 Sb1 3.561011 1_565
Eu6 Sb1 3.561011 1_555
Eu7 Sb6 3.299603 1_455
Eu7 Sb7 3.380735 1_555
Eu7 Sb9 3.393326 1_555
Eu7 Sb9 3.393326 1_565
Eu7 Sb0 3.561011 1_555
Eu7 Sb0 3.561011 1_565
Cd0 Sb9 2.906359 1_556
Cd0 Sb4 2.961574 1_555
Cd0 Sb3 2.984772 1_545
Cd0 Sb3 2.984772 1_555
Cd0 Eu4 3.416308 1_555
Cd0 K3 3.645694 1_555
Cd0 K3 3.645694 1_545
Cd0 Eu3 3.690232 1_546
Cd0 Eu3 3.690232 1_556
Cd0 Eu1 3.769415 1_555
Cd1 Sb8 2.906359 1_555
Cd1 Sb5 2.961574 1_555
Cd1 Sb2 2.984772 1_545
Cd1 Sb2 2.984772 1_555
Cd1 Eu5 3.416308 1_555
Cd1 K2 3.645694 1_555
Cd1 K2 3.645694 1_545
Cd1 Eu2 3.690232 1_545
Cd1 Eu2 3.690232 1_555
Cd1 Eu0 3.769415 1_655
Cd2 Sb11 2.906359 1_554
Cd2 Sb6 2.961574 1_555
Cd2 Sb1 2.984772 1_565
Cd2 Sb1 2.984772 1_555
Cd2 Eu6 3.416308 1_555
Cd2 K1 3.645694 1_555
Cd2 K1 3.645694 1_565
Cd2 Eu1 3.690232 1_564
Cd2 Eu1 3.690232 1_554
Cd2 Eu3 3.769415 1_555
Cd3 Sb10 2.906359 1_555
Cd3 Sb7 2.961574 1_555
Cd3 Sb0 2.984772 1_555
Cd3 Sb0 2.984772 1_565
Cd3 Eu7 3.416308 1_555
Cd3 K0 3.645694 1_555
Cd3 K0 3.645694 1_565
Cd3 Eu0 3.690232 1_565
Cd3 Eu0 3.690232 1_555
Cd3 Eu2 3.769415 1_455
Cd4 Sb7 2.833834 1_545
Cd4 Sb7 2.833834 1_555
Cd4 Sb9 2.953082 1_555
Cd4 Sb1 3.032424 1_555
Cd4 Eu3 3.397794 1_555
Cd4 Eu3 3.397794 1_545
Cd4 Eu7 3.844376 1_545
Cd4 Eu7 3.844376 1_555
Cd4 K0 3.848989 1_555
Cd5 Sb6 2.833834 1_555
Cd5 Sb6 2.833834 1_545
Cd5 Sb8 2.953082 1_555
Cd5 Sb0 3.032424 1_655
Cd5 Eu2 3.397794 1_545
Cd5 Eu2 3.397794 1_555
Cd5 Eu6 3.844376 1_545
Cd5 Eu6 3.844376 1_555
Cd5 K1 3.848989 1_555
Cd6 Sb5 2.833834 1_565
Cd6 Sb5 2.833834 1_555
Cd6 Sb11 2.953082 1_555
Cd6 Sb3 3.032424 1_555
Cd6 Eu1 3.397794 1_565
Cd6 Eu1 3.397794 1_555
Cd6 Eu5 3.844376 1_565
Cd6 Eu5 3.844376 1_555
Cd6 K2 3.848989 1_555
Cd7 Sb4 2.833834 1_555
Cd7 Sb4 2.833834 1_565
Cd7 Sb10 2.953082 1_555
Cd7 Sb2 3.032424 1_455
Cd7 Eu0 3.397794 1_555
Cd7 Eu0 3.397794 1_565
Cd7 Eu4 3.844376 1_555
Cd7 Eu4 3.844376 1_565
Cd7 K3 3.848989 1_555
