# generated using pymatgen
data_Ba8CuSi16
_symmetry_space_group_name_H-M   'P 1'
_cell_length_a   6.90661500
_cell_length_b   9.06033940
_cell_length_c   11.90757732
_cell_angle_alpha   89.63836473
_cell_angle_beta   89.64427780
_cell_angle_gamma   85.72556729
_symmetry_Int_Tables_number   1
_chemical_formula_structural   Ba8CuSi16
_chemical_formula_sum   'Ba8 Cu1 Si16'
_cell_volume   743.03215275
_cell_formula_units_Z   1
loop_
 _symmetry_equiv_pos_site_id
 _symmetry_equiv_pos_as_xyz
  1  'x, y, z'
loop_
 _atom_site_type_symbol
 _atom_site_label
 _atom_site_symmetry_multiplicity
 _atom_site_fract_x
 _atom_site_fract_y
 _atom_site_fract_z
 _atom_site_occupancy
  Ba  Ba0  1  0.73068000  0.98942700  0.71702500  1
  Ba  Ba1  1  0.27210100  0.50381200  0.19433000  1
  Ba  Ba2  1  0.31169200  0.98956600  0.28860600  1
  Ba  Ba3  1  0.66596500  0.46829300  0.78871900  1
  Ba  Ba4  1  0.78979900  0.84470300  0.08558000  1
  Ba  Ba5  1  0.16899200  0.65468600  0.58758000  1
  Ba  Ba6  1  0.25236700  0.20413500  0.92494700  1
  Ba  Ba7  1  0.70210000  0.31864800  0.41096600  1
  Cu  Cu0  1  0.00060300  0.03511100  0.49802500  1
  Si  Si0  1  0.76773500  0.42715900  0.08960400  1
  Si  Si1  1  0.30585300  0.05641800  0.56892800  1
  Si  Si2  1  0.23697000  0.61191000  0.92134800  1
  Si  Si3  1  0.78553100  0.87861300  0.43092100  1
  Si  Si4  1  0.77016700  0.20110700  0.97488700  1
  Si  Si5  1  0.20991500  0.28696500  0.45521500  1
  Si  Si6  1  0.28942400  0.82171700  0.04363300  1
  Si  Si7  1  0.67021500  0.67734200  0.54065100  1
  Si  Si8  1  0.94506800  0.19929900  0.15047100  1
  Si  Si9  1  0.02299300  0.24772900  0.62459500  1
  Si  Si10  1  0.46375900  0.79291900  0.86929500  1
  Si  Si11  1  0.61792600  0.68979200  0.34765900  1
  Si  Si12  1  0.12566000  0.89405700  0.86730500  1
  Si  Si13  1  0.94146600  0.70015900  0.83077500  1
  Si  Si14  1  0.59530400  0.21411000  0.14891800  1
  Si  Si15  1  0.35771600  0.29232400  0.64001600  1
loop_
_geom_bond_atom_site_label_1
_geom_bond_atom_site_label_2
_geom_bond_distance
_geom_bond_site_symmetry_2
Ba0 Si13 3.199044 1_555
Ba0 Si10 3.203606 1_555
Ba0 Cu0 3.238551 1_665
Ba0 Si12 3.328725 1_655
Ba0 Si9 3.377650 1_665
Ba0 Si1 3.445657 1_565
Ba0 Si3 3.567679 1_555
Ba0 Si7 3.583624 1_555
Ba0 Si4 3.652867 1_565
Ba0 Si15 3.735165 1_565
Ba1 Si14 3.360711 1_555
Ba1 Si6 3.393237 1_555
Ba1 Si2 3.393875 1_554
Ba1 Si11 3.545504 1_555
Ba1 Si0 3.654988 1_555
Ba1 Si5 3.705012 1_555
Ba1 Si8 3.734735 1_455
Ba1 Si0 3.820659 1_455
Ba2 Cu0 3.289277 1_565
Ba2 Si6 3.307857 1_555
Ba2 Si14 3.354616 1_565
Ba2 Si5 3.385019 1_565
Ba2 Si11 3.388633 1_555
Ba2 Si1 3.395683 1_565
Ba2 Si8 3.467446 1_465
Ba2 Si3 3.761561 1_555
Ba3 Si13 2.984231 1_555
Ba3 Si15 3.286054 1_555
Ba3 Si10 3.305815 1_555
Ba3 Si4 3.314333 1_555
Ba3 Si7 3.500050 1_555
Ba3 Si2 3.515572 1_555
Ba3 Si9 3.626051 1_655
Ba3 Si0 3.666722 1_556
Ba4 Si13 3.438661 1_554
Ba4 Si4 3.473659 1_564
Ba4 Si6 3.474636 1_655
Ba4 Si10 3.488335 1_554
Ba4 Si6 3.516550 1_555
Ba4 Si12 3.521553 1_654
Ba4 Si8 3.553041 1_565
Ba4 Si14 3.595060 1_565
Ba4 Si11 3.642122 1_555
Ba4 Si0 3.797479 1_555
Ba5 Si13 3.299579 1_455
Ba5 Si7 3.484037 1_455
Ba5 Si15 3.494858 1_555
Ba5 Si7 3.524004 1_555
Ba5 Si5 3.685727 1_555
Ba5 Cu0 3.706950 1_565
Ba5 Si3 3.717901 1_455
Ba5 Si1 3.832914 1_565
Ba5 Si9 3.915925 1_555
Ba6 Si12 3.086751 1_545
Ba6 Si4 3.381503 1_455
Ba6 Si8 3.414631 1_456
Ba6 Si15 3.563844 1_555
Ba6 Si14 3.583872 1_556
Ba6 Si4 3.627049 1_555
Ba6 Si2 3.688164 1_555
Ba6 Si6 3.725372 1_546
Ba6 Si9 3.926326 1_555
Ba7 Cu0 3.335855 1_655
Ba7 Si14 3.368649 1_555
Ba7 Si9 3.410691 1_655
Ba7 Si11 3.449051 1_555
Ba7 Si5 3.469409 1_555
Ba7 Si5 3.540058 1_655
Ba7 Si7 3.598247 1_555
Ba7 Si15 3.626149 1_555
Ba7 Si8 3.648842 1_555
Cu0 Si3 2.280014 1_445
Cu0 Si1 2.297739 1_555
Cu0 Si9 2.467858 1_555
Cu0 Si5 2.832776 1_555
Si0 Si8 2.429546 1_555
Si0 Si14 2.440940 1_555
Si0 Si4 2.467973 1_554
Si1 Si15 2.356694 1_555
Si1 Si5 2.530777 1_555
Si1 Si9 2.598860 1_555
Si2 Si6 2.451363 1_556
Si3 Si7 2.416720 1_555
Si4 Si8 2.420498 1_556
Si5 Si9 2.426518 1_555
Si10 Si6 2.399242 1_556
Si10 Si2 2.425957 1_555
Si10 Si12 2.444274 1_555
Si11 Si7 2.329210 1_555
Si11 Si3 2.362333 1_555
Si12 Si13 2.289879 1_455
Si12 Si6 2.453357 1_556
Si12 Si2 2.689325 1_555
Si13 Si2 2.396054 1_655
Si14 Si4 2.391154 1_554
Si14 Si8 2.409582 1_555
Si15 Si9 2.384712 1_555
Si15 Si5 2.433798 1_555
