# generated using pymatgen
data_HoPt
_symmetry_space_group_name_H-M   'P 1'
_cell_length_a   4.49807952
_cell_length_b   5.50799260
_cell_length_c   6.95537046
_cell_angle_alpha   90.00000000
_cell_angle_beta   90.00000000
_cell_angle_gamma   90.00000000
_symmetry_Int_Tables_number   1
_chemical_formula_structural   HoPt
_chemical_formula_sum   'Ho4 Pt4'
_cell_volume   172.32200677
_cell_formula_units_Z   4
loop_
 _symmetry_equiv_pos_site_id
 _symmetry_equiv_pos_as_xyz
  1  'x, y, z'
loop_
 _atom_site_type_symbol
 _atom_site_label
 _atom_site_symmetry_multiplicity
 _atom_site_fract_x
 _atom_site_fract_y
 _atom_site_fract_z
 _atom_site_occupancy
  Ho  Ho0  1  0.25000000  0.35962242  0.68203734  1
  Ho  Ho1  1  0.25000000  0.14037758  0.18203734  1
  Ho  Ho2  1  0.75000000  0.64037758  0.31796266  1
  Ho  Ho3  1  0.75000000  0.85962242  0.81796266  1
  Pt  Pt0  1  0.25000000  0.84480249  0.54339354  1
  Pt  Pt1  1  0.25000000  0.65519751  0.04339454  1
  Pt  Pt2  1  0.75000000  0.15519751  0.45660546  1
  Pt  Pt3  1  0.75000000  0.34480249  0.95660646  1
loop_
_geom_bond_atom_site_label_1
_geom_bond_atom_site_label_2
_geom_bond_distance
_geom_bond_site_symmetry_2
Ho0 Pt0 2.841032 1_555
Ho0 Pt3 2.951595 1_455
Ho0 Pt3 2.951595 1_555
Ho0 Pt2 2.963865 1_555
Ho0 Pt2 2.963865 1_455
Ho0 Pt1 2.994580 1_556
Ho0 Pt0 2.995109 1_545
Ho1 Pt1 2.841030 1_545
Ho1 Pt2 2.951590 1_455
Ho1 Pt2 2.951590 1_555
Ho1 Pt3 2.963861 1_454
Ho1 Pt3 2.963861 1_554
Ho1 Pt0 2.994575 1_545
Ho1 Pt1 2.995107 1_555
Ho2 Pt2 2.841030 1_555
Ho2 Pt1 2.951590 1_555
Ho2 Pt1 2.951590 1_655
Ho2 Pt0 2.963861 1_555
Ho2 Pt0 2.963861 1_655
Ho2 Pt3 2.994575 1_554
Ho2 Pt2 2.995107 1_565
Ho3 Pt3 2.841032 1_565
Ho3 Pt0 2.951595 1_555
Ho3 Pt0 2.951595 1_655
Ho3 Pt1 2.963865 1_656
Ho3 Pt1 2.963865 1_556
Ho3 Pt2 2.994580 1_565
Ho3 Pt3 2.995109 1_555
