# generated using pymatgen
data_Ca2SbN3
_symmetry_space_group_name_H-M   'P 1'
_cell_length_a   6.26443628
_cell_length_b   11.07283855
_cell_length_c   12.22008987
_cell_angle_alpha   90.00000260
_cell_angle_beta   91.82294125
_cell_angle_gamma   152.10247016
_symmetry_Int_Tables_number   1
_chemical_formula_structural   Ca2SbN3
_chemical_formula_sum   'Ca8 Sb4 N12'
_cell_volume   395.68961875
_cell_formula_units_Z   4
loop_
 _symmetry_equiv_pos_site_id
 _symmetry_equiv_pos_as_xyz
  1  'x, y, z'
loop_
 _atom_site_type_symbol
 _atom_site_label
 _atom_site_symmetry_multiplicity
 _atom_site_fract_x
 _atom_site_fract_y
 _atom_site_fract_z
 _atom_site_occupancy
  Ca  Ca0  1  0.47516100  0.03641300  0.86634400  1
  Ca  Ca1  1  0.52483900  0.56125300  0.63365600  1
  Ca  Ca2  1  0.52483900  0.96358700  0.13365600  1
  Ca  Ca3  1  0.47516100  0.43874700  0.36634400  1
  Ca  Ca4  1  0.55784800  0.90202400  0.57666200  1
  Ca  Ca5  1  0.44215200  0.34417700  0.92333800  1
  Ca  Ca6  1  0.44215200  0.09797600  0.42333800  1
  Ca  Ca7  1  0.55784800  0.65582300  0.07666200  1
  Sb  Sb0  1  0.53144900  0.25951600  0.65573700  1
  Sb  Sb1  1  0.46855100  0.72806700  0.84426300  1
  Sb  Sb2  1  0.46855100  0.74048400  0.34426300  1
  Sb  Sb3  1  0.53144900  0.27193300  0.15573700  1
  N  N0  1  0.00000000  0.59547400  0.75000000  1
  N  N1  1  0.00000000  0.40452600  0.25000000  1
  N  N2  1  0.70044100  0.17755600  0.61597700  1
  N  N3  1  0.29955900  0.47711500  0.88402300  1
  N  N4  1  0.29955900  0.82244400  0.38402300  1
  N  N5  1  0.70044100  0.52288500  0.11597700  1
  N  N6  1  0.37078200  0.07707300  0.03546700  1
  N  N7  1  0.62921800  0.70629200  0.46453300  1
  N  N8  1  0.62921800  0.92292700  0.96453300  1
  N  N9  1  0.37078200  0.29370800  0.53546700  1
  N  N10  1  0.00000000  0.95827000  0.75000000  1
  N  N11  1  0.00000000  0.04173000  0.25000000  1
loop_
_geom_bond_atom_site_label_1
_geom_bond_atom_site_label_2
_geom_bond_distance
_geom_bond_site_symmetry_2
Ca0 N6 2.346875 1_556
Ca0 N3 2.431906 1_655
Ca0 N8 2.453585 1_545
Ca0 N10 2.609314 1_545
Ca0 N0 2.960100 1_545
Ca1 N7 2.346875 1_555
Ca1 N2 2.431904 1_455
Ca1 N9 2.453604 1_555
Ca1 N10 2.609306 1_655
Ca1 N0 2.960109 1_655
Ca2 N8 2.346875 1_554
Ca2 N5 2.431906 1_455
Ca2 N6 2.453585 1_565
Ca2 N11 2.609314 1_665
Ca2 N1 2.960100 1_665
Ca3 N9 2.346875 1_555
Ca3 N4 2.431904 1_655
Ca3 N7 2.453604 1_555
Ca3 N11 2.609306 1_555
Ca3 N1 2.960109 1_555
Ca4 N2 2.343593 1_565
Ca4 N9 2.474050 1_665
Ca4 N4 2.484682 1_555
Ca4 N0 2.779363 1_555
Ca4 N7 2.919995 1_555
Ca4 N10 3.020631 1_655
Ca5 N3 2.343582 1_555
Ca5 N8 2.474050 1_445
Ca5 N5 2.484679 1_556
Ca5 N0 2.779364 1_655
Ca5 N6 2.920015 1_556
Ca5 N10 3.020637 1_545
Ca6 N4 2.343593 1_545
Ca6 N7 2.474050 1_445
Ca6 N2 2.484682 1_555
Ca6 N1 2.779363 1_655
Ca6 N9 2.919995 1_555
Ca6 N11 3.020631 1_555
Ca7 N5 2.343582 1_555
Ca7 N6 2.474050 1_665
Ca7 N3 2.484679 1_554
Ca7 N1 2.779364 1_555
Ca7 N8 2.920015 1_554
Ca7 N11 3.020637 1_665
N0 Sb0 2.065325 1_455
N0 Sb1 2.065325 1_555
N1 Sb2 2.065325 1_555
N1 Sb3 2.065325 1_455
N2 Sb0 1.977704 1_555
N3 Sb1 1.977704 1_555
N4 Sb2 1.977704 1_555
N5 Sb3 1.977704 1_555
N6 Sb3 1.973796 1_555
N7 Sb2 1.973789 1_555
N8 Sb1 1.973796 1_555
N9 Sb0 1.973789 1_555
N10 Sb0 2.037659 1_565
N10 Sb1 2.037660 1_455
N11 Sb2 2.037659 1_445
N11 Sb3 2.037660 1_555
