# generated using pymatgen
data_Sc2Co3Si5
_symmetry_space_group_name_H-M   'P 1'
_cell_length_a   7.67490796
_cell_length_b   7.67490796
_cell_length_c   5.34718132
_cell_angle_alpha   71.29667907
_cell_angle_beta   71.29667907
_cell_angle_gamma   93.94394037
_symmetry_Int_Tables_number   1
_chemical_formula_structural   Sc2Co3Si5
_chemical_formula_sum   'Sc4 Co6 Si10'
_cell_volume   277.36605416
_cell_formula_units_Z   2
loop_
 _symmetry_equiv_pos_site_id
 _symmetry_equiv_pos_as_xyz
  1  'x, y, z'
loop_
 _atom_site_type_symbol
 _atom_site_label
 _atom_site_symmetry_multiplicity
 _atom_site_fract_x
 _atom_site_fract_y
 _atom_site_fract_z
 _atom_site_occupancy
  Sc  Sc0  1  0.87119700  0.59378600  0.76478800  1
  Sc  Sc1  1  0.40621400  0.12880300  0.73521200  1
  Sc  Sc2  1  0.12880300  0.40621400  0.23521200  1
  Sc  Sc3  1  0.59378600  0.87119700  0.26478800  1
  Co  Co0  1  0.26272600  0.54253400  0.62663800  1
  Co  Co1  1  0.45746600  0.73727400  0.87336200  1
  Co  Co2  1  0.73727400  0.45746600  0.37336200  1
  Co  Co3  1  0.54253400  0.26272600  0.12663800  1
  Co  Co4  1  0.00294000  0.99706000  0.75000000  1
  Co  Co5  1  0.99706000  0.00294000  0.25000000  1
  Si  Si0  1  0.07225000  0.26547700  0.83007300  1
  Si  Si1  1  0.73452300  0.92775000  0.66992700  1
  Si  Si2  1  0.92775000  0.73452300  0.16992700  1
  Si  Si3  1  0.26547700  0.07225000  0.33007300  1
  Si  Si4  1  0.21056400  0.78943600  0.75000000  1
  Si  Si5  1  0.78943600  0.21056400  0.25000000  1
  Si  Si6  1  0.51326300  0.48673700  0.75000000  1
  Si  Si7  1  0.48673700  0.51326300  0.25000000  1
  Si  Si8  1  0.77276400  0.22723600  0.75000000  1
  Si  Si9  1  0.22723600  0.77276400  0.25000000  1
loop_
_geom_bond_atom_site_label_1
_geom_bond_atom_site_label_2
_geom_bond_distance
_geom_bond_site_symmetry_2
Sc0 Si1 2.793668 1_555
Sc0 Si2 2.843841 1_556
Sc0 Si6 2.845766 1_555
Sc0 Si4 2.880762 1_655
Sc0 Si2 2.884334 1_555
Sc0 Si8 2.894807 1_555
Sc0 Si9 3.027475 1_655
Sc0 Si0 3.027903 1_655
Sc0 Si5 3.095780 1_556
Sc0 Si7 3.103391 1_556
Sc1 Si0 2.793668 1_555
Sc1 Si3 2.843841 1_555
Sc1 Si6 2.845766 1_555
Sc1 Si4 2.880762 1_545
Sc1 Si3 2.884334 1_556
Sc1 Si8 2.894807 1_555
Sc1 Si9 3.027475 1_546
Sc1 Si1 3.027903 1_545
Sc1 Si5 3.095780 1_555
Sc1 Si7 3.103391 1_555
Sc2 Si3 2.793668 1_555
Sc2 Si0 2.843841 1_554
Sc2 Si7 2.845766 1_555
Sc2 Si5 2.880762 1_455
Sc2 Si0 2.884334 1_555
Sc2 Si9 2.894807 1_555
Sc2 Si8 3.027475 1_455
Sc2 Si2 3.027903 1_455
Sc2 Si4 3.095780 1_554
Sc2 Si6 3.103391 1_554
Sc3 Si2 2.793668 1_555
Sc3 Si1 2.843841 1_555
Sc3 Si7 2.845766 1_555
Sc3 Si5 2.880762 1_565
Sc3 Si1 2.884334 1_554
Sc3 Si9 2.894807 1_555
Sc3 Si8 3.027475 1_564
Sc3 Si3 3.027903 1_565
Sc3 Si4 3.095780 1_555
Sc3 Si6 3.103391 1_555
Co0 Si0 2.216075 1_555
Co0 Si4 2.218757 1_555
Co0 Si6 2.249761 1_555
Co0 Si7 2.277059 1_555
Co0 Si9 2.321250 1_555
Co0 Sc2 2.874727 1_556
Co0 Sc0 2.942017 1_455
Co0 Sc2 3.027877 1_555
Co0 Sc3 3.065573 1_555
Co1 Si1 2.216075 1_555
Co1 Si4 2.218757 1_555
Co1 Si6 2.249761 1_555
Co1 Si7 2.277059 1_556
Co1 Si9 2.321250 1_556
Co1 Sc3 2.874727 1_555
Co1 Sc1 2.942017 1_565
Co1 Sc3 3.027877 1_556
Co1 Sc2 3.065573 1_556
Co2 Si2 2.216075 1_555
Co2 Si5 2.218757 1_555
Co2 Si7 2.249761 1_555
Co2 Si6 2.277059 1_555
Co2 Si8 2.321250 1_555
Co2 Sc0 2.874727 1_554
Co2 Sc2 2.942017 1_655
Co2 Sc0 3.027877 1_555
Co2 Sc1 3.065573 1_555
Co3 Si3 2.216075 1_555
Co3 Si5 2.218757 1_555
Co3 Si7 2.249761 1_555
Co3 Si6 2.277059 1_554
Co3 Si8 2.321250 1_554
Co3 Sc1 2.874727 1_555
Co3 Sc3 2.942017 1_545
Co3 Sc1 3.027877 1_554
Co3 Sc0 3.065573 1_554
Co4 Si0 2.295914 1_565
Co4 Si1 2.295914 1_455
Co4 Si4 2.329753 1_555
Co4 Si3 2.354212 1_565
Co4 Si2 2.354212 1_456
Co4 Si8 2.582810 1_465
Co4 Co5 2.674405 1_466
Co4 Co5 2.674405 1_465
Co4 Sc1 3.157445 1_565
Co4 Sc0 3.157445 1_455
Co4 Sc2 3.271845 1_565
Co4 Sc3 3.271845 1_456
Co5 Si3 2.295914 1_655
Co5 Si2 2.295914 1_545
Co5 Si5 2.329753 1_555
Co5 Si0 2.354212 1_654
Co5 Si1 2.354212 1_545
Co5 Si9 2.582810 1_645
Co5 Sc2 3.157445 1_655
Co5 Sc3 3.157445 1_545
Co5 Sc1 3.271845 1_654
Co5 Sc0 3.271845 1_545
Si0 Si5 2.464224 1_456
Si0 Si8 2.484282 1_455
Si1 Si5 2.464224 1_565
Si1 Si8 2.484282 1_565
Si2 Si4 2.464224 1_654
Si2 Si9 2.484282 1_655
Si3 Si4 2.464224 1_545
Si3 Si9 2.484282 1_545
Si4 Si9 2.680128 1_555
Si4 Si9 2.680128 1_556
Si5 Si8 2.680128 1_554
Si5 Si8 2.680128 1_555
