# generated using pymatgen
data_Mg2MnAl3S8
_symmetry_space_group_name_H-M   'P 1'
_cell_length_a   7.24721707
_cell_length_b   7.26008363
_cell_length_c   7.24249472
_cell_angle_alpha   60.09353557
_cell_angle_beta   60.00192729
_cell_angle_gamma   60.04839370
_symmetry_Int_Tables_number   1
_chemical_formula_structural   Mg2MnAl3S8
_chemical_formula_sum   'Mg2 Mn1 Al3 S8'
_cell_volume   269.74741513
_cell_formula_units_Z   1
loop_
 _symmetry_equiv_pos_site_id
 _symmetry_equiv_pos_as_xyz
  1  'x, y, z'
loop_
 _atom_site_type_symbol
 _atom_site_label
 _atom_site_symmetry_multiplicity
 _atom_site_fract_x
 _atom_site_fract_y
 _atom_site_fract_z
 _atom_site_occupancy
  Mg  Mg0  1  0.87513494  0.87469328  0.87507444  1
  Mg  Mg1  1  0.12488776  0.12526204  0.12492978  1
  Mn  Mn0  1  0.50001276  0.00004902  0.49995040  1
  Al  Al0  1  0.49996663  0.50003115  0.50003257  1
  Al  Al1  1  0.49997324  0.50001959  -0.00003018  1
  Al  Al2  1  0.99997367  0.49998757  0.50003873  1
  S  S0  1  0.73989590  0.73392957  0.73999001  1
  S  S1  1  0.26066928  0.26516782  0.71343821  1
  S  S2  1  0.26189435  0.71420043  0.26195983  1
  S  S3  1  0.71365286  0.26566038  0.26027801  1
  S  S4  1  0.73810526  0.28575230  0.73805918  1
  S  S5  1  0.28642420  0.73435793  0.73967582  1
  S  S6  1  0.26007074  0.26605825  0.26002309  1
  S  S7  1  0.73934241  0.73482566  0.28658110  1
loop_
_geom_bond_atom_site_label_1
_geom_bond_atom_site_label_2
_geom_bond_distance
_geom_bond_site_symmetry_2
Mg0 S0 2.432727 1_555
Mg0 S5 2.434199 1_655
Mg0 S7 2.435002 1_556
Mg0 S4 2.439288 1_565
Mg1 S6 2.432643 1_555
Mg1 S3 2.433882 1_455
Mg1 S1 2.434915 1_554
Mg1 S2 2.439303 1_545
Mn0 S7 2.460942 1_545
Mn0 S1 2.460949 1_555
Mn0 S3 2.466769 1_555
Mn0 S5 2.466951 1_545
Mn0 S6 2.468761 1_555
Mn0 S0 2.469083 1_545
Al0 S5 2.435384 1_555
Al0 S3 2.436146 1_555
Al0 S1 2.438940 1_555
Al0 S7 2.438970 1_555
Al0 S2 2.447465 1_555
Al0 S4 2.447520 1_555
Al1 S5 2.435893 1_554
Al1 S3 2.436606 1_555
Al1 S0 2.436958 1_554
Al1 S6 2.437145 1_555
Al1 S4 2.446368 1_554
Al1 S2 2.446373 1_555
Al2 S0 2.434898 1_555
Al2 S6 2.435160 1_655
Al2 S7 2.437320 1_555
Al2 S1 2.437384 1_655
Al2 S4 2.448473 1_555
Al2 S2 2.448644 1_655
