# generated using pymatgen
data_Er6IrI10
_symmetry_space_group_name_H-M   'P 1'
_cell_length_a   7.63575577
_cell_length_b   9.54352839
_cell_length_c   9.64535146
_cell_angle_alpha   107.42609195
_cell_angle_beta   97.01751231
_cell_angle_gamma   104.71794526
_symmetry_Int_Tables_number   1
_chemical_formula_structural   Er6IrI10
_chemical_formula_sum   'Er6 Ir1 I10'
_cell_volume   633.46704873
_cell_formula_units_Z   1
loop_
 _symmetry_equiv_pos_site_id
 _symmetry_equiv_pos_as_xyz
  1  'x, y, z'
loop_
 _atom_site_type_symbol
 _atom_site_label
 _atom_site_symmetry_multiplicity
 _atom_site_fract_x
 _atom_site_fract_y
 _atom_site_fract_z
 _atom_site_occupancy
  Er  Er0  1  0.53026196  0.72183661  0.41821097  1
  Er  Er1  1  0.46973804  0.27816339  0.58178903  1
  Er  Er2  1  0.14984764  0.87398476  0.33326577  1
  Er  Er3  1  0.85015236  0.12601524  0.66673423  1
  Er  Er4  1  0.61380865  0.04123301  0.25797351  1
  Er  Er5  1  0.38619135  0.95876699  0.74202649  1
  Ir  Ir0  1  0.50000000  0.00000000  0.50000000  1
  I  I0  1  0.71629430  0.73852096  0.15118793  1
  I  I1  1  0.28370570  0.26147904  0.84881207  1
  I  I2  1  0.04772766  0.18629286  0.40805561  1
  I  I3  1  0.95227234  0.81370714  0.59194439  1
  I  I4  1  0.58631509  0.37297333  0.32021609  1
  I  I5  1  0.41368491  0.62702667  0.67978391  1
  I  I6  1  0.14784877  0.54552623  0.22493840  1
  I  I7  1  0.85215123  0.45447377  0.77506160  1
  I  I8  1  0.76271555  0.09018981  0.96531586  1
  I  I9  1  0.23728445  0.90981019  0.03468414  1
loop_
_geom_bond_atom_site_label_1
_geom_bond_atom_site_label_2
_geom_bond_distance
_geom_bond_site_symmetry_2
Er0 Ir0 2.612442 1_565
Er0 I6 3.021177 1_555
Er0 I5 3.079484 1_555
Er0 I0 3.114670 1_555
Er0 I3 3.213321 1_555
Er0 I4 3.331588 1_555
Er1 Ir0 2.612442 1_555
Er1 I7 3.021177 1_555
Er1 I4 3.079484 1_555
Er1 I1 3.114670 1_555
Er1 I2 3.213321 1_555
Er1 I5 3.331588 1_555
Er2 Ir0 2.708932 1_565
Er2 I6 2.987990 1_555
Er2 I9 3.130527 1_555
Er2 I2 3.168991 1_565
Er2 I3 3.189139 1_455
Er2 I0 3.280228 1_455
Er3 Ir0 2.708932 1_555
Er3 I7 2.987990 1_555
Er3 I8 3.130527 1_555
Er3 I3 3.168991 1_545
Er3 I2 3.189139 1_655
Er3 I1 3.280228 1_655
Er4 Ir0 2.689190 1_555
Er4 I9 3.084519 1_545
Er4 I0 3.095596 1_545
Er4 I4 3.107728 1_555
Er4 I2 3.207341 1_655
Er4 I8 3.283818 1_554
Er5 Ir0 2.689190 1_565
Er5 I8 3.084519 1_565
Er5 I1 3.095596 1_565
Er5 I5 3.107728 1_555
Er5 I3 3.207341 1_455
Er5 I9 3.283818 1_556
