# generated using pymatgen
data_TbSbMo2O9
_symmetry_space_group_name_H-M   'P 1'
_cell_length_a   9.71274446
_cell_length_b   9.71274446
_cell_length_c   10.87340736
_cell_angle_alpha   68.06814701
_cell_angle_beta   68.06814701
_cell_angle_gamma   95.20363908
_symmetry_Int_Tables_number   1
_chemical_formula_structural   TbSbMo2O9
_chemical_formula_sum   'Tb4 Sb4 Mo8 O36'
_cell_volume   850.49766317
_cell_formula_units_Z   4
loop_
 _symmetry_equiv_pos_site_id
 _symmetry_equiv_pos_as_xyz
  1  'x, y, z'
loop_
 _atom_site_type_symbol
 _atom_site_label
 _atom_site_symmetry_multiplicity
 _atom_site_fract_x
 _atom_site_fract_y
 _atom_site_fract_z
 _atom_site_occupancy
  Tb  Tb0  1  0.67149300  0.32850700  0.75000000  1
  Tb  Tb1  1  0.32850700  0.67149300  0.25000000  1
  Tb  Tb2  1  0.12535100  0.87464900  0.75000000  1
  Tb  Tb3  1  0.87464900  0.12535100  0.25000000  1
  Sb  Sb0  1  0.65144100  0.61781000  0.96467700  1
  Sb  Sb1  1  0.38219000  0.34855900  0.53532300  1
  Sb  Sb2  1  0.34855900  0.38219000  0.03532300  1
  Sb  Sb3  1  0.61781000  0.65144100  0.46467700  1
  Mo  Mo0  1  0.04700900  0.25996400  0.47317100  1
  Mo  Mo1  1  0.74003600  0.95299100  0.02682900  1
  Mo  Mo2  1  0.95299100  0.74003600  0.52682900  1
  Mo  Mo3  1  0.25996400  0.04700900  0.97317100  1
  Mo  Mo4  1  0.05900500  0.43415700  0.80549700  1
  Mo  Mo5  1  0.56584300  0.94099500  0.69450300  1
  Mo  Mo6  1  0.94099500  0.56584300  0.19450300  1
  Mo  Mo7  1  0.43415700  0.05900500  0.30549700  1
  O  O0  1  0.06489000  0.09496000  0.60191000  1
  O  O1  1  0.90504000  0.93511000  0.89809000  1
  O  O2  1  0.93511000  0.90504000  0.39809000  1
  O  O3  1  0.09496000  0.06489000  0.10191000  1
  O  O4  1  0.87053400  0.29974600  0.56486200  1
  O  O5  1  0.70025400  0.12946600  0.93513800  1
  O  O6  1  0.12946600  0.70025400  0.43513800  1
  O  O7  1  0.29974600  0.87053400  0.06486200  1
  O  O8  1  0.04547100  0.22177300  0.32391900  1
  O  O9  1  0.77822700  0.95452900  0.17608100  1
  O  O10  1  0.95452900  0.77822700  0.67608100  1
  O  O11  1  0.22177300  0.04547100  0.82391900  1
  O  O12  1  0.77742000  0.59552900  0.57936500  1
  O  O13  1  0.40447100  0.22258000  0.92063500  1
  O  O14  1  0.22258000  0.40447100  0.42063500  1
  O  O15  1  0.59552900  0.77742000  0.07936500  1
  O  O16  1  0.97917100  0.30429100  0.99601900  1
  O  O17  1  0.69570900  0.02082900  0.50398100  1
  O  O18  1  0.02082900  0.69570900  0.00398100  1
  O  O19  1  0.30429100  0.97917100  0.49601900  1
  O  O20  1  0.14484000  0.62004600  0.77437400  1
  O  O21  1  0.37995400  0.85516000  0.72562600  1
  O  O22  1  0.85516000  0.37995400  0.22562600  1
  O  O23  1  0.62004600  0.14484000  0.27437400  1
  O  O24  1  0.90847100  0.44500200  0.74854400  1
  O  O25  1  0.55499800  0.09152900  0.75145600  1
  O  O26  1  0.09152900  0.55499800  0.25145600  1
  O  O27  1  0.44500200  0.90847100  0.24854400  1
  O  O28  1  0.21027200  0.36577800  0.69985200  1
  O  O29  1  0.63422200  0.78972800  0.80014800  1
  O  O30  1  0.78972800  0.63422200  0.30014800  1
  O  O31  1  0.36577800  0.21027200  0.19985200  1
  O  O32  1  0.57600900  0.45974400  0.89834500  1
  O  O33  1  0.54025600  0.42399100  0.60165500  1
  O  O34  1  0.42399100  0.54025600  0.10165500  1
  O  O35  1  0.45974400  0.57600900  0.39834500  1
loop_
_geom_bond_atom_site_label_1
_geom_bond_atom_site_label_2
_geom_bond_distance
_geom_bond_site_symmetry_2
Mo0 O0 1.764763 1_555
Mo0 O4 1.792380 1_455
Mo0 O8 1.799541 1_555
Mo0 O14 1.855667 1_555
Mo1 O1 1.764763 1_554
Mo1 O5 1.792380 1_564
Mo1 O9 1.799541 1_555
Mo1 O15 1.855667 1_555
Mo2 O2 1.764763 1_555
Mo2 O6 1.792380 1_655
Mo2 O10 1.799541 1_555
Mo2 O12 1.855667 1_555
Mo3 O3 1.764763 1_556
Mo3 O7 1.792380 1_546
Mo3 O11 1.799541 1_555
Mo3 O13 1.855667 1_555
Mo4 O20 1.768942 1_555
Mo4 O16 1.776108 1_455
Mo4 O24 1.785470 1_455
Mo4 O28 1.845378 1_555
Mo5 O21 1.768942 1_555
Mo5 O17 1.776108 1_565
Mo5 O25 1.785470 1_565
Mo5 O29 1.845378 1_555
Mo6 O22 1.768942 1_555
Mo6 O18 1.776108 1_655
Mo6 O26 1.785470 1_655
Mo6 O30 1.845378 1_555
Mo7 O23 1.768942 1_555
Mo7 O19 1.776108 1_545
Mo7 O27 1.785470 1_545
Mo7 O31 1.845378 1_555
O0 Tb2 2.424248 1_545
O1 Tb2 2.424248 1_655
O2 Tb3 2.424248 1_565
O3 Tb3 2.424248 1_455
O4 Tb0 2.340683 1_555
O5 Tb0 2.340683 1_555
O6 Tb1 2.340683 1_555
O7 Tb1 2.340683 1_555
O8 Tb3 2.356370 1_455
O9 Tb3 2.356370 1_565
O10 Tb2 2.356370 1_655
O11 Tb2 2.356370 1_545
O12 Sb3 2.311772 1_555
O12 Tb0 2.392227 1_555
O13 Sb2 2.311772 1_556
O13 Tb0 2.392227 1_555
O14 Sb1 2.311772 1_555
O14 Tb1 2.392227 1_555
O15 Sb0 2.311772 1_554
O15 Tb1 2.392227 1_555
O16 Tb3 2.382881 1_556
O17 Tb3 2.382881 1_555
O18 Tb2 2.382881 1_554
O19 Tb2 2.382881 1_555
O20 Tb2 2.419521 1_555
O21 Tb2 2.419521 1_555
O22 Tb3 2.419521 1_555
O23 Tb3 2.419521 1_555
O24 Tb0 2.462794 1_555
O25 Tb0 2.462794 1_555
O26 Tb1 2.462794 1_555
O27 Tb1 2.462794 1_555
O28 Sb1 2.014780 1_555
O29 Sb0 2.014780 1_555
O30 Sb3 2.014780 1_555
O31 Sb2 2.014780 1_555
O32 Sb2 2.017006 1_556
O32 Sb0 2.105201 1_555
O32 Tb0 2.391559 1_555
O33 Sb3 2.017006 1_555
O33 Sb1 2.105201 1_555
O33 Tb0 2.391559 1_555
O34 Sb0 2.017006 1_554
O34 Sb2 2.105201 1_555
O34 Tb1 2.391559 1_555
O35 Sb1 2.017006 1_555
O35 Sb3 2.105201 1_555
O35 Tb1 2.391559 1_555
