# generated using pymatgen
data_La4FeAs4Ru3O4
_symmetry_space_group_name_H-M   'P 1'
_cell_length_a   5.81729961
_cell_length_b   10.54056289
_cell_length_c   10.54046604
_cell_angle_alpha   67.09067181
_cell_angle_beta   89.99948504
_cell_angle_gamma   90.00040811
_symmetry_Int_Tables_number   1
_chemical_formula_structural   La4FeAs4Ru3O4
_chemical_formula_sum   'La8 Fe2 As8 Ru6 O8'
_cell_volume   595.33610701
_cell_formula_units_Z   2
loop_
 _symmetry_equiv_pos_site_id
 _symmetry_equiv_pos_as_xyz
  1  'x, y, z'
loop_
 _atom_site_type_symbol
 _atom_site_label
 _atom_site_symmetry_multiplicity
 _atom_site_fract_x
 _atom_site_fract_y
 _atom_site_fract_z
 _atom_site_occupancy
  La  La0  1  0.75086800  0.43173100  0.43101300  1
  La  La1  1  0.75079900  0.93168500  0.93098300  1
  La  La2  1  0.24917600  0.68094400  0.18173600  1
  La  La3  1  0.24924800  0.18099100  0.68171000  1
  La  La4  1  0.24917600  0.06897700  0.06825000  1
  La  La5  1  0.24917800  0.56904400  0.56825900  1
  La  La6  1  0.75086400  0.31823300  0.81902700  1
  La  La7  1  0.75080900  0.81827100  0.31901600  1
  Fe  Fe0  1  0.49994400  0.62513000  0.87501700  1
  Fe  Fe1  1  0.49996800  0.12497300  0.37503200  1
  As  As0  1  0.76140100  0.17649700  0.16515300  1
  As  As1  1  0.76149300  0.67650800  0.66511900  1
  As  As2  1  0.23849800  0.41514400  0.92650600  1
  As  As3  1  0.23856300  0.91514900  0.42648600  1
  As  As4  1  0.23857800  0.33486400  0.32350100  1
  As  As5  1  0.23850800  0.83487900  0.82350700  1
  As  As6  1  0.76147000  0.57350000  0.08485600  1
  As  As7  1  0.76145200  0.07350700  0.58485400  1
  Ru  Ru0  1  0.99994800  0.37498100  0.12504100  1
  Ru  Ru1  1  0.99998200  0.87504300  0.62495600  1
  Ru  Ru2  1  0.00002000  0.12500700  0.37501200  1
  Ru  Ru3  1  0.49993600  0.37487800  0.12512000  1
  Ru  Ru4  1  0.49993700  0.87509600  0.62491300  1
  Ru  Ru5  1  0.00008000  0.62506100  0.87495200  1
  O  O0  1  0.49998400  0.37498800  0.62499800  1
  O  O1  1  0.50001700  0.87497800  0.12500500  1
  O  O2  1  0.99999800  0.12498000  0.87497600  1
  O  O3  1  0.00004100  0.62500200  0.37502100  1
  O  O4  1  0.49999100  0.12496900  0.87496400  1
  O  O5  1  0.50004200  0.62501400  0.37502700  1
  O  O6  1  0.00003100  0.37498500  0.62498300  1
  O  O7  1  0.99999700  0.87499000  0.12500600  1
loop_
_geom_bond_atom_site_label_1
_geom_bond_atom_site_label_2
_geom_bond_distance
_geom_bond_site_symmetry_2
La0 O3 2.379793 1_655
La0 O6 2.384697 1_655
La0 O5 2.385788 1_555
La0 O0 2.390891 1_555
La1 O2 2.380064 1_565
La1 O7 2.385290 1_556
La1 O4 2.385702 1_565
La1 O1 2.390856 1_556
La2 O3 2.379799 1_555
La2 O7 2.385390 1_455
La2 O5 2.386031 1_555
La2 O1 2.391156 1_555
La3 O2 2.379993 1_455
La3 O6 2.385110 1_555
La3 O4 2.385216 1_555
La3 O0 2.390504 1_555
La4 O2 2.379836 1_454
La4 O7 2.384870 1_445
La4 O4 2.385727 1_554
La4 O1 2.390880 1_545
La5 O3 2.379443 1_555
La5 O6 2.385362 1_555
La5 O5 2.385490 1_555
La5 O0 2.391225 1_555
La6 O2 2.379574 1_555
La6 O6 2.385271 1_655
La6 O4 2.385823 1_555
La6 O0 2.391245 1_555
La7 O3 2.379999 1_655
La7 O7 2.385102 1_555
La7 O5 2.385324 1_555
La7 O1 2.390831 1_555
Fe0 Ru5 2.907859 1_555
Fe0 Ru5 2.909441 1_655
Fe0 Ru4 2.912734 1_555
Fe0 Ru3 2.914394 1_556
Fe1 Ru2 2.908347 1_555
Fe1 Ru2 2.908952 1_655
Fe1 Ru4 2.910917 1_545
Fe1 Ru3 2.911261 1_555
As0 Ru0 2.406818 1_555
As0 Ru3 2.485386 1_555
As0 Ru2 2.485925 1_655
As0 Fe1 2.562491 1_555
As0 La4 3.358645 1_655
As0 La6 3.361926 1_554
As0 La4 3.479644 1_555
As0 La7 3.481929 1_545
As1 Ru1 2.406966 1_555
As1 Ru5 2.485658 1_655
As1 Ru4 2.487114 1_555
As1 Fe0 2.563240 1_555
As1 La5 3.357737 1_655
As1 La7 3.361727 1_555
As1 La5 3.479643 1_555
As1 La6 3.482420 1_555
As2 Ru0 2.407153 1_456
As2 Ru5 2.485693 1_555
As2 Ru3 2.486793 1_556
As2 Fe0 2.563481 1_555
As2 La6 3.357795 1_455
As2 La4 3.362367 1_556
As2 La6 3.480188 1_555
As2 La5 3.482124 1_555
As3 Ru1 2.406806 1_455
As3 Ru4 2.485391 1_555
As3 Ru2 2.485706 1_565
As3 Fe1 2.562052 1_565
As3 La7 3.358190 1_455
As3 La5 3.361771 1_555
As3 La7 3.479402 1_555
As3 La4 3.481980 1_565
As4 Ru0 2.406892 1_455
As4 Ru3 2.484996 1_555
As4 Ru2 2.485673 1_555
As4 Fe1 2.562475 1_555
As4 La0 3.358120 1_455
As4 La2 3.361526 1_555
As4 La0 3.479772 1_555
As4 La3 3.481751 1_555
As5 Ru1 2.407231 1_455
As5 Ru5 2.485009 1_555
As5 Ru4 2.486652 1_555
As5 Fe0 2.561493 1_555
As5 La1 3.357662 1_455
As5 La3 3.361856 1_565
As5 La1 3.479340 1_555
As5 La2 3.481970 1_556
As6 Ru0 2.406778 1_555
As6 Ru5 2.486155 1_654
As6 Ru3 2.487194 1_555
As6 Fe0 2.562373 1_554
As6 La2 3.357838 1_655
As6 La0 3.362237 1_555
As6 La2 3.479532 1_555
As6 La1 3.481553 1_554
As7 Ru1 2.406631 1_545
As7 Ru2 2.485575 1_655
As7 Ru4 2.485743 1_545
As7 Fe1 2.562303 1_555
As7 La3 3.358362 1_655
As7 La1 3.361986 1_545
As7 La3 3.479163 1_555
As7 La0 3.481901 1_555
