# generated using pymatgen
data_YSnIr
_symmetry_space_group_name_H-M   'P 1'
_cell_length_a   4.55389512
_cell_length_b   6.99630197
_cell_length_c   7.99305468
_cell_angle_alpha   90.00075287
_cell_angle_beta   90.00000000
_cell_angle_gamma   90.00000000
_symmetry_Int_Tables_number   1
_chemical_formula_structural   YSnIr
_chemical_formula_sum   'Y4 Sn4 Ir4'
_cell_volume   254.66212233
_cell_formula_units_Z   4
loop_
 _symmetry_equiv_pos_site_id
 _symmetry_equiv_pos_as_xyz
  1  'x, y, z'
loop_
 _atom_site_type_symbol
 _atom_site_label
 _atom_site_symmetry_multiplicity
 _atom_site_fract_x
 _atom_site_fract_y
 _atom_site_fract_z
 _atom_site_occupancy
  Y  Y0  1  0.25000000  0.01940621  0.31050906  1
  Y  Y1  1  0.25000000  0.51940818  0.18950434  1
  Y  Y2  1  0.75000000  0.98059411  0.68949074  1
  Y  Y3  1  0.75000000  0.48059484  0.81049469  1
  Sn  Sn0  1  0.25000000  0.16563917  0.92577363  1
  Sn  Sn1  1  0.25000000  0.66563490  0.57424108  1
  Sn  Sn2  1  0.75000000  0.83437169  0.07422565  1
  Sn  Sn3  1  0.75000000  0.33435376  0.42576216  1
  Ir  Ir0  1  0.25000000  0.27022634  0.60205540  1
  Ir  Ir1  1  0.25000000  0.77023205  0.89794285  1
  Ir  Ir2  1  0.75000000  0.72976575  0.39794426  1
  Ir  Ir3  1  0.75000000  0.22977299  0.10205513  1
loop_
_geom_bond_atom_site_label_1
_geom_bond_atom_site_label_2
_geom_bond_distance
_geom_bond_site_symmetry_2
Sn0 Y2 3.229147 1_545
Sn0 Y2 3.229147 1_445
Sn0 Y0 3.240944 1_556
Sn0 Y1 3.251089 1_556
Sn0 Y3 3.299864 1_455
Sn0 Y3 3.299864 1_555
Sn1 Y3 3.229016 1_455
Sn1 Y3 3.229016 1_555
Sn1 Y1 3.240915 1_555
Sn1 Y0 3.251150 1_565
Sn1 Y2 3.299799 1_455
Sn1 Y2 3.299799 1_555
Sn2 Y0 3.229120 1_565
Sn2 Y0 3.229120 1_665
Sn2 Y2 3.240917 1_554
Sn2 Y3 3.251132 1_554
Sn2 Y1 3.299900 1_555
Sn2 Y1 3.299900 1_655
Sn3 Y1 3.229076 1_655
Sn3 Y1 3.229076 1_555
Sn3 Y3 3.240915 1_555
Sn3 Y2 3.251071 1_545
Sn3 Y0 3.299752 1_555
Sn3 Y0 3.299752 1_655
Ir0 Sn0 2.688980 1_555
Ir0 Sn3 2.715036 1_555
Ir0 Sn3 2.715036 1_455
Ir0 Sn1 2.775320 1_555
Ir0 Y0 2.917152 1_555
Ir0 Y2 3.127150 1_445
Ir0 Y2 3.127150 1_545
Ir0 Y3 3.182201 1_555
Ir0 Y3 3.182201 1_455
Ir1 Sn1 2.688854 1_555
Ir1 Sn2 2.715001 1_556
Ir1 Sn2 2.715001 1_456
Ir1 Sn0 2.775314 1_565
Ir1 Y1 2.917301 1_556
Ir1 Y3 3.127184 1_455
Ir1 Y3 3.127184 1_555
Ir1 Y2 3.182254 1_455
Ir1 Y2 3.182254 1_555
Ir2 Sn2 2.689018 1_555
Ir2 Sn1 2.715055 1_555
Ir2 Sn1 2.715055 1_655
Ir2 Sn3 2.775346 1_555
Ir2 Y2 2.917187 1_555
Ir2 Y0 3.127187 1_565
Ir2 Y0 3.127187 1_665
Ir2 Y1 3.182168 1_555
Ir2 Y1 3.182168 1_655
Ir3 Sn3 2.688863 1_555
Ir3 Sn0 2.714989 1_554
Ir3 Sn0 2.714989 1_654
Ir3 Sn2 2.775273 1_545
Ir3 Y3 2.917286 1_554
Ir3 Y1 3.127176 1_655
Ir3 Y1 3.127176 1_555
Ir3 Y0 3.182277 1_655
Ir3 Y0 3.182277 1_555
