# generated using pymatgen
data_MnZnO2
_symmetry_space_group_name_H-M   'P 1'
_cell_length_a   8.08043579
_cell_length_b   8.08043579
_cell_length_c   9.83384694
_cell_angle_alpha   54.54836904
_cell_angle_beta   54.54836904
_cell_angle_gamma   21.34276184
_symmetry_Int_Tables_number   1
_chemical_formula_structural   MnZnO2
_chemical_formula_sum   'Mn4 Zn4 O8'
_cell_volume   188.63978323
_cell_formula_units_Z   4
loop_
 _symmetry_equiv_pos_site_id
 _symmetry_equiv_pos_as_xyz
  1  'x, y, z'
loop_
 _atom_site_type_symbol
 _atom_site_label
 _atom_site_symmetry_multiplicity
 _atom_site_fract_x
 _atom_site_fract_y
 _atom_site_fract_z
 _atom_site_occupancy
  Mn  Mn0  1  0.37048800  0.37048800  0.95257300  1
  Mn  Mn1  1  0.84268900  0.84268900  0.32410000  1
  Mn  Mn2  1  0.15731100  0.15731100  0.67590000  1
  Mn  Mn3  1  0.62951200  0.62951200  0.04742700  1
  Zn  Zn0  1  0.68507700  0.68507700  0.29119100  1
  Zn  Zn1  1  0.31492300  0.31492300  0.70880900  1
  Zn  Zn2  1  0.98732200  0.98732200  0.38656300  1
  Zn  Zn3  1  0.01267800  0.01267800  0.61343700  1
  O  O0  1  0.14638900  0.14638900  0.89816600  1
  O  O1  1  0.53584600  0.53584600  0.72905100  1
  O  O2  1  0.46415400  0.46415400  0.27094900  1
  O  O3  1  0.85361100  0.85361100  0.10183400  1
  O  O4  1  0.84661100  0.84661100  0.82746400  1
  O  O5  1  0.20887000  0.20887000  0.41273600  1
  O  O6  1  0.15338900  0.15338900  0.17253600  1
  O  O7  1  0.79113000  0.79113000  0.58726400  1
loop_
_geom_bond_atom_site_label_1
_geom_bond_atom_site_label_2
_geom_bond_distance
_geom_bond_site_symmetry_2
Mn0 O3 2.000204 1_456
Mn0 O3 2.000204 1_546
Mn0 O4 2.108807 1_545
Mn0 O4 2.108807 1_455
Mn0 O1 2.216757 1_555
Mn1 O3 2.088052 1_555
Mn1 O7 2.205980 1_555
Mn1 O2 2.245678 1_655
Mn1 O2 2.245678 1_565
Mn1 O5 2.308372 1_655
Mn1 O5 2.308372 1_565
Mn2 O0 2.088052 1_555
Mn2 O5 2.205980 1_555
Mn2 O1 2.245678 1_545
Mn2 O1 2.245678 1_455
Mn2 O7 2.308372 1_455
Mn2 O7 2.308372 1_545
Mn3 O0 2.000204 1_654
Mn3 O0 2.000204 1_564
Mn3 O6 2.108807 1_565
Mn3 O6 2.108807 1_655
Mn3 O2 2.216757 1_555
O0 Zn1 2.178990 1_555
O1 Zn3 2.039783 1_565
O1 Zn3 2.039783 1_655
O2 Zn2 2.039783 1_545
O2 Zn2 2.039783 1_455
O3 Zn0 2.178990 1_555
O4 Zn1 2.132334 1_565
O4 Zn1 2.132334 1_655
O4 Zn3 2.198407 1_665
O5 Zn0 2.084101 1_455
O5 Zn0 2.084101 1_545
O5 Zn3 2.518799 1_555
O6 Zn0 2.132334 1_455
O6 Zn0 2.132334 1_545
O6 Zn2 2.198407 1_445
O7 Zn1 2.084101 1_655
O7 Zn1 2.084101 1_565
O7 Zn2 2.518799 1_555
