# generated using pymatgen
data_NdCo
_symmetry_space_group_name_H-M   'P 1'
_cell_length_a   5.79418400
_cell_length_b   5.71686520
_cell_length_c   7.41591307
_cell_angle_alpha   89.28192661
_cell_angle_beta   90.00000000
_cell_angle_gamma   59.55158941
_symmetry_Int_Tables_number   1
_chemical_formula_structural   NdCo
_chemical_formula_sum   'Nd5 Co5'
_cell_volume   211.74807067
_cell_formula_units_Z   5
loop_
 _symmetry_equiv_pos_site_id
 _symmetry_equiv_pos_as_xyz
  1  'x, y, z'
loop_
 _atom_site_type_symbol
 _atom_site_label
 _atom_site_symmetry_multiplicity
 _atom_site_fract_x
 _atom_site_fract_y
 _atom_site_fract_z
 _atom_site_occupancy
  Nd  Nd0  1  0.66262100  0.67475900  0.87293400  1
  Nd  Nd1  1  0.33737900  0.32524100  0.12706600  1
  Nd  Nd2  1  0.84024100  0.31951800  0.42790100  1
  Nd  Nd3  1  0.15975900  0.68048200  0.57209900  1
  Nd  Nd4  1  0.00000000  0.00000000  0.00000000  1
  Co  Co0  1  0.50000000  0.00000000  0.50000000  1
  Co  Co1  1  0.60857500  0.20130500  0.73938100  1
  Co  Co2  1  0.80988000  0.79869500  0.26061900  1
  Co  Co3  1  0.39142500  0.79869500  0.26061900  1
  Co  Co4  1  0.19012000  0.20130500  0.73938100  1
loop_
_geom_bond_atom_site_label_1
_geom_bond_atom_site_label_2
_geom_bond_distance
_geom_bond_site_symmetry_2
Co0 Co4 2.378365 1_555
Co0 Co1 2.378365 1_555
Co0 Co2 2.378365 1_545
Co0 Co3 2.378365 1_545
Co0 Nd0 3.176363 1_545
Co0 Nd1 3.176363 1_555
Co0 Nd2 3.336809 1_455
Co0 Nd3 3.336809 1_645
Co0 Nd3 3.336809 1_545
Co0 Nd2 3.336809 1_555
Co0 Nd2 3.403728 1_545
Co0 Nd3 3.403728 1_555
Co1 Co4 2.424605 1_555
Co1 Nd4 2.739069 1_656
Co1 Nd2 2.911098 1_555
Co1 Nd3 2.915573 1_555
Co1 Nd0 3.018298 1_545
Co1 Nd0 3.054722 1_555
Co1 Nd1 3.187425 1_556
Co1 Nd3 3.325465 1_645
Co2 Co3 2.424605 1_555
Co2 Nd4 2.739069 1_665
Co2 Nd3 2.911098 1_655
Co2 Nd2 2.915573 1_555
Co2 Nd1 3.018301 1_565
Co2 Nd1 3.054719 1_655
Co2 Nd0 3.187422 1_554
Co2 Nd2 3.325465 1_565
Co3 Nd4 2.739069 1_565
Co3 Nd3 2.911098 1_555
Co3 Nd2 2.915573 1_555
Co3 Nd1 3.018298 1_565
Co3 Nd1 3.054722 1_555
Co3 Nd0 3.187425 1_554
Co3 Nd2 3.325465 1_465
Co4 Nd4 2.739069 1_556
Co4 Nd2 2.911098 1_455
Co4 Nd3 2.915573 1_555
Co4 Nd0 3.018301 1_545
Co4 Nd0 3.054719 1_455
Co4 Nd1 3.187422 1_556
Co4 Nd3 3.325465 1_545
