# generated using pymatgen
data_U(CO3)2
_symmetry_space_group_name_H-M   'P 1'
_cell_length_a   7.67082925
_cell_length_b   7.67082925
_cell_length_c   11.03963365
_cell_angle_alpha   83.57937007
_cell_angle_beta   83.57937007
_cell_angle_gamma   65.36059009
_symmetry_Int_Tables_number   1
_chemical_formula_structural   U(CO3)2
_chemical_formula_sum   'U4 C8 O24'
_cell_volume   585.21019537
_cell_formula_units_Z   4
loop_
 _symmetry_equiv_pos_site_id
 _symmetry_equiv_pos_as_xyz
  1  'x, y, z'
loop_
 _atom_site_type_symbol
 _atom_site_label
 _atom_site_symmetry_multiplicity
 _atom_site_fract_x
 _atom_site_fract_y
 _atom_site_fract_z
 _atom_site_occupancy
  U  U0  1  0.09108000  0.31650400  0.77694000  1
  U  U1  1  0.68349600  0.90892000  0.72306000  1
  U  U2  1  0.90892000  0.68349600  0.22306000  1
  U  U3  1  0.31650400  0.09108000  0.27694000  1
  C  C0  1  0.38274500  0.50808800  0.56409500  1
  C  C1  1  0.49191200  0.61725500  0.93590500  1
  C  C2  1  0.61725500  0.49191200  0.43590500  1
  C  C3  1  0.50808800  0.38274500  0.06409500  1
  C  C4  1  0.57563400  0.35243700  0.52917800  1
  C  C5  1  0.64756300  0.42436600  0.97082200  1
  C  C6  1  0.42436600  0.64756300  0.47082200  1
  C  C7  1  0.35243700  0.57563400  0.02917800  1
  O  O0  1  0.25071900  0.51608300  0.63837400  1
  O  O1  1  0.48391700  0.74928100  0.86162600  1
  O  O2  1  0.74928100  0.48391700  0.36162600  1
  O  O3  1  0.51608300  0.25071900  0.13837400  1
  O  O4  1  0.81626400  0.34038100  0.93707700  1
  O  O5  1  0.65961900  0.18373600  0.56292300  1
  O  O6  1  0.18373600  0.65961900  0.06292300  1
  O  O7  1  0.34038100  0.81626400  0.43707700  1
  O  O8  1  0.88340400  0.64213700  0.79226400  1
  O  O9  1  0.35786300  0.11659600  0.70773600  1
  O  O10  1  0.11659600  0.35786300  0.20773600  1
  O  O11  1  0.64213700  0.88340400  0.29226400  1
  O  O12  1  0.11754300  0.03848900  0.83355000  1
  O  O13  1  0.96151100  0.88245700  0.66645000  1
  O  O14  1  0.88245700  0.96151100  0.16645000  1
  O  O15  1  0.03848900  0.11754300  0.33355000  1
  O  O16  1  0.94420600  0.33911200  0.65182500  1
  O  O17  1  0.66088800  0.05579400  0.84817500  1
  O  O18  1  0.05579400  0.66088800  0.34817500  1
  O  O19  1  0.33911200  0.94420600  0.15182500  1
  O  O20  1  0.21048100  0.34067700  0.90422000  1
  O  O21  1  0.65932300  0.78951900  0.59578000  1
  O  O22  1  0.78951900  0.65932300  0.09578000  1
  O  O23  1  0.34067700  0.21048100  0.40422000  1
loop_
_geom_bond_atom_site_label_1
_geom_bond_atom_site_label_2
_geom_bond_distance
_geom_bond_site_symmetry_2
C0 O0 1.214728 1_555
C1 O1 1.214728 1_555
C2 O2 1.214728 1_555
C3 O3 1.214728 1_555
C4 O5 1.216211 1_555
C5 O4 1.216211 1_555
C6 O7 1.216211 1_555
C7 O6 1.216211 1_555
O0 U0 2.608410 1_555
O1 U1 2.608410 1_555
O2 U2 2.608410 1_555
O3 U3 2.608410 1_555
O4 U0 2.553385 1_655
O5 U1 2.553385 1_545
O6 U2 2.553385 1_455
O7 U3 2.553385 1_565
O8 U1 2.102105 1_555
O8 U0 2.349915 1_655
O9 U0 2.102105 1_555
O9 U1 2.349915 1_545
O10 U3 2.102105 1_555
O10 U2 2.349915 1_455
O11 U2 2.102105 1_555
O11 U3 2.349915 1_565
O12 U0 2.085452 1_555
O13 U1 2.085452 1_555
O14 U2 2.085452 1_555
O15 U3 2.085452 1_555
O16 U0 1.827221 1_655
O17 U1 1.827221 1_545
O18 U2 1.827221 1_455
O19 U3 1.827221 1_565
O20 U0 1.826295 1_555
O21 U1 1.826295 1_555
O22 U2 1.826295 1_555
O23 U3 1.826295 1_555
