# generated using pymatgen
data_NaMg6Zr
_symmetry_space_group_name_H-M   'P 1'
_cell_length_a   5.16868900
_cell_length_b   6.49190800
_cell_length_c   11.23846200
_cell_angle_alpha   90.00000000
_cell_angle_beta   90.00000000
_cell_angle_gamma   90.00000000
_symmetry_Int_Tables_number   1
_chemical_formula_structural   NaMg6Zr
_chemical_formula_sum   'Na2 Mg12 Zr2'
_cell_volume   377.10269793
_cell_formula_units_Z   2
loop_
 _symmetry_equiv_pos_site_id
 _symmetry_equiv_pos_as_xyz
  1  'x, y, z'
loop_
 _atom_site_type_symbol
 _atom_site_label
 _atom_site_symmetry_multiplicity
 _atom_site_fract_x
 _atom_site_fract_y
 _atom_site_fract_z
 _atom_site_occupancy
  Na  Na0  1  0.50000000  0.50000000  0.16363800  1
  Na  Na1  1  0.50000000  0.00000000  0.66363800  1
  Mg  Mg0  1  0.00000000  0.24988400  0.08189600  1
  Mg  Mg1  1  0.00000000  0.75011600  0.08189600  1
  Mg  Mg2  1  0.00000000  0.50000000  0.83586300  1
  Mg  Mg3  1  0.50000000  0.24312100  0.91405700  1
  Mg  Mg4  1  0.50000000  0.75687900  0.91405700  1
  Mg  Mg5  1  0.50000000  0.50000000  0.66617200  1
  Mg  Mg6  1  0.00000000  0.74988400  0.58189600  1
  Mg  Mg7  1  0.00000000  0.25011600  0.58189600  1
  Mg  Mg8  1  0.00000000  0.00000000  0.33586300  1
  Mg  Mg9  1  0.50000000  0.74312100  0.41405700  1
  Mg  Mg10  1  0.50000000  0.25687900  0.41405700  1
  Mg  Mg11  1  0.50000000  0.00000000  0.16617200  1
  Zr  Zr0  1  0.00000000  0.50000000  0.34242000  1
  Zr  Zr1  1  0.00000000  0.00000000  0.84242000  1
loop_
_geom_bond_atom_site_label_1
_geom_bond_atom_site_label_2
_geom_bond_distance
_geom_bond_site_symmetry_2
Na0 Zr0 3.273509 1_655
Na0 Zr0 3.273509 1_555
Na1 Zr1 3.273509 1_555
Na1 Zr1 3.273509 1_655
Mg0 Zr1 3.142440 1_554
Mg0 Na0 3.187360 1_555
Mg0 Na0 3.187360 1_455
Mg0 Mg11 3.194919 1_455
Mg0 Mg11 3.194919 1_555
Mg0 Mg3 3.199799 1_554
Mg0 Mg3 3.199799 1_454
Mg0 Mg2 3.206541 1_554
Mg0 Mg1 3.244448 1_545
Mg0 Mg1 3.247460 1_555
Mg0 Mg8 3.282996 1_555
Mg0 Zr0 3.347990 1_555
Mg1 Zr1 3.142440 1_564
Mg1 Na0 3.187360 1_555
Mg1 Na0 3.187360 1_455
Mg1 Mg11 3.194919 1_465
Mg1 Mg11 3.194919 1_565
Mg1 Mg4 3.199799 1_454
Mg1 Mg4 3.199799 1_554
Mg1 Mg2 3.206541 1_554
Mg1 Mg8 3.282996 1_565
Mg1 Zr0 3.347990 1_555
Mg2 Mg3 3.198765 1_455
Mg2 Mg4 3.198765 1_455
Mg2 Mg3 3.198765 1_555
Mg2 Mg4 3.198765 1_555
Mg2 Mg5 3.211812 1_555
Mg2 Mg5 3.211812 1_455
Mg2 Zr1 3.246790 1_565
Mg2 Zr1 3.246790 1_555
Mg2 Mg6 3.282996 1_555
Mg2 Mg7 3.282996 1_555
Mg3 Zr1 3.133384 1_555
Mg3 Zr1 3.133384 1_655
Mg3 Mg4 3.156638 1_545
Mg3 Na1 3.226688 1_555
Mg3 Mg5 3.246836 1_555
Mg3 Na0 3.263205 1_556
Mg3 Mg4 3.335270 1_555
Mg4 Zr1 3.133384 1_565
Mg4 Zr1 3.133384 1_665
Mg4 Na1 3.226688 1_565
Mg4 Mg5 3.246836 1_555
Mg4 Na0 3.263205 1_556
Mg5 Mg7 3.194919 1_555
Mg5 Mg6 3.194919 1_655
Mg5 Mg7 3.194919 1_655
Mg5 Mg6 3.194919 1_555
Mg5 Mg9 3.243326 1_555
Mg5 Na1 3.246079 1_565
Mg5 Na1 3.246079 1_555
Mg6 Zr0 3.142440 1_555
Mg6 Na1 3.187360 1_565
Mg6 Na1 3.187360 1_465
Mg6 Mg9 3.199799 1_555
Mg6 Mg9 3.199799 1_455
Mg6 Mg8 3.206541 1_565
Mg6 Mg7 3.244448 1_555
Mg6 Mg7 3.247460 1_565
Mg6 Zr1 3.347990 1_565
Mg7 Zr0 3.142440 1_555
Mg7 Na1 3.187360 1_555
Mg7 Na1 3.187360 1_455
Mg7 Mg8 3.206541 1_555
Mg7 Zr1 3.347990 1_555
Mg8 Mg9 3.198765 1_445
Mg8 Mg9 3.198765 1_545
Mg8 Zr0 3.246790 1_555
Mg8 Zr0 3.246790 1_545
Mg9 Zr0 3.133384 1_555
Mg9 Zr0 3.133384 1_655
Mg9 Na0 3.226688 1_555
Mg9 Na1 3.263205 1_565
Mg10 Zr0 3.133384 1_655
Mg10 Zr0 3.133384 1_555
Mg10 Mg9 3.156638 1_555
Mg10 Mg8 3.198765 1_555
Mg10 Mg8 3.198765 1_655
Mg10 Mg7 3.199799 1_555
Mg10 Mg7 3.199799 1_655
Mg10 Na0 3.226688 1_555
Mg10 Mg5 3.243326 1_555
Mg10 Mg11 3.246836 1_555
Mg10 Na1 3.263205 1_555
Mg10 Mg9 3.335270 1_545
Mg11 Mg8 3.211812 1_655
Mg11 Mg8 3.211812 1_555
Mg11 Mg4 3.243326 1_544
Mg11 Mg3 3.243326 1_554
Mg11 Na0 3.246079 1_545
Mg11 Na0 3.246079 1_555
Mg11 Mg9 3.246836 1_545
