# generated using pymatgen
data_NdCdPd
_symmetry_space_group_name_H-M   'P 1'
_cell_length_a   7.69722178
_cell_length_b   7.69722178
_cell_length_c   4.03005451
_cell_angle_alpha   90.00000000
_cell_angle_beta   90.00000000
_cell_angle_gamma   120.00000033
_symmetry_Int_Tables_number   1
_chemical_formula_structural   NdCdPd
_chemical_formula_sum   'Nd3 Cd3 Pd3'
_cell_volume   206.78048547
_cell_formula_units_Z   3
loop_
 _symmetry_equiv_pos_site_id
 _symmetry_equiv_pos_as_xyz
  1  'x, y, z'
loop_
 _atom_site_type_symbol
 _atom_site_label
 _atom_site_symmetry_multiplicity
 _atom_site_fract_x
 _atom_site_fract_y
 _atom_site_fract_z
 _atom_site_occupancy
  Nd  Nd0  1  0.59327291  1.00000000  -0.00000000  1
  Nd  Nd1  1  1.00000000  0.59327291  -0.00000000  1
  Nd  Nd2  1  0.40672709  0.40672709  -0.00000000  1
  Cd  Cd0  1  0.25165560  -0.00000000  0.50000000  1
  Cd  Cd1  1  0.00000000  0.25165560  0.50000000  1
  Cd  Cd2  1  0.74834440  0.74834440  0.50000000  1
  Pd  Pd0  1  0.33333300  0.66666700  0.50000000  1
  Pd  Pd1  1  0.66666700  0.33333300  0.50000000  1
  Pd  Pd2  1  0.00000000  0.00000000  0.00000000  1
loop_
_geom_bond_atom_site_label_1
_geom_bond_atom_site_label_2
_geom_bond_distance
_geom_bond_site_symmetry_2
Nd0 Pd1 3.084320 1_565
Nd0 Pd1 3.084320 1_564
Nd0 Pd0 3.084322 1_555
Nd0 Pd0 3.084322 1_554
Nd0 Pd2 3.130669 1_665
Nd1 Pd0 3.084320 1_655
Nd1 Pd0 3.084320 1_654
Nd1 Pd1 3.084322 1_555
Nd1 Pd1 3.084322 1_554
Nd1 Pd2 3.130669 1_665
Nd2 Pd0 3.084326 1_554
Nd2 Pd0 3.084326 1_555
Nd2 Pd1 3.084326 1_555
Nd2 Pd1 3.084326 1_554
Nd2 Pd2 3.130669 1_555
Cd0 Pd2 2.795084 1_555
Cd0 Pd2 2.795084 1_556
Cd0 Pd0 2.931094 1_545
Cd0 Pd1 2.931099 1_555
Cd0 Nd0 3.312797 1_545
Cd0 Nd0 3.312797 1_546
Cd0 Nd1 3.398429 1_446
Cd0 Nd1 3.398429 1_445
Cd0 Nd2 3.398429 1_555
Cd0 Nd2 3.398429 1_556
Cd1 Pd2 2.795084 1_555
Cd1 Pd2 2.795084 1_556
Cd1 Pd1 2.931094 1_455
Cd1 Pd0 2.931099 1_555
Cd1 Nd1 3.312797 1_455
Cd1 Nd1 3.312797 1_456
Cd1 Nd0 3.398429 1_445
Cd1 Nd0 3.398429 1_446
Cd1 Nd2 3.398429 1_555
Cd1 Nd2 3.398429 1_556
Cd2 Pd2 2.795084 1_666
Cd2 Pd2 2.795084 1_665
Cd2 Pd0 2.931102 1_555
Cd2 Pd1 2.931102 1_555
Cd2 Nd2 3.312797 1_555
Cd2 Nd2 3.312797 1_556
Cd2 Nd1 3.398429 1_555
Cd2 Nd1 3.398429 1_556
Cd2 Nd0 3.398429 1_555
Cd2 Nd0 3.398429 1_556
