# generated using pymatgen
data_Ba2MgTi2CuF14
_symmetry_space_group_name_H-M   'P 1'
_cell_length_a   7.63015112
_cell_length_b   7.63015112
_cell_length_c   14.94947144
_cell_angle_alpha   86.98826296
_cell_angle_beta   86.98826296
_cell_angle_gamma   40.82003932
_symmetry_Int_Tables_number   1
_chemical_formula_structural   Ba2MgTi2CuF14
_chemical_formula_sum   'Ba4 Mg2 Ti4 Cu2 F28'
_cell_volume   568.03794223
_cell_formula_units_Z   2
loop_
 _symmetry_equiv_pos_site_id
 _symmetry_equiv_pos_as_xyz
  1  'x, y, z'
loop_
 _atom_site_type_symbol
 _atom_site_label
 _atom_site_symmetry_multiplicity
 _atom_site_fract_x
 _atom_site_fract_y
 _atom_site_fract_z
 _atom_site_occupancy
  Ba  Ba0  1  0.08713300  0.27205100  0.87455800  1
  Ba  Ba1  1  0.27205100  0.08713300  0.37455800  1
  Ba  Ba2  1  0.91286700  0.72794900  0.12544200  1
  Ba  Ba3  1  0.72794900  0.91286700  0.62544200  1
  Mg  Mg0  1  0.45000600  0.54999400  0.75000000  1
  Mg  Mg1  1  0.54999400  0.45000600  0.25000000  1
  Ti  Ti0  1  0.10225600  0.14282200  0.62548400  1
  Ti  Ti1  1  0.89774400  0.85717800  0.37451600  1
  Ti  Ti2  1  0.14282200  0.10225600  0.12548400  1
  Ti  Ti3  1  0.85717800  0.89774400  0.87451600  1
  Cu  Cu0  1  0.50000000  0.50000000  0.50000000  1
  Cu  Cu1  1  0.50000000  0.50000000  0.00000000  1
  F  F0  1  0.89549800  0.10596800  0.16381000  1
  F  F1  1  0.87511900  0.42224000  0.04641800  1
  F  F2  1  0.12488100  0.57776000  0.95358200  1
  F  F3  1  0.64379900  0.85747500  0.89687800  1
  F  F4  1  0.60808500  0.48428400  0.86774400  1
  F  F5  1  0.51571600  0.39191500  0.63225600  1
  F  F6  1  0.42224000  0.87511900  0.54641800  1
  F  F7  1  0.89403200  0.10450200  0.33619000  1
  F  F8  1  0.35597300  0.97753800  0.72450600  1
  F  F9  1  0.35620100  0.14252500  0.10312200  1
  F  F10  1  0.80484200  0.42214000  0.70756300  1
  F  F11  1  0.14252500  0.35620100  0.60312200  1
  F  F12  1  0.42214000  0.80484200  0.20756300  1
  F  F13  1  0.19515800  0.57786000  0.29243700  1
  F  F14  1  0.48428400  0.60808500  0.36774400  1
  F  F15  1  0.64402700  0.02246200  0.27549400  1
  F  F16  1  0.09741600  0.73581900  0.48258300  1
  F  F17  1  0.10450200  0.89403200  0.83619000  1
  F  F18  1  0.90258400  0.26418100  0.51741700  1
  F  F19  1  0.73581900  0.09741600  0.98258300  1
  F  F20  1  0.57776000  0.12488100  0.45358200  1
  F  F21  1  0.57786000  0.19515800  0.79243700  1
  F  F22  1  0.97753800  0.35597300  0.22450600  1
  F  F23  1  0.26418100  0.90258400  0.01741700  1
  F  F24  1  0.39191500  0.51571600  0.13225600  1
  F  F25  1  0.10596800  0.89549800  0.66381000  1
  F  F26  1  0.02246200  0.64402700  0.77549400  1
  F  F27  1  0.85747500  0.64379900  0.39687800  1
loop_
_geom_bond_atom_site_label_1
_geom_bond_atom_site_label_2
_geom_bond_distance
_geom_bond_site_symmetry_2
Ba0 F4 2.656364 1_455
Ba0 F8 2.712731 1_545
Ba0 F1 2.756424 1_456
Ba0 F3 2.803724 1_545
Ba0 F26 2.829779 1_555
Ba0 F23 2.870501 1_546
Ba0 F17 2.872854 1_545
Ba0 F2 2.874338 1_555
Ba0 F3 2.945394 1_455
Ba0 F10 2.952041 1_455
Ba1 F14 2.656364 1_545
Ba1 F22 2.712731 1_455
Ba1 F6 2.756424 1_545
Ba1 F27 2.803724 1_455
Ba1 F15 2.829779 1_555
Ba1 F18 2.870501 1_455
Ba1 F7 2.872854 1_455
Ba1 F20 2.874338 1_555
Ba1 F27 2.945394 1_545
Ba1 F12 2.952041 1_545
Ba2 F24 2.656364 1_655
Ba2 F15 2.712731 1_565
Ba2 F2 2.756424 1_654
Ba2 F9 2.803724 1_565
Ba2 F22 2.829779 1_555
Ba2 F19 2.870501 1_564
Ba2 F0 2.872854 1_565
Ba2 F1 2.874338 1_555
Ba2 F9 2.945394 1_655
Ba2 F13 2.952041 1_655
Ba3 F5 2.656364 1_565
Ba3 F26 2.712731 1_655
Ba3 F20 2.756424 1_565
Ba3 F11 2.803724 1_655
Ba3 F8 2.829779 1_555
Ba3 F16 2.870501 1_655
Ba3 F25 2.872854 1_655
Ba3 F6 2.874338 1_555
Ba3 F11 2.945394 1_565
Ba3 F21 2.952041 1_565
Cu0 F5 2.075466 1_555
Cu0 F14 2.075466 1_555
Cu0 F18 2.100118 1_555
Cu0 F16 2.100118 1_555
Cu0 F6 2.573126 1_555
Cu0 F20 2.573126 1_555
Cu1 F24 2.075466 1_555
Cu1 F4 2.075466 1_554
Cu1 F23 2.100118 1_555
Cu1 F19 2.100118 1_554
Cu1 F1 2.573126 1_555
Cu1 F2 2.573126 1_554
F0 Ti2 1.922886 1_655
F0 Mg1 2.241726 1_555
F1 Ti2 1.983117 1_655
F2 Ti3 1.983117 1_455
F3 Ti3 1.883104 1_555
F4 Mg0 2.004899 1_555
F5 Mg0 2.004899 1_555
F6 Ti0 1.983117 1_565
F7 Ti1 1.922886 1_545
F7 Mg1 2.241726 1_555
F8 Ti0 1.984769 1_565
F9 Ti2 1.883104 1_555
F10 Ti0 1.964601 1_655
F10 Mg0 2.138083 1_555
F11 Ti0 1.883104 1_555
F12 Ti2 1.964601 1_565
F12 Mg1 2.138083 1_555
F13 Ti1 1.964601 1_455
F13 Mg1 2.138083 1_555
F14 Mg1 2.004899 1_555
F15 Ti1 1.984769 1_545
F16 Ti1 1.937723 1_455
F17 Ti3 1.922886 1_455
F17 Mg0 2.241726 1_555
F18 Ti0 1.937723 1_655
F19 Ti3 1.937723 1_545
F20 Ti1 1.983117 1_545
F21 Ti3 1.964601 1_545
F21 Mg0 2.138083 1_555
F22 Ti2 1.984769 1_655
F23 Ti2 1.937723 1_565
F24 Mg1 2.004899 1_555
F25 Ti0 1.922886 1_565
F25 Mg0 2.241726 1_555
F26 Ti3 1.984769 1_455
F27 Ti1 1.883104 1_555
