# generated using pymatgen
data_AlCu(PSe3)2
_symmetry_space_group_name_H-M   'P 1'
_cell_length_a   7.81599073
_cell_length_b   7.81599073
_cell_length_c   7.81599098
_cell_angle_alpha   47.42105787
_cell_angle_beta   47.42105787
_cell_angle_gamma   47.42105445
_symmetry_Int_Tables_number   1
_chemical_formula_structural   AlCu(PSe3)2
_chemical_formula_sum   'Al1 Cu1 P2 Se6'
_cell_volume   236.87285778
_cell_formula_units_Z   1
loop_
 _symmetry_equiv_pos_site_id
 _symmetry_equiv_pos_as_xyz
  1  'x, y, z'
loop_
 _atom_site_type_symbol
 _atom_site_label
 _atom_site_symmetry_multiplicity
 _atom_site_fract_x
 _atom_site_fract_y
 _atom_site_fract_z
 _atom_site_occupancy
  Al  Al0  1  0.16724100  0.16724100  0.16724100  1
  Cu  Cu0  1  0.83279500  0.83279500  0.83279500  1
  P  P0  1  0.55330000  0.55330000  0.55330000  1
  P  P1  1  0.44609900  0.44609900  0.44609900  1
  Se  Se0  1  0.93078200  0.24475100  0.56480500  1
  Se  Se1  1  0.56480500  0.93078200  0.24475100  1
  Se  Se2  1  0.24475100  0.56480500  0.93078200  1
  Se  Se3  1  0.08480600  0.77270900  0.40271200  1
  Se  Se4  1  0.40271200  0.08480600  0.77270900  1
  Se  Se5  1  0.77270900  0.40271200  0.08480600  1
loop_
_geom_bond_atom_site_label_1
_geom_bond_atom_site_label_2
_geom_bond_distance
_geom_bond_site_symmetry_2
Al0 Se1 2.588304 1_545
Al0 Se2 2.588304 1_554
Al0 Se0 2.588304 1_455
Al0 Se5 2.591408 1_455
Al0 Se3 2.591408 1_545
Al0 Se4 2.591408 1_554
Cu0 Se4 2.706427 1_565
Cu0 Se5 2.706427 1_556
Cu0 Se3 2.706427 1_655
Cu0 Se2 2.716804 1_655
Cu0 Se0 2.716804 1_565
Cu0 Se1 2.716804 1_556
P0 P1 2.226250 1_555
P0 Se0 2.228448 1_555
P0 Se1 2.228448 1_555
P0 Se2 2.228448 1_555
P1 Se3 2.230558 1_555
P1 Se4 2.230558 1_555
P1 Se5 2.230558 1_555
