# generated using pymatgen
data_BaCoO3
_symmetry_space_group_name_H-M   'P 1'
_cell_length_a   5.68369816
_cell_length_b   5.68449177
_cell_length_c   9.41555662
_cell_angle_alpha   90.21787659
_cell_angle_beta   90.16958531
_cell_angle_gamma   60.00059219
_symmetry_Int_Tables_number   1
_chemical_formula_structural   BaCoO3
_chemical_formula_sum   'Ba4 Co4 O12'
_cell_volume   263.45012340
_cell_formula_units_Z   4
loop_
 _symmetry_equiv_pos_site_id
 _symmetry_equiv_pos_as_xyz
  1  'x, y, z'
loop_
 _atom_site_type_symbol
 _atom_site_label
 _atom_site_symmetry_multiplicity
 _atom_site_fract_x
 _atom_site_fract_y
 _atom_site_fract_z
 _atom_site_occupancy
  Ba  Ba0  1  0.33353565  0.33320239  0.49988274  1
  Ba  Ba1  1  0.33310819  0.33344708  -0.00001550  1
  Ba  Ba2  1  0.66668364  0.66674354  0.24984221  1
  Ba  Ba3  1  0.66658665  0.66664838  0.74995261  1
  Co  Co0  1  0.00004328  0.99993704  0.62731946  1
  Co  Co1  1  0.99995466  -0.00000066  0.87275056  1
  Co  Co2  1  0.99994905  0.00001754  0.12727862  1
  Co  Co3  1  0.00007134  0.00004977  0.37273265  1
  O  O0  1  0.85347915  0.85343978  0.49934476  1
  O  O1  1  0.85327749  0.85346626  0.99931939  1
  O  O2  1  0.70210887  0.14905369  0.24978765  1
  O  O3  1  0.70204209  0.14883057  0.74982708  1
  O  O4  1  0.29330698  0.85339494  0.50024964  1
  O  O5  1  0.29315963  0.85335158  0.00021319  1
  O  O6  1  0.85352175  0.29305527  0.50054056  1
  O  O7  1  0.85337104  0.29314524  0.00045081  1
  O  O8  1  0.14881979  0.70224520  0.24954025  1
  O  O9  1  0.14898808  0.70211385  0.74958241  1
  O  O10  1  0.14906905  0.14890126  0.25064693  1
  O  O11  1  0.14891562  0.14896129  0.75075697  1
loop_
_geom_bond_atom_site_label_1
_geom_bond_atom_site_label_2
_geom_bond_distance
_geom_bond_site_symmetry_2
Ba0 O0 2.848084 1_545
Ba0 O6 2.848193 1_555
Ba0 O4 2.848689 1_545
Ba0 O6 2.849249 1_455
Ba0 O4 2.849586 1_555
Ba0 O0 2.849822 1_455
Ba0 O10 2.961241 1_555
Ba0 O9 2.966972 1_555
Ba0 O3 2.969525 1_555
Ba0 O2 2.974362 1_555
Ba0 O8 2.979870 1_555
Ba0 O11 2.984964 1_555
Ba1 O7 2.848163 1_455
Ba1 O1 2.848570 1_454
Ba1 O5 2.848655 1_555
Ba1 O1 2.849347 1_544
Ba1 O7 2.849378 1_555
Ba1 O5 2.849427 1_545
Ba1 O11 2.960911 1_554
Ba1 O8 2.965557 1_555
Ba1 O2 2.969954 1_555
Ba1 O3 2.975907 1_554
Ba1 O9 2.979188 1_554
Ba1 O10 2.982552 1_555
Ba2 O8 2.846600 1_655
Ba2 O10 2.846759 1_565
Ba2 O2 2.847475 1_555
Ba2 O2 2.847705 1_565
Ba2 O8 2.847841 1_555
Ba2 O10 2.848120 1_655
Ba2 O0 2.977457 1_555
Ba2 O7 2.978816 1_555
Ba2 O5 2.982309 1_555
Ba2 O4 2.991183 1_555
Ba2 O1 2.995811 1_554
Ba2 O6 2.996563 1_555
Ba3 O9 2.846426 1_555
Ba3 O3 2.847077 1_565
Ba3 O11 2.847329 1_565
Ba3 O11 2.847489 1_655
Ba3 O9 2.847994 1_655
Ba3 O3 2.848122 1_555
Ba3 O1 2.976502 1_555
Ba3 O6 2.978956 1_555
Ba3 O4 2.982122 1_555
Ba3 O5 2.990244 1_556
Ba3 O7 2.994513 1_556
Ba3 O0 2.997557 1_555
Co0 O9 1.866521 1_555
Co0 O3 1.867154 1_465
Co0 O11 1.867577 1_565
Co0 O6 1.875209 1_465
Co0 O4 1.876013 1_555
Co0 O0 1.876024 1_455
Co1 O11 1.866352 1_655
Co1 O3 1.867014 1_555
Co1 O9 1.867169 1_645
Co1 O1 1.875329 1_545
Co1 O5 1.875899 1_646
Co1 O7 1.875910 1_556
Co2 O8 1.866316 1_645
Co2 O2 1.866536 1_555
Co2 O10 1.867587 1_655
Co2 O7 1.875539 1_555
Co2 O5 1.875783 1_645
Co2 O1 1.876540 1_544
Co3 O10 1.866602 1_555
Co3 O8 1.866996 1_545
Co3 O2 1.867334 1_455
Co3 O0 1.875559 1_445
Co3 O6 1.876028 1_455
Co3 O4 1.876342 1_545
