# generated using pymatgen
data_Zn2O3F
_symmetry_space_group_name_H-M   'P 1'
_cell_length_a   3.11149100
_cell_length_b   4.62325600
_cell_length_c   10.29454200
_cell_angle_alpha   90.00000000
_cell_angle_beta   90.00000000
_cell_angle_gamma   90.00000000
_symmetry_Int_Tables_number   1
_chemical_formula_structural   Zn2O3F
_chemical_formula_sum   'Zn4 O6 F2'
_cell_volume   148.08924565
_cell_formula_units_Z   2
loop_
 _symmetry_equiv_pos_site_id
 _symmetry_equiv_pos_as_xyz
  1  'x, y, z'
loop_
 _atom_site_type_symbol
 _atom_site_label
 _atom_site_symmetry_multiplicity
 _atom_site_fract_x
 _atom_site_fract_y
 _atom_site_fract_z
 _atom_site_occupancy
  Zn  Zn0  1  0.00000000  0.26809100  0.35839600  1
  Zn  Zn1  1  0.50000000  0.18183700  0.63576400  1
  Zn  Zn2  1  0.50000000  0.81816300  0.13576400  1
  Zn  Zn3  1  0.00000000  0.73190900  0.85839600  1
  O  O0  1  0.00000000  0.40517800  0.54568900  1
  O  O1  1  0.50000000  0.05209100  0.44356300  1
  O  O2  1  0.50000000  0.94790900  0.94356300  1
  O  O3  1  0.00000000  0.59482200  0.04568900  1
  O  O4  1  0.00000000  0.05098400  0.19670800  1
  O  O5  1  0.00000000  0.94901600  0.69670800  1
  F  F0  1  0.50000000  0.45939000  0.79388000  1
  F  F1  1  0.50000000  0.54061000  0.29388000  1
loop_
_geom_bond_atom_site_label_1
_geom_bond_atom_site_label_2
_geom_bond_distance
_geom_bond_site_symmetry_2
O0 Zn0 2.029591 1_555
O0 Zn1 2.084797 1_555
O0 Zn1 2.084797 1_455
O1 Zn0 2.046043 1_555
O1 Zn0 2.046043 1_655
O1 Zn1 2.067549 1_555
O2 Zn3 2.046043 1_655
O2 Zn3 2.046043 1_555
O2 Zn2 2.067549 1_556
O3 Zn3 2.029591 1_554
O3 Zn2 2.084797 1_555
O3 Zn2 2.084797 1_455
O4 Zn0 1.943726 1_555
O4 Zn2 1.993133 1_445
O4 Zn2 1.993133 1_545
O5 Zn3 1.943726 1_555
O5 Zn1 1.993133 1_465
O5 Zn1 1.993133 1_565
F0 Zn1 2.072706 1_555
F0 Zn3 2.109234 1_555
F0 Zn3 2.109234 1_655
F1 Zn2 2.072706 1_555
F1 Zn0 2.109234 1_655
F1 Zn0 2.109234 1_555
