# generated using pymatgen
data_Na3SiTe3
_symmetry_space_group_name_H-M   'P 1'
_cell_length_a   12.89722400
_cell_length_b   8.89278400
_cell_length_c   9.01841427
_cell_angle_alpha   59.62239805
_cell_angle_beta   90.00000000
_cell_angle_gamma   90.00000000
_symmetry_Int_Tables_number   1
_chemical_formula_structural   Na3SiTe3
_chemical_formula_sum   'Na12 Si4 Te12'
_cell_volume   892.33867392
_cell_formula_units_Z   4
loop_
 _symmetry_equiv_pos_site_id
 _symmetry_equiv_pos_as_xyz
  1  'x, y, z'
loop_
 _atom_site_type_symbol
 _atom_site_label
 _atom_site_symmetry_multiplicity
 _atom_site_fract_x
 _atom_site_fract_y
 _atom_site_fract_z
 _atom_site_occupancy
  Na  Na0  1  0.22905500  0.02913500  0.72358700  1
  Na  Na1  1  0.72905500  0.97086500  0.77641300  1
  Na  Na2  1  0.77094500  0.97086500  0.27641300  1
  Na  Na3  1  0.27094500  0.02913500  0.22358700  1
  Na  Na4  1  0.55783200  0.27352900  0.02650100  1
  Na  Na5  1  0.05783200  0.72647100  0.47349900  1
  Na  Na6  1  0.44216800  0.72647100  0.97349900  1
  Na  Na7  1  0.94216800  0.27352900  0.52650100  1
  Na  Na8  1  0.15194900  0.50608600  0.97923600  1
  Na  Na9  1  0.65194900  0.49391400  0.52076400  1
  Na  Na10  1  0.84805100  0.49391400  0.02076400  1
  Na  Na11  1  0.34805100  0.50608600  0.47923600  1
  Si  Si0  1  0.00923700  0.85348700  0.03250000  1
  Si  Si1  1  0.50923700  0.14651300  0.46750000  1
  Si  Si2  1  0.99076300  0.14651300  0.96750000  1
  Si  Si3  1  0.49076300  0.85348700  0.53250000  1
  Te  Te0  1  0.62296600  0.66493800  0.75949100  1
  Te  Te1  1  0.12296600  0.33506200  0.74050900  1
  Te  Te2  1  0.37703400  0.33506200  0.24050900  1
  Te  Te3  1  0.87703400  0.66493800  0.25949100  1
  Te  Te4  1  0.52548100  0.84906700  0.25839000  1
  Te  Te5  1  0.02548100  0.15093300  0.24161000  1
  Te  Te6  1  0.47451900  0.15093300  0.74161000  1
  Te  Te7  1  0.97451900  0.84906700  0.75839000  1
  Te  Te8  1  0.30733100  0.75030300  0.63596400  1
  Te  Te9  1  0.80733100  0.24969700  0.86403600  1
  Te  Te10  1  0.69266900  0.24969700  0.36403600  1
  Te  Te11  1  0.19266900  0.75030300  0.13596400  1
loop_
_geom_bond_atom_site_label_1
_geom_bond_atom_site_label_2
_geom_bond_distance
_geom_bond_site_symmetry_2
Na0 Te1 3.117158 1_555
Na0 Te8 3.126301 1_545
Na0 Te11 3.297397 1_546
Na0 Te6 3.376381 1_555
Na0 Te7 3.595997 1_445
Na1 Te0 3.117158 1_555
Na1 Te9 3.126301 1_565
Na1 Te10 3.297397 1_565
Na1 Te7 3.376381 1_555
Na1 Te6 3.595997 1_565
Na2 Te3 3.117158 1_555
Na2 Te10 3.126301 1_565
Na2 Te9 3.297397 1_564
Na2 Te4 3.376381 1_555
Na2 Te5 3.595997 1_665
Na3 Te2 3.117158 1_555
Na3 Te11 3.126301 1_545
Na3 Te8 3.297397 1_545
Na3 Te5 3.376381 1_555
Na3 Te4 3.595997 1_545
Na4 Te0 3.184726 1_554
Na4 Te2 3.244960 1_555
Na4 Te4 3.288119 1_545
Na4 Te10 3.418005 1_555
Na4 Te6 3.431799 1_554
Na4 Te9 3.586117 1_554
Na5 Te1 3.184726 1_555
Na5 Te3 3.244960 1_455
Na5 Te5 3.288119 1_565
Na5 Te11 3.418005 1_555
Na5 Te7 3.431799 1_455
Na5 Te8 3.586117 1_555
Na6 Te2 3.184726 1_556
Na6 Te0 3.244960 1_555
Na6 Te6 3.288119 1_565
Na6 Te8 3.418005 1_555
Na6 Te4 3.431799 1_556
Na6 Te11 3.586117 1_556
Na7 Te3 3.184726 1_555
Na7 Te1 3.244960 1_655
Na7 Te7 3.288119 1_545
Na7 Te9 3.418005 1_555
Na7 Te5 3.431799 1_655
Na7 Te10 3.586117 1_555
Na8 Te11 3.177236 1_556
Na8 Te1 3.224843 1_555
Na8 Te5 3.267397 1_556
Na8 Te8 3.393593 1_555
Na8 Te7 3.515999 1_455
Na8 Te2 3.559198 1_556
Na9 Te10 3.177236 1_555
Na9 Te0 3.224843 1_555
Na9 Te4 3.267397 1_555
Na9 Te9 3.393593 1_555
Na9 Te6 3.515999 1_555
Na9 Te3 3.559198 1_555
Na10 Te9 3.177236 1_554
Na10 Te3 3.224843 1_555
Na10 Te7 3.267397 1_554
Na10 Te10 3.393593 1_555
Na10 Te5 3.515999 1_655
Na10 Te0 3.559198 1_554
Na11 Te8 3.177236 1_555
Na11 Te2 3.224843 1_555
Na11 Te6 3.267397 1_555
Na11 Te11 3.393593 1_555
Na11 Te4 3.515999 1_555
Na11 Te1 3.559198 1_555
Si0 Si2 2.376079 1_464
Si0 Te7 2.532051 1_454
Si0 Te3 2.537261 1_455
Si0 Te11 2.538407 1_555
Si1 Si3 2.376079 1_545
Si1 Te6 2.532051 1_555
Si1 Te2 2.537261 1_555
Si1 Te10 2.538407 1_555
Si2 Te5 2.532051 1_656
Si2 Te1 2.537261 1_655
Si2 Te9 2.538407 1_555
Si3 Te4 2.532051 1_555
Si3 Te0 2.537261 1_555
Si3 Te8 2.538407 1_555
