# generated using pymatgen
data_Zn(SbO2)4
_symmetry_space_group_name_H-M   'P 1'
_cell_length_a   6.32768896
_cell_length_b   6.32768896
_cell_length_c   6.32768939
_cell_angle_alpha   65.80511331
_cell_angle_beta   65.80511331
_cell_angle_gamma   65.80511249
_symmetry_Int_Tables_number   1
_chemical_formula_structural   Zn(SbO2)4
_chemical_formula_sum   'Zn1 Sb4 O8'
_cell_volume   201.69812783
_cell_formula_units_Z   1
loop_
 _symmetry_equiv_pos_site_id
 _symmetry_equiv_pos_as_xyz
  1  'x, y, z'
loop_
 _atom_site_type_symbol
 _atom_site_label
 _atom_site_symmetry_multiplicity
 _atom_site_fract_x
 _atom_site_fract_y
 _atom_site_fract_z
 _atom_site_occupancy
  Zn  Zn0  1  0.50000000  0.50000000  0.50000000  1
  Sb  Sb0  1  0.00000000  0.50000000  0.50000000  1
  Sb  Sb1  1  0.50000000  0.00000000  0.50000000  1
  Sb  Sb2  1  0.50000000  0.50000000  0.00000000  1
  Sb  Sb3  1  0.00000000  0.00000000  0.00000000  1
  O  O0  1  0.28230900  0.74280600  0.74280600  1
  O  O1  1  0.25719400  0.25719400  0.71769100  1
  O  O2  1  0.71769100  0.25719400  0.25719400  1
  O  O3  1  0.25719400  0.71769100  0.25719400  1
  O  O4  1  0.26704400  0.26704400  0.26704400  1
  O  O5  1  0.73295600  0.73295600  0.73295600  1
  O  O6  1  0.74280600  0.28230900  0.74280600  1
  O  O7  1  0.74280600  0.74280600  0.28230900  1
loop_
_geom_bond_atom_site_label_1
_geom_bond_atom_site_label_2
_geom_bond_distance
_geom_bond_site_symmetry_2
O0 Sb1 2.227063 1_565
O0 Sb2 2.227063 1_556
O0 Zn0 2.254750 1_555
O0 Sb3 2.427603 1_566
O1 Sb0 2.227063 1_555
O1 Sb1 2.227063 1_555
O1 Zn0 2.254750 1_555
O1 Sb3 2.427603 1_556
O2 Sb1 2.227063 1_555
O2 Sb2 2.227063 1_555
O2 Zn0 2.254750 1_555
O2 Sb3 2.427603 1_655
O3 Sb0 2.227063 1_555
O3 Sb2 2.227063 1_555
O3 Zn0 2.254750 1_555
O3 Sb3 2.427603 1_565
O4 Sb2 2.213319 1_555
O4 Sb0 2.213319 1_555
O4 Sb1 2.213319 1_555
O5 Sb2 2.213319 1_556
O5 Sb1 2.213319 1_565
O5 Sb0 2.213319 1_655
O6 Sb0 2.227063 1_655
O6 Sb2 2.227063 1_556
O6 Zn0 2.254750 1_555
O6 Sb3 2.427603 1_656
O7 Sb1 2.227063 1_565
O7 Sb0 2.227063 1_655
O7 Zn0 2.254750 1_555
O7 Sb3 2.427603 1_665
