# generated using pymatgen
data_Li9Mn2Co5O16
_symmetry_space_group_name_H-M   'P 1'
_cell_length_a   3.02124900
_cell_length_b   9.82837235
_cell_length_c   10.12496368
_cell_angle_alpha   77.14656720
_cell_angle_beta   88.22534590
_cell_angle_gamma   85.78648707
_symmetry_Int_Tables_number   1
_chemical_formula_structural   Li9Mn2Co5O16
_chemical_formula_sum   'Li9 Mn2 Co5 O16'
_cell_volume   292.29136115
_cell_formula_units_Z   1
loop_
 _symmetry_equiv_pos_site_id
 _symmetry_equiv_pos_as_xyz
  1  'x, y, z'
loop_
 _atom_site_type_symbol
 _atom_site_label
 _atom_site_symmetry_multiplicity
 _atom_site_fract_x
 _atom_site_fract_y
 _atom_site_fract_z
 _atom_site_occupancy
  Li  Li0  1  0.99608400  0.74855400  0.86572500  1
  Li  Li1  1  0.51128100  0.49960600  0.50296800  1
  Li  Li2  1  0.00343400  0.24989400  0.12466800  1
  Li  Li3  1  0.49329300  0.00172000  0.74405500  1
  Li  Li4  1  0.49931300  0.50001800  0.99958500  1
  Li  Li5  1  0.99850500  0.25044700  0.62604800  1
  Li  Li6  1  0.49970400  0.99904100  0.25366400  1
  Li  Li7  1  0.00158100  0.75215800  0.38286400  1
  Li  Li8  1  0.50181000  0.74979900  0.62528000  1
  Mn  Mn0  1  0.99951800  0.00360900  0.99801700  1
  Mn  Mn1  1  0.49770000  0.74702100  0.12563400  1
  Co  Co0  1  0.98861800  0.49652400  0.25338100  1
  Co  Co1  1  0.50265900  0.25439800  0.87238000  1
  Co  Co2  1  0.00391700  0.99015400  0.50332000  1
  Co  Co3  1  0.00667100  0.51029700  0.74454000  1
  Co  Co4  1  0.49130900  0.24826000  0.37752800  1
  O  O0  1  0.46416800  0.87421600  0.94355400  1
  O  O1  1  0.00205800  0.61024700  0.57931900  1
  O  O2  1  0.45690700  0.37248100  0.19912900  1
  O  O3  1  0.97281500  0.13171000  0.82026500  1
  O  O4  1  0.97018300  0.61878500  0.07627600  1
  O  O5  1  0.47849100  0.37865900  0.69956600  1
  O  O6  1  0.00964800  0.12023200  0.33069000  1
  O  O7  1  0.48458500  0.88388000  0.44315300  1
  O  O8  1  0.53412100  0.61502100  0.80754700  1
  O  O9  1  0.97690600  0.37148800  0.42677600  1
  O  O10  1  0.53018400  0.13143200  0.05178800  1
  O  O11  1  0.00576100  0.89122800  0.66914200  1
  O  O12  1  0.03049800  0.37840400  0.91798700  1
  O  O13  1  0.53281000  0.12426400  0.55158600  1
  O  O14  1  0.03202900  0.87626600  0.17776500  1
  O  O15  1  0.52344000  0.62018900  0.30580600  1
loop_
_geom_bond_atom_site_label_1
_geom_bond_atom_site_label_2
_geom_bond_distance
_geom_bond_site_symmetry_2
Li0 O8 2.163664 1_555
Li0 O8 2.164013 1_655
Li0 O11 2.165522 1_655
Li0 O0 2.189030 1_555
Li0 O0 2.214718 1_655
Li0 O4 2.229821 1_556
Li1 O1 2.049768 1_555
Li1 O9 2.065031 1_555
Li1 O5 2.082659 1_555
Li1 O15 2.083314 1_555
Li1 O1 2.158844 1_655
Li1 O9 2.365437 1_455
Li2 O10 2.114237 1_555
Li2 O2 2.146562 1_555
Li2 O10 2.153285 1_455
Li2 O2 2.186582 1_455
Li2 O6 2.189021 1_555
Li2 O12 2.193108 1_554
Li3 O11 2.049020 1_645
Li3 O13 2.055460 1_555
Li3 O0 2.130073 1_545
Li3 O11 2.143579 1_545
Li3 O3 2.183715 1_455
Li3 O3 2.259726 1_555
Li4 O8 2.023914 1_555
Li4 O2 2.133158 1_556
Li4 O4 2.138527 1_456
Li4 O4 2.169111 1_556
Li4 O12 2.182226 1_655
Li4 O12 2.208632 1_555
Li5 O3 2.053688 1_555
Li5 O9 2.102174 1_555
Li5 O5 2.159693 1_555
Li5 O13 2.181451 1_655
Li5 O13 2.196390 1_555
Li5 O5 2.235540 1_655
Li6 O7 2.000023 1_555
Li6 O6 2.074058 1_565
Li6 O14 2.164268 1_655
Li6 O10 2.168433 1_565
Li6 O14 2.184824 1_555
Li6 O6 2.271123 1_665
Li7 O7 2.117498 1_455
Li7 O1 2.160419 1_555
Li7 O14 2.164798 1_555
Li7 O15 2.202375 1_555
Li7 O7 2.205110 1_555
Li7 O15 2.274476 1_455
Li8 O7 2.013564 1_555
Li8 O8 2.018521 1_555
Li8 O11 2.074306 1_555
Li8 O1 2.077933 1_655
Li8 O1 2.238143 1_555
Li8 O11 2.252797 1_655
Mn0 O3 1.953617 1_555
Mn0 O14 1.966687 1_646
Mn0 O10 1.969783 1_556
Mn0 O0 1.973271 1_645
Mn0 O10 2.258209 1_656
Mn0 O0 2.281870 1_545
Mn1 O4 1.961537 1_555
Mn1 O14 1.965010 1_555
Mn1 O15 1.967378 1_555
Mn1 O0 1.984774 1_554
Mn1 O4 2.236748 1_455
Mn1 O14 2.269514 1_655
Co0 O9 1.906906 1_555
Co0 O4 1.923587 1_555
Co0 O15 1.929775 1_555
Co0 O2 1.945789 1_655
Co0 O15 2.235770 1_655
Co0 O2 2.238090 1_555
Co1 O5 1.898025 1_555
Co1 O12 1.920341 1_555
Co1 O3 1.932643 1_555
Co1 O10 1.945518 1_556
Co1 O12 2.196233 1_655
Co1 O3 2.216758 1_455
Co2 O11 1.742902 1_555
Co2 O7 1.891147 1_555
Co2 O6 1.922755 1_565
Co2 O13 1.992450 1_465
Co2 O7 2.122988 1_455
Co2 O13 2.274632 1_565
Co3 O1 1.741246 1_555
Co3 O8 1.877353 1_455
Co3 O12 1.936719 1_555
Co3 O5 1.965744 1_555
Co3 O8 2.145207 1_555
Co3 O5 2.244595 1_455
Co4 O13 1.908505 1_555
Co4 O2 1.943156 1_555
Co4 O9 2.018644 1_455
Co4 O6 2.047100 1_655
Co4 O9 2.107840 1_555
Co4 O6 2.122076 1_555
