# generated using pymatgen
data_Er(CuTe)3
_symmetry_space_group_name_H-M   'P 1'
_cell_length_a   8.20190580
_cell_length_b   8.20190580
_cell_length_c   8.20190469
_cell_angle_alpha   54.05230805
_cell_angle_beta   54.05230805
_cell_angle_gamma   54.05231098
_symmetry_Int_Tables_number   1
_chemical_formula_structural   Er(CuTe)3
_chemical_formula_sum   'Er2 Cu6 Te6'
_cell_volume   335.95767293
_cell_formula_units_Z   2
loop_
 _symmetry_equiv_pos_site_id
 _symmetry_equiv_pos_as_xyz
  1  'x, y, z'
loop_
 _atom_site_type_symbol
 _atom_site_label
 _atom_site_symmetry_multiplicity
 _atom_site_fract_x
 _atom_site_fract_y
 _atom_site_fract_z
 _atom_site_occupancy
  Er  Er0  1  0.83383600  0.83383600  0.83383600  1
  Er  Er1  1  0.16616400  0.16616400  0.16616400  1
  Cu  Cu0  1  0.97380200  0.62813900  0.27339000  1
  Cu  Cu1  1  0.27339000  0.97380200  0.62813900  1
  Cu  Cu2  1  0.62813900  0.27339000  0.97380200  1
  Cu  Cu3  1  0.37186100  0.72661000  0.02619800  1
  Cu  Cu4  1  0.72661000  0.02619800  0.37186100  1
  Cu  Cu5  1  0.02619800  0.37186100  0.72661000  1
  Te  Te0  1  0.73861000  0.41977300  0.09638900  1
  Te  Te1  1  0.41977300  0.09638900  0.73861000  1
  Te  Te2  1  0.09638900  0.73861000  0.41977300  1
  Te  Te3  1  0.90361100  0.26139000  0.58022700  1
  Te  Te4  1  0.58022700  0.90361100  0.26139000  1
  Te  Te5  1  0.26139000  0.58022700  0.90361100  1
loop_
_geom_bond_atom_site_label_1
_geom_bond_atom_site_label_2
_geom_bond_distance
_geom_bond_site_symmetry_2
Er0 Te2 3.055140 1_655
Er0 Te0 3.055141 1_556
Er0 Te1 3.055141 1_565
Er0 Te4 3.057119 1_556
Er0 Te3 3.057120 1_565
Er0 Te5 3.057120 1_655
Er1 Te3 3.055140 1_455
Er1 Te5 3.055141 1_554
Er1 Te4 3.055141 1_545
Er1 Te1 3.057119 1_554
Er1 Te2 3.057120 1_545
Er1 Te0 3.057120 1_455
Cu0 Te5 2.613111 1_654
Cu0 Te2 2.652836 1_655
Cu0 Te4 2.661518 1_555
Cu0 Te3 2.675314 1_555
Cu1 Te3 2.613111 1_465
Cu1 Te1 2.652836 1_565
Cu1 Te5 2.661518 1_555
Cu1 Te4 2.675314 1_555
Cu2 Te4 2.613111 1_546
Cu2 Te0 2.652836 1_556
Cu2 Te3 2.661518 1_555
Cu2 Te5 2.675315 1_555
Cu3 Te1 2.613111 1_564
Cu3 Te5 2.652836 1_554
Cu3 Te2 2.661518 1_555
Cu3 Te0 2.675315 1_555
Cu4 Te2 2.613111 1_645
Cu4 Te4 2.652836 1_545
Cu4 Te0 2.661518 1_555
Cu4 Te1 2.675314 1_555
Cu5 Te0 2.613111 1_456
Cu5 Te3 2.652836 1_455
Cu5 Te1 2.661518 1_555
Cu5 Te2 2.675314 1_555
