# generated using pymatgen
data_KLiMg14O15
_symmetry_space_group_name_H-M   'P 1'
_cell_length_a   8.38808482
_cell_length_b   8.79949628
_cell_length_c   4.37376130
_cell_angle_alpha   90.00000000
_cell_angle_beta   90.00000000
_cell_angle_gamma   90.00000000
_symmetry_Int_Tables_number   1
_chemical_formula_structural   KLiMg14O15
_chemical_formula_sum   'K1 Li1 Mg14 O15'
_cell_volume   322.83135053
_cell_formula_units_Z   1
loop_
 _symmetry_equiv_pos_site_id
 _symmetry_equiv_pos_as_xyz
  1  'x, y, z'
loop_
 _atom_site_type_symbol
 _atom_site_label
 _atom_site_symmetry_multiplicity
 _atom_site_fract_x
 _atom_site_fract_y
 _atom_site_fract_z
 _atom_site_occupancy
  K  K0  1  0.06254089  0.00000000  0.00000000  1
  Li  Li0  1  0.50499996  0.50000000  0.00000000  1
  Mg  Mg0  1  0.99012489  0.50000000  0.00000000  1
  Mg  Mg1  1  0.52219566  0.00000000  0.00000000  1
  Mg  Mg2  1  0.99438462  0.25494622  0.50000000  1
  Mg  Mg3  1  0.99438462  0.74505378  0.50000000  1
  Mg  Mg4  1  0.49741235  0.25265301  0.50000000  1
  Mg  Mg5  1  0.49741235  0.74734699  0.50000000  1
  Mg  Mg6  1  0.25066847  0.00000000  0.50000000  1
  Mg  Mg7  1  0.25138569  0.50000000  0.50000000  1
  Mg  Mg8  1  0.76244238  0.00000000  0.50000000  1
  Mg  Mg9  1  0.73840517  0.50000000  0.50000000  1
  Mg  Mg10  1  0.24995236  0.28257172  0.00000000  1
  Mg  Mg11  1  0.24995236  0.71742828  0.00000000  1
  Mg  Mg12  1  0.75148916  0.25076843  0.00000000  1
  Mg  Mg13  1  0.75148916  0.74923157  0.00000000  1
  O  O0  1  0.24861114  0.50000000  0.00000000  1
  O  O1  1  0.75134514  0.00000000  0.00000000  1
  O  O2  1  0.74462233  0.50000000  0.00000000  1
  O  O3  1  0.24535380  0.23839994  0.50000000  1
  O  O4  1  0.24535380  0.76160006  0.50000000  1
  O  O5  1  0.74516924  0.24855135  0.50000000  1
  O  O6  1  0.74516924  0.75144865  0.50000000  1
  O  O7  1  0.00310847  0.00000000  0.50000000  1
  O  O8  1  0.00007042  0.50000000  0.50000000  1
  O  O9  1  0.48776228  0.00000000  0.50000000  1
  O  O10  1  0.49245102  0.50000000  0.50000000  1
  O  O11  1  0.00284017  0.27113023  -0.00000000  1
  O  O12  1  0.00284017  0.72886977  -0.00000000  1
  O  O13  1  0.48303132  0.22664970  0.00000000  1
  O  O14  1  0.48303132  0.77335030  0.00000000  1
loop_
_geom_bond_atom_site_label_1
_geom_bond_atom_site_label_2
_geom_bond_distance
_geom_bond_site_symmetry_2
K0 O7 2.242983 1_555
K0 O7 2.242983 1_554
K0 O12 2.437799 1_545
K0 O11 2.437799 1_555
K0 O1 2.610336 1_455
Li0 O2 2.009973 1_555
Li0 O0 2.150611 1_555
Li0 O10 2.189412 1_555
Li0 O10 2.189412 1_554
Li0 O13 2.412393 1_555
Li0 O14 2.412393 1_555
Mg0 O12 2.016761 1_655
Mg0 O11 2.016761 1_655
Mg0 O2 2.059296 1_555
Mg0 O0 2.168205 1_655
Mg0 O8 2.188471 1_655
Mg0 O8 2.188471 1_654
Mg1 O1 1.922125 1_555
Mg1 O14 2.021278 1_545
Mg1 O13 2.021278 1_555
Mg1 O9 2.205872 1_554
Mg1 O9 2.205872 1_555
Mg2 O5 2.091197 1_555
Mg2 O3 2.110180 1_655
Mg2 O8 2.156877 1_655
Mg2 O11 2.192660 1_656
Mg2 O11 2.192660 1_655
Mg2 O7 2.244591 1_655
Mg3 O6 2.091197 1_555
Mg3 O4 2.110180 1_655
Mg3 O8 2.156877 1_655
Mg3 O12 2.192660 1_656
Mg3 O12 2.192660 1_655
Mg3 O7 2.244591 1_665
Mg4 O5 2.078519 1_555
Mg4 O3 2.118005 1_555
Mg4 O10 2.176927 1_555
Mg4 O13 2.202125 1_555
Mg4 O13 2.202125 1_556
Mg4 O9 2.224692 1_555
Mg5 O6 2.078519 1_555
Mg5 O4 2.118005 1_555
Mg5 O10 2.176927 1_555
Mg5 O14 2.202125 1_555
Mg5 O14 2.202125 1_556
Mg5 O9 2.224692 1_565
Mg6 O9 1.988763 1_555
Mg6 O7 2.076554 1_555
Mg6 O4 2.098273 1_545
Mg6 O3 2.098273 1_555
Mg7 O10 2.022076 1_555
Mg7 O8 2.108054 1_555
Mg7 O0 2.187004 1_555
Mg7 O0 2.187004 1_556
Mg7 O3 2.302505 1_555
Mg7 O4 2.302505 1_555
Mg8 O7 2.018728 1_655
Mg8 O1 2.188861 1_556
Mg8 O1 2.188861 1_555
Mg8 O6 2.191921 1_545
Mg8 O5 2.191921 1_555
Mg8 O9 2.304040 1_555
Mg9 O10 2.063084 1_555
Mg9 O2 2.187502 1_556
Mg9 O2 2.187502 1_555
Mg9 O8 2.194870 1_655
Mg9 O5 2.213349 1_555
Mg9 O6 2.213349 1_555
Mg10 O0 1.913292 1_555
Mg10 O13 2.016063 1_555
Mg10 O11 2.075242 1_555
Mg10 O3 2.221489 1_554
Mg10 O3 2.221489 1_555
Mg11 O0 1.913292 1_555
Mg11 O14 2.016063 1_555
Mg11 O12 2.075242 1_555
Mg11 O4 2.221489 1_554
Mg11 O4 2.221489 1_555
Mg12 O11 2.115953 1_655
Mg12 O5 2.187610 1_555
Mg12 O5 2.187610 1_554
Mg12 O2 2.193869 1_555
Mg12 O1 2.206636 1_555
Mg12 O13 2.261826 1_555
Mg13 O12 2.115953 1_655
Mg13 O6 2.187610 1_554
Mg13 O6 2.187610 1_555
Mg13 O2 2.193869 1_555
Mg13 O1 2.206636 1_565
Mg13 O14 2.261826 1_555
