# generated using pymatgen
data_Yb4Si7
_symmetry_space_group_name_H-M   'P 1'
_cell_length_a   7.84658803
_cell_length_b   7.84658843
_cell_length_c   8.71980100
_cell_angle_alpha   90.00000000
_cell_angle_beta   90.00000000
_cell_angle_gamma   120.44220972
_symmetry_Int_Tables_number   1
_chemical_formula_structural   Yb4Si7
_chemical_formula_sum   'Yb8 Si14'
_cell_volume   462.85655273
_cell_formula_units_Z   2
loop_
 _symmetry_equiv_pos_site_id
 _symmetry_equiv_pos_as_xyz
  1  'x, y, z'
loop_
 _atom_site_type_symbol
 _atom_site_label
 _atom_site_symmetry_multiplicity
 _atom_site_fract_x
 _atom_site_fract_y
 _atom_site_fract_z
 _atom_site_occupancy
  Yb  Yb0  1  0.25291100  0.25291100  0.00000000  1
  Yb  Yb1  1  0.74708900  0.74708900  0.00000000  1
  Yb  Yb2  1  0.74708900  0.74708900  0.50000000  1
  Yb  Yb3  1  0.25291100  0.25291100  0.50000000  1
  Yb  Yb4  1  0.25254900  0.74745100  0.49370400  1
  Yb  Yb5  1  0.74745100  0.25254900  0.50629600  1
  Yb  Yb6  1  0.74745100  0.25254900  0.99370400  1
  Yb  Yb7  1  0.25254900  0.74745100  0.00629600  1
  Si  Si0  1  0.05682000  0.37032200  0.25000000  1
  Si  Si1  1  0.94318000  0.62967800  0.75000000  1
  Si  Si2  1  0.58368300  0.41631700  0.25000000  1
  Si  Si3  1  0.41631700  0.58368300  0.75000000  1
  Si  Si4  1  0.41065900  0.58934100  0.25000000  1
  Si  Si5  1  0.58934100  0.41065900  0.75000000  1
  Si  Si6  1  0.06495400  0.93504600  0.25000000  1
  Si  Si7  1  0.93504600  0.06495400  0.75000000  1
  Si  Si8  1  0.62967800  0.94318000  0.25000000  1
  Si  Si9  1  0.37032200  0.05682000  0.75000000  1
  Si  Si10  1  0.93051800  0.58797000  0.25000000  1
  Si  Si11  1  0.06948200  0.41203000  0.75000000  1
  Si  Si12  1  0.41203000  0.06948200  0.25000000  1
  Si  Si13  1  0.58797000  0.93051800  0.75000000  1
loop_
_geom_bond_atom_site_label_1
_geom_bond_atom_site_label_2
_geom_bond_distance
_geom_bond_site_symmetry_2
Si0 Si10 2.369343 1_455
Si0 Si4 2.413897 1_555
Si0 Yb3 3.066722 1_555
Si0 Yb0 3.066722 1_555
Si0 Yb5 3.077020 1_455
Si0 Yb6 3.077020 1_454
Si0 Yb4 3.320531 1_555
Si0 Yb7 3.320531 1_555
Si1 Si11 2.369343 1_655
Si1 Si5 2.413897 1_555
Si1 Yb2 3.066722 1_555
Si1 Yb1 3.066722 1_556
Si1 Yb4 3.077020 1_655
Si1 Yb7 3.077020 1_656
Si1 Yb5 3.320531 1_555
Si1 Yb6 3.320531 1_555
Si2 Si4 2.356737 1_555
Si2 Yb3 3.124138 1_555
Si2 Yb0 3.124138 1_555
Si2 Yb2 3.124138 1_555
Si2 Yb1 3.124138 1_555
Si2 Yb6 3.157596 1_554
Si2 Yb5 3.157596 1_555
Si3 Si5 2.356737 1_555
Si3 Yb2 3.124138 1_555
Si3 Yb1 3.124138 1_556
Si3 Yb3 3.124138 1_555
Si3 Yb0 3.124138 1_556
Si3 Yb4 3.157596 1_555
Si3 Yb7 3.157596 1_556
Si4 Si8 2.413897 1_555
Si4 Yb7 3.025527 1_555
Si4 Yb4 3.025527 1_555
Si4 Yb2 3.153072 1_555
Si4 Yb1 3.153072 1_555
Si4 Yb3 3.153072 1_555
Si4 Yb0 3.153072 1_555
Si5 Si9 2.413897 1_555
Si5 Yb5 3.025527 1_555
Si5 Yb6 3.025527 1_555
Si5 Yb3 3.153072 1_555
Si5 Yb0 3.153072 1_556
Si5 Yb1 3.153072 1_556
Si5 Yb2 3.153072 1_555
Si6 Yb1 3.069299 1_455
Si6 Yb2 3.069299 1_455
Si6 Yb0 3.069299 1_565
Si6 Yb3 3.069299 1_565
Si6 Yb4 3.323390 1_555
Si6 Yb7 3.323390 1_555
Si7 Yb0 3.069299 1_656
Si7 Yb3 3.069299 1_655
Si7 Yb1 3.069299 1_546
Si7 Yb2 3.069299 1_545
Si7 Yb5 3.323390 1_555
Si7 Yb6 3.323390 1_555
Si8 Yb1 3.066722 1_555
Si8 Yb2 3.066722 1_555
Si8 Yb6 3.077020 1_564
Si8 Yb5 3.077020 1_565
Si8 Yb7 3.320531 1_555
Si8 Yb4 3.320531 1_555
Si9 Yb0 3.066722 1_556
Si9 Yb3 3.066722 1_555
Si9 Yb7 3.077020 1_546
Si9 Yb4 3.077020 1_545
Si9 Yb5 3.320531 1_555
Si9 Yb6 3.320531 1_555
Si10 Si2 2.346509 1_555
Si10 Si6 2.370305 1_655
Si10 Yb7 3.043438 1_655
Si10 Yb4 3.043438 1_655
Si10 Yb6 3.186513 1_554
Si10 Yb5 3.186513 1_555
Si10 Yb2 3.194305 1_555
Si10 Yb1 3.194305 1_555
Si11 Si3 2.346509 1_555
Si11 Si7 2.370305 1_455
Si11 Yb5 3.043438 1_455
Si11 Yb6 3.043438 1_455
Si11 Yb4 3.186513 1_555
Si11 Yb7 3.186513 1_556
Si11 Yb3 3.194305 1_555
Si11 Yb0 3.194305 1_556
Si12 Si2 2.346509 1_555
Si12 Si8 2.369343 1_545
Si12 Si6 2.370305 1_545
Si12 Yb7 3.043438 1_545
Si12 Yb4 3.043438 1_545
Si12 Yb5 3.186513 1_555
Si12 Yb6 3.186513 1_554
Si12 Yb3 3.194305 1_555
Si12 Yb0 3.194305 1_555
Si13 Si3 2.346509 1_555
Si13 Si9 2.369343 1_565
Si13 Si7 2.370305 1_565
Si13 Yb6 3.043438 1_565
Si13 Yb5 3.043438 1_565
Si13 Yb4 3.186513 1_555
Si13 Yb7 3.186513 1_556
Si13 Yb1 3.194305 1_556
Si13 Yb2 3.194305 1_555
