# generated using pymatgen
data_NaEuAsS4
_symmetry_space_group_name_H-M   'P 1'
_cell_length_a   6.07158010
_cell_length_b   6.07158010
_cell_length_c   10.01481300
_cell_angle_alpha   90.00000000
_cell_angle_beta   90.00000000
_cell_angle_gamma   111.36845845
_symmetry_Int_Tables_number   1
_chemical_formula_structural   NaEuAsS4
_chemical_formula_sum   'Na2 Eu2 As2 S8'
_cell_volume   343.80773066
_cell_formula_units_Z   2
loop_
 _symmetry_equiv_pos_site_id
 _symmetry_equiv_pos_as_xyz
  1  'x, y, z'
loop_
 _atom_site_type_symbol
 _atom_site_label
 _atom_site_symmetry_multiplicity
 _atom_site_fract_x
 _atom_site_fract_y
 _atom_site_fract_z
 _atom_site_occupancy
  Na  Na0  1  0.40706200  0.77781300  0.75000000  1
  Na  Na1  1  0.77781300  0.40706200  0.25000000  1
  Eu  Eu0  1  0.03822800  0.03822800  0.00000000  1
  Eu  Eu1  1  0.03822800  0.03822800  0.50000000  1
  As  As0  1  0.34990900  0.77994700  0.25000000  1
  As  As1  1  0.77994700  0.34990900  0.75000000  1
  S  S0  1  0.16818900  0.59849700  0.06774800  1
  S  S1  1  0.59849700  0.16818900  0.93225200  1
  S  S2  1  0.16818900  0.59849700  0.43225200  1
  S  S3  1  0.59849700  0.16818900  0.56774800  1
  S  S4  1  0.74094800  0.86764100  0.25000000  1
  S  S5  1  0.86764100  0.74094800  0.75000000  1
  S  S6  1  0.12753000  0.30508100  0.75000000  1
  S  S7  1  0.30508100  0.12753000  0.25000000  1
loop_
_geom_bond_atom_site_label_1
_geom_bond_atom_site_label_2
_geom_bond_distance
_geom_bond_site_symmetry_2
Na0 S6 2.751148 1_555
Na0 S1 2.879698 1_565
Na0 S3 2.879698 1_565
Na0 S5 2.885536 1_555
Na0 S5 3.200378 1_455
Na1 S7 2.751148 1_555
Na1 S2 2.879698 1_655
Na1 S0 2.879698 1_655
Na1 S4 2.885536 1_555
Na1 S4 3.200378 1_545
Eu0 S6 2.923602 1_554
Eu0 S7 2.923602 1_555
Eu0 S5 3.039215 1_444
Eu0 S4 3.039215 1_445
Eu0 S1 3.121914 1_454
Eu0 S0 3.121914 1_545
Eu0 S1 3.270873 1_554
Eu0 S0 3.270873 1_555
Eu1 S6 2.923602 1_555
Eu1 S7 2.923602 1_555
Eu1 S5 3.039215 1_445
Eu1 S4 3.039215 1_445
Eu1 S3 3.121914 1_455
Eu1 S2 3.121914 1_545
Eu1 S3 3.270873 1_555
Eu1 S2 3.270873 1_555
As0 S2 2.208323 1_555
As0 S0 2.208323 1_555
As0 S7 2.224040 1_565
As0 S4 2.235895 1_555
As1 S1 2.208323 1_555
As1 S3 2.208323 1_555
As1 S6 2.224040 1_655
As1 S5 2.235895 1_555
