# generated using pymatgen
data_Th6Mn23H44
_symmetry_space_group_name_H-M   'P 1'
_cell_length_a   9.48078873
_cell_length_b   9.48078873
_cell_length_c   9.48078873
_cell_angle_alpha   60.00000000
_cell_angle_beta   60.00000000
_cell_angle_gamma   60.00000000
_symmetry_Int_Tables_number   1
_chemical_formula_structural   Th6Mn23H44
_chemical_formula_sum   'Th6 Mn23 H44'
_cell_volume   602.58512721
_cell_formula_units_Z   1
loop_
 _symmetry_equiv_pos_site_id
 _symmetry_equiv_pos_as_xyz
  1  'x, y, z'
loop_
 _atom_site_type_symbol
 _atom_site_label
 _atom_site_symmetry_multiplicity
 _atom_site_fract_x
 _atom_site_fract_y
 _atom_site_fract_z
 _atom_site_occupancy
  Th  Th0  1  0.70638600  0.70638600  0.29361400  1
  Th  Th1  1  0.29361400  0.29361400  0.70638600  1
  Th  Th2  1  0.70638600  0.29361400  0.70638600  1
  Th  Th3  1  0.29361400  0.70638600  0.29361400  1
  Th  Th4  1  0.29361400  0.70638600  0.70638600  1
  Th  Th5  1  0.70638600  0.29361400  0.29361400  1
  Mn  Mn0  1  0.87222900  0.87222900  0.87222900  1
  Mn  Mn1  1  0.12777100  0.12777100  0.12777100  1
  Mn  Mn2  1  0.38331200  0.87222900  0.87222900  1
  Mn  Mn3  1  0.87222900  0.38331200  0.87222900  1
  Mn  Mn4  1  0.61668800  0.12777100  0.12777100  1
  Mn  Mn5  1  0.12777100  0.61668800  0.12777100  1
  Mn  Mn6  1  0.87222900  0.87222900  0.38331200  1
  Mn  Mn7  1  0.12777100  0.12777100  0.61668800  1
  Mn  Mn8  1  0.68522400  0.68522400  0.68522400  1
  Mn  Mn9  1  0.31477600  0.31477600  0.31477600  1
  Mn  Mn10  1  0.94432800  0.68522400  0.68522400  1
  Mn  Mn11  1  0.68522400  0.94432800  0.68522400  1
  Mn  Mn12  1  0.05567200  0.31477600  0.31477600  1
  Mn  Mn13  1  0.31477600  0.05567200  0.31477600  1
  Mn  Mn14  1  0.68522400  0.68522400  0.94432800  1
  Mn  Mn15  1  0.31477600  0.31477600  0.05567200  1
  Mn  Mn16  1  0.00000000  0.00000000  0.00000000  1
  Mn  Mn17  1  0.00000000  0.00000000  0.50000000  1
  Mn  Mn18  1  0.50000000  0.50000000  0.00000000  1
  Mn  Mn19  1  0.00000000  0.50000000  0.00000000  1
  Mn  Mn20  1  0.50000000  0.00000000  0.50000000  1
  Mn  Mn21  1  0.50000000  0.00000000  0.00000000  1
  Mn  Mn22  1  0.00000000  0.50000000  0.50000000  1
  H  H0  1  0.00000000  0.00000000  0.69187800  1
  H  H1  1  0.00000000  0.00000000  0.30812200  1
  H  H2  1  0.30812200  0.69187800  0.00000000  1
  H  H3  1  0.69187800  0.30812200  0.00000000  1
  H  H4  1  0.00000000  0.69187800  0.00000000  1
  H  H5  1  0.69187800  0.00000000  0.30812200  1
  H  H6  1  0.00000000  0.30812200  0.00000000  1
  H  H7  1  0.30812200  0.00000000  0.69187800  1
  H  H8  1  0.69187800  0.00000000  0.00000000  1
  H  H9  1  0.30812200  0.00000000  0.00000000  1
  H  H10  1  0.00000000  0.69187800  0.30812200  1
  H  H11  1  0.00000000  0.30812200  0.69187800  1
  H  H12  1  0.09456300  0.56151400  0.56151400  1
  H  H13  1  0.90543700  0.43848600  0.43848600  1
  H  H14  1  0.78240800  0.56151400  0.56151400  1
  H  H15  1  0.56151400  0.78240800  0.09456300  1
  H  H16  1  0.56151400  0.56151400  0.09456300  1
  H  H17  1  0.21759200  0.43848600  0.43848600  1
  H  H18  1  0.43848600  0.21759200  0.90543700  1
  H  H19  1  0.43848600  0.43848600  0.90543700  1
  H  H20  1  0.56151400  0.09456300  0.78240800  1
  H  H21  1  0.56151400  0.56151400  0.78240800  1
  H  H22  1  0.43848600  0.90543700  0.21759200  1
  H  H23  1  0.43848600  0.43848600  0.21759200  1
  H  H24  1  0.78240800  0.09456300  0.56151400  1
  H  H25  1  0.21759200  0.90543700  0.43848600  1
  H  H26  1  0.09456300  0.78240800  0.56151400  1
  H  H27  1  0.90543700  0.21759200  0.43848600  1
  H  H28  1  0.56151400  0.09456300  0.56151400  1
  H  H29  1  0.21759200  0.43848600  0.90543700  1
  H  H30  1  0.43848600  0.90543700  0.43848600  1
  H  H31  1  0.78240800  0.56151400  0.09456300  1
  H  H32  1  0.09456300  0.56151400  0.78240800  1
  H  H33  1  0.90543700  0.43848600  0.21759200  1
  H  H34  1  0.43848600  0.21759200  0.43848600  1
  H  H35  1  0.56151400  0.78240800  0.56151400  1
  H  H36  1  0.56465500  0.56465500  0.56465500  1
  H  H37  1  0.43534500  0.43534500  0.43534500  1
  H  H38  1  0.30603400  0.56465500  0.56465500  1
  H  H39  1  0.56465500  0.30603400  0.56465500  1
  H  H40  1  0.69396600  0.43534500  0.43534500  1
  H  H41  1  0.43534500  0.69396600  0.43534500  1
  H  H42  1  0.56465500  0.56465500  0.30603400  1
  H  H43  1  0.43534500  0.43534500  0.69396600  1
loop_
_geom_bond_atom_site_label_1
_geom_bond_atom_site_label_2
_geom_bond_distance
_geom_bond_site_symmetry_2
H0 Mn0 1.784191 1_445
H0 Mn7 1.784193 1_555
H0 Mn17 1.819155 1_555
H0 Th4 2.787088 1_545
H0 Th2 2.787088 1_455
H1 Mn1 1.784191 1_555
H1 Mn6 1.784193 1_445
H1 Mn17 1.819155 1_555
H1 Th3 2.787088 1_545
H1 Th5 2.787088 1_455
H2 Mn5 1.784185 1_555
H2 Mn2 1.784185 1_554
H2 Mn18 1.819155 1_555
H2 Th3 2.787088 1_555
H2 Th4 2.787088 1_554
H3 Mn4 1.784185 1_555
H3 Mn3 1.784185 1_554
H3 Mn18 1.819155 1_555
H3 Th5 2.787088 1_555
H3 Th2 2.787088 1_554
H4 Mn0 1.784191 1_454
H4 Mn5 1.784193 1_555
H4 Mn19 1.819155 1_555
H4 Th0 2.787088 1_455
H4 Th4 2.787088 1_554
H5 Mn4 1.784185 1_555
H5 Mn6 1.784185 1_545
H5 Mn20 1.819155 1_555
H5 Th5 2.787088 1_555
H5 Th0 2.787088 1_545
H6 Mn1 1.784191 1_555
H6 Mn3 1.784193 1_454
H6 Mn19 1.819155 1_555
H6 Th1 2.787088 1_554
H6 Th5 2.787088 1_455
H7 Mn7 1.784185 1_555
H7 Mn2 1.784185 1_545
H7 Mn20 1.819155 1_555
H7 Th1 2.787088 1_555
H7 Th4 2.787088 1_545
H8 Mn0 1.784191 1_544
H8 Mn4 1.784193 1_555
H8 Mn21 1.819155 1_555
H8 Th2 2.787088 1_554
H8 Th0 2.787088 1_545
H9 Mn1 1.784191 1_555
H9 Mn2 1.784193 1_544
H9 Mn21 1.819155 1_555
H9 Th1 2.787088 1_554
H9 Th3 2.787088 1_545
H10 Mn5 1.784185 1_555
H10 Mn6 1.784185 1_455
H10 Mn22 1.819155 1_555
H10 Th3 2.787088 1_555
H10 Th0 2.787088 1_455
H11 Mn7 1.784185 1_555
H11 Mn3 1.784185 1_455
H11 Mn22 1.819155 1_555
H11 Th1 2.787088 1_555
H11 Th2 2.787088 1_455
H12 Mn10 1.677642 1_455
H12 Mn22 1.694065 1_555
H12 Th1 2.491835 1_555
H12 Th3 2.491835 1_555
H13 Mn12 1.677642 1_655
H13 Mn22 1.694065 1_655
H13 Th2 2.491835 1_555
H13 Th0 2.491835 1_555
H14 Mn8 1.677643 1_555
H14 Mn22 1.694074 1_655
H14 Th0 2.491830 1_555
H14 Th2 2.491830 1_555
H15 Mn14 1.677636 1_554
H15 Mn21 1.694073 1_565
H15 Th3 2.491831 1_555
H15 Th0 2.491838 1_555
H16 Mn14 1.677642 1_554
H16 Mn18 1.694065 1_555
H16 Th3 2.491835 1_555
H16 Th5 2.491835 1_555
H17 Mn9 1.677643 1_555
H17 Mn22 1.694074 1_555
H17 Th1 2.491830 1_555
H17 Th3 2.491830 1_555
H18 Mn15 1.677636 1_556
H18 Mn21 1.694073 1_556
H18 Th2 2.491831 1_555
H18 Th1 2.491838 1_555
H19 Mn15 1.677642 1_556
H19 Mn18 1.694065 1_556
H19 Th2 2.491835 1_555
H19 Th4 2.491835 1_555
H20 Mn11 1.677636 1_545
H20 Mn21 1.694073 1_556
H20 Th1 2.491831 1_555
H20 Th2 2.491838 1_555
H21 Mn8 1.677643 1_555
H21 Mn18 1.694074 1_556
H21 Th2 2.491830 1_555
H21 Th4 2.491830 1_555
H22 Mn13 1.677636 1_565
H22 Mn21 1.694073 1_565
H22 Th0 2.491831 1_555
H22 Th3 2.491838 1_555
H23 Mn9 1.677643 1_555
H23 Mn18 1.694074 1_555
H23 Th3 2.491830 1_555
H23 Th5 2.491830 1_555
H24 Mn11 1.677636 1_545
H24 Mn17 1.694073 1_655
H24 Th5 2.491831 1_555
H24 Th2 2.491838 1_555
H25 Mn13 1.677636 1_565
H25 Mn17 1.694073 1_565
H25 Th4 2.491831 1_555
H25 Th3 2.491838 1_555
H26 Mn10 1.677636 1_455
H26 Mn17 1.694073 1_565
H26 Th3 2.491831 1_555
H26 Th4 2.491838 1_555
H27 Mn12 1.677636 1_655
H27 Mn17 1.694073 1_655
H27 Th2 2.491831 1_555
H27 Th5 2.491838 1_555
H28 Mn11 1.677642 1_545
H28 Mn20 1.694065 1_555
H28 Th1 2.491835 1_555
H28 Th5 2.491835 1_555
H29 Mn15 1.677636 1_556
H29 Mn19 1.694073 1_556
H29 Th4 2.491831 1_555
H29 Th1 2.491838 1_555
H30 Mn13 1.677642 1_565
H30 Mn20 1.694065 1_565
H30 Th4 2.491835 1_555
H30 Th0 2.491835 1_555
H31 Mn14 1.677636 1_554
H31 Mn19 1.694073 1_655
H31 Th5 2.491831 1_555
H31 Th0 2.491838 1_555
H32 Mn10 1.677636 1_455
H32 Mn19 1.694073 1_556
H32 Th1 2.491831 1_555
H32 Th4 2.491838 1_555
H33 Mn12 1.677636 1_655
H33 Mn19 1.694073 1_655
H33 Th0 2.491831 1_555
H33 Th5 2.491838 1_555
H34 Mn9 1.677643 1_555
H34 Mn20 1.694074 1_555
H34 Th1 2.491830 1_555
H34 Th5 2.491830 1_555
H35 Mn8 1.677643 1_555
H35 Mn20 1.694074 1_565
H35 Th0 2.491830 1_555
H35 Th4 2.491830 1_555
H36 Th2 2.261450 1_555
H36 Th4 2.261450 1_555
H36 Th0 2.261450 1_555
H37 Th3 2.261450 1_555
H37 Th1 2.261450 1_555
H37 Th5 2.261450 1_555
H38 Th3 2.261447 1_555
H38 Th1 2.261447 1_555
H38 Th4 2.261455 1_555
H39 Th5 2.261447 1_555
H39 Th1 2.261447 1_555
H39 Th2 2.261455 1_555
H40 Th2 2.261447 1_555
H40 Th0 2.261447 1_555
H40 Th5 2.261455 1_555
H41 Th4 2.261447 1_555
H41 Th0 2.261447 1_555
H41 Th3 2.261455 1_555
H42 Th3 2.261447 1_555
H42 Th5 2.261447 1_555
H42 Th0 2.261455 1_555
H43 Th4 2.261447 1_555
H43 Th2 2.261447 1_555
H43 Th1 2.261455 1_555
