# generated using pymatgen
data_Mg2Al4Fe(PO6)4
_symmetry_space_group_name_H-M   'P 1'
_cell_length_a   5.13998700
_cell_length_b   7.27244902
_cell_length_c   11.76496756
_cell_angle_alpha   98.50982987
_cell_angle_beta   88.98899201
_cell_angle_gamma   110.48581674
_symmetry_Int_Tables_number   1
_chemical_formula_structural   Mg2Al4Fe(PO6)4
_chemical_formula_sum   'Mg2 Al4 Fe1 P4 O24'
_cell_volume   407.15353042
_cell_formula_units_Z   1
loop_
 _symmetry_equiv_pos_site_id
 _symmetry_equiv_pos_as_xyz
  1  'x, y, z'
loop_
 _atom_site_type_symbol
 _atom_site_label
 _atom_site_symmetry_multiplicity
 _atom_site_fract_x
 _atom_site_fract_y
 _atom_site_fract_z
 _atom_site_occupancy
  Mg  Mg0  1  0.04558700  0.07996300  0.26997500  1
  Mg  Mg1  1  0.95441300  0.92003700  0.73002500  1
  Al  Al0  1  0.00000000  0.50000000  0.00000000  1
  Al  Al1  1  0.06857000  0.60328800  0.30806900  1
  Al  Al2  1  0.93143000  0.39671200  0.69193100  1
  Al  Al3  1  0.00000000  0.00000000  0.50000000  1
  Fe  Fe0  1  0.00000000  0.00000000  0.00000000  1
  P  P0  1  0.34647600  0.72751500  0.55991200  1
  P  P1  1  0.65352400  0.27248500  0.44008800  1
  P  P2  1  0.43312000  0.86266800  0.13720100  1
  P  P3  1  0.56688000  0.13733200  0.86279900  1
  O  O0  1  0.26029800  0.58678700  0.65054300  1
  O  O1  1  0.73970200  0.41321300  0.34945700  1
  O  O2  1  0.27156200  0.61580900  0.43851500  1
  O  O3  1  0.72843800  0.38419100  0.56148500  1
  O  O4  1  0.73633200  0.99731000  0.86787000  1
  O  O5  1  0.26366800  0.00269000  0.13213000  1
  O  O6  1  0.38912100  0.78617200  0.25345100  1
  O  O7  1  0.61087900  0.21382800  0.74654900  1
  O  O8  1  0.35250900  0.69716200  0.03309000  1
  O  O9  1  0.64749100  0.30283800  0.96691000  1
  O  O10  1  0.19555800  0.88228600  0.58604500  1
  O  O11  1  0.80444200  0.11771400  0.41395500  1
  O  O12  1  0.13902300  0.36938500  0.23164500  1
  O  O13  1  0.86097700  0.63061500  0.76835500  1
  O  O14  1  0.97629100  0.83041400  0.35919000  1
  O  O15  1  0.02370900  0.16958600  0.64081000  1
  O  O16  1  0.74871500  0.98381100  0.13381700  1
  O  O17  1  0.25128500  0.01618900  0.86618300  1
  O  O18  1  0.66957900  0.83792600  0.57617700  1
  O  O19  1  0.33042100  0.16207400  0.42382300  1
  O  O20  1  0.12756100  0.30160500  0.04117700  1
  O  O21  1  0.87243900  0.69839500  0.95882300  1
  O  O22  1  0.91693700  0.54394800  0.15591000  1
  O  O23  1  0.08306300  0.45605200  0.84409000  1
loop_
_geom_bond_atom_site_label_1
_geom_bond_atom_site_label_2
_geom_bond_distance
_geom_bond_site_symmetry_2
Mg0 O5 2.075905 1_555
Mg0 O16 2.095553 1_445
Mg0 O12 2.104742 1_555
Mg0 O11 2.123090 1_455
Mg0 O14 2.149484 1_445
Mg0 O19 2.222131 1_555
Mg1 O4 2.075905 1_555
Mg1 O17 2.095553 1_665
Mg1 O13 2.104742 1_555
Mg1 O10 2.123090 1_655
Mg1 O15 2.149484 1_665
Mg1 O18 2.222131 1_555
Al0 O8 1.879272 1_555
Al0 O9 1.879272 1_454
Al0 O22 1.882384 1_455
Al0 O23 1.882384 1_554
Al0 O20 1.904345 1_555
Al0 O21 1.904345 1_454
Al1 O2 1.844141 1_555
Al1 O1 1.881460 1_455
Al1 O14 1.886615 1_455
Al1 O6 1.891626 1_555
Al1 O22 1.893008 1_455
Al1 O12 1.949397 1_555
Al2 O3 1.844141 1_555
Al2 O0 1.881460 1_655
Al2 O15 1.886615 1_655
Al2 O7 1.891626 1_555
Al2 O23 1.893008 1_655
Al2 O13 1.949397 1_555
Al3 O15 1.891440 1_555
Al3 O14 1.891440 1_445
Al3 O11 1.913815 1_455
Al3 O10 1.913815 1_545
Al3 O19 1.983598 1_555
Al3 O18 1.983598 1_445
Fe0 O17 2.009314 1_554
Fe0 O16 2.009314 1_445
Fe0 O21 2.041009 1_444
Fe0 O20 2.041009 1_555
Fe0 O4 2.073731 1_444
Fe0 O5 2.073731 1_555
O0 P0 1.539335 1_555
O1 P1 1.539335 1_555
O2 P0 1.518267 1_555
O3 P1 1.518267 1_555
O4 P3 1.561962 1_565
O5 P2 1.561962 1_545
O6 P2 1.535375 1_555
O7 P3 1.535375 1_555
O8 P2 1.534017 1_555
O9 P3 1.534017 1_555
O10 P0 1.569543 1_555
O11 P1 1.569543 1_555
O16 P2 1.554646 1_555
O17 P3 1.554646 1_555
O18 P0 1.572191 1_555
O19 P1 1.572191 1_555
