# generated using pymatgen
data_Sm2TiMnO6
_symmetry_space_group_name_H-M   'P 1'
_cell_length_a   5.78272000
_cell_length_b   5.46903800
_cell_length_c   9.58039464
_cell_angle_alpha   55.48547261
_cell_angle_beta   90.00000000
_cell_angle_gamma   90.00000000
_symmetry_Int_Tables_number   1
_chemical_formula_structural   Sm2TiMnO6
_chemical_formula_sum   'Sm4 Ti2 Mn2 O12'
_cell_volume   249.65744317
_cell_formula_units_Z   2
loop_
 _symmetry_equiv_pos_site_id
 _symmetry_equiv_pos_as_xyz
  1  'x, y, z'
loop_
 _atom_site_type_symbol
 _atom_site_label
 _atom_site_symmetry_multiplicity
 _atom_site_fract_x
 _atom_site_fract_y
 _atom_site_fract_z
 _atom_site_occupancy
  Sm  Sm0  1  0.93520600  0.72982100  0.25207200  1
  Sm  Sm1  1  0.43520600  0.27017900  0.24792800  1
  Sm  Sm2  1  0.06479400  0.27017900  0.74792800  1
  Sm  Sm3  1  0.56479400  0.72982100  0.75207200  1
  Ti  Ti0  1  0.00000000  0.00000000  0.50000000  1
  Ti  Ti1  1  0.50000000  0.00000000  0.00000000  1
  Mn  Mn0  1  0.50000000  0.50000000  0.50000000  1
  Mn  Mn1  1  0.00000000  0.50000000  0.00000000  1
  O  O0  1  0.54360000  0.87573000  0.23738700  1
  O  O1  1  0.04360000  0.12427000  0.26261300  1
  O  O2  1  0.45640000  0.12427000  0.76261300  1
  O  O3  1  0.95640000  0.87573000  0.73738700  1
  O  O4  1  0.81583400  0.65317800  0.55405500  1
  O  O5  1  0.31583400  0.34682200  0.94594500  1
  O  O6  1  0.18416600  0.34682200  0.44594500  1
  O  O7  1  0.68416600  0.65317800  0.05405500  1
  O  O8  1  0.21085500  0.75616700  0.06321600  1
  O  O9  1  0.71085500  0.24383300  0.43678400  1
  O  O10  1  0.78914500  0.24383300  0.93678400  1
  O  O11  1  0.28914500  0.75616700  0.56321600  1
loop_
_geom_bond_atom_site_label_1
_geom_bond_atom_site_label_2
_geom_bond_distance
_geom_bond_site_symmetry_2
Mn0 O0 2.181123 1_555
Mn0 O2 2.181123 1_555
Mn0 O11 2.185822 1_555
Mn0 O9 2.185822 1_555
Mn0 O4 2.190272 1_555
Mn0 O6 2.190272 1_555
Mn1 O3 2.181123 1_454
Mn1 O1 2.181123 1_555
Mn1 O8 2.185822 1_555
Mn1 O10 2.185822 1_454
Mn1 O5 2.190272 1_554
Mn1 O7 2.190272 1_455
O0 Ti1 1.986488 1_565
O0 Sm1 2.302982 1_565
O0 Sm0 2.378554 1_555
O1 Ti0 1.986488 1_555
O1 Sm0 2.302982 1_445
O1 Sm1 2.378554 1_555
O2 Ti1 1.986488 1_556
O2 Sm3 2.302982 1_545
O2 Sm2 2.378554 1_555
O3 Ti0 1.986488 1_665
O3 Sm2 2.302982 1_665
O3 Sm3 2.378554 1_555
O4 Ti0 1.971548 1_665
O4 Sm2 2.345448 1_655
O4 Sm3 2.604450 1_555
O4 Sm0 2.765515 1_555
O5 Ti1 1.971548 1_556
O5 Sm3 2.345448 1_555
O5 Sm2 2.604450 1_555
O5 Sm1 2.765515 1_556
O6 Ti0 1.971548 1_555
O6 Sm0 2.345448 1_455
O6 Sm1 2.604450 1_555
O6 Sm2 2.765515 1_555
O7 Ti1 1.971548 1_565
O7 Sm1 2.345448 1_555
O7 Sm0 2.604450 1_555
O7 Sm3 2.765515 1_554
O8 Ti1 2.006390 1_565
O8 Sm0 2.353676 1_455
O8 Sm1 2.559094 1_555
O8 Sm2 2.849084 1_564
O9 Ti0 2.006390 1_655
O9 Sm1 2.353676 1_555
O9 Sm0 2.559094 1_555
O9 Sm3 2.849084 1_545
O10 Ti1 2.006390 1_556
O10 Sm2 2.353676 1_655
O10 Sm3 2.559094 1_555
O10 Sm0 2.849084 1_546
O11 Ti0 2.006390 1_565
O11 Sm3 2.353676 1_555
O11 Sm2 2.559094 1_555
O11 Sm1 2.849084 1_565
