# generated using pymatgen
data_Np2Co17
_symmetry_space_group_name_H-M   'P 1'
_cell_length_a   8.08146166
_cell_length_b   8.08146166
_cell_length_c   7.84636000
_cell_angle_alpha   90.00000000
_cell_angle_beta   90.00000000
_cell_angle_gamma   119.99999722
_symmetry_Int_Tables_number   1
_chemical_formula_structural   Np2Co17
_chemical_formula_sum   'Np4 Co34'
_cell_volume   443.79122208
_cell_formula_units_Z   2
loop_
 _symmetry_equiv_pos_site_id
 _symmetry_equiv_pos_as_xyz
  1  'x, y, z'
loop_
 _atom_site_type_symbol
 _atom_site_label
 _atom_site_symmetry_multiplicity
 _atom_site_fract_x
 _atom_site_fract_y
 _atom_site_fract_z
 _atom_site_occupancy
  Np  Np0  1  0.00000000  0.00000000  0.25000000  1
  Np  Np1  1  0.00000000  0.00000000  0.75000000  1
  Np  Np2  1  0.33333300  0.66666700  0.75000000  1
  Np  Np3  1  0.66666700  0.33333300  0.25000000  1
  Co  Co0  1  0.33333300  0.66666700  0.39981800  1
  Co  Co1  1  0.66666700  0.33333300  0.60018200  1
  Co  Co2  1  0.66666700  0.33333300  0.89981800  1
  Co  Co3  1  0.33333300  0.66666700  0.10018200  1
  Co  Co4  1  0.50000000  0.50000000  0.50000000  1
  Co  Co5  1  0.50000000  0.00000000  0.50000000  1
  Co  Co6  1  0.00000000  0.50000000  0.50000000  1
  Co  Co7  1  0.50000000  0.50000000  0.00000000  1
  Co  Co8  1  0.50000000  0.00000000  0.00000000  1
  Co  Co9  1  0.00000000  0.50000000  0.00000000  1
  Co  Co10  1  0.32446300  0.36518500  0.25000000  1
  Co  Co11  1  0.63481500  0.95927800  0.25000000  1
  Co  Co12  1  0.04072200  0.67553700  0.25000000  1
  Co  Co13  1  0.63481500  0.67553700  0.25000000  1
  Co  Co14  1  0.04072200  0.36518500  0.25000000  1
  Co  Co15  1  0.32446300  0.95927800  0.25000000  1
  Co  Co16  1  0.67553700  0.63481500  0.75000000  1
  Co  Co17  1  0.36518500  0.04072200  0.75000000  1
  Co  Co18  1  0.95927800  0.32446300  0.75000000  1
  Co  Co19  1  0.36518500  0.32446300  0.75000000  1
  Co  Co20  1  0.95927800  0.63481500  0.75000000  1
  Co  Co21  1  0.67553700  0.04072200  0.75000000  1
  Co  Co22  1  0.16499100  0.83500900  0.52570400  1
  Co  Co23  1  0.16499100  0.32998200  0.52570400  1
  Co  Co24  1  0.67001800  0.83500900  0.52570400  1
  Co  Co25  1  0.83500900  0.16499100  0.47429600  1
  Co  Co26  1  0.83500900  0.67001800  0.47429600  1
  Co  Co27  1  0.32998200  0.16499100  0.47429600  1
  Co  Co28  1  0.83500900  0.16499100  0.02570400  1
  Co  Co29  1  0.83500900  0.67001800  0.02570400  1
  Co  Co30  1  0.32998200  0.16499100  0.02570400  1
  Co  Co31  1  0.16499100  0.83500900  0.97429600  1
  Co  Co32  1  0.16499100  0.32998200  0.97429600  1
  Co  Co33  1  0.67001800  0.83500900  0.97429600  1
loop_
_geom_bond_atom_site_label_1
_geom_bond_atom_site_label_2
_geom_bond_distance
_geom_bond_site_symmetry_2
Co0 Co3 2.351052 1_555
Co0 Co6 2.461786 1_555
Co0 Co5 2.461786 1_565
Co0 Co4 2.461792 1_555
Co0 Co22 2.555017 1_555
Co0 Co23 2.555023 1_555
Co0 Co24 2.555023 1_555
Co0 Co12 2.673655 1_555
Co0 Co15 2.673655 1_555
Co0 Co11 2.673659 1_555
Co0 Co14 2.673659 1_555
Co0 Co10 2.673662 1_555
Co0 Co13 2.673662 1_555
Co0 Np2 2.747654 1_555
Co1 Co2 2.351052 1_555
Co1 Co5 2.461786 1_555
Co1 Co6 2.461786 1_655
Co1 Co4 2.461792 1_555
Co1 Co25 2.555017 1_555
Co1 Co26 2.555023 1_555
Co1 Co27 2.555023 1_555
Co1 Co21 2.673655 1_555
Co1 Co18 2.673655 1_555
Co1 Co20 2.673659 1_555
Co1 Co17 2.673659 1_555
Co1 Co19 2.673662 1_555
Co1 Co16 2.673662 1_555
Co1 Np3 2.747654 1_555
Co2 Co9 2.461786 1_656
Co2 Co8 2.461786 1_556
Co2 Co7 2.461792 1_556
Co2 Co28 2.555017 1_556
Co2 Co29 2.555023 1_556
Co2 Co30 2.555023 1_556
Co2 Co21 2.673655 1_555
Co2 Co20 2.673659 1_555
Co2 Np3 2.747654 1_556
Co3 Co9 2.461786 1_555
Co3 Co8 2.461786 1_565
Co3 Co7 2.461792 1_555
Co3 Co31 2.555017 1_554
Co3 Co33 2.555023 1_554
Co3 Co32 2.555023 1_554
Co3 Np2 2.747654 1_554
Co4 Np2 3.048009 1_555
Co4 Np3 3.048009 1_555
Co5 Np3 3.048004 1_555
Co5 Np2 3.048004 1_545
Co6 Np3 3.048004 1_455
Co6 Np2 3.048004 1_555
Co7 Np2 3.048009 1_554
Co7 Np3 3.048009 1_555
Co8 Np3 3.048004 1_555
Co8 Np2 3.048004 1_544
Co9 Np2 3.048004 1_554
Co9 Np3 3.048004 1_455
Co10 Co14 2.293042 1_555
Co10 Co7 2.345570 1_555
Co10 Co4 2.345570 1_555
Co10 Co27 2.406012 1_555
Co10 Co30 2.406012 1_555
Co10 Co23 2.460683 1_555
Co10 Co32 2.460683 1_554
Co10 Co13 2.508098 1_555
Co10 Co3 2.673662 1_555
Co10 Np0 2.801218 1_555
Co10 Np3 2.902786 1_555
Co11 Co13 2.293042 1_555
Co11 Co5 2.345570 1_565
Co11 Co8 2.345570 1_565
Co11 Co25 2.406012 1_565
Co11 Co28 2.406012 1_565
Co11 Co24 2.460683 1_555
Co11 Co33 2.460683 1_554
Co11 Co15 2.508098 1_555
Co11 Co3 2.673659 1_555
Co11 Np0 2.801218 1_665
Co11 Np3 2.902778 1_565
Co12 Co15 2.293042 1_555
Co12 Co9 2.345570 1_555
Co12 Co6 2.345570 1_555
Co12 Co26 2.406012 1_455
Co12 Co29 2.406012 1_455
Co12 Co22 2.460683 1_555
Co12 Co31 2.460683 1_554
Co12 Co14 2.508098 1_555
Co12 Co3 2.673655 1_555
Co12 Np0 2.801218 1_565
Co12 Np3 2.902782 1_455
Co13 Co7 2.345570 1_555
Co13 Co4 2.345570 1_555
Co13 Co26 2.406012 1_555
Co13 Co29 2.406012 1_555
Co13 Co24 2.460683 1_555
Co13 Co33 2.460683 1_554
Co13 Co3 2.673662 1_555
Co13 Np0 2.801218 1_665
Co13 Np3 2.902786 1_555
Co14 Co6 2.345570 1_555
Co14 Co9 2.345570 1_555
Co14 Co25 2.406012 1_455
Co14 Co28 2.406012 1_455
Co14 Co23 2.460683 1_555
Co14 Co32 2.460683 1_554
Co14 Co3 2.673659 1_555
Co14 Np0 2.801218 1_555
Co14 Np3 2.902778 1_455
Co15 Co8 2.345570 1_565
Co15 Co5 2.345570 1_565
Co15 Co27 2.406012 1_565
Co15 Co30 2.406012 1_565
Co15 Co22 2.460683 1_555
Co15 Co31 2.460683 1_554
Co15 Co3 2.673655 1_555
Co15 Np0 2.801218 1_565
Co15 Np3 2.902782 1_565
Co16 Co20 2.293042 1_555
Co16 Co7 2.345570 1_556
Co16 Co4 2.345570 1_555
Co16 Co33 2.406012 1_555
Co16 Co24 2.406012 1_555
Co16 Co29 2.460683 1_556
Co16 Co26 2.460683 1_555
Co16 Co19 2.508098 1_555
Co16 Co2 2.673662 1_555
Co16 Np1 2.801218 1_665
Co16 Np2 2.902786 1_555
Co17 Co19 2.293042 1_555
Co17 Co8 2.345570 1_556
Co17 Co5 2.345570 1_555
Co17 Co31 2.406012 1_545
Co17 Co22 2.406012 1_545
Co17 Co30 2.460683 1_556
Co17 Co27 2.460683 1_555
Co17 Co21 2.508098 1_555
Co17 Co2 2.673659 1_555
Co17 Np1 2.801218 1_555
Co17 Np2 2.902778 1_545
Co18 Co21 2.293042 1_555
Co18 Co6 2.345570 1_655
Co18 Co9 2.345570 1_656
Co18 Co32 2.406012 1_655
Co18 Co23 2.406012 1_655
Co18 Co28 2.460683 1_556
Co18 Co25 2.460683 1_555
Co18 Co20 2.508098 1_555
Co18 Co2 2.673655 1_555
Co18 Np1 2.801218 1_655
Co18 Np2 2.902782 1_655
Co19 Co7 2.345570 1_556
Co19 Co4 2.345570 1_555
Co19 Co32 2.406012 1_555
Co19 Co23 2.406012 1_555
Co19 Co30 2.460683 1_556
Co19 Co27 2.460683 1_555
Co19 Co2 2.673662 1_555
Co19 Np1 2.801218 1_555
Co19 Np2 2.902786 1_555
Co20 Co6 2.345570 1_655
Co20 Co9 2.345570 1_656
Co20 Co31 2.406012 1_655
Co20 Co22 2.406012 1_655
Co20 Co29 2.460683 1_556
Co20 Co26 2.460683 1_555
Co20 Np1 2.801218 1_665
Co20 Np2 2.902778 1_655
Co21 Co8 2.345570 1_556
Co21 Co5 2.345570 1_555
Co21 Co33 2.406012 1_545
Co21 Co24 2.406012 1_545
Co21 Co28 2.460683 1_556
Co21 Co25 2.460683 1_555
Co21 Np1 2.801218 1_655
Co21 Np2 2.902782 1_545
Co22 Co26 2.344423 1_455
Co22 Co27 2.344423 1_565
Co22 Co6 2.353391 1_555
Co22 Co5 2.353391 1_565
Co22 Np1 2.903599 1_565
Co22 Np2 2.941044 1_555
Co22 Np0 3.164390 1_565
Co23 Co27 2.344423 1_555
Co23 Co25 2.344423 1_455
Co23 Co6 2.353390 1_555
Co23 Co4 2.353391 1_555
Co23 Np1 2.903599 1_555
Co23 Np2 2.941050 1_555
Co23 Np0 3.164390 1_555
Co24 Co26 2.344423 1_555
Co24 Co25 2.344423 1_565
Co24 Co5 2.353390 1_565
Co24 Co4 2.353391 1_555
Co24 Np1 2.903599 1_665
Co24 Np2 2.941050 1_555
Co24 Np0 3.164390 1_665
Co25 Co5 2.353391 1_555
Co25 Co6 2.353391 1_655
Co25 Np0 2.903599 1_655
Co25 Np3 2.941044 1_555
Co25 Np1 3.164390 1_655
Co26 Co6 2.353390 1_655
Co26 Co4 2.353391 1_555
Co26 Np0 2.903599 1_665
Co26 Np3 2.941050 1_555
Co26 Np1 3.164390 1_665
Co27 Co5 2.353390 1_555
Co27 Co4 2.353391 1_555
Co27 Np0 2.903599 1_555
Co27 Np3 2.941050 1_555
Co27 Np1 3.164390 1_555
Co28 Co33 2.344423 1_544
Co28 Co32 2.344423 1_654
Co28 Co8 2.353391 1_555
Co28 Co9 2.353391 1_655
Co28 Np0 2.903599 1_655
Co28 Np3 2.941044 1_555
Co28 Np1 3.164390 1_654
Co29 Co33 2.344423 1_554
Co29 Co31 2.344423 1_654
Co29 Co9 2.353390 1_655
Co29 Co7 2.353391 1_555
Co29 Np0 2.903599 1_665
Co29 Np3 2.941050 1_555
Co29 Np1 3.164390 1_664
Co30 Co32 2.344423 1_554
Co30 Co31 2.344423 1_544
Co30 Co8 2.353390 1_555
Co30 Co7 2.353391 1_555
Co30 Np0 2.903599 1_555
Co30 Np3 2.941050 1_555
Co30 Np1 3.164390 1_554
Co31 Co9 2.353391 1_556
Co31 Co8 2.353391 1_566
Co31 Np1 2.903599 1_565
Co31 Np2 2.941044 1_555
Co31 Np0 3.164390 1_566
Co32 Co9 2.353390 1_556
Co32 Co7 2.353391 1_556
Co32 Np1 2.903599 1_555
Co32 Np2 2.941050 1_555
Co32 Np0 3.164390 1_556
Co33 Co8 2.353390 1_566
Co33 Co7 2.353391 1_556
Co33 Np1 2.903599 1_665
Co33 Np2 2.941050 1_555
Co33 Np0 3.164390 1_666
