# generated using pymatgen
data_Mo2(CN2)3
_symmetry_space_group_name_H-M   'P 1'
_cell_length_a   10.66802496
_cell_length_b   5.12717851
_cell_length_c   30.74792537
_cell_angle_alpha   89.99999202
_cell_angle_beta   163.88624690
_cell_angle_gamma   76.09541378
_symmetry_Int_Tables_number   1
_chemical_formula_structural   Mo2(CN2)3
_chemical_formula_sum   'Mo4 C6 N12'
_cell_volume   233.55116514
_cell_formula_units_Z   2
loop_
 _symmetry_equiv_pos_site_id
 _symmetry_equiv_pos_as_xyz
  1  'x, y, z'
loop_
 _atom_site_type_symbol
 _atom_site_label
 _atom_site_symmetry_multiplicity
 _atom_site_fract_x
 _atom_site_fract_y
 _atom_site_fract_z
 _atom_site_occupancy
  Mo  Mo0  1  0.99963600  0.00015400  0.16660000  1
  Mo  Mo1  1  0.99963600  0.00021100  0.66660000  1
  Mo  Mo2  1  0.00036500  0.99984500  0.83341900  1
  Mo  Mo3  1  0.00036500  0.99978900  0.33341900  1
  C  C0  1  0.00345600  0.66528100  0.08448800  1
  C  C1  1  0.99999900  0.66518800  0.75000800  1
  C  C2  1  0.99654300  0.66873700  0.41553000  1
  C  C3  1  0.00345600  0.33126300  0.58448800  1
  C  C4  1  0.99654300  0.33472000  0.91553000  1
  C  C5  1  0.99999900  0.33481300  0.25000800  1
  N  N0  1  0.96830200  0.69352900  0.11280400  1
  N  N1  1  0.05007300  0.64376600  0.80672500  1
  N  N2  1  0.98255400  0.66167000  0.45088700  1
  N  N3  1  0.96830200  0.33817100  0.61280400  1
  N  N4  1  0.98255400  0.35577700  0.95088700  1
  N  N5  1  0.05007300  0.30616200  0.30672500  1
  N  N6  1  0.03169200  0.30647300  0.88721200  1
  N  N7  1  0.94993300  0.35623200  0.19329600  1
  N  N8  1  0.01744800  0.33832700  0.54913200  1
  N  N9  1  0.03169200  0.66183300  0.38721200  1
  N  N10  1  0.01744800  0.64422500  0.04913200  1
  N  N11  1  0.94993300  0.69383500  0.69329600  1
loop_
_geom_bond_atom_site_label_1
_geom_bond_atom_site_label_2
_geom_bond_distance
_geom_bond_site_symmetry_2
Mo0 N1 2.122789 1_554
Mo0 N0 2.123574 1_545
Mo0 N2 2.123995 1_645
Mo0 N6 2.157357 1_554
Mo0 N8 2.158433 1_745
Mo0 N7 2.158486 1_555
Mo1 N5 2.122789 1_555
Mo1 N3 2.123578 1_555
Mo1 N4 2.123995 1_645
Mo1 N9 2.157351 1_555
Mo1 N10 2.158431 1_746
Mo1 N11 2.158489 1_545
Mo2 N7 2.122797 1_556
Mo2 N6 2.123559 1_565
Mo2 N8 2.123990 1_465
Mo2 N0 2.157362 1_556
Mo2 N2 2.158436 1_365
Mo2 N1 2.158474 1_555
Mo3 N11 2.122799 1_555
Mo3 N9 2.123563 1_555
Mo3 N10 2.123993 1_465
Mo3 N3 2.157356 1_555
Mo3 N4 2.158432 1_364
Mo3 N5 2.158481 1_565
C0 N10 1.232810 1_555
C0 N0 1.233264 1_455
C1 N11 1.233027 1_555
C1 N1 1.233099 1_655
C2 N2 1.232811 1_555
C2 N9 1.233273 1_655
C3 N8 1.232810 1_555
C3 N3 1.233263 1_455
C4 N4 1.232811 1_555
C4 N6 1.233274 1_655
C5 N7 1.233027 1_555
C5 N5 1.233099 1_655
