# generated using pymatgen
data_Gd(BRh)4
_symmetry_space_group_name_H-M   'P 1'
_cell_length_a   5.35048400
_cell_length_b   5.35048400
_cell_length_c   7.48291600
_cell_angle_alpha   90.00000000
_cell_angle_beta   90.00000000
_cell_angle_gamma   90.00000000
_symmetry_Int_Tables_number   1
_chemical_formula_structural   Gd(BRh)4
_chemical_formula_sum   'Gd2 B8 Rh8'
_cell_volume   214.21851749
_cell_formula_units_Z   2
loop_
 _symmetry_equiv_pos_site_id
 _symmetry_equiv_pos_as_xyz
  1  'x, y, z'
loop_
 _atom_site_type_symbol
 _atom_site_label
 _atom_site_symmetry_multiplicity
 _atom_site_fract_x
 _atom_site_fract_y
 _atom_site_fract_z
 _atom_site_occupancy
  Gd  Gd0  1  0.00000000  0.00000000  0.00000000  1
  Gd  Gd1  1  0.50000000  0.50000000  0.50000000  1
  B  B0  1  0.83114100  0.50000000  0.15165400  1
  B  B1  1  0.16885900  0.50000000  0.15165400  1
  B  B2  1  0.00000000  0.33114100  0.65165400  1
  B  B3  1  0.00000000  0.66885900  0.65165400  1
  B  B4  1  0.66885900  0.00000000  0.34834600  1
  B  B5  1  0.33114100  0.00000000  0.34834600  1
  B  B6  1  0.50000000  0.16885900  0.84834600  1
  B  B7  1  0.50000000  0.83114100  0.84834600  1
  Rh  Rh0  1  0.25120300  0.50000000  0.85610100  1
  Rh  Rh1  1  0.74879700  0.50000000  0.85610100  1
  Rh  Rh2  1  0.00000000  0.75120300  0.35610100  1
  Rh  Rh3  1  0.00000000  0.24879700  0.35610100  1
  Rh  Rh4  1  0.24879700  0.00000000  0.64389900  1
  Rh  Rh5  1  0.75120300  0.00000000  0.64389900  1
  Rh  Rh6  1  0.50000000  0.74879700  0.14389900  1
  Rh  Rh7  1  0.50000000  0.25120300  0.14389900  1
loop_
_geom_bond_atom_site_label_1
_geom_bond_atom_site_label_2
_geom_bond_distance
_geom_bond_site_symmetry_2
Gd0 Rh5 2.978681 1_454
Gd0 Rh3 2.978681 1_555
Gd0 Rh2 2.978681 1_545
Gd0 Rh4 2.978681 1_554
Gd0 Rh0 3.181647 1_544
Gd0 Rh7 3.181647 1_555
Gd0 Rh7 3.181647 1_455
Gd0 Rh0 3.181647 1_554
Gd0 Rh1 3.181647 1_444
Gd0 Rh1 3.181647 1_454
Gd0 Rh6 3.181647 1_445
Gd0 Rh6 3.181647 1_545
Gd1 Rh6 2.978681 1_555
Gd1 Rh1 2.978681 1_555
Gd1 Rh7 2.978681 1_555
Gd1 Rh0 2.978681 1_555
Gd1 Rh3 3.181647 1_555
Gd1 Rh2 3.181647 1_555
Gd1 Rh3 3.181647 1_655
Gd1 Rh4 3.181647 1_565
Gd1 Rh2 3.181647 1_655
Gd1 Rh4 3.181647 1_555
Gd1 Rh5 3.181647 1_565
Gd1 Rh5 3.181647 1_555
B0 B1 1.806955 1_655
B0 Rh6 2.216883 1_555
B0 Rh7 2.216883 1_555
B0 Rh2 2.227831 1_655
B0 Rh3 2.227831 1_655
B0 Rh1 2.255056 1_554
B0 Gd0 3.043188 1_655
B0 Gd0 3.043188 1_665
B0 Gd1 3.151784 1_555
B1 Rh6 2.216883 1_555
B1 Rh7 2.216883 1_555
B1 Rh2 2.227831 1_555
B1 Rh3 2.227831 1_555
B1 Rh0 2.255056 1_554
B1 Gd0 3.043188 1_555
B1 Gd0 3.043188 1_565
B1 Gd1 3.151784 1_555
B2 B3 1.806955 1_555
B2 Rh4 2.216883 1_555
B2 Rh5 2.216883 1_455
B2 Rh0 2.227831 1_555
B2 Rh1 2.227831 1_455
B2 Rh3 2.255056 1_555
B2 Gd1 3.043188 1_555
B2 Gd1 3.043188 1_455
B2 Gd0 3.151784 1_556
B3 Rh4 2.216883 1_565
B3 Rh5 2.216883 1_465
B3 Rh0 2.227831 1_555
B3 Rh1 2.227831 1_455
B3 Rh2 2.255056 1_555
B3 Gd1 3.043188 1_455
B3 Gd1 3.043188 1_555
B3 Gd0 3.151784 1_566
B4 B5 1.806955 1_555
B4 Rh3 2.216883 1_655
B4 Rh2 2.216883 1_645
B4 Rh7 2.227831 1_555
B4 Rh6 2.227831 1_545
B4 Rh5 2.255056 1_555
B4 Gd1 3.043188 1_545
B4 Gd1 3.043188 1_555
B4 Gd0 3.151784 1_655
B5 Rh3 2.216883 1_555
B5 Rh2 2.216883 1_545
B5 Rh7 2.227831 1_555
B5 Rh6 2.227831 1_545
B5 Rh4 2.255056 1_555
B5 Gd1 3.043188 1_555
B5 Gd1 3.043188 1_545
B5 Gd0 3.151784 1_555
B6 B7 1.806955 1_545
B6 Rh1 2.216883 1_555
B6 Rh0 2.216883 1_555
B6 Rh5 2.227831 1_555
B6 Rh4 2.227831 1_555
B6 Rh7 2.255056 1_556
B6 Gd0 3.043188 1_556
B6 Gd0 3.043188 1_656
B6 Gd1 3.151784 1_555
B7 Rh1 2.216883 1_555
B7 Rh0 2.216883 1_555
B7 Rh4 2.227831 1_565
B7 Rh5 2.227831 1_565
B7 Rh6 2.255056 1_556
B7 Gd0 3.043188 1_666
B7 Gd0 3.043188 1_566
B7 Gd1 3.151784 1_555
