# generated using pymatgen
data_ErFeCo
_symmetry_space_group_name_H-M   'P 1'
_cell_length_a   5.05660206
_cell_length_b   5.05660206
_cell_length_c   5.05660206
_cell_angle_alpha   123.69368536
_cell_angle_beta   119.06817436
_cell_angle_gamma   87.67299747
_symmetry_Int_Tables_number   1
_chemical_formula_structural   ErFeCo
_chemical_formula_sum   'Er2 Fe2 Co2'
_cell_volume   89.24407029
_cell_formula_units_Z   2
loop_
 _symmetry_equiv_pos_site_id
 _symmetry_equiv_pos_as_xyz
  1  'x, y, z'
loop_
 _atom_site_type_symbol
 _atom_site_label
 _atom_site_symmetry_multiplicity
 _atom_site_fract_x
 _atom_site_fract_y
 _atom_site_fract_z
 _atom_site_occupancy
  Er  Er0  1  0.12812400  0.87812400  0.25000000  1
  Er  Er1  1  0.87187600  0.12187600  0.75000000  1
  Fe  Fe0  1  0.50000000  0.00000000  0.00000000  1
  Fe  Fe1  1  0.50000000  0.50000000  0.50000000  1
  Co  Co0  1  0.00000000  0.50000000  0.50000000  1
  Co  Co1  1  0.50000000  0.50000000  0.00000000  1
loop_
_geom_bond_atom_site_label_1
_geom_bond_atom_site_label_2
_geom_bond_distance
_geom_bond_site_symmetry_2
Er0 Fe0 2.963486 1_565
Er0 Fe1 2.963486 1_565
Er0 Fe1 2.978229 1_555
Er0 Fe0 2.978229 1_465
Er0 Fe0 2.978229 1_566
Er0 Fe1 2.978229 1_454
Er0 Er1 3.030934 1_465
Er0 Er1 3.030934 1_454
Er0 Er1 3.120091 1_565
Er0 Er1 3.120091 1_464
Er1 Fe0 2.963486 1_556
Er1 Fe1 2.963486 1_545
Er1 Fe1 2.978229 1_555
Er1 Fe1 2.978229 1_656
Er1 Fe0 2.978229 1_555
Er1 Fe0 2.978229 1_656
Fe0 Fe1 2.385857 1_544
Fe0 Fe1 2.385857 1_555
Co0 Fe0 2.528301 1_455
Co0 Fe1 2.528301 1_455
Co0 Fe0 2.528301 1_566
Co0 Fe1 2.528301 1_555
Co0 Co1 2.563827 1_455
Co0 Co1 2.563827 1_556
Co0 Er1 2.850624 1_454
Co0 Er0 2.850624 1_545
Co0 Er0 2.850624 1_556
Co0 Er1 2.850624 1_465
Co0 Er0 3.041683 1_555
Co0 Er1 3.041683 1_455
Co1 Fe0 2.528301 1_565
Co1 Fe1 2.528301 1_555
Co1 Fe0 2.528301 1_555
Co1 Fe1 2.528301 1_554
Co1 Er1 2.850624 1_554
Co1 Er0 2.850624 1_555
Co1 Er0 2.850624 1_544
Co1 Er1 2.850624 1_565
Co1 Er0 3.041683 1_655
Co1 Er1 3.041683 1_454
