# generated using pymatgen
data_Mn5Si3
_symmetry_space_group_name_H-M   'P 1'
_cell_length_a   6.95738343
_cell_length_b   6.96098831
_cell_length_c   4.82102207
_cell_angle_alpha   89.99999456
_cell_angle_beta   90.00002439
_cell_angle_gamma   119.98301972
_symmetry_Int_Tables_number   1
_chemical_formula_structural   Mn5Si3
_chemical_formula_sum   'Mn10 Si6'
_cell_volume   202.23712317
_cell_formula_units_Z   2
loop_
 _symmetry_equiv_pos_site_id
 _symmetry_equiv_pos_as_xyz
  1  'x, y, z'
loop_
 _atom_site_type_symbol
 _atom_site_label
 _atom_site_symmetry_multiplicity
 _atom_site_fract_x
 _atom_site_fract_y
 _atom_site_fract_z
 _atom_site_occupancy
  Mn  Mn0  1  0.00030676  0.75708828  0.75001391  1
  Mn  Mn1  1  -0.00030676  0.24291172  0.24998609  1
  Mn  Mn2  1  0.75677726  0.75708376  0.24998506  1
  Mn  Mn3  1  0.75757464  -0.00000048  0.75001364  1
  Mn  Mn4  1  0.24322274  0.24291624  0.75001494  1
  Mn  Mn5  1  0.24242536  0.00000048  0.24998636  1
  Mn  Mn6  1  0.33326739  0.66652221  0.49999921  1
  Mn  Mn7  1  0.66673262  0.33347825  -0.00000086  1
  Mn  Mn8  1  0.66673261  0.33347779  0.50000079  1
  Mn  Mn9  1  0.33326738  0.66652175  0.00000086  1
  Si  Si0  1  0.40039129  -0.00000189  0.75000758  1
  Si  Si1  1  0.39982937  0.39993010  0.24998740  1
  Si  Si2  1  -0.00009829  0.60006796  0.24998669  1
  Si  Si3  1  0.00009829  0.39993204  0.75001331  1
  Si  Si4  1  0.60017063  0.60006990  0.75001260  1
  Si  Si5  1  0.59960871  0.00000189  0.24999242  1
loop_
_geom_bond_atom_site_label_1
_geom_bond_atom_site_label_2
_geom_bond_distance
_geom_bond_site_symmetry_2
Mn0 Si0 2.429602 1_565
Mn0 Si4 2.429714 1_455
Mn0 Si3 2.485436 1_555
Mn0 Si2 2.646043 1_556
Mn0 Si2 2.646283 1_555
Mn1 Si5 2.429602 1_455
Mn1 Si1 2.429714 1_555
Mn1 Si2 2.485436 1_555
Mn1 Si3 2.646043 1_554
Mn1 Si3 2.646283 1_555
Mn2 Si5 2.429627 1_565
Mn2 Si2 2.429747 1_655
Mn2 Si1 2.485422 1_555
Mn2 Si4 2.646019 1_554
Mn2 Si4 2.646261 1_555
Mn3 Si4 2.429459 1_545
Mn3 Si3 2.429472 1_655
Mn3 Si0 2.485057 1_555
Mn3 Si5 2.649143 1_556
Mn3 Si5 2.649328 1_555
Mn4 Si0 2.429627 1_555
Mn4 Si3 2.429747 1_555
Mn4 Si4 2.485422 1_555
Mn4 Si1 2.646019 1_556
Mn4 Si1 2.646261 1_555
Mn5 Si1 2.429459 1_555
Mn5 Si2 2.429472 1_545
Mn5 Si5 2.485057 1_555
Mn5 Si0 2.649143 1_554
Mn5 Si0 2.649328 1_555
Mn6 Mn9 2.410503 1_555
Mn6 Mn9 2.410519 1_556
Mn6 Si1 2.443353 1_555
Mn6 Si3 2.443410 1_555
Mn6 Si4 2.444087 1_555
Mn6 Si2 2.444139 1_555
Mn6 Si5 2.444543 1_565
Mn6 Si0 2.444556 1_565
Mn7 Mn8 2.410503 1_554
Mn7 Mn8 2.410519 1_555
Mn7 Si4 2.443290 1_554
Mn7 Si2 2.443345 1_655
Mn7 Si1 2.444026 1_555
Mn7 Si3 2.444078 1_654
Mn7 Si0 2.444508 1_554
Mn7 Si5 2.444522 1_555
Mn8 Si4 2.443353 1_555
Mn8 Si2 2.443410 1_655
Mn8 Si1 2.444087 1_555
Mn8 Si3 2.444139 1_655
Mn8 Si0 2.444543 1_555
Mn8 Si5 2.444556 1_555
Mn9 Si1 2.443290 1_555
Mn9 Si3 2.443345 1_554
Mn9 Si4 2.444026 1_554
Mn9 Si2 2.444078 1_555
Mn9 Si5 2.444508 1_565
Mn9 Si0 2.444522 1_564
