# generated using pymatgen
data_Mn2ZnO4
_symmetry_space_group_name_H-M   'P 1'
_cell_length_a   6.08388035
_cell_length_b   6.08388035
_cell_length_c   20.13315765
_cell_angle_alpha   81.59376542
_cell_angle_beta   81.59376542
_cell_angle_gamma   59.72851362
_symmetry_Int_Tables_number   1
_chemical_formula_structural   Mn2ZnO4
_chemical_formula_sum   'Mn16 Zn8 O32'
_cell_volume   634.37927545
_cell_formula_units_Z   8
loop_
 _symmetry_equiv_pos_site_id
 _symmetry_equiv_pos_as_xyz
  1  'x, y, z'
loop_
 _atom_site_type_symbol
 _atom_site_label
 _atom_site_symmetry_multiplicity
 _atom_site_fract_x
 _atom_site_fract_y
 _atom_site_fract_z
 _atom_site_occupancy
  Mn  Mn0  1  0.37512100  0.87470100  0.87481100  1
  Mn  Mn1  1  0.24898700  0.24898700  0.74984400  1
  Mn  Mn2  1  0.87470100  0.37512100  0.87481100  1
  Mn  Mn3  1  0.35016100  0.35016100  0.46621800  1
  Mn  Mn4  1  0.12579200  0.62620300  0.62509800  1
  Mn  Mn5  1  0.90136600  0.90136600  0.78047300  1
  Mn  Mn6  1  0.09944000  0.09944000  0.21871400  1
  Mn  Mn7  1  0.62620300  0.12579200  0.62509800  1
  Mn  Mn8  1  0.87488300  0.37505800  0.37523900  1
  Mn  Mn9  1  0.65025800  0.65025800  0.53231900  1
  Mn  Mn10  1  0.37505800  0.87488300  0.37523900  1
  Mn  Mn11  1  0.12352500  0.62447300  0.12488200  1
  Mn  Mn12  1  0.62447300  0.12352500  0.12488200  1
  Mn  Mn13  1  0.39990100  0.39990100  0.28349900  1
  Mn  Mn14  1  0.50109300  0.50109300  0.99958400  1
  Mn  Mn15  1  0.15094600  0.15094600  0.03121800  1
  Zn  Zn0  1  0.84969300  0.84969300  0.97012900  1
  Zn  Zn1  1  0.37537800  0.37537800  0.87490800  1
  Zn  Zn2  1  0.60110500  0.60110500  0.71821700  1
  Zn  Zn3  1  0.12568600  0.12568600  0.62335500  1
  Zn  Zn4  1  0.87483600  0.87483600  0.37517400  1
  Zn  Zn5  1  0.99919000  0.99919000  0.50002400  1
  Zn  Zn6  1  0.62464500  0.62464500  0.12672100  1
  Zn  Zn7  1  0.75068000  0.75068000  0.25028200  1
  O  O0  1  0.68307000  0.22568100  0.93658200  1
  O  O1  1  0.56896700  0.56896700  0.82143400  1
  O  O2  1  0.22568100  0.68307000  0.93658200  1
  O  O3  1  0.68149300  0.68149300  0.93703600  1
  O  O4  1  0.07062100  0.07062100  0.81307100  1
  O  O5  1  0.43377800  0.97764200  0.68653000  1
  O  O6  1  0.52072000  0.06749600  0.81317300  1
  O  O7  1  0.31925700  0.31925700  0.57104400  1
  O  O8  1  0.97764200  0.43377800  0.68653000  1
  O  O9  1  0.18062600  0.18062600  0.92701500  1
  O  O10  1  0.42881900  0.42881900  0.68501500  1
  O  O11  1  0.06749600  0.52072000  0.81317300  1
  O  O12  1  0.19048800  0.72195500  0.43169000  1
  O  O13  1  0.81577100  0.81577100  0.57096300  1
  O  O14  1  0.28056200  0.80721700  0.56935200  1
  O  O15  1  0.07040400  0.07040400  0.32098200  1
  O  O16  1  0.72195500  0.19048800  0.43169000  1
  O  O17  1  0.93004100  0.93004100  0.67832200  1
  O  O18  1  0.17994600  0.17994600  0.42990500  1
  O  O19  1  0.80721700  0.28056200  0.56935200  1
  O  O20  1  0.56985500  0.56985500  0.32042900  1
  O  O21  1  0.94278600  0.46833900  0.18071400  1
  O  O22  1  0.02826800  0.55910700  0.31865000  1
  O  O23  1  0.81954800  0.81954800  0.07121200  1
  O  O24  1  0.46833900  0.94278600  0.18071400  1
  O  O25  1  0.67942600  0.67942600  0.42973300  1
  O  O26  1  0.93434000  0.93434000  0.17973400  1
  O  O27  1  0.55910700  0.02826800  0.31865000  1
  O  O28  1  0.32407100  0.32407100  0.06468500  1
  O  O29  1  0.76869100  0.31752600  0.06330100  1
  O  O30  1  0.43030700  0.43030700  0.17869900  1
  O  O31  1  0.31752600  0.76869100  0.06330100  1
loop_
_geom_bond_atom_site_label_1
_geom_bond_atom_site_label_2
_geom_bond_distance
_geom_bond_site_symmetry_2
Mn0 O9 1.989189 1_565
Mn0 O6 2.000244 1_565
Mn0 O1 2.001941 1_555
Mn0 O2 2.011621 1_555
Mn0 O4 2.100382 1_565
Mn0 O3 2.113921 1_555
Mn1 O5 1.984733 1_545
Mn1 O8 1.984733 1_455
Mn1 O11 1.985496 1_555
Mn1 O6 1.985496 1_555
Mn1 O4 2.086865 1_555
Mn1 O10 2.114085 1_555
Mn2 O9 1.989189 1_655
Mn2 O11 2.000244 1_655
Mn2 O1 2.001941 1_555
Mn2 O0 2.011621 1_555
Mn2 O4 2.100382 1_655
Mn2 O3 2.113921 1_555
Mn3 O12 2.016359 1_555
Mn3 O16 2.016359 1_555
Mn3 O18 2.050174 1_555
Mn3 O7 2.080486 1_555
Mn4 O14 1.932393 1_555
Mn4 O17 1.992512 1_455
Mn4 O8 2.006780 1_455
Mn4 O7 2.015109 1_555
Mn4 O13 2.028773 1_455
Mn4 O10 2.071406 1_555
Mn5 O4 2.003902 1_665
Mn5 O17 2.027669 1_555
Mn5 O11 2.051075 1_655
Mn5 O6 2.051075 1_565
Mn6 O21 2.021219 1_455
Mn6 O24 2.021219 1_545
Mn6 O26 2.027776 1_445
Mn6 O15 2.029919 1_555
Mn7 O19 1.932393 1_555
Mn7 O17 1.992512 1_545
Mn7 O5 2.006780 1_545
Mn7 O7 2.015109 1_555
Mn7 O13 2.028773 1_545
Mn7 O10 2.071406 1_555
Mn8 O16 1.946600 1_555
Mn8 O22 1.947376 1_655
Mn8 O15 2.008194 1_655
Mn8 O25 2.009782 1_555
Mn8 O18 2.014718 1_655
Mn8 O20 2.016209 1_555
Mn9 O19 2.019672 1_555
Mn9 O14 2.019672 1_555
Mn9 O13 2.028220 1_555
Mn9 O25 2.036222 1_555
Mn10 O12 1.946600 1_555
Mn10 O27 1.947376 1_565
Mn10 O15 2.008194 1_565
Mn10 O25 2.009782 1_555
Mn10 O18 2.014718 1_565
Mn10 O20 2.016209 1_555
Mn11 O21 1.937639 1_455
Mn11 O23 1.998180 1_455
Mn11 O31 1.999553 1_555
Mn11 O30 2.011756 1_555
Mn11 O26 2.036603 1_455
Mn11 O28 2.065132 1_555
Mn12 O24 1.937639 1_545
Mn12 O23 1.998180 1_545
Mn12 O29 1.999553 1_555
Mn12 O30 2.011756 1_555
Mn12 O26 2.036603 1_545
Mn12 O28 2.065132 1_555
Mn13 O27 2.018830 1_555
Mn13 O22 2.018830 1_555
Mn13 O20 2.053893 1_555
Mn13 O30 2.080050 1_555
Mn14 O29 1.975357 1_556
Mn14 O31 1.975357 1_556
Mn14 O0 1.995678 1_555
Mn14 O2 1.995678 1_555
Mn14 O28 2.093234 1_556
Mn14 O3 2.097905 1_555
Mn15 O28 2.050912 1_555
Mn15 O31 2.056379 1_545
Mn15 O29 2.056379 1_455
Mn15 O9 2.068307 1_554
O0 Zn0 2.031481 1_545
O0 Zn1 2.122643 1_555
O1 Zn2 2.048374 1_555
O1 Zn1 2.142523 1_555
O2 Zn0 2.031481 1_455
O2 Zn1 2.122643 1_555
O3 Zn0 1.998165 1_555
O5 Zn2 2.025473 1_555
O5 Zn3 2.145316 1_565
O6 Zn1 2.127158 1_555
O7 Zn3 2.134469 1_555
O8 Zn2 2.025473 1_555
O8 Zn3 2.145316 1_655
O9 Zn1 2.144016 1_555
O10 Zn2 2.039983 1_555
O11 Zn1 2.127158 1_555
O12 Zn5 2.079264 1_455
O12 Zn4 2.091968 1_455
O13 Zn5 2.203125 1_555
O14 Zn3 2.073585 1_565
O14 Zn5 2.109254 1_455
O15 Zn4 2.165607 1_445
O16 Zn5 2.079264 1_545
O16 Zn4 2.091968 1_545
O17 Zn3 2.171714 1_665
O18 Zn5 2.173256 1_445
O19 Zn3 2.073585 1_655
O19 Zn5 2.109254 1_545
O20 Zn7 2.174098 1_555
O21 Zn6 2.071116 1_555
O21 Zn7 2.116384 1_555
O22 Zn7 2.081177 1_455
O22 Zn4 2.092104 1_455
O23 Zn0 2.006150 1_554
O23 Zn6 2.168802 1_555
O24 Zn6 2.071116 1_555
O24 Zn7 2.116384 1_555
O25 Zn4 2.166710 1_555
O26 Zn7 2.201160 1_555
O27 Zn7 2.081177 1_545
O27 Zn4 2.092104 1_545
O29 Zn6 2.146869 1_555
O30 Zn6 2.139338 1_555
O31 Zn6 2.146869 1_555
