# generated using pymatgen
data_Mn4Hg3Au
_symmetry_space_group_name_H-M   'P 1'
_cell_length_a   6.46202600
_cell_length_b   9.36540000
_cell_length_c   19.08156400
_cell_angle_alpha   90.00000000
_cell_angle_beta   90.00000000
_cell_angle_gamma   90.00000000
_symmetry_Int_Tables_number   1
_chemical_formula_structural   Mn4Hg3Au
_chemical_formula_sum   'Mn32 Hg24 Au8'
_cell_volume   1154.80591680
_cell_formula_units_Z   8
loop_
 _symmetry_equiv_pos_site_id
 _symmetry_equiv_pos_as_xyz
  1  'x, y, z'
loop_
 _atom_site_type_symbol
 _atom_site_label
 _atom_site_symmetry_multiplicity
 _atom_site_fract_x
 _atom_site_fract_y
 _atom_site_fract_z
 _atom_site_occupancy
  Mn  Mn0_0  1  0.25000000  0.25000000  0.05640350  1
  Mn  Mn0_1  1  0.25000000  0.25000000  0.55640350  1
  Mn  Mn0_2  1  0.25000000  0.75000000  0.05640350  1
  Mn  Mn0_3  1  0.25000000  0.75000000  0.55640350  1
  Mn  Mn0_4  1  0.75000000  0.25000000  0.05640350  1
  Mn  Mn0_5  1  0.75000000  0.25000000  0.55640350  1
  Mn  Mn0_6  1  0.75000000  0.75000000  0.05640350  1
  Mn  Mn0_7  1  0.75000000  0.75000000  0.55640350  1
  Mn  Mn1_0  1  0.25000000  0.25000000  0.29661050  1
  Mn  Mn1_1  1  0.25000000  0.25000000  0.79661050  1
  Mn  Mn1_2  1  0.25000000  0.75000000  0.29661050  1
  Mn  Mn1_3  1  0.25000000  0.75000000  0.79661050  1
  Mn  Mn1_4  1  0.75000000  0.25000000  0.29661050  1
  Mn  Mn1_5  1  0.75000000  0.25000000  0.79661050  1
  Mn  Mn1_6  1  0.75000000  0.75000000  0.29661050  1
  Mn  Mn1_7  1  0.75000000  0.75000000  0.79661050  1
  Mn  Mn2_0  1  0.25000000  0.00000000  0.19678450  1
  Mn  Mn2_1  1  0.25000000  0.00000000  0.69678450  1
  Mn  Mn2_2  1  0.25000000  0.50000000  0.19678450  1
  Mn  Mn2_3  1  0.25000000  0.50000000  0.69678450  1
  Mn  Mn2_4  1  0.75000000  0.00000000  0.19678450  1
  Mn  Mn2_5  1  0.75000000  0.00000000  0.69678450  1
  Mn  Mn2_6  1  0.75000000  0.50000000  0.19678450  1
  Mn  Mn2_7  1  0.75000000  0.50000000  0.69678450  1
  Mn  Mn3_0  1  0.25000000  0.00000000  0.44896050  1
  Mn  Mn3_1  1  0.25000000  0.00000000  0.94896050  1
  Mn  Mn3_2  1  0.25000000  0.50000000  0.44896050  1
  Mn  Mn3_3  1  0.25000000  0.50000000  0.94896050  1
  Mn  Mn3_4  1  0.75000000  0.00000000  0.44896050  1
  Mn  Mn3_5  1  0.75000000  0.00000000  0.94896050  1
  Mn  Mn3_6  1  0.75000000  0.50000000  0.44896050  1
  Mn  Mn3_7  1  0.75000000  0.50000000  0.94896050  1
  Hg  Hg0_0  1  0.00000000  0.25000000  0.42809950  1
  Hg  Hg0_1  1  0.00000000  0.25000000  0.92809950  1
  Hg  Hg0_2  1  0.00000000  0.75000000  0.42809950  1
  Hg  Hg0_3  1  0.00000000  0.75000000  0.92809950  1
  Hg  Hg0_4  1  0.50000000  0.25000000  0.42809950  1
  Hg  Hg0_5  1  0.50000000  0.25000000  0.92809950  1
  Hg  Hg0_6  1  0.50000000  0.75000000  0.42809950  1
  Hg  Hg0_7  1  0.50000000  0.75000000  0.92809950  1
  Hg  Hg1_0  1  0.00000000  0.00000000  0.07315700  1
  Hg  Hg1_1  1  0.00000000  0.00000000  0.57315700  1
  Hg  Hg1_2  1  0.00000000  0.50000000  0.07315700  1
  Hg  Hg1_3  1  0.00000000  0.50000000  0.57315700  1
  Hg  Hg1_4  1  0.50000000  0.00000000  0.07315700  1
  Hg  Hg1_5  1  0.50000000  0.00000000  0.57315700  1
  Hg  Hg1_6  1  0.50000000  0.50000000  0.07315700  1
  Hg  Hg1_7  1  0.50000000  0.50000000  0.57315700  1
  Hg  Hg2_0  1  0.00000000  0.00000000  0.32282800  1
  Hg  Hg2_1  1  0.00000000  0.00000000  0.82282800  1
  Hg  Hg2_2  1  0.00000000  0.50000000  0.32282800  1
  Hg  Hg2_3  1  0.00000000  0.50000000  0.82282800  1
  Hg  Hg2_4  1  0.50000000  0.00000000  0.32282800  1
  Hg  Hg2_5  1  0.50000000  0.00000000  0.82282800  1
  Hg  Hg2_6  1  0.50000000  0.50000000  0.32282800  1
  Hg  Hg2_7  1  0.50000000  0.50000000  0.82282800  1
  Au  Au0_0  1  0.00000000  0.25000000  0.17715600  1
  Au  Au0_1  1  0.00000000  0.25000000  0.67715600  1
  Au  Au0_2  1  0.00000000  0.75000000  0.17715600  1
  Au  Au0_3  1  0.00000000  0.75000000  0.67715600  1
  Au  Au0_4  1  0.50000000  0.25000000  0.17715600  1
  Au  Au0_5  1  0.50000000  0.25000000  0.67715600  1
  Au  Au0_6  1  0.50000000  0.75000000  0.17715600  1
  Au  Au0_7  1  0.50000000  0.75000000  0.67715600  1
loop_
_geom_bond_atom_site_label_1
_geom_bond_atom_site_label_2
_geom_bond_distance
_geom_bond_site_symmetry_2
Mn0_0 Mn3_3 3.112099 1_554
Mn0_0 Mn3_1 3.112099 1_554
Mn0_0 Mn0_4 3.231013 1_555
Mn0_0 Mn0_4 3.231013 1_455
Mn0_1 Mn3_2 3.112099 1_555
Mn0_1 Mn3_0 3.112099 1_555
Mn0_1 Mn0_5 3.231013 1_555
Mn0_1 Mn0_5 3.231013 1_455
Mn0_2 Mn3_3 3.112099 1_554
Mn0_2 Mn3_1 3.112099 1_564
Mn0_2 Mn0_6 3.231013 1_555
Mn0_2 Mn0_6 3.231013 1_455
Mn0_3 Mn3_0 3.112099 1_565
Mn0_3 Mn3_2 3.112099 1_555
Mn0_3 Mn0_7 3.231013 1_555
Mn0_3 Mn0_7 3.231013 1_455
Mn0_4 Mn3_5 3.112099 1_554
Mn0_4 Mn3_7 3.112099 1_554
Mn0_5 Mn3_4 3.112099 1_555
Mn0_5 Mn3_6 3.112099 1_555
Mn0_6 Mn3_5 3.112099 1_564
Mn0_6 Mn3_7 3.112099 1_554
Mn0_7 Mn3_4 3.112099 1_565
Mn0_7 Mn3_6 3.112099 1_555
Mn1_0 Mn2_0 3.018331 1_555
Mn1_0 Mn2_2 3.018331 1_555
Mn1_0 Mn1_4 3.231013 1_555
Mn1_0 Mn1_4 3.231013 1_455
Mn1_1 Mn2_3 3.018331 1_555
Mn1_1 Mn2_1 3.018331 1_555
Mn1_1 Mn1_5 3.231013 1_555
Mn1_1 Mn1_5 3.231013 1_455
Mn1_2 Mn2_0 3.018331 1_565
Mn1_2 Mn2_2 3.018331 1_555
Mn1_2 Mn1_6 3.231013 1_555
Mn1_2 Mn1_6 3.231013 1_455
Mn1_3 Mn2_3 3.018331 1_555
Mn1_3 Mn2_1 3.018331 1_565
Mn1_3 Mn1_7 3.231013 1_555
Mn1_3 Mn1_7 3.231013 1_455
Mn1_4 Mn2_4 3.018331 1_555
Mn1_4 Mn2_6 3.018331 1_555
Mn1_5 Mn2_5 3.018331 1_555
Mn1_5 Mn2_7 3.018331 1_555
Mn1_6 Mn2_6 3.018331 1_555
Mn1_6 Mn2_4 3.018331 1_565
Mn1_7 Mn2_5 3.018331 1_565
Mn1_7 Mn2_7 3.018331 1_555
Mn2_0 Mn2_4 3.231013 1_555
Mn2_0 Mn2_4 3.231013 1_455
Mn2_1 Mn2_5 3.231013 1_555
Mn2_1 Mn2_5 3.231013 1_455
Mn2_2 Mn2_6 3.231013 1_555
Mn2_2 Mn2_6 3.231013 1_455
Mn2_3 Mn2_7 3.231013 1_555
Mn2_3 Mn2_7 3.231013 1_455
Mn3_0 Mn3_4 3.231013 1_555
Mn3_0 Mn3_4 3.231013 1_455
Mn3_1 Mn3_5 3.231013 1_555
Mn3_1 Mn3_5 3.231013 1_455
Mn3_2 Mn3_6 3.231013 1_555
Mn3_2 Mn3_6 3.231013 1_455
Mn3_3 Mn3_7 3.231013 1_555
Mn3_3 Mn3_7 3.231013 1_455
Hg0_0 Mn3_2 2.872322 1_555
Hg0_0 Mn3_0 2.872322 1_555
Hg0_0 Mn3_6 2.872322 1_455
Hg0_0 Mn3_4 2.872322 1_455
Hg0_0 Mn0_1 2.933214 1_555
Hg0_0 Mn0_5 2.933214 1_455
Hg0_0 Mn1_0 2.984128 1_555
Hg0_0 Mn1_4 2.984128 1_455
Hg0_0 Hg2_2 3.084960 1_555
Hg0_0 Hg2_0 3.084960 1_555
Hg0_0 Hg0_4 3.231013 1_555
Hg0_0 Hg0_4 3.231013 1_455
Hg0_1 Mn3_3 2.872322 1_555
Hg0_1 Mn3_1 2.872322 1_555
Hg0_1 Mn3_5 2.872322 1_455
Hg0_1 Mn3_7 2.872322 1_455
Hg0_1 Mn0_0 2.933214 1_556
Hg0_1 Mn0_4 2.933214 1_456
Hg0_1 Mn1_1 2.984128 1_555
Hg0_1 Mn1_5 2.984128 1_455
Hg0_1 Hg2_1 3.084960 1_555
Hg0_1 Hg2_3 3.084960 1_555
Hg0_1 Hg0_5 3.231013 1_555
Hg0_1 Hg0_5 3.231013 1_455
Hg0_2 Mn3_0 2.872322 1_565
Hg0_2 Mn3_2 2.872322 1_555
Hg0_2 Mn3_4 2.872322 1_465
Hg0_2 Mn3_6 2.872322 1_455
Hg0_2 Mn0_3 2.933214 1_555
Hg0_2 Mn0_7 2.933214 1_455
Hg0_2 Mn1_2 2.984128 1_555
Hg0_2 Mn1_6 2.984128 1_455
Hg0_2 Hg2_2 3.084960 1_555
Hg0_2 Hg2_0 3.084960 1_565
Hg0_2 Hg0_6 3.231013 1_555
Hg0_2 Hg0_6 3.231013 1_455
Hg0_3 Mn3_3 2.872322 1_555
Hg0_3 Mn3_1 2.872322 1_565
Hg0_3 Mn3_5 2.872322 1_465
Hg0_3 Mn3_7 2.872322 1_455
Hg0_3 Mn0_6 2.933214 1_456
Hg0_3 Mn0_2 2.933214 1_556
Hg0_3 Mn1_3 2.984128 1_555
Hg0_3 Mn1_7 2.984128 1_455
Hg0_3 Hg2_1 3.084960 1_565
Hg0_3 Hg2_3 3.084960 1_555
Hg0_3 Hg0_7 3.231013 1_455
Hg0_3 Hg0_7 3.231013 1_555
Hg0_4 Mn3_4 2.872322 1_555
Hg0_4 Mn3_2 2.872322 1_555
Hg0_4 Mn3_6 2.872322 1_555
Hg0_4 Mn3_0 2.872322 1_555
Hg0_4 Mn0_5 2.933214 1_555
Hg0_4 Mn0_1 2.933214 1_555
Hg0_4 Mn1_4 2.984128 1_555
Hg0_4 Mn1_0 2.984128 1_555
Hg0_4 Hg2_6 3.084960 1_555
Hg0_4 Hg2_4 3.084960 1_555
Hg0_5 Mn3_3 2.872322 1_555
Hg0_5 Mn3_7 2.872322 1_555
Hg0_5 Mn3_1 2.872322 1_555
Hg0_5 Mn3_5 2.872322 1_555
Hg0_5 Mn0_4 2.933214 1_556
Hg0_5 Mn0_0 2.933214 1_556
Hg0_5 Mn1_5 2.984128 1_555
Hg0_5 Mn1_1 2.984128 1_555
Hg0_5 Hg2_5 3.084960 1_555
Hg0_5 Hg2_7 3.084960 1_555
Hg0_6 Mn3_0 2.872322 1_565
Hg0_6 Mn3_2 2.872322 1_555
Hg0_6 Mn3_6 2.872322 1_555
Hg0_6 Mn3_4 2.872322 1_565
Hg0_6 Mn0_7 2.933214 1_555
Hg0_6 Mn0_3 2.933214 1_555
Hg0_6 Mn1_6 2.984128 1_555
Hg0_6 Mn1_2 2.984128 1_555
Hg0_6 Hg2_4 3.084960 1_565
Hg0_6 Hg2_6 3.084960 1_555
Hg0_7 Mn3_3 2.872322 1_555
Hg0_7 Mn3_7 2.872322 1_555
Hg0_7 Mn3_1 2.872322 1_565
Hg0_7 Mn3_5 2.872322 1_565
Hg0_7 Mn0_6 2.933214 1_556
Hg0_7 Mn0_2 2.933214 1_556
Hg0_7 Mn1_7 2.984128 1_555
Hg0_7 Mn1_3 2.984128 1_555
Hg0_7 Hg2_5 3.084960 1_565
Hg0_7 Hg2_7 3.084960 1_555
Hg1_0 Mn2_0 2.859156 1_555
Hg1_0 Mn2_4 2.859156 1_455
Hg1_0 Mn0_0 2.862513 1_555
Hg1_0 Mn0_2 2.862513 1_545
Hg1_0 Mn0_4 2.862513 1_455
Hg1_0 Mn0_6 2.862513 1_445
Hg1_0 Mn3_5 2.868120 1_454
Hg1_0 Mn3_1 2.868120 1_554
Hg1_0 Hg1_4 3.231013 1_455
Hg1_0 Hg1_4 3.231013 1_555
Hg1_1 Mn2_1 2.859156 1_555
Hg1_1 Mn2_5 2.859156 1_455
Hg1_1 Mn0_1 2.862513 1_555
Hg1_1 Mn0_7 2.862513 1_445
Hg1_1 Mn0_3 2.862513 1_545
Hg1_1 Mn0_5 2.862513 1_455
Hg1_1 Mn3_0 2.868120 1_555
Hg1_1 Mn3_4 2.868120 1_455
Hg1_1 Hg1_5 3.231013 1_455
Hg1_1 Hg1_5 3.231013 1_555
Hg1_2 Mn2_2 2.859156 1_555
Hg1_2 Mn2_6 2.859156 1_455
Hg1_2 Mn0_2 2.862513 1_555
Hg1_2 Mn0_6 2.862513 1_455
Hg1_2 Mn0_0 2.862513 1_555
Hg1_2 Mn0_4 2.862513 1_455
Hg1_2 Mn3_7 2.868120 1_454
Hg1_2 Mn3_3 2.868120 1_554
Hg1_2 Hg1_6 3.231013 1_455
Hg1_2 Hg1_6 3.231013 1_555
Hg1_3 Mn2_3 2.859156 1_555
Hg1_3 Mn2_7 2.859156 1_455
Hg1_3 Mn0_1 2.862513 1_555
Hg1_3 Mn0_3 2.862513 1_555
Hg1_3 Mn0_7 2.862513 1_455
Hg1_3 Mn0_5 2.862513 1_455
Hg1_3 Mn3_6 2.868120 1_455
Hg1_3 Mn3_2 2.868120 1_555
Hg1_3 Hg1_7 3.231013 1_455
Hg1_3 Hg1_7 3.231013 1_555
Hg1_4 Mn2_4 2.859156 1_555
Hg1_4 Mn2_0 2.859156 1_555
Hg1_4 Mn0_4 2.862513 1_555
Hg1_4 Mn0_6 2.862513 1_545
Hg1_4 Mn0_0 2.862513 1_555
Hg1_4 Mn0_2 2.862513 1_545
Hg1_4 Mn3_5 2.868120 1_554
Hg1_4 Mn3_1 2.868120 1_554
Hg1_5 Mn2_5 2.859156 1_555
Hg1_5 Mn2_1 2.859156 1_555
Hg1_5 Mn0_5 2.862513 1_555
Hg1_5 Mn0_7 2.862513 1_545
Hg1_5 Mn0_1 2.862513 1_555
Hg1_5 Mn0_3 2.862513 1_545
Hg1_5 Mn3_4 2.868120 1_555
Hg1_5 Mn3_0 2.868120 1_555
Hg1_6 Mn2_6 2.859156 1_555
Hg1_6 Mn2_2 2.859156 1_555
Hg1_6 Mn0_6 2.862513 1_555
Hg1_6 Mn0_4 2.862513 1_555
Hg1_6 Mn0_2 2.862513 1_555
Hg1_6 Mn0_0 2.862513 1_555
Hg1_6 Mn3_7 2.868120 1_554
Hg1_6 Mn3_3 2.868120 1_554
Hg1_7 Mn2_7 2.859156 1_555
Hg1_7 Mn2_3 2.859156 1_555
Hg1_7 Mn0_7 2.862513 1_555
Hg1_7 Mn0_5 2.862513 1_555
Hg1_7 Mn0_1 2.862513 1_555
Hg1_7 Mn0_3 2.862513 1_555
Hg1_7 Mn3_6 2.868120 1_555
Hg1_7 Mn3_2 2.868120 1_555
Hg2_0 Mn1_4 2.888261 1_455
Hg2_0 Mn1_6 2.888261 1_445
Hg2_0 Mn1_2 2.888261 1_545
Hg2_0 Mn1_0 2.888261 1_555
Hg2_0 Mn2_0 2.897309 1_555
Hg2_0 Mn2_4 2.897309 1_455
Hg2_0 Mn3_0 2.898719 1_555
Hg2_0 Mn3_4 2.898719 1_455
Hg2_0 Hg2_4 3.231013 1_455
Hg2_0 Hg2_4 3.231013 1_555
Hg2_1 Mn1_1 2.888261 1_555
Hg2_1 Mn1_3 2.888261 1_545
Hg2_1 Mn1_5 2.888261 1_455
Hg2_1 Mn1_7 2.888261 1_445
Hg2_1 Mn2_1 2.897309 1_555
Hg2_1 Mn2_5 2.897309 1_455
Hg2_1 Mn3_1 2.898719 1_555
Hg2_1 Mn3_5 2.898719 1_455
Hg2_1 Hg2_5 3.231013 1_455
Hg2_1 Hg2_5 3.231013 1_555
Hg2_2 Mn1_4 2.888261 1_455
Hg2_2 Mn1_6 2.888261 1_455
Hg2_2 Mn1_2 2.888261 1_555
Hg2_2 Mn1_0 2.888261 1_555
Hg2_2 Mn2_2 2.897309 1_555
Hg2_2 Mn2_6 2.897309 1_455
Hg2_2 Mn3_2 2.898719 1_555
Hg2_2 Mn3_6 2.898719 1_455
Hg2_2 Hg2_6 3.231013 1_555
Hg2_2 Hg2_6 3.231013 1_455
Hg2_3 Mn1_3 2.888261 1_555
Hg2_3 Mn1_1 2.888261 1_555
Hg2_3 Mn1_5 2.888261 1_455
Hg2_3 Mn1_7 2.888261 1_455
Hg2_3 Mn2_3 2.897309 1_555
Hg2_3 Mn2_7 2.897309 1_455
Hg2_3 Mn3_3 2.898719 1_555
Hg2_3 Mn3_7 2.898719 1_455
Hg2_3 Hg2_7 3.231013 1_555
Hg2_3 Hg2_7 3.231013 1_455
Hg2_4 Mn1_6 2.888261 1_545
Hg2_4 Mn1_4 2.888261 1_555
Hg2_4 Mn1_2 2.888261 1_545
Hg2_4 Mn1_0 2.888261 1_555
Hg2_4 Mn2_4 2.897309 1_555
Hg2_4 Mn2_0 2.897309 1_555
Hg2_4 Mn3_4 2.898719 1_555
Hg2_4 Mn3_0 2.898719 1_555
Hg2_5 Mn1_5 2.888261 1_555
Hg2_5 Mn1_7 2.888261 1_545
Hg2_5 Mn1_1 2.888261 1_555
Hg2_5 Mn1_3 2.888261 1_545
Hg2_5 Mn2_5 2.897309 1_555
Hg2_5 Mn2_1 2.897309 1_555
Hg2_5 Mn3_5 2.898719 1_555
Hg2_5 Mn3_1 2.898719 1_555
Hg2_6 Mn1_6 2.888261 1_555
Hg2_6 Mn1_4 2.888261 1_555
Hg2_6 Mn1_2 2.888261 1_555
Hg2_6 Mn1_0 2.888261 1_555
Hg2_6 Mn2_6 2.897309 1_555
Hg2_6 Mn2_2 2.897309 1_555
Hg2_6 Mn3_6 2.898719 1_555
Hg2_6 Mn3_2 2.898719 1_555
Hg2_7 Mn1_7 2.888261 1_555
Hg2_7 Mn1_5 2.888261 1_555
Hg2_7 Mn1_3 2.888261 1_555
Hg2_7 Mn1_1 2.888261 1_555
Hg2_7 Mn2_7 2.897309 1_555
Hg2_7 Mn2_3 2.897309 1_555
Hg2_7 Mn3_7 2.898719 1_555
Hg2_7 Mn3_3 2.898719 1_555
Au0_0 Mn1_0 2.793820 1_555
Au0_0 Mn1_4 2.793820 1_455
Au0_0 Mn0_0 2.814063 1_555
Au0_0 Mn0_4 2.814063 1_455
Au0_0 Mn2_6 2.869157 1_455
Au0_0 Mn2_2 2.869157 1_555
Au0_0 Mn2_0 2.869157 1_555
Au0_0 Mn2_4 2.869157 1_455
Au0_0 Hg1_0 3.069204 1_555
Au0_0 Hg1_2 3.069204 1_555
Au0_0 Au0_4 3.231013 1_455
Au0_0 Au0_4 3.231013 1_555
Au0_1 Mn1_1 2.793820 1_555
Au0_1 Mn1_5 2.793820 1_455
Au0_1 Mn0_1 2.814063 1_555
Au0_1 Mn0_5 2.814063 1_455
Au0_1 Mn2_1 2.869157 1_555
Au0_1 Mn2_5 2.869157 1_455
Au0_1 Mn2_7 2.869157 1_455
Au0_1 Mn2_3 2.869157 1_555
Au0_1 Hg1_1 3.069204 1_555
Au0_1 Hg1_3 3.069204 1_555
Au0_1 Au0_5 3.231013 1_555
Au0_1 Au0_5 3.231013 1_455
Au0_2 Mn1_2 2.793820 1_555
Au0_2 Mn1_6 2.793820 1_455
Au0_2 Mn0_2 2.814063 1_555
Au0_2 Mn0_6 2.814063 1_455
Au0_2 Mn2_0 2.869157 1_565
Au0_2 Mn2_4 2.869157 1_465
Au0_2 Mn2_6 2.869157 1_455
Au0_2 Mn2_2 2.869157 1_555
Au0_2 Hg1_0 3.069204 1_565
Au0_2 Hg1_2 3.069204 1_555
Au0_2 Au0_6 3.231013 1_555
Au0_2 Au0_6 3.231013 1_455
Au0_3 Mn1_3 2.793820 1_555
Au0_3 Mn1_7 2.793820 1_455
Au0_3 Mn0_3 2.814063 1_555
Au0_3 Mn0_7 2.814063 1_455
Au0_3 Mn2_1 2.869157 1_565
Au0_3 Mn2_5 2.869157 1_465
Au0_3 Mn2_7 2.869157 1_455
Au0_3 Mn2_3 2.869157 1_555
Au0_3 Hg1_1 3.069204 1_565
Au0_3 Hg1_3 3.069204 1_555
Au0_3 Au0_7 3.231013 1_555
Au0_3 Au0_7 3.231013 1_455
Au0_4 Mn1_4 2.793820 1_555
Au0_4 Mn1_0 2.793820 1_555
Au0_4 Mn0_4 2.814063 1_555
Au0_4 Mn0_0 2.814063 1_555
Au0_4 Mn2_6 2.869157 1_555
Au0_4 Mn2_4 2.869157 1_555
Au0_4 Mn2_2 2.869157 1_555
Au0_4 Mn2_0 2.869157 1_555
Au0_4 Hg1_4 3.069204 1_555
Au0_4 Hg1_6 3.069204 1_555
Au0_5 Mn1_1 2.793820 1_555
Au0_5 Mn1_5 2.793820 1_555
Au0_5 Mn0_5 2.814063 1_555
Au0_5 Mn0_1 2.814063 1_555
Au0_5 Mn2_7 2.869157 1_555
Au0_5 Mn2_5 2.869157 1_555
Au0_5 Mn2_1 2.869157 1_555
Au0_5 Mn2_3 2.869157 1_555
Au0_5 Hg1_7 3.069204 1_555
Au0_5 Hg1_5 3.069204 1_555
Au0_6 Mn1_6 2.793820 1_555
Au0_6 Mn1_2 2.793820 1_555
Au0_6 Mn0_6 2.814063 1_555
Au0_6 Mn0_2 2.814063 1_555
Au0_6 Mn2_4 2.869157 1_565
Au0_6 Mn2_6 2.869157 1_555
Au0_6 Mn2_0 2.869157 1_565
Au0_6 Mn2_2 2.869157 1_555
Au0_6 Hg1_4 3.069204 1_565
Au0_6 Hg1_6 3.069204 1_555
Au0_7 Mn1_3 2.793820 1_555
Au0_7 Mn1_7 2.793820 1_555
Au0_7 Mn0_7 2.814063 1_555
Au0_7 Mn0_3 2.814063 1_555
Au0_7 Mn2_5 2.869157 1_565
Au0_7 Mn2_7 2.869157 1_555
Au0_7 Mn2_1 2.869157 1_565
Au0_7 Mn2_3 2.869157 1_555
Au0_7 Hg1_7 3.069204 1_555
Au0_7 Hg1_5 3.069204 1_565
