# generated using pymatgen
data_NpF3
_symmetry_space_group_name_H-M   'P 1'
_cell_length_a   4.12204955
_cell_length_b   4.12204855
_cell_length_c   7.30073198
_cell_angle_alpha   90.00000000
_cell_angle_beta   90.00000000
_cell_angle_gamma   119.99999961
_symmetry_Int_Tables_number   1
_chemical_formula_structural   NpF3
_chemical_formula_sum   'Np2 F6'
_cell_volume   107.42944927
_cell_formula_units_Z   2
loop_
 _symmetry_equiv_pos_site_id
 _symmetry_equiv_pos_as_xyz
  1  'x, y, z'
loop_
 _atom_site_type_symbol
 _atom_site_label
 _atom_site_symmetry_multiplicity
 _atom_site_fract_x
 _atom_site_fract_y
 _atom_site_fract_z
 _atom_site_occupancy
  Np  Np0  1  0.66666700  0.33333300  0.75000000  1
  Np  Np1  1  0.33333300  0.66666700  0.25000000  1
  F  F0  1  0.66666700  0.33333300  0.41930516  1
  F  F1  1  0.66666700  0.33333300  0.08069484  1
  F  F2  1  0.00000000  -0.00000000  0.25000000  1
  F  F3  1  0.00000000  -0.00000000  0.75000000  1
  F  F4  1  0.33333300  0.66666700  0.92042968  1
  F  F5  1  0.33333300  0.66666700  0.57957032  1
loop_
_geom_bond_atom_site_label_1
_geom_bond_atom_site_label_2
_geom_bond_distance
_geom_bond_site_symmetry_2
F0 Np0 2.414314 1_555
F0 Np1 2.681711 1_545
F0 Np1 2.681711 1_655
F0 Np1 2.681718 1_555
F1 Np0 2.414314 1_554
F1 Np1 2.681711 1_545
F1 Np1 2.681711 1_655
F1 Np1 2.681718 1_555
F2 Np1 2.379864 1_545
F2 Np1 2.379867 1_555
F2 Np1 2.379868 1_445
F3 Np0 2.379864 1_455
F3 Np0 2.379867 1_445
F3 Np0 2.379868 1_555
F4 Np1 2.406105 1_556
F4 Np0 2.685505 1_565
F4 Np0 2.685505 1_455
F4 Np0 2.685511 1_555
F5 Np1 2.406105 1_555
F5 Np0 2.685505 1_565
F5 Np0 2.685505 1_455
F5 Np0 2.685511 1_555
