# generated using pymatgen
data_BaCaTbSnO6
_symmetry_space_group_name_H-M   'P 1'
_cell_length_a   6.05340373
_cell_length_b   6.05340373
_cell_length_c   6.05340373
_cell_angle_alpha   60.00000000
_cell_angle_beta   60.00000000
_cell_angle_gamma   60.00000000
_symmetry_Int_Tables_number   1
_chemical_formula_structural   BaCaTbSnO6
_chemical_formula_sum   'Ba1 Ca1 Tb1 Sn1 O6'
_cell_volume   156.84978337
_cell_formula_units_Z   1
loop_
 _symmetry_equiv_pos_site_id
 _symmetry_equiv_pos_as_xyz
  1  'x, y, z'
loop_
 _atom_site_type_symbol
 _atom_site_label
 _atom_site_symmetry_multiplicity
 _atom_site_fract_x
 _atom_site_fract_y
 _atom_site_fract_z
 _atom_site_occupancy
  Ba  Ba0  1  0.75000000  0.75000000  0.75000000  1
  Ca  Ca0  1  0.25000000  0.25000000  0.25000000  1
  Tb  Tb0  1  0.50000000  0.50000000  0.50000000  1
  Sn  Sn0  1  -0.00000000  0.00000000  0.00000000  1
  O  O0  1  0.75932397  0.24067603  0.24067603  1
  O  O1  1  0.24067603  0.75932397  0.75932397  1
  O  O2  1  0.75932397  0.24067603  0.75932397  1
  O  O3  1  0.24067603  0.75932397  0.24067603  1
  O  O4  1  0.75932397  0.75932397  0.24067603  1
  O  O5  1  0.24067603  0.24067603  0.75932397  1
loop_
_geom_bond_atom_site_label_1
_geom_bond_atom_site_label_2
_geom_bond_distance
_geom_bond_site_symmetry_2
Ba0 O2 3.027754 1_555
Ba0 O4 3.027754 1_555
Ba0 O1 3.027754 1_555
Ba0 O0 3.027754 1_565
Ba0 O3 3.027754 1_655
Ba0 O5 3.027754 1_655
Ba0 O5 3.027754 1_565
Ba0 O3 3.027754 1_556
Ba0 O0 3.027754 1_556
Ba0 O2 3.027754 1_565
Ba0 O4 3.027754 1_556
Ba0 O1 3.027754 1_655
Ca0 O5 3.027754 1_554
Ca0 O0 3.027754 1_455
Ca0 O3 3.027754 1_545
Ca0 O1 3.027754 1_554
Ca0 O2 3.027754 1_554
Ca0 O4 3.027754 1_545
Ca0 O1 3.027754 1_545
Ca0 O4 3.027754 1_455
Ca0 O2 3.027754 1_455
Ca0 O5 3.027754 1_555
Ca0 O3 3.027754 1_555
Ca0 O0 3.027754 1_555
O0 Sn0 2.060381 1_655
O0 Tb0 2.220022 1_555
O1 Sn0 2.060381 1_566
O1 Tb0 2.220022 1_555
O2 Sn0 2.060381 1_656
O2 Tb0 2.220022 1_555
O3 Sn0 2.060381 1_565
O3 Tb0 2.220022 1_555
O4 Sn0 2.060381 1_665
O4 Tb0 2.220022 1_555
O5 Sn0 2.060381 1_556
O5 Tb0 2.220022 1_555
