# generated using pymatgen
data_CsNbN2
_symmetry_space_group_name_H-M   'P 1'
_cell_length_a   6.27071500
_cell_length_b   12.62395100
_cell_length_c   17.71299200
_cell_angle_alpha   90.00000000
_cell_angle_beta   90.00000000
_cell_angle_gamma   90.00000000
_symmetry_Int_Tables_number   1
_chemical_formula_structural   CsNbN2
_chemical_formula_sum   'Cs16 Nb16 N32'
_cell_volume   1402.18168274
_cell_formula_units_Z   16
loop_
 _symmetry_equiv_pos_site_id
 _symmetry_equiv_pos_as_xyz
  1  'x, y, z'
loop_
 _atom_site_type_symbol
 _atom_site_label
 _atom_site_symmetry_multiplicity
 _atom_site_fract_x
 _atom_site_fract_y
 _atom_site_fract_z
 _atom_site_occupancy
  Cs  Cs0  1  0.24806200  0.99938500  0.43711600  1
  Cs  Cs1  1  0.74806200  0.50061500  0.56288400  1
  Cs  Cs2  1  0.75193800  0.49938500  0.06288400  1
  Cs  Cs3  1  0.25193800  0.00061500  0.93711600  1
  Cs  Cs4  1  0.75193800  0.00061500  0.56288400  1
  Cs  Cs5  1  0.25193800  0.49938500  0.43711600  1
  Cs  Cs6  1  0.24806200  0.50061500  0.93711600  1
  Cs  Cs7  1  0.74806200  0.99938500  0.06288400  1
  Cs  Cs8  1  0.28976500  0.25184200  0.31236800  1
  Cs  Cs9  1  0.78976500  0.24815800  0.68763200  1
  Cs  Cs10  1  0.71023500  0.75184200  0.18763200  1
  Cs  Cs11  1  0.21023500  0.74815800  0.81236800  1
  Cs  Cs12  1  0.71023500  0.74815800  0.68763200  1
  Cs  Cs13  1  0.21023500  0.75184200  0.31236800  1
  Cs  Cs14  1  0.28976500  0.24815800  0.81236800  1
  Cs  Cs15  1  0.78976500  0.25184200  0.18763200  1
  Nb  Nb0  1  0.74680200  0.00341300  0.31248500  1
  Nb  Nb1  1  0.24680200  0.49658700  0.68751500  1
  Nb  Nb2  1  0.25319800  0.50341300  0.18751500  1
  Nb  Nb3  1  0.75319800  0.99658700  0.81248500  1
  Nb  Nb4  1  0.25319800  0.99658700  0.68751500  1
  Nb  Nb5  1  0.75319800  0.50341300  0.31248500  1
  Nb  Nb6  1  0.74680200  0.49658700  0.81248500  1
  Nb  Nb7  1  0.24680200  0.00341300  0.18751500  1
  Nb  Nb8  1  0.77719600  0.25581700  0.43807200  1
  Nb  Nb9  1  0.27719600  0.24418300  0.56192800  1
  Nb  Nb10  1  0.22280400  0.75581700  0.06192800  1
  Nb  Nb11  1  0.72280400  0.74418300  0.93807200  1
  Nb  Nb12  1  0.22280400  0.74418300  0.56192800  1
  Nb  Nb13  1  0.72280400  0.75581700  0.43807200  1
  Nb  Nb14  1  0.77719600  0.24418300  0.93807200  1
  Nb  Nb15  1  0.27719600  0.25581700  0.06192800  1
  N  N0  1  0.06140100  0.26595900  0.48317200  1
  N  N1  1  0.56140100  0.23404100  0.51682800  1
  N  N2  1  0.93859900  0.76595900  0.01682800  1
  N  N3  1  0.43859900  0.73404100  0.98317200  1
  N  N4  1  0.93859900  0.73404100  0.51682800  1
  N  N5  1  0.43859900  0.76595900  0.48317200  1
  N  N6  1  0.06140100  0.23404100  0.98317200  1
  N  N7  1  0.56140100  0.26595900  0.01682800  1
  N  N8  1  0.71402800  0.38780200  0.38485300  1
  N  N9  1  0.21402800  0.11219800  0.61514700  1
  N  N10  1  0.28597200  0.88780200  0.11514700  1
  N  N11  1  0.78597200  0.61219800  0.88485300  1
  N  N12  1  0.28597200  0.61219800  0.61514700  1
  N  N13  1  0.78597200  0.88780200  0.38485300  1
  N  N14  1  0.71402800  0.11219800  0.88485300  1
  N  N15  1  0.21402800  0.38780200  0.11514700  1
  N  N16  1  0.77145100  0.13877600  0.36554400  1
  N  N17  1  0.27145100  0.36122400  0.63445600  1
  N  N18  1  0.22854900  0.63877600  0.13445600  1
  N  N19  1  0.72854900  0.86122400  0.86554400  1
  N  N20  1  0.22854900  0.86122400  0.63445600  1
  N  N21  1  0.72854900  0.63877600  0.36554400  1
  N  N22  1  0.77145100  0.36122400  0.86554400  1
  N  N23  1  0.27145100  0.13877600  0.13445600  1
  N  N24  1  0.53603300  0.49356500  0.23345500  1
  N  N25  1  0.03603300  0.00643500  0.76654500  1
  N  N26  1  0.46396700  0.99356500  0.26654500  1
  N  N27  1  0.96396700  0.50643500  0.73345500  1
  N  N28  1  0.46396700  0.50643500  0.76654500  1
  N  N29  1  0.96396700  0.99356500  0.23345500  1
  N  N30  1  0.53603300  0.00643500  0.73345500  1
  N  N31  1  0.03603300  0.49356500  0.26654500  1
loop_
_geom_bond_atom_site_label_1
_geom_bond_atom_site_label_2
_geom_bond_distance
_geom_bond_site_symmetry_2
Cs0 N5 3.282751 1_555
Cs0 N26 3.311612 1_555
Cs0 N13 3.352234 1_455
Cs0 N9 3.466707 1_565
Cs1 N4 3.282751 1_555
Cs1 N27 3.311612 1_555
Cs1 N12 3.352234 1_555
Cs1 N8 3.466707 1_555
Cs2 N7 3.282751 1_555
Cs2 N24 3.311612 1_555
Cs2 N15 3.352234 1_655
Cs2 N11 3.466707 1_554
Cs3 N6 3.282751 1_555
Cs3 N25 3.311612 1_555
Cs3 N14 3.352234 1_555
Cs3 N10 3.466707 1_546
Cs4 N1 3.282751 1_555
Cs4 N30 3.311612 1_555
Cs4 N9 3.352234 1_655
Cs4 N13 3.466707 1_545
Cs5 N0 3.282751 1_555
Cs5 N31 3.311612 1_555
Cs5 N8 3.352234 1_555
Cs5 N12 3.466707 1_555
Cs6 N3 3.282751 1_555
Cs6 N28 3.311612 1_555
Cs6 N11 3.352234 1_455
Cs6 N15 3.466707 1_556
Cs7 N2 3.282751 1_555
Cs7 N29 3.311612 1_555
Cs7 N10 3.352234 1_555
Cs7 N14 3.466707 1_564
Cs8 N0 3.351977 1_555
Cs8 N8 3.416465 1_555
Cs8 N23 3.461433 1_555
Cs8 N16 3.471023 1_555
Cs8 N26 3.533097 1_545
Cs8 N31 3.535814 1_555
Cs8 N16 3.672640 1_455
Cs8 N24 3.694623 1_555
Cs9 N1 3.351977 1_555
Cs9 N9 3.416465 1_655
Cs9 N22 3.461433 1_555
Cs9 N17 3.471023 1_655
Cs9 N27 3.533097 1_555
Cs9 N30 3.535814 1_555
Cs9 N17 3.672640 1_555
Cs9 N25 3.694623 1_655
Cs10 N2 3.351977 1_555
Cs10 N10 3.416465 1_555
Cs10 N21 3.461433 1_555
Cs10 N18 3.471023 1_555
Cs10 N24 3.533097 1_555
Cs10 N29 3.535814 1_555
Cs10 N18 3.672640 1_655
Cs10 N26 3.694623 1_555
Cs11 N3 3.351977 1_555
Cs11 N11 3.416465 1_455
Cs11 N20 3.461433 1_555
Cs11 N19 3.471023 1_455
Cs11 N25 3.533097 1_565
Cs11 N28 3.535814 1_555
Cs11 N19 3.672640 1_555
Cs11 N27 3.694623 1_455
Cs12 N4 3.351977 1_555
Cs12 N12 3.416465 1_555
Cs12 N19 3.461433 1_555
Cs12 N20 3.471023 1_555
Cs12 N30 3.533097 1_565
Cs12 N27 3.535814 1_555
Cs12 N20 3.672640 1_655
Cs12 N28 3.694623 1_555
Cs13 N5 3.351977 1_555
Cs13 N13 3.416465 1_455
Cs13 N18 3.461433 1_555
Cs13 N21 3.471023 1_455
Cs13 N31 3.533097 1_555
Cs13 N26 3.535814 1_555
Cs13 N21 3.672640 1_555
Cs13 N29 3.694623 1_455
Cs14 N6 3.351977 1_555
Cs14 N14 3.416465 1_555
Cs14 N17 3.461433 1_555
Cs14 N22 3.471023 1_555
Cs14 N28 3.533097 1_555
Cs14 N25 3.535814 1_555
Cs14 N22 3.672640 1_455
Cs14 N30 3.694623 1_555
Cs15 N7 3.351977 1_555
Cs15 N15 3.416465 1_655
Cs15 N16 3.461433 1_555
Cs15 N23 3.471023 1_655
Cs15 N29 3.533097 1_545
Cs15 N24 3.535814 1_555
Cs15 N23 3.672640 1_555
Cs15 N31 3.694623 1_655
N0 Nb8 1.957214 1_455
N0 Nb9 1.962837 1_555
N1 Nb9 1.957214 1_555
N1 Nb8 1.962837 1_555
N2 Nb10 1.957214 1_655
N2 Nb11 1.962837 1_554
N3 Nb11 1.957214 1_555
N3 Nb10 1.962837 1_556
N4 Nb12 1.957214 1_655
N4 Nb13 1.962837 1_555
N5 Nb13 1.957214 1_555
N5 Nb12 1.962837 1_555
N6 Nb14 1.957214 1_455
N6 Nb15 1.962837 1_556
N7 Nb15 1.957214 1_555
N7 Nb14 1.962837 1_554
N8 Nb8 1.954905 1_555
N8 Nb5 1.957939 1_555
N9 Nb9 1.954905 1_555
N9 Nb4 1.957939 1_545
N10 Nb10 1.954905 1_555
N10 Nb7 1.957939 1_565
N11 Nb11 1.954905 1_555
N11 Nb6 1.957939 1_555
N12 Nb12 1.954905 1_555
N12 Nb1 1.957939 1_555
N13 Nb13 1.954905 1_555
N13 Nb0 1.957939 1_565
N14 Nb14 1.954905 1_555
N14 Nb3 1.957939 1_545
N15 Nb15 1.954905 1_555
N15 Nb2 1.957939 1_555
N16 Nb0 1.956331 1_555
N16 Nb8 1.958261 1_555
N17 Nb1 1.956331 1_555
N17 Nb9 1.958261 1_555
N18 Nb2 1.956331 1_555
N18 Nb10 1.958261 1_555
N19 Nb3 1.956331 1_555
N19 Nb11 1.958261 1_555
N20 Nb4 1.956331 1_555
N20 Nb12 1.958261 1_555
N21 Nb5 1.956331 1_555
N21 Nb13 1.958261 1_555
N22 Nb6 1.956331 1_555
N22 Nb14 1.958261 1_555
N23 Nb7 1.956331 1_555
N23 Nb15 1.958261 1_555
N24 Nb2 1.955300 1_555
N24 Nb5 1.956911 1_555
N25 Nb3 1.955300 1_445
N25 Nb4 1.956911 1_545
N26 Nb0 1.955300 1_565
N26 Nb7 1.956911 1_565
N27 Nb1 1.955300 1_655
N27 Nb6 1.956911 1_555
N28 Nb6 1.955300 1_555
N28 Nb1 1.956911 1_555
N29 Nb7 1.955300 1_665
N29 Nb0 1.956911 1_565
N30 Nb4 1.955300 1_545
N30 Nb3 1.956911 1_545
N31 Nb5 1.955300 1_455
N31 Nb2 1.956911 1_555
