# generated using pymatgen
data_Sr4Y2Mg(RuO6)2
_symmetry_space_group_name_H-M   'P 1'
_cell_length_a   5.81391975
_cell_length_b   6.11725025
_cell_length_c   8.36478090
_cell_angle_alpha   87.33906890
_cell_angle_beta   92.17180325
_cell_angle_gamma   92.07188283
_symmetry_Int_Tables_number   1
_chemical_formula_structural   Sr4Y2Mg(RuO6)2
_chemical_formula_sum   'Sr4 Y2 Mg1 Ru2 O12'
_cell_volume   296.78455957
_cell_formula_units_Z   1
loop_
 _symmetry_equiv_pos_site_id
 _symmetry_equiv_pos_as_xyz
  1  'x, y, z'
loop_
 _atom_site_type_symbol
 _atom_site_label
 _atom_site_symmetry_multiplicity
 _atom_site_fract_x
 _atom_site_fract_y
 _atom_site_fract_z
 _atom_site_occupancy
  Sr  Sr0  1  0.51161900  0.55290700  0.26493800  1
  Sr  Sr1  1  0.99347100  0.07468900  0.25751300  1
  Sr  Sr2  1  0.04791500  0.87981700  0.69452200  1
  Sr  Sr3  1  0.43597400  0.43704600  0.75647500  1
  Y  Y0  1  0.51578100  0.99768100  0.49580800  1
  Y  Y1  1  0.98326400  0.57548000  0.02271800  1
  Mg  Mg0  1  0.86379500  0.19175300  0.87190200  1
  Ru  Ru0  1  0.47767400  0.00962900  0.00296300  1
  Ru  Ru1  1  0.00463200  0.48318400  0.49691000  1
  O  O0  1  0.92460800  0.48468100  0.74937600  1
  O  O1  1  0.59953200  0.04339300  0.76369300  1
  O  O2  1  0.08411900  0.48834100  0.26542100  1
  O  O3  1  0.41341800  0.97760400  0.23193300  1
  O  O4  1  0.80945800  0.76483800  0.45692200  1
  O  O5  1  0.68377100  0.30911700  0.04064200  1
  O  O6  1  0.20360000  0.20867700  0.53386100  1
  O  O7  1  0.30850700  0.73026400  0.94715800  1
  O  O8  1  0.18740500  0.17904900  0.94813300  1
  O  O9  1  0.29228900  0.68431100  0.53451200  1
  O  O10  1  0.77910800  0.85493200  0.04250700  1
  O  O11  1  0.73422600  0.29135800  0.45021800  1
loop_
_geom_bond_atom_site_label_1
_geom_bond_atom_site_label_2
_geom_bond_distance
_geom_bond_site_symmetry_2
Mg0 O5 1.965594 1_556
Mg0 O8 1.966599 1_655
Mg0 O1 1.968129 1_555
Mg0 O0 2.048785 1_555
Mg0 O10 2.496231 1_546
Mg0 Sr2 2.742177 1_645
O0 Ru1 2.180117 1_655
O0 Y1 2.387000 1_556
O0 Sr2 2.522643 1_655
O0 Sr3 2.847868 1_555
O0 Sr3 2.995841 1_655
O1 Ru0 2.146827 1_556
O1 Y0 2.302630 1_545
O1 Sr3 2.618095 1_555
O1 Sr2 2.913498 1_645
O2 Ru1 2.006272 1_555
O2 Y1 2.140420 1_455
O2 Sr0 2.502621 1_555
O2 Sr1 2.569356 1_455
O3 Ru0 1.964778 1_565
O3 Y0 2.271909 1_555
O3 Sr1 2.552615 1_465
O3 Sr0 2.679623 1_555
O4 Ru1 2.104073 1_655
O4 Y0 2.304522 1_555
O4 Sr2 2.493437 1_655
O4 Sr0 2.660522 1_555
O4 Sr1 2.685994 1_565
O5 Ru0 2.181224 1_555
O5 Y1 2.345482 1_555
O5 Sr0 2.693684 1_555
O5 Sr3 2.826184 1_554
O5 Sr1 2.878722 1_555
O6 Ru1 2.078137 1_555
O6 Y0 2.304950 1_545
O6 Sr2 2.526232 1_545
O6 Sr3 2.675570 1_555
O6 Sr1 2.719784 1_455
O7 Ru0 2.005855 1_566
O7 Y1 2.185682 1_456
O7 Sr3 2.600377 1_555
O7 Sr2 2.697447 1_555
O7 Sr0 3.037158 1_556
O8 Ru0 2.038653 1_556
O8 Sr3 2.631584 1_555
O8 Y1 2.843157 1_456
O8 Sr1 2.896853 1_456
O8 Sr2 2.937942 1_545
O9 Ru1 2.063233 1_555
O9 Y0 2.293919 1_555
O9 Sr2 2.378229 1_555
O9 Sr3 2.479120 1_555
O9 Sr0 2.795933 1_555
O10 Ru0 2.030555 1_565
O10 Y1 2.132237 1_555
O10 Sr1 2.555071 1_565
O10 Sr0 2.997693 1_555
O11 Ru1 1.965631 1_655
O11 Y0 2.189498 1_545
O11 Sr0 2.530672 1_555
O11 Sr1 2.674654 1_555
