# generated using pymatgen
data_CaSeO4
_symmetry_space_group_name_H-M   'P 1'
_cell_length_a   5.06532739
_cell_length_b   5.06532739
_cell_length_c   6.82544432
_cell_angle_alpha   111.78113459
_cell_angle_beta   111.78113459
_cell_angle_gamma   90.00000000
_symmetry_Int_Tables_number   1
_chemical_formula_structural   CaSeO4
_chemical_formula_sum   'Ca2 Se2 O8'
_cell_volume   149.07433372
_cell_formula_units_Z   2
loop_
 _symmetry_equiv_pos_site_id
 _symmetry_equiv_pos_as_xyz
  1  'x, y, z'
loop_
 _atom_site_type_symbol
 _atom_site_label
 _atom_site_symmetry_multiplicity
 _atom_site_fract_x
 _atom_site_fract_y
 _atom_site_fract_z
 _atom_site_occupancy
  Ca  Ca0  1  0.62500000  0.87500000  0.25000000  1
  Ca  Ca1  1  0.37500000  0.12500000  0.75000000  1
  Se  Se0  1  0.12500000  0.37500000  0.25000000  1
  Se  Se1  1  0.87500000  0.62500000  0.75000000  1
  O  O0  1  0.28974295  0.43054475  0.09654581  1
  O  O1  1  0.80680186  0.16600206  0.09654581  1
  O  O2  1  0.93054475  0.30680186  0.59654581  1
  O  O3  1  0.66600206  0.78974295  0.59654581  1
  O  O4  1  0.71025705  0.56945525  0.90345419  1
  O  O5  1  0.19319814  0.83399794  0.90345419  1
  O  O6  1  0.06945525  0.69319814  0.40345419  1
  O  O7  1  0.33399794  0.21025705  0.40345419  1
loop_
_geom_bond_atom_site_label_1
_geom_bond_atom_site_label_2
_geom_bond_distance
_geom_bond_site_symmetry_2
Ca0 O6 2.445267 1_655
Ca0 O0 2.445270 1_555
Ca0 O1 2.445271 1_565
Ca0 O7 2.445274 1_565
Ca0 O5 2.493571 1_554
Ca0 O2 2.493572 1_565
Ca0 O3 2.493574 1_555
Ca0 O4 2.493575 1_554
Ca1 O2 2.445267 1_455
Ca1 O4 2.445270 1_555
Ca1 O5 2.445271 1_545
Ca1 O3 2.445274 1_545
Ca1 O1 2.493571 1_556
Ca1 O6 2.493572 1_545
Ca1 O7 2.493574 1_555
Ca1 O0 2.493575 1_556
O0 Se0 1.655256 1_555
O1 Se0 1.655258 1_655
O2 Se1 1.655260 1_555
O3 Se1 1.655254 1_555
O4 Se1 1.655256 1_555
O5 Se1 1.655258 1_455
O6 Se0 1.655260 1_555
O7 Se0 1.655254 1_555
