# generated using pymatgen
data_ZnCo(SiO3)2
_symmetry_space_group_name_H-M   'P 1'
_cell_length_a   5.29029300
_cell_length_b   9.11514400
_cell_length_c   18.50860600
_cell_angle_alpha   90.00000000
_cell_angle_beta   90.00000000
_cell_angle_gamma   90.00000000
_symmetry_Int_Tables_number   1
_chemical_formula_structural   ZnCo(SiO3)2
_chemical_formula_sum   'Zn8 Co8 Si16 O48'
_cell_volume   892.51797286
_cell_formula_units_Z   8
loop_
 _symmetry_equiv_pos_site_id
 _symmetry_equiv_pos_as_xyz
  1  'x, y, z'
loop_
 _atom_site_type_symbol
 _atom_site_label
 _atom_site_symmetry_multiplicity
 _atom_site_fract_x
 _atom_site_fract_y
 _atom_site_fract_z
 _atom_site_occupancy
  Zn  Zn0  1  0.61777000  0.15042200  0.37567500  1
  Zn  Zn1  1  0.38223000  0.84957800  0.62432500  1
  Zn  Zn2  1  0.61777000  0.65042200  0.12432500  1
  Zn  Zn3  1  0.11777000  0.84957800  0.12432500  1
  Zn  Zn4  1  0.88223000  0.15042200  0.87567500  1
  Zn  Zn5  1  0.38223000  0.34957800  0.87567500  1
  Zn  Zn6  1  0.11777000  0.34957800  0.37567500  1
  Zn  Zn7  1  0.88223000  0.65042200  0.62432500  1
  Co  Co0  1  0.37460000  0.99148900  0.87627600  1
  Co  Co1  1  0.62540000  0.00851100  0.12372400  1
  Co  Co2  1  0.87460000  0.00851100  0.62372400  1
  Co  Co3  1  0.12540000  0.99148900  0.37627600  1
  Co  Co4  1  0.37460000  0.49148900  0.62372400  1
  Co  Co5  1  0.62540000  0.50851100  0.37627600  1
  Co  Co6  1  0.87460000  0.50851100  0.87627600  1
  Co  Co7  1  0.12540000  0.49148900  0.12372400  1
  Si  Si0  1  0.56546800  0.66087300  0.77232300  1
  Si  Si1  1  0.71357100  0.83537700  0.47394800  1
  Si  Si2  1  0.78642900  0.83537700  0.97394800  1
  Si  Si3  1  0.93453200  0.16087300  0.22767700  1
  Si  Si4  1  0.06546800  0.33912700  0.72767700  1
  Si  Si5  1  0.43453200  0.83912700  0.27232300  1
  Si  Si6  1  0.21357100  0.66462300  0.47394800  1
  Si  Si7  1  0.71357100  0.33537700  0.02605200  1
  Si  Si8  1  0.78642900  0.33537700  0.52605200  1
  Si  Si9  1  0.93453200  0.66087300  0.27232300  1
  Si  Si10  1  0.43453200  0.33912700  0.22767700  1
  Si  Si11  1  0.56546800  0.16087300  0.72767700  1
  Si  Si12  1  0.28642900  0.16462300  0.52605200  1
  Si  Si13  1  0.06546800  0.83912700  0.77232300  1
  Si  Si14  1  0.28642900  0.66462300  0.97394800  1
  Si  Si15  1  0.21357100  0.16462300  0.02605200  1
  O  O0  1  0.92784500  0.50105400  0.31055400  1
  O  O1  1  0.30601200  0.01721300  0.06722600  1
  O  O2  1  0.07215500  0.49894600  0.68944600  1
  O  O3  1  0.71395400  0.34033900  0.93715800  1
  O  O4  1  0.21395400  0.15966100  0.93715800  1
  O  O5  1  0.91775900  0.20433000  0.05116900  1
  O  O6  1  0.94626300  0.66061900  0.18384100  1
  O  O7  1  0.05373700  0.83938100  0.68384100  1
  O  O8  1  0.71395400  0.84033900  0.56284200  1
  O  O9  1  0.94626300  0.16061900  0.31615900  1
  O  O10  1  0.42784500  0.49894600  0.18944600  1
  O  O11  1  0.78604600  0.34033900  0.43715800  1
  O  O12  1  0.69398800  0.98278700  0.93277400  1
  O  O13  1  0.44626300  0.83938100  0.18384100  1
  O  O14  1  0.57215500  0.00105400  0.68944600  1
  O  O15  1  0.30601200  0.51721300  0.43277400  1
  O  O16  1  0.42784500  0.99894600  0.31055400  1
  O  O17  1  0.16448200  0.76723400  0.30262700  1
  O  O18  1  0.33551800  0.76723400  0.80262700  1
  O  O19  1  0.58224100  0.70433000  0.94883100  1
  O  O20  1  0.78604600  0.84033900  0.06284200  1
  O  O21  1  0.55373700  0.66061900  0.68384100  1
  O  O22  1  0.80601200  0.48278700  0.06722600  1
  O  O23  1  0.16448200  0.26723400  0.19737300  1
  O  O24  1  0.28604600  0.15966100  0.43715800  1
  O  O25  1  0.55373700  0.16061900  0.81615900  1
  O  O26  1  0.69398800  0.48278700  0.56722600  1
  O  O27  1  0.21395400  0.65966100  0.56284200  1
  O  O28  1  0.19398800  0.51721300  0.93277400  1
  O  O29  1  0.66448200  0.73276600  0.30262700  1
  O  O30  1  0.07215500  0.99894600  0.81055400  1
  O  O31  1  0.83551800  0.73276600  0.80262700  1
  O  O32  1  0.83551800  0.23276600  0.69737300  1
  O  O33  1  0.80601200  0.98278700  0.43277400  1
  O  O34  1  0.28604600  0.65966100  0.06284200  1
  O  O35  1  0.19398800  0.01721300  0.56722600  1
  O  O36  1  0.33551800  0.26723400  0.69737300  1
  O  O37  1  0.08224100  0.79567000  0.94883100  1
  O  O38  1  0.41775900  0.79567000  0.44883100  1
  O  O39  1  0.66448200  0.23276600  0.19737300  1
  O  O40  1  0.41775900  0.29567000  0.05116900  1
  O  O41  1  0.58224100  0.20433000  0.55116900  1
  O  O42  1  0.08224100  0.29567000  0.55116900  1
  O  O43  1  0.44626300  0.33938100  0.31615900  1
  O  O44  1  0.57215500  0.50105400  0.81055400  1
  O  O45  1  0.91775900  0.70433000  0.44883100  1
  O  O46  1  0.05373700  0.33938100  0.81615900  1
  O  O47  1  0.92784500  0.00105400  0.18944600  1
loop_
_geom_bond_atom_site_label_1
_geom_bond_atom_site_label_2
_geom_bond_distance
_geom_bond_site_symmetry_2
Co0 O12 1.988647 1_555
Co0 O30 2.011064 1_555
Co0 O4 2.083713 1_565
Co0 O25 2.124344 1_565
Co0 O18 2.465626 1_555
Co0 O37 2.716885 1_555
Co1 O1 1.988647 1_555
Co1 O47 2.011064 1_555
Co1 O20 2.083713 1_545
Co1 O13 2.124344 1_545
Co1 O39 2.465626 1_555
Co1 O5 2.716885 1_555
Co2 O35 1.988647 1_655
Co2 O14 2.011064 1_555
Co2 O8 2.083713 1_545
Co2 O7 2.124344 1_645
Co2 O32 2.465626 1_555
Co2 O41 2.716885 1_555
Co3 O33 1.988647 1_455
Co3 O16 2.011064 1_555
Co3 O24 2.083713 1_565
Co3 O9 2.124344 1_465
Co3 O17 2.465626 1_555
Co3 O38 2.716885 1_555
Co4 O26 1.988647 1_555
Co4 O2 2.011064 1_555
Co4 O27 2.083713 1_555
Co4 O21 2.124344 1_555
Co4 O36 2.465626 1_555
Co4 O42 2.716885 1_555
Co5 O15 1.988647 1_555
Co5 O0 2.011064 1_555
Co5 O11 2.083713 1_555
Co5 O43 2.124344 1_555
Co5 O29 2.465626 1_555
Co5 O45 2.716885 1_555
Co6 O28 1.988647 1_655
Co6 O44 2.011064 1_555
Co6 O3 2.083713 1_555
Co6 O46 2.124344 1_655
Co6 O31 2.465626 1_555
Co6 O19 2.716885 1_555
Co7 O22 1.988647 1_455
Co7 O10 2.011064 1_555
Co7 O34 2.083713 1_555
Co7 O6 2.124344 1_455
Co7 O23 2.465626 1_555
Co7 O40 2.716885 1_555
O0 Si9 1.619920 1_555
O0 Zn6 2.090141 1_655
O1 Si15 1.620292 1_555
O1 Zn3 2.107947 1_545
O2 Si4 1.619920 1_555
O2 Zn7 2.090141 1_455
O3 Si7 1.645927 1_556
O3 Zn5 2.093273 1_555
O3 Zn4 2.254828 1_555
O4 Si15 1.645927 1_556
O4 Zn4 2.093273 1_455
O4 Zn5 2.254828 1_555
O5 Si15 1.672161 1_655
O5 Si7 1.676257 1_555
O6 Si9 1.638856 1_555
O6 Zn2 2.059637 1_555
O6 Zn3 2.236803 1_655
O7 Si13 1.638856 1_555
O7 Zn1 2.059637 1_555
O7 Zn7 2.236803 1_455
O8 Si1 1.645927 1_555
O8 Zn1 2.093273 1_555
O8 Zn7 2.254828 1_555
O9 Si3 1.638856 1_555
O9 Zn0 2.059637 1_555
O9 Zn6 2.236803 1_655
O10 Si10 1.619920 1_555
O10 Zn2 2.090141 1_555
O11 Si8 1.645927 1_555
O11 Zn6 2.093273 1_655
O11 Zn0 2.254828 1_555
O12 Si2 1.620292 1_555
O12 Zn4 2.107947 1_565
O13 Si5 1.638856 1_555
O13 Zn3 2.059637 1_555
O13 Zn2 2.236803 1_555
O14 Si11 1.619920 1_555
O14 Zn1 2.090141 1_545
O15 Si6 1.620292 1_555
O15 Zn6 2.107947 1_555
O16 Si5 1.619920 1_555
O16 Zn0 2.090141 1_565
O17 Si9 1.653600 1_455
O17 Si5 1.668848 1_555
O18 Si0 1.653600 1_555
O18 Si13 1.668848 1_555
O19 Si14 1.672161 1_555
O19 Si2 1.676257 1_555
O20 Si2 1.645927 1_554
O20 Zn3 2.093273 1_655
O20 Zn2 2.254828 1_555
O21 Si0 1.638856 1_555
O21 Zn7 2.059637 1_555
O21 Zn1 2.236803 1_555
O22 Si7 1.620292 1_555
O22 Zn2 2.107947 1_555
O23 Si3 1.653600 1_455
O23 Si10 1.668848 1_555
O24 Si12 1.645927 1_555
O24 Zn0 2.093273 1_555
O24 Zn6 2.254828 1_555
O25 Si11 1.638856 1_555
O25 Zn4 2.059637 1_555
O25 Zn5 2.236803 1_555
O26 Si8 1.620292 1_555
O26 Zn7 2.107947 1_555
O27 Si6 1.645927 1_555
O27 Zn7 2.093273 1_455
O27 Zn1 2.254828 1_555
O28 Si14 1.620292 1_555
O28 Zn5 2.107947 1_555
O29 Si5 1.653600 1_555
O29 Si9 1.668848 1_555
O30 Si13 1.619920 1_555
O30 Zn4 2.090141 1_465
O31 Si13 1.653600 1_655
O31 Si0 1.668848 1_555
O32 Si4 1.653600 1_655
O32 Si11 1.668848 1_555
O33 Si1 1.620292 1_555
O33 Zn0 2.107947 1_565
O34 Si14 1.645927 1_554
O34 Zn2 2.093273 1_555
O34 Zn3 2.254828 1_555
O35 Si12 1.620292 1_555
O35 Zn1 2.107947 1_545
O36 Si11 1.653600 1_555
O36 Si4 1.668848 1_555
O37 Si2 1.672161 1_455
O37 Si14 1.676257 1_555
O38 Si1 1.672161 1_555
O38 Si6 1.676257 1_555
O39 Si10 1.653600 1_555
O39 Si3 1.668848 1_555
O40 Si7 1.672161 1_555
O40 Si15 1.676257 1_555
O41 Si12 1.672161 1_555
O41 Si8 1.676257 1_555
O42 Si8 1.672161 1_455
O42 Si12 1.676257 1_555
O43 Si10 1.638856 1_555
O43 Zn6 2.059637 1_555
O43 Zn0 2.236803 1_555
O44 Si0 1.619920 1_555
O44 Zn5 2.090141 1_555
O45 Si6 1.672161 1_655
O45 Si1 1.676257 1_555
O46 Si4 1.638856 1_555
O46 Zn5 2.059637 1_555
O46 Zn4 2.236803 1_455
O47 Si3 1.619920 1_555
O47 Zn3 2.090141 1_645
