# generated using pymatgen
data_Gd3AlCdS7
_symmetry_space_group_name_H-M   'P 1'
_cell_length_a   9.84769500
_cell_length_b   9.84769522
_cell_length_c   6.25245900
_cell_angle_alpha   90.00000000
_cell_angle_beta   90.00000000
_cell_angle_gamma   120.00000263
_symmetry_Int_Tables_number   1
_chemical_formula_structural   Gd3AlCdS7
_chemical_formula_sum   'Gd6 Al2 Cd2 S14'
_cell_volume   525.11044973
_cell_formula_units_Z   2
loop_
 _symmetry_equiv_pos_site_id
 _symmetry_equiv_pos_as_xyz
  1  'x, y, z'
loop_
 _atom_site_type_symbol
 _atom_site_label
 _atom_site_symmetry_multiplicity
 _atom_site_fract_x
 _atom_site_fract_y
 _atom_site_fract_z
 _atom_site_occupancy
  Gd  Gd0  1  0.76633700  0.14715300  0.21979600  1
  Gd  Gd1  1  0.38081600  0.23366300  0.21979600  1
  Gd  Gd2  1  0.85284700  0.61918400  0.21979600  1
  Gd  Gd3  1  0.23366300  0.85284700  0.71979600  1
  Gd  Gd4  1  0.61918400  0.76633700  0.71979600  1
  Gd  Gd5  1  0.14715300  0.38081600  0.71979600  1
  Al  Al0  1  0.66666700  0.33333300  0.64269300  1
  Al  Al1  1  0.33333300  0.66666700  0.14269300  1
  Cd  Cd0  1  0.00000000  0.00000000  0.02344700  1
  Cd  Cd1  1  0.00000000  0.00000000  0.52344700  1
  S  S0  1  0.84979600  0.10803400  0.79646400  1
  S  S1  1  0.25823800  0.15020400  0.79646400  1
  S  S2  1  0.89196600  0.74176200  0.79646400  1
  S  S3  1  0.15020400  0.89196600  0.29646400  1
  S  S4  1  0.74176200  0.84979600  0.29646400  1
  S  S5  1  0.10803400  0.25823800  0.29646400  1
  S  S6  1  0.90327500  0.42340500  0.48682400  1
  S  S7  1  0.52013000  0.09672500  0.48682400  1
  S  S8  1  0.57659500  0.47987000  0.48682400  1
  S  S9  1  0.09672500  0.57659500  0.98682400  1
  S  S10  1  0.47987000  0.90327500  0.98682400  1
  S  S11  1  0.42340500  0.52013000  0.98682400  1
  S  S12  1  0.66666700  0.33333300  0.00661700  1
  S  S13  1  0.33333300  0.66666700  0.50661700  1
loop_
_geom_bond_atom_site_label_1
_geom_bond_atom_site_label_2
_geom_bond_distance
_geom_bond_site_symmetry_2
Gd0 S7 2.776440 1_555
Gd0 S12 2.810883 1_555
Gd0 S0 2.854190 1_554
Gd0 S4 2.855612 1_545
Gd0 S6 2.887604 1_555
Gd0 S5 3.011348 1_655
Gd0 S10 3.012114 1_544
Gd1 S8 2.776440 1_555
Gd1 S12 2.810891 1_555
Gd1 S1 2.854190 1_554
Gd1 S5 2.855612 1_555
Gd1 S7 2.887604 1_555
Gd1 S3 3.011348 1_545
Gd1 S11 3.012114 1_554
Gd2 S6 2.776440 1_555
Gd2 S12 2.810889 1_555
Gd2 S2 2.854190 1_554
Gd2 S3 2.855612 1_655
Gd2 S8 2.887604 1_555
Gd2 S4 3.011348 1_555
Gd2 S9 3.012114 1_654
Gd3 S10 2.776440 1_555
Gd3 S13 2.810883 1_555
Gd3 S3 2.854190 1_555
Gd3 S1 2.855612 1_565
Gd3 S9 2.887604 1_555
Gd3 S2 3.011348 1_455
Gd3 S7 3.012114 1_565
Gd4 S11 2.776440 1_555
Gd4 S13 2.810891 1_555
Gd4 S4 2.854190 1_555
Gd4 S2 2.855612 1_555
Gd4 S10 2.887604 1_555
Gd4 S0 3.011348 1_565
Gd4 S8 3.012114 1_555
Gd5 S9 2.776440 1_555
Gd5 S13 2.810889 1_555
Gd5 S5 2.854190 1_555
Gd5 S0 2.855612 1_455
Gd5 S11 2.887604 1_555
Gd5 S1 3.011348 1_555
Gd5 S6 3.012114 1_455
Al0 S6 2.258074 1_555
Al0 S7 2.258075 1_555
Al0 S8 2.258082 1_555
Al0 S12 2.275420 1_556
Al1 S9 2.258074 1_554
Al1 S10 2.258075 1_554
Al1 S11 2.258082 1_554
Al1 S13 2.275420 1_555
Cd0 S1 2.628226 1_554
Cd0 S2 2.628226 1_444
Cd0 S0 2.628226 1_454
Cd0 S4 2.794169 1_445
Cd0 S5 2.794169 1_555
Cd0 S3 2.794169 1_545
Cd1 S4 2.628226 1_445
Cd1 S5 2.628226 1_555
Cd1 S3 2.628226 1_545
Cd1 S1 2.794169 1_555
Cd1 S2 2.794169 1_445
Cd1 S0 2.794169 1_455
