# generated using pymatgen
data_Cs4Ta2S11
_symmetry_space_group_name_H-M   'P 1'
_cell_length_a   8.16637200
_cell_length_b   14.31581300
_cell_length_c   18.93649100
_cell_angle_alpha   90.00000000
_cell_angle_beta   90.00000000
_cell_angle_gamma   90.00000000
_symmetry_Int_Tables_number   1
_chemical_formula_structural   Cs4Ta2S11
_chemical_formula_sum   'Cs16 Ta8 S44'
_cell_volume   2213.83210804
_cell_formula_units_Z   4
loop_
 _symmetry_equiv_pos_site_id
 _symmetry_equiv_pos_as_xyz
  1  'x, y, z'
loop_
 _atom_site_type_symbol
 _atom_site_label
 _atom_site_symmetry_multiplicity
 _atom_site_fract_x
 _atom_site_fract_y
 _atom_site_fract_z
 _atom_site_occupancy
  Cs  Cs0  1  0.66678800  0.76576000  0.37342600  1
  Cs  Cs1  1  0.33321200  0.23424000  0.87342600  1
  Cs  Cs2  1  0.33321200  0.26576000  0.37342600  1
  Cs  Cs3  1  0.66678800  0.73424000  0.87342600  1
  Cs  Cs4  1  0.18667500  0.58011000  0.47301600  1
  Cs  Cs5  1  0.81332500  0.41989000  0.97301600  1
  Cs  Cs6  1  0.81332500  0.08011000  0.47301600  1
  Cs  Cs7  1  0.18667500  0.91989000  0.97301600  1
  Cs  Cs8  1  0.79497000  0.45830900  0.27203800  1
  Cs  Cs9  1  0.20503000  0.54169100  0.77203800  1
  Cs  Cs10  1  0.20503000  0.95830900  0.27203800  1
  Cs  Cs11  1  0.79497000  0.04169100  0.77203800  1
  Cs  Cs12  1  0.20213600  0.28843500  0.12193200  1
  Cs  Cs13  1  0.79786400  0.71156500  0.62193200  1
  Cs  Cs14  1  0.79786400  0.78843500  0.12193200  1
  Cs  Cs15  1  0.20213600  0.21156500  0.62193200  1
  Ta  Ta0  1  0.25885900  0.56884500  0.03040500  1
  Ta  Ta1  1  0.74114100  0.43115500  0.53040500  1
  Ta  Ta2  1  0.74114100  0.06884500  0.03040500  1
  Ta  Ta3  1  0.25885900  0.93115500  0.53040500  1
  Ta  Ta4  1  0.21176500  0.62206300  0.21007100  1
  Ta  Ta5  1  0.78823500  0.37793700  0.71007100  1
  Ta  Ta6  1  0.78823500  0.12206300  0.21007100  1
  Ta  Ta7  1  0.21176500  0.87793700  0.71007100  1
  S  S0  1  0.25108100  0.43449700  0.96778400  1
  S  S1  1  0.74891900  0.56550300  0.46778400  1
  S  S2  1  0.74891900  0.93449700  0.96778400  1
  S  S3  1  0.25108100  0.06550300  0.46778400  1
  S  S4  1  0.45100700  0.52700500  0.12765300  1
  S  S5  1  0.54899300  0.47299500  0.62765300  1
  S  S6  1  0.54899300  0.02700500  0.12765300  1
  S  S7  1  0.45100700  0.97299500  0.62765300  1
  S  S8  1  0.26160100  0.68059800  0.92867700  1
  S  S9  1  0.73839900  0.31940200  0.42867700  1
  S  S10  1  0.73839900  0.18059800  0.92867700  1
  S  S11  1  0.26160100  0.81940200  0.42867700  1
  S  S12  1  0.03558100  0.66301700  0.97791800  1
  S  S13  1  0.96441900  0.33698300  0.47791800  1
  S  S14  1  0.96441900  0.16301700  0.97791800  1
  S  S15  1  0.03558100  0.83698300  0.47791800  1
  S  S16  1  0.39931200  0.57457900  0.30867400  1
  S  S17  1  0.55263700  0.60235600  0.04387000  1
  S  S18  1  0.44736300  0.10235600  0.04387000  1
  S  S19  1  0.55263700  0.89764400  0.54387000  1
  S  S20  1  0.25821300  0.46774000  0.26498500  1
  S  S21  1  0.74178700  0.53226000  0.76498500  1
  S  S22  1  0.74178700  0.96774000  0.26498500  1
  S  S23  1  0.25821300  0.03226000  0.76498500  1
  S  S24  1  0.00351600  0.81639000  0.77337700  1
  S  S25  1  0.99648400  0.18361000  0.27337700  1
  S  S26  1  0.99648400  0.31639000  0.77337700  1
  S  S27  1  0.00351600  0.68361000  0.27337700  1
  S  S28  1  0.39759200  0.74491000  0.69264700  1
  S  S29  1  0.60240800  0.25509000  0.19264700  1
  S  S30  1  0.60240800  0.24491000  0.69264700  1
  S  S31  1  0.39759200  0.75509000  0.19264700  1
  S  S32  1  0.23086200  0.76403600  0.61028100  1
  S  S33  1  0.76913800  0.23596400  0.11028100  1
  S  S34  1  0.76913800  0.26403600  0.61028100  1
  S  S35  1  0.23086200  0.73596400  0.11028100  1
  S  S36  1  0.04737500  0.96894400  0.62188600  1
  S  S37  1  0.95262500  0.03105600  0.12188600  1
  S  S38  1  0.95262500  0.46894400  0.62188600  1
  S  S39  1  0.04737500  0.53105600  0.12188600  1
  S  S40  1  0.39931200  0.92542100  0.80867400  1
  S  S41  1  0.60068800  0.07457900  0.30867400  1
  S  S42  1  0.60068800  0.42542100  0.80867400  1
  S  S43  1  0.44736300  0.39764400  0.54387000  1
loop_
_geom_bond_atom_site_label_1
_geom_bond_atom_site_label_2
_geom_bond_distance
_geom_bond_site_symmetry_2
Cs0 S1 3.444027 1_555
Cs0 S27 3.540361 1_655
Cs0 S11 3.554328 1_555
Cs0 S22 3.598995 1_555
Cs0 S16 3.710174 1_555
Cs0 S15 3.745031 1_655
Cs0 S19 3.853714 1_555
Cs0 S31 4.071267 1_555
Cs1 S0 3.444027 1_555
Cs1 S26 3.540361 1_455
Cs1 S10 3.554328 1_555
Cs1 S23 3.598995 1_555
Cs1 S42 3.710174 1_555
Cs1 S14 3.745031 1_455
Cs1 S18 3.853714 1_556
Cs1 S30 4.071267 1_555
Cs2 S3 3.444027 1_555
Cs2 S25 3.540361 1_455
Cs2 S9 3.554328 1_555
Cs2 S20 3.598995 1_555
Cs2 S41 3.710174 1_555
Cs2 S13 3.745031 1_455
Cs2 S43 3.853714 1_555
Cs2 S29 4.071267 1_555
Cs3 S2 3.444027 1_555
Cs3 S24 3.540361 1_655
Cs3 S8 3.554328 1_555
Cs3 S21 3.598995 1_555
Cs3 S40 3.710174 1_555
Cs3 S12 3.745031 1_655
Cs3 S17 3.853714 1_556
Cs3 S28 4.071267 1_555
Cs4 S16 3.564622 1_555
Cs4 S11 3.579735 1_555
Cs4 S1 3.582359 1_455
Cs4 S43 3.627073 1_555
Cs4 S32 3.717474 1_555
Cs4 S38 3.759396 1_455
Cs4 S15 3.879945 1_555
Cs4 S13 3.926479 1_455
Cs5 S42 3.564622 1_555
Cs5 S10 3.579735 1_555
Cs5 S0 3.582359 1_655
Cs5 S17 3.627073 1_556
Cs5 S33 3.717474 1_556
Cs5 S39 3.759396 1_656
Cs5 S14 3.879945 1_555
Cs5 S12 3.926479 1_655
Cs6 S41 3.564622 1_555
Cs6 S9 3.579735 1_555
Cs6 S3 3.582359 1_655
Cs6 S19 3.627073 1_545
Cs6 S34 3.717474 1_555
Cs6 S36 3.759396 1_645
Cs6 S13 3.879945 1_555
Cs6 S15 3.926479 1_645
Cs7 S40 3.564622 1_555
Cs7 S8 3.579735 1_555
Cs7 S2 3.582359 1_455
Cs7 S18 3.627073 1_566
Cs7 S35 3.717474 1_556
Cs7 S37 3.759396 1_466
Cs7 S12 3.879945 1_555
Cs7 S14 3.926479 1_465
Cs8 S9 3.600850 1_555
Cs8 S29 3.632732 1_555
Cs8 S27 3.647473 1_655
Cs8 S39 3.663047 1_655
Cs8 S16 3.700244 1_555
Cs8 S20 3.787779 1_655
Cs8 S1 4.029426 1_555
Cs8 S4 4.041385 1_555
Cs9 S8 3.600850 1_555
Cs9 S28 3.632732 1_555
Cs9 S26 3.647473 1_455
Cs9 S38 3.663047 1_455
Cs9 S42 3.700244 1_555
Cs9 S21 3.787779 1_455
Cs9 S0 4.029426 1_555
Cs9 S5 4.041385 1_555
Cs10 S11 3.600850 1_555
Cs10 S31 3.632732 1_555
Cs10 S25 3.647473 1_465
Cs10 S37 3.663047 1_465
Cs10 S41 3.700244 1_565
Cs10 S22 3.787779 1_455
Cs10 S3 4.029426 1_565
Cs10 S6 4.041385 1_565
Cs11 S10 3.600850 1_555
Cs11 S30 3.632732 1_555
Cs11 S24 3.647473 1_645
Cs11 S36 3.663047 1_645
Cs11 S40 3.700244 1_545
Cs11 S23 3.787779 1_655
Cs11 S2 4.029426 1_545
Cs11 S7 4.041385 1_545
Cs12 S29 3.564534 1_555
Cs12 S0 3.612855 1_554
Cs12 S33 3.621655 1_455
Cs12 S18 3.645794 1_555
Cs12 S25 3.646497 1_455
Cs12 S39 3.696108 1_555
Cs12 S20 3.759911 1_555
Cs12 S14 3.798612 1_454
Cs12 S4 3.975766 1_555
Cs13 S28 3.564534 1_555
Cs13 S1 3.612855 1_555
Cs13 S32 3.621655 1_655
Cs13 S19 3.645794 1_555
Cs13 S24 3.646497 1_655
Cs13 S38 3.696108 1_555
Cs13 S21 3.759911 1_555
Cs13 S15 3.798612 1_655
Cs13 S5 3.975766 1_555
Cs14 S31 3.564534 1_555
Cs14 S2 3.612855 1_554
Cs14 S35 3.621655 1_655
Cs14 S17 3.645794 1_555
Cs14 S27 3.646497 1_655
Cs14 S37 3.696108 1_565
Cs14 S22 3.759911 1_555
Cs14 S12 3.798612 1_654
Cs14 S6 3.975766 1_565
Cs15 S30 3.564534 1_555
Cs15 S3 3.612855 1_555
Cs15 S34 3.621655 1_455
Cs15 S43 3.645794 1_555
Cs15 S26 3.646497 1_455
Cs15 S36 3.696108 1_545
Cs15 S23 3.759911 1_555
Cs15 S13 3.798612 1_455
Cs15 S7 3.975766 1_545
S0 Ta0 2.260375 1_556
S1 Ta1 2.260375 1_555
S2 Ta2 2.260375 1_566
S3 Ta3 2.260375 1_545
S4 Ta0 2.492441 1_555
S4 Ta4 2.846888 1_555
S5 Ta1 2.492441 1_555
S5 Ta5 2.846888 1_555
S6 Ta2 2.492441 1_555
S6 Ta6 2.846888 1_555
S7 Ta3 2.492441 1_555
S7 Ta7 2.846888 1_555
S8 Ta0 2.504173 1_556
S9 Ta1 2.504173 1_555
S10 S14 2.083184 1_555
S10 Ta2 2.504173 1_556
S11 S15 2.083184 1_555
S11 Ta3 2.504173 1_555
S12 S8 2.083184 1_555
S12 Ta0 2.475897 1_556
S13 S9 2.083184 1_555
S13 Ta1 2.475897 1_555
S14 Ta2 2.475897 1_556
S15 Ta3 2.475897 1_555
S16 S20 2.086025 1_555
S16 Ta4 2.508832 1_555
S17 S4 2.090357 1_555
S17 Ta0 2.459847 1_555
S18 S6 2.090357 1_555
S18 Ta2 2.459847 1_555
S19 S7 2.090357 1_555
S19 Ta3 2.459847 1_555
S20 Ta4 2.471042 1_555
S21 S42 2.086025 1_555
S21 Ta5 2.471042 1_555
S22 S41 2.086025 1_565
S22 Ta6 2.471042 1_565
S23 S40 2.086025 1_545
S23 Ta7 2.471042 1_545
S24 Ta7 2.259559 1_555
S25 Ta6 2.259559 1_555
S26 Ta5 2.259559 1_555
S27 Ta4 2.259559 1_555
S28 S32 2.088445 1_555
S28 Ta7 2.457330 1_555
S29 S33 2.088445 1_555
S29 Ta6 2.457330 1_555
S30 S34 2.088445 1_555
S30 Ta5 2.457330 1_555
S31 S35 2.088445 1_555
S31 Ta4 2.457330 1_555
S32 Ta7 2.500798 1_555
S32 Ta3 2.839707 1_555
S33 Ta6 2.500798 1_555
S33 Ta2 2.839707 1_555
S34 Ta5 2.500798 1_555
S34 Ta1 2.839707 1_555
S35 Ta4 2.500798 1_555
S35 Ta0 2.839707 1_555
S36 Ta3 2.505264 1_555
S36 Ta7 2.507634 1_555
S37 Ta2 2.505264 1_555
S37 Ta6 2.507634 1_555
S38 Ta1 2.505264 1_555
S38 Ta5 2.507634 1_555
S39 Ta0 2.505264 1_555
S39 Ta4 2.507634 1_555
S40 Ta7 2.508832 1_555
S41 Ta6 2.508832 1_555
S42 Ta5 2.508832 1_555
S43 S5 2.090357 1_555
S43 Ta1 2.459847 1_555
