# generated using pymatgen
data_ZnS
_symmetry_space_group_name_H-M   'P 1'
_cell_length_a   14.12797947
_cell_length_b   13.45119131
_cell_length_c   12.75923977
_cell_angle_alpha   87.92744191
_cell_angle_beta   87.66851932
_cell_angle_gamma   88.03921988
_symmetry_Int_Tables_number   1
_chemical_formula_structural   ZnS
_chemical_formula_sum   'Zn50 S50'
_cell_volume   2419.84812380
_cell_formula_units_Z   50
loop_
 _symmetry_equiv_pos_site_id
 _symmetry_equiv_pos_as_xyz
  1  'x, y, z'
loop_
 _atom_site_type_symbol
 _atom_site_label
 _atom_site_symmetry_multiplicity
 _atom_site_fract_x
 _atom_site_fract_y
 _atom_site_fract_z
 _atom_site_occupancy
  Zn  Zn0  1  0.57402396  0.01080708  0.59129357  1
  Zn  Zn1  1  0.09194644  0.52236380  0.78250920  1
  Zn  Zn2  1  0.80883095  0.24775759  0.85838604  1
  Zn  Zn3  1  0.62664517  0.42362689  0.77371069  1
  Zn  Zn4  1  0.03023986  0.11898406  0.47526264  1
  Zn  Zn5  1  0.44407194  0.08596986  0.41619826  1
  Zn  Zn6  1  0.72888808  0.59621625  0.45935301  1
  Zn  Zn7  1  0.49417846  0.78739260  0.23054889  1
  Zn  Zn8  1  0.45781792  0.29739387  0.56859783  1
  Zn  Zn9  1  0.79758989  0.06968836  0.11846937  1
  Zn  Zn10  1  0.92113141  0.38902887  0.49337544  1
  Zn  Zn11  1  0.60575836  0.93153771  0.05394260  1
  Zn  Zn12  1  0.88927535  0.51862922  0.21526605  1
  Zn  Zn13  1  0.96021904  0.07943341  0.70760336  1
  Zn  Zn14  1  0.50188370  0.68963394  0.51977075  1
  Zn  Zn15  1  0.59987160  0.60990659  0.95185495  1
  Zn  Zn16  1  0.18322317  0.94211491  0.61170598  1
  Zn  Zn17  1  0.10742680  0.84616835  0.16179932  1
  Zn  Zn18  1  0.09494513  0.11109488  0.98946978  1
  Zn  Zn19  1  0.28832011  0.61767612  0.26144223  1
  Zn  Zn20  1  0.10376388  0.37101837  0.98007571  1
  Zn  Zn21  1  0.49901476  0.16009641  0.81669630  1
  Zn  Zn22  1  0.66134186  0.36329878  0.40250223  1
  Zn  Zn23  1  0.71264108  0.99714437  0.78757533  1
  Zn  Zn24  1  0.44612051  0.88593181  0.88553745  1
  Zn  Zn25  1  0.13915964  0.69664688  0.00212698  1
  Zn  Zn26  1  0.59103939  0.78248306  0.63677780  1
  Zn  Zn27  1  0.51101710  0.53005919  0.29123638  1
  Zn  Zn28  1  0.82035700  0.13995611  0.43567425  1
  Zn  Zn29  1  0.37603265  0.37869849  0.93763736  1
  Zn  Zn30  1  0.06685941  0.00658768  0.20774397  1
  Zn  Zn31  1  0.97260984  0.87139069  0.59074266  1
  Zn  Zn32  1  0.16448757  0.31495527  0.36849679  1
  Zn  Zn33  1  0.26742520  0.30490410  0.21936179  1
  Zn  Zn34  1  0.84258271  0.36986352  0.98620296  1
  Zn  Zn35  1  0.33988135  0.85719770  0.03407850  1
  Zn  Zn36  1  0.63984403  0.93700122  0.31496605  1
  Zn  Zn37  1  0.80009107  0.45803299  0.79560861  1
  Zn  Zn38  1  0.34635621  0.90309539  0.62009732  1
  Zn  Zn39  1  0.01684408  0.25446951  0.18193363  1
  Zn  Zn40  1  0.70535827  0.57330206  0.64905448  1
  Zn  Zn41  1  0.70532139  0.74949715  0.15043491  1
  Zn  Zn42  1  0.22629785  0.22570950  0.76264977  1
  Zn  Zn43  1  0.01629350  0.65230386  0.34219651  1
  Zn  Zn44  1  0.04086890  0.34683224  0.61720534  1
  Zn  Zn45  1  0.45907241  0.62306281  0.77202393  1
  Zn  Zn46  1  0.83683491  0.86432988  0.25373461  1
  Zn  Zn47  1  0.92155940  0.65956840  0.94403177  1
  Zn  Zn48  1  0.17457097  0.56422789  0.53523782  1
  Zn  Zn49  1  0.01816284  0.75099591  0.73069676  1
  S  S0  1  0.51274454  0.95620375  0.20813248  1
  S  S1  1  0.35587396  0.22128305  0.87932004  1
  S  S2  1  0.47599120  0.20287877  0.29884581  1
  S  S3  1  0.74439965  0.23726515  0.09119094  1
  S  S4  1  0.10294658  0.34845860  0.80022387  1
  S  S5  1  0.08599354  0.96186837  0.76607172  1
  S  S6  1  0.81366447  0.62069214  0.08314415  1
  S  S7  1  0.72920751  0.51356884  0.02021142  1
  S  S8  1  0.84136206  0.08191972  0.83745796  1
  S  S9  1  0.16038956  0.64692113  0.68099847  1
  S  S10  1  0.02276277  0.78449665  0.92349728  1
  S  S11  1  0.63153176  0.67388755  0.77775374  1
  S  S12  1  0.16381524  0.23941938  0.08022732  1
  S  S13  1  0.56411189  0.74227248  0.06445249  1
  S  S14  1  0.89385079  0.54474061  0.38891124  1
  S  S15  1  0.77905196  0.03052033  0.30540693  1
  S  S16  1  0.56659910  0.00021813  0.88962289  1
  S  S17  1  0.16076463  0.53576466  0.95380198  1
  S  S18  1  0.42501625  0.54714072  0.61466460  1
  S  S19  1  0.63109716  0.25659234  0.86191267  1
  S  S20  1  0.66797597  0.51298301  0.31339121  1
  S  S21  1  0.53847375  0.44209697  0.60637529  1
  S  S22  1  0.07813573  0.17661329  0.63136742  1
  S  S23  1  0.96110835  0.40657623  0.09911755  1
  S  S24  1  0.39575493  0.36836177  0.12270765  1
  S  S25  1  0.10611279  0.87152550  0.46357500  1
  S  S26  1  0.42552673  0.67964179  0.34822243  1
  S  S27  1  0.77662064  0.29097060  0.49647105  1
  S  S28  1  0.61487095  0.26864042  0.02670206  1
  S  S29  1  0.92479396  0.57281073  0.79573051  1
  S  S30  1  0.30453130  0.53348701  0.90698362  1
  S  S31  1  0.17670848  0.05484132  0.84662872  1
  S  S32  1  0.49894445  0.32822462  0.38649761  1
  S  S33  1  0.96311044  0.10972292  0.10748253  1
  S  S34  1  0.89917731  0.02666515  0.54716819  1
  S  S35  1  0.20712796  0.37815316  0.53089907  1
  S  S36  1  0.47046898  0.93745867  0.48563811  1
  S  S37  1  0.70718138  0.77453243  0.33026118  1
  S  S38  1  0.50691548  0.48862878  0.88800292  1
  S  S39  1  0.12788904  0.00922823  0.38266992  1
  S  S40  1  0.40257137  0.51610538  0.16432614  1
  S  S41  1  0.23953034  0.74129072  0.12906637  1
  S  S42  1  0.15641892  0.56464442  0.35954501  1
  S  S43  1  0.39929303  0.79087062  0.75508023  1
  S  S44  1  0.69711843  0.91241775  0.63718716  1
  S  S45  1  0.96692800  0.75968718  0.21453863  1
  S  S46  1  0.29819013  0.26429917  0.58959975  1
  S  S47  1  0.00635830  0.26154976  0.36169330  1
  S  S48  1  0.55063141  0.16871533  0.63998846  1
  S  S49  1  0.77079469  0.90736208  0.06654101  1
loop_
_geom_bond_atom_site_label_1
_geom_bond_atom_site_label_2
_geom_bond_distance
_geom_bond_site_symmetry_2
Zn10 Zn44 2.401469 1_655
Zn14 Zn26 2.402233 1_555
Zn32 Zn33 2.352468 1_555
Zn40 Zn6 2.439602 1_555
S0 Zn36 2.300246 1_555
S0 Zn7 2.300959 1_555
S0 Zn11 2.348280 1_555
S1 Zn21 2.282037 1_555
S1 Zn29 2.300159 1_555
S1 Zn42 2.403887 1_555
S2 S32 2.098092 1_555
S2 Zn5 2.177519 1_555
S3 Zn9 2.369698 1_555
S3 Zn34 2.597137 1_554
S4 Zn20 2.326148 1_555
S4 Zn1 2.342431 1_555
S4 Zn42 2.405293 1_555
S4 Zn44 2.528706 1_555
S5 Zn16 2.372671 1_555
S5 Zn13 2.458673 1_465
S6 S7 2.103355 1_555
S6 Zn47 2.348372 1_554
S6 Zn12 2.397181 1_555
S6 Zn41 2.429225 1_555
S7 Zn15 2.380059 1_554
S7 Zn34 2.506530 1_554
S8 Zn2 2.285076 1_555
S8 Zn23 2.302434 1_545
S8 Zn13 2.310801 1_555
S9 Zn48 2.200069 1_555
S9 Zn1 2.296014 1_555
S9 Zn49 2.483453 1_555
S10 Zn25 2.241122 1_556
S10 Zn47 2.244754 1_455
S10 Zn49 2.520718 1_555
S11 Zn26 2.352234 1_555
S11 Zn40 2.353672 1_555
S11 Zn15 2.383815 1_555
S11 Zn45 2.557609 1_555
S12 Zn20 2.303913 1_554
S12 Zn18 2.370303 1_554
S12 Zn39 2.409867 1_555
S12 Zn33 2.546150 1_555
S13 Zn41 2.322090 1_555
S13 Zn15 2.356638 1_554
S13 Zn7 2.391118 1_555
S13 Zn11 2.629996 1_555
S14 Zn12 2.259608 1_555
S14 Zn43 2.337970 1_655
S14 Zn10 2.469154 1_555
S14 Zn6 2.546183 1_555
S15 Zn28 2.363203 1_555
S15 Zn36 2.367276 1_545
S15 Zn9 2.429606 1_555
S15 Zn46 2.456893 1_545
S16 Zn24 2.335648 1_545
S16 Zn11 2.339777 1_546
S16 Zn23 2.394502 1_545
S16 Zn21 2.487855 1_555
S17 S30 2.093235 1_555
S17 Zn25 2.278705 1_556
S17 Zn20 2.391260 1_555
S17 Zn1 2.442920 1_555
S18 S21 2.102154 1_555
S18 Zn45 2.359273 1_555
S18 Zn14 2.487304 1_555
S19 S28 2.117210 1_556
S19 Zn21 2.409831 1_555
S19 Zn3 2.476253 1_555
S19 Zn2 2.508414 1_555
S20 Zn27 2.249772 1_555
S20 Zn22 2.279056 1_555
S20 Zn6 2.410307 1_555
S21 Zn8 2.362989 1_555
S21 Zn3 2.515717 1_555
S22 Zn4 2.298522 1_555
S22 Zn13 2.314177 1_455
S22 Zn44 2.334024 1_555
S22 Zn42 2.843145 1_555
S23 Zn34 2.329780 1_554
S23 Zn12 2.330766 1_555
S23 Zn39 2.392459 1_655
S23 Zn20 2.516995 1_654
S24 S40 2.081902 1_555
S24 Zn33 2.320436 1_555
S24 Zn29 2.387490 1_554
S25 S39 2.113294 1_565
S25 Zn31 2.437460 1_455
S25 Zn16 2.455353 1_555
S26 Zn7 2.261860 1_555
S26 Zn27 2.429802 1_555
S26 Zn19 2.455665 1_555
S26 Zn14 2.489193 1_555
S27 Zn22 2.236663 1_555
S27 Zn28 2.258078 1_555
S27 Zn10 2.466493 1_555
S28 S3 2.061195 1_555
S29 Zn47 2.256870 1_555
S29 Zn37 2.382035 1_555
S29 Zn1 2.435556 1_655
S29 Zn49 2.855995 1_655
S30 Zn29 2.310375 1_555
S31 S5 2.138420 1_545
S31 Zn18 2.257707 1_555
S31 Zn42 2.606243 1_555
S32 Zn22 2.376442 1_555
S32 Zn8 2.396875 1_555
S32 Zn27 2.941656 1_555
S33 Zn18 2.347107 1_654
S33 Zn39 2.358633 1_655
S33 Zn30 2.365289 1_655
S33 Zn9 2.414982 1_555
S34 Zn28 2.332809 1_555
S34 Zn31 2.358482 1_545
S34 Zn13 2.393426 1_555
S34 Zn4 2.397734 1_655
S35 S46 2.102884 1_555
S35 Zn32 2.375563 1_555
S35 Zn48 2.531490 1_555
S35 Zn44 2.594457 1_555
S36 Zn5 2.182333 1_565
S36 Zn0 2.299269 1_565
S36 Zn38 2.446408 1_555
S37 Zn41 2.332376 1_555
S37 Zn36 2.358196 1_555
S37 Zn46 2.385003 1_555
S37 Zn6 2.874918 1_555
S38 Zn15 2.319371 1_555
S38 Zn3 2.354294 1_555
S38 Zn45 2.391825 1_555
S38 Zn29 2.455790 1_555
S39 Zn4 2.309278 1_555
S39 Zn30 2.427050 1_555
S40 Zn27 2.290894 1_555
S40 Zn19 2.411705 1_555
S41 Zn25 2.304386 1_555
S41 Zn17 2.333858 1_555
S41 Zn35 2.405088 1_555
S41 Zn19 2.430195 1_555
S42 Zn48 2.266454 1_555
S42 Zn43 2.283755 1_555
S42 Zn19 2.320532 1_555
S43 Zn24 2.268223 1_555
S43 Zn38 2.375677 1_555
S43 Zn45 2.388336 1_555
S44 Zn0 2.233407 1_565
S44 Zn23 2.288757 1_555
S44 Zn26 2.341226 1_555
S45 Zn43 2.253701 1_655
S45 Zn46 2.325624 1_555
S45 Zn17 2.395583 1_655
S46 Zn8 2.316655 1_555
S46 Zn42 2.438646 1_555
S47 Zn39 2.297562 1_555
S47 Zn32 2.375850 1_555
S47 Zn4 2.384451 1_555
S47 Zn10 2.667512 1_455
S48 Zn0 2.244452 1_555
S48 Zn8 2.317955 1_555
S48 Zn21 2.341328 1_555
S49 Zn9 2.351916 1_565
S49 Zn11 2.354339 1_555
S49 Zn41 2.529825 1_555
S49 Zn46 2.637159 1_555
