# generated using pymatgen
data_K2Gd2Mg(MoO4)4
_symmetry_space_group_name_H-M   'P 1'
_cell_length_a   7.51874380
_cell_length_b   8.11752646
_cell_length_c   7.65199214
_cell_angle_alpha   113.00759837
_cell_angle_beta   117.31894683
_cell_angle_gamma   94.52550837
_symmetry_Int_Tables_number   1
_chemical_formula_structural   K2Gd2Mg(MoO4)4
_chemical_formula_sum   'K2 Gd2 Mg1 Mo4 O16'
_cell_volume   362.38291237
_cell_formula_units_Z   1
loop_
 _symmetry_equiv_pos_site_id
 _symmetry_equiv_pos_as_xyz
  1  'x, y, z'
loop_
 _atom_site_type_symbol
 _atom_site_label
 _atom_site_symmetry_multiplicity
 _atom_site_fract_x
 _atom_site_fract_y
 _atom_site_fract_z
 _atom_site_occupancy
  K  K0  1  0.41860182  0.15734117  0.22545340  1
  K  K1  1  0.56338073  0.79544030  0.74686527  1
  Gd  Gd0  1  0.01872265  0.83381988  0.28204602  1
  Gd  Gd1  1  0.96365731  0.15271329  0.70519977  1
  Mg  Mg0  1  0.13808306  0.54090881  0.05236624  1
  Mo  Mo0  1  0.94435704  0.31899658  0.26921833  1
  Mo  Mo1  1  0.04925340  0.68523301  0.72291233  1
  Mo  Mo2  1  0.56229180  0.67021033  0.24051043  1
  Mo  Mo3  1  0.46897029  0.32384563  0.76979797  1
  O  O0  1  0.66771581  0.24980632  0.07942274  1
  O  O1  1  0.32463055  0.75135798  0.91520988  1
  O  O2  1  0.68493424  0.60727471  0.45464882  1
  O  O3  1  0.34856769  0.39931792  0.56833440  1
  O  O4  1  0.75885803  0.91552442  0.35792744  1
  O  O5  1  0.24964337  0.10236402  0.63793708  1
  O  O6  1  0.03690803  0.33529972  0.08346512  1
  O  O7  1  0.95841017  0.67642356  0.92832187  1
  O  O8  1  0.04667795  0.61464792  0.42928598  1
  O  O9  1  0.95467420  0.38616955  0.55367175  1
  O  O10  1  0.66864515  0.57602911  0.03033872  1
  O  O11  1  0.32569448  0.42190690  0.97004538  1
  O  O12  1  0.98208509  0.09233871  0.22756422  1
  O  O13  1  0.02302285  0.93460704  0.79058989  1
  O  O14  1  0.35753156  0.76922581  0.31476334  1
  O  O15  1  0.64539674  0.22491131  0.69410360  1
loop_
_geom_bond_atom_site_label_1
_geom_bond_atom_site_label_2
_geom_bond_distance
_geom_bond_site_symmetry_2
K0 O0 2.770403 1_555
K0 O3 2.902100 1_555
K0 O13 2.924367 1_544
K0 O15 2.961523 1_555
K0 O1 2.995497 1_544
K1 O1 2.718697 1_555
K1 O2 2.755798 1_555
K1 O14 2.841488 1_555
K1 O3 2.921618 1_555
K1 O7 3.065785 1_555
K1 O10 3.189118 1_556
K1 O12 3.239300 1_566
K1 O8 3.286164 1_555
K1 O0 3.327000 1_566
K1 O13 3.370268 1_655
Gd0 O7 2.289731 1_454
Gd0 O12 2.307212 1_465
Gd0 O4 2.353588 1_455
Gd0 O5 2.367466 1_565
Gd0 O8 2.426414 1_555
Gd0 O10 2.518668 1_455
Gd0 O14 2.560266 1_555
Gd1 O13 2.126522 1_645
Gd1 O4 2.217289 1_545
Gd1 O6 2.435673 1_656
Gd1 O5 2.458790 1_655
Gd1 O15 2.480013 1_555
Gd1 O9 2.570277 1_555
Gd1 O11 2.613002 1_655
Mg0 O6 1.922829 1_555
Mg0 O14 1.938163 1_555
Mg0 O7 1.951864 1_454
Mg0 O11 1.968431 1_554
Mo0 O0 1.776598 1_555
Mo0 O12 1.809481 1_555
Mo0 O6 1.887448 1_655
Mo0 O9 1.987875 1_555
Mo0 O8 2.097076 1_655
Mo1 O1 1.775097 1_555
Mo1 O13 1.934463 1_555
Mo1 O7 2.001936 1_455
Mo1 O8 2.080593 1_555
Mo1 O9 2.121551 1_455
Mo1 O2 2.380621 1_455
Mo2 O2 1.771466 1_555
Mo2 O4 1.968527 1_555
Mo2 O14 1.995053 1_555
Mo2 O10 2.031278 1_555
Mo2 O11 2.074707 1_554
Mo3 O3 1.765282 1_555
Mo3 O15 1.802721 1_555
Mo3 O5 1.885913 1_555
Mo3 O10 1.999150 1_556
Mo3 O11 2.199775 1_555
Mo3 O0 2.492525 1_556
