# generated using pymatgen
data_CeP3
_symmetry_space_group_name_H-M   'P 1'
_cell_length_a   5.60879839
_cell_length_b   5.60879839
_cell_length_c   5.27978700
_cell_angle_alpha   90.00000000
_cell_angle_beta   90.00000000
_cell_angle_gamma   120.00000457
_symmetry_Int_Tables_number   1
_chemical_formula_structural   CeP3
_chemical_formula_sum   'Ce2 P6'
_cell_volume   143.84231783
_cell_formula_units_Z   2
loop_
 _symmetry_equiv_pos_site_id
 _symmetry_equiv_pos_as_xyz
  1  'x, y, z'
loop_
 _atom_site_type_symbol
 _atom_site_label
 _atom_site_symmetry_multiplicity
 _atom_site_fract_x
 _atom_site_fract_y
 _atom_site_fract_z
 _atom_site_occupancy
  Ce  Ce0  1  0.33333300  0.66666700  0.75000000  1
  Ce  Ce1  1  0.66666700  0.33333300  0.25000000  1
  P  P0  1  0.15089300  0.30178600  0.25000000  1
  P  P1  1  0.69821400  0.84910700  0.25000000  1
  P  P2  1  0.15089300  0.84910700  0.25000000  1
  P  P3  1  0.84910700  0.69821400  0.75000000  1
  P  P4  1  0.30178600  0.15089300  0.75000000  1
  P  P5  1  0.84910700  0.15089300  0.75000000  1
loop_
_geom_bond_atom_site_label_1
_geom_bond_atom_site_label_2
_geom_bond_distance
_geom_bond_site_symmetry_2
Ce0 P4 2.808580 1_565
Ce0 P3 2.808580 1_455
Ce0 P5 2.808583 1_455
Ce0 P5 2.808583 1_565
Ce0 P3 2.808585 1_555
Ce0 P4 2.808585 1_555
Ce0 P2 3.179666 1_556
Ce0 P2 3.179666 1_555
Ce0 P1 3.179669 1_556
Ce0 P0 3.179669 1_555
Ce0 P0 3.179669 1_556
Ce0 P1 3.179669 1_555
Ce1 P0 2.808580 1_655
Ce1 P1 2.808580 1_545
Ce1 P2 2.808583 1_655
Ce1 P2 2.808583 1_545
Ce1 P1 2.808585 1_555
Ce1 P0 2.808585 1_555
Ce1 P5 3.179666 1_554
Ce1 P5 3.179666 1_555
Ce1 P4 3.179669 1_554
Ce1 P3 3.179669 1_555
Ce1 P4 3.179669 1_555
Ce1 P3 3.179669 1_554
P0 P1 2.538985 1_445
P0 P2 2.538985 1_545
P1 P2 2.538985 1_655
P3 P4 2.538985 1_665
P3 P5 2.538985 1_565
P4 P5 2.538985 1_455
