# generated using pymatgen
data_La4Cu3Sb8
_symmetry_space_group_name_H-M   'P 1'
_cell_length_a   10.99467157
_cell_length_b   10.99467420
_cell_length_c   10.99270325
_cell_angle_alpha   146.78772754
_cell_angle_beta   146.78727923
_cell_angle_gamma   47.67544675
_symmetry_Int_Tables_number   1
_chemical_formula_structural   La4Cu3Sb8
_chemical_formula_sum   'La4 Cu3 Sb8'
_cell_volume   397.10708329
_cell_formula_units_Z   1
loop_
 _symmetry_equiv_pos_site_id
 _symmetry_equiv_pos_as_xyz
  1  'x, y, z'
loop_
 _atom_site_type_symbol
 _atom_site_label
 _atom_site_symmetry_multiplicity
 _atom_site_fract_x
 _atom_site_fract_y
 _atom_site_fract_z
 _atom_site_occupancy
  La  La0  1  0.62978941  0.62978416  0.50089397  1
  La  La1  1  0.12884722  0.12883969  0.49911216  1
  La  La2  1  0.37015067  0.87111256  0.99995333  1
  La  La3  1  0.87111512  0.37014830  -0.00005019  1
  Cu  Cu0  1  0.00022348  0.00022738  0.00044460  1
  Cu  Cu1  1  0.99981566  0.49984633  0.49962146  1
  Cu  Cu2  1  0.49985815  0.99983779  0.49966291  1
  Sb  Sb0  1  0.32077219  0.32077121  0.50561410  1
  Sb  Sb1  1  0.81552475  0.81552605  0.49501429  1
  Sb  Sb2  1  0.67930759  0.18457652  0.99987520  1
  Sb  Sb3  1  0.18459093  0.67931318  0.99989319  1
  Sb  Sb4  1  0.24993981  0.24993154  0.00006778  1
  Sb  Sb5  1  0.75032066  0.75034035  0.00003873  1
  Sb  Sb6  1  0.74986633  0.24989152  0.49994151  1
  Sb  Sb7  1  0.24987901  0.74985142  0.49991793  1
loop_
_geom_bond_atom_site_label_1
_geom_bond_atom_site_label_2
_geom_bond_distance
_geom_bond_site_symmetry_2
La0 Sb3 3.302716 1_554
La0 Sb2 3.302720 1_554
La0 Sb2 3.328712 1_565
La0 Sb3 3.328805 1_655
La0 Sb5 3.412998 1_556
La0 Sb6 3.422403 1_555
La0 Sb7 3.422455 1_555
La0 Sb4 3.425661 1_555
La1 Sb2 3.302980 1_555
La1 Sb3 3.303021 1_555
La1 Sb3 3.329097 1_544
La1 Sb2 3.329202 1_454
La1 Sb5 3.413538 1_445
La1 Sb7 3.421773 1_545
La1 Sb6 3.421779 1_455
La1 Sb4 3.423680 1_556
La2 Sb0 3.302229 1_555
La2 Sb1 3.303402 1_556
La2 Sb1 3.327741 1_455
La2 Sb0 3.329546 1_566
La2 Sb4 3.416861 1_566
La2 Sb7 3.418974 1_555
La2 Sb6 3.420418 1_566
La2 Sb5 3.428639 1_556
La3 Sb0 3.302277 1_554
La3 Sb1 3.303407 1_555
La3 Sb1 3.327682 1_544
La3 Sb0 3.329599 1_655
La3 Sb4 3.416865 1_655
La3 Sb6 3.418897 1_554
La3 Sb7 3.420302 1_655
La3 Sb5 3.428740 1_555
Cu0 Sb0 2.628589 1_555
Cu0 Sb2 2.628916 1_454
Cu0 Sb3 2.628970 1_544
Cu0 Sb1 2.629067 1_444
Cu0 La1 3.286275 1_555
Cu0 La3 3.287275 1_455
Cu0 La2 3.287284 1_544
Cu0 La0 3.289646 1_444
Cu1 Sb0 2.608653 1_655
Cu1 Sb2 2.608714 1_554
Cu1 Sb1 2.608921 1_555
Cu1 Sb3 2.609625 1_655
Cu1 La3 3.288111 1_555
Cu1 La0 3.290477 1_555
Cu1 La1 3.291477 1_655
Cu1 La2 3.291568 1_655
Cu2 Sb0 2.608645 1_565
Cu2 Sb3 2.608753 1_554
Cu2 Sb1 2.608990 1_555
Cu2 Sb2 2.609370 1_565
Cu2 La2 3.288252 1_554
Cu2 La0 3.290485 1_555
Cu2 La1 3.291345 1_565
Cu2 La3 3.291517 1_566
Sb4 Sb7 3.141366 1_555
Sb4 Sb6 3.141436 1_555
Sb4 Sb7 3.142429 1_544
Sb4 Sb6 3.142440 1_454
Sb5 Sb6 3.141617 1_565
Sb5 Sb7 3.141715 1_655
Sb5 Sb7 3.142182 1_554
Sb5 Sb6 3.142199 1_554
