# generated using pymatgen
data_BaSr6Fe3Bi3O16
_symmetry_space_group_name_H-M   'P 1'
_cell_length_a   3.81482200
_cell_length_b   3.81482200
_cell_length_c   31.42137907
_cell_angle_alpha   86.51976345
_cell_angle_beta   86.51976345
_cell_angle_gamma   90.00000000
_symmetry_Int_Tables_number   1
_chemical_formula_structural   BaSr6Fe3Bi3O16
_chemical_formula_sum   'Ba1 Sr6 Fe3 Bi3 O16'
_cell_volume   455.58298447
_cell_formula_units_Z   1
loop_
 _symmetry_equiv_pos_site_id
 _symmetry_equiv_pos_as_xyz
  1  'x, y, z'
loop_
 _atom_site_type_symbol
 _atom_site_label
 _atom_site_symmetry_multiplicity
 _atom_site_fract_x
 _atom_site_fract_y
 _atom_site_fract_z
 _atom_site_occupancy
  Ba  Ba0  1  0.57687800  0.57687800  0.84624300  1
  Sr  Sr0  1  0.03091500  0.03091500  0.93817000  1
  Sr  Sr1  1  0.97071300  0.97071300  0.05857400  1
  Sr  Sr2  1  0.66773900  0.66773900  0.66452200  1
  Sr  Sr3  1  0.33226000  0.33226000  0.33548000  1
  Sr  Sr4  1  0.72769200  0.72769200  0.54461600  1
  Sr  Sr5  1  0.27213500  0.27213500  0.45572900  1
  Fe  Fe0  1  0.20050500  0.20050500  0.59899000  1
  Fe  Fe1  1  0.79937000  0.79937000  0.40125900  1
  Fe  Fe2  1  0.50327500  0.50327500  0.99344900  1
  Bi  Bi0  1  0.42598800  0.42598800  0.14802500  1
  Bi  Bi1  1  0.12285000  0.12285000  0.75429900  1
  Bi  Bi2  1  0.87741000  0.87741000  0.24518000  1
  O  O0  1  0.15596700  0.15596700  0.68806600  1
  O  O1  1  0.84439200  0.84439200  0.31121600  1
  O  O2  1  0.69550500  0.19550500  0.60899000  1
  O  O3  1  0.19550500  0.69550500  0.60899000  1
  O  O4  1  0.30456800  0.80456800  0.39086500  1
  O  O5  1  0.80456800  0.30456800  0.39086500  1
  O  O6  1  0.07487400  0.07487400  0.85025200  1
  O  O7  1  0.92616600  0.92616600  0.14766800  1
  O  O8  1  0.49848200  0.99848200  0.00303700  1
  O  O9  1  0.99848200  0.49848200  0.00303700  1
  O  O10  1  0.53458900  0.53458900  0.93082200  1
  O  O11  1  0.45913900  0.45913900  0.08172200  1
  O  O12  1  0.62259400  0.62259400  0.75481200  1
  O  O13  1  0.37747600  0.37747600  0.24504800  1
  O  O14  1  0.23198800  0.23198800  0.53602500  1
  O  O15  1  0.76797700  0.76797700  0.46404700  1
loop_
_geom_bond_atom_site_label_1
_geom_bond_atom_site_label_2
_geom_bond_distance
_geom_bond_site_symmetry_2
Ba0 O10 2.647777 1_555
Ba0 O6 2.700402 1_555
Ba0 O6 2.700405 1_655
Ba0 O6 2.700405 1_565
Ba0 O6 2.700407 1_665
Ba0 O12 2.862282 1_555
Fe0 O3 1.932930 1_545
Fe0 O2 1.932930 1_455
Fe0 O2 1.932930 1_555
Fe0 O3 1.932930 1_555
Fe0 O14 1.971143 1_555
Fe1 O5 1.934962 1_555
Fe1 O4 1.934962 1_555
Fe1 O4 1.934970 1_655
Fe1 O5 1.934970 1_565
Fe1 O15 1.965602 1_555
Fe2 O9 1.930880 1_456
Fe2 O8 1.930880 1_546
Fe2 O8 1.930887 1_556
Fe2 O9 1.930887 1_556
Fe2 O10 1.960562 1_555
Fe2 O11 2.763420 1_556
Bi0 O11 2.075640 1_555
Bi0 O7 2.697507 1_555
Bi0 O7 2.697510 1_545
Bi0 O7 2.697510 1_455
Bi0 O7 2.697512 1_445
Bi1 O0 2.073449 1_555
Bi1 O12 2.697532 1_445
Bi1 O12 2.697534 1_545
Bi1 O12 2.697534 1_455
Bi1 O12 2.697537 1_555
Bi2 O1 2.067282 1_555
Bi2 O13 2.697490 1_665
Bi2 O13 2.697490 1_655
Bi2 O13 2.697490 1_565
Bi2 O13 2.697490 1_555
O0 Sr2 2.796369 1_445
O0 Sr2 2.796369 1_455
O0 Sr2 2.796369 1_555
O0 Sr2 2.796369 1_545
O1 Sr3 2.802395 1_655
O1 Sr3 2.802395 1_665
O1 Sr3 2.802395 1_555
O1 Sr3 2.802395 1_565
O2 Sr2 2.580780 1_555
O2 Sr2 2.580780 1_545
O2 Sr4 2.774790 1_555
O2 Sr4 2.774790 1_545
O3 Sr2 2.580780 1_555
O3 Sr2 2.580780 1_455
O3 Sr4 2.774790 1_555
O3 Sr4 2.774790 1_455
O4 Sr3 2.577681 1_565
O4 Sr3 2.577684 1_555
O4 Sr5 2.785948 1_565
O4 Sr5 2.785953 1_555
O5 Sr3 2.577681 1_655
O5 Sr3 2.577684 1_555
O5 Sr5 2.785948 1_655
O5 Sr5 2.785953 1_555
O6 Sr0 2.752306 1_555
O7 Sr1 2.789121 1_555
O8 Sr1 2.580884 1_555
O8 Sr1 2.580887 1_455
O8 Sr0 2.786018 1_664
O8 Sr0 2.786020 1_564
O9 Sr1 2.580884 1_555
O9 Sr1 2.580887 1_545
O9 Sr0 2.786018 1_664
O9 Sr0 2.786020 1_654
O10 Sr0 2.707277 1_555
O10 Sr0 2.707277 1_655
O10 Sr0 2.707277 1_565
O10 Sr0 2.707277 1_665
O11 Sr1 2.793127 1_555
O11 Sr1 2.793127 1_455
O11 Sr1 2.793127 1_545
O11 Sr1 2.793127 1_445
O12 Sr2 2.826562 1_555
O13 Sr3 2.831008 1_555
O14 Sr5 2.513697 1_555
O14 Sr4 2.710858 1_555
O14 Sr4 2.710860 1_545
O14 Sr4 2.710860 1_455
O14 Sr4 2.710863 1_445
O15 Sr4 2.522243 1_555
O15 Sr5 2.710021 1_665
O15 Sr5 2.710026 1_655
O15 Sr5 2.710026 1_565
O15 Sr5 2.710031 1_555
