# generated using pymatgen
data_NaBH4
_symmetry_space_group_name_H-M   'P 1'
_cell_length_a   4.39788800
_cell_length_b   4.66271400
_cell_length_c   7.63104427
_cell_angle_alpha   79.21702272
_cell_angle_beta   90.00000000
_cell_angle_gamma   90.00000000
_symmetry_Int_Tables_number   1
_chemical_formula_structural   NaBH4
_chemical_formula_sum   'Na2 B2 H8'
_cell_volume   153.71987307
_cell_formula_units_Z   2
loop_
 _symmetry_equiv_pos_site_id
 _symmetry_equiv_pos_as_xyz
  1  'x, y, z'
loop_
 _atom_site_type_symbol
 _atom_site_label
 _atom_site_symmetry_multiplicity
 _atom_site_fract_x
 _atom_site_fract_y
 _atom_site_fract_z
 _atom_site_occupancy
  Na  Na0  1  0.00000000  0.84638300  0.07752400  1
  Na  Na1  1  0.00000000  0.03168600  0.58745600  1
  B  B0  1  0.00000000  0.61281600  0.40151500  1
  B  B1  1  0.50000000  0.93282700  0.84851900  1
  H  H0  1  0.27912200  0.77455200  0.84070800  1
  H  H1  1  0.72087800  0.77455200  0.84070800  1
  H  H2  1  0.76951200  0.75953900  0.36126200  1
  H  H3  1  0.23048800  0.75953900  0.36126200  1
  H  H4  1  0.00000000  0.52677700  0.56330800  1
  H  H5  1  0.00000000  0.40729400  0.32084300  1
  H  H6  1  0.50000000  0.02832800  0.98881700  1
  H  H7  1  0.50000000  0.14168800  0.72408900  1
loop_
_geom_bond_atom_site_label_1
_geom_bond_atom_site_label_2
_geom_bond_distance
_geom_bond_site_symmetry_2
B0 H4 1.224731 1_555
B0 H3 1.229333 1_555
B0 H2 1.229333 1_455
B0 H5 1.232087 1_555
B1 H7 1.226378 1_565
B1 H0 1.228110 1_555
B1 H1 1.228110 1_555
B1 H6 1.234059 1_565
H0 Na0 2.260825 1_556
H0 Na1 2.410850 1_565
H1 Na0 2.260825 1_656
H1 Na1 2.410850 1_665
H2 Na0 2.356178 1_655
H2 Na1 2.537066 1_665
H3 Na0 2.356178 1_555
H3 Na1 2.537066 1_565
H4 Na1 2.281186 1_555
H4 Na1 2.395571 1_565
H5 Na1 2.423489 1_555
H5 Na0 2.493356 1_555
H6 Na0 2.407989 1_546
H6 Na0 2.407989 1_646
H7 Na1 2.526986 1_555
H7 Na1 2.526986 1_655
