# generated using pymatgen
data_KPm3
_symmetry_space_group_name_H-M   'P 1'
_cell_length_a   6.64022818
_cell_length_b   6.64022818
_cell_length_c   6.64022818
_cell_angle_alpha   133.28591169
_cell_angle_beta   133.28591169
_cell_angle_gamma   68.20549639
_symmetry_Int_Tables_number   1
_chemical_formula_structural   KPm3
_chemical_formula_sum   'K1 Pm3'
_cell_volume   152.42458357
_cell_formula_units_Z   1
loop_
 _symmetry_equiv_pos_site_id
 _symmetry_equiv_pos_as_xyz
  1  'x, y, z'
loop_
 _atom_site_type_symbol
 _atom_site_label
 _atom_site_symmetry_multiplicity
 _atom_site_fract_x
 _atom_site_fract_y
 _atom_site_fract_z
 _atom_site_occupancy
  K  K0  1  0.00000000  0.00000000  0.00000000  1
  Pm  Pm0  1  0.75000000  0.25000000  0.50000000  1
  Pm  Pm1  1  0.25000000  0.75000000  0.50000000  1
  Pm  Pm2  1  0.50000000  0.50000000  0.00000000  1
loop_
_geom_bond_atom_site_label_1
_geom_bond_atom_site_label_2
_geom_bond_distance
_geom_bond_site_symmetry_2
K0 Pm2 3.723035 1_545
K0 Pm2 3.723035 1_455
K0 Pm2 3.723035 1_556
K0 Pm2 3.723035 1_444
K0 Pm1 3.806364 1_555
K0 Pm0 3.806364 1_444
K0 Pm0 3.806364 1_555
K0 Pm0 3.806364 1_454
K0 Pm1 3.806364 1_444
K0 Pm1 3.806364 1_544
K0 Pm1 3.806364 1_545
K0 Pm0 3.806364 1_455
Pm0 Pm1 3.723035 1_555
Pm0 Pm1 3.723035 1_645
Pm0 Pm1 3.723035 1_656
Pm0 Pm1 3.723035 1_544
Pm0 Pm2 3.806364 1_555
Pm0 Pm2 3.806364 1_545
Pm0 Pm2 3.806364 1_556
Pm0 Pm2 3.806364 1_656
Pm1 Pm2 3.806364 1_555
Pm1 Pm2 3.806364 1_566
Pm1 Pm2 3.806364 1_455
Pm1 Pm2 3.806364 1_556
