# generated using pymatgen
data_BaLiTi2Bi2O
_symmetry_space_group_name_H-M   'P 1'
_cell_length_a   3.94267400
_cell_length_b   4.91544700
_cell_length_c   8.21563300
_cell_angle_alpha   90.00000000
_cell_angle_beta   90.00000000
_cell_angle_gamma   90.00000000
_symmetry_Int_Tables_number   1
_chemical_formula_structural   BaLiTi2Bi2O
_chemical_formula_sum   'Ba1 Li1 Ti2 Bi2 O1'
_cell_volume   159.21900932
_cell_formula_units_Z   1
loop_
 _symmetry_equiv_pos_site_id
 _symmetry_equiv_pos_as_xyz
  1  'x, y, z'
loop_
 _atom_site_type_symbol
 _atom_site_label
 _atom_site_symmetry_multiplicity
 _atom_site_fract_x
 _atom_site_fract_y
 _atom_site_fract_z
 _atom_site_occupancy
  Ba  Ba0  1  0.50000000  0.50000000  0.50000000  1
  Li  Li0  1  0.50000000  0.00000000  0.50000000  1
  Ti  Ti0  1  0.00000000  0.50000000  0.00000000  1
  Ti  Ti1  1  0.50000000  0.00000000  0.00000000  1
  Bi  Bi0  1  0.00000000  0.00000000  0.25739500  1
  Bi  Bi1  1  0.00000000  0.00000000  0.74260500  1
  O  O0  1  0.50000000  0.50000000  0.00000000  1
loop_
_geom_bond_atom_site_label_1
_geom_bond_atom_site_label_2
_geom_bond_distance
_geom_bond_site_symmetry_2
Ba0 Li0 2.457724 1_555
Ba0 Li0 2.457724 1_565
Bi0 Li0 2.803361 1_455
Bi0 Li0 2.803361 1_555
Bi0 Ti1 2.891015 1_455
Bi0 Ti1 2.891015 1_555
Bi1 Li0 2.803361 1_455
Bi1 Li0 2.803361 1_555
Bi1 Ti1 2.891015 1_556
Bi1 Ti1 2.891015 1_456
O0 Ti0 1.971337 1_555
O0 Ti0 1.971337 1_655
O0 Ti1 2.457724 1_565
O0 Ti1 2.457724 1_555
