# generated using pymatgen
data_PrAsSe
_symmetry_space_group_name_H-M   'P 1'
_cell_length_a   4.01769005
_cell_length_b   4.11201503
_cell_length_c   18.16704701
_cell_angle_alpha   90.00000000
_cell_angle_beta   90.00000000
_cell_angle_gamma   90.00000000
_symmetry_Int_Tables_number   1
_chemical_formula_structural   PrAsSe
_chemical_formula_sum   'Pr4 As4 Se4'
_cell_volume   300.13418424
_cell_formula_units_Z   4
loop_
 _symmetry_equiv_pos_site_id
 _symmetry_equiv_pos_as_xyz
  1  'x, y, z'
loop_
 _atom_site_type_symbol
 _atom_site_label
 _atom_site_symmetry_multiplicity
 _atom_site_fract_x
 _atom_site_fract_y
 _atom_site_fract_z
 _atom_site_occupancy
  Pr  Pr0  1  0.75000000  0.72727146  0.64008810  1
  Pr  Pr1  1  0.25000000  0.27272854  0.35991190  1
  Pr  Pr2  1  0.75000000  0.77272854  0.14008810  1
  Pr  Pr3  1  0.25000000  0.22727146  0.85991190  1
  As  As0  1  0.25000000  0.69506838  0.99728966  1
  As  As1  1  0.75000000  0.30493162  0.00271034  1
  As  As2  1  0.25000000  0.80493162  0.49728966  1
  As  As3  1  0.75000000  0.19506838  0.50271034  1
  Se  Se0  1  0.75000000  0.72956753  0.81277292  1
  Se  Se1  1  0.25000000  0.27043247  0.18722708  1
  Se  Se2  1  0.75000000  0.77043247  0.31277292  1
  Se  Se3  1  0.25000000  0.22956753  0.68722708  1
loop_
_geom_bond_atom_site_label_1
_geom_bond_atom_site_label_2
_geom_bond_distance
_geom_bond_site_symmetry_2
Pr0 Se3 2.992870 1_555
Pr0 Se3 2.992870 1_655
Pr0 Se3 3.005814 1_565
Pr0 Se3 3.005814 1_665
Pr0 Se0 3.137187 1_555
Pr1 Se2 2.992870 1_455
Pr1 Se2 2.992870 1_555
Pr1 Se2 3.005814 1_445
Pr1 Se2 3.005814 1_545
Pr1 Se1 3.137187 1_555
Pr2 Se1 2.992870 1_565
Pr2 Se1 2.992870 1_665
Pr2 Se1 3.005814 1_555
Pr2 Se1 3.005814 1_655
Pr2 Se2 3.137187 1_555
Pr3 Se0 2.992870 1_445
Pr3 Se0 2.992870 1_545
Pr3 Se0 3.005814 1_455
Pr3 Se0 3.005814 1_555
Pr3 Se3 3.137187 1_555
As0 As1 2.572697 1_556
As0 As1 2.572697 1_456
As0 Pr3 3.151024 1_555
As0 Pr2 3.296581 1_556
As0 Pr2 3.296581 1_456
As0 Pr3 3.319333 1_565
As1 Pr2 3.151024 1_555
As1 Pr3 3.296581 1_554
As1 Pr3 3.296581 1_654
As1 Pr2 3.319333 1_545
As2 As3 2.572697 1_465
As2 As3 2.572697 1_565
As2 Pr1 3.151024 1_565
As2 Pr0 3.296581 1_555
As2 Pr0 3.296581 1_455
As2 Pr1 3.319333 1_555
As3 Pr0 3.151024 1_545
As3 Pr1 3.296581 1_555
As3 Pr1 3.296581 1_655
As3 Pr0 3.319333 1_555
