# generated using pymatgen
data_SrICl
_symmetry_space_group_name_H-M   'P 1'
_cell_length_a   4.53904700
_cell_length_b   8.44836500
_cell_length_c   10.34183900
_cell_angle_alpha   90.00000000
_cell_angle_beta   90.00000000
_cell_angle_gamma   90.00000000
_symmetry_Int_Tables_number   1
_chemical_formula_structural   SrICl
_chemical_formula_sum   'Sr4 I4 Cl4'
_cell_volume   396.58393796
_cell_formula_units_Z   4
loop_
 _symmetry_equiv_pos_site_id
 _symmetry_equiv_pos_as_xyz
  1  'x, y, z'
loop_
 _atom_site_type_symbol
 _atom_site_label
 _atom_site_symmetry_multiplicity
 _atom_site_fract_x
 _atom_site_fract_y
 _atom_site_fract_z
 _atom_site_occupancy
  Sr  Sr0  1  0.25000000  0.68644500  0.62957500  1
  Sr  Sr1  1  0.75000000  0.31355500  0.37042500  1
  Sr  Sr2  1  0.75000000  0.81355500  0.12957500  1
  Sr  Sr3  1  0.25000000  0.18644500  0.87042500  1
  I  I0  1  0.25000000  0.50166300  0.17575400  1
  I  I1  1  0.75000000  0.49833700  0.82424600  1
  I  I2  1  0.75000000  0.99833700  0.67575400  1
  I  I3  1  0.25000000  0.00166300  0.32424600  1
  Cl  Cl0  1  0.25000000  0.84708800  0.95008600  1
  Cl  Cl1  1  0.75000000  0.15291200  0.04991400  1
  Cl  Cl2  1  0.75000000  0.65291200  0.45008600  1
  Cl  Cl3  1  0.25000000  0.34708800  0.54991400  1
loop_
_geom_bond_atom_site_label_1
_geom_bond_atom_site_label_2
_geom_bond_distance
_geom_bond_site_symmetry_2
I0 Sr1 3.424837 1_455
I0 Sr1 3.424837 1_555
I0 Sr2 3.510259 1_455
I0 Sr2 3.510259 1_555
I1 Sr0 3.424837 1_555
I1 Sr0 3.424837 1_655
I1 Sr3 3.510259 1_555
I1 Sr3 3.510259 1_655
I2 Sr3 3.424837 1_565
I2 Sr3 3.424837 1_665
I2 Sr0 3.510259 1_655
I2 Sr0 3.510259 1_555
I3 Sr2 3.424837 1_445
I3 Sr2 3.424837 1_545
I3 Sr1 3.510259 1_555
I3 Sr1 3.510259 1_455
Cl0 Sr2 2.945615 1_456
Cl0 Sr2 2.945615 1_556
Cl0 Sr3 2.983031 1_565
Cl0 Sr0 3.581755 1_555
Cl1 Sr3 2.945615 1_654
Cl1 Sr3 2.945615 1_554
Cl1 Sr2 2.983031 1_545
Cl1 Sr1 3.581755 1_555
Cl2 Sr0 2.945615 1_655
Cl2 Sr0 2.945615 1_555
Cl2 Sr1 2.983031 1_555
Cl2 Sr2 3.581755 1_555
Cl3 Sr1 2.945615 1_455
Cl3 Sr1 2.945615 1_555
Cl3 Sr0 2.983031 1_555
Cl3 Sr3 3.581755 1_555
