# generated using pymatgen
data_Rb3Ti4Tl(PO5)4
_symmetry_space_group_name_H-M   'P 1'
_cell_length_a   10.68823700
_cell_length_b   6.57544400
_cell_length_c   13.12518160
_cell_angle_alpha   89.90353048
_cell_angle_beta   90.00000000
_cell_angle_gamma   90.00000000
_symmetry_Int_Tables_number   1
_chemical_formula_structural   Rb3Ti4Tl(PO5)4
_chemical_formula_sum   'Rb6 Ti8 Tl2 P8 O40'
_cell_volume   922.43519368
_cell_formula_units_Z   2
loop_
 _symmetry_equiv_pos_site_id
 _symmetry_equiv_pos_as_xyz
  1  'x, y, z'
loop_
 _atom_site_type_symbol
 _atom_site_label
 _atom_site_symmetry_multiplicity
 _atom_site_fract_x
 _atom_site_fract_y
 _atom_site_fract_z
 _atom_site_occupancy
  Rb  Rb0  1  0.42484600  0.69523700  0.89437800  1
  Rb  Rb1  1  0.92484600  0.30476300  0.10562200  1
  Rb  Rb2  1  0.67430800  0.28291200  0.88318400  1
  Rb  Rb3  1  0.17430800  0.71708800  0.11681600  1
  Rb  Rb4  1  0.17354800  0.78422400  0.61614000  1
  Rb  Rb5  1  0.67354800  0.21577600  0.38386000  1
  Ti  Ti0  1  0.99779000  0.99862900  0.87128200  1
  Ti  Ti1  1  0.49779000  0.00137100  0.12871800  1
  Ti  Ti2  1  0.49794100  0.49815100  0.62913600  1
  Ti  Ti3  1  0.99794100  0.50184900  0.37086400  1
  Ti  Ti4  1  0.74618700  0.76545900  0.74688900  1
  Ti  Ti5  1  0.24618700  0.23454100  0.25311100  1
  Ti  Ti6  1  0.24626900  0.26467600  0.75297300  1
  Ti  Ti7  1  0.74626900  0.73532400  0.24702700  1
  Tl  Tl0  1  0.92484700  0.19920600  0.60492100  1
  Tl  Tl1  1  0.42484700  0.80079400  0.39507900  1
  P  P0  1  0.48787100  0.00238100  0.68022800  1
  P  P1  1  0.98787100  0.99761900  0.31977200  1
  P  P2  1  0.98793800  0.50180900  0.81961700  1
  P  P3  1  0.48793800  0.49819100  0.18038300  1
  P  P4  1  0.74091800  0.83461900  0.99963300  1
  P  P5  1  0.24091800  0.16538100  0.00036700  1
  P  P6  1  0.24069400  0.33500100  0.50003000  1
  P  P7  1  0.74069400  0.66499900  0.49997000  1
  O  O0  1  0.85219100  0.97975400  0.98607500  1
  O  O1  1  0.35219100  0.02024600  0.01392500  1
  O  O2  1  0.35230200  0.48115600  0.51304800  1
  O  O3  1  0.85230200  0.51884400  0.48695200  1
  O  O4  1  0.76208300  0.69595400  0.09511700  1
  O  O5  1  0.26208300  0.30404600  0.90488300  1
  O  O6  1  0.26147100  0.19712000  0.40465600  1
  O  O7  1  0.76147100  0.80288000  0.59534400  1
  O  O8  1  0.51664500  0.19196400  0.61404000  1
  O  O9  1  0.01664500  0.80803600  0.38596000  1
  O  O10  1  0.01663800  0.69117200  0.88585000  1
  O  O11  1  0.51663800  0.30882800  0.11415000  1
  O  O12  1  0.37302500  0.04446700  0.75099400  1
  O  O13  1  0.87302500  0.95553300  0.24900600  1
  O  O14  1  0.87302400  0.54450800  0.74873600  1
  O  O15  1  0.37302400  0.45549200  0.25126400  1
  O  O16  1  0.61186300  0.54846100  0.72298200  1
  O  O17  1  0.11186300  0.45153900  0.27701800  1
  O  O18  1  0.11232800  0.04870500  0.77743600  1
  O  O19  1  0.61232800  0.95129500  0.22256400  1
  O  O20  1  0.35856700  0.45978700  0.72065200  1
  O  O21  1  0.85856700  0.54021300  0.27934800  1
  O  O22  1  0.85837400  0.96053300  0.77907800  1
  O  O23  1  0.35837400  0.03946700  0.22092200  1
  O  O24  1  0.60107900  0.95782000  0.75133900  1
  O  O25  1  0.10107900  0.04218000  0.24866100  1
  O  O26  1  0.10135200  0.45814200  0.74857200  1
  O  O27  1  0.60135200  0.54185800  0.25142800  1
  O  O28  1  0.61825400  0.96108100  0.01432500  1
  O  O29  1  0.11825400  0.03891900  0.98567500  1
  O  O30  1  0.11792900  0.46119100  0.48577800  1
  O  O31  1  0.61792900  0.53880900  0.51422200  1
  O  O32  1  0.45758000  0.81267300  0.61481000  1
  O  O33  1  0.95758000  0.18732700  0.38519000  1
  O  O34  1  0.95756600  0.31270500  0.88539000  1
  O  O35  1  0.45756600  0.68729500  0.11461000  1
  O  O36  1  0.71937500  0.70302400  0.90248000  1
  O  O37  1  0.21937500  0.29697600  0.09752000  1
  O  O38  1  0.22027700  0.20391100  0.59750400  1
  O  O39  1  0.72027700  0.79608900  0.40249600  1
loop_
_geom_bond_atom_site_label_1
_geom_bond_atom_site_label_2
_geom_bond_distance
_geom_bond_site_symmetry_2
O0 P4 1.535024 1_555
O0 Ti0 2.169471 1_555
O0 Rb1 2.764676 1_566
O0 Rb2 3.066447 1_565
O1 P5 1.535024 1_555
O1 Ti1 2.169471 1_555
O1 Rb0 2.764676 1_544
O1 Rb3 3.066447 1_545
O2 P6 1.541534 1_555
O2 Ti2 2.181222 1_555
O2 Tl1 2.721229 1_555
O2 Rb4 3.075955 1_555
O3 P7 1.541534 1_555
O3 Ti3 2.181222 1_555
O3 Tl0 2.721229 1_555
O3 Rb5 3.075955 1_555
O4 P4 1.565024 1_554
O4 Ti7 2.018105 1_555
O4 Rb1 3.108165 1_555
O5 P5 1.565024 1_556
O5 Ti6 2.018105 1_555
O5 Rb0 3.108165 1_555
O6 P6 1.562728 1_555
O6 Ti5 2.010454 1_555
O7 P7 1.562728 1_555
O7 Ti4 2.010454 1_555
O8 P0 1.549071 1_555
O8 Ti2 2.033226 1_555
O8 Rb5 3.458711 1_555
O9 P1 1.549071 1_455
O9 Ti3 2.033226 1_455
O9 Rb4 3.458711 1_555
O10 P2 1.550435 1_455
O10 Ti0 2.040337 1_455
O10 Rb3 3.472829 1_556
O11 P3 1.550435 1_555
O11 Ti1 2.040337 1_555
O11 Rb2 3.472829 1_554
O12 P0 1.564259 1_555
O12 Ti6 1.983155 1_555
O12 Rb0 3.017800 1_545
O12 Rb4 3.258368 1_545
O13 P1 1.564259 1_555
O13 Ti7 1.983155 1_555
O13 Rb1 3.017800 1_565
O13 Rb5 3.258368 1_565
O14 P2 1.565886 1_555
O14 Ti4 1.987227 1_555
O14 Rb2 3.251709 1_555
O15 P3 1.565886 1_555
O15 Ti5 1.987227 1_555
O15 Rb3 3.251709 1_555
O16 Ti2 1.763694 1_555
O16 Ti4 2.048680 1_555
O16 Rb2 2.811269 1_555
O16 Rb0 3.161488 1_555
O17 Ti3 1.763694 1_455
O17 Ti5 2.048680 1_555
O17 Rb3 2.811269 1_555
O17 Rb1 3.161488 1_455
O18 Ti0 1.767184 1_445
O18 Ti6 2.041498 1_555
O18 Rb4 2.819008 1_545
O19 Ti1 1.767184 1_565
O19 Ti7 2.041498 1_555
O19 Rb5 2.819008 1_565
O20 Ti6 1.806851 1_555
O20 Ti2 1.929897 1_555
O20 Rb0 2.847781 1_555
O20 Rb4 3.214571 1_555
O21 Ti7 1.806851 1_555
O21 Ti3 1.929897 1_555
O21 Rb1 2.847781 1_555
O21 Rb5 3.214571 1_555
O22 Ti4 1.806497 1_555
O22 Ti0 1.936175 1_555
O22 Rb2 3.200117 1_565
O23 Ti5 1.806497 1_555
O23 Ti1 1.936175 1_555
O23 Rb3 3.200117 1_545
O24 P0 1.555683 1_565
O24 Ti4 2.002241 1_555
O24 Rb2 2.861659 1_565
O24 Rb0 3.169059 1_555
O25 P1 1.555683 1_445
O25 Ti5 2.002241 1_555
O25 Rb3 2.861659 1_545
O25 Rb1 3.169059 1_455
O26 P2 1.556368 1_455
O26 Ti6 2.005120 1_555
O26 Rb4 2.863829 1_555
O27 P3 1.556368 1_555
O27 Ti7 2.005120 1_555
O27 Rb5 2.863829 1_555
O28 P4 1.564632 1_554
O28 Ti1 1.995894 1_565
O28 Rb2 2.790628 1_564
O28 Rb0 3.133161 1_554
O29 P5 1.564632 1_556
O29 Ti0 1.995894 1_445
O29 Rb3 2.790628 1_546
O29 Rb1 3.133161 1_456
O30 P6 1.563547 1_555
O30 Ti3 1.997421 1_455
O30 Rb4 2.793739 1_555
O31 P7 1.563547 1_555
O31 Ti2 1.997421 1_555
O31 Rb5 2.793739 1_555
O32 P0 1.549742 1_565
O32 Ti2 2.120677 1_555
O32 Rb4 3.041608 1_555
O33 P1 1.549742 1_545
O33 Ti3 2.120677 1_555
O33 Rb5 3.041608 1_555
O34 P2 1.546988 1_555
O34 Ti0 2.117880 1_545
O34 Rb1 2.912045 1_556
O34 Rb2 3.034001 1_555
O35 P3 1.546988 1_555
O35 Ti1 2.117880 1_565
O35 Rb0 2.912045 1_554
O35 Rb3 3.034001 1_555
O36 P4 1.559320 1_555
O36 Ti4 2.101966 1_555
O36 Rb2 2.815937 1_555
O36 Rb0 3.150210 1_555
O37 P5 1.559320 1_555
O37 Ti5 2.101966 1_555
O37 Rb3 2.815937 1_555
O37 Rb1 3.150210 1_455
O38 P6 1.556817 1_555
O38 Ti6 2.098440 1_555
O38 Rb4 2.814704 1_545
O39 P7 1.556817 1_555
O39 Ti7 2.098440 1_555
O39 Rb5 2.814704 1_565
