# generated using pymatgen
data_KSmF4
_symmetry_space_group_name_H-M   'P 1'
_cell_length_a   3.67548860
_cell_length_b   6.15229400
_cell_length_c   15.43219620
_cell_angle_alpha   90.00000000
_cell_angle_beta   90.00000000
_cell_angle_gamma   90.00000000
_symmetry_Int_Tables_number   1
_chemical_formula_structural   KSmF4
_chemical_formula_sum   'K4 Sm4 F16'
_cell_volume   348.96341407
_cell_formula_units_Z   4
loop_
 _symmetry_equiv_pos_site_id
 _symmetry_equiv_pos_as_xyz
  1  'x, y, z'
loop_
 _atom_site_type_symbol
 _atom_site_label
 _atom_site_symmetry_multiplicity
 _atom_site_fract_x
 _atom_site_fract_y
 _atom_site_fract_z
 _atom_site_occupancy
  K  K0  1  0.75000000  0.72258342  0.79727476  1
  K  K1  1  0.25000000  0.27741658  0.20272524  1
  K  K2  1  0.75000000  0.22258342  0.70272524  1
  K  K3  1  0.25000000  0.77741658  0.29727476  1
  Sm  Sm0  1  0.25000000  0.74864712  0.55998209  1
  Sm  Sm1  1  0.75000000  0.25135288  0.44001791  1
  Sm  Sm2  1  0.25000000  0.24864712  0.94001791  1
  Sm  Sm3  1  0.75000000  0.75135288  0.05998209  1
  F  F0  1  0.25000000  0.90940424  0.69215945  1
  F  F1  1  0.75000000  0.09059576  0.30784055  1
  F  F2  1  0.25000000  0.40940424  0.80784055  1
  F  F3  1  0.75000000  0.59059576  0.19215945  1
  F  F4  1  0.75000000  0.60384200  0.63319925  1
  F  F5  1  0.25000000  0.39615800  0.36680075  1
  F  F6  1  0.75000000  0.10384200  0.86680075  1
  F  F7  1  0.25000000  0.89615800  0.13319925  1
  F  F8  1  0.75000000  0.63614977  0.46329047  1
  F  F9  1  0.25000000  0.36385023  0.53670953  1
  F  F10  1  0.75000000  0.13614977  0.03670953  1
  F  F11  1  0.25000000  0.86385023  0.96329047  1
  F  F12  1  0.25000000  0.49537695  0.05814789  1
  F  F13  1  0.75000000  0.50462305  0.94185211  1
  F  F14  1  0.25000000  0.99537695  0.44185211  1
  F  F15  1  0.75000000  0.00462305  0.55814789  1
loop_
_geom_bond_atom_site_label_1
_geom_bond_atom_site_label_2
_geom_bond_distance
_geom_bond_site_symmetry_2
F0 Sm0 2.266915 1_555
F0 K2 2.667646 1_565
F0 K2 2.667646 1_465
F0 K0 2.707356 1_455
F0 K0 2.707356 1_555
F1 Sm1 2.266915 1_555
F1 K3 2.667646 1_545
F1 K3 2.667646 1_645
F1 K1 2.707356 1_655
F1 K1 2.707356 1_555
F2 Sm2 2.266915 1_555
F2 K0 2.667646 1_455
F2 K0 2.667646 1_555
F2 K2 2.707356 1_555
F2 K2 2.707356 1_455
F3 Sm3 2.266915 1_555
F3 K1 2.667646 1_655
F3 K1 2.667646 1_555
F3 K3 2.707356 1_555
F3 K3 2.707356 1_655
F4 Sm0 2.334021 1_555
F4 Sm0 2.334021 1_655
F4 K2 2.579362 1_555
F4 K0 2.635324 1_555
F5 Sm1 2.334021 1_555
F5 Sm1 2.334021 1_455
F5 K3 2.579362 1_555
F5 K1 2.635324 1_555
F6 Sm2 2.334021 1_655
F6 Sm2 2.334021 1_555
F6 K0 2.579362 1_545
F6 K2 2.635324 1_555
F7 Sm3 2.334021 1_555
F7 Sm3 2.334021 1_455
F7 K1 2.579362 1_565
F7 K3 2.635324 1_555
F8 Sm1 2.394471 1_555
F8 Sm0 2.466350 1_655
F8 Sm0 2.466350 1_555
F9 Sm0 2.394471 1_555
F9 Sm1 2.466350 1_555
F9 Sm1 2.466350 1_455
F10 Sm3 2.394471 1_545
F10 Sm2 2.466350 1_654
F10 Sm2 2.466350 1_554
F11 Sm2 2.394471 1_565
F11 Sm3 2.466350 1_556
F11 Sm3 2.466350 1_456
F12 Sm2 2.372242 1_554
F12 Sm3 2.420377 1_455
F12 Sm3 2.420377 1_555
F12 K1 2.603109 1_555
F13 Sm3 2.372242 1_556
F13 Sm2 2.420377 1_655
F13 Sm2 2.420377 1_555
F13 K0 2.603109 1_555
F14 Sm0 2.372242 1_555
F14 Sm1 2.420377 1_465
F14 Sm1 2.420377 1_565
F14 K3 2.603109 1_555
F15 Sm1 2.372242 1_555
F15 Sm0 2.420377 1_645
F15 Sm0 2.420377 1_545
F15 K2 2.603109 1_555
