# generated using pymatgen
data_C3N2
_symmetry_space_group_name_H-M   'P 1'
_cell_length_a   5.08536200
_cell_length_b   5.08536200
_cell_length_c   5.08536200
_cell_angle_alpha   90.00000000
_cell_angle_beta   90.00000000
_cell_angle_gamma   90.00000000
_symmetry_Int_Tables_number   1
_chemical_formula_structural   C3N2
_chemical_formula_sum   'C12 N8'
_cell_volume   131.51207207
_cell_formula_units_Z   4
loop_
 _symmetry_equiv_pos_site_id
 _symmetry_equiv_pos_as_xyz
  1  'x, y, z'
loop_
 _atom_site_type_symbol
 _atom_site_label
 _atom_site_symmetry_multiplicity
 _atom_site_fract_x
 _atom_site_fract_y
 _atom_site_fract_z
 _atom_site_occupancy
  C  C0  1  0.50323500  0.84405200  0.15594800  1
  C  C1  1  0.84405200  0.84405200  0.49676500  1
  C  C2  1  0.84405200  0.50323500  0.15594800  1
  C  C3  1  0.50323500  0.15594800  0.84405200  1
  C  C4  1  0.84405200  0.15594800  0.50323500  1
  C  C5  1  0.84405200  0.49676500  0.84405200  1
  C  C6  1  0.49676500  0.84405200  0.84405200  1
  C  C7  1  0.15594800  0.84405200  0.50323500  1
  C  C8  1  0.15594800  0.50323500  0.84405200  1
  C  C9  1  0.49676500  0.15594800  0.15594800  1
  C  C10  1  0.15594800  0.15594800  0.49676500  1
  C  C11  1  0.15594800  0.49676500  0.15594800  1
  N  N0  1  0.75468200  0.75468200  0.24531800  1
  N  N1  1  0.75468200  0.24531800  0.75468200  1
  N  N2  1  0.24531800  0.75468200  0.75468200  1
  N  N3  1  0.24531800  0.24531800  0.24531800  1
  N  N4  1  0.26968400  0.26968400  0.73031600  1
  N  N5  1  0.26968400  0.73031600  0.26968400  1
  N  N6  1  0.73031600  0.26968400  0.26968400  1
  N  N7  1  0.73031600  0.73031600  0.73031600  1
loop_
_geom_bond_atom_site_label_1
_geom_bond_atom_site_label_2
_geom_bond_distance
_geom_bond_site_symmetry_2
C0 N0 1.431144 1_555
C0 N5 1.442109 1_555
C1 N0 1.431144 1_555
C1 N7 1.442109 1_555
C2 N0 1.431144 1_555
C2 N6 1.442109 1_555
C3 N1 1.431144 1_555
C3 N4 1.442109 1_555
C4 N1 1.431144 1_555
C4 N6 1.442109 1_555
C5 N1 1.431144 1_555
C5 N7 1.442109 1_555
C6 N2 1.431144 1_555
C6 N7 1.442109 1_555
C7 N2 1.431144 1_555
C7 N5 1.442109 1_555
C8 N2 1.431144 1_555
C8 N4 1.442109 1_555
C9 N3 1.431144 1_555
C9 N6 1.442109 1_555
C10 N3 1.431144 1_555
C10 N4 1.442109 1_555
C11 N3 1.431144 1_555
C11 N5 1.442109 1_555
