# generated using pymatgen
data_CsInTe3O8
_symmetry_space_group_name_H-M   'P 1'
_cell_length_a   5.92454600
_cell_length_b   7.95190671
_cell_length_c   11.49428439
_cell_angle_alpha   100.69879482
_cell_angle_beta   89.38906623
_cell_angle_gamma   110.27752326
_symmetry_Int_Tables_number   1
_chemical_formula_structural   CsInTe3O8
_chemical_formula_sum   'Cs2 In2 Te6 O16'
_cell_volume   498.27507420
_cell_formula_units_Z   2
loop_
 _symmetry_equiv_pos_site_id
 _symmetry_equiv_pos_as_xyz
  1  'x, y, z'
loop_
 _atom_site_type_symbol
 _atom_site_label
 _atom_site_symmetry_multiplicity
 _atom_site_fract_x
 _atom_site_fract_y
 _atom_site_fract_z
 _atom_site_occupancy
  Cs  Cs0  1  0.81900800  0.11013700  0.16142900  1
  Cs  Cs1  1  0.18099200  0.88986300  0.83857100  1
  In  In0  1  0.50000000  0.50000000  0.00000000  1
  In  In1  1  0.00000000  0.50000000  0.50000000  1
  Te  Te0  1  0.21826400  0.98818900  0.42080000  1
  Te  Te1  1  0.78173600  0.01181100  0.57920000  1
  Te  Te2  1  0.07636100  0.67484600  0.15260300  1
  Te  Te3  1  0.92363900  0.32515400  0.84739700  1
  Te  Te4  1  0.51373900  0.52388700  0.33465400  1
  Te  Te5  1  0.48626100  0.47611300  0.66534600  1
  O  O0  1  0.18440000  0.74336600  0.42283100  1
  O  O1  1  0.81560000  0.25663400  0.57716900  1
  O  O2  1  0.23217100  0.92559300  0.23406400  1
  O  O3  1  0.76782900  0.07440700  0.76593600  1
  O  O4  1  0.88524200  0.96374800  0.39781000  1
  O  O5  1  0.11475800  0.03625200  0.60219000  1
  O  O6  1  0.29436500  0.68672500  0.03020600  1
  O  O7  1  0.70563500  0.31327500  0.96979400  1
  O  O8  1  0.83620400  0.72221700  0.07106200  1
  O  O9  1  0.16379600  0.27778300  0.92893800  1
  O  O10  1  0.40645300  0.42332100  0.17322800  1
  O  O11  1  0.59354700  0.57667900  0.82677200  1
  O  O12  1  0.23981000  0.37204500  0.40222800  1
  O  O13  1  0.76019000  0.62795500  0.59777200  1
  O  O14  1  0.72553900  0.39597100  0.35134800  1
  O  O15  1  0.27446100  0.60402900  0.64865200  1
loop_
_geom_bond_atom_site_label_1
_geom_bond_atom_site_label_2
_geom_bond_distance
_geom_bond_site_symmetry_2
Cs0 O14 3.040171 1_555
Cs0 O8 3.103321 1_545
Cs0 O7 3.164977 1_554
Cs0 O4 3.225675 1_545
Cs0 O2 3.434364 1_545
Cs0 O2 3.439557 1_645
Cs0 O10 3.494318 1_655
Cs0 O9 3.522772 1_654
Cs0 O12 3.552689 1_655
Cs0 O6 3.772680 1_545
Cs1 O15 3.040171 1_555
Cs1 O9 3.103321 1_565
Cs1 O6 3.164977 1_556
Cs1 O5 3.225675 1_565
Cs1 O3 3.434364 1_565
Cs1 O3 3.439557 1_465
Cs1 O11 3.494318 1_455
Cs1 O8 3.522772 1_456
Cs1 O13 3.552689 1_455
Cs1 O7 3.772680 1_565
In0 O8 2.194604 1_555
In0 O9 2.194604 1_554
In0 O10 2.199220 1_555
In0 O11 2.199220 1_554
In0 O7 2.205196 1_554
In0 O6 2.205196 1_555
In1 O14 2.202259 1_455
In1 O15 2.202259 1_555
In1 O13 2.204589 1_455
In1 O12 2.204589 1_555
In1 O0 2.208311 1_555
In1 O1 2.208311 1_455
O0 Te0 1.891272 1_555
O1 Te1 1.891272 1_555
O2 Te2 1.937527 1_555
O2 Te0 2.118854 1_555
O3 Te3 1.937527 1_555
O3 Te1 2.118854 1_555
O4 Te0 1.930443 1_655
O4 Te1 2.169896 1_565
O5 Te1 1.930443 1_455
O5 Te0 2.169896 1_545
O6 Te2 1.892720 1_555
O7 Te3 1.892720 1_555
O8 Te2 1.890974 1_655
O9 Te3 1.890974 1_455
O10 Te4 1.899530 1_555
O11 Te5 1.899530 1_555
O12 Te4 1.912615 1_555
O13 Te5 1.912615 1_555
O14 Te4 1.899563 1_555
O15 Te5 1.899563 1_555
