# generated using pymatgen
data_Cu11PdN4
_symmetry_space_group_name_H-M   'P 1'
_cell_length_a   7.61003600
_cell_length_b   7.61003600
_cell_length_c   3.92015300
_cell_angle_alpha   90.00000000
_cell_angle_beta   90.00000000
_cell_angle_gamma   90.00000000
_symmetry_Int_Tables_number   1
_chemical_formula_structural   Cu11PdN4
_chemical_formula_sum   'Cu11 Pd1 N4'
_cell_volume   227.02644049
_cell_formula_units_Z   1
loop_
 _symmetry_equiv_pos_site_id
 _symmetry_equiv_pos_as_xyz
  1  'x, y, z'
loop_
 _atom_site_type_symbol
 _atom_site_label
 _atom_site_symmetry_multiplicity
 _atom_site_fract_x
 _atom_site_fract_y
 _atom_site_fract_z
 _atom_site_occupancy
  Cu  Cu0  1  0.50000000  0.50000000  0.50000000  1
  Cu  Cu1  1  0.24994100  0.50000000  0.00000000  1
  Cu  Cu2  1  0.75005900  0.50000000  0.00000000  1
  Cu  Cu3  1  0.50000000  0.75005900  0.00000000  1
  Cu  Cu4  1  0.50000000  0.24994100  0.00000000  1
  Cu  Cu5  1  0.00000000  0.50000000  0.50000000  1
  Cu  Cu6  1  0.50000000  0.00000000  0.50000000  1
  Cu  Cu7  1  0.25064900  0.00000000  0.00000000  1
  Cu  Cu8  1  0.74935100  0.00000000  0.00000000  1
  Cu  Cu9  1  0.00000000  0.74935100  0.00000000  1
  Cu  Cu10  1  0.00000000  0.25064900  0.00000000  1
  Pd  Pd0  1  0.00000000  0.00000000  0.50000000  1
  N  N0  1  0.00000000  0.00000000  0.00000000  1
  N  N1  1  0.50000000  0.50000000  0.00000000  1
  N  N2  1  0.00000000  0.50000000  0.00000000  1
  N  N3  1  0.50000000  0.00000000  0.00000000  1
loop_
_geom_bond_atom_site_label_1
_geom_bond_atom_site_label_2
_geom_bond_distance
_geom_bond_site_symmetry_2
Cu0 N1 1.960076 1_555
Cu0 N1 1.960076 1_556
Cu1 N2 1.902060 1_555
Cu1 N1 1.902958 1_555
Cu2 N2 1.902060 1_655
Cu2 N1 1.902958 1_555
Cu3 N3 1.902060 1_565
Cu3 N1 1.902958 1_555
Cu4 N3 1.902060 1_555
Cu4 N1 1.902958 1_555
Cu5 N2 1.960076 1_556
Cu5 N2 1.960076 1_555
Cu6 N3 1.960076 1_556
Cu6 N3 1.960076 1_555
Cu7 N3 1.897570 1_555
Cu7 N0 1.907448 1_555
Cu8 N3 1.897570 1_555
Cu8 N0 1.907448 1_655
Cu9 N2 1.897570 1_555
Cu9 N0 1.907448 1_565
Cu10 N2 1.897570 1_555
Cu10 N0 1.907448 1_555
N0 Pd0 1.960076 1_555
N0 Pd0 1.960076 1_554
