# generated using pymatgen
data_CaCr2F12
_symmetry_space_group_name_H-M   'P 1'
_cell_length_a   10.96610884
_cell_length_b   5.51361721
_cell_length_c   5.46397911
_cell_angle_alpha   54.69583688
_cell_angle_beta   54.91555771
_cell_angle_gamma   54.55714810
_symmetry_Int_Tables_number   1
_chemical_formula_structural   CaCr2F12
_chemical_formula_sum   'Ca1 Cr2 F12'
_cell_volume   204.88574958
_cell_formula_units_Z   1
loop_
 _symmetry_equiv_pos_site_id
 _symmetry_equiv_pos_as_xyz
  1  'x, y, z'
loop_
 _atom_site_type_symbol
 _atom_site_label
 _atom_site_symmetry_multiplicity
 _atom_site_fract_x
 _atom_site_fract_y
 _atom_site_fract_z
 _atom_site_occupancy
  Ca  Ca0  1  0.75000000  0.50000000  0.50000000  1
  Cr  Cr0  1  0.02560971  0.97650826  0.99043523  1
  Cr  Cr1  1  0.47439029  0.02349174  0.00956477  1
  F  F0  1  0.19938293  0.04889860  0.78382655  1
  F  F1  1  0.66540982  0.08782165  0.79827407  1
  F  F2  1  0.04356123  0.78961618  0.35866357  1
  F  F3  1  0.53064643  0.78269794  0.36147813  1
  F  F4  1  0.11970530  0.64098161  0.90196494  1
  F  F5  1  0.59689874  0.65206610  0.92981258  1
  F  F6  1  0.45643877  0.21038382  0.64133643  1
  F  F7  1  0.96935357  0.21730206  0.63852187  1
  F  F8  1  0.30061707  0.95110140  0.21617345  1
  F  F9  1  0.83459018  0.91217835  0.20172593  1
  F  F10  1  0.38029470  0.35901839  0.09803506  1
  F  F11  1  0.90310126  0.34793390  0.07018742  1
loop_
_geom_bond_atom_site_label_1
_geom_bond_atom_site_label_2
_geom_bond_distance
_geom_bond_site_symmetry_2
Ca0 F1 2.259947 1_555
Ca0 F9 2.259947 1_555
Ca0 F11 2.268876 1_555
Ca0 F5 2.268876 1_555
Ca0 F3 2.273659 1_555
Ca0 F7 2.273659 1_555
Cr0 F0 1.718550 1_565
Cr0 F4 1.722526 1_555
Cr0 F2 1.724066 1_556
Cr0 F7 1.817586 1_465
Cr0 F11 1.832013 1_466
Cr0 F9 1.858745 1_456
Cr1 F8 1.718550 1_545
Cr1 F10 1.722526 1_555
Cr1 F6 1.724066 1_554
Cr1 F3 1.817586 1_545
Cr1 F5 1.832013 1_544
Cr1 F1 1.858745 1_554
