# generated using pymatgen
data_Li(CrS2)2
_symmetry_space_group_name_H-M   'P 1'
_cell_length_a   11.35984000
_cell_length_b   3.44593500
_cell_length_c   11.87161400
_cell_angle_alpha   90.00000000
_cell_angle_beta   90.00000000
_cell_angle_gamma   90.00000000
_symmetry_Int_Tables_number   1
_chemical_formula_structural   Li(CrS2)2
_chemical_formula_sum   'Li4 Cr8 S16'
_cell_volume   464.71753834
_cell_formula_units_Z   4
loop_
 _symmetry_equiv_pos_site_id
 _symmetry_equiv_pos_as_xyz
  1  'x, y, z'
loop_
 _atom_site_type_symbol
 _atom_site_label
 _atom_site_symmetry_multiplicity
 _atom_site_fract_x
 _atom_site_fract_y
 _atom_site_fract_z
 _atom_site_occupancy
  Li  Li0  1  0.12969300  0.75000000  0.41827200  1
  Li  Li1  1  0.87030700  0.25000000  0.58172800  1
  Li  Li2  1  0.37030700  0.25000000  0.91827200  1
  Li  Li3  1  0.62969300  0.75000000  0.08172800  1
  Cr  Cr0  1  0.11029900  0.25000000  0.08019400  1
  Cr  Cr1  1  0.88970100  0.75000000  0.91980600  1
  Cr  Cr2  1  0.38970100  0.75000000  0.58019400  1
  Cr  Cr3  1  0.61029900  0.25000000  0.41980600  1
  Cr  Cr4  1  0.14409400  0.25000000  0.70375600  1
  Cr  Cr5  1  0.85590600  0.75000000  0.29624400  1
  Cr  Cr6  1  0.35590600  0.75000000  0.20375600  1
  Cr  Cr7  1  0.64409400  0.25000000  0.79624400  1
  S  S0  1  0.03493200  0.75000000  0.62356600  1
  S  S1  1  0.96506800  0.25000000  0.37643400  1
  S  S2  1  0.46506800  0.25000000  0.12356600  1
  S  S3  1  0.53493200  0.75000000  0.87643400  1
  S  S4  1  0.03217100  0.25000000  0.88218700  1
  S  S5  1  0.96782900  0.75000000  0.11781300  1
  S  S6  1  0.46782900  0.75000000  0.38218700  1
  S  S7  1  0.53217100  0.25000000  0.61781300  1
  S  S8  1  0.21646000  0.25000000  0.25242000  1
  S  S9  1  0.78354000  0.75000000  0.74758000  1
  S  S10  1  0.28354000  0.75000000  0.75242000  1
  S  S11  1  0.71646000  0.25000000  0.24758000  1
  S  S12  1  0.24214900  0.75000000  0.03170700  1
  S  S13  1  0.75785100  0.25000000  0.96829300  1
  S  S14  1  0.25785100  0.25000000  0.53170700  1
  S  S15  1  0.74214900  0.75000000  0.46829300  1
loop_
_geom_bond_atom_site_label_1
_geom_bond_atom_site_label_2
_geom_bond_distance
_geom_bond_site_symmetry_2
Li0 S1 2.590876 1_455
Li0 S1 2.590876 1_465
Li0 S14 2.627092 1_565
Li0 S14 2.627092 1_555
Li0 S0 2.664318 1_555
Li0 S8 2.795859 1_565
Li0 S8 2.795859 1_555
Li1 S0 2.590876 1_655
Li1 S0 2.590876 1_645
Li1 S15 2.627092 1_555
Li1 S15 2.627092 1_545
Li1 S1 2.664318 1_555
Li1 S9 2.795859 1_555
Li1 S9 2.795859 1_545
Li2 S3 2.590876 1_555
Li2 S3 2.590876 1_545
Li2 S12 2.627092 1_556
Li2 S12 2.627092 1_546
Li2 S2 2.664318 1_556
Li2 S10 2.795859 1_545
Li2 S10 2.795859 1_555
Li3 S2 2.590876 1_555
Li3 S2 2.590876 1_565
Li3 S13 2.627092 1_564
Li3 S13 2.627092 1_554
Li3 S3 2.664318 1_554
Li3 S11 2.795859 1_565
Li3 S11 2.795859 1_555
Cr0 S12 2.354431 1_555
Cr0 S12 2.354431 1_545
Cr0 S8 2.373765 1_555
Cr0 S5 2.405702 1_455
Cr0 S5 2.405702 1_445
Cr0 S4 2.512630 1_554
Cr1 S13 2.354431 1_555
Cr1 S13 2.354431 1_565
Cr1 S9 2.373765 1_555
Cr1 S4 2.405702 1_665
Cr1 S4 2.405702 1_655
Cr1 S5 2.512630 1_556
Cr2 S14 2.354431 1_565
Cr2 S14 2.354431 1_555
Cr2 S10 2.373765 1_555
Cr2 S7 2.405702 1_555
Cr2 S7 2.405702 1_565
Cr2 S6 2.512630 1_555
Cr3 S15 2.354431 1_555
Cr3 S15 2.354431 1_545
Cr3 S11 2.373765 1_555
Cr3 S6 2.405702 1_545
Cr3 S6 2.405702 1_555
Cr3 S7 2.512630 1_555
Cr4 S0 2.326510 1_545
Cr4 S0 2.326510 1_555
Cr4 S10 2.410747 1_555
Cr4 S10 2.410747 1_545
Cr4 S14 2.416970 1_555
Cr4 S4 2.470540 1_555
Cr5 S1 2.326510 1_565
Cr5 S1 2.326510 1_555
Cr5 S11 2.410747 1_555
Cr5 S11 2.410747 1_565
Cr5 S15 2.416970 1_555
Cr5 S5 2.470540 1_555
Cr6 S2 2.326510 1_565
Cr6 S2 2.326510 1_555
Cr6 S8 2.410747 1_565
Cr6 S8 2.410747 1_555
Cr6 S12 2.416970 1_555
Cr6 S6 2.470540 1_555
Cr7 S3 2.326510 1_555
Cr7 S3 2.326510 1_545
Cr7 S9 2.410747 1_555
Cr7 S9 2.410747 1_545
Cr7 S13 2.416970 1_555
Cr7 S7 2.470540 1_555
