# generated using pymatgen
data_K2PSO8
_symmetry_space_group_name_H-M   'P 1'
_cell_length_a   7.20586000
_cell_length_b   7.39426110
_cell_length_c   7.87950589
_cell_angle_alpha   89.94408383
_cell_angle_beta   90.68193680
_cell_angle_gamma   96.86670293
_symmetry_Int_Tables_number   1
_chemical_formula_structural   K2PSO8
_chemical_formula_sum   'K4 P2 S2 O16'
_cell_volume   416.79486202
_cell_formula_units_Z   2
loop_
 _symmetry_equiv_pos_site_id
 _symmetry_equiv_pos_as_xyz
  1  'x, y, z'
loop_
 _atom_site_type_symbol
 _atom_site_label
 _atom_site_symmetry_multiplicity
 _atom_site_fract_x
 _atom_site_fract_y
 _atom_site_fract_z
 _atom_site_occupancy
  K  K0  1  0.08765000  0.72839100  0.69808700  1
  K  K1  1  0.58956400  0.22969500  0.80498500  1
  K  K2  1  0.91235000  0.27160900  0.30191300  1
  K  K3  1  0.41043600  0.77030500  0.19501500  1
  P  P0  1  0.59322900  0.75081500  0.70237600  1
  P  P1  1  0.40677100  0.24918500  0.29762400  1
  S  S0  1  0.09467700  0.25425900  0.79899100  1
  S  S1  1  0.90532300  0.74574100  0.20100900  1
  O  O0  1  0.47819700  0.82191700  0.84560000  1
  O  O1  1  0.98088400  0.32300700  0.65939800  1
  O  O2  1  0.52180300  0.17808300  0.15440000  1
  O  O3  1  0.01911600  0.67699300  0.34060200  1
  O  O4  1  0.69675200  0.59637000  0.77545400  1
  O  O5  1  0.18861100  0.09752700  0.73933200  1
  O  O6  1  0.30324800  0.40363000  0.22454600  1
  O  O7  1  0.81138900  0.90247300  0.26066800  1
  O  O8  1  0.73512100  0.90474000  0.62916700  1
  O  O9  1  0.23463100  0.40438000  0.86034300  1
  O  O10  1  0.26487900  0.09526000  0.37083300  1
  O  O11  1  0.76536900  0.59562000  0.13965700  1
  O  O12  1  0.46646000  0.68486300  0.54962900  1
  O  O13  1  0.97084000  0.18436900  0.94169000  1
  O  O14  1  0.53354000  0.31513700  0.45037100  1
  O  O15  1  0.02916000  0.81563100  0.05831000  1
loop_
_geom_bond_atom_site_label_1
_geom_bond_atom_site_label_2
_geom_bond_distance
_geom_bond_site_symmetry_2
K0 O5 2.757947 1_565
K0 O3 2.871726 1_555
K0 O4 2.939542 1_455
K0 O15 2.957570 1_556
K0 O9 3.010783 1_555
K0 O1 3.019053 1_455
K0 O8 3.034155 1_455
K0 O0 3.034381 1_555
K0 O12 3.034763 1_555
K1 O4 2.739363 1_555
K1 O2 2.819513 1_556
K1 O14 2.898322 1_555
K1 O5 2.976655 1_555
K1 O13 2.994992 1_555
K1 O9 3.036046 1_555
K1 O0 3.043613 1_545
K1 O1 3.058350 1_555
K1 O8 3.071890 1_545
K2 O7 2.757947 1_545
K2 O1 2.871726 1_555
K2 O6 2.939542 1_655
K2 O13 2.957570 1_554
K2 O11 3.010783 1_555
K2 O3 3.019053 1_655
K2 O10 3.034155 1_655
K2 O2 3.034381 1_555
K2 O14 3.034763 1_555
K3 O6 2.739363 1_555
K3 O0 2.819513 1_554
K3 O12 2.898322 1_555
K3 O7 2.976655 1_555
K3 O15 2.994992 1_555
K3 O11 3.036046 1_555
K3 O2 3.043613 1_565
K3 O3 3.058350 1_555
K3 O10 3.071890 1_565
O0 P0 1.537763 1_555
O1 S0 1.489200 1_655
O2 P1 1.537763 1_555
O3 S1 1.489200 1_455
O4 P0 1.544157 1_555
O5 S0 1.489443 1_555
O6 P1 1.544157 1_555
O7 S1 1.489443 1_555
O8 P0 1.551796 1_555
O9 S0 1.484817 1_555
O10 P1 1.551796 1_555
O11 S1 1.484817 1_555
O12 P0 1.545736 1_555
O13 S0 1.496699 1_655
O14 P1 1.545736 1_555
O15 S1 1.496699 1_455
