# generated using pymatgen
data_NiH44C12N8(ClO5)2
_symmetry_space_group_name_H-M   'P 1'
_cell_length_a   9.25019354
_cell_length_b   8.98383438
_cell_length_c   11.19727302
_cell_angle_alpha   118.35137883
_cell_angle_beta   103.87311590
_cell_angle_gamma   99.38482123
_symmetry_Int_Tables_number   1
_chemical_formula_structural   NiH44C12N8(ClO5)2
_chemical_formula_sum   'Ni1 H44 C12 N8 Cl2 O10'
_cell_volume   752.09607744
_cell_formula_units_Z   1
loop_
 _symmetry_equiv_pos_site_id
 _symmetry_equiv_pos_as_xyz
  1  'x, y, z'
loop_
 _atom_site_type_symbol
 _atom_site_label
 _atom_site_symmetry_multiplicity
 _atom_site_fract_x
 _atom_site_fract_y
 _atom_site_fract_z
 _atom_site_occupancy
  Ni  Ni0  1  0.50000000  0.50000000  0.50000000  1
  H  H0  1  0.65395800  0.27031400  0.38972500  1
  H  H1  1  0.34604200  0.72968600  0.61027500  1
  H  H2  1  0.67210700  0.45540200  0.72120600  1
  H  H3  1  0.32789300  0.54459800  0.27879400  1
  H  H4  1  0.41095900  0.38219000  0.73926900  1
  H  H5  1  0.58904100  0.61781000  0.26073100  1
  H  H6  1  0.36679400  0.58681400  0.66373500  1
  H  H7  1  0.63320600  0.41318600  0.33626500  1
  H  H8  1  0.40185800  0.19594700  0.03309700  1
  H  H9  1  0.59814200  0.80405300  0.96690300  1
  H  H10  1  0.17019800  0.03400100  0.31680400  1
  H  H11  1  0.82980200  0.96599900  0.68319600  1
  H  H12  1  0.80754900  0.40839200  0.87311300  1
  H  H13  1  0.19245100  0.59160800  0.12688700  1
  H  H14  1  0.92384300  0.52548100  0.84447000  1
  H  H15  1  0.07615700  0.47451900  0.15553000  1
  H  H16  1  0.90344200  0.95060000  0.21018100  1
  H  H17  1  0.09655800  0.04940000  0.78981900  1
  H  H18  1  0.24229400  0.93367600  0.20424700  1
  H  H19  1  0.75770600  0.06632400  0.79575300  1
  H  H20  1  0.50653800  0.09606000  0.69188900  1
  H  H21  1  0.49346200  0.90394000  0.30811100  1
  H  H22  1  0.32965900  0.00849100  0.53822500  1
  H  H23  1  0.67034100  0.99150900  0.46177500  1
  H  H24  1  0.10361400  0.79922500  0.50462300  1
  H  H25  1  0.89638600  0.20077500  0.49537700  1
  H  H26  1  0.09445800  0.76242900  0.64662100  1
  H  H27  1  0.90554200  0.23757100  0.35337900  1
  H  H28  1  0.51654700  0.00889100  0.85978900  1
  H  H29  1  0.48345300  0.99110900  0.14021100  1
  H  H30  1  0.34168000  0.88081900  0.85611100  1
  H  H31  1  0.65832000  0.11918100  0.14388900  1
  H  H32  1  0.12203300  0.27768300  0.74639400  1
  H  H33  1  0.87796700  0.72231700  0.25360600  1
  H  H34  1  0.11995800  0.12841800  0.56755000  1
  H  H35  1  0.88004200  0.87158200  0.43245000  1
  H  H36  1  0.16603500  0.98344300  0.02039500  1
  H  H37  1  0.83396500  0.01655700  0.97960500  1
  H  H38  1  0.11514600  0.19403300  0.09206000  1
  H  H39  1  0.88485400  0.80596700  0.90794000  1
  H  H40  1  0.52826900  0.33337800  0.92710900  1
  H  H41  1  0.47173100  0.66662200  0.07289100  1
  H  H42  1  0.35656300  0.39264500  0.95388900  1
  H  H43  1  0.64343700  0.60735500  0.04611100  1
  C  C0  1  0.37758800  0.05771400  0.65491800  1
  C  C1  1  0.62241200  0.94228600  0.34508200  1
  C  C2  1  0.14012000  0.86264100  0.62354700  1
  C  C3  1  0.85988000  0.13735900  0.37645300  1
  C  C4  1  0.38849500  0.98448300  0.83638200  1
  C  C5  1  0.61150500  0.01551700  0.16361800  1
  C  C6  1  0.15535300  0.16168800  0.68077600  1
  C  C7  1  0.84464700  0.83831200  0.31922400  1
  C  C8  1  0.07593200  0.04817100  0.03045800  1
  C  C9  1  0.92406800  0.95182900  0.96954200  1
  C  C10  1  0.39915400  0.28265400  0.89447800  1
  C  C11  1  0.60084600  0.71734600  0.10552200  1
  N  N0  1  0.31595500  0.91608900  0.67935100  1
  N  N1  1  0.68404500  0.08391100  0.32064900  1
  N  N2  1  0.33056200  0.21473000  0.73761500  1
  N  N3  1  0.66943800  0.78527000  0.26238500  1
  N  N4  1  0.07521100  0.00837600  0.68287000  1
  N  N5  1  0.92478900  0.99162400  0.31713000  1
  N  N6  1  0.35171300  0.14420300  0.92406300  1
  N  N7  1  0.64828700  0.85579700  0.07593700  1
  Cl  Cl0  1  0.18005500  0.65649200  0.96816600  1
  Cl  Cl1  1  0.81994500  0.34350800  0.03183400  1
  O  O0  1  0.55984100  0.44148100  0.65516800  1
  O  O1  1  0.44015900  0.55851900  0.34483200  1
  O  O2  1  0.34757000  0.59923400  0.57803400  1
  O  O3  1  0.65243000  0.40076600  0.42196600  1
  O  O4  1  0.52341100  0.49489100  0.24352400  1
  O  O5  1  0.47658900  0.50510900  0.75647600  1
  O  O6  1  0.81390700  0.44430900  0.80193500  1
  O  O7  1  0.18609300  0.55569100  0.19806500  1
  O  O8  1  0.27202700  0.03526900  0.30482200  1
  O  O9  1  0.72797300  0.96473100  0.69517800  1
loop_
_geom_bond_atom_site_label_1
_geom_bond_atom_site_label_2
_geom_bond_distance
_geom_bond_site_symmetry_2
Ni0 O3 1.951230 1_555
Ni0 O2 1.951230 1_555
Ni0 O1 2.025534 1_555
Ni0 O0 2.025534 1_555
H0 O3 1.053582 1_555
H0 N1 1.582746 1_555
H1 O2 1.053582 1_555
H1 N0 1.582746 1_555
H2 O0 1.068847 1_555
H2 O6 1.451601 1_555
H3 O1 1.068847 1_555
H3 O7 1.451601 1_555
H4 O5 1.071598 1_555
H4 N2 1.555244 1_555
H5 O4 1.071598 1_555
H5 N3 1.555244 1_555
H6 O2 0.995626 1_555
H7 O3 0.995626 1_555
H8 N6 1.020242 1_554
H9 N7 1.020242 1_556
H10 O8 0.981801 1_555
H11 O9 0.981801 1_555
H12 O6 1.001660 1_555
H13 O7 1.001660 1_555
H14 O6 0.994378 1_555
H15 O7 0.994378 1_555
H16 N5 1.025966 1_555
H17 N4 1.025966 1_555
H18 O8 0.985041 1_565
H19 O9 0.985041 1_545
C0 H20 1.098453 1_555
C0 H22 1.099503 1_555
C0 N0 1.479036 1_545
C0 N2 1.479590 1_555
C1 H21 1.098453 1_555
C1 H23 1.099503 1_555
C1 N1 1.479036 1_565
C1 N3 1.479590 1_555
C2 H26 1.097685 1_555
C2 H24 1.101327 1_555
C2 N4 1.462035 1_565
C2 N0 1.496492 1_555
C3 H27 1.097685 1_555
C3 H25 1.101327 1_555
C3 N5 1.462035 1_545
C3 N1 1.496492 1_555
C4 H30 1.101544 1_555
C4 H28 1.109803 1_565
C4 N6 1.456032 1_565
C4 N0 1.480920 1_555
C5 H31 1.101544 1_555
C5 H29 1.109803 1_545
C5 N7 1.456032 1_545
C5 N1 1.480920 1_555
C6 H32 1.098604 1_555
C6 H34 1.101377 1_555
C6 N4 1.467367 1_555
C6 N2 1.491408 1_555
C7 H33 1.098604 1_555
C7 H35 1.101377 1_555
C7 N5 1.467367 1_555
C7 N3 1.491408 1_555
C8 H36 1.089214 1_545
C8 H38 1.091350 1_555
C9 H37 1.089214 1_565
C9 H39 1.091350 1_555
C10 H42 1.096589 1_555
C10 H40 1.105760 1_555
C10 N6 1.460291 1_555
C10 N2 1.476945 1_555
C11 H43 1.096589 1_555
C11 H41 1.105760 1_555
C11 N7 1.460291 1_555
C11 N3 1.476945 1_555
