# generated using pymatgen
data_Yb(CuTe)3
_symmetry_space_group_name_H-M   'P 1'
_cell_length_a   8.44141110
_cell_length_b   8.44141110
_cell_length_c   8.44141145
_cell_angle_alpha   52.21638379
_cell_angle_beta   52.21638379
_cell_angle_gamma   52.21638079
_symmetry_Int_Tables_number   1
_chemical_formula_structural   Yb(CuTe)3
_chemical_formula_sum   'Yb2 Cu6 Te6'
_cell_volume   347.54753942
_cell_formula_units_Z   2
loop_
 _symmetry_equiv_pos_site_id
 _symmetry_equiv_pos_as_xyz
  1  'x, y, z'
loop_
 _atom_site_type_symbol
 _atom_site_label
 _atom_site_symmetry_multiplicity
 _atom_site_fract_x
 _atom_site_fract_y
 _atom_site_fract_z
 _atom_site_occupancy
  Yb  Yb0  1  0.66642200  0.66642200  0.66642200  1
  Yb  Yb1  1  0.33357800  0.33357800  0.33357800  1
  Cu  Cu0  1  0.87386400  0.53337300  0.21730800  1
  Cu  Cu1  1  0.53337300  0.21730800  0.87386400  1
  Cu  Cu2  1  0.21730800  0.87386400  0.53337300  1
  Cu  Cu3  1  0.78269200  0.12613600  0.46662700  1
  Cu  Cu4  1  0.46662700  0.78269200  0.12613600  1
  Cu  Cu5  1  0.12613600  0.46662700  0.78269200  1
  Te  Te0  1  0.08522700  0.76135700  0.41071100  1
  Te  Te1  1  0.41071100  0.08522700  0.76135700  1
  Te  Te2  1  0.76135700  0.41071100  0.08522700  1
  Te  Te3  1  0.23864300  0.58928900  0.91477300  1
  Te  Te4  1  0.58928900  0.91477300  0.23864300  1
  Te  Te5  1  0.91477300  0.23864300  0.58928900  1
loop_
_geom_bond_atom_site_label_1
_geom_bond_atom_site_label_2
_geom_bond_distance
_geom_bond_site_symmetry_2
Cu0 Te4 2.621440 1_555
Cu0 Te5 2.621467 1_555
Cu0 Te3 2.625720 1_654
Cu0 Te2 2.671023 1_555
Cu1 Te5 2.621440 1_555
Cu1 Te3 2.621467 1_555
Cu1 Te4 2.625720 1_546
Cu1 Te1 2.671023 1_555
Cu2 Te3 2.621440 1_555
Cu2 Te4 2.621467 1_555
Cu2 Te5 2.625720 1_465
Cu2 Te0 2.671023 1_555
Cu3 Te2 2.621440 1_555
Cu3 Te1 2.621467 1_555
Cu3 Te0 2.625720 1_645
Cu3 Te5 2.671023 1_555
Cu4 Te0 2.621440 1_555
Cu4 Te2 2.621467 1_555
Cu4 Te1 2.625720 1_564
Cu4 Te4 2.671023 1_555
Cu5 Te1 2.621440 1_555
Cu5 Te0 2.621467 1_555
Cu5 Te2 2.625720 1_456
Cu5 Te3 2.671023 1_555
Te0 Yb1 3.129017 1_555
Te0 Yb0 3.130652 1_455
Te1 Yb1 3.129017 1_555
Te1 Yb0 3.130652 1_545
Te2 Yb1 3.129017 1_555
Te2 Yb0 3.130652 1_554
Te3 Yb0 3.129017 1_555
Te3 Yb1 3.130652 1_556
Te4 Yb0 3.129017 1_555
Te4 Yb1 3.130652 1_565
Te5 Yb0 3.129017 1_555
Te5 Yb1 3.130652 1_655
