# generated using pymatgen
data_CdC
_symmetry_space_group_name_H-M   'P 1'
_cell_length_a   4.05407394
_cell_length_b   4.05407394
_cell_length_c   4.71631400
_cell_angle_alpha   90.00000000
_cell_angle_beta   90.00000000
_cell_angle_gamma   119.99999897
_symmetry_Int_Tables_number   1
_chemical_formula_structural   CdC
_chemical_formula_sum   'Cd2 C2'
_cell_volume   67.13000472
_cell_formula_units_Z   2
loop_
 _symmetry_equiv_pos_site_id
 _symmetry_equiv_pos_as_xyz
  1  'x, y, z'
loop_
 _atom_site_type_symbol
 _atom_site_label
 _atom_site_symmetry_multiplicity
 _atom_site_fract_x
 _atom_site_fract_y
 _atom_site_fract_z
 _atom_site_occupancy
  Cd  Cd0  1  0.66666700  0.33333300  0.75000000  1
  Cd  Cd1  1  0.33333300  0.66666700  0.25000000  1
  C  C0  1  0.66666700  0.33333300  0.25000000  1
  C  C1  1  0.33333300  0.66666700  0.75000000  1
loop_
_geom_bond_atom_site_label_1
_geom_bond_atom_site_label_2
_geom_bond_distance
_geom_bond_site_symmetry_2
C0 Cd1 2.340618 1_545
C0 Cd1 2.340618 1_655
C0 Cd1 2.340625 1_555
C0 Cd0 2.358157 1_555
C0 Cd0 2.358157 1_554
C1 Cd0 2.340618 1_455
C1 Cd0 2.340618 1_565
C1 Cd0 2.340625 1_555
C1 Cd1 2.358157 1_555
C1 Cd1 2.358157 1_556
