# generated using pymatgen
data_ErGePt
_symmetry_space_group_name_H-M   'P 1'
_cell_length_a   4.33429624
_cell_length_b   6.94421287
_cell_length_c   7.53393256
_cell_angle_alpha   90.00000000
_cell_angle_beta   90.00000000
_cell_angle_gamma   90.00000000
_symmetry_Int_Tables_number   1
_chemical_formula_structural   ErGePt
_chemical_formula_sum   'Er4 Ge4 Pt4'
_cell_volume   226.75837954
_cell_formula_units_Z   4
loop_
 _symmetry_equiv_pos_site_id
 _symmetry_equiv_pos_as_xyz
  1  'x, y, z'
loop_
 _atom_site_type_symbol
 _atom_site_label
 _atom_site_symmetry_multiplicity
 _atom_site_fract_x
 _atom_site_fract_y
 _atom_site_fract_z
 _atom_site_occupancy
  Er  Er0  1  0.75000000  0.49716153  0.20484718  1
  Er  Er1  1  0.25000000  0.00283847  0.70484718  1
  Er  Er2  1  0.75000000  0.99716153  0.29515282  1
  Er  Er3  1  0.25000000  0.50283847  0.79515282  1
  Ge  Ge0  1  0.25000000  0.69053795  0.41135804  1
  Ge  Ge1  1  0.25000000  0.19053795  0.08864196  1
  Ge  Ge2  1  0.75000000  0.30946205  0.58864196  1
  Ge  Ge3  1  0.75000000  0.80946205  0.91135804  1
  Pt  Pt0  1  0.25000000  0.79419958  0.08369121  1
  Pt  Pt1  1  0.25000000  0.29419958  0.41630879  1
  Pt  Pt2  1  0.75000000  0.70580042  0.58369121  1
  Pt  Pt3  1  0.75000000  0.20579942  0.91630879  1
loop_
_geom_bond_atom_site_label_1
_geom_bond_atom_site_label_2
_geom_bond_distance
_geom_bond_site_symmetry_2
Er0 Pt3 2.969713 1_554
Er0 Ge0 2.986704 1_655
Er0 Ge0 2.986704 1_555
Er0 Pt1 3.036619 1_555
Er0 Pt1 3.036619 1_655
Er0 Ge3 3.097138 1_554
Er0 Pt0 3.128005 1_555
Er0 Pt0 3.128005 1_655
Er0 Ge1 3.161763 1_655
Er0 Ge1 3.161763 1_555
Er0 Ge2 3.171687 1_555
Er0 Pt2 3.200858 1_555
Er1 Pt1 2.969708 1_555
Er1 Ge3 2.986704 1_445
Er1 Ge3 2.986704 1_545
Er1 Pt3 3.036616 1_555
Er1 Pt3 3.036616 1_455
Er1 Ge0 3.097138 1_545
Er1 Pt2 3.128005 1_545
Er1 Pt2 3.128005 1_445
Er1 Ge2 3.161763 1_555
Er1 Ge2 3.161763 1_455
Er1 Ge1 3.171687 1_556
Er1 Pt0 3.200858 1_546
Er2 Pt2 2.969708 1_555
Er2 Ge1 2.986704 1_565
Er2 Ge1 2.986704 1_665
Er2 Pt0 3.036619 1_655
Er2 Pt0 3.036619 1_555
Er2 Ge2 3.097138 1_565
Er2 Pt1 3.128005 1_565
Er2 Pt1 3.128005 1_665
Er2 Ge0 3.161763 1_655
Er2 Ge0 3.161763 1_555
Er2 Ge3 3.171687 1_554
Er2 Pt3 3.200855 1_564
Er3 Pt0 2.969708 1_556
Er3 Ge2 2.986704 1_455
Er3 Ge2 2.986704 1_555
Er3 Pt2 3.036619 1_455
Er3 Pt2 3.036619 1_555
Er3 Ge1 3.097138 1_556
Er3 Pt3 3.128009 1_455
Er3 Pt3 3.128009 1_555
Er3 Ge3 3.161763 1_455
Er3 Ge3 3.161763 1_555
Er3 Ge0 3.171687 1_555
Er3 Pt1 3.200858 1_555
Ge0 Pt2 2.528531 1_455
Ge0 Pt2 2.528531 1_555
Ge0 Pt0 2.571433 1_555
Ge0 Pt1 2.752511 1_555
Ge1 Pt3 2.528530 1_454
Ge1 Pt3 2.528530 1_554
Ge1 Pt1 2.571433 1_555
Ge1 Pt0 2.752511 1_545
Ge2 Pt1 2.528531 1_555
Ge2 Pt1 2.528531 1_655
Ge2 Pt3 2.571435 1_555
Ge2 Pt2 2.752511 1_555
Ge3 Pt0 2.528531 1_656
Ge3 Pt0 2.528531 1_556
Ge3 Pt2 2.571433 1_555
Ge3 Pt3 2.752504 1_565
