# generated using pymatgen
data_Sr4Cr3O10
_symmetry_space_group_name_H-M   'P 1'
_cell_length_a   14.45735488
_cell_length_b   14.45735488
_cell_length_c   14.45735488
_cell_angle_alpha   164.60748503
_cell_angle_beta   164.60748503
_cell_angle_gamma   21.83478777
_symmetry_Int_Tables_number   1
_chemical_formula_structural   Sr4Cr3O10
_chemical_formula_sum   'Sr4 Cr3 O10'
_cell_volume   212.86029130
_cell_formula_units_Z   1
loop_
 _symmetry_equiv_pos_site_id
 _symmetry_equiv_pos_as_xyz
  1  'x, y, z'
loop_
 _atom_site_type_symbol
 _atom_site_label
 _atom_site_symmetry_multiplicity
 _atom_site_fract_x
 _atom_site_fract_y
 _atom_site_fract_z
 _atom_site_occupancy
  Sr  Sr0  1  0.29745900  0.29745900  0.00000000  1
  Sr  Sr1  1  0.70254100  0.70254100  0.00000000  1
  Sr  Sr2  1  0.43271600  0.43271600  0.00000000  1
  Sr  Sr3  1  0.56728400  0.56728400  0.00000000  1
  Cr  Cr0  1  0.13929500  0.13929500  0.00000000  1
  Cr  Cr1  1  0.86070500  0.86070500  0.00000000  1
  Cr  Cr2  1  0.00000000  0.00000000  0.00000000  1
  O  O0  1  0.20865300  0.20865300  0.00000000  1
  O  O1  1  0.79134700  0.79134700  0.00000000  1
  O  O2  1  0.63617400  0.13617400  0.50000000  1
  O  O3  1  0.36382600  0.86382600  0.50000000  1
  O  O4  1  0.13617400  0.63617400  0.50000000  1
  O  O5  1  0.86382600  0.36382600  0.50000000  1
  O  O6  1  0.06606500  0.06606500  0.00000000  1
  O  O7  1  0.93393500  0.93393500  0.00000000  1
  O  O8  1  0.50000000  0.00000000  0.50000000  1
  O  O9  1  0.00000000  0.50000000  0.50000000  1
loop_
_geom_bond_atom_site_label_1
_geom_bond_atom_site_label_2
_geom_bond_distance
_geom_bond_site_symmetry_2
Cr0 O2 1.938177 1_454
Cr0 O4 1.938177 1_555
Cr0 O2 1.938177 1_555
Cr0 O4 1.938177 1_544
Cr0 O0 1.969170 1_555
Cr0 O6 2.079101 1_555
Cr1 O3 1.938177 1_655
Cr1 O3 1.938177 1_554
Cr1 O5 1.938177 1_554
Cr1 O5 1.938177 1_565
Cr1 O1 1.969170 1_555
Cr1 O7 2.079101 1_555
Cr2 O6 1.875677 1_555
Cr2 O7 1.875677 1_445
Cr2 O8 1.936150 1_555
Cr2 O9 1.936150 1_555
Cr2 O8 1.936150 1_454
Cr2 O9 1.936150 1_544
O0 Sr0 2.521326 1_555
O0 Sr1 2.743623 1_444
O0 Sr1 2.743623 1_545
O0 Sr1 2.743623 1_455
O0 Sr1 2.743623 1_556
O1 Sr1 2.521326 1_555
O1 Sr0 2.743623 1_565
O1 Sr0 2.743623 1_655
O1 Sr0 2.743623 1_666
O1 Sr0 2.743623 1_554
O2 Sr1 2.701681 1_545
O2 Sr1 2.701681 1_556
O2 Sr3 2.752118 1_556
O2 Sr3 2.752118 1_545
O3 Sr0 2.701681 1_566
O3 Sr0 2.701681 1_555
O3 Sr2 2.752118 1_555
O3 Sr2 2.752118 1_566
O4 Sr1 2.701681 1_556
O4 Sr1 2.701681 1_455
O4 Sr3 2.752118 1_455
O4 Sr3 2.752118 1_556
O5 Sr0 2.701681 1_656
O5 Sr0 2.701681 1_555
O5 Sr2 2.752118 1_555
O5 Sr2 2.752118 1_656
O6 Sr3 2.738348 1_455
O6 Sr3 2.738348 1_545
O6 Sr3 2.738348 1_444
O6 Sr3 2.738348 1_556
O7 Sr2 2.738348 1_666
O7 Sr2 2.738348 1_554
O7 Sr2 2.738348 1_565
O7 Sr2 2.738348 1_655
O8 Sr2 2.719903 1_545
O8 Sr3 2.719903 1_556
O8 Sr2 2.719903 1_556
O8 Sr3 2.719903 1_545
O9 Sr2 2.719903 1_556
O9 Sr3 2.719903 1_455
O9 Sr3 2.719903 1_556
O9 Sr2 2.719903 1_455
