# generated using pymatgen
data_CaMnGeO4
_symmetry_space_group_name_H-M   'P 1'
_cell_length_a   5.15177200
_cell_length_b   6.60576700
_cell_length_c   11.44421100
_cell_angle_alpha   90.00000000
_cell_angle_beta   90.00000000
_cell_angle_gamma   90.00000000
_symmetry_Int_Tables_number   1
_chemical_formula_structural   CaMnGeO4
_chemical_formula_sum   'Ca4 Mn4 Ge4 O16'
_cell_volume   389.46258482
_cell_formula_units_Z   4
loop_
 _symmetry_equiv_pos_site_id
 _symmetry_equiv_pos_as_xyz
  1  'x, y, z'
loop_
 _atom_site_type_symbol
 _atom_site_label
 _atom_site_symmetry_multiplicity
 _atom_site_fract_x
 _atom_site_fract_y
 _atom_site_fract_z
 _atom_site_occupancy
  Ca  Ca0  1  0.01049300  0.75000000  0.72274500  1
  Ca  Ca1  1  0.98950700  0.25000000  0.27725500  1
  Ca  Ca2  1  0.51049300  0.25000000  0.77725500  1
  Ca  Ca3  1  0.48950700  0.75000000  0.22274500  1
  Mn  Mn0  1  0.50000000  0.50000000  0.50000000  1
  Mn  Mn1  1  0.00000000  0.50000000  0.00000000  1
  Mn  Mn2  1  0.50000000  0.00000000  0.50000000  1
  Mn  Mn3  1  0.00000000  0.00000000  0.00000000  1
  Ge  Ge0  1  0.57430400  0.75000000  0.91146400  1
  Ge  Ge1  1  0.42569600  0.25000000  0.08853600  1
  Ge  Ge2  1  0.07430400  0.25000000  0.58853600  1
  Ge  Ge3  1  0.92569600  0.75000000  0.41146400  1
  O  O0  1  0.23185200  0.75000000  0.91327500  1
  O  O1  1  0.76814800  0.25000000  0.08672500  1
  O  O2  1  0.73185200  0.25000000  0.58672500  1
  O  O3  1  0.26814800  0.75000000  0.41327500  1
  O  O4  1  0.76472200  0.75000000  0.55175300  1
  O  O5  1  0.23527800  0.25000000  0.44824700  1
  O  O6  1  0.26472200  0.25000000  0.94824700  1
  O  O7  1  0.73527800  0.75000000  0.05175300  1
  O  O8  1  0.72641000  0.53692100  0.84390000  1
  O  O9  1  0.27359000  0.46307900  0.15610000  1
  O  O10  1  0.22641000  0.46307900  0.65610000  1
  O  O11  1  0.27359000  0.03692100  0.15610000  1
  O  O12  1  0.77359000  0.53692100  0.34390000  1
  O  O13  1  0.72641000  0.96307900  0.84390000  1
  O  O14  1  0.77359000  0.96307900  0.34390000  1
  O  O15  1  0.22641000  0.03692100  0.65610000  1
loop_
_geom_bond_atom_site_label_1
_geom_bond_atom_site_label_2
_geom_bond_distance
_geom_bond_site_symmetry_2
Ca0 O15 2.326227 1_565
Ca0 O10 2.326227 1_555
Ca0 O4 2.330769 1_455
Ca0 O13 2.458774 1_455
Ca0 O8 2.458774 1_455
Ca0 O0 2.460675 1_555
Ca1 O12 2.326227 1_555
Ca1 O14 2.326227 1_545
Ca1 O5 2.330769 1_655
Ca1 O9 2.458774 1_655
Ca1 O11 2.458774 1_655
Ca1 O1 2.460675 1_555
Ca2 O8 2.326227 1_555
Ca2 O13 2.326227 1_545
Ca2 O6 2.330769 1_555
Ca2 O10 2.458774 1_555
Ca2 O15 2.458774 1_555
Ca2 O2 2.460675 1_555
Ca3 O11 2.326227 1_565
Ca3 O9 2.326227 1_555
Ca3 O7 2.330769 1_555
Ca3 O14 2.458774 1_555
Ca3 O12 2.458774 1_555
Ca3 O3 2.460675 1_555
Mn0 O4 2.222153 1_555
Mn0 O5 2.222153 1_555
Mn0 O2 2.266941 1_555
Mn0 O3 2.266941 1_555
Mn0 O12 2.288552 1_555
Mn0 O10 2.288552 1_555
Mn1 O6 2.222153 1_554
Mn1 O7 2.222153 1_455
Mn1 O0 2.266941 1_554
Mn1 O1 2.266941 1_455
Mn1 O8 2.288552 1_454
Mn1 O9 2.288552 1_555
Mn2 O4 2.222153 1_545
Mn2 O5 2.222153 1_555
Mn2 O2 2.266941 1_555
Mn2 O3 2.266941 1_545
Mn2 O15 2.288552 1_555
Mn2 O14 2.288552 1_545
Mn3 O6 2.222153 1_554
Mn3 O7 2.222153 1_445
Mn3 O0 2.266941 1_544
Mn3 O1 2.266941 1_455
Mn3 O11 2.288552 1_555
Mn3 O13 2.288552 1_444
Ge0 O0 1.764356 1_555
Ge0 O13 1.786929 1_555
Ge0 O8 1.786929 1_555
Ge0 O7 1.807031 1_556
Ge1 O1 1.764356 1_555
Ge1 O9 1.786929 1_555
Ge1 O11 1.786929 1_555
Ge1 O6 1.807031 1_554
Ge2 O2 1.764356 1_455
Ge2 O10 1.786929 1_555
Ge2 O15 1.786929 1_555
Ge2 O5 1.807031 1_555
Ge3 O3 1.764356 1_655
Ge3 O14 1.786929 1_555
Ge3 O12 1.786929 1_555
Ge3 O4 1.807031 1_555
