# generated using pymatgen
data_BiH18C3S3(O2F)9
_symmetry_space_group_name_H-M   'P 1'
_cell_length_a   14.07367159
_cell_length_b   14.07367159
_cell_length_c   7.31179100
_cell_angle_alpha   90.00000000
_cell_angle_beta   90.00000000
_cell_angle_gamma   119.99999806
_symmetry_Int_Tables_number   1
_chemical_formula_structural   BiH18C3S3(O2F)9
_chemical_formula_sum   'Bi2 H36 C6 S6 O36 F18'
_cell_volume   1254.20703976
_cell_formula_units_Z   2
loop_
 _symmetry_equiv_pos_site_id
 _symmetry_equiv_pos_as_xyz
  1  'x, y, z'
loop_
 _atom_site_type_symbol
 _atom_site_label
 _atom_site_symmetry_multiplicity
 _atom_site_fract_x
 _atom_site_fract_y
 _atom_site_fract_z
 _atom_site_occupancy
  Bi  Bi0  1  0.33333300  0.66666700  0.75000000  1
  Bi  Bi1  1  0.66666700  0.33333300  0.25000000  1
  H  H0  1  0.36245400  0.86917400  0.54122400  1
  H  H1  1  0.13082600  0.49328000  0.54122400  1
  H  H2  1  0.50672000  0.63754600  0.54122400  1
  H  H3  1  0.63754600  0.13082600  0.04122400  1
  H  H4  1  0.86917400  0.50672000  0.04122400  1
  H  H5  1  0.49328000  0.36245400  0.04122400  1
  H  H6  1  0.63754600  0.13082600  0.45877600  1
  H  H7  1  0.86917400  0.50672000  0.45877600  1
  H  H8  1  0.49328000  0.36245400  0.45877600  1
  H  H9  1  0.36245400  0.86917400  0.95877600  1
  H  H10  1  0.13082600  0.49328000  0.95877600  1
  H  H11  1  0.50672000  0.63754600  0.95877600  1
  H  H12  1  0.27594600  0.76777500  0.42583300  1
  H  H13  1  0.23222500  0.50817100  0.42583300  1
  H  H14  1  0.49182900  0.72405400  0.42583300  1
  H  H15  1  0.72405400  0.23222500  0.92583300  1
  H  H16  1  0.76777500  0.49182900  0.92583300  1
  H  H17  1  0.50817100  0.27594600  0.92583300  1
  H  H18  1  0.72405400  0.23222500  0.57416700  1
  H  H19  1  0.76777500  0.49182900  0.57416700  1
  H  H20  1  0.50817100  0.27594600  0.57416700  1
  H  H21  1  0.27594600  0.76777500  0.07416700  1
  H  H22  1  0.23222500  0.50817100  0.07416700  1
  H  H23  1  0.49182900  0.72405400  0.07416700  1
  H  H24  1  0.09791800  0.64498100  0.64099500  1
  H  H25  1  0.35501900  0.45293700  0.64099500  1
  H  H26  1  0.54706300  0.90208200  0.64099500  1
  H  H27  1  0.90208200  0.35501900  0.14099500  1
  H  H28  1  0.64498100  0.54706300  0.14099500  1
  H  H29  1  0.45293700  0.09791800  0.14099500  1
  H  H30  1  0.90208200  0.35501900  0.35900500  1
  H  H31  1  0.64498100  0.54706300  0.35900500  1
  H  H32  1  0.45293700  0.09791800  0.35900500  1
  H  H33  1  0.09791800  0.64498100  0.85900500  1
  H  H34  1  0.35501900  0.45293700  0.85900500  1
  H  H35  1  0.54706300  0.90208200  0.85900500  1
  C  C0  1  0.23183500  0.00874300  0.75000000  1
  C  C1  1  0.99125700  0.22309200  0.75000000  1
  C  C2  1  0.77690800  0.76816500  0.75000000  1
  C  C3  1  0.76816500  0.99125700  0.25000000  1
  C  C4  1  0.00874300  0.77690800  0.25000000  1
  C  C5  1  0.22309200  0.23183500  0.25000000  1
  S  S0  1  0.38235700  0.05901900  0.75000000  1
  S  S1  1  0.94098100  0.32333800  0.75000000  1
  S  S2  1  0.67666200  0.61764300  0.75000000  1
  S  S3  1  0.61764300  0.94098100  0.25000000  1
  S  S4  1  0.05901900  0.67666200  0.25000000  1
  S  S5  1  0.32333800  0.38235700  0.25000000  1
  O  O0  1  0.34069400  0.79328000  0.50598200  1
  O  O1  1  0.20672000  0.54741400  0.50598200  1
  O  O2  1  0.45258600  0.65930600  0.50598200  1
  O  O3  1  0.65930600  0.20672000  0.00598200  1
  O  O4  1  0.79328000  0.45258600  0.00598200  1
  O  O5  1  0.54741400  0.34069400  0.00598200  1
  O  O6  1  0.65930600  0.20672000  0.49401800  1
  O  O7  1  0.79328000  0.45258600  0.49401800  1
  O  O8  1  0.54741400  0.34069400  0.49401800  1
  O  O9  1  0.34069400  0.79328000  0.99401800  1
  O  O10  1  0.20672000  0.54741400  0.99401800  1
  O  O11  1  0.45258600  0.65930600  0.99401800  1
  O  O12  1  0.14325000  0.65641700  0.75000000  1
  O  O13  1  0.34358300  0.48683300  0.75000000  1
  O  O14  1  0.51316700  0.85675000  0.75000000  1
  O  O15  1  0.85675000  0.34358300  0.25000000  1
  O  O16  1  0.65641700  0.51316700  0.25000000  1
  O  O17  1  0.48683300  0.14325000  0.25000000  1
  O  O18  1  0.39943500  0.01350900  0.58097200  1
  O  O19  1  0.98649100  0.38592600  0.58097200  1
  O  O20  1  0.61407400  0.60056500  0.58097200  1
  O  O21  1  0.60056500  0.98649100  0.08097200  1
  O  O22  1  0.01350900  0.61407400  0.08097200  1
  O  O23  1  0.38592600  0.39943500  0.08097200  1
  O  O24  1  0.60056500  0.98649100  0.41902800  1
  O  O25  1  0.01350900  0.61407400  0.41902800  1
  O  O26  1  0.38592600  0.39943500  0.41902800  1
  O  O27  1  0.39943500  0.01350900  0.91902800  1
  O  O28  1  0.98649100  0.38592600  0.91902800  1
  O  O29  1  0.61407400  0.60056500  0.91902800  1
  O  O30  1  0.43416700  0.17881000  0.75000000  1
  O  O31  1  0.82119000  0.25535700  0.75000000  1
  O  O32  1  0.74464300  0.56583300  0.75000000  1
  O  O33  1  0.56583300  0.82119000  0.25000000  1
  O  O34  1  0.17881000  0.74464300  0.25000000  1
  O  O35  1  0.25535700  0.43416700  0.25000000  1
  F  F0  1  0.17606900  0.89760900  0.75000000  1
  F  F1  1  0.10239100  0.27846000  0.75000000  1
  F  F2  1  0.72154000  0.82393100  0.75000000  1
  F  F3  1  0.82393100  0.10239100  0.25000000  1
  F  F4  1  0.89760900  0.72154000  0.25000000  1
  F  F5  1  0.27846000  0.17606900  0.25000000  1
  F  F6  1  0.20384500  0.04484400  0.59957900  1
  F  F7  1  0.95515600  0.15900100  0.59957900  1
  F  F8  1  0.84099900  0.79615500  0.59957900  1
  F  F9  1  0.79615500  0.95515600  0.09957900  1
  F  F10  1  0.04484400  0.84099900  0.09957900  1
  F  F11  1  0.15900100  0.20384500  0.09957900  1
  F  F12  1  0.79615500  0.95515600  0.40042100  1
  F  F13  1  0.04484400  0.84099900  0.40042100  1
  F  F14  1  0.15900100  0.20384500  0.40042100  1
  F  F15  1  0.20384500  0.04484400  0.90042100  1
  F  F16  1  0.95515600  0.15900100  0.90042100  1
  F  F17  1  0.84099900  0.79615500  0.90042100  1
loop_
_geom_bond_atom_site_label_1
_geom_bond_atom_site_label_2
_geom_bond_distance
_geom_bond_site_symmetry_2
Bi0 O9 2.486913 1_555
Bi0 O0 2.486913 1_555
Bi0 O10 2.486917 1_555
Bi0 O1 2.486917 1_555
Bi0 O11 2.486923 1_555
Bi0 O2 2.486923 1_555
Bi0 O12 2.606034 1_555
Bi0 O14 2.606041 1_555
Bi0 O13 2.606048 1_555
Bi1 O6 2.486913 1_555
Bi1 O3 2.486913 1_555
Bi1 O7 2.486917 1_555
Bi1 O4 2.486917 1_555
Bi1 O8 2.486923 1_555
Bi1 O5 2.486923 1_555
Bi1 O15 2.606034 1_555
Bi1 O17 2.606041 1_555
Bi1 O16 2.606048 1_555
H0 O0 0.986883 1_555
H1 O1 0.986883 1_555
H2 O2 0.986883 1_555
H3 O3 0.986883 1_555
H4 O4 0.986883 1_555
H5 O5 0.986883 1_555
H6 O6 0.986883 1_555
H7 O7 0.986883 1_555
H8 O8 0.986883 1_555
H9 O9 0.986883 1_555
H10 O10 0.986883 1_555
H11 O11 0.986883 1_555
H12 O0 0.987700 1_555
H13 O1 0.987700 1_555
H14 O2 0.987700 1_555
H15 O3 0.987700 1_556
H16 O4 0.987700 1_556
H17 O5 0.987700 1_556
H18 O6 0.987700 1_555
H19 O7 0.987700 1_555
H20 O8 0.987700 1_555
H21 O9 0.987700 1_554
H22 O10 0.987700 1_554
H23 O11 0.987700 1_554
H24 O12 0.982595 1_555
H25 O13 0.982595 1_555
H26 O14 0.982595 1_555
H27 O15 0.982595 1_555
H28 O16 0.982595 1_555
H29 O17 0.982595 1_555
H30 O15 0.982595 1_555
H31 O16 0.982595 1_555
H32 O17 0.982595 1_555
H33 O12 0.982595 1_555
H34 O13 0.982595 1_555
H35 O14 0.982595 1_555
C0 F15 1.350229 1_555
C0 F6 1.350229 1_555
C0 F0 1.354522 1_545
C1 F16 1.350229 1_555
C1 F7 1.350229 1_555
C1 F1 1.354522 1_655
C2 F17 1.350229 1_555
C2 F8 1.350229 1_555
C2 F2 1.354522 1_555
C3 F12 1.350229 1_555
C3 F9 1.350229 1_555
C3 F3 1.354522 1_565
C4 F13 1.350229 1_555
C4 F10 1.350229 1_555
C4 F4 1.354522 1_455
C5 F14 1.350229 1_555
C5 F11 1.350229 1_555
C5 F5 1.354522 1_555
O18 S0 1.466078 1_555
O19 S1 1.466078 1_555
O20 S2 1.466078 1_555
O21 S3 1.466078 1_555
O22 S4 1.466078 1_555
O23 S5 1.466078 1_555
O24 S3 1.466078 1_555
O25 S4 1.466078 1_555
O26 S5 1.466078 1_555
O27 S0 1.466078 1_555
O28 S1 1.466078 1_555
O29 S2 1.466078 1_555
O30 S0 1.464459 1_555
O31 S1 1.464459 1_555
O32 S2 1.464459 1_555
O33 S3 1.464459 1_555
O34 S4 1.464459 1_555
O35 S5 1.464459 1_555
