# generated using pymatgen
data_MgSb
_symmetry_space_group_name_H-M   'P 1'
_cell_length_a   6.26194000
_cell_length_b   11.23984000
_cell_length_c   11.25001400
_cell_angle_alpha   90.00000000
_cell_angle_beta   90.00000000
_cell_angle_gamma   90.00000000
_symmetry_Int_Tables_number   1
_chemical_formula_structural   MgSb
_chemical_formula_sum   'Mg16 Sb16'
_cell_volume   791.81202687
_cell_formula_units_Z   16
loop_
 _symmetry_equiv_pos_site_id
 _symmetry_equiv_pos_as_xyz
  1  'x, y, z'
loop_
 _atom_site_type_symbol
 _atom_site_label
 _atom_site_symmetry_multiplicity
 _atom_site_fract_x
 _atom_site_fract_y
 _atom_site_fract_z
 _atom_site_occupancy
  Mg  Mg0_0  1  0.25000000  0.37500000  0.12956450  1
  Mg  Mg0_1  1  0.25000000  0.37500000  0.62956450  1
  Mg  Mg0_2  1  0.25000000  0.87500000  0.12956450  1
  Mg  Mg0_3  1  0.25000000  0.87500000  0.62956450  1
  Mg  Mg0_4  1  0.75000000  0.37500000  0.12956450  1
  Mg  Mg0_5  1  0.75000000  0.37500000  0.62956450  1
  Mg  Mg0_6  1  0.75000000  0.87500000  0.12956450  1
  Mg  Mg0_7  1  0.75000000  0.87500000  0.62956450  1
  Mg  Mg1_0  1  0.25000000  0.12500000  0.37043550  1
  Mg  Mg1_1  1  0.25000000  0.12500000  0.87043550  1
  Mg  Mg1_2  1  0.25000000  0.62500000  0.37043550  1
  Mg  Mg1_3  1  0.25000000  0.62500000  0.87043550  1
  Mg  Mg1_4  1  0.75000000  0.12500000  0.37043550  1
  Mg  Mg1_5  1  0.75000000  0.12500000  0.87043550  1
  Mg  Mg1_6  1  0.75000000  0.62500000  0.37043550  1
  Mg  Mg1_7  1  0.75000000  0.62500000  0.87043550  1
  Sb  Sb0_0  1  0.00000000  0.37500000  0.37792150  1
  Sb  Sb0_1  1  0.00000000  0.37500000  0.87792150  1
  Sb  Sb0_2  1  0.00000000  0.87500000  0.37792150  1
  Sb  Sb0_3  1  0.00000000  0.87500000  0.87792150  1
  Sb  Sb0_4  1  0.50000000  0.37500000  0.37792150  1
  Sb  Sb0_5  1  0.50000000  0.37500000  0.87792150  1
  Sb  Sb0_6  1  0.50000000  0.87500000  0.37792150  1
  Sb  Sb0_7  1  0.50000000  0.87500000  0.87792150  1
  Sb  Sb1_0  1  0.00000000  0.12500000  0.12207850  1
  Sb  Sb1_1  1  0.00000000  0.12500000  0.62207850  1
  Sb  Sb1_2  1  0.00000000  0.62500000  0.12207850  1
  Sb  Sb1_3  1  0.00000000  0.62500000  0.62207850  1
  Sb  Sb1_4  1  0.50000000  0.12500000  0.12207850  1
  Sb  Sb1_5  1  0.50000000  0.12500000  0.62207850  1
  Sb  Sb1_6  1  0.50000000  0.62500000  0.12207850  1
  Sb  Sb1_7  1  0.50000000  0.62500000  0.62207850  1
loop_
_geom_bond_atom_site_label_1
_geom_bond_atom_site_label_2
_geom_bond_distance
_geom_bond_site_symmetry_2
Mg0_0 Mg0_4 3.130970 1_555
Mg0_0 Mg0_4 3.130970 1_455
Mg0_0 Sb0_0 3.202700 1_555
Mg0_0 Sb0_4 3.202700 1_555
Mg0_0 Sb1_0 3.217718 1_555
Mg0_0 Sb1_4 3.217718 1_555
Mg0_0 Sb1_2 3.217718 1_555
Mg0_0 Sb1_6 3.217718 1_555
Mg0_0 Sb0_1 3.235001 1_554
Mg0_0 Sb0_5 3.235001 1_554
Mg0_1 Mg0_5 3.130970 1_455
Mg0_1 Mg0_5 3.130970 1_555
Mg0_1 Sb0_1 3.202700 1_555
Mg0_1 Sb0_5 3.202700 1_555
Mg0_1 Sb1_7 3.217718 1_555
Mg0_1 Sb1_1 3.217718 1_555
Mg0_1 Sb1_5 3.217718 1_555
Mg0_1 Sb1_3 3.217718 1_555
Mg0_1 Sb0_0 3.235001 1_555
Mg0_1 Sb0_4 3.235001 1_555
Mg0_2 Mg0_6 3.130970 1_455
Mg0_2 Mg0_6 3.130970 1_555
Mg0_2 Sb0_2 3.202700 1_555
Mg0_2 Sb0_6 3.202700 1_555
Mg0_2 Sb1_0 3.217718 1_565
Mg0_2 Sb1_2 3.217718 1_555
Mg0_2 Sb1_4 3.217718 1_565
Mg0_2 Sb1_6 3.217718 1_555
Mg0_2 Sb0_7 3.235001 1_554
Mg0_2 Sb0_3 3.235001 1_554
Mg0_3 Mg0_7 3.130970 1_455
Mg0_3 Mg0_7 3.130970 1_555
Mg0_3 Sb0_3 3.202700 1_555
Mg0_3 Sb0_7 3.202700 1_555
Mg0_3 Sb1_7 3.217718 1_555
Mg0_3 Sb1_1 3.217718 1_565
Mg0_3 Sb1_5 3.217718 1_565
Mg0_3 Sb1_3 3.217718 1_555
Mg0_3 Sb0_6 3.235001 1_555
Mg0_3 Sb0_2 3.235001 1_555
Mg0_4 Sb0_0 3.202700 1_655
Mg0_4 Sb0_4 3.202700 1_555
Mg0_4 Sb1_4 3.217718 1_555
Mg0_4 Sb1_0 3.217718 1_655
Mg0_4 Sb1_6 3.217718 1_555
Mg0_4 Sb1_2 3.217718 1_655
Mg0_4 Sb0_1 3.235001 1_654
Mg0_4 Sb0_5 3.235001 1_554
Mg0_5 Sb0_1 3.202700 1_655
Mg0_5 Sb0_5 3.202700 1_555
Mg0_5 Sb1_3 3.217718 1_655
Mg0_5 Sb1_7 3.217718 1_555
Mg0_5 Sb1_1 3.217718 1_655
Mg0_5 Sb1_5 3.217718 1_555
Mg0_5 Sb0_0 3.235001 1_655
Mg0_5 Sb0_4 3.235001 1_555
Mg0_6 Sb0_2 3.202700 1_655
Mg0_6 Sb0_6 3.202700 1_555
Mg0_6 Sb1_4 3.217718 1_565
Mg0_6 Sb1_0 3.217718 1_665
Mg0_6 Sb1_6 3.217718 1_555
Mg0_6 Sb1_2 3.217718 1_655
Mg0_6 Sb0_7 3.235001 1_554
Mg0_6 Sb0_3 3.235001 1_654
Mg0_7 Sb0_3 3.202700 1_655
Mg0_7 Sb0_7 3.202700 1_555
Mg0_7 Sb1_3 3.217718 1_655
Mg0_7 Sb1_7 3.217718 1_555
Mg0_7 Sb1_1 3.217718 1_665
Mg0_7 Sb1_5 3.217718 1_565
Mg0_7 Sb0_6 3.235001 1_555
Mg0_7 Sb0_2 3.235001 1_655
Mg1_0 Mg1_4 3.130970 1_555
Mg1_0 Mg1_4 3.130970 1_455
Mg1_0 Sb1_4 3.202700 1_555
Mg1_0 Sb1_0 3.202700 1_555
Mg1_0 Sb0_2 3.217718 1_545
Mg1_0 Sb0_6 3.217718 1_545
Mg1_0 Sb0_0 3.217718 1_555
Mg1_0 Sb0_4 3.217718 1_555
Mg1_0 Sb1_5 3.235001 1_555
Mg1_0 Sb1_1 3.235001 1_555
Mg1_1 Mg1_5 3.130970 1_455
Mg1_1 Mg1_5 3.130970 1_555
Mg1_1 Sb1_1 3.202700 1_555
Mg1_1 Sb1_5 3.202700 1_555
Mg1_1 Sb0_5 3.217718 1_555
Mg1_1 Sb0_3 3.217718 1_545
Mg1_1 Sb0_1 3.217718 1_555
Mg1_1 Sb0_7 3.217718 1_545
Mg1_1 Sb1_0 3.235001 1_556
Mg1_1 Sb1_4 3.235001 1_556
Mg1_2 Mg1_6 3.130970 1_455
Mg1_2 Mg1_6 3.130970 1_555
Mg1_2 Sb1_2 3.202700 1_555
Mg1_2 Sb1_6 3.202700 1_555
Mg1_2 Sb0_2 3.217718 1_555
Mg1_2 Sb0_6 3.217718 1_555
Mg1_2 Sb0_0 3.217718 1_555
Mg1_2 Sb0_4 3.217718 1_555
Mg1_2 Sb1_3 3.235001 1_555
Mg1_2 Sb1_7 3.235001 1_555
Mg1_3 Mg1_7 3.130970 1_455
Mg1_3 Mg1_7 3.130970 1_555
Mg1_3 Sb1_7 3.202700 1_555
Mg1_3 Sb1_3 3.202700 1_555
Mg1_3 Sb0_5 3.217718 1_555
Mg1_3 Sb0_3 3.217718 1_555
Mg1_3 Sb0_1 3.217718 1_555
Mg1_3 Sb0_7 3.217718 1_555
Mg1_3 Sb1_2 3.235001 1_556
Mg1_3 Sb1_6 3.235001 1_556
Mg1_4 Sb1_4 3.202700 1_555
Mg1_4 Sb1_0 3.202700 1_655
Mg1_4 Sb0_6 3.217718 1_545
Mg1_4 Sb0_0 3.217718 1_655
Mg1_4 Sb0_4 3.217718 1_555
Mg1_4 Sb0_2 3.217718 1_645
Mg1_4 Sb1_1 3.235001 1_655
Mg1_4 Sb1_5 3.235001 1_555
Mg1_5 Sb1_1 3.202700 1_655
Mg1_5 Sb1_5 3.202700 1_555
Mg1_5 Sb0_5 3.217718 1_555
Mg1_5 Sb0_7 3.217718 1_545
Mg1_5 Sb0_1 3.217718 1_655
Mg1_5 Sb0_3 3.217718 1_645
Mg1_5 Sb1_4 3.235001 1_556
Mg1_5 Sb1_0 3.235001 1_656
Mg1_6 Sb1_6 3.202700 1_555
Mg1_6 Sb1_2 3.202700 1_655
Mg1_6 Sb0_6 3.217718 1_555
Mg1_6 Sb0_0 3.217718 1_655
Mg1_6 Sb0_2 3.217718 1_655
Mg1_6 Sb0_4 3.217718 1_555
Mg1_6 Sb1_3 3.235001 1_655
Mg1_6 Sb1_7 3.235001 1_555
Mg1_7 Sb1_7 3.202700 1_555
Mg1_7 Sb1_3 3.202700 1_655
Mg1_7 Sb0_5 3.217718 1_555
Mg1_7 Sb0_7 3.217718 1_555
Mg1_7 Sb0_3 3.217718 1_655
Mg1_7 Sb0_1 3.217718 1_655
Mg1_7 Sb1_6 3.235001 1_556
Mg1_7 Sb1_2 3.235001 1_656
Sb0_0 Sb0_4 3.130970 1_555
Sb0_0 Sb0_4 3.130970 1_455
Sb0_1 Sb0_5 3.130970 1_455
Sb0_1 Sb0_5 3.130970 1_555
Sb0_2 Sb0_6 3.130970 1_455
Sb0_2 Sb0_6 3.130970 1_555
Sb0_3 Sb0_7 3.130970 1_455
Sb0_3 Sb0_7 3.130970 1_555
Sb1_0 Sb1_4 3.130970 1_455
Sb1_0 Sb1_4 3.130970 1_555
Sb1_1 Sb1_5 3.130970 1_455
Sb1_1 Sb1_5 3.130970 1_555
Sb1_2 Sb1_6 3.130970 1_555
Sb1_2 Sb1_6 3.130970 1_455
Sb1_3 Sb1_7 3.130970 1_455
Sb1_3 Sb1_7 3.130970 1_555
