# generated using pymatgen
data_EuInAu
_symmetry_space_group_name_H-M   'P 1'
_cell_length_a   4.71850095
_cell_length_b   7.58277559
_cell_length_c   8.46659854
_cell_angle_alpha   89.99639811
_cell_angle_beta   90.00000000
_cell_angle_gamma   90.00000000
_symmetry_Int_Tables_number   1
_chemical_formula_structural   EuInAu
_chemical_formula_sum   'Eu4 In4 Au4'
_cell_volume   302.92925523
_cell_formula_units_Z   4
loop_
 _symmetry_equiv_pos_site_id
 _symmetry_equiv_pos_as_xyz
  1  'x, y, z'
loop_
 _atom_site_type_symbol
 _atom_site_label
 _atom_site_symmetry_multiplicity
 _atom_site_fract_x
 _atom_site_fract_y
 _atom_site_fract_z
 _atom_site_occupancy
  Eu  Eu0  1  0.75000000  0.47373454  0.81554622  1
  Eu  Eu1  1  0.25000000  0.02627323  0.31552202  1
  Eu  Eu2  1  0.75000000  0.97372677  0.68447798  1
  Eu  Eu3  1  0.25000000  0.52626546  0.18445378  1
  In  In0  1  0.25000000  0.65621274  0.56520124  1
  In  In1  1  0.25000000  0.15625258  0.93480584  1
  In  In2  1  0.75000000  0.34378726  0.43479876  1
  In  In3  1  0.75000000  0.84374742  0.06519416  1
  Au  Au0  1  0.25000000  0.77567785  0.88400598  1
  Au  Au1  1  0.25000000  0.27573141  0.61599959  1
  Au  Au2  1  0.75000000  0.72426859  0.38400041  1
  Au  Au3  1  0.75000000  0.22432215  0.11599402  1
loop_
_geom_bond_atom_site_label_1
_geom_bond_atom_site_label_2
_geom_bond_distance
_geom_bond_site_symmetry_2
Eu0 In2 3.370929 1_555
Eu0 In0 3.460184 1_555
Eu0 In0 3.460184 1_655
Eu0 In3 3.512895 1_556
Eu0 In1 3.518643 1_555
Eu0 In1 3.518643 1_655
Eu1 In1 3.370629 1_554
Eu1 In3 3.460346 1_545
Eu1 In3 3.460346 1_445
Eu1 In0 3.513131 1_545
Eu1 In2 3.518938 1_555
Eu1 In2 3.518938 1_455
Eu2 In3 3.370629 1_556
Eu2 In1 3.460346 1_665
Eu2 In1 3.460346 1_565
Eu2 In2 3.513131 1_565
Eu2 In0 3.518938 1_555
Eu2 In0 3.518938 1_655
Eu3 In0 3.370929 1_555
Eu3 In2 3.460184 1_455
Eu3 In2 3.460184 1_555
Eu3 In1 3.512895 1_554
Eu3 In3 3.518643 1_555
Eu3 In3 3.518643 1_455
Au0 In0 2.847202 1_555
Au0 In3 2.861098 1_556
Au0 In3 2.861098 1_456
Au0 In1 2.917715 1_565
Au0 Eu3 3.169692 1_556
Au0 Eu2 3.267238 1_455
Au0 Eu2 3.267238 1_555
Au0 Eu0 3.338310 1_455
Au0 Eu0 3.338310 1_555
Au1 In1 2.847139 1_555
Au1 In2 2.861102 1_555
Au1 In2 2.861102 1_455
Au1 In0 2.916959 1_555
Au1 Eu1 3.170292 1_555
Au1 Eu0 3.267257 1_455
Au1 Eu0 3.267257 1_555
Au1 Eu2 3.338606 1_445
Au1 Eu2 3.338606 1_545
Au2 In3 2.847139 1_555
Au2 In0 2.861102 1_555
Au2 In0 2.861102 1_655
Au2 In2 2.916959 1_555
Au2 Eu2 3.170292 1_555
Au2 Eu3 3.267257 1_555
Au2 Eu3 3.267257 1_655
Au2 Eu1 3.338606 1_665
Au2 Eu1 3.338606 1_565
Au3 In2 2.847202 1_555
Au3 In1 2.861098 1_654
Au3 In1 2.861098 1_554
Au3 In3 2.917715 1_545
Au3 Eu0 3.169692 1_554
Au3 Eu1 3.267238 1_555
Au3 Eu1 3.267238 1_655
Au3 Eu3 3.338310 1_555
Au3 Eu3 3.338310 1_655
