# generated using pymatgen
data_MgScCrS4
_symmetry_space_group_name_H-M   'P 1'
_cell_length_a   7.41104753
_cell_length_b   7.40097446
_cell_length_c   7.40168370
_cell_angle_alpha   59.92220580
_cell_angle_beta   59.95725984
_cell_angle_gamma   59.95626446
_symmetry_Int_Tables_number   1
_chemical_formula_structural   MgScCrS4
_chemical_formula_sum   'Mg2 Sc2 Cr2 S8'
_cell_volume   286.71092306
_cell_formula_units_Z   2
loop_
 _symmetry_equiv_pos_site_id
 _symmetry_equiv_pos_as_xyz
  1  'x, y, z'
loop_
 _atom_site_type_symbol
 _atom_site_label
 _atom_site_symmetry_multiplicity
 _atom_site_fract_x
 _atom_site_fract_y
 _atom_site_fract_z
 _atom_site_occupancy
  Mg  Mg0  1  0.87420300  0.87578300  0.87580600  1
  Mg  Mg1  1  0.12581400  0.12420500  0.12417700  1
  Sc  Sc0  1  0.50000300  0.50000200  0.49997700  1
  Sc  Sc1  1  0.00000000  0.49996500  0.50001400  1
  Cr  Cr0  1  0.49992300  0.49998900  0.00007600  1
  Cr  Cr1  1  0.50006400  0.00004300  0.49999200  1
  S  S0  1  0.72253100  0.74682300  0.74687800  1
  S  S1  1  0.26678500  0.24441600  0.72202100  1
  S  S2  1  0.26678700  0.72200900  0.24439300  1
  S  S3  1  0.71624000  0.25318500  0.25309400  1
  S  S4  1  0.73317300  0.27798600  0.75560500  1
  S  S5  1  0.28376300  0.74684600  0.74685400  1
  S  S6  1  0.27748400  0.25314900  0.25315100  1
  S  S7  1  0.73323500  0.75559400  0.27796100  1
loop_
_geom_bond_atom_site_label_1
_geom_bond_atom_site_label_2
_geom_bond_distance
_geom_bond_site_symmetry_2
Mg0 S7 2.430177 1_556
Mg0 S4 2.430204 1_565
Mg0 S0 2.479175 1_555
Mg0 S5 2.479185 1_655
Mg1 S2 2.430157 1_545
Mg1 S1 2.430177 1_554
Mg1 S3 2.479270 1_455
Mg1 S6 2.479341 1_555
Cr0 S2 2.441828 1_555
Cr0 S4 2.442566 1_554
Cr0 S6 2.461165 1_555
Cr0 S3 2.461487 1_555
Cr0 S5 2.461812 1_554
Cr0 S0 2.462010 1_554
Cr1 S1 2.442155 1_555
Cr1 S7 2.442572 1_545
Cr1 S3 2.461392 1_555
Cr1 S0 2.461672 1_545
Cr1 S6 2.461947 1_555
Cr1 S5 2.462285 1_545
S0 Sc1 2.593677 1_655
S1 Sc0 2.565118 1_555
S1 Sc1 2.565149 1_555
S2 Sc0 2.565226 1_555
S2 Sc1 2.565299 1_555
S3 Sc0 2.593564 1_555
S4 Sc1 2.565190 1_655
S4 Sc0 2.565220 1_555
S5 Sc0 2.593678 1_555
S6 Sc1 2.593477 1_555
S7 Sc0 2.565240 1_555
S7 Sc1 2.565283 1_655
