# generated using pymatgen
data_Sr2LaCu2(BiO4)2
_symmetry_space_group_name_H-M   'P 1'
_cell_length_a   15.71959416
_cell_length_b   15.71959416
_cell_length_c   5.40397600
_cell_angle_alpha   90.00000000
_cell_angle_beta   90.00000000
_cell_angle_gamma   159.44156572
_symmetry_Int_Tables_number   1
_chemical_formula_structural   Sr2LaCu2(BiO4)2
_chemical_formula_sum   'Sr4 La2 Cu4 Bi4 O16'
_cell_volume   468.92585830
_cell_formula_units_Z   2
loop_
 _symmetry_equiv_pos_site_id
 _symmetry_equiv_pos_as_xyz
  1  'x, y, z'
loop_
 _atom_site_type_symbol
 _atom_site_label
 _atom_site_symmetry_multiplicity
 _atom_site_fract_x
 _atom_site_fract_y
 _atom_site_fract_z
 _atom_site_occupancy
  Sr  Sr0  1  0.61444400  0.88757500  0.50000000  1
  Sr  Sr1  1  0.38555600  0.11242500  0.50000000  1
  Sr  Sr2  1  0.11242500  0.38555600  0.00000000  1
  Sr  Sr3  1  0.88757500  0.61444400  0.00000000  1
  La  La0  1  0.50000000  0.00000000  0.50000000  1
  La  La1  1  0.00000000  0.50000000  0.00000000  1
  Cu  Cu0  1  0.05506800  0.44386900  0.50000000  1
  Cu  Cu1  1  0.94493200  0.55613100  0.50000000  1
  Cu  Cu2  1  0.55613100  0.94493200  0.00000000  1
  Cu  Cu3  1  0.44386900  0.05506800  0.00000000  1
  Bi  Bi0  1  0.22895000  0.32258600  0.50000000  1
  Bi  Bi1  1  0.77105000  0.67741400  0.50000000  1
  Bi  Bi2  1  0.67741400  0.77105000  0.00000000  1
  Bi  Bi3  1  0.32258600  0.22895000  0.00000000  1
  O  O0  1  0.12571600  0.35458300  0.50000000  1
  O  O1  1  0.87428400  0.64541700  0.50000000  1
  O  O2  1  0.64541700  0.87428400  0.00000000  1
  O  O3  1  0.35458300  0.12571600  0.00000000  1
  O  O4  1  0.69706000  0.30294000  0.75000000  1
  O  O5  1  0.30294000  0.69706000  0.25000000  1
  O  O6  1  0.30294000  0.69706000  0.75000000  1
  O  O7  1  0.69706000  0.30294000  0.25000000  1
  O  O8  1  0.61161100  0.71021700  0.50000000  1
  O  O9  1  0.38838900  0.28978300  0.50000000  1
  O  O10  1  0.28978300  0.38838900  0.00000000  1
  O  O11  1  0.71021700  0.61161100  0.00000000  1
  O  O12  1  0.80287600  0.19712400  0.75000000  1
  O  O13  1  0.19712400  0.80287600  0.25000000  1
  O  O14  1  0.19712400  0.80287600  0.75000000  1
  O  O15  1  0.80287600  0.19712400  0.25000000  1
loop_
_geom_bond_atom_site_label_1
_geom_bond_atom_site_label_2
_geom_bond_distance
_geom_bond_site_symmetry_2
La0 O15 2.543191 1_555
La0 O12 2.543191 1_555
La0 O13 2.543191 1_545
La0 O14 2.543191 1_545
La0 O6 2.544465 1_545
La0 O5 2.544465 1_545
La0 O7 2.544465 1_555
La0 O4 2.544465 1_555
La1 O14 2.543191 1_554
La1 O13 2.543191 1_555
La1 O12 2.543191 1_454
La1 O15 2.543191 1_455
La1 O5 2.544465 1_555
La1 O6 2.544465 1_554
La1 O7 2.544465 1_455
La1 O4 2.544465 1_454
Cu0 O15 1.947064 1_455
Cu0 O12 1.947064 1_455
Cu0 O6 1.951270 1_555
Cu0 O5 1.951270 1_555
Cu0 O0 2.474298 1_555
Cu1 O13 1.947064 1_655
Cu1 O14 1.947064 1_655
Cu1 O7 1.951270 1_555
Cu1 O4 1.951270 1_555
Cu1 O1 2.474298 1_555
Cu2 O12 1.947064 1_564
Cu2 O15 1.947064 1_565
Cu2 O6 1.951270 1_554
Cu2 O5 1.951270 1_555
Cu2 O2 2.474298 1_555
Cu3 O14 1.947064 1_544
Cu3 O13 1.947064 1_545
Cu3 O7 1.951270 1_555
Cu3 O4 1.951270 1_554
Cu3 O3 2.474298 1_555
Bi0 O0 2.101181 1_555
Bi0 O8 2.162104 1_555
Bi0 O10 2.726322 1_556
Bi0 O10 2.726322 1_555
Bi1 O1 2.101181 1_555
Bi1 O9 2.162104 1_555
Bi1 O11 2.726322 1_555
Bi1 O11 2.726322 1_556
Bi2 O2 2.101181 1_555
Bi2 O10 2.162104 1_555
Bi2 O8 2.726322 1_555
Bi2 O8 2.726322 1_554
Bi3 O3 2.101181 1_555
Bi3 O11 2.162104 1_555
Bi3 O9 2.726322 1_554
Bi3 O9 2.726322 1_555
O0 Sr2 2.787819 1_556
O0 Sr2 2.787819 1_555
O0 Sr0 2.828279 1_445
O0 Sr0 2.946655 1_555
O1 Sr3 2.787819 1_555
O1 Sr3 2.787819 1_556
O1 Sr1 2.828279 1_665
O1 Sr1 2.946655 1_555
O2 Sr0 2.787819 1_555
O2 Sr0 2.787819 1_554
O2 Sr2 2.828279 1_665
O2 Sr2 2.946655 1_555
O3 Sr1 2.787819 1_554
O3 Sr1 2.787819 1_555
O3 Sr3 2.828279 1_445
O3 Sr3 2.946655 1_555
O4 Sr3 2.703751 1_556
O4 Sr1 2.703751 1_555
O5 Sr0 2.703751 1_555
O5 Sr2 2.703751 1_555
O6 Sr0 2.703751 1_555
O6 Sr2 2.703751 1_556
O7 Sr3 2.703751 1_555
O7 Sr1 2.703751 1_555
O8 Sr0 2.746343 1_555
O9 Sr1 2.746343 1_555
O10 Sr2 2.746343 1_555
O11 Sr3 2.746343 1_555
O12 Sr0 2.699242 1_545
O12 Sr2 2.699242 1_656
O13 Sr3 2.699242 1_455
O13 Sr1 2.699242 1_565
O14 Sr3 2.699242 1_456
O14 Sr1 2.699242 1_565
O15 Sr0 2.699242 1_545
O15 Sr2 2.699242 1_655
