# generated using pymatgen
data_CaV2Zn2(SiO5)2
_symmetry_space_group_name_H-M   'P 1'
_cell_length_a   5.58699500
_cell_length_b   7.55301417
_cell_length_c   8.32871607
_cell_angle_alpha   88.54765154
_cell_angle_beta   39.53805173
_cell_angle_gamma   105.54885508
_symmetry_Int_Tables_number   1
_chemical_formula_structural   CaV2Zn2(SiO5)2
_chemical_formula_sum   'Ca1 V2 Zn2 Si2 O10'
_cell_volume   199.51996994
_cell_formula_units_Z   1
loop_
 _symmetry_equiv_pos_site_id
 _symmetry_equiv_pos_as_xyz
  1  'x, y, z'
loop_
 _atom_site_type_symbol
 _atom_site_label
 _atom_site_symmetry_multiplicity
 _atom_site_fract_x
 _atom_site_fract_y
 _atom_site_fract_z
 _atom_site_occupancy
  Ca  Ca0  1  0.21182700  0.38134600  0.21121700  1
  V  V0  1  0.50611500  0.51462400  0.47837200  1
  V  V1  1  0.44921800  0.98831300  0.52776500  1
  Zn  Zn0  1  0.83411000  0.21531100  0.03877200  1
  Zn  Zn1  1  0.58333200  0.80630400  0.75311800  1
  Si  Si0  1  0.53453400  0.21800600  0.82083000  1
  Si  Si1  1  0.44827200  0.78748200  0.18719500  1
  O  O0  1  0.71870500  0.09811200  0.61738700  1
  O  O1  1  0.49905500  0.39244300  0.72276400  1
  O  O2  1  0.20668100  0.88012800  0.42626600  1
  O  O3  1  0.50669000  0.60930000  0.25007000  1
  O  O4  1  0.19588100  0.68322600  0.14694600  1
  O  O5  1  0.89175400  0.97327300  0.89502200  1
  O  O6  1  0.83730800  0.33684300  0.81866000  1
  O  O7  1  0.07092400  0.08542300  0.13955200  1
  O  O8  1  0.41464400  0.73360200  0.61850200  1
  O  O9  1  0.61430100  0.28271900  0.34962900  1
loop_
_geom_bond_atom_site_label_1
_geom_bond_atom_site_label_2
_geom_bond_distance
_geom_bond_site_symmetry_2
Ca0 O3 2.261164 1_555
Ca0 O4 2.369376 1_555
Ca0 O0 2.389307 1_455
Ca0 O9 2.390803 1_455
Ca0 O7 2.412623 1_555
Ca0 O6 2.465224 1_554
O0 Si0 1.624198 1_555
O0 Zn1 2.090209 1_545
O0 V1 2.146444 1_545
O1 Si0 1.666567 1_555
O1 Zn0 2.143396 1_456
O1 V0 2.181228 1_555
O2 Si1 1.645560 1_555
O2 Zn1 2.027161 1_455
O2 V1 2.103976 1_555
O2 Zn0 2.547835 1_565
O3 Si1 1.629523 1_555
O3 V0 2.011801 1_555
O4 Si1 1.693524 1_555
O4 Zn1 2.030754 1_554
O4 V0 2.208088 1_455
O5 Si1 1.641042 1_556
O5 V1 2.041594 1_655
O5 Zn0 2.170487 1_566
O6 Si0 1.674957 1_555
O6 Zn0 2.014723 1_556
O6 V0 2.140245 1_655
O7 Si0 1.621087 1_554
O7 V1 2.061249 1_445
O7 Zn0 2.405116 1_455
O8 V1 1.952302 1_555
O8 Zn1 1.957131 1_555
O8 V0 1.997467 1_555
O9 Zn0 1.992089 1_555
O9 V0 2.060651 1_555
O9 V1 2.149213 1_545
