# generated using pymatgen
data_KV2Fe(AgO4)2
_symmetry_space_group_name_H-M   'P 1'
_cell_length_a   5.53729621
_cell_length_b   14.94662708
_cell_length_c   5.53785737
_cell_angle_alpha   89.98937560
_cell_angle_beta   59.97243519
_cell_angle_gamma   89.99287926
_symmetry_Int_Tables_number   1
_chemical_formula_structural   KV2Fe(AgO4)2
_chemical_formula_sum   'K2 V4 Fe2 Ag4 O16'
_cell_volume   396.81917313
_cell_formula_units_Z   2
loop_
 _symmetry_equiv_pos_site_id
 _symmetry_equiv_pos_as_xyz
  1  'x, y, z'
loop_
 _atom_site_type_symbol
 _atom_site_label
 _atom_site_symmetry_multiplicity
 _atom_site_fract_x
 _atom_site_fract_y
 _atom_site_fract_z
 _atom_site_occupancy
  K  K0  1  0.00028500  0.00003400  0.99964400  1
  K  K1  1  0.99968400  0.49996500  0.00032700  1
  V  V0  1  0.66648700  0.86649800  0.66687300  1
  V  V1  1  0.33339300  0.63352400  0.33314600  1
  V  V2  1  0.66680100  0.36646200  0.66673800  1
  V  V3  1  0.33338700  0.13349200  0.33323100  1
  Fe  Fe0  1  0.00005700  0.24996200  0.99998600  1
  Fe  Fe1  1  0.99994600  0.75003000  0.99999700  1
  Ag  Ag0  1  0.66691700  0.13593900  0.66634800  1
  Ag  Ag1  1  0.66691500  0.63594700  0.66638700  1
  Ag  Ag2  1  0.33307600  0.36409300  0.33369000  1
  Ag  Ag3  1  0.33295800  0.86405800  0.33361800  1
  O  O0  1  0.66703500  0.47932700  0.66672100  1
  O  O1  1  0.66668500  0.97938800  0.66689800  1
  O  O2  1  0.33310200  0.02058700  0.33325300  1
  O  O3  1  0.33320500  0.52064900  0.33312700  1
  O  O4  1  0.92232900  0.32983400  0.32870200  1
  O  O5  1  0.92202400  0.82985500  0.32887300  1
  O  O6  1  0.32892900  0.32992300  0.74892400  1
  O  O7  1  0.32873200  0.82999400  0.74896100  1
  O  O8  1  0.74890100  0.32974100  0.92227500  1
  O  O9  1  0.74860900  0.82973600  0.92224900  1
  O  O10  1  0.07766600  0.17014500  0.67145400  1
  O  O11  1  0.07784500  0.67019200  0.67114600  1
  O  O12  1  0.67139100  0.17002000  0.25098900  1
  O  O13  1  0.67116900  0.67005600  0.25106300  1
  O  O14  1  0.25119400  0.17024000  0.07764200  1
  O  O15  1  0.25128100  0.67030700  0.07774000  1
loop_
_geom_bond_atom_site_label_1
_geom_bond_atom_site_label_2
_geom_bond_distance
_geom_bond_site_symmetry_2
K0 O7 3.027791 1_545
K0 O10 3.028315 1_555
K0 O12 3.028613 1_456
K0 O5 3.031443 1_446
K0 O14 3.031627 1_556
K0 O9 3.033790 1_445
K0 O1 3.209653 1_545
K0 O2 3.209766 1_555
K0 O1 3.210946 1_445
K0 O2 3.211195 1_556
K0 O2 3.213254 1_456
K0 O1 3.214016 1_446
K1 O13 3.028617 1_555
K1 O4 3.029131 1_555
K1 O6 3.030088 1_654
K1 O8 3.031594 1_554
K1 O11 3.031991 1_654
K1 O15 3.034147 1_655
K1 O0 3.209903 1_555
K1 O3 3.210084 1_555
K1 O0 3.210501 1_554
K1 O3 3.210881 1_655
K1 O3 3.213813 1_654
K1 O0 3.214177 1_654
Fe0 O10 2.033756 1_555
Fe0 O14 2.033850 1_556
Fe0 O8 2.034601 1_455
Fe0 O12 2.034713 1_456
Fe0 O4 2.034887 1_456
Fe0 O6 2.035587 1_555
Fe1 O9 2.034866 1_555
Fe1 O5 2.034920 1_556
Fe1 O11 2.034955 1_655
Fe1 O15 2.034991 1_656
Fe1 O7 2.035316 1_655
Fe1 O13 2.035415 1_556
Ag0 O1 2.339911 1_545
Ag0 O12 2.343832 1_555
Ag0 O10 2.345192 1_655
Ag0 O14 2.345720 1_556
Ag1 O0 2.340941 1_555
Ag1 O13 2.344319 1_555
Ag1 O11 2.345342 1_655
Ag1 O15 2.345825 1_556
Ag2 O3 2.339985 1_555
Ag2 O6 2.344316 1_555
Ag2 O4 2.345029 1_455
Ag2 O8 2.346488 1_554
Ag3 O2 2.339581 1_565
Ag3 O7 2.344351 1_555
Ag3 O5 2.345188 1_455
Ag3 O9 2.345790 1_554
O0 V2 1.686952 1_555
O1 V0 1.687325 1_555
O2 V3 1.687550 1_555
O3 V1 1.687101 1_555
O4 V2 1.776331 1_555
O5 V0 1.776283 1_555
O6 V2 1.775841 1_555
O7 V0 1.775227 1_555
O8 V2 1.775956 1_555
O9 V0 1.775401 1_555
O10 V3 1.777413 1_555
O11 V1 1.776415 1_555
O12 V3 1.776382 1_555
O13 V1 1.775471 1_555
O14 V3 1.776684 1_555
O15 V1 1.775615 1_555
