# generated using pymatgen
data_Li2TiFeO4
_symmetry_space_group_name_H-M   'P 1'
_cell_length_a   6.03901827
_cell_length_b   8.48587274
_cell_length_c   6.03946158
_cell_angle_alpha   89.48498428
_cell_angle_beta   89.55824103
_cell_angle_gamma   90.49261970
_symmetry_Int_Tables_number   1
_chemical_formula_structural   Li2TiFeO4
_chemical_formula_sum   'Li8 Ti4 Fe4 O16'
_cell_volume   309.46697717
_cell_formula_units_Z   4
loop_
 _symmetry_equiv_pos_site_id
 _symmetry_equiv_pos_as_xyz
  1  'x, y, z'
loop_
 _atom_site_type_symbol
 _atom_site_label
 _atom_site_symmetry_multiplicity
 _atom_site_fract_x
 _atom_site_fract_y
 _atom_site_fract_z
 _atom_site_occupancy
  Li  Li0  1  0.50719900  0.49738400  0.99710300  1
  Li  Li1  1  0.00613600  0.99487100  0.50041500  1
  Li  Li2  1  0.25428600  0.75020900  0.25085200  1
  Li  Li3  1  0.75162000  0.24758300  0.75143000  1
  Li  Li4  1  0.25747000  0.74685800  0.75567400  1
  Li  Li5  1  0.75713100  0.24687700  0.25693400  1
  Li  Li6  1  0.01053900  0.49932100  0.00367600  1
  Li  Li7  1  0.50915000  0.99932500  0.50374900  1
  Ti  Ti0  1  0.00487500  0.99894200  0.00434100  1
  Ti  Ti1  1  0.49939200  0.49838600  0.49435400  1
  Ti  Ti2  1  0.75726700  0.74755200  0.25129400  1
  Ti  Ti3  1  0.24797100  0.24816000  0.74630000  1
  Fe  Fe0  1  0.25659000  0.24642300  0.24759400  1
  Fe  Fe1  1  0.00068500  0.50036500  0.50367700  1
  Fe  Fe2  1  0.75244100  0.74937200  0.75026600  1
  Fe  Fe3  1  0.50373100  0.99738300  0.99908800  1
  O  O0  1  0.52104400  0.75372500  0.02245100  1
  O  O1  1  0.02915700  0.24904500  0.51188900  1
  O  O2  1  0.26600200  0.49805000  0.27542900  1
  O  O3  1  0.77597900  0.99293800  0.76750300  1
  O  O4  1  0.73745900  0.50418500  0.72645700  1
  O  O5  1  0.22962600  0.99694400  0.22901600  1
  O  O6  1  0.47913800  0.24266800  0.98505500  1
  O  O7  1  0.98220300  0.74930900  0.47640800  1
  O  O8  1  0.73466000  0.50883200  0.25772700  1
  O  O9  1  0.23866600  0.01256600  0.75841600  1
  O  O10  1  0.01095000  0.23776200  0.98092600  1
  O  O11  1  0.51179100  0.73414900  0.48500300  1
  O  O12  1  0.99423900  0.75973700  0.01544000  1
  O  O13  1  0.49604600  0.26043400  0.51762100  1
  O  O14  1  0.27070200  0.48594100  0.74269900  1
  O  O15  1  0.76890200  0.98697900  0.24096000  1
loop_
_geom_bond_atom_site_label_1
_geom_bond_atom_site_label_2
_geom_bond_distance
_geom_bond_site_symmetry_2
Li0 O8 2.099450 1_556
Li0 O14 2.108095 1_555
Li0 O4 2.137895 1_555
Li0 O6 2.168585 1_555
Li0 O0 2.182960 1_556
Li0 O2 2.215809 1_556
Li1 O7 2.093978 1_455
Li1 O9 2.111100 1_565
Li1 O5 2.115068 1_555
Li1 O3 2.121014 1_455
Li1 O15 2.132427 1_455
Li1 O1 2.161938 1_565
Li2 O5 2.103357 1_555
Li2 O0 2.112590 1_555
Li2 O11 2.114412 1_555
Li2 O7 2.126183 1_455
Li2 O12 2.128083 1_455
Li2 O2 2.145412 1_555
Li3 O10 2.101032 1_655
Li3 O13 2.102791 1_555
Li3 O6 2.159232 1_555
Li3 O3 2.168502 1_545
Li3 O4 2.183811 1_555
Li3 O1 2.205486 1_655
Li4 O14 2.218303 1_555
Li4 O12 2.228867 1_456
Li4 O11 2.238310 1_555
Li4 O9 2.258800 1_565
Li4 O0 2.274327 1_556
Li4 O7 2.377328 1_455
Li5 O15 2.210166 1_545
Li5 O13 2.223976 1_555
Li5 O8 2.228265 1_555
Li5 O10 2.258131 1_654
Li5 O1 2.260306 1_655
Li5 O6 2.357618 1_554
Li6 O12 2.214647 1_455
Li6 O14 2.221198 1_554
Li6 O10 2.225059 1_554
Li6 O8 2.258648 1_455
Li6 O2 2.261165 1_555
Li6 O4 2.359445 1_454
Li7 O13 2.220141 1_565
Li7 O15 2.226646 1_555
Li7 O9 2.239182 1_565
Li7 O11 2.254299 1_555
Li7 O3 2.275184 1_555
Li7 O5 2.376174 1_555
Fe0 O6 2.071272 1_554
Fe0 O1 2.098126 1_555
Fe0 O5 2.125939 1_545
Fe0 O2 2.143689 1_555
Fe0 O13 2.191288 1_555
Fe0 O10 2.199285 1_554
Fe1 O4 2.075318 1_455
Fe1 O2 2.105902 1_555
Fe1 O7 2.121403 1_455
Fe1 O1 2.141224 1_555
Fe1 O14 2.189610 1_555
Fe1 O8 2.197588 1_455
Fe2 O3 2.074136 1_555
Fe2 O4 2.088111 1_555
Fe2 O0 2.150099 1_556
Fe2 O7 2.150690 1_555
Fe2 O11 2.175243 1_555
Fe2 O12 2.177430 1_556
Fe3 O0 2.074782 1_556
Fe3 O6 2.089029 1_565
Fe3 O3 2.151115 1_555
Fe3 O5 2.152393 1_556
Fe3 O9 2.174339 1_565
Fe3 O15 2.177669 1_556
O0 Ti2 1.994582 1_555
O1 Ti3 1.944040 1_555
O2 Ti1 1.939966 1_555
O3 Ti0 1.997480 1_656
O4 Ti1 2.016298 1_555
O5 Ti0 1.926678 1_555
O6 Ti3 2.015248 1_555
O7 Ti2 1.929345 1_555
O8 Ti1 2.008250 1_555
O8 Ti2 2.029174 1_555
O9 Ti3 2.000193 1_555
O9 Ti0 2.043157 1_546
O10 Ti3 2.007200 1_555
O10 Ti0 2.030252 1_546
O11 Ti1 2.001685 1_555
O11 Ti2 2.040775 1_555
O12 Ti2 2.012723 1_555
O12 Ti0 2.030815 1_655
O13 Ti1 2.022770 1_555
O13 Ti3 2.031132 1_555
O14 Ti3 2.021176 1_555
O14 Ti1 2.032437 1_555
O15 Ti0 2.011653 1_655
O15 Ti2 2.032739 1_555
