# generated using pymatgen
data_Ho2Si4Mo3
_symmetry_space_group_name_H-M   'P 1'
_cell_length_a   6.82513107
_cell_length_b   6.89000543
_cell_length_c   6.71030186
_cell_angle_alpha   90.00000000
_cell_angle_beta   108.79638752
_cell_angle_gamma   90.00000000
_symmetry_Int_Tables_number   1
_chemical_formula_structural   Ho2Si4Mo3
_chemical_formula_sum   'Ho4 Si8 Mo6'
_cell_volume   298.72463409
_cell_formula_units_Z   2
loop_
 _symmetry_equiv_pos_site_id
 _symmetry_equiv_pos_as_xyz
  1  'x, y, z'
loop_
 _atom_site_type_symbol
 _atom_site_label
 _atom_site_symmetry_multiplicity
 _atom_site_fract_x
 _atom_site_fract_y
 _atom_site_fract_z
 _atom_site_occupancy
  Ho  Ho0  1  0.19145806  0.32985987  0.56244776  1
  Ho  Ho1  1  0.80854194  0.82985987  0.93755224  1
  Ho  Ho2  1  0.80854194  0.67014013  0.43755224  1
  Ho  Ho3  1  0.19145806  0.17014013  0.06244776  1
  Si  Si0  1  0.08986156  0.54468631  0.86822495  1
  Si  Si1  1  0.91013844  0.04468631  0.63177505  1
  Si  Si2  1  0.91013844  0.45531369  0.13177505  1
  Si  Si3  1  0.08986156  0.95531369  0.36822495  1
  Si  Si4  1  0.50491869  0.13107744  0.87257494  1
  Si  Si5  1  0.49508131  0.63107744  0.62742506  1
  Si  Si6  1  0.49508131  0.86892256  0.12742506  1
  Si  Si7  1  0.50491869  0.36892256  0.37257494  1
  Mo  Mo0  1  0.50000000  0.50000000  0.00000000  1
  Mo  Mo1  1  0.50000000  -0.00000000  0.50000000  1
  Mo  Mo2  1  0.24959908  0.83752209  0.74845358  1
  Mo  Mo3  1  0.75040092  0.33752209  0.75154642  1
  Mo  Mo4  1  0.75040092  0.16247791  0.25154642  1
  Mo  Mo5  1  0.24959908  0.66247791  0.24845358  1
loop_
_geom_bond_atom_site_label_1
_geom_bond_atom_site_label_2
_geom_bond_distance
_geom_bond_site_symmetry_2
Ho0 Si0 2.792606 1_555
Ho0 Si4 2.813292 1_555
Ho0 Si7 2.833622 1_555
Ho0 Si5 2.865205 1_555
Ho0 Si3 2.873439 1_545
Ho0 Si1 2.887769 1_455
Ho0 Si2 3.034760 1_455
Ho1 Si1 2.792606 1_565
Ho1 Si5 2.813292 1_555
Ho1 Si6 2.833622 1_556
Ho1 Si4 2.865205 1_565
Ho1 Si2 2.873439 1_556
Ho1 Si0 2.887769 1_655
Ho1 Si3 3.034760 1_656
Ho2 Si2 2.792606 1_555
Ho2 Si6 2.813292 1_555
Ho2 Si5 2.833622 1_555
Ho2 Si7 2.865205 1_555
Ho2 Si1 2.873439 1_565
Ho2 Si3 2.887769 1_655
Ho2 Si0 3.034760 1_655
Ho3 Si3 2.792606 1_545
Ho3 Si7 2.813292 1_555
Ho3 Si4 2.833622 1_554
Ho3 Si6 2.865205 1_545
Ho3 Si0 2.873439 1_554
Ho3 Si2 2.887769 1_455
Ho3 Si1 3.034760 1_454
Si0 Si2 2.531666 1_456
Si1 Si3 2.531666 1_645
Si4 Si6 2.503108 1_546
Si5 Si7 2.503108 1_555
Mo0 Si5 2.648231 1_554
Mo0 Si7 2.648231 1_555
Mo0 Si2 2.667848 1_555
Mo0 Si0 2.667848 1_554
Mo0 Si4 2.685498 1_554
Mo0 Si6 2.685498 1_555
Mo1 Si6 2.648231 1_545
Mo1 Si4 2.648231 1_555
Mo1 Si3 2.667848 1_545
Mo1 Si1 2.667848 1_555
Mo1 Si7 2.685498 1_555
Mo1 Si5 2.685498 1_545
Mo2 Si5 2.523248 1_555
Mo2 Si0 2.543630 1_555
Mo2 Si3 2.562152 1_555
Mo2 Si6 2.564218 1_556
Mo2 Si1 2.617112 1_465
Mo2 Si4 2.624107 1_565
Mo3 Si4 2.523248 1_555
Mo3 Si1 2.543630 1_555
Mo3 Si2 2.562152 1_556
Mo3 Si7 2.564218 1_555
Mo3 Si0 2.617112 1_655
Mo3 Si5 2.624107 1_555
Mo4 Si7 2.523248 1_555
Mo4 Si2 2.543630 1_555
Mo4 Si1 2.562152 1_555
Mo4 Si4 2.564218 1_554
Mo4 Si3 2.617112 1_645
Mo4 Si6 2.624107 1_545
Mo5 Si6 2.523248 1_555
Mo5 Si3 2.543630 1_555
Mo5 Si0 2.562152 1_554
Mo5 Si5 2.564218 1_555
Mo5 Si2 2.617112 1_455
Mo5 Si7 2.624107 1_555
