# generated using pymatgen
data_Sr2SmTa(CuO4)2
_symmetry_space_group_name_H-M   'P 1'
_cell_length_a   5.52101824
_cell_length_b   5.52101828
_cell_length_c   12.50890535
_cell_angle_alpha   102.65165646
_cell_angle_beta   102.65165768
_cell_angle_gamma   89.96489792
_symmetry_Int_Tables_number   1
_chemical_formula_structural   Sr2SmTa(CuO4)2
_chemical_formula_sum   'Sr4 Sm2 Ta2 Cu4 O16'
_cell_volume   362.55158362
_cell_formula_units_Z   2
loop_
 _symmetry_equiv_pos_site_id
 _symmetry_equiv_pos_as_xyz
  1  'x, y, z'
loop_
 _atom_site_type_symbol
 _atom_site_label
 _atom_site_symmetry_multiplicity
 _atom_site_fract_x
 _atom_site_fract_y
 _atom_site_fract_z
 _atom_site_occupancy
  Sr  Sr0  1  0.59796900  0.09796900  0.20179400  1
  Sr  Sr1  1  0.90222900  0.40222900  0.79897300  1
  Sr  Sr2  1  0.09777100  0.59777100  0.20102700  1
  Sr  Sr3  1  0.40203100  0.90203100  0.79820600  1
  Sm  Sm0  1  0.24952900  0.74952900  0.49993200  1
  Sm  Sm1  1  0.75047100  0.25047100  0.50006800  1
  Ta  Ta0  1  0.00000000  0.00000000  0.00000000  1
  Ta  Ta1  1  0.50000000  0.50000000  0.00000000  1
  Cu  Cu0  1  0.67451700  0.67488500  0.35565900  1
  Cu  Cu1  1  0.82511500  0.82548300  0.64434100  1
  Cu  Cu2  1  0.17488500  0.17451700  0.35565900  1
  Cu  Cu3  1  0.32548300  0.32511500  0.64434100  1
  O  O0  1  0.18874500  0.31125500  0.00000000  1
  O  O1  1  0.43956700  0.42729700  0.37196400  1
  O  O2  1  0.58550500  0.57461600  0.16580600  1
  O  O3  1  0.57240500  0.07240500  0.62840000  1
  O  O4  1  0.68667500  0.18667500  0.99544800  1
  O  O5  1  0.94164800  0.44164800  0.37463000  1
  O  O6  1  0.92538400  0.91449500  0.83419400  1
  O  O7  1  0.07461600  0.08550500  0.16580600  1
  O  O8  1  0.07270300  0.06043300  0.62803600  1
  O  O9  1  0.31332500  0.81332500  0.00455200  1
  O  O10  1  0.42759500  0.92759500  0.37160000  1
  O  O11  1  0.41449500  0.42538400  0.83419400  1
  O  O12  1  0.56043300  0.57270300  0.62803600  1
  O  O13  1  0.81125500  0.68874500  0.00000000  1
  O  O14  1  0.92729700  0.93956700  0.37196400  1
  O  O15  1  0.05835200  0.55835200  0.62537000  1
loop_
_geom_bond_atom_site_label_1
_geom_bond_atom_site_label_2
_geom_bond_distance
_geom_bond_site_symmetry_2
Cu0 O1 1.957790 1_555
Cu0 O10 1.959528 1_555
Cu0 O5 1.966687 1_555
Cu0 O14 1.967740 1_555
Cu0 O2 2.258561 1_555
Cu1 O8 1.957790 1_665
Cu1 O3 1.959528 1_565
Cu1 O15 1.966688 1_655
Cu1 O12 1.967740 1_555
Cu1 O6 2.258561 1_555
Cu2 O14 1.957790 1_445
Cu2 O10 1.959528 1_545
Cu2 O5 1.966688 1_455
Cu2 O1 1.967740 1_555
Cu2 O7 2.258561 1_555
Cu3 O12 1.957790 1_555
Cu3 O3 1.959528 1_555
Cu3 O15 1.966687 1_555
Cu3 O8 1.967740 1_555
Cu3 O11 2.258561 1_555
O0 Ta1 2.010260 1_555
O0 Ta0 2.010260 1_555
O0 Sr1 2.808512 1_454
O0 Sr2 2.808512 1_555
O1 Sm1 2.438366 1_555
O1 Sm0 2.512798 1_555
O1 Sr0 2.778488 1_555
O1 Sr2 2.851450 1_555
O2 Ta1 1.972643 1_555
O2 Sr0 2.763644 1_555
O2 Sr2 2.763924 1_655
O2 Sr2 2.820665 1_555
O2 Sr0 2.823677 1_565
O3 Sm1 2.427708 1_555
O3 Sm0 2.536138 1_545
O3 Sr1 2.790081 1_555
O3 Sr3 2.834230 1_545
O4 Ta0 2.009549 1_656
O4 Ta1 2.009549 1_556
O4 Sr3 2.762776 1_545
O4 Sr0 2.872261 1_556
O5 Sm0 2.429991 1_655
O5 Sm1 2.478405 1_555
O5 Sr2 2.800448 1_655
O5 Sr0 2.878424 1_555
O6 Ta0 1.972643 1_666
O6 Sr3 2.763644 1_655
O6 Sr1 2.763924 1_555
O6 Sr1 2.820665 1_565
O6 Sr3 2.823677 1_555
O7 Ta0 1.972643 1_555
O7 Sr0 2.763644 1_455
O7 Sr2 2.763924 1_555
O7 Sr2 2.820665 1_545
O7 Sr0 2.823677 1_555
O8 Sm0 2.438366 1_545
O8 Sm1 2.512798 1_455
O8 Sr3 2.778488 1_545
O8 Sr1 2.851450 1_455
O9 Ta0 2.009549 1_565
O9 Ta1 2.009549 1_555
O9 Sr0 2.762776 1_565
O9 Sr3 2.872261 1_554
O10 Sm0 2.427708 1_555
O10 Sm1 2.536138 1_565
O10 Sr2 2.790081 1_555
O10 Sr0 2.834230 1_565
O11 Ta1 1.972643 1_556
O11 Sr3 2.763644 1_555
O11 Sr1 2.763924 1_455
O11 Sr1 2.820665 1_555
O11 Sr3 2.823677 1_545
O12 Sm0 2.438366 1_555
O12 Sm1 2.512798 1_555
O12 Sr3 2.778488 1_555
O12 Sr1 2.851450 1_555
O13 Ta1 2.010260 1_555
O13 Ta0 2.010260 1_665
O13 Sr2 2.808512 1_655
O13 Sr1 2.808512 1_554
O14 Sm1 2.438366 1_565
O14 Sm0 2.512798 1_655
O14 Sr0 2.778488 1_565
O14 Sr2 2.851450 1_655
O15 Sm1 2.429991 1_455
O15 Sm0 2.478405 1_555
O15 Sr1 2.800448 1_455
O15 Sr3 2.878424 1_555
