# generated using pymatgen
data_Al3ZnCr8
_symmetry_space_group_name_H-M   'P 1'
_cell_length_a   5.95187600
_cell_length_b   5.95187600
_cell_length_c   34.44126600
_cell_angle_alpha   90.00000000
_cell_angle_beta   90.00000000
_cell_angle_gamma   90.00000000
_symmetry_Int_Tables_number   1
_chemical_formula_structural   Al3ZnCr8
_chemical_formula_sum   'Al24 Zn8 Cr64'
_cell_volume   1220.07592138
_cell_formula_units_Z   8
loop_
 _symmetry_equiv_pos_site_id
 _symmetry_equiv_pos_as_xyz
  1  'x, y, z'
loop_
 _atom_site_type_symbol
 _atom_site_label
 _atom_site_symmetry_multiplicity
 _atom_site_fract_x
 _atom_site_fract_y
 _atom_site_fract_z
 _atom_site_occupancy
  Al  Al0_0  1  0.25000000  0.25000000  0.12530300  1
  Al  Al0_1  1  0.25000000  0.25000000  0.62530300  1
  Al  Al0_2  1  0.25000000  0.75000000  0.12530300  1
  Al  Al0_3  1  0.25000000  0.75000000  0.62530300  1
  Al  Al0_4  1  0.75000000  0.25000000  0.12530300  1
  Al  Al0_5  1  0.75000000  0.25000000  0.62530300  1
  Al  Al0_6  1  0.75000000  0.75000000  0.12530300  1
  Al  Al0_7  1  0.75000000  0.75000000  0.62530300  1
  Al  Al1_0  1  0.00000000  0.00000000  0.25000000  1
  Al  Al1_1  1  0.00000000  0.00000000  0.75000000  1
  Al  Al1_2  1  0.00000000  0.50000000  0.25000000  1
  Al  Al1_3  1  0.00000000  0.50000000  0.75000000  1
  Al  Al1_4  1  0.50000000  0.00000000  0.25000000  1
  Al  Al1_5  1  0.50000000  0.00000000  0.75000000  1
  Al  Al1_6  1  0.50000000  0.50000000  0.25000000  1
  Al  Al1_7  1  0.50000000  0.50000000  0.75000000  1
  Al  Al2_0  1  0.25000000  0.25000000  0.37469700  1
  Al  Al2_1  1  0.25000000  0.25000000  0.87469700  1
  Al  Al2_2  1  0.25000000  0.75000000  0.37469700  1
  Al  Al2_3  1  0.25000000  0.75000000  0.87469700  1
  Al  Al2_4  1  0.75000000  0.25000000  0.37469700  1
  Al  Al2_5  1  0.75000000  0.25000000  0.87469700  1
  Al  Al2_6  1  0.75000000  0.75000000  0.37469700  1
  Al  Al2_7  1  0.75000000  0.75000000  0.87469700  1
  Zn  Zn0_0  1  0.00000000  0.00000000  0.00000000  1
  Zn  Zn0_1  1  0.00000000  0.00000000  0.50000000  1
  Zn  Zn0_2  1  0.00000000  0.50000000  0.00000000  1
  Zn  Zn0_3  1  0.00000000  0.50000000  0.50000000  1
  Zn  Zn0_4  1  0.50000000  0.00000000  0.00000000  1
  Zn  Zn0_5  1  0.50000000  0.00000000  0.50000000  1
  Zn  Zn0_6  1  0.50000000  0.50000000  0.00000000  1
  Zn  Zn0_7  1  0.50000000  0.50000000  0.50000000  1
  Cr  Cr0_0  1  0.25000000  0.25000000  0.04615150  1
  Cr  Cr0_1  1  0.25000000  0.25000000  0.54615150  1
  Cr  Cr0_2  1  0.25000000  0.75000000  0.04615150  1
  Cr  Cr0_3  1  0.25000000  0.75000000  0.54615150  1
  Cr  Cr0_4  1  0.75000000  0.25000000  0.04615150  1
  Cr  Cr0_5  1  0.75000000  0.25000000  0.54615150  1
  Cr  Cr0_6  1  0.75000000  0.75000000  0.04615150  1
  Cr  Cr0_7  1  0.75000000  0.75000000  0.54615150  1
  Cr  Cr1_0  1  0.00000000  0.00000000  0.17089500  1
  Cr  Cr1_1  1  0.00000000  0.00000000  0.67089500  1
  Cr  Cr1_2  1  0.00000000  0.50000000  0.17089500  1
  Cr  Cr1_3  1  0.00000000  0.50000000  0.67089500  1
  Cr  Cr1_4  1  0.50000000  0.00000000  0.17089500  1
  Cr  Cr1_5  1  0.50000000  0.00000000  0.67089500  1
  Cr  Cr1_6  1  0.50000000  0.50000000  0.17089500  1
  Cr  Cr1_7  1  0.50000000  0.50000000  0.67089500  1
  Cr  Cr2_0  1  0.25000000  0.25000000  0.29587550  1
  Cr  Cr2_1  1  0.25000000  0.25000000  0.79587550  1
  Cr  Cr2_2  1  0.25000000  0.75000000  0.29587550  1
  Cr  Cr2_3  1  0.25000000  0.75000000  0.79587550  1
  Cr  Cr2_4  1  0.75000000  0.25000000  0.29587550  1
  Cr  Cr2_5  1  0.75000000  0.25000000  0.79587550  1
  Cr  Cr2_6  1  0.75000000  0.75000000  0.29587550  1
  Cr  Cr2_7  1  0.75000000  0.75000000  0.79587550  1
  Cr  Cr3_0  1  0.00000000  0.00000000  0.42118750  1
  Cr  Cr3_1  1  0.00000000  0.00000000  0.92118750  1
  Cr  Cr3_2  1  0.00000000  0.50000000  0.42118750  1
  Cr  Cr3_3  1  0.00000000  0.50000000  0.92118750  1
  Cr  Cr3_4  1  0.50000000  0.00000000  0.42118750  1
  Cr  Cr3_5  1  0.50000000  0.00000000  0.92118750  1
  Cr  Cr3_6  1  0.50000000  0.50000000  0.42118750  1
  Cr  Cr3_7  1  0.50000000  0.50000000  0.92118750  1
  Cr  Cr4_0  1  0.00000000  0.00000000  0.07881250  1
  Cr  Cr4_1  1  0.00000000  0.00000000  0.57881250  1
  Cr  Cr4_2  1  0.00000000  0.50000000  0.07881250  1
  Cr  Cr4_3  1  0.00000000  0.50000000  0.57881250  1
  Cr  Cr4_4  1  0.50000000  0.00000000  0.07881250  1
  Cr  Cr4_5  1  0.50000000  0.00000000  0.57881250  1
  Cr  Cr4_6  1  0.50000000  0.50000000  0.07881250  1
  Cr  Cr4_7  1  0.50000000  0.50000000  0.57881250  1
  Cr  Cr5_0  1  0.25000000  0.25000000  0.20412450  1
  Cr  Cr5_1  1  0.25000000  0.25000000  0.70412450  1
  Cr  Cr5_2  1  0.25000000  0.75000000  0.20412450  1
  Cr  Cr5_3  1  0.25000000  0.75000000  0.70412450  1
  Cr  Cr5_4  1  0.75000000  0.25000000  0.20412450  1
  Cr  Cr5_5  1  0.75000000  0.25000000  0.70412450  1
  Cr  Cr5_6  1  0.75000000  0.75000000  0.20412450  1
  Cr  Cr5_7  1  0.75000000  0.75000000  0.70412450  1
  Cr  Cr6_0  1  0.00000000  0.00000000  0.32910500  1
  Cr  Cr6_1  1  0.00000000  0.00000000  0.82910500  1
  Cr  Cr6_2  1  0.00000000  0.50000000  0.32910500  1
  Cr  Cr6_3  1  0.00000000  0.50000000  0.82910500  1
  Cr  Cr6_4  1  0.50000000  0.00000000  0.32910500  1
  Cr  Cr6_5  1  0.50000000  0.00000000  0.82910500  1
  Cr  Cr6_6  1  0.50000000  0.50000000  0.32910500  1
  Cr  Cr6_7  1  0.50000000  0.50000000  0.82910500  1
  Cr  Cr7_0  1  0.25000000  0.25000000  0.45384850  1
  Cr  Cr7_1  1  0.25000000  0.25000000  0.95384850  1
  Cr  Cr7_2  1  0.25000000  0.75000000  0.45384850  1
  Cr  Cr7_3  1  0.25000000  0.75000000  0.95384850  1
  Cr  Cr7_4  1  0.75000000  0.25000000  0.45384850  1
  Cr  Cr7_5  1  0.75000000  0.25000000  0.95384850  1
  Cr  Cr7_6  1  0.75000000  0.75000000  0.45384850  1
  Cr  Cr7_7  1  0.75000000  0.75000000  0.95384850  1
loop_
_geom_bond_atom_site_label_1
_geom_bond_atom_site_label_2
_geom_bond_distance
_geom_bond_site_symmetry_2
Al0_0 Cr1_6 2.625600 1_555
Al0_0 Cr1_0 2.625600 1_555
Al0_0 Cr1_4 2.625600 1_555
Al0_0 Cr1_2 2.625600 1_555
Al0_0 Cr4_2 2.644224 1_555
Al0_0 Cr4_6 2.644224 1_555
Al0_0 Cr4_0 2.644224 1_555
Al0_0 Cr4_4 2.644224 1_555
Al0_0 Cr5_0 2.714712 1_555
Al0_0 Cr0_0 2.726078 1_555
Al0_0 Al0_2 2.975938 1_545
Al0_0 Al0_4 2.975938 1_455
Al0_0 Al0_4 2.975938 1_555
Al0_0 Al0_2 2.975938 1_555
Al0_1 Cr1_5 2.625600 1_555
Al0_1 Cr1_3 2.625600 1_555
Al0_1 Cr1_1 2.625600 1_555
Al0_1 Cr1_7 2.625600 1_555
Al0_1 Cr4_5 2.644224 1_555
Al0_1 Cr4_1 2.644224 1_555
Al0_1 Cr4_3 2.644224 1_555
Al0_1 Cr4_7 2.644224 1_555
Al0_1 Cr5_1 2.714712 1_555
Al0_1 Cr0_1 2.726078 1_555
Al0_1 Al0_5 2.975938 1_455
Al0_1 Al0_3 2.975938 1_545
Al0_1 Al0_5 2.975938 1_555
Al0_1 Al0_3 2.975938 1_555
Al0_2 Cr1_4 2.625600 1_565
Al0_2 Cr1_0 2.625600 1_565
Al0_2 Cr1_2 2.625600 1_555
Al0_2 Cr1_6 2.625600 1_555
Al0_2 Cr4_4 2.644224 1_565
Al0_2 Cr4_0 2.644224 1_565
Al0_2 Cr4_2 2.644224 1_555
Al0_2 Cr4_6 2.644224 1_555
Al0_2 Cr5_2 2.714712 1_555
Al0_2 Cr0_2 2.726078 1_555
Al0_2 Al0_6 2.975938 1_455
Al0_2 Al0_6 2.975938 1_555
Al0_3 Cr1_1 2.625600 1_565
Al0_3 Cr1_5 2.625600 1_565
Al0_3 Cr1_3 2.625600 1_555
Al0_3 Cr1_7 2.625600 1_555
Al0_3 Cr4_1 2.644224 1_565
Al0_3 Cr4_5 2.644224 1_565
Al0_3 Cr4_3 2.644224 1_555
Al0_3 Cr4_7 2.644224 1_555
Al0_3 Cr5_3 2.714712 1_555
Al0_3 Cr0_3 2.726078 1_555
Al0_3 Al0_7 2.975938 1_455
Al0_3 Al0_7 2.975938 1_555
Al0_4 Cr1_0 2.625600 1_655
Al0_4 Cr1_2 2.625600 1_655
Al0_4 Cr1_4 2.625600 1_555
Al0_4 Cr1_6 2.625600 1_555
Al0_4 Cr4_2 2.644224 1_655
Al0_4 Cr4_0 2.644224 1_655
Al0_4 Cr4_4 2.644224 1_555
Al0_4 Cr4_6 2.644224 1_555
Al0_4 Cr5_4 2.714712 1_555
Al0_4 Cr0_4 2.726078 1_555
Al0_4 Al0_6 2.975938 1_545
Al0_4 Al0_6 2.975938 1_555
Al0_5 Cr1_1 2.625600 1_655
Al0_5 Cr1_3 2.625600 1_655
Al0_5 Cr1_5 2.625600 1_555
Al0_5 Cr1_7 2.625600 1_555
Al0_5 Cr4_3 2.644224 1_655
Al0_5 Cr4_1 2.644224 1_655
Al0_5 Cr4_7 2.644224 1_555
Al0_5 Cr4_5 2.644224 1_555
Al0_5 Cr5_5 2.714712 1_555
Al0_5 Cr0_5 2.726078 1_555
Al0_5 Al0_7 2.975938 1_545
Al0_5 Al0_7 2.975938 1_555
Al0_6 Cr1_0 2.625600 1_665
Al0_6 Cr1_4 2.625600 1_565
Al0_6 Cr1_2 2.625600 1_655
Al0_6 Cr1_6 2.625600 1_555
Al0_6 Cr4_0 2.644224 1_665
Al0_6 Cr4_4 2.644224 1_565
Al0_6 Cr4_2 2.644224 1_655
Al0_6 Cr4_6 2.644224 1_555
Al0_6 Cr5_6 2.714712 1_555
Al0_6 Cr0_6 2.726078 1_555
Al0_7 Cr1_1 2.625600 1_665
Al0_7 Cr1_5 2.625600 1_565
Al0_7 Cr1_3 2.625600 1_655
Al0_7 Cr1_7 2.625600 1_555
Al0_7 Cr4_1 2.644224 1_665
Al0_7 Cr4_5 2.644224 1_565
Al0_7 Cr4_3 2.644224 1_655
Al0_7 Cr4_7 2.644224 1_555
Al0_7 Cr5_7 2.714712 1_555
Al0_7 Cr0_7 2.726078 1_555
Al1_0 Cr2_6 2.631451 1_445
Al1_0 Cr5_6 2.631451 1_445
Al1_0 Cr5_4 2.631451 1_455
Al1_0 Cr2_2 2.631451 1_545
Al1_0 Cr2_4 2.631451 1_455
Al1_0 Cr5_2 2.631451 1_545
Al1_0 Cr2_0 2.631451 1_555
Al1_0 Cr5_0 2.631451 1_555
Al1_0 Cr1_0 2.724476 1_555
Al1_0 Cr6_0 2.724476 1_555
Al1_0 Al1_4 2.975938 1_555
Al1_0 Al1_4 2.975938 1_455
Al1_0 Al1_2 2.975938 1_555
Al1_0 Al1_2 2.975938 1_545
Al1_1 Cr2_7 2.631451 1_445
Al1_1 Cr2_3 2.631451 1_545
Al1_1 Cr2_5 2.631451 1_455
Al1_1 Cr2_1 2.631451 1_555
Al1_1 Cr5_7 2.631451 1_445
Al1_1 Cr5_5 2.631451 1_455
Al1_1 Cr5_3 2.631451 1_545
Al1_1 Cr5_1 2.631451 1_555
Al1_1 Cr6_1 2.724476 1_555
Al1_1 Cr1_1 2.724476 1_555
Al1_1 Al1_3 2.975938 1_555
Al1_1 Al1_3 2.975938 1_545
Al1_1 Al1_5 2.975938 1_555
Al1_1 Al1_5 2.975938 1_455
Al1_2 Cr5_4 2.631451 1_455
Al1_2 Cr2_4 2.631451 1_455
Al1_2 Cr2_0 2.631451 1_555
Al1_2 Cr5_6 2.631451 1_455
Al1_2 Cr5_2 2.631451 1_555
Al1_2 Cr2_6 2.631451 1_455
Al1_2 Cr5_0 2.631451 1_555
Al1_2 Cr2_2 2.631451 1_555
Al1_2 Cr1_2 2.724476 1_555
Al1_2 Cr6_2 2.724476 1_555
Al1_2 Al1_6 2.975938 1_555
Al1_2 Al1_6 2.975938 1_455
Al1_3 Cr2_5 2.631451 1_455
Al1_3 Cr2_1 2.631451 1_555
Al1_3 Cr2_7 2.631451 1_455
Al1_3 Cr2_3 2.631451 1_555
Al1_3 Cr5_5 2.631451 1_455
Al1_3 Cr5_7 2.631451 1_455
Al1_3 Cr5_1 2.631451 1_555
Al1_3 Cr5_3 2.631451 1_555
Al1_3 Cr1_3 2.724476 1_555
Al1_3 Cr6_3 2.724476 1_555
Al1_3 Al1_7 2.975938 1_455
Al1_3 Al1_7 2.975938 1_555
Al1_4 Cr2_2 2.631451 1_545
Al1_4 Cr5_2 2.631451 1_545
Al1_4 Cr5_4 2.631451 1_555
Al1_4 Cr2_0 2.631451 1_555
Al1_4 Cr2_4 2.631451 1_555
Al1_4 Cr2_6 2.631451 1_545
Al1_4 Cr5_6 2.631451 1_545
Al1_4 Cr5_0 2.631451 1_555
Al1_4 Cr1_4 2.724476 1_555
Al1_4 Cr6_4 2.724476 1_555
Al1_4 Al1_6 2.975938 1_555
Al1_4 Al1_6 2.975938 1_545
Al1_5 Cr2_3 2.631451 1_545
Al1_5 Cr2_1 2.631451 1_555
Al1_5 Cr2_7 2.631451 1_545
Al1_5 Cr2_5 2.631451 1_555
Al1_5 Cr5_3 2.631451 1_545
Al1_5 Cr5_7 2.631451 1_545
Al1_5 Cr5_1 2.631451 1_555
Al1_5 Cr5_5 2.631451 1_555
Al1_5 Cr6_5 2.724476 1_555
Al1_5 Cr1_5 2.724476 1_555
Al1_5 Al1_7 2.975938 1_555
Al1_5 Al1_7 2.975938 1_545
Al1_6 Cr5_4 2.631451 1_555
Al1_6 Cr2_0 2.631451 1_555
Al1_6 Cr2_4 2.631451 1_555
Al1_6 Cr5_2 2.631451 1_555
Al1_6 Cr5_0 2.631451 1_555
Al1_6 Cr2_2 2.631451 1_555
Al1_6 Cr5_6 2.631451 1_555
Al1_6 Cr2_6 2.631451 1_555
Al1_6 Cr1_6 2.724476 1_555
Al1_6 Cr6_6 2.724476 1_555
Al1_7 Cr2_1 2.631451 1_555
Al1_7 Cr2_3 2.631451 1_555
Al1_7 Cr2_5 2.631451 1_555
Al1_7 Cr2_7 2.631451 1_555
Al1_7 Cr5_1 2.631451 1_555
Al1_7 Cr5_3 2.631451 1_555
Al1_7 Cr5_5 2.631451 1_555
Al1_7 Cr5_7 2.631451 1_555
Al1_7 Cr1_7 2.724476 1_555
Al1_7 Cr6_7 2.724476 1_555
Al2_0 Cr6_0 2.625600 1_555
Al2_0 Cr6_6 2.625600 1_555
Al2_0 Cr6_4 2.625600 1_555
Al2_0 Cr6_2 2.625600 1_555
Al2_0 Cr3_4 2.644224 1_555
Al2_0 Cr3_0 2.644224 1_555
Al2_0 Cr3_2 2.644224 1_555
Al2_0 Cr3_6 2.644224 1_555
Al2_0 Cr2_0 2.714712 1_555
Al2_0 Cr7_0 2.726078 1_555
Al2_0 Al2_4 2.975938 1_455
Al2_0 Al2_2 2.975938 1_545
Al2_0 Al2_4 2.975938 1_555
Al2_0 Al2_2 2.975938 1_555
Al2_1 Cr6_3 2.625600 1_555
Al2_1 Cr6_7 2.625600 1_555
Al2_1 Cr6_1 2.625600 1_555
Al2_1 Cr6_5 2.625600 1_555
Al2_1 Cr3_7 2.644224 1_555
Al2_1 Cr3_1 2.644224 1_555
Al2_1 Cr3_5 2.644224 1_555
Al2_1 Cr3_3 2.644224 1_555
Al2_1 Cr2_1 2.714712 1_555
Al2_1 Cr7_1 2.726078 1_555
Al2_1 Al2_3 2.975938 1_545
Al2_1 Al2_5 2.975938 1_455
Al2_1 Al2_5 2.975938 1_555
Al2_1 Al2_3 2.975938 1_555
Al2_2 Cr6_4 2.625600 1_565
Al2_2 Cr6_0 2.625600 1_565
Al2_2 Cr6_6 2.625600 1_555
Al2_2 Cr6_2 2.625600 1_555
Al2_2 Cr3_4 2.644224 1_565
Al2_2 Cr3_0 2.644224 1_565
Al2_2 Cr3_2 2.644224 1_555
Al2_2 Cr3_6 2.644224 1_555
Al2_2 Cr2_2 2.714712 1_555
Al2_2 Cr7_2 2.726078 1_555
Al2_2 Al2_6 2.975938 1_455
Al2_2 Al2_6 2.975938 1_555
Al2_3 Cr6_1 2.625600 1_565
Al2_3 Cr6_5 2.625600 1_565
Al2_3 Cr6_3 2.625600 1_555
Al2_3 Cr6_7 2.625600 1_555
Al2_3 Cr3_1 2.644224 1_565
Al2_3 Cr3_5 2.644224 1_565
Al2_3 Cr3_3 2.644224 1_555
Al2_3 Cr3_7 2.644224 1_555
Al2_3 Cr2_3 2.714712 1_555
Al2_3 Cr7_3 2.726078 1_555
Al2_3 Al2_7 2.975938 1_455
Al2_3 Al2_7 2.975938 1_555
Al2_4 Cr6_2 2.625600 1_655
Al2_4 Cr6_0 2.625600 1_655
Al2_4 Cr6_6 2.625600 1_555
Al2_4 Cr6_4 2.625600 1_555
Al2_4 Cr3_0 2.644224 1_655
Al2_4 Cr3_2 2.644224 1_655
Al2_4 Cr3_6 2.644224 1_555
Al2_4 Cr3_4 2.644224 1_555
Al2_4 Cr2_4 2.714712 1_555
Al2_4 Cr7_4 2.726078 1_555
Al2_4 Al2_6 2.975938 1_545
Al2_4 Al2_6 2.975938 1_555
Al2_5 Cr6_3 2.625600 1_655
Al2_5 Cr6_1 2.625600 1_655
Al2_5 Cr6_7 2.625600 1_555
Al2_5 Cr6_5 2.625600 1_555
Al2_5 Cr3_1 2.644224 1_655
Al2_5 Cr3_3 2.644224 1_655
Al2_5 Cr3_7 2.644224 1_555
Al2_5 Cr3_5 2.644224 1_555
Al2_5 Cr2_5 2.714712 1_555
Al2_5 Cr7_5 2.726078 1_555
Al2_5 Al2_7 2.975938 1_545
Al2_5 Al2_7 2.975938 1_555
Al2_6 Cr6_0 2.625600 1_665
Al2_6 Cr6_4 2.625600 1_565
Al2_6 Cr6_2 2.625600 1_655
Al2_6 Cr6_6 2.625600 1_555
Al2_6 Cr3_0 2.644224 1_665
Al2_6 Cr3_4 2.644224 1_565
Al2_6 Cr3_2 2.644224 1_655
Al2_6 Cr3_6 2.644224 1_555
Al2_6 Cr2_6 2.714712 1_555
Al2_6 Cr7_6 2.726078 1_555
Al2_7 Cr6_1 2.625600 1_665
Al2_7 Cr6_5 2.625600 1_565
Al2_7 Cr6_3 2.625600 1_655
Al2_7 Cr6_7 2.625600 1_555
Al2_7 Cr3_1 2.644224 1_665
Al2_7 Cr3_3 2.644224 1_655
Al2_7 Cr3_5 2.644224 1_565
Al2_7 Cr3_7 2.644224 1_555
Al2_7 Cr2_7 2.714712 1_555
Al2_7 Cr7_7 2.726078 1_555
Zn0_0 Zn0_4 2.975938 1_555
Zn0_0 Zn0_4 2.975938 1_455
Zn0_0 Zn0_2 2.975938 1_555
Zn0_0 Zn0_2 2.975938 1_545
Zn0_1 Zn0_5 2.975938 1_455
Zn0_1 Zn0_5 2.975938 1_555
Zn0_1 Zn0_3 2.975938 1_555
Zn0_1 Zn0_3 2.975938 1_545
Zn0_2 Zn0_6 2.975938 1_455
Zn0_2 Zn0_6 2.975938 1_555
Zn0_3 Zn0_7 2.975938 1_555
Zn0_3 Zn0_7 2.975938 1_455
Zn0_4 Zn0_6 2.975938 1_555
Zn0_4 Zn0_6 2.975938 1_545
Zn0_5 Zn0_7 2.975938 1_555
Zn0_5 Zn0_7 2.975938 1_545
Cr0_0 Cr4_2 2.386100 1_555
Cr0_0 Cr4_6 2.386100 1_555
Cr0_0 Cr4_0 2.386100 1_555
Cr0_0 Cr4_4 2.386100 1_555
Cr0_0 Zn0_0 2.637170 1_555
Cr0_0 Zn0_6 2.637170 1_555
Cr0_0 Zn0_4 2.637170 1_555
Cr0_0 Zn0_2 2.637170 1_555
Cr0_1 Cr4_3 2.386100 1_555
Cr0_1 Cr4_7 2.386100 1_555
Cr0_1 Cr4_1 2.386100 1_555
Cr0_1 Cr4_5 2.386100 1_555
Cr0_1 Zn0_3 2.637170 1_555
Cr0_1 Zn0_7 2.637170 1_555
Cr0_1 Zn0_1 2.637170 1_555
Cr0_1 Zn0_5 2.637170 1_555
Cr0_2 Cr4_0 2.386100 1_565
Cr0_2 Cr4_4 2.386100 1_565
Cr0_2 Cr4_2 2.386100 1_555
Cr0_2 Cr4_6 2.386100 1_555
Cr0_2 Zn0_0 2.637170 1_565
Cr0_2 Zn0_4 2.637170 1_565
Cr0_2 Zn0_2 2.637170 1_555
Cr0_2 Zn0_6 2.637170 1_555
Cr0_3 Cr4_1 2.386100 1_565
Cr0_3 Cr4_5 2.386100 1_565
Cr0_3 Cr4_7 2.386100 1_555
Cr0_3 Cr4_3 2.386100 1_555
Cr0_3 Zn0_1 2.637170 1_565
Cr0_3 Zn0_5 2.637170 1_565
Cr0_3 Zn0_3 2.637170 1_555
Cr0_3 Zn0_7 2.637170 1_555
Cr0_4 Cr4_2 2.386100 1_655
Cr0_4 Cr4_0 2.386100 1_655
Cr0_4 Cr4_4 2.386100 1_555
Cr0_4 Cr4_6 2.386100 1_555
Cr0_4 Zn0_0 2.637170 1_655
Cr0_4 Zn0_2 2.637170 1_655
Cr0_4 Zn0_6 2.637170 1_555
Cr0_4 Zn0_4 2.637170 1_555
Cr0_5 Cr4_3 2.386100 1_655
Cr0_5 Cr4_1 2.386100 1_655
Cr0_5 Cr4_7 2.386100 1_555
Cr0_5 Cr4_5 2.386100 1_555
Cr0_5 Zn0_3 2.637170 1_655
Cr0_5 Zn0_1 2.637170 1_655
Cr0_5 Zn0_7 2.637170 1_555
Cr0_5 Zn0_5 2.637170 1_555
Cr0_6 Cr4_0 2.386100 1_665
Cr0_6 Cr4_4 2.386100 1_565
Cr0_6 Cr4_2 2.386100 1_655
Cr0_6 Cr4_6 2.386100 1_555
Cr0_6 Zn0_0 2.637170 1_665
Cr0_6 Zn0_4 2.637170 1_565
Cr0_6 Zn0_2 2.637170 1_655
Cr0_6 Zn0_6 2.637170 1_555
Cr0_7 Cr4_1 2.386100 1_665
Cr0_7 Cr4_5 2.386100 1_565
Cr0_7 Cr4_3 2.386100 1_655
Cr0_7 Cr4_7 2.386100 1_555
Cr0_7 Zn0_1 2.637170 1_665
Cr0_7 Zn0_3 2.637170 1_655
Cr0_7 Zn0_5 2.637170 1_565
Cr0_7 Zn0_7 2.637170 1_555
Cr1_0 Cr5_6 2.395393 1_445
Cr1_0 Cr5_4 2.395393 1_455
Cr1_0 Cr5_2 2.395393 1_545
Cr1_0 Cr5_0 2.395393 1_555
Cr1_1 Cr5_7 2.395393 1_445
Cr1_1 Cr5_5 2.395393 1_455
Cr1_1 Cr5_3 2.395393 1_545
Cr1_1 Cr5_1 2.395393 1_555
Cr1_2 Cr5_4 2.395393 1_455
Cr1_2 Cr5_6 2.395393 1_455
Cr1_2 Cr5_0 2.395393 1_555
Cr1_2 Cr5_2 2.395393 1_555
Cr1_3 Cr5_5 2.395393 1_455
Cr1_3 Cr5_1 2.395393 1_555
Cr1_3 Cr5_7 2.395393 1_455
Cr1_3 Cr5_3 2.395393 1_555
Cr1_4 Cr5_2 2.395393 1_545
Cr1_4 Cr5_6 2.395393 1_545
Cr1_4 Cr5_0 2.395393 1_555
Cr1_4 Cr5_4 2.395393 1_555
Cr1_5 Cr5_3 2.395393 1_545
Cr1_5 Cr5_1 2.395393 1_555
Cr1_5 Cr5_7 2.395393 1_545
Cr1_5 Cr5_5 2.395393 1_555
Cr1_6 Cr5_0 2.395393 1_555
Cr1_6 Cr5_4 2.395393 1_555
Cr1_6 Cr5_2 2.395393 1_555
Cr1_6 Cr5_6 2.395393 1_555
Cr1_7 Cr5_1 2.395393 1_555
Cr1_7 Cr5_3 2.395393 1_555
Cr1_7 Cr5_5 2.395393 1_555
Cr1_7 Cr5_7 2.395393 1_555
Cr2_0 Cr6_6 2.395393 1_555
Cr2_0 Cr6_0 2.395393 1_555
Cr2_0 Cr6_4 2.395393 1_555
Cr2_0 Cr6_2 2.395393 1_555
Cr2_1 Cr6_7 2.395393 1_555
Cr2_1 Cr6_1 2.395393 1_555
Cr2_1 Cr6_5 2.395393 1_555
Cr2_1 Cr6_3 2.395393 1_555
Cr2_2 Cr6_4 2.395393 1_565
Cr2_2 Cr6_0 2.395393 1_565
Cr2_2 Cr6_2 2.395393 1_555
Cr2_2 Cr6_6 2.395393 1_555
Cr2_3 Cr6_1 2.395393 1_565
Cr2_3 Cr6_5 2.395393 1_565
Cr2_3 Cr6_3 2.395393 1_555
Cr2_3 Cr6_7 2.395393 1_555
Cr2_4 Cr6_2 2.395393 1_655
Cr2_4 Cr6_0 2.395393 1_655
Cr2_4 Cr6_6 2.395393 1_555
Cr2_4 Cr6_4 2.395393 1_555
Cr2_5 Cr6_1 2.395393 1_655
Cr2_5 Cr6_3 2.395393 1_655
Cr2_5 Cr6_5 2.395393 1_555
Cr2_5 Cr6_7 2.395393 1_555
Cr2_6 Cr6_0 2.395393 1_665
Cr2_6 Cr6_4 2.395393 1_565
Cr2_6 Cr6_2 2.395393 1_655
Cr2_6 Cr6_6 2.395393 1_555
Cr2_7 Cr6_1 2.395393 1_665
Cr2_7 Cr6_3 2.395393 1_655
Cr2_7 Cr6_5 2.395393 1_565
Cr2_7 Cr6_7 2.395393 1_555
Cr3_0 Cr7_6 2.386100 1_445
Cr3_0 Cr7_2 2.386100 1_545
Cr3_0 Cr7_4 2.386100 1_455
Cr3_0 Cr7_0 2.386100 1_555
Cr3_0 Zn0_1 2.714402 1_555
Cr3_1 Cr7_7 2.386100 1_445
Cr3_1 Cr7_5 2.386100 1_455
Cr3_1 Cr7_3 2.386100 1_545
Cr3_1 Cr7_1 2.386100 1_555
Cr3_1 Zn0_0 2.714402 1_556
Cr3_2 Cr7_4 2.386100 1_455
Cr3_2 Cr7_0 2.386100 1_555
Cr3_2 Cr7_6 2.386100 1_455
Cr3_2 Cr7_2 2.386100 1_555
Cr3_2 Zn0_3 2.714402 1_555
Cr3_3 Cr7_5 2.386100 1_455
Cr3_3 Cr7_7 2.386100 1_455
Cr3_3 Cr7_1 2.386100 1_555
Cr3_3 Cr7_3 2.386100 1_555
Cr3_3 Zn0_2 2.714402 1_556
Cr3_4 Cr7_2 2.386100 1_545
Cr3_4 Cr7_6 2.386100 1_545
Cr3_4 Cr7_0 2.386100 1_555
Cr3_4 Cr7_4 2.386100 1_555
Cr3_4 Zn0_5 2.714402 1_555
Cr3_5 Cr7_3 2.386100 1_545
Cr3_5 Cr7_7 2.386100 1_545
Cr3_5 Cr7_1 2.386100 1_555
Cr3_5 Cr7_5 2.386100 1_555
Cr3_5 Zn0_4 2.714402 1_556
Cr3_6 Cr7_0 2.386100 1_555
Cr3_6 Cr7_2 2.386100 1_555
Cr3_6 Cr7_4 2.386100 1_555
Cr3_6 Cr7_6 2.386100 1_555
Cr3_6 Zn0_7 2.714402 1_555
Cr3_7 Cr7_1 2.386100 1_555
Cr3_7 Cr7_3 2.386100 1_555
Cr3_7 Cr7_5 2.386100 1_555
Cr3_7 Cr7_7 2.386100 1_555
Cr3_7 Zn0_6 2.714402 1_556
Cr4_0 Zn0_0 2.714402 1_555
Cr4_1 Zn0_1 2.714402 1_555
Cr4_2 Zn0_2 2.714402 1_555
Cr4_3 Zn0_3 2.714402 1_555
Cr4_4 Zn0_4 2.714402 1_555
Cr4_5 Zn0_5 2.714402 1_555
Cr4_6 Zn0_6 2.714402 1_555
Cr4_7 Zn0_7 2.714402 1_555
Cr7_0 Zn0_5 2.637170 1_555
Cr7_0 Zn0_3 2.637170 1_555
Cr7_0 Zn0_1 2.637170 1_555
Cr7_0 Zn0_7 2.637170 1_555
Cr7_1 Zn0_0 2.637170 1_556
Cr7_1 Zn0_4 2.637170 1_556
Cr7_1 Zn0_2 2.637170 1_556
Cr7_1 Zn0_6 2.637170 1_556
Cr7_2 Zn0_1 2.637170 1_565
Cr7_2 Zn0_5 2.637170 1_565
Cr7_2 Zn0_7 2.637170 1_555
Cr7_2 Zn0_3 2.637170 1_555
Cr7_3 Zn0_0 2.637170 1_566
Cr7_3 Zn0_4 2.637170 1_566
Cr7_3 Zn0_2 2.637170 1_556
Cr7_3 Zn0_6 2.637170 1_556
Cr7_4 Zn0_3 2.637170 1_655
Cr7_4 Zn0_1 2.637170 1_655
Cr7_4 Zn0_7 2.637170 1_555
Cr7_4 Zn0_5 2.637170 1_555
Cr7_5 Zn0_2 2.637170 1_656
Cr7_5 Zn0_0 2.637170 1_656
Cr7_5 Zn0_4 2.637170 1_556
Cr7_5 Zn0_6 2.637170 1_556
Cr7_6 Zn0_1 2.637170 1_665
Cr7_6 Zn0_3 2.637170 1_655
Cr7_6 Zn0_5 2.637170 1_565
Cr7_6 Zn0_7 2.637170 1_555
Cr7_7 Zn0_0 2.637170 1_666
Cr7_7 Zn0_4 2.637170 1_566
Cr7_7 Zn0_2 2.637170 1_656
Cr7_7 Zn0_6 2.637170 1_556
