# generated using pymatgen
data_Al2O3
_symmetry_space_group_name_H-M   'P 1'
_cell_length_a   10.42298308
_cell_length_b   10.84424653
_cell_length_c   10.37297701
_cell_angle_alpha   92.20155072
_cell_angle_beta   80.85680386
_cell_angle_gamma   91.15928094
_symmetry_Int_Tables_number   1
_chemical_formula_structural   Al2O3
_chemical_formula_sum   'Al40 O60'
_cell_volume   1156.58149685
_cell_formula_units_Z   20
loop_
 _symmetry_equiv_pos_site_id
 _symmetry_equiv_pos_as_xyz
  1  'x, y, z'
loop_
 _atom_site_type_symbol
 _atom_site_label
 _atom_site_symmetry_multiplicity
 _atom_site_fract_x
 _atom_site_fract_y
 _atom_site_fract_z
 _atom_site_occupancy
  Al  Al0  1  0.25034100  0.54632600  0.50231400  1
  Al  Al1  1  0.70799100  0.11051900  0.82951700  1
  Al  Al2  1  0.97059500  0.66441500  0.30829800  1
  Al  Al3  1  0.37567900  0.64538000  0.84968600  1
  Al  Al4  1  0.39746200  0.05704500  0.55049800  1
  Al  Al5  1  0.85882300  0.34123300  0.72055700  1
  Al  Al6  1  0.14029800  0.25700100  0.58169800  1
  Al  Al7  1  0.42670800  0.16814200  0.88095200  1
  Al  Al8  1  0.13318700  0.24487500  0.28023300  1
  Al  Al9  1  0.94684700  0.57785200  0.57264600  1
  Al  Al10  1  0.73212000  0.60196200  0.82085300  1
  Al  Al11  1  0.89447100  0.09519900  0.03146900  1
  Al  Al12  1  0.66744300  0.98635700  0.50594500  1
  Al  Al13  1  0.68375900  0.89850900  0.95562300  1
  Al  Al14  1  0.07334100  0.69312500  0.75640800  1
  Al  Al15  1  0.81952200  0.32133200  0.13213400  1
  Al  Al16  1  0.04750200  0.26864900  0.89184700  1
  Al  Al17  1  0.09174400  0.95673300  0.28820700  1
  Al  Al18  1  0.54575800  0.93728200  0.26908600  1
  Al  Al19  1  0.46907900  0.92911600  0.75841800  1
  Al  Al20  1  0.42247200  0.24068600  0.40670200  1
  Al  Al21  1  0.20340000  0.73985300  0.04314500  1
  Al  Al22  1  0.47108200  0.64645000  0.34608300  1
  Al  Al23  1  0.84802700  0.11704000  0.29840400  1
  Al  Al24  1  0.30906300  0.82536300  0.46019800  1
  Al  Al25  1  0.89285300  0.08652400  0.55340300  1
  Al  Al26  1  0.12320300  0.94772700  0.60534800  1
  Al  Al27  1  0.59996500  0.40113400  0.96124100  1
  Al  Al28  1  0.60305300  0.42017400  0.42358500  1
  Al  Al29  1  0.52171500  0.67282000  0.61320200  1
  Al  Al30  1  0.36865600  0.39824100  0.23213000  1
  Al  Al31  1  0.76003700  0.78057000  0.58169200  1
  Al  Al32  1  0.54773400  0.68813700  0.04439100  1
  Al  Al33  1  0.92222200  0.38417900  0.39950600  1
  Al  Al34  1  0.20612100  0.05167200  0.03064800  1
  Al  Al35  1  0.74536600  0.54334400  0.19198700  1
  Al  Al36  1  0.28644300  0.34118400  0.99971800  1
  Al  Al37  1  0.07714300  0.47922900  0.10816600  1
  Al  Al38  1  0.84224000  0.85251500  0.23798600  1
  Al  Al39  1  0.39000900  0.38503200  0.66820700  1
  O  O0  1  0.31487800  0.18504300  0.02748800  1
  O  O1  1  0.30366600  0.92844900  0.60020400  1
  O  O2  1  0.88528300  0.69766700  0.48809500  1
  O  O3  1  0.67995400  0.66096800  0.67930100  1
  O  O4  1  0.90928200  0.47103800  0.12455100  1
  O  O5  1  0.86860500  0.42566200  0.57384600  1
  O  O6  1  0.05901100  0.28900100  0.44828600  1
  O  O7  1  0.88598000  0.25653400  0.96994200  1
  O  O8  1  0.99341500  0.82339400  0.28812400  1
  O  O9  1  0.58052000  0.62552800  0.19419100  1
  O  O10  1  0.58765000  0.22208800  0.89872000  1
  O  O11  1  0.05569900  0.09430200  0.60748600  1
  O  O12  1  0.80993100  0.18209200  0.70032300  1
  O  O13  1  0.42285300  0.54195800  0.71217000  1
  O  O14  1  0.80175100  0.94176200  0.59282600  1
  O  O15  1  0.42790100  0.40297600  0.05801400  1
  O  O16  1  0.44413600  0.77004700  0.75662200  1
  O  O17  1  0.57452500  0.88809300  0.10375000  1
  O  O18  1  0.74424900  0.42944400  0.82769700  1
  O  O19  1  0.18967100  0.38205600  0.17320100  1
  O  O20  1  0.29811200  0.26281100  0.31486500  1
  O  O21  1  0.06064800  0.84579400  0.71972800  1
  O  O22  1  0.16950000  0.89806800  0.42568100  1
  O  O23  1  0.76420400  0.16610300  0.17068300  1
  O  O24  1  0.80027700  0.02028200  0.92477000  1
  O  O25  1  0.60393200  0.81952100  0.53888200  1
  O  O26  1  0.56411700  0.57775700  0.45824000  1
  O  O27  1  0.01451600  0.52553600  0.37700900  1
  O  O28  1  0.19185400  0.67564000  0.87382000  1
  O  O29  1  0.56440400  0.56274200  0.91824400  1
  O  O30  1  0.69979700  0.93040400  0.32708000  1
  O  O31  1  0.33234100  0.53946900  0.33202800  1
  O  O32  1  0.82163900  0.68653800  0.23076900  1
  O  O33  1  0.91075100  0.62196600  0.75673100  1
  O  O34  1  0.10558800  0.63637500  0.14705100  1
  O  O35  1  0.76290000  0.43011300  0.33776600  1
  O  O36  1  0.96420900  0.04653000  0.38573300  1
  O  O37  1  0.35357600  0.68389700  0.51863000  1
  O  O38  1  0.07449400  0.11770500  0.95590400  1
  O  O39  1  0.70801900  0.73834300  0.94354600  1
  O  O40  1  0.37506500  0.69812800  0.01919800  1
  O  O41  1  0.94915600  0.26915600  0.25857900  1
  O  O42  1  0.30265500  0.18491200  0.55577000  1
  O  O43  1  0.47459800  0.06827900  0.37994900  1
  O  O44  1  0.53023000  0.04040100  0.62977800  1
  O  O45  1  0.18805700  0.89577600  0.08613900  1
  O  O46  1  0.43713600  0.81373000  0.32786900  1
  O  O47  1  0.75250900  0.13402800  0.46157600  1
  O  O48  1  0.13772700  0.39497500  0.95266800  1
  O  O49  1  0.15231500  0.09353000  0.20668300  1
  O  O50  1  0.11206800  0.61212700  0.59557400  1
  O  O51  1  0.35129500  0.02245100  0.85501600  1
  O  O52  1  0.51211500  0.35618400  0.30558000  1
  O  O53  1  0.60772300  0.96769500  0.83440300  1
  O  O54  1  0.36366900  0.30420500  0.81683300  1
  O  O55  1  0.03195700  0.31211200  0.73163500  1
  O  O56  1  0.68836900  0.41515000  0.09509800  1
  O  O57  1  0.51391500  0.32349000  0.54291900  1
  O  O58  1  0.25577600  0.40487900  0.58031900  1
  O  O59  1  0.90523600  0.98158400  0.14899400  1
loop_
_geom_bond_atom_site_label_1
_geom_bond_atom_site_label_2
_geom_bond_distance
_geom_bond_site_symmetry_2
Al0 O50 1.751457 1_555
Al0 O58 1.767532 1_555
Al0 O31 1.835424 1_555
Al0 O37 1.840002 1_555
Al1 O12 1.766726 1_555
Al1 O10 1.805807 1_555
Al1 O24 1.809276 1_555
Al1 O53 1.848601 1_545
Al2 O8 1.751535 1_555
Al2 O27 1.788792 1_655
Al2 O32 1.881878 1_555
Al2 O2 1.957884 1_555
Al2 O34 2.024878 1_655
Al3 O16 1.763814 1_555
Al3 O13 1.791887 1_555
Al3 O40 1.827104 1_556
Al3 O28 1.925648 1_555
Al3 O29 2.396471 1_555
Al4 O42 1.713078 1_555
Al4 O1 1.733839 1_545
Al4 O44 1.734087 1_555
Al4 O43 1.830717 1_555
Al5 O18 1.766083 1_555
Al5 O5 1.794043 1_555
Al5 O12 1.803492 1_555
Al5 O55 1.860420 1_655
Al6 O6 1.781796 1_555
Al6 O42 1.854695 1_555
Al6 O55 1.857153 1_555
Al6 O11 1.964778 1_555
Al6 O58 1.984621 1_555
Al7 O0 1.768287 1_556
Al7 O51 1.780627 1_555
Al7 O10 1.800126 1_555
Al7 O54 1.817883 1_555
Al8 O49 1.784411 1_555
Al8 O20 1.816380 1_555
Al8 O6 1.840668 1_555
Al8 O19 1.917288 1_555
Al8 O41 1.990226 1_455
Al9 O2 1.780251 1_555
Al9 O50 1.804938 1_655
Al9 O5 1.825619 1_555
Al9 O33 1.930132 1_555
Al9 O27 2.100095 1_655
Al10 O3 1.789138 1_555
Al10 O18 1.882457 1_555
Al10 O33 1.886052 1_555
Al10 O39 1.907605 1_555
Al10 O29 1.923280 1_555
Al11 O24 1.758657 1_554
Al11 O59 1.783595 1_545
Al11 O7 1.893702 1_554
Al11 O38 1.929638 1_654
Al11 O23 1.963131 1_555
Al12 O44 1.852319 1_565
Al12 O47 1.852528 1_565
Al12 O14 1.862141 1_555
Al12 O30 1.909765 1_555
Al12 O25 1.937868 1_555
Al13 O39 1.757091 1_555
Al13 O17 1.766945 1_556
Al13 O24 1.779106 1_565
Al13 O53 1.784748 1_555
Al14 O21 1.725245 1_555
Al14 O50 1.845404 1_555
Al14 O33 1.847397 1_455
Al14 O28 1.884268 1_555
Al15 O23 1.806972 1_555
Al15 O56 1.817848 1_555
Al15 O7 1.833740 1_554
Al15 O4 1.855269 1_555
Al15 O41 2.125395 1_555
Al15 O35 2.392574 1_555
Al16 O7 1.753169 1_455
Al16 O55 1.777378 1_555
Al16 O48 1.796965 1_555
Al16 O38 1.833473 1_555
Al17 O8 1.755393 1_455
Al17 O49 1.789739 1_565
Al17 O36 1.813284 1_465
Al17 O22 1.884920 1_555
Al17 O45 2.256062 1_555
Al18 O17 1.757417 1_555
Al18 O46 1.797424 1_555
Al18 O30 1.805678 1_555
Al18 O43 1.880592 1_565
Al19 O16 1.739088 1_555
Al19 O51 1.765513 1_565
Al19 O53 1.787938 1_555
Al19 O44 1.861583 1_565
Al20 O20 1.751503 1_555
Al20 O52 1.812212 1_555
Al20 O42 1.934944 1_555
Al20 O43 1.954741 1_555
Al20 O57 2.001777 1_555
Al21 O45 1.736042 1_555
Al21 O34 1.776983 1_555
Al21 O40 1.830510 1_555
Al21 O28 1.885245 1_554
Al22 O9 1.801910 1_555
Al22 O26 1.817439 1_555
Al22 O31 1.855928 1_555
Al22 O46 1.877530 1_555
Al22 O37 2.033727 1_555
Al23 O23 1.800680 1_555
Al23 O36 1.819609 1_555
Al23 O47 1.826986 1_555
Al23 O41 1.961237 1_555
Al23 O59 2.117092 1_545
Al24 O46 1.758754 1_555
Al24 O22 1.760535 1_555
Al24 O37 1.767959 1_555
Al24 O1 1.792709 1_555
Al25 O36 1.819396 1_555
Al25 O14 1.843600 1_545
Al25 O11 1.869757 1_655
Al25 O12 1.907856 1_555
Al25 O47 1.955368 1_555
Al26 O21 1.697185 1_555
Al26 O11 1.749176 1_565
Al26 O1 1.888844 1_555
Al26 O22 1.908864 1_555
Al27 O56 1.784596 1_556
Al27 O29 1.883214 1_555
Al27 O18 1.904394 1_555
Al27 O15 1.911070 1_556
Al27 O10 2.031398 1_555
Al28 O35 1.763138 1_555
Al28 O26 1.774445 1_555
Al28 O52 1.776266 1_555
Al28 O57 1.785930 1_555
Al29 O26 1.872751 1_555
Al29 O16 1.873609 1_555
Al29 O3 1.892519 1_555
Al29 O25 1.920579 1_555
Al29 O13 1.961150 1_555
Al29 O37 2.147559 1_555
Al30 O20 1.812911 1_555
Al30 O15 1.815862 1_555
Al30 O31 1.827420 1_555
Al30 O52 1.854905 1_555
Al30 O19 2.055646 1_555
Al31 O2 1.741450 1_555
Al31 O3 1.786776 1_555
Al31 O14 1.796551 1_555
Al31 O25 1.815171 1_555
Al32 O9 1.803182 1_555
Al32 O29 1.841768 1_554
Al32 O40 1.865095 1_555
Al32 O39 1.906119 1_554
Al32 O17 2.255327 1_555
Al33 O27 1.796147 1_655
Al33 O5 1.847042 1_555
Al33 O41 1.874906 1_555
Al33 O6 1.919123 1_655
Al33 O35 1.952400 1_555
Al34 O45 1.803402 1_545
Al34 O0 1.817515 1_555
Al34 O38 1.848398 1_554
Al34 O49 1.864411 1_555
Al34 O51 2.192723 1_554
Al35 O32 1.791319 1_555
Al35 O56 1.828815 1_555
Al35 O4 1.911895 1_555
Al35 O9 1.948046 1_555
Al35 O35 2.016767 1_555
Al36 O0 1.767134 1_556
Al36 O15 1.789084 1_556
Al36 O48 1.811087 1_555
Al36 O19 1.957580 1_556
Al36 O54 1.968981 1_555
Al37 O4 1.731556 1_455
Al37 O34 1.766184 1_555
Al37 O19 1.815832 1_555
Al37 O48 1.849773 1_554
Al38 O59 1.764017 1_555
Al38 O8 1.773757 1_555
Al38 O32 1.808439 1_555
Al38 O30 1.823872 1_555
Al39 O54 1.783264 1_555
Al39 O13 1.785358 1_555
Al39 O57 1.799196 1_555
Al39 O58 1.807643 1_555
