# generated using pymatgen
data_Nd3(GeRh)2
_symmetry_space_group_name_H-M   'P 1'
_cell_length_a   5.68340858
_cell_length_b   8.06338715
_cell_length_c   13.48512714
_cell_angle_alpha   90.00000000
_cell_angle_beta   90.00000000
_cell_angle_gamma   90.00000000
_symmetry_Int_Tables_number   1
_chemical_formula_structural   Nd3(GeRh)2
_chemical_formula_sum   'Nd12 Ge8 Rh8'
_cell_volume   617.98998377
_cell_formula_units_Z   4
loop_
 _symmetry_equiv_pos_site_id
 _symmetry_equiv_pos_as_xyz
  1  'x, y, z'
loop_
 _atom_site_type_symbol
 _atom_site_label
 _atom_site_symmetry_multiplicity
 _atom_site_fract_x
 _atom_site_fract_y
 _atom_site_fract_z
 _atom_site_occupancy
  Nd  Nd0  1  0.63842802  0.25108128  0.25000000  1
  Nd  Nd1  1  0.36157198  0.74891872  0.75000000  1
  Nd  Nd2  1  0.36157198  0.75108128  0.25000000  1
  Nd  Nd3  1  0.63842802  0.24891872  0.75000000  1
  Nd  Nd4  1  0.14448148  0.39080844  0.09926228  1
  Nd  Nd5  1  0.85551852  0.60919156  0.90073772  1
  Nd  Nd6  1  0.85551852  0.60919156  0.59926228  1
  Nd  Nd7  1  0.85551852  0.89080844  0.40073772  1
  Nd  Nd8  1  0.14448148  0.39080844  0.40073772  1
  Nd  Nd9  1  0.14448148  0.10919156  0.59926228  1
  Nd  Nd10  1  0.14448148  0.10919156  0.90073772  1
  Nd  Nd11  1  0.85551852  0.89080844  0.09926228  1
  Ge  Ge0  1  0.14433600  0.10421160  0.25000000  1
  Ge  Ge1  1  0.85566400  0.89578840  0.75000000  1
  Ge  Ge2  1  0.85566400  0.60421160  0.25000000  1
  Ge  Ge3  1  0.14433600  0.39578840  0.75000000  1
  Ge  Ge4  1  0.65011572  0.25000000  0.00000000  1
  Ge  Ge5  1  0.34988428  0.75000000  0.00000000  1
  Ge  Ge6  1  0.34988428  0.75000000  0.50000000  1
  Ge  Ge7  1  0.65011572  0.25000000  0.50000000  1
  Rh  Rh0  1  0.37950500  0.03837270  0.09117253  1
  Rh  Rh1  1  0.62049500  0.96162730  0.90882747  1
  Rh  Rh2  1  0.62049500  0.96162730  0.59117253  1
  Rh  Rh3  1  0.62049500  0.53837270  0.40882747  1
  Rh  Rh4  1  0.37950500  0.03837270  0.40882747  1
  Rh  Rh5  1  0.37950500  0.46162730  0.59117253  1
  Rh  Rh6  1  0.37950500  0.46162730  0.90882747  1
  Rh  Rh7  1  0.62049500  0.53837270  0.09117253  1
loop_
_geom_bond_atom_site_label_1
_geom_bond_atom_site_label_2
_geom_bond_distance
_geom_bond_site_symmetry_2
Nd0 Rh0 3.113614 1_555
Nd0 Rh4 3.113614 1_555
Nd0 Rh7 3.156596 1_555
Nd0 Rh3 3.156596 1_555
Nd1 Rh1 3.113614 1_555
Nd1 Rh2 3.113614 1_555
Nd1 Rh6 3.156596 1_555
Nd1 Rh5 3.156596 1_555
Nd2 Rh3 3.113614 1_555
Nd2 Rh7 3.113614 1_555
Nd2 Rh0 3.156596 1_565
Nd2 Rh4 3.156596 1_565
Nd3 Rh5 3.113614 1_555
Nd3 Rh6 3.113614 1_555
Nd3 Rh1 3.156596 1_545
Nd3 Rh2 3.156596 1_545
Nd4 Rh6 2.950439 1_554
Nd4 Rh7 2.957493 1_555
Nd4 Rh0 3.141984 1_555
Nd4 Rh7 3.208792 1_455
Nd5 Rh7 2.950439 1_556
Nd5 Rh6 2.957493 1_555
Nd5 Rh1 3.141984 1_555
Nd5 Rh6 3.208792 1_655
Nd6 Rh3 2.950439 1_555
Nd6 Rh5 2.957493 1_555
Nd6 Rh2 3.141984 1_555
Nd6 Rh5 3.208792 1_655
Nd7 Rh2 2.950439 1_555
Nd7 Rh4 2.957493 1_565
Nd7 Rh3 3.141984 1_555
Nd7 Rh4 3.208792 1_665
Nd8 Rh5 2.950439 1_555
Nd8 Rh3 2.957493 1_555
Nd8 Rh4 3.141984 1_555
Nd8 Rh3 3.208792 1_455
Nd9 Rh4 2.950439 1_555
Nd9 Rh2 2.957493 1_545
Nd9 Rh5 3.141984 1_555
Nd9 Rh2 3.208792 1_445
Nd10 Rh0 2.950439 1_556
Nd10 Rh1 2.957493 1_545
Nd10 Rh6 3.141984 1_555
Nd10 Rh1 3.208792 1_445
Nd11 Rh1 2.950439 1_554
Nd11 Rh0 2.957493 1_565
Nd11 Rh7 3.141984 1_555
Nd11 Rh0 3.208792 1_665
Ge0 Rh4 2.579841 1_555
Ge0 Rh0 2.579841 1_555
Ge0 Nd0 3.047633 1_555
Ge0 Nd8 3.077725 1_555
Ge0 Nd4 3.077725 1_555
Ge0 Nd2 3.103575 1_545
Ge0 Nd0 3.109620 1_455
Ge0 Nd7 3.128473 1_445
Ge0 Nd11 3.128473 1_445
Ge1 Rh2 2.579841 1_555
Ge1 Rh1 2.579841 1_555
Ge1 Nd1 3.047633 1_555
Ge1 Nd6 3.077725 1_555
Ge1 Nd5 3.077725 1_555
Ge1 Nd3 3.103575 1_565
Ge1 Nd1 3.109620 1_655
Ge1 Nd9 3.128473 1_665
Ge1 Nd10 3.128473 1_665
Ge2 Rh7 2.579841 1_555
Ge2 Rh3 2.579841 1_555
Ge2 Nd2 3.047633 1_555
Ge2 Nd11 3.077725 1_555
Ge2 Nd7 3.077725 1_555
Ge2 Nd0 3.103575 1_555
Ge2 Nd2 3.109620 1_655
Ge2 Nd8 3.128473 1_655
Ge2 Nd4 3.128473 1_655
Ge3 Rh6 2.579841 1_555
Ge3 Rh5 2.579841 1_555
Ge3 Nd3 3.047633 1_555
Ge3 Nd10 3.077725 1_555
Ge3 Nd9 3.077725 1_555
Ge3 Nd1 3.103575 1_555
Ge3 Nd3 3.109620 1_455
Ge3 Nd5 3.128473 1_455
Ge3 Nd6 3.128473 1_455
Ge4 Rh6 2.605558 1_554
Ge4 Rh0 2.605558 1_555
Ge4 Rh7 2.635675 1_555
Ge4 Rh1 2.635675 1_544
Ge4 Nd4 3.312882 1_655
Ge4 Nd10 3.312882 1_654
Ge4 Nd4 3.367369 1_555
Ge4 Nd10 3.367369 1_554
Ge4 Nd0 3.371947 1_555
Ge4 Nd3 3.371947 1_554
Ge4 Nd11 3.397515 1_545
Ge4 Nd5 3.397515 1_554
Ge5 Rh1 2.605558 1_554
Ge5 Rh7 2.605558 1_555
Ge5 Rh6 2.635675 1_554
Ge5 Rh0 2.635675 1_565
Ge5 Nd11 3.312882 1_455
Ge5 Nd5 3.312882 1_454
Ge5 Nd5 3.367369 1_554
Ge5 Nd11 3.367369 1_555
Ge5 Nd1 3.371947 1_554
Ge5 Nd2 3.371947 1_555
Ge5 Nd10 3.397515 1_564
Ge5 Nd4 3.397515 1_555
Ge6 Rh3 2.605558 1_555
Ge6 Rh2 2.605558 1_555
Ge6 Rh4 2.635675 1_565
Ge6 Rh5 2.635675 1_555
Ge6 Nd7 3.312882 1_455
Ge6 Nd6 3.312882 1_455
Ge6 Nd6 3.367369 1_555
Ge6 Nd7 3.367369 1_555
Ge6 Nd1 3.371947 1_555
Ge6 Nd2 3.371947 1_555
Ge6 Nd9 3.397515 1_565
Ge6 Nd8 3.397515 1_555
Ge7 Rh4 2.605558 1_555
Ge7 Rh5 2.605558 1_555
Ge7 Rh3 2.635675 1_555
Ge7 Rh2 2.635675 1_545
Ge7 Nd8 3.312882 1_655
Ge7 Nd9 3.312882 1_655
Ge7 Nd8 3.367369 1_555
Ge7 Nd9 3.367369 1_555
Ge7 Nd0 3.371947 1_555
Ge7 Nd3 3.371947 1_555
Ge7 Nd7 3.397515 1_545
Ge7 Nd6 3.397515 1_555
