# generated using pymatgen
data_Rb2Ti(Si2O5)3
_symmetry_space_group_name_H-M   'P 1'
_cell_length_a   7.35417706
_cell_length_b   7.35417706
_cell_length_c   15.13259140
_cell_angle_alpha   76.94472557
_cell_angle_beta   76.94472557
_cell_angle_gamma   59.86055979
_symmetry_Int_Tables_number   1
_chemical_formula_structural   Rb2Ti(Si2O5)3
_chemical_formula_sum   'Rb4 Ti2 Si12 O30'
_cell_volume   683.31671258
_cell_formula_units_Z   2
loop_
 _symmetry_equiv_pos_site_id
 _symmetry_equiv_pos_as_xyz
  1  'x, y, z'
loop_
 _atom_site_type_symbol
 _atom_site_label
 _atom_site_symmetry_multiplicity
 _atom_site_fract_x
 _atom_site_fract_y
 _atom_site_fract_z
 _atom_site_occupancy
  Rb  Rb0  1  0.40959714  0.14408029  0.69082970  1
  Rb  Rb1  1  0.14408029  0.40959714  0.19082970  1
  Rb  Rb2  1  0.63671151  0.88261035  0.02330404  1
  Rb  Rb3  1  0.88261035  0.63671151  0.52330404  1
  Ti  Ti0  1  0.78401203  0.30290338  0.09525398  1
  Ti  Ti1  1  0.30290338  0.78401203  0.59525398  1
  Si  Si0  1  0.54993335  0.41465358  0.46139033  1
  Si  Si1  1  0.41465358  0.54993335  0.96139033  1
  Si  Si2  1  0.63693719  -0.00199399  0.25541228  1
  Si  Si3  1  -0.00199399  0.63693719  0.75541228  1
  Si  Si4  1  0.35657096  0.15635898  0.44497930  1
  Si  Si5  1  0.15635898  0.35657096  0.94497930  1
  Si  Si6  1  0.53243732  0.63550308  0.25636067  1
  Si  Si7  1  0.63550308  0.53243732  0.75636067  1
  Si  Si8  1  0.07510389  0.01742796  0.93239638  1
  Si  Si9  1  0.01742796  0.07510389  0.43239638  1
  Si  Si10  1  0.06940962  0.92068452  0.24519306  1
  Si  Si11  1  0.92068452  0.06940962  0.74519306  1
  O  O0  1  0.95927136  0.43549010  0.02355574  1
  O  O1  1  0.43549010  0.95927136  0.52355574  1
  O  O2  1  0.71404051  0.47880758  0.18891605  1
  O  O3  1  0.47880758  0.71404051  0.68891605  1
  O  O4  1  0.03903049  0.07726657  0.15128710  1
  O  O5  1  0.07726657  0.03903049  0.65128710  1
  O  O6  1  0.53699679  0.52411323  0.04127105  1
  O  O7  1  0.52411323  0.53699679  0.54127105  1
  O  O8  1  0.76492114  0.18551976  0.46763366  1
  O  O9  1  0.18551976  0.76492114  0.96763366  1
  O  O10  1  0.61657838  0.17224377  0.16813800  1
  O  O11  1  0.17224377  0.61657838  0.66813800  1
  O  O12  1  0.88531272  0.84414775  0.27257874  1
  O  O13  1  0.84414775  0.88531272  0.77257874  1
  O  O14  1  0.35513476  0.35960425  0.47237111  1
  O  O15  1  0.35960425  0.35513476  0.97237111  1
  O  O16  1  0.50154015  0.10794516  0.34633135  1
  O  O17  1  0.10794516  0.50154015  0.84633135  1
  O  O18  1  0.85676648  0.13746029  -0.00413846  1
  O  O19  1  0.13746029  0.85676648  0.49586154  1
  O  O20  1  0.69815428  0.29236605  0.74281044  1
  O  O21  1  0.29236605  0.69815428  0.24281044  1
  O  O22  1  0.54481112  0.57038581  0.86176923  1
  O  O23  1  0.57038581  0.54481112  0.36176923  1
  O  O24  1  0.04155922  0.05445620  0.82610325  1
  O  O25  1  0.05445620  0.04155922  0.32610325  1
  O  O26  1  0.11047489  0.23825662  0.43111509  1
  O  O27  1  0.23825662  0.11047489  0.93111509  1
  O  O28  1  0.85870273  0.54170068  0.73403991  1
  O  O29  1  0.54170068  0.85870273  0.23403991  1
loop_
_geom_bond_atom_site_label_1
_geom_bond_atom_site_label_2
_geom_bond_distance
_geom_bond_site_symmetry_2
O0 Si5 1.593715 1_654
O0 Ti0 1.985316 1_555
O0 Rb2 2.933404 1_555
O0 Rb1 3.060637 1_655
O1 Si4 1.593715 1_565
O1 Ti1 1.985316 1_555
O1 Rb3 2.933404 1_555
O1 Rb0 3.060637 1_565
O2 Si6 1.588487 1_555
O2 Ti0 1.943585 1_555
O2 Rb1 2.946200 1_655
O3 Si7 1.588487 1_555
O3 Ti1 1.943585 1_555
O3 Rb0 2.946200 1_565
O4 Si10 1.594080 1_545
O4 Ti0 1.986808 1_455
O4 Rb1 3.113483 1_555
O5 Si11 1.594080 1_455
O5 Ti1 1.986808 1_545
O5 Rb0 3.113483 1_555
O6 Si1 1.588355 1_554
O6 Ti0 1.927745 1_555
O6 Rb2 3.014986 1_555
O7 Si0 1.588355 1_555
O7 Ti1 1.927745 1_555
O7 Rb3 3.014986 1_555
O8 Si9 1.620523 1_655
O8 Si0 1.633497 1_555
O9 Si8 1.620523 1_565
O9 Si1 1.633497 1_555
O10 Si2 1.593950 1_555
O10 Ti0 1.936948 1_555
O10 Rb1 2.979935 1_555
O11 Si3 1.593950 1_555
O11 Ti1 1.936948 1_555
O11 Rb0 2.979935 1_555
O12 Si2 1.640216 1_565
O12 Si10 1.651651 1_655
O12 Rb1 3.159116 1_655
O13 Si3 1.640216 1_655
O13 Si11 1.651651 1_565
O13 Rb0 3.159116 1_565
O14 Si4 1.633444 1_555
O14 Si0 1.639597 1_555
O14 Rb3 3.034945 1_455
O14 Rb0 3.345850 1_555
O15 Si5 1.633444 1_555
O15 Si1 1.639597 1_555
O15 Rb2 3.034945 1_546
O15 Rb1 3.345850 1_556
O16 Si2 1.616567 1_555
O16 Si4 1.622271 1_555
O17 Si3 1.616567 1_555
O17 Si5 1.622271 1_555
O18 Si8 1.594607 1_654
O18 Ti0 1.959157 1_555
O18 Rb2 2.948678 1_545
O19 Si9 1.594607 1_565
O19 Ti1 1.959157 1_555
O19 Rb3 2.948678 1_455
O20 Si11 1.635024 1_555
O20 Si7 1.635665 1_555
O20 Rb0 3.126805 1_555
O21 Si10 1.635024 1_555
O21 Si6 1.635665 1_555
O21 Rb1 3.126805 1_555
O22 Si7 1.612650 1_555
O22 Si1 1.612981 1_555
O23 Si6 1.612650 1_555
O23 Si0 1.612981 1_555
O24 Si11 1.622998 1_455
O24 Si8 1.623630 1_555
O24 Rb0 3.260271 1_555
O25 Si10 1.622998 1_545
O25 Si9 1.623630 1_555
O25 Rb1 3.260271 1_555
O26 Si4 1.643803 1_555
O26 Si9 1.648109 1_555
O26 Rb3 3.033246 1_455
O27 Si5 1.643803 1_555
O27 Si8 1.648109 1_555
O27 Rb2 3.033246 1_546
O28 Si3 1.617785 1_655
O28 Si7 1.632330 1_555
O28 Rb3 3.090649 1_555
O29 Si2 1.617785 1_565
O29 Si6 1.632330 1_555
O29 Rb2 3.090649 1_555
