# generated using pymatgen
data_Mg14MnAl
_symmetry_space_group_name_H-M   'P 1'
_cell_length_a   6.25149989
_cell_length_b   6.25149940
_cell_length_c   10.26431674
_cell_angle_alpha   90.00000000
_cell_angle_beta   90.00000000
_cell_angle_gamma   120.00000256
_symmetry_Int_Tables_number   1
_chemical_formula_structural   Mg14MnAl
_chemical_formula_sum   'Mg14 Mn1 Al1'
_cell_volume   347.39941852
_cell_formula_units_Z   1
loop_
 _symmetry_equiv_pos_site_id
 _symmetry_equiv_pos_as_xyz
  1  'x, y, z'
loop_
 _atom_site_type_symbol
 _atom_site_label
 _atom_site_symmetry_multiplicity
 _atom_site_fract_x
 _atom_site_fract_y
 _atom_site_fract_z
 _atom_site_occupancy
  Mg  Mg0  1  0.16572341  0.83286120  0.12500000  1
  Mg  Mg1  1  0.16711443  0.83355671  0.62500000  1
  Mg  Mg2  1  0.66713880  0.33427659  0.12500000  1
  Mg  Mg3  1  0.66644329  0.33288557  0.62500000  1
  Mg  Mg4  1  0.66713880  0.83286120  0.12500000  1
  Mg  Mg5  1  0.66644329  0.83355671  0.62500000  1
  Mg  Mg6  1  0.33021320  0.16978680  0.37624333  1
  Mg  Mg7  1  0.33021320  0.16978680  0.87375667  1
  Mg  Mg8  1  0.33021320  0.66042741  0.37624333  1
  Mg  Mg9  1  0.33021320  0.66042741  0.87375667  1
  Mg  Mg10  1  0.83957259  0.16978680  0.37624333  1
  Mg  Mg11  1  0.83957259  0.16978680  0.87375667  1
  Mg  Mg12  1  0.83333300  0.66666700  0.37544721  1
  Mg  Mg13  1  0.83333300  0.66666700  0.87455279  1
  Mn  Mn0  1  0.16666700  0.33333300  0.62500000  1
  Al  Al0  1  0.16666700  0.33333300  0.12500000  1
loop_
_geom_bond_atom_site_label_1
_geom_bond_atom_site_label_2
_geom_bond_distance
_geom_bond_site_symmetry_2
Mg0 Mg2 3.116901 1_455
Mg0 Mg4 3.116902 1_455
Mg0 Mg2 3.134598 1_565
Mg0 Mg4 3.134598 1_555
Mg0 Mg12 3.137947 1_455
Mg0 Mg13 3.137947 1_454
Mg0 Mg9 3.158851 1_554
Mg0 Mg8 3.158851 1_555
Mg0 Mg7 3.158858 1_564
Mg0 Mg6 3.158858 1_565
Mg1 Mg3 3.121554 1_565
Mg1 Mg5 3.121554 1_555
Mg1 Mn0 3.125751 1_555
Mg1 Mn0 3.125751 1_565
Mg1 Mg3 3.129945 1_455
Mg1 Mg5 3.129946 1_455
Mg1 Mg12 3.134766 1_455
Mg1 Mg13 3.134766 1_455
Mg1 Mg8 3.135920 1_555
Mg1 Mg9 3.135920 1_555
Mg1 Mg7 3.135926 1_565
Mg1 Mg6 3.135926 1_565
Mg2 Mg4 3.116901 1_555
Mg2 Mg4 3.134598 1_545
Mg2 Mg7 3.158858 1_554
Mg2 Mg6 3.158858 1_555
Mg3 Mg5 3.121554 1_545
Mg3 Mn0 3.125751 1_655
Mg3 Mn0 3.125751 1_555
Mg3 Mg5 3.129945 1_555
Mg3 Mg7 3.135926 1_555
Mg3 Mg6 3.135926 1_555
Mg4 Mg9 3.158858 1_554
Mg4 Mg8 3.158858 1_555
Mg5 Mn0 3.125751 1_555
Mg5 Mn0 3.125751 1_665
Mg5 Mg8 3.135926 1_555
Mg5 Mg9 3.135926 1_555
Mg6 Mg8 3.067239 1_555
Mg6 Mn0 3.107312 1_555
Mg6 Mg8 3.184260 1_545
Mg7 Mg9 3.067239 1_555
Mg7 Mn0 3.107312 1_555
Mg7 Mg9 3.184260 1_545
Mg8 Mn0 3.107318 1_555
Mg9 Mn0 3.107318 1_555
Mg10 Mg8 3.067239 1_655
Mg10 Mg6 3.067240 1_655
Mg10 Mn0 3.107318 1_655
Mg10 Mg12 3.125943 1_555
Mg10 Mg12 3.125943 1_545
Mg10 Mg3 3.135920 1_555
Mg10 Mg5 3.135926 1_545
Mg10 Mg2 3.158851 1_555
Mg10 Mg4 3.158858 1_545
Mg10 Mg8 3.184260 1_545
Mg10 Mg6 3.184260 1_555
Mg11 Mg9 3.067239 1_655
Mg11 Mg7 3.067240 1_655
Mg11 Mn0 3.107318 1_655
Mg11 Mg13 3.125943 1_555
Mg11 Mg13 3.125943 1_545
Mg11 Mg3 3.135920 1_555
Mg11 Mg5 3.135926 1_545
Mg11 Mg2 3.158851 1_556
Mg11 Mg4 3.158858 1_546
Mg11 Mg9 3.184260 1_545
Mg11 Mg7 3.184260 1_555
Mg12 Mg6 3.125943 1_665
Mg12 Mg6 3.125943 1_555
Mg12 Mg8 3.125943 1_655
Mg12 Mg8 3.125943 1_555
Mg12 Mg5 3.134760 1_555
Mg12 Mg3 3.134766 1_555
Mg12 Mg4 3.137941 1_555
Mg12 Mg2 3.137947 1_555
Mg13 Mg7 3.125943 1_665
Mg13 Mg7 3.125943 1_555
Mg13 Mg9 3.125943 1_655
Mg13 Mg9 3.125943 1_555
Mg13 Mg5 3.134760 1_555
Mg13 Mg3 3.134766 1_555
Mg13 Mg4 3.137941 1_556
Mg13 Mg2 3.137947 1_556
Al0 Mg0 3.125754 1_555
Al0 Mg4 3.125754 1_445
Al0 Mg4 3.125754 1_555
Al0 Mg0 3.125754 1_545
Al0 Mg2 3.125754 1_455
Al0 Mg2 3.125754 1_555
Al0 Mg6 3.128319 1_555
Al0 Mg7 3.128319 1_554
Al0 Mg8 3.128325 1_555
Al0 Mg9 3.128325 1_554
Al0 Mg11 3.128326 1_454
Al0 Mg10 3.128326 1_455
