# generated using pymatgen
data_Ti3O5
_symmetry_space_group_name_H-M   'P 1'
_cell_length_a   11.47368889
_cell_length_b   10.68731680
_cell_length_c   10.06301365
_cell_angle_alpha   93.31597500
_cell_angle_beta   86.61738936
_cell_angle_gamma   90.47862645
_symmetry_Int_Tables_number   1
_chemical_formula_structural   Ti3O5
_chemical_formula_sum   'Ti39 O65'
_cell_volume   1229.72908655
_cell_formula_units_Z   13
loop_
 _symmetry_equiv_pos_site_id
 _symmetry_equiv_pos_as_xyz
  1  'x, y, z'
loop_
 _atom_site_type_symbol
 _atom_site_label
 _atom_site_symmetry_multiplicity
 _atom_site_fract_x
 _atom_site_fract_y
 _atom_site_fract_z
 _atom_site_occupancy
  Ti  Ti0  1  0.64613800  0.60003800  0.36540500  1
  Ti  Ti1  1  0.46407600  0.63209600  0.61585100  1
  Ti  Ti2  1  0.61138900  0.80962100  0.92393500  1
  Ti  Ti3  1  0.66013200  0.13217800  0.69019800  1
  Ti  Ti4  1  0.95123600  0.55507800  0.20022500  1
  Ti  Ti5  1  0.04897900  0.68576300  0.85111300  1
  Ti  Ti6  1  0.49153500  0.32414600  0.18783900  1
  Ti  Ti7  1  0.67144400  0.13520700  0.98435200  1
  Ti  Ti8  1  0.60532200  0.84857700  0.57980100  1
  Ti  Ti9  1  0.10764300  0.24558500  0.93845300  1
  Ti  Ti10  1  0.84162800  0.36394800  0.41850800  1
  Ti  Ti11  1  0.95247900  0.22280100  0.58761600  1
  Ti  Ti12  1  0.27276500  0.77573200  0.61167700  1
  Ti  Ti13  1  0.84585100  0.93121400  0.95246500  1
  Ti  Ti14  1  0.83918800  0.78048700  0.39248200  1
  Ti  Ti15  1  0.05772500  0.44834300  0.55519400  1
  Ti  Ti16  1  0.49399500  0.11874500  0.46381500  1
  Ti  Ti17  1  0.62192300  0.44519400  0.89411700  1
  Ti  Ti18  1  0.69529700  0.59937900  0.65405700  1
  Ti  Ti19  1  0.09292000  0.79774100  0.40912000  1
  Ti  Ti20  1  0.82523000  0.89750300  0.67625400  1
  Ti  Ti21  1  0.45732400  0.79993400  0.35755500  1
  Ti  Ti22  1  0.14955800  0.03348000  0.14587300  1
  Ti  Ti23  1  0.25662100  0.26682900  0.41676800  1
  Ti  Ti24  1  0.78263200  0.06455800  0.44887600  1
  Ti  Ti25  1  0.77376800  0.63716300  0.04848500  1
  Ti  Ti26  1  0.23981400  0.51232600  0.06893000  1
  Ti  Ti27  1  0.84973600  0.36710600  0.86475300  1
  Ti  Ti28  1  0.12648600  0.97671500  0.90021200  1
  Ti  Ti29  1  0.67460900  0.92939900  0.21692700  1
  Ti  Ti30  1  0.31216800  0.56410800  0.39310900  1
  Ti  Ti31  1  0.45077700  0.36531700  0.64257400  1
  Ti  Ti32  1  0.30286900  0.75833800  0.91693700  1
  Ti  Ti33  1  0.47569900  0.61653500  0.13950600  1
  Ti  Ti34  1  0.26087000  0.00788200  0.38685300  1
  Ti  Ti35  1  0.41007000  0.01742300  0.01755000  1
  Ti  Ti36  1  0.05060300  0.97002700  0.66013600  1
  Ti  Ti37  1  0.88684500  0.21481000  0.15086200  1
  Ti  Ti38  1  0.38029800  0.24590100  0.93573500  1
  O  O0  1  0.91339100  0.04786900  0.59007100  1
  O  O1  1  0.16651100  0.63899500  0.95352800  1
  O  O2  1  0.82801700  0.93087100  0.31234000  1
  O  O3  1  0.25095800  0.90161200  0.03469300  1
  O  O4  1  0.63472200  0.06856300  0.35927100  1
  O  O5  1  0.78103400  0.23240000  0.55899600  1
  O  O6  1  0.17999200  0.82327900  0.78988400  1
  O  O7  1  0.18600500  0.92609500  0.54388700  1
  O  O8  1  0.48156100  0.61664400  0.41741900  1
  O  O9  1  0.18951600  0.67467000  0.47874600  1
  O  O10  1  0.43096300  0.81676700  0.56369700  1
  O  O11  1  0.78273100  0.05402600  0.10877100  1
  O  O12  1  0.04523300  0.18668700  0.10554700  1
  O  O13  1  0.93549000  0.63649200  0.00527300  1
  O  O14  1  0.74898400  0.82097800  0.07039500  1
  O  O15  1  0.10694300  0.51657800  0.17097500  1
  O  O16  1  0.62598700  0.24616200  0.13641800  1
  O  O17  1  0.54385300  0.49117800  0.72208200  1
  O  O18  1  0.34080500  0.70376200  0.26875900  1
  O  O19  1  0.23477400  0.35926700  0.97753500  1
  O  O20  1  0.07498800  0.11527300  0.79244600  1
  O  O21  1  0.10931400  0.26423700  0.53587900  1
  O  O22  1  0.57564500  0.98749500  0.06739000  1
  O  O23  1  0.36764900  0.47678500  0.55320700  1
  O  O24  1  0.55902900  0.24577200  0.58111800  1
  O  O25  1  0.35200400  0.47608100  0.20693700  1
  O  O26  1  0.76744100  0.79708100  0.83666400  1
  O  O27  1  0.01047900  0.95182700  0.03563600  1
  O  O28  1  0.50356500  0.11983100  0.89035000  1
  O  O29  1  0.94761300  0.36497000  0.69775400  1
  O  O30  1  0.76669100  0.50453000  0.77342800  1
  O  O31  1  0.43292900  0.27983000  0.36605800  1
  O  O32  1  0.19303800  0.43591400  0.41752500  1
  O  O33  1  0.05716200  0.58271800  0.70576700  1
  O  O34  1  0.39906200  0.19163000  0.11845200  1
  O  O35  1  0.24735500  0.11024600  0.95934700  1
  O  O36  1  0.75149800  0.03211100  0.81891100  1
  O  O37  1  0.96524400  0.83225300  0.52836200  1
  O  O38  1  0.57918400  0.50207800  0.21906100  1
  O  O39  1  0.71567800  0.49213200  0.48100500  1
  O  O40  1  0.58151200  0.73136500  0.72963100  1
  O  O41  1  0.44695500  0.85731400  0.90807300  1
  O  O42  1  0.33888200  0.67574900  0.74444100  1
  O  O43  1  0.13425400  0.91659500  0.28544700  1
  O  O44  1  0.54475000  0.01914800  0.61041800  1
  O  O45  1  0.75168900  0.46109400  0.00899400  1
  O  O46  1  0.00100600  0.36784100  0.93687400  1
  O  O47  1  0.96962900  0.87279400  0.80088800  1
  O  O48  1  0.54162000  0.77404500  0.18081200  1
  O  O49  1  0.78410100  0.64165600  0.24426900  1
  O  O50  1  0.36794400  0.62482200  0.00592900  1
  O  O51  1  0.63977200  0.80369500  0.38731500  1
  O  O52  1  0.98623500  0.70816500  0.30197600  1
  O  O53  1  0.35871900  0.28979200  0.75945800  1
  O  O54  1  0.32126900  0.13605000  0.51731300  1
  O  O55  1  0.60558900  0.63265200  0.97740100  1
  O  O56  1  0.83021900  0.22341000  0.97581100  1
  O  O57  1  0.20766100  0.15293000  0.28799800  1
  O  O58  1  0.76616300  0.74031700  0.57489600  1
  O  O59  1  0.48455800  0.38623400  0.99118200  1
  O  O60  1  0.67616600  0.28043200  0.83176700  1
  O  O61  1  0.87700300  0.38751600  0.22171900  1
  O  O62  1  0.87947600  0.18627100  0.33945400  1
  O  O63  1  0.95221000  0.49589700  0.43717000  1
  O  O64  1  0.41679300  0.97510500  0.33880700  1
loop_
_geom_bond_atom_site_label_1
_geom_bond_atom_site_label_2
_geom_bond_distance
_geom_bond_site_symmetry_2
O0 Ti11 1.920158 1_555
O0 Ti36 1.971914 1_645
O0 Ti20 2.094842 1_545
O0 Ti24 2.141687 1_555
O1 Ti5 1.834488 1_555
O1 Ti32 2.040376 1_555
O1 Ti26 2.050553 1_556
O2 Ti14 1.848108 1_555
O2 Ti24 1.975142 1_565
O2 Ti29 2.053653 1_555
O3 Ti32 1.955912 1_554
O3 Ti22 2.069506 1_565
O3 Ti35 2.200975 1_565
O3 Ti28 2.210911 1_554
O4 Ti16 1.936557 1_555
O4 Ti24 1.970077 1_555
O4 Ti29 2.039811 1_545
O5 Ti11 2.009135 1_555
O5 Ti24 2.052841 1_555
O5 Ti10 2.134514 1_555
O5 Ti3 2.176550 1_555
O6 Ti28 2.006062 1_555
O6 Ti12 2.070156 1_555
O6 Ti32 2.106122 1_555
O6 Ti5 2.181228 1_555
O7 Ti36 1.933041 1_555
O7 Ti34 1.996515 1_565
O7 Ti12 2.066966 1_555
O7 Ti19 2.189251 1_555
O8 Ti0 1.936331 1_555
O8 Ti1 1.992475 1_555
O8 Ti30 2.043163 1_555
O8 Ti21 2.107800 1_555
O9 Ti19 1.916214 1_555
O9 Ti12 1.958249 1_555
O9 Ti30 1.971327 1_555
O10 Ti12 1.904696 1_555
O10 Ti8 2.040716 1_555
O10 Ti21 2.076227 1_555
O10 Ti1 2.114455 1_555
O11 Ti7 2.069675 1_554
O11 Ti13 2.088995 1_544
O11 Ti29 2.116209 1_545
O11 Ti37 2.121402 1_555
O12 Ti37 1.869844 1_455
O12 Ti9 1.925915 1_554
O12 Ti22 2.108408 1_555
O13 Ti25 1.880650 1_555
O13 Ti5 2.055258 1_654
O13 Ti4 2.209142 1_555
O14 Ti29 1.978774 1_555
O14 Ti25 1.985074 1_555
O14 Ti13 2.003944 1_554
O14 Ti2 2.220348 1_554
O15 Ti26 1.786541 1_555
O15 Ti4 1.839526 1_455
O16 Ti6 1.794316 1_555
O16 Ti7 1.930297 1_554
O17 Ti31 1.882093 1_555
O17 Ti17 2.080789 1_555
O17 Ti1 2.138575 1_555
O17 Ti18 2.177790 1_555
O18 Ti21 1.911526 1_555
O18 Ti30 2.015138 1_555
O18 Ti33 2.145354 1_555
O19 Ti26 1.831849 1_556
O19 Ti9 1.934242 1_555
O19 Ti38 2.079592 1_555
O20 Ti28 1.998494 1_545
O20 Ti36 2.014502 1_545
O20 Ti9 2.014506 1_555
O21 Ti11 1.899494 1_455
O21 Ti23 2.014464 1_555
O21 Ti15 2.054563 1_555
O22 Ti35 2.025850 1_565
O22 Ti29 2.064152 1_555
O22 Ti7 2.100896 1_564
O22 Ti2 2.343421 1_554
O23 Ti31 1.838959 1_555
O23 Ti30 2.043673 1_555
O23 Ti1 2.075368 1_555
O24 Ti31 1.844427 1_555
O24 Ti16 1.922193 1_555
O24 Ti3 2.086223 1_555
O25 Ti26 2.004298 1_555
O25 Ti30 2.075096 1_555
O25 Ti33 2.167142 1_555
O25 Ti6 2.282018 1_555
O26 Ti2 1.949336 1_555
O26 Ti13 2.032539 1_555
O26 Ti20 2.063826 1_555
O27 Ti28 1.876567 1_554
O27 Ti13 2.115467 1_454
O27 Ti22 2.147594 1_565
O28 Ti38 1.977039 1_555
O28 Ti35 1.991850 1_556
O28 Ti7 2.196309 1_555
O28 Ti3 2.626978 1_555
O29 Ti11 1.827399 1_555
O29 Ti27 1.964455 1_555
O29 Ti15 2.088855 1_655
O30 Ti18 1.847262 1_555
O30 Ti27 2.047530 1_555
O30 Ti17 2.114137 1_555
O31 Ti6 1.960475 1_555
O31 Ti23 2.062410 1_555
O31 Ti16 2.172519 1_555
O32 Ti30 1.942611 1_555
O32 Ti23 1.953851 1_555
O32 Ti15 2.018812 1_555
O33 Ti5 1.777655 1_555
O33 Ti15 2.026229 1_555
O34 Ti6 1.888633 1_555
O34 Ti38 1.983858 1_554
O34 Ti35 2.069629 1_555
O35 Ti28 2.068822 1_545
O35 Ti38 2.108355 1_555
O35 Ti9 2.195371 1_555
O35 Ti35 2.244956 1_556
O35 Ti22 2.317237 1_556
O36 Ti3 2.063860 1_555
O36 Ti7 2.110356 1_555
O36 Ti20 2.117589 1_545
O36 Ti13 2.121275 1_545
O37 Ti19 1.863399 1_655
O37 Ti14 2.097644 1_555
O37 Ti36 2.188363 1_655
O37 Ti20 2.213242 1_555
O38 Ti0 1.948498 1_555
O38 Ti33 1.948525 1_555
O38 Ti6 2.159264 1_555
O39 Ti0 1.897332 1_555
O39 Ti18 2.031378 1_555
O39 Ti10 2.046160 1_555
O40 Ti18 2.015443 1_555
O40 Ti8 2.020223 1_555
O40 Ti1 2.066327 1_555
O40 Ti2 2.127263 1_555
O41 Ti32 1.955564 1_555
O41 Ti2 1.976310 1_555
O41 Ti35 2.014886 1_566
O42 Ti1 1.917671 1_555
O42 Ti32 1.925390 1_555
O42 Ti12 1.949484 1_555
O43 Ti19 1.868262 1_555
O43 Ti22 1.932414 1_565
O43 Ti34 2.034630 1_565
O44 Ti8 1.957546 1_545
O44 Ti3 1.960325 1_555
O44 Ti16 1.985433 1_555
O45 Ti25 1.918417 1_555
O45 Ti17 1.938607 1_554
O45 Ti27 2.009698 1_554
O46 Ti9 1.798842 1_555
O46 Ti27 1.920139 1_455
O47 Ti36 1.986967 1_655
O47 Ti13 2.093412 1_555
O47 Ti20 2.162989 1_555
O47 Ti5 2.298120 1_655
O47 Ti28 2.349892 1_655
O48 Ti33 1.874415 1_555
O48 Ti21 1.979861 1_555
O48 Ti29 2.273837 1_555
O49 Ti25 1.978505 1_555
O49 Ti0 2.003184 1_555
O49 Ti4 2.147533 1_555
O49 Ti14 2.159861 1_555
O50 Ti33 1.885458 1_555
O50 Ti32 1.907908 1_554
O50 Ti26 1.989305 1_555
O51 Ti8 1.985845 1_555
O51 Ti21 2.131807 1_555
O51 Ti0 2.176360 1_555
O51 Ti29 2.254137 1_555
O51 Ti14 2.307455 1_555
O52 Ti19 1.895805 1_655
O52 Ti4 1.931374 1_555
O52 Ti14 2.008102 1_555
O53 Ti31 1.760567 1_555
O53 Ti38 1.891562 1_555
O54 Ti23 1.948560 1_555
O54 Ti34 1.990852 1_555
O54 Ti16 2.029847 1_555
O55 Ti2 1.995595 1_555
O55 Ti25 2.096386 1_556
O55 Ti17 2.131834 1_555
O55 Ti33 2.157098 1_556
O56 Ti37 1.920516 1_556
O56 Ti27 1.954699 1_555
O56 Ti7 2.043748 1_555
O57 Ti23 1.835336 1_555
O57 Ti22 2.001675 1_555
O57 Ti34 2.007788 1_555
O58 Ti18 1.899050 1_555
O58 Ti14 2.039495 1_555
O58 Ti20 2.045976 1_555
O58 Ti8 2.182904 1_555
O59 Ti17 1.925645 1_555
O59 Ti38 1.985866 1_555
O59 Ti6 2.129436 1_556
O60 Ti17 1.930302 1_555
O60 Ti3 2.082963 1_555
O60 Ti27 2.223934 1_555
O60 Ti7 2.243650 1_555
O61 Ti37 1.941583 1_555
O61 Ti4 1.994174 1_555
O61 Ti10 2.027530 1_555
O62 Ti37 1.936345 1_555
O62 Ti24 2.033798 1_555
O62 Ti10 2.055596 1_555
O63 Ti15 1.839652 1_655
O63 Ti10 1.897703 1_555
O63 Ti4 2.502631 1_555
O64 Ti34 1.856297 1_565
O64 Ti21 1.955096 1_555
O64 Ti16 2.146874 1_565
