# generated using pymatgen
data_CaMg14Fe
_symmetry_space_group_name_H-M   'P 1'
_cell_length_a   6.44853778
_cell_length_b   6.40482726
_cell_length_c   10.24884031
_cell_angle_alpha   90.00000000
_cell_angle_beta   90.00000000
_cell_angle_gamma   119.77603127
_symmetry_Int_Tables_number   1
_chemical_formula_structural   CaMg14Fe
_chemical_formula_sum   'Ca1 Mg14 Fe1'
_cell_volume   367.40896666
_cell_formula_units_Z   1
loop_
 _symmetry_equiv_pos_site_id
 _symmetry_equiv_pos_as_xyz
  1  'x, y, z'
loop_
 _atom_site_type_symbol
 _atom_site_label
 _atom_site_symmetry_multiplicity
 _atom_site_fract_x
 _atom_site_fract_y
 _atom_site_fract_z
 _atom_site_occupancy
  Ca  Ca0  1  0.16053668  0.33026784  0.12500000  1
  Mg  Mg0  1  0.16885387  0.33442644  0.62500000  1
  Mg  Mg1  1  0.16363745  0.83181823  0.62500000  1
  Mg  Mg2  1  0.65582976  0.31784365  0.12500000  1
  Mg  Mg3  1  0.66460081  0.33650454  0.62500000  1
  Mg  Mg4  1  0.65582976  0.83798510  0.12500000  1
  Mg  Mg5  1  0.66460081  0.82809527  0.62500000  1
  Mg  Mg6  1  0.33241522  0.15575432  0.37400502  1
  Mg  Mg7  1  0.33241522  0.15575432  0.87599498  1
  Mg  Mg8  1  0.33241522  0.67666190  0.37400502  1
  Mg  Mg9  1  0.33241522  0.67666190  0.87599498  1
  Mg  Mg10  1  0.82902087  0.16451094  0.38536581  1
  Mg  Mg11  1  0.82902087  0.16451094  0.86463419  1
  Mg  Mg12  1  0.84584700  0.67292400  0.35766824  1
  Mg  Mg13  1  0.84584700  0.67292400  0.89233176  1
  Fe  Fe0  1  0.18671425  0.84335663  0.12500000  1
loop_
_geom_bond_atom_site_label_1
_geom_bond_atom_site_label_2
_geom_bond_distance
_geom_bond_site_symmetry_2
Ca0 Mg6 3.197032 1_555
Ca0 Mg7 3.197032 1_554
Ca0 Mg9 3.197039 1_554
Ca0 Mg8 3.197039 1_555
Ca0 Fe0 3.205764 1_545
Ca0 Fe0 3.205764 1_555
Ca0 Mg4 3.215846 1_445
Ca0 Mg2 3.215846 1_455
Ca0 Mg4 3.234171 1_555
Ca0 Mg2 3.234171 1_555
Ca0 Mg11 3.250179 1_454
Ca0 Mg10 3.250179 1_455
Mg0 Mg11 3.106410 1_455
Mg0 Mg10 3.106410 1_455
Mg0 Mg5 3.190254 1_555
Mg0 Mg3 3.190254 1_555
Mg0 Mg7 3.199707 1_555
Mg0 Mg6 3.199707 1_555
Mg0 Mg8 3.199713 1_555
Mg0 Mg9 3.199713 1_555
Mg0 Mg1 3.202547 1_545
Mg0 Mg1 3.202547 1_555
Mg0 Mg5 3.258325 1_445
Mg0 Mg3 3.258325 1_455
Mg1 Mg8 3.140637 1_555
Mg1 Mg9 3.140637 1_555
Mg1 Mg7 3.140643 1_565
Mg1 Mg6 3.140643 1_565
Mg1 Mg3 3.206282 1_455
Mg1 Mg5 3.206282 1_455
Mg1 Mg3 3.242389 1_565
Mg1 Mg5 3.242389 1_555
Mg1 Mg13 3.266586 1_455
Mg1 Mg12 3.266586 1_455
Mg2 Mg4 3.073411 1_545
Mg2 Mg7 3.128835 1_554
Mg2 Mg6 3.128835 1_555
Mg2 Mg4 3.331416 1_555
Mg3 Mg5 3.148554 1_555
Mg3 Mg6 3.175385 1_555
Mg3 Mg7 3.175385 1_555
Mg3 Mg5 3.256274 1_545
Mg4 Mg9 3.128835 1_554
Mg4 Mg8 3.128835 1_555
Mg5 Mg9 3.175386 1_555
Mg5 Mg8 3.175386 1_555
Mg6 Mg8 3.068504 1_545
Mg6 Mg8 3.336323 1_555
Mg7 Mg9 3.068504 1_545
Mg7 Mg9 3.336323 1_555
Mg10 Mg3 3.086994 1_555
Mg10 Mg5 3.087001 1_545
Mg10 Mg8 3.177035 1_545
Mg10 Mg6 3.177036 1_555
Mg10 Mg12 3.216349 1_555
Mg10 Mg12 3.216349 1_545
Mg10 Mg2 3.228274 1_555
Mg10 Mg4 3.228280 1_545
Mg10 Mg8 3.276441 1_655
Mg10 Mg6 3.276441 1_655
Mg11 Mg3 3.086994 1_555
Mg11 Mg5 3.087001 1_545
Mg11 Mg9 3.177035 1_545
Mg11 Mg7 3.177036 1_555
Mg11 Mg13 3.216349 1_555
Mg11 Mg13 3.216349 1_545
Mg11 Mg2 3.228274 1_556
Mg11 Mg4 3.228280 1_546
Mg11 Mg9 3.276441 1_655
Mg11 Mg7 3.276441 1_655
Mg12 Mg4 3.097085 1_555
Mg12 Mg2 3.097092 1_555
Mg12 Mg6 3.130314 1_665
Mg12 Mg8 3.130314 1_655
Mg12 Mg5 3.318763 1_555
Mg12 Mg3 3.318769 1_555
Mg12 Mg6 3.327054 1_555
Mg12 Mg8 3.327054 1_555
Mg13 Mg4 3.097085 1_556
Mg13 Mg2 3.097092 1_556
Mg13 Mg7 3.130314 1_665
Mg13 Mg9 3.130314 1_655
Mg13 Mg5 3.318763 1_555
Mg13 Mg3 3.318769 1_555
Mg13 Mg7 3.327054 1_555
Mg13 Mg9 3.327054 1_555
Fe0 Mg2 3.042341 1_565
Fe0 Mg4 3.042341 1_555
Fe0 Mg12 3.053892 1_455
Fe0 Mg13 3.053892 1_454
Fe0 Mg8 3.087351 1_555
Fe0 Mg9 3.087351 1_554
Fe0 Mg6 3.087358 1_565
Fe0 Mg7 3.087358 1_564
Fe0 Mg2 3.406474 1_455
Fe0 Mg4 3.406474 1_455
