# generated using pymatgen
data_Ca3Fe2(SbO6)2
_symmetry_space_group_name_H-M   'P 1'
_cell_length_a   5.49749915
_cell_length_b   5.59272570
_cell_length_c   7.74873288
_cell_angle_alpha   89.70175781
_cell_angle_beta   89.78148504
_cell_angle_gamma   90.93331649
_symmetry_Int_Tables_number   1
_chemical_formula_structural   Ca3Fe2(SbO6)2
_chemical_formula_sum   'Ca3 Fe2 Sb2 O12'
_cell_volume   238.20593248
_cell_formula_units_Z   1
loop_
 _symmetry_equiv_pos_site_id
 _symmetry_equiv_pos_as_xyz
  1  'x, y, z'
loop_
 _atom_site_type_symbol
 _atom_site_label
 _atom_site_symmetry_multiplicity
 _atom_site_fract_x
 _atom_site_fract_y
 _atom_site_fract_z
 _atom_site_occupancy
  Ca  Ca0  1  0.48525600  0.44699900  0.74990500  1
  Ca  Ca1  1  0.50624300  0.54121900  0.24954800  1
  Ca  Ca2  1  0.98718300  0.05701800  0.24984500  1
  Fe  Fe0  1  0.99479300  0.51674400  0.50610300  1
  Fe  Fe1  1  0.50499200  0.99536300  0.99612300  1
  Sb  Sb0  1  0.99248500  0.51679400  0.99328300  1
  Sb  Sb1  1  0.50280100  0.99066400  0.50280400  1
  O  O0  1  0.40665200  0.98127300  0.25151700  1
  O  O1  1  0.08338700  0.47192700  0.24735600  1
  O  O2  1  0.57350400  0.02506500  0.75195500  1
  O  O3  1  0.90484500  0.52601600  0.74793700  1
  O  O4  1  0.78887800  0.78727400  0.06201300  1
  O  O5  1  0.70759100  0.28658300  0.45349300  1
  O  O6  1  0.21315000  0.23089900  0.96723000  1
  O  O7  1  0.31194700  0.68868500  0.53367500  1
  O  O8  1  0.30954800  0.69260100  0.96551400  1
  O  O9  1  0.22237600  0.21442800  0.53904700  1
  O  O10  1  0.70759200  0.29520500  0.04430500  1
  O  O11  1  0.78437800  0.78587700  0.43900000  1
loop_
_geom_bond_atom_site_label_1
_geom_bond_atom_site_label_2
_geom_bond_distance
_geom_bond_site_symmetry_2
Ca0 O3 2.341538 1_555
Ca0 O7 2.360655 1_555
Ca0 O8 2.380302 1_555
Ca0 O2 2.416827 1_555
Ca0 O9 2.535519 1_555
Ca0 O6 2.536719 1_555
Ca0 O10 2.730130 1_556
Ca0 O5 2.758626 1_555
Ca1 O1 2.350636 1_555
Ca1 O10 2.388846 1_555
Ca1 O5 2.406658 1_555
Ca1 O4 2.512354 1_555
Ca1 O11 2.516978 1_555
Ca1 O0 2.530066 1_555
Ca1 O7 2.588036 1_555
Ca1 O8 2.599736 1_554
Ca2 O0 2.351466 1_645
Ca2 O4 2.358841 1_545
Ca2 O11 2.366474 1_545
Ca2 O1 2.371530 1_655
Ca2 O5 2.562798 1_555
Ca2 O10 2.595565 1_555
Ca2 O6 2.683712 1_654
Ca2 O9 2.733900 1_655
Fe0 O3 1.937399 1_555
Fe0 O11 1.981716 1_555
Fe0 O7 1.990150 1_655
Fe0 O5 2.064027 1_555
Fe0 O1 2.078862 1_655
Fe0 O9 2.134496 1_655
Fe1 O2 1.933480 1_565
Fe1 O8 2.006167 1_555
Fe1 O4 2.027264 1_556
Fe1 O10 2.034914 1_566
Fe1 O0 2.050286 1_556
Fe1 O6 2.104280 1_565
O0 Sb1 2.020292 1_555
O1 Sb0 2.048194 1_454
O2 Sb1 1.980526 1_545
O3 Sb0 1.963626 1_555
O4 Sb0 1.970750 1_554
O5 Sb1 2.020381 1_545
O6 Sb0 2.033137 1_455
O7 Sb1 1.986598 1_555
O8 Sb0 1.997599 1_455
O9 Sb1 2.021101 1_545
O10 Sb0 2.017935 1_554
O11 Sb1 2.002550 1_555
