# generated using pymatgen
data_Ho2Mn17C3
_symmetry_space_group_name_H-M   'P 1'
_cell_length_a   8.50402999
_cell_length_b   8.50402999
_cell_length_c   8.28093600
_cell_angle_alpha   90.00000000
_cell_angle_beta   90.00000000
_cell_angle_gamma   119.99999990
_symmetry_Int_Tables_number   1
_chemical_formula_structural   Ho2Mn17C3
_chemical_formula_sum   'Ho4 Mn34 C6'
_cell_volume   518.63237812
_cell_formula_units_Z   2
loop_
 _symmetry_equiv_pos_site_id
 _symmetry_equiv_pos_as_xyz
  1  'x, y, z'
loop_
 _atom_site_type_symbol
 _atom_site_label
 _atom_site_symmetry_multiplicity
 _atom_site_fract_x
 _atom_site_fract_y
 _atom_site_fract_z
 _atom_site_occupancy
  Ho  Ho0  1  0.33333300  0.66666700  0.25000000  1
  Ho  Ho1  1  0.66666700  0.33333300  0.75000000  1
  Ho  Ho2  1  0.00000000  0.00000000  0.25000000  1
  Ho  Ho3  1  0.00000000  0.00000000  0.75000000  1
  Mn  Mn0  1  0.38887700  0.06115600  0.25000000  1
  Mn  Mn1  1  0.61112300  0.93884400  0.75000000  1
  Mn  Mn2  1  0.93884400  0.32772000  0.25000000  1
  Mn  Mn3  1  0.06115600  0.38887700  0.75000000  1
  Mn  Mn4  1  0.06115600  0.67228000  0.75000000  1
  Mn  Mn5  1  0.93884400  0.61112300  0.25000000  1
  Mn  Mn6  1  0.67228000  0.61112300  0.25000000  1
  Mn  Mn7  1  0.32772000  0.93884400  0.75000000  1
  Mn  Mn8  1  0.32772000  0.38887700  0.75000000  1
  Mn  Mn9  1  0.67228000  0.06115600  0.25000000  1
  Mn  Mn10  1  0.61112300  0.67228000  0.75000000  1
  Mn  Mn11  1  0.38887700  0.32772000  0.25000000  1
  Mn  Mn12  1  0.33333300  0.66666700  0.60600800  1
  Mn  Mn13  1  0.66666700  0.33333300  0.39399200  1
  Mn  Mn14  1  0.66666700  0.33333300  0.10600800  1
  Mn  Mn15  1  0.33333300  0.66666700  0.89399200  1
  Mn  Mn16  1  0.16903800  0.33807600  0.02582500  1
  Mn  Mn17  1  0.83096200  0.66192400  0.97417500  1
  Mn  Mn18  1  0.66192400  0.83096200  0.02582500  1
  Mn  Mn19  1  0.83096200  0.66192400  0.52582500  1
  Mn  Mn20  1  0.33807600  0.16903800  0.97417500  1
  Mn  Mn21  1  0.16903800  0.33807600  0.47417500  1
  Mn  Mn22  1  0.16903800  0.83096200  0.02582500  1
  Mn  Mn23  1  0.33807600  0.16903800  0.52582500  1
  Mn  Mn24  1  0.83096200  0.16903800  0.97417500  1
  Mn  Mn25  1  0.66192400  0.83096200  0.47417500  1
  Mn  Mn26  1  0.83096200  0.16903800  0.52582500  1
  Mn  Mn27  1  0.16903800  0.83096200  0.47417500  1
  Mn  Mn28  1  0.50000000  0.00000000  0.00000000  1
  Mn  Mn29  1  0.00000000  0.50000000  0.00000000  1
  Mn  Mn30  1  0.50000000  0.00000000  0.50000000  1
  Mn  Mn31  1  0.50000000  0.50000000  0.00000000  1
  Mn  Mn32  1  0.00000000  0.50000000  0.50000000  1
  Mn  Mn33  1  0.50000000  0.50000000  0.50000000  1
  C  C0  1  0.16530100  0.33060100  0.25000000  1
  C  C1  1  0.83469900  0.66939900  0.75000000  1
  C  C2  1  0.66939900  0.83469900  0.25000000  1
  C  C3  1  0.33060100  0.16530100  0.75000000  1
  C  C4  1  0.16530100  0.83469900  0.25000000  1
  C  C5  1  0.83469900  0.16530100  0.75000000  1
loop_
_geom_bond_atom_site_label_1
_geom_bond_atom_site_label_2
_geom_bond_distance
_geom_bond_site_symmetry_2
Ho0 Mn15 2.948079 1_554
Ho0 Mn12 2.948079 1_555
Ho0 Mn30 3.211293 1_565
Ho0 Mn32 3.211293 1_555
Ho0 Mn28 3.211293 1_565
Ho0 Mn29 3.211293 1_555
Ho0 Mn33 3.211298 1_555
Ho0 Mn31 3.211298 1_555
Ho1 Mn13 2.948079 1_555
Ho1 Mn14 2.948079 1_556
Ho1 Mn30 3.211293 1_555
Ho1 Mn28 3.211293 1_556
Ho1 Mn29 3.211293 1_656
Ho1 Mn32 3.211293 1_655
Ho1 Mn31 3.211298 1_556
Ho1 Mn33 3.211298 1_555
Mn0 Mn28 2.437380 1_555
Mn0 Mn30 2.437380 1_555
Mn0 Mn13 2.625249 1_555
Mn0 Mn14 2.625249 1_555
Mn1 Mn28 2.437380 1_566
Mn1 Mn30 2.437380 1_565
Mn1 Mn15 2.625249 1_555
Mn1 Mn12 2.625249 1_555
Mn2 Mn32 2.437384 1_655
Mn2 Mn29 2.437384 1_655
Mn3 Mn32 2.437380 1_555
Mn10 Mn33 2.437384 1_555
Mn10 Mn31 2.437384 1_556
Mn10 Mn15 2.625249 1_555
Mn10 Mn12 2.625249 1_555
Mn11 Mn33 2.437384 1_555
Mn11 Mn31 2.437384 1_555
Mn11 Mn14 2.625249 1_555
Mn11 Mn13 2.625249 1_555
Mn12 Mn15 2.384777 1_555
Mn12 Mn32 2.607133 1_555
Mn12 Mn30 2.607133 1_565
Mn12 Mn33 2.607140 1_555
Mn12 Mn4 2.625249 1_555
Mn12 Mn7 2.625249 1_555
Mn12 Mn8 2.625249 1_555
Mn12 Mn3 2.625249 1_555
Mn12 Mn27 2.654818 1_555
Mn12 Mn21 2.654825 1_555
Mn12 Mn25 2.654825 1_555
Mn13 Mn14 2.384777 1_555
Mn13 Mn32 2.607133 1_655
Mn13 Mn30 2.607133 1_555
Mn13 Mn33 2.607140 1_555
Mn13 Mn9 2.625249 1_555
Mn13 Mn2 2.625249 1_555
Mn13 Mn6 2.625249 1_555
Mn13 Mn5 2.625249 1_555
Mn13 Mn26 2.654818 1_555
Mn13 Mn23 2.654825 1_555
Mn13 Mn19 2.654825 1_555
Mn14 Mn29 2.607133 1_655
Mn14 Mn28 2.607133 1_555
Mn14 Mn31 2.607140 1_555
Mn14 Mn9 2.625249 1_555
Mn14 Mn2 2.625249 1_555
Mn14 Mn6 2.625249 1_555
Mn14 Mn5 2.625249 1_555
Mn14 Mn24 2.654818 1_554
Mn14 Mn17 2.654825 1_554
Mn14 Mn20 2.654825 1_554
Mn15 Mn29 2.607133 1_556
Mn15 Mn28 2.607133 1_566
Mn15 Mn31 2.607140 1_556
Mn15 Mn4 2.625249 1_555
Mn15 Mn7 2.625249 1_555
Mn15 Mn8 2.625249 1_555
Mn15 Mn3 2.625249 1_555
Mn15 Mn22 2.654818 1_556
Mn15 Mn18 2.654825 1_556
Mn15 Mn16 2.654825 1_556
Mn16 Mn29 2.446988 1_555
Mn16 Mn31 2.446988 1_555
Mn17 Mn29 2.446988 1_656
Mn17 Mn31 2.446988 1_556
Mn18 Mn28 2.446988 1_565
Mn18 Mn31 2.446988 1_555
Mn19 Mn32 2.446988 1_655
Mn19 Mn33 2.446988 1_555
Mn20 Mn28 2.446988 1_556
Mn20 Mn31 2.446988 1_556
Mn21 Mn32 2.446988 1_555
Mn21 Mn33 2.446988 1_555
Mn22 Mn29 2.446988 1_555
Mn22 Mn28 2.446988 1_565
Mn23 Mn30 2.446988 1_555
Mn23 Mn33 2.446988 1_555
Mn24 Mn29 2.446988 1_656
Mn24 Mn28 2.446988 1_556
Mn25 Mn30 2.446988 1_565
Mn25 Mn33 2.446988 1_555
Mn26 Mn30 2.446988 1_555
Mn26 Mn32 2.446988 1_655
Mn27 Mn30 2.446988 1_565
Mn27 Mn32 2.446988 1_555
Mn28 Mn7 2.437384 1_544
Mn28 Mn9 2.437384 1_555
Mn29 Mn5 2.437380 1_455
Mn29 Mn3 2.437380 1_554
Mn29 Mn4 2.437384 1_554
Mn30 Mn7 2.437384 1_545
Mn30 Mn9 2.437384 1_555
Mn31 Mn8 2.437384 1_554
Mn31 Mn6 2.437384 1_555
Mn32 Mn5 2.437380 1_455
Mn32 Mn4 2.437384 1_555
Mn33 Mn8 2.437384 1_555
Mn33 Mn6 2.437384 1_555
C0 Mn21 1.857195 1_555
C0 Mn16 1.857195 1_555
C0 Mn11 1.913665 1_555
C0 Mn2 1.913665 1_455
C0 Ho2 2.434779 1_555
C0 Ho0 2.475027 1_555
C1 Mn17 1.857195 1_555
C1 Mn19 1.857195 1_555
C1 Mn10 1.913665 1_555
C1 Mn4 1.913665 1_655
C1 Ho3 2.434779 1_665
C1 Ho1 2.475027 1_555
C2 Mn18 1.857195 1_555
C2 Mn25 1.857195 1_555
C2 Mn6 1.913665 1_555
C2 Mn9 1.913665 1_565
C2 Ho2 2.434779 1_665
C2 Ho0 2.475027 1_555
C3 Mn20 1.857195 1_555
C3 Mn23 1.857195 1_555
C3 Mn8 1.913665 1_555
C3 Mn7 1.913665 1_545
C3 Ho3 2.434779 1_555
C3 Ho1 2.475027 1_555
C4 Mn27 1.857195 1_555
C4 Mn22 1.857195 1_555
C4 Mn0 1.913665 1_565
C4 Mn5 1.913665 1_455
C4 Ho2 2.434787 1_565
C4 Ho0 2.475013 1_555
C5 Mn26 1.857195 1_555
C5 Mn24 1.857195 1_555
C5 Mn1 1.913665 1_545
C5 Mn3 1.913665 1_655
C5 Ho3 2.434787 1_655
C5 Ho1 2.475013 1_555
