# generated using pymatgen
data_TiV3O8
_symmetry_space_group_name_H-M   'P 1'
_cell_length_a   3.79058109
_cell_length_b   12.85187366
_cell_length_c   6.43668691
_cell_angle_alpha   77.27999102
_cell_angle_beta   107.14491970
_cell_angle_gamma   98.50188187
_symmetry_Int_Tables_number   1
_chemical_formula_structural   TiV3O8
_chemical_formula_sum   'Ti2 V6 O16'
_cell_volume   291.12278060
_cell_formula_units_Z   2
loop_
 _symmetry_equiv_pos_site_id
 _symmetry_equiv_pos_as_xyz
  1  'x, y, z'
loop_
 _atom_site_type_symbol
 _atom_site_label
 _atom_site_symmetry_multiplicity
 _atom_site_fract_x
 _atom_site_fract_y
 _atom_site_fract_z
 _atom_site_occupancy
  Ti  Ti0  1  0.69133800  0.64121000  0.74215600  1
  Ti  Ti1  1  0.69138400  0.14120500  0.24145200  1
  V  V0  1  0.35778000  0.65244800  0.14396300  1
  V  V1  1  0.59243700  0.35083200  0.84778900  1
  V  V2  1  0.29709600  0.36216700  0.23656200  1
  V  V3  1  0.44019700  0.15245100  0.64377500  1
  V  V4  1  0.60522600  0.85079100  0.34805100  1
  V  V5  1  0.30183500  0.86231000  0.73674900  1
  O  O0  1  0.14291800  0.85407700  0.42629200  1
  O  O1  1  0.13617800  0.35392800  0.92603900  1
  O  O2  1  0.23933700  0.67311700  0.80425100  1
  O  O3  1  0.23791800  0.17300400  0.30437100  1
  O  O4  1  0.36478300  0.99662200  0.73810400  1
  O  O5  1  0.37065200  0.49654100  0.23743500  1
  O  O6  1  0.44584100  0.81302900  0.07599500  1
  O  O7  1  0.44304200  0.31303900  0.57589800  1
  O  O8  1  0.56568500  0.68191600  0.43329800  1
  O  O9  1  0.54989700  0.18195900  0.93303900  1
  O  O10  1  0.63477300  0.50148900  0.77256900  1
  O  O11  1  0.63752500  0.00145500  0.27242600  1
  O  O12  1  0.76038500  0.82528500  0.69100400  1
  O  O13  1  0.75551800  0.32513800  0.19094800  1
  O  O14  1  0.86968400  0.64804500  0.08900200  1
  O  O15  1  0.86856800  0.14794200  0.58883700  1
loop_
_geom_bond_atom_site_label_1
_geom_bond_atom_site_label_2
_geom_bond_distance
_geom_bond_site_symmetry_2
O0 V5 1.931808 1_555
O0 V4 1.946348 1_455
O0 V4 1.969250 1_555
O1 V2 1.932237 1_556
O1 V1 1.946572 1_555
O1 V1 1.968732 1_455
O2 Ti0 1.986736 1_555
O2 Ti0 1.993395 1_455
O2 V0 2.062550 1_556
O2 V5 2.362658 1_555
O3 Ti1 1.987657 1_455
O3 Ti1 1.994160 1_555
O3 V3 2.061188 1_555
O3 V2 2.362258 1_555
O4 V5 1.708877 1_555
O4 V3 1.964364 1_565
O5 V2 1.709131 1_555
O5 V0 1.964659 1_555
O6 V4 1.825055 1_555
O6 V0 2.011655 1_555
O6 V5 2.063428 1_554
O7 V1 1.824300 1_555
O7 V3 2.012365 1_555
O7 V2 2.063732 1_555
O8 Ti0 1.873548 1_555
O8 V0 1.894706 1_555
O8 V4 2.112314 1_555
O9 Ti1 1.870905 1_556
O9 V3 1.895061 1_555
O9 V1 2.112272 1_555
O10 Ti0 1.750672 1_555
O10 V1 1.884208 1_555
O11 Ti1 1.750746 1_555
O11 V4 1.884468 1_545
O12 V5 1.985483 1_655
O12 V5 1.985539 1_555
O12 V4 2.073457 1_555
O12 Ti0 2.301782 1_555
O13 V2 1.984709 1_555
O13 V2 1.986040 1_655
O13 V1 2.074642 1_554
O13 Ti1 2.300215 1_555
O14 V0 1.772974 1_655
O14 V0 2.083161 1_555
O14 Ti0 2.151264 1_554
O15 V3 1.772126 1_555
O15 V3 2.084131 1_655
O15 Ti1 2.154290 1_555
