# generated using pymatgen
data_La23Cd4Ni7
_symmetry_space_group_name_H-M   'P 1'
_cell_length_a   10.09568193
_cell_length_b   10.09568193
_cell_length_c   22.91171500
_cell_angle_alpha   90.00000000
_cell_angle_beta   90.00000000
_cell_angle_gamma   119.99999954
_symmetry_Int_Tables_number   1
_chemical_formula_structural   La23Cd4Ni7
_chemical_formula_sum   'La46 Cd8 Ni14'
_cell_volume   2022.36504873
_cell_formula_units_Z   2
loop_
 _symmetry_equiv_pos_site_id
 _symmetry_equiv_pos_as_xyz
  1  'x, y, z'
loop_
 _atom_site_type_symbol
 _atom_site_label
 _atom_site_symmetry_multiplicity
 _atom_site_fract_x
 _atom_site_fract_y
 _atom_site_fract_z
 _atom_site_occupancy
  La  La0  1  0.20605100  0.41210100  0.71944100  1
  La  La1  1  0.20605100  0.79394900  0.71944100  1
  La  La2  1  0.79394900  0.58789900  0.21944100  1
  La  La3  1  0.58789900  0.79394900  0.71944100  1
  La  La4  1  0.79394900  0.20605100  0.21944100  1
  La  La5  1  0.41210100  0.20605100  0.21944100  1
  La  La6  1  0.79354800  0.58709700  0.94752000  1
  La  La7  1  0.79354800  0.20645200  0.94752000  1
  La  La8  1  0.20645200  0.41290300  0.44752000  1
  La  La9  1  0.41290300  0.20645200  0.94752000  1
  La  La10  1  0.20645200  0.79354800  0.44752000  1
  La  La11  1  0.58709700  0.79354800  0.44752000  1
  La  La12  1  0.21129600  0.42259200  0.99131500  1
  La  La13  1  0.21129600  0.78870400  0.99131500  1
  La  La14  1  0.78870400  0.57740800  0.49131500  1
  La  La15  1  0.57740800  0.78870400  0.99131500  1
  La  La16  1  0.78870400  0.21129600  0.49131500  1
  La  La17  1  0.42259200  0.21129600  0.49131500  1
  La  La18  1  0.87182400  0.74364800  0.63372300  1
  La  La19  1  0.87182400  0.12817600  0.63372300  1
  La  La20  1  0.12817600  0.25635200  0.13372300  1
  La  La21  1  0.25635200  0.12817600  0.63372300  1
  La  La22  1  0.12817600  0.87182400  0.13372300  1
  La  La23  1  0.74364800  0.87182400  0.13372300  1
  La  La24  1  0.45821300  0.91642500  0.85577500  1
  La  La25  1  0.45821300  0.54178700  0.85577500  1
  La  La26  1  0.54178700  0.08357500  0.35577500  1
  La  La27  1  0.08357500  0.54178700  0.85577500  1
  La  La28  1  0.54178700  0.45821300  0.35577500  1
  La  La29  1  0.91642500  0.45821300  0.35577500  1
  La  La30  1  0.00000000  0.00000000  0.99923100  1
  La  La31  1  0.00000000  0.00000000  0.49923100  1
  La  La32  1  0.46047500  0.92094900  0.58565000  1
  La  La33  1  0.46047500  0.53952500  0.58565000  1
  La  La34  1  0.53952500  0.07905100  0.08565000  1
  La  La35  1  0.07905100  0.53952500  0.58565000  1
  La  La36  1  0.53952500  0.46047500  0.08565000  1
  La  La37  1  0.92094900  0.46047500  0.08565000  1
  La  La38  1  0.79601700  0.59203400  0.78227900  1
  La  La39  1  0.79601700  0.20398300  0.78227900  1
  La  La40  1  0.20398300  0.40796600  0.28227900  1
  La  La41  1  0.40796600  0.20398300  0.78227900  1
  La  La42  1  0.20398300  0.79601700  0.28227900  1
  La  La43  1  0.59203400  0.79601700  0.28227900  1
  La  La44  1  0.66666700  0.33333300  0.64534800  1
  La  La45  1  0.33333300  0.66666700  0.14534800  1
  Cd  Cd0  1  0.00000000  0.00000000  0.74928100  1
  Cd  Cd1  1  0.00000000  0.00000000  0.24928100  1
  Cd  Cd2  1  0.10597700  0.21195400  0.86285300  1
  Cd  Cd3  1  0.10597700  0.89402300  0.86285300  1
  Cd  Cd4  1  0.89402300  0.78804600  0.36285300  1
  Cd  Cd5  1  0.78804600  0.89402300  0.86285300  1
  Cd  Cd6  1  0.89402300  0.10597700  0.36285300  1
  Cd  Cd7  1  0.21195400  0.10597700  0.36285300  1
  Ni  Ni0  1  0.52046200  0.04092300  0.71026700  1
  Ni  Ni1  1  0.52046200  0.47953800  0.71026700  1
  Ni  Ni2  1  0.47953800  0.95907700  0.21026700  1
  Ni  Ni3  1  0.95907700  0.47953800  0.71026700  1
  Ni  Ni4  1  0.47953800  0.52046200  0.21026700  1
  Ni  Ni5  1  0.04092300  0.52046200  0.21026700  1
  Ni  Ni6  1  0.66666700  0.33333300  0.86437900  1
  Ni  Ni7  1  0.33333300  0.66666700  0.36437900  1
  Ni  Ni8  1  0.14319700  0.28639300  0.56400400  1
  Ni  Ni9  1  0.14319700  0.85680300  0.56400400  1
  Ni  Ni10  1  0.85680300  0.71360700  0.06400400  1
  Ni  Ni11  1  0.71360700  0.85680300  0.56400400  1
  Ni  Ni12  1  0.85680300  0.14319700  0.06400400  1
  Ni  Ni13  1  0.28639300  0.14319700  0.06400400  1
loop_
_geom_bond_atom_site_label_1
_geom_bond_atom_site_label_2
_geom_bond_distance
_geom_bond_site_symmetry_2
La0 Ni3 2.902093 1_455
La0 Ni1 2.902093 1_555
La1 Ni3 2.902093 1_455
La1 Ni0 2.902093 1_565
La2 Ni5 2.902093 1_655
La2 Ni4 2.902093 1_555
La3 Ni0 2.902093 1_565
La3 Ni1 2.902093 1_555
La4 Ni2 2.902093 1_545
La4 Ni5 2.902093 1_655
La5 Ni2 2.902093 1_545
La5 Ni4 2.902093 1_555
La6 Ni10 2.888977 1_556
La6 Ni6 2.924249 1_555
La7 Ni12 2.888977 1_556
La7 Ni6 2.924236 1_555
La8 Ni8 2.888977 1_555
La8 Ni7 2.924249 1_555
La9 Ni13 2.888977 1_556
La9 Ni6 2.924249 1_555
La10 Ni9 2.888977 1_555
La10 Ni7 2.924236 1_555
La11 Ni11 2.888977 1_555
La11 Ni7 2.924249 1_555
La12 Ni13 3.666500 1_556
La12 Ni12 3.666506 1_456
La13 Ni13 3.666509 1_566
La13 Ni10 3.666509 1_456
La14 Ni11 3.666500 1_555
La14 Ni9 3.666506 1_655
La15 Ni10 3.666500 1_556
La15 Ni12 3.666506 1_566
La16 Ni11 3.666509 1_545
La16 Ni8 3.666509 1_655
La17 Ni8 3.666500 1_555
La17 Ni9 3.666506 1_545
La18 Ni11 2.869282 1_555
La18 Ni9 2.869289 1_655
La18 Ni1 3.648265 1_555
La18 Ni3 3.648271 1_555
La19 Ni8 2.869288 1_655
La19 Ni11 2.869288 1_545
La19 Ni3 3.648262 1_555
La19 Ni0 3.648262 1_555
La20 Ni13 2.869282 1_555
La20 Ni12 2.869289 1_455
La20 Ni4 3.648265 1_555
La20 Ni5 3.648271 1_555
La21 Ni8 2.869282 1_555
La21 Ni9 2.869289 1_545
La21 Ni1 3.648265 1_555
La21 Ni0 3.648271 1_555
La22 Ni13 2.869288 1_565
La22 Ni10 2.869288 1_455
La22 Ni2 3.648262 1_555
La22 Ni5 3.648262 1_555
La23 Ni10 2.869282 1_555
La23 Ni12 2.869289 1_565
La23 Ni4 3.648265 1_555
La23 Ni2 3.648271 1_555
La24 Ni0 3.507037 1_565
La24 Ni6 3.650402 1_565
La25 Ni1 3.507037 1_555
La25 Ni6 3.650402 1_555
La26 Ni2 3.507037 1_545
La26 Ni7 3.650402 1_545
La27 Ni3 3.507037 1_455
La27 Ni6 3.650402 1_455
La28 Ni4 3.507037 1_555
La28 Ni7 3.650402 1_555
La29 Ni5 3.507037 1_655
La29 Ni7 3.650402 1_655
La30 Ni13 2.910720 1_556
La30 Ni10 2.910720 1_446
La30 Ni12 2.910727 1_456
La31 Ni8 2.910720 1_555
La31 Ni11 2.910720 1_445
La31 Ni9 2.910727 1_545
La32 Ni11 2.975079 1_555
La32 Ni9 2.975079 1_555
La32 Ni0 3.041775 1_565
La33 Ni11 2.975079 1_555
La33 Ni8 2.975079 1_555
La33 Ni1 3.041775 1_555
La34 Ni13 2.975079 1_555
La34 Ni12 2.975079 1_555
La34 Ni2 3.041775 1_545
La35 Ni8 2.975079 1_555
La35 Ni9 2.975079 1_555
La35 Ni3 3.041775 1_455
La36 Ni10 2.975079 1_555
La36 Ni13 2.975079 1_555
La36 Ni4 3.041775 1_555
La37 Ni10 2.975079 1_555
La37 Ni12 2.975079 1_555
La37 Ni5 3.041775 1_655
La38 Ni1 2.931154 1_555
La38 Ni3 2.931162 1_555
La38 Ni6 2.941825 1_555
La39 Ni0 2.931155 1_555
La39 Ni3 2.931155 1_555
La39 Ni6 2.941818 1_555
La40 Ni4 2.931154 1_555
La40 Ni5 2.931162 1_555
La40 Ni7 2.941825 1_555
La41 Ni1 2.931154 1_555
La41 Ni0 2.931162 1_555
La41 Ni6 2.941825 1_555
La42 Ni5 2.931155 1_555
La42 Ni2 2.931155 1_555
La42 Ni7 2.941818 1_555
La43 Ni4 2.931154 1_555
La43 Ni2 2.931162 1_555
La43 Ni7 2.941825 1_555
La44 Ni1 2.957778 1_555
La44 Ni3 2.957778 1_555
La44 Ni0 2.957778 1_555
La45 Ni4 2.957778 1_555
La45 Ni2 2.957778 1_555
La45 Ni5 2.957778 1_555
Cd0 Cd3 3.194558 1_545
Cd0 Cd5 3.194558 1_445
Cd0 Cd2 3.194558 1_555
Cd0 La19 3.468926 1_455
Cd0 La21 3.468926 1_555
Cd0 La18 3.468926 1_445
Cd0 La39 3.646140 1_455
Cd0 La41 3.646140 1_555
Cd0 La38 3.646140 1_445
Cd0 La0 3.667339 1_555
Cd0 La3 3.667339 1_445
Cd0 La1 3.667348 1_545
Cd1 Cd6 3.194558 1_455
Cd1 Cd4 3.194558 1_445
Cd1 Cd7 3.194558 1_555
Cd1 La22 3.468926 1_545
Cd1 La20 3.468926 1_555
Cd1 La23 3.468926 1_445
Cd1 La42 3.646140 1_545
Cd1 La40 3.646140 1_555
Cd1 La43 3.646140 1_445
Cd1 La5 3.667339 1_555
Cd1 La2 3.667339 1_445
Cd1 La4 3.667348 1_455
Cd2 Cd3 3.209730 1_545
Cd2 Cd5 3.209730 1_445
Cd2 La27 3.452348 1_555
Cd2 La25 3.452354 1_555
Cd2 La12 3.471964 1_555
Cd2 La41 3.599299 1_555
Cd2 La39 3.599299 1_455
Cd2 La30 3.632848 1_555
Cd2 La9 3.679643 1_555
Cd2 La7 3.679652 1_455
Cd2 La0 3.722736 1_555
Cd3 Cd5 3.209730 1_455
Cd3 La24 3.452358 1_555
Cd3 La27 3.452358 1_555
Cd3 La13 3.471964 1_555
Cd3 La41 3.599299 1_565
Cd3 La38 3.599299 1_455
Cd3 La30 3.632848 1_565
Cd3 La6 3.679648 1_455
Cd3 La9 3.679648 1_565
Cd3 La1 3.722740 1_555
Cd4 Cd6 3.209730 1_565
Cd4 Cd7 3.209730 1_665
Cd4 La29 3.452348 1_555
Cd4 La28 3.452354 1_555
Cd4 La14 3.471964 1_555
Cd4 La43 3.599299 1_555
Cd4 La42 3.599299 1_655
Cd4 La31 3.632848 1_665
Cd4 La11 3.679643 1_555
Cd4 La10 3.679652 1_655
Cd4 La2 3.722736 1_555
Cd5 La24 3.452348 1_555
Cd5 La25 3.452354 1_555
Cd5 La15 3.471964 1_555
Cd5 La38 3.599299 1_555
Cd5 La39 3.599299 1_565
Cd5 La30 3.632848 1_665
Cd5 La6 3.679643 1_555
Cd5 La7 3.679652 1_565
Cd5 La3 3.722736 1_555
Cd6 Cd7 3.209730 1_655
Cd6 La26 3.452358 1_555
Cd6 La29 3.452358 1_555
Cd6 La16 3.471964 1_555
Cd6 La40 3.599299 1_655
Cd6 La43 3.599299 1_545
Cd6 La31 3.632848 1_655
Cd6 La11 3.679648 1_545
Cd6 La8 3.679648 1_655
Cd6 La4 3.722740 1_555
Cd7 La26 3.452348 1_555
Cd7 La28 3.452354 1_555
Cd7 La17 3.471964 1_555
Cd7 La40 3.599299 1_555
Cd7 La42 3.599299 1_545
Cd7 La31 3.632848 1_555
Cd7 La8 3.679643 1_555
Cd7 La10 3.679652 1_545
Cd7 La5 3.722736 1_555
