# generated using pymatgen
data_TeC2S2(N2Cl)2
_symmetry_space_group_name_H-M   'P 1'
_cell_length_a   9.18042002
_cell_length_b   9.18042002
_cell_length_c   10.13582066
_cell_angle_alpha   60.42454746
_cell_angle_beta   60.42454746
_cell_angle_gamma   50.46077864
_symmetry_Int_Tables_number   1
_chemical_formula_structural   TeC2S2(N2Cl)2
_chemical_formula_sum   'Te2 C4 S4 N8 Cl4'
_cell_volume   552.08441351
_cell_formula_units_Z   2
loop_
 _symmetry_equiv_pos_site_id
 _symmetry_equiv_pos_as_xyz
  1  'x, y, z'
loop_
 _atom_site_type_symbol
 _atom_site_label
 _atom_site_symmetry_multiplicity
 _atom_site_fract_x
 _atom_site_fract_y
 _atom_site_fract_z
 _atom_site_occupancy
  Te  Te0  1  0.10699200  0.89300800  0.75000000  1
  Te  Te1  1  0.89300800  0.10699200  0.25000000  1
  C  C0  1  0.21652900  0.49124100  0.08469500  1
  C  C1  1  0.50875900  0.78347100  0.41530500  1
  C  C2  1  0.78347100  0.50875900  0.91530500  1
  C  C3  1  0.49124100  0.21652900  0.58469500  1
  S  S0  1  0.27988200  0.50575200  0.87551000  1
  S  S1  1  0.49424800  0.72011800  0.62449000  1
  S  S2  1  0.72011800  0.49424800  0.12449000  1
  S  S3  1  0.50575200  0.27988200  0.37551000  1
  N  N0  1  0.21065200  0.33637000  0.18567100  1
  N  N1  1  0.66363000  0.78934800  0.31432900  1
  N  N2  1  0.78934800  0.66363000  0.81432900  1
  N  N3  1  0.33637000  0.21065200  0.68567100  1
  N  N4  1  0.19680300  0.63954100  0.09680900  1
  N  N5  1  0.36045900  0.80319700  0.40319100  1
  N  N6  1  0.80319700  0.36045900  0.90319100  1
  N  N7  1  0.63954100  0.19680300  0.59680900  1
  Cl  Cl0  1  0.78109900  0.97193900  0.93857900  1
  Cl  Cl1  1  0.02806100  0.21890100  0.56142100  1
  Cl  Cl2  1  0.21890100  0.02806100  0.06142100  1
  Cl  Cl3  1  0.97193900  0.78109900  0.43857900  1
loop_
_geom_bond_atom_site_label_1
_geom_bond_atom_site_label_2
_geom_bond_distance
_geom_bond_site_symmetry_2
C0 N0 1.295604 1_555
C0 N4 1.315519 1_555
C0 S0 1.858508 1_554
C1 N1 1.295604 1_555
C1 N5 1.315519 1_555
C1 S1 1.858508 1_555
C2 N2 1.295604 1_555
C2 N6 1.315519 1_555
C2 S2 1.858508 1_556
C3 N3 1.295604 1_555
C3 N7 1.315519 1_555
C3 S3 1.858508 1_555
S0 Te0 2.668523 1_555
S1 Te0 2.668523 1_555
S2 Te1 2.668523 1_555
S3 Te1 2.668523 1_555
Cl0 Te0 2.468103 1_655
Cl1 Te0 2.468103 1_545
Cl2 Te1 2.468103 1_455
Cl3 Te1 2.468103 1_565
