# generated using pymatgen
data_SrMg6Cr
_symmetry_space_group_name_H-M   'P 1'
_cell_length_a   5.20308100
_cell_length_b   6.68244900
_cell_length_c   11.63386900
_cell_angle_alpha   90.00000000
_cell_angle_beta   90.00000000
_cell_angle_gamma   90.00000000
_symmetry_Int_Tables_number   1
_chemical_formula_structural   SrMg6Cr
_chemical_formula_sum   'Sr2 Mg12 Cr2'
_cell_volume   404.50175395
_cell_formula_units_Z   2
loop_
 _symmetry_equiv_pos_site_id
 _symmetry_equiv_pos_as_xyz
  1  'x, y, z'
loop_
 _atom_site_type_symbol
 _atom_site_label
 _atom_site_symmetry_multiplicity
 _atom_site_fract_x
 _atom_site_fract_y
 _atom_site_fract_z
 _atom_site_occupancy
  Sr  Sr0  1  0.00000000  0.50000000  0.32906200  1
  Sr  Sr1  1  0.00000000  0.00000000  0.82906200  1
  Mg  Mg0  1  0.00000000  0.26154400  0.08167100  1
  Mg  Mg1  1  0.00000000  0.73845600  0.08167100  1
  Mg  Mg2  1  0.00000000  0.00000000  0.33792500  1
  Mg  Mg3  1  0.50000000  0.76547600  0.42515500  1
  Mg  Mg4  1  0.50000000  0.23452400  0.42515500  1
  Mg  Mg5  1  0.50000000  0.00000000  0.16692800  1
  Mg  Mg6  1  0.00000000  0.76154400  0.58167100  1
  Mg  Mg7  1  0.00000000  0.23845600  0.58167100  1
  Mg  Mg8  1  0.00000000  0.50000000  0.83792500  1
  Mg  Mg9  1  0.50000000  0.26547600  0.92515500  1
  Mg  Mg10  1  0.50000000  0.73452400  0.92515500  1
  Mg  Mg11  1  0.50000000  0.50000000  0.66692800  1
  Cr  Cr0  1  0.50000000  0.50000000  0.15243300  1
  Cr  Cr1  1  0.50000000  0.00000000  0.65243300  1
loop_
_geom_bond_atom_site_label_1
_geom_bond_atom_site_label_2
_geom_bond_distance
_geom_bond_site_symmetry_2
Mg0 Mg9 3.175584 1_554
Mg0 Mg9 3.175584 1_454
Mg0 Mg1 3.186940 1_555
Mg0 Mg8 3.252752 1_554
Mg0 Mg5 3.287318 1_455
Mg0 Mg5 3.287318 1_555
Mg0 Sr0 3.289786 1_555
Mg0 Sr1 3.419256 1_554
Mg0 Mg2 3.455771 1_555
Mg0 Mg1 3.495509 1_545
Mg1 Mg10 3.175584 1_554
Mg1 Mg10 3.175584 1_454
Mg1 Mg8 3.252752 1_554
Mg1 Mg5 3.287318 1_565
Mg1 Mg5 3.287318 1_465
Mg1 Sr0 3.289786 1_555
Mg1 Sr1 3.419256 1_564
Mg1 Mg2 3.455771 1_565
Mg2 Mg4 3.202183 1_455
Mg2 Mg4 3.202183 1_555
Mg2 Mg3 3.202183 1_445
Mg2 Mg3 3.202183 1_545
Mg2 Mg7 3.252752 1_555
Mg2 Mg6 3.252752 1_545
Mg2 Mg5 3.274989 1_455
Mg2 Mg5 3.274989 1_555
Mg2 Sr0 3.342815 1_545
Mg2 Sr0 3.342815 1_555
Mg3 Mg4 3.134389 1_565
Mg3 Mg6 3.175584 1_555
Mg3 Mg6 3.175584 1_655
Mg3 Sr0 3.341402 1_555
Mg3 Sr0 3.341402 1_655
Mg3 Mg5 3.388391 1_565
Mg4 Mg7 3.175584 1_555
Mg4 Mg7 3.175584 1_655
Mg4 Sr0 3.341402 1_555
Mg4 Sr0 3.341402 1_655
Mg4 Mg5 3.388391 1_555
Mg5 Mg9 3.325474 1_554
Mg6 Mg7 3.186940 1_565
Mg6 Sr1 3.289786 1_565
Mg6 Sr0 3.419256 1_555
Mg6 Mg8 3.455771 1_555
Mg6 Mg7 3.495509 1_555
Mg7 Sr1 3.289786 1_555
Mg7 Sr0 3.419256 1_555
Mg7 Mg8 3.455771 1_555
Mg8 Mg9 3.202183 1_455
Mg8 Mg9 3.202183 1_555
Mg8 Sr1 3.342815 1_565
Mg8 Sr1 3.342815 1_555
Mg9 Sr1 3.341402 1_555
Mg9 Sr1 3.341402 1_655
Mg10 Mg9 3.134389 1_555
Mg10 Mg8 3.202183 1_655
Mg10 Mg8 3.202183 1_555
Mg10 Mg5 3.325474 1_566
Mg10 Sr1 3.341402 1_565
Mg10 Sr1 3.341402 1_665
Mg10 Mg11 3.388391 1_555
Mg11 Mg8 3.274989 1_555
Mg11 Mg8 3.274989 1_655
Mg11 Mg7 3.287318 1_555
Mg11 Mg6 3.287318 1_655
Mg11 Mg7 3.287318 1_655
Mg11 Mg6 3.287318 1_555
Mg11 Mg3 3.325474 1_555
Mg11 Mg4 3.325474 1_555
Mg11 Mg9 3.388391 1_555
Cr0 Mg10 3.073676 1_554
Cr0 Mg9 3.073676 1_554
Cr0 Mg0 3.159886 1_655
Cr0 Mg1 3.159886 1_555
Cr0 Mg1 3.159886 1_655
Cr0 Mg0 3.159886 1_555
Cr0 Sr0 3.315198 1_655
Cr0 Sr0 3.315198 1_555
Cr0 Mg5 3.345477 1_565
Cr0 Mg5 3.345477 1_555
Cr1 Mg4 3.073676 1_555
Cr1 Mg3 3.073676 1_545
Cr1 Mg7 3.159886 1_555
Cr1 Mg7 3.159886 1_655
Cr1 Mg6 3.159886 1_645
Cr1 Mg6 3.159886 1_545
Cr1 Sr1 3.315198 1_555
Cr1 Sr1 3.315198 1_655
Cr1 Mg11 3.345477 1_555
Cr1 Mg11 3.345477 1_545
