# generated using pymatgen
data_NdMnPO
_symmetry_space_group_name_H-M   'P 1'
_cell_length_a   4.10455600
_cell_length_b   4.10455600
_cell_length_c   8.90883700
_cell_angle_alpha   90.00000000
_cell_angle_beta   90.00000000
_cell_angle_gamma   90.00000000
_symmetry_Int_Tables_number   1
_chemical_formula_structural   NdMnPO
_chemical_formula_sum   'Nd2 Mn2 P2 O2'
_cell_volume   150.09056192
_cell_formula_units_Z   2
loop_
 _symmetry_equiv_pos_site_id
 _symmetry_equiv_pos_as_xyz
  1  'x, y, z'
loop_
 _atom_site_type_symbol
 _atom_site_label
 _atom_site_symmetry_multiplicity
 _atom_site_fract_x
 _atom_site_fract_y
 _atom_site_fract_z
 _atom_site_occupancy
  Nd  Nd0  1  0.75000000  0.75000000  0.87024200  1
  Nd  Nd1  1  0.25000100  0.25000100  0.12975800  1
  Mn  Mn0  1  0.25000100  0.75000000  0.50000000  1
  Mn  Mn1  1  0.75000000  0.25000100  0.50000000  1
  P  P0  1  0.75000000  0.75000000  0.32677500  1
  P  P1  1  0.25000100  0.25000100  0.67322500  1
  O  O0  1  0.25000100  0.75000000  0.00000000  1
  O  O1  1  0.75000000  0.25000100  0.00000000  1
loop_
_geom_bond_atom_site_label_1
_geom_bond_atom_site_label_2
_geom_bond_distance
_geom_bond_site_symmetry_2
Nd0 O1 2.355451 1_556
Nd0 O0 2.355451 1_556
Nd0 O1 2.355458 1_566
Nd0 O0 2.355458 1_656
Nd0 P1 3.391807 1_555
Nd0 P1 3.391812 1_565
Nd0 P1 3.391812 1_655
Nd0 P1 3.391817 1_665
Nd1 O1 2.355451 1_555
Nd1 O0 2.355451 1_555
Nd1 O1 2.355458 1_455
Nd1 O0 2.355458 1_545
Nd1 P0 3.391807 1_555
Nd1 P0 3.391812 1_455
Nd1 P0 3.391812 1_545
Nd1 P0 3.391817 1_445
Mn0 P1 2.567761 1_555
Mn0 P0 2.567761 1_555
Mn0 P1 2.567768 1_565
Mn0 P0 2.567768 1_455
Mn1 P1 2.567761 1_555
Mn1 P0 2.567761 1_555
Mn1 P1 2.567768 1_655
Mn1 P0 2.567768 1_545
