# generated using pymatgen
data_Ce3SnO8
_symmetry_space_group_name_H-M   'P 1'
_cell_length_a   3.81441100
_cell_length_b   3.81441100
_cell_length_c   10.82418200
_cell_angle_alpha   90.00000000
_cell_angle_beta   90.00000000
_cell_angle_gamma   90.00000000
_symmetry_Int_Tables_number   1
_chemical_formula_structural   Ce3SnO8
_chemical_formula_sum   'Ce3 Sn1 O8'
_cell_volume   157.48893939
_cell_formula_units_Z   1
loop_
 _symmetry_equiv_pos_site_id
 _symmetry_equiv_pos_as_xyz
  1  'x, y, z'
loop_
 _atom_site_type_symbol
 _atom_site_label
 _atom_site_symmetry_multiplicity
 _atom_site_fract_x
 _atom_site_fract_y
 _atom_site_fract_z
 _atom_site_occupancy
  Ce  Ce0  1  0.50000000  0.50000000  0.75412900  1
  Ce  Ce1  1  0.00000000  0.00000000  0.50000000  1
  Ce  Ce2  1  0.50000000  0.50000000  0.24587100  1
  Sn  Sn0  1  0.00000000  0.00000000  0.00000000  1
  O  O0  1  0.50000000  0.00000000  0.37256100  1
  O  O1  1  0.00000000  0.50000000  0.11679600  1
  O  O2  1  0.50000000  0.00000000  0.88320400  1
  O  O3  1  0.00000000  0.50000000  0.62743900  1
  O  O4  1  0.50000000  0.00000000  0.11679600  1
  O  O5  1  0.00000000  0.50000000  0.88320400  1
  O  O6  1  0.50000000  0.00000000  0.62743900  1
  O  O7  1  0.00000000  0.50000000  0.37256100  1
loop_
_geom_bond_atom_site_label_1
_geom_bond_atom_site_label_2
_geom_bond_distance
_geom_bond_site_symmetry_2
Ce0 O3 2.349029 1_655
Ce0 O6 2.349029 1_565
Ce0 O3 2.349029 1_555
Ce0 O6 2.349029 1_555
Ce0 O5 2.364193 1_655
Ce0 O2 2.364193 1_555
Ce0 O2 2.364193 1_565
Ce0 O5 2.364193 1_555
Ce1 O6 2.353772 1_555
Ce1 O3 2.353772 1_545
Ce1 O6 2.353772 1_455
Ce1 O3 2.353772 1_555
Ce1 O0 2.353772 1_455
Ce1 O7 2.353772 1_545
Ce1 O0 2.353772 1_555
Ce1 O7 2.353772 1_555
Ce2 O0 2.349029 1_555
Ce2 O7 2.349029 1_555
Ce2 O7 2.349029 1_655
Ce2 O0 2.349029 1_565
Ce2 O1 2.364193 1_655
Ce2 O4 2.364193 1_565
Ce2 O1 2.364193 1_555
Ce2 O4 2.364193 1_555
O1 Sn0 2.288163 1_565
O1 Sn0 2.288163 1_555
O2 Sn0 2.288163 1_556
O2 Sn0 2.288163 1_656
O4 Sn0 2.288163 1_655
O4 Sn0 2.288163 1_555
O5 Sn0 2.288163 1_566
O5 Sn0 2.288163 1_556
