# generated using pymatgen
data_U2Tc
_symmetry_space_group_name_H-M   'P 1'
_cell_length_a   6.09511200
_cell_length_b   9.82868729
_cell_length_c   15.39571896
_cell_angle_alpha   89.92528532
_cell_angle_beta   101.41700528
_cell_angle_gamma   90.00000000
_symmetry_Int_Tables_number   1
_chemical_formula_structural   U2Tc
_chemical_formula_sum   'U32 Tc16'
_cell_volume   904.05951327
_cell_formula_units_Z   16
loop_
 _symmetry_equiv_pos_site_id
 _symmetry_equiv_pos_as_xyz
  1  'x, y, z'
loop_
 _atom_site_type_symbol
 _atom_site_label
 _atom_site_symmetry_multiplicity
 _atom_site_fract_x
 _atom_site_fract_y
 _atom_site_fract_z
 _atom_site_occupancy
  U  U0_0  1  0.08432300  0.25010900  0.16864600  1
  U  U0_1  1  0.08432300  0.25010900  0.66864600  1
  U  U0_2  1  0.08432300  0.75010900  0.16864600  1
  U  U0_3  1  0.08432300  0.75010900  0.66864600  1
  U  U0_4  1  0.58432300  0.25010900  0.16864600  1
  U  U0_5  1  0.58432300  0.25010900  0.66864600  1
  U  U0_6  1  0.58432300  0.75010900  0.16864600  1
  U  U0_7  1  0.58432300  0.75010900  0.66864600  1
  U  U1_0  1  0.41567700  0.24989100  0.33135400  1
  U  U1_1  1  0.41567700  0.24989100  0.83135400  1
  U  U1_2  1  0.41567700  0.74989100  0.33135400  1
  U  U1_3  1  0.41567700  0.74989100  0.83135400  1
  U  U1_4  1  0.91567700  0.24989100  0.33135400  1
  U  U1_5  1  0.91567700  0.24989100  0.83135400  1
  U  U1_6  1  0.91567700  0.74989100  0.33135400  1
  U  U1_7  1  0.91567700  0.74989100  0.83135400  1
  U  U2_0  1  0.25000000  0.25000000  0.00000000  1
  U  U2_1  1  0.25000000  0.25000000  0.50000000  1
  U  U2_2  1  0.25000000  0.75000000  0.00000000  1
  U  U2_3  1  0.25000000  0.75000000  0.50000000  1
  U  U2_4  1  0.75000000  0.25000000  0.00000000  1
  U  U2_5  1  0.75000000  0.25000000  0.50000000  1
  U  U2_6  1  0.75000000  0.75000000  0.00000000  1
  U  U2_7  1  0.75000000  0.75000000  0.50000000  1
  U  U3_0  1  0.00000000  0.00000000  0.00000000  1
  U  U3_1  1  0.00000000  0.00000000  0.50000000  1
  U  U3_2  1  0.00000000  0.50000000  0.00000000  1
  U  U3_3  1  0.00000000  0.50000000  0.50000000  1
  U  U3_4  1  0.50000000  0.00000000  0.00000000  1
  U  U3_5  1  0.50000000  0.00000000  0.50000000  1
  U  U3_6  1  0.50000000  0.50000000  0.00000000  1
  U  U3_7  1  0.50000000  0.50000000  0.50000000  1
  Tc  Tc0_0  1  0.16221000  0.49982950  0.32442050  1
  Tc  Tc0_1  1  0.16221000  0.49982950  0.82442050  1
  Tc  Tc0_2  1  0.16221000  0.99982950  0.32442050  1
  Tc  Tc0_3  1  0.16221000  0.99982950  0.82442050  1
  Tc  Tc0_4  1  0.66221000  0.49982950  0.32442050  1
  Tc  Tc0_5  1  0.66221000  0.49982950  0.82442050  1
  Tc  Tc0_6  1  0.66221000  0.99982950  0.32442050  1
  Tc  Tc0_7  1  0.66221000  0.99982950  0.82442050  1
  Tc  Tc1_0  1  0.33779000  0.00017050  0.17557950  1
  Tc  Tc1_1  1  0.33779000  0.00017050  0.67557950  1
  Tc  Tc1_2  1  0.33779000  0.50017050  0.17557950  1
  Tc  Tc1_3  1  0.33779000  0.50017050  0.67557950  1
  Tc  Tc1_4  1  0.83779000  0.00017050  0.17557950  1
  Tc  Tc1_5  1  0.83779000  0.00017050  0.67557950  1
  Tc  Tc1_6  1  0.83779000  0.50017050  0.17557950  1
  Tc  Tc1_7  1  0.83779000  0.50017050  0.67557950  1
loop_
_geom_bond_atom_site_label_1
_geom_bond_atom_site_label_2
_geom_bond_distance
_geom_bond_site_symmetry_2
U0_0 U2_4 2.966342 1_455
U0_0 U2_0 2.966342 1_555
U0_1 U2_1 2.966342 1_555
U0_1 U2_5 2.966342 1_455
U0_2 U2_6 2.966342 1_455
U0_2 U2_2 2.966342 1_555
U0_3 U2_3 2.966342 1_555
U0_3 U2_7 2.966342 1_455
U0_4 U2_4 2.966342 1_555
U0_4 U2_0 2.966342 1_555
U0_5 U2_1 2.966342 1_555
U0_5 U2_5 2.966342 1_555
U0_6 U2_2 2.966342 1_555
U0_6 U2_6 2.966342 1_555
U0_7 U2_3 2.966342 1_555
U0_7 U2_7 2.966342 1_555
U1_0 U2_1 2.966342 1_555
U1_0 U2_5 2.966342 1_555
U1_1 U2_0 2.966342 1_556
U1_1 U2_4 2.966342 1_556
U1_2 U2_7 2.966342 1_555
U1_2 U2_3 2.966342 1_555
U1_3 U2_2 2.966342 1_556
U1_3 U2_6 2.966342 1_556
U1_4 U2_5 2.966342 1_555
U1_4 U2_1 2.966342 1_655
U1_5 U2_4 2.966342 1_556
U1_5 U2_0 2.966342 1_656
U1_6 U2_3 2.966342 1_655
U1_6 U2_7 2.966342 1_555
U1_7 U2_6 2.966342 1_556
U1_7 U2_2 2.966342 1_656
U2_0 U3_6 2.891296 1_555
U2_0 U3_4 2.891296 1_555
U2_0 U3_2 2.891296 1_555
U2_0 U3_0 2.891296 1_555
U2_0 U2_4 3.047556 1_455
U2_0 U2_4 3.047556 1_555
U2_1 U3_5 2.891296 1_555
U2_1 U3_7 2.891296 1_555
U2_1 U3_1 2.891296 1_555
U2_1 U3_3 2.891296 1_555
U2_1 U2_5 3.047556 1_455
U2_1 U2_5 3.047556 1_555
U2_2 U3_6 2.891296 1_555
U2_2 U3_2 2.891296 1_555
U2_2 U3_0 2.891296 1_565
U2_2 U3_4 2.891296 1_565
U2_2 U2_6 3.047556 1_555
U2_2 U2_6 3.047556 1_455
U2_3 U3_7 2.891296 1_555
U2_3 U3_1 2.891296 1_565
U2_3 U3_5 2.891296 1_565
U2_3 U3_3 2.891296 1_555
U2_3 U2_7 3.047556 1_455
U2_3 U2_7 3.047556 1_555
U2_4 U3_6 2.891296 1_555
U2_4 U3_0 2.891296 1_655
U2_4 U3_4 2.891296 1_555
U2_4 U3_2 2.891296 1_655
U2_5 U3_3 2.891296 1_655
U2_5 U3_5 2.891296 1_555
U2_5 U3_7 2.891296 1_555
U2_5 U3_1 2.891296 1_655
U2_6 U3_6 2.891296 1_555
U2_6 U3_2 2.891296 1_655
U2_6 U3_0 2.891296 1_665
U2_6 U3_4 2.891296 1_565
U2_7 U3_3 2.891296 1_655
U2_7 U3_7 2.891296 1_555
U2_7 U3_1 2.891296 1_665
U2_7 U3_5 2.891296 1_565
U3_0 U3_4 3.047556 1_555
U3_0 U3_4 3.047556 1_455
U3_1 U3_5 3.047556 1_555
U3_1 U3_5 3.047556 1_455
U3_2 U3_6 3.047556 1_455
U3_2 U3_6 3.047556 1_555
U3_3 U3_7 3.047556 1_555
U3_3 U3_7 3.047556 1_455
Tc0_0 Tc1_6 2.714252 1_455
Tc0_0 Tc1_2 2.714256 1_555
Tc0_0 U1_4 2.892556 1_455
Tc0_0 U1_0 2.892558 1_555
Tc0_0 U1_6 2.893820 1_455
Tc0_0 U1_2 2.893821 1_555
Tc0_0 U3_3 3.056588 1_555
Tc0_0 U3_7 3.056590 1_555
Tc0_0 U2_1 3.610121 1_555
Tc0_0 U2_3 3.617194 1_555
Tc0_1 Tc1_7 2.714252 1_455
Tc0_1 Tc1_3 2.714256 1_555
Tc0_1 U1_5 2.892556 1_455
Tc0_1 U1_1 2.892558 1_555
Tc0_1 U1_7 2.893820 1_455
Tc0_1 U1_3 2.893821 1_555
Tc0_1 U3_2 3.056588 1_556
Tc0_1 U3_6 3.056590 1_556
Tc0_1 U2_0 3.610121 1_556
Tc0_1 U2_2 3.617194 1_556
Tc0_2 Tc1_4 2.714252 1_465
Tc0_2 Tc1_0 2.714256 1_565
Tc0_2 U1_6 2.892556 1_455
Tc0_2 U1_2 2.892558 1_555
Tc0_2 U1_4 2.893820 1_465
Tc0_2 U1_0 2.893821 1_565
Tc0_2 U3_1 3.056588 1_565
Tc0_2 U3_5 3.056590 1_565
Tc0_2 U2_3 3.610121 1_555
Tc0_2 U2_1 3.617194 1_565
Tc0_3 Tc1_5 2.714252 1_465
Tc0_3 Tc1_1 2.714256 1_565
Tc0_3 U1_7 2.892556 1_455
Tc0_3 U1_3 2.892558 1_555
Tc0_3 U1_5 2.893820 1_465
Tc0_3 U1_1 2.893821 1_565
Tc0_3 U3_0 3.056588 1_566
Tc0_3 U3_4 3.056590 1_566
Tc0_3 U2_2 3.610121 1_556
Tc0_3 U2_0 3.617194 1_566
Tc0_4 Tc1_2 2.714252 1_555
Tc0_4 Tc1_6 2.714256 1_555
Tc0_4 U1_0 2.892556 1_555
Tc0_4 U1_4 2.892558 1_555
Tc0_4 U1_2 2.893820 1_555
Tc0_4 U1_6 2.893821 1_555
Tc0_4 U3_7 3.056588 1_555
Tc0_4 U3_3 3.056590 1_655
Tc0_4 U2_5 3.610121 1_555
Tc0_4 U2_7 3.617194 1_555
Tc0_5 Tc1_3 2.714252 1_555
Tc0_5 Tc1_7 2.714256 1_555
Tc0_5 U1_1 2.892556 1_555
Tc0_5 U1_5 2.892558 1_555
Tc0_5 U1_3 2.893820 1_555
Tc0_5 U1_7 2.893821 1_555
Tc0_5 U3_6 3.056588 1_556
Tc0_5 U3_2 3.056590 1_656
Tc0_5 U2_4 3.610121 1_556
Tc0_5 U2_6 3.617194 1_556
Tc0_6 Tc1_0 2.714252 1_565
Tc0_6 Tc1_4 2.714256 1_565
Tc0_6 U1_2 2.892556 1_555
Tc0_6 U1_6 2.892558 1_555
Tc0_6 U1_0 2.893820 1_565
Tc0_6 U1_4 2.893821 1_565
Tc0_6 U3_5 3.056588 1_565
Tc0_6 U3_1 3.056590 1_665
Tc0_6 U2_7 3.610121 1_555
Tc0_6 U2_5 3.617194 1_565
Tc0_7 Tc1_1 2.714252 1_565
Tc0_7 Tc1_5 2.714256 1_565
Tc0_7 U1_3 2.892556 1_555
Tc0_7 U1_7 2.892558 1_555
Tc0_7 U1_1 2.893820 1_565
Tc0_7 U1_5 2.893821 1_565
Tc0_7 U3_4 3.056588 1_566
Tc0_7 U3_0 3.056590 1_666
Tc0_7 U2_6 3.610121 1_556
Tc0_7 U2_4 3.617194 1_566
Tc1_0 U0_4 2.892556 1_555
Tc1_0 U0_0 2.892558 1_555
Tc1_0 U0_6 2.893820 1_545
Tc1_0 U0_2 2.893821 1_545
Tc1_0 U3_4 3.056588 1_555
Tc1_0 U3_0 3.056590 1_555
Tc1_0 U2_0 3.610121 1_555
Tc1_0 U2_2 3.617194 1_545
Tc1_1 U0_5 2.892556 1_555
Tc1_1 U0_1 2.892558 1_555
Tc1_1 U0_7 2.893820 1_545
Tc1_1 U0_3 2.893821 1_545
Tc1_1 U3_5 3.056588 1_555
Tc1_1 U3_1 3.056590 1_555
Tc1_1 U2_1 3.610121 1_555
Tc1_1 U2_3 3.617194 1_545
Tc1_2 U0_6 2.892556 1_555
Tc1_2 U0_2 2.892558 1_555
Tc1_2 U0_4 2.893820 1_555
Tc1_2 U0_0 2.893821 1_555
Tc1_2 U3_6 3.056588 1_555
Tc1_2 U3_2 3.056590 1_555
Tc1_2 U2_2 3.610121 1_555
Tc1_2 U2_0 3.617194 1_555
Tc1_3 U0_7 2.892556 1_555
Tc1_3 U0_3 2.892558 1_555
Tc1_3 U0_5 2.893820 1_555
Tc1_3 U0_1 2.893821 1_555
Tc1_3 U3_7 3.056588 1_555
Tc1_3 U3_3 3.056590 1_555
Tc1_3 U2_3 3.610121 1_555
Tc1_3 U2_1 3.617194 1_555
Tc1_4 U0_0 2.892556 1_655
Tc1_4 U0_4 2.892558 1_555
Tc1_4 U0_2 2.893820 1_645
Tc1_4 U0_6 2.893821 1_545
Tc1_4 U3_0 3.056588 1_655
Tc1_4 U3_4 3.056590 1_555
Tc1_4 U2_4 3.610121 1_555
Tc1_4 U2_6 3.617194 1_545
Tc1_5 U0_1 2.892556 1_655
Tc1_5 U0_5 2.892558 1_555
Tc1_5 U0_3 2.893820 1_645
Tc1_5 U0_7 2.893821 1_545
Tc1_5 U3_1 3.056588 1_655
Tc1_5 U3_5 3.056590 1_555
Tc1_5 U2_5 3.610121 1_555
Tc1_5 U2_7 3.617194 1_545
Tc1_6 U0_2 2.892556 1_655
Tc1_6 U0_6 2.892558 1_555
Tc1_6 U0_0 2.893820 1_655
Tc1_6 U0_4 2.893821 1_555
Tc1_6 U3_2 3.056588 1_655
Tc1_6 U3_6 3.056590 1_555
Tc1_6 U2_6 3.610121 1_555
Tc1_6 U2_4 3.617194 1_555
Tc1_7 U0_3 2.892556 1_655
Tc1_7 U0_7 2.892558 1_555
Tc1_7 U0_1 2.893820 1_655
Tc1_7 U0_5 2.893821 1_555
Tc1_7 U3_3 3.056588 1_655
Tc1_7 U3_7 3.056590 1_555
Tc1_7 U2_7 3.610121 1_555
Tc1_7 U2_5 3.617194 1_555
