# generated using pymatgen
data_TiCuSiAs
_symmetry_space_group_name_H-M   'P 1'
_cell_length_a   3.56936400
_cell_length_b   3.56936400
_cell_length_c   9.24284300
_cell_angle_alpha   90.00000000
_cell_angle_beta   90.00000000
_cell_angle_gamma   90.00000000
_symmetry_Int_Tables_number   1
_chemical_formula_structural   TiCuSiAs
_chemical_formula_sum   'Ti2 Cu2 Si2 As2'
_cell_volume   117.75714137
_cell_formula_units_Z   2
loop_
 _symmetry_equiv_pos_site_id
 _symmetry_equiv_pos_as_xyz
  1  'x, y, z'
loop_
 _atom_site_type_symbol
 _atom_site_label
 _atom_site_symmetry_multiplicity
 _atom_site_fract_x
 _atom_site_fract_y
 _atom_site_fract_z
 _atom_site_occupancy
  Ti  Ti0  1  0.00000000  0.50000000  0.78326100  1
  Ti  Ti1  1  0.50000000  0.00000000  0.21673900  1
  Cu  Cu0  1  0.50000000  0.50000000  0.50000000  1
  Cu  Cu1  1  0.00000000  0.00000000  0.50000000  1
  Si  Si0  1  0.50000000  0.50000000  0.00000000  1
  Si  Si1  1  0.00000000  0.00000000  0.00000000  1
  As  As0  1  0.00000000  0.50000000  0.30705500  1
  As  As1  1  0.50000000  0.00000000  0.69294500  1
loop_
_geom_bond_atom_site_label_1
_geom_bond_atom_site_label_2
_geom_bond_distance
_geom_bond_site_symmetry_2
Cu0 Cu1 2.523921 1_565
Cu0 Cu1 2.523921 1_655
Cu0 Cu1 2.523921 1_555
Cu0 Cu1 2.523921 1_665
Cu0 Ti0 3.168553 1_555
Cu0 Ti0 3.168553 1_655
Cu0 Ti1 3.168553 1_555
Cu0 Ti1 3.168553 1_565
Cu1 Ti0 3.168553 1_555
Cu1 Ti0 3.168553 1_545
Cu1 Ti1 3.168553 1_455
Cu1 Ti1 3.168553 1_555
Si0 Si1 2.523921 1_565
Si0 Si1 2.523921 1_665
Si0 Si1 2.523921 1_555
Si0 Si1 2.523921 1_655
Si0 Ti0 2.682953 1_554
Si0 Ti0 2.682953 1_654
Si0 Ti1 2.682953 1_555
Si0 Ti1 2.682953 1_565
Si1 Ti0 2.682953 1_554
Si1 Ti1 2.682953 1_455
Si1 Ti1 2.682953 1_555
Si1 Ti0 2.682953 1_544
As0 Cu1 2.522987 1_565
As0 Cu0 2.522987 1_555
As0 Cu1 2.522987 1_555
As0 Cu0 2.522987 1_455
As0 Ti1 2.658389 1_455
As0 Ti1 2.658389 1_555
As0 Ti1 2.658389 1_565
As0 Ti1 2.658389 1_465
As1 Cu1 2.522987 1_655
As1 Cu1 2.522987 1_555
As1 Cu0 2.522987 1_545
As1 Cu0 2.522987 1_555
As1 Ti0 2.658389 1_655
As1 Ti0 2.658389 1_555
As1 Ti0 2.658389 1_645
As1 Ti0 2.658389 1_545
