# generated using pymatgen
data_NbFeSi2
_symmetry_space_group_name_H-M   'P 1'
_cell_length_a   7.56778100
_cell_length_b   8.69602500
_cell_length_c   9.68397400
_cell_angle_alpha   90.00000000
_cell_angle_beta   90.00000000
_cell_angle_gamma   90.00000000
_symmetry_Int_Tables_number   1
_chemical_formula_structural   NbFeSi2
_chemical_formula_sum   'Nb12 Fe12 Si24'
_cell_volume   637.29857902
_cell_formula_units_Z   12
loop_
 _symmetry_equiv_pos_site_id
 _symmetry_equiv_pos_as_xyz
  1  'x, y, z'
loop_
 _atom_site_type_symbol
 _atom_site_label
 _atom_site_symmetry_multiplicity
 _atom_site_fract_x
 _atom_site_fract_y
 _atom_site_fract_z
 _atom_site_occupancy
  Nb  Nb0  1  0.24363900  0.82830500  0.45149700  1
  Nb  Nb1  1  0.24363900  0.17169500  0.54850300  1
  Nb  Nb2  1  0.75636100  0.32830500  0.04850300  1
  Nb  Nb3  1  0.75636100  0.67169500  0.95149700  1
  Nb  Nb4  1  0.75636100  0.17169500  0.54850300  1
  Nb  Nb5  1  0.75636100  0.82830500  0.45149700  1
  Nb  Nb6  1  0.24363900  0.67169500  0.95149700  1
  Nb  Nb7  1  0.24363900  0.32830500  0.04850300  1
  Nb  Nb8  1  0.00000000  0.83125900  0.18209300  1
  Nb  Nb9  1  0.00000000  0.16874100  0.81790700  1
  Nb  Nb10  1  0.00000000  0.33125900  0.31790700  1
  Nb  Nb11  1  0.00000000  0.66874100  0.68209300  1
  Fe  Fe0  1  0.24950300  0.59021300  0.24581200  1
  Fe  Fe1  1  0.24950300  0.40978700  0.75418800  1
  Fe  Fe2  1  0.75049700  0.09021300  0.25418800  1
  Fe  Fe3  1  0.75049700  0.90978700  0.74581200  1
  Fe  Fe4  1  0.75049700  0.40978700  0.75418800  1
  Fe  Fe5  1  0.75049700  0.59021300  0.24581200  1
  Fe  Fe6  1  0.24950300  0.90978700  0.74581200  1
  Fe  Fe7  1  0.24950300  0.09021300  0.25418800  1
  Fe  Fe8  1  0.24493400  0.50000000  0.50000000  1
  Fe  Fe9  1  0.75506600  0.00000000  0.00000000  1
  Fe  Fe10  1  0.75506600  0.50000000  0.50000000  1
  Fe  Fe11  1  0.24493400  0.00000000  0.00000000  1
  Si  Si0  1  0.34511700  0.83847500  0.18032000  1
  Si  Si1  1  0.34511700  0.16152500  0.81968000  1
  Si  Si2  1  0.65488300  0.33847500  0.31968000  1
  Si  Si3  1  0.65488300  0.66152500  0.68032000  1
  Si  Si4  1  0.65488300  0.16152500  0.81968000  1
  Si  Si5  1  0.65488300  0.83847500  0.18032000  1
  Si  Si6  1  0.34511700  0.66152500  0.68032000  1
  Si  Si7  1  0.34511700  0.33847500  0.31968000  1
  Si  Si8  1  0.50000000  0.54063800  0.12172900  1
  Si  Si9  1  0.50000000  0.45936200  0.87827100  1
  Si  Si10  1  0.50000000  0.04063800  0.37827100  1
  Si  Si11  1  0.50000000  0.95936200  0.62172900  1
  Si  Si12  1  0.00000000  0.53937700  0.11825500  1
  Si  Si13  1  0.00000000  0.46062300  0.88174500  1
  Si  Si14  1  0.00000000  0.03937700  0.38174500  1
  Si  Si15  1  0.00000000  0.96062300  0.61825500  1
  Si  Si16  1  0.50000000  0.61421000  0.39790600  1
  Si  Si17  1  0.50000000  0.38579000  0.60209400  1
  Si  Si18  1  0.50000000  0.11421000  0.10209400  1
  Si  Si19  1  0.50000000  0.88579000  0.89790600  1
  Si  Si20  1  0.00000000  0.62124000  0.39587900  1
  Si  Si21  1  0.00000000  0.37876000  0.60412100  1
  Si  Si22  1  0.00000000  0.12124000  0.10412100  1
  Si  Si23  1  0.00000000  0.87876000  0.89587900  1
loop_
_geom_bond_atom_site_label_1
_geom_bond_atom_site_label_2
_geom_bond_distance
_geom_bond_site_symmetry_2
Nb0 Si20 2.632875 1_555
Nb0 Si14 2.687918 1_565
Nb0 Si15 2.707662 1_555
Nb0 Si0 2.737488 1_555
Nb0 Si16 2.738516 1_555
Nb0 Si6 2.757442 1_555
Nb0 Si10 2.770589 1_565
Nb0 Si11 2.789339 1_555
Nb1 Si21 2.632875 1_555
Nb1 Si15 2.687918 1_545
Nb1 Si14 2.707662 1_555
Nb1 Si1 2.737488 1_555
Nb1 Si17 2.738516 1_555
Nb1 Si7 2.757442 1_555
Nb1 Si11 2.770589 1_545
Nb1 Si10 2.789339 1_555
Nb2 Si22 2.632875 1_655
Nb2 Si12 2.687918 1_655
Nb2 Si13 2.707662 1_654
Nb2 Si2 2.737488 1_555
Nb2 Si18 2.738516 1_555
Nb2 Si4 2.757442 1_554
Nb2 Si8 2.770589 1_555
Nb2 Si9 2.789339 1_554
Nb3 Si23 2.632875 1_655
Nb3 Si13 2.687918 1_655
Nb3 Si12 2.707662 1_656
Nb3 Si3 2.737488 1_555
Nb3 Si19 2.738516 1_555
Nb3 Si5 2.757442 1_556
Nb3 Si9 2.770589 1_555
Nb3 Si8 2.789339 1_556
Nb4 Si21 2.632875 1_655
Nb4 Si15 2.687918 1_645
Nb4 Si14 2.707662 1_655
Nb4 Si4 2.737488 1_555
Nb4 Si17 2.738516 1_555
Nb4 Si2 2.757442 1_555
Nb4 Si11 2.770589 1_545
Nb4 Si10 2.789339 1_555
Nb5 Si20 2.632875 1_655
Nb5 Si14 2.687918 1_665
Nb5 Si15 2.707662 1_655
Nb5 Si5 2.737488 1_555
Nb5 Si16 2.738516 1_555
Nb5 Si3 2.757442 1_555
Nb5 Si10 2.770589 1_565
Nb5 Si11 2.789339 1_555
Nb6 Si23 2.632875 1_555
Nb6 Si13 2.687918 1_555
Nb6 Si12 2.707662 1_556
Nb6 Si6 2.737488 1_555
Nb6 Si19 2.738516 1_555
Nb6 Si0 2.757442 1_556
Nb6 Si9 2.770589 1_555
Nb6 Si8 2.789339 1_556
Nb7 Si22 2.632875 1_555
Nb7 Si12 2.687918 1_555
Nb7 Si13 2.707662 1_554
Nb7 Si7 2.737488 1_555
Nb7 Si18 2.738516 1_555
Nb7 Si1 2.757442 1_554
Nb7 Si8 2.770589 1_555
Nb7 Si9 2.789339 1_554
Nb8 Si12 2.612413 1_555
Nb8 Si5 2.612580 1_455
Nb8 Si0 2.612580 1_555
Nb8 Si22 2.632304 1_565
Nb8 Si14 2.648302 1_565
Nb8 Si20 2.760728 1_555
Nb8 Si23 2.802300 1_554
Nb9 Si13 2.612413 1_555
Nb9 Si4 2.612580 1_455
Nb9 Si1 2.612580 1_555
Nb9 Si23 2.632304 1_545
Nb9 Si15 2.648302 1_545
Nb9 Si21 2.760728 1_555
Nb9 Si22 2.802300 1_556
Nb10 Si14 2.612413 1_555
Nb10 Si7 2.612580 1_555
Nb10 Si2 2.612580 1_455
Nb10 Si20 2.632304 1_555
Nb10 Si12 2.648302 1_555
Nb10 Si22 2.760728 1_555
Nb10 Si21 2.802300 1_555
Nb11 Si15 2.612413 1_555
Nb11 Si3 2.612580 1_455
Nb11 Si6 2.612580 1_555
Nb11 Si21 2.632304 1_555
Nb11 Si13 2.648302 1_555
Nb11 Si23 2.760728 1_555
Nb11 Si20 2.802300 1_555
Fe0 Si8 2.285484 1_555
Fe0 Si12 2.299246 1_555
Fe0 Si0 2.363606 1_555
Fe0 Si20 2.397907 1_555
Fe0 Si16 2.409691 1_555
Fe0 Si7 2.414027 1_555
Fe1 Si9 2.285484 1_555
Fe1 Si13 2.299246 1_555
Fe1 Si1 2.363606 1_555
Fe1 Si21 2.397907 1_555
Fe1 Si17 2.409691 1_555
Fe1 Si6 2.414027 1_555
Fe2 Si10 2.285484 1_555
Fe2 Si14 2.299246 1_655
Fe2 Si2 2.363606 1_555
Fe2 Si22 2.397907 1_655
Fe2 Si18 2.409691 1_555
Fe2 Si5 2.414027 1_545
Fe3 Si11 2.285484 1_555
Fe3 Si15 2.299246 1_655
Fe3 Si3 2.363606 1_555
Fe3 Si23 2.397907 1_655
Fe3 Si19 2.409691 1_555
Fe3 Si4 2.414027 1_565
Fe4 Si9 2.285484 1_555
Fe4 Si13 2.299246 1_655
Fe4 Si4 2.363606 1_555
Fe4 Si21 2.397907 1_655
Fe4 Si17 2.409691 1_555
Fe4 Si3 2.414027 1_555
Fe5 Si8 2.285484 1_555
Fe5 Si12 2.299246 1_655
Fe5 Si5 2.363606 1_555
Fe5 Si20 2.397907 1_655
Fe5 Si16 2.409691 1_555
Fe5 Si2 2.414027 1_555
Fe6 Si11 2.285484 1_555
Fe6 Si15 2.299246 1_555
Fe6 Si6 2.363606 1_555
Fe6 Si23 2.397907 1_555
Fe6 Si19 2.409691 1_555
Fe6 Si1 2.414027 1_565
Fe7 Si10 2.285484 1_555
Fe7 Si14 2.299246 1_555
Fe7 Si7 2.363606 1_555
Fe7 Si22 2.397907 1_555
Fe7 Si18 2.409691 1_555
Fe7 Si0 2.414027 1_545
Fe8 Si21 2.358834 1_555
Fe8 Si20 2.358834 1_555
Fe8 Si6 2.365808 1_555
Fe8 Si7 2.365808 1_555
Fe8 Si16 2.385344 1_555
Fe8 Si17 2.385344 1_555
Fe9 Si22 2.358834 1_655
Fe9 Si23 2.358834 1_644
Fe9 Si4 2.365808 1_554
Fe9 Si5 2.365808 1_545
Fe9 Si18 2.385344 1_555
Fe9 Si19 2.385344 1_544
Fe10 Si21 2.358834 1_655
Fe10 Si20 2.358834 1_655
Fe10 Si3 2.365808 1_555
Fe10 Si2 2.365808 1_555
Fe10 Si17 2.385344 1_555
Fe10 Si16 2.385344 1_555
Fe11 Si22 2.358834 1_555
Fe11 Si23 2.358834 1_544
Fe11 Si1 2.365808 1_554
Fe11 Si0 2.365808 1_545
Fe11 Si18 2.385344 1_555
Fe11 Si19 2.385344 1_544
Si0 Si5 2.344241 1_555
Si1 Si4 2.344241 1_555
Si2 Si7 2.344241 1_555
Si3 Si6 2.344241 1_555
Si8 Si9 2.461302 1_554
Si10 Si11 2.461302 1_545
Si12 Si13 2.390554 1_554
Si14 Si15 2.390554 1_545
