# generated using pymatgen
data_H9C3S3NO5
_symmetry_space_group_name_H-M   'P 1'
_cell_length_a   5.78934100
_cell_length_b   23.33414500
_cell_length_c   9.28785759
_cell_angle_alpha   90.00000000
_cell_angle_beta   123.85202213
_cell_angle_gamma   90.00000000
_symmetry_Int_Tables_number   1
_chemical_formula_structural   H9C3S3NO5
_chemical_formula_sum   'H36 C12 S12 N4 O20'
_cell_volume   1041.99406141
_cell_formula_units_Z   4
loop_
 _symmetry_equiv_pos_site_id
 _symmetry_equiv_pos_as_xyz
  1  'x, y, z'
loop_
 _atom_site_type_symbol
 _atom_site_label
 _atom_site_symmetry_multiplicity
 _atom_site_fract_x
 _atom_site_fract_y
 _atom_site_fract_z
 _atom_site_occupancy
  H  H0  1  0.54162900  0.08271100  0.52616800  1
  H  H1  1  0.54162900  0.41728900  0.02616800  1
  H  H2  1  0.45837100  0.91728900  0.47383200  1
  H  H3  1  0.45837100  0.58271100  0.97383200  1
  H  H4  1  0.26999600  0.04589400  0.33318500  1
  H  H5  1  0.26999600  0.45410600  0.83318500  1
  H  H6  1  0.73000400  0.95410600  0.66681500  1
  H  H7  1  0.73000400  0.54589400  0.16681500  1
  H  H8  1  0.22622600  0.12045200  0.36765700  1
  H  H9  1  0.22622600  0.37954800  0.86765700  1
  H  H10  1  0.77377400  0.87954800  0.63234300  1
  H  H11  1  0.77377400  0.62045200  0.13234300  1
  H  H12  1  0.18653700  0.27374700  0.95901500  1
  H  H13  1  0.18653700  0.22625300  0.45901500  1
  H  H14  1  0.81346300  0.72625300  0.04098500  1
  H  H15  1  0.81346300  0.77374700  0.54098500  1
  H  H16  1  0.38492700  0.22266200  0.92590600  1
  H  H17  1  0.38492700  0.27733800  0.42590600  1
  H  H18  1  0.61507300  0.77733800  0.07409400  1
  H  H19  1  0.61507300  0.72266200  0.57409400  1
  H  H20  1  0.49632100  0.24181200  0.14418100  1
  H  H21  1  0.49632100  0.25818800  0.64418100  1
  H  H22  1  0.50367900  0.75818800  0.85581900  1
  H  H23  1  0.50367900  0.74181200  0.35581900  1
  H  H24  1  0.21786000  0.05762000  0.68350600  1
  H  H25  1  0.21786000  0.44238000  0.18350600  1
  H  H26  1  0.78214000  0.94238000  0.31649400  1
  H  H27  1  0.78214000  0.55762000  0.81649400  1
  H  H28  1  0.48375500  0.10432200  0.84370600  1
  H  H29  1  0.48375500  0.39567800  0.34370600  1
  H  H30  1  0.51624500  0.89567800  0.15629400  1
  H  H31  1  0.51624500  0.60432200  0.65629400  1
  H  H32  1  0.11956100  0.12759700  0.71436300  1
  H  H33  1  0.11956100  0.37240300  0.21436300  1
  H  H34  1  0.88043900  0.87240300  0.28563700  1
  H  H35  1  0.88043900  0.62759700  0.78563700  1
  C  C0  1  0.37417100  0.08701800  0.38801200  1
  C  C1  1  0.37417100  0.41298200  0.88801200  1
  C  C2  1  0.62582900  0.91298200  0.61198800  1
  C  C3  1  0.62582900  0.58701800  0.11198800  1
  C  C4  1  0.31842800  0.23540500  0.01082600  1
  C  C5  1  0.31842800  0.26459500  0.51082600  1
  C  C6  1  0.68157200  0.76459500  0.98917400  1
  C  C7  1  0.68157200  0.73540500  0.48917400  1
  C  C8  1  0.26472600  0.09177000  0.77737900  1
  C  C9  1  0.26472600  0.40823000  0.27737900  1
  C  C10  1  0.73527400  0.90823000  0.22262100  1
  C  C11  1  0.73527400  0.59177000  0.72262100  1
  S  S0  1  0.21199800  0.05788900  0.93145500  1
  S  S1  1  0.21199800  0.44211100  0.43145500  1
  S  S2  1  0.78800200  0.94211100  0.06854500  1
  S  S3  1  0.78800200  0.55788900  0.56854500  1
  S  S4  1  0.54453700  0.10832800  0.28685600  1
  S  S5  1  0.54453700  0.39167200  0.78685600  1
  S  S6  1  0.45546300  0.89167200  0.71314400  1
  S  S7  1  0.45546300  0.60832800  0.21314400  1
  S  S8  1  0.09835400  0.18176500  0.00727000  1
  S  S9  1  0.09835400  0.31823500  0.50727000  1
  S  S10  1  0.90164600  0.81823500  0.99273000  1
  S  S11  1  0.90164600  0.68176500  0.49273000  1
  N  N0  1  0.29068300  0.11939300  0.07196400  1
  N  N1  1  0.29068300  0.38060700  0.57196400  1
  N  N2  1  0.70931700  0.88060700  0.92803600  1
  N  N3  1  0.70931700  0.61939300  0.42803600  1
  O  O0  1  0.70661500  0.06066500  0.29017400  1
  O  O1  1  0.70661500  0.43933500  0.79017400  1
  O  O2  1  0.29338500  0.93933500  0.70982600  1
  O  O3  1  0.29338500  0.56066500  0.20982600  1
  O  O4  1  0.67511100  0.16324400  0.35529300  1
  O  O5  1  0.67511100  0.33675600  0.85529300  1
  O  O6  1  0.32488900  0.83675600  0.64470700  1
  O  O7  1  0.32488900  0.66324400  0.14470700  1
  O  O8  1  0.87277200  0.17119700  0.82973000  1
  O  O9  1  0.87277200  0.32880300  0.32973000  1
  O  O10  1  0.12722800  0.82880300  0.17027000  1
  O  O11  1  0.12722800  0.67119700  0.67027000  1
  O  O12  1  0.03788700  0.19542100  0.13439200  1
  O  O13  1  0.03788700  0.30457900  0.63439200  1
  O  O14  1  0.96211300  0.80457900  0.86560800  1
  O  O15  1  0.96211300  0.69542100  0.36560800  1
  O  O16  1  0.91216300  0.04395800  0.83477900  1
  O  O17  1  0.91216300  0.45604200  0.33477900  1
  O  O18  1  0.08783700  0.95604200  0.16522100  1
  O  O19  1  0.08783700  0.54395800  0.66522100  1
loop_
_geom_bond_atom_site_label_1
_geom_bond_atom_site_label_2
_geom_bond_distance
_geom_bond_site_symmetry_2
C0 H8 1.094340 1_555
C0 H4 1.096224 1_555
C0 H0 1.100259 1_555
C0 S4 1.770636 1_555
C1 H9 1.094340 1_555
C1 H5 1.096224 1_555
C1 H1 1.100259 1_556
C1 S5 1.770636 1_555
C2 H10 1.094340 1_555
C2 H6 1.096224 1_555
C2 H2 1.100259 1_555
C2 S6 1.770636 1_555
C3 H11 1.094340 1_555
C3 H7 1.096224 1_555
C3 H3 1.100259 1_554
C3 S7 1.770636 1_555
C4 H20 1.093598 1_555
C4 H16 1.094079 1_554
C4 H12 1.098035 1_554
C4 S8 1.773164 1_555
C5 H21 1.093598 1_555
C5 H17 1.094079 1_555
C5 H13 1.098035 1_555
C5 S9 1.773164 1_555
C6 H22 1.093598 1_555
C6 H18 1.094079 1_556
C6 H14 1.098035 1_556
C6 S10 1.773164 1_555
C7 H23 1.093598 1_555
C7 H19 1.094079 1_555
C7 H15 1.098035 1_555
C7 S11 1.773164 1_555
C8 H32 1.095321 1_555
C8 H28 1.096773 1_555
C8 H24 1.097827 1_555
C8 S0 1.803539 1_555
C9 H33 1.095321 1_555
C9 H29 1.096773 1_555
C9 H25 1.097827 1_555
C9 S1 1.803539 1_555
C10 H34 1.095321 1_555
C10 H30 1.096773 1_555
C10 H26 1.097827 1_555
C10 S2 1.803539 1_555
C11 H35 1.095321 1_555
C11 H31 1.096773 1_555
C11 H27 1.097827 1_555
C11 S3 1.803539 1_555
N0 S4 1.715272 1_555
N0 S8 1.724423 1_555
N0 S0 1.818771 1_554
N1 S5 1.715272 1_555
N1 S9 1.724423 1_555
N1 S1 1.818771 1_555
N2 S6 1.715272 1_555
N2 S10 1.724423 1_555
N2 S2 1.818771 1_556
N3 S7 1.715272 1_555
N3 S11 1.724423 1_555
N3 S3 1.818771 1_555
O0 S4 1.444341 1_555
O1 S5 1.444341 1_555
O2 S6 1.444341 1_555
O3 S7 1.444341 1_555
O4 S4 1.442976 1_555
O5 S5 1.442976 1_555
O6 S6 1.442976 1_555
O7 S7 1.442976 1_555
O8 S8 1.444383 1_656
O9 S9 1.444383 1_655
O10 S10 1.444383 1_454
O11 S11 1.444383 1_455
O12 S8 1.441732 1_555
O13 S9 1.441732 1_555
O14 S10 1.441732 1_555
O15 S11 1.441732 1_555
O16 S0 1.479392 1_655
O17 S1 1.479392 1_655
O18 S2 1.479392 1_455
O19 S3 1.479392 1_455
