# generated using pymatgen
data_Li2Ca5N4
_symmetry_space_group_name_H-M   'P 1'
_cell_length_a   7.93095000
_cell_length_b   7.93095000
_cell_length_c   13.05841400
_cell_angle_alpha   90.00000000
_cell_angle_beta   90.00000000
_cell_angle_gamma   90.00000000
_symmetry_Int_Tables_number   1
_chemical_formula_structural   Li2Ca5N4
_chemical_formula_sum   'Li8 Ca20 N16'
_cell_volume   821.37382146
_cell_formula_units_Z   4
loop_
 _symmetry_equiv_pos_site_id
 _symmetry_equiv_pos_as_xyz
  1  'x, y, z'
loop_
 _atom_site_type_symbol
 _atom_site_label
 _atom_site_symmetry_multiplicity
 _atom_site_fract_x
 _atom_site_fract_y
 _atom_site_fract_z
 _atom_site_occupancy
  Li  Li0  1  0.09746700  0.90253300  0.25000000  1
  Li  Li1  1  0.40253300  0.90253300  0.75000000  1
  Li  Li2  1  0.09746700  0.59746700  0.75000000  1
  Li  Li3  1  0.40253300  0.59746700  0.25000000  1
  Li  Li4  1  0.90253300  0.09746700  0.75000000  1
  Li  Li5  1  0.59746700  0.09746700  0.25000000  1
  Li  Li6  1  0.90253300  0.40253300  0.25000000  1
  Li  Li7  1  0.59746700  0.40253300  0.75000000  1
  Ca  Ca0  1  0.75000000  0.75000000  0.37381700  1
  Ca  Ca1  1  0.75000000  0.75000000  0.87381700  1
  Ca  Ca2  1  0.25000000  0.25000000  0.62618300  1
  Ca  Ca3  1  0.25000000  0.25000000  0.12618300  1
  Ca  Ca4  1  0.13231800  0.57803600  0.41522500  1
  Ca  Ca5  1  0.36768200  0.57803600  0.91522500  1
  Ca  Ca6  1  0.13231800  0.92196400  0.91522500  1
  Ca  Ca7  1  0.36768200  0.92196400  0.41522500  1
  Ca  Ca8  1  0.57803600  0.13231800  0.91522500  1
  Ca  Ca9  1  0.92196400  0.13231800  0.41522500  1
  Ca  Ca10  1  0.57803600  0.36768200  0.41522500  1
  Ca  Ca11  1  0.92196400  0.36768200  0.91522500  1
  Ca  Ca12  1  0.86768200  0.42196400  0.58477500  1
  Ca  Ca13  1  0.63231800  0.42196400  0.08477500  1
  Ca  Ca14  1  0.86768200  0.07803600  0.08477500  1
  Ca  Ca15  1  0.63231800  0.07803600  0.58477500  1
  Ca  Ca16  1  0.42196400  0.86768200  0.08477500  1
  Ca  Ca17  1  0.07803600  0.86768200  0.58477500  1
  Ca  Ca18  1  0.42196400  0.63231800  0.58477500  1
  Ca  Ca19  1  0.07803600  0.63231800  0.08477500  1
  N  N0  1  0.63517400  0.05327900  0.39421500  1
  N  N1  1  0.86482600  0.05327900  0.89421500  1
  N  N2  1  0.63517400  0.44672100  0.89421500  1
  N  N3  1  0.86482600  0.44672100  0.39421500  1
  N  N4  1  0.05327900  0.63517400  0.89421500  1
  N  N5  1  0.44672100  0.63517400  0.39421500  1
  N  N6  1  0.05327900  0.86482600  0.39421500  1
  N  N7  1  0.44672100  0.86482600  0.89421500  1
  N  N8  1  0.36482600  0.94672100  0.60578500  1
  N  N9  1  0.13517400  0.94672100  0.10578500  1
  N  N10  1  0.36482600  0.55327900  0.10578500  1
  N  N11  1  0.13517400  0.55327900  0.60578500  1
  N  N12  1  0.94672100  0.36482600  0.10578500  1
  N  N13  1  0.55327900  0.36482600  0.60578500  1
  N  N14  1  0.94672100  0.13517400  0.60578500  1
  N  N15  1  0.55327900  0.13517400  0.10578500  1
loop_
_geom_bond_atom_site_label_1
_geom_bond_atom_site_label_2
_geom_bond_distance
_geom_bond_site_symmetry_2
Li0 N6 1.938753 1_555
Li0 N9 1.938753 1_555
Li1 N8 1.938753 1_555
Li1 N7 1.938753 1_555
Li2 N11 1.938753 1_555
Li2 N4 1.938753 1_555
Li3 N10 1.938753 1_555
Li3 N5 1.938753 1_555
Li4 N1 1.938753 1_555
Li4 N14 1.938753 1_555
Li5 N15 1.938753 1_555
Li5 N0 1.938753 1_555
Li6 N12 1.938753 1_555
Li6 N3 1.938753 1_555
Li7 N13 1.938753 1_555
Li7 N2 1.938753 1_555
Ca0 N3 2.585674 1_555
Ca0 N5 2.585674 1_555
Ca0 N0 2.585674 1_565
Ca0 N6 2.585674 1_655
Ca1 N7 2.585674 1_555
Ca1 N4 2.585674 1_655
Ca1 N2 2.585674 1_555
Ca1 N1 2.585674 1_565
Ca2 N11 2.585674 1_555
Ca2 N13 2.585674 1_555
Ca2 N8 2.585674 1_545
Ca2 N14 2.585674 1_455
Ca3 N15 2.585674 1_555
Ca3 N9 2.585674 1_545
Ca3 N10 2.585674 1_555
Ca3 N12 2.585674 1_455
Ca4 N6 2.375215 1_555
Ca4 N3 2.379183 1_455
Ca4 N11 2.496248 1_555
Ca4 N5 2.549164 1_555
Ca5 N7 2.375215 1_555
Ca5 N2 2.379183 1_555
Ca5 N10 2.496248 1_556
Ca5 N4 2.549164 1_555
Ca6 N4 2.375215 1_555
Ca6 N1 2.379183 1_465
Ca6 N9 2.496248 1_556
Ca6 N7 2.549164 1_555
Ca7 N5 2.375215 1_555
Ca7 N0 2.379183 1_565
Ca7 N8 2.496248 1_555
Ca7 N6 2.549164 1_555
Ca8 N1 2.375215 1_555
Ca8 N7 2.379183 1_545
Ca8 N15 2.496248 1_556
Ca8 N2 2.549164 1_555
Ca9 N0 2.375215 1_555
Ca9 N6 2.379183 1_645
Ca9 N14 2.496248 1_555
Ca9 N3 2.549164 1_555
Ca10 N3 2.375215 1_555
Ca10 N5 2.379183 1_555
Ca10 N13 2.496248 1_555
Ca10 N0 2.549164 1_555
Ca11 N2 2.375215 1_555
Ca11 N4 2.379183 1_655
Ca11 N12 2.496248 1_556
Ca11 N1 2.549164 1_555
Ca12 N14 2.375215 1_555
Ca12 N11 2.379183 1_655
Ca12 N3 2.496248 1_555
Ca12 N13 2.549164 1_555
Ca13 N15 2.375215 1_555
Ca13 N10 2.379183 1_555
Ca13 N2 2.496248 1_554
Ca13 N12 2.549164 1_555
Ca14 N12 2.375215 1_555
Ca14 N9 2.379183 1_645
Ca14 N1 2.496248 1_554
Ca14 N15 2.549164 1_555
Ca15 N13 2.375215 1_555
Ca15 N8 2.379183 1_545
Ca15 N0 2.496248 1_555
Ca15 N14 2.549164 1_555
Ca16 N9 2.375215 1_555
Ca16 N15 2.379183 1_565
Ca16 N7 2.496248 1_554
Ca16 N10 2.549164 1_555
Ca17 N8 2.375215 1_555
Ca17 N14 2.379183 1_465
Ca17 N6 2.496248 1_555
Ca17 N11 2.549164 1_555
Ca18 N11 2.375215 1_555
Ca18 N13 2.379183 1_555
Ca18 N5 2.496248 1_555
Ca18 N8 2.549164 1_555
Ca19 N10 2.375215 1_555
Ca19 N12 2.379183 1_455
Ca19 N4 2.496248 1_554
Ca19 N9 2.549164 1_555
