# generated using pymatgen
data_Na2WO6
_symmetry_space_group_name_H-M   'P 1'
_cell_length_a   8.53273920
_cell_length_b   10.65498486
_cell_length_c   15.12331209
_cell_angle_alpha   90.00000000
_cell_angle_beta   90.00000000
_cell_angle_gamma   90.00000000
_symmetry_Int_Tables_number   1
_chemical_formula_structural   Na2WO6
_chemical_formula_sum   'Na16 W8 O48'
_cell_volume   1374.95417235
_cell_formula_units_Z   8
loop_
 _symmetry_equiv_pos_site_id
 _symmetry_equiv_pos_as_xyz
  1  'x, y, z'
loop_
 _atom_site_type_symbol
 _atom_site_label
 _atom_site_symmetry_multiplicity
 _atom_site_fract_x
 _atom_site_fract_y
 _atom_site_fract_z
 _atom_site_occupancy
  Na  Na0  1  0.77315042  0.43749940  0.36284003  1
  Na  Na1  1  0.27315042  0.06250060  0.63715997  1
  Na  Na2  1  0.22684958  0.93749940  0.13715997  1
  Na  Na3  1  0.72684958  0.56250060  0.86284003  1
  Na  Na4  1  0.22684958  0.56250060  0.63715997  1
  Na  Na5  1  0.72684958  0.93749940  0.36284003  1
  Na  Na6  1  0.77315042  0.06250060  0.86284003  1
  Na  Na7  1  0.27315042  0.43749940  0.13715997  1
  Na  Na8  1  0.66626207  0.49594342  0.55932260  1
  Na  Na9  1  0.16626207  0.00405658  0.44067740  1
  Na  Na10  1  0.33373793  -0.00405658  0.94067740  1
  Na  Na11  1  0.83373793  0.50405658  0.05932260  1
  Na  Na12  1  0.33373793  0.50405658  0.44067740  1
  Na  Na13  1  0.83373793  -0.00405658  0.55932260  1
  Na  Na14  1  0.66626207  0.00405658  0.05932260  1
  Na  Na15  1  0.16626207  0.49594342  0.94067740  1
  W  W0  1  0.01553101  0.20532915  0.02953103  1
  W  W1  1  0.51553101  0.29467085  0.97046897  1
  W  W2  1  0.98446899  0.70532915  0.47046897  1
  W  W3  1  0.48446899  0.79467085  0.52953103  1
  W  W4  1  0.98446899  0.79467085  0.97046897  1
  W  W5  1  0.48446899  0.70532915  0.02953103  1
  W  W6  1  0.01553101  0.29467085  0.52953103  1
  W  W7  1  0.51553101  0.20532915  0.47046897  1
  O  O0  1  0.85368444  0.15181844  0.09650106  1
  O  O1  1  0.35368444  0.34818156  0.90349894  1
  O  O2  1  0.14631556  0.65181844  0.40349894  1
  O  O3  1  0.64631556  0.84818156  0.59650106  1
  O  O4  1  0.14631556  0.84818156  0.90349894  1
  O  O5  1  0.64631556  0.65181844  0.09650106  1
  O  O6  1  0.85368444  0.34818156  0.59650106  1
  O  O7  1  0.35368444  0.15181844  0.40349894  1
  O  O8  1  0.18648103  0.10710328  0.05029258  1
  O  O9  1  0.68648103  0.39289672  0.94970742  1
  O  O10  1  0.81351897  0.60710328  0.44970742  1
  O  O11  1  0.31351897  0.89289672  0.55029258  1
  O  O12  1  0.81351897  0.89289672  0.94970742  1
  O  O13  1  0.31351897  0.60710328  0.05029258  1
  O  O14  1  0.18648103  0.39289672  0.55029258  1
  O  O15  1  0.68648103  0.10710328  0.44970742  1
  O  O16  1  0.05669871  0.37108205  0.05700514  1
  O  O17  1  0.55669871  0.12891795  0.94299486  1
  O  O18  1  0.94330129  0.87108205  0.44299486  1
  O  O19  1  0.44330129  0.62891795  0.55700514  1
  O  O20  1  0.94330129  0.62891795  0.94299486  1
  O  O21  1  0.44330129  0.87108205  0.05700514  1
  O  O22  1  0.05669871  0.12891795  0.55700514  1
  O  O23  1  0.55669871  0.37108205  0.44299486  1
  O  O24  1  0.96274187  0.18987711  0.91443202  1
  O  O25  1  0.46274187  0.31012289  0.08556798  1
  O  O26  1  0.03725813  0.68987711  0.58556798  1
  O  O27  1  0.53725813  0.81012289  0.41443202  1
  O  O28  1  0.03725813  0.81012289  0.08556798  1
  O  O29  1  0.53725813  0.68987711  0.91443202  1
  O  O30  1  0.96274187  0.31012289  0.41443202  1
  O  O31  1  0.46274187  0.18987711  0.58556798  1
  O  O32  1  0.94070430  -0.00970538  0.23278181  1
  O  O33  1  0.44070430  0.50970538  0.76721819  1
  O  O34  1  0.05929570  0.49029462  0.26721819  1
  O  O35  1  0.55929570  0.00970538  0.73278181  1
  O  O36  1  0.05929570  0.00970538  0.76721819  1
  O  O37  1  0.55929570  0.49029462  0.23278181  1
  O  O38  1  0.94070430  0.50970538  0.73278181  1
  O  O39  1  0.44070430  -0.00970538  0.26721819  1
  O  O40  1  0.65268350  0.41189046  0.20299391  1
  O  O41  1  0.15268350  0.08810954  0.79700609  1
  O  O42  1  0.34731650  0.91189046  0.29700609  1
  O  O43  1  0.84731650  0.58810954  0.70299391  1
  O  O44  1  0.34731650  0.58810954  0.79700609  1
  O  O45  1  0.84731650  0.91189046  0.20299391  1
  O  O46  1  0.65268350  0.08810954  0.70299391  1
  O  O47  1  0.15268350  0.41189046  0.29700609  1
loop_
_geom_bond_atom_site_label_1
_geom_bond_atom_site_label_2
_geom_bond_distance
_geom_bond_site_symmetry_2
Na0 O30 2.251182 1_555
Na0 O10 2.260580 1_555
Na0 O23 2.319781 1_555
Na0 O40 2.641003 1_555
Na0 O37 2.741342 1_555
Na0 O34 2.892945 1_655
Na1 O31 2.251182 1_555
Na1 O11 2.260580 1_545
Na1 O22 2.319781 1_555
Na1 O41 2.641003 1_555
Na1 O36 2.741342 1_555
Na1 O35 2.892945 1_555
Na2 O28 2.251182 1_555
Na2 O8 2.260580 1_565
Na2 O21 2.319781 1_555
Na2 O42 2.641003 1_555
Na2 O39 2.741342 1_565
Na2 O32 2.892945 1_465
Na3 O29 2.251182 1_555
Na3 O9 2.260580 1_555
Na3 O20 2.319781 1_555
Na3 O43 2.641003 1_555
Na3 O38 2.741342 1_555
Na3 O33 2.892945 1_555
Na4 O26 2.251182 1_555
Na4 O14 2.260580 1_555
Na4 O19 2.319781 1_555
Na4 O44 2.641003 1_555
Na4 O33 2.741342 1_555
Na4 O38 2.892945 1_455
Na5 O27 2.251182 1_555
Na5 O15 2.260580 1_565
Na5 O18 2.319781 1_555
Na5 O45 2.641003 1_555
Na5 O32 2.741342 1_565
Na5 O39 2.892945 1_565
Na6 O24 2.251182 1_555
Na6 O12 2.260580 1_545
Na6 O17 2.319781 1_555
Na6 O46 2.641003 1_555
Na6 O35 2.741342 1_555
Na6 O36 2.892945 1_655
Na7 O25 2.251182 1_555
Na7 O13 2.260580 1_555
Na7 O16 2.319781 1_555
Na7 O47 2.641003 1_555
Na7 O34 2.741342 1_555
Na7 O37 2.892945 1_555
Na8 O6 2.313525 1_555
Na8 O19 2.372350 1_555
Na8 O10 2.393688 1_555
Na8 O23 2.395609 1_555
Na8 O43 2.841138 1_555
Na9 O7 2.313525 1_555
Na9 O18 2.372350 1_445
Na9 O11 2.393688 1_545
Na9 O22 2.395609 1_555
Na9 O42 2.841138 1_545
Na10 O4 2.313525 1_545
Na10 O17 2.372350 1_555
Na10 O8 2.393688 1_556
Na10 O21 2.395609 1_546
Na10 O41 2.841138 1_555
Na11 O5 2.313525 1_555
Na11 O16 2.372350 1_655
Na11 O9 2.393688 1_554
Na11 O20 2.395609 1_554
Na11 O40 2.841138 1_555
Na12 O2 2.313525 1_555
Na12 O23 2.372350 1_555
Na12 O14 2.393688 1_555
Na12 O19 2.395609 1_555
Na12 O47 2.841138 1_555
Na13 O3 2.313525 1_545
Na13 O22 2.372350 1_655
Na13 O15 2.393688 1_555
Na13 O18 2.395609 1_545
Na13 O46 2.841138 1_555
Na14 O0 2.313525 1_555
Na14 O21 2.372350 1_545
Na14 O12 2.393688 1_544
Na14 O17 2.395609 1_554
Na14 O45 2.841138 1_545
Na15 O1 2.313525 1_555
Na15 O20 2.372350 1_455
Na15 O13 2.393688 1_556
Na15 O16 2.395609 1_556
Na15 O44 2.841138 1_555
O0 W0 1.804994 1_655
O1 W1 1.804994 1_555
O2 W2 1.804994 1_455
O3 W3 1.804994 1_555
O4 W4 1.804994 1_455
O5 W5 1.804994 1_555
O6 W6 1.804994 1_655
O7 W7 1.804994 1_555
O8 W0 1.822545 1_555
O9 W1 1.822545 1_555
O10 W2 1.822545 1_555
O11 W3 1.822545 1_555
O12 W4 1.822545 1_555
O13 W5 1.822545 1_555
O14 W6 1.822545 1_555
O15 W7 1.822545 1_555
O16 W0 1.848005 1_555
O17 W1 1.848005 1_555
O18 W2 1.848005 1_555
O19 W3 1.848005 1_555
O20 W4 1.848005 1_555
O21 W5 1.848005 1_555
O22 W6 1.848005 1_555
O23 W7 1.848005 1_555
O24 W0 1.805536 1_656
O25 W1 1.805536 1_554
O26 W2 1.805536 1_455
O27 W3 1.805536 1_555
O28 W4 1.805536 1_454
O29 W5 1.805536 1_556
O30 W6 1.805536 1_655
O31 W7 1.805536 1_555
O32 O45 1.239275 1_545
O33 O44 1.239275 1_555
O34 O47 1.239275 1_555
O35 O46 1.239275 1_555
O36 O41 1.239275 1_555
O37 O40 1.239275 1_555
O38 O43 1.239275 1_555
O39 O42 1.239275 1_545
