# generated using pymatgen
data_Sr4CaYCu4Bi2(PbO8)2
_symmetry_space_group_name_H-M   'P 1'
_cell_length_a   5.39314700
_cell_length_b   5.46205321
_cell_length_c   31.57964053
_cell_angle_alpha   90.15485132
_cell_angle_beta   90.00000000
_cell_angle_gamma   90.00000000
_symmetry_Int_Tables_number   1
_chemical_formula_structural   Sr4CaYCu4Bi2(PbO8)2
_chemical_formula_sum   'Sr8 Ca2 Y2 Cu8 Bi4 Pb4 O32'
_cell_volume   930.25878647
_cell_formula_units_Z   2
loop_
 _symmetry_equiv_pos_site_id
 _symmetry_equiv_pos_as_xyz
  1  'x, y, z'
loop_
 _atom_site_type_symbol
 _atom_site_label
 _atom_site_symmetry_multiplicity
 _atom_site_fract_x
 _atom_site_fract_y
 _atom_site_fract_z
 _atom_site_occupancy
  Sr  Sr0  1  0.46326700  0.75545900  0.36061100  1
  Sr  Sr1  1  0.03803300  0.75322800  0.63819100  1
  Sr  Sr2  1  0.46326700  0.74454100  0.13938900  1
  Sr  Sr3  1  0.03803300  0.74677200  0.86180900  1
  Sr  Sr4  1  0.53673300  0.24454100  0.63938900  1
  Sr  Sr5  1  0.96196700  0.24677200  0.36180900  1
  Sr  Sr6  1  0.53673300  0.25545900  0.86061100  1
  Sr  Sr7  1  0.96196700  0.25322800  0.13819100  1
  Ca  Ca0  1  0.46433400  0.75000000  0.25000000  1
  Ca  Ca1  1  0.53566600  0.25000000  0.75000000  1
  Y  Y0  1  0.03604400  0.75000000  0.75000000  1
  Y  Y1  1  0.96395600  0.25000000  0.25000000  1
  Cu  Cu0  1  0.96141800  0.75047000  0.30277400  1
  Cu  Cu1  1  0.53869100  0.75115300  0.69521700  1
  Cu  Cu2  1  0.96141800  0.74953000  0.19722600  1
  Cu  Cu3  1  0.53869100  0.74884700  0.80478300  1
  Cu  Cu4  1  0.03858200  0.24953000  0.69722600  1
  Cu  Cu5  1  0.46130900  0.24884700  0.30478300  1
  Cu  Cu6  1  0.03858200  0.25047000  0.80277400  1
  Cu  Cu7  1  0.46130900  0.25115300  0.19521700  1
  Bi  Bi0  1  0.00093800  0.27321700  0.55383200  1
  Bi  Bi1  1  0.00093800  0.22678300  0.94616800  1
  Bi  Bi2  1  0.99906200  0.72678300  0.44616800  1
  Bi  Bi3  1  0.99906200  0.77321700  0.05383200  1
  Pb  Pb0  1  0.48643700  0.26089300  0.44712000  1
  Pb  Pb1  1  0.48643700  0.23910700  0.05288000  1
  Pb  Pb2  1  0.51356300  0.73910700  0.55288000  1
  Pb  Pb3  1  0.51356300  0.76089300  0.94712000  1
  O  O0  1  0.72368500  0.01171600  0.29619400  1
  O  O1  1  0.78527400  0.00425300  0.70381600  1
  O  O2  1  0.72368500  0.48828400  0.20380600  1
  O  O3  1  0.78527400  0.49574700  0.79618400  1
  O  O4  1  0.27631500  0.98828400  0.70380600  1
  O  O5  1  0.21472600  0.99574700  0.29618400  1
  O  O6  1  0.27631500  0.51171600  0.79619400  1
  O  O7  1  0.21472600  0.50425300  0.20381600  1
  O  O8  1  0.45416100  0.21464300  0.37751600  1
  O  O9  1  0.05166800  0.21415000  0.61956500  1
  O  O10  1  0.45416100  0.28535700  0.12248400  1
  O  O11  1  0.05166800  0.28585000  0.88043500  1
  O  O12  1  0.54583900  0.78535700  0.62248400  1
  O  O13  1  0.94833200  0.78585000  0.38043500  1
  O  O14  1  0.54583900  0.71464300  0.87751600  1
  O  O15  1  0.94833200  0.71415000  0.11956500  1
  O  O16  1  0.61262300  0.16747200  0.93871200  1
  O  O17  1  0.90961200  0.15003600  0.05940100  1
  O  O18  1  0.61262300  0.33252800  0.56128800  1
  O  O19  1  0.90961200  0.34996400  0.44059900  1
  O  O20  1  0.38737700  0.83252800  0.06128800  1
  O  O21  1  0.09038800  0.84996400  0.94059900  1
  O  O22  1  0.38737700  0.66747200  0.43871200  1
  O  O23  1  0.09038800  0.65003600  0.55940100  1
  O  O24  1  0.19785100  0.48690500  0.29956200  1
  O  O25  1  0.29237300  0.49628800  0.70029400  1
  O  O26  1  0.19785100  0.01309500  0.20043800  1
  O  O27  1  0.29237300  0.00371200  0.79970600  1
  O  O28  1  0.80214900  0.51309500  0.70043800  1
  O  O29  1  0.70762700  0.50371200  0.29970600  1
  O  O30  1  0.80214900  0.98690500  0.79956200  1
  O  O31  1  0.70762700  0.99628800  0.20029400  1
loop_
_geom_bond_atom_site_label_1
_geom_bond_atom_site_label_2
_geom_bond_distance
_geom_bond_site_symmetry_2
Ca0 O7 2.393840 1_555
Ca0 O5 2.393840 1_555
Ca0 O29 2.450852 1_555
Ca0 O31 2.450852 1_555
Ca0 O0 2.473196 1_565
Ca0 O2 2.473196 1_555
Ca0 O26 2.567572 1_565
Ca0 O24 2.567572 1_555
Ca1 O3 2.393840 1_555
Ca1 O1 2.393840 1_555
Ca1 O25 2.450852 1_555
Ca1 O27 2.450852 1_555
Ca1 O4 2.473196 1_545
Ca1 O6 2.473196 1_555
Ca1 O30 2.567572 1_545
Ca1 O28 2.567572 1_555
Cu0 O29 1.923197 1_555
Cu0 O5 1.925087 1_655
Cu0 O24 1.925588 1_655
Cu0 O0 1.929972 1_565
Cu0 O13 2.460600 1_555
Cu1 O25 1.931202 1_555
Cu1 O28 1.933378 1_555
Cu1 O1 1.936851 1_565
Cu1 O4 1.936902 1_555
Cu1 O12 2.305293 1_555
Cu2 O31 1.923197 1_555
Cu2 O7 1.925087 1_655
Cu2 O26 1.925588 1_665
Cu2 O2 1.929972 1_555
Cu2 O15 2.460600 1_555
Cu3 O27 1.931202 1_565
Cu3 O30 1.933378 1_555
Cu3 O3 1.936851 1_555
Cu3 O6 1.936902 1_555
Cu3 O14 2.305293 1_555
Cu4 O25 1.923197 1_555
Cu4 O1 1.925087 1_455
Cu4 O28 1.925588 1_455
Cu4 O4 1.929972 1_545
Cu4 O9 2.460600 1_555
Cu5 O29 1.931202 1_555
Cu5 O24 1.933378 1_555
Cu5 O5 1.936851 1_545
Cu5 O0 1.936902 1_555
Cu5 O8 2.305293 1_555
Cu6 O27 1.923197 1_555
Cu6 O3 1.925087 1_455
Cu6 O30 1.925588 1_445
Cu6 O6 1.929972 1_555
Cu6 O11 2.460600 1_555
Cu7 O31 1.931202 1_545
Cu7 O26 1.933378 1_555
Cu7 O7 1.936851 1_555
Cu7 O2 1.936902 1_555
Cu7 O10 2.305293 1_555
Bi0 O9 2.119342 1_555
Bi0 O23 2.120827 1_555
Bi0 O18 2.132093 1_455
Bi1 O11 2.119342 1_555
Bi1 O21 2.120827 1_545
Bi1 O16 2.132093 1_455
Bi2 O13 2.119342 1_555
Bi2 O19 2.120827 1_555
Bi2 O22 2.132093 1_655
Bi3 O15 2.119342 1_555
Bi3 O17 2.120827 1_565
Bi3 O20 2.132093 1_655
O0 Y1 2.347643 1_555
O0 Sr5 2.753005 1_555
O0 Sr0 2.843466 1_545
O1 Y0 2.428126 1_645
O1 Sr4 2.770062 1_555
O1 Sr1 2.831556 1_645
O2 Y1 2.347643 1_555
O2 Sr7 2.753005 1_555
O2 Sr2 2.843466 1_555
O3 Y0 2.428126 1_655
O3 Sr6 2.770062 1_555
O3 Sr3 2.831556 1_655
O4 Y0 2.347643 1_555
O4 Sr1 2.753005 1_555
O4 Sr4 2.843466 1_565
O5 Y1 2.428126 1_465
O5 Sr0 2.770062 1_555
O5 Sr5 2.831556 1_465
O6 Y0 2.347643 1_555
O6 Sr3 2.753005 1_555
O6 Sr6 2.843466 1_555
O7 Y1 2.428126 1_455
O7 Sr2 2.770062 1_555
O7 Sr7 2.831556 1_455
O8 Pb0 2.218699 1_555
O8 Sr0 2.563333 1_545
O8 Sr5 2.706204 1_455
O8 Sr5 2.788840 1_555
O8 Sr0 3.003639 1_555
O9 Sr1 2.587973 1_545
O9 Sr4 2.694904 1_555
O9 Sr4 2.851545 1_455
O9 Sr1 3.001991 1_555
O10 Pb1 2.218699 1_555
O10 Sr2 2.563333 1_555
O10 Sr7 2.706204 1_455
O10 Sr7 2.788840 1_555
O10 Sr2 3.003639 1_545
O11 Sr3 2.587973 1_555
O11 Sr6 2.694904 1_555
O11 Sr6 2.851545 1_455
O11 Sr3 3.001991 1_545
O12 Pb2 2.218699 1_555
O12 Sr4 2.563333 1_565
O12 Sr1 2.706204 1_655
O12 Sr1 2.788840 1_555
O12 Sr4 3.003639 1_555
O13 Sr5 2.587973 1_565
O13 Sr0 2.694904 1_555
O13 Sr0 2.851545 1_655
O13 Sr5 3.001991 1_555
O14 Pb3 2.218699 1_555
O14 Sr6 2.563333 1_555
O14 Sr3 2.706204 1_655
O14 Sr3 2.788840 1_555
O14 Sr6 3.003639 1_565
O15 Sr7 2.587973 1_555
O15 Sr2 2.694904 1_555
O15 Sr2 2.851545 1_655
O15 Sr7 3.001991 1_565
O16 Pb3 2.300188 1_545
O16 Sr6 2.547160 1_555
O17 Pb1 2.342709 1_555
O17 Sr7 2.565302 1_555
O18 Pb2 2.300188 1_555
O18 Sr4 2.547160 1_555
O19 Pb0 2.342709 1_555
O19 Sr5 2.565302 1_555
O20 Pb1 2.300188 1_565
O20 Sr2 2.547160 1_555
O21 Pb3 2.342709 1_555
O21 Sr3 2.565302 1_555
O22 Pb0 2.300188 1_555
O22 Sr0 2.547160 1_555
O23 Pb2 2.342709 1_555
O23 Sr1 2.565302 1_555
O24 Y1 2.388380 1_455
O24 Sr5 2.686408 1_455
O24 Sr0 2.811083 1_555
O25 Y0 2.506728 1_555
O25 Sr4 2.704176 1_555
O25 Sr1 2.777098 1_555
O26 Y1 2.388380 1_455
O26 Sr7 2.686408 1_455
O26 Sr2 2.811083 1_545
O27 Y0 2.506728 1_545
O27 Sr6 2.704176 1_555
O27 Sr3 2.777098 1_545
O28 Y0 2.388380 1_655
O28 Sr1 2.686408 1_655
O28 Sr4 2.811083 1_555
O29 Y1 2.506728 1_555
O29 Sr0 2.704176 1_555
O29 Sr5 2.777098 1_555
O30 Y0 2.388380 1_655
O30 Sr3 2.686408 1_655
O30 Sr6 2.811083 1_565
O31 Y1 2.506728 1_565
O31 Sr2 2.704176 1_555
O31 Sr7 2.777098 1_565
