# generated using pymatgen
data_AgH6CSN3
_symmetry_space_group_name_H-M   'P 1'
_cell_length_a   7.27444600
_cell_length_b   7.70700308
_cell_length_c   13.33725852
_cell_angle_alpha   96.59944747
_cell_angle_beta   90.00000000
_cell_angle_gamma   118.16013108
_symmetry_Int_Tables_number   1
_chemical_formula_structural   AgH6CSN3
_chemical_formula_sum   'Ag4 H24 C4 S4 N12'
_cell_volume   653.60847455
_cell_formula_units_Z   4
loop_
 _symmetry_equiv_pos_site_id
 _symmetry_equiv_pos_as_xyz
  1  'x, y, z'
loop_
 _atom_site_type_symbol
 _atom_site_label
 _atom_site_symmetry_multiplicity
 _atom_site_fract_x
 _atom_site_fract_y
 _atom_site_fract_z
 _atom_site_occupancy
  Ag  Ag0  1  0.96441400  0.89104500  0.84984300  1
  Ag  Ag1  1  0.07337000  0.10895500  0.65015700  1
  Ag  Ag2  1  0.03558600  0.10895500  0.15015700  1
  Ag  Ag3  1  0.92663000  0.89104500  0.34984300  1
  H  H0  1  0.13161900  0.62502200  0.82795600  1
  H  H1  1  0.50659800  0.37497800  0.67204400  1
  H  H2  1  0.86838100  0.37497800  0.17204400  1
  H  H3  1  0.49340200  0.62502200  0.32795600  1
  H  H4  1  0.93131900  0.52977700  0.89971300  1
  H  H5  1  0.40154200  0.47022300  0.60028700  1
  H  H6  1  0.06868100  0.47022300  0.10028700  1
  H  H7  1  0.59845800  0.52977700  0.39971300  1
  H  H8  1  0.16188100  0.70935900  0.94998700  1
  H  H9  1  0.45252200  0.29064100  0.55001300  1
  H  H10  1  0.83811900  0.29064100  0.05001300  1
  H  H11  1  0.54747800  0.70935900  0.44998700  1
  H  H12  1  0.52917500  0.67613300  0.86531300  1
  H  H13  1  0.85304200  0.32386700  0.63468700  1
  H  H14  1  0.47082500  0.32386700  0.13468700  1
  H  H15  1  0.14695800  0.67613300  0.36531300  1
  H  H16  1  0.56345100  0.78654500  0.76169000  1
  H  H17  1  0.77690600  0.21345500  0.73831000  1
  H  H18  1  0.43654900  0.21345500  0.23831000  1
  H  H19  1  0.22309400  0.78654500  0.26169000  1
  H  H20  1  0.59894300  0.91735300  0.87409100  1
  H  H21  1  0.68159000  0.08264700  0.62590900  1
  H  H22  1  0.40105700  0.08264700  0.12590900  1
  H  H23  1  0.31841000  0.91735300  0.37409100  1
  C  C0  1  0.45724700  0.23119300  0.89134900  1
  C  C1  1  0.22605400  0.76880700  0.60865100  1
  C  C2  1  0.54275300  0.76880700  0.10865100  1
  C  C3  1  0.77394600  0.23119300  0.39134900  1
  S  S0  1  0.23966700  0.24692000  0.88319200  1
  S  S1  1  0.99274700  0.75308000  0.61680800  1
  S  S2  1  0.76033300  0.75308000  0.11680800  1
  S  S3  1  0.00725300  0.24692000  0.38319200  1
  N  N0  1  0.61794800  0.22712300  0.89772400  1
  N  N1  1  0.39082500  0.77287700  0.60227600  1
  N  N2  1  0.38205200  0.77287700  0.10227600  1
  N  N3  1  0.60917500  0.22712300  0.39772400  1
  N  N4  1  0.06032900  0.65840100  0.88731700  1
  N  N5  1  0.40192800  0.34159900  0.61268300  1
  N  N6  1  0.93967100  0.34159900  0.11268300  1
  N  N7  1  0.59807200  0.65840100  0.38731700  1
  N  N8  1  0.61724800  0.80447900  0.83509300  1
  N  N9  1  0.81276800  0.19552100  0.66490700  1
  N  N10  1  0.38275200  0.19552100  0.16490700  1
  N  N11  1  0.18723200  0.80447900  0.33509300  1
loop_
_geom_bond_atom_site_label_1
_geom_bond_atom_site_label_2
_geom_bond_distance
_geom_bond_site_symmetry_2
Ag0 N8 2.289360 1_555
Ag0 N4 2.310458 1_655
Ag0 S0 2.503133 1_665
Ag1 N9 2.289374 1_455
Ag1 N5 2.310454 1_555
Ag1 S1 2.503131 1_445
Ag2 N10 2.289360 1_555
Ag2 N6 2.310458 1_455
Ag2 S2 2.503133 1_445
Ag3 N11 2.289374 1_655
Ag3 N7 2.310454 1_555
Ag3 S3 2.503131 1_665
H0 N4 1.020312 1_555
H1 N5 1.020317 1_555
H2 N6 1.020312 1_555
H3 N7 1.020317 1_555
H4 N4 1.024854 1_655
H5 N5 1.024854 1_555
H6 N6 1.024854 1_455
H7 N7 1.024854 1_555
H8 N4 1.024359 1_555
H9 N5 1.024359 1_555
H10 N6 1.024359 1_555
H11 N7 1.024359 1_555
H12 N8 1.022173 1_555
H13 N9 1.022172 1_555
H14 N10 1.022173 1_555
H15 N11 1.022172 1_555
H16 N8 1.023976 1_555
H17 N9 1.023974 1_555
H18 N10 1.023976 1_555
H19 N11 1.023974 1_555
H20 N8 1.024870 1_555
H21 N9 1.024866 1_555
H22 N10 1.024870 1_555
H23 N11 1.024866 1_555
C0 N0 1.187444 1_555
C0 S0 1.647971 1_555
C1 N1 1.187444 1_555
C1 S1 1.647971 1_455
C2 N2 1.187444 1_555
C2 S2 1.647971 1_555
C3 N3 1.187444 1_555
C3 S3 1.647971 1_655
