# generated using pymatgen
data_VFe3Si4
_symmetry_space_group_name_H-M   'P 1'
_cell_length_a   4.53076896
_cell_length_b   4.53076896
_cell_length_c   4.53076837
_cell_angle_alpha   89.48816115
_cell_angle_beta   89.48816115
_cell_angle_gamma   89.48817486
_symmetry_Int_Tables_number   1
_chemical_formula_structural   VFe3Si4
_chemical_formula_sum   'V1 Fe3 Si4'
_cell_volume   92.99594506
_cell_formula_units_Z   1
loop_
 _symmetry_equiv_pos_site_id
 _symmetry_equiv_pos_as_xyz
  1  'x, y, z'
loop_
 _atom_site_type_symbol
 _atom_site_label
 _atom_site_symmetry_multiplicity
 _atom_site_fract_x
 _atom_site_fract_y
 _atom_site_fract_z
 _atom_site_occupancy
  V  V0  1  0.63611400  0.63611400  0.63611400  1
  Fe  Fe0  1  0.13804100  0.37044500  0.85323700  1
  Fe  Fe1  1  0.37044500  0.85323700  0.13804100  1
  Fe  Fe2  1  0.85323700  0.13804100  0.37044500  1
  Si  Si0  1  0.33395500  0.33395500  0.33395500  1
  Si  Si1  1  0.85671500  0.66073900  0.15075400  1
  Si  Si2  1  0.66073900  0.15075400  0.85671500  1
  Si  Si3  1  0.15075400  0.85671500  0.66073900  1
loop_
_geom_bond_atom_site_label_1
_geom_bond_atom_site_label_2
_geom_bond_distance
_geom_bond_site_symmetry_2
Fe0 Si1 2.267739 1_456
Fe0 Si0 2.363156 1_556
Fe0 Si3 2.363264 1_555
Fe0 Si2 2.388551 1_455
Fe0 Si3 2.492920 1_545
Fe0 Si0 2.513498 1_555
Fe0 Si2 2.560813 1_555
Fe0 V0 2.738026 1_555
Fe0 V0 2.749200 1_455
Fe1 Si2 2.267738 1_564
Fe1 Si0 2.363156 1_565
Fe1 Si1 2.363264 1_555
Fe1 Si3 2.388551 1_554
Fe1 Si1 2.492919 1_455
Fe1 Si0 2.513498 1_555
Fe1 Si3 2.560813 1_555
Fe1 V0 2.738026 1_555
Fe1 V0 2.749199 1_554
Fe2 Si3 2.267739 1_645
Fe2 Si0 2.363156 1_655
Fe2 Si2 2.363264 1_555
Fe2 Si1 2.388551 1_545
Fe2 Si2 2.492919 1_554
Fe2 Si0 2.513498 1_555
Fe2 Si1 2.560813 1_555
Fe2 V0 2.738026 1_555
Fe2 V0 2.749199 1_545
Si0 V0 2.392288 1_555
Si1 V0 2.409483 1_555
Si1 V0 2.548844 1_554
Si2 V0 2.409484 1_555
Si2 V0 2.548844 1_545
Si3 V0 2.409484 1_555
Si3 V0 2.548844 1_455
