# generated using pymatgen
data_Ba2Tm2Zn8O13
_symmetry_space_group_name_H-M   'P 1'
_cell_length_a   6.43075813
_cell_length_b   6.43075813
_cell_length_c   10.33807170
_cell_angle_alpha   89.75246497
_cell_angle_beta   89.75246497
_cell_angle_gamma   60.04267780
_symmetry_Int_Tables_number   1
_chemical_formula_structural   Ba2Tm2Zn8O13
_chemical_formula_sum   'Ba2 Tm2 Zn8 O13'
_cell_volume   370.40404698
_cell_formula_units_Z   1
loop_
 _symmetry_equiv_pos_site_id
 _symmetry_equiv_pos_as_xyz
  1  'x, y, z'
loop_
 _atom_site_type_symbol
 _atom_site_label
 _atom_site_symmetry_multiplicity
 _atom_site_fract_x
 _atom_site_fract_y
 _atom_site_fract_z
 _atom_site_occupancy
  Ba  Ba0  1  0.13987400  0.13987400  0.93638400  1
  Ba  Ba1  1  0.84511100  0.84511100  0.44306800  1
  Tm  Tm0  1  0.14351700  0.14351700  0.29631800  1
  Tm  Tm1  1  0.83199800  0.83199800  0.80993900  1
  Zn  Zn0  1  0.15761000  0.65375400  0.12063100  1
  Zn  Zn1  1  0.65375400  0.15761000  0.12063100  1
  Zn  Zn2  1  0.84864600  0.32998600  0.62429800  1
  Zn  Zn3  1  0.32998600  0.84864600  0.62429800  1
  Zn  Zn4  1  0.49915200  0.49915200  0.88167800  1
  Zn  Zn5  1  0.53370500  0.53370500  0.36490300  1
  Zn  Zn6  1  0.67626300  0.67626300  0.12653700  1
  Zn  Zn7  1  0.33835300  0.33835300  0.66039100  1
  O  O0  1  0.15685500  0.65256100  0.93062600  1
  O  O1  1  0.65256100  0.15685500  0.93062600  1
  O  O2  1  0.82766000  0.28640400  0.43383400  1
  O  O3  1  0.28640400  0.82766000  0.43383400  1
  O  O4  1  0.99787400  0.50749500  0.21774400  1
  O  O5  1  0.50749500  0.99787400  0.21774400  1
  O  O6  1  0.99904800  0.53197600  0.65428400  1
  O  O7  1  0.53197600  0.99904800  0.65428400  1
  O  O8  1  0.49976500  0.49976500  0.18148900  1
  O  O9  1  0.51003100  0.51003100  0.68402500  1
  O  O10  1  0.66876800  0.66876800  0.93652200  1
  O  O11  1  0.00640900  0.00640900  0.16224300  1
  O  O12  1  0.01708300  0.01708300  0.71226800  1
loop_
_geom_bond_atom_site_label_1
_geom_bond_atom_site_label_2
_geom_bond_distance
_geom_bond_site_symmetry_2
Ba0 O12 2.696211 1_555
Ba0 O11 2.761581 1_556
Ba0 O1 3.081543 1_455
Ba0 O0 3.081543 1_545
Ba0 O10 3.233503 1_455
Ba0 O10 3.233503 1_545
Ba0 O1 3.353098 1_555
Ba0 O0 3.353098 1_555
Ba1 O2 2.784741 1_565
Ba1 O3 2.784741 1_655
Ba1 O6 2.791546 1_555
Ba1 O7 2.791546 1_555
Ba1 O5 2.999808 1_555
Ba1 O4 2.999808 1_555
O0 Zn0 1.964370 1_556
O0 Zn4 1.975000 1_555
O0 Tm1 2.203411 1_455
O1 Zn1 1.964370 1_556
O1 Zn4 1.975000 1_555
O1 Tm1 2.203411 1_545
O2 Zn5 1.899960 1_555
O2 Zn2 2.004665 1_555
O2 Tm0 2.261309 1_655
O3 Zn5 1.899960 1_555
O3 Zn3 2.004665 1_555
O3 Tm0 2.261309 1_565
O4 Zn0 1.973732 1_655
O4 Zn6 2.027484 1_555
O4 Tm0 2.194639 1_655
O5 Zn1 1.973732 1_565
O5 Zn6 2.027484 1_555
O5 Tm0 2.194639 1_565
O6 Zn7 1.898044 1_655
O6 Zn2 1.994901 1_555
O6 Tm1 2.325480 1_555
O7 Zn7 1.898044 1_565
O7 Zn3 1.994901 1_555
O7 Tm1 2.325480 1_555
O8 Zn5 1.935297 1_555
O8 Zn1 2.012050 1_555
O8 Zn0 2.012050 1_555
O8 Zn6 2.043212 1_555
O9 Zn7 1.928565 1_555
O9 Zn2 1.984978 1_555
O9 Zn3 1.984978 1_555
O9 Zn4 2.046336 1_555
O10 Zn6 1.966577 1_556
O10 Zn4 1.974814 1_555
O10 Tm1 2.234480 1_555
O11 Zn0 2.018948 1_545
O11 Zn1 2.018948 1_455
O11 Tm0 2.067258 1_555
O12 Zn3 1.966026 1_545
O12 Zn2 1.966026 1_455
O12 Tm1 2.290622 1_445
