# generated using pymatgen
data_Fe2H10S2O11
_symmetry_space_group_name_H-M   'P 1'
_cell_length_a   9.62913200
_cell_length_b   9.62913200
_cell_length_c   10.53381500
_cell_angle_alpha   90.00000000
_cell_angle_beta   90.00000000
_cell_angle_gamma   90.00000000
_symmetry_Int_Tables_number   1
_chemical_formula_structural   Fe2H10S2O11
_chemical_formula_sum   'Fe8 H40 S8 O44'
_cell_volume   976.69725526
_cell_formula_units_Z   4
loop_
 _symmetry_equiv_pos_site_id
 _symmetry_equiv_pos_as_xyz
  1  'x, y, z'
loop_
 _atom_site_type_symbol
 _atom_site_label
 _atom_site_symmetry_multiplicity
 _atom_site_fract_x
 _atom_site_fract_y
 _atom_site_fract_z
 _atom_site_occupancy
  Fe  Fe0  1  0.63376800  0.33323000  0.47623900  1
  Fe  Fe1  1  0.36623200  0.66677000  0.97623900  1
  Fe  Fe2  1  0.83323000  0.86623200  0.22623900  1
  Fe  Fe3  1  0.16677000  0.13376800  0.72623900  1
  Fe  Fe4  1  0.66677000  0.36623200  0.02376100  1
  Fe  Fe5  1  0.33323000  0.63376800  0.52376100  1
  Fe  Fe6  1  0.86623200  0.83323000  0.77376100  1
  Fe  Fe7  1  0.13376800  0.16677000  0.27376100  1
  H  H0  1  0.48091200  0.13552300  0.60484900  1
  H  H1  1  0.51908800  0.86447700  0.10484900  1
  H  H2  1  0.63552300  0.01908800  0.35484900  1
  H  H3  1  0.36447700  0.98091200  0.85484900  1
  H  H4  1  0.86447700  0.51908800  0.89515100  1
  H  H5  1  0.13552300  0.48091200  0.39515100  1
  H  H6  1  0.01908800  0.63552300  0.64515100  1
  H  H7  1  0.98091200  0.36447700  0.14515100  1
  H  H8  1  0.64216700  0.10261800  0.62941400  1
  H  H9  1  0.35783300  0.89738200  0.12941400  1
  H  H10  1  0.60261800  0.85783300  0.37941400  1
  H  H11  1  0.39738200  0.14216700  0.87941400  1
  H  H12  1  0.89738200  0.35783300  0.87058600  1
  H  H13  1  0.10261800  0.64216700  0.37058600  1
  H  H14  1  0.85783300  0.60261800  0.62058600  1
  H  H15  1  0.14216700  0.39738200  0.12058600  1
  H  H16  1  0.72902400  0.44485000  0.71454700  1
  H  H17  1  0.27097600  0.55515000  0.21454700  1
  H  H18  1  0.94485000  0.77097600  0.46454700  1
  H  H19  1  0.05515000  0.22902400  0.96454700  1
  H  H20  1  0.55515000  0.27097600  0.78545300  1
  H  H21  1  0.44485000  0.72902400  0.28545300  1
  H  H22  1  0.77097600  0.94485000  0.53545300  1
  H  H23  1  0.22902400  0.05515000  0.03545300  1
  H  H24  1  0.87812800  0.04583100  0.60660500  1
  H  H25  1  0.12187200  0.95416900  0.10660500  1
  H  H26  1  0.54583100  0.62187200  0.35660500  1
  H  H27  1  0.45416900  0.37812800  0.85660500  1
  H  H28  1  0.95416900  0.12187200  0.89339500  1
  H  H29  1  0.04583100  0.87812800  0.39339500  1
  H  H30  1  0.62187200  0.54583100  0.64339500  1
  H  H31  1  0.37812800  0.45416900  0.14339500  1
  H  H32  1  0.86867900  0.14309400  0.32584500  1
  H  H33  1  0.13132100  0.85690600  0.82584500  1
  H  H34  1  0.64309400  0.63132100  0.07584500  1
  H  H35  1  0.35690600  0.36867900  0.57584500  1
  H  H36  1  0.85690600  0.13132100  0.17415500  1
  H  H37  1  0.14309400  0.86867900  0.67415500  1
  H  H38  1  0.63132100  0.64309400  0.92415500  1
  H  H39  1  0.36867900  0.35690600  0.42415500  1
  S  S0  1  0.96218900  0.29550900  0.52445400  1
  S  S1  1  0.03781100  0.70449100  0.02445400  1
  S  S2  1  0.79550900  0.53781100  0.27445400  1
  S  S3  1  0.20449100  0.46218900  0.77445400  1
  S  S4  1  0.70449100  0.03781100  0.97554600  1
  S  S5  1  0.29550900  0.96218900  0.47554600  1
  S  S6  1  0.53781100  0.79550900  0.72554600  1
  S  S7  1  0.46218900  0.20449100  0.22554600  1
  O  O0  1  0.57260200  0.18737600  0.33028000  1
  O  O1  1  0.42739800  0.81262400  0.83028000  1
  O  O2  1  0.68737600  0.92739800  0.08028000  1
  O  O3  1  0.31262400  0.07260200  0.58028000  1
  O  O4  1  0.81262400  0.42739800  0.16972000  1
  O  O5  1  0.18737600  0.57260200  0.66972000  1
  O  O6  1  0.92739800  0.68737600  0.91972000  1
  O  O7  1  0.07260200  0.31262400  0.41972000  1
  O  O8  1  0.83102600  0.24128300  0.45381500  1
  O  O9  1  0.16897400  0.75871700  0.95381500  1
  O  O10  1  0.74128300  0.66897400  0.20381500  1
  O  O11  1  0.25871700  0.33102600  0.70381500  1
  O  O12  1  0.75871700  0.16897400  0.04618500  1
  O  O13  1  0.24128300  0.83102600  0.54618500  1
  O  O14  1  0.66897400  0.74128300  0.79618500  1
  O  O15  1  0.33102600  0.25871700  0.29618500  1
  O  O16  1  0.66386800  0.49705300  0.35196500  1
  O  O17  1  0.33613200  0.50294700  0.85196500  1
  O  O18  1  0.99705300  0.83613200  0.10196500  1
  O  O19  1  0.00294700  0.16386800  0.60196500  1
  O  O20  1  0.50294700  0.33613200  0.14803500  1
  O  O21  1  0.49705300  0.66386800  0.64803500  1
  O  O22  1  0.83613200  0.99705300  0.89803500  1
  O  O23  1  0.16386800  0.00294700  0.39803500  1
  O  O24  1  0.57389200  0.17910800  0.62374200  1
  O  O25  1  0.42610800  0.82089200  0.12374200  1
  O  O26  1  0.67910800  0.92610800  0.37374200  1
  O  O27  1  0.32089200  0.07389200  0.87374200  1
  O  O28  1  0.82089200  0.42610800  0.87625800  1
  O  O29  1  0.17910800  0.57389200  0.37625800  1
  O  O30  1  0.92610800  0.67910800  0.62625800  1
  O  O31  1  0.07389200  0.32089200  0.12625800  1
  O  O32  1  0.69826100  0.47558600  0.62968600  1
  O  O33  1  0.30173900  0.52441400  0.12968600  1
  O  O34  1  0.97558600  0.80173900  0.37968600  1
  O  O35  1  0.02441400  0.19826100  0.87968600  1
  O  O36  1  0.52441400  0.30173900  0.87031400  1
  O  O37  1  0.47558600  0.69826100  0.37031400  1
  O  O38  1  0.80173900  0.97558600  0.62031400  1
  O  O39  1  0.19826100  0.02441400  0.12031400  1
  O  O40  1  0.90788400  0.09211600  0.25000000  1
  O  O41  1  0.09211600  0.90788400  0.75000000  1
  O  O42  1  0.59211600  0.59211600  0.00000000  1
  O  O43  1  0.40788400  0.40788400  0.50000000  1
loop_
_geom_bond_atom_site_label_1
_geom_bond_atom_site_label_2
_geom_bond_distance
_geom_bond_site_symmetry_2
Fe0 O16 2.070294 1_555
Fe0 O8 2.108906 1_555
Fe0 O0 2.164090 1_555
Fe0 O32 2.208471 1_555
Fe0 O24 2.224646 1_555
Fe0 O43 2.304412 1_555
Fe1 O17 2.070294 1_555
Fe1 O9 2.108906 1_555
Fe1 O1 2.164090 1_555
Fe1 O33 2.208471 1_556
Fe1 O25 2.224646 1_556
Fe1 O42 2.304412 1_556
Fe2 O18 2.070294 1_555
Fe2 O10 2.108906 1_555
Fe2 O2 2.164090 1_555
Fe2 O34 2.208471 1_555
Fe2 O26 2.224646 1_555
Fe2 O40 2.304412 1_565
Fe3 O19 2.070294 1_555
Fe3 O11 2.108906 1_555
Fe3 O3 2.164090 1_555
Fe3 O35 2.208471 1_555
Fe3 O27 2.224646 1_555
Fe3 O41 2.304412 1_545
Fe4 O20 2.070294 1_555
Fe4 O12 2.108906 1_555
Fe4 O4 2.164090 1_555
Fe4 O36 2.208471 1_554
Fe4 O28 2.224646 1_554
Fe4 O42 2.304412 1_555
Fe5 O21 2.070294 1_555
Fe5 O13 2.108906 1_555
Fe5 O5 2.164090 1_555
Fe5 O37 2.208471 1_555
Fe5 O29 2.224646 1_555
Fe5 O43 2.304412 1_555
Fe6 O22 2.070294 1_555
Fe6 O14 2.108906 1_555
Fe6 O6 2.164090 1_555
Fe6 O38 2.208471 1_555
Fe6 O30 2.224646 1_555
Fe6 O41 2.304412 1_655
Fe7 O23 2.070294 1_555
Fe7 O15 2.108906 1_555
Fe7 O7 2.164090 1_555
Fe7 O39 2.208471 1_555
Fe7 O31 2.224646 1_555
Fe7 O40 2.304412 1_455
H0 O24 1.008630 1_555
H0 O3 1.749279 1_555
H1 O25 1.008630 1_555
H1 O2 1.749279 1_555
H2 O26 1.008630 1_545
H2 O0 1.749279 1_555
H3 O27 1.008630 1_565
H3 O1 1.749279 1_555
H4 O28 1.008630 1_555
H4 O6 1.749279 1_555
H5 O29 1.008630 1_555
H5 O7 1.749279 1_555
H6 O30 1.008630 1_455
H6 O5 1.749279 1_555
H7 O31 1.008630 1_655
H7 O4 1.749279 1_555
H8 O24 0.989072 1_555
H9 O25 0.989072 1_555
H10 O26 0.989072 1_555
H11 O27 0.989072 1_555
H12 O28 0.989072 1_555
H13 O29 0.989072 1_555
H14 O30 0.989072 1_555
H15 O31 0.989072 1_555
H16 O32 0.987125 1_555
H17 O33 0.987125 1_555
H18 O34 0.987125 1_555
H19 O35 0.987125 1_555
H20 O36 0.987125 1_555
H21 O37 0.987125 1_555
H22 O38 0.987125 1_555
H23 O39 0.987125 1_555
H24 O38 1.009662 1_545
H24 O19 1.654930 1_655
H25 O39 1.009662 1_565
H25 O18 1.654930 1_455
H26 O37 1.009662 1_555
H26 O16 1.654930 1_555
H27 O36 1.009662 1_555
H27 O17 1.654930 1_555
H28 O35 1.009662 1_655
H28 O22 1.654930 1_545
H29 O34 1.009662 1_455
H29 O23 1.654930 1_565
H30 O32 1.009662 1_555
H30 O21 1.654930 1_555
H31 O33 1.009662 1_555
H31 O20 1.654930 1_555
H32 O40 1.010827 1_555
H32 O8 1.685976 1_555
H33 O41 1.010827 1_555
H33 O9 1.685976 1_555
H34 O42 1.010827 1_555
H34 O10 1.685976 1_555
H35 O43 1.010827 1_555
H35 O11 1.685976 1_555
H36 O40 1.010827 1_555
H36 O12 1.685976 1_555
H37 O41 1.010827 1_555
H37 O13 1.685976 1_555
H38 O42 1.010827 1_556
H38 O14 1.685976 1_555
H39 O43 1.010827 1_555
H39 O15 1.685976 1_555
O0 S7 1.540997 1_555
O1 S6 1.540997 1_555
O2 S4 1.540997 1_564
O3 S5 1.540997 1_545
O4 S2 1.540997 1_555
O5 S3 1.540997 1_555
O6 S1 1.540997 1_656
O7 S0 1.540997 1_455
O8 S0 1.556103 1_555
O9 S1 1.556103 1_556
O10 S2 1.556103 1_555
O11 S3 1.556103 1_555
O12 S4 1.556103 1_554
O13 S5 1.556103 1_555
O14 S6 1.556103 1_555
O15 S7 1.556103 1_555
O16 S2 1.558031 1_555
O17 S3 1.558031 1_555
O18 S1 1.558031 1_655
O19 S0 1.558031 1_455
O20 S7 1.558031 1_555
O21 S6 1.558031 1_555
O22 S4 1.558031 1_565
O23 S5 1.558031 1_545
