# generated using pymatgen
data_Na6Fe3(PO4)4
_symmetry_space_group_name_H-M   'P 1'
_cell_length_a   11.09882699
_cell_length_b   11.09882699
_cell_length_c   10.79372615
_cell_angle_alpha   89.76628289
_cell_angle_beta   89.76628289
_cell_angle_gamma   33.91291586
_symmetry_Int_Tables_number   1
_chemical_formula_structural   Na6Fe3(PO4)4
_chemical_formula_sum   'Na12 Fe6 P8 O32'
_cell_volume   741.82768205
_cell_formula_units_Z   2
loop_
 _symmetry_equiv_pos_site_id
 _symmetry_equiv_pos_as_xyz
  1  'x, y, z'
loop_
 _atom_site_type_symbol
 _atom_site_label
 _atom_site_symmetry_multiplicity
 _atom_site_fract_x
 _atom_site_fract_y
 _atom_site_fract_z
 _atom_site_occupancy
  Na  Na0  1  0.87221800  0.28716400  0.52991700  1
  Na  Na1  1  0.99996100  0.11079600  0.27305600  1
  Na  Na2  1  0.01342400  0.51714900  0.46713600  1
  Na  Na3  1  0.92606600  0.91418500  0.31732800  1
  Na  Na4  1  0.91418500  0.92606600  0.81732800  1
  Na  Na5  1  0.71801700  0.15123700  0.06617300  1
  Na  Na6  1  0.51714900  0.01342400  0.96713600  1
  Na  Na7  1  0.11079600  0.99996100  0.77305600  1
  Na  Na8  1  0.28716400  0.87221800  0.02991700  1
  Na  Na9  1  0.54827000  0.45336200  0.77645200  1
  Na  Na10  1  0.45336200  0.54827000  0.27645200  1
  Na  Na11  1  0.15123700  0.71801700  0.56617300  1
  Fe  Fe0  1  0.66387900  0.64195800  0.24055800  1
  Fe  Fe1  1  0.64195800  0.66387900  0.74055800  1
  Fe  Fe2  1  0.47655800  0.97671700  0.48129300  1
  Fe  Fe3  1  0.32249100  0.33617500  0.20386400  1
  Fe  Fe4  1  0.33617500  0.32249100  0.70386400  1
  Fe  Fe5  1  0.97671700  0.47655800  0.98129300  1
  P  P0  1  0.76216600  0.39589100  0.98776300  1
  P  P1  1  0.78863800  0.79288700  0.23025400  1
  P  P2  1  0.79288700  0.78863800  0.73025400  1
  P  P3  1  0.39589100  0.76216600  0.48776300  1
  P  P4  1  0.70209300  0.17170700  0.54189400  1
  P  P5  1  0.20918100  0.18360900  0.23061300  1
  P  P6  1  0.18360900  0.20918100  0.73061300  1
  P  P7  1  0.17170700  0.70209300  0.04189400  1
  O  O0  1  0.97891800  0.28664000  0.99141600  1
  O  O1  1  0.97912600  0.33491400  0.26285900  1
  O  O2  1  0.95602600  0.34633600  0.70555100  1
  O  O3  1  0.02495800  0.64950400  0.71185700  1
  O  O4  1  0.66126500  0.47224200  0.12163500  1
  O  O5  1  0.77298400  0.72238500  0.11426200  1
  O  O6  1  0.59666500  0.59943800  0.90241500  1
  O  O7  1  0.71001200  0.77635300  0.34026700  1
  O  O8  1  0.59943800  0.59666500  0.40241500  1
  O  O9  1  0.77635300  0.71001200  0.84026700  1
  O  O10  1  0.72238500  0.77298400  0.61426200  1
  O  O11  1  0.47224200  0.66126500  0.62163500  1
  O  O12  1  0.64950400  0.02495800  0.21185700  1
  O  O13  1  0.80112800  0.96648600  0.50969600  1
  O  O14  1  0.84280800  0.11841200  0.64528900  1
  O  O15  1  0.81060500  0.22808700  0.93453500  1
  O  O16  1  0.63823900  0.02280500  0.76583400  1
  O  O17  1  0.34633600  0.95602600  0.20555100  1
  O  O18  1  0.33491400  0.97912600  0.76285900  1
  O  O19  1  0.69751200  0.25480300  0.42211800  1
  O  O20  1  0.28664000  0.97891800  0.49141600  1
  O  O21  1  0.29068100  0.20049100  0.33682200  1
  O  O22  1  0.22569700  0.25671500  0.11423100  1
  O  O23  1  0.35594000  0.46449700  0.09997500  1
  O  O24  1  0.46449700  0.35594000  0.59997500  1
  O  O25  1  0.25671500  0.22569700  0.61423100  1
  O  O26  1  0.20049100  0.29068100  0.83682200  1
  O  O27  1  0.25480300  0.69751200  0.92211800  1
  O  O28  1  0.02280500  0.63823900  0.26583400  1
  O  O29  1  0.22808700  0.81060500  0.43453500  1
  O  O30  1  0.11841200  0.84280800  0.14528900  1
  O  O31  1  0.96648600  0.80112800  0.00969600  1
loop_
_geom_bond_atom_site_label_1
_geom_bond_atom_site_label_2
_geom_bond_distance
_geom_bond_site_symmetry_2
Na0 O8 2.365130 1_555
Na0 O2 2.434921 1_555
Na0 O14 2.481455 1_555
Na0 O19 2.533861 1_555
Na0 O20 2.628918 1_645
Na0 O11 2.707645 1_555
Na1 O1 2.301356 1_555
Na1 O30 2.450608 1_645
Na1 O29 2.556631 1_645
Na1 O17 2.699520 1_645
Na1 O19 2.735577 1_555
Na1 O4 2.803986 1_555
Na2 O7 2.327559 1_455
Na2 O25 2.402369 1_555
Na2 O10 2.406250 1_455
Na2 O21 2.419558 1_555
Na2 O28 2.597056 1_555
Na3 O13 2.285047 1_555
Na3 O28 2.322242 1_655
Na3 O30 2.409543 1_655
Na3 O12 2.445994 1_565
Na3 O19 2.469921 1_565
Na3 O29 2.790188 1_655
Na4 O31 2.285047 1_556
Na4 O16 2.322242 1_565
Na4 O14 2.409543 1_565
Na4 O3 2.445994 1_655
Na4 O27 2.469921 1_655
Na4 O15 2.790188 1_565
Na5 O23 2.275682 1_555
Na5 O15 2.288092 1_554
Na5 O31 2.301226 1_545
Na5 O12 2.599312 1_555
Na5 O30 2.637022 1_645
Na6 O9 2.327559 1_545
Na6 O22 2.402369 1_556
Na6 O5 2.406250 1_546
Na6 O26 2.419558 1_555
Na6 O16 2.597056 1_555
Na7 O18 2.301356 1_555
Na7 O14 2.450608 1_465
Na7 O15 2.556631 1_465
Na7 O2 2.699520 1_465
Na7 O27 2.735577 1_555
Na7 O11 2.803986 1_555
Na8 O6 2.365130 1_554
Na8 O17 2.434921 1_555
Na8 O30 2.481455 1_555
Na8 O27 2.533861 1_554
Na8 O0 2.628918 1_464
Na8 O4 2.707645 1_555
Na9 O15 2.358642 1_555
Na9 O11 2.361612 1_555
Na9 O27 2.401568 1_555
Na9 O6 2.496976 1_555
Na9 O14 2.519002 1_555
Na9 O24 2.713295 1_555
Na10 O29 2.358642 1_555
Na10 O4 2.361612 1_555
Na10 O19 2.401568 1_555
Na10 O8 2.496976 1_555
Na10 O30 2.519002 1_555
Na10 O23 2.713295 1_555
Na11 O24 2.275682 1_555
Na11 O29 2.288092 1_555
Na11 O13 2.301226 1_455
Na11 O3 2.599312 1_555
Na11 O14 2.637022 1_465
Fe0 O1 2.030548 1_555
Fe0 O17 2.079452 1_555
Fe0 O8 2.096614 1_555
Fe0 O7 2.220502 1_555
Fe0 O4 2.303778 1_555
Fe0 O5 2.427391 1_555
Fe1 O18 2.030548 1_555
Fe1 O2 2.079452 1_555
Fe1 O6 2.096614 1_555
Fe1 O9 2.220502 1_555
Fe1 O11 2.303778 1_555
Fe1 O10 2.427391 1_555
Fe2 O21 2.084820 1_565
Fe2 O20 2.090052 1_555
Fe2 O10 2.093474 1_555
Fe2 O7 2.099475 1_555
Fe2 O25 2.112185 1_565
Fe3 O28 2.059653 1_555
Fe3 O23 2.069980 1_555
Fe3 O12 2.074516 1_555
Fe3 O22 2.110893 1_555
Fe3 O21 2.304935 1_555
Fe4 O16 2.059653 1_555
Fe4 O24 2.069980 1_555
Fe4 O3 2.074516 1_555
Fe4 O25 2.110893 1_555
Fe4 O26 2.304935 1_555
Fe5 O26 2.084820 1_655
Fe5 O0 2.090052 1_555
Fe5 O5 2.093474 1_556
Fe5 O9 2.099475 1_555
Fe5 O22 2.112185 1_656
O0 P0 1.554981 1_555
O1 P5 1.530174 1_655
O2 P6 1.546252 1_655
O3 P2 1.566838 1_455
O4 P0 1.575394 1_554
O5 P1 1.563764 1_555
O6 P0 1.560652 1_555
O7 P1 1.568696 1_555
O8 P3 1.560652 1_555
O9 P2 1.568696 1_555
O10 P2 1.563764 1_555
O11 P3 1.575394 1_555
O12 P1 1.566838 1_545
O13 P4 1.537814 1_565
O14 P4 1.584309 1_555
O15 P0 1.559512 1_555
O16 P2 1.564258 1_545
O17 P5 1.546252 1_565
O18 P6 1.530174 1_565
O19 P4 1.561266 1_555
O20 P3 1.554981 1_555
O21 P5 1.568139 1_555
O22 P5 1.583242 1_555
O23 P7 1.604779 1_555
O24 P4 1.604779 1_555
O25 P6 1.583242 1_555
O26 P6 1.568139 1_555
O27 P7 1.561266 1_556
O28 P1 1.564258 1_455
O29 P3 1.559512 1_555
O30 P7 1.584309 1_555
O31 P7 1.537814 1_655
