# generated using pymatgen
data_LuSi3Ni5
_symmetry_space_group_name_H-M   'P 1'
_cell_length_a   3.72899300
_cell_length_b   18.49067100
_cell_length_c   6.65898000
_cell_angle_alpha   90.00000000
_cell_angle_beta   90.00000000
_cell_angle_gamma   90.00000000
_symmetry_Int_Tables_number   1
_chemical_formula_structural   LuSi3Ni5
_chemical_formula_sum   'Lu4 Si12 Ni20'
_cell_volume   459.14721033
_cell_formula_units_Z   4
loop_
 _symmetry_equiv_pos_site_id
 _symmetry_equiv_pos_as_xyz
  1  'x, y, z'
loop_
 _atom_site_type_symbol
 _atom_site_label
 _atom_site_symmetry_multiplicity
 _atom_site_fract_x
 _atom_site_fract_y
 _atom_site_fract_z
 _atom_site_occupancy
  Lu  Lu0  1  0.75000000  0.64367100  0.12257400  1
  Lu  Lu1  1  0.25000000  0.35632900  0.87742600  1
  Lu  Lu2  1  0.25000000  0.85632900  0.62257400  1
  Lu  Lu3  1  0.75000000  0.14367100  0.37742600  1
  Si  Si0  1  0.75000000  0.73826400  0.62208200  1
  Si  Si1  1  0.25000000  0.26173600  0.37791800  1
  Si  Si2  1  0.25000000  0.76173600  0.12208200  1
  Si  Si3  1  0.75000000  0.23826400  0.87791800  1
  Si  Si4  1  0.75000000  0.92430000  0.34875900  1
  Si  Si5  1  0.25000000  0.07570000  0.65124100  1
  Si  Si6  1  0.25000000  0.57570000  0.84875900  1
  Si  Si7  1  0.75000000  0.42430000  0.15124100  1
  Si  Si8  1  0.75000000  0.91470300  0.91039800  1
  Si  Si9  1  0.25000000  0.08529700  0.08960200  1
  Si  Si10  1  0.25000000  0.58529700  0.41039800  1
  Si  Si11  1  0.75000000  0.41470300  0.58960200  1
  Ni  Ni0  1  0.75000000  0.80008400  0.31758300  1
  Ni  Ni1  1  0.25000000  0.19991600  0.68241700  1
  Ni  Ni2  1  0.25000000  0.69991600  0.81758300  1
  Ni  Ni3  1  0.75000000  0.30008400  0.18241700  1
  Ni  Ni4  1  0.75000000  0.99467100  0.63092900  1
  Ni  Ni5  1  0.25000000  0.00532900  0.36907100  1
  Ni  Ni6  1  0.25000000  0.50532900  0.13092900  1
  Ni  Ni7  1  0.75000000  0.49467100  0.86907100  1
  Ni  Ni8  1  0.75000000  0.51352400  0.38116500  1
  Ni  Ni9  1  0.25000000  0.48647600  0.61883500  1
  Ni  Ni10  1  0.25000000  0.98647600  0.88116500  1
  Ni  Ni11  1  0.75000000  0.01352400  0.11883500  1
  Ni  Ni12  1  0.75000000  0.79401900  0.92969400  1
  Ni  Ni13  1  0.25000000  0.20598100  0.07030600  1
  Ni  Ni14  1  0.25000000  0.70598100  0.42969400  1
  Ni  Ni15  1  0.75000000  0.29401900  0.57030600  1
  Ni  Ni16  1  0.75000000  0.61432700  0.64216400  1
  Ni  Ni17  1  0.25000000  0.38567300  0.35783600  1
  Ni  Ni18  1  0.25000000  0.88567300  0.14216400  1
  Ni  Ni19  1  0.75000000  0.11432700  0.85783600  1
loop_
_geom_bond_atom_site_label_1
_geom_bond_atom_site_label_2
_geom_bond_distance
_geom_bond_site_symmetry_2
Lu0 Si2 2.870939 1_555
Lu0 Si2 2.870939 1_655
Lu0 Si10 2.883541 1_555
Lu0 Si10 2.883541 1_655
Lu0 Si6 2.894908 1_554
Lu0 Si6 2.894908 1_654
Lu0 Ni2 2.946631 1_654
Lu0 Ni2 2.946631 1_554
Lu0 Ni8 2.959119 1_555
Lu0 Ni14 2.997710 1_555
Lu0 Ni14 2.997710 1_655
Lu0 Ni12 3.062391 1_554
Lu0 Ni6 3.165911 1_655
Lu0 Ni6 3.165911 1_555
Lu0 Ni0 3.170327 1_555
Lu0 Ni7 3.231132 1_554
Lu0 Ni16 3.244729 1_554
Lu1 Si3 2.870939 1_555
Lu1 Si3 2.870939 1_455
Lu1 Si11 2.883541 1_555
Lu1 Si11 2.883541 1_455
Lu1 Si7 2.894908 1_556
Lu1 Si7 2.894908 1_456
Lu1 Ni3 2.946631 1_556
Lu1 Ni3 2.946631 1_456
Lu1 Ni9 2.959119 1_555
Lu1 Ni15 2.997710 1_555
Lu1 Ni15 2.997710 1_455
Lu1 Ni13 3.062391 1_556
Lu1 Ni7 3.165911 1_555
Lu1 Ni7 3.165911 1_455
Lu1 Ni1 3.170327 1_555
Lu1 Ni6 3.231132 1_556
Lu1 Ni17 3.244729 1_556
Lu2 Si0 2.870939 1_455
Lu2 Si0 2.870939 1_555
Lu2 Si8 2.883541 1_455
Lu2 Si8 2.883541 1_555
Lu2 Si4 2.894908 1_555
Lu2 Si4 2.894908 1_455
Lu2 Ni0 2.946631 1_455
Lu2 Ni0 2.946631 1_555
Lu2 Ni10 2.959119 1_555
Lu2 Ni12 2.997710 1_455
Lu2 Ni12 2.997710 1_555
Lu2 Ni14 3.062391 1_555
Lu2 Ni4 3.165911 1_555
Lu2 Ni4 3.165911 1_455
Lu2 Ni2 3.170327 1_555
Lu2 Ni5 3.231132 1_565
Lu2 Ni18 3.244729 1_555
Lu3 Si1 2.870939 1_555
Lu3 Si1 2.870939 1_655
Lu3 Si9 2.883541 1_555
Lu3 Si9 2.883541 1_655
Lu3 Si5 2.894908 1_555
Lu3 Si5 2.894908 1_655
Lu3 Ni1 2.946631 1_555
Lu3 Ni1 2.946631 1_655
Lu3 Ni11 2.959119 1_555
Lu3 Ni13 2.997710 1_555
Lu3 Ni13 2.997710 1_655
Lu3 Ni15 3.062391 1_555
Lu3 Ni5 3.165911 1_655
Lu3 Ni5 3.165911 1_555
Lu3 Ni3 3.170327 1_555
Lu3 Ni4 3.231132 1_545
Lu3 Ni19 3.244729 1_555
Ni0 Si4 2.306200 1_555
Ni0 Si0 2.327668 1_555
Ni0 Si2 2.382000 1_555
Ni0 Si2 2.382000 1_655
Ni0 Ni12 2.585379 1_554
Ni0 Ni14 2.657324 1_555
Ni0 Ni14 2.657324 1_655
Ni0 Ni18 2.710249 1_555
Ni0 Ni18 2.710249 1_655
Ni1 Si5 2.306200 1_555
Ni1 Si1 2.327668 1_555
Ni1 Si3 2.382000 1_555
Ni1 Si3 2.382000 1_455
Ni1 Ni13 2.585379 1_556
Ni1 Ni15 2.657324 1_555
Ni1 Ni15 2.657324 1_455
Ni1 Ni19 2.710249 1_455
Ni1 Ni19 2.710249 1_555
Ni2 Si6 2.306200 1_555
Ni2 Si2 2.327668 1_556
Ni2 Si0 2.382000 1_455
Ni2 Si0 2.382000 1_555
Ni3 Si7 2.306200 1_555
Ni3 Si3 2.327668 1_554
Ni3 Si1 2.382000 1_555
Ni3 Si1 2.382000 1_655
Ni4 Si4 2.285530 1_555
Ni4 Si8 2.376906 1_555
Ni4 Si5 2.395723 1_665
Ni4 Si5 2.395723 1_565
Ni4 Ni5 2.560410 1_565
Ni4 Ni5 2.560410 1_665
Ni5 Si5 2.285530 1_555
Ni5 Si9 2.376906 1_555
Ni5 Si4 2.395723 1_445
Ni5 Si4 2.395723 1_545
Ni6 Si6 2.285530 1_554
Ni6 Si10 2.376906 1_555
Ni6 Si7 2.395723 1_455
Ni6 Si7 2.395723 1_555
Ni6 Ni8 2.505179 1_555
Ni6 Ni8 2.505179 1_455
Ni6 Ni7 2.560410 1_554
Ni6 Ni7 2.560410 1_454
Ni7 Si7 2.285530 1_556
Ni7 Si11 2.376906 1_555
Ni7 Si6 2.395723 1_655
Ni7 Si6 2.395723 1_555
Ni7 Ni9 2.505179 1_655
Ni7 Ni9 2.505179 1_555
Ni8 Si7 2.250782 1_555
Ni8 Si11 2.294643 1_555
Ni8 Si10 2.296849 1_555
Ni8 Si10 2.296849 1_655
Ni8 Ni9 2.496243 1_555
Ni8 Ni9 2.496243 1_655
Ni9 Si6 2.250782 1_555
Ni9 Si10 2.294643 1_555
Ni9 Si11 2.296849 1_555
Ni9 Si11 2.296849 1_455
Ni10 Si5 2.250782 1_565
Ni10 Si9 2.294643 1_566
Ni10 Si8 2.296849 1_555
Ni10 Si8 2.296849 1_455
Ni10 Ni11 2.496243 1_466
Ni10 Ni11 2.496243 1_566
Ni10 Ni4 2.505179 1_555
Ni10 Ni4 2.505179 1_455
Ni10 Ni18 2.548486 1_556
Ni11 Si4 2.250782 1_545
Ni11 Si8 2.294643 1_544
Ni11 Si9 2.296849 1_555
Ni11 Si9 2.296849 1_655
Ni11 Ni5 2.505179 1_655
Ni11 Ni5 2.505179 1_555
Ni11 Ni19 2.548486 1_554
Ni12 Si8 2.235224 1_555
Ni12 Si0 2.293190 1_555
Ni12 Si2 2.339640 1_656
Ni12 Si2 2.339640 1_556
Ni12 Ni2 2.657324 1_655
Ni12 Ni2 2.657324 1_555
Ni12 Ni18 2.889681 1_556
Ni12 Ni18 2.889681 1_656
Ni13 Si9 2.235224 1_555
Ni13 Si1 2.293190 1_555
Ni13 Si3 2.339640 1_554
Ni13 Si3 2.339640 1_454
Ni13 Ni3 2.657324 1_555
Ni13 Ni3 2.657324 1_455
Ni13 Ni19 2.889681 1_454
Ni13 Ni19 2.889681 1_554
Ni14 Si10 2.235224 1_555
Ni14 Si2 2.293190 1_555
Ni14 Si0 2.339640 1_455
Ni14 Si0 2.339640 1_555
Ni14 Ni2 2.585379 1_555
Ni14 Ni16 2.889681 1_455
Ni14 Ni16 2.889681 1_555
Ni15 Si11 2.235224 1_555
Ni15 Si3 2.293190 1_555
Ni15 Si1 2.339640 1_555
Ni15 Si1 2.339640 1_655
Ni15 Ni3 2.585379 1_555
Ni15 Ni17 2.889681 1_655
Ni15 Ni17 2.889681 1_555
Ni16 Si0 2.295577 1_555
Ni16 Si6 2.424679 1_655
Ni16 Si6 2.424679 1_555
Ni16 Si10 2.479181 1_555
Ni16 Si10 2.479181 1_655
Ni16 Ni8 2.548486 1_555
Ni16 Ni7 2.679230 1_555
Ni16 Ni2 2.710249 1_655
Ni16 Ni2 2.710249 1_555
Ni17 Si1 2.295577 1_555
Ni17 Si7 2.424679 1_455
Ni17 Si7 2.424679 1_555
Ni17 Si11 2.479181 1_455
Ni17 Si11 2.479181 1_555
Ni17 Ni9 2.548486 1_555
Ni17 Ni6 2.679230 1_555
Ni17 Ni3 2.710249 1_555
Ni17 Ni3 2.710249 1_455
Ni18 Si2 2.295577 1_555
Ni18 Si4 2.424679 1_455
Ni18 Si4 2.424679 1_555
Ni18 Si8 2.479181 1_554
Ni18 Si8 2.479181 1_454
Ni18 Ni5 2.679230 1_565
Ni19 Si3 2.295577 1_555
Ni19 Si5 2.424679 1_555
Ni19 Si5 2.424679 1_655
Ni19 Si9 2.479181 1_556
Ni19 Si9 2.479181 1_656
Ni19 Ni4 2.679230 1_545
