# generated using pymatgen
data_Mg2Zn
_symmetry_space_group_name_H-M   'P 1'
_cell_length_a   15.84050226
_cell_length_b   15.84050226
_cell_length_c   9.91058600
_cell_angle_alpha   90.00000000
_cell_angle_beta   90.00000000
_cell_angle_gamma   157.38624406
_symmetry_Int_Tables_number   1
_chemical_formula_structural   Mg2Zn
_chemical_formula_sum   'Mg32 Zn16'
_cell_volume   956.20879086
_cell_formula_units_Z   16
loop_
 _symmetry_equiv_pos_site_id
 _symmetry_equiv_pos_as_xyz
  1  'x, y, z'
loop_
 _atom_site_type_symbol
 _atom_site_label
 _atom_site_symmetry_multiplicity
 _atom_site_fract_x
 _atom_site_fract_y
 _atom_site_fract_z
 _atom_site_occupancy
  Mg  Mg0_0  1  0.31087650  0.18912350  0.12500000  1
  Mg  Mg0_1  1  0.31087650  0.18912350  0.62500000  1
  Mg  Mg0_2  1  0.31087650  0.68912350  0.12500000  1
  Mg  Mg0_3  1  0.31087650  0.68912350  0.62500000  1
  Mg  Mg0_4  1  0.81087650  0.18912350  0.12500000  1
  Mg  Mg0_5  1  0.81087650  0.18912350  0.62500000  1
  Mg  Mg0_6  1  0.81087650  0.68912350  0.12500000  1
  Mg  Mg0_7  1  0.81087650  0.68912350  0.62500000  1
  Mg  Mg1_0  1  0.46979850  0.03020150  0.12500000  1
  Mg  Mg1_1  1  0.46979850  0.03020150  0.62500000  1
  Mg  Mg1_2  1  0.46979850  0.53020150  0.12500000  1
  Mg  Mg1_3  1  0.46979850  0.53020150  0.62500000  1
  Mg  Mg1_4  1  0.96979850  0.03020150  0.12500000  1
  Mg  Mg1_5  1  0.96979850  0.03020150  0.62500000  1
  Mg  Mg1_6  1  0.96979850  0.53020150  0.12500000  1
  Mg  Mg1_7  1  0.96979850  0.53020150  0.62500000  1
  Mg  Mg2_0  1  0.03020150  0.46979850  0.37500000  1
  Mg  Mg2_1  1  0.03020150  0.46979850  0.87500000  1
  Mg  Mg2_2  1  0.03020150  0.96979850  0.37500000  1
  Mg  Mg2_3  1  0.03020150  0.96979850  0.87500000  1
  Mg  Mg2_4  1  0.53020150  0.46979850  0.37500000  1
  Mg  Mg2_5  1  0.53020150  0.46979850  0.87500000  1
  Mg  Mg2_6  1  0.53020150  0.96979850  0.37500000  1
  Mg  Mg2_7  1  0.53020150  0.96979850  0.87500000  1
  Mg  Mg3_0  1  0.18912350  0.31087650  0.37500000  1
  Mg  Mg3_1  1  0.18912350  0.31087650  0.87500000  1
  Mg  Mg3_2  1  0.18912350  0.81087650  0.37500000  1
  Mg  Mg3_3  1  0.18912350  0.81087650  0.87500000  1
  Mg  Mg3_4  1  0.68912350  0.31087650  0.37500000  1
  Mg  Mg3_5  1  0.68912350  0.31087650  0.87500000  1
  Mg  Mg3_6  1  0.68912350  0.81087650  0.37500000  1
  Mg  Mg3_7  1  0.68912350  0.81087650  0.87500000  1
  Zn  Zn0_0  1  0.13889250  0.36110750  0.12500000  1
  Zn  Zn0_1  1  0.13889250  0.36110750  0.62500000  1
  Zn  Zn0_2  1  0.13889250  0.86110750  0.12500000  1
  Zn  Zn0_3  1  0.13889250  0.86110750  0.62500000  1
  Zn  Zn0_4  1  0.63889250  0.36110750  0.12500000  1
  Zn  Zn0_5  1  0.63889250  0.36110750  0.62500000  1
  Zn  Zn0_6  1  0.63889250  0.86110750  0.12500000  1
  Zn  Zn0_7  1  0.63889250  0.86110750  0.62500000  1
  Zn  Zn1_0  1  0.36110750  0.13889250  0.37500000  1
  Zn  Zn1_1  1  0.36110750  0.13889250  0.87500000  1
  Zn  Zn1_2  1  0.36110750  0.63889250  0.37500000  1
  Zn  Zn1_3  1  0.36110750  0.63889250  0.87500000  1
  Zn  Zn1_4  1  0.86110750  0.13889250  0.37500000  1
  Zn  Zn1_5  1  0.86110750  0.13889250  0.87500000  1
  Zn  Zn1_6  1  0.86110750  0.63889250  0.37500000  1
  Zn  Zn1_7  1  0.86110750  0.63889250  0.87500000  1
loop_
_geom_bond_atom_site_label_1
_geom_bond_atom_site_label_2
_geom_bond_distance
_geom_bond_site_symmetry_2
Mg0_0 Zn0_4 2.878458 1_555
Mg0_0 Zn0_2 2.878458 1_545
Mg0_0 Zn1_0 2.928111 1_555
Mg0_0 Zn1_1 2.928111 1_554
Mg0_0 Mg2_2 3.075430 1_545
Mg0_0 Mg2_4 3.075430 1_555
Mg0_0 Mg2_3 3.075430 1_544
Mg0_0 Mg2_5 3.075430 1_554
Mg0_0 Mg1_2 3.227561 1_555
Mg0_0 Mg1_4 3.227561 1_455
Mg0_1 Zn0_5 2.878458 1_555
Mg0_1 Zn0_3 2.878458 1_545
Mg0_1 Zn1_1 2.928111 1_555
Mg0_1 Zn1_0 2.928111 1_555
Mg0_1 Mg2_3 3.075430 1_545
Mg0_1 Mg2_5 3.075430 1_555
Mg0_1 Mg2_2 3.075430 1_545
Mg0_1 Mg2_4 3.075430 1_555
Mg0_1 Mg1_3 3.227561 1_555
Mg0_1 Mg1_5 3.227561 1_455
Mg0_2 Zn0_0 2.878458 1_555
Mg0_2 Zn0_6 2.878458 1_555
Mg0_2 Zn1_2 2.928111 1_555
Mg0_2 Zn1_3 2.928111 1_554
Mg0_2 Mg2_6 3.075430 1_555
Mg0_2 Mg2_7 3.075430 1_554
Mg0_2 Mg2_0 3.075430 1_555
Mg0_2 Mg2_1 3.075430 1_554
Mg0_2 Mg1_6 3.227561 1_455
Mg0_2 Mg1_0 3.227561 1_565
Mg0_3 Zn0_1 2.878458 1_555
Mg0_3 Zn0_7 2.878458 1_555
Mg0_3 Zn1_3 2.928111 1_555
Mg0_3 Zn1_2 2.928111 1_555
Mg0_3 Mg2_7 3.075430 1_555
Mg0_3 Mg2_6 3.075430 1_555
Mg0_3 Mg2_1 3.075430 1_555
Mg0_3 Mg2_0 3.075430 1_555
Mg0_3 Mg1_7 3.227561 1_455
Mg0_3 Mg1_1 3.227561 1_565
Mg0_4 Zn0_0 2.878458 1_655
Mg0_4 Zn0_6 2.878458 1_545
Mg0_4 Zn1_4 2.928111 1_555
Mg0_4 Zn1_5 2.928111 1_554
Mg0_4 Mg2_6 3.075430 1_545
Mg0_4 Mg2_7 3.075430 1_544
Mg0_4 Mg2_0 3.075430 1_655
Mg0_4 Mg2_1 3.075430 1_654
Mg0_4 Mg1_6 3.227561 1_555
Mg0_4 Mg1_0 3.227561 1_555
Mg0_5 Zn0_1 2.878458 1_655
Mg0_5 Zn0_7 2.878458 1_545
Mg0_5 Zn1_5 2.928111 1_555
Mg0_5 Zn1_4 2.928111 1_555
Mg0_5 Mg2_7 3.075430 1_545
Mg0_5 Mg2_6 3.075430 1_545
Mg0_5 Mg2_1 3.075430 1_655
Mg0_5 Mg2_0 3.075430 1_655
Mg0_5 Mg1_7 3.227561 1_555
Mg0_5 Mg1_1 3.227561 1_555
Mg0_6 Zn0_4 2.878458 1_555
Mg0_6 Zn0_2 2.878458 1_655
Mg0_6 Zn1_6 2.928111 1_555
Mg0_6 Zn1_7 2.928111 1_554
Mg0_6 Mg2_2 3.075430 1_655
Mg0_6 Mg2_4 3.075430 1_555
Mg0_6 Mg2_3 3.075430 1_654
Mg0_6 Mg2_5 3.075430 1_554
Mg0_6 Mg1_2 3.227561 1_555
Mg0_6 Mg1_4 3.227561 1_565
Mg0_7 Zn0_5 2.878458 1_555
Mg0_7 Zn0_3 2.878458 1_655
Mg0_7 Zn1_7 2.928111 1_555
Mg0_7 Zn1_6 2.928111 1_555
Mg0_7 Mg2_5 3.075430 1_555
Mg0_7 Mg2_3 3.075430 1_655
Mg0_7 Mg2_2 3.075430 1_655
Mg0_7 Mg2_4 3.075430 1_555
Mg0_7 Mg1_3 3.227561 1_555
Mg0_7 Mg1_5 3.227561 1_565
Mg1_0 Zn0_2 2.954450 1_545
Mg1_0 Zn0_4 2.954450 1_555
Mg1_0 Mg3_2 3.075430 1_545
Mg1_0 Mg3_3 3.075430 1_544
Mg1_0 Mg3_4 3.075430 1_555
Mg1_0 Mg3_5 3.075430 1_554
Mg1_0 Mg1_6 3.105750 1_555
Mg1_0 Mg1_6 3.105750 1_445
Mg1_0 Mg2_6 3.108043 1_545
Mg1_0 Mg2_7 3.108043 1_544
Mg1_1 Zn0_3 2.954450 1_545
Mg1_1 Zn0_5 2.954450 1_555
Mg1_1 Mg3_3 3.075430 1_545
Mg1_1 Mg3_2 3.075430 1_545
Mg1_1 Mg3_5 3.075430 1_555
Mg1_1 Mg3_4 3.075430 1_555
Mg1_1 Mg1_7 3.105750 1_555
Mg1_1 Mg1_7 3.105750 1_445
Mg1_1 Mg2_7 3.108043 1_545
Mg1_1 Mg2_6 3.108043 1_545
Mg1_2 Zn0_6 2.954450 1_555
Mg1_2 Zn0_0 2.954450 1_555
Mg1_2 Mg3_6 3.075430 1_555
Mg1_2 Mg3_0 3.075430 1_555
Mg1_2 Mg3_7 3.075430 1_554
Mg1_2 Mg3_1 3.075430 1_554
Mg1_2 Mg1_4 3.105750 1_565
Mg1_2 Mg1_4 3.105750 1_455
Mg1_2 Mg2_4 3.108043 1_555
Mg1_2 Mg2_5 3.108043 1_554
Mg1_3 Zn0_7 2.954450 1_555
Mg1_3 Zn0_1 2.954450 1_555
Mg1_3 Mg3_7 3.075430 1_555
Mg1_3 Mg3_1 3.075430 1_555
Mg1_3 Mg3_6 3.075430 1_555
Mg1_3 Mg3_0 3.075430 1_555
Mg1_3 Mg1_5 3.105750 1_565
Mg1_3 Mg1_5 3.105750 1_455
Mg1_3 Mg2_5 3.108043 1_555
Mg1_3 Mg2_4 3.108043 1_555
Mg1_4 Zn0_6 2.954450 1_545
Mg1_4 Zn0_0 2.954450 1_655
Mg1_4 Mg3_6 3.075430 1_545
Mg1_4 Mg3_7 3.075430 1_544
Mg1_4 Mg3_0 3.075430 1_655
Mg1_4 Mg3_1 3.075430 1_654
Mg1_4 Mg2_2 3.108043 1_645
Mg1_4 Mg2_3 3.108043 1_644
Mg1_5 Zn0_7 2.954450 1_545
Mg1_5 Zn0_1 2.954450 1_655
Mg1_5 Mg3_7 3.075430 1_545
Mg1_5 Mg3_6 3.075430 1_545
Mg1_5 Mg3_1 3.075430 1_655
Mg1_5 Mg3_0 3.075430 1_655
Mg1_5 Mg2_3 3.108043 1_645
Mg1_5 Mg2_2 3.108043 1_645
Mg1_6 Zn0_2 2.954450 1_655
Mg1_6 Zn0_4 2.954450 1_555
Mg1_6 Mg3_4 3.075430 1_555
Mg1_6 Mg3_2 3.075430 1_655
Mg1_6 Mg3_3 3.075430 1_654
Mg1_6 Mg3_5 3.075430 1_554
Mg1_6 Mg2_0 3.108043 1_655
Mg1_6 Mg2_1 3.108043 1_654
Mg1_7 Zn0_3 2.954450 1_655
Mg1_7 Zn0_5 2.954450 1_555
Mg1_7 Mg3_3 3.075430 1_655
Mg1_7 Mg3_5 3.075430 1_555
Mg1_7 Mg3_4 3.075430 1_555
Mg1_7 Mg3_2 3.075430 1_655
Mg1_7 Mg2_1 3.108043 1_655
Mg1_7 Mg2_0 3.108043 1_655
Mg2_0 Zn1_4 2.954450 1_455
Mg2_0 Zn1_2 2.954450 1_555
Mg2_0 Mg2_6 3.105750 1_555
Mg2_0 Mg2_6 3.105750 1_445
Mg2_0 Mg3_2 3.227561 1_555
Mg2_0 Mg3_4 3.227561 1_455
Mg2_1 Zn1_5 2.954450 1_455
Mg2_1 Zn1_3 2.954450 1_555
Mg2_1 Mg2_7 3.105750 1_555
Mg2_1 Mg2_7 3.105750 1_445
Mg2_1 Mg3_3 3.227561 1_555
Mg2_1 Mg3_5 3.227561 1_455
Mg2_2 Zn1_0 2.954450 1_565
Mg2_2 Zn1_6 2.954450 1_455
Mg2_2 Mg2_4 3.105750 1_565
Mg2_2 Mg2_4 3.105750 1_455
Mg2_2 Mg3_6 3.227561 1_455
Mg2_2 Mg3_0 3.227561 1_565
Mg2_3 Zn1_1 2.954450 1_565
Mg2_3 Zn1_7 2.954450 1_455
Mg2_3 Mg2_5 3.105750 1_565
Mg2_3 Mg2_5 3.105750 1_455
Mg2_3 Mg3_7 3.227561 1_455
Mg2_3 Mg3_1 3.227561 1_565
Mg2_4 Zn1_0 2.954450 1_555
Mg2_4 Zn1_6 2.954450 1_555
Mg2_4 Mg3_6 3.227561 1_555
Mg2_4 Mg3_0 3.227561 1_555
Mg2_5 Zn1_1 2.954450 1_555
Mg2_5 Zn1_7 2.954450 1_555
Mg2_5 Mg3_7 3.227561 1_555
Mg2_5 Mg3_1 3.227561 1_555
Mg2_6 Zn1_4 2.954450 1_565
Mg2_6 Zn1_2 2.954450 1_555
Mg2_6 Mg3_2 3.227561 1_555
Mg2_6 Mg3_4 3.227561 1_565
Mg2_7 Zn1_5 2.954450 1_565
Mg2_7 Zn1_3 2.954450 1_555
Mg2_7 Mg3_3 3.227561 1_555
Mg2_7 Mg3_5 3.227561 1_565
Mg3_0 Zn1_2 2.878458 1_555
Mg3_0 Zn1_4 2.878458 1_455
Mg3_0 Zn0_0 2.928111 1_555
Mg3_0 Zn0_1 2.928111 1_555
Mg3_1 Zn1_3 2.878458 1_555
Mg3_1 Zn1_5 2.878458 1_455
Mg3_1 Zn0_1 2.928111 1_555
Mg3_1 Zn0_0 2.928111 1_556
Mg3_2 Zn1_6 2.878458 1_455
Mg3_2 Zn1_0 2.878458 1_565
Mg3_2 Zn0_2 2.928111 1_555
Mg3_2 Zn0_3 2.928111 1_555
Mg3_3 Zn1_7 2.878458 1_455
Mg3_3 Zn1_1 2.878458 1_565
Mg3_3 Zn0_3 2.928111 1_555
Mg3_3 Zn0_2 2.928111 1_556
Mg3_4 Zn1_6 2.878458 1_555
Mg3_4 Zn1_0 2.878458 1_555
Mg3_4 Zn0_4 2.928111 1_555
Mg3_4 Zn0_5 2.928111 1_555
Mg3_5 Zn1_7 2.878458 1_555
Mg3_5 Zn1_1 2.878458 1_555
Mg3_5 Zn0_5 2.928111 1_555
Mg3_5 Zn0_4 2.928111 1_556
Mg3_6 Zn1_2 2.878458 1_555
Mg3_6 Zn1_4 2.878458 1_565
Mg3_6 Zn0_7 2.928111 1_555
Mg3_6 Zn0_6 2.928111 1_555
Mg3_7 Zn1_3 2.878458 1_555
Mg3_7 Zn1_5 2.878458 1_565
Mg3_7 Zn0_7 2.928111 1_555
Mg3_7 Zn0_6 2.928111 1_556
