# generated using pymatgen
data_MgNb2O6
_symmetry_space_group_name_H-M   'P 1'
_cell_length_a   5.06265251
_cell_length_b   5.74580683
_cell_length_c   14.29456117
_cell_angle_alpha   90.00000000
_cell_angle_beta   90.00000000
_cell_angle_gamma   90.00000000
_symmetry_Int_Tables_number   1
_chemical_formula_structural   MgNb2O6
_chemical_formula_sum   'Mg4 Nb8 O24'
_cell_volume   415.81482394
_cell_formula_units_Z   4
loop_
 _symmetry_equiv_pos_site_id
 _symmetry_equiv_pos_as_xyz
  1  'x, y, z'
loop_
 _atom_site_type_symbol
 _atom_site_label
 _atom_site_symmetry_multiplicity
 _atom_site_fract_x
 _atom_site_fract_y
 _atom_site_fract_z
 _atom_site_occupancy
  Mg  Mg0  1  0.75000000  0.83564898  -0.00000000  1
  Mg  Mg1  1  0.25000000  0.66435102  0.50000000  1
  Mg  Mg2  1  0.25000000  0.16435102  -0.00000000  1
  Mg  Mg3  1  0.75000000  0.33564898  0.50000000  1
  Nb  Nb0  1  0.75163364  0.81520547  0.65927184  1
  Nb  Nb1  1  0.25163364  0.68479453  0.84072816  1
  Nb  Nb2  1  0.74836636  0.81520547  0.34072816  1
  Nb  Nb3  1  0.24836636  0.68479453  0.15927184  1
  Nb  Nb4  1  0.75163364  0.31520547  0.84072816  1
  Nb  Nb5  1  0.25163364  0.18479453  0.65927184  1
  Nb  Nb6  1  0.74836636  0.31520547  0.15927184  1
  Nb  Nb7  1  0.24836636  0.18479453  0.34072816  1
  O  O0  1  0.42045537  0.37679776  0.24422554  1
  O  O1  1  0.92045537  0.12320224  0.25577446  1
  O  O2  1  0.07954463  0.37679776  0.75577446  1
  O  O3  1  0.57954463  0.12320224  0.74422554  1
  O  O4  1  0.57954463  0.62320224  0.75577446  1
  O  O5  1  0.07954463  0.87679776  0.74422554  1
  O  O6  1  0.92045537  0.62320224  0.24422554  1
  O  O7  1  0.42045537  0.87679776  0.25577446  1
  O  O8  1  0.08790836  0.38669192  0.42144650  1
  O  O9  1  0.58790836  0.11330808  0.07855350  1
  O  O10  1  0.41209164  0.38669192  0.57855350  1
  O  O11  1  0.91209164  0.11330808  0.92144650  1
  O  O12  1  0.57338983  0.60608846  0.09495295  1
  O  O13  1  0.07338983  0.89391154  0.40504705  1
  O  O14  1  0.92661017  0.60608846  0.90504705  1
  O  O15  1  0.42661017  0.89391154  0.59495295  1
  O  O16  1  0.42661017  0.39391154  0.90504705  1
  O  O17  1  0.92661017  0.10608846  0.59495295  1
  O  O18  1  0.07338983  0.39391154  0.09495295  1
  O  O19  1  0.57338983  0.10608846  0.40504705  1
  O  O20  1  0.08790836  0.88669192  0.07855350  1
  O  O21  1  0.58790836  0.61330808  0.42144650  1
  O  O22  1  0.41209164  0.88669192  0.92144650  1
  O  O23  1  0.91209164  0.61330808  0.57855350  1
loop_
_geom_bond_atom_site_label_1
_geom_bond_atom_site_label_2
_geom_bond_distance
_geom_bond_site_symmetry_2
Mg0 O20 2.067227 1_655
Mg0 O22 2.067227 1_554
Mg0 O12 2.093209 1_555
Mg0 O14 2.093209 1_554
Mg0 O9 2.116485 1_565
Mg0 O11 2.116485 1_564
Mg1 O23 2.067227 1_455
Mg1 O21 2.067227 1_555
Mg1 O13 2.093209 1_555
Mg1 O15 2.093209 1_555
Mg1 O10 2.116485 1_555
Mg1 O8 2.116485 1_555
Mg2 O11 2.067227 1_454
Mg2 O9 2.067227 1_555
Mg2 O16 2.093209 1_554
Mg2 O18 2.093209 1_555
Mg2 O20 2.116485 1_545
Mg2 O22 2.116485 1_544
Mg3 O10 2.067227 1_555
Mg3 O8 2.067227 1_655
Mg3 O19 2.093209 1_555
Mg3 O17 2.093209 1_555
Mg3 O23 2.116485 1_555
Mg3 O21 2.116485 1_555
Nb0 O23 1.826740 1_555
Nb0 O15 1.938410 1_555
Nb0 O4 1.969526 1_555
Nb0 O5 2.087075 1_655
Nb0 O17 2.103205 1_565
Nb0 O3 2.316365 1_565
Nb1 O22 1.826740 1_555
Nb1 O14 1.938410 1_455
Nb1 O5 1.969526 1_555
Nb1 O4 2.087075 1_555
Nb1 O16 2.103205 1_555
Nb1 O2 2.316365 1_555
Nb2 O21 1.826740 1_555
Nb2 O13 1.938410 1_655
Nb2 O6 1.969526 1_555
Nb2 O7 2.087075 1_555
Nb2 O19 2.103205 1_565
Nb2 O1 2.316365 1_565
Nb3 O20 1.826740 1_555
Nb3 O12 1.938410 1_555
Nb3 O7 1.969526 1_555
Nb3 O6 2.087075 1_455
Nb3 O18 2.103205 1_555
Nb3 O0 2.316365 1_555
Nb4 O11 1.826740 1_555
Nb4 O16 1.938410 1_555
Nb4 O3 1.969526 1_555
Nb4 O2 2.087075 1_655
Nb4 O14 2.103205 1_555
Nb4 O4 2.316365 1_555
Nb5 O10 1.826740 1_555
Nb5 O17 1.938410 1_455
Nb5 O2 1.969526 1_555
Nb5 O3 2.087075 1_555
Nb5 O15 2.103205 1_545
Nb5 O5 2.316365 1_545
Nb6 O9 1.826740 1_555
Nb6 O18 1.938410 1_655
Nb6 O1 1.969526 1_555
Nb6 O0 2.087075 1_555
Nb6 O12 2.103205 1_555
Nb6 O6 2.316365 1_555
Nb7 O8 1.826740 1_555
Nb7 O19 1.938410 1_555
Nb7 O0 1.969526 1_555
Nb7 O1 2.087075 1_455
Nb7 O13 2.103205 1_545
Nb7 O7 2.316365 1_545
