# generated using pymatgen
data_HoSn2
_symmetry_space_group_name_H-M   'P 1'
_cell_length_a   4.30331147
_cell_length_b   4.37543505
_cell_length_c   8.52919357
_cell_angle_alpha   104.80735842
_cell_angle_beta   89.99951700
_cell_angle_gamma   89.99967819
_symmetry_Int_Tables_number   1
_chemical_formula_structural   HoSn2
_chemical_formula_sum   'Ho2 Sn4'
_cell_volume   155.26172284
_cell_formula_units_Z   2
loop_
 _symmetry_equiv_pos_site_id
 _symmetry_equiv_pos_as_xyz
  1  'x, y, z'
loop_
 _atom_site_type_symbol
 _atom_site_label
 _atom_site_symmetry_multiplicity
 _atom_site_fract_x
 _atom_site_fract_y
 _atom_site_fract_z
 _atom_site_occupancy
  Ho  Ho0  1  0.75000000  0.10108991  0.20084130  1
  Ho  Ho1  1  0.25000000  0.89890909  0.79915870  1
  Sn  Sn0  1  0.74999900  0.43775315  0.87754772  1
  Sn  Sn1  1  0.25000100  0.56224585  0.12245328  1
  Sn  Sn2  1  0.75000000  0.74736644  0.49650504  1
  Sn  Sn3  1  0.25000000  0.25263556  0.50349496  1
loop_
_geom_bond_atom_site_label_1
_geom_bond_atom_site_label_2
_geom_bond_distance
_geom_bond_site_symmetry_2
Ho0 Sn1 3.135202 1_645
Ho0 Sn1 3.135222 1_545
Ho0 Sn1 3.136477 1_555
Ho0 Sn1 3.136490 1_655
Ho0 Sn2 3.272699 1_555
Ho0 Sn2 3.278665 1_545
Ho0 Sn3 3.295128 1_555
Ho0 Sn3 3.295161 1_655
Ho0 Sn0 3.442307 1_554
Ho0 Sn0 3.454934 1_544
Ho1 Sn0 3.135203 1_465
Ho1 Sn0 3.135223 1_565
Ho1 Sn0 3.136480 1_555
Ho1 Sn0 3.136494 1_455
Ho1 Sn3 3.272691 1_555
Ho1 Sn3 3.278673 1_565
Ho1 Sn2 3.295128 1_555
Ho1 Sn2 3.295161 1_455
Ho1 Sn1 3.442314 1_556
Ho1 Sn1 3.454939 1_566
Sn0 Sn1 2.950916 1_556
Sn0 Sn1 2.950958 1_656
Sn2 Sn3 3.063471 1_655
Sn2 Sn3 3.063488 1_555
Sn2 Sn3 3.074616 1_565
Sn2 Sn3 3.074634 1_665
