# generated using pymatgen
data_YNiGe2
_symmetry_space_group_name_H-M   'P 1'
_cell_length_a   8.59956955
_cell_length_b   8.59956955
_cell_length_c   4.10619325
_cell_angle_alpha   90.00000000
_cell_angle_beta   90.00000000
_cell_angle_gamma   152.41718249
_symmetry_Int_Tables_number   1
_chemical_formula_structural   YNiGe2
_chemical_formula_sum   'Y2 Ni2 Ge4'
_cell_volume   140.60545681
_cell_formula_units_Z   2
loop_
 _symmetry_equiv_pos_site_id
 _symmetry_equiv_pos_as_xyz
  1  'x, y, z'
loop_
 _atom_site_type_symbol
 _atom_site_label
 _atom_site_symmetry_multiplicity
 _atom_site_fract_x
 _atom_site_fract_y
 _atom_site_fract_z
 _atom_site_occupancy
  Y  Y0  1  0.89184089  0.10815911  0.25000000  1
  Y  Y1  1  0.10815911  0.89184089  0.75000000  1
  Ni  Ni0  1  0.67895735  0.32104265  0.25000000  1
  Ni  Ni1  1  0.32104265  0.67895735  0.75000000  1
  Ge  Ge0  1  0.54227881  0.45772119  0.25000000  1
  Ge  Ge1  1  0.45772119  0.54227881  0.75000000  1
  Ge  Ge2  1  0.25064767  0.74935233  0.25000000  1
  Ge  Ge3  1  0.74935233  0.25064767  0.75000000  1
loop_
_geom_bond_atom_site_label_1
_geom_bond_atom_site_label_2
_geom_bond_distance
_geom_bond_site_symmetry_2
Ni0 Y1 3.133097 1_544
Ni0 Y1 3.133097 1_545
Ni0 Y1 3.133097 1_655
Ni0 Y1 3.133097 1_654
Ni1 Y0 3.133097 1_456
Ni1 Y0 3.133097 1_455
Ni1 Y0 3.133097 1_566
Ni1 Y0 3.133097 1_565
Ge0 Ni0 2.282981 1_555
Ge0 Ge1 2.491998 1_555
Ge0 Ge1 2.491998 1_554
Ge0 Y1 3.103024 1_655
Ge0 Y1 3.103024 1_654
Ge0 Y1 3.103024 1_544
Ge0 Y1 3.103024 1_545
Ge0 Y0 3.242968 1_565
Ge0 Y0 3.242968 1_455
Ge1 Ni1 2.282981 1_555
Ge1 Y0 3.103024 1_566
Ge1 Y0 3.103024 1_565
Ge1 Y0 3.103024 1_456
Ge1 Y0 3.103024 1_455
Ge1 Y1 3.242968 1_655
Ge1 Y1 3.242968 1_545
Ge2 Ni1 2.365962 1_554
Ge2 Ni1 2.365962 1_555
Ge2 Ni0 2.374143 1_565
Ge2 Ni0 2.374143 1_455
Ge2 Y0 3.124843 1_455
Ge2 Y0 3.124843 1_565
Ge2 Y1 3.143205 1_555
Ge2 Y1 3.143205 1_554
Ge3 Ni0 2.365962 1_556
Ge3 Ni0 2.365962 1_555
Ge3 Ni1 2.374143 1_655
Ge3 Ni1 2.374143 1_545
Ge3 Y1 3.124843 1_545
Ge3 Y1 3.124843 1_655
Ge3 Y0 3.143205 1_556
Ge3 Y0 3.143205 1_555
