# generated using pymatgen
data_K4Ho2MgNb10O30
_symmetry_space_group_name_H-M   'P 1'
_cell_length_a   3.94509615
_cell_length_b   13.00560624
_cell_length_c   13.00560624
_cell_angle_alpha   85.69698766
_cell_angle_beta   90.00000000
_cell_angle_gamma   90.00000000
_symmetry_Int_Tables_number   1
_chemical_formula_structural   K4Ho2MgNb10O30
_chemical_formula_sum   'K4 Ho2 Mg1 Nb10 O30'
_cell_volume   665.41543811
_cell_formula_units_Z   1
loop_
 _symmetry_equiv_pos_site_id
 _symmetry_equiv_pos_as_xyz
  1  'x, y, z'
loop_
 _atom_site_type_symbol
 _atom_site_label
 _atom_site_symmetry_multiplicity
 _atom_site_fract_x
 _atom_site_fract_y
 _atom_site_fract_z
 _atom_site_occupancy
  K  K0  1  0.50000000  0.23546176  0.73546176  1
  K  K1  1  0.50000000  0.82062789  0.32062789  1
  K  K2  1  0.50000000  0.34721307  0.19494441  1
  K  K3  1  0.50000000  0.69494441  0.84721307  1
  Ho  Ho0  1  0.50000000  0.99828183  0.02770120  1
  Ho  Ho1  1  0.50000000  0.52770120  0.49828183  1
  Mg  Mg0  1  -0.00000000  0.12897743  0.62897743  1
  Nb  Nb0  1  0.00000000  0.97662096  0.47662096  1
  Nb  Nb1  1  -0.00000000  0.51541406  0.01541406  1
  Nb  Nb2  1  -0.00000000  0.08992977  0.21062888  1
  Nb  Nb3  1  0.00000000  0.94419312  0.78466334  1
  Nb  Nb4  1  -0.00000000  0.79668643  0.07801584  1
  Nb  Nb5  1  -0.00000000  0.44736770  0.73042149  1
  Nb  Nb6  1  -0.00000000  0.23042149  0.94736770  1
  Nb  Nb7  1  0.00000000  0.57801584  0.29668643  1
  Nb  Nb8  1  0.00000000  0.71062888  0.58992977  1
  Nb  Nb9  1  0.00000000  0.28466334  0.44419312  1
  O  O0  1  0.50000000  0.08035554  0.17697815  1
  O  O1  1  0.50000000  0.92208503  0.79190113  1
  O  O2  1  0.50000000  0.81298270  0.06622512  1
  O  O3  1  0.50000000  0.43553762  0.69017394  1
  O  O4  1  0.50000000  0.19017394  0.93553762  1
  O  O5  1  0.50000000  0.56622512  0.31298370  1
  O  O6  1  0.50000000  0.67697815  0.58035554  1
  O  O7  1  0.50000000  0.29190213  0.42208503  1
  O  O8  1  0.00000000  0.70953973  0.20953973  1
  O  O9  1  0.00000000  0.31448987  0.81448987  1
  O  O10  1  0.00000000  0.77520669  0.71284145  1
  O  O11  1  -0.00000000  0.21284145  0.27520669  1
  O  O12  1  0.50000000  0.97263250  0.47263250  1
  O  O13  1  0.50000000  0.49865693  0.99865693  1
  O  O14  1  -0.00000000  0.09869674  0.04249830  1
  O  O15  1  0.00000000  0.90574010  0.93780712  1
  O  O16  1  -0.00000000  0.92872195  0.13716305  1
  O  O17  1  0.00000000  0.28395907  0.59220552  1
  O  O18  1  -0.00000000  0.09220552  0.78395907  1
  O  O19  1  -0.00000000  0.63716305  0.42872195  1
  O  O20  1  0.00000000  0.54249830  0.59869674  1
  O  O21  1  -0.00000000  0.43780712  0.40574010  1
  O  O22  1  -0.00000000  0.99047817  0.32219373  1
  O  O23  1  -0.00000000  0.97881784  0.63042065  1
  O  O24  1  -0.00000000  0.66304435  0.00060926  1
  O  O25  1  -0.00000000  0.52848711  0.83906847  1
  O  O26  1  0.00000000  0.33906847  0.02848711  1
  O  O27  1  -0.00000000  0.50060926  0.16304435  1
  O  O28  1  -0.00000000  0.82219373  0.49047817  1
  O  O29  1  -0.00000000  0.13042065  0.47881784  1
loop_
_geom_bond_atom_site_label_1
_geom_bond_atom_site_label_2
_geom_bond_distance
_geom_bond_site_symmetry_2
K0 O9 2.482388 1_655
K0 O9 2.482388 1_555
K0 O4 2.624479 1_555
K0 O3 2.624479 1_555
K0 O17 2.753852 1_555
K0 O17 2.753852 1_655
K0 O18 2.753852 1_555
K0 O18 2.753852 1_655
K1 O8 2.894632 1_555
K1 O8 2.894632 1_655
K1 O12 2.898764 1_555
K1 O28 2.962738 1_555
K1 O28 2.962738 1_655
K1 O22 2.962738 1_655
K1 O22 2.962738 1_555
K2 O11 2.785838 1_655
K2 O11 2.785838 1_555
K2 O27 2.814060 1_655
K2 O27 2.814060 1_555
K2 O26 2.936541 1_555
K2 O26 2.936541 1_655
K2 O7 2.987523 1_555
K2 O13 3.105133 1_554
K2 O5 3.335601 1_555
K3 O10 2.785838 1_555
K3 O10 2.785838 1_655
K3 O24 2.814060 1_656
K3 O24 2.814060 1_556
K3 O25 2.936541 1_555
K3 O25 2.936541 1_655
K3 O1 2.987525 1_555
K3 O13 3.105133 1_555
K3 O2 3.335594 1_556
Ho0 O0 2.284631 1_565
Ho0 O14 2.381432 1_565
Ho0 O14 2.381432 1_665
Ho0 O2 2.424374 1_555
Ho0 O16 2.557888 1_655
Ho0 O16 2.557888 1_555
Ho0 O15 2.630118 1_654
Ho0 O15 2.630118 1_554
Ho0 O4 2.686304 1_564
Ho1 O6 2.284631 1_555
Ho1 O20 2.381432 1_555
Ho1 O20 2.381432 1_655
Ho1 O5 2.424361 1_555
Ho1 O19 2.557888 1_555
Ho1 O19 2.557888 1_655
Ho1 O21 2.630118 1_655
Ho1 O21 2.630118 1_555
Ho1 O3 2.686304 1_555
Mg0 O29 1.951598 1_555
Mg0 O23 1.951598 1_545
Mg0 O17 2.036376 1_555
Mg0 O18 2.036376 1_555
Nb0 O12 1.974014 1_455
Nb0 O12 1.974014 1_555
Nb0 O29 2.002605 1_565
Nb0 O23 2.002605 1_555
Nb0 O22 2.002976 1_555
Nb0 O28 2.002976 1_555
Nb1 O24 1.915223 1_555
Nb1 O27 1.915223 1_555
Nb1 O13 1.998266 1_554
Nb1 O13 1.998266 1_454
Nb1 O26 2.287017 1_555
Nb1 O25 2.287017 1_554
Nb2 O11 1.860696 1_555
Nb2 O22 1.869931 1_545
Nb2 O0 2.026367 1_555
Nb2 O0 2.026367 1_455
Nb2 O14 2.181051 1_555
Nb2 O16 2.368393 1_545
Nb3 O18 1.924325 1_565
Nb3 O1 1.994597 1_455
Nb3 O1 1.994597 1_555
Nb3 O15 2.016832 1_555
Nb3 O23 2.022706 1_555
Nb3 O10 2.451689 1_555
Nb4 O16 1.933584 1_555
Nb4 O8 1.979806 1_555
Nb4 O2 1.988593 1_455
Nb4 O2 1.988593 1_555
Nb4 O24 2.072930 1_555
Nb4 O15 2.224555 1_554
Nb5 O25 1.825752 1_555
Nb5 O9 1.974442 1_555
Nb5 O20 2.036563 1_555
Nb5 O3 2.049560 1_555
Nb5 O3 2.049560 1_455
Nb6 O26 1.825752 1_556
Nb6 O9 1.974442 1_555
Nb6 O14 2.036563 1_556
Nb6 O4 2.049560 1_455
Nb6 O4 2.049560 1_555
Nb7 O19 1.933584 1_555
Nb7 O8 1.979806 1_555
Nb7 O5 1.988595 1_555
Nb7 O5 1.988595 1_455
Nb7 O27 2.072930 1_555
Nb7 O21 2.224555 1_555
Nb8 O10 1.860696 1_555
Nb8 O28 1.869931 1_555
Nb8 O6 2.026367 1_555
Nb8 O6 2.026367 1_455
Nb8 O20 2.181051 1_555
Nb8 O19 2.368393 1_555
Nb9 O17 1.924325 1_555
Nb9 O7 1.994598 1_555
Nb9 O7 1.994598 1_455
Nb9 O21 2.016832 1_555
Nb9 O29 2.022706 1_555
Nb9 O11 2.451689 1_555
