# generated using pymatgen
data_CeNdC4
_symmetry_space_group_name_H-M   'P 1'
_cell_length_a   3.80974100
_cell_length_b   3.80974100
_cell_length_c   6.40087600
_cell_angle_alpha   90.00000000
_cell_angle_beta   90.00000000
_cell_angle_gamma   90.00000000
_symmetry_Int_Tables_number   1
_chemical_formula_structural   CeNdC4
_chemical_formula_sum   'Ce1 Nd1 C4'
_cell_volume   92.90312389
_cell_formula_units_Z   1
loop_
 _symmetry_equiv_pos_site_id
 _symmetry_equiv_pos_as_xyz
  1  'x, y, z'
loop_
 _atom_site_type_symbol
 _atom_site_label
 _atom_site_symmetry_multiplicity
 _atom_site_fract_x
 _atom_site_fract_y
 _atom_site_fract_z
 _atom_site_occupancy
  Ce  Ce0  1  0.00000000  0.00000000  0.00000000  1
  Nd  Nd0  1  0.50000000  0.50000000  0.50000000  1
  C  C0  1  0.00000000  0.00000000  0.60173800  1
  C  C1  1  0.50000000  0.50000000  0.10177500  1
  C  C2  1  0.50000000  0.50000000  0.89822500  1
  C  C3  1  0.00000000  0.00000000  0.39826200  1
loop_
_geom_bond_atom_site_label_1
_geom_bond_atom_site_label_2
_geom_bond_distance
_geom_bond_site_symmetry_2
C0 C3 1.302425 1_555
C0 Ce0 2.549226 1_556
C0 Nd0 2.771487 1_455
C0 Nd0 2.771487 1_445
C0 Nd0 2.771487 1_555
C0 Nd0 2.771487 1_545
C1 C2 1.302898 1_554
C1 Nd0 2.548989 1_555
C1 Ce0 2.771543 1_655
C1 Ce0 2.771543 1_665
C1 Ce0 2.771543 1_565
C1 Ce0 2.771543 1_555
C2 Nd0 2.548989 1_555
C2 Ce0 2.771543 1_666
C2 Ce0 2.771543 1_656
C2 Ce0 2.771543 1_556
C2 Ce0 2.771543 1_566
C3 Ce0 2.549226 1_555
C3 Nd0 2.771487 1_455
C3 Nd0 2.771487 1_445
C3 Nd0 2.771487 1_555
C3 Nd0 2.771487 1_545
