# generated using pymatgen
data_Sr4GeN4
_symmetry_space_group_name_H-M   'P 1'
_cell_length_a   6.13252900
_cell_length_b   11.90901900
_cell_length_c   9.94429500
_cell_angle_alpha   90.00000000
_cell_angle_beta   90.00000000
_cell_angle_gamma   90.00000000
_symmetry_Int_Tables_number   1
_chemical_formula_structural   Sr4GeN4
_chemical_formula_sum   'Sr16 Ge4 N16'
_cell_volume   726.25577370
_cell_formula_units_Z   4
loop_
 _symmetry_equiv_pos_site_id
 _symmetry_equiv_pos_as_xyz
  1  'x, y, z'
loop_
 _atom_site_type_symbol
 _atom_site_label
 _atom_site_symmetry_multiplicity
 _atom_site_fract_x
 _atom_site_fract_y
 _atom_site_fract_z
 _atom_site_occupancy
  Sr  Sr0  1  0.11837200  0.37409500  0.60375500  1
  Sr  Sr1  1  0.38162800  0.62590500  0.60375500  1
  Sr  Sr2  1  0.11837200  0.12590500  0.89624500  1
  Sr  Sr3  1  0.38162800  0.87409500  0.89624500  1
  Sr  Sr4  1  0.88162800  0.62590500  0.39624500  1
  Sr  Sr5  1  0.61837200  0.37409500  0.39624500  1
  Sr  Sr6  1  0.88162800  0.87409500  0.10375500  1
  Sr  Sr7  1  0.61837200  0.12590500  0.10375500  1
  Sr  Sr8  1  0.75000000  0.50000000  0.06973900  1
  Sr  Sr9  1  0.75000000  0.00000000  0.43026100  1
  Sr  Sr10  1  0.25000000  0.50000000  0.93026100  1
  Sr  Sr11  1  0.25000000  0.00000000  0.56973900  1
  Sr  Sr12  1  0.64773200  0.25000000  0.75000000  1
  Sr  Sr13  1  0.85226800  0.75000000  0.75000000  1
  Sr  Sr14  1  0.35226800  0.75000000  0.25000000  1
  Sr  Sr15  1  0.14773200  0.25000000  0.25000000  1
  Ge  Ge0  1  0.75000000  0.50000000  0.75252300  1
  Ge  Ge1  1  0.75000000  0.00000000  0.74747700  1
  Ge  Ge2  1  0.25000000  0.50000000  0.24747700  1
  Ge  Ge3  1  0.25000000  0.00000000  0.25252300  1
  N  N0  1  0.51735300  0.42775500  0.64598800  1
  N  N1  1  0.98264700  0.57224500  0.64598800  1
  N  N2  1  0.51735300  0.07224500  0.85401200  1
  N  N3  1  0.98264700  0.92775500  0.85401200  1
  N  N4  1  0.48264700  0.57224500  0.35401200  1
  N  N5  1  0.01735300  0.42775500  0.35401200  1
  N  N6  1  0.48264700  0.92775500  0.14598800  1
  N  N7  1  0.01735300  0.07224500  0.14598800  1
  N  N8  1  0.90405400  0.11159500  0.64376600  1
  N  N9  1  0.59594600  0.88840500  0.64376600  1
  N  N10  1  0.90405400  0.38840500  0.85623400  1
  N  N11  1  0.59594600  0.61159500  0.85623400  1
  N  N12  1  0.09594600  0.88840500  0.35623400  1
  N  N13  1  0.40405400  0.11159500  0.35623400  1
  N  N14  1  0.09594600  0.61159500  0.14376600  1
  N  N15  1  0.40405400  0.38840500  0.14376600  1
loop_
_geom_bond_atom_site_label_1
_geom_bond_atom_site_label_2
_geom_bond_distance
_geom_bond_site_symmetry_2
Ge0 N11 1.929349 1_555
Ge0 N10 1.929349 1_555
Ge0 N0 1.974362 1_555
Ge0 N1 1.974362 1_555
Ge1 N8 1.929349 1_555
Ge1 N9 1.929349 1_545
Ge1 N3 1.974362 1_545
Ge1 N2 1.974362 1_555
Ge2 N15 1.929349 1_555
Ge2 N14 1.929349 1_555
Ge2 N4 1.974362 1_555
Ge2 N5 1.974362 1_555
Ge3 N12 1.929349 1_545
Ge3 N13 1.929349 1_555
Ge3 N6 1.974362 1_545
Ge3 N7 1.974362 1_555
N0 Sr12 2.488037 1_555
N0 Sr1 2.537261 1_555
N0 Sr0 2.563474 1_555
N0 Sr5 2.638184 1_555
N1 Sr13 2.488037 1_555
N1 Sr0 2.537261 1_655
N1 Sr1 2.563474 1_655
N1 Sr4 2.638184 1_555
N2 Sr12 2.488037 1_555
N2 Sr3 2.537261 1_545
N2 Sr2 2.563474 1_555
N2 Sr7 2.638184 1_556
N3 Sr13 2.488037 1_555
N3 Sr2 2.537261 1_665
N3 Sr3 2.563474 1_655
N3 Sr6 2.638184 1_556
N4 Sr14 2.488037 1_555
N4 Sr5 2.537261 1_555
N4 Sr4 2.563474 1_555
N4 Sr1 2.638184 1_555
N5 Sr15 2.488037 1_555
N5 Sr4 2.537261 1_455
N5 Sr5 2.563474 1_455
N5 Sr0 2.638184 1_555
N6 Sr14 2.488037 1_555
N6 Sr7 2.537261 1_565
N6 Sr6 2.563474 1_555
N6 Sr3 2.638184 1_554
N7 Sr15 2.488037 1_555
N7 Sr6 2.537261 1_445
N7 Sr7 2.563474 1_455
N7 Sr2 2.638184 1_554
N8 Sr12 2.510715 1_555
N8 Sr11 2.609402 1_655
N8 Sr9 2.677039 1_555
N8 Sr2 2.839049 1_655
N9 Sr13 2.510715 1_555
N9 Sr11 2.609402 1_565
N9 Sr9 2.677039 1_565
N9 Sr3 2.839049 1_555
N10 Sr12 2.510715 1_555
N10 Sr10 2.609402 1_655
N10 Sr8 2.677039 1_556
N10 Sr0 2.839049 1_655
N11 Sr13 2.510715 1_555
N11 Sr10 2.609402 1_555
N11 Sr8 2.677039 1_556
N11 Sr1 2.839049 1_555
N12 Sr14 2.510715 1_555
N12 Sr9 2.609402 1_465
N12 Sr11 2.677039 1_565
N12 Sr6 2.839049 1_455
N13 Sr15 2.510715 1_555
N13 Sr9 2.609402 1_555
N13 Sr11 2.677039 1_555
N13 Sr7 2.839049 1_555
N14 Sr14 2.510715 1_555
N14 Sr8 2.609402 1_455
N14 Sr10 2.677039 1_554
N14 Sr4 2.839049 1_455
N15 Sr15 2.510715 1_555
N15 Sr8 2.609402 1_555
N15 Sr10 2.677039 1_554
N15 Sr5 2.839049 1_555
