# generated using pymatgen
data_MnNO5
_symmetry_space_group_name_H-M   'P 1'
_cell_length_a   2.98701300
_cell_length_b   14.56112885
_cell_length_c   17.25002429
_cell_angle_alpha   113.52919657
_cell_angle_beta   90.00000000
_cell_angle_gamma   90.00000000
_symmetry_Int_Tables_number   1
_chemical_formula_structural   MnNO5
_chemical_formula_sum   'Mn8 N8 O40'
_cell_volume   687.89691374
_cell_formula_units_Z   8
loop_
 _symmetry_equiv_pos_site_id
 _symmetry_equiv_pos_as_xyz
  1  'x, y, z'
loop_
 _atom_site_type_symbol
 _atom_site_label
 _atom_site_symmetry_multiplicity
 _atom_site_fract_x
 _atom_site_fract_y
 _atom_site_fract_z
 _atom_site_occupancy
  Mn  Mn0  1  0.79162600  0.26410600  0.07867300  1
  Mn  Mn1  1  0.29162600  0.23589400  0.92132700  1
  Mn  Mn2  1  0.20837400  0.73589400  0.92132700  1
  Mn  Mn3  1  0.70837400  0.76410600  0.07867300  1
  Mn  Mn4  1  0.93094400  0.68626600  0.42215100  1
  Mn  Mn5  1  0.43094400  0.81373400  0.57784900  1
  Mn  Mn6  1  0.06905600  0.31373400  0.57784900  1
  Mn  Mn7  1  0.56905600  0.18626600  0.42215100  1
  N  N0  1  0.66048900  0.60059100  0.14475600  1
  N  N1  1  0.16048900  0.89940900  0.85524400  1
  N  N2  1  0.33951100  0.39940900  0.85524400  1
  N  N3  1  0.83951100  0.10059100  0.14475600  1
  N  N4  1  0.94146700  0.46032400  0.36025400  1
  N  N5  1  0.44146700  0.03967600  0.63974600  1
  N  N6  1  0.05853300  0.53967600  0.63974600  1
  N  N7  1  0.55853300  0.96032400  0.36025400  1
  O  O0  1  0.29459600  0.34050600  0.13598600  1
  O  O1  1  0.79459600  0.15949400  0.86401400  1
  O  O2  1  0.70540400  0.65949400  0.86401400  1
  O  O3  1  0.20540400  0.84050600  0.13598600  1
  O  O4  1  0.66068400  0.69661300  0.16313200  1
  O  O5  1  0.16068400  0.80338700  0.83686800  1
  O  O6  1  0.33931600  0.30338700  0.83686800  1
  O  O7  1  0.83931600  0.19661300  0.16313200  1
  O  O8  1  0.78511700  0.53898700  0.07524600  1
  O  O9  1  0.28511700  0.96101300  0.92475400  1
  O  O10  1  0.21488300  0.46101300  0.92475400  1
  O  O11  1  0.71488300  0.03898700  0.07524600  1
  O  O12  1  0.52975200  0.57388600  0.20142400  1
  O  O13  1  0.02975200  0.92611400  0.79857600  1
  O  O14  1  0.47024800  0.42611400  0.79857600  1
  O  O15  1  0.97024800  0.07388600  0.20142400  1
  O  O16  1  0.29226900  0.18380500  0.00876700  1
  O  O17  1  0.79226900  0.31619500  0.99123300  1
  O  O18  1  0.70773100  0.81619500  0.99123300  1
  O  O19  1  0.20773100  0.68380500  0.00876700  1
  O  O20  1  0.43554700  0.70530500  0.36299200  1
  O  O21  1  0.93554700  0.79469500  0.63700800  1
  O  O22  1  0.56445300  0.29469500  0.63700800  1
  O  O23  1  0.06445300  0.20530500  0.36299200  1
  O  O24  1  0.99803900  0.53805900  0.34143700  1
  O  O25  1  0.49803900  0.96194100  0.65856300  1
  O  O26  1  0.00196100  0.46194100  0.65856300  1
  O  O27  1  0.50196100  0.03805900  0.34143700  1
  O  O28  1  0.76553300  0.46859800  0.42761700  1
  O  O29  1  0.26553300  0.03140200  0.57238300  1
  O  O30  1  0.23446700  0.53140200  0.57238300  1
  O  O31  1  0.73446700  0.96859800  0.42761700  1
  O  O32  1  0.07264200  0.37802300  0.30694000  1
  O  O33  1  0.57264200  0.12197700  0.69306000  1
  O  O34  1  0.92735800  0.62197700  0.69306000  1
  O  O35  1  0.42735800  0.87802300  0.30694000  1
  O  O36  1  0.43207500  0.67657000  0.49392100  1
  O  O37  1  0.93207500  0.82343000  0.50607900  1
  O  O38  1  0.56792500  0.32342900  0.50607900  1
  O  O39  1  0.06792500  0.17657000  0.49392100  1
loop_
_geom_bond_atom_site_label_1
_geom_bond_atom_site_label_2
_geom_bond_distance
_geom_bond_site_symmetry_2
Mn0 O0 1.881757 1_555
Mn0 O0 1.895787 1_655
Mn0 O17 1.940057 1_554
Mn0 O16 1.979996 1_555
Mn0 O16 1.982891 1_655
Mn0 O7 2.062030 1_555
Mn1 O1 1.881757 1_455
Mn1 O1 1.895787 1_555
Mn1 O16 1.940057 1_556
Mn1 O17 1.979996 1_455
Mn1 O17 1.982891 1_555
Mn1 O6 2.062030 1_555
Mn2 O2 1.881757 1_555
Mn2 O2 1.895787 1_455
Mn2 O19 1.940057 1_556
Mn2 O18 1.979996 1_555
Mn2 O18 1.982891 1_455
Mn2 O5 2.062030 1_555
Mn3 O3 1.881757 1_655
Mn3 O3 1.895787 1_555
Mn3 O18 1.940057 1_554
Mn3 O19 1.979996 1_655
Mn3 O19 1.982891 1_555
Mn3 O4 2.062030 1_555
Mn4 O20 1.879849 1_555
Mn4 O20 1.901570 1_655
Mn4 O37 1.943287 1_555
Mn4 O36 1.978055 1_555
Mn4 O36 1.983150 1_655
Mn4 O24 2.058370 1_555
Mn5 O21 1.879849 1_455
Mn5 O21 1.901570 1_555
Mn5 O36 1.943287 1_555
Mn5 O37 1.978055 1_455
Mn5 O37 1.983150 1_555
Mn5 O25 2.058370 1_555
Mn6 O22 1.879849 1_555
Mn6 O22 1.901570 1_455
Mn6 O39 1.943287 1_555
Mn6 O38 1.978051 1_555
Mn6 O38 1.983146 1_455
Mn6 O26 2.058370 1_555
Mn7 O23 1.879849 1_655
Mn7 O23 1.901570 1_555
Mn7 O38 1.943277 1_555
Mn7 O39 1.978055 1_655
Mn7 O39 1.983150 1_555
Mn7 O27 2.058370 1_555
N0 O8 1.233766 1_555
N0 O12 1.250104 1_555
N0 O4 1.304432 1_555
N1 O9 1.233766 1_555
N1 O13 1.250104 1_555
N1 O5 1.304432 1_555
N2 O10 1.233766 1_555
N2 O14 1.250104 1_555
N2 O6 1.304432 1_555
N3 O11 1.233766 1_555
N3 O15 1.250104 1_555
N3 O7 1.304432 1_555
N4 O28 1.236600 1_555
N4 O32 1.247193 1_655
N4 O24 1.307091 1_555
N5 O29 1.236600 1_555
N5 O33 1.247193 1_555
N5 O25 1.307091 1_545
N6 O30 1.236600 1_555
N6 O34 1.247193 1_455
N6 O26 1.307091 1_555
N7 O31 1.236600 1_555
N7 O35 1.247193 1_555
N7 O27 1.307091 1_565
