# generated using pymatgen
data_InAg3F6
_symmetry_space_group_name_H-M   'P 1'
_cell_length_a   6.05340175
_cell_length_b   6.14375700
_cell_length_c   8.68111044
_cell_angle_alpha   90.00000000
_cell_angle_beta   90.64007681
_cell_angle_gamma   90.00000000
_symmetry_Int_Tables_number   1
_chemical_formula_structural   InAg3F6
_chemical_formula_sum   'In2 Ag6 F12'
_cell_volume   322.83581495
_cell_formula_units_Z   2
loop_
 _symmetry_equiv_pos_site_id
 _symmetry_equiv_pos_as_xyz
  1  'x, y, z'
loop_
 _atom_site_type_symbol
 _atom_site_label
 _atom_site_symmetry_multiplicity
 _atom_site_fract_x
 _atom_site_fract_y
 _atom_site_fract_z
 _atom_site_occupancy
  In  In0  1  0.00000000  0.00000000  0.00000000  1
  In  In1  1  0.50000000  0.50000000  0.50000000  1
  Ag  Ag0  1  0.00000000  0.00000000  0.50000000  1
  Ag  Ag1  1  0.50000000  0.50000000  0.00000000  1
  Ag  Ag2  1  0.98504300  0.55801500  0.25585200  1
  Ag  Ag3  1  0.01495700  0.44198500  0.74414800  1
  Ag  Ag4  1  0.51495700  0.05801500  0.24414800  1
  Ag  Ag5  1  0.48504300  0.94198500  0.75585200  1
  F  F0  1  0.84108800  0.28562500  0.07748500  1
  F  F1  1  0.15891200  0.71437500  0.92251500  1
  F  F2  1  0.65891200  0.78562500  0.42251500  1
  F  F3  1  0.34108800  0.21437500  0.57748500  1
  F  F4  1  0.12551900  0.93237100  0.22490700  1
  F  F5  1  0.87448100  0.06762900  0.77509300  1
  F  F6  1  0.37448100  0.43237100  0.27509300  1
  F  F7  1  0.62551900  0.56762900  0.72490700  1
  F  F8  1  0.71000500  0.82774600  0.05755500  1
  F  F9  1  0.28999500  0.17225400  0.94244500  1
  F  F10  1  0.78999500  0.32774600  0.44244500  1
  F  F11  1  0.21000500  0.67225400  0.55755500  1
loop_
_geom_bond_atom_site_label_1
_geom_bond_atom_site_label_2
_geom_bond_distance
_geom_bond_site_symmetry_2
Ag0 F11 2.430240 1_545
Ag0 F10 2.430240 1_455
Ag0 F2 2.533627 1_445
Ag0 F3 2.533627 1_555
Ag0 F4 2.548251 1_545
Ag0 F5 2.548251 1_455
Ag1 F9 2.430240 1_554
Ag1 F8 2.430240 1_555
Ag1 F0 2.533627 1_555
Ag1 F1 2.533627 1_554
Ag1 F6 2.548251 1_555
Ag1 F7 2.548251 1_554
Ag2 F0 2.434632 1_555
Ag2 F10 2.462129 1_555
Ag2 F4 2.467825 1_655
Ag2 F6 2.484436 1_655
Ag3 F1 2.434632 1_555
Ag3 F11 2.462129 1_555
Ag3 F5 2.467825 1_455
Ag3 F7 2.484436 1_455
Ag4 F2 2.434632 1_545
Ag4 F8 2.462129 1_545
Ag4 F6 2.467825 1_555
Ag4 F4 2.484436 1_545
Ag5 F3 2.434632 1_565
Ag5 F9 2.462129 1_565
Ag5 F7 2.467825 1_555
Ag5 F5 2.484436 1_565
F0 In0 2.114627 1_655
F1 In0 2.114627 1_566
F2 In1 2.114627 1_555
F3 In1 2.114627 1_555
F4 In0 2.128108 1_565
F5 In0 2.128108 1_656
F6 In1 2.128108 1_555
F7 In1 2.128108 1_555
F8 In0 2.114435 1_665
F9 In0 2.114435 1_556
F10 In1 2.114435 1_555
F11 In1 2.114435 1_555
