# generated using pymatgen
data_Tb8Rh5C12
_symmetry_space_group_name_H-M   'P 1'
_cell_length_a   3.58714000
_cell_length_b   7.45170488
_cell_length_c   14.11697064
_cell_angle_alpha   93.65584647
_cell_angle_beta   97.29919249
_cell_angle_gamma   90.00000000
_symmetry_Int_Tables_number   1
_chemical_formula_structural   Tb8Rh5C12
_chemical_formula_sum   'Tb8 Rh5 C12'
_cell_volume   373.51884159
_cell_formula_units_Z   1
loop_
 _symmetry_equiv_pos_site_id
 _symmetry_equiv_pos_as_xyz
  1  'x, y, z'
loop_
 _atom_site_type_symbol
 _atom_site_label
 _atom_site_symmetry_multiplicity
 _atom_site_fract_x
 _atom_site_fract_y
 _atom_site_fract_z
 _atom_site_occupancy
  Tb  Tb0  1  0.29387800  0.88360900  0.58775600  1
  Tb  Tb1  1  0.70612200  0.11639100  0.41224400  1
  Tb  Tb2  1  0.30066900  0.39069900  0.60133800  1
  Tb  Tb3  1  0.69933100  0.60930100  0.39866200  1
  Tb  Tb4  1  0.41187400  0.17175900  0.82374700  1
  Tb  Tb5  1  0.58812600  0.82824100  0.17625300  1
  Tb  Tb6  1  0.45306400  0.70334000  0.90612700  1
  Tb  Tb7  1  0.54693600  0.29666000  0.09387300  1
  Rh  Rh0  1  0.00000000  0.00000000  0.00000000  1
  Rh  Rh1  1  0.10964800  0.49104200  0.21929700  1
  Rh  Rh2  1  0.89035200  0.50895800  0.78070300  1
  Rh  Rh3  1  0.11681200  0.12771300  0.23362400  1
  Rh  Rh4  1  0.88318800  0.87228700  0.76637600  1
  C  C0  1  0.02269600  0.75568100  0.04539100  1
  C  C1  1  0.97730400  0.24431900  0.95460900  1
  C  C2  1  0.04795800  0.61470000  0.09591600  1
  C  C3  1  0.95204200  0.38530000  0.90408400  1
  C  C4  1  0.16817400  0.34741100  0.33634700  1
  C  C5  1  0.83182600  0.65258900  0.66365300  1
  C  C6  1  0.21617800  0.36495100  0.43235500  1
  C  C7  1  0.78382200  0.63504900  0.56764500  1
  C  C8  1  0.15883500  0.87523800  0.31767000  1
  C  C9  1  0.84116500  0.12476200  0.68233000  1
  C  C10  1  0.20698600  0.86927000  0.41397200  1
  C  C11  1  0.79301400  0.13073000  0.58602800  1
loop_
_geom_bond_atom_site_label_1
_geom_bond_atom_site_label_2
_geom_bond_distance
_geom_bond_site_symmetry_2
Rh0 Tb7 3.075380 1_555
Rh0 Tb6 3.075380 1_444
Rh0 Tb7 3.075382 1_455
Rh0 Tb6 3.075382 1_544
Rh1 Tb7 2.841190 1_455
Rh1 Tb7 2.841190 1_555
Rh1 Tb3 3.164947 1_455
Rh1 Tb3 3.164949 1_555
Rh2 Tb6 2.841190 1_655
Rh2 Tb6 2.841190 1_555
Rh2 Tb2 3.164947 1_655
Rh2 Tb2 3.164949 1_555
Rh3 Tb5 2.934569 1_545
Rh3 Tb5 2.934571 1_445
Rh3 Tb7 2.991307 1_555
Rh3 Tb7 2.991309 1_455
Rh4 Tb4 2.934569 1_565
Rh4 Tb4 2.934571 1_665
Rh4 Tb6 2.991307 1_555
Rh4 Tb6 2.991309 1_655
C0 C2 1.303740 1_555
C0 Rh0 1.966547 1_565
C0 Tb5 2.596065 1_555
C0 Tb5 2.596070 1_455
C0 Tb6 2.659688 1_454
C0 Tb6 2.659688 1_554
C1 C3 1.303740 1_555
C1 Rh0 1.966547 1_656
C1 Tb4 2.596065 1_555
C1 Tb4 2.596070 1_655
C1 Tb7 2.659688 1_556
C1 Tb7 2.659688 1_656
C2 Rh1 2.009614 1_555
C2 Tb5 2.604661 1_555
C2 Tb5 2.604664 1_455
C2 Tb7 2.970792 1_555
C2 Tb7 2.970794 1_455
C3 Rh2 2.009614 1_555
C3 Tb4 2.604661 1_555
C3 Tb4 2.604664 1_655
C3 Tb6 2.970792 1_555
C3 Tb6 2.970794 1_655
C4 C6 1.342309 1_555
C4 Rh1 2.014297 1_555
C4 Rh3 2.108643 1_555
C4 Tb1 2.746832 1_555
C4 Tb1 2.746835 1_455
C4 Tb3 2.750962 1_555
C4 Tb3 2.750964 1_455
C5 C7 1.342309 1_555
C5 Rh2 2.014297 1_555
C5 Rh4 2.108643 1_555
C5 Tb0 2.746832 1_555
C5 Tb0 2.746835 1_655
C5 Tb2 2.750962 1_555
C5 Tb2 2.750964 1_655
C6 Tb2 2.361637 1_555
C6 Tb1 2.580651 1_555
C6 Tb1 2.580653 1_455
C6 Tb3 2.620175 1_555
C6 Tb3 2.620178 1_455
C7 Tb3 2.361637 1_555
C7 Tb0 2.580651 1_555
C7 Tb0 2.580653 1_655
C7 Tb2 2.620175 1_555
C7 Tb2 2.620178 1_655
C8 Rh3 2.282370 1_565
C8 Tb5 2.677979 1_555
C8 Tb5 2.677981 1_455
C8 Tb3 2.952810 1_455
C8 Tb3 2.952810 1_555
C9 Rh4 2.282370 1_545
C9 Tb4 2.677979 1_555
C9 Tb4 2.677981 1_655
C9 Tb2 2.952810 1_655
C9 Tb2 2.952810 1_555
C10 C8 1.352063 1_555
C10 Tb0 2.428896 1_555
C10 Tb1 2.571814 1_465
C10 Tb1 2.571814 1_565
C10 Tb3 2.638607 1_455
C10 Tb3 2.638607 1_555
C11 C9 1.352063 1_555
C11 Tb1 2.428896 1_555
C11 Tb0 2.571814 1_645
C11 Tb0 2.571814 1_545
C11 Tb2 2.638607 1_555
C11 Tb2 2.638607 1_655
