# generated using pymatgen
data_Li3(NiO2)4
_symmetry_space_group_name_H-M   'P 1'
_cell_length_a   5.00858329
_cell_length_b   5.74677482
_cell_length_c   5.60311700
_cell_angle_alpha   119.17247569
_cell_angle_beta   89.99502165
_cell_angle_gamma   107.79503155
_symmetry_Int_Tables_number   1
_chemical_formula_structural   Li3(NiO2)4
_chemical_formula_sum   'Li3 Ni4 O8'
_cell_volume   131.91408035
_cell_formula_units_Z   1
loop_
 _symmetry_equiv_pos_site_id
 _symmetry_equiv_pos_as_xyz
  1  'x, y, z'
loop_
 _atom_site_type_symbol
 _atom_site_label
 _atom_site_symmetry_multiplicity
 _atom_site_fract_x
 _atom_site_fract_y
 _atom_site_fract_z
 _atom_site_occupancy
  Li  Li0  1  0.00001032  0.00002495  0.00001659  1
  Li  Li1  1  0.00001861  0.50003440  0.00002485  1
  Li  Li2  1  0.99997221  0.50004912  0.50004215  1
  Ni  Ni0  1  0.50809524  0.50372381  0.25175557  1
  Ni  Ni1  1  0.49190072  0.49625472  0.74822073  1
  Ni  Ni2  1  0.49996744  0.00012671  0.74832862  1
  Ni  Ni3  1  0.50004438  0.99985877  0.25165427  1
  O  O0  1  0.29615005  0.74228223  0.37100077  1
  O  O1  1  0.70384788  0.25770030  0.62880293  1
  O  O2  1  0.28197482  0.74807639  0.87408262  1
  O  O3  1  0.71802707  0.25191255  0.12610529  1
  O  O4  1  0.28007995  0.28218367  0.90030144  1
  O  O5  1  0.28015448  0.28220329  0.38195652  1
  O  O6  1  0.71982078  0.71780350  0.61803817  1
  O  O7  1  0.71994204  0.71776559  0.09966848  1
loop_
_geom_bond_atom_site_label_1
_geom_bond_atom_site_label_2
_geom_bond_distance
_geom_bond_site_symmetry_2
Li0 O4 2.098080 1_554
Li0 O7 2.098253 1_445
Li0 O5 2.098771 1_555
Li0 O6 2.099026 1_444
Li0 O3 2.200373 1_455
Li0 O2 2.200538 1_544
Li1 O7 2.058355 1_455
Li1 O4 2.058747 1_554
Li1 O2 2.067416 1_554
Li1 O3 2.068322 1_455
Li1 O0 2.091894 1_555
Li1 O1 2.092899 1_454
Li2 O6 2.058753 1_555
Li2 O5 2.059246 1_655
Li2 O3 2.067487 1_555
Li2 O2 2.068024 1_655
Li2 O1 2.092071 1_555
Li2 O0 2.092849 1_655
Ni0 O0 1.857202 1_555
Ni0 O4 1.862948 1_554
Ni0 O5 1.863629 1_555
Ni0 O7 1.894468 1_555
Ni0 O6 1.895154 1_555
Ni0 O3 1.905785 1_555
Ni1 O1 1.857194 1_555
Ni1 O7 1.862978 1_556
Ni1 O6 1.863624 1_555
Ni1 O4 1.894511 1_555
Ni1 O5 1.895120 1_555
Ni1 O2 1.905806 1_555
Ni2 O1 1.929958 1_555
Ni2 O0 1.931157 1_545
Ni2 O2 1.953167 1_545
Ni2 O3 1.953367 1_556
Ni2 O4 2.076241 1_555
Ni2 O6 2.077256 1_545
Ni3 O0 1.929268 1_555
Ni3 O1 1.930412 1_565
Ni3 O3 1.952336 1_565
Ni3 O2 1.952553 1_554
Ni3 O7 2.076437 1_555
Ni3 O5 2.077489 1_565
