# generated using pymatgen
data_ZnCuP2O7
_symmetry_space_group_name_H-M   'P 1'
_cell_length_a   6.28562300
_cell_length_b   6.29339010
_cell_length_c   7.05300439
_cell_angle_alpha   77.87561188
_cell_angle_beta   68.85029913
_cell_angle_gamma   80.45640951
_symmetry_Int_Tables_number   1
_chemical_formula_structural   ZnCuP2O7
_chemical_formula_sum   'Zn2 Cu2 P4 O14'
_cell_volume   253.16164882
_cell_formula_units_Z   2
loop_
 _symmetry_equiv_pos_site_id
 _symmetry_equiv_pos_as_xyz
  1  'x, y, z'
loop_
 _atom_site_type_symbol
 _atom_site_label
 _atom_site_symmetry_multiplicity
 _atom_site_fract_x
 _atom_site_fract_y
 _atom_site_fract_z
 _atom_site_occupancy
  Zn  Zn0  1  0.71684800  0.11011000  0.83456200  1
  Zn  Zn1  1  0.28315200  0.88989000  0.16543800  1
  Cu  Cu0  1  0.90260400  0.32917800  0.21938400  1
  Cu  Cu1  1  0.09739600  0.67082200  0.78061600  1
  P  P0  1  0.77619400  0.83443900  0.24884300  1
  P  P1  1  0.22380600  0.16556100  0.75115700  1
  P  P2  1  0.36408700  0.38260400  0.30883200  1
  P  P3  1  0.63591300  0.61739600  0.69116800  1
  O  O0  1  0.38799700  0.23564000  0.52319000  1
  O  O1  1  0.61200300  0.76436000  0.47681000  1
  O  O2  1  0.93630300  0.00005900  0.24612500  1
  O  O3  1  0.06369700  0.99994100  0.75387500  1
  O  O4  1  0.73520700  0.38830300  0.64097200  1
  O  O5  1  0.26479300  0.61169700  0.35902800  1
  O  O6  1  0.38737700  0.62993800  0.83819000  1
  O  O7  1  0.61262300  0.37006200  0.16181000  1
  O  O8  1  0.38802600  0.05712300  0.86868300  1
  O  O9  1  0.61197400  0.94287700  0.13131700  1
  O  O10  1  0.07010400  0.36025900  0.83944300  1
  O  O11  1  0.92989600  0.63974100  0.16055700  1
  O  O12  1  0.79059200  0.73773800  0.75015500  1
  O  O13  1  0.20940800  0.26226200  0.24984500  1
loop_
_geom_bond_atom_site_label_1
_geom_bond_atom_site_label_2
_geom_bond_distance
_geom_bond_site_symmetry_2
Cu0 O11 1.934113 1_555
Cu0 O7 1.971819 1_555
Cu0 O13 1.983459 1_655
Cu0 O2 2.022340 1_555
Cu0 O10 2.477875 1_654
Cu1 O10 1.934113 1_555
Cu1 O6 1.971819 1_555
Cu1 O12 1.983459 1_455
Cu1 O3 2.022340 1_555
Cu1 O11 2.477875 1_456
O0 P1 1.581279 1_555
O0 P2 1.641417 1_555
O1 P0 1.581279 1_555
O1 P3 1.641417 1_555
O2 P0 1.557276 1_545
O2 Zn1 2.080117 1_645
O3 P1 1.557276 1_565
O3 Zn0 2.080117 1_465
O4 P3 1.533024 1_555
O4 Zn0 1.972803 1_555
O5 P2 1.533024 1_555
O5 Zn1 1.972803 1_555
O6 P3 1.531831 1_555
O7 P2 1.531831 1_555
O8 P1 1.537701 1_555
O8 Zn1 2.057190 1_546
O8 Zn0 2.068065 1_555
O9 P0 1.537701 1_555
O9 Zn0 2.057190 1_564
O9 Zn1 2.068065 1_555
O10 P1 1.521956 1_555
O11 P0 1.521956 1_555
O12 P3 1.536350 1_555
O12 Zn0 2.467367 1_565
O13 P2 1.536350 1_555
O13 Zn1 2.467367 1_545
