# generated using pymatgen
data_ScPb3
_symmetry_space_group_name_H-M   'P 1'
_cell_length_a   6.57545100
_cell_length_b   6.57545159
_cell_length_c   6.03023600
_cell_angle_alpha   90.00000000
_cell_angle_beta   90.00000000
_cell_angle_gamma   120.00000206
_symmetry_Int_Tables_number   1
_chemical_formula_structural   ScPb3
_chemical_formula_sum   'Sc2 Pb6'
_cell_volume   225.79590546
_cell_formula_units_Z   2
loop_
 _symmetry_equiv_pos_site_id
 _symmetry_equiv_pos_as_xyz
  1  'x, y, z'
loop_
 _atom_site_type_symbol
 _atom_site_label
 _atom_site_symmetry_multiplicity
 _atom_site_fract_x
 _atom_site_fract_y
 _atom_site_fract_z
 _atom_site_occupancy
  Sc  Sc0  1  0.33333300  0.66666600  0.75000100  1
  Sc  Sc1  1  0.66666700  0.33333200  0.25000100  1
  Pb  Pb0  1  0.16979600  0.33959200  0.25000100  1
  Pb  Pb1  1  0.66040800  0.83020300  0.25000100  1
  Pb  Pb2  1  0.16979500  0.83020300  0.25000100  1
  Pb  Pb3  1  0.83020300  0.66040800  0.75000100  1
  Pb  Pb4  1  0.33959200  0.16979500  0.75000100  1
  Pb  Pb5  1  0.83020300  0.16979500  0.75000100  1
loop_
_geom_bond_atom_site_label_1
_geom_bond_atom_site_label_2
_geom_bond_distance
_geom_bond_site_symmetry_2
Pb0 Pb1 3.225992 1_555
Pb0 Pb2 3.225992 1_555
Pb0 Sc1 3.287912 1_455
Pb0 Sc1 3.287925 1_555
Pb0 Pb1 3.349459 1_445
Pb0 Pb2 3.349459 1_545
Pb0 Sc0 3.544000 1_555
Pb0 Sc0 3.544000 1_554
Pb0 Pb5 3.581979 1_455
Pb0 Pb5 3.581979 1_454
Pb0 Pb4 3.581979 1_555
Pb0 Pb4 3.581979 1_554
Pb1 Pb2 3.226002 1_555
Pb1 Sc1 3.287916 1_565
Pb1 Sc1 3.287922 1_555
Pb1 Pb2 3.349449 1_655
Pb1 Sc0 3.544003 1_555
Pb1 Sc0 3.544003 1_554
Pb1 Pb3 3.581970 1_555
Pb1 Pb3 3.581970 1_554
Pb1 Pb5 3.581976 1_565
Pb1 Pb5 3.581976 1_564
Pb2 Sc1 3.287915 1_455
Pb2 Sc1 3.287922 1_565
Pb2 Sc0 3.544003 1_555
Pb2 Sc0 3.544003 1_554
Pb2 Pb3 3.581976 1_455
Pb2 Pb3 3.581976 1_454
Pb2 Pb4 3.581976 1_565
Pb2 Pb4 3.581976 1_564
Pb3 Pb4 3.225995 1_555
Pb3 Pb5 3.226002 1_555
Pb3 Sc0 3.287912 1_555
Pb3 Sc0 3.287925 1_655
Pb3 Pb5 3.349450 1_565
Pb3 Pb4 3.349456 1_665
Pb3 Sc1 3.544006 1_555
Pb3 Sc1 3.544006 1_556
Pb4 Pb5 3.225989 1_555
Pb4 Sc0 3.287916 1_545
Pb4 Sc0 3.287922 1_555
Pb4 Pb5 3.349462 1_455
Pb4 Sc1 3.544003 1_555
Pb4 Sc1 3.544003 1_556
Pb5 Sc0 3.287915 1_545
Pb5 Sc0 3.287922 1_655
Pb5 Sc1 3.543997 1_555
Pb5 Sc1 3.543997 1_556
