# generated using pymatgen
data_NaC
_symmetry_space_group_name_H-M   'P 1'
_cell_length_a   7.93140658
_cell_length_b   7.93140658
_cell_length_c   7.93140658
_cell_angle_alpha   129.33704355
_cell_angle_beta   129.33704355
_cell_angle_gamma   74.46885763
_symmetry_Int_Tables_number   1
_chemical_formula_structural   NaC
_chemical_formula_sum   'Na8 C8'
_cell_volume   290.87522031
_cell_formula_units_Z   8
loop_
 _symmetry_equiv_pos_site_id
 _symmetry_equiv_pos_as_xyz
  1  'x, y, z'
loop_
 _atom_site_type_symbol
 _atom_site_label
 _atom_site_symmetry_multiplicity
 _atom_site_fract_x
 _atom_site_fract_y
 _atom_site_fract_z
 _atom_site_occupancy
  Na  Na0  1  0.12500000  0.06381900  0.43881900  1
  Na  Na1  1  0.81381900  0.87500000  0.43881900  1
  Na  Na2  1  0.43618100  0.37500000  0.56118100  1
  Na  Na3  1  0.62500000  0.68618100  0.56118100  1
  Na  Na4  1  0.62500000  0.18618100  0.06118100  1
  Na  Na5  1  0.93618100  0.37500000  0.06118100  1
  Na  Na6  1  0.31381900  0.87500000  0.93881900  1
  Na  Na7  1  0.12500000  0.56381900  0.93881900  1
  C  C0  1  0.56583400  0.06583400  0.63166700  1
  C  C1  1  0.81583400  0.68416600  0.00000000  1
  C  C2  1  0.68416600  0.81583400  0.00000000  1
  C  C3  1  0.43416600  0.93416600  0.36833300  1
  C  C4  1  0.18416600  0.18416600  0.86833300  1
  C  C5  1  0.93416600  0.56583400  0.50000000  1
  C  C6  1  0.06583400  0.43416600  0.50000000  1
  C  C7  1  0.31583400  0.31583400  0.13166700  1
loop_
_geom_bond_atom_site_label_1
_geom_bond_atom_site_label_2
_geom_bond_distance
_geom_bond_site_symmetry_2
C0 C3 1.263771 1_545
C0 Na5 2.612916 1_556
C0 Na4 2.612923 1_556
C0 Na2 2.653608 1_555
C0 Na3 2.653616 1_545
C0 Na1 2.789939 1_545
C0 Na0 2.789946 1_555
C1 C2 1.263780 1_555
C1 Na5 2.612916 1_555
C1 Na7 2.612916 1_654
C1 Na2 2.653612 1_554
C1 Na0 2.653612 1_665
C1 Na3 2.789944 1_554
C1 Na1 2.789944 1_555
C2 Na4 2.612916 1_565
C2 Na6 2.612916 1_554
C2 Na3 2.653612 1_554
C2 Na1 2.653612 1_555
C2 Na2 2.789944 1_554
C2 Na0 2.789944 1_665
C3 Na7 2.612916 1_554
C3 Na6 2.612923 1_554
C3 Na0 2.653608 1_565
C3 Na1 2.653616 1_555
C3 Na3 2.789939 1_555
C3 Na2 2.789946 1_565
C4 C7 1.263771 1_556
C4 Na1 2.612916 1_445
C4 Na0 2.612923 1_555
C4 Na6 2.653608 1_545
C4 Na7 2.653616 1_555
C4 Na5 2.789939 1_456
C4 Na4 2.789946 1_556
C5 C6 1.263780 1_655
C5 Na1 2.612916 1_555
C5 Na3 2.612916 1_555
C5 Na4 2.653612 1_555
C5 Na6 2.653612 1_655
C5 Na7 2.789944 1_655
C5 Na5 2.789944 1_555
C6 Na2 2.612916 1_555
C6 Na0 2.612916 1_555
C6 Na7 2.653612 1_555
C6 Na5 2.653612 1_455
C6 Na6 2.789944 1_555
C6 Na4 2.789944 1_455
C7 Na3 2.612916 1_555
C7 Na2 2.612923 1_555
C7 Na4 2.653608 1_555
C7 Na5 2.653616 1_455
C7 Na7 2.789939 1_554
C7 Na6 2.789946 1_544
