# generated using pymatgen
data_Mg6FeCuO8
_symmetry_space_group_name_H-M   'P 1'
_cell_length_a   8.65281942
_cell_length_b   4.23740319
_cell_length_c   4.23740319
_cell_angle_alpha   90.00000000
_cell_angle_beta   90.00000000
_cell_angle_gamma   90.00000000
_symmetry_Int_Tables_number   1
_chemical_formula_structural   Mg6FeCuO8
_chemical_formula_sum   'Mg6 Fe1 Cu1 O8'
_cell_volume   155.36644146
_cell_formula_units_Z   1
loop_
 _symmetry_equiv_pos_site_id
 _symmetry_equiv_pos_as_xyz
  1  'x, y, z'
loop_
 _atom_site_type_symbol
 _atom_site_label
 _atom_site_symmetry_multiplicity
 _atom_site_fract_x
 _atom_site_fract_y
 _atom_site_fract_z
 _atom_site_occupancy
  Mg  Mg0  1  0.50000000  0.00000000  -0.00000000  1
  Mg  Mg1  1  0.50000000  0.50000000  0.50000000  1
  Mg  Mg2  1  0.25114662  0.00000000  0.50000000  1
  Mg  Mg3  1  0.74885338  -0.00000000  0.50000000  1
  Mg  Mg4  1  0.25114662  0.50000000  0.00000000  1
  Mg  Mg5  1  0.74885338  0.50000000  -0.00000000  1
  Fe  Fe0  1  0.00000000  -0.00000000  -0.00000000  1
  Cu  Cu0  1  -0.00000000  0.50000000  0.50000000  1
  O  O0  1  0.24759588  -0.00000000  -0.00000000  1
  O  O1  1  0.75240412  0.00000000  0.00000000  1
  O  O2  1  0.26144446  0.50000000  0.50000000  1
  O  O3  1  0.73855554  0.50000000  0.50000000  1
  O  O4  1  0.00000000  -0.00000000  0.50000000  1
  O  O5  1  0.50000000  0.00000000  0.50000000  1
  O  O6  1  -0.00000000  0.50000000  -0.00000000  1
  O  O7  1  0.50000000  0.50000000  -0.00000000  1
loop_
_geom_bond_atom_site_label_1
_geom_bond_atom_site_label_2
_geom_bond_distance
_geom_bond_site_symmetry_2
Mg0 O5 2.118702 1_554
Mg0 O5 2.118702 1_555
Mg0 O7 2.118702 1_545
Mg0 O7 2.118702 1_555
Mg0 O0 2.184007 1_555
Mg0 O1 2.184007 1_555
Mg1 O2 2.064178 1_555
Mg1 O3 2.064178 1_555
Mg1 O7 2.118702 1_556
Mg1 O5 2.118702 1_555
Mg1 O5 2.118702 1_565
Mg1 O7 2.118702 1_555
Mg2 O0 2.118924 1_555
Mg2 O0 2.118924 1_556
Mg2 O2 2.120575 1_555
Mg2 O2 2.120575 1_545
Mg2 O5 2.153283 1_555
Mg2 O4 2.173126 1_555
Mg3 O1 2.118924 1_556
Mg3 O1 2.118924 1_555
Mg3 O3 2.120575 1_555
Mg3 O3 2.120575 1_545
Mg3 O5 2.153283 1_555
Mg3 O4 2.173126 1_655
Mg4 O0 2.118924 1_565
Mg4 O0 2.118924 1_555
Mg4 O2 2.120575 1_555
Mg4 O2 2.120575 1_554
Mg4 O7 2.153283 1_555
Mg4 O6 2.173126 1_555
Mg5 O1 2.118924 1_565
Mg5 O1 2.118924 1_555
Mg5 O3 2.120575 1_555
Mg5 O3 2.120575 1_554
Mg5 O7 2.153283 1_555
Mg5 O6 2.173126 1_655
Fe0 O4 2.118702 1_555
Fe0 O4 2.118702 1_554
Fe0 O6 2.118702 1_545
Fe0 O6 2.118702 1_555
Fe0 O0 2.142402 1_555
Fe0 O1 2.142402 1_455
Cu0 O4 2.118702 1_555
Cu0 O4 2.118702 1_565
Cu0 O6 2.118702 1_556
Cu0 O6 2.118702 1_555
Cu0 O2 2.262232 1_555
Cu0 O3 2.262232 1_455
