# generated using pymatgen
data_LaMgTaFeO6
_symmetry_space_group_name_H-M   'P 1'
_cell_length_a   5.45426983
_cell_length_b   8.03275811
_cell_length_c   5.61876415
_cell_angle_alpha   89.97375852
_cell_angle_beta   90.00376430
_cell_angle_gamma   90.28206795
_symmetry_Int_Tables_number   1
_chemical_formula_structural   LaMgTaFeO6
_chemical_formula_sum   'La2 Mg2 Ta2 Fe2 O12'
_cell_volume   246.17095006
_cell_formula_units_Z   2
loop_
 _symmetry_equiv_pos_site_id
 _symmetry_equiv_pos_as_xyz
  1  'x, y, z'
loop_
 _atom_site_type_symbol
 _atom_site_label
 _atom_site_symmetry_multiplicity
 _atom_site_fract_x
 _atom_site_fract_y
 _atom_site_fract_z
 _atom_site_occupancy
  La  La0  1  0.99217100  0.24985500  0.04893900  1
  La  La1  1  0.49205400  0.74977400  0.45132900  1
  Mg  Mg0  1  0.52592500  0.25695400  0.55377300  1
  Mg  Mg1  1  0.02582500  0.75713700  0.94645300  1
  Ta  Ta0  1  0.00266300  0.49809000  0.50970800  1
  Ta  Ta1  1  0.50279500  0.99814000  0.99026600  1
  Fe  Fe0  1  0.49899200  0.49911900  0.00438700  1
  Fe  Fe1  1  0.99882300  0.99891700  0.49552500  1
  O  O0  1  0.64729200  0.76933400  0.03518500  1
  O  O1  1  0.14675000  0.26916600  0.46518500  1
  O  O2  1  0.19460500  0.93862700  0.18364300  1
  O  O3  1  0.69433100  0.43881900  0.31628100  1
  O  O4  1  0.16421800  0.57087900  0.20346100  1
  O  O5  1  0.66439400  0.07097400  0.29635600  1
  O  O6  1  0.90205100  0.73434300  0.56662400  1
  O  O7  1  0.40169400  0.23417000  0.93293400  1
  O  O8  1  0.28185300  0.55723900  0.71630800  1
  O  O9  1  0.78203200  0.05769700  0.78373500  1
  O  O10  1  0.29095300  0.92528800  0.72480900  1
  O  O11  1  0.79057700  0.42548100  0.77510000  1
loop_
_geom_bond_atom_site_label_1
_geom_bond_atom_site_label_2
_geom_bond_distance
_geom_bond_site_symmetry_2
La0 O7 2.330869 1_654
La0 O11 2.362143 1_554
La0 O9 2.429231 1_554
La0 O1 2.490707 1_655
La0 O5 2.677064 1_555
La0 O3 2.688143 1_555
La0 O2 2.840314 1_645
La0 O4 2.874412 1_655
La1 O6 2.332003 1_555
La1 O10 2.359966 1_555
La1 O8 2.429758 1_555
La1 O0 2.491479 1_555
La1 O4 2.679217 1_555
La1 O2 2.686527 1_555
La1 O3 2.839209 1_555
La1 O5 2.876282 1_565
Mg0 O1 2.129867 1_555
Mg0 O3 2.177999 1_555
Mg0 O5 2.215274 1_555
Mg0 O7 2.242746 1_555
Mg0 O11 2.333413 1_555
Mg0 O9 2.490490 1_555
Mg1 O0 2.126734 1_456
Mg1 O2 2.176547 1_556
Mg1 O4 2.214184 1_556
Mg1 O6 2.245643 1_455
Mg1 O10 2.333662 1_555
Mg1 O8 2.494963 1_555
Fe0 O8 2.060372 1_554
Fe0 O3 2.108301 1_555
Fe0 O11 2.132881 1_554
Fe0 O4 2.220075 1_555
Fe0 O7 2.227552 1_554
Fe0 O0 2.319188 1_555
Fe1 O9 2.061541 1_565
Fe1 O2 2.109936 1_655
Fe1 O10 2.134619 1_655
Fe1 O5 2.219037 1_565
Fe1 O6 2.223312 1_555
Fe1 O1 2.318414 1_665
O0 Ta1 2.019081 1_554
O1 Ta0 2.019010 1_555
O2 Ta1 2.055858 1_554
O3 Ta0 2.056310 1_655
O4 Ta0 2.018276 1_555
O5 Ta1 2.018090 1_544
O6 Ta0 2.003934 1_655
O7 Ta1 2.003065 1_545
O8 Ta0 1.971114 1_555
O9 Ta1 1.971724 1_545
O10 Ta1 1.973859 1_555
O11 Ta0 1.973499 1_655
