# generated using pymatgen
data_LaSe2O9
_symmetry_space_group_name_H-M   'P 1'
_cell_length_a   9.39330800
_cell_length_b   7.44122300
_cell_length_c   13.43555800
_cell_angle_alpha   63.43546947
_cell_angle_beta   90.00000000
_cell_angle_gamma   90.00000000
_symmetry_Int_Tables_number   1
_chemical_formula_structural   LaSe2O9
_chemical_formula_sum   'La4 Se8 O36'
_cell_volume   839.97344660
_cell_formula_units_Z   4
loop_
 _symmetry_equiv_pos_site_id
 _symmetry_equiv_pos_as_xyz
  1  'x, y, z'
loop_
 _atom_site_type_symbol
 _atom_site_label
 _atom_site_symmetry_multiplicity
 _atom_site_fract_x
 _atom_site_fract_y
 _atom_site_fract_z
 _atom_site_occupancy
  La  La0  1  0.09963500  0.69225600  0.06380200  1
  La  La1  1  0.40036500  0.69225600  0.56380200  1
  La  La2  1  0.90036500  0.30774400  0.93619800  1
  La  La3  1  0.59963500  0.30774400  0.43619800  1
  Se  Se0  1  0.88693300  0.91084900  0.82225700  1
  Se  Se1  1  0.61306700  0.91084900  0.32225700  1
  Se  Se2  1  0.11306700  0.08915100  0.17774300  1
  Se  Se3  1  0.38693300  0.08915100  0.67774300  1
  Se  Se4  1  0.28847900  0.48067100  0.88259200  1
  Se  Se5  1  0.21152100  0.48067100  0.38259200  1
  Se  Se6  1  0.71152100  0.51932900  0.11740800  1
  Se  Se7  1  0.78847900  0.51932900  0.61740800  1
  O  O0  1  0.97249000  0.99742000  0.70132800  1
  O  O1  1  0.52751000  0.99742000  0.20132800  1
  O  O2  1  0.02751000  0.00258000  0.29867200  1
  O  O3  1  0.47249000  0.00258000  0.79867200  1
  O  O4  1  0.93026400  0.66047600  0.90318400  1
  O  O5  1  0.56973600  0.66047600  0.40318400  1
  O  O6  1  0.06973600  0.33952400  0.09681600  1
  O  O7  1  0.43026400  0.33952400  0.59681600  1
  O  O8  1  0.96277200  0.00250400  0.90714300  1
  O  O9  1  0.53722800  0.00250400  0.40714300  1
  O  O10  1  0.03722800  0.99749600  0.09285700  1
  O  O11  1  0.46277200  0.99749600  0.59285700  1
  O  O12  1  0.24740100  0.66712600  0.91686200  1
  O  O13  1  0.25259900  0.66712600  0.41686200  1
  O  O14  1  0.75259900  0.33287400  0.08313800  1
  O  O15  1  0.74740100  0.33287400  0.58313800  1
  O  O16  1  0.13766600  0.38101100  0.86164900  1
  O  O17  1  0.36233400  0.38101100  0.36164900  1
  O  O18  1  0.86233400  0.61898900  0.13835100  1
  O  O19  1  0.63766600  0.61898900  0.63835100  1
  O  O20  1  0.37063400  0.58677500  0.75853500  1
  O  O21  1  0.12936600  0.58677500  0.25853500  1
  O  O22  1  0.62936600  0.41322500  0.24146500  1
  O  O23  1  0.87063400  0.41322500  0.74146500  1
  O  O24  1  0.38638000  0.30363900  0.98115400  1
  O  O25  1  0.11362000  0.30363900  0.48115400  1
  O  O26  1  0.61362000  0.69636100  0.01884600  1
  O  O27  1  0.88638000  0.69636100  0.51884600  1
  O  O28  1  0.31486100  0.44825200  0.14384800  1
  O  O29  1  0.18513900  0.44825200  0.64384800  1
  O  O30  1  0.68513900  0.55174800  0.85615200  1
  O  O31  1  0.81486100  0.55174800  0.35615200  1
  O  O32  1  0.34479900  0.88706100  0.04046400  1
  O  O33  1  0.15520100  0.88706100  0.54046400  1
  O  O34  1  0.65520100  0.11293900  0.95953600  1
  O  O35  1  0.84479900  0.11293900  0.45953600  1
loop_
_geom_bond_atom_site_label_1
_geom_bond_atom_site_label_2
_geom_bond_distance
_geom_bond_site_symmetry_2
La0 O21 2.388009 1_555
La0 O18 2.404302 1_455
La0 O6 2.474604 1_555
La0 O12 2.487828 1_554
La0 O10 2.539320 1_555
La0 O28 2.606536 1_555
La0 O8 2.658303 1_464
La0 O32 2.663914 1_555
La0 O4 2.774965 1_454
La1 O20 2.388009 1_555
La1 O19 2.404302 1_555
La1 O7 2.474604 1_555
La1 O13 2.487828 1_555
La1 O11 2.539320 1_555
La1 O29 2.606536 1_555
La1 O9 2.658303 1_565
La1 O33 2.663914 1_555
La1 O5 2.774965 1_555
La2 O23 2.388009 1_555
La2 O16 2.404302 1_655
La2 O4 2.474604 1_555
La2 O14 2.487828 1_556
La2 O8 2.539320 1_555
La2 O30 2.606536 1_555
La2 O10 2.658303 1_646
La2 O34 2.663914 1_555
La2 O6 2.774965 1_656
La3 O22 2.388009 1_555
La3 O17 2.404302 1_555
La3 O5 2.474604 1_555
La3 O15 2.487828 1_555
La3 O9 2.539320 1_555
La3 O31 2.606536 1_555
La3 O11 2.658303 1_545
La3 O35 2.663914 1_555
La3 O7 2.774965 1_555
O0 Se0 1.662688 1_555
O1 Se1 1.662688 1_555
O2 Se2 1.662688 1_555
O3 Se3 1.662688 1_555
O4 Se0 1.734107 1_555
O5 Se1 1.734107 1_555
O6 Se2 1.734107 1_555
O7 Se3 1.734107 1_555
O8 Se0 1.723100 1_545
O9 Se1 1.723100 1_545
O10 Se2 1.723100 1_565
O11 Se3 1.723100 1_565
O12 Se4 1.690354 1_555
O13 Se5 1.690354 1_555
O14 Se6 1.690354 1_555
O15 Se7 1.690354 1_555
O16 Se4 1.680065 1_555
O17 Se5 1.680065 1_555
O18 Se6 1.680065 1_555
O19 Se7 1.680065 1_555
O20 Se4 1.679289 1_555
O21 Se5 1.679289 1_555
O22 Se6 1.679289 1_555
O23 Se7 1.679289 1_555
O24 Se4 1.665652 1_555
O25 Se5 1.665652 1_555
O26 Se6 1.665652 1_555
O27 Se7 1.665652 1_555
