# generated using pymatgen
data_PrYMg2
_symmetry_space_group_name_H-M   'P 1'
_cell_length_a   3.85054280
_cell_length_b   3.85054280
_cell_length_c   7.81207753
_cell_angle_alpha   90.00000000
_cell_angle_beta   90.00000000
_cell_angle_gamma   90.00000000
_symmetry_Int_Tables_number   1
_chemical_formula_structural   PrYMg2
_chemical_formula_sum   'Pr1 Y1 Mg2'
_cell_volume   115.82717254
_cell_formula_units_Z   1
loop_
 _symmetry_equiv_pos_site_id
 _symmetry_equiv_pos_as_xyz
  1  'x, y, z'
loop_
 _atom_site_type_symbol
 _atom_site_label
 _atom_site_symmetry_multiplicity
 _atom_site_fract_x
 _atom_site_fract_y
 _atom_site_fract_z
 _atom_site_occupancy
  Pr  Pr0  1  -0.00000000  0.00000000  0.50000000  1
  Y  Y0  1  -0.00000000  0.00000000  0.00000000  1
  Mg  Mg0  1  0.50000000  0.50000000  0.23866319  1
  Mg  Mg1  1  0.50000000  0.50000000  0.76133681  1
loop_
_geom_bond_atom_site_label_1
_geom_bond_atom_site_label_2
_geom_bond_distance
_geom_bond_site_symmetry_2
Mg0 Y0 3.299929 1_565
Mg0 Y0 3.299929 1_665
Mg0 Y0 3.299929 1_555
Mg0 Y0 3.299929 1_655
Mg0 Pr0 3.403146 1_555
Mg0 Pr0 3.403146 1_565
Mg0 Pr0 3.403146 1_655
Mg0 Pr0 3.403146 1_665
Mg1 Y0 3.299929 1_666
Mg1 Y0 3.299929 1_556
Mg1 Y0 3.299929 1_566
Mg1 Y0 3.299929 1_656
Mg1 Pr0 3.403146 1_555
Mg1 Pr0 3.403146 1_565
Mg1 Pr0 3.403146 1_655
Mg1 Pr0 3.403146 1_665
