# generated using pymatgen
data_NdAgSn
_symmetry_space_group_name_H-M   'P 1'
_cell_length_a   4.88905626
_cell_length_b   4.88905626
_cell_length_c   7.78218300
_cell_angle_alpha   90.00000000
_cell_angle_beta   90.00000000
_cell_angle_gamma   120.00000356
_symmetry_Int_Tables_number   1
_chemical_formula_structural   NdAgSn
_chemical_formula_sum   'Nd2 Ag2 Sn2'
_cell_volume   161.09502386
_cell_formula_units_Z   2
loop_
 _symmetry_equiv_pos_site_id
 _symmetry_equiv_pos_as_xyz
  1  'x, y, z'
loop_
 _atom_site_type_symbol
 _atom_site_label
 _atom_site_symmetry_multiplicity
 _atom_site_fract_x
 _atom_site_fract_y
 _atom_site_fract_z
 _atom_site_occupancy
  Nd  Nd0  1  0.00000000  0.00000000  0.26781800  1
  Nd  Nd1  1  0.00000000  0.00000000  0.73218200  1
  Ag  Ag0  1  0.66666700  0.33333300  0.51853800  1
  Ag  Ag1  1  0.33333300  0.66666700  0.48146200  1
  Sn  Sn0  1  0.33333300  0.66666700  0.05224700  1
  Sn  Sn1  1  0.66666700  0.33333300  0.94775300  1
loop_
_geom_bond_atom_site_label_1
_geom_bond_atom_site_label_2
_geom_bond_distance
_geom_bond_site_symmetry_2
Nd0 Sn0 3.283595 1_545
Nd0 Sn0 3.283598 1_445
Nd0 Sn0 3.283598 1_555
Nd0 Sn1 3.764534 1_454
Nd0 Sn1 3.764537 1_554
Nd0 Sn1 3.764537 1_444
Nd1 Sn1 3.283595 1_455
Nd1 Sn1 3.283598 1_555
Nd1 Sn1 3.283598 1_445
Nd1 Sn0 3.764534 1_546
Nd1 Sn0 3.764537 1_446
Nd1 Sn0 3.764537 1_556
Ag0 Ag1 2.837403 1_545
Ag0 Ag1 2.837403 1_655
Ag0 Ag1 2.837412 1_555
Ag0 Nd1 3.275958 1_655
Ag0 Nd1 3.275962 1_665
Ag0 Nd1 3.275962 1_555
Ag0 Sn1 3.340230 1_555
Ag0 Nd0 3.431412 1_655
Ag0 Nd0 3.431416 1_665
Ag0 Nd0 3.431416 1_555
Ag1 Nd0 3.275958 1_565
Ag1 Nd0 3.275962 1_665
Ag1 Nd0 3.275962 1_555
Ag1 Sn0 3.340230 1_555
Ag1 Nd1 3.431412 1_565
Ag1 Nd1 3.431416 1_555
Ag1 Nd1 3.431416 1_665
Sn0 Sn1 2.937497 1_454
Sn0 Sn1 2.937497 1_564
Sn0 Sn1 2.937505 1_554
