# generated using pymatgen
data_MoWSe3S
_symmetry_space_group_name_H-M   'P 1'
_cell_length_a   3.28649238
_cell_length_b   3.28649238
_cell_length_c   37.35391100
_cell_angle_alpha   90.00000000
_cell_angle_beta   90.00000000
_cell_angle_gamma   120.00000765
_symmetry_Int_Tables_number   1
_chemical_formula_structural   MoWSe3S
_chemical_formula_sum   'Mo2 W2 Se6 S2'
_cell_volume   349.40727022
_cell_formula_units_Z   2
loop_
 _symmetry_equiv_pos_site_id
 _symmetry_equiv_pos_as_xyz
  1  'x, y, z'
loop_
 _atom_site_type_symbol
 _atom_site_label
 _atom_site_symmetry_multiplicity
 _atom_site_fract_x
 _atom_site_fract_y
 _atom_site_fract_z
 _atom_site_occupancy
  Mo  Mo0  1  0.00000000  0.00000000  0.09391200  1
  Mo  Mo1  1  0.33333300  0.66666700  0.28180100  1
  W  W0  1  0.00000000  0.00000000  0.46965500  1
  W  W1  1  0.33333300  0.66666700  0.65753500  1
  Se  Se0  1  0.00000000  0.00000000  0.32693800  1
  Se  Se1  1  0.00000000  0.00000000  0.70295900  1
  Se  Se2  1  0.33333300  0.66666700  0.04878100  1
  Se  Se3  1  0.33333300  0.66666700  0.13905500  1
  Se  Se4  1  0.00000000  0.00000000  0.23667100  1
  Se  Se5  1  0.00000000  0.00000000  0.61211300  1
  S  S0  1  0.33333300  0.66666700  0.42840200  1
  S  S1  1  0.33333300  0.66666700  0.51092400  1
loop_
_geom_bond_atom_site_label_1
_geom_bond_atom_site_label_2
_geom_bond_distance
_geom_bond_site_symmetry_2
Mo0 Se2 2.538173 1_545
Mo0 Se2 2.538175 1_445
Mo0 Se2 2.538175 1_555
Mo0 Se3 2.538471 1_545
Mo0 Se3 2.538473 1_445
Mo0 Se3 2.538473 1_555
Mo1 Se4 2.538149 1_565
Mo1 Se4 2.538151 1_555
Mo1 Se4 2.538151 1_665
Mo1 Se0 2.538322 1_565
Mo1 Se0 2.538324 1_665
Mo1 Se0 2.538324 1_555
Se1 W1 2.545456 1_545
Se1 W1 2.545458 1_555
Se1 W1 2.545458 1_445
Se5 W1 2.545406 1_545
Se5 W1 2.545408 1_445
Se5 W1 2.545408 1_555
S0 W0 2.444360 1_565
S0 W0 2.444362 1_665
S0 W0 2.444362 1_555
S1 W0 2.444737 1_565
S1 W0 2.444739 1_665
S1 W0 2.444739 1_555
