# generated using pymatgen
data_Ti2H3Pd
_symmetry_space_group_name_H-M   'P 1'
_cell_length_a   2.90727900
_cell_length_b   2.90727900
_cell_length_c   12.94824600
_cell_angle_alpha   90.00000000
_cell_angle_beta   90.00000000
_cell_angle_gamma   90.00000000
_symmetry_Int_Tables_number   1
_chemical_formula_structural   Ti2H3Pd
_chemical_formula_sum   'Ti4 H6 Pd2'
_cell_volume   109.44208655
_cell_formula_units_Z   2
loop_
 _symmetry_equiv_pos_site_id
 _symmetry_equiv_pos_as_xyz
  1  'x, y, z'
loop_
 _atom_site_type_symbol
 _atom_site_label
 _atom_site_symmetry_multiplicity
 _atom_site_fract_x
 _atom_site_fract_y
 _atom_site_fract_z
 _atom_site_occupancy
  Ti  Ti0  1  0.00000000  0.00000000  0.34040400  1
  Ti  Ti1  1  0.00000000  0.00000000  0.65959600  1
  Ti  Ti2  1  0.50000000  0.50000000  0.85319900  1
  Ti  Ti3  1  0.50000000  0.50000000  0.14680100  1
  H  H0  1  0.00000000  0.50000000  0.24098600  1
  H  H1  1  0.50000000  0.00000000  0.24098600  1
  H  H2  1  0.50000000  0.00000000  0.75901400  1
  H  H3  1  0.00000000  0.50000000  0.75901400  1
  H  H4  1  0.50000000  0.50000000  0.36276000  1
  H  H5  1  0.50000000  0.50000000  0.63724000  1
  Pd  Pd0  1  0.00000000  0.00000000  0.00000000  1
  Pd  Pd1  1  0.50000000  0.50000000  0.50000000  1
loop_
_geom_bond_atom_site_label_1
_geom_bond_atom_site_label_2
_geom_bond_distance
_geom_bond_site_symmetry_2
H0 Ti3 1.897452 1_555
H0 Ti3 1.897452 1_455
H0 Ti0 1.941695 1_565
H0 Ti0 1.941695 1_555
H1 Ti3 1.897452 1_555
H1 Ti3 1.897452 1_545
H1 Ti0 1.941695 1_655
H1 Ti0 1.941695 1_555
H2 Ti2 1.897452 1_545
H2 Ti2 1.897452 1_555
H2 Ti1 1.941695 1_555
H2 Ti1 1.941695 1_655
H3 Ti2 1.897452 1_555
H3 Ti2 1.897452 1_455
H3 Ti1 1.941695 1_565
H3 Ti1 1.941695 1_555
H4 Pd1 1.777017 1_555
H4 Ti0 2.076037 1_565
H4 Ti0 2.076037 1_655
H4 Ti0 2.076037 1_665
H4 Ti0 2.076037 1_555
H5 Pd1 1.777017 1_555
H5 Ti1 2.076037 1_655
H5 Ti1 2.076037 1_565
H5 Ti1 2.076037 1_665
H5 Ti1 2.076037 1_555
Pd0 Ti3 2.799863 1_455
Pd0 Ti3 2.799863 1_545
Pd0 Ti3 2.799863 1_555
Pd0 Ti3 2.799863 1_445
Pd0 Ti2 2.799863 1_544
Pd0 Ti2 2.799863 1_444
Pd0 Ti2 2.799863 1_554
Pd0 Ti2 2.799863 1_454
