# generated using pymatgen
data_Ca8Mn6Cr2O21
_symmetry_space_group_name_H-M   'P 1'
_cell_length_a   10.95226146
_cell_length_b   15.43834141
_cell_length_c   10.95639679
_cell_angle_alpha   89.95825248
_cell_angle_beta   91.19492049
_cell_angle_gamma   90.53043171
_symmetry_Int_Tables_number   1
_chemical_formula_structural   Ca8Mn6Cr2O21
_chemical_formula_sum   'Ca32 Mn24 Cr8 O84'
_cell_volume   1852.07712864
_cell_formula_units_Z   4
loop_
 _symmetry_equiv_pos_site_id
 _symmetry_equiv_pos_as_xyz
  1  'x, y, z'
loop_
 _atom_site_type_symbol
 _atom_site_label
 _atom_site_symmetry_multiplicity
 _atom_site_fract_x
 _atom_site_fract_y
 _atom_site_fract_z
 _atom_site_occupancy
  Ca  Ca0  1  -0.00106112  0.11053610  0.50745700  1
  Ca  Ca1  1  -0.00215184  0.10983903  0.00675423  1
  Ca  Ca2  1  0.01065406  0.62470945  0.51061324  1
  Ca  Ca3  1  0.01840731  0.62225572  0.99092660  1
  Ca  Ca4  1  0.54547755  0.12616654  0.47992049  1
  Ca  Ca5  1  0.54406116  0.12931180  0.98855354  1
  Ca  Ca6  1  0.52923781  0.62918827  0.51123412  1
  Ca  Ca7  1  0.53206588  0.62202374  0.97406941  1
  Ca  Ca8  1  0.50959298  0.38606342  0.98508182  1
  Ca  Ca9  1  0.49854992  0.38074967  0.51234555  1
  Ca  Ca10  1  0.51635518  0.86148837  0.98574233  1
  Ca  Ca11  1  0.49297847  0.86737576  0.50852993  1
  Ca  Ca12  1  0.96307755  0.38585966  0.00689343  1
  Ca  Ca13  1  0.96107196  0.38673215  0.50041634  1
  Ca  Ca14  1  0.95713050  0.88050527  0.99924225  1
  Ca  Ca15  1  0.96943598  0.87274583  0.50833998  1
  Ca  Ca16  1  0.23203954  0.39133247  0.24854810  1
  Ca  Ca17  1  0.23331409  0.40210375  0.76584887  1
  Ca  Ca18  1  0.22704619  0.88931784  0.26890738  1
  Ca  Ca19  1  0.22106456  0.87358033  0.73687250  1
  Ca  Ca20  1  0.74228926  0.37774928  0.24719535  1
  Ca  Ca21  1  0.73073694  0.38344524  0.74902526  1
  Ca  Ca22  1  0.75612572  0.86966935  0.25379320  1
  Ca  Ca23  1  0.73753422  0.86731019  0.74932146  1
  Ca  Ca24  1  0.22660365  0.11882533  0.23996958  1
  Ca  Ca25  1  0.22357372  0.11352442  0.73655048  1
  Ca  Ca26  1  0.23882594  0.62539166  0.26118458  1
  Ca  Ca27  1  0.26438126  0.63062324  0.73976475  1
  Ca  Ca28  1  0.78070892  0.11883457  0.25412900  1
  Ca  Ca29  1  0.78084557  0.11934628  0.75200388  1
  Ca  Ca30  1  0.78254785  0.62137118  0.25529792  1
  Ca  Ca31  1  0.77440181  0.62354834  0.75609744  1
  Mn  Mn0  1  0.00167781  0.50079658  0.25133678  1
  Mn  Mn1  1  0.99646846  0.49901413  0.75533690  1
  Mn  Mn2  1  0.50492036  0.98702563  0.23541449  1
  Mn  Mn3  1  0.50719700  0.99265373  0.73693205  1
  Mn  Mn4  1  0.50516580  0.49107970  0.24351261  1
  Mn  Mn5  1  0.49643206  0.50128650  0.74873850  1
  Mn  Mn6  1  0.25262801  0.51453126  0.01010255  1
  Mn  Mn7  1  0.23791487  0.49594807  0.50943904  1
  Mn  Mn8  1  0.74262831  0.00094800  0.99754847  1
  Mn  Mn9  1  0.74660665  0.99809842  0.49727634  1
  Mn  Mn10  1  0.75129610  0.50295780  0.00028197  1
  Mn  Mn11  1  0.74588285  0.50297014  0.50114838  1
  Mn  Mn12  1  0.26010362  0.75661848  0.97738340  1
  Mn  Mn13  1  0.25040375  0.75203163  0.49709908  1
  Mn  Mn14  1  0.75394855  0.24995202  0.00295418  1
  Mn  Mn15  1  0.75425812  0.24968255  0.50163511  1
  Mn  Mn16  1  0.75372910  0.74556247  0.00075471  1
  Mn  Mn17  1  0.75318563  0.74619644  0.50522351  1
  Mn  Mn18  1  0.99808104  0.75102280  0.26131408  1
  Mn  Mn19  1  0.99792056  0.75115747  0.75028324  1
  Mn  Mn20  1  0.51026755  0.25374163  0.25357943  1
  Mn  Mn21  1  0.51356838  0.24782434  0.75050446  1
  Mn  Mn22  1  0.51838350  0.74946803  0.26268011  1
  Mn  Mn23  1  0.50237955  0.74718393  0.74743348  1
  Cr  Cr0  1  0.99555306  0.99780278  0.25297418  1
  Cr  Cr1  1  0.99559319  0.99600299  0.75357267  1
  Cr  Cr2  1  0.23916819  0.99645477  0.01413637  1
  Cr  Cr3  1  0.23836461  0.00220753  0.51319431  1
  Cr  Cr4  1  0.26759640  0.23483475  0.94691363  1
  Cr  Cr5  1  0.26687562  0.24172526  0.44676084  1
  Cr  Cr6  1  0.98864001  0.25308156  0.26517682  1
  Cr  Cr7  1  0.98675096  0.25522609  0.76674070  1
  O  O0  1  0.10056053  0.77078285  0.60719943  1
  O  O1  1  0.58705703  0.26147442  0.09128357  1
  O  O2  1  0.58398375  0.25390532  0.58714404  1
  O  O3  1  0.59378444  0.75488237  0.10837172  1
  O  O4  1  0.60289909  0.76265559  0.60337257  1
  O  O5  1  0.39329758  0.18293736  0.35409251  1
  O  O6  1  0.39168860  0.18375996  0.85675311  1
  O  O7  1  0.40349890  0.70172573  0.36580313  1
  O  O8  1  0.40890472  0.73100334  0.89632108  1
  O  O9  1  0.91847286  0.23759091  0.42087682  1
  O  O10  1  0.91660206  0.23541973  0.92164594  1
  O  O11  1  0.89381596  0.73002848  0.40683757  1
  O  O12  1  0.89871280  0.73268797  0.90168061  1
  O  O13  1  0.16604932  0.25160800  0.30501685  1
  O  O14  1  0.16926181  0.25003661  0.81378075  1
  O  O15  1  0.15879317  0.74812151  0.33650776  1
  O  O16  1  0.14500052  0.73552921  0.85047002  1
  O  O17  1  0.66213839  0.22582780  0.35116947  1
  O  O18  1  0.66068654  0.22504852  0.85466482  1
  O  O19  1  0.65683186  0.72186941  0.35454108  1
  O  O20  1  0.65000424  0.72789407  0.85542615  1
  O  O21  1  0.35472889  0.76725821  0.64191837  1
  O  O22  1  0.85463535  0.27625550  0.15004429  1
  O  O23  1  0.85385869  0.27883928  0.65240352  1
  O  O24  1  0.86494167  0.77108973  0.14213270  1
  O  O25  1  0.85276642  0.77017866  0.64865232  1
  O  O26  1  0.35371758  0.50986229  0.16408388  1
  O  O27  1  0.35589119  0.48524345  0.63979518  1
  O  O28  1  0.34907113  0.00815013  0.16532047  1
  O  O29  1  0.34994392  0.00207286  0.66389584  1
  O  O30  1  0.85643484  0.48256375  0.14745786  1
  O  O31  1  0.85576214  0.47981175  0.64785452  1
  O  O32  1  0.84459551  0.97959256  0.14259830  1
  O  O33  1  0.84460129  0.97814140  0.64493253  1
  O  O34  1  0.14750453  0.01497163  0.35983118  1
  O  O35  1  0.15029527  0.00989686  0.86127389  1
  O  O36  1  0.15240749  0.50945798  0.35505097  1
  O  O37  1  0.15082121  0.52496912  0.86102825  1
  O  O38  1  0.63351526  0.02430573  0.34527379  1
  O  O39  1  0.63108281  0.03115606  0.84902739  1
  O  O40  1  0.62270088  0.52773939  0.36064471  1
  O  O41  1  0.64338625  0.51811164  0.85610355  1
  O  O42  1  0.39289522  0.50988411  0.90388767  1
  O  O43  1  0.88644025  0.01618308  0.39387069  1
  O  O44  1  0.88506785  0.01460842  0.89564652  1
  O  O45  1  0.89596554  0.52026861  0.39010595  1
  O  O46  1  0.89444855  0.51784286  0.89926900  1
  O  O47  1  0.11033901  0.47735331  0.10512805  1
  O  O48  1  0.09824502  0.47358902  0.61794150  1
  O  O49  1  0.09880155  0.97393929  0.10748142  1
  O  O50  1  0.09971418  0.97912520  0.60873822  1
  O  O51  1  0.60903900  0.48756660  0.10457413  1
  O  O52  1  0.60259363  0.48645729  0.61146923  1
  O  O53  1  0.58844318  0.99224682  0.08214752  1
  O  O54  1  0.59184813  0.99359236  0.58259303  1
  O  O55  1  0.00845952  0.37970998  0.28822616  1
  O  O56  1  0.01613711  0.37928792  0.80168838  1
  O  O57  1  0.00302476  0.87284503  0.29216508  1
  O  O58  1  0.00638630  0.87196757  0.79370850  1
  O  O59  1  0.46861013  0.37695994  0.29823850  1
  O  O60  1  0.49236417  0.37428757  0.77388452  1
  O  O61  1  0.47829530  0.87146173  0.28975576  1
  O  O62  1  0.51459104  0.87291531  0.77862443  1
  O  O63  1  0.48395249  0.62408889  0.71907024  1
  O  O64  1  0.99842860  0.12838225  0.21678655  1
  O  O65  1  0.99911735  0.12909111  0.72019296  1
  O  O66  1  0.00658494  0.62751892  0.21272956  1
  O  O67  1  0.98992430  0.62470178  0.71763550  1
  O  O68  1  0.22020121  0.13802260  0.03095966  1
  O  O69  1  0.22467081  0.13748350  0.53201229  1
  O  O70  1  0.23282781  0.65210862  0.05524876  1
  O  O71  1  0.23315916  0.62256840  0.52551458  1
  O  O72  1  0.75015419  0.12547747  0.04220544  1
  O  O73  1  0.75434447  0.12422007  0.53850430  1
  O  O74  1  0.74548667  0.62440846  0.04054039  1
  O  O75  1  0.74556450  0.62467512  0.54386464  1
  O  O76  1  0.27453758  0.36193612  0.48582586  1
  O  O77  1  0.29668745  0.33430008  0.01770140  1
  O  O78  1  0.28292455  0.88402717  0.47079002  1
  O  O79  1  0.29391696  0.87798852  0.99050872  1
  O  O80  1  0.74351023  0.37755217  0.46191004  1
  O  O81  1  0.74687492  0.37617715  0.96487078  1
  O  O82  1  0.74603259  0.87280626  0.46354411  1
  O  O83  1  0.73987603  0.87389439  0.96576201  1
loop_
_geom_bond_atom_site_label_1
_geom_bond_atom_site_label_2
_geom_bond_distance
_geom_bond_site_symmetry_2
Ca0 O43 2.257028 1_455
Ca0 O65 2.348522 1_455
Ca0 O9 2.349146 1_455
Ca0 O69 2.512166 1_555
Ca0 O50 2.559798 1_545
Ca0 O73 2.717579 1_455
Ca0 O34 2.756457 1_555
Ca1 O44 2.252865 1_454
Ca1 O64 2.319013 1_455
Ca1 O10 2.326971 1_454
Ca1 O68 2.478669 1_555
Ca1 O49 2.613622 1_545
Ca1 O72 2.761286 1_455
Ca1 O35 2.805582 1_554
Ca2 O67 2.284258 1_455
Ca2 O11 2.355660 1_455
Ca2 O45 2.411906 1_455
Ca2 O71 2.439526 1_555
Ca2 O0 2.663452 1_555
Ca2 O48 2.781477 1_555
Ca2 O75 2.933622 1_455
Ca2 O36 2.940598 1_555
Ca3 O46 2.314097 1_455
Ca3 O12 2.359404 1_455
Ca3 O66 2.437757 1_556
Ca3 O70 2.476975 1_556
Ca3 O37 2.552270 1_555
Ca3 O16 2.718245 1_555
Ca3 O47 2.751154 1_556
Ca4 O5 2.318652 1_555
Ca4 O2 2.326879 1_555
Ca4 O73 2.363442 1_555
Ca4 O38 2.381130 1_555
Ca4 O54 2.388414 1_545
Ca4 O17 2.454661 1_555
Ca5 O72 2.321856 1_556
Ca5 O6 2.345328 1_555
Ca5 O1 2.369637 1_556
Ca5 O39 2.373291 1_555
Ca5 O53 2.400128 1_546
Ca5 O18 2.451122 1_555
Ca6 O63 2.341721 1_555
Ca6 O7 2.371479 1_555
Ca6 O75 2.390353 1_555
Ca6 O4 2.419496 1_555
Ca6 O40 2.515339 1_555
Ca6 O52 2.588348 1_555
Ca6 O19 2.647072 1_555
Ca7 O8 2.316860 1_555
Ca7 O42 2.411634 1_555
Ca7 O41 2.415677 1_555
Ca7 O74 2.433685 1_556
Ca7 O20 2.461204 1_555
Ca7 O3 2.601243 1_556
Ca7 O51 2.653663 1_556
Ca7 O63 2.832524 1_555
Ca8 O51 2.295173 1_556
Ca8 O60 2.324831 1_555
Ca8 O1 2.399825 1_556
Ca8 O42 2.464636 1_555
Ca8 O77 2.490677 1_556
Ca8 O81 2.618654 1_555
Ca8 O41 2.885644 1_555
Ca9 O52 2.248948 1_555
Ca9 O2 2.319817 1_555
Ca9 O59 2.362559 1_555
Ca9 O76 2.478984 1_555
Ca9 O27 2.671049 1_555
Ca9 O80 2.751346 1_555
Ca9 O60 2.869378 1_555
Ca10 O62 2.275679 1_555
Ca10 O3 2.282141 1_556
Ca10 O53 2.398534 1_556
Ca10 O79 2.453469 1_555
Ca10 O83 2.468037 1_555
Ca10 O8 2.512726 1_555
Ca11 O4 2.263686 1_555
Ca11 O78 2.345375 1_555
Ca11 O54 2.356812 1_555
Ca11 O61 2.399839 1_555
Ca11 O21 2.619769 1_555
Ca11 O82 2.825574 1_555
Ca12 O56 2.336408 1_654
Ca12 O47 2.375396 1_655
Ca12 O81 2.406115 1_554
Ca12 O30 2.464869 1_555
Ca12 O46 2.468832 1_554
Ca12 O10 2.546980 1_554
Ca12 O22 2.601994 1_555
Ca13 O48 2.365953 1_655
Ca13 O55 2.395356 1_655
Ca13 O80 2.414060 1_555
Ca13 O31 2.473157 1_555
Ca13 O45 2.491374 1_555
Ca13 O9 2.498936 1_555
Ca13 O23 2.639625 1_555
Ca14 O58 2.330645 1_655
Ca14 O83 2.401209 1_555
Ca14 O49 2.403939 1_656
Ca14 O44 2.487359 1_565
Ca14 O24 2.520776 1_556
Ca14 O32 2.538768 1_556
Ca14 O12 2.589926 1_555
Ca15 O0 2.384957 1_655
Ca15 O57 2.404463 1_655
Ca15 O50 2.415964 1_655
Ca15 O82 2.485465 1_555
Ca15 O25 2.558201 1_555
Ca15 O11 2.590113 1_555
Ca15 O33 2.624240 1_555
Ca15 O43 2.699740 1_565
Ca16 O36 2.350109 1_555
Ca16 O13 2.355020 1_555
Ca16 O47 2.439635 1_555
Ca16 O26 2.446371 1_555
Ca16 O55 2.500700 1_555
Ca16 O59 2.647728 1_555
Ca16 O76 2.670734 1_555
Ca16 O77 2.786243 1_555
Ca17 O27 2.323797 1_555
Ca17 O37 2.361284 1_555
Ca17 O56 2.441135 1_555
Ca17 O48 2.441329 1_555
Ca17 O14 2.502504 1_555
Ca17 O42 2.819645 1_555
Ca17 O60 2.872954 1_555
Ca17 O77 3.020119 1_556
Ca18 O78 2.284281 1_555
Ca18 O34 2.363216 1_565
Ca18 O15 2.418600 1_555
Ca18 O57 2.482721 1_555
Ca18 O28 2.540605 1_565
Ca18 O49 2.595119 1_555
Ca18 O61 2.772727 1_555
Ca19 O58 2.444700 1_555
Ca19 O21 2.455654 1_555
Ca19 O0 2.483006 1_555
Ca19 O50 2.520183 1_555
Ca19 O29 2.561194 1_565
Ca19 O16 2.606137 1_555
Ca19 O35 2.639293 1_565
Ca19 O79 2.875859 1_555
Ca20 O22 2.279234 1_555
Ca20 O30 2.322155 1_555
Ca20 O80 2.352258 1_555
Ca20 O51 2.718970 1_555
Ca20 O17 2.751181 1_555
Ca21 O31 2.310899 1_555
Ca21 O81 2.370459 1_555
Ca21 O23 2.376852 1_555
Ca21 O41 2.588662 1_555
Ca21 O52 2.592274 1_555
Ca21 O60 2.633022 1_555
Ca21 O18 2.811819 1_555
Ca22 O82 2.303639 1_555
Ca22 O32 2.306250 1_555
Ca22 O24 2.308754 1_555
Ca22 O57 2.727909 1_655
Ca22 O19 2.758276 1_555
Ca22 O3 2.944134 1_555
Ca23 O25 2.270128 1_555
Ca23 O33 2.372086 1_555
Ca23 O83 2.373254 1_555
Ca23 O62 2.471693 1_555
Ca23 O20 2.628257 1_555
Ca23 O4 2.683866 1_555
Ca24 O34 2.250435 1_555
Ca24 O13 2.279703 1_555
Ca24 O68 2.308578 1_555
Ca24 O28 2.340447 1_555
Ca24 O5 2.397778 1_555
Ca24 O64 2.512319 1_455
Ca25 O35 2.256047 1_555
Ca25 O69 2.271317 1_555
Ca25 O14 2.357600 1_555
Ca25 O29 2.366819 1_555
Ca25 O65 2.475003 1_455
Ca25 O6 2.482810 1_555
Ca25 O50 2.824770 1_545
Ca26 O15 2.258905 1_555
Ca26 O36 2.272338 1_555
Ca26 O70 2.293112 1_555
Ca26 O7 2.414916 1_555
Ca26 O26 2.448780 1_555
Ca26 O66 2.588020 1_555
Ca27 O71 2.368309 1_555
Ca27 O63 2.423205 1_555
Ca27 O16 2.431453 1_555
Ca27 O37 2.449666 1_555
Ca27 O21 2.565220 1_555
Ca27 O27 2.707883 1_555
Ca27 O8 2.773890 1_555
Ca27 O42 2.937225 1_555
Ca27 O67 3.011191 1_455
Ca28 O72 2.341301 1_555
Ca28 O17 2.375947 1_555
Ca28 O38 2.397360 1_555
Ca28 O64 2.430877 1_555
Ca28 O43 2.480546 1_555
Ca28 O32 2.582868 1_545
Ca28 O22 2.803664 1_555
Ca28 O9 2.968901 1_555
Ca29 O73 2.352345 1_555
Ca29 O39 2.388178 1_555
Ca29 O18 2.400879 1_555
Ca29 O65 2.426303 1_555
Ca29 O44 2.519916 1_555
Ca29 O33 2.584980 1_545
Ca29 O23 2.808787 1_555
Ca29 O10 2.952421 1_555
Ca30 O19 2.364275 1_555
Ca30 O74 2.379869 1_555
Ca30 O45 2.473229 1_555
Ca30 O66 2.508106 1_655
Ca30 O40 2.553751 1_555
Ca30 O30 2.592070 1_555
Ca30 O11 2.633924 1_555
Ca30 O24 2.774545 1_555
Ca31 O75 2.340196 1_555
Ca31 O20 2.395977 1_555
Ca31 O67 2.406317 1_555
Ca31 O41 2.434937 1_555
Ca31 O46 2.608147 1_555
Ca31 O12 2.666038 1_555
Ca31 O31 2.685001 1_555
Ca31 O25 2.692435 1_555
Mn0 O55 1.914069 1_555
Mn0 O30 1.954919 1_455
Mn0 O45 1.955254 1_455
Mn0 O36 1.988032 1_555
Mn0 O66 2.001760 1_555
Mn0 O47 2.049824 1_555
Mn1 O56 1.929311 1_655
Mn1 O48 1.934333 1_655
Mn1 O31 1.940586 1_555
Mn1 O46 1.974840 1_555
Mn1 O67 1.985226 1_555
Mn1 O37 2.065390 1_655
Mn2 O28 1.888102 1_565
Mn2 O61 1.902273 1_555
Mn2 O38 1.918060 1_565
Mn2 O53 1.930204 1_555
Mn3 O29 1.890691 1_565
Mn3 O39 1.902451 1_565
Mn3 O62 1.905887 1_555
Mn3 O54 1.945340 1_555
Mn4 O26 1.881766 1_555
Mn4 O40 1.882296 1_555
Mn4 O59 1.902428 1_555
Mn4 O51 1.920407 1_555
Mn5 O63 1.928910 1_555
Mn5 O52 1.935101 1_555
Mn5 O27 1.942188 1_555
Mn5 O60 1.979939 1_555
Mn5 O41 1.988819 1_555
Mn5 O42 2.067989 1_555
Mn6 O42 1.948381 1_554
Mn6 O37 1.965690 1_554
Mn6 O47 1.972868 1_555
Mn6 O26 2.000159 1_555
Mn6 O70 2.194872 1_555
Mn6 O77 2.829271 1_555
Mn7 O27 1.913987 1_555
Mn7 O36 1.928435 1_555
Mn7 O71 1.964123 1_555
Mn7 O48 1.984400 1_555
Mn7 O76 2.128081 1_555
Mn8 O53 1.946720 1_546
Mn8 O44 1.947028 1_555
Mn8 O32 1.952828 1_546
Mn8 O72 1.984706 1_556
Mn8 O83 1.992268 1_545
Mn8 O39 2.069898 1_555
Mn9 O43 1.941906 1_565
Mn9 O33 1.948592 1_555
Mn9 O54 1.953279 1_555
Mn9 O82 1.969487 1_555
Mn9 O73 1.999772 1_565
Mn9 O38 2.096107 1_565
Mn10 O74 1.928420 1_555
Mn10 O46 1.949651 1_554
Mn10 O51 1.963830 1_555
Mn10 O41 1.968149 1_554
Mn10 O30 1.988427 1_555
Mn10 O81 1.995594 1_554
Mn11 O75 1.936717 1_555
Mn11 O80 1.983522 1_555
Mn11 O52 2.014964 1_555
Mn11 O31 2.021424 1_555
Mn11 O40 2.063546 1_555
Mn11 O45 2.080433 1_555
Mn12 O70 1.849327 1_556
Mn12 O16 1.883797 1_555
Mn12 O79 1.911569 1_555
Mn12 O8 1.916758 1_555
Mn13 O21 1.948936 1_555
Mn13 O15 2.007883 1_555
Mn13 O71 2.030258 1_555
Mn13 O0 2.079453 1_555
Mn13 O78 2.086273 1_555
Mn13 O7 2.368613 1_555
Mn14 O18 1.937851 1_554
Mn14 O72 1.969160 1_555
Mn14 O22 1.974001 1_555
Mn14 O81 1.994449 1_554
Mn14 O10 2.022694 1_554
Mn14 O1 2.095059 1_555
Mn15 O17 1.948316 1_555
Mn15 O73 1.978324 1_555
Mn15 O23 2.009506 1_555
Mn15 O80 2.025156 1_555
Mn15 O9 2.031075 1_555
Mn15 O2 2.105943 1_555
Mn16 O74 1.921965 1_555
Mn16 O12 1.953785 1_554
Mn16 O20 1.954418 1_554
Mn16 O24 1.987863 1_555
Mn16 O83 2.024185 1_554
Mn16 O3 2.137914 1_555
Mn17 O11 1.916592 1_555
Mn17 O75 1.924404 1_555
Mn17 O25 1.928199 1_555
Mn17 O19 1.975142 1_555
Mn17 O4 2.003041 1_555
Mn17 O82 2.008819 1_555
Mn18 O57 1.911183 1_655
Mn18 O15 1.928686 1_655
Mn18 O24 1.963600 1_555
Mn18 O66 1.983520 1_655
Mn18 O11 2.004884 1_555
Mn19 O58 1.926096 1_655
Mn19 O25 1.946234 1_555
Mn19 O16 1.947063 1_655
Mn19 O0 1.969676 1_655
Mn19 O67 1.985827 1_555
Mn19 O12 2.020434 1_555
Mn20 O1 1.985871 1_555
Mn20 O17 2.008498 1_555
Mn20 O5 2.019897 1_555
Mn20 O59 2.023118 1_555
Mn21 O2 1.965475 1_555
Mn21 O60 1.985687 1_555
Mn21 O18 1.988831 1_555
Mn21 O6 2.038109 1_555
Mn22 O19 1.855110 1_555
Mn22 O7 1.855782 1_555
Mn22 O3 1.898431 1_555
Mn22 O61 1.962002 1_555
Mn23 O63 1.933883 1_555
Mn23 O4 1.956383 1_555
Mn23 O8 1.958535 1_555
Mn23 O62 1.974015 1_555
Mn23 O21 1.994583 1_555
Mn23 O20 2.007837 1_555
Cr0 O57 1.978107 1_655
Cr0 O43 1.993877 1_565
Cr0 O49 2.009795 1_655
Cr0 O34 2.030167 1_665
Cr0 O32 2.045357 1_555
Cr0 O64 2.054349 1_565
Cr1 O58 1.968500 1_655
Cr1 O50 1.991992 1_655
Cr1 O44 2.014090 1_565
Cr1 O33 2.034093 1_555
Cr1 O35 2.054138 1_665
Cr1 O65 2.086838 1_565
Cr2 O49 1.893501 1_555
Cr2 O35 1.931519 1_564
Cr2 O79 1.949100 1_554
Cr2 O28 2.034327 1_565
Cr2 O68 2.205549 1_565
Cr3 O50 1.893278 1_545
Cr3 O34 1.945750 1_555
Cr3 O78 1.951932 1_545
Cr3 O29 2.033610 1_555
Cr3 O69 2.105775 1_555
Cr4 O77 1.744538 1_556
Cr4 O14 1.811441 1_555
Cr4 O68 1.831625 1_556
Cr4 O6 1.876609 1_555
Cr5 O13 1.893613 1_555
Cr5 O76 1.905575 1_555
Cr5 O69 1.917828 1_555
Cr5 O5 1.963403 1_555
Cr6 O9 1.899626 1_555
Cr6 O22 1.950661 1_555
Cr6 O55 1.980715 1_655
Cr6 O13 1.982892 1_655
Cr6 O64 2.001617 1_555
Cr7 O10 1.900933 1_555
Cr7 O23 1.937452 1_555
Cr7 O56 1.975632 1_655
Cr7 O65 2.019823 1_555
Cr7 O14 2.056115 1_655
