# generated using pymatgen
data_Na2NiH4(SeO5)2
_symmetry_space_group_name_H-M   'P 1'
_cell_length_a   5.61391306
_cell_length_b   6.00554076
_cell_length_c   7.50769743
_cell_angle_alpha   110.02338637
_cell_angle_beta   99.30938470
_cell_angle_gamma   106.19543777
_symmetry_Int_Tables_number   1
_chemical_formula_structural   Na2NiH4(SeO5)2
_chemical_formula_sum   'Na2 Ni1 H4 Se2 O10'
_cell_volume   218.90037885
_cell_formula_units_Z   1
loop_
 _symmetry_equiv_pos_site_id
 _symmetry_equiv_pos_as_xyz
  1  'x, y, z'
loop_
 _atom_site_type_symbol
 _atom_site_label
 _atom_site_symmetry_multiplicity
 _atom_site_fract_x
 _atom_site_fract_y
 _atom_site_fract_z
 _atom_site_occupancy
  Na  Na0  1  0.33649800  0.70775600  0.25111400  1
  Na  Na1  1  0.66350200  0.29224400  0.74888600  1
  Ni  Ni0  1  0.00000000  0.00000000  0.00000000  1
  H  H0  1  0.85394100  0.87393300  0.62100800  1
  H  H1  1  0.14605900  0.12606700  0.37899200  1
  H  H2  1  0.08196900  0.14162800  0.71625500  1
  H  H3  1  0.91803100  0.85837200  0.28374500  1
  Se  Se0  1  0.33880600  0.66689000  0.76277600  1
  Se  Se1  1  0.66119400  0.33311000  0.23722400  1
  O  O0  1  0.10396800  0.67897300  0.87755200  1
  O  O1  1  0.89603200  0.32102700  0.12244800  1
  O  O2  1  0.61943400  0.75862500  0.93734100  1
  O  O3  1  0.38056600  0.24137500  0.06265900  1
  O  O4  1  0.35630900  0.83409300  0.62725700  1
  O  O5  1  0.64369100  0.16590700  0.37274300  1
  O  O6  1  0.27489100  0.35762500  0.62871800  1
  O  O7  1  0.72510900  0.64237500  0.37128200  1
  O  O8  1  0.92692500  0.03888000  0.73856700  1
  O  O9  1  0.07307500  0.96112000  0.26143300  1
loop_
_geom_bond_atom_site_label_1
_geom_bond_atom_site_label_2
_geom_bond_distance
_geom_bond_site_symmetry_2
Na0 O9 2.391597 1_555
Na0 O7 2.410655 1_555
Na0 O5 2.549787 1_565
Na0 O1 2.632275 1_455
Na0 O4 2.635691 1_555
Na0 O3 2.773788 1_555
Na0 O0 2.820875 1_554
Na1 O8 2.391597 1_555
Na1 O6 2.410655 1_555
Na1 O4 2.549787 1_545
Na1 O0 2.632275 1_655
Na1 O5 2.635691 1_555
Na1 O2 2.773788 1_555
Na1 O1 2.820875 1_556
Ni0 O9 2.044997 1_545
Ni0 O8 2.044997 1_454
Ni0 O3 2.089819 1_555
Ni0 O2 2.089819 1_444
Ni0 O0 2.119038 1_544
Ni0 O1 2.119038 1_455
H0 O8 0.992978 1_565
H1 O9 0.992978 1_545
H2 O8 0.992358 1_455
H3 O9 0.992358 1_655
O0 Se0 1.692324 1_555
O1 Se1 1.692324 1_555
O2 Se0 1.690113 1_555
O3 Se1 1.690113 1_555
O4 Se0 1.652294 1_555
O5 Se1 1.652294 1_555
O6 Se0 1.680056 1_555
O7 Se1 1.680056 1_555
