# generated using pymatgen
data_LaSi2Ni9
_symmetry_space_group_name_H-M   'P 1'
_cell_length_a   7.63799494
_cell_length_b   7.63799494
_cell_length_c   7.63799494
_cell_angle_alpha   99.52436629
_cell_angle_beta   99.52436629
_cell_angle_gamma   131.99501439
_symmetry_Int_Tables_number   1
_chemical_formula_structural   LaSi2Ni9
_chemical_formula_sum   'La2 Si4 Ni18'
_cell_volume   302.52922164
_cell_formula_units_Z   2
loop_
 _symmetry_equiv_pos_site_id
 _symmetry_equiv_pos_as_xyz
  1  'x, y, z'
loop_
 _atom_site_type_symbol
 _atom_site_label
 _atom_site_symmetry_multiplicity
 _atom_site_fract_x
 _atom_site_fract_y
 _atom_site_fract_z
 _atom_site_occupancy
  La  La0  1  0.00000000  0.00000000  0.00000000  1
  La  La1  1  0.25000000  0.75000000  0.50000000  1
  Si  Si0  1  0.12500000  0.37500000  0.75000000  1
  Si  Si1  1  0.62500000  0.87500000  0.25000000  1
  Si  Si2  1  0.62500000  0.37500000  0.75000000  1
  Si  Si3  1  0.62500000  0.37500000  0.25000000  1
  Ni  Ni0  1  0.75000000  0.25000000  0.50000000  1
  Ni  Ni1  1  0.50000000  0.50000000  0.00000000  1
  Ni  Ni2  1  0.18897200  0.51773900  0.07879900  1
  Ni  Ni3  1  0.18897200  0.11017300  0.67123200  1
  Ni  Ni4  1  0.76773900  0.93897200  0.57879900  1
  Ni  Ni5  1  0.76773900  0.18894100  0.82876800  1
  Ni  Ni6  1  0.43894100  0.51773900  0.32876800  1
  Ni  Ni7  1  0.43894100  0.11017300  0.92120100  1
  Ni  Ni8  1  0.36017300  0.93897200  0.17123200  1
  Ni  Ni9  1  0.36017300  0.18894100  0.42120100  1
  Ni  Ni10  1  0.06102800  0.23226100  0.42120100  1
  Ni  Ni11  1  0.06102800  0.63982700  0.82876800  1
  Ni  Ni12  1  0.48226100  0.81102800  0.92120100  1
  Ni  Ni13  1  0.48226100  0.56105900  0.67123200  1
  Ni  Ni14  1  0.81105900  0.23226100  0.17123200  1
  Ni  Ni15  1  0.81105900  0.63982700  0.57879900  1
  Ni  Ni16  1  0.88982700  0.81102800  0.32876800  1
  Ni  Ni17  1  0.88982700  0.56105900  0.07879900  1
loop_
_geom_bond_atom_site_label_1
_geom_bond_atom_site_label_2
_geom_bond_distance
_geom_bond_site_symmetry_2
La0 Ni12 3.061149 1_444
La0 Ni2 3.061149 1_555
La0 Ni13 3.061153 1_444
La0 Ni6 3.061153 1_555
La0 Ni16 3.061156 1_445
La0 Ni17 3.061156 1_445
La0 Ni3 3.061156 1_554
La0 Ni7 3.061156 1_554
La0 Ni1 3.106956 1_555
La0 Ni1 3.106956 1_445
La0 Ni9 3.197310 1_555
La0 Ni8 3.197310 1_545
La0 Ni11 3.197310 1_544
La0 Ni15 3.197310 1_444
La0 Ni10 3.197312 1_555
La0 Ni4 3.197312 1_444
La0 Ni5 3.197316 1_454
La0 Ni14 3.197316 1_455
La0 Si2 3.393469 1_444
La0 Si0 3.393469 1_554
La0 Si3 3.393469 1_555
La0 Si1 3.393469 1_445
La1 Ni4 3.061149 1_555
La1 Ni10 3.061149 1_555
La1 Ni5 3.061153 1_565
La1 Ni14 3.061153 1_455
La1 Ni11 3.061156 1_555
La1 Ni8 3.061156 1_555
La1 Ni9 3.061156 1_565
La1 Ni15 3.061156 1_455
La1 Ni0 3.106956 1_455
La1 Ni0 3.106956 1_565
La1 Ni17 3.197310 1_455
La1 Ni16 3.197310 1_455
La1 Ni7 3.197310 1_565
La1 Ni3 3.197310 1_565
La1 Ni2 3.197312 1_555
La1 Ni12 3.197312 1_555
La1 Ni13 3.197316 1_555
La1 Ni6 3.197316 1_555
La1 Si2 3.393469 1_565
La1 Si1 3.393469 1_555
La1 Si3 3.393469 1_455
La1 Si0 3.393469 1_555
Ni0 Si3 2.586319 1_555
Ni0 Si2 2.586319 1_555
Ni0 Si0 2.586319 1_655
Ni0 Si1 2.586319 1_545
Ni0 Ni4 2.626998 1_545
Ni0 Ni10 2.626998 1_655
Ni0 Ni5 2.627003 1_555
Ni0 Ni14 2.627003 1_555
Ni0 Ni9 2.627003 1_555
Ni0 Ni8 2.627003 1_545
Ni0 Ni11 2.627003 1_655
Ni0 Ni15 2.627003 1_555
Ni1 Si0 2.586319 1_554
Ni1 Si3 2.586319 1_555
Ni1 Si2 2.586319 1_554
Ni1 Si1 2.586319 1_555
Ni1 Ni12 2.626998 1_554
Ni1 Ni2 2.626998 1_555
Ni1 Ni13 2.627003 1_554
Ni1 Ni6 2.627003 1_555
Ni1 Ni3 2.627003 1_554
Ni1 Ni16 2.627003 1_555
Ni1 Ni7 2.627003 1_554
Ni1 Ni17 2.627003 1_555
Ni2 Si1 2.337679 1_555
Ni2 Si0 2.389415 1_554
Ni2 Ni5 2.423405 1_454
Ni2 Ni8 2.423409 1_555
Ni2 Ni6 2.466620 1_555
Ni3 Si2 2.337678 1_555
Ni3 Si0 2.389416 1_555
Ni3 Ni9 2.423402 1_555
Ni3 Ni4 2.423409 1_445
Ni3 Ni7 2.466620 1_555
Ni4 Si0 2.337679 1_665
Ni4 Si1 2.389415 1_555
Ni4 Ni6 2.423405 1_555
Ni4 Ni5 2.466620 1_565
Ni5 Si0 2.337684 1_655
Ni5 Si2 2.389410 1_555
Ni5 Ni7 2.423395 1_555
Ni6 Si1 2.337684 1_555
Ni6 Si3 2.389410 1_555
Ni6 Ni9 2.423395 1_555
Ni7 Si2 2.337678 1_555
Ni7 Si3 2.389416 1_556
Ni7 Ni8 2.423402 1_546
Ni8 Si3 2.337678 1_565
Ni8 Si1 2.389416 1_555
Ni8 Ni9 2.466620 1_565
Ni9 Si3 2.337678 1_555
Ni9 Si2 2.389416 1_555
Ni10 Si1 2.337679 1_445
Ni10 Si0 2.389415 1_555
Ni10 Ni13 2.423405 1_555
Ni10 Ni16 2.423409 1_445
Ni10 Ni14 2.466620 1_455
Ni10 Ni9 2.518282 1_555
Ni10 Ni6 2.519229 1_555
Ni10 Ni4 2.560298 1_445
Ni10 Ni3 2.581239 1_555
Ni11 Si2 2.337678 1_455
Ni11 Si0 2.389416 1_555
Ni11 Ni17 2.423402 1_456
Ni11 Ni12 2.423409 1_555
Ni11 Ni15 2.466620 1_455
Ni11 Ni8 2.518277 1_556
Ni11 Ni7 2.519231 1_565
Ni11 Ni5 2.560292 1_455
Ni11 Ni2 2.581239 1_556
Ni12 Si0 2.337679 1_555
Ni12 Si1 2.389415 1_556
Ni12 Ni14 2.423405 1_566
Ni12 Ni13 2.466620 1_555
Ni12 Ni7 2.518282 1_565
Ni12 Ni5 2.519229 1_565
Ni12 Ni2 2.560298 1_556
Ni12 Ni8 2.581239 1_556
Ni13 Si0 2.337684 1_555
Ni13 Si2 2.389410 1_555
Ni13 Ni15 2.423395 1_555
Ni13 Ni6 2.518275 1_555
Ni13 Ni4 2.519229 1_555
Ni13 Ni3 2.560292 1_555
Ni13 Ni9 2.581229 1_555
Ni14 Si1 2.337684 1_545
Ni14 Si3 2.389410 1_555
Ni14 Ni17 2.423395 1_555
Ni14 Ni5 2.518275 1_554
Ni14 Ni2 2.519229 1_655
Ni14 Ni8 2.560292 1_545
Ni14 Ni7 2.581229 1_554
Ni15 Si2 2.337678 1_555
Ni15 Si3 2.389416 1_555
Ni15 Ni16 2.423402 1_555
Ni15 Ni4 2.518282 1_555
Ni15 Ni3 2.519231 1_665
Ni15 Ni9 2.560292 1_555
Ni15 Ni6 2.581229 1_555
Ni16 Si3 2.337678 1_555
Ni16 Si1 2.389416 1_555
Ni16 Ni17 2.466620 1_555
Ni16 Ni3 2.518277 1_665
Ni16 Ni9 2.519231 1_665
Ni16 Ni6 2.560292 1_555
Ni16 Ni4 2.581239 1_555
Ni17 Si3 2.337678 1_555
Ni17 Si2 2.389416 1_554
Ni17 Ni2 2.518282 1_655
Ni17 Ni8 2.519231 1_655
Ni17 Ni7 2.560292 1_554
Ni17 Ni5 2.581229 1_554
