# generated using pymatgen
data_Lu3Ga5Co
_symmetry_space_group_name_H-M   'P 1'
_cell_length_a   6.73704747
_cell_length_b   6.73704747
_cell_length_c   4.10708209
_cell_angle_alpha   90.00000000
_cell_angle_beta   90.00000000
_cell_angle_gamma   119.99999950
_symmetry_Int_Tables_number   1
_chemical_formula_structural   Lu3Ga5Co
_chemical_formula_sum   'Lu3 Ga5 Co1'
_cell_volume   161.43705710
_cell_formula_units_Z   1
loop_
 _symmetry_equiv_pos_site_id
 _symmetry_equiv_pos_as_xyz
  1  'x, y, z'
loop_
 _atom_site_type_symbol
 _atom_site_label
 _atom_site_symmetry_multiplicity
 _atom_site_fract_x
 _atom_site_fract_y
 _atom_site_fract_z
 _atom_site_occupancy
  Lu  Lu0  1  0.59647505  0.00000000  -0.00000000  1
  Lu  Lu1  1  0.00000000  0.59647505  -0.00000000  1
  Lu  Lu2  1  0.40352495  0.40352495  0.00000000  1
  Ga  Ga0  1  0.23297722  -0.00000000  0.50000000  1
  Ga  Ga1  1  -0.00000000  0.23297722  0.50000000  1
  Ga  Ga2  1  0.76702278  0.76702278  0.50000000  1
  Ga  Ga3  1  0.33333300  0.66666700  0.50000000  1
  Ga  Ga4  1  0.66666700  0.33333300  0.50000000  1
  Co  Co0  1  -0.00000000  0.00000000  -0.00000000  1
loop_
_geom_bond_atom_site_label_1
_geom_bond_atom_site_label_2
_geom_bond_distance
_geom_bond_site_symmetry_2
Ga0 Ga3 2.649245 1_545
Ga0 Ga4 2.649250 1_555
Ga0 Ga1 2.718590 1_555
Ga0 Ga2 2.718590 1_445
Ga0 Lu2 3.131167 1_556
Ga0 Lu2 3.131167 1_555
Ga0 Lu1 3.131167 1_545
Ga0 Lu1 3.131167 1_546
Ga0 Lu0 3.195959 1_556
Ga0 Lu0 3.195959 1_555
Ga1 Ga4 2.649245 1_455
Ga1 Ga3 2.649250 1_555
Ga1 Ga2 2.718590 1_445
Ga1 Lu2 3.131167 1_556
Ga1 Lu2 3.131167 1_555
Ga1 Lu0 3.131167 1_456
Ga1 Lu0 3.131167 1_455
Ga1 Lu1 3.195959 1_556
Ga1 Lu1 3.195959 1_555
Ga2 Ga4 2.649252 1_555
Ga2 Ga3 2.649252 1_555
Ga2 Lu0 3.131167 1_566
Ga2 Lu0 3.131167 1_565
Ga2 Lu1 3.131167 1_655
Ga2 Lu1 3.131167 1_656
Ga2 Lu2 3.195959 1_556
Ga2 Lu2 3.195959 1_555
Ga3 Lu1 2.902030 1_556
Ga3 Lu1 2.902030 1_555
Ga3 Lu0 2.902032 1_566
Ga3 Lu0 2.902032 1_565
Ga3 Lu2 2.902035 1_556
Ga3 Lu2 2.902035 1_555
Ga4 Lu0 2.902030 1_556
Ga4 Lu0 2.902030 1_555
Ga4 Lu1 2.902032 1_656
Ga4 Lu1 2.902032 1_655
Ga4 Lu2 2.902035 1_556
Ga4 Lu2 2.902035 1_555
Co0 Ga0 2.584687 1_555
Co0 Ga1 2.584687 1_555
Co0 Ga0 2.584687 1_554
Co0 Ga1 2.584687 1_554
Co0 Ga2 2.584687 1_444
Co0 Ga2 2.584687 1_445
Co0 Lu1 2.718567 1_545
Co0 Lu0 2.718567 1_455
Co0 Lu2 2.718567 1_555
