# generated using pymatgen
data_Ce2NiGe3
_symmetry_space_group_name_H-M   'P 1'
_cell_length_a   4.24044021
_cell_length_b   4.24044021
_cell_length_c   7.92568800
_cell_angle_alpha   90.00000000
_cell_angle_beta   90.00000000
_cell_angle_gamma   120.00000320
_symmetry_Int_Tables_number   1
_chemical_formula_structural   Ce2NiGe3
_chemical_formula_sum   'Ce2 Ni1 Ge3'
_cell_volume   123.42111821
_cell_formula_units_Z   1
loop_
 _symmetry_equiv_pos_site_id
 _symmetry_equiv_pos_as_xyz
  1  'x, y, z'
loop_
 _atom_site_type_symbol
 _atom_site_label
 _atom_site_symmetry_multiplicity
 _atom_site_fract_x
 _atom_site_fract_y
 _atom_site_fract_z
 _atom_site_occupancy
  Ce  Ce0  1  0.66666700  0.33333300  0.23545400  1
  Ce  Ce1  1  0.66666700  0.33333300  0.76454600  1
  Ni  Ni0  1  0.00000000  0.00000000  0.00000000  1
  Ge  Ge0  1  0.00000000  0.00000000  0.50000000  1
  Ge  Ge1  1  0.33333300  0.66666700  0.00000000  1
  Ge  Ge2  1  0.33333300  0.66666700  0.50000000  1
loop_
_geom_bond_atom_site_label_1
_geom_bond_atom_site_label_2
_geom_bond_distance
_geom_bond_site_symmetry_2
Ce0 Ge1 3.078348 1_655
Ce0 Ge1 3.078348 1_545
Ce0 Ni0 3.078348 1_655
Ce0 Ni0 3.078351 1_555
Ce0 Ni0 3.078351 1_665
Ce0 Ge1 3.078354 1_555
Ce0 Ge2 3.223345 1_545
Ce0 Ge2 3.223345 1_655
Ce0 Ge0 3.223345 1_655
Ce0 Ge0 3.223348 1_665
Ce0 Ge0 3.223348 1_555
Ce0 Ge2 3.223351 1_555
Ce1 Ge1 3.078348 1_546
Ce1 Ge1 3.078348 1_656
Ce1 Ni0 3.078348 1_656
Ce1 Ni0 3.078351 1_666
Ce1 Ni0 3.078351 1_556
Ce1 Ge1 3.078354 1_556
Ce1 Ge2 3.223345 1_545
Ce1 Ge2 3.223345 1_655
Ce1 Ge0 3.223345 1_655
Ce1 Ge0 3.223348 1_665
Ce1 Ge0 3.223348 1_555
Ce1 Ge2 3.223351 1_555
Ge0 Ge2 2.448217 1_545
Ge0 Ge2 2.448220 1_555
Ge0 Ge2 2.448220 1_445
Ge1 Ni0 2.448217 1_565
Ge1 Ni0 2.448220 1_665
Ge1 Ni0 2.448220 1_555
