# generated using pymatgen
data_Li3Ho
_symmetry_space_group_name_H-M   'P 1'
_cell_length_a   6.51770243
_cell_length_b   6.51770243
_cell_length_c   5.01878400
_cell_angle_alpha   90.00000000
_cell_angle_beta   90.00000000
_cell_angle_gamma   120.00000434
_symmetry_Int_Tables_number   1
_chemical_formula_structural   Li3Ho
_chemical_formula_sum   'Li6 Ho2'
_cell_volume   184.63676160
_cell_formula_units_Z   2
loop_
 _symmetry_equiv_pos_site_id
 _symmetry_equiv_pos_as_xyz
  1  'x, y, z'
loop_
 _atom_site_type_symbol
 _atom_site_label
 _atom_site_symmetry_multiplicity
 _atom_site_fract_x
 _atom_site_fract_y
 _atom_site_fract_z
 _atom_site_occupancy
  Li  Li0  1  0.15053400  0.30106800  0.25000000  1
  Li  Li1  1  0.69893200  0.84946600  0.25000000  1
  Li  Li2  1  0.15053400  0.84946600  0.25000000  1
  Li  Li3  1  0.84946600  0.69893200  0.75000000  1
  Li  Li4  1  0.30106800  0.15053400  0.75000000  1
  Li  Li5  1  0.84946600  0.15053400  0.75000000  1
  Ho  Ho0  1  0.33333300  0.66666700  0.75000000  1
  Ho  Ho1  1  0.66666700  0.33333300  0.25000000  1
loop_
_geom_bond_atom_site_label_1
_geom_bond_atom_site_label_2
_geom_bond_distance
_geom_bond_site_symmetry_2
Li0 Li1 2.943407 1_445
Li0 Li2 2.943407 1_545
Li0 Li5 3.030665 1_454
Li0 Li5 3.030665 1_455
Li0 Li4 3.030665 1_555
Li0 Li4 3.030665 1_554
Li1 Li2 2.943407 1_655
Li1 Li5 3.030665 1_564
Li1 Li5 3.030665 1_565
Li1 Li3 3.030665 1_555
Li1 Li3 3.030665 1_554
Li2 Li4 3.030665 1_564
Li2 Li4 3.030665 1_565
Li2 Li3 3.030665 1_455
Li2 Li3 3.030665 1_454
Li3 Li4 2.943407 1_665
Li3 Li5 2.943407 1_565
Li4 Li5 2.943407 1_455
Ho0 Li2 3.248932 1_556
Ho0 Li2 3.248932 1_555
Ho0 Li0 3.248936 1_556
Ho0 Li1 3.248936 1_555
Ho0 Li0 3.248936 1_555
Ho0 Li1 3.248936 1_556
Ho0 Li4 3.263933 1_565
Ho0 Li3 3.263933 1_455
Ho0 Li5 3.263936 1_455
Ho0 Li5 3.263936 1_565
Ho0 Li4 3.263939 1_555
Ho0 Li3 3.263939 1_555
Ho1 Li5 3.248932 1_555
Ho1 Li5 3.248932 1_554
Ho1 Li3 3.248936 1_554
Ho1 Li3 3.248936 1_555
Ho1 Li4 3.248936 1_554
Ho1 Li4 3.248936 1_555
Ho1 Li0 3.263933 1_655
Ho1 Li1 3.263933 1_545
Ho1 Li2 3.263936 1_545
Ho1 Li2 3.263936 1_655
Ho1 Li0 3.263939 1_555
Ho1 Li1 3.263939 1_555
