# generated using pymatgen
data_Ca3(CN2)2
_symmetry_space_group_name_H-M   'P 1'
_cell_length_a   7.11911417
_cell_length_b   10.53388178
_cell_length_c   5.37812021
_cell_angle_alpha   90.00000138
_cell_angle_beta   99.23058294
_cell_angle_gamma   137.71701614
_symmetry_Int_Tables_number   1
_chemical_formula_structural   Ca3(CN2)2
_chemical_formula_sum   'Ca6 C4 N8'
_cell_volume   263.52259720
_cell_formula_units_Z   2
loop_
 _symmetry_equiv_pos_site_id
 _symmetry_equiv_pos_as_xyz
  1  'x, y, z'
loop_
 _atom_site_type_symbol
 _atom_site_label
 _atom_site_symmetry_multiplicity
 _atom_site_fract_x
 _atom_site_fract_y
 _atom_site_fract_z
 _atom_site_occupancy
  Ca  Ca0  1  0.25182091  0.99360546  0.06524983  1
  Ca  Ca1  1  0.74817909  0.74178455  0.43475017  1
  Ca  Ca2  1  0.74817909  0.00639454  0.93475017  1
  Ca  Ca3  1  0.25182091  0.25821545  0.56524983  1
  Ca  Ca4  1  -0.00000000  0.55006287  0.75000000  1
  Ca  Ca5  1  0.00000000  0.44993713  0.25000000  1
  C  C0  1  0.52102057  0.15034663  0.67074926  1
  C  C1  1  0.47897943  0.62932607  0.82925074  1
  C  C2  1  0.47897943  0.84965337  0.32925074  1
  C  C3  1  0.52102057  0.37067393  0.17074926  1
  N  N0  1  0.25465703  0.01543977  0.55119493  1
  N  N1  1  0.74534297  0.76078275  0.94880507  1
  N  N2  1  0.74534297  0.98456023  0.44880507  1
  N  N3  1  0.25465703  0.23921725  0.05119493  1
  N  N4  1  0.70471010  0.21925932  0.88384670  1
  N  N5  1  0.29528990  0.51454922  0.61615330  1
  N  N6  1  0.29528990  0.78074068  0.11615330  1
  N  N7  1  0.70471010  0.48545078  0.38384670  1
loop_
_geom_bond_atom_site_label_1
_geom_bond_atom_site_label_2
_geom_bond_distance
_geom_bond_site_symmetry_2
Ca0 N1 2.366194 1_454
Ca0 N6 2.489608 1_555
Ca0 N3 2.573549 1_565
Ca0 N4 2.581944 1_564
Ca0 N0 2.619110 1_565
Ca0 N0 2.776262 1_564
Ca1 N0 2.366194 1_665
Ca1 N7 2.489608 1_555
Ca1 N2 2.573549 1_555
Ca1 N5 2.581944 1_555
Ca1 N1 2.619110 1_554
Ca1 N1 2.776262 1_555
Ca2 N3 2.366194 1_656
Ca2 N4 2.489608 1_555
Ca2 N1 2.573549 1_545
Ca2 N6 2.581944 1_546
Ca2 N2 2.619110 1_545
Ca2 N2 2.776262 1_546
Ca3 N2 2.366194 1_445
Ca3 N5 2.489608 1_555
Ca3 N0 2.573549 1_555
Ca3 N7 2.581944 1_555
Ca3 N3 2.619110 1_556
Ca3 N3 2.776262 1_555
Ca4 N6 2.305458 1_556
Ca4 N7 2.305458 1_455
Ca4 N5 2.593550 1_555
Ca4 N4 2.593550 1_455
Ca5 N4 2.305458 1_454
Ca5 N5 2.305458 1_555
Ca5 N7 2.593550 1_455
Ca5 N6 2.593550 1_555
C0 N0 1.284622 1_555
C0 N4 1.290379 1_555
C1 N1 1.284622 1_555
C1 N5 1.290379 1_555
C2 N2 1.284622 1_555
C2 N6 1.290379 1_555
C3 N3 1.284622 1_555
C3 N7 1.290379 1_555
