# generated using pymatgen
data_PrSn2
_symmetry_space_group_name_H-M   'P 1'
_cell_length_a   4.49527457
_cell_length_b   4.60747352
_cell_length_c   8.55476640
_cell_angle_alpha   90.00000000
_cell_angle_beta   105.23240332
_cell_angle_gamma   90.00000000
_symmetry_Int_Tables_number   1
_chemical_formula_structural   PrSn2
_chemical_formula_sum   'Pr2 Sn4'
_cell_volume   170.96025497
_cell_formula_units_Z   2
loop_
 _symmetry_equiv_pos_site_id
 _symmetry_equiv_pos_as_xyz
  1  'x, y, z'
loop_
 _atom_site_type_symbol
 _atom_site_label
 _atom_site_symmetry_multiplicity
 _atom_site_fract_x
 _atom_site_fract_y
 _atom_site_fract_z
 _atom_site_occupancy
  Pr  Pr0  1  0.85658905  0.50000000  0.71317810  1
  Pr  Pr1  1  0.14341095  0.50000000  0.28682190  1
  Sn  Sn0  1  0.68914511  0.00000000  0.37829121  1
  Sn  Sn1  1  0.31085489  -0.00000000  0.62170879  1
  Sn  Sn2  1  0.50000000  0.50000000  -0.00000000  1
  Sn  Sn3  1  -0.00000000  -0.00000000  -0.00000000  1
loop_
_geom_bond_atom_site_label_1
_geom_bond_atom_site_label_2
_geom_bond_distance
_geom_bond_site_symmetry_2
Pr0 Sn2 3.264489 1_556
Pr0 Sn2 3.264489 1_656
Pr0 Sn3 3.303365 1_666
Pr0 Sn3 3.303365 1_656
Pr0 Sn1 3.305920 1_565
Pr0 Sn1 3.305920 1_555
Pr0 Sn1 3.305922 1_665
Pr0 Sn1 3.305922 1_655
Pr0 Sn0 3.598357 1_565
Pr0 Sn0 3.598357 1_555
Pr1 Sn2 3.264489 1_555
Pr1 Sn2 3.264489 1_455
Pr1 Sn3 3.303365 1_565
Pr1 Sn3 3.303365 1_555
Pr1 Sn0 3.305920 1_565
Pr1 Sn0 3.305920 1_555
Pr1 Sn0 3.305922 1_455
Pr1 Sn0 3.305922 1_465
Pr1 Sn1 3.598357 1_555
Pr1 Sn1 3.598357 1_565
Sn0 Sn1 3.014768 1_555
Sn0 Sn1 3.014775 1_655
Sn2 Sn3 3.218552 1_655
Sn2 Sn3 3.218552 1_665
Sn2 Sn3 3.218552 1_555
Sn2 Sn3 3.218552 1_565
