# generated using pymatgen
data_K3Mn
_symmetry_space_group_name_H-M   'P 1'
_cell_length_a   8.55960263
_cell_length_b   8.55960263
_cell_length_c   8.55960263
_cell_angle_alpha   122.93002654
_cell_angle_beta   122.93002654
_cell_angle_gamma   84.99579948
_symmetry_Int_Tables_number   1
_chemical_formula_structural   K3Mn
_chemical_formula_sum   'K6 Mn2'
_cell_volume   422.05419490
_cell_formula_units_Z   2
loop_
 _symmetry_equiv_pos_site_id
 _symmetry_equiv_pos_as_xyz
  1  'x, y, z'
loop_
 _atom_site_type_symbol
 _atom_site_label
 _atom_site_symmetry_multiplicity
 _atom_site_fract_x
 _atom_site_fract_y
 _atom_site_fract_z
 _atom_site_occupancy
  K  K0  1  0.69333600  0.19333600  0.88667100  1
  K  K1  1  0.30666400  0.80666400  0.11332900  1
  K  K2  1  0.19333600  0.30666400  0.50000000  1
  K  K3  1  0.80666400  0.69333600  0.50000000  1
  K  K4  1  0.75000000  0.75000000  0.00000000  1
  K  K5  1  0.25000000  0.25000000  0.00000000  1
  Mn  Mn0  1  0.75000000  0.25000000  0.50000000  1
  Mn  Mn1  1  0.25000000  0.75000000  0.50000000  1
loop_
_geom_bond_atom_site_label_1
_geom_bond_atom_site_label_2
_geom_bond_distance
_geom_bond_site_symmetry_2
K0 Mn0 3.867381 1_555
K0 Mn1 3.867391 1_545
K1 Mn1 3.867381 1_555
K1 Mn0 3.867391 1_565
K2 Mn0 3.867389 1_455
K2 Mn1 3.867389 1_555
K3 Mn1 3.867389 1_655
K3 Mn0 3.867389 1_555
K4 Mn1 4.088882 1_655
K4 Mn0 4.088882 1_565
K4 Mn1 4.088882 1_554
K4 Mn0 4.088882 1_554
K5 Mn1 4.088882 1_544
K5 Mn0 4.088882 1_555
K5 Mn0 4.088882 1_454
K5 Mn1 4.088882 1_555
