# generated using pymatgen
data_SrLaMnRuO6
_symmetry_space_group_name_H-M   'P 1'
_cell_length_a   5.60695610
_cell_length_b   8.14057788
_cell_length_c   5.70208517
_cell_angle_alpha   89.95727589
_cell_angle_beta   90.05298180
_cell_angle_gamma   91.30965519
_symmetry_Int_Tables_number   1
_chemical_formula_structural   SrLaMnRuO6
_chemical_formula_sum   'Sr2 La2 Mn2 Ru2 O12'
_cell_volume   260.19702494
_cell_formula_units_Z   2
loop_
 _symmetry_equiv_pos_site_id
 _symmetry_equiv_pos_as_xyz
  1  'x, y, z'
loop_
 _atom_site_type_symbol
 _atom_site_label
 _atom_site_symmetry_multiplicity
 _atom_site_fract_x
 _atom_site_fract_y
 _atom_site_fract_z
 _atom_site_occupancy
  Sr  Sr0  1  0.49173300  0.24451100  0.00116100  1
  Sr  Sr1  1  0.99174300  0.74450600  0.50114400  1
  La  La0  1  0.49227800  0.74378400  0.00120800  1
  La  La1  1  0.99228400  0.24378700  0.50118800  1
  Mn  Mn0  1  0.49588200  0.99536500  0.50025800  1
  Mn  Mn1  1  0.99591500  0.49535300  0.00010300  1
  Ru  Ru0  1  0.49793800  0.49789700  0.50056000  1
  Ru  Ru1  1  0.99791700  0.99786000  0.00056300  1
  O  O0  1  0.70633500  0.54691900  0.77783100  1
  O  O1  1  0.20634000  0.04692700  0.27784000  1
  O  O2  1  0.79022400  0.46260000  0.30727600  1
  O  O3  1  0.29019500  0.96260100  0.80731700  1
  O  O4  1  0.00486100  0.24122000  0.91647100  1
  O  O5  1  0.50486100  0.74120700  0.41646300  1
  O  O6  1  0.99478200  0.76017000  0.06375600  1
  O  O7  1  0.49480400  0.26022700  0.56373200  1
  O  O8  1  0.22876100  0.53602500  0.71132800  1
  O  O9  1  0.72873900  0.03603200  0.21136000  1
  O  O10  1  0.29719100  0.47149900  0.22020500  1
  O  O11  1  0.79722000  0.97150500  0.72023800  1
loop_
_geom_bond_atom_site_label_1
_geom_bond_atom_site_label_2
_geom_bond_distance
_geom_bond_site_symmetry_2
La0 O5 2.368897 1_555
La0 O0 2.392688 1_554
La0 O3 2.401289 1_554
La0 O10 2.748916 1_555
La0 O8 2.767866 1_554
La0 O6 2.818666 1_455
La0 O6 2.839795 1_555
La0 O9 2.951413 1_565
La0 O11 2.963516 1_554
La1 O4 2.369054 1_655
La1 O1 2.392569 1_655
La1 O2 2.401256 1_555
La1 O11 2.748985 1_545
La1 O9 2.767751 1_555
La1 O7 2.818605 1_555
La1 O7 2.839892 1_655
La1 O8 2.951359 1_655
La1 O10 2.963401 1_655
Mn0 O1 2.108736 1_565
Mn0 O3 2.110861 1_555
Mn0 O11 2.115783 1_555
Mn0 O9 2.123984 1_565
Mn0 O5 2.125522 1_555
Mn0 O7 2.186708 1_565
Mn1 O0 2.108409 1_554
Mn1 O2 2.111403 1_555
Mn1 O10 2.115911 1_655
Mn1 O8 2.123408 1_654
Mn1 O4 2.125106 1_654
Mn1 O6 2.186525 1_555
O0 Ru0 2.000106 1_555
O0 Sr1 2.742332 1_555
O0 Sr0 2.998767 1_556
O1 Ru1 2.000286 1_445
O1 Sr0 2.742244 1_555
O1 Sr1 2.998779 1_445
O2 Ru0 2.002087 1_555
O2 Sr1 2.765524 1_555
O2 Sr0 2.977097 1_555
O3 Ru1 2.001881 1_456
O3 Sr0 2.765538 1_566
O3 Sr1 2.977200 1_455
O4 Ru1 2.037462 1_446
O4 Sr0 2.771344 1_556
O4 Sr0 2.918502 1_456
O5 Ru0 2.037073 1_555
O5 Sr1 2.771389 1_555
O5 Sr1 2.918441 1_455
O6 Ru1 1.967622 1_555
O6 Sr1 2.497240 1_555
O7 Ru0 1.967440 1_555
O7 Sr0 2.497496 1_556
O8 Ru0 1.960588 1_555
O8 Sr1 2.485948 1_455
O9 Ru1 1.960757 1_545
O9 Sr0 2.485941 1_555
O10 Ru0 1.963361 1_555
O10 Sr0 2.502469 1_555
O11 Ru1 1.963028 1_556
O11 Sr1 2.502630 1_555
