# generated using pymatgen
data_CoP2
_symmetry_space_group_name_H-M   'P 1'
_cell_length_a   5.51960420
_cell_length_b   5.51438600
_cell_length_c   5.58260591
_cell_angle_alpha   114.32628131
_cell_angle_beta   90.00000000
_cell_angle_gamma   90.00000000
_symmetry_Int_Tables_number   1
_chemical_formula_structural   CoP2
_chemical_formula_sum   'Co4 P8'
_cell_volume   154.83268856
_cell_formula_units_Z   4
loop_
 _symmetry_equiv_pos_site_id
 _symmetry_equiv_pos_as_xyz
  1  'x, y, z'
loop_
 _atom_site_type_symbol
 _atom_site_label
 _atom_site_symmetry_multiplicity
 _atom_site_fract_x
 _atom_site_fract_y
 _atom_site_fract_z
 _atom_site_occupancy
  Co  Co0  1  0.50187793  0.72820852  0.21218813  1
  Co  Co1  1  0.00187793  0.27179148  0.28781187  1
  Co  Co2  1  0.49812207  0.27179148  0.78781187  1
  Co  Co3  1  0.99812207  0.72820852  0.71218813  1
  P  P0  1  0.12622864  0.84202058  0.13237232  1
  P  P1  1  0.62622864  0.15797942  0.36762768  1
  P  P2  1  0.87377136  0.15797942  0.86762768  1
  P  P3  1  0.37377136  0.84202058  0.63237232  1
  P  P4  1  0.62736817  0.66063136  0.81822663  1
  P  P5  1  0.12736817  0.33936864  0.68177337  1
  P  P6  1  0.37263183  0.33936864  0.18177337  1
  P  P7  1  0.87263183  0.66063136  0.31822663  1
loop_
_geom_bond_atom_site_label_1
_geom_bond_atom_site_label_2
_geom_bond_distance
_geom_bond_site_symmetry_2
Co0 P4 2.186431 1_554
Co0 P6 2.198967 1_555
Co0 P7 2.204280 1_555
Co0 P0 2.263174 1_555
Co0 P1 2.268555 1_565
Co0 P3 2.276710 1_555
Co1 P5 2.186431 1_555
Co1 P7 2.198967 1_455
Co1 P6 2.204280 1_555
Co1 P1 2.263174 1_455
Co1 P0 2.268555 1_545
Co1 P2 2.276710 1_454
Co2 P6 2.186431 1_556
Co2 P4 2.198967 1_555
Co2 P5 2.204280 1_555
Co2 P2 2.263174 1_555
Co2 P3 2.268555 1_545
Co2 P1 2.276710 1_555
Co3 P7 2.186431 1_555
Co3 P5 2.198967 1_655
Co3 P4 2.204280 1_555
Co3 P3 2.263174 1_655
Co3 P2 2.268555 1_565
Co3 P0 2.276710 1_656
P0 P7 2.211637 1_455
P1 P6 2.211637 1_555
P2 P5 2.211637 1_655
P3 P4 2.211637 1_555
