# generated using pymatgen
data_MgAg14(PbO3)6
_symmetry_space_group_name_H-M   'P 1'
_cell_length_a   8.91810280
_cell_length_b   8.96710202
_cell_length_c   8.76668024
_cell_angle_alpha   74.33262053
_cell_angle_beta   106.55095459
_cell_angle_gamma   106.94668349
_symmetry_Int_Tables_number   1
_chemical_formula_structural   MgAg14(PbO3)6
_chemical_formula_sum   'Mg1 Ag14 Pb6 O18'
_cell_volume   629.32555624
_cell_formula_units_Z   1
loop_
 _symmetry_equiv_pos_site_id
 _symmetry_equiv_pos_as_xyz
  1  'x, y, z'
loop_
 _atom_site_type_symbol
 _atom_site_label
 _atom_site_symmetry_multiplicity
 _atom_site_fract_x
 _atom_site_fract_y
 _atom_site_fract_z
 _atom_site_occupancy
  Mg  Mg0  1  0.47517075  0.96131084  0.56718033  1
  Ag  Ag0  1  0.84296010  0.16058419  0.68005671  1
  Ag  Ag1  1  0.17016821  0.32251998  0.84174762  1
  Ag  Ag2  1  0.70089064  0.82835573  0.87259192  1
  Ag  Ag3  1  0.32877413  0.16102912  0.16719536  1
  Ag  Ag4  1  0.10413184  0.92067407  0.94056598  1
  Ag  Ag5  1  0.25584191  0.71803515  0.78660922  1
  Ag  Ag6  1  0.41946640  0.58589489  0.59135652  1
  Ag  Ag7  1  0.59398468  0.40719752  0.41681582  1
  Ag  Ag8  1  0.75054272  0.23302147  0.26254577  1
  Ag  Ag9  1  0.90908587  0.06089993  0.09015333  1
  Ag  Ag10  1  0.00312219  0.48813306  0.51639688  1
  Ag  Ag11  1  0.83208167  0.64299220  0.19421946  1
  Ag  Ag12  1  0.15777994  0.82005583  0.34546162  1
  Ag  Ag13  1  0.49790195  0.49141229  0.00733416  1
  Pb  Pb0  1  0.50318061  0.16252454  0.83520794  1
  Pb  Pb1  1  0.83413771  0.49040620  0.84662269  1
  Pb  Pb2  1  0.17272155  0.16021918  0.50410903  1
  Pb  Pb3  1  0.84236811  0.82758281  0.52403680  1
  Pb  Pb4  1  0.16655260  0.48689771  0.18095546  1
  Pb  Pb5  1  0.50379745  0.82712372  0.19579712  1
  O  O0  1  0.77408029  0.21963229  0.86419290  1
  O  O1  1  0.56262060  0.43166160  0.81795909  1
  O  O2  1  0.90276912  0.09868568  0.49211346  1
  O  O3  1  0.23373235  0.14053805  0.77605444  1
  O  O4  1  0.87782089  0.76164367  0.79785527  1
  O  O5  1  0.48156174  0.91021542  0.80652538  1
  O  O6  1  0.10331281  0.50242909  0.90638239  1
  O  O7  1  0.44111179  0.17634217  0.54709314  1
  O  O8  1  0.81606027  0.55536314  0.57299537  1
  O  O9  1  0.51800745  0.10979504  0.10385651  1
  O  O10  1  0.19105612  0.42591460  0.45606033  1
  O  O11  1  0.89584240  0.46399087  0.12246226  1
  O  O12  1  0.56425555  0.83389593  0.47711882  1
  O  O13  1  0.14040910  0.21715777  0.23190372  1
  O  O14  1  0.78839060  0.83754387  0.25722214  1
  O  O15  1  0.43099371  0.54141311  0.19850277  1
  O  O16  1  0.12164271  0.89270964  0.53841913  1
  O  O17  1  0.21538047  0.75048861  0.16374014  1
loop_
_geom_bond_atom_site_label_1
_geom_bond_atom_site_label_2
_geom_bond_distance
_geom_bond_site_symmetry_2
Mg0 O12 1.983359 1_555
Mg0 O7 1.992188 1_565
Mg0 O5 2.010900 1_555
Ag0 O2 2.115305 1_555
Ag0 O0 2.116543 1_555
Ag1 O6 2.127465 1_555
Ag1 O3 2.132795 1_555
Ag2 O4 2.151234 1_555
Ag2 O5 2.159200 1_555
Ag3 O9 2.119209 1_555
Ag3 O13 2.141747 1_555
Ag4 O17 2.303301 1_556
Ag4 O3 2.321293 1_565
Ag4 O4 2.349339 1_455
Ag5 O6 2.207924 1_555
Ag5 O5 2.234359 1_555
Ag5 O16 2.527520 1_555
Ag6 O10 2.335180 1_555
Ag6 O12 2.340013 1_555
Ag6 O1 2.364209 1_555
Ag7 O7 2.326651 1_555
Ag7 O15 2.327028 1_555
Ag7 O8 2.337915 1_555
Ag8 O9 2.303830 1_555
Ag8 O2 2.330611 1_555
Ag8 O11 2.333487 1_555
Ag9 O14 2.317806 1_545
Ag9 O0 2.348824 1_554
Ag9 O13 2.357571 1_655
Ag10 O10 2.147017 1_555
Ag10 O8 2.147580 1_455
Ag11 O14 2.130657 1_555
Ag11 O11 2.139329 1_555
Ag12 O17 2.093031 1_555
Ag12 O16 2.101912 1_555
Ag13 O15 2.120686 1_555
Ag13 O1 2.140808 1_554
O0 Pb0 2.272165 1_555
O0 Pb1 2.300638 1_555
O1 Pb1 2.277089 1_555
O1 Pb0 2.287146 1_555
O2 Pb2 2.285628 1_655
O2 Pb3 2.287645 1_545
O3 Pb2 2.258454 1_555
O3 Pb0 2.269608 1_555
O4 Pb3 2.263150 1_555
O4 Pb1 2.287162 1_555
O5 Pb0 2.290104 1_565
O6 Pb1 2.282928 1_455
O6 Pb4 2.285356 1_556
O7 Pb2 2.281603 1_555
O7 Pb0 2.403302 1_555
O8 Pb1 2.280193 1_555
O8 Pb3 2.314193 1_555
O9 Pb0 2.246193 1_554
O9 Pb5 2.420355 1_545
O10 Pb2 2.269506 1_555
O10 Pb4 2.284828 1_555
O11 Pb4 2.279492 1_655
O11 Pb1 2.283653 1_554
O12 Pb5 2.383490 1_555
O12 Pb3 2.410812 1_555
O13 Pb2 2.252610 1_555
O13 Pb4 2.291604 1_555
O14 Pb3 2.231973 1_555
O14 Pb5 2.418795 1_555
O15 Pb4 2.232964 1_555
O15 Pb5 2.447892 1_555
O16 Pb2 2.259094 1_565
O16 Pb3 2.360714 1_455
O17 Pb4 2.245880 1_555
O17 Pb5 2.414359 1_555
