# generated using pymatgen
data_Ca2La3Cu4AgO12
_symmetry_space_group_name_H-M   'P 1'
_cell_length_a   10.12962661
_cell_length_b   10.12962661
_cell_length_c   5.38368900
_cell_angle_alpha   90.00000000
_cell_angle_beta   90.00000000
_cell_angle_gamma   149.18584072
_symmetry_Int_Tables_number   1
_chemical_formula_structural   Ca2La3Cu4AgO12
_chemical_formula_sum   'Ca2 La3 Cu4 Ag1 O12'
_cell_volume   282.97830842
_cell_formula_units_Z   1
loop_
 _symmetry_equiv_pos_site_id
 _symmetry_equiv_pos_as_xyz
  1  'x, y, z'
loop_
 _atom_site_type_symbol
 _atom_site_label
 _atom_site_symmetry_multiplicity
 _atom_site_fract_x
 _atom_site_fract_y
 _atom_site_fract_z
 _atom_site_occupancy
  Ca  Ca0  1  0.49171400  0.50828600  0.50000000  1
  Ca  Ca1  1  0.00166400  0.99833600  0.00000000  1
  La  La0  1  0.82568800  0.17431200  0.00000000  1
  La  La1  1  0.18004400  0.81995600  0.00000000  1
  La  La2  1  0.67815600  0.32184400  0.50000000  1
  Cu  Cu0  1  0.58323200  0.41676800  0.00000000  1
  Cu  Cu1  1  0.08569900  0.91430100  0.50000000  1
  Cu  Cu2  1  0.90863000  0.09137000  0.50000000  1
  Cu  Cu3  1  0.40940100  0.59059900  0.00000000  1
  Ag  Ag0  1  0.31116000  0.68884000  0.50000000  1
  O  O0  1  0.70589900  0.29410100  0.00000000  1
  O  O1  1  0.19541900  0.80458100  0.50000000  1
  O  O2  1  0.79667600  0.20332400  0.50000000  1
  O  O3  1  0.29707500  0.70292500  0.00000000  1
  O  O4  1  0.16502700  0.32051800  0.24285900  1
  O  O5  1  0.67948200  0.83497300  0.75714100  1
  O  O6  1  0.67948200  0.83497300  0.24285900  1
  O  O7  1  0.16502700  0.32051800  0.75714100  1
  O  O8  1  0.33610900  0.16584600  0.24935900  1
  O  O9  1  0.83415400  0.66389100  0.75064100  1
  O  O10  1  0.83415400  0.66389100  0.24936000  1
  O  O11  1  0.33610900  0.16584600  0.75064000  1
loop_
_geom_bond_atom_site_label_1
_geom_bond_atom_site_label_2
_geom_bond_distance
_geom_bond_site_symmetry_2
Ca0 O5 2.381961 1_555
Ca0 O7 2.381961 1_555
Ca0 O4 2.381961 1_555
Ca0 O6 2.381961 1_555
Ca0 O10 2.635581 1_555
Ca0 O11 2.635581 1_555
Ca0 O9 2.635584 1_555
Ca0 O8 2.635584 1_555
Ca1 O6 2.412971 1_455
Ca1 O5 2.412971 1_454
Ca1 O4 2.412971 1_565
Ca1 O7 2.412971 1_564
Ca1 O9 2.506922 1_454
Ca1 O8 2.506922 1_565
Ca1 O10 2.506925 1_455
Ca1 O11 2.506925 1_564
La0 O0 2.339621 1_555
La0 O7 2.640864 1_654
La0 O4 2.640864 1_655
La0 O5 2.640864 1_544
La0 O6 2.640864 1_545
La0 O3 2.748603 1_655
La0 O3 2.748603 1_545
La0 O2 2.750837 1_555
La0 O2 2.750837 1_554
La1 O3 2.285754 1_555
La1 O8 2.657715 1_565
La1 O9 2.657715 1_454
La1 O11 2.657717 1_564
La1 O10 2.657717 1_455
La1 O1 2.708542 1_555
La1 O1 2.708542 1_554
La1 O0 2.738159 1_455
La1 O0 2.738159 1_565
La2 O2 2.314836 1_555
La2 O11 2.630273 1_555
La2 O10 2.630273 1_555
La2 O8 2.630276 1_555
La2 O9 2.630276 1_555
La2 O1 2.712230 1_655
La2 O1 2.712230 1_545
La2 O0 2.745839 1_556
La2 O0 2.745839 1_555
Cu0 O9 1.897393 1_554
Cu0 O8 1.897393 1_555
Cu0 O10 1.897397 1_555
Cu0 O11 1.897397 1_554
Cu0 O0 2.395832 1_555
Cu1 O11 1.909380 1_565
Cu1 O10 1.909380 1_455
Cu1 O8 1.909383 1_565
Cu1 O9 1.909383 1_455
Cu1 O1 2.142962 1_555
Cu2 O7 1.922169 1_655
Cu2 O4 1.922169 1_655
Cu2 O5 1.922169 1_545
Cu2 O6 1.922169 1_545
Cu2 O2 2.186595 1_555
Cu3 O4 1.920768 1_555
Cu3 O5 1.920768 1_554
Cu3 O7 1.920768 1_554
Cu3 O6 1.920768 1_555
Cu3 O3 2.193860 1_555
Ag0 O1 2.260559 1_555
Ag0 O3 2.705865 1_556
Ag0 O3 2.705865 1_555
Ag0 O2 2.706018 1_455
Ag0 O2 2.706018 1_565
