# generated using pymatgen
data_Lu3Sn
_symmetry_space_group_name_H-M   'P 1'
_cell_length_a   6.70920528
_cell_length_b   6.70920528
_cell_length_c   5.45857800
_cell_angle_alpha   90.00000000
_cell_angle_beta   90.00000000
_cell_angle_gamma   119.99999287
_symmetry_Int_Tables_number   1
_chemical_formula_structural   Lu3Sn
_chemical_formula_sum   'Lu6 Sn2'
_cell_volume   212.79055297
_cell_formula_units_Z   2
loop_
 _symmetry_equiv_pos_site_id
 _symmetry_equiv_pos_as_xyz
  1  'x, y, z'
loop_
 _atom_site_type_symbol
 _atom_site_label
 _atom_site_symmetry_multiplicity
 _atom_site_fract_x
 _atom_site_fract_y
 _atom_site_fract_z
 _atom_site_occupancy
  Lu  Lu0  1  0.16921000  0.33842100  0.25000000  1
  Lu  Lu1  1  0.66157900  0.83079000  0.25000000  1
  Lu  Lu2  1  0.16921000  0.83079000  0.25000000  1
  Lu  Lu3  1  0.83079000  0.66157900  0.75000000  1
  Lu  Lu4  1  0.33842100  0.16921000  0.75000000  1
  Lu  Lu5  1  0.83079000  0.16921000  0.75000000  1
  Sn  Sn0  1  0.33333300  0.66666700  0.75000000  1
  Sn  Sn1  1  0.66666700  0.33333300  0.25000000  1
loop_
_geom_bond_atom_site_label_1
_geom_bond_atom_site_label_2
_geom_bond_distance
_geom_bond_site_symmetry_2
Lu0 Lu2 3.303405 1_555
Lu0 Lu1 3.303405 1_555
Lu0 Sn0 3.329642 1_555
Lu0 Sn0 3.329642 1_554
Lu0 Sn1 3.354726 1_455
Lu0 Sn1 3.354740 1_555
Lu0 Lu5 3.363851 1_455
Lu0 Lu5 3.363851 1_454
Lu0 Lu4 3.363858 1_555
Lu0 Lu4 3.363858 1_554
Lu0 Lu2 3.405801 1_545
Lu0 Lu1 3.405801 1_445
Lu1 Lu2 3.303405 1_555
Lu1 Sn0 3.329642 1_555
Lu1 Sn0 3.329642 1_554
Lu1 Sn1 3.354726 1_565
Lu1 Sn1 3.354740 1_555
Lu1 Lu5 3.363851 1_564
Lu1 Lu5 3.363851 1_565
Lu1 Lu3 3.363858 1_555
Lu1 Lu3 3.363858 1_554
Lu1 Lu2 3.405801 1_655
Lu2 Sn0 3.329641 1_555
Lu2 Sn0 3.329641 1_554
Lu2 Sn1 3.354733 1_455
Lu2 Sn1 3.354733 1_565
Lu2 Lu4 3.363851 1_564
Lu2 Lu3 3.363851 1_454
Lu2 Lu4 3.363851 1_565
Lu2 Lu3 3.363851 1_455
Lu3 Lu5 3.303405 1_555
Lu3 Lu4 3.303405 1_555
Lu3 Sn1 3.329642 1_556
Lu3 Sn1 3.329642 1_555
Lu3 Sn0 3.354726 1_655
Lu3 Sn0 3.354740 1_555
Lu3 Lu5 3.405801 1_565
Lu3 Lu4 3.405801 1_665
Lu4 Lu5 3.303405 1_555
Lu4 Sn1 3.329642 1_556
Lu4 Sn1 3.329642 1_555
Lu4 Sn0 3.354726 1_545
Lu4 Sn0 3.354740 1_555
Lu4 Lu5 3.405801 1_455
Lu5 Sn1 3.329641 1_556
Lu5 Sn1 3.329641 1_555
Lu5 Sn0 3.354733 1_655
Lu5 Sn0 3.354733 1_545
