# generated using pymatgen
data_LiPr2Pa2O8
_symmetry_space_group_name_H-M   'P 1'
_cell_length_a   9.32002680
_cell_length_b   11.49944610
_cell_length_c   7.32196748
_cell_angle_alpha   26.32898641
_cell_angle_beta   50.47292372
_cell_angle_gamma   35.85752691
_symmetry_Int_Tables_number   1
_chemical_formula_structural   LiPr2Pa2O8
_chemical_formula_sum   'Li1 Pr2 Pa2 O8'
_cell_volume   191.26583221
_cell_formula_units_Z   1
loop_
 _symmetry_equiv_pos_site_id
 _symmetry_equiv_pos_as_xyz
  1  'x, y, z'
loop_
 _atom_site_type_symbol
 _atom_site_label
 _atom_site_symmetry_multiplicity
 _atom_site_fract_x
 _atom_site_fract_y
 _atom_site_fract_z
 _atom_site_occupancy
  Li  Li0  1  0.54906800  0.50000000  0.00000000  1
  Pr  Pr0  1  0.00368100  0.00000000  0.00000000  1
  Pr  Pr1  1  0.82935000  0.50000000  0.00000000  1
  Pa  Pa0  1  0.57067800  0.00000000  0.00000000  1
  Pa  Pa1  1  0.23636300  0.50000000  0.00000000  1
  O  O0  1  0.37321000  0.92720000  0.74610700  1
  O  O1  1  0.18469300  0.45124600  0.79785200  1
  O  O2  1  0.38268600  0.35858000  0.40206100  1
  O  O3  1  0.89380100  0.99144200  0.77245600  1
  O  O4  1  0.97371800  0.07280000  0.25389300  1
  O  O5  1  0.50190800  0.64142000  0.59793900  1
  O  O6  1  0.88503600  0.54875400  0.20214800  1
  O  O7  1  0.64914100  0.00855800  0.22754400  1
loop_
_geom_bond_atom_site_label_1
_geom_bond_atom_site_label_2
_geom_bond_distance
_geom_bond_site_symmetry_2
Li0 O5 1.846889 1_554
Li0 O2 1.846893 1_555
Li0 O0 2.175383 1_554
Li0 O4 2.175388 1_555
O0 Pr1 2.344989 1_556
O0 Pa1 2.367893 1_565
O0 Pr0 2.446339 1_566
O1 Pa0 2.193199 1_556
O1 Pa1 2.359953 1_556
O1 Pr1 2.389853 1_456
O1 Pr0 2.449994 1_565
O2 Pa0 2.221120 1_556
O2 Pa1 2.470729 1_555
O2 Pr0 2.762149 1_565
O3 Pa0 2.298180 1_566
O3 Pa1 2.356489 1_656
O3 Pr1 2.427063 1_565
O3 Pr0 2.542299 1_666
O4 Pr1 2.344983 1_555
O4 Pa1 2.367891 1_646
O4 Pr0 2.446345 1_655
O5 Pa0 2.221114 1_565
O5 Pa1 2.470736 1_556
O5 Pr0 2.762148 1_656
O6 Pa0 2.193201 1_565
O6 Pa1 2.359960 1_655
O6 Pr1 2.389845 1_555
O6 Pr0 2.449993 1_656
O7 Pa0 2.298180 1_555
O7 Pa1 2.356489 1_555
O7 Pr1 2.427063 1_546
O7 Pr0 2.542299 1_655
