# generated using pymatgen
data_Hf2Os
_symmetry_space_group_name_H-M   'P 1'
_cell_length_a   8.68844458
_cell_length_b   8.68844458
_cell_length_c   8.68844458
_cell_angle_alpha   60.00000000
_cell_angle_beta   60.00000000
_cell_angle_gamma   60.00000000
_symmetry_Int_Tables_number   1
_chemical_formula_structural   Hf2Os
_chemical_formula_sum   'Hf16 Os8'
_cell_volume   463.77902999
_cell_formula_units_Z   8
loop_
 _symmetry_equiv_pos_site_id
 _symmetry_equiv_pos_as_xyz
  1  'x, y, z'
loop_
 _atom_site_type_symbol
 _atom_site_label
 _atom_site_symmetry_multiplicity
 _atom_site_fract_x
 _atom_site_fract_y
 _atom_site_fract_z
 _atom_site_occupancy
  Hf  Hf0  1  0.12500000  0.62500000  0.62500000  1
  Hf  Hf1  1  0.62500000  0.12500000  0.62500000  1
  Hf  Hf2  1  0.62500000  0.62500000  0.12500000  1
  Hf  Hf3  1  0.62500000  0.62500000  0.62500000  1
  Hf  Hf4  1  0.81039295  0.81039295  0.18960705  1
  Hf  Hf5  1  0.18960705  0.18960705  0.81039295  1
  Hf  Hf6  1  0.81039295  0.18960705  0.81039295  1
  Hf  Hf7  1  0.18960705  0.81039295  0.18960705  1
  Hf  Hf8  1  0.18960705  0.81039295  0.81039295  1
  Hf  Hf9  1  0.81039295  0.18960705  0.18960705  1
  Hf  Hf10  1  0.43960705  0.43960705  0.06039295  1
  Hf  Hf11  1  0.06039295  0.06039295  0.43960705  1
  Hf  Hf12  1  0.43960705  0.06039295  0.43960705  1
  Hf  Hf13  1  0.06039295  0.43960705  0.06039295  1
  Hf  Hf14  1  0.06039295  0.43960705  0.43960705  1
  Hf  Hf15  1  0.43960705  0.06039295  0.06039295  1
  Os  Os0  1  0.76859890  0.41046670  0.41046670  1
  Os  Os1  1  0.41046670  0.76859890  0.41046670  1
  Os  Os2  1  0.41046670  0.41046670  0.76859890  1
  Os  Os3  1  0.41046670  0.41046670  0.41046670  1
  Os  Os4  1  0.48140110  0.83953330  0.83953330  1
  Os  Os5  1  0.83953330  0.48140110  0.83953330  1
  Os  Os6  1  0.83953330  0.83953330  0.48140110  1
  Os  Os7  1  0.83953330  0.83953330  0.83953330  1
loop_
_geom_bond_atom_site_label_1
_geom_bond_atom_site_label_2
_geom_bond_distance
_geom_bond_site_symmetry_2
Hf0 Os2 2.707120 1_555
Hf0 Os1 2.707120 1_555
Hf0 Os5 2.707120 1_455
Hf0 Os6 2.707120 1_455
Hf0 Os7 2.707125 1_455
Hf0 Os3 2.707125 1_555
Hf1 Os2 2.707120 1_555
Hf1 Os0 2.707120 1_555
Hf1 Os6 2.707120 1_545
Hf1 Os4 2.707120 1_545
Hf1 Os7 2.707125 1_545
Hf1 Os3 2.707125 1_555
Hf2 Os0 2.707120 1_555
Hf2 Os1 2.707120 1_555
Hf2 Os4 2.707120 1_554
Hf2 Os5 2.707120 1_554
Hf2 Os7 2.707125 1_554
Hf2 Os3 2.707125 1_555
Hf3 Os6 2.707127 1_555
Hf3 Os4 2.707127 1_555
Hf3 Os5 2.707127 1_555
Hf3 Os1 2.707127 1_555
Hf3 Os2 2.707127 1_555
Hf3 Os0 2.707127 1_555
Hf4 Os7 2.811307 1_554
Hf4 Os6 2.811316 1_555
Hf4 Os0 3.128119 1_555
Hf4 Os1 3.128119 1_555
Hf5 Os4 2.811310 1_545
Hf5 Os5 2.811310 1_455
Hf5 Os2 3.128111 1_555
Hf5 Os3 3.128115 1_555
Hf6 Os7 2.811307 1_545
Hf6 Os5 2.811316 1_555
Hf6 Os0 3.128119 1_555
Hf6 Os2 3.128119 1_555
Hf7 Os4 2.811310 1_554
Hf7 Os6 2.811310 1_455
Hf7 Os1 3.128111 1_555
Hf7 Os3 3.128115 1_555
Hf8 Os7 2.811307 1_455
Hf8 Os4 2.811316 1_555
Hf8 Os1 3.128119 1_555
Hf8 Os2 3.128119 1_555
Hf9 Os5 2.811310 1_554
Hf9 Os6 2.811310 1_545
Hf9 Os0 3.128111 1_555
Hf9 Os3 3.128115 1_555
Hf10 Os3 2.811307 1_555
Hf10 Os2 2.811316 1_554
Hf10 Os4 3.128119 1_554
Hf10 Os5 3.128119 1_554
Hf11 Os1 2.811310 1_545
Hf11 Os0 2.811310 1_455
Hf11 Os6 3.128111 1_445
Hf11 Os7 3.128115 1_445
Hf12 Os3 2.811307 1_555
Hf12 Os1 2.811316 1_545
Hf12 Os6 3.128119 1_545
Hf12 Os4 3.128119 1_545
Hf13 Os0 2.811310 1_455
Hf13 Os2 2.811310 1_554
Hf13 Os5 3.128111 1_454
Hf13 Os7 3.128115 1_454
Hf14 Os3 2.811307 1_555
Hf14 Os0 2.811316 1_455
Hf14 Os6 3.128119 1_455
Hf14 Os5 3.128119 1_455
Hf15 Os1 2.811310 1_545
Hf15 Os2 2.811310 1_554
Hf15 Os4 3.128111 1_544
Hf15 Os7 3.128115 1_544
