# generated using pymatgen
data_Mn3Co8N9
_symmetry_space_group_name_H-M   'P 1'
_cell_length_a   5.82728111
_cell_length_b   8.42467100
_cell_length_c   16.02911640
_cell_angle_alpha   90.00000000
_cell_angle_beta   102.11812327
_cell_angle_gamma   90.00000000
_symmetry_Int_Tables_number   1
_chemical_formula_structural   Mn3Co8N9
_chemical_formula_sum   'Mn12 Co32 N36'
_cell_volume   769.38128221
_cell_formula_units_Z   4
loop_
 _symmetry_equiv_pos_site_id
 _symmetry_equiv_pos_as_xyz
  1  'x, y, z'
loop_
 _atom_site_type_symbol
 _atom_site_label
 _atom_site_symmetry_multiplicity
 _atom_site_fract_x
 _atom_site_fract_y
 _atom_site_fract_z
 _atom_site_occupancy
  Mn  Mn0  1  0.55671000  0.13007000  0.74068700  1
  Mn  Mn1  1  0.44329000  0.63007000  0.75931300  1
  Mn  Mn2  1  0.44329000  0.86993000  0.25931300  1
  Mn  Mn3  1  0.55671000  0.36993000  0.24068700  1
  Mn  Mn4  1  0.75939500  0.82238600  0.55284200  1
  Mn  Mn5  1  0.24060500  0.32238600  0.94715800  1
  Mn  Mn6  1  0.24060500  0.17761400  0.44715800  1
  Mn  Mn7  1  0.75939500  0.67761400  0.05284200  1
  Mn  Mn8  1  0.73150100  0.42879000  0.56878400  1
  Mn  Mn9  1  0.26849900  0.92879000  0.93121600  1
  Mn  Mn10  1  0.26849900  0.57121000  0.43121600  1
  Mn  Mn11  1  0.73150100  0.07121000  0.06878400  1
  Co  Co0  1  0.43129700  0.82170500  0.10310300  1
  Co  Co1  1  0.56870300  0.32170500  0.39689700  1
  Co  Co2  1  0.56870300  0.17829500  0.89689700  1
  Co  Co3  1  0.43129700  0.67829500  0.60310300  1
  Co  Co4  1  0.55972100  0.10028800  0.57197700  1
  Co  Co5  1  0.44027900  0.60028800  0.92802300  1
  Co  Co6  1  0.44027900  0.89971200  0.42802300  1
  Co  Co7  1  0.55972100  0.39971200  0.07197700  1
  Co  Co8  1  0.82321100  0.88521600  0.72491400  1
  Co  Co9  1  0.17678900  0.38521600  0.77508600  1
  Co  Co10  1  0.17678900  0.11478400  0.27508600  1
  Co  Co11  1  0.82321100  0.61478400  0.22491400  1
  Co  Co12  1  0.68326600  0.40711300  0.71717600  1
  Co  Co13  1  0.31673400  0.90711300  0.78282400  1
  Co  Co14  1  0.31673400  0.59288700  0.28282400  1
  Co  Co15  1  0.68326600  0.09288700  0.21717600  1
  Co  Co16  1  0.74745800  0.45372600  0.87827900  1
  Co  Co17  1  0.25254200  0.95372600  0.62172100  1
  Co  Co18  1  0.25254200  0.54627400  0.12172100  1
  Co  Co19  1  0.74745800  0.04627400  0.37827900  1
  Co  Co20  1  0.96389800  0.11537900  0.87408000  1
  Co  Co21  1  0.03610200  0.61537900  0.62592000  1
  Co  Co22  1  0.03610200  0.88462100  0.12592000  1
  Co  Co23  1  0.96389800  0.38462100  0.37408000  1
  Co  Co24  1  0.00862400  0.19327600  0.64162300  1
  Co  Co25  1  0.99137600  0.69327600  0.85837700  1
  Co  Co26  1  0.99137600  0.80672400  0.35837700  1
  Co  Co27  1  0.00862400  0.30672400  0.14162300  1
  Co  Co28  1  0.18063200  0.38426500  0.54899000  1
  Co  Co29  1  0.81936800  0.88426500  0.95101000  1
  Co  Co30  1  0.81936800  0.61573500  0.45101000  1
  Co  Co31  1  0.18063200  0.11573500  0.04899000  1
  N  N0  1  0.47698500  0.45179100  0.61338400  1
  N  N1  1  0.52301500  0.95179100  0.88661600  1
  N  N2  1  0.52301500  0.54820900  0.38661600  1
  N  N3  1  0.47698500  0.04820900  0.11338400  1
  N  N4  1  0.50095100  0.31218800  0.79034200  1
  N  N5  1  0.49904900  0.81218800  0.70965800  1
  N  N6  1  0.49904900  0.68781200  0.20965800  1
  N  N7  1  0.50095100  0.18781200  0.29034200  1
  N  N8  1  0.84852800  0.10780100  0.97160700  1
  N  N9  1  0.15147200  0.60780100  0.52839300  1
  N  N10  1  0.15147200  0.89219900  0.02839300  1
  N  N11  1  0.84852800  0.39219900  0.47160700  1
  N  N12  1  0.45621000  0.87486000  0.54562900  1
  N  N13  1  0.54379000  0.37486000  0.95437100  1
  N  N14  1  0.54379000  0.12514000  0.45437100  1
  N  N15  1  0.45621000  0.62514000  0.04562900  1
  N  N16  1  0.76621400  0.08820200  0.67426500  1
  N  N17  1  0.23378600  0.58820200  0.82573500  1
  N  N18  1  0.23378600  0.91179800  0.32573500  1
  N  N19  1  0.76621400  0.41179800  0.17426500  1
  N  N20  1  0.97080500  0.40994900  0.66542300  1
  N  N21  1  0.02919500  0.90994900  0.83457700  1
  N  N22  1  0.02919500  0.59005100  0.33457700  1
  N  N23  1  0.97080500  0.09005100  0.16542300  1
  N  N24  1  0.99864400  0.32799200  0.85816600  1
  N  N25  1  0.00135600  0.82799200  0.64183400  1
  N  N26  1  0.00135600  0.67200800  0.14183400  1
  N  N27  1  0.99864400  0.17200800  0.35816600  1
  N  N28  1  0.20761300  0.15233500  0.55427600  1
  N  N29  1  0.79238700  0.65233500  0.94572400  1
  N  N30  1  0.79238700  0.84766500  0.44572400  1
  N  N31  1  0.20761300  0.34766500  0.05427600  1
  N  N32  1  0.24919100  0.08684300  0.71326500  1
  N  N33  1  0.75080900  0.58684300  0.78673500  1
  N  N34  1  0.75080900  0.91315700  0.28673500  1
  N  N35  1  0.24919100  0.41315700  0.21326500  1
loop_
_geom_bond_atom_site_label_1
_geom_bond_atom_site_label_2
_geom_bond_distance
_geom_bond_site_symmetry_2
Mn0 N4 1.789324 1_555
Mn0 N32 1.790637 1_555
Mn0 N16 1.814979 1_555
Mn1 N5 1.789324 1_555
Mn1 N33 1.790637 1_555
Mn1 N17 1.814979 1_555
Mn2 N6 1.789324 1_555
Mn2 N34 1.790637 1_555
Mn2 N18 1.814979 1_555
Mn3 N7 1.789324 1_555
Mn3 N35 1.790637 1_555
Mn3 N19 1.814979 1_555
Mn4 N30 1.780175 1_555
Mn4 N25 1.783427 1_655
Mn4 N12 1.801228 1_555
Mn5 N31 1.780175 1_556
Mn5 N24 1.783427 1_455
Mn5 N13 1.801228 1_555
Mn6 N28 1.780175 1_555
Mn6 N27 1.783427 1_455
Mn6 N14 1.801228 1_555
Mn7 N29 1.780175 1_554
Mn7 N26 1.783427 1_655
Mn7 N15 1.801228 1_555
Mn8 N0 1.787034 1_555
Mn8 N11 1.852669 1_555
Mn8 N20 1.860748 1_555
Mn9 N1 1.787034 1_555
Mn9 N10 1.852669 1_556
Mn9 N21 1.860748 1_555
Mn10 N2 1.787034 1_555
Mn10 N9 1.852669 1_555
Mn10 N22 1.860748 1_555
Mn11 N3 1.787034 1_555
Mn11 N8 1.852669 1_554
Mn11 N23 1.860748 1_555
Co0 N10 1.904167 1_555
Co0 N15 1.915272 1_555
Co0 N3 1.928971 1_565
Co0 N6 2.015528 1_555
Co1 N11 1.904167 1_555
Co1 N14 1.915272 1_555
Co1 N2 1.928971 1_555
Co1 N7 2.015528 1_555
Co2 N8 1.904167 1_555
Co2 N13 1.915272 1_555
Co2 N1 1.928971 1_545
Co2 N4 2.015528 1_555
Co3 N9 1.904167 1_555
Co3 N12 1.915272 1_555
Co3 N0 1.928971 1_555
Co3 N5 2.015528 1_555
Co4 N16 1.821590 1_555
Co4 N14 1.879536 1_555
Co4 N12 2.010483 1_545
Co4 N28 2.058727 1_555
Co5 N17 1.821590 1_555
Co5 N15 1.879536 1_556
Co5 N13 2.010483 1_555
Co5 N29 2.058727 1_555
Co6 N18 1.821590 1_555
Co6 N12 1.879536 1_555
Co6 N14 2.010483 1_565
Co6 N30 2.058727 1_555
Co7 N19 1.821590 1_555
Co7 N13 1.879536 1_554
Co7 N15 2.010483 1_555
Co7 N31 2.058727 1_555
Co8 N16 1.892254 1_565
Co8 N25 1.914135 1_655
Co8 N21 1.920468 1_655
Co8 N5 1.952595 1_555
Co9 N17 1.892254 1_555
Co9 N24 1.914135 1_455
Co9 N20 1.920468 1_455
Co9 N4 1.952595 1_555
Co10 N18 1.892254 1_545
Co10 N27 1.914135 1_455
Co10 N23 1.920468 1_455
Co10 N7 1.952595 1_555
Co11 N19 1.892254 1_555
Co11 N26 1.914135 1_655
Co11 N22 1.920468 1_655
Co11 N6 1.952595 1_555
Co12 N33 1.872570 1_555
Co12 N0 1.874792 1_555
Co12 N4 1.914886 1_555
Co12 N20 2.019866 1_555
Co13 N32 1.872570 1_565
Co13 N1 1.874792 1_555
Co13 N5 1.914886 1_555
Co13 N21 2.019866 1_555
Co14 N35 1.872570 1_555
Co14 N2 1.874792 1_555
Co14 N6 1.914886 1_555
Co14 N22 2.019866 1_555
Co15 N34 1.872570 1_545
Co15 N3 1.874792 1_555
Co15 N7 1.914886 1_555
Co15 N23 2.019866 1_555
Co16 N33 1.850209 1_555
Co16 N24 1.888551 1_555
Co16 N29 1.979419 1_555
Co16 N13 1.986310 1_555
Co16 N4 2.149884 1_555
Co17 N32 1.850209 1_565
Co17 N25 1.888551 1_555
Co17 N28 1.979419 1_565
Co17 N12 1.986310 1_555
Co17 N5 2.149884 1_555
Co18 N35 1.850209 1_555
Co18 N26 1.888551 1_555
Co18 N31 1.979419 1_555
Co18 N15 1.986310 1_555
Co18 N6 2.149884 1_555
Co19 N34 1.850209 1_545
Co19 N27 1.888551 1_555
Co19 N30 1.979419 1_545
Co19 N14 1.986310 1_555
Co19 N7 2.149884 1_555
Co20 N24 1.826507 1_555
Co20 N8 1.827876 1_555
Co20 N21 1.908438 1_645
Co21 N25 1.826507 1_555
Co21 N9 1.827876 1_555
Co21 N20 1.908438 1_455
Co22 N26 1.826507 1_555
Co22 N10 1.827876 1_555
Co22 N23 1.908438 1_465
Co23 N27 1.826507 1_555
Co23 N11 1.827876 1_555
Co23 N22 1.908438 1_655
Co24 N16 1.833874 1_455
Co24 N32 1.847166 1_555
Co24 N20 1.887190 1_455
Co24 N28 2.026193 1_555
Co25 N17 1.833874 1_655
Co25 N33 1.847166 1_555
Co25 N21 1.887190 1_655
Co25 N29 2.026193 1_555
Co26 N18 1.833874 1_655
Co26 N34 1.847166 1_555
Co26 N22 1.887190 1_655
Co26 N30 2.026193 1_555
Co27 N19 1.833874 1_455
Co27 N35 1.847166 1_555
Co27 N23 1.887190 1_455
Co27 N31 2.026193 1_555
Co28 N0 1.903398 1_555
Co28 N9 1.913329 1_555
Co28 N28 1.960654 1_555
Co28 N11 2.068915 1_455
Co28 N20 2.446041 1_455
Co29 N1 1.903398 1_555
Co29 N8 1.913329 1_565
Co29 N29 1.960654 1_555
Co29 N10 2.068915 1_656
Co29 N21 2.446041 1_655
Co30 N2 1.903398 1_555
Co30 N11 1.913329 1_555
Co30 N30 1.960654 1_555
Co30 N9 2.068915 1_655
Co30 N22 2.446041 1_655
Co31 N3 1.903398 1_555
Co31 N10 1.913329 1_545
Co31 N31 1.960654 1_555
Co31 N8 2.068915 1_454
Co31 N23 2.446041 1_455
