# generated using pymatgen
data_HfRe2
_symmetry_space_group_name_H-M   'P 1'
_cell_length_a   5.25547154
_cell_length_b   5.25547271
_cell_length_c   8.60303494
_cell_angle_alpha   90.00000000
_cell_angle_beta   90.00000000
_cell_angle_gamma   120.00000546
_symmetry_Int_Tables_number   1
_chemical_formula_structural   HfRe2
_chemical_formula_sum   'Hf4 Re8'
_cell_volume   205.78123455
_cell_formula_units_Z   4
loop_
 _symmetry_equiv_pos_site_id
 _symmetry_equiv_pos_as_xyz
  1  'x, y, z'
loop_
 _atom_site_type_symbol
 _atom_site_label
 _atom_site_symmetry_multiplicity
 _atom_site_fract_x
 _atom_site_fract_y
 _atom_site_fract_z
 _atom_site_occupancy
  Hf  Hf0  1  0.33333300  0.66666700  0.06169752  1
  Hf  Hf1  1  0.66666700  0.33333300  0.56169752  1
  Hf  Hf2  1  0.66666700  0.33333300  0.93830248  1
  Hf  Hf3  1  0.33333300  0.66666700  0.43830248  1
  Re  Re0  1  0.00000000  0.00000000  -0.00000000  1
  Re  Re1  1  0.00000000  0.00000000  0.50000000  1
  Re  Re2  1  0.82794232  0.65588564  0.25000000  1
  Re  Re3  1  0.17205768  0.82794232  0.75000000  1
  Re  Re4  1  0.65588564  0.82794232  0.75000000  1
  Re  Re5  1  0.34411436  0.17205768  0.25000000  1
  Re  Re6  1  0.82794232  0.17205768  0.25000000  1
  Re  Re7  1  0.17205768  0.34411436  0.75000000  1
loop_
_geom_bond_atom_site_label_1
_geom_bond_atom_site_label_2
_geom_bond_distance
_geom_bond_site_symmetry_2
Hf0 Re3 3.057098 1_554
Hf0 Re4 3.057102 1_554
Hf0 Re7 3.057102 1_554
Hf0 Re0 3.080321 1_565
Hf0 Re0 3.080325 1_665
Hf0 Re0 3.080326 1_555
Hf0 Re2 3.087348 1_455
Hf0 Re2 3.087348 1_555
Hf0 Re6 3.087348 1_455
Hf0 Re6 3.087348 1_565
Hf0 Re5 3.087348 1_555
Hf0 Re5 3.087348 1_565
Hf1 Re6 3.057098 1_555
Hf1 Re5 3.057102 1_555
Hf1 Re2 3.057102 1_555
Hf1 Re1 3.080321 1_655
Hf1 Re1 3.080325 1_555
Hf1 Re1 3.080326 1_665
Hf1 Re7 3.087348 1_655
Hf1 Re7 3.087348 1_555
Hf1 Re3 3.087348 1_655
Hf1 Re3 3.087348 1_545
Hf1 Re4 3.087348 1_555
Hf1 Re4 3.087348 1_545
Hf2 Re6 3.057098 1_556
Hf2 Re5 3.057102 1_556
Hf2 Re2 3.057102 1_556
Hf2 Re0 3.080321 1_656
Hf2 Re0 3.080325 1_556
Hf2 Re0 3.080326 1_666
Hf2 Re7 3.087348 1_655
Hf2 Re7 3.087348 1_555
Hf2 Re3 3.087348 1_655
Hf2 Re3 3.087348 1_545
Hf2 Re4 3.087348 1_555
Hf2 Re4 3.087348 1_545
Hf3 Re3 3.057098 1_555
Hf3 Re4 3.057102 1_555
Hf3 Re7 3.057102 1_555
Hf3 Re1 3.080321 1_565
Hf3 Re1 3.080325 1_665
Hf3 Re1 3.080326 1_555
Hf3 Re2 3.087348 1_455
Hf3 Re2 3.087348 1_555
Hf3 Re6 3.087348 1_455
Hf3 Re6 3.087348 1_565
Hf3 Re5 3.087348 1_555
Hf3 Re5 3.087348 1_565
Re0 Re4 2.660587 1_444
Re0 Re5 2.660587 1_555
Re0 Re2 2.660587 1_445
Re0 Re7 2.660587 1_554
Re0 Re3 2.660590 1_544
Re0 Re6 2.660590 1_455
Re1 Re4 2.660587 1_445
Re1 Re5 2.660587 1_555
Re1 Re2 2.660587 1_445
Re1 Re7 2.660587 1_555
Re1 Re3 2.660590 1_545
Re1 Re6 2.660590 1_455
Re2 Re5 2.542744 1_555
Re2 Re6 2.542745 1_555
Re2 Re5 2.712728 1_665
Re2 Re6 2.712728 1_565
Re3 Re4 2.542744 1_555
Re3 Re7 2.542745 1_555
Re3 Re4 2.712727 1_455
Re3 Re7 2.712728 1_565
Re4 Re7 2.542744 1_555
Re4 Re7 2.712728 1_665
Re5 Re6 2.542744 1_555
Re5 Re6 2.712727 1_455
