# generated using pymatgen
data_TiBi(PO4)3
_symmetry_space_group_name_H-M   'P 1'
_cell_length_a   9.00069100
_cell_length_b   9.00069066
_cell_length_c   9.00069147
_cell_angle_alpha   58.54433936
_cell_angle_beta   58.54434186
_cell_angle_gamma   58.54434538
_symmetry_Int_Tables_number   1
_chemical_formula_structural   TiBi(PO4)3
_chemical_formula_sum   'Ti2 Bi2 P6 O24'
_cell_volume   498.43470318
_cell_formula_units_Z   2
loop_
 _symmetry_equiv_pos_site_id
 _symmetry_equiv_pos_as_xyz
  1  'x, y, z'
loop_
 _atom_site_type_symbol
 _atom_site_label
 _atom_site_symmetry_multiplicity
 _atom_site_fract_x
 _atom_site_fract_y
 _atom_site_fract_z
 _atom_site_occupancy
  Ti  Ti0  1  0.13939900  0.13939900  0.13939900  1
  Ti  Ti1  1  0.63939900  0.63939900  0.63939900  1
  Bi  Bi0  1  0.35437000  0.35437000  0.35437000  1
  Bi  Bi1  1  0.85437000  0.85437000  0.85437000  1
  P  P0  1  0.03326800  0.45541700  0.75416400  1
  P  P1  1  0.45541700  0.75416400  0.03326800  1
  P  P2  1  0.75416400  0.03326800  0.45541700  1
  P  P3  1  0.25416400  0.95541700  0.53326800  1
  P  P4  1  0.53326800  0.25416400  0.95541700  1
  P  P5  1  0.95541700  0.53326800  0.25416400  1
  O  O0  1  0.11829700  0.52854400  0.27666200  1
  O  O1  1  0.27666200  0.11829700  0.52854400  1
  O  O2  1  0.05734300  0.28314000  0.92917800  1
  O  O3  1  0.52854400  0.27666200  0.11829700  1
  O  O4  1  0.02854400  0.61829700  0.77666200  1
  O  O5  1  0.22031100  0.42939800  0.59079500  1
  O  O6  1  0.28314000  0.92917800  0.05734300  1
  O  O7  1  0.42939800  0.59079500  0.22031100  1
  O  O8  1  0.21716100  0.99888300  0.36541600  1
  O  O9  1  0.59079500  0.22031100  0.42939800  1
  O  O10  1  0.09079500  0.92939800  0.72031100  1
  O  O11  1  0.36541600  0.21716100  0.99888300  1
  O  O12  1  0.61829700  0.77666200  0.02854400  1
  O  O13  1  0.92917800  0.05734300  0.28314000  1
  O  O14  1  0.42917800  0.78314000  0.55734300  1
  O  O15  1  0.77666200  0.02854400  0.61829700  1
  O  O16  1  0.55734300  0.42917800  0.78314000  1
  O  O17  1  0.72031100  0.09079500  0.92939800  1
  O  O18  1  0.78314000  0.55734300  0.42917800  1
  O  O19  1  0.99888300  0.36541600  0.21716100  1
  O  O20  1  0.49888300  0.71716100  0.86541600  1
  O  O21  1  0.92939800  0.72031100  0.09079500  1
  O  O22  1  0.71716100  0.86541600  0.49888300  1
  O  O23  1  0.86541600  0.49888300  0.71716100  1
loop_
_geom_bond_atom_site_label_1
_geom_bond_atom_site_label_2
_geom_bond_distance
_geom_bond_site_symmetry_2
Bi0 O1 2.095674 1_555
Bi0 O0 2.095674 1_555
Bi0 O3 2.095674 1_555
Bi0 O7 2.099966 1_555
Bi0 O9 2.099966 1_555
Bi0 O5 2.099966 1_555
Bi1 O12 2.095674 1_556
Bi1 O15 2.095674 1_565
Bi1 O4 2.095674 1_655
Bi1 O10 2.099966 1_655
Bi1 O17 2.099966 1_565
Bi1 O21 2.099966 1_556
O0 P5 1.558158 1_455
O1 P3 1.558158 1_545
O2 P0 1.545654 1_555
O2 Ti0 1.925048 1_556
O3 P4 1.558158 1_554
O4 P0 1.558158 1_555
O5 P0 1.554202 1_555
O6 P1 1.545654 1_555
O6 Ti0 1.925048 1_565
O7 P1 1.554202 1_555
O8 P3 1.522740 1_555
O8 Ti0 2.026022 1_565
O9 P2 1.554202 1_555
O10 P3 1.554202 1_555
O11 P4 1.522740 1_555
O11 Ti0 2.026022 1_556
O12 P1 1.558158 1_555
O13 P2 1.545654 1_555
O13 Ti0 1.925047 1_655
O14 P3 1.545654 1_555
O14 Ti1 1.925048 1_555
O15 P2 1.558158 1_555
O16 P4 1.545653 1_555
O16 Ti1 1.925047 1_555
O17 P4 1.554202 1_555
O18 P5 1.545654 1_555
O18 Ti1 1.925048 1_555
O19 P5 1.522740 1_555
O19 Ti0 2.026022 1_655
O20 P1 1.522740 1_556
O20 Ti1 2.026022 1_555
O21 P5 1.554202 1_555
O22 P2 1.522740 1_565
O22 Ti1 2.026022 1_555
O23 P0 1.522740 1_655
O23 Ti1 2.026022 1_555
