# generated using pymatgen
data_AgHg3SbO6
_symmetry_space_group_name_H-M   'P 1'
_cell_length_a   7.13292252
_cell_length_b   7.13292252
_cell_length_c   7.13292304
_cell_angle_alpha   87.87233872
_cell_angle_beta   87.87233872
_cell_angle_gamma   87.87233764
_symmetry_Int_Tables_number   1
_chemical_formula_structural   AgHg3SbO6
_chemical_formula_sum   'Ag2 Hg6 Sb2 O12'
_cell_volume   362.18052044
_cell_formula_units_Z   2
loop_
 _symmetry_equiv_pos_site_id
 _symmetry_equiv_pos_as_xyz
  1  'x, y, z'
loop_
 _atom_site_type_symbol
 _atom_site_label
 _atom_site_symmetry_multiplicity
 _atom_site_fract_x
 _atom_site_fract_y
 _atom_site_fract_z
 _atom_site_occupancy
  Ag  Ag0  1  0.25000000  0.25000000  0.25000000  1
  Ag  Ag1  1  0.75000000  0.75000000  0.75000000  1
  Hg  Hg0  1  0.40269000  0.75000000  0.09731000  1
  Hg  Hg1  1  0.09731000  0.40269000  0.75000000  1
  Hg  Hg2  1  0.59731000  0.25000000  0.90269000  1
  Hg  Hg3  1  0.90269000  0.59731000  0.25000000  1
  Hg  Hg4  1  0.75000000  0.09731000  0.40269000  1
  Hg  Hg5  1  0.25000000  0.90269000  0.59731000  1
  Sb  Sb0  1  0.00000000  0.00000000  0.00000000  1
  Sb  Sb1  1  0.50000000  0.50000000  0.50000000  1
  O  O0  1  0.50088600  0.78513500  0.49634200  1
  O  O1  1  0.49634200  0.50088600  0.78513500  1
  O  O2  1  0.78513500  0.49634200  0.50088600  1
  O  O3  1  0.99911400  0.00365800  0.71486500  1
  O  O4  1  0.71486500  0.99911400  0.00365800  1
  O  O5  1  0.00365800  0.71486500  0.99911400  1
  O  O6  1  0.49911400  0.21486500  0.50365800  1
  O  O7  1  0.50365800  0.49911400  0.21486500  1
  O  O8  1  0.21486500  0.50365800  0.49911400  1
  O  O9  1  0.00088600  0.99634200  0.28513500  1
  O  O10  1  0.99634200  0.28513500  0.00088600  1
  O  O11  1  0.28513500  0.00088600  0.99634200  1
loop_
_geom_bond_atom_site_label_1
_geom_bond_atom_site_label_2
_geom_bond_distance
_geom_bond_site_symmetry_2
Ag0 O9 2.581832 1_545
Ag0 O7 2.581832 1_555
Ag0 O10 2.581832 1_455
Ag0 O8 2.581832 1_555
Ag0 O6 2.581832 1_555
Ag0 O11 2.581832 1_554
Ag1 O3 2.581832 1_565
Ag1 O1 2.581832 1_555
Ag1 O5 2.581832 1_655
Ag1 O2 2.581832 1_555
Ag1 O4 2.581832 1_556
Ag1 O0 2.581832 1_555
Hg0 O11 2.064460 1_564
Hg0 O7 2.064460 1_555
Hg1 O10 2.064460 1_456
Hg1 O8 2.064460 1_555
Hg2 O4 2.064460 1_546
Hg2 O1 2.064460 1_555
Hg3 O2 2.064460 1_555
Hg3 O5 2.064460 1_654
Hg4 O6 2.064460 1_555
Hg4 O9 2.064460 1_645
Hg5 O0 2.064460 1_555
Hg5 O3 2.064460 1_465
O0 Sb1 2.033286 1_555
O1 Sb1 2.033286 1_555
O2 Sb1 2.033286 1_555
O3 Sb0 2.033286 1_656
O4 Sb0 2.033286 1_665
O5 Sb0 2.033286 1_566
O6 Sb1 2.033286 1_555
O7 Sb1 2.033286 1_555
O8 Sb1 2.033286 1_555
O9 Sb0 2.033286 1_565
O10 Sb0 2.033286 1_655
O11 Sb0 2.033286 1_556
