# generated using pymatgen
data_ThFe2
_symmetry_space_group_name_H-M   'P 1'
_cell_length_a   7.08893200
_cell_length_b   7.08893200
_cell_length_c   10.47939990
_cell_angle_alpha   109.76918065
_cell_angle_beta   109.76918065
_cell_angle_gamma   90.00000000
_symmetry_Int_Tables_number   1
_chemical_formula_structural   ThFe2
_chemical_formula_sum   'Th8 Fe16'
_cell_volume   462.46740924
_cell_formula_units_Z   8
loop_
 _symmetry_equiv_pos_site_id
 _symmetry_equiv_pos_as_xyz
  1  'x, y, z'
loop_
 _atom_site_type_symbol
 _atom_site_label
 _atom_site_symmetry_multiplicity
 _atom_site_fract_x
 _atom_site_fract_y
 _atom_site_fract_z
 _atom_site_occupancy
  Th  Th0_0  1  0.00000000  0.00000000  0.00000000  1
  Th  Th0_1  1  0.00000000  0.00000000  0.50000000  1
  Th  Th0_2  1  0.00000000  0.50000000  0.00000000  1
  Th  Th0_3  1  0.00000000  0.50000000  0.50000000  1
  Th  Th0_4  1  0.50000000  0.00000000  0.00000000  1
  Th  Th0_5  1  0.50000000  0.00000000  0.50000000  1
  Th  Th0_6  1  0.50000000  0.50000000  0.00000000  1
  Th  Th0_7  1  0.50000000  0.50000000  0.50000000  1
  Fe  Fe0_0  1  0.12500000  0.37500000  0.25000000  1
  Fe  Fe0_1  1  0.12500000  0.37500000  0.75000000  1
  Fe  Fe0_2  1  0.12500000  0.87500000  0.25000000  1
  Fe  Fe0_3  1  0.12500000  0.87500000  0.75000000  1
  Fe  Fe0_4  1  0.62500000  0.37500000  0.25000000  1
  Fe  Fe0_5  1  0.62500000  0.37500000  0.75000000  1
  Fe  Fe0_6  1  0.62500000  0.87500000  0.25000000  1
  Fe  Fe0_7  1  0.62500000  0.87500000  0.75000000  1
  Fe  Fe1_0  1  0.37500000  0.12500000  0.25000000  1
  Fe  Fe1_1  1  0.37500000  0.12500000  0.75000000  1
  Fe  Fe1_2  1  0.37500000  0.62500000  0.25000000  1
  Fe  Fe1_3  1  0.37500000  0.62500000  0.75000000  1
  Fe  Fe1_4  1  0.87500000  0.12500000  0.25000000  1
  Fe  Fe1_5  1  0.87500000  0.12500000  0.75000000  1
  Fe  Fe1_6  1  0.87500000  0.62500000  0.25000000  1
  Fe  Fe1_7  1  0.87500000  0.62500000  0.75000000  1
loop_
_geom_bond_atom_site_label_1
_geom_bond_atom_site_label_2
_geom_bond_distance
_geom_bond_site_symmetry_2
Th0_0 Th0_4 3.544466 1_455
Th0_0 Th0_4 3.544466 1_555
Th0_0 Th0_2 3.544466 1_555
Th0_0 Th0_2 3.544466 1_545
Th0_1 Th0_5 3.544466 1_455
Th0_1 Th0_3 3.544466 1_545
Th0_1 Th0_3 3.544466 1_555
Th0_1 Th0_5 3.544466 1_555
Th0_2 Th0_6 3.544466 1_555
Th0_2 Th0_6 3.544466 1_455
Th0_3 Th0_7 3.544466 1_455
Th0_3 Th0_7 3.544466 1_555
Th0_4 Th0_6 3.544466 1_545
Th0_4 Th0_6 3.544466 1_555
Th0_5 Th0_7 3.544466 1_545
Th0_5 Th0_7 3.544466 1_555
Fe0_0 Fe1_2 2.506316 1_555
Fe0_0 Fe1_6 2.506316 1_455
Fe0_0 Fe1_0 2.506316 1_555
Fe0_0 Fe1_4 2.506316 1_455
Fe0_0 Th0_2 2.904138 1_555
Fe0_0 Th0_0 2.904138 1_555
Fe0_0 Th0_3 2.904138 1_555
Fe0_0 Th0_7 2.904138 1_555
Fe0_1 Fe1_3 2.506316 1_555
Fe0_1 Fe1_7 2.506316 1_455
Fe0_1 Fe1_1 2.506316 1_555
Fe0_1 Fe1_5 2.506316 1_455
Fe0_1 Th0_2 2.904138 1_556
Fe0_1 Th0_3 2.904138 1_555
Fe0_1 Th0_1 2.904138 1_555
Fe0_1 Th0_6 2.904138 1_556
Fe0_2 Fe1_2 2.506316 1_555
Fe0_2 Fe1_6 2.506316 1_455
Fe0_2 Fe1_4 2.506316 1_465
Fe0_2 Fe1_0 2.506316 1_565
Fe0_2 Th0_2 2.904138 1_555
Fe0_2 Th0_0 2.904138 1_565
Fe0_2 Th0_1 2.904138 1_565
Fe0_2 Th0_5 2.904138 1_565
Fe0_3 Fe1_1 2.506316 1_565
Fe0_3 Fe1_3 2.506316 1_555
Fe0_3 Fe1_5 2.506316 1_465
Fe0_3 Fe1_7 2.506316 1_455
Fe0_3 Th0_1 2.904138 1_565
Fe0_3 Th0_3 2.904138 1_555
Fe0_3 Th0_0 2.904138 1_566
Fe0_3 Th0_4 2.904138 1_566
Fe0_4 Fe1_2 2.506316 1_555
Fe0_4 Fe1_6 2.506316 1_555
Fe0_4 Fe1_0 2.506316 1_555
Fe0_4 Fe1_4 2.506316 1_555
Fe0_4 Th0_6 2.904138 1_555
Fe0_4 Th0_4 2.904138 1_555
Fe0_4 Th0_3 2.904138 1_655
Fe0_4 Th0_7 2.904138 1_555
Fe0_5 Fe1_5 2.506316 1_555
Fe0_5 Fe1_3 2.506316 1_555
Fe0_5 Fe1_7 2.506316 1_555
Fe0_5 Fe1_1 2.506316 1_555
Fe0_5 Th0_2 2.904138 1_656
Fe0_5 Th0_5 2.904138 1_555
Fe0_5 Th0_6 2.904138 1_556
Fe0_5 Th0_7 2.904138 1_555
Fe0_6 Fe1_4 2.506316 1_565
Fe0_6 Fe1_2 2.506316 1_555
Fe0_6 Fe1_6 2.506316 1_555
Fe0_6 Fe1_0 2.506316 1_565
Fe0_6 Th0_1 2.904138 1_665
Fe0_6 Th0_6 2.904138 1_555
Fe0_6 Th0_4 2.904138 1_565
Fe0_6 Th0_5 2.904138 1_565
Fe0_7 Fe1_1 2.506316 1_565
Fe0_7 Fe1_5 2.506316 1_565
Fe0_7 Fe1_3 2.506316 1_555
Fe0_7 Fe1_7 2.506316 1_555
Fe0_7 Th0_0 2.904138 1_666
Fe0_7 Th0_4 2.904138 1_566
Fe0_7 Th0_5 2.904138 1_565
Fe0_7 Th0_7 2.904138 1_555
Fe1_0 Th0_5 2.904138 1_555
Fe1_0 Th0_0 2.904138 1_555
Fe1_0 Th0_4 2.904138 1_555
Fe1_0 Th0_7 2.904138 1_555
Fe1_1 Th0_4 2.904138 1_556
Fe1_1 Th0_5 2.904138 1_555
Fe1_1 Th0_1 2.904138 1_555
Fe1_1 Th0_6 2.904138 1_556
Fe1_2 Th0_2 2.904138 1_555
Fe1_2 Th0_6 2.904138 1_555
Fe1_2 Th0_5 2.904138 1_565
Fe1_2 Th0_7 2.904138 1_555
Fe1_3 Th0_3 2.904138 1_555
Fe1_3 Th0_4 2.904138 1_566
Fe1_3 Th0_6 2.904138 1_556
Fe1_3 Th0_7 2.904138 1_555
Fe1_4 Th0_1 2.904138 1_655
Fe1_4 Th0_4 2.904138 1_555
Fe1_4 Th0_3 2.904138 1_655
Fe1_4 Th0_0 2.904138 1_655
Fe1_5 Th0_1 2.904138 1_655
Fe1_5 Th0_2 2.904138 1_656
Fe1_5 Th0_5 2.904138 1_555
Fe1_5 Th0_0 2.904138 1_656
Fe1_6 Th0_2 2.904138 1_655
Fe1_6 Th0_1 2.904138 1_665
Fe1_6 Th0_6 2.904138 1_555
Fe1_6 Th0_3 2.904138 1_655
Fe1_7 Th0_2 2.904138 1_656
Fe1_7 Th0_0 2.904138 1_666
Fe1_7 Th0_3 2.904138 1_655
Fe1_7 Th0_7 2.904138 1_555
