# generated using pymatgen
data_Tl2Pd(CN)4
_symmetry_space_group_name_H-M   'P 1'
_cell_length_a   6.45455366
_cell_length_b   7.89372400
_cell_length_c   9.79625181
_cell_angle_alpha   90.00000000
_cell_angle_beta   105.04941724
_cell_angle_gamma   90.00000000
_symmetry_Int_Tables_number   1
_chemical_formula_structural   Tl2Pd(CN)4
_chemical_formula_sum   'Tl4 Pd2 C8 N8'
_cell_volume   482.00476402
_cell_formula_units_Z   2
loop_
 _symmetry_equiv_pos_site_id
 _symmetry_equiv_pos_as_xyz
  1  'x, y, z'
loop_
 _atom_site_type_symbol
 _atom_site_label
 _atom_site_symmetry_multiplicity
 _atom_site_fract_x
 _atom_site_fract_y
 _atom_site_fract_z
 _atom_site_occupancy
  Tl  Tl0  1  0.27540700  0.64712800  0.58255600  1
  Tl  Tl1  1  0.77540700  0.85287200  0.08255600  1
  Tl  Tl2  1  0.72459300  0.35287200  0.41744400  1
  Tl  Tl3  1  0.22459300  0.14712800  0.91744400  1
  Pd  Pd0  1  0.50000000  0.00000000  0.50000000  1
  Pd  Pd1  1  0.00000000  0.50000000  0.00000000  1
  C  C0  1  0.30014000  0.15843700  0.56039300  1
  C  C1  1  0.80014000  0.34156300  0.06039300  1
  C  C2  1  0.69986000  0.84156300  0.43960700  1
  C  C3  1  0.19986000  0.65843700  0.93960700  1
  C  C4  1  0.31244600  0.00194200  0.30311500  1
  C  C5  1  0.81244600  0.49805800  0.80311500  1
  C  C6  1  0.68755400  0.99805800  0.69688500  1
  C  C7  1  0.18755400  0.50194200  0.19688500  1
  N  N0  1  0.18495500  0.25325800  0.59708600  1
  N  N1  1  0.68495500  0.24674200  0.09708600  1
  N  N2  1  0.81504500  0.74674100  0.40291400  1
  N  N3  1  0.31504500  0.75325900  0.90291400  1
  N  N4  1  0.20237100  0.00255400  0.18706700  1
  N  N5  1  0.70237100  0.49744600  0.68706700  1
  N  N6  1  0.79762900  0.99744600  0.81293300  1
  N  N7  1  0.29762900  0.50255400  0.31293300  1
loop_
_geom_bond_atom_site_label_1
_geom_bond_atom_site_label_2
_geom_bond_distance
_geom_bond_site_symmetry_2
Pd0 Tl2 3.335151 1_555
Pd0 Tl0 3.335151 1_545
Pd1 Tl1 3.335151 1_455
Pd1 Tl3 3.335151 1_554
C0 N0 1.175147 1_555
C0 Pd0 1.993644 1_555
C1 N1 1.175147 1_555
C1 Pd1 1.993644 1_655
C2 N2 1.175152 1_555
C2 Pd0 1.993644 1_565
C3 N3 1.175152 1_555
C3 Pd1 1.993644 1_556
C4 N4 1.173781 1_555
C4 Pd0 1.993298 1_555
C5 N5 1.173781 1_555
C5 Pd1 1.993298 1_656
C6 N6 1.173781 1_555
C6 Pd0 1.993298 1_565
C7 N7 1.173781 1_555
C7 Pd1 1.993298 1_555
N4 Tl3 2.914815 1_554
N4 Tl1 2.928108 1_445
N5 Tl2 2.914815 1_555
N5 Tl0 2.928108 1_555
N6 Tl1 2.914815 1_556
N6 Tl3 2.928108 1_665
N7 Tl0 2.914815 1_555
N7 Tl2 2.928108 1_555
