# generated using pymatgen
data_Ba3MnO5
_symmetry_space_group_name_H-M   'P 1'
_cell_length_a   7.33265200
_cell_length_b   7.33265200
_cell_length_c   7.96948513
_cell_angle_alpha   62.60994648
_cell_angle_beta   62.60994648
_cell_angle_gamma   90.00000000
_symmetry_Int_Tables_number   1
_chemical_formula_structural   Ba3MnO5
_chemical_formula_sum   'Ba6 Mn2 O10'
_cell_volume   325.41188502
_cell_formula_units_Z   2
loop_
 _symmetry_equiv_pos_site_id
 _symmetry_equiv_pos_as_xyz
  1  'x, y, z'
loop_
 _atom_site_type_symbol
 _atom_site_label
 _atom_site_symmetry_multiplicity
 _atom_site_fract_x
 _atom_site_fract_y
 _atom_site_fract_z
 _atom_site_occupancy
  Ba  Ba0  1  0.75000000  0.75000000  0.50000000  1
  Ba  Ba1  1  0.25000000  0.25000000  0.50000000  1
  Ba  Ba2  1  0.67843600  0.17843600  0.00000000  1
  Ba  Ba3  1  0.32156400  0.82156400  0.00000000  1
  Ba  Ba4  1  0.82156400  0.67843600  0.00000000  1
  Ba  Ba5  1  0.17843600  0.32156400  0.00000000  1
  Mn  Mn0  1  0.25000000  0.75000000  0.50000000  1
  Mn  Mn1  1  0.75000000  0.25000000  0.50000000  1
  O  O0  1  0.00000000  0.00000000  0.00000000  1
  O  O1  1  0.50000000  0.50000000  0.00000000  1
  O  O2  1  0.97926000  0.47926000  0.30269300  1
  O  O3  1  0.02074000  0.52074000  0.69730700  1
  O  O4  1  0.71804700  0.21804700  0.30269300  1
  O  O5  1  0.21804700  0.97926000  0.30269300  1
  O  O6  1  0.52074000  0.28195300  0.69730700  1
  O  O7  1  0.28195300  0.78195300  0.69730700  1
  O  O8  1  0.78195300  0.02074000  0.69730700  1
  O  O9  1  0.47926000  0.71804700  0.30269300  1
loop_
_geom_bond_atom_site_label_1
_geom_bond_atom_site_label_2
_geom_bond_distance
_geom_bond_site_symmetry_2
Ba0 O1 3.026086 1_556
Ba0 O0 3.026086 1_665
Ba0 O6 3.111243 1_555
Ba0 O5 3.111243 1_655
Ba0 O4 3.111243 1_565
Ba0 O7 3.111243 1_555
Ba0 O3 3.111243 1_655
Ba0 O2 3.111243 1_555
Ba0 O9 3.111243 1_555
Ba0 O8 3.111243 1_565
Ba1 O0 3.026086 1_556
Ba1 O1 3.026086 1_555
Ba1 O8 3.111243 1_455
Ba1 O9 3.111243 1_555
Ba1 O7 3.111243 1_545
Ba1 O4 3.111243 1_555
Ba1 O2 3.111243 1_455
Ba1 O3 3.111243 1_555
Ba1 O5 3.111243 1_545
Ba1 O6 3.111243 1_555
Ba2 O0 2.696610 1_655
Ba2 O1 2.696610 1_555
Ba2 O3 2.697647 1_654
Ba2 O4 2.697648 1_555
Ba2 O9 2.935005 1_545
Ba2 O5 2.935005 1_545
Ba2 O6 2.935006 1_554
Ba2 O8 2.935006 1_554
Ba3 O0 2.696610 1_565
Ba3 O1 2.696610 1_555
Ba3 O2 2.697647 1_455
Ba3 O7 2.697648 1_554
Ba3 O6 2.935005 1_564
Ba3 O8 2.935005 1_564
Ba3 O5 2.935006 1_555
Ba3 O9 2.935006 1_555
Ba4 O1 2.696610 1_555
Ba4 O0 2.696610 1_665
Ba4 O9 2.697647 1_555
Ba4 O8 2.697647 1_564
Ba4 O4 2.935005 1_555
Ba4 O7 2.935005 1_654
Ba4 O3 2.935006 1_654
Ba4 O2 2.935006 1_555
Ba5 O0 2.696610 1_555
Ba5 O1 2.696610 1_555
Ba5 O5 2.697647 1_545
Ba5 O6 2.697647 1_554
Ba5 O4 2.935005 1_455
Ba5 O7 2.935005 1_554
Ba5 O3 2.935006 1_554
Ba5 O2 2.935006 1_455
Mn0 O3 1.805632 1_555
Mn0 O9 1.805632 1_555
Mn0 O5 1.805632 1_555
Mn0 O7 1.805633 1_555
Mn1 O2 1.805632 1_555
Mn1 O6 1.805632 1_555
Mn1 O8 1.805632 1_555
Mn1 O4 1.805633 1_555
