# generated using pymatgen
data_MoW2(Se2S)2
_symmetry_space_group_name_H-M   'P 1'
_cell_length_a   3.27686496
_cell_length_b   3.27686496
_cell_length_c   30.22767800
_cell_angle_alpha   90.00000000
_cell_angle_beta   90.00000000
_cell_angle_gamma   119.99997900
_symmetry_Int_Tables_number   1
_chemical_formula_structural   MoW2(Se2S)2
_chemical_formula_sum   'Mo1 W2 Se4 S2'
_cell_volume   281.09466283
_cell_formula_units_Z   1
loop_
 _symmetry_equiv_pos_site_id
 _symmetry_equiv_pos_as_xyz
  1  'x, y, z'
loop_
 _atom_site_type_symbol
 _atom_site_label
 _atom_site_symmetry_multiplicity
 _atom_site_fract_x
 _atom_site_fract_y
 _atom_site_fract_z
 _atom_site_occupancy
  Mo  Mo0  1  0.66666700  0.33333300  0.00000000  1
  W  W0  1  0.33333300  0.66666700  0.76866600  1
  W  W1  1  0.33333300  0.66666700  0.23133400  1
  Se  Se0  1  0.66666700  0.33333300  0.71242600  1
  Se  Se1  1  0.66666700  0.33333300  0.17509900  1
  Se  Se2  1  0.66666700  0.33333300  0.82490100  1
  Se  Se3  1  0.66666700  0.33333300  0.28757400  1
  S  S0  1  0.33333300  0.66666700  0.05090800  1
  S  S1  1  0.33333300  0.66666700  0.94909200  1
loop_
_geom_bond_atom_site_label_1
_geom_bond_atom_site_label_2
_geom_bond_distance
_geom_bond_site_symmetry_2
Mo0 S0 2.438704 1_545
Mo0 S0 2.438704 1_655
Mo0 S1 2.438704 1_544
Mo0 S1 2.438704 1_654
Mo0 S0 2.438708 1_555
Mo0 S1 2.438708 1_554
Se0 W0 2.543480 1_545
Se0 W0 2.543480 1_655
Se0 W0 2.543484 1_555
Se1 W1 2.543379 1_655
Se1 W1 2.543379 1_545
Se1 W1 2.543383 1_555
Se2 W0 2.543379 1_545
Se2 W0 2.543379 1_655
Se2 W0 2.543383 1_555
Se3 W1 2.543480 1_545
Se3 W1 2.543480 1_655
Se3 W1 2.543484 1_555
