# generated using pymatgen
data_BaSr7Co5Cu3O20
_symmetry_space_group_name_H-M   'P 1'
_cell_length_a   11.01918154
_cell_length_b   11.07944988
_cell_length_c   17.98106335
_cell_angle_alpha   108.25479584
_cell_angle_beta   107.98706479
_cell_angle_gamma   89.23116183
_symmetry_Int_Tables_number   1
_chemical_formula_structural   BaSr7Co5Cu3O20
_chemical_formula_sum   'Ba4 Sr28 Co20 Cu12 O80'
_cell_volume   1974.42161516
_cell_formula_units_Z   4
loop_
 _symmetry_equiv_pos_site_id
 _symmetry_equiv_pos_as_xyz
  1  'x, y, z'
loop_
 _atom_site_type_symbol
 _atom_site_label
 _atom_site_symmetry_multiplicity
 _atom_site_fract_x
 _atom_site_fract_y
 _atom_site_fract_z
 _atom_site_occupancy
  Ba  Ba0  1  0.30930670  0.06337694  0.11871478  1
  Ba  Ba1  1  0.31099236  0.56105363  0.11731106  1
  Ba  Ba2  1  0.80937939  0.05823952  0.11907188  1
  Ba  Ba3  1  0.05549943  0.80476295  0.11487715  1
  Sr  Sr0  1  0.30838295  0.06099208  0.61438163  1
  Sr  Sr1  1  0.30991986  0.55873661  0.61386219  1
  Sr  Sr2  1  0.80629678  0.06209156  0.61319572  1
  Sr  Sr3  1  0.80562900  0.55883216  0.11161467  1
  Sr  Sr4  1  0.80738461  0.55757379  0.61369657  1
  Sr  Sr5  1  0.19840236  0.44169127  0.39136908  1
  Sr  Sr6  1  0.19292120  0.44016228  0.88392236  1
  Sr  Sr7  1  0.19630037  0.93881909  0.39199036  1
  Sr  Sr8  1  0.19523484  0.94165320  0.88468393  1
  Sr  Sr9  1  0.69188022  0.43958952  0.38744314  1
  Sr  Sr10  1  0.69195509  0.43804519  0.88371875  1
  Sr  Sr11  1  0.69417205  0.94314023  0.38637968  1
  Sr  Sr12  1  0.69087264  0.93941231  0.88524532  1
  Sr  Sr13  1  0.05663373  0.30136664  0.10840588  1
  Sr  Sr14  1  0.05603098  0.30272236  0.61381942  1
  Sr  Sr15  1  0.05684661  0.80536443  0.61436515  1
  Sr  Sr16  1  0.55445624  0.30337020  0.11158168  1
  Sr  Sr17  1  0.55974612  0.30479444  0.61367611  1
  Sr  Sr18  1  0.55937967  0.80393567  0.11267503  1
  Sr  Sr19  1  0.55780148  0.80570018  0.61440465  1
  Sr  Sr20  1  0.44480589  0.20242661  0.39148750  1
  Sr  Sr21  1  0.44425654  0.19264121  0.88410051  1
  Sr  Sr22  1  0.44596054  0.69851632  0.39040785  1
  Sr  Sr23  1  0.44207888  0.69699679  0.88388734  1
  Sr  Sr24  1  0.94634096  0.19647984  0.39027205  1
  Sr  Sr25  1  0.94374965  0.19333933  0.88349668  1
  Sr  Sr26  1  0.94488291  0.70159192  0.39061820  1
  Sr  Sr27  1  0.94161991  0.69432256  0.88315014  1
  Co  Co0  1  0.99104469  0.99196861  0.98200069  1
  Co  Co1  1  0.00384818  0.00355700  0.50288295  1
  Co  Co2  1  0.99327372  0.49305180  0.98637669  1
  Co  Co3  1  0.00701574  0.50375580  0.50835995  1
  Co  Co4  1  0.49686895  0.99782102  0.99340595  1
  Co  Co5  1  0.50202547  0.00257473  0.50175818  1
  Co  Co6  1  0.49588129  0.49406912  0.98727192  1
  Co  Co7  1  0.50052279  0.50088323  0.50296186  1
  Co  Co8  1  0.24363575  0.24492451  0.99061374  1
  Co  Co9  1  0.25675216  0.25636779  0.51096873  1
  Co  Co10  1  0.24643687  0.74821046  0.98997118  1
  Co  Co11  1  0.25631014  0.75536688  0.51044980  1
  Co  Co12  1  0.74846523  0.24572038  0.99060300  1
  Co  Co13  1  0.75175822  0.25147536  0.50093951  1
  Co  Co14  1  0.74531688  0.74567752  0.98968887  1
  Co  Co15  1  0.75582864  0.75479248  0.50772597  1
  Co  Co16  1  0.11844531  0.09498121  0.25747947  1
  Co  Co17  1  0.10752529  0.58665059  0.25089284  1
  Co  Co18  1  0.62195037  0.59510798  0.25325712  1
  Co  Co19  1  0.86321340  0.40657834  0.25044348  1
  Cu  Cu0  1  0.11359816  0.09848284  0.74860008  1
  Cu  Cu1  1  0.11473413  0.59870334  0.74843274  1
  Cu  Cu2  1  0.61807886  0.10367571  0.25336171  1
  Cu  Cu3  1  0.61517048  0.09824357  0.74906810  1
  Cu  Cu4  1  0.61281211  0.59865739  0.74872597  1
  Cu  Cu5  1  0.35734896  0.40751199  0.25347342  1
  Cu  Cu6  1  0.36353491  0.40068540  0.74926754  1
  Cu  Cu7  1  0.37148293  0.90315087  0.25566247  1
  Cu  Cu8  1  0.36295145  0.89998920  0.74872802  1
  Cu  Cu9  1  0.86244316  0.39994530  0.74877856  1
  Cu  Cu10  1  0.86206962  0.88772695  0.25340723  1
  Cu  Cu11  1  0.86242798  0.90010129  0.74732446  1
  O  O0  1  0.12844140  0.12814459  0.49566128  1
  O  O1  1  0.11563997  0.11853457  0.99022961  1
  O  O2  1  0.13326010  0.63222854  0.49600033  1
  O  O3  1  0.11045928  0.61293840  0.98917905  1
  O  O4  1  0.63159170  0.13422822  0.49681218  1
  O  O5  1  0.61392736  0.11460425  0.99320527  1
  O  O6  1  0.63354448  0.63403054  0.49585843  1
  O  O7  1  0.61289840  0.61264782  0.99188975  1
  O  O8  1  0.13189785  0.36716723  0.99697360  1
  O  O9  1  0.12374067  0.38385916  0.50667470  1
  O  O10  1  0.12947714  0.86762269  0.99669609  1
  O  O11  1  0.12106126  0.88378767  0.50647759  1
  O  O12  1  0.63620535  0.36809109  0.00321574  1
  O  O13  1  0.62297866  0.38714189  0.50491870  1
  O  O14  1  0.62860282  0.86290689  0.99903310  1
  O  O15  1  0.62184263  0.88629350  0.50664654  1
  O  O16  1  0.38016133  0.11769284  0.49728816  1
  O  O17  1  0.36665598  0.13272176  0.99327151  1
  O  O18  1  0.38405583  0.61929082  0.49803083  1
  O  O19  1  0.36494388  0.63044803  0.99166000  1
  O  O20  1  0.88011134  0.11436338  0.49779528  1
  O  O21  1  0.86648368  0.12718714  0.99140375  1
  O  O22  1  0.88192193  0.61259828  0.49474198  1
  O  O23  1  0.85997369  0.62457200  0.99112970  1
  O  O24  1  0.38705596  0.38482475  0.99924827  1
  O  O25  1  0.37760222  0.37710474  0.50927440  1
  O  O26  1  0.38347098  0.88431576  0.99867757  1
  O  O27  1  0.37031981  0.87208264  0.50707794  1
  O  O28  1  0.88514255  0.38400366  0.00078387  1
  O  O29  1  0.87258267  0.36990125  0.50583266  1
  O  O30  1  0.87719598  0.87825765  0.99676825  1
  O  O31  1  0.87131823  0.87157509  0.50792028  1
  O  O32  1  0.08483675  0.10724323  0.15642560  1
  O  O33  1  0.07629229  0.08520510  0.63764381  1
  O  O34  1  0.07438309  0.58281761  0.14504934  1
  O  O35  1  0.07495956  0.58505594  0.63512067  1
  O  O36  1  0.57190106  0.08802391  0.14097787  1
  O  O37  1  0.57530146  0.08673549  0.63687530  1
  O  O38  1  0.58756550  0.59763795  0.14909860  1
  O  O39  1  0.57587397  0.58630668  0.63778293  1
  O  O40  1  0.43577902  0.41849976  0.36496745  1
  O  O41  1  0.43940634  0.41164523  0.86074833  1
  O  O42  1  0.43949243  0.91484443  0.36740913  1
  O  O43  1  0.43733484  0.91595404  0.86091459  1
  O  O44  1  0.93917517  0.40202169  0.35414303  1
  O  O45  1  0.93585771  0.41229271  0.86052175  1
  O  O46  1  0.93771935  0.91397978  0.36578309  1
  O  O47  1  0.93620601  0.91346701  0.85821736  1
  O  O48  1  0.32629447  0.31961253  0.14038533  1
  O  O49  1  0.32370956  0.30223299  0.63811788  1
  O  O50  1  0.33199887  0.81649562  0.14214255  1
  O  O51  1  0.32485930  0.80030066  0.63660636  1
  O  O52  1  0.83337135  0.31222821  0.14278264  1
  O  O53  1  0.82376422  0.30372140  0.63731463  1
  O  O54  1  0.81867460  0.80126243  0.14076261  1
  O  O55  1  0.82465513  0.79866157  0.63598175  1
  O  O56  1  0.19636234  0.20822023  0.35669366  1
  O  O57  1  0.18929407  0.19650751  0.86026656  1
  O  O58  1  0.19066166  0.69735766  0.35271151  1
  O  O59  1  0.18885824  0.69869109  0.86114067  1
  O  O60  1  0.69427597  0.19864570  0.36522240  1
  O  O61  1  0.68848390  0.19754024  0.86301038  1
  O  O62  1  0.69559902  0.70388196  0.35680126  1
  O  O63  1  0.68581978  0.69547217  0.86059051  1
  O  O64  1  0.46457178  0.05224848  0.26270351  1
  O  O65  1  0.45053489  0.04993634  0.74835994  1
  O  O66  1  0.46349066  0.54876663  0.26034151  1
  O  O67  1  0.44976839  0.55198690  0.74890536  1
  O  O68  1  0.96630043  0.04628338  0.26051120  1
  O  O69  1  0.94979218  0.05180248  0.74755379  1
  O  O70  1  0.93480822  0.56653945  0.25304491  1
  O  O71  1  0.95058570  0.55074635  0.74886053  1
  O  O72  1  0.17885340  0.42812204  0.25063211  1
  O  O73  1  0.19889556  0.44494156  0.74834499  1
  O  O74  1  0.20537661  0.95443588  0.25912310  1
  O  O75  1  0.19606232  0.93916777  0.74882477  1
  O  O76  1  0.69004047  0.43302396  0.25037943  1
  O  O77  1  0.69677892  0.44091310  0.74919650  1
  O  O78  1  0.70181497  0.94679379  0.24969567  1
  O  O79  1  0.69910156  0.94441304  0.75022803  1
loop_
_geom_bond_atom_site_label_1
_geom_bond_atom_site_label_2
_geom_bond_distance
_geom_bond_site_symmetry_2
Ba0 O64 2.665374 1_555
Ba0 O48 2.742752 1_555
Ba0 O32 2.758843 1_555
Ba0 O26 2.761456 1_544
Ba0 O36 2.800879 1_555
Ba0 O10 2.809515 1_544
Ba0 O17 2.838388 1_554
Ba0 O1 2.840714 1_554
Ba0 O50 2.891430 1_545
Ba1 O66 2.645890 1_555
Ba1 O50 2.724851 1_555
Ba1 O24 2.734911 1_554
Ba1 O8 2.784896 1_554
Ba1 O34 2.795626 1_555
Ba1 O19 2.824760 1_554
Ba1 O48 2.827789 1_555
Ba1 O3 2.858820 1_554
Ba1 O38 2.931058 1_555
Ba2 O68 2.639020 1_555
Ba2 O52 2.714643 1_555
Ba2 O30 2.756583 1_544
Ba2 O36 2.764736 1_555
Ba2 O14 2.800777 1_544
Ba2 O5 2.826586 1_554
Ba2 O21 2.872796 1_554
Ba2 O32 2.918167 1_655
Ba2 O54 2.988669 1_545
Ba3 O74 2.634027 1_555
Ba3 O34 2.671481 1_555
Ba3 O30 2.738058 1_454
Ba3 O10 2.770837 1_554
Ba3 O54 2.791493 1_455
Ba3 O3 2.791701 1_554
Ba3 O23 2.819644 1_454
Ba3 O50 2.930597 1_555
Ba3 O32 3.194577 1_565
Co0 O1 1.915583 1_665
Co0 O30 1.920755 1_555
Co0 O47 2.011533 1_555
Co0 O21 2.021486 1_565
Co0 O10 2.053642 1_655
Co1 O20 1.822918 1_455
Co1 O11 1.841043 1_545
Co1 O0 2.020004 1_555
Co1 O31 2.121592 1_445
Co1 O33 2.186014 1_555
Co1 O46 2.229435 1_445
Co2 O28 1.836276 1_556
Co2 O3 1.843421 1_655
Co2 O45 2.045597 1_555
Co2 O23 2.056761 1_555
Co2 O8 2.060212 1_655
Co2 O34 2.568933 1_656
Co3 O22 1.829258 1_455
Co3 O9 1.836540 1_555
Co3 O35 2.060342 1_555
Co3 O29 2.090692 1_455
Co3 O2 2.110195 1_555
Co3 O44 2.510572 1_455
Co4 O26 1.828078 1_555
Co4 O5 1.840808 1_565
Co4 O17 2.057972 1_565
Co4 O14 2.073051 1_555
Co4 O43 2.150718 1_555
Co4 O36 2.393591 1_566
Co5 O15 1.834204 1_545
Co5 O16 1.840666 1_555
Co5 O4 2.095115 1_555
Co5 O27 2.105792 1_545
Co5 O42 2.185005 1_545
Co5 O37 2.193972 1_555
Co6 O7 1.818396 1_555
Co6 O24 1.819642 1_555
Co6 O41 2.058219 1_555
Co6 O19 2.075622 1_555
Co6 O12 2.083327 1_556
Co6 O38 2.632132 1_556
Co7 O18 1.825752 1_555
Co7 O13 1.833828 1_555
Co7 O25 1.992628 1_555
Co7 O6 2.152387 1_555
Co7 O39 2.191478 1_555
Co7 O40 2.237006 1_555
Co8 O8 1.818957 1_555
Co8 O17 1.826822 1_555
Co8 O1 1.997788 1_555
Co8 O57 2.119858 1_555
Co8 O24 2.165104 1_555
Co8 O48 2.424061 1_556
Co9 O0 1.913537 1_555
Co9 O25 1.913662 1_555
Co9 O9 2.022943 1_555
Co9 O16 2.045520 1_555
Co9 O49 2.066414 1_555
Co9 O56 2.522895 1_555
Co10 O19 1.833883 1_555
Co10 O10 1.837465 1_555
Co10 O26 2.084662 1_555
Co10 O59 2.091690 1_555
Co10 O3 2.127257 1_555
Co10 O50 2.465175 1_556
Co11 O2 1.837750 1_555
Co11 O27 1.842264 1_555
Co11 O11 2.047354 1_555
Co11 O51 2.051468 1_555
Co11 O18 2.056847 1_555
Co11 O58 2.565979 1_555
Co12 O12 1.831788 1_556
Co12 O21 1.835914 1_555
Co12 O61 2.071493 1_555
Co12 O28 2.089268 1_556
Co12 O5 2.110339 1_555
Co12 O52 2.465784 1_556
Co13 O4 1.836139 1_555
Co13 O29 1.845029 1_555
Co13 O13 2.053348 1_555
Co13 O20 2.061366 1_555
Co13 O60 2.204426 1_555
Co13 O53 2.213408 1_555
Co14 O14 1.822404 1_555
Co14 O23 1.831218 1_555
Co14 O30 2.027708 1_555
Co14 O63 2.094926 1_555
Co14 O7 2.105458 1_555
Co14 O54 2.453774 1_556
Co15 O31 1.825453 1_555
Co15 O6 1.828476 1_555
Co15 O15 2.060389 1_555
Co15 O55 2.087420 1_555
Co15 O22 2.092421 1_555
Co15 O62 2.462107 1_555
Co16 O56 1.781722 1_555
Co16 O32 1.787457 1_555
Co16 O68 1.789950 1_455
Co16 O74 1.820590 1_545
Co17 O34 1.810465 1_555
Co17 O58 1.811914 1_555
Co17 O72 1.913851 1_555
Co17 O70 1.932767 1_455
Co18 O38 1.801768 1_555
Co18 O62 1.806874 1_555
Co18 O66 1.879123 1_555
Co18 O76 1.928764 1_555
Co19 O44 1.809399 1_555
Co19 O52 1.815685 1_555
Co19 O76 1.926401 1_555
Co19 O70 1.930894 1_555
Cu0 O33 1.866097 1_555
Cu0 O69 1.877200 1_455
Cu0 O57 1.878999 1_555
Cu0 O75 1.974980 1_545
Cu1 O71 1.894997 1_455
Cu1 O59 1.896565 1_555
Cu1 O35 1.903550 1_555
Cu1 O73 1.928501 1_555
Cu2 O64 1.864250 1_555
Cu2 O60 1.874182 1_555
Cu2 O36 1.876251 1_555
Cu2 O78 1.949279 1_545
Cu3 O37 1.889958 1_555
Cu3 O65 1.893483 1_555
Cu3 O61 1.910522 1_555
Cu3 O79 1.930978 1_545
Cu4 O39 1.868936 1_555
Cu4 O63 1.875035 1_555
Cu4 O67 1.877430 1_555
Cu4 O77 1.967666 1_555
Cu5 O48 1.881216 1_555
Cu5 O40 1.886990 1_555
Cu5 O66 1.916073 1_555
Cu5 O72 1.963809 1_555
Cu6 O49 1.866058 1_555
Cu6 O73 1.869392 1_555
Cu6 O41 1.883375 1_555
Cu6 O67 1.940742 1_555
Cu7 O50 1.874185 1_555
Cu7 O42 1.877580 1_555
Cu7 O64 1.905597 1_565
Cu7 O74 1.922815 1_555
Cu8 O43 1.879237 1_555
Cu8 O75 1.884240 1_555
Cu8 O51 1.885578 1_555
Cu8 O65 1.935289 1_565
Cu9 O53 1.865798 1_555
Cu9 O77 1.876852 1_555
Cu9 O45 1.880737 1_555
Cu9 O71 1.943198 1_555
Cu10 O54 1.856723 1_555
Cu10 O46 1.860234 1_555
Cu10 O78 1.864030 1_555
Cu10 O68 2.060211 1_565
Cu11 O47 1.864365 1_555
Cu11 O79 1.871102 1_555
Cu11 O55 1.879593 1_555
Cu11 O69 1.946375 1_565
O0 Sr24 2.588503 1_455
O0 Sr7 2.608286 1_545
O0 Sr14 2.706082 1_555
O0 Sr0 2.717238 1_555
O1 Sr25 2.582057 1_455
O1 Sr8 2.619814 1_545
O1 Sr13 2.676335 1_556
O2 Sr5 2.610855 1_555
O2 Sr26 2.632534 1_455
O2 Sr15 2.724731 1_555
O2 Sr1 2.726611 1_555
O3 Sr27 2.598174 1_455
O3 Sr6 2.611094 1_555
O4 Sr20 2.615579 1_555
O4 Sr11 2.659620 1_545
O4 Sr17 2.667042 1_555
O4 Sr2 2.691212 1_555
O5 Sr21 2.616443 1_555
O5 Sr12 2.620428 1_545
O5 Sr16 2.714765 1_556
O6 Sr22 2.601304 1_555
O6 Sr9 2.638220 1_555
O6 Sr19 2.715528 1_555
O6 Sr4 2.729601 1_555
O7 Sr10 2.632167 1_555
O7 Sr23 2.649516 1_555
O7 Sr18 2.725844 1_556
O7 Sr3 2.728873 1_556
O8 Sr6 2.669676 1_555
O8 Sr13 2.681729 1_556
O8 Sr25 2.683923 1_455
O9 Sr1 2.646264 1_555
O9 Sr14 2.658431 1_555
O9 Sr5 2.699250 1_555
O9 Sr24 2.715111 1_455
O10 Sr27 2.679679 1_455
O10 Sr8 2.684516 1_555
O11 Sr15 2.634248 1_555
O11 Sr0 2.669949 1_565
O11 Sr7 2.674128 1_555
O11 Sr26 2.675157 1_455
O12 Sr3 2.651125 1_555
O12 Sr16 2.664428 1_555
O12 Sr10 2.732443 1_554
O12 Sr21 2.746622 1_554
O13 Sr4 2.618176 1_555
O13 Sr17 2.668060 1_555
O13 Sr9 2.673461 1_555
O13 Sr20 2.687493 1_555
O14 Sr23 2.641776 1_555
O14 Sr18 2.645120 1_556
O14 Sr12 2.710112 1_555
O15 Sr2 2.637972 1_565
O15 Sr19 2.644791 1_555
O15 Sr22 2.708362 1_555
O15 Sr11 2.763995 1_555
O16 Sr20 2.642293 1_555
O16 Sr7 2.646696 1_545
O16 Sr0 2.706232 1_555
O16 Sr17 2.725330 1_555
O17 Sr21 2.625582 1_555
O17 Sr8 2.664914 1_545
O17 Sr16 2.692399 1_556
O18 Sr22 2.622257 1_555
O18 Sr5 2.656283 1_555
O18 Sr19 2.689607 1_555
O18 Sr1 2.719625 1_555
O19 Sr23 2.636408 1_555
O19 Sr6 2.659208 1_555
O19 Sr18 2.762395 1_556
O20 Sr11 2.645481 1_545
O20 Sr24 2.662620 1_555
O20 Sr2 2.666570 1_555
O20 Sr14 2.710835 1_655
O21 Sr25 2.637180 1_555
O21 Sr12 2.656183 1_545
O21 Sr13 2.717173 1_656
O22 Sr26 2.633624 1_555
O22 Sr9 2.660352 1_555
O22 Sr4 2.745296 1_555
O22 Sr15 2.752313 1_655
O23 Sr10 2.612003 1_555
O23 Sr27 2.685869 1_555
O23 Sr3 2.717375 1_556
O24 Sr16 2.663298 1_556
O24 Sr21 2.688132 1_555
O24 Sr6 2.697010 1_555
O25 Sr1 2.568575 1_555
O25 Sr17 2.601222 1_555
O25 Sr20 2.672420 1_555
O25 Sr5 2.689408 1_555
O26 Sr8 2.657424 1_555
O26 Sr23 2.662372 1_555
O26 Sr18 2.719459 1_556
O27 Sr0 2.610402 1_565
O27 Sr19 2.630456 1_555
O27 Sr7 2.641195 1_555
O27 Sr22 2.702449 1_555
O28 Sr13 2.638015 1_655
O28 Sr3 2.665641 1_555
O28 Sr10 2.703500 1_554
O28 Sr25 2.709373 1_554
O29 Sr14 2.617519 1_655
O29 Sr4 2.625894 1_555
O29 Sr24 2.677676 1_555
O29 Sr9 2.731890 1_555
O30 Sr12 2.639466 1_555
O30 Sr27 2.660700 1_555
O31 Sr15 2.608391 1_655
O31 Sr2 2.616489 1_565
O31 Sr26 2.679399 1_555
O31 Sr11 2.761249 1_555
O32 Sr13 2.539242 1_555
O33 Sr14 2.571887 1_555
O33 Sr0 2.712827 1_555
O33 Sr2 2.872698 1_455
O33 Sr15 2.997247 1_545
O34 Sr3 2.832611 1_455
O34 Sr13 2.974206 1_555
O35 Sr15 2.578511 1_555
O35 Sr1 2.730488 1_555
O35 Sr4 2.860704 1_455
O35 Sr14 3.031961 1_555
O36 Sr16 2.593063 1_555
O36 Sr18 3.024865 1_545
O37 Sr17 2.572241 1_555
O37 Sr2 2.704194 1_555
O37 Sr0 2.848029 1_555
O37 Sr19 3.012555 1_545
O38 Sr18 2.557892 1_555
O38 Sr3 2.684015 1_555
O38 Sr16 3.117680 1_555
O39 Sr19 2.588516 1_555
O39 Sr4 2.714960 1_555
O39 Sr1 2.833712 1_555
O39 Sr17 3.011302 1_555
O40 Sr20 2.578351 1_555
O40 Sr9 2.726889 1_555
O40 Sr5 2.793870 1_555
O40 Sr22 2.989223 1_555
O41 Sr21 2.586070 1_555
O41 Sr10 2.690139 1_555
O41 Sr6 2.871226 1_555
O41 Sr23 3.056166 1_555
O42 Sr22 2.553214 1_555
O42 Sr11 2.730512 1_555
O42 Sr7 2.843588 1_555
O42 Sr20 3.077043 1_565
O43 Sr23 2.582544 1_555
O43 Sr12 2.693981 1_555
O43 Sr8 2.826333 1_555
O43 Sr21 2.960259 1_565
O44 Sr24 2.550420 1_555
O44 Sr5 2.732977 1_655
O44 Sr9 2.962848 1_555
O44 Sr26 3.172809 1_555
O45 Sr25 2.581303 1_555
O45 Sr6 2.739005 1_655
O45 Sr10 2.841800 1_555
O45 Sr27 3.020995 1_555
O46 Sr26 2.524775 1_555
O46 Sr7 2.743562 1_655
O46 Sr11 2.821232 1_555
O46 Sr24 3.019632 1_565
O47 Sr27 2.600244 1_555
O47 Sr8 2.750062 1_655
O47 Sr12 2.886189 1_555
O47 Sr25 2.988184 1_565
O48 Sr16 2.712061 1_555
O48 Sr13 2.844117 1_555
O49 Sr0 2.570516 1_555
O49 Sr17 2.770299 1_555
O49 Sr14 2.845381 1_555
O49 Sr1 3.002301 1_555
O50 Sr18 2.709662 1_555
O51 Sr1 2.577203 1_555
O51 Sr19 2.720941 1_555
O51 Sr15 2.857468 1_555
O51 Sr0 3.033031 1_565
O52 Sr13 2.708070 1_655
O52 Sr16 2.946007 1_555
O52 Sr3 2.950208 1_555
O53 Sr2 2.574303 1_555
O53 Sr14 2.719040 1_655
O53 Sr17 2.807694 1_555
O53 Sr4 2.968276 1_555
O54 Sr3 2.567452 1_555
O54 Sr18 2.745091 1_555
O55 Sr4 2.574423 1_555
O55 Sr15 2.709281 1_655
O55 Sr19 2.848053 1_555
O55 Sr2 3.067490 1_565
O56 Sr5 2.462300 1_555
O56 Sr20 2.617799 1_555
O56 Sr24 3.009620 1_455
O57 Sr6 2.596762 1_555
O57 Sr21 2.709856 1_555
O57 Sr25 2.864655 1_455
O57 Sr8 2.987304 1_545
O58 Sr7 2.540341 1_555
O58 Sr22 2.681690 1_555
O58 Sr26 2.986336 1_455
O58 Sr5 3.115245 1_555
O59 Sr8 2.589051 1_555
O59 Sr23 2.692933 1_555
O59 Sr27 2.874465 1_455
O59 Sr6 3.015737 1_555
O60 Sr9 2.573540 1_555
O60 Sr24 2.674053 1_555
O60 Sr20 2.927095 1_555
O60 Sr11 2.972128 1_545
O61 Sr10 2.571551 1_555
O61 Sr25 2.723438 1_555
O61 Sr21 2.834846 1_555
O61 Sr12 3.007901 1_545
O62 Sr11 2.535923 1_555
O62 Sr26 2.625278 1_555
O62 Sr22 2.998195 1_555
O62 Sr9 3.147636 1_555
O63 Sr12 2.596632 1_555
O63 Sr27 2.721384 1_555
O63 Sr23 2.842294 1_555
O63 Sr10 3.005466 1_555
O64 Sr20 2.462969 1_555
O65 Sr0 2.474144 1_555
O65 Sr21 2.479041 1_555
O66 Sr22 2.469655 1_555
O67 Sr1 2.464998 1_555
O67 Sr23 2.481881 1_555
O68 Sr24 2.477139 1_555
O69 Sr25 2.476871 1_555
O69 Sr2 2.481574 1_555
O70 Sr26 2.426205 1_555
O70 Sr3 2.476331 1_555
O71 Sr27 2.471349 1_555
O71 Sr4 2.479093 1_555
O72 Sr5 2.428743 1_555
O72 Sr13 2.449450 1_555
O73 Sr6 2.475927 1_555
O73 Sr14 2.477732 1_555
O74 Sr7 2.480871 1_555
O75 Sr15 2.433382 1_555
O75 Sr8 2.437246 1_555
O76 Sr9 2.436510 1_555
O76 Sr16 2.456222 1_555
O77 Sr17 2.445153 1_555
O77 Sr10 2.445872 1_555
O78 Sr11 2.497878 1_555
O78 Sr18 2.504828 1_555
O79 Sr19 2.472865 1_555
O79 Sr12 2.475004 1_555
