# generated using pymatgen
data_Ho20Cu6(Pb3S14)3
_symmetry_space_group_name_H-M   'P 1'
_cell_length_a   8.81661300
_cell_length_b   14.37190475
_cell_length_c   15.60110440
_cell_angle_alpha   102.05313488
_cell_angle_beta   105.03631335
_cell_angle_gamma   101.81371409
_symmetry_Int_Tables_number   1
_chemical_formula_structural   Ho20Cu6(Pb3S14)3
_chemical_formula_sum   'Ho20 Cu6 Pb9 S42'
_cell_volume   1795.54677514
_cell_formula_units_Z   1
loop_
 _symmetry_equiv_pos_site_id
 _symmetry_equiv_pos_as_xyz
  1  'x, y, z'
loop_
 _atom_site_type_symbol
 _atom_site_label
 _atom_site_symmetry_multiplicity
 _atom_site_fract_x
 _atom_site_fract_y
 _atom_site_fract_z
 _atom_site_occupancy
  Ho  Ho0  1  0.69952700  0.59794000  0.54060900  1
  Ho  Ho1  1  0.86176500  0.42948800  0.37262400  1
  Ho  Ho2  1  0.53316300  0.76606600  0.70771100  1
  Ho  Ho3  1  0.03012400  0.26227700  0.20888600  1
  Ho  Ho4  1  0.20036500  0.09542200  0.04248000  1
  Ho  Ho5  1  0.36786700  0.93151200  0.87657100  1
  Ho  Ho6  1  0.33413500  0.16387700  0.66812300  1
  Ho  Ho7  1  0.48476100  0.99912500  0.49077400  1
  Ho  Ho8  1  0.16166300  0.32870000  0.83092200  1
  Ho  Ho9  1  0.67447500  0.83698000  0.33351900  1
  Ho  Ho10  1  0.83213800  0.67218800  0.16634900  1
  Ho  Ho11  1  0.99953800  0.50049600  0.99933700  1
  Ho  Ho12  1  0.30059800  0.38631900  0.47111800  1
  Ho  Ho13  1  0.45902200  0.20967000  0.30660300  1
  Ho  Ho14  1  0.13214300  0.54981100  0.63717700  1
  Ho  Ho15  1  0.64120900  0.05042900  0.14412100  1
  Ho  Ho16  1  0.80432600  0.88381100  0.97764900  1
  Ho  Ho17  1  0.97055400  0.71926300  0.80799500  1
  Ho  Ho18  1  0.26073100  0.81011300  0.12909700  1
  Ho  Ho19  1  0.94497800  0.12775100  0.44589100  1
  Cu  Cu0  1  0.47279600  0.97932900  0.70119400  1
  Cu  Cu1  1  0.80946900  0.64800900  0.36861300  1
  Cu  Cu2  1  0.14167100  0.31153100  0.03528700  1
  Cu  Cu3  1  0.97383400  0.48214100  0.20055200  1
  Cu  Cu4  1  0.30723800  0.14445500  0.86734300  1
  Cu  Cu5  1  0.64158200  0.81477600  0.53376100  1
  Pb  Pb0  1  0.06978500  0.86697200  0.54737200  1
  Pb  Pb1  1  0.23729900  0.70136600  0.38138700  1
  Pb  Pb2  1  0.90409700  0.03139700  0.71634900  1
  Pb  Pb3  1  0.41004900  0.53619300  0.21933200  1
  Pb  Pb4  1  0.57484300  0.36731500  0.05207100  1
  Pb  Pb5  1  0.74191200  0.19804500  0.88758300  1
  Pb  Pb6  1  0.75928400  0.29975600  0.61532800  1
  Pb  Pb7  1  0.42538300  0.63439300  0.94865900  1
  Pb  Pb8  1  0.58981100  0.46620500  0.78146500  1
  S  S0  1  0.24023400  0.00811700  0.73735800  1
  S  S1  1  0.40712900  0.84601400  0.56704400  1
  S  S2  1  0.07442500  0.17510300  0.90315800  1
  S  S3  1  0.57613600  0.67841300  0.40392700  1
  S  S4  1  0.74069900  0.51233800  0.23587200  1
  S  S5  1  0.91142200  0.34519900  0.07123400  1
  S  S6  1  0.79359400  0.99572400  0.28596200  1
  S  S7  1  0.96179900  0.82310200  0.11276300  1
  S  S8  1  0.63837100  0.15258400  0.44304200  1
  S  S9  1  0.12472500  0.66803800  0.95884800  1
  S  S10  1  0.27325700  0.48510800  0.77678800  1
  S  S11  1  0.44290900  0.31868500  0.60968400  1
  S  S12  1  0.18072600  0.20279300  0.35590800  1
  S  S13  1  0.35552100  0.02704500  0.18070700  1
  S  S14  1  0.01987500  0.36288800  0.51326100  1
  S  S15  1  0.51808300  0.86898800  0.02223500  1
  S  S16  1  0.69120100  0.70572400  0.84983800  1
  S  S17  1  0.85823400  0.53934000  0.68509800  1
  S  S18  1  0.19758800  0.03837100  0.49681500  1
  S  S19  1  0.37463100  0.86394200  0.32274700  1
  S  S20  1  0.03807500  0.19650900  0.65609600  1
  S  S21  1  0.53149200  0.70583700  0.16355800  1
  S  S22  1  0.70930500  0.53361300  0.99977800  1
  S  S23  1  0.87423500  0.36539700  0.83238200  1
  S  S24  1  0.74045300  0.24409500  0.25084900  1
  S  S25  1  0.90813100  0.07996700  0.08048100  1
  S  S26  1  0.57771300  0.40755800  0.41813000  1
  S  S27  1  0.07854000  0.91182000  0.91821400  1
  S  S28  1  0.24867000  0.74280800  0.75393400  1
  S  S29  1  0.41357000  0.57787800  0.58657100  1
  S  S30  1  0.78990100  0.95842500  0.51031100  1
  S  S31  1  0.95960600  0.78549000  0.34587400  1
  S  S32  1  0.62189100  0.11753300  0.67369200  1
  S  S33  1  0.12619300  0.62515400  0.17774400  1
  S  S34  1  0.29045400  0.45188200  0.01060800  1
  S  S35  1  0.45712400  0.28643700  0.84566900  1
  S  S36  1  0.81046900  0.78305300  0.65965000  1
  S  S37  1  0.97530300  0.61234100  0.49332500  1
  S  S38  1  0.64330400  0.94910200  0.82785700  1
  S  S39  1  0.14085100  0.44919400  0.32550500  1
  S  S40  1  0.30854500  0.27862600  0.16286400  1
  S  S41  1  0.47781400  0.11531600  0.99443400  1
loop_
_geom_bond_atom_site_label_1
_geom_bond_atom_site_label_2
_geom_bond_distance
_geom_bond_site_symmetry_2
Ho0 S37 2.699466 1_555
Ho0 S17 2.717974 1_555
Ho0 S3 2.722078 1_555
Ho0 S36 2.722525 1_555
Ho0 S29 2.771340 1_555
Ho0 S26 2.799930 1_555
Ho1 S37 2.707800 1_555
Ho1 S39 2.723094 1_655
Ho1 S4 2.740190 1_555
Ho1 S14 2.740418 1_655
Ho1 S24 2.741773 1_555
Ho1 S26 2.751006 1_555
Ho2 S16 2.702766 1_555
Ho2 S38 2.706781 1_555
Ho2 S36 2.717088 1_555
Ho2 S28 2.760259 1_555
Ho2 S29 2.768055 1_555
Ho2 S1 2.771580 1_555
Ho3 S40 2.710203 1_555
Ho3 S39 2.728203 1_555
Ho3 S12 2.731022 1_555
Ho3 S5 2.746051 1_455
Ho3 S25 2.751555 1_455
Ho3 S24 2.772197 1_455
Ho4 S40 2.710481 1_555
Ho4 S41 2.716948 1_554
Ho4 S13 2.718884 1_555
Ho4 S27 2.738166 1_544
Ho4 S2 2.752580 1_554
Ho4 S25 2.766310 1_455
Ho5 S41 2.701291 1_565
Ho5 S38 2.706510 1_555
Ho5 S0 2.726400 1_565
Ho5 S15 2.739405 1_556
Ho5 S27 2.765910 1_555
Ho5 S28 2.782594 1_555
Ho6 S11 2.669871 1_555
Ho6 S18 2.696988 1_555
Ho6 S20 2.711533 1_555
Ho6 S32 2.736679 1_555
Ho6 S35 2.751853 1_555
Ho6 S0 2.752865 1_555
Ho7 S8 2.690558 1_565
Ho7 S19 2.714604 1_555
Ho7 S18 2.724677 1_565
Ho7 S1 2.761505 1_555
Ho7 S32 2.800108 1_565
Ho7 S30 2.822431 1_555
Ho8 S10 2.655688 1_555
Ho8 S23 2.696801 1_455
Ho8 S2 2.743740 1_555
Ho8 S35 2.757350 1_555
Ho8 S20 2.771652 1_555
Ho8 S34 2.781119 1_556
Ho9 S6 2.643603 1_555
Ho9 S21 2.716243 1_555
Ho9 S19 2.717202 1_555
Ho9 S31 2.733913 1_555
Ho9 S30 2.737742 1_555
Ho9 S3 2.807542 1_555
Ho10 S7 2.635880 1_555
Ho10 S22 2.718009 1_554
Ho10 S31 2.733454 1_555
Ho10 S21 2.781304 1_555
Ho10 S33 2.781830 1_655
Ho10 S4 2.800033 1_555
Ho11 S22 2.698306 1_555
Ho11 S23 2.700241 1_555
Ho11 S9 2.706282 1_655
Ho11 S5 2.762398 1_556
Ho11 S34 2.765648 1_656
Ho11 S33 2.772958 1_656
Ho12 S11 2.676197 1_555
Ho12 S12 2.682841 1_555
Ho12 S14 2.695730 1_555
Ho12 S26 2.755693 1_555
Ho12 S39 2.771149 1_555
Ho12 S29 2.773286 1_555
Ho13 S8 2.686734 1_555
Ho13 S13 2.741479 1_555
Ho13 S12 2.744719 1_555
Ho13 S40 2.773778 1_555
Ho13 S24 2.820457 1_555
Ho13 S26 2.825060 1_555
Ho14 S10 2.658994 1_555
Ho14 S17 2.692310 1_455
Ho14 S37 2.738127 1_455
Ho14 S29 2.771673 1_555
Ho14 S14 2.771896 1_555
Ho14 S28 2.796280 1_555
Ho15 S6 2.633727 1_545
Ho15 S13 2.694913 1_555
Ho15 S15 2.700586 1_545
Ho15 S24 2.756163 1_555
Ho15 S25 2.771916 1_555
Ho15 S41 2.848252 1_554
Ho16 S7 2.622561 1_556
Ho16 S16 2.704254 1_555
Ho16 S15 2.766017 1_556
Ho16 S25 2.766181 1_566
Ho16 S27 2.790587 1_655
Ho16 S38 2.845532 1_555
Ho17 S16 2.687222 1_555
Ho17 S17 2.690554 1_555
Ho17 S9 2.720652 1_655
Ho17 S27 2.757923 1_655
Ho17 S28 2.773238 1_655
Ho17 S36 2.812446 1_555
Ho18 S7 2.630370 1_455
Ho18 S9 2.782409 1_554
Ho18 S19 2.804625 1_555
Ho18 S13 2.933008 1_565
Ho18 S33 3.011260 1_555
Ho18 S21 3.060903 1_555
Ho18 S15 3.226360 1_555
Ho19 S6 2.620133 1_545
Ho19 S8 2.788576 1_555
Ho19 S18 2.814447 1_655
Ho19 S12 2.946605 1_655
Ho19 S30 3.028794 1_545
Ho19 S20 3.053308 1_655
Ho19 S14 3.194313 1_655
Cu0 S32 2.331679 1_565
Cu0 S38 2.331975 1_555
Cu0 S0 2.354525 1_565
Cu0 S1 2.372504 1_555
Cu1 S31 2.290750 1_555
Cu1 S37 2.330974 1_555
Cu1 S3 2.362663 1_555
Cu1 S4 2.374071 1_555
Cu2 S34 2.332526 1_555
Cu2 S40 2.346980 1_555
Cu2 S5 2.355671 1_455
Cu2 S2 2.376355 1_554
Cu3 S39 2.318255 1_655
Cu3 S5 2.359837 1_555
Cu3 S4 2.360076 1_555
Cu3 S33 2.361892 1_655
Cu4 S41 2.329361 1_555
Cu4 S35 2.332466 1_555
Cu4 S0 2.354938 1_555
Cu4 S2 2.362621 1_555
Cu5 S36 2.327424 1_555
Cu5 S3 2.355689 1_555
Cu5 S30 2.358875 1_555
Cu5 S1 2.362952 1_555
Pb0 S18 2.845317 1_565
Pb0 S31 2.934189 1_455
Pb0 S1 2.993789 1_555
Pb0 S30 3.009341 1_455
Pb0 S0 3.014648 1_565
Pb1 S19 2.841026 1_555
Pb1 S31 2.924191 1_455
Pb1 S33 2.957283 1_555
Pb1 S1 2.985559 1_555
Pb1 S3 3.010630 1_555
Pb2 S20 2.875749 1_655
Pb2 S32 2.985320 1_555
Pb2 S30 2.987739 1_545
Pb2 S0 2.991661 1_655
Pb2 S2 2.993313 1_655
Pb3 S21 2.854549 1_555
Pb3 S4 2.956090 1_555
Pb3 S3 2.956993 1_555
Pb3 S33 3.022082 1_555
Pb3 S34 3.038278 1_555
Pb4 S22 2.817655 1_554
Pb4 S4 2.964003 1_555
Pb4 S34 2.986132 1_555
Pb4 S5 2.993653 1_555
Pb4 S35 3.001015 1_554
Pb5 S23 2.850434 1_555
Pb5 S2 2.970169 1_655
Pb5 S5 2.978052 1_556
Pb5 S35 3.024391 1_555
Pb5 S32 3.106076 1_555
Pb6 S8 2.837336 1_555
Pb6 S11 2.838230 1_555
Pb6 S32 3.069897 1_555
Pb6 S20 3.118414 1_655
Pb6 S23 3.142876 1_555
Pb6 S14 3.207113 1_655
Pb6 S17 3.242540 1_555
Pb7 S9 2.827916 1_555
Pb7 S10 2.853941 1_555
Pb7 S34 3.099543 1_556
Pb7 S21 3.116312 1_556
Pb7 S22 3.151383 1_555
Pb7 S15 3.181466 1_556
Pb7 S16 3.235961 1_555
Pb8 S11 2.838381 1_555
Pb8 S10 2.842801 1_555
Pb8 S35 3.081901 1_555
Pb8 S23 3.154849 1_555
Pb8 S22 3.160859 1_555
Pb8 S17 3.233164 1_555
Pb8 S16 3.240122 1_555
