# generated using pymatgen
data_CsBaPS4
_symmetry_space_group_name_H-M   'P 1'
_cell_length_a   6.94674900
_cell_length_b   10.24381000
_cell_length_c   11.98540700
_cell_angle_alpha   90.00000000
_cell_angle_beta   90.00000000
_cell_angle_gamma   90.00000000
_symmetry_Int_Tables_number   1
_chemical_formula_structural   CsBaPS4
_chemical_formula_sum   'Cs4 Ba4 P4 S16'
_cell_volume   852.89566743
_cell_formula_units_Z   4
loop_
 _symmetry_equiv_pos_site_id
 _symmetry_equiv_pos_as_xyz
  1  'x, y, z'
loop_
 _atom_site_type_symbol
 _atom_site_label
 _atom_site_symmetry_multiplicity
 _atom_site_fract_x
 _atom_site_fract_y
 _atom_site_fract_z
 _atom_site_occupancy
  Cs  Cs0  1  0.25000000  0.85941000  0.92828200  1
  Cs  Cs1  1  0.25000000  0.64059000  0.42828200  1
  Cs  Cs2  1  0.75000000  0.14059000  0.07171800  1
  Cs  Cs3  1  0.75000000  0.35941000  0.57171800  1
  Ba  Ba0  1  0.25000000  0.40018500  0.85118300  1
  Ba  Ba1  1  0.25000000  0.09981500  0.35118300  1
  Ba  Ba2  1  0.75000000  0.59981500  0.14881700  1
  Ba  Ba3  1  0.75000000  0.90018500  0.64881700  1
  P  P0  1  0.25000000  0.11630500  0.67583000  1
  P  P1  1  0.25000000  0.38369500  0.17583000  1
  P  P2  1  0.75000000  0.88369500  0.32417000  1
  P  P3  1  0.75000000  0.61630500  0.82417000  1
  S  S0  1  0.00919000  0.12714100  0.77477100  1
  S  S1  1  0.49081000  0.37285900  0.27477100  1
  S  S2  1  0.50919000  0.87285900  0.22522900  1
  S  S3  1  0.99081000  0.62714100  0.72522900  1
  S  S4  1  0.99081000  0.87285900  0.22522900  1
  S  S5  1  0.50919000  0.62714100  0.72522900  1
  S  S6  1  0.49081000  0.12714100  0.77477100  1
  S  S7  1  0.00919000  0.37285900  0.27477100  1
  S  S8  1  0.25000000  0.27514000  0.57092700  1
  S  S9  1  0.25000000  0.22486000  0.07092700  1
  S  S10  1  0.75000000  0.72486000  0.42907300  1
  S  S11  1  0.75000000  0.77514000  0.92907300  1
  S  S12  1  0.25000000  0.94366600  0.58754000  1
  S  S13  1  0.25000000  0.55633400  0.08754000  1
  S  S14  1  0.75000000  0.05633400  0.41246000  1
  S  S15  1  0.75000000  0.44366600  0.91246000  1
loop_
_geom_bond_atom_site_label_1
_geom_bond_atom_site_label_2
_geom_bond_distance
_geom_bond_site_symmetry_2
Cs0 S11 3.579052 1_455
Cs0 S11 3.579052 1_555
Cs0 S13 3.644486 1_556
Cs0 S6 3.702080 1_565
Cs0 S0 3.702080 1_565
Cs0 S3 3.850432 1_455
Cs0 S5 3.850432 1_555
Cs0 S4 3.990937 1_456
Cs0 S2 3.990937 1_556
Cs0 S9 4.115516 1_566
Cs1 S10 3.579052 1_455
Cs1 S10 3.579052 1_555
Cs1 S12 3.644486 1_555
Cs1 S7 3.702080 1_555
Cs1 S1 3.702080 1_555
Cs1 S4 3.850432 1_455
Cs1 S2 3.850432 1_555
Cs1 S3 3.990937 1_455
Cs1 S5 3.990937 1_555
Cs1 S8 4.115516 1_555
Cs2 S9 3.579052 1_555
Cs2 S9 3.579052 1_655
Cs2 S15 3.644486 1_554
Cs2 S4 3.702080 1_545
Cs2 S2 3.702080 1_545
Cs2 S1 3.850432 1_555
Cs2 S7 3.850432 1_655
Cs2 S6 3.990937 1_554
Cs2 S0 3.990937 1_654
Cs2 S11 4.115516 1_544
Cs3 S8 3.579052 1_555
Cs3 S8 3.579052 1_655
Cs3 S14 3.644486 1_555
Cs3 S5 3.702080 1_555
Cs3 S3 3.702080 1_555
Cs3 S6 3.850432 1_555
Cs3 S0 3.850432 1_655
Cs3 S7 3.990937 1_655
Cs3 S1 3.990937 1_555
Cs3 S10 4.115516 1_555
Ba0 S9 3.187803 1_556
Ba0 S13 3.253236 1_556
Ba0 S3 3.305443 1_455
Ba0 S5 3.305443 1_555
Ba0 S6 3.385325 1_555
Ba0 S0 3.385325 1_555
Ba0 S15 3.578003 1_455
Ba0 S15 3.578003 1_555
Ba0 S8 3.594936 1_555
Ba1 S8 3.187803 1_555
Ba1 S12 3.253236 1_545
Ba1 S4 3.305443 1_445
Ba1 S2 3.305443 1_545
Ba1 S7 3.385325 1_555
Ba1 S1 3.385325 1_555
Ba1 S14 3.578003 1_555
Ba1 S14 3.578003 1_455
Ba1 S9 3.594936 1_555
Ba2 S11 3.187803 1_554
Ba2 S15 3.253236 1_554
Ba2 S1 3.305443 1_555
Ba2 S7 3.305443 1_655
Ba2 S2 3.385325 1_555
Ba2 S4 3.385325 1_555
Ba2 S13 3.578003 1_555
Ba2 S13 3.578003 1_655
Ba2 S10 3.594936 1_555
Ba3 S10 3.187803 1_555
Ba3 S14 3.253236 1_565
Ba3 S6 3.305443 1_565
Ba3 S0 3.305443 1_665
Ba3 S5 3.385325 1_555
Ba3 S3 3.385325 1_555
Ba3 S12 3.578003 1_655
Ba3 S12 3.578003 1_555
Ba3 S11 3.594936 1_555
P0 S6 2.053527 1_555
P0 S0 2.053527 1_555
P0 S8 2.056257 1_555
P0 S12 2.060897 1_545
P1 S1 2.053527 1_555
P1 S7 2.053527 1_555
P1 S9 2.056257 1_555
P1 S13 2.060897 1_555
P2 S2 2.053527 1_555
P2 S4 2.053527 1_555
P2 S10 2.056257 1_555
P2 S14 2.060897 1_565
P3 S5 2.053527 1_555
P3 S3 2.053527 1_555
P3 S11 2.056257 1_555
P3 S15 2.060897 1_555
