# generated using pymatgen
data_VCr2O6
_symmetry_space_group_name_H-M   'P 1'
_cell_length_a   4.55332900
_cell_length_b   4.55332900
_cell_length_c   8.85673200
_cell_angle_alpha   90.00000000
_cell_angle_beta   90.00000000
_cell_angle_gamma   90.00000000
_symmetry_Int_Tables_number   1
_chemical_formula_structural   VCr2O6
_chemical_formula_sum   'V2 Cr4 O12'
_cell_volume   183.62489734
_cell_formula_units_Z   2
loop_
 _symmetry_equiv_pos_site_id
 _symmetry_equiv_pos_as_xyz
  1  'x, y, z'
loop_
 _atom_site_type_symbol
 _atom_site_label
 _atom_site_symmetry_multiplicity
 _atom_site_fract_x
 _atom_site_fract_y
 _atom_site_fract_z
 _atom_site_occupancy
  V  V0  1  0.00000000  0.00000000  0.00000000  1
  V  V1  1  0.50000000  0.50000000  0.50000000  1
  Cr  Cr0  1  0.00000000  0.00000000  0.33395500  1
  Cr  Cr1  1  0.00000000  0.00000000  0.66604500  1
  Cr  Cr2  1  0.50000000  0.50000000  0.16604500  1
  Cr  Cr3  1  0.50000000  0.50000000  0.83395500  1
  O  O0  1  0.19462800  0.80537200  0.16044000  1
  O  O1  1  0.19977900  0.80022100  0.50000000  1
  O  O2  1  0.19462800  0.80537200  0.83956000  1
  O  O3  1  0.30022100  0.30022100  0.00000000  1
  O  O4  1  0.30537200  0.30537200  0.33956000  1
  O  O5  1  0.30537200  0.30537200  0.66044000  1
  O  O6  1  0.69977900  0.69977900  0.00000000  1
  O  O7  1  0.69462800  0.69462800  0.33956000  1
  O  O8  1  0.69462800  0.69462800  0.66044000  1
  O  O9  1  0.80537200  0.19462800  0.16044000  1
  O  O10  1  0.80022100  0.19977900  0.50000000  1
  O  O11  1  0.80537200  0.19462800  0.83956000  1
loop_
_geom_bond_atom_site_label_1
_geom_bond_atom_site_label_2
_geom_bond_distance
_geom_bond_site_symmetry_2
Cr0 O10 1.953887 1_455
Cr0 O1 1.953887 1_545
Cr0 O4 1.967033 1_555
Cr0 O7 1.967033 1_445
Cr0 O0 1.983028 1_545
Cr0 O9 1.983028 1_455
Cr1 O10 1.953887 1_455
Cr1 O1 1.953887 1_545
Cr1 O5 1.967033 1_555
Cr1 O8 1.967033 1_445
Cr1 O2 1.983028 1_545
Cr1 O11 1.983028 1_455
Cr2 O3 1.953887 1_555
Cr2 O6 1.953887 1_555
Cr2 O0 1.967033 1_555
Cr2 O9 1.967033 1_555
Cr2 O4 1.983028 1_555
Cr2 O7 1.983028 1_555
Cr3 O3 1.953887 1_556
Cr3 O6 1.953887 1_556
Cr3 O2 1.967033 1_555
Cr3 O11 1.967033 1_555
Cr3 O5 1.983028 1_555
Cr3 O8 1.983028 1_555
O0 V0 1.894700 1_565
O1 V1 1.933237 1_555
O2 V0 1.894700 1_566
O3 V0 1.933237 1_555
O4 V1 1.894700 1_555
O5 V1 1.894700 1_555
O6 V0 1.933237 1_665
O7 V1 1.894700 1_555
O8 V1 1.894700 1_555
O9 V0 1.894700 1_655
O10 V1 1.933237 1_555
O11 V0 1.894700 1_656
