# generated using pymatgen
data_Nd3TiCl5O4
_symmetry_space_group_name_H-M   'P 1'
_cell_length_a   4.04556500
_cell_length_b   14.62387200
_cell_length_c   16.73896500
_cell_angle_alpha   90.00000000
_cell_angle_beta   90.00000000
_cell_angle_gamma   90.00000000
_symmetry_Int_Tables_number   1
_chemical_formula_structural   Nd3TiCl5O4
_chemical_formula_sum   'Nd12 Ti4 Cl20 O16'
_cell_volume   990.30771345
_cell_formula_units_Z   4
loop_
 _symmetry_equiv_pos_site_id
 _symmetry_equiv_pos_as_xyz
  1  'x, y, z'
loop_
 _atom_site_type_symbol
 _atom_site_label
 _atom_site_symmetry_multiplicity
 _atom_site_fract_x
 _atom_site_fract_y
 _atom_site_fract_z
 _atom_site_occupancy
  Nd  Nd0  1  0.25000000  0.26124800  0.12968900  1
  Nd  Nd1  1  0.75000000  0.73875200  0.87031100  1
  Nd  Nd2  1  0.75000000  0.76124800  0.37031100  1
  Nd  Nd3  1  0.25000000  0.23875200  0.62968900  1
  Nd  Nd4  1  0.25000000  0.08430000  0.37935300  1
  Nd  Nd5  1  0.75000000  0.91570000  0.62064700  1
  Nd  Nd6  1  0.75000000  0.58430000  0.12064700  1
  Nd  Nd7  1  0.25000000  0.41570000  0.87935300  1
  Nd  Nd8  1  0.25000000  0.58100900  0.62045500  1
  Nd  Nd9  1  0.75000000  0.41899100  0.37954500  1
  Nd  Nd10  1  0.75000000  0.08100900  0.87954500  1
  Nd  Nd11  1  0.25000000  0.91899100  0.12045500  1
  Ti  Ti0  1  0.25000000  0.58957700  0.29130400  1
  Ti  Ti1  1  0.75000000  0.41042300  0.70869600  1
  Ti  Ti2  1  0.75000000  0.08957700  0.20869600  1
  Ti  Ti3  1  0.25000000  0.91042300  0.79130400  1
  Cl  Cl0  1  0.25000000  0.71574900  0.02128900  1
  Cl  Cl1  1  0.75000000  0.28425100  0.97871100  1
  Cl  Cl2  1  0.75000000  0.21574900  0.47871100  1
  Cl  Cl3  1  0.25000000  0.78425100  0.52128900  1
  Cl  Cl4  1  0.25000000  0.09666900  0.01638300  1
  Cl  Cl5  1  0.75000000  0.90333100  0.98361700  1
  Cl  Cl6  1  0.75000000  0.59666900  0.48361700  1
  Cl  Cl7  1  0.25000000  0.40333100  0.51638300  1
  Cl  Cl8  1  0.25000000  0.89970600  0.29769000  1
  Cl  Cl9  1  0.75000000  0.10029400  0.70231000  1
  Cl  Cl10  1  0.75000000  0.39970600  0.20231000  1
  Cl  Cl11  1  0.25000000  0.60029400  0.79769000  1
  Cl  Cl12  1  0.25000000  0.27437200  0.32063100  1
  Cl  Cl13  1  0.75000000  0.72562800  0.67936900  1
  Cl  Cl14  1  0.75000000  0.77437200  0.17936900  1
  Cl  Cl15  1  0.25000000  0.22562800  0.82063100  1
  Cl  Cl16  1  0.25000000  0.44266700  0.05405400  1
  Cl  Cl17  1  0.75000000  0.55733300  0.94594600  1
  Cl  Cl18  1  0.75000000  0.94266700  0.44594600  1
  Cl  Cl19  1  0.25000000  0.05733300  0.55405400  1
  O  O0  1  0.25000000  0.09147300  0.20838800  1
  O  O1  1  0.75000000  0.90852700  0.79161200  1
  O  O2  1  0.75000000  0.59147300  0.29161200  1
  O  O3  1  0.25000000  0.40852700  0.70838800  1
  O  O4  1  0.25000000  0.69975800  0.34603300  1
  O  O5  1  0.75000000  0.30024200  0.65396700  1
  O  O6  1  0.75000000  0.19975800  0.15396700  1
  O  O7  1  0.25000000  0.80024200  0.84603300  1
  O  O8  1  0.25000000  0.58994800  0.18096400  1
  O  O9  1  0.75000000  0.41005200  0.81903600  1
  O  O10  1  0.75000000  0.08994800  0.31903600  1
  O  O11  1  0.25000000  0.91005200  0.68096400  1
  O  O12  1  0.25000000  0.48098900  0.34857800  1
  O  O13  1  0.75000000  0.51901100  0.65142200  1
  O  O14  1  0.75000000  0.98098900  0.15142200  1
  O  O15  1  0.25000000  0.01901100  0.84857800  1
loop_
_geom_bond_atom_site_label_1
_geom_bond_atom_site_label_2
_geom_bond_distance
_geom_bond_site_symmetry_2
Nd0 O6 2.250645 1_555
Nd0 O6 2.250645 1_455
Nd1 O7 2.250645 1_655
Nd1 O7 2.250645 1_555
Nd2 O4 2.250645 1_555
Nd2 O4 2.250645 1_655
Nd3 O5 2.250645 1_555
Nd3 O5 2.250645 1_455
Nd4 O10 2.262267 1_555
Nd4 O10 2.262267 1_455
Nd5 O11 2.262267 1_655
Nd5 O11 2.262267 1_555
Nd6 O8 2.262267 1_555
Nd6 O8 2.262267 1_655
Nd7 O9 2.262267 1_555
Nd7 O9 2.262267 1_455
Nd8 O13 2.276479 1_455
Nd8 O13 2.276479 1_555
Nd9 O12 2.276479 1_555
Nd9 O12 2.276479 1_655
Nd10 O15 2.276479 1_555
Nd10 O15 2.276479 1_655
Nd11 O14 2.276479 1_455
Nd11 O14 2.276479 1_555
Cl0 Nd6 3.248527 1_455
Cl0 Nd6 3.248527 1_555
Cl0 Nd1 3.254478 1_554
Cl0 Nd1 3.254478 1_454
Cl0 Nd11 3.404302 1_555
Cl1 Nd7 3.248527 1_555
Cl1 Nd7 3.248527 1_655
Cl1 Nd0 3.254478 1_656
Cl1 Nd0 3.254478 1_556
Cl1 Nd10 3.404302 1_555
Cl2 Nd4 3.248527 1_655
Cl2 Nd4 3.248527 1_555
Cl2 Nd3 3.254478 1_655
Cl2 Nd3 3.254478 1_555
Cl2 Nd9 3.404302 1_555
Cl3 Nd5 3.248527 1_455
Cl3 Nd5 3.248527 1_555
Cl3 Nd2 3.254478 1_455
Cl3 Nd2 3.254478 1_555
Cl3 Nd8 3.404302 1_555
Cl4 Nd0 3.064276 1_555
Cl4 Nd10 3.064410 1_554
Cl4 Nd10 3.064410 1_454
Cl4 Nd11 3.128280 1_545
Cl5 Nd1 3.064276 1_555
Cl5 Nd11 3.064410 1_556
Cl5 Nd11 3.064410 1_656
Cl5 Nd10 3.128280 1_565
Cl6 Nd2 3.064276 1_555
Cl6 Nd8 3.064410 1_555
Cl6 Nd8 3.064410 1_655
Cl6 Nd9 3.128280 1_555
Cl7 Nd3 3.064276 1_555
Cl7 Nd9 3.064410 1_455
Cl7 Nd9 3.064410 1_555
Cl7 Nd8 3.128280 1_555
Cl8 Nd11 2.980105 1_555
Cl8 Nd4 3.025847 1_565
Cl8 Nd2 3.109520 1_555
Cl8 Nd2 3.109520 1_455
Cl9 Nd10 2.980105 1_555
Cl9 Nd5 3.025847 1_545
Cl9 Nd3 3.109520 1_655
Cl9 Nd3 3.109520 1_555
Cl10 Nd9 2.980105 1_555
Cl10 Nd6 3.025847 1_555
Cl10 Nd0 3.109520 1_655
Cl10 Nd0 3.109520 1_555
Cl11 Nd8 2.980105 1_555
Cl11 Nd7 3.025847 1_555
Cl11 Nd1 3.109520 1_455
Cl11 Nd1 3.109520 1_555
Cl12 Nd4 2.948270 1_555
Cl12 Nd9 3.088190 1_455
Cl12 Nd9 3.088190 1_555
Cl12 Nd0 3.201929 1_555
Cl13 Nd5 2.948270 1_555
Cl13 Nd8 3.088190 1_555
Cl13 Nd8 3.088190 1_655
Cl13 Nd1 3.201929 1_555
Cl14 Nd6 2.948270 1_555
Cl14 Nd11 3.088190 1_655
Cl14 Nd11 3.088190 1_555
Cl14 Nd2 3.201929 1_555
Cl15 Nd7 2.948270 1_555
Cl15 Nd10 3.088190 1_555
Cl15 Nd10 3.088190 1_455
Cl15 Nd3 3.201929 1_555
Cl16 Nd0 2.939652 1_555
Cl16 Nd7 2.950785 1_554
Cl16 Nd6 3.102284 1_455
Cl16 Nd6 3.102284 1_555
Cl17 Nd1 2.939652 1_555
Cl17 Nd6 2.950785 1_556
Cl17 Nd7 3.102284 1_655
Cl17 Nd7 3.102284 1_555
Cl18 Nd2 2.939652 1_555
Cl18 Nd5 2.950785 1_555
Cl18 Nd4 3.102284 1_565
Cl18 Nd4 3.102284 1_665
Cl19 Nd3 2.939652 1_555
Cl19 Nd4 2.950785 1_555
Cl19 Nd5 3.102284 1_545
Cl19 Nd5 3.102284 1_445
O0 Ti2 2.022979 1_455
O0 Ti2 2.022979 1_555
O1 Ti3 2.022979 1_555
O1 Ti3 2.022979 1_655
O2 Ti0 2.022979 1_555
O2 Ti0 2.022979 1_655
O3 Ti1 2.022979 1_555
O3 Ti1 2.022979 1_455
O4 Ti0 1.853497 1_555
O5 Ti1 1.853497 1_555
O6 Ti2 1.853497 1_555
O7 Ti3 1.853497 1_555
O8 Ti0 1.846985 1_555
O9 Ti1 1.846985 1_555
O10 Ti2 1.846985 1_555
O11 Ti3 1.846985 1_555
O12 Ti0 1.854937 1_555
O13 Ti1 1.854937 1_555
O14 Ti2 1.854937 1_565
O15 Ti3 1.854937 1_545
