# generated using pymatgen
data_Li7Mn4CoO12
_symmetry_space_group_name_H-M   'P 1'
_cell_length_a   5.19090521
_cell_length_b   5.97052433
_cell_length_c   14.97853565
_cell_angle_alpha   96.53361842
_cell_angle_beta   95.12285002
_cell_angle_gamma   108.92485449
_symmetry_Int_Tables_number   1
_chemical_formula_structural   Li7Mn4CoO12
_chemical_formula_sum   'Li14 Mn8 Co2 O24'
_cell_volume   432.32444938
_cell_formula_units_Z   2
loop_
 _symmetry_equiv_pos_site_id
 _symmetry_equiv_pos_as_xyz
  1  'x, y, z'
loop_
 _atom_site_type_symbol
 _atom_site_label
 _atom_site_symmetry_multiplicity
 _atom_site_fract_x
 _atom_site_fract_y
 _atom_site_fract_z
 _atom_site_occupancy
  Li  Li0  1  0.16666500  0.33332700  0.16665400  1
  Li  Li1  1  0.66667600  0.83332700  0.66666400  1
  Li  Li2  1  0.60149700  0.15940800  0.09232400  1
  Li  Li3  1  0.10626600  0.65789300  0.59205100  1
  Li  Li4  1  0.73186800  0.50719800  0.24098800  1
  Li  Li5  1  0.22709700  0.00868200  0.74128600  1
  Li  Li6  1  0.75872300  0.01161500  0.24632100  1
  Li  Li7  1  0.25575900  0.50350800  0.74461900  1
  Li  Li8  1  0.57460700  0.65501000  0.08700500  1
  Li  Li9  1  0.07755700  0.16310300  0.58868500  1
  Li  Li10  1  0.92094300  0.83442400  0.41795700  1
  Li  Li11  1  0.41824600  0.33143500  0.91645500  1
  Li  Li12  1  0.91507600  0.33523600  0.41689600  1
  Li  Li13  1  0.41231300  0.83227900  0.91535800  1
  Mn  Mn0  1  0.00799900  0.99906400  0.00140300  1
  Mn  Mn1  1  0.51117300  0.50241700  0.50386100  1
  Mn  Mn2  1  0.32542500  0.66780100  0.33187500  1
  Mn  Mn3  1  0.82215400  0.16420400  0.82949800  1
  Mn  Mn4  1  0.99386200  0.49366000  0.00284500  1
  Mn  Mn5  1  0.49938400  0.99971200  0.50409000  1
  Mn  Mn6  1  0.33966100  0.17299300  0.33048600  1
  Mn  Mn7  1  0.83390100  0.66675100  0.82921700  1
  Co  Co0  1  0.66667200  0.33337100  0.66668100  1
  Co  Co1  1  0.16667100  0.83331400  0.16667300  1
  O  O0  1  0.24558700  0.33162500  0.03235600  1
  O  O1  1  0.75021700  0.83776200  0.53382300  1
  O  O2  1  0.08768600  0.33510900  0.30091900  1
  O  O3  1  0.58308300  0.82890400  0.79953200  1
  O  O4  1  0.46391500  0.17401400  0.21695000  1
  O  O5  1  0.94476500  0.65096800  0.71246000  1
  O  O6  1  0.86957900  0.49264800  0.11636400  1
  O  O7  1  0.38846700  0.01569200  0.62092400  1
  O  O8  1  0.58880200  0.00109200  0.37717700  1
  O  O9  1  0.08633200  0.49918400  0.87603600  1
  O  O10  1  0.24699700  0.16755000  0.45731000  1
  O  O11  1  0.74450400  0.66563800  0.95618500  1
  O  O12  1  0.27847200  0.80241600  0.04426700  1
  O  O13  1  0.78066500  0.30844600  0.54636600  1
  O  O14  1  0.05483000  0.86432600  0.28904300  1
  O  O15  1  0.55263600  0.35821500  0.78702300  1
  O  O16  1  0.42236200  0.68393200  0.21145300  1
  O  O17  1  0.92768000  0.17922400  0.71186600  1
  O  O18  1  0.91098700  0.98269800  0.12185300  1
  O  O19  1  0.40553800  0.48740900  0.62150700  1
  O  O20  1  0.61645500  0.48289500  0.37887100  1
  O  O21  1  0.11300000  0.97722800  0.87619000  1
  O  O22  1  0.22034200  0.68946200  0.45716300  1
  O  O23  1  0.71690400  0.18382900  0.95447200  1
loop_
_geom_bond_atom_site_label_1
_geom_bond_atom_site_label_2
_geom_bond_distance
_geom_bond_site_symmetry_2
Li0 O16 2.076758 1_555
Li0 O18 2.076844 1_445
Li0 O2 2.087555 1_555
Li0 O0 2.087975 1_555
Li0 O6 2.181196 1_455
Li0 O4 2.181888 1_555
Li1 O17 2.064473 1_565
Li1 O19 2.064673 1_555
Li1 O1 2.075223 1_555
Li1 O3 2.075694 1_555
Li1 O5 2.179996 1_555
Li1 O7 2.180257 1_565
Li2 O6 1.994061 1_555
Li2 O4 2.060026 1_555
Li2 O23 2.208253 1_554
Li2 O18 2.229006 1_545
Li2 O12 2.233785 1_545
Li2 O0 2.534433 1_555
Li3 O5 2.054705 1_455
Li3 O7 2.131480 1_565
Li3 O19 2.156288 1_555
Li3 O22 2.167076 1_555
Li3 O13 2.204332 1_455
Li3 O1 2.557855 1_455
Li4 O4 1.993570 1_555
Li4 O6 2.060277 1_555
Li4 O20 2.208653 1_555
Li4 O16 2.229199 1_555
Li4 O14 2.234193 1_655
Li4 O2 2.533329 1_655
Li5 O7 2.053727 1_555
Li5 O5 2.131311 1_445
Li5 O17 2.157080 1_455
Li5 O21 2.167272 1_545
Li5 O15 2.204638 1_555
Li5 O3 2.557295 1_545
Li6 O14 2.091547 1_645
Li6 O18 2.099698 1_545
Li6 O4 2.101163 1_555
Li6 O16 2.130218 1_545
Li6 O2 2.137045 1_655
Li6 O8 2.219119 1_555
Li7 O19 2.068424 1_555
Li7 O15 2.085313 1_555
Li7 O17 2.094148 1_455
Li7 O5 2.119627 1_455
Li7 O3 2.140904 1_555
Li7 O9 2.225957 1_555
Li8 O12 2.092224 1_555
Li8 O16 2.099381 1_555
Li8 O6 2.101700 1_555
Li8 O18 2.130265 1_555
Li8 O0 2.136953 1_555
Li8 O11 2.218564 1_554
Li9 O17 2.069623 1_455
Li9 O13 2.085221 1_455
Li9 O19 2.094040 1_555
Li9 O7 2.119292 1_555
Li9 O1 2.140583 1_445
Li9 O10 2.225398 1_555
Li10 O1 2.018913 1_555
Li10 O22 2.081954 1_655
Li10 O14 2.116851 1_655
Li10 O10 2.130585 1_665
Li10 O20 2.156220 1_555
Li10 O8 2.323577 1_565
Li11 O0 2.023645 1_556
Li11 O23 2.084983 1_555
Li11 O15 2.123794 1_555
Li11 O11 2.135793 1_555
Li11 O21 2.170777 1_545
Li11 O9 2.325762 1_555
Li12 O2 2.024517 1_655
Li12 O20 2.085069 1_555
Li12 O13 2.124381 1_555
Li12 O8 2.135587 1_555
Li12 O22 2.170901 1_655
Li12 O10 2.325511 1_655
Li13 O3 2.018506 1_555
Li13 O21 2.081369 1_555
Li13 O12 2.116669 1_556
Li13 O9 2.130242 1_555
Li13 O23 2.156559 1_565
Li13 O11 2.323859 1_555
Mn0 O18 1.920573 1_455
Mn0 O0 1.943813 1_565
Mn0 O21 2.001152 1_554
Mn0 O11 2.013470 1_454
Mn0 O12 2.200398 1_555
Mn0 O23 2.249970 1_464
Mn1 O19 1.894876 1_555
Mn1 O1 1.958164 1_555
Mn1 O20 1.997910 1_555
Mn1 O10 2.024246 1_555
Mn1 O13 2.182457 1_555
Mn1 O22 2.257942 1_555
Mn2 O16 1.919937 1_555
Mn2 O2 1.944653 1_555
Mn2 O22 2.002336 1_555
Mn2 O8 2.012886 1_565
Mn2 O14 2.200185 1_555
Mn2 O20 2.250626 1_555
Mn3 O17 1.894476 1_555
Mn3 O3 1.957995 1_545
Mn3 O23 1.997644 1_555
Mn3 O9 2.024708 1_655
Mn3 O15 2.182615 1_555
Mn3 O21 2.257670 1_645
Mn4 O6 1.871667 1_555
Mn4 O0 1.911253 1_655
Mn4 O12 1.943012 1_655
Mn4 O23 1.948767 1_554
Mn4 O9 2.001516 1_654
Mn4 O11 2.020422 1_554
Mn5 O7 1.892269 1_565
Mn5 O1 1.907804 1_555
Mn5 O13 1.937552 1_565
Mn5 O22 1.950602 1_555
Mn5 O8 1.996963 1_565
Mn5 O10 2.014692 1_565
Mn6 O4 1.871842 1_555
Mn6 O2 1.912882 1_555
Mn6 O14 1.943190 1_545
Mn6 O20 1.948748 1_555
Mn6 O10 2.002034 1_555
Mn6 O8 2.019363 1_555
Mn7 O5 1.891015 1_555
Mn7 O3 1.908489 1_555
Mn7 O15 1.936540 1_555
Mn7 O21 1.951754 1_655
Mn7 O11 1.997672 1_555
Mn7 O9 2.013863 1_655
Co0 O13 1.951033 1_555
Co0 O15 1.951472 1_555
Co0 O5 1.975211 1_555
Co0 O7 1.975714 1_555
Co0 O19 1.981812 1_555
Co0 O17 1.981813 1_555
Co1 O16 1.937012 1_555
Co1 O18 1.937193 1_455
Co1 O14 1.978248 1_555
Co1 O12 1.978615 1_555
Co1 O6 2.119468 1_455
Co1 O4 2.119823 1_565
