# generated using pymatgen
data_KPO4
_symmetry_space_group_name_H-M   'P 1'
_cell_length_a   6.81226955
_cell_length_b   6.81226955
_cell_length_c   6.81226955
_cell_angle_alpha   105.20800244
_cell_angle_beta   105.20800244
_cell_angle_gamma   118.38227653
_symmetry_Int_Tables_number   1
_chemical_formula_structural   KPO4
_chemical_formula_sum   'K2 P2 O8'
_cell_volume   238.88568432
_cell_formula_units_Z   2
loop_
 _symmetry_equiv_pos_site_id
 _symmetry_equiv_pos_as_xyz
  1  'x, y, z'
loop_
 _atom_site_type_symbol
 _atom_site_label
 _atom_site_symmetry_multiplicity
 _atom_site_fract_x
 _atom_site_fract_y
 _atom_site_fract_z
 _atom_site_occupancy
  K  K0  1  0.75000000  0.25000000  0.50000000  1
  K  K1  1  0.50000000  0.50000000  0.00000000  1
  P  P0  1  0.25000000  0.75000000  0.50000000  1
  P  P1  1  0.00000000  0.00000000  0.00000000  1
  O  O0  1  0.28327000  0.83346400  0.31225200  1
  O  O1  1  0.96673000  0.77898200  0.05019300  1
  O  O2  1  0.52121200  0.97101800  0.68774800  1
  O  O3  1  0.72878800  0.91653600  0.94980700  1
  O  O4  1  0.16653600  0.47878800  0.44980700  1
  O  O5  1  0.08346400  0.03327000  0.81225200  1
  O  O6  1  0.02898200  0.71673000  0.55019300  1
  O  O7  1  0.22101800  0.27121200  0.18774800  1
loop_
_geom_bond_atom_site_label_1
_geom_bond_atom_site_label_2
_geom_bond_distance
_geom_bond_site_symmetry_2
K0 O4 2.679904 1_655
K0 O2 2.679908 1_545
K0 O0 2.679908 1_545
K0 O6 2.679911 1_655
K1 O3 2.679904 1_554
K1 O5 2.679908 1_554
K1 O7 2.679908 1_555
K1 O1 2.679911 1_555
O0 P0 1.556137 1_555
O1 P1 1.556134 1_665
O2 P0 1.556137 1_555
O3 P1 1.556139 1_666
O4 P0 1.556139 1_555
O5 P1 1.556137 1_556
O6 P0 1.556134 1_555
O7 P1 1.556137 1_555
