# generated using pymatgen
data_TiVZn(PO4)3
_symmetry_space_group_name_H-M   'P 1'
_cell_length_a   8.56588313
_cell_length_b   8.56588313
_cell_length_c   8.56588263
_cell_angle_alpha   60.46239031
_cell_angle_beta   60.46239031
_cell_angle_gamma   60.46238708
_symmetry_Int_Tables_number   1
_chemical_formula_structural   TiVZn(PO4)3
_chemical_formula_sum   'Ti2 V2 Zn2 P6 O24'
_cell_volume   449.07338638
_cell_formula_units_Z   2
loop_
 _symmetry_equiv_pos_site_id
 _symmetry_equiv_pos_as_xyz
  1  'x, y, z'
loop_
 _atom_site_type_symbol
 _atom_site_label
 _atom_site_symmetry_multiplicity
 _atom_site_fract_x
 _atom_site_fract_y
 _atom_site_fract_z
 _atom_site_occupancy
  Ti  Ti0  1  0.14460000  0.14460000  0.14460000  1
  Ti  Ti1  1  0.64460000  0.64460000  0.64460000  1
  V  V0  1  0.35713100  0.35713100  0.35713100  1
  V  V1  1  0.85713100  0.85713100  0.85713100  1
  Zn  Zn0  1  0.99848700  0.99848700  0.99848700  1
  Zn  Zn1  1  0.49848700  0.49848700  0.49848700  1
  P  P0  1  0.45600100  0.04488700  0.75131800  1
  P  P1  1  0.75131800  0.45600100  0.04488700  1
  P  P2  1  0.04488700  0.75131800  0.45600100  1
  P  P3  1  0.95600100  0.25131800  0.54488700  1
  P  P4  1  0.25131800  0.54488700  0.95600100  1
  P  P5  1  0.54488700  0.95600100  0.25131800  1
  O  O0  1  0.50579000  0.11189700  0.31432000  1
  O  O1  1  0.11189700  0.31432000  0.50579000  1
  O  O2  1  0.25936000  0.05420100  0.91465600  1
  O  O3  1  0.31432000  0.50579000  0.11189700  1
  O  O4  1  0.61189700  0.00579000  0.81432000  1
  O  O5  1  0.43737000  0.23995100  0.59058100  1
  O  O6  1  0.91465600  0.25936000  0.05420100  1
  O  O7  1  0.59058100  0.43737000  0.23995100  1
  O  O8  1  0.00158800  0.18746200  0.38039900  1
  O  O9  1  0.23995100  0.59058100  0.43737000  1
  O  O10  1  0.93737000  0.09058100  0.73995100  1
  O  O11  1  0.18746200  0.38039900  0.00158800  1
  O  O12  1  0.81432000  0.61189700  0.00579000  1
  O  O13  1  0.05420100  0.91465600  0.25936000  1
  O  O14  1  0.75936000  0.41465600  0.55420100  1
  O  O15  1  0.00579000  0.81432000  0.61189700  1
  O  O16  1  0.41465600  0.55420100  0.75936000  1
  O  O17  1  0.09058100  0.73995100  0.93737000  1
  O  O18  1  0.55420100  0.75936000  0.41465600  1
  O  O19  1  0.38039900  0.00158800  0.18746200  1
  O  O20  1  0.68746200  0.50158800  0.88039900  1
  O  O21  1  0.73995100  0.93737000  0.09058100  1
  O  O22  1  0.88039900  0.68746200  0.50158800  1
  O  O23  1  0.50158800  0.88039900  0.68746200  1
loop_
_geom_bond_atom_site_label_1
_geom_bond_atom_site_label_2
_geom_bond_distance
_geom_bond_site_symmetry_2
O0 P5 1.509327 1_545
O0 V0 1.957132 1_555
O1 P3 1.509327 1_455
O1 V0 1.957132 1_555
O2 P0 1.566853 1_555
O2 Ti0 2.071174 1_556
O2 Zn0 2.206427 1_445
O3 P4 1.509327 1_554
O3 V0 1.957132 1_555
O4 P0 1.509327 1_555
O4 V1 1.957132 1_545
O5 P0 1.548700 1_555
O5 V0 2.043185 1_555
O5 Zn1 2.194126 1_555
O6 P1 1.566853 1_555
O6 Ti0 2.071174 1_655
O6 Zn0 2.206427 1_544
O7 P1 1.548700 1_555
O7 V0 2.043185 1_555
O7 Zn1 2.194126 1_555
O8 P3 1.563239 1_455
O8 Ti0 1.887654 1_555
O9 P2 1.548700 1_555
O9 V0 2.043185 1_555
O9 Zn1 2.194126 1_555
O10 P3 1.548700 1_555
O10 V1 2.043185 1_545
O10 Zn0 2.194126 1_545
O11 P4 1.563239 1_554
O11 Ti0 1.887654 1_555
O12 P1 1.509327 1_555
O12 V1 1.957132 1_554
O13 P2 1.566853 1_555
O13 Ti0 2.071174 1_565
O13 Zn0 2.206427 1_454
O14 P3 1.566853 1_555
O14 Ti1 2.071174 1_555
O14 Zn1 2.206427 1_555
O15 P2 1.509327 1_555
O15 V1 1.957132 1_455
O16 P4 1.566853 1_555
O16 Ti1 2.071174 1_555
O16 Zn1 2.206427 1_555
O17 P4 1.548700 1_555
O17 V1 2.043185 1_455
O17 Zn0 2.194126 1_455
O18 P5 1.566853 1_555
O18 Ti1 2.071174 1_555
O18 Zn1 2.206427 1_555
O19 P5 1.563239 1_545
O19 Ti0 1.887654 1_555
O20 P1 1.563239 1_556
O20 Ti1 1.887654 1_555
O21 P5 1.548700 1_555
O21 V1 2.043185 1_554
O21 Zn0 2.194126 1_554
O22 P2 1.563239 1_655
O22 Ti1 1.887654 1_555
O23 P0 1.563239 1_565
O23 Ti1 1.887654 1_555
