# generated using pymatgen
data_Mg16Al13
_symmetry_space_group_name_H-M   'P 1'
_cell_length_a   9.11490525
_cell_length_b   9.11490525
_cell_length_c   9.11490525
_cell_angle_alpha   109.47122063
_cell_angle_beta   109.47122063
_cell_angle_gamma   109.47122063
_symmetry_Int_Tables_number   1
_chemical_formula_structural   Mg16Al13
_chemical_formula_sum   'Mg16 Al13'
_cell_volume   582.95440028
_cell_formula_units_Z   1
loop_
 _symmetry_equiv_pos_site_id
 _symmetry_equiv_pos_as_xyz
  1  'x, y, z'
loop_
 _atom_site_type_symbol
 _atom_site_label
 _atom_site_symmetry_multiplicity
 _atom_site_fract_x
 _atom_site_fract_y
 _atom_site_fract_z
 _atom_site_occupancy
  Mg  Mg0  1  0.31630400  0.00000000  0.60255700  1
  Mg  Mg1  1  0.60255700  0.00000000  0.31630400  1
  Mg  Mg2  1  0.39744300  0.39744300  0.71374700  1
  Mg  Mg3  1  0.71374700  0.39744300  0.39744300  1
  Mg  Mg4  1  0.00000000  0.60255700  0.31630400  1
  Mg  Mg5  1  0.31630400  0.60255700  0.00000000  1
  Mg  Mg6  1  0.65546900  0.65546900  0.65546900  1
  Mg  Mg7  1  0.00000000  0.34453100  0.00000000  1
  Mg  Mg8  1  0.00000000  0.00000000  0.34453100  1
  Mg  Mg9  1  0.34453100  0.00000000  0.00000000  1
  Mg  Mg10  1  0.00000000  0.31630400  0.60255700  1
  Mg  Mg11  1  0.68369600  0.68369600  0.28625300  1
  Mg  Mg12  1  0.60255700  0.31630400  0.00000000  1
  Mg  Mg13  1  0.28625300  0.68369600  0.68369600  1
  Mg  Mg14  1  0.39744300  0.71374700  0.39744300  1
  Mg  Mg15  1  0.68369600  0.28625300  0.68369600  1
  Al  Al0  1  0.00000000  0.00000000  0.00000000  1
  Al  Al1  1  0.18478200  0.18478200  0.81759900  1
  Al  Al2  1  0.00000000  0.81521800  0.63281800  1
  Al  Al3  1  0.81759900  0.18478200  0.18478200  1
  Al  Al4  1  0.63281800  0.81521800  0.00000000  1
  Al  Al5  1  0.36718200  0.18240100  0.36718200  1
  Al  Al6  1  0.18478200  0.81759900  0.18478200  1
  Al  Al7  1  0.81521800  0.00000000  0.63281800  1
  Al  Al8  1  0.63281800  0.00000000  0.81521800  1
  Al  Al9  1  0.18240100  0.36718200  0.36718200  1
  Al  Al10  1  0.36718200  0.36718200  0.18240100  1
  Al  Al11  1  0.81521800  0.63281800  0.00000000  1
  Al  Al12  1  0.00000000  0.63281800  0.81521800  1
loop_
_geom_bond_atom_site_label_1
_geom_bond_atom_site_label_2
_geom_bond_distance
_geom_bond_site_symmetry_2
Mg0 Mg8 3.053369 1_555
Mg0 Mg14 3.131503 1_545
Mg0 Mg15 3.131503 1_555
Mg0 Mg2 3.156618 1_555
Mg0 Mg4 3.156618 1_545
Mg0 Mg13 3.156618 1_545
Mg0 Mg12 3.156618 1_556
Mg1 Mg9 3.053369 1_555
Mg1 Mg14 3.131503 1_545
Mg1 Mg15 3.131503 1_555
Mg1 Mg3 3.156618 1_555
Mg1 Mg10 3.156618 1_655
Mg1 Mg5 3.156618 1_545
Mg1 Mg11 3.156618 1_545
Mg2 Mg6 3.053369 1_555
Mg2 Mg5 3.131503 1_556
Mg3 Mg6 3.053369 1_555
Mg3 Mg4 3.131503 1_655
Mg4 Mg7 3.053369 1_555
Mg5 Mg7 3.053369 1_555
Mg10 Mg8 3.053369 1_555
Mg10 Mg3 3.131503 1_455
Mg10 Mg13 3.131503 1_555
Mg10 Mg5 3.156618 1_556
Mg10 Mg2 3.156618 1_555
Mg10 Mg15 3.156618 1_455
Mg11 Mg8 3.053369 1_665
Mg11 Mg12 3.131503 1_555
Mg11 Mg5 3.131503 1_555
Mg11 Mg14 3.156618 1_555
Mg11 Mg3 3.156618 1_555
Mg11 Mg4 3.156618 1_655
Mg12 Mg9 3.053369 1_555
Mg12 Mg2 3.131503 1_554
Mg12 Mg3 3.156618 1_555
Mg12 Mg4 3.156618 1_655
Mg12 Mg15 3.156618 1_554
Mg13 Mg9 3.053369 1_566
Mg13 Mg4 3.131503 1_555
Mg13 Mg2 3.156618 1_555
Mg13 Mg14 3.156618 1_555
Mg13 Mg5 3.156618 1_556
Mg14 Mg6 3.053369 1_555
Mg14 Mg4 3.156618 1_555
Mg14 Mg5 3.156618 1_555
Mg15 Mg7 3.053369 1_656
Mg15 Mg2 3.156618 1_555
Mg15 Mg3 3.156618 1_555
Al0 Mg8 3.140367 1_555
Al0 Mg9 3.140367 1_555
Al0 Mg6 3.140367 1_444
Al0 Mg7 3.140367 1_555
Al1 Al10 2.714962 1_556
Al1 Al2 2.750402 1_545
Al1 Al7 2.750402 1_455
Al1 Mg2 2.890041 1_555
Al1 Mg0 2.971123 1_555
Al1 Mg10 2.971123 1_555
Al1 Mg7 3.099838 1_556
Al1 Mg9 3.099838 1_556
Al1 Mg5 3.179497 1_556
Al1 Mg12 3.179497 1_556
Al2 Al7 2.750402 1_465
Al2 Mg4 2.890048 1_555
Al2 Mg0 2.971129 1_565
Al2 Mg11 2.971129 1_455
Al2 Mg9 3.099833 1_566
Al2 Mg6 3.099833 1_455
Al2 Mg13 3.179497 1_555
Al2 Mg3 3.179497 1_455
Al3 Al9 2.714962 1_655
Al3 Al8 2.750402 1_554
Al3 Al4 2.750402 1_545
Al3 Mg3 2.890041 1_555
Al3 Mg12 2.971123 1_555
Al3 Mg1 2.971123 1_555
Al3 Mg8 3.099838 1_655
Al3 Mg7 3.099838 1_655
Al3 Mg10 3.179497 1_655
Al3 Mg4 3.179497 1_655
Al4 Al8 2.750402 1_564
Al4 Mg5 2.890048 1_555
Al4 Mg1 2.971129 1_565
Al4 Mg13 2.971129 1_554
Al4 Mg8 3.099833 1_665
Al4 Mg6 3.099833 1_554
Al4 Mg2 3.179497 1_554
Al4 Mg11 3.179497 1_555
Al5 Al6 2.714962 1_545
Al5 Al9 2.750387 1_555
Al5 Mg15 2.890051 1_555
Al5 Mg2 2.971126 1_555
Al5 Mg3 2.971126 1_555
Al5 Mg9 3.099834 1_555
Al5 Mg8 3.099834 1_555
Al5 Mg1 3.179504 1_555
Al5 Mg0 3.179504 1_555
Al6 Mg14 2.890041 1_555
Al6 Mg5 2.971123 1_555
Al6 Mg4 2.971123 1_555
Al6 Mg8 3.099838 1_565
Al6 Mg9 3.099838 1_565
Al6 Mg0 3.179497 1_565
Al6 Mg1 3.179497 1_565
Al7 Al8 2.714947 1_555
Al7 Mg1 2.890048 1_555
Al7 Mg10 2.971129 1_655
Al7 Mg11 2.971129 1_545
Al7 Mg7 3.099833 1_656
Al7 Mg6 3.099833 1_545
Al7 Mg15 3.179497 1_555
Al7 Mg14 3.179497 1_545
Al8 Mg0 2.890048 1_555
Al8 Mg13 2.971129 1_545
Al8 Mg12 2.971129 1_556
Al8 Mg7 3.099833 1_656
Al8 Mg6 3.099833 1_545
Al8 Mg14 3.179497 1_545
Al8 Mg15 3.179497 1_555
Al9 Mg13 2.890051 1_555
Al9 Mg14 2.971126 1_555
Al9 Mg2 2.971126 1_555
Al9 Mg7 3.099834 1_555
Al9 Mg8 3.099834 1_555
Al9 Mg10 3.179504 1_555
Al9 Mg4 3.179504 1_555
Al10 Al9 2.750387 1_555
Al10 Al5 2.750387 1_555
Al10 Mg11 2.890051 1_555
Al10 Mg14 2.971126 1_555
Al10 Mg3 2.971126 1_555
Al10 Mg9 3.099834 1_555
Al10 Mg7 3.099834 1_555
Al10 Mg12 3.179504 1_555
Al10 Mg5 3.179504 1_555
Al11 Al4 2.714947 1_555
Al11 Al12 2.750402 1_654
Al11 Al6 2.750402 1_655
Al11 Mg12 2.890048 1_555
Al11 Mg4 2.971129 1_655
Al11 Mg15 2.971129 1_554
Al11 Mg8 3.099833 1_665
Al11 Mg6 3.099833 1_554
Al11 Mg11 3.179497 1_555
Al11 Mg2 3.179497 1_554
Al12 Al2 2.714947 1_555
Al12 Al6 2.750402 1_556
Al12 Mg10 2.890048 1_555
Al12 Mg5 2.971129 1_556
Al12 Mg15 2.971129 1_455
Al12 Mg9 3.099833 1_566
Al12 Mg6 3.099833 1_455
Al12 Mg13 3.179497 1_555
Al12 Mg3 3.179497 1_455
