# generated using pymatgen
data_SmCuGe
_symmetry_space_group_name_H-M   'P 1'
_cell_length_a   4.14002328
_cell_length_b   4.14002328
_cell_length_c   4.09002547
_cell_angle_alpha   90.00000000
_cell_angle_beta   90.00000000
_cell_angle_gamma   120.00000480
_symmetry_Int_Tables_number   1
_chemical_formula_structural   SmCuGe
_chemical_formula_sum   'Sm1 Cu1 Ge1'
_cell_volume   60.71027356
_cell_formula_units_Z   1
loop_
 _symmetry_equiv_pos_site_id
 _symmetry_equiv_pos_as_xyz
  1  'x, y, z'
loop_
 _atom_site_type_symbol
 _atom_site_label
 _atom_site_symmetry_multiplicity
 _atom_site_fract_x
 _atom_site_fract_y
 _atom_site_fract_z
 _atom_site_occupancy
  Sm  Sm0  1  0.33333300  0.66666700  0.00000000  1
  Cu  Cu0  1  0.66666700  0.33333300  0.50000000  1
  Ge  Ge0  1  0.00000000  0.00000000  0.50000000  1
loop_
_geom_bond_atom_site_label_1
_geom_bond_atom_site_label_2
_geom_bond_distance
_geom_bond_site_symmetry_2
Cu0 Ge0 2.390241 1_655
Cu0 Ge0 2.390245 1_665
Cu0 Ge0 2.390245 1_555
Cu0 Sm0 3.145684 1_546
Cu0 Sm0 3.145684 1_545
Cu0 Sm0 3.145684 1_656
Cu0 Sm0 3.145684 1_655
Cu0 Sm0 3.145690 1_556
Cu0 Sm0 3.145690 1_555
Ge0 Sm0 3.145684 1_545
Ge0 Sm0 3.145684 1_546
Ge0 Sm0 3.145687 1_445
Ge0 Sm0 3.145687 1_446
Ge0 Sm0 3.145687 1_556
Ge0 Sm0 3.145687 1_555
