# generated using pymatgen
data_CuGe2P3
_symmetry_space_group_name_H-M   'P 1'
_cell_length_a   3.86288651
_cell_length_b   3.86288651
_cell_length_c   9.31995300
_cell_angle_alpha   90.00000000
_cell_angle_beta   90.00000000
_cell_angle_gamma   120.00000878
_symmetry_Int_Tables_number   1
_chemical_formula_structural   CuGe2P3
_chemical_formula_sum   'Cu1 Ge2 P3'
_cell_volume   120.43929759
_cell_formula_units_Z   1
loop_
 _symmetry_equiv_pos_site_id
 _symmetry_equiv_pos_as_xyz
  1  'x, y, z'
loop_
 _atom_site_type_symbol
 _atom_site_label
 _atom_site_symmetry_multiplicity
 _atom_site_fract_x
 _atom_site_fract_y
 _atom_site_fract_z
 _atom_site_occupancy
  Cu  Cu0  1  0.00000000  0.00000000  0.98005200  1
  Ge  Ge0  1  0.66666700  0.33333300  0.32684600  1
  Ge  Ge1  1  0.33333300  0.66666700  0.69294300  1
  P  P0  1  0.00000000  0.00000000  0.22693300  1
  P  P1  1  0.66666700  0.33333300  0.58638800  1
  P  P2  1  0.33333300  0.66666700  0.93683700  1
loop_
_geom_bond_atom_site_label_1
_geom_bond_atom_site_label_2
_geom_bond_distance
_geom_bond_site_symmetry_2
Cu0 P2 2.266312 1_545
Cu0 P2 2.266315 1_555
Cu0 P2 2.266315 1_445
Cu0 P0 2.300919 1_556
Ge0 P0 2.416828 1_655
Ge0 P0 2.416831 1_665
Ge0 P0 2.416831 1_555
Ge0 P1 2.418919 1_555
Ge1 P2 2.273081 1_555
Ge1 P1 2.441347 1_455
Ge1 P1 2.441347 1_565
Ge1 P1 2.441354 1_555
