# generated using pymatgen
data_K2Zn(SO7)2
_symmetry_space_group_name_H-M   'P 1'
_cell_length_a   12.22803400
_cell_length_b   5.90081500
_cell_length_c   8.88613830
_cell_angle_alpha   78.18012112
_cell_angle_beta   90.00000000
_cell_angle_gamma   90.00000000
_symmetry_Int_Tables_number   1
_chemical_formula_structural   K2Zn(SO7)2
_chemical_formula_sum   'K4 Zn2 S4 O28'
_cell_volume   627.58717386
_cell_formula_units_Z   2
loop_
 _symmetry_equiv_pos_site_id
 _symmetry_equiv_pos_as_xyz
  1  'x, y, z'
loop_
 _atom_site_type_symbol
 _atom_site_label
 _atom_site_symmetry_multiplicity
 _atom_site_fract_x
 _atom_site_fract_y
 _atom_site_fract_z
 _atom_site_occupancy
  K  K0  1  0.65713900  0.83625100  0.86722900  1
  K  K1  1  0.34286100  0.16374900  0.13277100  1
  K  K2  1  0.15713900  0.16374900  0.63277100  1
  K  K3  1  0.84286100  0.83625100  0.36722900  1
  Zn  Zn0  1  0.50000000  0.50000000  0.50000000  1
  Zn  Zn1  1  0.00000000  0.50000000  0.00000000  1
  S  S0  1  0.35946400  0.75856400  0.89989900  1
  S  S1  1  0.64053600  0.24143600  0.10010100  1
  S  S2  1  0.85946500  0.24143600  0.60010100  1
  S  S3  1  0.14053600  0.75856400  0.39989900  1
  O  O0  1  0.31823000  0.53318400  0.87445100  1
  O  O1  1  0.68177000  0.46681600  0.12554900  1
  O  O2  1  0.81823000  0.46681600  0.62554900  1
  O  O3  1  0.18177000  0.53318400  0.37445100  1
  O  O4  1  0.07838900  0.73176500  0.54570000  1
  O  O5  1  0.92161100  0.26823500  0.45430000  1
  O  O6  1  0.57838900  0.26823500  0.95430000  1
  O  O7  1  0.42161100  0.73176500  0.04570000  1
  O  O8  1  0.38829700  0.30956500  0.62178200  1
  O  O9  1  0.61170300  0.69043500  0.37821800  1
  O  O10  1  0.88829700  0.69043500  0.87821800  1
  O  O11  1  0.11170300  0.30956500  0.12178200  1
  O  O12  1  0.43949100  0.86081800  0.77305800  1
  O  O13  1  0.56050900  0.13918200  0.22694200  1
  O  O14  1  0.93949100  0.13918200  0.72694200  1
  O  O15  1  0.06050900  0.86081800  0.27305800  1
  O  O16  1  0.11278300  0.39112000  0.87876500  1
  O  O17  1  0.88721700  0.60888000  0.12123500  1
  O  O18  1  0.61278300  0.60888000  0.62123500  1
  O  O19  1  0.38721700  0.39112000  0.37876500  1
  O  O20  1  0.44974200  0.85412500  0.50949900  1
  O  O21  1  0.55025800  0.14587500  0.49050100  1
  O  O22  1  0.94974200  0.14587500  0.99050100  1
  O  O23  1  0.05025800  0.85412500  0.00949900  1
  O  O24  1  0.26659200  0.92129600  0.89591600  1
  O  O25  1  0.73340800  0.07870400  0.10408400  1
  O  O26  1  0.76659200  0.07870400  0.60408400  1
  O  O27  1  0.23340800  0.92129600  0.39591600  1
loop_
_geom_bond_atom_site_label_1
_geom_bond_atom_site_label_2
_geom_bond_distance
_geom_bond_site_symmetry_2
K0 O12 2.784720 1_555
K0 O26 2.816994 1_565
K0 O1 2.839389 1_556
K0 O18 2.841493 1_555
K0 O25 2.929174 1_566
K0 O10 2.950453 1_555
K0 O6 2.971803 1_565
K1 O13 2.784720 1_555
K1 O27 2.816994 1_545
K1 O0 2.839389 1_554
K1 O19 2.841493 1_555
K1 O24 2.929174 1_544
K1 O11 2.950453 1_555
K1 O7 2.971803 1_545
K2 O14 2.784720 1_455
K2 O24 2.816994 1_545
K2 O3 2.839389 1_555
K2 O16 2.841493 1_555
K2 O27 2.929174 1_545
K2 O8 2.950453 1_555
K2 O4 2.971803 1_545
K3 O15 2.784720 1_655
K3 O25 2.816994 1_565
K3 O2 2.839389 1_555
K3 O17 2.841493 1_555
K3 O26 2.929174 1_565
K3 O9 2.950453 1_555
K3 O5 2.971803 1_565
O0 S0 1.482320 1_555
O1 S1 1.482320 1_555
O2 S2 1.482324 1_555
O3 S3 1.482320 1_555
O4 S3 1.482287 1_555
O5 S2 1.482281 1_555
O6 S1 1.482287 1_556
O7 S0 1.482287 1_554
O8 Zn0 1.949709 1_555
O9 Zn0 1.949709 1_555
O10 Zn1 1.949709 1_656
O11 Zn1 1.949709 1_555
O12 S0 1.521012 1_555
O13 S1 1.521012 1_555
O14 S2 1.521004 1_555
O15 S3 1.521012 1_555
O16 Zn1 1.938786 1_556
O17 Zn1 1.938786 1_655
O18 Zn0 1.938786 1_555
O19 Zn0 1.938786 1_555
O20 Zn0 2.196270 1_555
O21 Zn0 2.196270 1_555
O22 Zn1 2.196270 1_656
O23 Zn1 2.196270 1_555
O24 S0 1.482935 1_555
O25 S1 1.482935 1_555
O26 S2 1.482944 1_555
O27 S3 1.482935 1_555
