# generated using pymatgen
data_Sc2(Al3Co)3
_symmetry_space_group_name_H-M   'P 1'
_cell_length_a   7.22336458
_cell_length_b   7.22336458
_cell_length_c   9.00482414
_cell_angle_alpha   90.00000000
_cell_angle_beta   90.00000000
_cell_angle_gamma   119.35822869
_symmetry_Int_Tables_number   1
_chemical_formula_structural   Sc2(Al3Co)3
_chemical_formula_sum   'Sc4 Al18 Co6'
_cell_volume   409.50321199
_cell_formula_units_Z   2
loop_
 _symmetry_equiv_pos_site_id
 _symmetry_equiv_pos_as_xyz
  1  'x, y, z'
loop_
 _atom_site_type_symbol
 _atom_site_label
 _atom_site_symmetry_multiplicity
 _atom_site_fract_x
 _atom_site_fract_y
 _atom_site_fract_z
 _atom_site_occupancy
  Sc  Sc0  1  0.99318208  0.67357123  0.25000000  1
  Sc  Sc1  1  0.00681792  0.32642877  0.75000000  1
  Sc  Sc2  1  0.67357123  0.99318208  0.25000000  1
  Sc  Sc3  1  0.32642877  0.00681792  0.75000000  1
  Al  Al0  1  0.99501472  0.33545973  0.07325060  1
  Al  Al1  1  0.00498528  0.66454027  0.92674940  1
  Al  Al2  1  0.00498528  0.66454027  0.57325060  1
  Al  Al3  1  0.33545973  0.99501472  0.42674940  1
  Al  Al4  1  0.99501472  0.33545973  0.42674940  1
  Al  Al5  1  0.66454027  0.00498528  0.57325060  1
  Al  Al6  1  0.66454027  0.00498528  0.92674940  1
  Al  Al7  1  0.33545973  0.99501472  0.07325060  1
  Al  Al8  1  0.34023811  0.56126471  0.25000000  1
  Al  Al9  1  0.65976189  0.43873529  0.75000000  1
  Al  Al10  1  0.56126471  0.34023811  0.25000000  1
  Al  Al11  1  0.43873529  0.65976189  0.75000000  1
  Al  Al12  1  0.32962079  0.32962079  0.54457573  1
  Al  Al13  1  0.67037921  0.67037921  0.45542427  1
  Al  Al14  1  0.67037921  0.67037921  0.04457573  1
  Al  Al15  1  0.32962079  0.32962079  0.95542427  1
  Al  Al16  1  0.11929478  0.11929478  0.25000000  1
  Al  Al17  1  0.88070522  0.88070522  0.75000000  1
  Co  Co0  1  0.67155957  0.32844043  0.00000000  1
  Co  Co1  1  0.32844043  0.67155957  0.00000000  1
  Co  Co2  1  0.32844043  0.67155957  0.50000000  1
  Co  Co3  1  0.67155957  0.32844043  0.50000000  1
  Co  Co4  1  0.00000000  -0.00000000  0.00000000  1
  Co  Co5  1  0.00000000  -0.00000000  0.50000000  1
loop_
_geom_bond_atom_site_label_1
_geom_bond_atom_site_label_2
_geom_bond_distance
_geom_bond_site_symmetry_2
Al0 Co0 2.404251 1_555
Al0 Co4 2.528554 1_655
Al0 Co1 2.529119 1_655
Al0 Al15 2.658810 1_654
Al0 Al16 2.674252 1_655
Al0 Al1 2.688515 1_654
Al0 Al8 2.724663 1_655
Al0 Al6 2.747666 1_554
Al0 Sc2 2.899694 1_545
Al0 Sc1 2.913730 1_654
Al0 Sc0 2.920599 1_555
Al1 Co1 2.404251 1_556
Al1 Co4 2.528554 1_566
Al1 Co0 2.529119 1_456
Al1 Al14 2.658810 1_456
Al1 Al17 2.674252 1_455
Al1 Al9 2.724663 1_455
Al1 Al7 2.747666 1_556
Al1 Sc3 2.899694 1_565
Al1 Sc0 2.913730 1_456
Al1 Sc1 2.920599 1_555
Al2 Co2 2.404251 1_555
Al2 Co5 2.528554 1_565
Al2 Co3 2.529119 1_455
Al2 Al4 2.688515 1_455
Al2 Al9 2.724663 1_455
Al2 Al3 2.747666 1_555
Al2 Sc3 2.899694 1_565
Al2 Sc0 2.913730 1_455
Al2 Sc1 2.920599 1_555
Al3 Co2 2.404251 1_555
Al3 Co5 2.528554 1_565
Al3 Co3 2.529119 1_565
Al3 Al5 2.688515 1_565
Al3 Sc0 2.899694 1_455
Al3 Sc3 2.913730 1_565
Al3 Sc2 2.920599 1_555
Al4 Co3 2.404251 1_555
Al4 Co5 2.528554 1_655
Al4 Co2 2.529119 1_655
Al4 Al8 2.724663 1_655
Al4 Al5 2.747666 1_555
Al4 Sc2 2.899694 1_545
Al4 Sc1 2.913730 1_655
Al4 Sc0 2.920599 1_555
Al5 Co3 2.404251 1_555
Al5 Co5 2.528554 1_655
Al5 Co2 2.529119 1_545
Al5 Sc1 2.899694 1_655
Al5 Sc2 2.913730 1_545
Al5 Sc3 2.920599 1_555
Al6 Co0 2.404251 1_556
Al6 Co4 2.528554 1_656
Al6 Co1 2.529119 1_546
Al6 Al7 2.688515 1_546
Al6 Sc1 2.899694 1_655
Al6 Sc2 2.913730 1_546
Al6 Sc3 2.920599 1_555
Al7 Co1 2.404251 1_555
Al7 Co4 2.528554 1_565
Al7 Co0 2.529119 1_565
Al7 Sc0 2.899694 1_455
Al7 Sc3 2.913730 1_564
Al7 Sc2 2.920599 1_555
Al8 Co2 2.403434 1_555
Al8 Co1 2.403434 1_555
Al8 Sc2 2.857508 1_555
Al8 Sc0 2.989449 1_455
Al9 Co0 2.403434 1_556
Al9 Co3 2.403434 1_555
Al9 Sc3 2.857508 1_555
Al9 Sc1 2.989449 1_655
Al10 Co0 2.403434 1_555
Al10 Co3 2.403434 1_555
Al10 Al3 2.724663 1_545
Al10 Al7 2.724663 1_545
Al10 Al8 2.756331 1_555
Al10 Al16 2.782671 1_555
Al10 Al14 2.808371 1_555
Al10 Al13 2.808371 1_555
Al10 Sc0 2.857508 1_555
Al10 Sc2 2.989449 1_545
Al11 Co2 2.403434 1_555
Al11 Co1 2.403434 1_556
Al11 Al6 2.724663 1_565
Al11 Al5 2.724663 1_565
Al11 Al9 2.756331 1_555
Al11 Al17 2.782671 1_555
Al11 Al12 2.808371 1_555
Al11 Al15 2.808371 1_555
Al11 Sc1 2.857508 1_555
Al11 Sc3 2.989449 1_565
Al12 Co5 2.437310 1_555
Al12 Co2 2.506489 1_555
Al12 Co3 2.506489 1_555
Al12 Al13 2.611704 1_555
Al12 Al3 2.658810 1_545
Al12 Al4 2.658810 1_455
Al12 Al9 2.808371 1_555
Al12 Sc1 2.967582 1_555
Al12 Sc3 2.967582 1_555
Al13 Co5 2.437310 1_665
Al13 Co2 2.506489 1_555
Al13 Co3 2.506489 1_555
Al13 Al5 2.658810 1_565
Al13 Al2 2.658810 1_655
Al13 Al8 2.808371 1_555
Al13 Sc0 2.967582 1_555
Al13 Sc2 2.967582 1_555
Al14 Co4 2.437310 1_665
Al14 Co1 2.506489 1_555
Al14 Co0 2.506489 1_555
Al14 Al15 2.611704 1_554
Al14 Al6 2.658810 1_564
Al14 Al8 2.808371 1_555
Al14 Sc0 2.967582 1_555
Al14 Sc2 2.967582 1_555
Al15 Co4 2.437310 1_556
Al15 Co1 2.506489 1_556
Al15 Co0 2.506489 1_556
Al15 Al7 2.658810 1_546
Al15 Al9 2.808371 1_555
Al15 Sc3 2.967582 1_555
Al15 Sc1 2.967582 1_555
Al16 Co4 2.413488 1_555
Al16 Co5 2.413488 1_555
Al16 Al7 2.674252 1_545
Al16 Al3 2.674252 1_545
Al16 Al4 2.674252 1_455
Al16 Al8 2.782671 1_555
Al16 Sc2 2.884435 1_445
Al16 Sc0 2.884435 1_445
Al17 Co4 2.413488 1_666
Al17 Co5 2.413488 1_665
Al17 Al6 2.674252 1_565
Al17 Al2 2.674252 1_655
Al17 Al5 2.674252 1_565
Al17 Al9 2.782671 1_555
Al17 Sc1 2.884435 1_665
Al17 Sc3 2.884435 1_665
