# generated using pymatgen
data_SnC8(NCl3)2
_symmetry_space_group_name_H-M   'P 1'
_cell_length_a   16.22613346
_cell_length_b   16.22613346
_cell_length_c   16.22613346
_cell_angle_alpha   60.00000000
_cell_angle_beta   60.00000000
_cell_angle_gamma   60.00000000
_symmetry_Int_Tables_number   1
_chemical_formula_structural   SnC8(NCl3)2
_chemical_formula_sum   'Sn8 C64 N16 Cl48'
_cell_volume   3020.85676219
_cell_formula_units_Z   8
loop_
 _symmetry_equiv_pos_site_id
 _symmetry_equiv_pos_as_xyz
  1  'x, y, z'
loop_
 _atom_site_type_symbol
 _atom_site_label
 _atom_site_symmetry_multiplicity
 _atom_site_fract_x
 _atom_site_fract_y
 _atom_site_fract_z
 _atom_site_occupancy
  Sn  Sn0  1  0.87500000  0.37500000  0.37500000  1
  Sn  Sn1  1  0.37500000  0.87500000  0.37500000  1
  Sn  Sn2  1  0.37500000  0.37500000  0.87500000  1
  Sn  Sn3  1  0.37500000  0.37500000  0.37500000  1
  Sn  Sn4  1  0.37500000  0.87500000  0.87500000  1
  Sn  Sn5  1  0.87500000  0.87500000  0.37500000  1
  Sn  Sn6  1  0.87500000  0.37500000  0.87500000  1
  Sn  Sn7  1  0.87500000  0.87500000  0.87500000  1
  C  C0  1  0.35902800  0.21365700  0.21365700  1
  C  C1  1  0.21365700  0.35902800  0.21365700  1
  C  C2  1  0.21365700  0.21365700  0.35902800  1
  C  C3  1  0.21365700  0.21365700  0.21365700  1
  C  C4  1  0.39097200  0.53634300  0.53634300  1
  C  C5  1  0.53634300  0.39097200  0.53634300  1
  C  C6  1  0.53634300  0.53634300  0.39097200  1
  C  C7  1  0.53634300  0.53634300  0.53634300  1
  C  C8  1  0.85902800  0.71365700  0.71365700  1
  C  C9  1  0.71365700  0.71365700  0.85902800  1
  C  C10  1  0.71365700  0.85902800  0.71365700  1
  C  C11  1  0.71365700  0.71365700  0.71365700  1
  C  C12  1  0.89097200  0.03634300  0.03634300  1
  C  C13  1  0.03634300  0.03634300  0.89097200  1
  C  C14  1  0.03634300  0.89097200  0.03634300  1
  C  C15  1  0.03634300  0.03634300  0.03634300  1
  C  C16  1  0.54612200  0.91806000  0.07200600  1
  C  C17  1  0.91806000  0.54612200  0.46381200  1
  C  C18  1  0.07200600  0.46381200  0.54612200  1
  C  C19  1  0.46381200  0.07200600  0.91806000  1
  C  C20  1  0.91806000  0.07200600  0.54612200  1
  C  C21  1  0.54612200  0.46381200  0.91806000  1
  C  C22  1  0.46381200  0.54612200  0.07200600  1
  C  C23  1  0.07200600  0.91806000  0.46381200  1
  C  C24  1  0.07200600  0.54612200  0.91806000  1
  C  C25  1  0.46381200  0.91806000  0.54612200  1
  C  C26  1  0.54612200  0.07200600  0.46381200  1
  C  C27  1  0.91806000  0.46381200  0.07200600  1
  C  C28  1  0.20387800  0.83194000  0.67799400  1
  C  C29  1  0.83194000  0.20387800  0.28618800  1
  C  C30  1  0.67799400  0.28618800  0.20387800  1
  C  C31  1  0.28618800  0.67799400  0.83194000  1
  C  C32  1  0.83194000  0.67799400  0.20387800  1
  C  C33  1  0.20387800  0.28618800  0.83194000  1
  C  C34  1  0.28618800  0.20387800  0.67799400  1
  C  C35  1  0.67799400  0.83194000  0.28618800  1
  C  C36  1  0.67799400  0.20387800  0.83194000  1
  C  C37  1  0.28618800  0.83194000  0.20387800  1
  C  C38  1  0.20387800  0.67799400  0.28618800  1
  C  C39  1  0.83194000  0.28618800  0.67799400  1
  C  C40  1  0.04612200  0.57200600  0.41806000  1
  C  C41  1  0.41806000  0.96381200  0.04612200  1
  C  C42  1  0.57200600  0.04612200  0.96381200  1
  C  C43  1  0.96381200  0.41806000  0.57200600  1
  C  C44  1  0.41806000  0.04612200  0.57200600  1
  C  C45  1  0.04612200  0.41806000  0.96381200  1
  C  C46  1  0.96381200  0.57200600  0.04612200  1
  C  C47  1  0.57200600  0.96381200  0.41806000  1
  C  C48  1  0.57200600  0.41806000  0.04612200  1
  C  C49  1  0.96381200  0.04612200  0.41806000  1
  C  C50  1  0.04612200  0.96381200  0.57200600  1
  C  C51  1  0.41806000  0.57200600  0.96381200  1
  C  C52  1  0.70387800  0.17799400  0.33194000  1
  C  C53  1  0.33194000  0.78618800  0.70387800  1
  C  C54  1  0.17799400  0.70387800  0.78618800  1
  C  C55  1  0.78618800  0.33194000  0.17799400  1
  C  C56  1  0.33194000  0.70387800  0.17799400  1
  C  C57  1  0.70387800  0.33194000  0.78618800  1
  C  C58  1  0.78618800  0.17799400  0.70387800  1
  C  C59  1  0.17799400  0.78618800  0.33194000  1
  C  C60  1  0.17799400  0.33194000  0.70387800  1
  C  C61  1  0.78618800  0.70387800  0.33194000  1
  C  C62  1  0.70387800  0.78618800  0.17799400  1
  C  C63  1  0.33194000  0.17799400  0.78618800  1
  N  N0  1  0.25000000  0.25000000  0.25000000  1
  N  N1  1  0.50000000  0.50000000  0.50000000  1
  N  N2  1  0.75000000  0.75000000  0.75000000  1
  N  N3  1  0.00000000  0.00000000  0.00000000  1
  N  N4  1  0.50000000  0.50000000  0.00000000  1
  N  N5  1  0.00000000  0.00000000  0.50000000  1
  N  N6  1  0.50000000  0.00000000  0.50000000  1
  N  N7  1  0.00000000  0.50000000  0.00000000  1
  N  N8  1  0.00000000  0.50000000  0.50000000  1
  N  N9  1  0.50000000  0.00000000  0.00000000  1
  N  N10  1  0.25000000  0.25000000  0.75000000  1
  N  N11  1  0.75000000  0.75000000  0.25000000  1
  N  N12  1  0.25000000  0.75000000  0.25000000  1
  N  N13  1  0.75000000  0.25000000  0.75000000  1
  N  N14  1  0.75000000  0.25000000  0.25000000  1
  N  N15  1  0.25000000  0.75000000  0.75000000  1
  Cl  Cl0  1  0.98815500  0.47292400  0.30318000  1
  Cl  Cl1  1  0.47292400  0.98815500  0.23574100  1
  Cl  Cl2  1  0.30318000  0.23574100  0.98815500  1
  Cl  Cl3  1  0.23574100  0.30318000  0.47292400  1
  Cl  Cl4  1  0.47292400  0.30318000  0.98815500  1
  Cl  Cl5  1  0.98815500  0.23574100  0.47292400  1
  Cl  Cl6  1  0.23574100  0.98815500  0.30318000  1
  Cl  Cl7  1  0.30318000  0.47292400  0.23574100  1
  Cl  Cl8  1  0.30318000  0.98815500  0.47292400  1
  Cl  Cl9  1  0.23574100  0.47292400  0.98815500  1
  Cl  Cl10  1  0.98815500  0.30318000  0.23574100  1
  Cl  Cl11  1  0.47292400  0.23574100  0.30318000  1
  Cl  Cl12  1  0.76184500  0.27707600  0.44682000  1
  Cl  Cl13  1  0.27707600  0.76184500  0.51425900  1
  Cl  Cl14  1  0.44682000  0.51425900  0.76184500  1
  Cl  Cl15  1  0.51425900  0.44682000  0.27707600  1
  Cl  Cl16  1  0.27707600  0.44682000  0.76184500  1
  Cl  Cl17  1  0.76184500  0.51425900  0.27707600  1
  Cl  Cl18  1  0.51425900  0.76184500  0.44682000  1
  Cl  Cl19  1  0.44682000  0.27707600  0.51425900  1
  Cl  Cl20  1  0.44682000  0.76184500  0.27707600  1
  Cl  Cl21  1  0.51425900  0.27707600  0.76184500  1
  Cl  Cl22  1  0.76184500  0.44682000  0.51425900  1
  Cl  Cl23  1  0.27707600  0.51425900  0.44682000  1
  Cl  Cl24  1  0.48815500  0.80318000  0.97292400  1
  Cl  Cl25  1  0.97292400  0.73574100  0.48815500  1
  Cl  Cl26  1  0.80318000  0.48815500  0.73574100  1
  Cl  Cl27  1  0.73574100  0.97292400  0.80318000  1
  Cl  Cl28  1  0.97292400  0.48815500  0.80318000  1
  Cl  Cl29  1  0.48815500  0.97292400  0.73574100  1
  Cl  Cl30  1  0.73574100  0.80318000  0.48815500  1
  Cl  Cl31  1  0.80318000  0.73574100  0.97292400  1
  Cl  Cl32  1  0.80318000  0.97292400  0.48815500  1
  Cl  Cl33  1  0.73574100  0.48815500  0.97292400  1
  Cl  Cl34  1  0.48815500  0.73574100  0.80318000  1
  Cl  Cl35  1  0.97292400  0.80318000  0.73574100  1
  Cl  Cl36  1  0.26184500  0.94682000  0.77707600  1
  Cl  Cl37  1  0.77707600  0.01425900  0.26184500  1
  Cl  Cl38  1  0.94682000  0.26184500  0.01425900  1
  Cl  Cl39  1  0.01425900  0.77707600  0.94682000  1
  Cl  Cl40  1  0.77707600  0.26184500  0.94682000  1
  Cl  Cl41  1  0.26184500  0.77707600  0.01425900  1
  Cl  Cl42  1  0.01425900  0.94682000  0.26184500  1
  Cl  Cl43  1  0.94682000  0.01425900  0.77707600  1
  Cl  Cl44  1  0.94682000  0.77707600  0.26184500  1
  Cl  Cl45  1  0.01425900  0.26184500  0.77707600  1
  Cl  Cl46  1  0.26184500  0.01425900  0.94682000  1
  Cl  Cl47  1  0.77707600  0.94682000  0.01425900  1
loop_
_geom_bond_atom_site_label_1
_geom_bond_atom_site_label_2
_geom_bond_distance
_geom_bond_site_symmetry_2
C0 N0 1.444466 1_555
C1 N0 1.444466 1_555
C2 N0 1.444466 1_555
C3 N0 1.444480 1_555
C4 N1 1.444466 1_555
C5 N1 1.444466 1_555
C6 N1 1.444466 1_555
C7 N1 1.444480 1_555
C8 N2 1.444466 1_555
C9 N2 1.444466 1_555
C10 N2 1.444466 1_555
C11 N2 1.444480 1_555
C12 N3 1.444466 1_655
C13 N3 1.444466 1_556
C14 N3 1.444466 1_565
C15 N3 1.444480 1_555
C16 N9 1.420868 1_565
C17 N8 1.420868 1_655
C18 N8 1.420868 1_555
C19 N9 1.420868 1_556
C20 N5 1.420868 1_655
C21 N4 1.420868 1_556
C22 N4 1.420868 1_555
C23 N5 1.420868 1_565
C24 N7 1.420868 1_556
C25 N6 1.420868 1_565
C26 N6 1.420868 1_555
C27 N7 1.420868 1_655
C28 N15 1.420868 1_555
C29 N14 1.420868 1_555
C30 N14 1.420868 1_555
C31 N15 1.420868 1_555
C32 N11 1.420868 1_555
C33 N10 1.420868 1_555
C34 N10 1.420868 1_555
C35 N11 1.420868 1_555
C36 N13 1.420868 1_555
C37 N12 1.420868 1_555
C38 N12 1.420868 1_555
C39 N13 1.420868 1_555
C40 N8 1.420868 1_555
C41 N9 1.420868 1_565
C42 N9 1.420868 1_556
C43 N8 1.420868 1_655
C44 N6 1.420868 1_555
C45 N7 1.420868 1_556
C46 N7 1.420868 1_655
C47 N6 1.420868 1_565
C48 N4 1.420868 1_555
C49 N5 1.420868 1_655
C50 N5 1.420868 1_565
C51 N4 1.420868 1_556
C52 N14 1.420868 1_555
C53 N15 1.420868 1_555
C54 N15 1.420868 1_555
C55 N14 1.420868 1_555
C56 N12 1.420868 1_555
C57 N13 1.420868 1_555
C58 N13 1.420868 1_555
C59 N12 1.420868 1_555
C60 N10 1.420868 1_555
C61 N11 1.420868 1_555
C62 N11 1.420868 1_555
C63 N10 1.420868 1_555
Cl0 Sn0 2.485946 1_555
Cl1 Sn1 2.485946 1_555
Cl2 Sn2 2.485946 1_555
Cl3 Sn3 2.485946 1_555
Cl4 Sn2 2.485946 1_555
Cl5 Sn0 2.485946 1_555
Cl6 Sn1 2.485946 1_555
Cl7 Sn3 2.485946 1_555
Cl8 Sn1 2.485946 1_555
Cl9 Sn2 2.485946 1_555
Cl10 Sn0 2.485946 1_555
Cl11 Sn3 2.485946 1_555
Cl12 Sn0 2.485946 1_555
Cl13 Sn1 2.485946 1_555
Cl14 Sn2 2.485946 1_555
Cl15 Sn3 2.485946 1_555
Cl16 Sn2 2.485946 1_555
Cl17 Sn0 2.485946 1_555
Cl18 Sn1 2.485946 1_555
Cl19 Sn3 2.485946 1_555
Cl20 Sn1 2.485946 1_555
Cl21 Sn2 2.485946 1_555
Cl22 Sn0 2.485946 1_555
Cl23 Sn3 2.485946 1_555
Cl24 Sn4 2.485946 1_555
Cl25 Sn5 2.485946 1_555
Cl26 Sn6 2.485946 1_555
Cl27 Sn7 2.485946 1_555
Cl28 Sn6 2.485946 1_555
Cl29 Sn4 2.485946 1_555
Cl30 Sn5 2.485946 1_555
Cl31 Sn7 2.485946 1_555
Cl32 Sn5 2.485946 1_555
Cl33 Sn6 2.485946 1_555
Cl34 Sn4 2.485946 1_555
Cl35 Sn7 2.485946 1_555
Cl36 Sn4 2.485946 1_555
Cl37 Sn5 2.485946 1_545
Cl38 Sn6 2.485946 1_554
Cl39 Sn7 2.485946 1_455
Cl40 Sn6 2.485946 1_555
Cl41 Sn4 2.485946 1_554
Cl42 Sn5 2.485946 1_455
Cl43 Sn7 2.485946 1_545
Cl44 Sn5 2.485946 1_555
Cl45 Sn6 2.485946 1_455
Cl46 Sn4 2.485946 1_545
Cl47 Sn7 2.485946 1_554
