# generated using pymatgen
data_LiV4OF11
_symmetry_space_group_name_H-M   'P 1'
_cell_length_a   5.19445461
_cell_length_b   5.50844993
_cell_length_c   17.18884164
_cell_angle_alpha   91.00196112
_cell_angle_beta   97.93374041
_cell_angle_gamma   61.98309015
_symmetry_Int_Tables_number   1
_chemical_formula_structural   LiV4OF11
_chemical_formula_sum   'Li2 V8 O2 F22'
_cell_volume   429.40594139
_cell_formula_units_Z   2
loop_
 _symmetry_equiv_pos_site_id
 _symmetry_equiv_pos_as_xyz
  1  'x, y, z'
loop_
 _atom_site_type_symbol
 _atom_site_label
 _atom_site_symmetry_multiplicity
 _atom_site_fract_x
 _atom_site_fract_y
 _atom_site_fract_z
 _atom_site_occupancy
  Li  Li0  1  0.18736491  0.32200036  0.70784782  1
  Li  Li1  1  0.31303067  0.42799588  0.04202325  1
  V  V0  1  0.01247540  0.02533842  0.99389315  1
  V  V1  1  0.24993498  0.37497533  0.87506604  1
  V  V2  1  0.48653174  0.72451960  0.75598081  1
  V  V3  1  0.25001119  0.87490042  0.37500551  1
  V  V4  1  0.50259046  0.25133666  0.24992940  1
  V  V5  1  0.75126611  0.11732140  0.62541492  1
  V  V6  1  0.74876771  0.63259409  0.12458162  1
  V  V7  1  0.99720313  0.49868029  0.50017398  1
  O  O0  1  0.18850387  0.22679763  0.96808764  1
  O  O1  1  0.31138852  0.52246018  0.78200741  1
  F  F0  1  0.22993567  0.08074703  0.80440817  1
  F  F1  1  0.27013963  0.66950346  0.94561625  1
  F  F2  1  0.23543724  0.18649038  0.43940313  1
  F  F3  1  0.31240841  0.03919217  0.28318449  1
  F  F4  1  0.30037940  0.34656236  0.59719904  1
  F  F5  1  0.19720677  0.40479453  0.15267027  1
  F  F6  1  0.18729825  0.71115428  0.46674362  1
  F  F7  1  0.18821203  0.91361337  0.65658672  1
  F  F8  1  0.69212362  0.14318053  0.90735174  1
  F  F9  1  0.26467132  0.56297025  0.31051337  1
  F  F10  1  0.76385453  0.42100768  0.68540817  1
  F  F11  1  0.31407154  0.83579292  0.09363898  1
  F  F12  1  0.80789052  0.28516351  0.53280325  1
  F  F13  1  0.81975293  0.08285127  0.34185129  1
  F  F14  1  0.80820725  0.60678023  0.84242539  1
  F  F15  1  0.65860111  0.97060493  0.71239075  1
  F  F16  1  0.68049731  0.66695832  0.40823199  1
  F  F17  1  0.69260347  0.46423282  0.21759397  1
  F  F18  1  0.75564865  0.81279019  0.56215374  1
  F  F19  1  0.73611804  0.32711685  0.06428193  1
  F  F20  1  0.74367588  0.93942067  0.18807172  1
  F  F21  1  0.84221574  0.78011000  0.03746545  1
loop_
_geom_bond_atom_site_label_1
_geom_bond_atom_site_label_2
_geom_bond_distance
_geom_bond_site_symmetry_2
Li0 O1 1.910926 1_555
Li1 O0 1.912885 1_554
O0 V0 1.829421 1_555
O0 V1 1.937996 1_555
O1 V2 1.829686 1_555
O1 V1 1.936642 1_555
F0 V2 2.027799 1_545
F0 V1 2.041367 1_555
F0 Li0 2.066278 1_555
F1 V0 2.026589 1_565
F1 V1 2.042005 1_555
F1 Li1 2.064513 1_556
F2 V7 1.968401 1_455
F2 V3 2.002891 1_545
F3 V3 1.970236 1_545
F3 V4 1.982946 1_555
F4 V7 2.011898 1_455
F4 V5 2.060248 1_555
F4 Li0 2.090954 1_555
F5 V4 2.020723 1_555
F5 V6 2.049014 1_455
F5 Li1 2.095740 1_555
F6 V3 1.968201 1_555
F6 V7 1.985190 1_455
F7 V5 1.997593 1_465
F7 V2 2.054293 1_555
F7 Li0 2.399884 1_565
F8 V0 1.933617 1_655
F8 V1 2.032682 1_555
F9 V4 1.964246 1_555
F9 V3 2.005199 1_555
F10 V5 1.972282 1_555
F10 Li0 1.982867 1_655
F10 V2 2.119130 1_555
F11 V6 1.987264 1_555
F11 V0 2.066023 1_564
F11 Li1 2.402823 1_555
F12 V5 1.977782 1_555
F12 V7 1.981619 1_555
F13 V3 1.974343 1_645
F13 V4 1.992058 1_555
F14 V2 1.936671 1_555
F14 V1 2.031572 1_655
F15 V5 1.930359 1_565
F15 V2 2.134583 1_555
F15 Li0 2.290384 1_565
F16 V3 1.975488 1_555
F16 V7 1.991009 1_555
F17 V4 1.979918 1_555
F17 V6 1.983957 1_555
F18 V5 1.975874 1_565
F18 V7 1.992013 1_555
F19 Li1 1.978155 1_555
F19 V6 1.983479 1_555
F19 V0 2.110736 1_654
F20 V4 1.983224 1_565
F20 V6 1.987389 1_555
F21 V6 1.937001 1_555
F21 V0 2.123310 1_664
F21 Li1 2.290266 1_655
