# generated using pymatgen
data_Dy12Ge5S28
_symmetry_space_group_name_H-M   'P 1'
_cell_length_a   9.89188600
_cell_length_b   11.41799787
_cell_length_c   11.42425363
_cell_angle_alpha   97.05653323
_cell_angle_beta   115.65023277
_cell_angle_gamma   115.65954588
_symmetry_Int_Tables_number   1
_chemical_formula_structural   Dy12Ge5S28
_chemical_formula_sum   'Dy12 Ge5 S28'
_cell_volume   968.99637963
_cell_formula_units_Z   1
loop_
 _symmetry_equiv_pos_site_id
 _symmetry_equiv_pos_as_xyz
  1  'x, y, z'
loop_
 _atom_site_type_symbol
 _atom_site_label
 _atom_site_symmetry_multiplicity
 _atom_site_fract_x
 _atom_site_fract_y
 _atom_site_fract_z
 _atom_site_occupancy
  Dy  Dy0  1  0.06094700  0.93339300  0.29767800  1
  Dy  Dy1  1  0.58587900  0.46377600  0.80939500  1
  Dy  Dy2  1  0.92181300  0.69736600  0.57543700  1
  Dy  Dy3  1  0.41501600  0.17990400  0.05257300  1
  Dy  Dy4  1  0.40180900  0.74748000  0.52542600  1
  Dy  Dy5  1  0.87215000  0.23514400  0.99630700  1
  Dy  Dy6  1  0.91858200  0.03695400  0.69377000  1
  Dy  Dy7  1  0.43287900  0.56656900  0.20005600  1
  Dy  Dy8  1  0.08293100  0.31797500  0.44860600  1
  Dy  Dy9  1  0.58248300  0.80570500  0.92539100  1
  Dy  Dy10  1  0.63065300  0.26635200  0.49912600  1
  Dy  Dy11  1  0.09857000  0.75401500  0.97858200  1
  Ge  Ge0  1  0.41140000  0.08111200  0.74695700  1
  Ge  Ge1  1  0.91709900  0.58063700  0.24857500  1
  Ge  Ge2  1  0.66599700  0.99883400  0.33318300  1
  Ge  Ge3  1  0.16738100  0.50095800  0.83342300  1
  Ge  Ge4  1  0.23639400  0.23666900  0.23693400  1
  S  S0  1  0.22382000  0.88985900  0.55714700  1
  S  S1  1  0.72328600  0.39002000  0.05637300  1
  S  S2  1  0.97587100  0.30319700  0.64770700  1
  S  S3  1  0.47489300  0.81386500  0.13641200  1
  S  S4  1  0.31693600  0.22929500  0.46630400  1
  S  S5  1  0.83121600  0.73787700  0.99987500  1
  S  S6  1  0.08269400  0.91427000  0.82210500  1
  S  S7  1  0.54098800  0.39255400  0.30384500  1
  S  S8  1  0.69271800  0.95187900  0.78308900  1
  S  S9  1  0.18499200  0.42382100  0.27376300  1
  S  S10  1  0.65028300  0.74397400  0.48446600  1
  S  S11  1  0.16078000  0.24483400  0.00220000  1
  S  S12  1  0.92274600  0.08135100  0.16509800  1
  S  S13  1  0.40213600  0.56740800  0.66090900  1
  S  S14  1  0.28643700  0.04330400  0.20251400  1
  S  S15  1  0.79068500  0.53175000  0.69696800  1
  S  S16  1  0.64656700  0.24354600  0.75014400  1
  S  S17  1  0.16236500  0.73570500  0.25828400  1
  S  S18  1  0.30464800  0.20929400  0.78447500  1
  S  S19  1  0.80302300  0.69892200  0.29491600  1
  S  S20  1  0.53393300  0.04574100  0.94663400  1
  S  S21  1  0.02963300  0.54671200  0.44817800  1
  S  S22  1  0.58823400  0.00691300  0.48928000  1
  S  S23  1  0.09038400  0.50591700  0.99129800  1
  S  S24  1  0.94177500  0.04086400  0.45531800  1
  S  S25  1  0.44018900  0.53925200  0.95820800  1
  S  S26  1  0.71414100  0.19901400  0.29789500  1
  S  S27  1  0.21564200  0.69901600  0.79817600  1
loop_
_geom_bond_atom_site_label_1
_geom_bond_atom_site_label_2
_geom_bond_distance
_geom_bond_site_symmetry_2
Dy0 S19 2.769803 1_455
Dy0 S14 2.782536 1_565
Dy0 S12 2.802354 1_465
Dy0 S4 2.882098 1_565
Dy0 S17 2.899372 1_555
Dy0 S0 2.924120 1_555
Dy0 S24 2.947294 1_465
Dy0 S5 2.961339 1_454
Dy1 S13 2.695866 1_555
Dy1 S15 2.737210 1_555
Dy1 S5 2.756202 1_555
Dy1 S18 2.893711 1_555
Dy1 S16 2.895281 1_555
Dy1 S25 2.923460 1_555
Dy1 S1 2.961869 1_556
Dy1 S4 3.440063 1_555
Dy2 S15 2.695547 1_555
Dy2 S10 2.744940 1_555
Dy2 S6 2.756202 1_655
Dy2 S19 2.902294 1_555
Dy2 S27 2.908786 1_655
Dy2 S21 2.920100 1_655
Dy2 S0 2.960714 1_655
Dy2 S7 3.435671 1_555
Dy3 S20 2.744579 1_554
Dy3 S11 2.769830 1_555
Dy3 S14 2.794499 1_555
Dy3 S7 2.873818 1_555
Dy3 S18 2.891414 1_554
Dy3 S1 2.929210 1_555
Dy3 S26 2.961186 1_555
Dy3 S6 2.974491 1_544
Dy4 S10 2.708886 1_555
Dy4 S13 2.721467 1_555
Dy4 S8 2.748583 1_555
Dy4 S17 2.882262 1_555
Dy4 S22 2.928281 1_565
Dy4 S0 2.959819 1_555
Dy4 S21 2.994766 1_555
Dy4 S9 3.421943 1_555
Dy5 S16 2.777763 1_555
Dy5 S11 2.779663 1_656
Dy5 S12 2.794638 1_556
Dy5 S20 2.825017 1_555
Dy5 S9 2.884635 1_656
Dy5 S23 2.931257 1_655
Dy5 S1 2.932283 1_556
Dy5 S8 2.982308 1_545
Dy6 S6 2.675932 1_645
Dy6 S8 2.704491 1_545
Dy6 S24 2.835072 1_555
Dy6 S22 2.911491 1_555
Dy6 S10 2.967065 1_545
Dy6 S2 2.999784 1_555
Dy6 S18 3.015775 1_655
Dy6 S11 3.082384 1_656
Dy7 S25 2.777962 1_554
Dy7 S7 2.796167 1_555
Dy7 S10 2.801056 1_555
Dy7 S9 2.835803 1_555
Dy7 S23 2.865742 1_554
Dy7 S19 2.869600 1_555
Dy7 S3 2.902407 1_555
Dy7 S11 3.158857 1_555
Dy8 S9 2.784230 1_555
Dy8 S26 2.795313 1_455
Dy8 S13 2.801495 1_555
Dy8 S4 2.845902 1_555
Dy8 S21 2.879663 1_555
Dy8 S24 2.879741 1_455
Dy8 S2 2.889415 1_455
Dy8 S12 3.162256 1_455
Dy9 S8 2.691237 1_555
Dy9 S5 2.716103 1_555
Dy9 S27 2.816888 1_555
Dy9 S25 2.899340 1_555
Dy9 S13 2.970675 1_555
Dy9 S20 2.979689 1_565
Dy9 S3 3.033981 1_556
Dy9 S12 3.076023 1_566
Dy10 S22 2.786499 1_555
Dy10 S4 2.786803 1_555
Dy10 S15 2.803992 1_555
Dy10 S7 2.832633 1_555
Dy10 S16 2.853839 1_555
Dy10 S2 2.877769 1_555
Dy10 S26 2.884010 1_555
Dy10 S14 3.153216 1_555
Dy11 S5 2.689454 1_455
Dy11 S6 2.716233 1_555
Dy11 S23 2.822225 1_555
Dy11 S27 2.891605 1_555
Dy11 S15 2.980582 1_455
Dy11 S17 3.030688 1_556
Dy11 S3 3.042797 1_556
Dy11 S14 3.066015 1_566
Ge0 S0 2.181215 1_545
Ge0 S18 2.239883 1_555
Ge0 S16 2.241907 1_555
Ge0 S20 2.256653 1_555
Ge1 S1 2.191234 1_555
Ge1 S21 2.232012 1_655
Ge1 S17 2.243195 1_655
Ge1 S19 2.244791 1_555
Ge2 S3 2.187277 1_555
Ge2 S22 2.233601 1_565
Ge2 S24 2.241722 1_565
Ge2 S26 2.250211 1_565
Ge3 S2 2.197165 1_455
Ge3 S27 2.226944 1_555
Ge3 S25 2.236114 1_555
Ge3 S23 2.244514 1_555
Ge4 S4 2.411040 1_555
Ge4 S7 2.420298 1_555
Ge4 S9 2.430474 1_555
Ge4 S12 2.473334 1_455
Ge4 S11 2.478860 1_555
Ge4 S14 2.485149 1_555
