# generated using pymatgen
data_SiAg3
_symmetry_space_group_name_H-M   'P 1'
_cell_length_a   5.88074699
_cell_length_b   5.88074699
_cell_length_c   18.44387400
_cell_angle_alpha   90.00000000
_cell_angle_beta   90.00000000
_cell_angle_gamma   119.99998869
_symmetry_Int_Tables_number   1
_chemical_formula_structural   SiAg3
_chemical_formula_sum   'Si8 Ag24'
_cell_volume   552.39255727
_cell_formula_units_Z   8
loop_
 _symmetry_equiv_pos_site_id
 _symmetry_equiv_pos_as_xyz
  1  'x, y, z'
loop_
 _atom_site_type_symbol
 _atom_site_label
 _atom_site_symmetry_multiplicity
 _atom_site_fract_x
 _atom_site_fract_y
 _atom_site_fract_z
 _atom_site_occupancy
  Si  Si0_0  1  0.16666650  0.33333350  0.25000000  1
  Si  Si0_1  1  0.16666650  0.33333350  0.75000000  1
  Si  Si0_2  1  0.16666650  0.83333350  0.25000000  1
  Si  Si0_3  1  0.16666650  0.83333350  0.75000000  1
  Si  Si0_4  1  0.66666650  0.33333350  0.25000000  1
  Si  Si0_5  1  0.66666650  0.33333350  0.75000000  1
  Si  Si0_6  1  0.66666650  0.83333350  0.25000000  1
  Si  Si0_7  1  0.66666650  0.83333350  0.75000000  1
  Ag  Ag0_0  1  0.16666650  0.33333350  0.00000000  1
  Ag  Ag0_1  1  0.16666650  0.33333350  0.50000000  1
  Ag  Ag0_2  1  0.16666650  0.83333350  0.00000000  1
  Ag  Ag0_3  1  0.16666650  0.83333350  0.50000000  1
  Ag  Ag0_4  1  0.66666650  0.33333350  0.00000000  1
  Ag  Ag0_5  1  0.66666650  0.33333350  0.50000000  1
  Ag  Ag0_6  1  0.66666650  0.83333350  0.00000000  1
  Ag  Ag0_7  1  0.66666650  0.83333350  0.50000000  1
  Ag  Ag1_0  1  0.33333350  0.16666650  0.36878750  1
  Ag  Ag1_1  1  0.33333350  0.16666650  0.86878750  1
  Ag  Ag1_2  1  0.33333350  0.66666650  0.36878750  1
  Ag  Ag1_3  1  0.33333350  0.66666650  0.86878750  1
  Ag  Ag1_4  1  0.83333350  0.16666650  0.36878750  1
  Ag  Ag1_5  1  0.83333350  0.16666650  0.86878750  1
  Ag  Ag1_6  1  0.83333350  0.66666650  0.36878750  1
  Ag  Ag1_7  1  0.83333350  0.66666650  0.86878750  1
  Ag  Ag2_0  1  0.33333350  0.16666650  0.13121250  1
  Ag  Ag2_1  1  0.33333350  0.16666650  0.63121250  1
  Ag  Ag2_2  1  0.33333350  0.66666650  0.13121250  1
  Ag  Ag2_3  1  0.33333350  0.66666650  0.63121250  1
  Ag  Ag2_4  1  0.83333350  0.16666650  0.13121250  1
  Ag  Ag2_5  1  0.83333350  0.16666650  0.63121250  1
  Ag  Ag2_6  1  0.83333350  0.66666650  0.13121250  1
  Ag  Ag2_7  1  0.83333350  0.66666650  0.63121250  1
loop_
_geom_bond_atom_site_label_1
_geom_bond_atom_site_label_2
_geom_bond_distance
_geom_bond_site_symmetry_2
Ag0_0 Ag0_4 2.940373 1_555
Ag0_0 Ag0_4 2.940373 1_455
Ag0_0 Ag0_2 2.940373 1_545
Ag0_0 Ag0_2 2.940373 1_555
Ag0_0 Ag0_6 2.940374 1_445
Ag0_0 Ag0_6 2.940374 1_555
Ag0_0 Ag1_5 2.956121 1_454
Ag0_0 Ag1_3 2.956121 1_554
Ag0_0 Ag2_4 2.956121 1_455
Ag0_0 Ag2_2 2.956121 1_555
Ag0_0 Ag1_1 2.956124 1_554
Ag0_0 Ag2_0 2.956124 1_555
Ag0_1 Ag0_3 2.940373 1_545
Ag0_1 Ag0_5 2.940373 1_555
Ag0_1 Ag0_3 2.940373 1_555
Ag0_1 Ag0_5 2.940373 1_455
Ag0_1 Ag0_7 2.940374 1_445
Ag0_1 Ag0_7 2.940374 1_555
Ag0_1 Ag1_4 2.956121 1_455
Ag0_1 Ag2_5 2.956121 1_455
Ag0_1 Ag1_2 2.956121 1_555
Ag0_1 Ag2_3 2.956121 1_555
Ag0_1 Ag1_0 2.956124 1_555
Ag0_1 Ag2_1 2.956124 1_555
Ag0_2 Ag0_6 2.940373 1_455
Ag0_2 Ag0_6 2.940373 1_555
Ag0_2 Ag0_4 2.940374 1_455
Ag0_2 Ag0_4 2.940374 1_565
Ag0_2 Ag1_1 2.956121 1_564
Ag0_2 Ag1_7 2.956121 1_454
Ag0_2 Ag2_0 2.956121 1_565
Ag0_2 Ag2_6 2.956121 1_455
Ag0_2 Ag1_3 2.956124 1_554
Ag0_2 Ag2_2 2.956124 1_555
Ag0_3 Ag0_7 2.940373 1_455
Ag0_3 Ag0_7 2.940373 1_555
Ag0_3 Ag0_5 2.940374 1_565
Ag0_3 Ag0_5 2.940374 1_455
Ag0_3 Ag1_0 2.956121 1_565
Ag0_3 Ag1_6 2.956121 1_455
Ag0_3 Ag2_7 2.956121 1_455
Ag0_3 Ag2_1 2.956121 1_565
Ag0_3 Ag1_2 2.956124 1_555
Ag0_3 Ag2_3 2.956124 1_555
Ag0_4 Ag0_6 2.940373 1_555
Ag0_4 Ag0_6 2.940373 1_545
Ag0_4 Ag1_7 2.956121 1_554
Ag0_4 Ag1_1 2.956121 1_554
Ag0_4 Ag2_6 2.956121 1_555
Ag0_4 Ag2_0 2.956121 1_555
Ag0_4 Ag1_5 2.956124 1_554
Ag0_4 Ag2_4 2.956124 1_555
Ag0_5 Ag0_7 2.940373 1_555
Ag0_5 Ag0_7 2.940373 1_545
Ag0_5 Ag1_6 2.956121 1_555
Ag0_5 Ag1_0 2.956121 1_555
Ag0_5 Ag2_1 2.956121 1_555
Ag0_5 Ag2_7 2.956121 1_555
Ag0_5 Ag1_4 2.956124 1_555
Ag0_5 Ag2_5 2.956124 1_555
Ag0_6 Ag1_5 2.956121 1_564
Ag0_6 Ag1_3 2.956121 1_554
Ag0_6 Ag2_2 2.956121 1_555
Ag0_6 Ag2_4 2.956121 1_565
Ag0_6 Ag1_7 2.956124 1_554
Ag0_6 Ag2_6 2.956124 1_555
Ag0_7 Ag1_2 2.956121 1_555
Ag0_7 Ag1_4 2.956121 1_565
Ag0_7 Ag2_3 2.956121 1_555
Ag0_7 Ag2_5 2.956121 1_565
Ag0_7 Ag1_6 2.956124 1_555
Ag0_7 Ag2_7 2.956124 1_555
Ag1_0 Si0_2 2.771638 1_545
Ag1_0 Si0_4 2.771638 1_555
Ag1_0 Si0_0 2.771641 1_555
Ag1_0 Ag1_2 2.940373 1_545
Ag1_0 Ag1_4 2.940373 1_455
Ag1_0 Ag1_2 2.940373 1_555
Ag1_0 Ag1_4 2.940373 1_555
Ag1_0 Ag1_6 2.940374 1_555
Ag1_0 Ag1_6 2.940374 1_445
Ag1_1 Si0_3 2.771638 1_545
Ag1_1 Si0_5 2.771638 1_555
Ag1_1 Si0_1 2.771641 1_555
Ag1_1 Ag1_5 2.940373 1_555
Ag1_1 Ag1_3 2.940373 1_555
Ag1_1 Ag1_5 2.940373 1_455
Ag1_1 Ag1_3 2.940373 1_545
Ag1_1 Ag1_7 2.940374 1_555
Ag1_1 Ag1_7 2.940374 1_445
Ag1_2 Si0_6 2.771638 1_555
Ag1_2 Si0_0 2.771638 1_555
Ag1_2 Si0_2 2.771641 1_555
Ag1_2 Ag1_6 2.940373 1_555
Ag1_2 Ag1_6 2.940373 1_455
Ag1_2 Ag1_4 2.940374 1_455
Ag1_2 Ag1_4 2.940374 1_565
Ag1_3 Si0_1 2.771638 1_555
Ag1_3 Si0_7 2.771638 1_555
Ag1_3 Si0_3 2.771641 1_555
Ag1_3 Ag1_7 2.940373 1_455
Ag1_3 Ag1_7 2.940373 1_555
Ag1_3 Ag1_5 2.940374 1_455
Ag1_3 Ag1_5 2.940374 1_565
Ag1_4 Si0_0 2.771638 1_655
Ag1_4 Si0_6 2.771638 1_545
Ag1_4 Si0_4 2.771641 1_555
Ag1_4 Ag1_6 2.940373 1_545
Ag1_4 Ag1_6 2.940373 1_555
Ag1_5 Si0_1 2.771638 1_655
Ag1_5 Si0_7 2.771638 1_545
Ag1_5 Si0_5 2.771641 1_555
Ag1_5 Ag1_7 2.940373 1_545
Ag1_5 Ag1_7 2.940373 1_555
Ag1_6 Si0_4 2.771638 1_555
Ag1_6 Si0_2 2.771638 1_655
Ag1_6 Si0_6 2.771641 1_555
Ag1_7 Si0_3 2.771638 1_655
Ag1_7 Si0_5 2.771638 1_555
Ag1_7 Si0_7 2.771641 1_555
Ag2_0 Si0_2 2.771638 1_545
Ag2_0 Si0_4 2.771638 1_555
Ag2_0 Si0_0 2.771641 1_555
Ag2_0 Ag2_2 2.940373 1_555
Ag2_0 Ag2_4 2.940373 1_555
Ag2_0 Ag2_4 2.940373 1_455
Ag2_0 Ag2_2 2.940373 1_545
Ag2_0 Ag2_6 2.940374 1_555
Ag2_0 Ag2_6 2.940374 1_445
Ag2_1 Si0_3 2.771638 1_545
Ag2_1 Si0_5 2.771638 1_555
Ag2_1 Si0_1 2.771641 1_555
Ag2_1 Ag2_5 2.940373 1_455
Ag2_1 Ag2_3 2.940373 1_555
Ag2_1 Ag2_3 2.940373 1_545
Ag2_1 Ag2_5 2.940373 1_555
Ag2_1 Ag2_7 2.940374 1_555
Ag2_1 Ag2_7 2.940374 1_445
Ag2_2 Si0_0 2.771638 1_555
Ag2_2 Si0_6 2.771638 1_555
Ag2_2 Si0_2 2.771641 1_555
Ag2_2 Ag2_6 2.940373 1_455
Ag2_2 Ag2_6 2.940373 1_555
Ag2_2 Ag2_4 2.940374 1_455
Ag2_2 Ag2_4 2.940374 1_565
Ag2_3 Si0_1 2.771638 1_555
Ag2_3 Si0_7 2.771638 1_555
Ag2_3 Si0_3 2.771641 1_555
Ag2_3 Ag2_7 2.940373 1_455
Ag2_3 Ag2_7 2.940373 1_555
Ag2_3 Ag2_5 2.940374 1_455
Ag2_3 Ag2_5 2.940374 1_565
Ag2_4 Si0_0 2.771638 1_655
Ag2_4 Si0_6 2.771638 1_545
Ag2_4 Si0_4 2.771641 1_555
Ag2_4 Ag2_6 2.940373 1_545
Ag2_4 Ag2_6 2.940373 1_555
Ag2_5 Si0_1 2.771638 1_655
Ag2_5 Si0_7 2.771638 1_545
Ag2_5 Si0_5 2.771641 1_555
Ag2_5 Ag2_7 2.940373 1_545
Ag2_5 Ag2_7 2.940373 1_555
Ag2_6 Si0_4 2.771638 1_555
Ag2_6 Si0_2 2.771638 1_655
Ag2_6 Si0_6 2.771641 1_555
Ag2_7 Si0_3 2.771638 1_655
Ag2_7 Si0_5 2.771638 1_555
Ag2_7 Si0_7 2.771641 1_555
