# generated using pymatgen
data_Li10Zn7(PS4)8
_symmetry_space_group_name_H-M   'P 1'
_cell_length_a   9.20836343
_cell_length_b   11.61783287
_cell_length_c   23.23096106
_cell_angle_alpha   89.97586019
_cell_angle_beta   90.00028326
_cell_angle_gamma   89.99966431
_symmetry_Int_Tables_number   1
_chemical_formula_structural   Li10Zn7(PS4)8
_chemical_formula_sum   'Li20 Zn14 P16 S64'
_cell_volume   2485.27650640
_cell_formula_units_Z   2
loop_
 _symmetry_equiv_pos_site_id
 _symmetry_equiv_pos_as_xyz
  1  'x, y, z'
loop_
 _atom_site_type_symbol
 _atom_site_label
 _atom_site_symmetry_multiplicity
 _atom_site_fract_x
 _atom_site_fract_y
 _atom_site_fract_z
 _atom_site_occupancy
  Li  Li0  1  0.24859949  0.24730107  0.74745716  1
  Li  Li1  1  0.74859703  0.00270130  0.62754212  1
  Li  Li2  1  0.49998429  0.50176737  0.74963331  1
  Li  Li3  1  0.50145085  0.49855605  0.50062382  1
  Li  Li4  1  0.50046365  0.49984629  0.25005795  1
  Li  Li5  1  0.50097181  0.50032067  0.00013213  1
  Li  Li6  1  0.50181545  0.99822742  0.75091068  1
  Li  Li7  1  0.49625017  0.00065512  0.49809641  1
  Li  Li8  1  0.00181533  0.25177490  0.62408900  1
  Li  Li9  1  0.50035035  0.00010741  0.24993337  1
  Li  Li10  1  0.00172565  0.24899703  0.37423941  1
  Li  Li11  1  0.50172003  0.00100476  0.00076101  1
  Li  Li12  1  0.00035068  0.24989447  0.12506589  1
  Li  Li13  1  0.99624684  0.24934120  0.87690178  1
  Li  Li14  1  -0.00001695  0.74823476  0.62536761  1
  Li  Li15  1  0.00097428  0.74967799  0.37486813  1
  Li  Li16  1  0.00046474  0.75015195  0.12494251  1
  Li  Li17  1  0.00145472  0.75144591  0.87437456  1
  Li  Li18  1  0.49942005  0.25162159  0.62376976  1
  Li  Li19  1  0.99942192  0.99838119  0.75122917  1
  Zn  Zn0  1  0.49989653  0.75114385  0.87497752  1
  Zn  Zn1  1  0.49331083  0.74832948  0.62635315  1
  Zn  Zn2  1  0.49941222  0.75039882  0.37457720  1
  Zn  Zn3  1  0.49966319  0.75006991  0.12497864  1
  Zn  Zn4  1  0.50547945  0.25077026  0.87542387  1
  Zn  Zn5  1  0.99330954  0.50167716  0.74864363  1
  Zn  Zn6  1  0.49993900  0.24958862  0.37537102  1
  Zn  Zn7  1  0.99989415  0.49885750  0.50002263  1
  Zn  Zn8  1  0.49957985  0.24990491  0.12511478  1
  Zn  Zn9  1  0.99965615  0.49992801  0.25002118  1
  Zn  Zn10  1  0.99941007  0.49960215  0.00042290  1
  Zn  Zn11  1  0.00547406  0.99922182  0.49957353  1
  Zn  Zn12  1  0.99957565  0.00009631  0.24988431  1
  Zn  Zn13  1  0.99993852  0.00041152  0.99962705  1
  P  P0  1  0.25239147  0.49936551  0.87499562  1
  P  P1  1  0.24674112  0.50048993  0.62720889  1
  P  P2  1  0.25009984  0.49993868  0.37511495  1
  P  P3  1  0.25002201  0.50004381  0.12502275  1
  P  P4  1  0.24737966  0.99637103  0.87535316  1
  P  P5  1  0.25331535  0.00365016  0.62301657  1
  P  P6  1  0.75331851  0.24634668  0.75197710  1
  P  P7  1  0.25011202  0.99978942  0.37464957  1
  P  P8  1  0.74738517  0.25361606  0.49964375  1
  P  P9  1  0.24983254  0.99995863  0.12497877  1
  P  P10  1  0.74983456  0.25004503  0.25001999  1
  P  P11  1  0.75011626  0.25021403  0.00035692  1
  P  P12  1  0.74676402  0.74950414  0.74779319  1
  P  P13  1  0.75239954  0.75062708  0.50000730  1
  P  P14  1  0.75002113  0.74995269  0.24997904  1
  P  P15  1  0.75009904  0.75006408  0.99988754  1
  S  S0  1  0.13743160  0.89430426  0.82068879  1
  S  S1  1  0.12900117  0.89604948  0.57133416  1
  S  S2  1  0.13495050  0.89565962  0.31907858  1
  S  S3  1  0.13501806  0.89597426  0.06926508  1
  S  S4  1  0.12906340  0.39614305  0.81957268  1
  S  S5  1  0.13474067  0.39662546  0.57036317  1
  S  S6  1  0.63094054  0.64312779  0.69374089  1
  S  S7  1  0.13578440  0.39592382  0.31914497  1
  S  S8  1  0.63366224  0.64788283  0.44536322  1
  S  S9  1  0.13563753  0.39552134  0.06929169  1
  S  S10  1  0.63515156  0.64575924  0.19433397  1
  S  S11  1  0.63541893  0.64585127  0.94415515  1
  S  S12  1  0.62967163  0.14606122  0.69709818  1
  S  S13  1  0.63705019  0.14579039  0.44394087  1
  S  S14  1  0.63532864  0.14574077  0.19426245  1
  S  S15  1  0.63636511  0.14547991  0.94468690  1
  S  S16  1  0.36737865  0.39231089  0.67812526  1
  S  S17  1  0.36491623  0.38877209  0.42725335  1
  S  S18  1  0.36474947  0.38874319  0.17719461  1
  S  S19  1  0.36490504  0.38739268  0.92713482  1
  S  S20  1  0.36517637  0.89134270  0.67696813  1
  S  S21  1  0.36361257  0.88772452  0.42681240  1
  S  S22  1  0.86917017  0.13926444  0.55135481  1
  S  S23  1  0.36467921  0.88860743  0.17716365  1
  S  S24  1  0.86460142  0.13845443  0.30207157  1
  S  S25  1  0.37205708  0.89218979  0.92766790  1
  S  S26  1  0.86491901  0.13869825  0.05231023  1
  S  S27  1  0.87224449  0.14318799  0.80363785  1
  S  S28  1  0.86532081  0.63935067  0.55219103  1
  S  S29  1  0.86458805  0.63856309  0.30221622  1
  S  S30  1  0.86505531  0.63872475  0.05212190  1
  S  S31  1  0.86321409  0.64066771  0.80093298  1
  S  S32  1  0.13367105  0.60213154  0.92964553  1
  S  S33  1  0.13094356  0.60687446  0.68126064  1
  S  S34  1  0.13541985  0.60415292  0.43084191  1
  S  S35  1  0.13515479  0.60424691  0.18066358  1
  S  S36  1  0.13703712  0.10420945  0.93105485  1
  S  S37  1  0.12967328  0.10396255  0.67790308  1
  S  S38  1  0.62898683  0.35393491  0.80365498  1
  S  S39  1  0.13636364  0.10451794  0.43031457  1
  S  S40  1  0.63743698  0.35569977  0.55431016  1
  S  S41  1  0.13532739  0.10426938  0.18073753  1
  S  S42  1  0.63501312  0.35402051  0.30573531  1
  S  S43  1  0.63495539  0.35433733  0.05592269  1
  S  S44  1  0.63473174  0.85336992  0.80463276  1
  S  S45  1  0.62905885  0.85387844  0.55543001  1
  S  S46  1  0.63563168  0.85447931  0.30570719  1
  S  S47  1  0.63578772  0.85406777  0.05585390  1
  S  S48  1  0.36532185  0.61064570  0.82281017  1
  S  S49  1  0.36321729  0.60931799  0.57407843  1
  S  S50  1  0.36506025  0.61127573  0.32287982  1
  S  S51  1  0.36459260  0.61143712  0.07278324  1
  S  S52  1  0.36915182  0.11072472  0.82365122  1
  S  S53  1  0.37224063  0.10679148  0.57135118  1
  S  S54  1  0.86515889  0.35867252  0.69802961  1
  S  S55  1  0.36491774  0.11129470  0.32269047  1
  S  S56  1  0.87205251  0.35782010  0.44733321  1
  S  S57  1  0.36460462  0.11154596  0.07293347  1
  S  S58  1  0.86467630  0.36139450  0.19783475  1
  S  S59  1  0.86361635  0.36227470  0.94818626  1
  S  S60  1  0.86738558  0.85769387  0.69687997  1
  S  S61  1  0.86490535  0.86260653  0.44786685  1
  S  S62  1  0.86474853  0.86126122  0.19780486  1
  S  S63  1  0.86491873  0.86122293  0.94774805  1
loop_
_geom_bond_atom_site_label_1
_geom_bond_atom_site_label_2
_geom_bond_distance
_geom_bond_site_symmetry_2
Li0 S37 2.566233 1_555
Li0 S16 2.574192 1_555
Li0 S52 2.623108 1_555
Li0 S4 2.647815 1_555
Li1 S12 2.566419 1_555
Li1 S60 2.574282 1_545
Li1 S22 2.623005 1_555
Li1 S45 2.647630 1_545
Li2 S6 2.415679 1_555
Li2 S16 2.422703 1_555
Li2 S38 2.435981 1_555
Li2 S48 2.455485 1_555
Li3 S40 2.424099 1_555
Li3 S17 2.472755 1_555
Li3 S8 2.477518 1_555
Li3 S49 2.487951 1_555
Li4 S42 2.465038 1_555
Li4 S10 2.466959 1_555
Li4 S50 2.468663 1_555
Li4 S18 2.468784 1_555
Li5 S43 2.465063 1_555
Li5 S11 2.465887 1_554
Li5 S51 2.468597 1_555
Li5 S19 2.483703 1_554
Li6 S44 2.426112 1_555
Li6 S12 2.428374 1_565
Li6 S52 2.461285 1_565
Li6 S20 2.465278 1_555
Li7 S53 2.392130 1_555
Li7 S21 2.440753 1_545
Li7 S13 2.470864 1_555
Li7 S45 2.485045 1_545
Li8 S5 2.426159 1_555
Li8 S37 2.428208 1_555
Li8 S22 2.461180 1_455
Li8 S54 2.465405 1_455
Li9 S14 2.465429 1_555
Li9 S55 2.466292 1_555
Li9 S46 2.468032 1_545
Li9 S23 2.469509 1_545
Li10 S56 2.430925 1_455
Li10 S39 2.459606 1_555
Li10 S24 2.460952 1_455
Li10 S7 2.464545 1_555
Li11 S25 2.430817 1_544
Li11 S15 2.459611 1_554
Li11 S57 2.460975 1_555
Li11 S47 2.464633 1_545
Li12 S41 2.465348 1_555
Li12 S26 2.466319 1_455
Li12 S9 2.468069 1_555
Li12 S58 2.469511 1_455
Li13 S27 2.392350 1_555
Li13 S59 2.440747 1_555
Li13 S36 2.470743 1_655
Li13 S4 2.485242 1_655
Li14 S33 2.415690 1_555
Li14 S60 2.422751 1_455
Li14 S1 2.436062 1_555
Li14 S28 2.455513 1_455
Li15 S2 2.465020 1_555
Li15 S34 2.465780 1_555
Li15 S29 2.468632 1_455
Li15 S61 2.483739 1_455
Li16 S3 2.465046 1_555
Li16 S35 2.466854 1_555
Li16 S30 2.468657 1_455
Li16 S62 2.468816 1_455
Li17 S0 2.424081 1_555
Li17 S63 2.472769 1_455
Li17 S32 2.477548 1_555
Li17 S31 2.487874 1_455
Li18 S40 2.383155 1_555
Li18 S53 2.384807 1_555
Li18 S16 2.397124 1_555
Li18 S12 2.417160 1_555
Li19 S0 2.383097 1_655
Li19 S27 2.384485 1_565
Li19 S60 2.397011 1_555
Li19 S37 2.417260 1_665
P0 S48 2.054567 1_555
P0 S19 2.057056 1_555
P0 S32 2.057585 1_555
P0 S4 2.094484 1_555
P1 S16 2.052175 1_555
P1 S33 2.059763 1_555
P1 S5 2.065192 1_555
P1 S49 2.066661 1_555
P2 S17 2.061929 1_555
P2 S34 2.063578 1_555
P2 S7 2.064056 1_555
P2 S50 2.065183 1_555
P3 S18 2.062941 1_555
P3 S35 2.063130 1_555
P3 S51 2.063814 1_555
P3 S9 2.064352 1_555
P4 S0 2.011238 1_555
P4 S25 2.063682 1_555
P4 S36 2.068296 1_565
P4 S52 2.112743 1_565
P5 S53 2.018543 1_555
P5 S37 2.069180 1_555
P5 S1 2.077477 1_545
P5 S20 2.081565 1_545
P6 S27 2.018588 1_555
P6 S12 2.068920 1_555
P6 S38 2.077416 1_555
P6 S54 2.081561 1_555
P7 S39 2.061818 1_565
P7 S55 2.061919 1_565
P7 S21 2.062646 1_555
P7 S2 2.063006 1_555
P8 S40 2.011384 1_555
P8 S56 2.063743 1_555
P8 S13 2.068190 1_555
P8 S22 2.112896 1_555
P9 S3 2.062453 1_555
P9 S57 2.063531 1_565
P9 S41 2.063877 1_565
P9 S23 2.064049 1_555
P10 S42 2.062448 1_555
P10 S24 2.063602 1_555
P10 S14 2.063819 1_555
P10 S58 2.064032 1_555
P11 S26 2.061889 1_555
P11 S15 2.061943 1_554
P11 S59 2.062733 1_554
P11 S43 2.062882 1_555
P12 S60 2.052144 1_555
P12 S6 2.059838 1_555
P12 S44 2.065255 1_555
P12 S31 2.066711 1_555
P13 S28 2.054459 1_555
P13 S61 2.057100 1_555
P13 S8 2.057438 1_555
P13 S45 2.094735 1_555
P14 S62 2.063044 1_555
P14 S10 2.063138 1_555
P14 S29 2.063724 1_555
P14 S46 2.064361 1_555
P15 S63 2.061917 1_555
P15 S11 2.063648 1_555
P15 S47 2.063907 1_556
P15 S30 2.065155 1_556
S1 Zn11 2.346913 1_555
S2 Zn12 2.368194 1_465
S3 Zn13 2.373778 1_464
S4 Zn5 2.404014 1_455
S5 Zn7 2.370878 1_455
S6 Zn1 2.355644 1_555
S7 Zn9 2.368178 1_455
S8 Zn2 2.376808 1_555
S9 Zn10 2.365105 1_455
S10 Zn3 2.370536 1_555
S11 Zn0 2.373753 1_555
S13 Zn6 2.363073 1_555
S14 Zn8 2.367655 1_555
S15 Zn4 2.352929 1_555
S17 Zn6 2.369586 1_555
S18 Zn8 2.368262 1_555
S19 Zn4 2.374809 1_555
S20 Zn1 2.353084 1_555
S21 Zn2 2.362892 1_555
S22 Zn11 2.381417 1_645
S23 Zn3 2.367876 1_555
S24 Zn12 2.366439 1_555
S25 Zn0 2.360281 1_555
S26 Zn13 2.372022 1_554
S28 Zn7 2.381217 1_555
S29 Zn9 2.369173 1_555
S30 Zn10 2.363713 1_555
S31 Zn5 2.349430 1_555
S32 Zn10 2.376815 1_456
S33 Zn5 2.355581 1_455
S34 Zn7 2.373850 1_455
S35 Zn9 2.370686 1_455
S36 Zn13 2.363062 1_455
S38 Zn4 2.346930 1_555
S39 Zn11 2.352934 1_545
S41 Zn12 2.367724 1_455
S42 Zn6 2.373699 1_555
S43 Zn8 2.368153 1_555
S44 Zn0 2.370872 1_555
S45 Zn1 2.403996 1_555
S46 Zn2 2.365099 1_555
S47 Zn3 2.368153 1_555
S48 Zn0 2.381254 1_555
S49 Zn1 2.349416 1_555
S50 Zn2 2.363688 1_555
S51 Zn3 2.369175 1_555
S52 Zn4 2.381458 1_555
S54 Zn5 2.353081 1_555
S55 Zn6 2.372059 1_555
S56 Zn7 2.360214 1_555
S57 Zn8 2.366383 1_555
S58 Zn9 2.367845 1_555
S59 Zn10 2.362898 1_556
S61 Zn11 2.374679 1_655
S62 Zn12 2.368220 1_565
S63 Zn13 2.369577 1_565
