# generated using pymatgen
data_DyNiSb2
_symmetry_space_group_name_H-M   'P 1'
_cell_length_a   4.37694700
_cell_length_b   4.37694700
_cell_length_c   9.25740600
_cell_angle_alpha   90.00000000
_cell_angle_beta   90.00000000
_cell_angle_gamma   90.00000000
_symmetry_Int_Tables_number   1
_chemical_formula_structural   DyNiSb2
_chemical_formula_sum   'Dy2 Ni2 Sb4'
_cell_volume   177.35028329
_cell_formula_units_Z   2
loop_
 _symmetry_equiv_pos_site_id
 _symmetry_equiv_pos_as_xyz
  1  'x, y, z'
loop_
 _atom_site_type_symbol
 _atom_site_label
 _atom_site_symmetry_multiplicity
 _atom_site_fract_x
 _atom_site_fract_y
 _atom_site_fract_z
 _atom_site_occupancy
  Dy  Dy0  1  0.00000000  0.50000000  0.74008200  1
  Dy  Dy1  1  0.50000000  0.00000000  0.25991800  1
  Ni  Ni0  1  0.50000000  0.50000000  0.50000000  1
  Ni  Ni1  1  0.00000000  0.00000000  0.50000000  1
  Sb  Sb0  1  0.50000000  0.50000000  0.00000000  1
  Sb  Sb1  1  0.00000000  0.00000000  0.00000000  1
  Sb  Sb2  1  0.00000000  0.50000000  0.35717100  1
  Sb  Sb3  1  0.50000000  0.00000000  0.64282900  1
loop_
_geom_bond_atom_site_label_1
_geom_bond_atom_site_label_2
_geom_bond_distance
_geom_bond_site_symmetry_2
Dy0 Ni1 3.119148 1_555
Dy0 Ni1 3.119148 1_565
Dy0 Ni0 3.119148 1_455
Dy0 Ni0 3.119148 1_555
Dy0 Sb3 3.223258 1_555
Dy0 Sb3 3.223258 1_455
Dy0 Sb3 3.223258 1_565
Dy0 Sb3 3.223258 1_465
Dy0 Sb0 3.252546 1_556
Dy0 Sb1 3.252546 1_556
Dy0 Sb0 3.252546 1_456
Dy0 Sb1 3.252546 1_566
Dy1 Ni1 3.119148 1_555
Dy1 Ni0 3.119148 1_545
Dy1 Ni1 3.119148 1_655
Dy1 Ni0 3.119148 1_555
Dy1 Sb2 3.223258 1_645
Dy1 Sb2 3.223258 1_545
Dy1 Sb2 3.223258 1_555
Dy1 Sb2 3.223258 1_655
Dy1 Sb0 3.252546 1_555
Dy1 Sb0 3.252546 1_545
Dy1 Sb1 3.252546 1_655
Dy1 Sb1 3.252546 1_555
Ni0 Sb3 2.556892 1_555
Ni0 Sb3 2.556892 1_565
Ni0 Sb2 2.556892 1_655
Ni0 Sb2 2.556892 1_555
Ni1 Sb3 2.556892 1_555
Ni1 Sb3 2.556892 1_455
Ni1 Sb2 2.556892 1_545
Ni1 Sb2 2.556892 1_555
Sb0 Sb1 3.094969 1_565
Sb0 Sb1 3.094969 1_655
Sb0 Sb1 3.094969 1_555
Sb0 Sb1 3.094969 1_665
