# generated using pymatgen
data_LiNiPO4
_symmetry_space_group_name_H-M   'P 1'
_cell_length_a   4.73169600
_cell_length_b   5.93136501
_cell_length_c   10.14836402
_cell_angle_alpha   89.99360483
_cell_angle_beta   90.00132571
_cell_angle_gamma   89.99892888
_symmetry_Int_Tables_number   1
_chemical_formula_structural   LiNiPO4
_chemical_formula_sum   'Li4 Ni4 P4 O16'
_cell_volume   284.81805689
_cell_formula_units_Z   4
loop_
 _symmetry_equiv_pos_site_id
 _symmetry_equiv_pos_as_xyz
  1  'x, y, z'
loop_
 _atom_site_type_symbol
 _atom_site_label
 _atom_site_symmetry_multiplicity
 _atom_site_fract_x
 _atom_site_fract_y
 _atom_site_fract_z
 _atom_site_occupancy
  Li  Li0  1  0.49822700  0.75270700  0.24792200  1
  Li  Li1  1  0.50171800  0.25283700  0.25198300  1
  Li  Li2  1  0.00174800  0.24713900  0.74801800  1
  Li  Li3  1  0.99826000  0.74724700  0.75208200  1
  Ni  Ni0  1  0.01912900  0.50203100  0.47424900  1
  Ni  Ni1  1  0.51918200  0.99823400  0.52575500  1
  Ni  Ni2  1  0.98072400  0.00180900  0.02584500  1
  Ni  Ni3  1  0.48094500  0.49815500  0.97412700  1
  P  P0  1  0.91660400  0.50218500  0.15577000  1
  P  P1  1  0.08347200  0.00228000  0.34419300  1
  P  P2  1  0.58345200  0.49776000  0.65580800  1
  P  P3  1  0.41655400  0.99775200  0.84423000  1
  O  O0  1  0.77485300  0.70898600  0.08440500  1
  O  O1  1  0.22506400  0.20914500  0.41557400  1
  O  O2  1  0.72508400  0.29092300  0.58442700  1
  O  O3  1  0.27486600  0.79092000  0.91557000  1
  O  O4  1  0.77522900  0.29452300  0.08486700  1
  O  O5  1  0.22477300  0.79455300  0.41516900  1
  O  O6  1  0.72474200  0.70551300  0.58486900  1
  O  O7  1  0.27523600  0.20541400  0.91514200  1
  O  O8  1  0.24090400  0.50185400  0.15004100  1
  O  O9  1  0.75904700  0.00185700  0.34986300  1
  O  O10  1  0.25902200  0.49814900  0.65016200  1
  O  O11  1  0.74087700  0.99808100  0.84994400  1
  O  O12  1  0.20079800  0.00276800  0.20108100  1
  O  O13  1  0.79930200  0.50269700  0.29889300  1
  O  O14  1  0.29932400  0.99729000  0.70110400  1
  O  O15  1  0.70086200  0.49719200  0.79890800  1
loop_
_geom_bond_atom_site_label_1
_geom_bond_atom_site_label_2
_geom_bond_distance
_geom_bond_site_symmetry_2
Li0 O12 2.099097 1_565
Li0 O13 2.120319 1_555
Li0 O0 2.129410 1_555
Li0 O5 2.148660 1_555
Li0 O8 2.164113 1_555
Li0 O9 2.185763 1_565
Li1 O13 2.099018 1_555
Li1 O12 2.120018 1_555
Li1 O1 2.130017 1_555
Li1 O4 2.147625 1_555
Li1 O9 2.164459 1_555
Li1 O8 2.185031 1_555
Li2 O14 2.098933 1_545
Li2 O15 2.119793 1_455
Li2 O2 2.130059 1_455
Li2 O7 2.147597 1_555
Li2 O10 2.164380 1_555
Li2 O11 2.185329 1_445
Li3 O15 2.098991 1_555
Li3 O14 2.120492 1_655
Li3 O3 2.129047 1_655
Li3 O6 2.148452 1_555
Li3 O11 2.164101 1_555
Li3 O10 2.185294 1_655
Ni0 O13 2.061248 1_455
Ni0 O5 2.077635 1_555
Ni0 O1 2.078983 1_555
Ni0 O10 2.115638 1_555
Ni0 O6 2.158136 1_455
Ni0 O2 2.180306 1_455
Ni1 O14 2.061306 1_555
Ni1 O2 2.077942 1_565
Ni1 O6 2.078491 1_555
Ni1 O9 2.115416 1_565
Ni1 O5 2.158679 1_555
Ni1 O1 2.179809 1_565
Ni2 O12 2.060792 1_655
Ni2 O0 2.078114 1_545
Ni2 O4 2.078168 1_555
Ni2 O11 2.115413 1_544
Ni2 O7 2.159253 1_654
Ni2 O3 2.180472 1_644
Ni3 O15 2.060309 1_555
Ni3 O3 2.078236 1_555
Ni3 O7 2.078685 1_555
Ni3 O8 2.116059 1_556
Ni3 O4 2.158779 1_556
Ni3 O0 2.179581 1_556
O0 P0 1.574394 1_555
O1 P1 1.574589 1_555
O2 P2 1.574535 1_555
O3 P3 1.574327 1_555
O4 P0 1.575619 1_555
O5 P1 1.575965 1_565
O6 P2 1.575926 1_555
O7 P3 1.575541 1_545
O8 P0 1.535593 1_455
O9 P1 1.536162 1_655
O10 P2 1.536173 1_555
O11 P3 1.535693 1_555
O12 P1 1.554852 1_555
O13 P0 1.554917 1_555
O14 P3 1.554799 1_555
O15 P2 1.554857 1_555
