# generated using pymatgen
data_RbMg6BO7
_symmetry_space_group_name_H-M   'P 1'
_cell_length_a   8.78002379
_cell_length_b   4.56719511
_cell_length_c   4.56719511
_cell_angle_alpha   90.00000000
_cell_angle_beta   90.00000000
_cell_angle_gamma   90.00000000
_symmetry_Int_Tables_number   1
_chemical_formula_structural   RbMg6BO7
_chemical_formula_sum   'Rb1 Mg6 B1 O7'
_cell_volume   183.14489714
_cell_formula_units_Z   1
loop_
 _symmetry_equiv_pos_site_id
 _symmetry_equiv_pos_as_xyz
  1  'x, y, z'
loop_
 _atom_site_type_symbol
 _atom_site_label
 _atom_site_symmetry_multiplicity
 _atom_site_fract_x
 _atom_site_fract_y
 _atom_site_fract_z
 _atom_site_occupancy
  Rb  Rb0  1  0.00666685  -0.00000000  0.00000000  1
  Mg  Mg0  1  0.50421181  -0.00000000  0.00000000  1
  Mg  Mg1  1  0.48874736  0.50000000  0.50000000  1
  Mg  Mg2  1  0.24070828  -0.00000000  0.50000000  1
  Mg  Mg3  1  0.75304808  0.00000000  0.50000000  1
  Mg  Mg4  1  0.24070828  0.50000000  0.00000000  1
  Mg  Mg5  1  0.75304808  0.50000000  0.00000000  1
  B  B0  1  0.95794138  0.50000000  0.50000000  1
  O  O0  1  0.28436833  -0.00000000  0.00000000  1
  O  O1  1  0.72365244  -0.00000000  0.00000000  1
  O  O2  1  0.80032835  0.50000000  0.50000000  1
  O  O3  1  0.98867998  0.00000000  0.50000000  1
  O  O4  1  0.50960539  -0.00000000  0.50000000  1
  O  O5  1  0.98867998  0.50000000  0.00000000  1
  O  O6  1  0.50960539  0.50000000  0.00000000  1
loop_
_geom_bond_atom_site_label_1
_geom_bond_atom_site_label_2
_geom_bond_distance
_geom_bond_site_symmetry_2
Mg0 O1 1.926694 1_555
Mg0 O0 1.930231 1_555
Mg0 O4 2.284089 1_555
Mg0 O4 2.284089 1_554
Mg0 O6 2.284089 1_545
Mg0 O6 2.284089 1_555
Mg1 O6 2.290929 1_555
Mg1 O4 2.290929 1_565
Mg1 O6 2.290929 1_556
Mg1 O4 2.290929 1_555
Mg2 O3 2.212814 1_455
Mg2 O0 2.315548 1_555
Mg2 O0 2.315548 1_556
Mg2 O4 2.360923 1_555
Mg3 O3 2.068854 1_555
Mg3 O4 2.137433 1_555
Mg3 O1 2.298136 1_555
Mg3 O1 2.298136 1_556
Mg3 O2 2.321022 1_555
Mg3 O2 2.321022 1_545
Mg4 O5 2.212814 1_455
Mg4 O0 2.315548 1_555
Mg4 O0 2.315548 1_565
Mg4 O6 2.360923 1_555
Mg5 O5 2.068854 1_555
Mg5 O6 2.137433 1_555
Mg5 O1 2.298136 1_555
Mg5 O1 2.298136 1_565
Mg5 O2 2.321022 1_555
Mg5 O2 2.321022 1_554
B0 O2 1.383846 1_555
O0 Rb0 2.438226 1_555
O1 Rb0 2.484873 1_655
O3 Rb0 2.289052 1_656
O3 Rb0 2.289052 1_655
O5 Rb0 2.289052 1_665
O5 Rb0 2.289052 1_655
