# generated using pymatgen
data_Sm2Co14B
_symmetry_space_group_name_H-M   'P 1'
_cell_length_a   8.54744500
_cell_length_b   8.54744500
_cell_length_c   11.73499630
_cell_angle_alpha   90.00000000
_cell_angle_beta   90.00000000
_cell_angle_gamma   90.00000000
_symmetry_Int_Tables_number   1
_chemical_formula_structural   Sm2Co14B
_chemical_formula_sum   'Sm8 Co56 B4'
_cell_volume   857.34493577
_cell_formula_units_Z   4
loop_
 _symmetry_equiv_pos_site_id
 _symmetry_equiv_pos_as_xyz
  1  'x, y, z'
loop_
 _atom_site_type_symbol
 _atom_site_label
 _atom_site_symmetry_multiplicity
 _atom_site_fract_x
 _atom_site_fract_y
 _atom_site_fract_z
 _atom_site_occupancy
  Sm  Sm0  1  0.22778377  0.77221623  0.50000000  1
  Sm  Sm1  1  0.77221623  0.22778377  0.50000000  1
  Sm  Sm2  1  0.27221623  0.27221623  -0.00000000  1
  Sm  Sm3  1  0.72778377  0.72778377  -0.00000000  1
  Sm  Sm4  1  0.64440487  0.64440487  0.50000000  1
  Sm  Sm5  1  0.35559513  0.35559513  0.50000000  1
  Sm  Sm6  1  0.85559513  0.14440487  -0.00000000  1
  Sm  Sm7  1  0.14440487  0.85559513  -0.00000000  1
  Co  Co0  1  -0.00000000  0.50000000  0.50000000  1
  Co  Co1  1  0.50000000  0.00000000  -0.00000000  1
  Co  Co2  1  0.50000000  0.00000000  0.50000000  1
  Co  Co3  1  -0.00000000  0.50000000  -0.00000000  1
  Co  Co4  1  0.50000000  0.50000000  0.11693301  1
  Co  Co5  1  -0.00000000  0.00000000  0.61693301  1
  Co  Co6  1  0.50000000  0.50000000  0.88306699  1
  Co  Co7  1  -0.00000000  0.00000000  0.38306699  1
  Co  Co8  1  0.18345693  0.81654307  0.25263641  1
  Co  Co9  1  0.81654307  0.18345693  0.25263641  1
  Co  Co10  1  0.31654307  0.31654307  0.75263641  1
  Co  Co11  1  0.68345693  0.68345693  0.75263641  1
  Co  Co12  1  0.81654307  0.18345693  0.74736359  1
  Co  Co13  1  0.18345693  0.81654307  0.74736359  1
  Co  Co14  1  0.68345693  0.68345693  0.24736359  1
  Co  Co15  1  0.31654307  0.31654307  0.24736359  1
  Co  Co16  1  0.40026756  0.59973244  0.29252132  1
  Co  Co17  1  0.59973244  0.40026756  0.29252132  1
  Co  Co18  1  0.09973244  0.09973244  0.79252132  1
  Co  Co19  1  0.90026756  0.90026756  0.79252132  1
  Co  Co20  1  0.59973244  0.40026756  0.70747868  1
  Co  Co21  1  0.40026756  0.59973244  0.70747868  1
  Co  Co22  1  0.90026756  0.90026756  0.20747868  1
  Co  Co23  1  0.09973244  0.09973244  0.20747868  1
  Co  Co24  1  0.14162784  0.53371042  0.32073264  1
  Co  Co25  1  0.85837216  0.46628958  0.32073264  1
  Co  Co26  1  0.35837216  0.03371042  0.82073264  1
  Co  Co27  1  0.64162784  0.96628958  0.82073264  1
  Co  Co28  1  0.85837216  0.46628958  0.67926736  1
  Co  Co29  1  0.14162784  0.53371042  0.67926736  1
  Co  Co30  1  0.64162784  0.96628958  0.17926736  1
  Co  Co31  1  0.35837216  0.03371042  0.17926736  1
  Co  Co32  1  0.53371042  0.14162784  0.32073264  1
  Co  Co33  1  0.46628958  0.85837216  0.32073264  1
  Co  Co34  1  0.03371042  0.35837216  0.82073264  1
  Co  Co35  1  0.96628958  0.64162784  0.82073264  1
  Co  Co36  1  0.46628958  0.85837216  0.67926736  1
  Co  Co37  1  0.53371042  0.14162784  0.67926736  1
  Co  Co38  1  0.96628958  0.64162784  0.17926736  1
  Co  Co39  1  0.03371042  0.35837216  0.17926736  1
  Co  Co40  1  0.93328886  0.72225774  0.37491731  1
  Co  Co41  1  0.06671114  0.27774226  0.37491731  1
  Co  Co42  1  0.56671114  0.22225774  0.87491731  1
  Co  Co43  1  0.43328886  0.77774226  0.87491731  1
  Co  Co44  1  0.06671114  0.27774226  0.62508269  1
  Co  Co45  1  0.93328886  0.72225774  0.62508269  1
  Co  Co46  1  0.43328886  0.77774226  0.12508269  1
  Co  Co47  1  0.56671114  0.22225774  0.12508269  1
  Co  Co48  1  0.72225774  0.93328886  0.37491731  1
  Co  Co49  1  0.27774226  0.06671114  0.37491731  1
  Co  Co50  1  0.22225774  0.56671114  0.87491731  1
  Co  Co51  1  0.77774226  0.43328886  0.87491731  1
  Co  Co52  1  0.27774226  0.06671114  0.62508269  1
  Co  Co53  1  0.72225774  0.93328886  0.62508269  1
  Co  Co54  1  0.77774226  0.43328886  0.12508269  1
  Co  Co55  1  0.22225774  0.56671114  0.12508269  1
  B  B0  1  0.87579255  0.87579255  0.50000000  1
  B  B1  1  0.12420745  0.12420745  0.50000000  1
  B  B2  1  0.62420745  0.37579255  -0.00000000  1
  B  B3  1  0.37579255  0.62420745  -0.00000000  1
loop_
_geom_bond_atom_site_label_1
_geom_bond_atom_site_label_2
_geom_bond_distance
_geom_bond_site_symmetry_2
Co0 Co28 2.444183 1_455
Co0 Co25 2.444183 1_455
Co0 Co29 2.444183 1_555
Co0 Co24 2.444183 1_555
Co0 Co41 2.467530 1_555
Co0 Co40 2.467530 1_455
Co0 Co45 2.467530 1_455
Co0 Co44 2.467530 1_555
Co0 Sm1 3.033887 1_455
Co0 Sm0 3.033887 1_555
Co0 Sm5 3.280490 1_555
Co0 Sm4 3.280490 1_455
Co1 Co26 2.444183 1_554
Co1 Co27 2.444183 1_544
Co1 Co31 2.444183 1_555
Co1 Co30 2.444183 1_545
Co1 Co43 2.467530 1_544
Co1 Co42 2.467530 1_554
Co1 Co46 2.467530 1_545
Co1 Co47 2.467530 1_555
Co1 Sm3 3.033887 1_545
Co1 Sm2 3.033887 1_555
Co1 Sm7 3.280490 1_545
Co1 Sm6 3.280490 1_555
Co2 Co33 2.444183 1_545
Co2 Co36 2.444183 1_545
Co2 Co32 2.444183 1_555
Co2 Co37 2.444183 1_555
Co2 Co48 2.467530 1_545
Co2 Co49 2.467530 1_555
Co2 Co53 2.467530 1_545
Co2 Co52 2.467530 1_555
Co2 Sm0 3.033887 1_545
Co2 Sm1 3.033887 1_555
Co2 Sm5 3.280490 1_555
Co2 Sm4 3.280490 1_545
Co3 Co34 2.444183 1_554
Co3 Co39 2.444183 1_555
Co3 Co35 2.444183 1_454
Co3 Co38 2.444183 1_455
Co3 Co51 2.467530 1_454
Co3 Co50 2.467530 1_554
Co3 Co54 2.467530 1_455
Co3 Co55 2.467530 1_555
Co3 Sm3 3.033887 1_455
Co3 Sm2 3.033887 1_555
Co3 Sm7 3.280490 1_555
Co3 Sm6 3.280490 1_455
Co4 Sm2 3.076416 1_555
Co4 Sm3 3.076416 1_555
Co5 Sm1 3.076416 1_455
Co5 Sm0 3.076416 1_545
Co6 Sm2 3.076416 1_556
Co6 Sm3 3.076416 1_556
Co7 Co8 2.694540 1_545
Co7 Co9 2.694540 1_455
Co7 Sm1 3.076416 1_455
Co7 Sm0 3.076416 1_545
Co8 Sm0 2.951849 1_555
Co8 Sm7 3.002034 1_555
Co9 Sm1 2.951849 1_555
Co9 Sm6 3.002034 1_555
Co10 Co37 2.534192 1_555
Co10 Co29 2.534192 1_555
Co10 Co26 2.571127 1_555
Co10 Co34 2.571127 1_555
Co10 Co20 2.579145 1_555
Co10 Co21 2.579145 1_555
Co10 Co52 2.628796 1_555
Co10 Co44 2.628796 1_555
Co10 Co18 2.662255 1_555
Co10 Co6 2.694540 1_555
Co10 Co42 2.698318 1_555
Co10 Co50 2.698318 1_555
Co10 Sm2 2.951849 1_556
Co10 Sm5 3.002034 1_555
Co11 Co28 2.534192 1_555
Co11 Co36 2.534192 1_555
Co11 Co27 2.571127 1_555
Co11 Co35 2.571127 1_555
Co11 Co21 2.579145 1_555
Co11 Co20 2.579145 1_555
Co11 Co45 2.628796 1_555
Co11 Co53 2.628796 1_555
Co11 Co19 2.662255 1_555
Co11 Co6 2.694540 1_555
Co11 Co43 2.698318 1_555
Co11 Co51 2.698318 1_555
Co11 Sm3 2.951849 1_556
Co11 Sm4 3.002034 1_555
Co12 Co27 2.534192 1_545
Co12 Co34 2.534192 1_655
Co12 Co28 2.571127 1_555
Co12 Co37 2.571127 1_555
Co12 Co18 2.579145 1_655
Co12 Co19 2.579145 1_545
Co12 Co51 2.628796 1_555
Co12 Co42 2.628796 1_555
Co12 Co20 2.662255 1_555
Co12 Co5 2.694540 1_655
Co12 Co44 2.698318 1_655
Co12 Co53 2.698318 1_545
Co12 Sm1 2.951849 1_555
Co12 Sm6 3.002034 1_556
Co13 Co26 2.534192 1_565
Co13 Co35 2.534192 1_455
Co13 Co29 2.571127 1_555
Co13 Co36 2.571127 1_555
Co13 Co18 2.579145 1_565
Co13 Co19 2.579145 1_455
Co13 Co43 2.628796 1_555
Co13 Co50 2.628796 1_555
Co13 Co21 2.662255 1_555
Co13 Co5 2.694540 1_565
Co13 Co45 2.698318 1_455
Co13 Co52 2.698318 1_565
Co13 Sm0 2.951849 1_555
Co13 Sm7 3.002034 1_556
Co14 Co33 2.534192 1_555
Co14 Co25 2.534192 1_555
Co14 Co30 2.571127 1_555
Co14 Co38 2.571127 1_555
Co14 Co16 2.579145 1_555
Co14 Co17 2.579145 1_555
Co14 Co48 2.628796 1_555
Co14 Co40 2.628796 1_555
Co14 Co22 2.662255 1_555
Co14 Co4 2.694540 1_555
Co14 Co46 2.698318 1_555
Co14 Co54 2.698318 1_555
Co14 Sm3 2.951849 1_555
Co14 Sm4 3.002034 1_555
Co15 Co24 2.534192 1_555
Co15 Co32 2.534192 1_555
Co15 Co31 2.571127 1_555
Co15 Co39 2.571127 1_555
Co15 Co16 2.579145 1_555
Co15 Co17 2.579145 1_555
Co15 Co41 2.628796 1_555
Co15 Co49 2.628796 1_555
Co15 Co23 2.662255 1_555
Co15 Co4 2.694540 1_555
Co15 Co47 2.698318 1_555
Co15 Co55 2.698318 1_555
Co15 Sm2 2.951849 1_555
Co15 Sm5 3.002034 1_555
Co16 Co24 2.305491 1_555
Co16 Co33 2.305491 1_555
Co16 Co4 2.387288 1_555
Co16 Co17 2.411114 1_555
Co16 Co55 2.501103 1_555
Co16 Co46 2.501103 1_555
Co16 Co8 2.662255 1_555
Co16 Sm0 3.205489 1_555
Co16 Sm4 3.229302 1_555
Co16 Sm5 3.229302 1_555
Co17 Co32 2.305491 1_555
Co17 Co25 2.305491 1_555
Co17 Co4 2.387288 1_555
Co17 Co54 2.501103 1_555
Co17 Co47 2.501103 1_555
Co17 Co9 2.662255 1_555
Co17 Sm1 3.205489 1_555
Co17 Sm4 3.229302 1_555
Co17 Sm5 3.229302 1_555
Co18 Co26 2.305491 1_555
Co18 Co34 2.305491 1_555
Co18 Co5 2.387288 1_555
Co18 Co19 2.411114 1_445
Co18 Co44 2.501103 1_555
Co18 Co52 2.501103 1_555
Co18 Sm2 3.205489 1_556
Co18 Sm6 3.229302 1_456
Co18 Sm7 3.229302 1_546
Co19 Co27 2.305491 1_555
Co19 Co35 2.305491 1_555
Co19 Co5 2.387288 1_665
Co19 Co45 2.501103 1_555
Co19 Co53 2.501103 1_555
Co19 Sm3 3.205489 1_556
Co19 Sm6 3.229302 1_566
Co19 Sm7 3.229302 1_656
Co20 Co28 2.305491 1_555
Co20 Co37 2.305491 1_555
Co20 Co6 2.387288 1_555
Co20 Co21 2.411114 1_555
Co20 Co51 2.501103 1_555
Co20 Co42 2.501103 1_555
Co20 Sm1 3.205489 1_555
Co20 Sm5 3.229302 1_555
Co20 Sm4 3.229302 1_555
Co21 Co29 2.305491 1_555
Co21 Co36 2.305491 1_555
Co21 Co6 2.387288 1_555
Co21 Co50 2.501103 1_555
Co21 Co43 2.501103 1_555
Co21 Sm0 3.205489 1_555
Co21 Sm4 3.229302 1_555
Co21 Sm5 3.229302 1_555
Co22 Co30 2.305491 1_555
Co22 Co38 2.305491 1_555
Co22 Co7 2.387288 1_665
Co22 Co23 2.411114 1_665
Co22 Co40 2.501103 1_555
Co22 Co48 2.501103 1_555
Co22 Co9 2.579145 1_565
Co22 Co8 2.579145 1_655
Co22 Sm3 3.205489 1_555
Co22 Sm7 3.229302 1_655
Co22 Sm6 3.229302 1_565
Co23 Co31 2.305491 1_555
Co23 Co39 2.305491 1_555
Co23 Co7 2.387288 1_555
Co23 Co41 2.501103 1_555
Co23 Co49 2.501103 1_555
Co23 Co8 2.579145 1_545
Co23 Co9 2.579145 1_455
Co23 Sm2 3.205489 1_555
Co23 Sm6 3.229302 1_455
Co23 Sm7 3.229302 1_545
Co24 Co41 2.366675 1_555
Co24 Co55 2.413696 1_555
Co24 Co39 2.419267 1_555
Co24 Co38 2.419267 1_455
Co24 Co40 2.484490 1_455
Co24 Co25 2.488750 1_455
Co24 Co8 2.571127 1_555
Co24 Sm0 3.020566 1_555
Co24 Sm5 3.176182 1_555
Co25 Co40 2.366675 1_555
Co25 Co54 2.413696 1_555
Co25 Co38 2.419267 1_555
Co25 Co39 2.419267 1_655
Co25 Co41 2.484490 1_655
Co25 Co9 2.571127 1_555
Co25 Sm1 3.020566 1_555
Co25 Sm4 3.176182 1_555
Co26 Co43 2.366675 1_545
Co26 Co52 2.413696 1_555
Co26 Co36 2.419267 1_545
Co26 Co37 2.419267 1_555
Co26 Co42 2.484490 1_555
Co26 Co27 2.488750 1_545
Co26 Sm2 3.020566 1_556
Co26 Sm7 3.176182 1_546
Co27 Co42 2.366675 1_565
Co27 Co53 2.413696 1_555
Co27 Co37 2.419267 1_565
Co27 Co36 2.419267 1_555
Co27 Co43 2.484490 1_555
Co27 Sm3 3.020566 1_556
Co27 Sm6 3.176182 1_566
Co28 Co45 2.366675 1_555
Co28 Co51 2.413696 1_555
Co28 Co35 2.419267 1_555
Co28 Co34 2.419267 1_655
Co28 Co44 2.484490 1_655
Co28 Co29 2.488750 1_655
Co28 Sm1 3.020566 1_555
Co28 Sm4 3.176182 1_555
Co29 Co44 2.366675 1_555
Co29 Co50 2.413696 1_555
Co29 Co34 2.419267 1_555
Co29 Co35 2.419267 1_455
Co29 Co45 2.484490 1_455
Co29 Sm0 3.020566 1_555
Co29 Sm5 3.176182 1_555
Co30 Co47 2.366675 1_565
Co30 Co48 2.413696 1_555
Co30 Co33 2.419267 1_555
Co30 Co32 2.419267 1_565
Co30 Co46 2.484490 1_555
Co30 Co31 2.488750 1_565
Co30 Co9 2.534192 1_565
Co30 Sm3 3.020566 1_555
Co30 Sm6 3.176182 1_565
Co31 Co46 2.366675 1_545
Co31 Co49 2.413696 1_555
Co31 Co33 2.419267 1_545
Co31 Co32 2.419267 1_555
Co31 Co47 2.484490 1_555
Co31 Co8 2.534192 1_545
Co31 Sm2 3.020566 1_555
Co31 Sm7 3.176182 1_545
Co32 Co49 2.366675 1_555
Co32 Co47 2.413696 1_555
Co32 Co48 2.484490 1_545
Co32 Co33 2.488750 1_545
Co32 Co9 2.571127 1_555
Co32 Sm1 3.020566 1_555
Co32 Sm5 3.176182 1_555
Co33 Co48 2.366675 1_555
Co33 Co46 2.413696 1_555
Co33 Co49 2.484490 1_565
Co33 Co8 2.571127 1_555
Co33 Sm0 3.020566 1_555
Co33 Sm4 3.176182 1_555
Co34 Co51 2.366675 1_455
Co34 Co44 2.413696 1_555
Co34 Co50 2.484490 1_555
Co34 Co35 2.488750 1_455
Co34 Sm2 3.020566 1_556
Co34 Sm6 3.176182 1_456
Co35 Co50 2.366675 1_655
Co35 Co45 2.413696 1_555
Co35 Co51 2.484490 1_555
Co35 Sm3 3.020566 1_556
Co35 Sm7 3.176182 1_656
Co36 Co53 2.366675 1_555
Co36 Co43 2.413696 1_555
Co36 Co52 2.484490 1_565
Co36 Co37 2.488750 1_565
Co36 Sm0 3.020566 1_555
Co36 Sm4 3.176182 1_555
Co37 Co52 2.366675 1_555
Co37 Co42 2.413696 1_555
Co37 Co53 2.484490 1_545
Co37 Sm1 3.020566 1_555
Co37 Sm5 3.176182 1_555
Co38 Co55 2.366675 1_655
Co38 Co40 2.413696 1_555
Co38 Co54 2.484490 1_555
Co38 Co39 2.488750 1_655
Co38 Co8 2.534192 1_655
Co38 Sm3 3.020566 1_555
Co38 Sm7 3.176182 1_655
Co39 Co54 2.366675 1_455
Co39 Co41 2.413696 1_555
Co39 Co55 2.484490 1_555
Co39 Co9 2.534192 1_455
Co39 Sm2 3.020566 1_555
Co39 Sm6 3.176182 1_455
Co40 Co8 2.698318 1_655
Co40 Sm0 2.945013 1_655
Co40 Sm4 2.948632 1_555
Co41 Co9 2.698318 1_455
Co41 Sm1 2.945013 1_455
Co41 Sm5 2.948632 1_555
Co42 Sm2 2.945013 1_556
Co42 Sm6 2.948632 1_556
Co43 Sm3 2.945013 1_556
Co43 Sm7 2.948632 1_556
Co44 Sm1 2.945013 1_455
Co44 Sm5 2.948632 1_555
Co45 Sm0 2.945013 1_655
Co45 Sm4 2.948632 1_555
Co46 Co8 2.628796 1_555
Co46 Sm3 2.945013 1_555
Co46 Sm7 2.948632 1_555
Co47 Co9 2.628796 1_555
Co47 Sm2 2.945013 1_555
Co47 Sm6 2.948632 1_555
Co48 Co9 2.698318 1_565
Co48 Sm1 2.945013 1_565
Co48 Sm4 2.948632 1_555
Co49 Co8 2.698318 1_545
Co49 Sm0 2.945013 1_545
Co49 Sm5 2.948632 1_555
Co50 Sm2 2.945013 1_556
Co50 Sm7 2.948632 1_556
Co51 Sm3 2.945013 1_556
Co51 Sm6 2.948632 1_556
Co52 Sm0 2.945013 1_545
Co52 Sm5 2.948632 1_555
Co53 Sm1 2.945013 1_565
Co53 Sm4 2.948632 1_555
Co54 Co9 2.628796 1_555
Co54 Sm3 2.945013 1_555
Co54 Sm6 2.948632 1_555
Co55 Co8 2.628796 1_555
Co55 Sm2 2.945013 1_555
Co55 Sm7 2.948632 1_555
B0 Co40 2.029359 1_555
B0 Co48 2.029359 1_555
B0 Co45 2.029359 1_555
B0 Co53 2.029359 1_555
B0 Co5 2.034007 1_665
B0 Co7 2.034007 1_665
B0 Sm4 2.796994 1_555
B0 Sm0 3.136177 1_655
B0 Sm1 3.136177 1_565
B1 Co41 2.029359 1_555
B1 Co49 2.029359 1_555
B1 Co52 2.029359 1_555
B1 Co44 2.029359 1_555
B1 Co7 2.034007 1_555
B1 Co5 2.034007 1_555
B1 Sm5 2.796994 1_555
B1 Sm1 3.136177 1_455
B1 Sm0 3.136177 1_545
B2 Co42 2.029359 1_554
B2 Co51 2.029359 1_554
B2 Co47 2.029359 1_555
B2 Co54 2.029359 1_555
B2 Co4 2.034007 1_555
B2 Co6 2.034007 1_554
B2 Sm6 2.796994 1_555
B2 Sm2 3.136177 1_555
B2 Sm3 3.136177 1_555
B3 Co50 2.029359 1_554
B3 Co43 2.029359 1_554
B3 Co46 2.029359 1_555
B3 Co55 2.029359 1_555
B3 Co4 2.034007 1_555
B3 Co6 2.034007 1_554
B3 Sm7 2.796994 1_555
B3 Sm2 3.136177 1_555
B3 Sm3 3.136177 1_555
