# generated using pymatgen
data_Er2B6Os
_symmetry_space_group_name_H-M   'P 1'
_cell_length_a   3.62528995
_cell_length_b   9.08162302
_cell_length_c   11.44825638
_cell_angle_alpha   90.00000000
_cell_angle_beta   90.00000000
_cell_angle_gamma   90.00000000
_symmetry_Int_Tables_number   1
_chemical_formula_structural   Er2B6Os
_chemical_formula_sum   'Er8 B24 Os4'
_cell_volume   376.91685970
_cell_formula_units_Z   4
loop_
 _symmetry_equiv_pos_site_id
 _symmetry_equiv_pos_as_xyz
  1  'x, y, z'
loop_
 _atom_site_type_symbol
 _atom_site_label
 _atom_site_symmetry_multiplicity
 _atom_site_fract_x
 _atom_site_fract_y
 _atom_site_fract_z
 _atom_site_occupancy
  Er  Er0  1  0.00000000  0.32131589  0.41409715  1
  Er  Er1  1  -0.00000000  0.67868411  0.58590285  1
  Er  Er2  1  0.00000000  0.82131589  0.08590285  1
  Er  Er3  1  -0.00000000  0.17868411  0.91409715  1
  Er  Er4  1  0.00000000  0.94395348  0.37345452  1
  Er  Er5  1  -0.00000000  0.05604652  0.62654548  1
  Er  Er6  1  0.00000000  0.44395348  0.12654548  1
  Er  Er7  1  -0.00000000  0.55604652  0.87345452  1
  B  B0  1  0.50000000  0.55339845  0.43325422  1
  B  B1  1  0.50000000  0.44660155  0.56674578  1
  B  B2  1  0.50000000  0.05339845  0.06674578  1
  B  B3  1  0.50000000  0.94660155  0.93325422  1
  B  B4  1  0.50000000  0.74777188  0.42033570  1
  B  B5  1  0.50000000  0.25222812  0.57966430  1
  B  B6  1  0.50000000  0.24777188  0.07966430  1
  B  B7  1  0.50000000  0.75222812  0.92033570  1
  B  B8  1  0.50000000  0.79083426  0.26650533  1
  B  B9  1  0.50000000  0.20916574  0.73349467  1
  B  B10  1  0.50000000  0.29083426  0.23349467  1
  B  B11  1  0.50000000  0.70916574  0.76650533  1
  B  B12  1  0.50000000  0.63151138  0.18525539  1
  B  B13  1  0.50000000  0.36848862  0.81474461  1
  B  B14  1  0.50000000  0.13151138  0.31474461  1
  B  B15  1  0.50000000  0.86848862  0.68525539  1
  B  B16  1  0.50000000  0.98237546  0.21307350  1
  B  B17  1  0.50000000  0.01762454  0.78692650  1
  B  B18  1  0.50000000  0.48237546  0.28692650  1
  B  B19  1  0.50000000  0.51762454  0.71307350  1
  B  B20  1  0.50000000  0.60925543  0.03032497  1
  B  B21  1  0.50000000  0.39074457  0.96967503  1
  B  B22  1  0.50000000  0.10925543  0.46967503  1
  B  B23  1  0.50000000  0.89074457  0.53032497  1
  Os  Os0  1  -0.00000000  0.63710382  0.32148596  1
  Os  Os1  1  -0.00000000  0.36289618  0.67851404  1
  Os  Os2  1  0.00000000  0.13710382  0.17851404  1
  Os  Os3  1  0.00000000  0.86289618  0.82148596  1
loop_
_geom_bond_atom_site_label_1
_geom_bond_atom_site_label_2
_geom_bond_distance
_geom_bond_site_symmetry_2
Er0 Os1 3.050574 1_555
Er0 Os0 3.057575 1_555
Er0 Os2 3.173742 1_555
Er1 Os0 3.050574 1_555
Er1 Os1 3.057575 1_555
Er1 Os3 3.173742 1_555
Er2 Os3 3.050574 1_554
Er2 Os2 3.057575 1_565
Er2 Os0 3.173742 1_555
Er3 Os2 3.050574 1_556
Er3 Os3 3.057575 1_545
Er3 Os1 3.173742 1_555
Er4 Os2 2.838581 1_565
Er4 Os0 2.849495 1_555
Er5 Os3 2.838581 1_545
Er5 Os1 2.849495 1_555
Er6 Os0 2.838581 1_555
Er6 Os2 2.849495 1_555
Er7 Os1 2.838581 1_555
Er7 Os3 2.849495 1_555
B0 B4 1.771411 1_555
B0 B18 1.795081 1_555
B0 B1 1.810033 1_555
B0 Os0 2.345380 1_555
B0 Os0 2.345380 1_655
B0 Er1 2.763011 1_655
B0 Er1 2.763011 1_555
B0 Er0 2.788570 1_655
B0 Er0 2.788570 1_555
B1 B5 1.771411 1_555
B1 B19 1.795081 1_555
B1 Os1 2.345380 1_655
B1 Os1 2.345380 1_555
B1 Er0 2.763011 1_655
B1 Er0 2.763011 1_555
B1 Er1 2.788570 1_555
B1 Er1 2.788570 1_655
B2 B6 1.771411 1_555
B2 B3 1.810033 1_544
B2 Os2 2.345380 1_655
B2 Os2 2.345380 1_555
B2 Er3 2.763011 1_654
B2 Er3 2.763011 1_554
B2 Er2 2.788570 1_545
B2 Er2 2.788570 1_645
B3 B7 1.771411 1_555
B3 Os3 2.345380 1_655
B3 Os3 2.345380 1_555
B3 Er2 2.763011 1_656
B3 Er2 2.763011 1_556
B3 Er3 2.788570 1_565
B3 Er3 2.788570 1_665
B4 B8 1.803989 1_555
B4 Os0 2.361450 1_555
B4 Os0 2.361450 1_655
B4 Er4 2.597692 1_655
B4 Er4 2.597692 1_555
B4 Er1 2.696683 1_655
B4 Er1 2.696683 1_555
B5 B9 1.803989 1_555
B5 Os1 2.361450 1_655
B5 Os1 2.361450 1_555
B5 Er5 2.597692 1_655
B5 Er5 2.597692 1_555
B5 Er0 2.696683 1_655
B5 Er0 2.696683 1_555
B6 Os2 2.361450 1_655
B6 Os2 2.361450 1_555
B6 Er6 2.597692 1_655
B6 Er6 2.597692 1_555
B6 Er3 2.696683 1_554
B6 Er3 2.696683 1_654
B7 Os3 2.361450 1_655
B7 Os3 2.361450 1_555
B7 Er7 2.597692 1_655
B7 Er7 2.597692 1_555
B7 Er2 2.696683 1_656
B7 Er2 2.696683 1_556
B8 Os0 2.372978 1_555
B8 Os0 2.372978 1_655
B8 Er4 2.592003 1_555
B8 Er4 2.592003 1_655
B8 Er2 2.763551 1_555
B8 Er2 2.763551 1_655
B9 Os1 2.372978 1_655
B9 Os1 2.372978 1_555
B9 Er5 2.592003 1_555
B9 Er5 2.592003 1_655
B9 Er3 2.763551 1_655
B9 Er3 2.763551 1_555
B10 B14 1.720106 1_555
B10 B6 1.803989 1_555
B10 B18 1.843924 1_555
B10 Os2 2.372978 1_655
B10 Os2 2.372978 1_555
B10 Er6 2.592003 1_555
B10 Er6 2.592003 1_655
B10 Er0 2.763551 1_655
B10 Er0 2.763551 1_555
B11 B15 1.720106 1_555
B11 B7 1.803989 1_555
B11 B19 1.843924 1_555
B11 Os3 2.372978 1_655
B11 Os3 2.372978 1_555
B11 Er7 2.592003 1_655
B11 Er7 2.592003 1_555
B11 Er1 2.763551 1_555
B11 Er1 2.763551 1_655
B12 B8 1.720106 1_555
B12 B20 1.785162 1_555
B12 B18 1.785829 1_555
B12 Os0 2.391782 1_555
B12 Os0 2.391782 1_655
B12 Er6 2.576581 1_555
B12 Er6 2.576581 1_655
B12 Er2 2.747844 1_555
B12 Er2 2.747844 1_655
B13 B9 1.720106 1_555
B13 B21 1.785162 1_555
B13 B19 1.785829 1_555
B13 Os1 2.391782 1_655
B13 Os1 2.391782 1_555
B13 Er7 2.576581 1_555
B13 Er7 2.576581 1_655
B13 Er3 2.747844 1_555
B13 Er3 2.747844 1_655
B14 B22 1.785162 1_555
B14 B16 1.785829 1_545
B14 Os2 2.391782 1_555
B14 Os2 2.391782 1_655
B14 Er4 2.576581 1_545
B14 Er4 2.576581 1_645
B14 Er0 2.747844 1_555
B14 Er0 2.747844 1_655
B15 B23 1.785162 1_555
B15 B17 1.785829 1_565
B15 Os3 2.391782 1_655
B15 Os3 2.391782 1_555
B15 Er5 2.576581 1_565
B15 Er5 2.576581 1_665
B15 Er1 2.747844 1_655
B15 Er1 2.747844 1_555
B16 B2 1.795081 1_565
B16 B8 1.843924 1_555
B16 Os2 2.327394 1_565
B16 Os2 2.327394 1_665
B16 Er4 2.603582 1_655
B16 Er4 2.603582 1_555
B16 Er2 2.746764 1_555
B16 Er2 2.746764 1_655
B17 B3 1.795081 1_545
B17 B9 1.843924 1_555
B17 Os3 2.327394 1_645
B17 Os3 2.327394 1_545
B17 Er5 2.603582 1_555
B17 Er5 2.603582 1_655
B17 Er3 2.746764 1_655
B17 Er3 2.746764 1_555
B18 Os0 2.327394 1_655
B18 Os0 2.327394 1_555
B18 Er6 2.603582 1_555
B18 Er6 2.603582 1_655
B18 Er0 2.746764 1_555
B18 Er0 2.746764 1_655
B19 Os1 2.327394 1_655
B19 Os1 2.327394 1_555
B19 Er7 2.603582 1_655
B19 Er7 2.603582 1_555
B19 Er1 2.746764 1_655
B19 Er1 2.746764 1_555
B20 B7 1.808716 1_554
B20 B21 2.102398 1_554
B20 Er7 2.597002 1_654
B20 Er7 2.597002 1_554
B20 Er6 2.598604 1_555
B20 Er6 2.598604 1_655
B20 Er2 2.720190 1_655
B20 Er2 2.720190 1_555
B21 B6 1.808716 1_556
B21 Er6 2.597002 1_656
B21 Er6 2.597002 1_556
B21 Er7 2.598604 1_555
B21 Er7 2.598604 1_655
B21 Er3 2.720190 1_655
B21 Er3 2.720190 1_555
B22 B5 1.808716 1_555
B22 B23 2.102398 1_545
B22 Er5 2.597002 1_555
B22 Er5 2.597002 1_655
B22 Er4 2.598604 1_645
B22 Er4 2.598604 1_545
B22 Er0 2.720190 1_555
B22 Er0 2.720190 1_655
B23 B4 1.808716 1_555
B23 Er4 2.597002 1_655
B23 Er4 2.597002 1_555
B23 Er5 2.598604 1_565
B23 Er5 2.598604 1_665
B23 Er1 2.720190 1_655
B23 Er1 2.720190 1_555
