# generated using pymatgen
data_CaMn2O5
_symmetry_space_group_name_H-M   'P 1'
_cell_length_a   3.80161100
_cell_length_b   5.74725948
_cell_length_c   11.39414400
_cell_angle_alpha   90.00000000
_cell_angle_beta   90.00000000
_cell_angle_gamma   109.31323605
_symmetry_Int_Tables_number   1
_chemical_formula_structural   CaMn2O5
_chemical_formula_sum   'Ca2 Mn4 O10'
_cell_volume   234.93917983
_cell_formula_units_Z   2
loop_
 _symmetry_equiv_pos_site_id
 _symmetry_equiv_pos_as_xyz
  1  'x, y, z'
loop_
 _atom_site_type_symbol
 _atom_site_label
 _atom_site_symmetry_multiplicity
 _atom_site_fract_x
 _atom_site_fract_y
 _atom_site_fract_z
 _atom_site_occupancy
  Ca  Ca0  1  0.90503800  0.81007500  0.75000000  1
  Ca  Ca1  1  0.09496300  0.18992600  0.25000000  1
  Mn  Mn0  1  0.21140700  0.42281500  0.59614700  1
  Mn  Mn1  1  0.78859400  0.57718600  0.40385200  1
  Mn  Mn2  1  0.78859400  0.57718600  0.09614800  1
  Mn  Mn3  1  0.21140700  0.42281500  0.90385300  1
  O  O0  1  0.71812600  0.43625200  0.25000000  1
  O  O1  1  0.28187500  0.56374900  0.75000000  1
  O  O2  1  0.24380900  0.48761600  0.07518800  1
  O  O3  1  0.75619300  0.51238500  0.92481200  1
  O  O4  1  0.75619300  0.51238500  0.57518800  1
  O  O5  1  0.24380900  0.48761600  0.42481100  1
  O  O6  1  0.05577100  0.11154000  0.62000400  1
  O  O7  1  0.94422900  0.88845900  0.37999600  1
  O  O8  1  0.05577100  0.11154000  0.87999600  1
  O  O9  1  0.94422900  0.88845900  0.12000500  1
loop_
_geom_bond_atom_site_label_1
_geom_bond_atom_site_label_2
_geom_bond_distance
_geom_bond_site_symmetry_2
Ca0 O6 2.206234 1_665
Ca0 O8 2.206234 1_665
Ca0 O1 2.323368 1_655
Ca0 O1 2.323368 1_555
Ca0 O4 2.564059 1_555
Ca0 O3 2.564059 1_555
Ca1 O9 2.206234 1_445
Ca1 O7 2.206242 1_445
Ca1 O0 2.323368 1_455
Ca1 O0 2.323368 1_555
Ca1 O5 2.564050 1_555
Ca1 O2 2.564059 1_555
Mn0 O6 1.710046 1_555
Mn0 O1 1.912433 1_555
Mn0 O4 1.976383 1_455
Mn0 O4 1.976391 1_555
Mn0 O5 1.983613 1_555
Mn1 O7 1.710034 1_555
Mn1 O0 1.912423 1_555
Mn1 O5 1.976387 1_655
Mn1 O5 1.976387 1_555
Mn1 O4 1.983613 1_555
Mn2 O9 1.710035 1_555
Mn2 O0 1.912423 1_555
Mn2 O2 1.976388 1_655
Mn2 O2 1.976388 1_555
Mn2 O3 1.983613 1_554
Mn3 O8 1.710046 1_555
Mn3 O1 1.912433 1_555
Mn3 O3 1.976383 1_455
Mn3 O3 1.976391 1_555
Mn3 O2 1.983602 1_556
