# generated using pymatgen
data_Gd2ZnTe2(SO7)2
_symmetry_space_group_name_H-M   'P 1'
_cell_length_a   5.33234000
_cell_length_b   7.99024849
_cell_length_c   8.24370484
_cell_angle_alpha   116.13536338
_cell_angle_beta   106.61695293
_cell_angle_gamma   85.34746351
_symmetry_Int_Tables_number   1
_chemical_formula_structural   Gd2ZnTe2(SO7)2
_chemical_formula_sum   'Gd2 Zn1 Te2 S2 O14'
_cell_volume   301.74564853
_cell_formula_units_Z   1
loop_
 _symmetry_equiv_pos_site_id
 _symmetry_equiv_pos_as_xyz
  1  'x, y, z'
loop_
 _atom_site_type_symbol
 _atom_site_label
 _atom_site_symmetry_multiplicity
 _atom_site_fract_x
 _atom_site_fract_y
 _atom_site_fract_z
 _atom_site_occupancy
  Gd  Gd0  1  0.08177100  0.25257800  0.98488200  1
  Gd  Gd1  1  0.91822900  0.74742200  0.01511800  1
  Zn  Zn0  1  0.00000000  0.00000000  0.50000000  1
  Te  Te0  1  0.51621100  0.27068800  0.66016900  1
  Te  Te1  1  0.48378900  0.72931200  0.33983100  1
  S  S0  1  0.76176200  0.24727600  0.25257700  1
  S  S1  1  0.23823800  0.75272400  0.74742300  1
  O  O0  1  0.88719300  0.40810100  0.25506100  1
  O  O1  1  0.11280700  0.59189900  0.74493900  1
  O  O2  1  0.87071400  0.23072400  0.43100600  1
  O  O3  1  0.12928600  0.76927600  0.56899400  1
  O  O4  1  0.47419200  0.26678900  0.22005100  1
  O  O5  1  0.52580800  0.73321100  0.77994900  1
  O  O6  1  0.82207100  0.07835100  0.09054700  1
  O  O7  1  0.17792900  0.92164900  0.90945300  1
  O  O8  1  0.74922100  0.43792400  0.89232200  1
  O  O9  1  0.25077900  0.56207600  0.10767800  1
  O  O10  1  0.27840100  0.19340000  0.75051300  1
  O  O11  1  0.72159900  0.80660000  0.24948700  1
  O  O12  1  0.75048700  0.07565700  0.66535200  1
  O  O13  1  0.24951300  0.92434300  0.33464800  1
loop_
_geom_bond_atom_site_label_1
_geom_bond_atom_site_label_2
_geom_bond_distance
_geom_bond_site_symmetry_2
Gd0 O10 2.308501 1_555
Gd0 O9 2.363643 1_556
Gd0 O4 2.382093 1_556
Gd0 O8 2.390729 1_455
Gd0 O7 2.480981 1_545
Gd0 O0 2.501139 1_456
Gd0 O12 2.553573 1_455
Gd0 O6 2.585618 1_456
Gd1 O11 2.308501 1_555
Gd1 O8 2.363643 1_554
Gd1 O5 2.382093 1_554
Gd1 O9 2.390729 1_655
Gd1 O6 2.480981 1_565
Gd1 O1 2.501139 1_654
Gd1 O13 2.553573 1_655
Gd1 O7 2.585618 1_654
O0 S0 1.485762 1_555
O1 S1 1.485762 1_555
O2 S0 1.479449 1_555
O2 Zn0 2.165808 1_655
O3 S1 1.479449 1_555
O3 Zn0 2.165808 1_565
O4 S0 1.486764 1_555
O5 S1 1.486764 1_555
O6 S0 1.515372 1_555
O7 S1 1.515372 1_555
O8 Te0 1.910066 1_555
O9 Te1 1.910066 1_555
O10 Te0 1.901705 1_555
O10 Zn0 2.159603 1_555
O11 Te1 1.901705 1_555
O11 Zn0 2.159603 1_665
O12 Te0 1.924366 1_555
O12 Zn0 2.043175 1_655
O13 Te1 1.924366 1_555
O13 Zn0 2.043175 1_565
