# generated using pymatgen
data_Zn7(MoO4)6
_symmetry_space_group_name_H-M   'P 1'
_cell_length_a   7.07284003
_cell_length_b   8.27974250
_cell_length_c   10.17290966
_cell_angle_alpha   103.30296264
_cell_angle_beta   105.62383004
_cell_angle_gamma   100.91727804
_symmetry_Int_Tables_number   1
_chemical_formula_structural   Zn7(MoO4)6
_chemical_formula_sum   'Zn7 Mo6 O24'
_cell_volume   537.87585904
_cell_formula_units_Z   1
loop_
 _symmetry_equiv_pos_site_id
 _symmetry_equiv_pos_as_xyz
  1  'x, y, z'
loop_
 _atom_site_type_symbol
 _atom_site_label
 _atom_site_symmetry_multiplicity
 _atom_site_fract_x
 _atom_site_fract_y
 _atom_site_fract_z
 _atom_site_occupancy
  Zn  Zn0  1  0.04420600  0.20015400  0.01158300  1
  Zn  Zn1  1  0.95579400  0.79984600  0.98841700  1
  Zn  Zn2  1  0.26782300  0.27764000  0.78246700  1
  Zn  Zn3  1  0.73217700  0.72236000  0.21753300  1
  Zn  Zn4  1  0.61494200  0.04088500  0.39420600  1
  Zn  Zn5  1  0.38505800  0.95911500  0.60579400  1
  Zn  Zn6  1  0.00000000  0.50000000  0.50000000  1
  Mo  Mo0  1  0.09669000  0.09706400  0.33591000  1
  Mo  Mo1  1  0.90331000  0.90293600  0.66409000  1
  Mo  Mo2  1  0.22870900  0.64562200  0.27145900  1
  Mo  Mo3  1  0.77129100  0.35437800  0.72854100  1
  Mo  Mo4  1  0.59454200  0.27916700  0.12174200  1
  Mo  Mo5  1  0.40545800  0.72083300  0.87825800  1
  O  O0  1  0.01680300  0.71061400  0.16936500  1
  O  O1  1  0.98319700  0.28938600  0.83063500  1
  O  O2  1  0.05994900  0.04486200  0.14129100  1
  O  O3  1  0.94005100  0.95513800  0.85870900  1
  O  O4  1  0.10984700  0.31267600  0.43855900  1
  O  O5  1  0.89015300  0.68732400  0.56144100  1
  O  O6  1  0.14573300  0.03928700  0.65330100  1
  O  O7  1  0.85426700  0.96071300  0.34669900  1
  O  O8  1  0.18819700  0.42298600  0.19157700  1
  O  O9  1  0.81180300  0.57701400  0.80842300  1
  O  O10  1  0.22378800  0.68048700  0.45327600  1
  O  O11  1  0.77621200  0.31951300  0.54672400  1
  O  O12  1  0.33123100  0.02691600  0.41626600  1
  O  O13  1  0.66876900  0.97308400  0.58373400  1
  O  O14  1  0.35550800  0.27146400  0.98865000  1
  O  O15  1  0.64449200  0.72853600  0.01135000  1
  O  O16  1  0.52810100  0.24490800  0.73380300  1
  O  O17  1  0.47189900  0.75509200  0.26619700  1
  O  O18  1  0.55350800  0.13246700  0.22061400  1
  O  O19  1  0.44649200  0.86753300  0.77938600  1
  O  O20  1  0.71652200  0.49232300  0.24836500  1
  O  O21  1  0.28347800  0.50767700  0.75163500  1
  O  O22  1  0.76635800  0.22756600  0.03134300  1
  O  O23  1  0.23364200  0.77243400  0.96865700  1
loop_
_geom_bond_atom_site_label_1
_geom_bond_atom_site_label_2
_geom_bond_distance
_geom_bond_site_symmetry_2
Mo0 O4 1.820140 1_555
Mo0 O2 1.860280 1_555
Mo0 O12 1.900117 1_555
Mo0 O7 1.910933 1_445
Mo1 O5 1.820140 1_555
Mo1 O3 1.860280 1_555
Mo1 O13 1.900117 1_555
Mo1 O6 1.910933 1_665
Mo2 O8 1.767942 1_555
Mo2 O17 1.806749 1_555
Mo2 O10 1.816138 1_555
Mo2 O0 1.827242 1_555
Mo3 O9 1.767942 1_555
Mo3 O16 1.806749 1_555
Mo3 O11 1.816138 1_555
Mo3 O1 1.827242 1_555
Mo4 O22 1.767151 1_555
Mo4 O18 1.776845 1_555
Mo4 O20 1.815715 1_555
Mo4 O14 1.839008 1_554
Mo5 O23 1.767151 1_555
Mo5 O19 1.776845 1_555
Mo5 O21 1.815715 1_555
Mo5 O15 1.839008 1_556
O0 Zn1 2.106955 1_454
O0 Zn3 2.210376 1_455
O1 Zn0 2.106955 1_656
O1 Zn2 2.210376 1_655
O2 Zn0 2.040242 1_555
O2 Zn1 2.107528 1_444
O3 Zn1 2.040242 1_555
O3 Zn0 2.107528 1_666
O4 Zn6 1.916181 1_555
O5 Zn6 1.916181 1_655
O6 Zn2 1.979116 1_555
O6 Zn5 2.063510 1_545
O7 Zn3 1.979116 1_555
O7 Zn4 2.063510 1_565
O8 Zn0 2.126757 1_555
O9 Zn1 2.126757 1_555
O10 Zn6 2.191028 1_555
O10 Zn5 2.330931 1_555
O11 Zn6 2.191028 1_655
O11 Zn4 2.330931 1_555
O12 Zn4 2.063237 1_555
O12 Zn5 2.088335 1_545
O13 Zn5 2.063237 1_555
O13 Zn4 2.088335 1_565
O14 Zn2 2.036508 1_555
O14 Zn0 2.258000 1_556
O15 Zn3 2.036508 1_555
O15 Zn1 2.258000 1_554
O16 Zn2 2.079803 1_555
O16 Zn5 2.298729 1_545
O17 Zn3 2.079803 1_555
O17 Zn4 2.298729 1_565
O18 Zn4 2.051838 1_555
O19 Zn5 2.051838 1_555
O20 Zn3 1.987980 1_555
O21 Zn2 1.987980 1_555
O22 Zn0 2.077152 1_655
O23 Zn1 2.077152 1_455
