# generated using pymatgen
data_MnCr4CdSe8
_symmetry_space_group_name_H-M   'P 1'
_cell_length_a   7.62869081
_cell_length_b   7.62869081
_cell_length_c   7.62869081
_cell_angle_alpha   60.00000000
_cell_angle_beta   60.00000000
_cell_angle_gamma   60.00000000
_symmetry_Int_Tables_number   1
_chemical_formula_structural   MnCr4CdSe8
_chemical_formula_sum   'Mn1 Cr4 Cd1 Se8'
_cell_volume   313.93160571
_cell_formula_units_Z   1
loop_
 _symmetry_equiv_pos_site_id
 _symmetry_equiv_pos_as_xyz
  1  'x, y, z'
loop_
 _atom_site_type_symbol
 _atom_site_label
 _atom_site_symmetry_multiplicity
 _atom_site_fract_x
 _atom_site_fract_y
 _atom_site_fract_z
 _atom_site_occupancy
  Mn  Mn0  1  0.50000000  0.50000000  0.50000000  1
  Cr  Cr0  1  0.62437800  0.12520700  0.12520700  1
  Cr  Cr1  1  0.12520700  0.62437800  0.12520700  1
  Cr  Cr2  1  0.12520700  0.12520700  0.62437800  1
  Cr  Cr3  1  0.12520700  0.12520700  0.12520700  1
  Cd  Cd0  1  0.75000000  0.75000000  0.75000000  1
  Se  Se0  1  0.32846700  0.89051100  0.89051100  1
  Se  Se1  1  0.89051100  0.32846700  0.89051100  1
  Se  Se2  1  0.89051100  0.89051100  0.32846700  1
  Se  Se3  1  0.89051100  0.89051100  0.89051100  1
  Se  Se4  1  0.90807700  0.36397400  0.36397400  1
  Se  Se5  1  0.36397400  0.90807700  0.36397400  1
  Se  Se6  1  0.36397400  0.36397400  0.90807700  1
  Se  Se7  1  0.36397400  0.36397400  0.36397400  1
loop_
_geom_bond_atom_site_label_1
_geom_bond_atom_site_label_2
_geom_bond_distance
_geom_bond_site_symmetry_2
Mn0 Se5 2.541830 1_555
Mn0 Se6 2.541830 1_555
Mn0 Se4 2.541830 1_555
Mn0 Se7 2.541836 1_555
Cr0 Se3 2.543373 1_544
Cr0 Se1 2.543378 1_554
Cr0 Se2 2.543378 1_545
Cr0 Se7 2.581244 1_555
Cr0 Se6 2.581244 1_554
Cr0 Se5 2.581244 1_545
Cr1 Se3 2.543373 1_454
Cr1 Se2 2.543378 1_455
Cr1 Se0 2.543378 1_554
Cr1 Se7 2.581244 1_555
Cr1 Se6 2.581244 1_554
Cr1 Se4 2.581244 1_455
Cr2 Se3 2.543373 1_445
Cr2 Se1 2.543378 1_455
Cr2 Se0 2.543378 1_545
Cr2 Se7 2.581244 1_555
Cr2 Se5 2.581244 1_545
Cr2 Se4 2.581244 1_455
Cr3 Se1 2.543372 1_454
Cr3 Se0 2.543372 1_544
Cr3 Se2 2.543372 1_445
Cr3 Se4 2.581244 1_455
Cr3 Se6 2.581244 1_554
Cr3 Se5 2.581244 1_545
Cd0 Se3 2.625645 1_555
Cd0 Se0 2.625645 1_555
Cd0 Se2 2.625645 1_555
Cd0 Se1 2.625645 1_555
