# generated using pymatgen
data_BaMnP(O2F)2
_symmetry_space_group_name_H-M   'P 1'
_cell_length_a   13.01595300
_cell_length_b   5.26544800
_cell_length_c   8.04711834
_cell_angle_alpha   63.87991978
_cell_angle_beta   90.00000000
_cell_angle_gamma   90.00000000
_symmetry_Int_Tables_number   1
_chemical_formula_structural   BaMnP(O2F)2
_chemical_formula_sum   'Ba4 Mn4 P4 O16 F8'
_cell_volume   495.18418188
_cell_formula_units_Z   4
loop_
 _symmetry_equiv_pos_site_id
 _symmetry_equiv_pos_as_xyz
  1  'x, y, z'
loop_
 _atom_site_type_symbol
 _atom_site_label
 _atom_site_symmetry_multiplicity
 _atom_site_fract_x
 _atom_site_fract_y
 _atom_site_fract_z
 _atom_site_occupancy
  Ba  Ba0  1  0.70304300  0.85159000  0.68989300  1
  Ba  Ba1  1  0.20304300  0.14841000  0.81010700  1
  Ba  Ba2  1  0.29695700  0.14841000  0.31010700  1
  Ba  Ba3  1  0.79695700  0.85159000  0.18989300  1
  Mn  Mn0  1  0.00000000  0.00000000  0.50000000  1
  Mn  Mn1  1  0.50000000  0.00000000  0.00000000  1
  Mn  Mn2  1  0.00000000  0.50000000  0.00000000  1
  Mn  Mn3  1  0.50000000  0.50000000  0.50000000  1
  P  P0  1  0.89019000  0.37017900  0.69721200  1
  P  P1  1  0.39019000  0.62982100  0.80278800  1
  P  P2  1  0.10981000  0.62982100  0.30278800  1
  P  P3  1  0.60981000  0.37017900  0.19721200  1
  O  O0  1  0.78706300  0.27664600  0.79722600  1
  O  O1  1  0.28706300  0.72335400  0.70277400  1
  O  O2  1  0.21293700  0.72335400  0.20277400  1
  O  O3  1  0.71293700  0.27664600  0.29722600  1
  O  O4  1  0.90523400  0.21197900  0.57420100  1
  O  O5  1  0.40523400  0.78802100  0.92579900  1
  O  O6  1  0.09476600  0.78802100  0.42579900  1
  O  O7  1  0.59476600  0.21197900  0.07420100  1
  O  O8  1  0.98131900  0.31029100  0.83668200  1
  O  O9  1  0.48131900  0.68970900  0.66331800  1
  O  O10  1  0.01868100  0.68970900  0.16331800  1
  O  O11  1  0.51868100  0.31029100  0.33668200  1
  O  O12  1  0.88600200  0.69550600  0.56174600  1
  O  O13  1  0.38600200  0.30449400  0.93825400  1
  O  O14  1  0.11399800  0.30449400  0.43825400  1
  O  O15  1  0.61399800  0.69550600  0.06174600  1
  F  F0  1  0.86496400  0.66187300  0.94714300  1
  F  F1  1  0.36496400  0.33812700  0.55285700  1
  F  F2  1  0.13503600  0.33812700  0.05285700  1
  F  F3  1  0.63503600  0.66187300  0.44714300  1
  F  F4  1  0.06238000  0.83177600  0.76429200  1
  F  F5  1  0.56238000  0.16822400  0.73570800  1
  F  F6  1  0.93762000  0.16822400  0.23570800  1
  F  F7  1  0.43762000  0.83177600  0.26429200  1
loop_
_geom_bond_atom_site_label_1
_geom_bond_atom_site_label_2
_geom_bond_distance
_geom_bond_site_symmetry_2
Ba0 F5 2.609373 1_565
Ba0 F3 2.704727 1_555
Ba0 F0 2.811450 1_555
Ba0 O12 2.855885 1_555
Ba0 O0 2.941637 1_565
Ba0 O3 2.963661 1_565
Ba0 O0 2.967224 1_555
Ba0 O15 2.967737 1_556
Ba0 O9 3.043268 1_555
Ba0 O4 3.136559 1_565
Ba1 F4 2.609373 1_545
Ba1 F2 2.704727 1_556
Ba1 F1 2.811450 1_555
Ba1 O13 2.855885 1_555
Ba1 O1 2.941637 1_545
Ba1 O2 2.963661 1_546
Ba1 O1 2.967224 1_555
Ba1 O14 2.967737 1_555
Ba1 O8 3.043268 1_455
Ba1 O5 3.136559 1_545
Ba2 F7 2.609373 1_545
Ba2 F1 2.704727 1_555
Ba2 F2 2.811450 1_555
Ba2 O14 2.855885 1_555
Ba2 O2 2.941637 1_545
Ba2 O1 2.963661 1_545
Ba2 O2 2.967224 1_555
Ba2 O13 2.967737 1_554
Ba2 O11 3.043268 1_555
Ba2 O6 3.136559 1_545
Ba3 F6 2.609373 1_565
Ba3 F0 2.704727 1_554
Ba3 F3 2.811450 1_555
Ba3 O15 2.855885 1_555
Ba3 O3 2.941637 1_565
Ba3 O0 2.963661 1_564
Ba3 O3 2.967224 1_555
Ba3 O12 2.967737 1_555
Ba3 O10 3.043268 1_655
Ba3 O7 3.136559 1_565
Mn0 O6 1.926300 1_545
Mn0 O4 1.926300 1_455
Mn0 O14 2.077893 1_555
Mn0 O12 2.077893 1_445
Mn1 O7 1.926300 1_555
Mn1 O5 1.926300 1_544
Mn1 O15 2.077893 1_545
Mn1 O13 2.077893 1_554
Mn2 O10 1.984964 1_555
Mn2 O8 1.984964 1_454
Mn3 O9 1.984964 1_555
Mn3 O11 1.984964 1_555
O0 P0 1.530700 1_555
O1 P1 1.530700 1_555
O2 P2 1.530700 1_555
O3 P3 1.530700 1_555
O4 P0 1.561451 1_555
O5 P1 1.561451 1_555
O6 P2 1.561451 1_555
O7 P3 1.561451 1_555
O8 P0 1.566636 1_555
O9 P1 1.566636 1_555
O10 P2 1.566636 1_555
O11 P3 1.566636 1_555
O12 P0 1.575258 1_555
O13 P1 1.575258 1_555
O14 P2 1.575258 1_555
O15 P3 1.575258 1_555
F0 Mn2 1.917658 1_656
F1 Mn3 1.917658 1_555
F2 Mn2 1.917658 1_555
F3 Mn3 1.917658 1_555
F4 Mn0 2.075649 1_565
F4 Mn2 2.095517 1_556
F5 Mn1 2.075649 1_556
F5 Mn3 2.095517 1_555
F6 Mn0 2.075649 1_655
F6 Mn2 2.095517 1_655
F7 Mn1 2.075649 1_565
F7 Mn3 2.095517 1_555
