# generated using pymatgen
data_NaUVO7
_symmetry_space_group_name_H-M   'P 1'
_cell_length_a   7.70589282
_cell_length_b   8.59021500
_cell_length_c   10.29758962
_cell_angle_alpha   90.00000000
_cell_angle_beta   109.28171990
_cell_angle_gamma   90.00000000
_symmetry_Int_Tables_number   1
_chemical_formula_structural   NaUVO7
_chemical_formula_sum   'Na4 U4 V4 O28'
_cell_volume   643.41545345
_cell_formula_units_Z   4
loop_
 _symmetry_equiv_pos_site_id
 _symmetry_equiv_pos_as_xyz
  1  'x, y, z'
loop_
 _atom_site_type_symbol
 _atom_site_label
 _atom_site_symmetry_multiplicity
 _atom_site_fract_x
 _atom_site_fract_y
 _atom_site_fract_z
 _atom_site_occupancy
  Na  Na0  1  0.98927700  0.01051500  0.49033300  1
  Na  Na1  1  0.48927700  0.48948500  0.99033300  1
  Na  Na2  1  0.31760500  0.99170000  0.84511200  1
  Na  Na3  1  0.81760500  0.50830000  0.34511200  1
  U  U0  1  0.68825300  0.51996500  0.67871400  1
  U  U1  1  0.80947300  0.02000200  0.81931100  1
  U  U2  1  0.30947300  0.47999800  0.31931100  1
  U  U3  1  0.18825300  0.98003500  0.17871400  1
  V  V0  1  0.47085100  0.85162700  0.56083900  1
  V  V1  1  0.03087100  0.34397100  0.93557100  1
  V  V2  1  0.53087100  0.15602900  0.43557100  1
  V  V3  1  0.97085100  0.64837300  0.06083900  1
  O  O0  1  0.27018700  0.70646200  0.89233600  1
  O  O1  1  0.25700700  0.14774700  0.63888400  1
  O  O2  1  0.75700700  0.35225300  0.13888400  1
  O  O3  1  0.77018700  0.79353800  0.39233600  1
  O  O4  1  0.66861800  0.79138300  0.70973000  1
  O  O5  1  0.83274400  0.29018200  0.78364800  1
  O  O6  1  0.33274400  0.20981800  0.28364800  1
  O  O7  1  0.16861800  0.70861700  0.20973000  1
  O  O8  1  0.52647000  0.50172100  0.77356300  1
  O  O9  1  0.98822900  0.00123700  0.73573800  1
  O  O10  1  0.48822900  0.49876300  0.23573800  1
  O  O11  1  0.02647000  0.99827900  0.27356300  1
  O  O12  1  0.28278500  0.87253700  0.60660000  1
  O  O13  1  0.22276800  0.33815400  0.89939300  1
  O  O14  1  0.72276800  0.16184600  0.39939300  1
  O  O15  1  0.78278500  0.62746300  0.10660000  1
  O  O16  1  0.46330000  0.65562600  0.49392100  1
  O  O17  1  0.01819200  0.15046800  0.00634500  1
  O  O18  1  0.51819200  0.34953200  0.50634500  1
  O  O19  1  0.96330000  0.84437400  0.99392100  1
  O  O20  1  0.43202300  0.94150900  0.38590800  1
  O  O21  1  0.08014000  0.43963700  0.10974400  1
  O  O22  1  0.58014000  0.06036300  0.60974400  1
  O  O23  1  0.93202300  0.55849100  0.88590800  1
  O  O24  1  0.84757500  0.54346900  0.58125600  1
  O  O25  1  0.63063200  0.03762400  0.89805300  1
  O  O26  1  0.13063200  0.46237600  0.39805300  1
  O  O27  1  0.34757500  0.95653100  0.08125600  1
loop_
_geom_bond_atom_site_label_1
_geom_bond_atom_site_label_2
_geom_bond_distance
_geom_bond_site_symmetry_2
Na0 O11 2.344880 1_645
Na0 O14 2.348272 1_555
Na0 O1 2.429367 1_655
Na0 O12 2.483021 1_645
Na0 O3 2.493497 1_545
Na0 O9 2.531013 1_555
Na1 O8 2.344880 1_555
Na1 O13 2.348272 1_555
Na1 O2 2.429367 1_556
Na1 O15 2.483021 1_556
Na1 O0 2.493497 1_555
Na1 O10 2.531013 1_556
Na2 O25 2.324401 1_565
Na2 O27 2.384732 1_556
Na2 O9 2.414421 1_465
Na2 O1 2.422789 1_565
Na2 O0 2.547764 1_555
Na2 O12 2.591720 1_555
Na3 O26 2.324401 1_655
Na3 O24 2.384732 1_555
Na3 O10 2.414421 1_555
Na3 O2 2.422789 1_555
Na3 O3 2.547764 1_555
Na3 O15 2.591720 1_555
O4 V0 1.843346 1_555
O4 U1 2.345083 1_565
O4 U0 2.364930 1_555
O5 V1 1.847835 1_655
O5 U0 2.347125 1_555
O5 U1 2.365822 1_555
O6 V2 1.847835 1_555
O6 U3 2.347125 1_545
O6 U2 2.365822 1_555
O7 V3 1.843346 1_455
O7 U2 2.345083 1_555
O7 U3 2.364930 1_555
O8 U0 1.826725 1_555
O9 U1 1.856599 1_555
O10 U2 1.856599 1_555
O11 U3 1.826725 1_555
O12 V0 1.674981 1_555
O13 V1 1.640665 1_555
O14 V2 1.640665 1_555
O15 V3 1.674981 1_555
O16 V0 1.812890 1_555
O16 U2 2.346624 1_555
O16 U0 2.409472 1_555
O17 V1 1.830503 1_554
O17 U3 2.339909 1_545
O17 U1 2.346602 1_454
O18 V2 1.830503 1_555
O18 U0 2.339909 1_555
O18 U2 2.346602 1_555
O19 V3 1.812890 1_556
O19 U1 2.346624 1_565
O19 U3 2.409472 1_656
O20 V0 1.890672 1_555
O20 V2 1.995066 1_565
O20 U3 2.354460 1_555
O21 V1 1.893841 1_554
O21 V3 1.974317 1_455
O21 U2 2.319848 1_555
O22 V2 1.893841 1_555
O22 V0 1.974317 1_545
O22 U1 2.319848 1_555
O23 V3 1.890672 1_556
O23 V1 1.995066 1_655
O23 U0 2.354460 1_555
O24 U0 1.835472 1_555
O25 U1 1.821439 1_555
O26 U2 1.821439 1_555
O27 U3 1.835472 1_555
