# generated using pymatgen
data_Ca2Sb3O8
_symmetry_space_group_name_H-M   'P 1'
_cell_length_a   6.73299996
_cell_length_b   6.73299996
_cell_length_c   10.34413900
_cell_angle_alpha   90.00000000
_cell_angle_beta   90.00000000
_cell_angle_gamma   119.99999963
_symmetry_Int_Tables_number   1
_chemical_formula_structural   Ca2Sb3O8
_chemical_formula_sum   'Ca4 Sb6 O16'
_cell_volume   406.10861747
_cell_formula_units_Z   2
loop_
 _symmetry_equiv_pos_site_id
 _symmetry_equiv_pos_as_xyz
  1  'x, y, z'
loop_
 _atom_site_type_symbol
 _atom_site_label
 _atom_site_symmetry_multiplicity
 _atom_site_fract_x
 _atom_site_fract_y
 _atom_site_fract_z
 _atom_site_occupancy
  Ca  Ca0  1  0.66666700  0.33333300  0.03009400  1
  Ca  Ca1  1  0.33333300  0.66666700  0.53009400  1
  Ca  Ca2  1  0.66666700  0.33333300  0.40237200  1
  Ca  Ca3  1  0.33333300  0.66666700  0.90237200  1
  Sb  Sb0  1  0.67059900  0.83530000  0.24439700  1
  Sb  Sb1  1  0.83530000  0.16470000  0.74439700  1
  Sb  Sb2  1  0.16470000  0.32940100  0.24439700  1
  Sb  Sb3  1  0.83530000  0.67059900  0.74439700  1
  Sb  Sb4  1  0.32940100  0.16470000  0.74439700  1
  Sb  Sb5  1  0.16470000  0.83530000  0.24439700  1
  O  O0  1  0.83761200  0.16238800  0.15657900  1
  O  O1  1  0.67522500  0.83761200  0.65657900  1
  O  O2  1  0.16238800  0.32477500  0.65657900  1
  O  O3  1  0.83761200  0.67522500  0.15657900  1
  O  O4  1  0.32477500  0.16238800  0.15657900  1
  O  O5  1  0.16238800  0.83761200  0.65657900  1
  O  O6  1  0.52450800  0.47549200  0.86076200  1
  O  O7  1  0.04901600  0.52450800  0.36076200  1
  O  O8  1  0.47549200  0.95098400  0.36076200  1
  O  O9  1  0.52450800  0.04901600  0.86076200  1
  O  O10  1  0.00000000  0.00000000  0.34393700  1
  O  O11  1  0.00000000  0.00000000  0.84393700  1
  O  O12  1  0.33333300  0.66666700  0.13188300  1
  O  O13  1  0.95098400  0.47549200  0.86076200  1
  O  O14  1  0.47549200  0.52450800  0.36076200  1
  O  O15  1  0.66666700  0.33333300  0.63188300  1
loop_
_geom_bond_atom_site_label_1
_geom_bond_atom_site_label_2
_geom_bond_distance
_geom_bond_site_symmetry_2
Ca0 O0 2.384548 1_555
Ca0 O3 2.384558 1_555
Ca0 O4 2.384558 1_555
Ca0 O13 2.411744 1_554
Ca0 O9 2.411744 1_554
Ca0 O6 2.411748 1_554
Ca1 O5 2.384548 1_555
Ca1 O2 2.384558 1_555
Ca1 O1 2.384558 1_555
Ca1 O8 2.411744 1_555
Ca1 O7 2.411744 1_555
Ca1 O14 2.411748 1_555
Ca2 O7 2.270626 1_655
Ca2 O8 2.270626 1_545
Ca2 O14 2.270632 1_555
Ca2 O15 2.374094 1_555
Ca3 O9 2.270626 1_565
Ca3 O13 2.270626 1_455
Ca3 O6 2.270632 1_555
Ca3 O12 2.374094 1_556
O0 Sb0 2.112647 1_545
O0 Sb2 2.112647 1_655
O1 Sb3 2.112647 1_555
O1 Sb1 2.112647 1_565
O2 Sb4 2.112647 1_555
O2 Sb1 2.112647 1_455
O3 Sb0 2.112647 1_555
O3 Sb5 2.112647 1_655
O4 Sb2 2.112647 1_555
O4 Sb5 2.112647 1_545
O5 Sb3 2.112647 1_455
O5 Sb4 2.112647 1_565
O6 Sb4 2.191914 1_555
O6 Sb3 2.191914 1_555
O7 Sb2 2.191909 1_555
O7 Sb5 2.191915 1_555
O8 Sb0 2.191909 1_555
O8 Sb5 2.191915 1_555
O9 Sb4 2.191909 1_555
O9 Sb1 2.191915 1_555
O10 Sb5 2.179297 1_545
O10 Sb2 2.179302 1_555
O10 Sb0 2.179302 1_445
O11 Sb1 2.179297 1_455
O11 Sb4 2.179302 1_555
O11 Sb3 2.179302 1_445
O12 Sb5 2.285172 1_555
O12 Sb0 2.285172 1_555
O12 Sb2 2.285172 1_555
O13 Sb3 2.191909 1_555
O13 Sb1 2.191915 1_555
O14 Sb2 2.191914 1_555
O14 Sb0 2.191914 1_555
O15 Sb1 2.285172 1_555
O15 Sb3 2.285172 1_555
O15 Sb4 2.285172 1_555
