# generated using pymatgen
data_K2Ta4O11
_symmetry_space_group_name_H-M   'P 1'
_cell_length_a   12.85824913
_cell_length_b   12.85824913
_cell_length_c   12.85824810
_cell_angle_alpha   28.32673187
_cell_angle_beta   28.32673187
_cell_angle_gamma   28.32673576
_symmetry_Int_Tables_number   1
_chemical_formula_structural   K2Ta4O11
_chemical_formula_sum   'K4 Ta8 O22'
_cell_volume   422.95470229
_cell_formula_units_Z   2
loop_
 _symmetry_equiv_pos_site_id
 _symmetry_equiv_pos_as_xyz
  1  'x, y, z'
loop_
 _atom_site_type_symbol
 _atom_site_label
 _atom_site_symmetry_multiplicity
 _atom_site_fract_x
 _atom_site_fract_y
 _atom_site_fract_z
 _atom_site_occupancy
  K  K0  1  0.82599347  0.82599347  0.82599347  1
  K  K1  1  0.32599347  0.32599347  0.32599347  1
  K  K2  1  0.17400653  0.17400653  0.17400653  1
  K  K3  1  0.67400653  0.67400653  0.67400653  1
  Ta  Ta0  1  0.50000000  0.50000000  0.50000000  1
  Ta  Ta1  1  0.00000000  0.00000000  -0.00000000  1
  Ta  Ta2  1  0.25000000  0.61522286  0.88477714  1
  Ta  Ta3  1  0.88477714  0.25000000  0.61522286  1
  Ta  Ta4  1  0.61522286  0.88477714  0.25000000  1
  Ta  Ta5  1  0.38477714  0.11522286  0.75000000  1
  Ta  Ta6  1  0.75000000  0.38477714  0.11522286  1
  Ta  Ta7  1  0.11522286  0.75000000  0.38477714  1
  O  O0  1  0.26016029  0.56959285  0.76504011  1
  O  O1  1  0.76504011  0.26016029  0.56959285  1
  O  O2  1  0.56959285  0.76504011  0.26016029  1
  O  O3  1  0.26504011  0.06959285  0.76016029  1
  O  O4  1  0.76016029  0.26504011  0.06959285  1
  O  O5  1  0.06959285  0.76016029  0.26504011  1
  O  O6  1  0.73983971  0.43040715  0.23495989  1
  O  O7  1  0.23495989  0.73983971  0.43040715  1
  O  O8  1  0.43040715  0.23495989  0.73983971  1
  O  O9  1  0.73495989  0.93040715  0.23983971  1
  O  O10  1  0.23983971  0.73495989  0.93040715  1
  O  O11  1  0.93040715  0.23983971  0.73495989  1
  O  O12  1  0.90638293  0.90638293  0.90638293  1
  O  O13  1  0.40638293  0.40638293  0.40638293  1
  O  O14  1  0.09361707  0.09361707  0.09361707  1
  O  O15  1  0.59361707  0.59361707  0.59361707  1
  O  O16  1  0.00483201  0.49516799  0.25000000  1
  O  O17  1  0.25000000  0.00483201  0.49516799  1
  O  O18  1  0.49516799  0.25000000  0.00483201  1
  O  O19  1  0.75000000  0.99516799  0.50483201  1
  O  O20  1  0.50483201  0.75000000  0.99516799  1
  O  O21  1  0.99516799  0.50483201  0.75000000  1
loop_
_geom_bond_atom_site_label_1
_geom_bond_atom_site_label_2
_geom_bond_distance
_geom_bond_site_symmetry_2
K0 O2 2.663245 1_556
K0 O1 2.663246 1_565
K0 O0 2.663246 1_655
K0 O7 2.706861 1_655
K0 O6 2.706861 1_556
K0 O8 2.706861 1_565
K0 O12 2.974654 1_555
K0 O19 3.207377 1_555
K0 O21 3.207377 1_555
K0 O20 3.207377 1_555
K1 O3 2.663245 1_555
K1 O4 2.663246 1_555
K1 O5 2.663246 1_555
K1 O10 2.706861 1_554
K1 O11 2.706861 1_455
K1 O9 2.706861 1_545
K1 O13 2.974654 1_555
K1 O18 3.207377 1_555
K1 O16 3.207377 1_555
K1 O17 3.207377 1_555
K2 O8 2.663245 1_554
K2 O7 2.663246 1_545
K2 O6 2.663246 1_455
K2 O1 2.706861 1_455
K2 O0 2.706861 1_554
K2 O2 2.706861 1_545
K2 O14 2.974654 1_555
K2 O17 3.207377 1_555
K2 O16 3.207377 1_555
K2 O18 3.207377 1_555
K3 O9 2.663245 1_555
K3 O10 2.663246 1_555
K3 O11 2.663246 1_555
K3 O4 2.706861 1_556
K3 O5 2.706861 1_655
K3 O3 2.706861 1_565
K3 O15 2.974654 1_555
K3 O20 3.207377 1_555
K3 O21 3.207377 1_555
K3 O19 3.207377 1_555
O0 Ta2 1.957794 1_555
O0 Ta0 1.983229 1_555
O1 Ta3 1.957795 1_555
O1 Ta0 1.983229 1_555
O2 Ta4 1.957795 1_555
O2 Ta0 1.983229 1_555
O3 Ta5 1.957795 1_555
O3 Ta1 1.983229 1_556
O4 Ta6 1.957795 1_555
O4 Ta1 1.983229 1_655
O5 Ta7 1.957794 1_555
O5 Ta1 1.983229 1_565
O6 Ta6 1.957794 1_555
O6 Ta0 1.983229 1_555
O7 Ta7 1.957795 1_555
O7 Ta0 1.983229 1_555
O8 Ta5 1.957795 1_555
O8 Ta0 1.983229 1_555
O9 Ta4 1.957795 1_555
O9 Ta1 1.983229 1_665
O10 Ta2 1.957795 1_555
O10 Ta1 1.983229 1_566
O11 Ta3 1.957794 1_555
O11 Ta1 1.983229 1_656
O12 Ta4 2.040511 1_556
O12 Ta3 2.040512 1_565
O12 Ta2 2.040512 1_655
O13 Ta5 2.040511 1_555
O13 Ta6 2.040512 1_555
O13 Ta7 2.040512 1_555
O14 Ta5 2.040511 1_554
O14 Ta7 2.040512 1_545
O14 Ta6 2.040512 1_455
O15 Ta4 2.040511 1_555
O15 Ta2 2.040512 1_555
O15 Ta3 2.040512 1_555
O16 Ta3 2.028824 1_455
O16 Ta2 2.028824 1_554
O16 Ta4 2.451618 1_455
O17 Ta4 2.028824 1_545
O17 Ta3 2.028825 1_455
O17 Ta2 2.451618 1_545
O18 Ta4 2.028824 1_545
O18 Ta2 2.028825 1_554
O18 Ta3 2.451618 1_554
O19 Ta5 2.028824 1_565
O19 Ta7 2.028825 1_655
O19 Ta6 2.451618 1_565
O20 Ta5 2.028824 1_565
O20 Ta6 2.028825 1_556
O20 Ta7 2.451618 1_556
O21 Ta7 2.028824 1_655
O21 Ta6 2.028824 1_556
O21 Ta5 2.451618 1_655
