# generated using pymatgen
data_Dy4CdPt
_symmetry_space_group_name_H-M   'P 1'
_cell_length_a   9.63425355
_cell_length_b   9.63421068
_cell_length_c   9.63420370
_cell_angle_alpha   59.99994741
_cell_angle_beta   60.00011394
_cell_angle_gamma   60.00016396
_symmetry_Int_Tables_number   1
_chemical_formula_structural   Dy4CdPt
_chemical_formula_sum   'Dy16 Cd4 Pt4'
_cell_volume   632.31833827
_cell_formula_units_Z   4
loop_
 _symmetry_equiv_pos_site_id
 _symmetry_equiv_pos_as_xyz
  1  'x, y, z'
loop_
 _atom_site_type_symbol
 _atom_site_label
 _atom_site_symmetry_multiplicity
 _atom_site_fract_x
 _atom_site_fract_y
 _atom_site_fract_z
 _atom_site_occupancy
  Dy  Dy0  1  0.35221691  0.35220558  0.35219793  1
  Dy  Dy1  1  0.35221255  0.35220156  0.94338381  1
  Dy  Dy2  1  0.35221610  0.94338153  0.35219727  1
  Dy  Dy3  1  0.94337383  0.35221049  0.35220448  1
  Dy  Dy4  1  0.80994985  0.19004254  0.19004219  1
  Dy  Dy5  1  0.19003785  0.80995731  0.80996666  1
  Dy  Dy6  1  0.19004058  0.80996175  0.19003851  1
  Dy  Dy7  1  0.80994535  0.19003969  0.80997297  1
  Dy  Dy8  1  0.19003928  0.19003770  0.80996763  1
  Dy  Dy9  1  0.80994894  0.80996776  0.19004090  1
  Dy  Dy10  1  0.93576410  0.56423576  0.56423235  1
  Dy  Dy11  1  0.56422917  0.93577323  0.93577503  1
  Dy  Dy12  1  0.56423347  0.93577197  0.56422516  1
  Dy  Dy13  1  0.93576575  0.56423124  0.93577351  1
  Dy  Dy14  1  0.56422999  0.56422434  0.93577493  1
  Dy  Dy15  1  0.93576439  0.93577001  0.56423136  1
  Cd  Cd0  1  0.58151860  0.58151781  0.58151679  1
  Cd  Cd1  1  0.58152598  0.58152512  0.25542769  1
  Cd  Cd2  1  0.58152431  0.25543535  0.58152112  1
  Cd  Cd3  1  0.25546285  0.58151103  0.58151350  1
  Pt  Pt0  1  0.14317697  0.14317550  0.14317549  1
  Pt  Pt1  1  0.14317838  0.14317432  0.57047071  1
  Pt  Pt2  1  0.14317587  0.57047140  0.14317452  1
  Pt  Pt3  1  0.57047094  0.14317702  0.14317348  1
loop_
_geom_bond_atom_site_label_1
_geom_bond_atom_site_label_2
_geom_bond_distance
_geom_bond_site_symmetry_2
Dy0 Pt3 2.849345 1_555
Dy0 Pt2 2.849423 1_555
Dy0 Pt1 2.849459 1_555
Dy1 Pt3 2.849312 1_556
Dy1 Pt2 2.849399 1_556
Dy1 Pt0 2.849405 1_556
Dy2 Pt3 2.849325 1_565
Dy2 Pt0 2.849400 1_565
Dy2 Pt1 2.849438 1_565
Dy3 Pt2 2.849410 1_655
Dy3 Pt0 2.849419 1_655
Dy3 Pt1 2.849465 1_655
Dy4 Pt3 2.831665 1_555
Dy4 Pt0 2.831806 1_655
Dy5 Pt2 2.831642 1_556
Dy5 Pt1 2.831733 1_565
Dy6 Pt0 2.831687 1_565
Dy6 Pt2 2.831730 1_555
Dy7 Pt3 2.831569 1_556
Dy7 Pt1 2.831869 1_655
Dy8 Pt0 2.831635 1_556
Dy8 Pt1 2.831763 1_555
Dy9 Pt3 2.831638 1_565
Dy9 Pt2 2.831814 1_655
Dy10 Pt2 3.496087 1_655
Dy10 Pt1 3.496114 1_655
Dy11 Pt3 3.495954 1_566
Dy11 Pt0 3.496023 1_566
Dy12 Pt3 3.496025 1_565
Dy12 Pt1 3.496058 1_565
Dy13 Pt2 3.496023 1_656
Dy13 Pt0 3.496054 1_656
Dy14 Pt3 3.495982 1_556
Dy14 Pt2 3.496044 1_556
Dy15 Pt0 3.496064 1_665
Dy15 Pt1 3.496079 1_665
Cd0 Cd3 3.141352 1_555
Cd0 Cd2 3.141499 1_555
Cd0 Cd1 3.141538 1_555
Cd0 Dy10 3.254911 1_555
Cd0 Dy12 3.254934 1_555
Cd0 Dy14 3.254946 1_555
Cd0 Dy3 3.375212 1_555
Cd0 Dy2 3.375243 1_555
Cd0 Dy1 3.375254 1_555
Cd0 Dy9 3.486341 1_555
Cd0 Dy7 3.486364 1_555
Cd0 Dy5 3.486414 1_555
Cd1 Cd3 3.141481 1_555
Cd1 Cd2 3.141632 1_555
Cd1 Dy13 3.254771 1_554
Cd1 Dy11 3.254792 1_554
Cd1 Dy14 3.254801 1_554
Cd1 Dy3 3.375208 1_555
Cd1 Dy2 3.375236 1_555
Cd1 Dy0 3.375254 1_555
Cd1 Dy9 3.486300 1_555
Cd1 Dy4 3.486327 1_555
Cd1 Dy6 3.486377 1_555
Cd2 Cd3 3.141428 1_555
Cd2 Dy15 3.254824 1_545
Cd2 Dy12 3.254852 1_545
Cd2 Dy11 3.254862 1_545
Cd2 Dy3 3.375212 1_555
Cd2 Dy1 3.375269 1_555
Cd2 Dy0 3.375270 1_555
Cd2 Dy7 3.486321 1_555
Cd2 Dy4 3.486322 1_555
Cd2 Dy8 3.486405 1_555
Cd3 Dy10 3.255044 1_455
Cd3 Dy13 3.255059 1_455
Cd3 Dy15 3.255064 1_455
Cd3 Dy0 3.375246 1_555
Cd3 Dy1 3.375251 1_555
Cd3 Dy2 3.375269 1_555
Cd3 Dy8 3.486391 1_555
Cd3 Dy6 3.486398 1_555
Cd3 Dy5 3.486408 1_555
