# generated using pymatgen
data_CeMg(NiH)4
_symmetry_space_group_name_H-M   'P 1'
_cell_length_a   5.00368600
_cell_length_b   5.43086700
_cell_length_c   7.31674500
_cell_angle_alpha   90.00000000
_cell_angle_beta   90.00000000
_cell_angle_gamma   90.00000000
_symmetry_Int_Tables_number   1
_chemical_formula_structural   CeMg(NiH)4
_chemical_formula_sum   'Ce2 Mg2 Ni8 H8'
_cell_volume   198.82781273
_cell_formula_units_Z   2
loop_
 _symmetry_equiv_pos_site_id
 _symmetry_equiv_pos_as_xyz
  1  'x, y, z'
loop_
 _atom_site_type_symbol
 _atom_site_label
 _atom_site_symmetry_multiplicity
 _atom_site_fract_x
 _atom_site_fract_y
 _atom_site_fract_z
 _atom_site_occupancy
  Ce  Ce0  1  0.00000000  0.69824300  0.48859500  1
  Ce  Ce1  1  0.50000000  0.30175700  0.98859500  1
  Mg  Mg0  1  0.00000000  0.18382900  0.71070600  1
  Mg  Mg1  1  0.50000000  0.81617100  0.21070600  1
  Ni  Ni0  1  0.00000000  0.01094700  0.09107500  1
  Ni  Ni1  1  0.50000000  0.98905300  0.59107500  1
  Ni  Ni2  1  0.00000000  0.55046600  0.11266600  1
  Ni  Ni3  1  0.50000000  0.44953400  0.61266600  1
  Ni  Ni4  1  0.25396200  0.22858000  0.36564800  1
  Ni  Ni5  1  0.24603800  0.77142000  0.86564800  1
  Ni  Ni6  1  0.75396200  0.77142000  0.86564800  1
  Ni  Ni7  1  0.74603800  0.22858000  0.36564800  1
  H  H0  1  0.00000000  0.28081100  0.99592000  1
  H  H1  1  0.50000000  0.71918900  0.49592000  1
  H  H2  1  0.00000000  0.05412700  0.31299100  1
  H  H3  1  0.50000000  0.94587300  0.81299100  1
  H  H4  1  0.25706900  0.49085800  0.24342500  1
  H  H5  1  0.24293100  0.50914200  0.74342500  1
  H  H6  1  0.75706900  0.50914200  0.74342500  1
  H  H7  1  0.74293100  0.49085800  0.24342500  1
loop_
_geom_bond_atom_site_label_1
_geom_bond_atom_site_label_2
_geom_bond_distance
_geom_bond_site_symmetry_2
Ce0 H2 2.320861 1_565
Ce0 H6 2.451268 1_455
Ce0 H5 2.451268 1_555
Ce0 H7 2.478092 1_455
Ce0 H4 2.478092 1_555
Ce0 H1 2.505001 1_455
Ce0 H1 2.505001 1_555
Ce1 H3 2.320861 1_545
Ce1 H7 2.451268 1_556
Ce1 H4 2.451268 1_556
Ce1 H6 2.478092 1_555
Ce1 H5 2.478092 1_555
Ce1 H0 2.505001 1_555
Ce1 H0 2.505001 1_655
H0 Ni0 1.622559 1_556
H0 Ni2 1.695377 1_556
H0 Mg0 2.152278 1_555
H1 Ni1 1.622559 1_555
H1 Ni3 1.695377 1_555
H1 Mg1 2.152278 1_555
H2 Ni4 1.631214 1_555
H2 Ni7 1.631214 1_455
H2 Ni0 1.640550 1_555
H3 Ni6 1.631214 1_555
H3 Ni5 1.631214 1_555
H3 Ni1 1.640550 1_555
H4 Ni2 1.635444 1_555
H4 Ni4 1.681926 1_555
H4 Mg1 2.157826 1_555
H5 Ni3 1.635444 1_555
H5 Ni5 1.681926 1_555
H5 Mg0 2.157826 1_555
H6 Ni3 1.635444 1_555
H6 Ni6 1.681926 1_555
H6 Mg0 2.157826 1_655
H7 Ni2 1.635444 1_655
H7 Ni7 1.681926 1_555
H7 Mg1 2.157826 1_555
