# generated using pymatgen
data_BaSrLiNdTlCu2O7
_symmetry_space_group_name_H-M   'P 1'
_cell_length_a   3.89994900
_cell_length_b   3.91529115
_cell_length_c   14.63607718
_cell_angle_alpha   91.08695264
_cell_angle_beta   90.00000000
_cell_angle_gamma   90.00000000
_symmetry_Int_Tables_number   1
_chemical_formula_structural   BaSrLiNdTlCu2O7
_chemical_formula_sum   'Ba1 Sr1 Li1 Nd1 Tl1 Cu2 O7'
_cell_volume   223.44442640
_cell_formula_units_Z   1
loop_
 _symmetry_equiv_pos_site_id
 _symmetry_equiv_pos_as_xyz
  1  'x, y, z'
loop_
 _atom_site_type_symbol
 _atom_site_label
 _atom_site_symmetry_multiplicity
 _atom_site_fract_x
 _atom_site_fract_y
 _atom_site_fract_z
 _atom_site_occupancy
  Ba  Ba0  1  0.50000000  0.50324200  0.87170800  1
  Sr  Sr0  1  0.50000000  0.51270700  0.21510600  1
  Li  Li0  1  0.50000000  0.52823100  0.63500900  1
  Nd  Nd0  1  0.50000000  0.51572700  0.45615800  1
  Tl  Tl0  1  0.00000000  0.05740300  0.04151000  1
  Cu  Cu0  1  0.00000000  0.02324400  0.58740200  1
  Cu  Cu1  1  0.00000000  0.00937700  0.34457600  1
  O  O0  1  0.50000000  0.02318100  0.58112400  1
  O  O1  1  0.00000000  0.52265700  0.57996000  1
  O  O2  1  0.50000000  0.00999800  0.36011800  1
  O  O3  1  0.00000000  0.50995700  0.35887300  1
  O  O4  1  0.00000000  0.98898000  0.88395500  1
  O  O5  1  0.00000000  0.97603000  0.18908000  1
  O  O6  1  0.50000000  0.41693300  0.04125400  1
loop_
_geom_bond_atom_site_label_1
_geom_bond_atom_site_label_2
_geom_bond_distance
_geom_bond_site_symmetry_2
Ba0 O6 2.510735 1_556
Ba0 O4 2.727354 1_555
Ba0 O4 2.727354 1_655
Ba0 O4 2.811111 1_545
Ba0 O4 2.811111 1_645
Li0 O0 2.106022 1_565
Li0 O1 2.109826 1_555
Li0 O1 2.109826 1_655
Li0 O0 2.114948 1_555
Nd0 O2 2.406440 1_555
Nd0 O2 2.413319 1_565
Nd0 O3 2.414353 1_655
Nd0 O3 2.414353 1_555
Nd0 O1 2.661678 1_555
Nd0 O1 2.661678 1_655
Nd0 O0 2.674866 1_565
Nd0 O0 2.682921 1_555
Cu0 O0 1.952138 1_555
Cu0 O0 1.952138 1_455
Cu0 O1 1.960441 1_555
Cu0 O1 1.960904 1_545
Cu1 O2 1.963194 1_455
Cu1 O2 1.963194 1_555
Cu1 O3 1.967104 1_555
Cu1 O3 1.970482 1_545
Cu1 O5 2.277119 1_545
O2 Sr0 2.852856 1_545
O2 Sr0 2.921834 1_555
O3 Sr0 2.868967 1_455
O3 Sr0 2.868967 1_555
O4 Tl0 2.316443 1_566
O5 Tl0 2.189189 1_565
O5 Sr0 2.695269 1_555
O5 Sr0 2.695269 1_455
O5 Sr0 2.886585 1_565
O5 Sr0 2.886585 1_465
O6 Tl0 2.405023 1_655
O6 Tl0 2.405023 1_555
O6 Sr0 2.564946 1_555
