# generated using pymatgen
data_Zr6Al2Fe
_symmetry_space_group_name_H-M   'P 1'
_cell_length_a   7.94446977
_cell_length_b   7.94477041
_cell_length_c   3.31188091
_cell_angle_alpha   90.00000000
_cell_angle_beta   90.00000000
_cell_angle_gamma   119.99951535
_symmetry_Int_Tables_number   1
_chemical_formula_structural   Zr6Al2Fe
_chemical_formula_sum   'Zr6 Al2 Fe1'
_cell_volume   181.03132610
_cell_formula_units_Z   1
loop_
 _symmetry_equiv_pos_site_id
 _symmetry_equiv_pos_as_xyz
  1  'x, y, z'
loop_
 _atom_site_type_symbol
 _atom_site_label
 _atom_site_symmetry_multiplicity
 _atom_site_fract_x
 _atom_site_fract_y
 _atom_site_fract_z
 _atom_site_occupancy
  Zr  Zr0  1  0.60143883  -0.00000252  0.00000000  1
  Zr  Zr1  1  0.39855521  0.39855824  0.00000000  1
  Zr  Zr2  1  0.00000276  0.60144153  -0.00000000  1
  Zr  Zr3  1  0.00000692  0.24808437  0.50000000  1
  Zr  Zr4  1  0.75192445  0.75192232  0.50000000  1
  Zr  Zr5  1  0.24807786  0.00000528  0.50000000  1
  Al  Al0  1  0.33334567  0.66668734  0.50000000  1
  Al  Al1  1  0.66664435  0.33330404  0.50000000  1
  Fe  Fe0  1  0.00000494  0.99999839  0.00000000  1
loop_
_geom_bond_atom_site_label_1
_geom_bond_atom_site_label_2
_geom_bond_distance
_geom_bond_site_symmetry_2
Al0 Zr0 2.941222 1_566
Al0 Zr0 2.941222 1_565
Al0 Zr2 2.941301 1_556
Al0 Zr2 2.941301 1_555
Al0 Zr1 2.941417 1_556
Al0 Zr1 2.941417 1_555
Al0 Zr4 3.043835 1_555
Al0 Zr5 3.043902 1_565
Al0 Zr3 3.044055 1_555
Al1 Zr0 2.941241 1_556
Al1 Zr0 2.941241 1_555
Al1 Zr1 2.941295 1_556
Al1 Zr1 2.941295 1_555
Al1 Zr2 2.941493 1_655
Al1 Zr2 2.941493 1_656
Al1 Zr5 3.043711 1_555
Al1 Zr3 3.043917 1_655
Al1 Zr4 3.044159 1_555
Fe0 Zr5 2.574124 1_565
Fe0 Zr5 2.574124 1_564
Fe0 Zr4 2.574217 1_454
Fe0 Zr4 2.574217 1_455
Fe0 Zr3 2.574275 1_565
Fe0 Zr3 2.574275 1_564
Fe0 Zr1 3.166392 1_565
Fe0 Zr0 3.166393 1_465
Fe0 Zr2 3.166434 1_555
