# generated using pymatgen
data_TmSnIr
_symmetry_space_group_name_H-M   'P 1'
_cell_length_a   7.49411884
_cell_length_b   7.49411884
_cell_length_c   3.78116764
_cell_angle_alpha   90.00000000
_cell_angle_beta   90.00000000
_cell_angle_gamma   120.00000634
_symmetry_Int_Tables_number   1
_chemical_formula_structural   TmSnIr
_chemical_formula_sum   'Tm3 Sn3 Ir3'
_cell_volume   183.90675766
_cell_formula_units_Z   3
loop_
 _symmetry_equiv_pos_site_id
 _symmetry_equiv_pos_as_xyz
  1  'x, y, z'
loop_
 _atom_site_type_symbol
 _atom_site_label
 _atom_site_symmetry_multiplicity
 _atom_site_fract_x
 _atom_site_fract_y
 _atom_site_fract_z
 _atom_site_occupancy
  Tm  Tm0  1  0.00000000  0.40341959  0.50000000  1
  Tm  Tm1  1  0.59658041  0.59658041  0.50000000  1
  Tm  Tm2  1  0.40341959  0.00000000  0.50000000  1
  Sn  Sn0  1  -0.00000000  0.73494205  -0.00000000  1
  Sn  Sn1  1  0.26505795  0.26505795  0.00000000  1
  Sn  Sn2  1  0.73494205  -0.00000000  -0.00000000  1
  Ir  Ir0  1  0.33333300  0.66666700  -0.00000000  1
  Ir  Ir1  1  0.66666700  0.33333300  -0.00000000  1
  Ir  Ir2  1  -0.00000000  0.00000000  0.50000000  1
loop_
_geom_bond_atom_site_label_1
_geom_bond_atom_site_label_2
_geom_bond_distance
_geom_bond_site_symmetry_2
Sn0 Tm0 3.122001 1_555
Sn0 Tm0 3.122001 1_554
Sn0 Tm2 3.264173 1_564
Sn0 Tm2 3.264173 1_565
Sn0 Tm1 3.264173 1_455
Sn0 Tm1 3.264173 1_454
Sn1 Tm1 3.122001 1_554
Sn1 Tm1 3.122001 1_555
Sn1 Tm2 3.264173 1_554
Sn1 Tm0 3.264173 1_554
Sn1 Tm0 3.264173 1_555
Sn1 Tm2 3.264173 1_555
Sn2 Tm2 3.122001 1_554
Sn2 Tm2 3.122001 1_555
Sn2 Tm0 3.264173 1_655
Sn2 Tm0 3.264173 1_654
Sn2 Tm1 3.264173 1_545
Sn2 Tm1 3.264173 1_544
Ir0 Sn0 2.789290 1_555
Ir0 Sn2 2.789294 1_565
Ir0 Sn1 2.789297 1_555
Ir0 Tm2 2.962821 1_564
Ir0 Tm2 2.962821 1_565
Ir0 Tm0 2.962823 1_555
Ir0 Tm0 2.962823 1_554
Ir0 Tm1 2.962827 1_554
Ir0 Tm1 2.962827 1_555
Ir1 Sn2 2.789290 1_555
Ir1 Sn0 2.789294 1_655
Ir1 Sn1 2.789297 1_555
Ir1 Tm0 2.962821 1_654
Ir1 Tm0 2.962821 1_655
Ir1 Tm2 2.962823 1_554
Ir1 Tm2 2.962823 1_555
Ir1 Tm1 2.962827 1_555
Ir1 Tm1 2.962827 1_554
Ir2 Sn1 2.742261 1_555
Ir2 Sn1 2.742261 1_556
Ir2 Sn2 2.742261 1_456
Ir2 Sn0 2.742261 1_546
Ir2 Sn2 2.742261 1_455
Ir2 Sn0 2.742261 1_545
Ir2 Tm1 3.023274 1_445
Ir2 Tm0 3.023274 1_555
Ir2 Tm2 3.023274 1_555
