# generated using pymatgen
data_Cr3P2H40(C8O5)2
_symmetry_space_group_name_H-M   'P 1'
_cell_length_a   14.91996257
_cell_length_b   14.94927710
_cell_length_c   15.31831261
_cell_angle_alpha   90.00000000
_cell_angle_beta   97.00920751
_cell_angle_gamma   90.00000000
_symmetry_Int_Tables_number   1
_chemical_formula_structural   Cr3P2H40(C8O5)2
_chemical_formula_sum   'Cr12 P8 H160 C64 O40'
_cell_volume   3391.10305881
_cell_formula_units_Z   4
loop_
 _symmetry_equiv_pos_site_id
 _symmetry_equiv_pos_as_xyz
  1  'x, y, z'
loop_
 _atom_site_type_symbol
 _atom_site_label
 _atom_site_symmetry_multiplicity
 _atom_site_fract_x
 _atom_site_fract_y
 _atom_site_fract_z
 _atom_site_occupancy
  Cr  Cr0  1  0.77544943  0.38663569  0.86905915  1
  Cr  Cr1  1  0.72455057  0.88663569  0.13094085  1
  Cr  Cr2  1  0.22455057  0.61336431  0.13094085  1
  Cr  Cr3  1  0.27544943  0.11336431  0.86905915  1
  Cr  Cr4  1  0.65784995  0.54397008  0.75043160  1
  Cr  Cr5  1  0.84215005  0.04397008  0.24956840  1
  Cr  Cr6  1  0.34215005  0.45602992  0.24956840  1
  Cr  Cr7  1  0.15784995  0.95602992  0.75043160  1
  Cr  Cr8  1  0.78076259  0.56162845  0.58683224  1
  Cr  Cr9  1  0.71923741  0.06162845  0.41316776  1
  Cr  Cr10  1  0.21923741  0.43837155  0.41316776  1
  Cr  Cr11  1  0.28076259  0.93837155  0.58683224  1
  P  P0  1  0.98553558  0.25540640  0.56799308  1
  P  P1  1  0.51446442  0.75540640  0.43200692  1
  P  P2  1  0.01446442  0.74459360  0.43200692  1
  P  P3  1  0.48553558  0.24459360  0.56799308  1
  P  P4  1  0.56054888  0.24748231  0.08241553  1
  P  P5  1  0.93945112  0.74748231  0.91758447  1
  P  P6  1  0.43945112  0.75251769  0.91758447  1
  P  P7  1  0.06054888  0.25251769  0.08241553  1
  H  H0  1  0.83300999  0.22945870  0.58414847  1
  H  H1  1  0.66699001  0.72945870  0.41585153  1
  H  H2  1  0.16699001  0.77054130  0.41585153  1
  H  H3  1  0.33300999  0.27054130  0.58414847  1
  H  H4  1  0.88038752  0.31310935  0.65798796  1
  H  H5  1  0.61961248  0.81310935  0.34201204  1
  H  H6  1  0.11961248  0.68689065  0.34201204  1
  H  H7  1  0.38038752  0.18689065  0.65798796  1
  H  H8  1  0.84214490  0.17853054  0.74006414  1
  H  H9  1  0.65785510  0.67853054  0.25993586  1
  H  H10  1  0.15785510  0.82146946  0.25993586  1
  H  H11  1  0.34214490  0.32146946  0.74006414  1
  H  H12  1  0.90847912  0.10796551  0.68014608  1
  H  H13  1  0.59152088  0.60796551  0.31985392  1
  H  H14  1  0.09152088  0.89203449  0.31985392  1
  H  H15  1  0.40847912  0.39203449  0.68014608  1
  H  H16  1  0.96139173  0.18913397  0.75419057  1
  H  H17  1  0.53860827  0.68913397  0.24580943  1
  H  H18  1  0.03860827  0.81086603  0.24580943  1
  H  H19  1  0.46139173  0.31086603  0.75419057  1
  H  H20  1  0.93783723  0.12241661  0.49282122  1
  H  H21  1  0.56216277  0.62241661  0.50717878  1
  H  H22  1  0.06216277  0.87758339  0.50717878  1
  H  H23  1  0.43783723  0.37758339  0.49282122  1
  H  H24  1  0.02406031  0.10261609  0.58047961  1
  H  H25  1  0.47593969  0.60261609  0.41952039  1
  H  H26  1  0.97593969  0.89738391  0.41952039  1
  H  H27  1  0.52406031  0.39738391  0.58047961  1
  H  H28  1  0.07778613  0.07027003  0.43569111  1
  H  H29  1  0.42221387  0.57027003  0.56430889  1
  H  H30  1  0.92221387  0.92972997  0.56430889  1
  H  H31  1  0.57778613  0.42972997  0.43569111  1
  H  H32  1  0.05686957  0.18216779  0.40011327  1
  H  H33  1  0.44313043  0.68216779  0.59988673  1
  H  H34  1  0.94313043  0.81783221  0.59988673  1
  H  H35  1  0.55686957  0.31783221  0.40011327  1
  H  H36  1  0.14233106  0.15826476  0.48816521  1
  H  H37  1  0.35766894  0.65826476  0.51183479  1
  H  H38  1  0.85766894  0.84173524  0.51183479  1
  H  H39  1  0.64233106  0.34173524  0.48816521  1
  H  H40  1  0.13892877  0.29521678  0.58697039  1
  H  H41  1  0.36107123  0.79521678  0.41302961  1
  H  H42  1  0.86107123  0.70478322  0.41302961  1
  H  H43  1  0.63892877  0.20478322  0.58697039  1
  H  H44  1  0.10980489  0.23662659  0.68001018  1
  H  H45  1  0.39019511  0.73662659  0.31998982  1
  H  H46  1  0.89019511  0.76337341  0.31998982  1
  H  H47  1  0.60980489  0.26337341  0.68001018  1
  H  H48  1  0.15144034  0.39333557  0.71766234  1
  H  H49  1  0.34855966  0.89333557  0.28233766  1
  H  H50  1  0.84855966  0.60666443  0.28233766  1
  H  H51  1  0.65144034  0.10666443  0.71766234  1
  H  H52  1  0.06620814  0.43604468  0.63780624  1
  H  H53  1  0.43379186  0.93604468  0.36219376  1
  H  H54  1  0.93379186  0.56395532  0.36219376  1
  H  H55  1  0.56620814  0.06395532  0.63780624  1
  H  H56  1  0.03570981  0.37802093  0.73112231  1
  H  H57  1  0.46429019  0.87802093  0.26887769  1
  H  H58  1  0.96429019  0.62197907  0.26887769  1
  H  H59  1  0.53570981  0.12197907  0.73112231  1
  H  H60  1  0.01978710  0.34230345  0.44789063  1
  H  H61  1  0.48021290  0.84230345  0.55210937  1
  H  H62  1  0.98021290  0.65769655  0.55210937  1
  H  H63  1  0.51978710  0.15769655  0.44789063  1
  H  H64  1  0.95161851  0.40104224  0.51608609  1
  H  H65  1  0.54838149  0.90104224  0.48391391  1
  H  H66  1  0.04838149  0.59895776  0.48391391  1
  H  H67  1  0.45161851  0.09895776  0.51608609  1
  H  H68  1  0.86683602  0.37366187  0.36853152  1
  H  H69  1  0.63316398  0.87366187  0.63146848  1
  H  H70  1  0.13316398  0.62633813  0.63146848  1
  H  H71  1  0.36683602  0.12633813  0.36853152  1
  H  H72  1  0.87891989  0.25615937  0.38025647  1
  H  H73  1  0.62108011  0.75615937  0.61974353  1
  H  H74  1  0.12108011  0.74384063  0.61974353  1
  H  H75  1  0.37891989  0.24384063  0.38025647  1
  H  H76  1  0.81310706  0.31709054  0.44899159  1
  H  H77  1  0.68689294  0.81709054  0.55100841  1
  H  H78  1  0.18689294  0.68290946  0.55100841  1
  H  H79  1  0.31310706  0.18290946  0.44899159  1
  H  H80  1  0.44012999  0.14575841  0.04401735  1
  H  H81  1  0.05987001  0.64575841  0.95598265  1
  H  H82  1  0.55987001  0.85424159  0.95598265  1
  H  H83  1  0.94012999  0.35424159  0.04401735  1
  H  H84  1  0.41798098  0.22132737  0.12747542  1
  H  H85  1  0.08201902  0.72132737  0.87252458  1
  H  H86  1  0.58201902  0.77867263  0.87252458  1
  H  H87  1  0.91798098  0.27867263  0.12747542  1
  H  H88  1  0.43159658  0.06592523  0.18506812  1
  H  H89  1  0.06840342  0.56592523  0.81493188  1
  H  H90  1  0.56840342  0.93407477  0.81493188  1
  H  H91  1  0.93159658  0.43407477  0.18506812  1
  H  H92  1  0.54344535  0.05543657  0.15912838  1
  H  H93  1  0.95655465  0.55543657  0.84087162  1
  H  H94  1  0.45655465  0.94456343  0.84087162  1
  H  H95  1  0.04344535  0.44456343  0.15912838  1
  H  H96  1  0.51867740  0.13172736  0.24163535  1
  H  H97  1  0.98132260  0.63172736  0.75836465  1
  H  H98  1  0.48132260  0.86827264  0.75836465  1
  H  H99  1  0.01867740  0.36827264  0.24163535  1
  H  H100  1  0.68570971  0.14876866  0.10944579  1
  H  H101  1  0.81429029  0.64876866  0.89055421  1
  H  H102  1  0.31429029  0.85123134  0.89055421  1
  H  H103  1  0.18570971  0.35123134  0.10944579  1
  H  H104  1  0.70363976  0.23582374  0.03450016  1
  H  H105  1  0.79636024  0.73582374  0.96549984  1
  H  H106  1  0.29636024  0.76417626  0.96549984  1
  H  H107  1  0.20363976  0.26417626  0.03450016  1
  H  H108  1  0.69496679  0.08588591  0.96104916  1
  H  H109  1  0.80503321  0.58588591  0.03895084  1
  H  H110  1  0.30503321  0.91411409  0.03895084  1
  H  H111  1  0.19496679  0.41411409  0.96104916  1
  H  H112  1  0.58431193  0.06836427  0.98746718  1
  H  H113  1  0.91568807  0.56836427  0.01253282  1
  H  H114  1  0.41568807  0.93163573  0.01253282  1
  H  H115  1  0.08431193  0.43163573  0.98746718  1
  H  H116  1  0.60576830  0.15469027  0.91257688  1
  H  H117  1  0.89423170  0.65469027  0.08742312  1
  H  H118  1  0.39423170  0.84530973  0.08742312  1
  H  H119  1  0.10576830  0.34530973  0.91257688  1
  H  H120  1  0.60353401  0.26242519  0.23482352  1
  H  H121  1  0.89646599  0.76242519  0.76517648  1
  H  H122  1  0.39646599  0.73757481  0.76517648  1
  H  H123  1  0.10353401  0.23757481  0.23482352  1
  H  H124  1  0.53610940  0.35306823  0.19112629  1
  H  H125  1  0.96389060  0.85306823  0.80887371  1
  H  H126  1  0.46389060  0.64693177  0.80887371  1
  H  H127  1  0.03610940  0.14693177  0.19112629  1
  H  H128  1  0.68947949  0.40415841  0.24792174  1
  H  H129  1  0.81052051  0.90415841  0.75207826  1
  H  H130  1  0.31052051  0.59584159  0.75207826  1
  H  H131  1  0.18947949  0.09584159  0.24792174  1
  H  H132  1  0.74091449  0.32887377  0.17988780  1
  H  H133  1  0.75908551  0.82887377  0.82011220  1
  H  H134  1  0.25908551  0.67112623  0.82011220  1
  H  H135  1  0.24091449  0.17112623  0.17988780  1
  H  H136  1  0.67599783  0.42005277  0.13204911  1
  H  H137  1  0.82400217  0.92005277  0.86795089  1
  H  H138  1  0.32400217  0.57994723  0.86795089  1
  H  H139  1  0.17599783  0.07994723  0.13204911  1
  H  H140  1  0.50800513  0.27271836  0.93369374  1
  H  H141  1  0.99199487  0.77271836  0.06630626  1
  H  H142  1  0.49199487  0.72728164  0.06630626  1
  H  H143  1  0.00800513  0.22728164  0.93369374  1
  H  H144  1  0.57875946  0.36021709  0.97851136  1
  H  H145  1  0.92124054  0.86021709  0.02148864  1
  H  H146  1  0.42124054  0.63978291  0.02148864  1
  H  H147  1  0.07875946  0.13978291  0.97851136  1
  H  H148  1  0.42048592  0.41240182  0.93518656  1
  H  H149  1  0.07951408  0.91240182  0.06481344  1
  H  H150  1  0.57951408  0.58759818  0.06481344  1
  H  H151  1  0.92048592  0.08759818  0.93518656  1
  H  H152  1  0.37711096  0.33423877  0.00586191  1
  H  H153  1  0.12288904  0.83423877  0.99413809  1
  H  H154  1  0.62288904  0.66576123  0.99413809  1
  H  H155  1  0.87711096  0.16576123  0.00586191  1
  H  H156  1  0.44602238  0.42419888  0.05087604  1
  H  H157  1  0.05397762  0.92419888  0.94912396  1
  H  H158  1  0.55397762  0.57580112  0.94912396  1
  H  H159  1  0.94602238  0.07580112  0.05087604  1
  C  C0  1  0.89178460  0.24586174  0.63218951  1
  C  C1  1  0.60821540  0.74586174  0.36781049  1
  C  C2  1  0.10821540  0.75413826  0.36781049  1
  C  C3  1  0.39178460  0.25413826  0.63218951  1
  C  C4  1  0.90248845  0.17593714  0.70569385  1
  C  C5  1  0.59751155  0.67593714  0.29430615  1
  C  C6  1  0.09751155  0.82406286  0.29430615  1
  C  C7  1  0.40248845  0.32406286  0.70569385  1
  C  C8  1  0.00449397  0.14579286  0.52304092  1
  C  C9  1  0.49550603  0.64579286  0.47695908  1
  C  C10  1  0.99550603  0.85420714  0.47695908  1
  C  C11  1  0.50449397  0.35420714  0.52304092  1
  C  C12  1  0.07439861  0.13975101  0.45810287  1
  C  C13  1  0.42560139  0.63975101  0.54189713  1
  C  C14  1  0.92560139  0.86024899  0.54189713  1
  C  C15  1  0.57439861  0.36024899  0.45810287  1
  C  C16  1  0.08846399  0.29111323  0.63368341  1
  C  C17  1  0.41153601  0.79111323  0.36631659  1
  C  C18  1  0.91153601  0.70888677  0.36631659  1
  C  C19  1  0.58846399  0.20888677  0.63368341  1
  C  C20  1  0.08414272  0.37993482  0.68267169  1
  C  C21  1  0.41585728  0.87993482  0.31732831  1
  C  C22  1  0.91585728  0.62006518  0.31732831  1
  C  C23  1  0.58414272  0.12006518  0.68267169  1
  C  C24  1  0.95886047  0.33720407  0.48166741  1
  C  C25  1  0.54113953  0.83720407  0.51833259  1
  C  C26  1  0.04113953  0.66279593  0.51833259  1
  C  C27  1  0.45886047  0.16279593  0.48166741  1
  C  C28  1  0.87469789  0.31894847  0.41664929  1
  C  C29  1  0.62530211  0.81894847  0.58335071  1
  C  C30  1  0.12530211  0.68105153  0.58335071  1
  C  C31  1  0.37469789  0.18105153  0.41664929  1
  C  C32  1  0.46931416  0.17544542  0.10695041  1
  C  C33  1  0.03068584  0.67544542  0.89304959  1
  C  C34  1  0.53068584  0.82455458  0.89304959  1
  C  C35  1  0.96931416  0.32455458  0.10695041  1
  C  C36  1  0.49328595  0.10353334  0.17718299  1
  C  C37  1  0.00671405  0.60353334  0.82281701  1
  C  C38  1  0.50671405  0.89646666  0.82281701  1
  C  C39  1  0.99328595  0.39646666  0.17718299  1
  C  C40  1  0.65500716  0.18465108  0.05052161  1
  C  C41  1  0.84499284  0.68465108  0.94947839  1
  C  C42  1  0.34499284  0.81534892  0.94947839  1
  C  C43  1  0.15500716  0.31534892  0.05052161  1
  C  C44  1  0.63263111  0.12008019  0.97329108  1
  C  C45  1  0.86736889  0.62008019  0.02670892  1
  C  C46  1  0.36736889  0.87991981  0.02670892  1
  C  C47  1  0.13263111  0.37991981  0.97329108  1
  C  C48  1  0.59529187  0.31187828  0.18111758  1
  C  C49  1  0.90470813  0.81187828  0.81888242  1
  C  C50  1  0.40470813  0.68812172  0.81888242  1
  C  C51  1  0.09529187  0.18812172  0.18111758  1
  C  C52  1  0.68037232  0.36944633  0.18426598  1
  C  C53  1  0.81962768  0.86944633  0.81573402  1
  C  C54  1  0.31962768  0.63055367  0.81573402  1
  C  C55  1  0.18037232  0.13055367  0.18426598  1
  C  C56  1  0.52036006  0.31863872  0.99008498  1
  C  C57  1  0.97963994  0.81863872  0.00991502  1
  C  C58  1  0.47963994  0.68136128  0.00991502  1
  C  C59  1  0.02036006  0.18136128  0.99008498  1
  C  C60  1  0.43624705  0.37535920  0.99706644  1
  C  C61  1  0.06375295  0.87535920  0.00293356  1
  C  C62  1  0.56375295  0.62464080  0.00293356  1
  C  C63  1  0.93624705  0.12464080  0.99706644  1
  O  O0  1  0.88281376  0.37330235  0.86280502  1
  O  O1  1  0.61718624  0.87330235  0.13719498  1
  O  O2  1  0.11718624  0.62669765  0.13719498  1
  O  O3  1  0.38281376  0.12669765  0.86280502  1
  O  O4  1  0.75605906  0.38562718  0.97174345  1
  O  O5  1  0.74394094  0.88562718  0.02825655  1
  O  O6  1  0.24394094  0.61437282  0.02825655  1
  O  O7  1  0.25605906  0.11437282  0.97174345  1
  O  O8  1  0.71648545  0.30979098  0.81342028  1
  O  O9  1  0.78351455  0.80979098  0.18657972  1
  O  O10  1  0.28351455  0.69020902  0.18657972  1
  O  O11  1  0.21648545  0.19020902  0.81342028  1
  O  O12  1  0.74318292  0.49822008  0.82352219  1
  O  O13  1  0.75681708  0.99822008  0.17647781  1
  O  O14  1  0.25681708  0.50177992  0.17647781  1
  O  O15  1  0.24318292  0.00177992  0.82352219  1
  O  O16  1  0.56183983  0.49715142  0.75860710  1
  O  O17  1  0.93816017  0.99715142  0.24139290  1
  O  O18  1  0.43816017  0.50284858  0.24139290  1
  O  O19  1  0.06183983  0.00284858  0.75860710  1
  O  O20  1  0.65204450  0.64920208  0.77269867  1
  O  O21  1  0.84795550  0.14920208  0.22730133  1
  O  O22  1  0.34795550  0.35079792  0.22730133  1
  O  O23  1  0.15204450  0.85079792  0.77269867  1
  O  O24  1  0.68277919  0.52878769  0.64345305  1
  O  O25  1  0.81722081  0.02878769  0.35654695  1
  O  O26  1  0.31722081  0.47121231  0.35654695  1
  O  O27  1  0.18277919  0.97121231  0.64345305  1
  O  O28  1  0.86350765  0.49303210  0.61566149  1
  O  O29  1  0.63649235  0.99303210  0.38433851  1
  O  O30  1  0.13649235  0.50696790  0.38433851  1
  O  O31  1  0.36350765  0.00696790  0.61566149  1
  O  O32  1  0.74738620  0.55526768  0.48198583  1
  O  O33  1  0.75261380  0.05526768  0.51801417  1
  O  O34  1  0.25261380  0.44473232  0.51801417  1
  O  O35  1  0.24738620  0.94473232  0.48198583  1
  O  O36  1  0.81035256  0.66360513  0.61449414  1
  O  O37  1  0.68964744  0.16360513  0.38550586  1
  O  O38  1  0.18964744  0.33639487  0.38550586  1
  O  O39  1  0.31035256  0.83639487  0.61449414  1
loop_
_geom_bond_atom_site_label_1
_geom_bond_atom_site_label_2
_geom_bond_distance
_geom_bond_site_symmetry_2
Cr0 O8 1.623894 1_555
Cr0 O0 1.628605 1_555
Cr0 O4 1.633756 1_555
Cr0 O12 1.849042 1_555
Cr1 O9 1.623894 1_555
Cr1 O1 1.628605 1_555
Cr1 O5 1.633756 1_555
Cr1 O13 1.849042 1_555
Cr2 O10 1.623894 1_555
Cr2 O2 1.628605 1_555
Cr2 O6 1.633756 1_555
Cr2 O14 1.849042 1_555
Cr3 O11 1.623894 1_555
Cr3 O3 1.628605 1_555
Cr3 O7 1.633756 1_555
Cr3 O15 1.849042 1_555
Cr4 O16 1.612854 1_555
Cr4 O20 1.614260 1_555
Cr4 O12 1.730425 1_555
Cr4 O24 1.738980 1_555
Cr5 O17 1.612854 1_545
Cr5 O21 1.614260 1_555
Cr5 O13 1.730425 1_545
Cr5 O25 1.738980 1_555
Cr6 O18 1.612854 1_555
Cr6 O22 1.614260 1_555
Cr6 O14 1.730425 1_555
Cr6 O26 1.738980 1_555
Cr7 O19 1.612854 1_565
Cr7 O23 1.614260 1_555
Cr7 O15 1.730425 1_565
Cr7 O27 1.738980 1_555
Cr8 O28 1.624089 1_555
Cr8 O32 1.625204 1_555
Cr8 O36 1.628752 1_555
Cr8 O24 1.854705 1_555
Cr9 O29 1.624089 1_545
Cr9 O33 1.625204 1_555
Cr9 O37 1.628752 1_555
Cr9 O25 1.854705 1_555
Cr10 O30 1.624089 1_555
Cr10 O34 1.625204 1_555
Cr10 O38 1.628752 1_555
Cr10 O26 1.854705 1_555
Cr11 O31 1.624089 1_565
Cr11 O35 1.625204 1_555
Cr11 O39 1.628752 1_555
Cr11 O27 1.854705 1_555
C0 H4 1.100965 1_555
C0 H0 1.101441 1_555
C0 P0 1.810976 1_555
C1 H5 1.100965 1_555
C1 H1 1.101441 1_555
C1 P1 1.810976 1_555
C2 H6 1.100965 1_555
C2 H2 1.101441 1_555
C2 P2 1.810976 1_555
C3 H7 1.100965 1_555
C3 H3 1.101441 1_555
C3 P3 1.810976 1_555
C4 H12 1.096446 1_555
C4 H16 1.097185 1_555
C4 H8 1.097711 1_555
C5 H13 1.096446 1_555
C5 H17 1.097185 1_555
C5 H9 1.097711 1_555
C6 H14 1.096446 1_555
C6 H18 1.097185 1_555
C6 H10 1.097711 1_555
C7 H15 1.096446 1_555
C7 H19 1.097185 1_555
C7 H11 1.097711 1_555
C8 H20 1.101415 1_455
C8 H24 1.101506 1_555
C8 P0 1.812968 1_455
C9 H21 1.101415 1_555
C9 H25 1.101506 1_555
C9 P1 1.812968 1_555
C10 H22 1.101415 1_655
C10 H26 1.101506 1_555
C10 P2 1.812968 1_655
C11 H23 1.101415 1_555
C11 H27 1.101506 1_555
C11 P3 1.812968 1_555
C12 H36 1.096373 1_555
C12 H32 1.096752 1_555
C12 H28 1.097055 1_555
C13 H37 1.096373 1_555
C13 H33 1.096752 1_555
C13 H29 1.097055 1_555
C14 H38 1.096373 1_555
C14 H34 1.096752 1_555
C14 H30 1.097055 1_555
C15 H39 1.096373 1_555
C15 H35 1.096752 1_555
C15 H31 1.097055 1_555
C16 H44 1.101501 1_555
C16 H40 1.101905 1_555
C16 P0 1.810717 1_455
C17 H45 1.101501 1_555
C17 H41 1.101905 1_555
C17 P1 1.810717 1_555
C18 H46 1.101501 1_555
C18 H42 1.101905 1_555
C18 P2 1.810717 1_655
C19 H47 1.101501 1_555
C19 H43 1.101905 1_555
C19 P3 1.810717 1_555
C20 H52 1.096648 1_555
C20 H48 1.097384 1_555
C20 H56 1.097597 1_555
C21 H53 1.096648 1_555
C21 H49 1.097384 1_555
C21 H57 1.097597 1_555
C22 H54 1.096648 1_555
C22 H50 1.097384 1_555
C22 H58 1.097597 1_555
C23 H55 1.096648 1_555
C23 H51 1.097384 1_555
C23 H59 1.097597 1_555
C24 H64 1.101958 1_555
C24 H60 1.102102 1_655
C24 P0 1.809386 1_555
C25 H65 1.101958 1_555
C25 H61 1.102102 1_555
C25 P1 1.809386 1_555
C26 H66 1.101958 1_555
C26 H62 1.102102 1_455
C26 P2 1.809386 1_555
C27 H67 1.101958 1_555
C27 H63 1.102102 1_555
C27 P3 1.809386 1_555
C28 H76 1.096253 1_555
C28 H72 1.097445 1_555
C28 H68 1.097703 1_555
C29 H77 1.096253 1_555
C29 H73 1.097445 1_555
C29 H69 1.097703 1_555
C30 H78 1.096253 1_555
C30 H74 1.097445 1_555
C30 H70 1.097703 1_555
C31 H79 1.096253 1_555
C31 H75 1.097445 1_555
C31 H71 1.097703 1_555
C32 H80 1.101571 1_555
C32 H84 1.102121 1_555
C32 P4 1.810728 1_555
C33 H81 1.101571 1_555
C33 H85 1.102121 1_555
C33 P5 1.810728 1_455
C34 H82 1.101571 1_555
C34 H86 1.102121 1_555
C34 P6 1.810728 1_555
C35 H83 1.101571 1_555
C35 H87 1.102121 1_555
C35 P7 1.810728 1_655
C36 H92 1.097291 1_555
C36 H96 1.097563 1_555
C36 H88 1.097701 1_555
C37 H93 1.097291 1_455
C37 H97 1.097563 1_455
C37 H89 1.097701 1_555
C38 H94 1.097291 1_555
C38 H98 1.097563 1_555
C38 H90 1.097701 1_555
C39 H95 1.097291 1_655
C39 H99 1.097563 1_655
C39 H91 1.097701 1_555
C40 H100 1.100632 1_555
C40 H104 1.102452 1_555
C40 P4 1.809738 1_555
C41 H101 1.100632 1_555
C41 H105 1.102452 1_555
C41 P5 1.809738 1_555
C42 H102 1.100632 1_555
C42 H106 1.102452 1_555
C42 P6 1.809738 1_555
C43 H103 1.100632 1_555
C43 H107 1.102452 1_555
C43 P7 1.809738 1_555
C44 H116 1.096509 1_555
C44 H112 1.096721 1_555
C44 H108 1.097279 1_555
C45 H117 1.096509 1_555
C45 H113 1.096721 1_555
C45 H109 1.097279 1_555
C46 H118 1.096509 1_555
C46 H114 1.096721 1_555
C46 H110 1.097279 1_555
C47 H119 1.096509 1_555
C47 H115 1.096721 1_555
C47 H111 1.097279 1_555
C48 H120 1.101720 1_555
C48 H124 1.102450 1_555
C48 P4 1.813878 1_555
C49 H121 1.101720 1_555
C49 H125 1.102450 1_555
C49 P5 1.813878 1_555
C50 H122 1.101720 1_555
C50 H126 1.102450 1_555
C50 P6 1.813878 1_555
C51 H123 1.101720 1_555
C51 H127 1.102450 1_555
C51 P7 1.813878 1_555
C52 H132 1.096854 1_555
C52 H136 1.097112 1_555
C52 H128 1.098282 1_555
C53 H133 1.096854 1_555
C53 H137 1.097112 1_555
C53 H129 1.098282 1_555
C54 H134 1.096854 1_555
C54 H138 1.097112 1_555
C54 H130 1.098282 1_555
C55 H135 1.096854 1_555
C55 H139 1.097112 1_555
C55 H131 1.098282 1_555
C56 H140 1.101158 1_555
C56 H144 1.102121 1_555
C56 P4 1.812313 1_556
C57 H141 1.101158 1_555
C57 H145 1.102121 1_555
C57 P5 1.812313 1_554
C58 H142 1.101158 1_555
C58 H146 1.102121 1_555
C58 P6 1.812313 1_554
C59 H143 1.101158 1_555
C59 H147 1.102121 1_555
C59 P7 1.812313 1_556
C60 H152 1.097048 1_556
C60 H156 1.097464 1_556
C60 H148 1.098204 1_555
C61 H153 1.097048 1_554
C61 H157 1.097464 1_554
C61 H149 1.098204 1_555
C62 H154 1.097048 1_554
C62 H158 1.097464 1_554
C62 H150 1.098204 1_555
C63 H155 1.097048 1_556
C63 H159 1.097464 1_556
C63 H151 1.098204 1_555
