# generated using pymatgen
data_Co
_symmetry_space_group_name_H-M   'P 1'
_cell_length_a   4.97393292
_cell_length_b   16.25315801
_cell_length_c   4.97393409
_cell_angle_alpha   90.00406662
_cell_angle_beta   119.97880905
_cell_angle_gamma   89.99593412
_symmetry_Int_Tables_number   1
_chemical_formula_structural   Co
_chemical_formula_sum   Co32
_cell_volume   348.30606336
_cell_formula_units_Z   32
loop_
 _symmetry_equiv_pos_site_id
 _symmetry_equiv_pos_as_xyz
  1  'x, y, z'
loop_
 _atom_site_type_symbol
 _atom_site_label
 _atom_site_symmetry_multiplicity
 _atom_site_fract_x
 _atom_site_fract_y
 _atom_site_fract_z
 _atom_site_occupancy
  Co  Co0_0  1  0.33335250  0.31501450  0.16664750  1
  Co  Co0_1  1  0.33335250  0.31501450  0.66664750  1
  Co  Co0_2  1  0.33335250  0.81501450  0.16664750  1
  Co  Co0_3  1  0.33335250  0.81501450  0.66664750  1
  Co  Co0_4  1  0.83335250  0.31501450  0.16664750  1
  Co  Co0_5  1  0.83335250  0.31501450  0.66664750  1
  Co  Co0_6  1  0.83335250  0.81501450  0.16664750  1
  Co  Co0_7  1  0.83335250  0.81501450  0.66664750  1
  Co  Co1_0  1  0.16664800  0.43508950  0.33335200  1
  Co  Co1_1  1  0.16664800  0.43508950  0.83335200  1
  Co  Co1_2  1  0.16664800  0.93508950  0.33335200  1
  Co  Co1_3  1  0.16664800  0.93508950  0.83335200  1
  Co  Co1_4  1  0.66664800  0.43508950  0.33335200  1
  Co  Co1_5  1  0.66664800  0.43508950  0.83335200  1
  Co  Co1_6  1  0.66664800  0.93508950  0.33335200  1
  Co  Co1_7  1  0.66664800  0.93508950  0.83335200  1
  Co  Co2_0  1  0.33335250  0.06491600  0.16664750  1
  Co  Co2_1  1  0.33335250  0.06491600  0.66664750  1
  Co  Co2_2  1  0.33335250  0.56491600  0.16664750  1
  Co  Co2_3  1  0.33335250  0.56491600  0.66664750  1
  Co  Co2_4  1  0.83335250  0.06491600  0.16664750  1
  Co  Co2_5  1  0.83335250  0.06491600  0.66664750  1
  Co  Co2_6  1  0.83335250  0.56491600  0.16664750  1
  Co  Co2_7  1  0.83335250  0.56491600  0.66664750  1
  Co  Co3_0  1  0.16664700  0.18498000  0.33335300  1
  Co  Co3_1  1  0.16664700  0.18498000  0.83335300  1
  Co  Co3_2  1  0.16664700  0.68498000  0.33335300  1
  Co  Co3_3  1  0.16664700  0.68498000  0.83335300  1
  Co  Co3_4  1  0.66664700  0.18498000  0.33335300  1
  Co  Co3_5  1  0.66664700  0.18498000  0.83335300  1
  Co  Co3_6  1  0.66664700  0.68498000  0.33335300  1
  Co  Co3_7  1  0.66664700  0.68498000  0.83335300  1
loop_
_geom_bond_atom_site_label_1
_geom_bond_atom_site_label_2
_geom_bond_distance
_geom_bond_site_symmetry_2
Co0_0 Co1_0 2.422899 1_555
Co0_0 Co1_4 2.423024 1_555
Co0_0 Co1_1 2.423024 1_554
Co0_0 Co0_4 2.486966 1_455
Co0_0 Co0_4 2.486966 1_555
Co0_0 Co0_1 2.486967 1_555
Co0_0 Co0_1 2.486967 1_554
Co0_0 Co0_5 2.487763 1_555
Co0_0 Co0_5 2.487763 1_454
Co0_0 Co3_4 2.555109 1_555
Co0_0 Co3_1 2.555109 1_554
Co0_0 Co3_0 2.555278 1_555
Co0_1 Co1_1 2.422899 1_555
Co0_1 Co1_5 2.423024 1_555
Co0_1 Co1_0 2.423024 1_555
Co0_1 Co0_5 2.486966 1_455
Co0_1 Co0_5 2.486966 1_555
Co0_1 Co0_4 2.487763 1_556
Co0_1 Co0_4 2.487763 1_455
Co0_1 Co3_5 2.555109 1_555
Co0_1 Co3_0 2.555109 1_555
Co0_1 Co3_1 2.555278 1_555
Co0_2 Co1_2 2.422899 1_555
Co0_2 Co1_6 2.423024 1_555
Co0_2 Co1_3 2.423024 1_554
Co0_2 Co0_6 2.486966 1_455
Co0_2 Co0_6 2.486966 1_555
Co0_2 Co0_3 2.486967 1_554
Co0_2 Co0_3 2.486967 1_555
Co0_2 Co0_7 2.487763 1_555
Co0_2 Co0_7 2.487763 1_454
Co0_2 Co3_6 2.555109 1_555
Co0_2 Co3_3 2.555109 1_554
Co0_2 Co3_2 2.555278 1_555
Co0_3 Co1_3 2.422899 1_555
Co0_3 Co1_7 2.423024 1_555
Co0_3 Co1_2 2.423024 1_555
Co0_3 Co0_7 2.486966 1_555
Co0_3 Co0_7 2.486966 1_455
Co0_3 Co0_6 2.487763 1_556
Co0_3 Co0_6 2.487763 1_455
Co0_3 Co3_7 2.555109 1_555
Co0_3 Co3_2 2.555109 1_555
Co0_3 Co3_3 2.555278 1_555
Co0_4 Co1_4 2.422899 1_555
Co0_4 Co1_0 2.423024 1_655
Co0_4 Co1_5 2.423024 1_554
Co0_4 Co0_5 2.486967 1_555
Co0_4 Co0_5 2.486967 1_554
Co0_4 Co3_0 2.555109 1_655
Co0_4 Co3_5 2.555109 1_554
Co0_4 Co3_4 2.555278 1_555
Co0_5 Co1_5 2.422899 1_555
Co0_5 Co1_1 2.423024 1_655
Co0_5 Co1_4 2.423024 1_555
Co0_5 Co3_1 2.555109 1_655
Co0_5 Co3_4 2.555109 1_555
Co0_5 Co3_5 2.555278 1_555
Co0_6 Co1_6 2.422899 1_555
Co0_6 Co1_2 2.423024 1_655
Co0_6 Co1_7 2.423024 1_554
Co0_6 Co0_7 2.486967 1_554
Co0_6 Co0_7 2.486967 1_555
Co0_6 Co3_2 2.555109 1_655
Co0_6 Co3_7 2.555109 1_554
Co0_6 Co3_6 2.555278 1_555
Co0_7 Co1_7 2.422899 1_555
Co0_7 Co1_3 2.423024 1_655
Co0_7 Co1_6 2.423024 1_555
Co0_7 Co3_3 2.555109 1_655
Co0_7 Co3_6 2.555109 1_555
Co0_7 Co3_7 2.555278 1_555
Co1_0 Co1_4 2.486966 1_455
Co1_0 Co1_4 2.486966 1_555
Co1_0 Co1_1 2.486967 1_555
Co1_0 Co1_1 2.486967 1_554
Co1_0 Co1_5 2.487763 1_454
Co1_0 Co1_5 2.487763 1_555
Co1_0 Co2_6 2.552316 1_455
Co1_0 Co2_3 2.552316 1_555
Co1_0 Co2_2 2.552478 1_555
Co1_1 Co1_5 2.486966 1_455
Co1_1 Co1_5 2.486966 1_555
Co1_1 Co1_4 2.487763 1_556
Co1_1 Co1_4 2.487763 1_455
Co1_1 Co2_7 2.552316 1_455
Co1_1 Co2_2 2.552316 1_556
Co1_1 Co2_3 2.552478 1_555
Co1_2 Co1_6 2.486966 1_555
Co1_2 Co1_6 2.486966 1_455
Co1_2 Co1_3 2.486967 1_554
Co1_2 Co1_3 2.486967 1_555
Co1_2 Co1_7 2.487763 1_555
Co1_2 Co1_7 2.487763 1_454
Co1_2 Co2_4 2.552316 1_465
Co1_2 Co2_1 2.552316 1_565
Co1_2 Co2_0 2.552478 1_565
Co1_3 Co1_7 2.486966 1_555
Co1_3 Co1_7 2.486966 1_455
Co1_3 Co1_6 2.487763 1_556
Co1_3 Co1_6 2.487763 1_455
Co1_3 Co2_5 2.552316 1_465
Co1_3 Co2_0 2.552316 1_566
Co1_3 Co2_1 2.552478 1_565
Co1_4 Co1_5 2.486967 1_554
Co1_4 Co1_5 2.486967 1_555
Co1_4 Co2_2 2.552316 1_555
Co1_4 Co2_7 2.552316 1_555
Co1_4 Co2_6 2.552478 1_555
Co1_5 Co2_3 2.552316 1_555
Co1_5 Co2_6 2.552316 1_556
Co1_5 Co2_7 2.552478 1_555
Co1_6 Co1_7 2.486967 1_555
Co1_6 Co1_7 2.486967 1_554
Co1_6 Co2_0 2.552316 1_565
Co1_6 Co2_5 2.552316 1_565
Co1_6 Co2_4 2.552478 1_565
Co1_7 Co2_1 2.552316 1_565
Co1_7 Co2_4 2.552316 1_566
Co1_7 Co2_5 2.552478 1_565
Co2_0 Co3_0 2.422760 1_555
Co2_0 Co3_4 2.422877 1_555
Co2_0 Co3_1 2.422877 1_554
Co2_0 Co2_4 2.486966 1_455
Co2_0 Co2_4 2.486966 1_555
Co2_0 Co2_1 2.486967 1_555
Co2_0 Co2_1 2.486967 1_554
Co2_0 Co2_5 2.487763 1_555
Co2_0 Co2_5 2.487763 1_454
Co2_1 Co3_1 2.422760 1_555
Co2_1 Co3_5 2.422877 1_555
Co2_1 Co3_0 2.422877 1_555
Co2_1 Co2_5 2.486966 1_555
Co2_1 Co2_5 2.486966 1_455
Co2_1 Co2_4 2.487763 1_556
Co2_1 Co2_4 2.487763 1_455
Co2_2 Co3_2 2.422760 1_555
Co2_2 Co3_6 2.422877 1_555
Co2_2 Co3_3 2.422877 1_554
Co2_2 Co2_6 2.486966 1_555
Co2_2 Co2_6 2.486966 1_455
Co2_2 Co2_3 2.486967 1_554
Co2_2 Co2_3 2.486967 1_555
Co2_2 Co2_7 2.487763 1_555
Co2_2 Co2_7 2.487763 1_454
Co2_3 Co3_3 2.422760 1_555
Co2_3 Co3_7 2.422877 1_555
Co2_3 Co3_2 2.422877 1_555
Co2_3 Co2_7 2.486966 1_555
Co2_3 Co2_7 2.486966 1_455
Co2_3 Co2_6 2.487763 1_556
Co2_3 Co2_6 2.487763 1_455
Co2_4 Co3_4 2.422760 1_555
Co2_4 Co3_0 2.422877 1_655
Co2_4 Co3_5 2.422877 1_554
Co2_4 Co2_5 2.486967 1_555
Co2_4 Co2_5 2.486967 1_554
Co2_5 Co3_5 2.422760 1_555
Co2_5 Co3_1 2.422877 1_655
Co2_5 Co3_4 2.422877 1_555
Co2_6 Co3_6 2.422760 1_555
Co2_6 Co3_2 2.422877 1_655
Co2_6 Co3_7 2.422877 1_554
Co2_6 Co2_7 2.486967 1_555
Co2_6 Co2_7 2.486967 1_554
Co2_7 Co3_7 2.422760 1_555
Co2_7 Co3_3 2.422877 1_655
Co2_7 Co3_6 2.422877 1_555
Co3_0 Co3_4 2.486966 1_555
Co3_0 Co3_4 2.486966 1_455
Co3_0 Co3_1 2.486967 1_555
Co3_0 Co3_1 2.486967 1_554
Co3_0 Co3_5 2.487763 1_454
Co3_0 Co3_5 2.487763 1_555
Co3_1 Co3_5 2.486966 1_455
Co3_1 Co3_5 2.486966 1_555
Co3_1 Co3_4 2.487763 1_556
Co3_1 Co3_4 2.487763 1_455
Co3_2 Co3_6 2.486966 1_555
Co3_2 Co3_6 2.486966 1_455
Co3_2 Co3_3 2.486967 1_554
Co3_2 Co3_3 2.486967 1_555
Co3_2 Co3_7 2.487763 1_555
Co3_2 Co3_7 2.487763 1_454
Co3_3 Co3_7 2.486966 1_455
Co3_3 Co3_7 2.486966 1_555
Co3_3 Co3_6 2.487763 1_556
Co3_3 Co3_6 2.487763 1_455
Co3_4 Co3_5 2.486967 1_555
Co3_4 Co3_5 2.486967 1_554
Co3_6 Co3_7 2.486967 1_555
Co3_6 Co3_7 2.486967 1_554
