# generated using pymatgen
data_Mg2H18Se2O17
_symmetry_space_group_name_H-M   'P 1'
_cell_length_a   7.28758913
_cell_length_b   10.54424330
_cell_length_c   20.18433212
_cell_angle_alpha   90.00000000
_cell_angle_beta   90.00000000
_cell_angle_gamma   102.51274269
_symmetry_Int_Tables_number   1
_chemical_formula_structural   Mg2H18Se2O17
_chemical_formula_sum   'Mg8 H72 Se8 O68'
_cell_volume   1514.16697682
_cell_formula_units_Z   4
loop_
 _symmetry_equiv_pos_site_id
 _symmetry_equiv_pos_as_xyz
  1  'x, y, z'
loop_
 _atom_site_type_symbol
 _atom_site_label
 _atom_site_symmetry_multiplicity
 _atom_site_fract_x
 _atom_site_fract_y
 _atom_site_fract_z
 _atom_site_occupancy
  Mg  Mg0  1  0.26146537  0.47686081  0.64968600  1
  Mg  Mg1  1  0.23853463  0.52313919  0.14968600  1
  Mg  Mg2  1  0.73853463  0.52313919  0.35031400  1
  Mg  Mg3  1  0.76146537  0.47686081  0.85031400  1
  Mg  Mg4  1  0.24420427  0.98391128  0.62075173  1
  Mg  Mg5  1  0.25579573  0.01608872  0.12075173  1
  Mg  Mg6  1  0.75579573  0.01608872  0.37924827  1
  Mg  Mg7  1  0.74420427  0.98391128  0.87924827  1
  H  H0  1  0.95580142  0.55342791  0.59443339  1
  H  H1  1  0.54419858  0.44657209  0.09443339  1
  H  H2  1  0.04419858  0.44657209  0.40556661  1
  H  H3  1  0.45580142  0.55342791  0.90556661  1
  H  H4  1  0.55617638  0.09619100  0.69005617  1
  H  H5  1  0.94382362  0.90380900  0.19005617  1
  H  H6  1  0.44382362  0.90380900  0.30994383  1
  H  H7  1  0.05617638  0.09619100  0.80994383  1
  H  H8  1  0.92802981  0.87189045  0.69438838  1
  H  H9  1  0.57197019  0.12810955  0.19438838  1
  H  H10  1  0.07197019  0.12810955  0.30561162  1
  H  H11  1  0.42802981  0.87189045  0.80561162  1
  H  H12  1  0.11091751  0.86599236  0.73533877  1
  H  H13  1  0.38908249  0.13400764  0.23533877  1
  H  H14  1  0.88908249  0.13400764  0.26466123  1
  H  H15  1  0.61091751  0.86599236  0.76466123  1
  H  H16  1  0.06275518  0.14986979  0.44457178  1
  H  H17  1  0.43724482  0.85013021  0.94457178  1
  H  H18  1  0.93724482  0.85013021  0.55542822  1
  H  H19  1  0.56275518  0.14986979  0.05542822  1
  H  H20  1  0.38774695  0.10649705  0.50496701  1
  H  H21  1  0.11225305  0.89350295  0.00496701  1
  H  H22  1  0.61225305  0.89350295  0.49503299  1
  H  H23  1  0.88774695  0.10649705  0.99503299  1
  H  H24  1  0.64524521  0.48171834  0.57318806  1
  H  H25  1  0.85475479  0.51828166  0.07318806  1
  H  H26  1  0.35475479  0.51828166  0.42681194  1
  H  H27  1  0.14524521  0.48171834  0.92681194  1
  H  H28  1  0.76936593  0.38300405  0.55105816  1
  H  H29  1  0.73063407  0.61699595  0.05105816  1
  H  H30  1  0.23063407  0.61699595  0.44894184  1
  H  H31  1  0.26936593  0.38300405  0.94894184  1
  H  H32  1  0.55659860  0.12544458  0.55700064  1
  H  H33  1  0.94340140  0.87455542  0.05700064  1
  H  H34  1  0.44340140  0.87455542  0.44299936  1
  H  H35  1  0.05659860  0.12544458  0.94299936  1
  H  H36  1  0.48074546  0.36797674  0.73345619  1
  H  H37  1  0.01925454  0.63202326  0.23345619  1
  H  H38  1  0.51925454  0.63202326  0.26654381  1
  H  H39  1  0.98074546  0.36797674  0.76654381  1
  H  H40  1  0.41561519  0.26471307  0.67904549  1
  H  H41  1  0.08438481  0.73528693  0.17904549  1
  H  H42  1  0.58438481  0.73528693  0.32095451  1
  H  H43  1  0.91561519  0.26471307  0.82095451  1
  H  H44  1  0.37747658  0.09106595  0.73736388  1
  H  H45  1  0.12252342  0.90893405  0.23736388  1
  H  H46  1  0.62252342  0.90893405  0.26263612  1
  H  H47  1  0.87747658  0.09106595  0.76263612  1
  H  H48  1  0.25255562  0.42385271  0.51776831  1
  H  H49  1  0.24744438  0.57614729  0.01776831  1
  H  H50  1  0.74744438  0.57614729  0.48223169  1
  H  H51  1  0.75255562  0.42385271  0.98223169  1
  H  H52  1  0.23124995  0.63925739  0.76171541  1
  H  H53  1  0.26875005  0.36074261  0.26171541  1
  H  H54  1  0.76875005  0.36074261  0.23828459  1
  H  H55  1  0.73124995  0.63925739  0.73828459  1
  H  H56  1  0.11463021  0.68086680  0.61008397  1
  H  H57  1  0.38536979  0.31913320  0.11008397  1
  H  H58  1  0.88536979  0.31913320  0.38991603  1
  H  H59  1  0.61463021  0.68086680  0.88991603  1
  H  H60  1  0.35054287  0.53934454  0.78096780  1
  H  H61  1  0.14945713  0.46065546  0.28096780  1
  H  H62  1  0.64945713  0.46065546  0.21903220  1
  H  H63  1  0.85054287  0.53934454  0.71903220  1
  H  H64  1  0.23645017  0.28767017  0.55744608  1
  H  H65  1  0.26354983  0.71232983  0.05744608  1
  H  H66  1  0.76354983  0.71232983  0.44255392  1
  H  H67  1  0.73645017  0.28767017  0.94255392  1
  H  H68  1  0.88664174  0.15938295  0.49152098  1
  H  H69  1  0.61335826  0.84061705  0.99152098  1
  H  H70  1  0.11335826  0.84061705  0.50847902  1
  H  H71  1  0.38664174  0.15938295  0.00847902  1
  Se  Se0  1  0.92184635  0.19728233  0.63363362  1
  Se  Se1  1  0.57815365  0.80271767  0.13363362  1
  Se  Se2  1  0.07815365  0.80271767  0.36636638  1
  Se  Se3  1  0.42184635  0.19728233  0.86636638  1
  Se  Se4  1  0.56798065  0.76591107  0.62786851  1
  Se  Se5  1  0.93201935  0.23408893  0.12786851  1
  Se  Se6  1  0.43201935  0.23408893  0.37213149  1
  Se  Se7  1  0.06798065  0.76591107  0.87213149  1
  O  O0  1  0.78595973  0.09563824  0.68604718  1
  O  O1  1  0.71404027  0.90436176  0.18604718  1
  O  O2  1  0.21404027  0.90436176  0.31395282  1
  O  O3  1  0.28595973  0.09563824  0.81395282  1
  O  O4  1  0.49253424  0.60816309  0.61026685  1
  O  O5  1  0.00746576  0.39183691  0.11026685  1
  O  O6  1  0.50746576  0.39183691  0.38973315  1
  O  O7  1  0.99253424  0.60816309  0.88973315  1
  O  O8  1  0.79394718  0.22128899  0.56689671  1
  O  O9  1  0.70605282  0.77871101  0.06689671  1
  O  O10  1  0.20605282  0.77871101  0.43310329  1
  O  O11  1  0.29394718  0.22128899  0.93310329  1
  O  O12  1  0.00669730  0.33816298  0.67302671  1
  O  O13  1  0.49330270  0.66183702  0.17302671  1
  O  O14  1  0.99330270  0.66183702  0.32697329  1
  O  O15  1  0.50669730  0.33816298  0.82697329  1
  O  O16  1  0.69494457  0.77979677  0.69869100  1
  O  O17  1  0.80505543  0.22020323  0.19869100  1
  O  O18  1  0.30505543  0.22020323  0.30130900  1
  O  O19  1  0.19494457  0.77979677  0.80130900  1
  O  O20  1  0.92367388  0.14188495  0.44586858  1
  O  O21  1  0.57632612  0.85811505  0.94586858  1
  O  O22  1  0.07632612  0.85811505  0.55413142  1
  O  O23  1  0.42367388  0.14188495  0.05413142  1
  O  O24  1  0.70405355  0.84001979  0.56630250  1
  O  O25  1  0.79594645  0.15998021  0.06630250  1
  O  O26  1  0.29594645  0.15998021  0.43369750  1
  O  O27  1  0.20405355  0.84001979  0.93369750  1
  O  O28  1  0.10092348  0.13749828  0.60497177  1
  O  O29  1  0.39907652  0.86250172  0.10497177  1
  O  O30  1  0.89907652  0.86250172  0.39502823  1
  O  O31  1  0.60092348  0.13749828  0.89502823  1
  O  O32  1  0.06821187  0.58977213  0.62266655  1
  O  O33  1  0.43178813  0.41022787  0.12266655  1
  O  O34  1  0.93178813  0.41022787  0.37733345  1
  O  O35  1  0.56821187  0.58977213  0.87733345  1
  O  O36  1  0.42018951  0.10030665  0.69016185  1
  O  O37  1  0.07981049  0.89969335  0.19016185  1
  O  O38  1  0.57981049  0.89969335  0.30983815  1
  O  O39  1  0.92018951  0.10030665  0.80983815  1
  O  O40  1  0.38131186  0.83013966  0.63891595  1
  O  O41  1  0.11868814  0.16986034  0.13891595  1
  O  O42  1  0.61868814  0.16986034  0.36108405  1
  O  O43  1  0.88131186  0.83013966  0.86108405  1
  O  O44  1  0.06453940  0.91104590  0.69787190  1
  O  O45  1  0.43546060  0.08895410  0.19787190  1
  O  O46  1  0.93546060  0.08895410  0.30212810  1
  O  O47  1  0.56453940  0.91104590  0.80212810  1
  O  O48  1  0.42409267  0.08123956  0.54974713  1
  O  O49  1  0.07590733  0.91876044  0.04974713  1
  O  O50  1  0.57590733  0.91876044  0.45025287  1
  O  O51  1  0.92409267  0.08123956  0.95025287  1
  O  O52  1  0.43371385  0.35962457  0.68766445  1
  O  O53  1  0.06628615  0.64037543  0.18766445  1
  O  O54  1  0.56628615  0.64037543  0.31233555  1
  O  O55  1  0.93371385  0.35962457  0.81233555  1
  O  O56  1  0.27765688  0.38289852  0.55999457  1
  O  O57  1  0.22234312  0.61710148  0.05999457  1
  O  O58  1  0.72234312  0.61710148  0.44000543  1
  O  O59  1  0.77765688  0.38289852  0.94000543  1
  O  O60  1  0.76295217  0.47629407  0.55057428  1
  O  O61  1  0.73704783  0.52370593  0.05057428  1
  O  O62  1  0.23704783  0.52370593  0.44942572  1
  O  O63  1  0.26295217  0.47629407  0.94942572  1
  O  O64  1  0.27263209  0.56075094  0.74517389  1
  O  O65  1  0.22736791  0.43924906  0.24517389  1
  O  O66  1  0.72736791  0.43924906  0.25482611  1
  O  O67  1  0.77263209  0.56075094  0.75482611  1
loop_
_geom_bond_atom_site_label_1
_geom_bond_atom_site_label_2
_geom_bond_distance
_geom_bond_site_symmetry_2
Mg0 O56 2.079326 1_555
Mg0 O52 2.088981 1_555
Mg0 O4 2.091715 1_555
Mg0 O32 2.103540 1_555
Mg0 O64 2.114849 1_555
Mg0 O12 2.152049 1_555
Mg1 O57 2.079326 1_555
Mg1 O53 2.088981 1_555
Mg1 O5 2.091715 1_555
Mg1 O33 2.103540 1_555
Mg1 O65 2.114849 1_555
Mg1 O13 2.152049 1_555
Mg2 O58 2.079326 1_555
Mg2 O54 2.088981 1_555
Mg2 O6 2.091715 1_555
Mg2 O34 2.103540 1_555
Mg2 O66 2.114849 1_555
Mg2 O14 2.152049 1_555
Mg3 O59 2.079326 1_555
Mg3 O55 2.088981 1_555
Mg3 O7 2.091715 1_555
Mg3 O35 2.103540 1_555
Mg3 O67 2.114849 1_555
Mg3 O15 2.152049 1_555
Mg4 O48 2.059814 1_565
Mg4 O44 2.071664 1_555
Mg4 O22 2.088345 1_555
Mg4 O36 2.105194 1_565
Mg4 O40 2.112758 1_555
Mg4 O28 2.132397 1_565
Mg5 O49 2.059814 1_545
Mg5 O45 2.071664 1_555
Mg5 O23 2.088345 1_555
Mg5 O37 2.105194 1_545
Mg5 O41 2.112758 1_555
Mg5 O29 2.132397 1_545
Mg6 O50 2.059814 1_545
Mg6 O46 2.071664 1_555
Mg6 O20 2.088345 1_555
Mg6 O38 2.105194 1_545
Mg6 O42 2.112758 1_555
Mg6 O30 2.132397 1_545
Mg7 O51 2.059814 1_565
Mg7 O47 2.071664 1_555
Mg7 O21 2.088345 1_555
Mg7 O39 2.105194 1_565
Mg7 O43 2.112758 1_555
Mg7 O31 2.132397 1_565
H0 O32 1.003327 1_655
H1 O33 1.003327 1_555
H2 O34 1.003327 1_455
H3 O35 1.003327 1_555
H4 O36 1.001317 1_555
H4 O0 1.677792 1_555
H5 O37 1.001317 1_655
H5 O1 1.677792 1_555
H6 O38 1.001317 1_555
H6 O2 1.677792 1_555
H7 O39 1.001317 1_455
H7 O3 1.677792 1_555
H8 O44 0.993532 1_655
H9 O45 0.993532 1_555
H10 O46 0.993532 1_455
H11 O47 0.993532 1_555
H12 O44 0.990651 1_555
H13 O45 0.990651 1_555
H14 O46 0.990651 1_555
H15 O47 0.990651 1_555
H16 O20 0.999057 1_455
H16 O26 1.693814 1_555
H17 O21 0.999057 1_555
H17 O27 1.693814 1_555
H18 O22 0.999057 1_655
H18 O24 1.693814 1_555
H19 O23 0.999057 1_555
H19 O25 1.693814 1_555
H20 O48 0.994288 1_555
H20 O26 1.731599 1_555
H21 O49 0.994288 1_555
H21 O27 1.731599 1_554
H22 O50 0.994288 1_555
H22 O24 1.731599 1_555
H23 O51 0.994288 1_555
H23 O25 1.731599 1_556
H24 O60 0.984222 1_555
H25 O61 0.984222 1_555
H26 O62 0.984222 1_555
H27 O63 0.984222 1_555
H28 O60 0.994894 1_555
H29 O61 0.994894 1_555
H30 O62 0.994894 1_555
H31 O63 0.994894 1_555
H32 O48 0.987996 1_555
H33 O49 0.987996 1_655
H34 O50 0.987996 1_555
H35 O51 0.987996 1_455
H36 O52 0.983076 1_555
H37 O53 0.983076 1_555
H38 O54 0.983076 1_555
H39 O55 0.983076 1_555
H40 O52 0.995995 1_555
H41 O53 0.995995 1_555
H42 O54 0.995995 1_555
H43 O55 0.995995 1_555
H44 O36 1.000480 1_555
H44 O3 1.688449 1_555
H45 O37 1.000480 1_555
H45 O2 1.688449 1_555
H46 O38 1.000480 1_555
H46 O1 1.688449 1_555
H47 O39 1.000480 1_555
H47 O0 1.688449 1_555
H48 O56 0.990252 1_555
H49 O57 0.990252 1_555
H50 O58 0.990252 1_555
H51 O59 0.990252 1_555
H52 O64 0.997915 1_555
H53 O65 0.997915 1_555
H54 O66 0.997915 1_555
H55 O67 0.997915 1_555
H56 O32 0.980177 1_555
H57 O33 0.980177 1_555
H58 O34 0.980177 1_555
H59 O35 0.980177 1_555
H60 O64 0.975103 1_555
H61 O65 0.975103 1_555
H62 O66 0.975103 1_555
H63 O67 0.975103 1_555
H64 O56 0.985092 1_555
H65 O57 0.985092 1_555
H66 O58 0.985092 1_555
H67 O59 0.985092 1_555
H68 O20 0.988708 1_555
H69 O21 0.988708 1_555
H70 O22 0.988708 1_555
H71 O23 0.988708 1_555
O0 Se0 1.669928 1_555
O1 Se1 1.669928 1_555
O2 Se2 1.669928 1_555
O3 Se3 1.669928 1_555
O4 Se4 1.672998 1_555
O5 Se5 1.672998 1_455
O6 Se6 1.672998 1_555
O7 Se7 1.672998 1_655
O8 Se0 1.688074 1_555
O9 Se1 1.688074 1_555
O10 Se2 1.688074 1_555
O11 Se3 1.688074 1_555
O12 Se0 1.680242 1_455
O13 Se1 1.680242 1_555
O14 Se2 1.680242 1_655
O15 Se3 1.680242 1_555
O16 Se4 1.691841 1_555
O17 Se5 1.691841 1_555
O18 Se6 1.691841 1_555
O19 Se7 1.691841 1_555
O24 Se4 1.674046 1_555
O25 Se5 1.674046 1_555
O26 Se6 1.674046 1_555
O27 Se7 1.674046 1_555
O28 Se0 1.670828 1_455
O29 Se1 1.670828 1_555
O30 Se2 1.670828 1_655
O31 Se3 1.670828 1_555
O40 Se4 1.660778 1_555
O41 Se5 1.660778 1_455
O42 Se6 1.660778 1_555
O43 Se7 1.660778 1_655
