# generated using pymatgen
data_Zn2RuN3
_symmetry_space_group_name_H-M   'P 1'
_cell_length_a   5.62904020
_cell_length_b   5.58932062
_cell_length_c   5.27793337
_cell_angle_alpha   90.00000000
_cell_angle_beta   90.00000000
_cell_angle_gamma   119.76685937
_symmetry_Int_Tables_number   1
_chemical_formula_structural   Zn2RuN3
_chemical_formula_sum   'Zn4 Ru2 N6'
_cell_volume   144.14626748
_cell_formula_units_Z   2
loop_
 _symmetry_equiv_pos_site_id
 _symmetry_equiv_pos_as_xyz
  1  'x, y, z'
loop_
 _atom_site_type_symbol
 _atom_site_label
 _atom_site_symmetry_multiplicity
 _atom_site_fract_x
 _atom_site_fract_y
 _atom_site_fract_z
 _atom_site_occupancy
  Zn  Zn0  1  0.33504769  0.82809582  0.47330910  1
  Zn  Zn1  1  0.66495231  0.49304913  0.47330910  1
  Zn  Zn2  1  0.66495231  0.17190418  0.97330910  1
  Zn  Zn3  1  0.33504769  0.50695087  0.97330910  1
  Ru  Ru0  1  1.00000000  0.83097804  0.96191505  1
  Ru  Ru1  1  0.00000000  0.16902196  0.46191505  1
  N  N0  1  0.32020231  0.84046495  0.85445877  1
  N  N1  1  0.67979769  0.52026164  0.85445877  1
  N  N2  1  0.67979769  0.15953505  0.35445877  1
  N  N3  1  0.32020231  0.47973836  0.35445877  1
  N  N4  1  0.00000000  0.85065368  0.32692920  1
  N  N5  1  1.00000000  0.14934632  0.82692920  1
loop_
_geom_bond_atom_site_label_1
_geom_bond_atom_site_label_2
_geom_bond_distance
_geom_bond_site_symmetry_2
N0 Ru0 1.865027 1_455
N0 Zn2 2.005401 1_565
N0 Zn3 2.007505 1_555
N0 Zn0 2.016027 1_555
N1 Ru0 1.865030 1_555
N1 Zn3 2.005401 1_555
N1 Zn2 2.007495 1_555
N1 Zn1 2.016027 1_555
N2 Ru1 1.865027 1_655
N2 Zn0 2.005401 1_545
N2 Zn1 2.007505 1_555
N2 Zn2 2.016027 1_554
N3 Ru1 1.865030 1_555
N3 Zn1 2.005401 1_555
N3 Zn0 2.007495 1_555
N3 Zn3 2.016027 1_554
N4 Ru1 1.916785 1_565
N4 Ru0 1.929657 1_454
N4 Zn1 2.099016 1_455
N4 Zn0 2.099019 1_555
N5 Ru0 1.916785 1_545
N5 Ru1 1.929657 1_655
N5 Zn3 2.099016 1_655
N5 Zn2 2.099019 1_555
