# generated using pymatgen
data_Li3MnCoO5
_symmetry_space_group_name_H-M   'P 1'
_cell_length_a   6.53438959
_cell_length_b   6.53438959
_cell_length_c   9.78478971
_cell_angle_alpha   78.82349762
_cell_angle_beta   78.82349762
_cell_angle_gamma   25.79146823
_symmetry_Int_Tables_number   1
_chemical_formula_structural   Li3MnCoO5
_chemical_formula_sum   'Li6 Mn2 Co2 O10'
_cell_volume   178.15057989
_cell_formula_units_Z   2
loop_
 _symmetry_equiv_pos_site_id
 _symmetry_equiv_pos_as_xyz
  1  'x, y, z'
loop_
 _atom_site_type_symbol
 _atom_site_label
 _atom_site_symmetry_multiplicity
 _atom_site_fract_x
 _atom_site_fract_y
 _atom_site_fract_z
 _atom_site_occupancy
  Li  Li0  1  0.80676800  0.80676800  0.60131700  1
  Li  Li1  1  0.19323200  0.19323200  0.39868300  1
  Li  Li2  1  0.40224300  0.40224300  0.79155800  1
  Li  Li3  1  0.00000000  0.00000000  0.00000000  1
  Li  Li4  1  0.59775700  0.59775700  0.20844200  1
  Li  Li5  1  0.50000000  0.50000000  0.50000000  1
  Mn  Mn0  1  0.09473000  0.09473000  0.69435100  1
  Mn  Mn1  1  0.90527000  0.90527000  0.30564900  1
  Co  Co0  1  0.29801500  0.29801500  0.10158600  1
  Co  Co1  1  0.70198500  0.70198500  0.89841400  1
  O  O0  1  0.64548400  0.64548400  0.56775400  1
  O  O1  1  0.03995500  0.03995500  0.34356300  1
  O  O2  1  0.23978300  0.23978300  0.75590800  1
  O  O3  1  0.84408300  0.84408300  0.96119600  1
  O  O4  1  0.44233500  0.44233500  0.16489900  1
  O  O5  1  0.96004500  0.96004500  0.65643700  1
  O  O6  1  0.35451600  0.35451600  0.43224600  1
  O  O7  1  0.55766500  0.55766500  0.83510100  1
  O  O8  1  0.15591700  0.15591700  0.03880400  1
  O  O9  1  0.76021700  0.76021700  0.24409200  1
loop_
_geom_bond_atom_site_label_1
_geom_bond_atom_site_label_2
_geom_bond_distance
_geom_bond_site_symmetry_2
Li0 O5 2.126600 1_555
Li0 O0 2.144217 1_555
Li0 O2 2.151660 1_655
Li0 O2 2.151660 1_565
Li0 O6 2.198480 1_655
Li0 O6 2.198480 1_565
Li1 O1 2.126600 1_555
Li1 O6 2.144217 1_555
Li1 O9 2.151660 1_545
Li1 O9 2.151660 1_455
Li1 O0 2.198480 1_545
Li1 O0 2.198480 1_455
Li2 O5 2.007433 1_545
Li2 O5 2.007433 1_455
Li2 O7 2.106465 1_555
Li2 O2 2.166114 1_555
Li2 O3 2.223006 1_545
Li2 O3 2.223006 1_455
Li3 O8 2.095061 1_555
Li3 O3 2.095061 1_444
Li3 O4 2.190519 1_455
Li3 O7 2.190519 1_544
Li3 O4 2.190519 1_545
Li3 O7 2.190519 1_454
Li4 O1 2.007433 1_565
Li4 O1 2.007433 1_655
Li4 O4 2.106465 1_555
Li4 O9 2.166114 1_555
Li4 O8 2.223006 1_565
Li4 O8 2.223006 1_655
Li5 O0 2.088789 1_555
Li5 O6 2.088789 1_555
Li5 O5 2.102141 1_545
Li5 O5 2.102141 1_455
Li5 O1 2.102141 1_565
Li5 O1 2.102141 1_655
Mn0 O5 1.826101 1_445
Mn0 O0 1.939249 1_545
Mn0 O0 1.939249 1_455
Mn0 O7 1.996939 1_455
Mn0 O7 1.996939 1_545
Mn0 O2 2.054261 1_555
Mn1 O1 1.826101 1_665
Mn1 O6 1.939249 1_565
Mn1 O6 1.939249 1_655
Mn1 O4 1.996939 1_565
Mn1 O4 1.996939 1_655
Mn1 O9 2.054261 1_555
Co0 O9 2.008952 1_455
Co0 O9 2.008952 1_545
Co0 O3 2.009363 1_544
Co0 O3 2.009363 1_454
Co0 O8 2.023976 1_555
Co0 O4 2.053505 1_555
Co1 O2 2.008952 1_655
Co1 O2 2.008952 1_565
Co1 O8 2.009363 1_566
Co1 O8 2.009363 1_656
Co1 O3 2.023976 1_555
Co1 O7 2.053505 1_555
