# generated using pymatgen
data_Ca
_symmetry_space_group_name_H-M   'P 1'
_cell_length_a   7.61045182
_cell_length_b   7.61045182
_cell_length_c   7.61045182
_cell_angle_alpha   107.68834408
_cell_angle_beta   107.68834408
_cell_angle_gamma   113.09902716
_symmetry_Int_Tables_number   1
_chemical_formula_structural   Ca
_chemical_formula_sum   Ca8
_cell_volume   338.29282797
_cell_formula_units_Z   8
loop_
 _symmetry_equiv_pos_site_id
 _symmetry_equiv_pos_as_xyz
  1  'x, y, z'
loop_
 _atom_site_type_symbol
 _atom_site_label
 _atom_site_symmetry_multiplicity
 _atom_site_fract_x
 _atom_site_fract_y
 _atom_site_fract_z
 _atom_site_occupancy
  Ca  Ca0_0  1  0.00000000  0.00000000  0.00000000  1
  Ca  Ca0_1  1  0.00000000  0.00000000  0.50000000  1
  Ca  Ca0_2  1  0.00000000  0.50000000  0.00000000  1
  Ca  Ca0_3  1  0.00000000  0.50000000  0.50000000  1
  Ca  Ca0_4  1  0.50000000  0.00000000  0.00000000  1
  Ca  Ca0_5  1  0.50000000  0.00000000  0.50000000  1
  Ca  Ca0_6  1  0.50000000  0.50000000  0.00000000  1
  Ca  Ca0_7  1  0.50000000  0.50000000  0.50000000  1
loop_
_geom_bond_atom_site_label_1
_geom_bond_atom_site_label_2
_geom_bond_distance
_geom_bond_site_symmetry_2
Ca0_0 Ca0_1 3.805226 1_554
Ca0_0 Ca0_2 3.805226 1_545
Ca0_0 Ca0_4 3.805226 1_455
Ca0_0 Ca0_7 3.805226 1_555
Ca0_0 Ca0_4 3.805226 1_555
Ca0_0 Ca0_1 3.805226 1_555
Ca0_0 Ca0_2 3.805226 1_555
Ca0_0 Ca0_7 3.805226 1_444
Ca0_1 Ca0_3 3.805226 1_555
Ca0_1 Ca0_6 3.805226 1_445
Ca0_1 Ca0_3 3.805226 1_545
Ca0_1 Ca0_5 3.805226 1_455
Ca0_1 Ca0_5 3.805226 1_555
Ca0_1 Ca0_6 3.805226 1_556
Ca0_2 Ca0_6 3.805226 1_555
Ca0_2 Ca0_3 3.805226 1_555
Ca0_2 Ca0_3 3.805226 1_554
Ca0_2 Ca0_5 3.805226 1_454
Ca0_2 Ca0_5 3.805226 1_565
Ca0_2 Ca0_6 3.805226 1_455
Ca0_3 Ca0_4 3.805226 1_455
Ca0_3 Ca0_7 3.805226 1_455
Ca0_3 Ca0_7 3.805226 1_555
Ca0_3 Ca0_4 3.805226 1_566
Ca0_4 Ca0_6 3.805226 1_555
Ca0_4 Ca0_6 3.805226 1_545
Ca0_4 Ca0_5 3.805226 1_555
Ca0_4 Ca0_5 3.805226 1_554
Ca0_5 Ca0_7 3.805226 1_555
Ca0_5 Ca0_7 3.805226 1_545
Ca0_6 Ca0_7 3.805226 1_555
Ca0_6 Ca0_7 3.805226 1_554
