# generated using pymatgen
data_Tb3RuO7
_symmetry_space_group_name_H-M   'P 1'
_cell_length_a   6.38461793
_cell_length_b   6.38461793
_cell_length_c   7.35501904
_cell_angle_alpha   90.00000000
_cell_angle_beta   90.00000000
_cell_angle_gamma   110.83560127
_symmetry_Int_Tables_number   1
_chemical_formula_structural   Tb3RuO7
_chemical_formula_sum   'Tb6 Ru2 O14'
_cell_volume   280.20872651
_cell_formula_units_Z   2
loop_
 _symmetry_equiv_pos_site_id
 _symmetry_equiv_pos_as_xyz
  1  'x, y, z'
loop_
 _atom_site_type_symbol
 _atom_site_label
 _atom_site_symmetry_multiplicity
 _atom_site_fract_x
 _atom_site_fract_y
 _atom_site_fract_z
 _atom_site_occupancy
  Tb  Tb0  1  0.00000000  -0.00000000  0.50000000  1
  Tb  Tb1  1  0.00000000  -0.00000000  0.00000000  1
  Tb  Tb2  1  0.52320093  0.07593433  0.25000000  1
  Tb  Tb3  1  0.92406567  0.47679907  0.75000000  1
  Tb  Tb4  1  0.47679907  0.92406567  0.75000000  1
  Tb  Tb5  1  0.07593433  0.52320093  0.25000000  1
  Ru  Ru0  1  0.50000000  0.50000000  0.50000000  1
  Ru  Ru1  1  0.50000000  0.50000000  0.00000000  1
  O  O0  1  0.43828072  0.18254217  0.53934252  1
  O  O1  1  0.81745783  0.56171928  0.46065748  1
  O  O2  1  0.43828072  0.18254217  0.96065748  1
  O  O3  1  0.81745783  0.56171928  0.03934252  1
  O  O4  1  0.56171928  0.81745783  0.46065748  1
  O  O5  1  0.18254217  0.43828072  0.53934252  1
  O  O6  1  0.56171928  0.81745783  0.03934252  1
  O  O7  1  0.18254217  0.43828072  0.96065748  1
  O  O8  1  0.15737805  0.89220317  0.25000000  1
  O  O9  1  0.10779683  0.84262195  0.75000000  1
  O  O10  1  0.84262195  0.10779683  0.75000000  1
  O  O11  1  0.89220317  0.15737805  0.25000000  1
  O  O12  1  0.41138208  0.41138208  0.25000000  1
  O  O13  1  0.58861792  0.58861792  0.75000000  1
loop_
_geom_bond_atom_site_label_1
_geom_bond_atom_site_label_2
_geom_bond_distance
_geom_bond_site_symmetry_2
O0 Ru0 1.943953 1_555
O0 Tb4 2.339487 1_545
O0 Tb2 2.355560 1_555
O0 Tb0 2.636718 1_555
O1 Ru0 1.943953 1_555
O1 Tb5 2.339487 1_655
O1 Tb3 2.355560 1_555
O1 Tb0 2.636718 1_665
O2 Ru1 1.943953 1_556
O2 Tb4 2.339487 1_545
O2 Tb2 2.355560 1_556
O2 Tb1 2.636718 1_556
O3 Ru1 1.943953 1_555
O3 Tb5 2.339487 1_655
O3 Tb3 2.355560 1_554
O3 Tb1 2.636718 1_665
O4 Ru0 1.943953 1_555
O4 Tb2 2.339487 1_565
O4 Tb4 2.355560 1_555
O4 Tb0 2.636718 1_665
O5 Ru0 1.943953 1_555
O5 Tb3 2.339487 1_455
O5 Tb5 2.355560 1_555
O5 Tb0 2.636718 1_555
O6 Ru1 1.943953 1_555
O6 Tb2 2.339487 1_565
O6 Tb4 2.355560 1_554
O6 Tb1 2.636718 1_665
O7 Ru1 1.943953 1_556
O7 Tb3 2.339487 1_455
O7 Tb5 2.355560 1_556
O7 Tb1 2.636718 1_556
O8 Tb2 2.209574 1_565
O8 Tb5 2.224715 1_555
O8 Tb1 2.314360 1_565
O8 Tb0 2.314360 1_565
O9 Tb3 2.209574 1_455
O9 Tb4 2.224715 1_555
O9 Tb1 2.314360 1_566
O9 Tb0 2.314360 1_565
O10 Tb4 2.209574 1_545
O10 Tb3 2.224715 1_555
O10 Tb0 2.314360 1_655
O10 Tb1 2.314360 1_656
O11 Tb5 2.209574 1_655
O11 Tb2 2.224715 1_555
O11 Tb0 2.314360 1_655
O11 Tb1 2.314360 1_655
O12 Ru0 1.947700 1_555
O12 Ru1 1.947700 1_555
O12 Tb2 2.486822 1_555
O12 Tb5 2.486822 1_555
O13 Ru0 1.947700 1_555
O13 Ru1 1.947700 1_556
O13 Tb3 2.486822 1_555
O13 Tb4 2.486822 1_555
