# generated using pymatgen
data_Ti6Al16Pd7
_symmetry_space_group_name_H-M   'P 1'
_cell_length_a   8.63491365
_cell_length_b   8.63491365
_cell_length_c   8.63491365
_cell_angle_alpha   60.00000000
_cell_angle_beta   60.00000000
_cell_angle_gamma   60.00000000
_symmetry_Int_Tables_number   1
_chemical_formula_structural   Ti6Al16Pd7
_chemical_formula_sum   'Ti6 Al16 Pd7'
_cell_volume   455.25948172
_cell_formula_units_Z   1
loop_
 _symmetry_equiv_pos_site_id
 _symmetry_equiv_pos_as_xyz
  1  'x, y, z'
loop_
 _atom_site_type_symbol
 _atom_site_label
 _atom_site_symmetry_multiplicity
 _atom_site_fract_x
 _atom_site_fract_y
 _atom_site_fract_z
 _atom_site_occupancy
  Ti  Ti0  1  0.67230700  0.67230700  0.32769300  1
  Ti  Ti1  1  0.32769300  0.67230700  0.32769300  1
  Ti  Ti2  1  0.67230700  0.32769300  0.32769300  1
  Ti  Ti3  1  0.32769300  0.32769300  0.67230700  1
  Ti  Ti4  1  0.67230700  0.32769300  0.67230700  1
  Ti  Ti5  1  0.32769300  0.67230700  0.67230700  1
  Al  Al0  1  0.87952600  0.87952600  0.36142300  1
  Al  Al1  1  0.87952600  0.36142300  0.87952600  1
  Al  Al2  1  0.36142300  0.87952600  0.87952600  1
  Al  Al3  1  0.87952600  0.87952600  0.87952600  1
  Al  Al4  1  0.12047400  0.12047400  0.63857700  1
  Al  Al5  1  0.12047400  0.63857700  0.12047400  1
  Al  Al6  1  0.63857700  0.12047400  0.12047400  1
  Al  Al7  1  0.12047400  0.12047400  0.12047400  1
  Al  Al8  1  0.65980000  0.65980000  0.02060000  1
  Al  Al9  1  0.65980000  0.02060000  0.65980000  1
  Al  Al10  1  0.02060000  0.65980000  0.65980000  1
  Al  Al11  1  0.65980000  0.65980000  0.65980000  1
  Al  Al12  1  0.34020000  0.34020000  0.97940000  1
  Al  Al13  1  0.34020000  0.97940000  0.34020000  1
  Al  Al14  1  0.97940000  0.34020000  0.34020000  1
  Al  Al15  1  0.34020000  0.34020000  0.34020000  1
  Pd  Pd0  1  0.00000000  0.00000000  0.00000000  1
  Pd  Pd1  1  0.00000000  0.00000000  0.50000000  1
  Pd  Pd2  1  0.50000000  0.00000000  0.50000000  1
  Pd  Pd3  1  0.00000000  0.50000000  0.50000000  1
  Pd  Pd4  1  0.50000000  0.50000000  0.00000000  1
  Pd  Pd5  1  0.00000000  0.50000000  0.00000000  1
  Pd  Pd6  1  0.50000000  0.00000000  0.00000000  1
loop_
_geom_bond_atom_site_label_1
_geom_bond_atom_site_label_2
_geom_bond_distance
_geom_bond_site_symmetry_2
Ti0 Ti2 2.975712 1_555
Ti0 Ti5 2.975712 1_555
Ti0 Ti4 2.975712 1_555
Ti0 Ti1 2.975712 1_555
Ti1 Ti2 2.975712 1_555
Ti1 Ti5 2.975712 1_555
Ti1 Ti3 2.975712 1_555
Ti2 Ti4 2.975712 1_555
Ti2 Ti3 2.975712 1_555
Ti3 Ti5 2.975712 1_555
Ti3 Ti4 2.975712 1_555
Ti4 Ti5 2.975712 1_555
Al0 Pd0 2.548169 1_665
Al0 Pd1 2.677316 1_665
Al0 Pd2 2.677323 1_565
Al0 Pd3 2.677323 1_655
Al0 Ti2 3.275982 1_565
Al0 Ti1 3.275982 1_655
Al0 Ti0 3.275989 1_555
Al1 Pd0 2.548169 1_656
Al1 Pd5 2.677316 1_656
Al1 Pd4 2.677323 1_556
Al1 Pd3 2.677323 1_655
Al1 Ti2 3.275982 1_556
Al1 Ti3 3.275982 1_655
Al1 Ti4 3.275989 1_555
Al2 Pd0 2.548169 1_566
Al2 Pd6 2.677316 1_566
Al2 Pd2 2.677323 1_565
Al2 Pd4 2.677323 1_556
Al2 Ti3 3.275982 1_565
Al2 Ti1 3.275982 1_556
Al2 Ti5 3.275989 1_555
Al3 Pd0 2.548162 1_666
Al3 Pd1 2.677323 1_665
Al3 Pd5 2.677323 1_656
Al3 Pd6 2.677323 1_566
Al3 Ti4 3.275984 1_565
Al3 Ti0 3.275984 1_556
Al3 Ti5 3.275984 1_655
Al4 Pd0 2.548169 1_556
Al4 Pd1 2.677316 1_555
Al4 Pd2 2.677323 1_555
Al4 Pd3 2.677323 1_555
Al4 Ti5 3.275982 1_545
Al4 Ti4 3.275982 1_455
Al4 Ti3 3.275989 1_555
Al5 Pd0 2.548169 1_565
Al5 Pd5 2.677316 1_555
Al5 Pd3 2.677323 1_555
Al5 Pd4 2.677323 1_555
Al5 Ti5 3.275982 1_554
Al5 Ti0 3.275982 1_455
Al5 Ti1 3.275989 1_555
Al6 Pd0 2.548169 1_655
Al6 Pd6 2.677316 1_555
Al6 Pd2 2.677323 1_555
Al6 Pd4 2.677323 1_555
Al6 Ti0 3.275982 1_545
Al6 Ti4 3.275982 1_554
Al6 Ti2 3.275989 1_555
Al7 Pd0 2.548162 1_555
Al7 Pd6 2.677323 1_555
Al7 Pd5 2.677323 1_555
Al7 Pd1 2.677323 1_555
Al7 Ti3 3.275984 1_554
Al7 Ti1 3.275984 1_545
Al7 Ti2 3.275984 1_455
Al8 Pd5 2.496912 1_655
Al8 Pd6 2.496912 1_565
Al8 Pd4 2.496912 1_555
Al8 Ti0 2.763941 1_555
Al8 Ti1 2.763941 1_555
Al8 Ti2 2.763941 1_555
Al9 Pd6 2.496912 1_556
Al9 Pd1 2.496912 1_655
Al9 Pd2 2.496912 1_555
Al9 Ti4 2.763941 1_555
Al9 Ti3 2.763941 1_555
Al9 Ti2 2.763941 1_555
Al10 Pd5 2.496912 1_556
Al10 Pd1 2.496912 1_565
Al10 Pd3 2.496912 1_555
Al10 Ti5 2.763941 1_555
Al10 Ti3 2.763941 1_555
Al10 Ti1 2.763941 1_555
Al11 Pd4 2.496912 1_556
Al11 Pd3 2.496912 1_655
Al11 Pd2 2.496912 1_565
Al11 Ti0 2.763941 1_555
Al11 Ti4 2.763941 1_555
Al11 Ti5 2.763941 1_555
Al12 Pd4 2.496912 1_556
Al12 Pd5 2.496912 1_556
Al12 Pd6 2.496912 1_556
Al12 Ti4 2.763941 1_555
Al12 Ti5 2.763941 1_555
Al12 Ti3 2.763941 1_555
Al13 Pd1 2.496912 1_565
Al13 Pd2 2.496912 1_565
Al13 Pd6 2.496912 1_565
Al13 Ti1 2.763941 1_555
Al13 Ti5 2.763941 1_555
Al13 Ti0 2.763941 1_555
Al14 Pd3 2.496912 1_655
Al14 Pd1 2.496912 1_655
Al14 Pd5 2.496912 1_655
Al14 Ti4 2.763941 1_555
Al14 Ti2 2.763941 1_555
Al14 Ti0 2.763941 1_555
Al15 Pd3 2.496912 1_555
Al15 Pd4 2.496912 1_555
Al15 Pd2 2.496912 1_555
Al15 Ti3 2.763941 1_555
Al15 Ti1 2.763941 1_555
Al15 Ti2 2.763941 1_555
Pd1 Ti5 3.196929 1_545
Pd1 Ti4 3.196929 1_455
Pd1 Ti2 3.196929 1_455
Pd1 Ti1 3.196929 1_545
Pd2 Ti5 3.196929 1_545
Pd2 Ti3 3.196929 1_555
Pd2 Ti0 3.196929 1_545
Pd2 Ti2 3.196929 1_555
Pd3 Ti0 3.196929 1_455
Pd3 Ti4 3.196929 1_455
Pd3 Ti3 3.196929 1_555
Pd3 Ti1 3.196929 1_555
Pd4 Ti4 3.196929 1_554
Pd4 Ti5 3.196929 1_554
Pd4 Ti1 3.196929 1_555
Pd4 Ti2 3.196929 1_555
Pd5 Ti0 3.196929 1_455
Pd5 Ti2 3.196929 1_455
Pd5 Ti3 3.196929 1_554
Pd5 Ti5 3.196929 1_554
Pd6 Ti4 3.196929 1_554
Pd6 Ti0 3.196929 1_545
Pd6 Ti1 3.196929 1_545
Pd6 Ti3 3.196929 1_554
