# generated using pymatgen
data_Pr3(Ni9Ge4)4
_symmetry_space_group_name_H-M   'P 1'
_cell_length_a   8.32693300
_cell_length_b   8.32693300
_cell_length_c   11.11222400
_cell_angle_alpha   90.00000000
_cell_angle_beta   90.00000000
_cell_angle_gamma   90.00000000
_symmetry_Int_Tables_number   1
_chemical_formula_structural   Pr3(Ni9Ge4)4
_chemical_formula_sum   'Pr3 Ni36 Ge16'
_cell_volume   770.49731180
_cell_formula_units_Z   1
loop_
 _symmetry_equiv_pos_site_id
 _symmetry_equiv_pos_as_xyz
  1  'x, y, z'
loop_
 _atom_site_type_symbol
 _atom_site_label
 _atom_site_symmetry_multiplicity
 _atom_site_fract_x
 _atom_site_fract_y
 _atom_site_fract_z
 _atom_site_occupancy
  Pr  Pr0  1  0.00000000  0.00000000  0.50000000  1
  Pr  Pr1  1  0.00000000  0.00000000  0.00000000  1
  Pr  Pr2  1  0.50000000  0.50000000  0.50000000  1
  Ni  Ni0  1  0.31542800  0.81922900  0.13132800  1
  Ni  Ni1  1  0.81734400  0.31761300  0.63104400  1
  Ni  Ni2  1  0.68457200  0.18077100  0.13132800  1
  Ni  Ni3  1  0.18265600  0.68238700  0.63104400  1
  Ni  Ni4  1  0.18077100  0.31542800  0.13132800  1
  Ni  Ni5  1  0.68238700  0.81734400  0.63104400  1
  Ni  Ni6  1  0.81922900  0.68457200  0.13132800  1
  Ni  Ni7  1  0.31761300  0.18265600  0.63104400  1
  Ni  Ni8  1  0.18077100  0.68457200  0.86867200  1
  Ni  Ni9  1  0.68238700  0.18265600  0.36895600  1
  Ni  Ni10  1  0.81922900  0.31542800  0.86867200  1
  Ni  Ni11  1  0.31761300  0.81734400  0.36895600  1
  Ni  Ni12  1  0.31542800  0.18077100  0.86867200  1
  Ni  Ni13  1  0.81734400  0.68238700  0.36895600  1
  Ni  Ni14  1  0.68457200  0.81922900  0.86867200  1
  Ni  Ni15  1  0.18265600  0.31761300  0.36895600  1
  Ni  Ni16  1  0.00000000  0.50000000  0.25017000  1
  Ni  Ni17  1  0.50000000  0.00000000  0.74983000  1
  Ni  Ni18  1  0.50000000  0.00000000  0.25017000  1
  Ni  Ni19  1  0.00000000  0.50000000  0.74983000  1
  Ni  Ni20  1  0.11203700  0.61498700  0.07031000  1
  Ni  Ni21  1  0.61306100  0.11530100  0.57097300  1
  Ni  Ni22  1  0.88796300  0.38501300  0.07031000  1
  Ni  Ni23  1  0.38693900  0.88469900  0.57097300  1
  Ni  Ni24  1  0.38501300  0.11203700  0.07031000  1
  Ni  Ni25  1  0.88469900  0.61306100  0.57097300  1
  Ni  Ni26  1  0.61498700  0.88796300  0.07031000  1
  Ni  Ni27  1  0.11530100  0.38693900  0.57097300  1
  Ni  Ni28  1  0.38501300  0.88796300  0.92969000  1
  Ni  Ni29  1  0.88469900  0.38693900  0.42902700  1
  Ni  Ni30  1  0.61498700  0.11203700  0.92969000  1
  Ni  Ni31  1  0.11530100  0.61306100  0.42902700  1
  Ni  Ni32  1  0.11203700  0.38501300  0.92969000  1
  Ni  Ni33  1  0.61306100  0.88469900  0.42902700  1
  Ni  Ni34  1  0.88796300  0.61498700  0.92969000  1
  Ni  Ni35  1  0.38693900  0.11530100  0.42902700  1
  Ge  Ge0  1  0.55504700  0.71555900  0.24514500  1
  Ge  Ge1  1  0.05601100  0.21772400  0.74917000  1
  Ge  Ge2  1  0.44495300  0.28444100  0.24514500  1
  Ge  Ge3  1  0.94398900  0.78227600  0.74917000  1
  Ge  Ge4  1  0.94398900  0.21772400  0.25083000  1
  Ge  Ge5  1  0.44495300  0.71555900  0.75485500  1
  Ge  Ge6  1  0.55504700  0.28444100  0.75485500  1
  Ge  Ge7  1  0.05601100  0.78227600  0.25083000  1
  Ge  Ge8  1  0.71555900  0.44495300  0.24514500  1
  Ge  Ge9  1  0.21772400  0.94398900  0.74917000  1
  Ge  Ge10  1  0.78227600  0.05601100  0.74917000  1
  Ge  Ge11  1  0.28444100  0.55504700  0.24514500  1
  Ge  Ge12  1  0.71555900  0.55504700  0.75485500  1
  Ge  Ge13  1  0.21772400  0.05601100  0.25083000  1
  Ge  Ge14  1  0.78227600  0.94398900  0.25083000  1
  Ge  Ge15  1  0.28444100  0.44495300  0.75485500  1
loop_
_geom_bond_atom_site_label_1
_geom_bond_atom_site_label_2
_geom_bond_distance
_geom_bond_site_symmetry_2
Ni0 Ni28 2.384075 1_554
Ni0 Ni20 2.494097 1_555
Ni0 Ni18 2.524269 1_565
Ni0 Ni24 2.596203 1_565
Ni0 Ni11 2.640685 1_555
Ni0 Ni26 2.647526 1_555
Ni0 Pr1 3.360696 1_565
Ni1 Ni29 2.384784 1_555
Ni1 Ni21 2.485391 1_555
Ni1 Ni19 2.522339 1_655
Ni1 Ni25 2.610099 1_555
Ni1 Ni27 2.633349 1_655
Ni1 Ni10 2.640685 1_555
Ni1 Pr2 3.377844 1_555
Ni1 Pr0 3.380604 1_655
Ni2 Ni30 2.384075 1_554
Ni2 Ni22 2.494097 1_555
Ni2 Ni26 2.596203 1_545
Ni2 Ni9 2.640685 1_555
Ni2 Ni24 2.647526 1_555
Ni2 Pr1 3.360696 1_655
Ni3 Ni31 2.384784 1_555
Ni3 Ni8 2.640685 1_555
Ni3 Pr2 3.377844 1_555
Ni3 Pr0 3.380604 1_565
Ni4 Pr1 3.360696 1_555
Ni5 Pr2 3.377844 1_555
Ni5 Pr0 3.380604 1_665
Ni6 Pr1 3.360696 1_665
Ni7 Pr2 3.377844 1_555
Ni7 Pr0 3.380604 1_555
Ni8 Pr1 3.360696 1_566
Ni9 Pr2 3.377844 1_555
Ni9 Pr0 3.380604 1_655
Ni10 Ni22 2.384075 1_556
Ni10 Ni30 2.494097 1_555
Ni10 Ni19 2.524269 1_655
Ni10 Ni32 2.596203 1_655
Ni10 Ni34 2.647526 1_555
Ni10 Pr1 3.360696 1_656
Ni11 Ni23 2.384784 1_555
Ni11 Ni31 2.485391 1_555
Ni11 Ni18 2.522339 1_565
Ni11 Ni33 2.610099 1_555
Ni11 Ni35 2.633349 1_565
Ni11 Pr2 3.377844 1_555
Ni11 Pr0 3.380604 1_565
Ni12 Ni24 2.384075 1_556
Ni12 Ni32 2.494097 1_555
Ni12 Ni17 2.524269 1_555
Ni12 Ni28 2.596203 1_545
Ni12 Ni7 2.640685 1_555
Ni12 Ni30 2.647526 1_555
Ni12 Pr1 3.360696 1_556
Ni13 Ni25 2.384784 1_555
Ni13 Ni33 2.485391 1_555
Ni13 Ni16 2.522339 1_655
Ni13 Ni29 2.610099 1_555
Ni13 Ni31 2.633349 1_655
Ni13 Ni6 2.640685 1_555
Ni13 Pr2 3.377844 1_555
Ni13 Pr0 3.380604 1_665
Ni14 Ni26 2.384075 1_556
Ni14 Ni34 2.494097 1_555
Ni14 Ni17 2.524269 1_565
Ni14 Ni30 2.596203 1_565
Ni14 Ni5 2.640685 1_555
Ni14 Ni28 2.647526 1_555
Ni14 Pr1 3.360696 1_666
Ni15 Ni27 2.384784 1_555
Ni15 Ni35 2.485391 1_555
Ni15 Ni16 2.522339 1_555
Ni15 Ni31 2.610099 1_555
Ni15 Ni29 2.633349 1_455
Ni15 Ni4 2.640685 1_555
Ni15 Pr2 3.377844 1_555
Ni15 Pr0 3.380604 1_555
Ni16 Ni31 2.399642 1_555
Ni16 Ni29 2.399642 1_455
Ni16 Ni20 2.404519 1_555
Ni16 Ni22 2.404519 1_455
Ni16 Ni4 2.524269 1_555
Ni16 Ni6 2.524269 1_455
Ni17 Ni21 2.399642 1_555
Ni17 Ni23 2.399642 1_545
Ni17 Ni30 2.404519 1_555
Ni17 Ni28 2.404519 1_545
Ni17 Ni5 2.522339 1_545
Ni17 Ni7 2.522339 1_555
Ni18 Ni33 2.399642 1_545
Ni18 Ni35 2.399642 1_555
Ni18 Ni26 2.404519 1_545
Ni18 Ni24 2.404519 1_555
Ni18 Ni9 2.522339 1_555
Ni18 Ni2 2.524269 1_555
Ni19 Ni25 2.399642 1_455
Ni19 Ni27 2.399642 1_555
Ni19 Ni32 2.404519 1_555
Ni19 Ni34 2.404519 1_455
Ni19 Ni3 2.522339 1_555
Ni19 Ni8 2.524269 1_555
Ni20 Ni8 2.384075 1_554
Ni20 Ni34 2.433745 1_454
Ni20 Ni32 2.471611 1_554
Ni20 Ni6 2.596203 1_455
Ni20 Ni4 2.647526 1_555
Ni20 Ni22 2.673674 1_455
Ni20 Pr1 3.429150 1_565
Ni21 Ni9 2.384784 1_555
Ni21 Ni35 2.456280 1_555
Ni21 Ni33 2.484992 1_545
Ni21 Ni7 2.610099 1_555
Ni21 Ni5 2.633349 1_545
Ni21 Ni23 2.689334 1_545
Ni21 Pr2 3.430723 1_555
Ni21 Pr0 3.453285 1_655
Ni22 Ni32 2.433745 1_654
Ni22 Ni34 2.471611 1_554
Ni22 Ni4 2.596203 1_655
Ni22 Ni6 2.647526 1_555
Ni22 Pr1 3.429150 1_655
Ni23 Ni33 2.456280 1_555
Ni23 Ni35 2.484992 1_565
Ni23 Ni3 2.485391 1_555
Ni23 Ni5 2.610099 1_555
Ni23 Ni7 2.633349 1_565
Ni23 Pr2 3.430723 1_555
Ni23 Pr0 3.453285 1_565
Ni24 Ni28 2.433745 1_544
Ni24 Ni30 2.471611 1_554
Ni24 Ni4 2.494097 1_555
Ni24 Ni26 2.673674 1_545
Ni24 Pr1 3.429150 1_555
Ni25 Ni29 2.456280 1_555
Ni25 Ni31 2.484992 1_655
Ni25 Ni5 2.485391 1_555
Ni25 Ni3 2.633349 1_655
Ni25 Ni27 2.689334 1_655
Ni25 Pr2 3.430723 1_555
Ni25 Pr0 3.453285 1_665
Ni26 Ni30 2.433745 1_564
Ni26 Ni28 2.471611 1_554
Ni26 Ni6 2.494097 1_555
Ni26 Pr1 3.429150 1_665
Ni27 Ni31 2.456280 1_555
Ni27 Ni29 2.484992 1_455
Ni27 Ni7 2.485391 1_555
Ni27 Ni3 2.610099 1_555
Ni27 Pr2 3.430723 1_555
Ni27 Pr0 3.453285 1_555
Ni28 Ni8 2.494097 1_555
Ni28 Ni30 2.673674 1_565
Ni28 Pr1 3.429150 1_566
Ni29 Ni9 2.485391 1_555
Ni29 Ni31 2.689334 1_655
Ni29 Pr2 3.430723 1_555
Ni29 Pr0 3.453285 1_655
Ni30 Pr1 3.429150 1_656
Ni31 Pr2 3.430723 1_555
Ni31 Pr0 3.453285 1_565
Ni32 Ni4 2.384075 1_556
Ni32 Ni8 2.647526 1_555
Ni32 Ni34 2.673674 1_455
Ni32 Pr1 3.429150 1_556
Ni33 Ni5 2.384784 1_555
Ni33 Ni9 2.633349 1_565
Ni33 Ni35 2.689334 1_565
Ni33 Pr2 3.430723 1_555
Ni33 Pr0 3.453285 1_665
Ni34 Ni6 2.384075 1_556
Ni34 Ni8 2.596203 1_655
Ni34 Pr1 3.429150 1_666
Ni35 Ni7 2.384784 1_555
Ni35 Ni9 2.610099 1_555
Ni35 Pr2 3.430723 1_555
Ni35 Pr0 3.453285 1_555
Ge0 Ni18 2.413113 1_565
Ge0 Ni26 2.466688 1_555
Ge0 Ni0 2.515156 1_555
Ge0 Ni33 2.528287 1_555
Ge0 Ni6 2.550574 1_555
Ge0 Ni11 2.553455 1_555
Ge0 Ni13 2.596072 1_555
Ge0 Ge8 2.619899 1_555
Ge0 Ge11 2.619899 1_555
Ge0 Ge14 2.683687 1_555
Ge0 Pr2 3.384109 1_555
Ge1 Ni19 2.396331 1_555
Ge1 Ni27 2.479959 1_555
Ge1 Ni32 2.486374 1_555
Ge1 Ni10 2.512525 1_455
Ge1 Ni1 2.522793 1_455
Ge1 Ni12 2.554276 1_555
Ge1 Ni7 2.559976 1_555
Ge1 Ge10 2.647414 1_455
Ge1 Ge9 2.647414 1_545
Ge1 Ge15 2.683687 1_555
Ge1 Pr0 3.342280 1_555
Ge1 Pr1 3.357577 1_556
Ge2 Ni18 2.413113 1_555
Ge2 Ni24 2.466688 1_555
Ge2 Ni2 2.515156 1_555
Ge2 Ni35 2.528287 1_555
Ge2 Ni4 2.550574 1_555
Ge2 Ni9 2.553455 1_555
Ge2 Ni15 2.596072 1_555
Ge2 Ge8 2.619899 1_555
Ge2 Pr2 3.384109 1_555
Ge3 Ni19 2.396331 1_655
Ge3 Ni25 2.479959 1_555
Ge3 Ni34 2.486374 1_555
Ge3 Ni8 2.512525 1_655
Ge3 Ni3 2.522793 1_655
Ge3 Ni14 2.554276 1_555
Ge3 Ni5 2.559976 1_555
Ge3 Ge9 2.647414 1_655
Ge3 Pr0 3.342280 1_665
Ge3 Pr1 3.357577 1_666
Ge4 Ni16 2.396331 1_655
Ge4 Ni29 2.479959 1_555
Ge4 Ni22 2.486374 1_555
Ge4 Ni4 2.512525 1_655
Ge4 Ni15 2.522793 1_655
Ge4 Ni2 2.554276 1_555
Ge4 Ni9 2.559976 1_555
Ge4 Ge8 2.683687 1_555
Ge4 Pr0 3.342280 1_655
Ge4 Pr1 3.357577 1_655
Ge5 Ni17 2.413113 1_565
Ge5 Ni28 2.466688 1_555
Ge5 Ni14 2.515156 1_555
Ge5 Ni23 2.528287 1_555
Ge5 Ni8 2.550574 1_555
Ge5 Ni5 2.553455 1_555
Ge5 Ni3 2.596072 1_555
Ge5 Ge9 2.683687 1_555
Ge5 Pr2 3.384109 1_555
Ge6 Ni17 2.413113 1_555
Ge6 Ni30 2.466688 1_555
Ge6 Ni12 2.515156 1_555
Ge6 Ni21 2.528287 1_555
Ge6 Ni10 2.550574 1_555
Ge6 Ni7 2.553455 1_555
Ge6 Ni1 2.596072 1_555
Ge6 Pr2 3.384109 1_555
Ge7 Ni16 2.396331 1_555
Ge7 Ni31 2.479959 1_555
Ge7 Ni20 2.486374 1_555
Ge7 Ni6 2.512525 1_455
Ge7 Ni13 2.522793 1_455
Ge7 Ni0 2.554276 1_555
Ge7 Ni11 2.559976 1_555
Ge7 Pr0 3.342280 1_565
Ge7 Pr1 3.357577 1_565
Ge8 Ni16 2.413113 1_655
Ge8 Ni22 2.466688 1_555
Ge8 Ni6 2.515156 1_555
Ge8 Ni29 2.528287 1_555
Ge8 Ni2 2.550574 1_555
Ge8 Ni13 2.553455 1_555
Ge8 Ni9 2.596072 1_555
Ge8 Pr2 3.384109 1_555
Ge9 Ni17 2.396331 1_565
Ge9 Ni23 2.479959 1_555
Ge9 Ni28 2.486374 1_555
Ge9 Ni12 2.512525 1_565
Ge9 Ni7 2.522793 1_565
Ge9 Ni8 2.554276 1_555
Ge9 Ni3 2.559976 1_555
Ge9 Pr0 3.342280 1_565
Ge9 Pr1 3.357577 1_566
Ge10 Ni17 2.396331 1_555
Ge10 Ni21 2.479959 1_555
Ge10 Ni30 2.486374 1_555
Ge10 Ni14 2.512525 1_545
Ge10 Ni5 2.522793 1_545
Ge10 Ni10 2.554276 1_555
Ge10 Ni1 2.559976 1_555
Ge10 Ge3 2.647414 1_545
Ge10 Ge6 2.683687 1_555
Ge10 Pr0 3.342280 1_655
Ge10 Pr1 3.357577 1_656
Ge11 Ni16 2.413113 1_555
Ge11 Ni20 2.466688 1_555
Ge11 Ni4 2.515156 1_555
Ge11 Ni31 2.528287 1_555
Ge11 Ni0 2.550574 1_555
Ge11 Ni15 2.553455 1_555
Ge11 Ni11 2.596072 1_555
Ge11 Ge2 2.619899 1_555
Ge11 Ge7 2.683687 1_555
Ge11 Pr2 3.384109 1_555
Ge12 Ni19 2.413113 1_655
Ge12 Ni34 2.466688 1_555
Ge12 Ni10 2.515156 1_555
Ge12 Ni25 2.528287 1_555
Ge12 Ni14 2.550574 1_555
Ge12 Ni1 2.553455 1_555
Ge12 Ni5 2.596072 1_555
Ge12 Ge5 2.619899 1_555
Ge12 Ge6 2.619899 1_555
Ge12 Ge3 2.683687 1_555
Ge12 Pr2 3.384109 1_555
Ge13 Ni18 2.396331 1_555
Ge13 Ni35 2.479959 1_555
Ge13 Ni24 2.486374 1_555
Ge13 Ni0 2.512525 1_545
Ge13 Ni11 2.522793 1_545
Ge13 Ni4 2.554276 1_555
Ge13 Ni15 2.559976 1_555
Ge13 Ge7 2.647414 1_545
Ge13 Ge4 2.647414 1_455
Ge13 Ge2 2.683687 1_555
Ge13 Pr0 3.342280 1_555
Ge13 Pr1 3.357577 1_555
Ge14 Ni18 2.396331 1_565
Ge14 Ni33 2.479959 1_555
Ge14 Ni26 2.486374 1_555
Ge14 Ni2 2.512525 1_565
Ge14 Ni9 2.522793 1_565
Ge14 Ni6 2.554276 1_555
Ge14 Ni13 2.559976 1_555
Ge14 Ge4 2.647414 1_565
Ge14 Ge7 2.647414 1_655
Ge14 Pr0 3.342280 1_665
Ge14 Pr1 3.357577 1_665
Ge15 Ni19 2.413113 1_555
Ge15 Ni32 2.466688 1_555
Ge15 Ni8 2.515156 1_555
Ge15 Ni27 2.528287 1_555
Ge15 Ni12 2.550574 1_555
Ge15 Ni3 2.553455 1_555
Ge15 Ni7 2.596072 1_555
Ge15 Ge5 2.619899 1_555
Ge15 Ge6 2.619899 1_555
Ge15 Pr2 3.384109 1_555
