# generated using pymatgen
data_PuS3
_symmetry_space_group_name_H-M   'P 1'
_cell_length_a   5.52337117
_cell_length_b   5.52337117
_cell_length_c   5.52337117
_cell_angle_alpha   138.90614672
_cell_angle_beta   138.90614672
_cell_angle_gamma   59.51798844
_symmetry_Int_Tables_number   1
_chemical_formula_structural   PuS3
_chemical_formula_sum   'Pu1 S3'
_cell_volume   72.07818253
_cell_formula_units_Z   1
loop_
 _symmetry_equiv_pos_site_id
 _symmetry_equiv_pos_as_xyz
  1  'x, y, z'
loop_
 _atom_site_type_symbol
 _atom_site_label
 _atom_site_symmetry_multiplicity
 _atom_site_fract_x
 _atom_site_fract_y
 _atom_site_fract_z
 _atom_site_occupancy
  Pu  Pu0  1  0.00000000  0.00000000  0.00000000  1
  S  S0  1  0.75000000  0.25000000  0.50000000  1
  S  S1  1  0.25000000  0.75000000  0.50000000  1
  S  S2  1  0.50000000  0.50000000  0.00000000  1
loop_
_geom_bond_atom_site_label_1
_geom_bond_atom_site_label_2
_geom_bond_distance
_geom_bond_site_symmetry_2
Pu0 S2 2.741541 1_455
Pu0 S2 2.741541 1_556
Pu0 S2 2.741541 1_444
Pu0 S2 2.741541 1_545
Pu0 S1 3.083167 1_555
Pu0 S1 3.083167 1_444
Pu0 S0 3.083167 1_455
Pu0 S0 3.083167 1_454
Pu0 S1 3.083167 1_545
Pu0 S0 3.083167 1_555
Pu0 S1 3.083167 1_544
Pu0 S0 3.083167 1_444
S0 S1 2.741541 1_656
S0 S1 2.741541 1_555
S0 S1 2.741541 1_544
S0 S1 2.741541 1_645
