# generated using pymatgen
data_Ca(SnO2)2
_symmetry_space_group_name_H-M   'P 1'
_cell_length_a   6.34086500
_cell_length_b   6.94090100
_cell_length_c   11.95796300
_cell_angle_alpha   90.00000000
_cell_angle_beta   90.00000000
_cell_angle_gamma   90.00000000
_symmetry_Int_Tables_number   1
_chemical_formula_structural   Ca(SnO2)2
_chemical_formula_sum   'Ca4 Sn8 O16'
_cell_volume   526.28569093
_cell_formula_units_Z   4
loop_
 _symmetry_equiv_pos_site_id
 _symmetry_equiv_pos_as_xyz
  1  'x, y, z'
loop_
 _atom_site_type_symbol
 _atom_site_label
 _atom_site_symmetry_multiplicity
 _atom_site_fract_x
 _atom_site_fract_y
 _atom_site_fract_z
 _atom_site_occupancy
  Ca  Ca0  1  0.50000000  0.44734500  0.00000000  1
  Ca  Ca1  1  0.00000000  0.55265500  0.50000000  1
  Ca  Ca2  1  0.50000000  0.79778400  0.50000000  1
  Ca  Ca3  1  0.00000000  0.20221600  0.00000000  1
  Sn  Sn0  1  0.00000000  0.89876100  0.29486300  1
  Sn  Sn1  1  0.00000000  0.89876100  0.70513700  1
  Sn  Sn2  1  0.50000000  0.10123900  0.20513700  1
  Sn  Sn3  1  0.50000000  0.10123900  0.79486300  1
  Sn  Sn4  1  0.25000000  0.50000000  0.25000000  1
  Sn  Sn5  1  0.75000000  0.50000000  0.75000000  1
  Sn  Sn6  1  0.75000000  0.50000000  0.25000000  1
  Sn  Sn7  1  0.25000000  0.50000000  0.75000000  1
  O  O0  1  0.00000000  0.37353200  0.33595900  1
  O  O1  1  0.00000000  0.37353200  0.66404100  1
  O  O2  1  0.50000000  0.62646800  0.16404100  1
  O  O3  1  0.50000000  0.62646800  0.83595900  1
  O  O4  1  0.00000000  0.66257300  0.17441400  1
  O  O5  1  0.00000000  0.66257300  0.82558600  1
  O  O6  1  0.50000000  0.33742700  0.32558600  1
  O  O7  1  0.50000000  0.33742700  0.67441400  1
  O  O8  1  0.26297400  0.27705000  0.12542800  1
  O  O9  1  0.73702600  0.27705000  0.87457200  1
  O  O10  1  0.76297400  0.72295000  0.37457200  1
  O  O11  1  0.23702600  0.72295000  0.62542800  1
  O  O12  1  0.23702600  0.72295000  0.37457200  1
  O  O13  1  0.76297400  0.72295000  0.62542800  1
  O  O14  1  0.73702600  0.27705000  0.12542800  1
  O  O15  1  0.26297400  0.27705000  0.87457200  1
loop_
_geom_bond_atom_site_label_1
_geom_bond_atom_site_label_2
_geom_bond_distance
_geom_bond_site_symmetry_2
Ca0 O2 2.322411 1_555
Ca0 O3 2.322411 1_554
Ca0 O14 2.430139 1_555
Ca0 O8 2.430139 1_555
Ca0 O9 2.430139 1_554
Ca0 O15 2.430139 1_554
Ca1 O1 2.322411 1_555
Ca1 O0 2.322411 1_555
Ca1 O11 2.430139 1_555
Ca1 O13 2.430139 1_455
Ca1 O12 2.430139 1_555
Ca1 O10 2.430139 1_455
Ca2 O13 2.302147 1_555
Ca2 O11 2.302147 1_555
Ca2 O10 2.302147 1_555
Ca2 O12 2.302147 1_555
Ca3 O14 2.302147 1_455
Ca3 O8 2.302147 1_555
Ca3 O15 2.302147 1_554
Ca3 O9 2.302147 1_454
O0 Sn4 2.083270 1_555
O0 Sn6 2.083270 1_455
O1 Sn7 2.083270 1_555
O1 Sn5 2.083270 1_455
O2 Sn4 2.083270 1_555
O2 Sn6 2.083270 1_555
O3 Sn7 2.083270 1_555
O3 Sn5 2.083270 1_555
O4 Sn6 2.145497 1_455
O4 Sn4 2.145497 1_555
O4 Sn0 2.182207 1_555
O5 Sn5 2.145497 1_455
O5 Sn7 2.145497 1_555
O5 Sn1 2.182207 1_555
O6 Sn4 2.145497 1_555
O6 Sn6 2.145497 1_555
O6 Sn2 2.182207 1_555
O7 Sn5 2.145497 1_555
O7 Sn7 2.145497 1_555
O7 Sn3 2.182207 1_555
O8 Sn4 2.149519 1_555
O8 Sn2 2.157885 1_555
O9 Sn5 2.149519 1_555
O9 Sn3 2.157885 1_555
O10 Sn6 2.149519 1_555
O10 Sn0 2.157885 1_655
O11 Sn7 2.149519 1_555
O11 Sn1 2.157885 1_555
O12 Sn4 2.149519 1_555
O12 Sn0 2.157885 1_555
O13 Sn5 2.149519 1_555
O13 Sn1 2.157885 1_655
O14 Sn6 2.149519 1_555
O14 Sn2 2.157885 1_555
O15 Sn7 2.149519 1_555
O15 Sn3 2.157885 1_555
