# generated using pymatgen
data_Cu2S
_symmetry_space_group_name_H-M   'P 1'
_cell_length_a   4.10850068
_cell_length_b   4.10850068
_cell_length_c   4.10850068
_cell_angle_alpha   96.34705194
_cell_angle_beta   59.13588425
_cell_angle_gamma   126.69439995
_symmetry_Int_Tables_number   1
_chemical_formula_structural   Cu2S
_chemical_formula_sum   'Cu2 S1'
_cell_volume   45.75670705
_cell_formula_units_Z   1
loop_
 _symmetry_equiv_pos_site_id
 _symmetry_equiv_pos_as_xyz
  1  'x, y, z'
loop_
 _atom_site_type_symbol
 _atom_site_label
 _atom_site_symmetry_multiplicity
 _atom_site_fract_x
 _atom_site_fract_y
 _atom_site_fract_z
 _atom_site_occupancy
  Cu  Cu0  1  0.61339900  0.29068800  0.09591300  1
  Cu  Cu1  1  0.61339900  0.70931200  0.67728900  1
  S  S0  1  0.94160200  0.00000000  0.05839800  1
loop_
_geom_bond_atom_site_label_1
_geom_bond_atom_site_label_2
_geom_bond_distance
_geom_bond_site_symmetry_2
Cu0 S0 2.222383 1_555
Cu0 S0 2.350418 1_565
Cu0 S0 2.350418 1_455
Cu1 S0 2.222383 1_565
Cu1 S0 2.350418 1_456
Cu1 S0 2.350418 1_566
