# generated using pymatgen
data_ErMg5
_symmetry_space_group_name_H-M   'P 1'
_cell_length_a   6.51440729
_cell_length_b   6.51440729
_cell_length_c   31.98694200
_cell_angle_alpha   90.00000000
_cell_angle_beta   90.00000000
_cell_angle_gamma   119.99999280
_symmetry_Int_Tables_number   1
_chemical_formula_structural   ErMg5
_chemical_formula_sum   'Er8 Mg40'
_cell_volume   1175.58274183
_cell_formula_units_Z   8
loop_
 _symmetry_equiv_pos_site_id
 _symmetry_equiv_pos_as_xyz
  1  'x, y, z'
loop_
 _atom_site_type_symbol
 _atom_site_label
 _atom_site_symmetry_multiplicity
 _atom_site_fract_x
 _atom_site_fract_y
 _atom_site_fract_z
 _atom_site_occupancy
  Er  Er0_0  1  0.33333350  0.16666650  0.25000000  1
  Er  Er0_1  1  0.33333350  0.16666650  0.75000000  1
  Er  Er0_2  1  0.33333350  0.66666650  0.25000000  1
  Er  Er0_3  1  0.33333350  0.66666650  0.75000000  1
  Er  Er0_4  1  0.83333350  0.16666650  0.25000000  1
  Er  Er0_5  1  0.83333350  0.16666650  0.75000000  1
  Er  Er0_6  1  0.83333350  0.66666650  0.25000000  1
  Er  Er0_7  1  0.83333350  0.66666650  0.75000000  1
  Mg  Mg0_0  1  0.00000000  0.00000000  0.33867450  1
  Mg  Mg0_1  1  0.00000000  0.00000000  0.83867450  1
  Mg  Mg0_2  1  0.00000000  0.50000000  0.33867450  1
  Mg  Mg0_3  1  0.00000000  0.50000000  0.83867450  1
  Mg  Mg0_4  1  0.50000000  0.00000000  0.33867450  1
  Mg  Mg0_5  1  0.50000000  0.00000000  0.83867450  1
  Mg  Mg0_6  1  0.50000000  0.50000000  0.33867450  1
  Mg  Mg0_7  1  0.50000000  0.50000000  0.83867450  1
  Mg  Mg1_0  1  0.33333350  0.16666650  0.41932450  1
  Mg  Mg1_1  1  0.33333350  0.16666650  0.91932450  1
  Mg  Mg1_2  1  0.33333350  0.66666650  0.41932450  1
  Mg  Mg1_3  1  0.33333350  0.66666650  0.91932450  1
  Mg  Mg1_4  1  0.83333350  0.16666650  0.41932450  1
  Mg  Mg1_5  1  0.83333350  0.16666650  0.91932450  1
  Mg  Mg1_6  1  0.83333350  0.66666650  0.41932450  1
  Mg  Mg1_7  1  0.83333350  0.66666650  0.91932450  1
  Mg  Mg2_0  1  0.00000000  0.00000000  0.00000000  1
  Mg  Mg2_1  1  0.00000000  0.00000000  0.50000000  1
  Mg  Mg2_2  1  0.00000000  0.50000000  0.00000000  1
  Mg  Mg2_3  1  0.00000000  0.50000000  0.50000000  1
  Mg  Mg2_4  1  0.50000000  0.00000000  0.00000000  1
  Mg  Mg2_5  1  0.50000000  0.00000000  0.50000000  1
  Mg  Mg2_6  1  0.50000000  0.50000000  0.00000000  1
  Mg  Mg2_7  1  0.50000000  0.50000000  0.50000000  1
  Mg  Mg3_0  1  0.33333350  0.16666650  0.08067550  1
  Mg  Mg3_1  1  0.33333350  0.16666650  0.58067550  1
  Mg  Mg3_2  1  0.33333350  0.66666650  0.08067550  1
  Mg  Mg3_3  1  0.33333350  0.66666650  0.58067550  1
  Mg  Mg3_4  1  0.83333350  0.16666650  0.08067550  1
  Mg  Mg3_5  1  0.83333350  0.16666650  0.58067550  1
  Mg  Mg3_6  1  0.83333350  0.66666650  0.08067550  1
  Mg  Mg3_7  1  0.83333350  0.66666650  0.58067550  1
  Mg  Mg4_0  1  0.00000000  0.00000000  0.16132550  1
  Mg  Mg4_1  1  0.00000000  0.00000000  0.66132550  1
  Mg  Mg4_2  1  0.00000000  0.50000000  0.16132550  1
  Mg  Mg4_3  1  0.00000000  0.50000000  0.66132550  1
  Mg  Mg4_4  1  0.50000000  0.00000000  0.16132550  1
  Mg  Mg4_5  1  0.50000000  0.00000000  0.66132550  1
  Mg  Mg4_6  1  0.50000000  0.50000000  0.16132550  1
  Mg  Mg4_7  1  0.50000000  0.50000000  0.66132550  1
loop_
_geom_bond_atom_site_label_1
_geom_bond_atom_site_label_2
_geom_bond_distance
_geom_bond_site_symmetry_2
Er0_0 Er0_4 3.257204 1_455
Er0_0 Er0_2 3.257204 1_555
Er0_0 Er0_2 3.257204 1_545
Er0_0 Er0_4 3.257204 1_555
Er0_0 Er0_6 3.257204 1_445
Er0_0 Er0_6 3.257204 1_555
Er0_0 Mg0_4 3.403199 1_555
Er0_0 Mg4_4 3.403199 1_555
Er0_0 Mg0_0 3.403201 1_555
Er0_0 Mg0_6 3.403201 1_555
Er0_0 Mg4_6 3.403201 1_555
Er0_0 Mg4_0 3.403201 1_555
Er0_1 Er0_5 3.257204 1_455
Er0_1 Er0_3 3.257204 1_555
Er0_1 Er0_3 3.257204 1_545
Er0_1 Er0_5 3.257204 1_555
Er0_1 Er0_7 3.257204 1_555
Er0_1 Er0_7 3.257204 1_445
Er0_1 Mg0_5 3.403199 1_555
Er0_1 Mg4_5 3.403199 1_555
Er0_1 Mg0_7 3.403201 1_555
Er0_1 Mg0_1 3.403201 1_555
Er0_1 Mg4_1 3.403201 1_555
Er0_1 Mg4_7 3.403201 1_555
Er0_2 Er0_6 3.257204 1_555
Er0_2 Er0_6 3.257204 1_455
Er0_2 Er0_4 3.257204 1_565
Er0_2 Er0_4 3.257204 1_455
Er0_2 Mg0_6 3.403199 1_555
Er0_2 Mg4_6 3.403199 1_555
Er0_2 Mg0_2 3.403201 1_555
Er0_2 Mg0_4 3.403201 1_565
Er0_2 Mg4_2 3.403201 1_555
Er0_2 Mg4_4 3.403201 1_565
Er0_3 Er0_7 3.257204 1_555
Er0_3 Er0_7 3.257204 1_455
Er0_3 Er0_5 3.257204 1_565
Er0_3 Er0_5 3.257204 1_455
Er0_3 Mg0_7 3.403199 1_555
Er0_3 Mg4_7 3.403199 1_555
Er0_3 Mg0_3 3.403201 1_555
Er0_3 Mg0_5 3.403201 1_565
Er0_3 Mg4_3 3.403201 1_555
Er0_3 Mg4_5 3.403201 1_565
Er0_4 Er0_6 3.257204 1_555
Er0_4 Er0_6 3.257204 1_545
Er0_4 Mg0_0 3.403199 1_655
Er0_4 Mg4_0 3.403199 1_655
Er0_4 Mg0_4 3.403201 1_555
Er0_4 Mg0_2 3.403201 1_655
Er0_4 Mg4_4 3.403201 1_555
Er0_4 Mg4_2 3.403201 1_655
Er0_5 Er0_7 3.257204 1_555
Er0_5 Er0_7 3.257204 1_545
Er0_5 Mg0_1 3.403199 1_655
Er0_5 Mg4_1 3.403199 1_655
Er0_5 Mg0_3 3.403201 1_655
Er0_5 Mg0_5 3.403201 1_555
Er0_5 Mg4_5 3.403201 1_555
Er0_5 Mg4_3 3.403201 1_655
Er0_6 Mg0_2 3.403199 1_655
Er0_6 Mg4_2 3.403199 1_655
Er0_6 Mg0_6 3.403201 1_555
Er0_6 Mg0_0 3.403201 1_665
Er0_6 Mg4_0 3.403201 1_665
Er0_6 Mg4_6 3.403201 1_555
Er0_7 Mg0_3 3.403199 1_655
Er0_7 Mg4_3 3.403199 1_655
Er0_7 Mg0_1 3.403201 1_665
Er0_7 Mg0_7 3.403201 1_555
Er0_7 Mg4_7 3.403201 1_555
Er0_7 Mg4_1 3.403201 1_665
Mg0_0 Mg1_4 3.192420 1_455
Mg0_0 Mg1_0 3.192422 1_555
Mg0_0 Mg1_6 3.192422 1_445
Mg0_0 Mg0_4 3.257204 1_555
Mg0_0 Mg0_4 3.257204 1_455
Mg0_0 Mg0_2 3.257204 1_555
Mg0_0 Mg0_2 3.257204 1_545
Mg0_0 Mg0_6 3.257204 1_555
Mg0_0 Mg0_6 3.257204 1_445
Mg0_1 Mg1_5 3.192420 1_455
Mg0_1 Mg1_1 3.192422 1_555
Mg0_1 Mg1_7 3.192422 1_445
Mg0_1 Mg0_5 3.257204 1_555
Mg0_1 Mg0_5 3.257204 1_455
Mg0_1 Mg0_3 3.257204 1_545
Mg0_1 Mg0_3 3.257204 1_555
Mg0_1 Mg0_7 3.257204 1_555
Mg0_1 Mg0_7 3.257204 1_445
Mg0_2 Mg1_6 3.192420 1_455
Mg0_2 Mg1_2 3.192422 1_555
Mg0_2 Mg1_4 3.192422 1_455
Mg0_2 Mg0_6 3.257204 1_555
Mg0_2 Mg0_6 3.257204 1_455
Mg0_2 Mg0_4 3.257204 1_565
Mg0_2 Mg0_4 3.257204 1_455
Mg0_3 Mg1_7 3.192420 1_455
Mg0_3 Mg1_3 3.192422 1_555
Mg0_3 Mg1_5 3.192422 1_455
Mg0_3 Mg0_7 3.257204 1_455
Mg0_3 Mg0_7 3.257204 1_555
Mg0_3 Mg0_5 3.257204 1_565
Mg0_3 Mg0_5 3.257204 1_455
Mg0_4 Mg1_0 3.192420 1_555
Mg0_4 Mg1_4 3.192422 1_555
Mg0_4 Mg1_2 3.192422 1_545
Mg0_4 Mg0_6 3.257204 1_555
Mg0_4 Mg0_6 3.257204 1_545
Mg0_5 Mg1_1 3.192420 1_555
Mg0_5 Mg1_5 3.192422 1_555
Mg0_5 Mg1_3 3.192422 1_545
Mg0_5 Mg0_7 3.257204 1_555
Mg0_5 Mg0_7 3.257204 1_545
Mg0_6 Mg1_2 3.192420 1_555
Mg0_6 Mg1_6 3.192422 1_555
Mg0_6 Mg1_0 3.192422 1_555
Mg0_7 Mg1_3 3.192420 1_555
Mg0_7 Mg1_1 3.192422 1_555
Mg0_7 Mg1_7 3.192422 1_555
Mg1_0 Mg2_5 3.193079 1_555
Mg1_0 Mg2_7 3.193081 1_555
Mg1_0 Mg2_1 3.193081 1_555
Mg1_0 Mg1_4 3.257204 1_455
Mg1_0 Mg1_2 3.257204 1_545
Mg1_0 Mg1_2 3.257204 1_555
Mg1_0 Mg1_4 3.257204 1_555
Mg1_0 Mg1_6 3.257204 1_555
Mg1_0 Mg1_6 3.257204 1_445
Mg1_1 Mg2_4 3.193079 1_556
Mg1_1 Mg2_6 3.193081 1_556
Mg1_1 Mg2_0 3.193081 1_556
Mg1_1 Mg1_5 3.257204 1_455
Mg1_1 Mg1_3 3.257204 1_555
Mg1_1 Mg1_5 3.257204 1_555
Mg1_1 Mg1_3 3.257204 1_545
Mg1_1 Mg1_7 3.257204 1_445
Mg1_1 Mg1_7 3.257204 1_555
Mg1_2 Mg2_7 3.193079 1_555
Mg1_2 Mg2_3 3.193081 1_555
Mg1_2 Mg2_5 3.193081 1_565
Mg1_2 Mg1_6 3.257204 1_555
Mg1_2 Mg1_6 3.257204 1_455
Mg1_2 Mg1_4 3.257204 1_565
Mg1_2 Mg1_4 3.257204 1_455
Mg1_3 Mg2_6 3.193079 1_556
Mg1_3 Mg2_4 3.193081 1_566
Mg1_3 Mg2_2 3.193081 1_556
Mg1_3 Mg1_7 3.257204 1_455
Mg1_3 Mg1_7 3.257204 1_555
Mg1_3 Mg1_5 3.257204 1_565
Mg1_3 Mg1_5 3.257204 1_455
Mg1_4 Mg2_1 3.193079 1_655
Mg1_4 Mg2_5 3.193081 1_555
Mg1_4 Mg2_3 3.193081 1_655
Mg1_4 Mg1_6 3.257204 1_555
Mg1_4 Mg1_6 3.257204 1_545
Mg1_5 Mg2_0 3.193079 1_656
Mg1_5 Mg2_2 3.193081 1_656
Mg1_5 Mg2_4 3.193081 1_556
Mg1_5 Mg1_7 3.257204 1_545
Mg1_5 Mg1_7 3.257204 1_555
Mg1_6 Mg2_3 3.193079 1_655
Mg1_6 Mg2_7 3.193081 1_555
Mg1_6 Mg2_1 3.193081 1_665
Mg1_7 Mg2_2 3.193079 1_656
Mg1_7 Mg2_6 3.193081 1_556
Mg1_7 Mg2_0 3.193081 1_666
Mg2_0 Mg3_4 3.193079 1_455
Mg2_0 Mg3_0 3.193081 1_555
Mg2_0 Mg3_6 3.193081 1_445
Mg2_0 Mg2_4 3.257204 1_555
Mg2_0 Mg2_2 3.257204 1_555
Mg2_0 Mg2_4 3.257204 1_455
Mg2_0 Mg2_2 3.257204 1_545
Mg2_0 Mg2_6 3.257204 1_555
Mg2_0 Mg2_6 3.257204 1_445
Mg2_1 Mg3_5 3.193079 1_455
Mg2_1 Mg3_1 3.193081 1_555
Mg2_1 Mg3_7 3.193081 1_445
Mg2_1 Mg2_5 3.257204 1_555
Mg2_1 Mg2_3 3.257204 1_555
Mg2_1 Mg2_5 3.257204 1_455
Mg2_1 Mg2_3 3.257204 1_545
Mg2_1 Mg2_7 3.257204 1_555
Mg2_1 Mg2_7 3.257204 1_445
Mg2_2 Mg3_6 3.193079 1_455
Mg2_2 Mg3_2 3.193081 1_555
Mg2_2 Mg3_4 3.193081 1_455
Mg2_2 Mg2_6 3.257204 1_455
Mg2_2 Mg2_6 3.257204 1_555
Mg2_2 Mg2_4 3.257204 1_455
Mg2_2 Mg2_4 3.257204 1_565
Mg2_3 Mg3_7 3.193079 1_455
Mg2_3 Mg3_3 3.193081 1_555
Mg2_3 Mg3_5 3.193081 1_455
Mg2_3 Mg2_7 3.257204 1_455
Mg2_3 Mg2_7 3.257204 1_555
Mg2_3 Mg2_5 3.257204 1_455
Mg2_3 Mg2_5 3.257204 1_565
Mg2_4 Mg3_0 3.193079 1_555
Mg2_4 Mg3_4 3.193081 1_555
Mg2_4 Mg3_2 3.193081 1_545
Mg2_4 Mg2_6 3.257204 1_555
Mg2_4 Mg2_6 3.257204 1_545
Mg2_5 Mg3_1 3.193079 1_555
Mg2_5 Mg3_5 3.193081 1_555
Mg2_5 Mg3_3 3.193081 1_545
Mg2_5 Mg2_7 3.257204 1_555
Mg2_5 Mg2_7 3.257204 1_545
Mg2_6 Mg3_2 3.193079 1_555
Mg2_6 Mg3_0 3.193081 1_555
Mg2_6 Mg3_6 3.193081 1_555
Mg2_7 Mg3_3 3.193079 1_555
Mg2_7 Mg3_7 3.193081 1_555
Mg2_7 Mg3_1 3.193081 1_555
Mg3_0 Mg4_4 3.192420 1_555
Mg3_0 Mg4_6 3.192422 1_555
Mg3_0 Mg4_0 3.192422 1_555
Mg3_0 Mg3_4 3.257204 1_455
Mg3_0 Mg3_2 3.257204 1_545
Mg3_0 Mg3_4 3.257204 1_555
Mg3_0 Mg3_2 3.257204 1_555
Mg3_0 Mg3_6 3.257204 1_445
Mg3_0 Mg3_6 3.257204 1_555
Mg3_1 Mg4_5 3.192420 1_555
Mg3_1 Mg4_1 3.192422 1_555
Mg3_1 Mg4_7 3.192422 1_555
Mg3_1 Mg3_5 3.257204 1_455
Mg3_1 Mg3_3 3.257204 1_555
Mg3_1 Mg3_3 3.257204 1_545
Mg3_1 Mg3_5 3.257204 1_555
Mg3_1 Mg3_7 3.257204 1_445
Mg3_1 Mg3_7 3.257204 1_555
Mg3_2 Mg4_6 3.192420 1_555
Mg3_2 Mg4_2 3.192422 1_555
Mg3_2 Mg4_4 3.192422 1_565
Mg3_2 Mg3_6 3.257204 1_555
Mg3_2 Mg3_6 3.257204 1_455
Mg3_2 Mg3_4 3.257204 1_565
Mg3_2 Mg3_4 3.257204 1_455
Mg3_3 Mg4_7 3.192420 1_555
Mg3_3 Mg4_5 3.192422 1_565
Mg3_3 Mg4_3 3.192422 1_555
Mg3_3 Mg3_7 3.257204 1_455
Mg3_3 Mg3_7 3.257204 1_555
Mg3_3 Mg3_5 3.257204 1_565
Mg3_3 Mg3_5 3.257204 1_455
Mg3_4 Mg4_0 3.192420 1_655
Mg3_4 Mg4_4 3.192422 1_555
Mg3_4 Mg4_2 3.192422 1_655
Mg3_4 Mg3_6 3.257204 1_545
Mg3_4 Mg3_6 3.257204 1_555
Mg3_5 Mg4_1 3.192420 1_655
Mg3_5 Mg4_5 3.192422 1_555
Mg3_5 Mg4_3 3.192422 1_655
Mg3_5 Mg3_7 3.257204 1_555
Mg3_5 Mg3_7 3.257204 1_545
Mg3_6 Mg4_2 3.192420 1_655
Mg3_6 Mg4_6 3.192422 1_555
Mg3_6 Mg4_0 3.192422 1_665
Mg3_7 Mg4_3 3.192420 1_655
Mg3_7 Mg4_1 3.192422 1_665
Mg3_7 Mg4_7 3.192422 1_555
Mg4_0 Mg4_4 3.257204 1_555
Mg4_0 Mg4_2 3.257204 1_555
Mg4_0 Mg4_4 3.257204 1_455
Mg4_0 Mg4_2 3.257204 1_545
Mg4_0 Mg4_6 3.257204 1_555
Mg4_0 Mg4_6 3.257204 1_445
Mg4_1 Mg4_5 3.257204 1_555
Mg4_1 Mg4_3 3.257204 1_555
Mg4_1 Mg4_5 3.257204 1_455
Mg4_1 Mg4_3 3.257204 1_545
Mg4_1 Mg4_7 3.257204 1_555
Mg4_1 Mg4_7 3.257204 1_445
Mg4_2 Mg4_6 3.257204 1_455
Mg4_2 Mg4_6 3.257204 1_555
Mg4_2 Mg4_4 3.257204 1_455
Mg4_2 Mg4_4 3.257204 1_565
Mg4_3 Mg4_7 3.257204 1_555
Mg4_3 Mg4_7 3.257204 1_455
Mg4_3 Mg4_5 3.257204 1_455
Mg4_3 Mg4_5 3.257204 1_565
Mg4_4 Mg4_6 3.257204 1_555
Mg4_4 Mg4_6 3.257204 1_545
Mg4_5 Mg4_7 3.257204 1_555
Mg4_5 Mg4_7 3.257204 1_545
