# generated using pymatgen
data_Li7Mn2(CoO4)3
_symmetry_space_group_name_H-M   'P 1'
_cell_length_a   5.03543000
_cell_length_b   5.87720763
_cell_length_c   7.85152762
_cell_angle_alpha   78.21382414
_cell_angle_beta   78.52043985
_cell_angle_gamma   72.51295499
_symmetry_Int_Tables_number   1
_chemical_formula_structural   Li7Mn2(CoO4)3
_chemical_formula_sum   'Li7 Mn2 Co3 O12'
_cell_volume   214.57883553
_cell_formula_units_Z   1
loop_
 _symmetry_equiv_pos_site_id
 _symmetry_equiv_pos_as_xyz
  1  'x, y, z'
loop_
 _atom_site_type_symbol
 _atom_site_label
 _atom_site_symmetry_multiplicity
 _atom_site_fract_x
 _atom_site_fract_y
 _atom_site_fract_z
 _atom_site_occupancy
  Li  Li0  1  0.50104500  0.33680800  0.17204400  1
  Li  Li1  1  0.01022800  0.83053800  0.65820900  1
  Li  Li2  1  0.99161800  0.17030000  0.34180100  1
  Li  Li3  1  0.50553400  0.66071500  0.82267400  1
  Li  Li4  1  0.49995000  0.00303400  0.49950500  1
  Li  Li5  1  0.99560400  0.49754500  0.00232900  1
  Li  Li6  1  0.50738300  0.50061700  0.49792100  1
  Mn  Mn0  1  0.99351400  0.00353300  0.00072800  1
  Mn  Mn1  1  0.49887000  0.82903800  0.17157800  1
  Co  Co0  1  0.99351300  0.33821300  0.66541400  1
  Co  Co1  1  0.01715100  0.64050100  0.34749000  1
  Co  Co2  1  0.49602000  0.18224500  0.82207800  1
  O  O0  1  0.75063400  0.31016400  0.92582500  1
  O  O1  1  0.26514000  0.83237300  0.39337100  1
  O  O2  1  0.24305400  0.14171300  0.07938000  1
  O  O3  1  0.77341900  0.65278600  0.58453400  1
  O  O4  1  0.75719900  0.97898700  0.23321100  1
  O  O5  1  0.24341600  0.47311200  0.75059700  1
  O  O6  1  0.24436100  0.34337900  0.40659100  1
  O  O7  1  0.73734500  0.85657500  0.93415800  1
  O  O8  1  0.76330800  0.17813000  0.59873900  1
  O  O9  1  0.25039100  0.69583800  0.08233100  1
  O  O10  1  0.22127200  0.01581400  0.76762200  1
  O  O11  1  0.74002900  0.52804100  0.24187200  1
loop_
_geom_bond_atom_site_label_1
_geom_bond_atom_site_label_2
_geom_bond_distance
_geom_bond_site_symmetry_2
Li0 O6 2.028555 1_555
Li0 O11 2.083046 1_555
Li0 O0 2.092749 1_554
Li0 O4 2.126194 1_545
Li0 O9 2.165131 1_555
Li0 O2 2.268019 1_555
Li1 O3 2.029278 1_455
Li1 O8 2.062080 1_465
Li1 O10 2.119902 1_565
Li1 O5 2.133514 1_555
Li1 O1 2.215474 1_555
Li1 O7 2.330202 1_455
Li2 O6 2.039684 1_655
Li2 O1 2.062740 1_645
Li2 O8 2.115775 1_555
Li2 O11 2.182216 1_555
Li2 O2 2.202662 1_655
Li2 O4 2.230328 1_545
Li3 O3 2.076455 1_555
Li3 O0 2.147529 1_555
Li3 O10 2.161866 1_565
Li3 O5 2.169060 1_555
Li3 O9 2.195338 1_556
Li3 O7 2.253790 1_555
Li4 O6 2.102409 1_555
Li4 O1 2.131851 1_545
Li4 O3 2.163386 1_545
Li4 O8 2.232399 1_555
Li4 O4 2.236538 1_545
Li4 O10 2.287310 1_555
Li5 O11 2.064294 1_555
Li5 O0 2.115841 1_554
Li5 O2 2.123497 1_655
Li5 O5 2.123857 1_654
Li5 O7 2.143987 1_554
Li5 O9 2.217458 1_655
Li6 O8 2.050566 1_555
Li6 O1 2.068530 1_555
Li6 O3 2.094730 1_555
Li6 O11 2.117457 1_555
Li6 O6 2.122878 1_555
Li6 O5 2.162686 1_555
Mn0 O0 1.902116 1_554
Mn0 O2 1.935662 1_655
Mn0 O9 1.950552 1_645
Mn0 O7 1.950745 1_544
Mn0 O10 1.957182 1_654
Mn0 O4 1.974768 1_545
Mn1 O11 1.866965 1_555
Mn1 O1 1.897990 1_555
Mn1 O4 1.953617 1_555
Mn1 O9 1.957317 1_555
Mn1 O2 1.991336 1_565
Mn1 O7 2.011376 1_554
Co0 O8 1.897661 1_555
Co0 O3 1.902298 1_555
Co0 O5 1.952072 1_655
Co0 O10 1.997185 1_655
Co0 O0 2.165997 1_555
Co0 O6 2.168457 1_655
Co1 O6 1.803683 1_555
Co1 O3 2.016885 1_455
Co1 O1 2.037651 1_555
Co1 O11 2.076187 1_455
Co1 O4 2.156235 1_455
Co1 O9 2.190699 1_555
Co2 O5 1.854901 1_555
Co2 O8 1.986291 1_555
Co2 O0 2.029198 1_555
Co2 O7 2.062597 1_545
Co2 O10 2.067162 1_555
Co2 O2 2.173025 1_556
