# generated using pymatgen
data_RbEr2Cu3S5
_symmetry_space_group_name_H-M   'P 1'
_cell_length_a   7.22942196
_cell_length_b   7.22942196
_cell_length_c   16.43336000
_cell_angle_alpha   90.00000000
_cell_angle_beta   90.00000000
_cell_angle_gamma   148.43081666
_symmetry_Int_Tables_number   1
_chemical_formula_structural   RbEr2Cu3S5
_chemical_formula_sum   'Rb2 Er4 Cu6 S10'
_cell_volume   449.64855752
_cell_formula_units_Z   2
loop_
 _symmetry_equiv_pos_site_id
 _symmetry_equiv_pos_as_xyz
  1  'x, y, z'
loop_
 _atom_site_type_symbol
 _atom_site_label
 _atom_site_symmetry_multiplicity
 _atom_site_fract_x
 _atom_site_fract_y
 _atom_site_fract_z
 _atom_site_occupancy
  Rb  Rb0  1  0.56547700  0.43452300  0.75000000  1
  Rb  Rb1  1  0.43452300  0.56547700  0.25000000  1
  Er  Er0  1  0.30791800  0.69208200  0.59285700  1
  Er  Er1  1  0.69208200  0.30791800  0.40714300  1
  Er  Er2  1  0.30791800  0.69208200  0.90714300  1
  Er  Er3  1  0.69208200  0.30791800  0.09285700  1
  Cu  Cu0  1  0.08398800  0.91601200  0.96344400  1
  Cu  Cu1  1  0.91601200  0.08398800  0.03655600  1
  Cu  Cu2  1  0.91601200  0.08398800  0.46344400  1
  Cu  Cu3  1  0.84528300  0.15471700  0.75000000  1
  Cu  Cu4  1  0.15471700  0.84528300  0.25000000  1
  Cu  Cu5  1  0.08398800  0.91601200  0.53655600  1
  S  S0  1  0.66833900  0.33166100  0.56939900  1
  S  S1  1  0.33166100  0.66833900  0.43060100  1
  S  S2  1  0.33166100  0.66833900  0.06939900  1
  S  S3  1  0.66833900  0.33166100  0.93060100  1
  S  S4  1  0.73817500  0.26182500  0.25000000  1
  S  S5  1  0.26182500  0.73817500  0.75000000  1
  S  S6  1  0.06190100  0.93809900  0.11330200  1
  S  S7  1  0.06190100  0.93809900  0.38669800  1
  S  S8  1  0.93809900  0.06190100  0.88669800  1
  S  S9  1  0.93809900  0.06190100  0.61330200  1
loop_
_geom_bond_atom_site_label_1
_geom_bond_atom_site_label_2
_geom_bond_distance
_geom_bond_site_symmetry_2
Rb0 S0 3.294936 1_555
Rb0 S3 3.294936 1_555
Rb0 S5 3.366109 1_655
Rb0 S5 3.366109 1_545
Rb0 S8 3.471989 1_455
Rb0 S8 3.471989 1_565
Rb0 S9 3.471989 1_455
Rb0 S9 3.471989 1_565
Rb1 S1 3.294936 1_555
Rb1 S2 3.294936 1_555
Rb1 S4 3.366109 1_455
Rb1 S4 3.366109 1_565
Rb1 S6 3.471989 1_545
Rb1 S7 3.471989 1_655
Rb1 S7 3.471989 1_545
Rb1 S6 3.471989 1_655
Er0 S5 2.660830 1_555
Er0 S1 2.686798 1_555
Er0 S9 2.694624 1_565
Er0 S9 2.694624 1_455
Er0 S0 2.790611 1_565
Er0 S0 2.790611 1_455
Er1 S4 2.660830 1_555
Er1 S0 2.686798 1_555
Er1 S7 2.694624 1_545
Er1 S7 2.694624 1_655
Er1 S1 2.790611 1_655
Er1 S1 2.790611 1_545
Er2 S5 2.660830 1_555
Er2 S2 2.686798 1_556
Er2 S8 2.694624 1_455
Er2 S8 2.694624 1_565
Er2 S3 2.790611 1_565
Er2 S3 2.790611 1_455
Er3 S4 2.660830 1_555
Er3 S3 2.686798 1_554
Er3 S6 2.694624 1_655
Er3 S6 2.694624 1_545
Er3 S2 2.790611 1_655
Er3 S2 2.790611 1_545
Cu0 S3 2.352881 1_565
Cu0 S3 2.352881 1_455
Cu0 S8 2.389744 1_465
Cu0 S6 2.481771 1_556
Cu1 S2 2.352881 1_655
Cu1 S2 2.352881 1_545
Cu1 S6 2.389744 1_645
Cu1 S8 2.481771 1_554
Cu2 S1 2.352881 1_655
Cu2 S1 2.352881 1_545
Cu2 S7 2.389744 1_645
Cu2 S9 2.481771 1_555
Cu3 S5 2.283800 1_545
Cu3 S5 2.283800 1_655
Cu3 S8 2.591154 1_555
Cu3 S9 2.591154 1_555
Cu4 S4 2.283800 1_565
Cu4 S4 2.283800 1_455
Cu4 S6 2.591154 1_555
Cu4 S7 2.591154 1_555
Cu5 S0 2.352881 1_455
Cu5 S0 2.352881 1_565
Cu5 S9 2.389744 1_465
Cu5 S7 2.481771 1_555
