# generated using pymatgen
data_V3Ag
_symmetry_space_group_name_H-M   'P 1'
_cell_length_a   4.80955832
_cell_length_b   4.80955832
_cell_length_c   4.80955832
_cell_angle_alpha   132.54439580
_cell_angle_beta   132.54439580
_cell_angle_gamma   69.37056001
_symmetry_Int_Tables_number   1
_chemical_formula_structural   V3Ag
_chemical_formula_sum   'V3 Ag1'
_cell_volume   59.25152013
_cell_formula_units_Z   1
loop_
 _symmetry_equiv_pos_site_id
 _symmetry_equiv_pos_as_xyz
  1  'x, y, z'
loop_
 _atom_site_type_symbol
 _atom_site_label
 _atom_site_symmetry_multiplicity
 _atom_site_fract_x
 _atom_site_fract_y
 _atom_site_fract_z
 _atom_site_occupancy
  V  V0  1  0.75000000  0.25000000  0.50000000  1
  V  V1  1  0.25000000  0.75000000  0.50000000  1
  V  V2  1  0.50000000  0.50000000  0.00000000  1
  Ag  Ag0  1  0.00000000  0.00000000  0.00000000  1
loop_
_geom_bond_atom_site_label_1
_geom_bond_atom_site_label_2
_geom_bond_distance
_geom_bond_site_symmetry_2
V0 V1 2.736967 1_656
V0 V1 2.736967 1_645
V0 V1 2.736967 1_555
V0 V1 2.736967 1_544
V0 V2 2.766895 1_656
V0 V2 2.766895 1_545
V0 V2 2.766895 1_555
V0 V2 2.766895 1_556
V1 V2 2.766895 1_555
V1 V2 2.766895 1_566
V1 V2 2.766895 1_455
V1 V2 2.766895 1_556
Ag0 V2 2.736967 1_545
Ag0 V2 2.736967 1_444
Ag0 V2 2.736967 1_455
Ag0 V2 2.736967 1_556
Ag0 V1 2.766895 1_545
Ag0 V0 2.766895 1_454
Ag0 V0 2.766895 1_444
Ag0 V1 2.766895 1_444
Ag0 V0 2.766895 1_555
Ag0 V0 2.766895 1_455
Ag0 V1 2.766895 1_544
Ag0 V1 2.766895 1_555
