# generated using pymatgen
data_LaWO2
_symmetry_space_group_name_H-M   'P 1'
_cell_length_a   7.75765991
_cell_length_b   7.75765991
_cell_length_c   7.75765991
_cell_angle_alpha   130.91601494
_cell_angle_beta   130.91601494
_cell_angle_gamma   71.94654767
_symmetry_Int_Tables_number   1
_chemical_formula_structural   LaWO2
_chemical_formula_sum   'La4 W4 O8'
_cell_volume   260.73924330
_cell_formula_units_Z   4
loop_
 _symmetry_equiv_pos_site_id
 _symmetry_equiv_pos_as_xyz
  1  'x, y, z'
loop_
 _atom_site_type_symbol
 _atom_site_label
 _atom_site_symmetry_multiplicity
 _atom_site_fract_x
 _atom_site_fract_y
 _atom_site_fract_z
 _atom_site_occupancy
  La  La0  1  0.87500000  0.62500000  0.25000000  1
  La  La1  1  0.37500000  0.62500000  0.75000000  1
  La  La2  1  0.37500000  0.62500000  0.25000000  1
  La  La3  1  0.37500000  0.12500000  0.75000000  1
  W  W0  1  0.37500000  0.12500000  0.25000000  1
  W  W1  1  0.87500000  0.12500000  0.75000000  1
  W  W2  1  0.87500000  0.12500000  0.25000000  1
  W  W3  1  0.87500000  0.62500000  0.75000000  1
  O  O0  1  0.17862800  0.39213200  0.21350400  1
  O  O1  1  0.17862800  0.96512500  0.78649600  1
  O  O2  1  0.14213200  0.42862800  0.71350400  1
  O  O3  1  0.57137200  0.85786800  0.28649600  1
  O  O4  1  0.71512500  0.42862800  0.28649600  1
  O  O5  1  0.57137200  0.28487500  0.71350400  1
  O  O6  1  0.60786800  0.82137200  0.78649600  1
  O  O7  1  0.03487500  0.82137200  0.21350400  1
loop_
_geom_bond_atom_site_label_1
_geom_bond_atom_site_label_2
_geom_bond_distance
_geom_bond_site_symmetry_2
La0 O4 2.476913 1_555
La0 O7 2.476913 1_655
La0 O0 2.541252 1_655
La0 O3 2.541252 1_555
La0 O1 2.541254 1_655
La0 O5 2.541254 1_554
La1 O2 2.476919 1_555
La1 O6 2.476919 1_555
La1 O0 2.541252 1_555
La1 O3 2.541252 1_556
La1 O1 2.541258 1_555
La1 O5 2.541258 1_555
La2 O3 2.476919 1_555
La2 O0 2.476919 1_555
La2 O2 2.541252 1_554
La2 O6 2.541252 1_555
La2 O7 2.541258 1_555
La2 O4 2.541258 1_555
La3 O5 2.476913 1_555
La3 O1 2.476913 1_545
La3 O6 2.541252 1_545
La3 O2 2.541252 1_555
La3 O7 2.541254 1_545
La3 O4 2.541254 1_556
O0 W0 2.223118 1_555
O0 W1 2.223118 1_454
O1 W1 2.223116 1_465
O1 W0 2.223120 1_566
O2 W2 2.223118 1_455
O2 W3 2.223118 1_455
O3 W1 2.223118 1_565
O3 W0 2.223118 1_565
O4 W2 2.223116 1_555
O4 W3 2.223120 1_555
O5 W1 2.223116 1_555
O5 W0 2.223120 1_555
O6 W2 2.223118 1_566
O6 W3 2.223118 1_555
O7 W2 2.223116 1_465
O7 W3 2.223120 1_454
