# generated using pymatgen
data_UCoS3
_symmetry_space_group_name_H-M   'P 1'
_cell_length_a   5.90234700
_cell_length_b   6.85250900
_cell_length_c   8.39637900
_cell_angle_alpha   90.00000000
_cell_angle_beta   90.00000000
_cell_angle_gamma   90.00000000
_symmetry_Int_Tables_number   1
_chemical_formula_structural   UCoS3
_chemical_formula_sum   'U4 Co4 S12'
_cell_volume   339.59898733
_cell_formula_units_Z   4
loop_
 _symmetry_equiv_pos_site_id
 _symmetry_equiv_pos_as_xyz
  1  'x, y, z'
loop_
 _atom_site_type_symbol
 _atom_site_label
 _atom_site_symmetry_multiplicity
 _atom_site_fract_x
 _atom_site_fract_y
 _atom_site_fract_z
 _atom_site_occupancy
  U  U0  1  0.56548300  0.37629900  0.75000000  1
  U  U1  1  0.43451700  0.62370100  0.25000000  1
  U  U2  1  0.06548300  0.12370100  0.25000000  1
  U  U3  1  0.93451700  0.87629900  0.75000000  1
  Co  Co0  1  0.00000000  0.50000000  0.00000000  1
  Co  Co1  1  0.00000000  0.50000000  0.50000000  1
  Co  Co2  1  0.50000000  0.00000000  0.50000000  1
  Co  Co3  1  0.50000000  0.00000000  0.00000000  1
  S  S0  1  0.83934800  0.18368300  0.55028600  1
  S  S1  1  0.16065200  0.81631700  0.05028600  1
  S  S2  1  0.33934800  0.31631700  0.05028600  1
  S  S3  1  0.66065200  0.68368300  0.55028600  1
  S  S4  1  0.83934800  0.18368300  0.94971400  1
  S  S5  1  0.16065200  0.81631700  0.44971400  1
  S  S6  1  0.33934800  0.31631700  0.44971400  1
  S  S7  1  0.66065200  0.68368300  0.94971400  1
  S  S8  1  0.85729000  0.46439900  0.25000000  1
  S  S9  1  0.14271000  0.53560100  0.75000000  1
  S  S10  1  0.35729000  0.03560100  0.75000000  1
  S  S11  1  0.64271000  0.96439900  0.25000000  1
loop_
_geom_bond_atom_site_label_1
_geom_bond_atom_site_label_2
_geom_bond_distance
_geom_bond_site_symmetry_2
Co0 S8 2.274912 1_455
Co0 S9 2.274912 1_554
Co0 S7 2.402993 1_454
Co0 S2 2.402993 1_555
Co0 S1 2.403276 1_555
Co0 S4 2.403276 1_454
Co1 S8 2.274912 1_455
Co1 S9 2.274912 1_555
Co1 S3 2.402993 1_455
Co1 S6 2.402993 1_555
Co1 S5 2.403276 1_555
Co1 S0 2.403276 1_455
Co2 S10 2.274912 1_555
Co2 S11 2.274912 1_545
Co2 S0 2.402993 1_555
Co2 S5 2.402993 1_545
Co2 S6 2.403276 1_555
Co2 S3 2.403276 1_545
Co3 S10 2.274912 1_554
Co3 S11 2.274912 1_545
Co3 S4 2.402993 1_554
Co3 S1 2.402993 1_545
Co3 S2 2.403276 1_555
Co3 S7 2.403276 1_544
S0 U0 2.677116 1_555
S0 U3 2.750301 1_545
S0 U2 2.882268 1_655
S1 U1 2.677116 1_555
S1 U2 2.750301 1_565
S1 U3 2.882268 1_454
S2 U2 2.677116 1_555
S2 U1 2.750301 1_555
S2 U0 2.882268 1_554
S3 U3 2.677116 1_555
S3 U0 2.750301 1_555
S3 U1 2.882268 1_555
S4 U0 2.677116 1_555
S4 U3 2.750301 1_545
S4 U2 2.882268 1_656
S5 U1 2.677116 1_555
S5 U2 2.750301 1_565
S5 U3 2.882268 1_455
S6 U2 2.677116 1_555
S6 U1 2.750301 1_555
S6 U0 2.882268 1_555
S7 U3 2.677116 1_555
S7 U0 2.750301 1_555
S7 U1 2.882268 1_556
S8 U2 2.638284 1_655
S8 U1 2.723677 1_555
S9 U3 2.638284 1_455
S9 U0 2.723677 1_555
S10 U0 2.638284 1_555
S10 U3 2.723677 1_445
S11 U1 2.638284 1_555
S11 U2 2.723677 1_665
