# generated using pymatgen
data_DyBO3
_symmetry_space_group_name_H-M   'P 1'
_cell_length_a   7.15524708
_cell_length_b   8.94494849
_cell_length_c   9.77578395
_cell_angle_alpha   81.33689321
_cell_angle_beta   85.63635558
_cell_angle_gamma   77.30150090
_symmetry_Int_Tables_number   1
_chemical_formula_structural   DyBO3
_chemical_formula_sum   'Dy12 B12 O36'
_cell_volume   602.81540835
_cell_formula_units_Z   12
loop_
 _symmetry_equiv_pos_site_id
 _symmetry_equiv_pos_as_xyz
  1  'x, y, z'
loop_
 _atom_site_type_symbol
 _atom_site_label
 _atom_site_symmetry_multiplicity
 _atom_site_fract_x
 _atom_site_fract_y
 _atom_site_fract_z
 _atom_site_occupancy
  Dy  Dy0  1  0.26134812  0.55942216  0.97301815  1
  Dy  Dy1  1  0.73865188  0.44057784  0.02698185  1
  Dy  Dy2  1  0.75054713  0.95510564  0.51997252  1
  Dy  Dy3  1  0.24945287  0.04489436  0.48002748  1
  Dy  Dy4  1  0.90114380  0.06867145  0.83706732  1
  Dy  Dy5  1  0.09885620  0.93132855  0.16293268  1
  Dy  Dy6  1  0.09927856  0.43515254  0.67047490  1
  Dy  Dy7  1  0.90072144  0.56484746  0.32952510  1
  Dy  Dy8  1  0.56549906  0.55884559  0.65791477  1
  Dy  Dy9  1  0.43450094  0.44115441  0.34208523  1
  Dy  Dy10  1  0.42609113  0.94330902  0.84445746  1
  Dy  Dy11  1  0.57390887  0.05669098  0.15554254  1
  B  B0  1  0.47789676  0.28457959  0.92212573  1
  B  B1  1  0.52210324  0.71542041  0.07787427  1
  B  B2  1  0.46708581  0.77905676  0.38529058  1
  B  B3  1  0.53291419  0.22094324  0.61470942  1
  B  B4  1  0.83266352  0.72869545  0.79359802  1
  B  B5  1  0.16733648  0.27130455  0.20640198  1
  B  B6  1  0.21922215  0.78285385  0.69205967  1
  B  B7  1  0.78077785  0.21714615  0.30794033  1
  B  B8  1  0.88355424  0.74354254  0.05126548  1
  B  B9  1  0.11644576  0.25645746  0.94873452  1
  B  B10  1  0.10815937  0.75253025  0.44802290  1
  B  B11  1  0.89184063  0.24746975  0.55197710  1
  O  O0  1  0.06312662  0.18512729  0.62972635  1
  O  O1  1  0.93687338  0.81487271  0.37027365  1
  O  O2  1  0.94344502  0.31915874  0.87325170  1
  O  O3  1  0.05655498  0.68084126  0.12674830  1
  O  O4  1  0.91891305  0.16186531  0.42723859  1
  O  O5  1  0.08108695  0.83813469  0.57276141  1
  O  O6  1  0.08258945  0.33428941  0.08079791  1
  O  O7  1  0.91741055  0.66571059  0.91920209  1
  O  O8  1  0.84956505  0.41181511  0.53441635  1
  O  O9  1  0.15043495  0.58818489  0.46558365  1
  O  O10  1  0.15341338  0.09104874  0.96480481  1
  O  O11  1  0.84658662  0.90895126  0.03519519  1
  O  O12  1  0.26931431  0.81679722  0.36432134  1
  O  O13  1  0.73068569  0.18320278  0.63567866  1
  O  O14  1  0.27300066  0.32262379  0.87289811  1
  O  O15  1  0.72699934  0.67737621  0.12710189  1
  O  O16  1  0.84459249  0.12618209  0.19639013  1
  O  O17  1  0.15540751  0.87381791  0.80360987  1
  O  O18  1  0.16660680  0.36817313  0.30204983  1
  O  O19  1  0.83339320  0.63182687  0.69795017  1
  O  O20  1  0.75506552  0.38287406  0.26300085  1
  O  O21  1  0.24493448  0.61712594  0.73699915  1
  O  O22  1  0.24558282  0.11676985  0.23944645  1
  O  O23  1  0.75441718  0.88323015  0.76055355  1
  O  O24  1  0.45250197  0.09483424  0.62635405  1
  O  O25  1  0.54749803  0.90516576  0.37364595  1
  O  O26  1  0.43343043  0.59515002  0.14976647  1
  O  O27  1  0.56656957  0.40484998  0.85023353  1
  O  O28  1  0.56638861  0.63174374  0.41547460  1
  O  O29  1  0.43361139  0.36825626  0.58452540  1
  O  O30  1  0.42875523  0.87238163  0.08777535  1
  O  O31  1  0.57124477  0.12761837  0.91222465  1
  O  O32  1  0.59219871  0.18584258  0.36723178  1
  O  O33  1  0.40780129  0.81415742  0.63276822  1
  O  O34  1  0.47291875  0.31150461  0.07158049  1
  O  O35  1  0.52708125  0.68849539  0.92841951  1
loop_
_geom_bond_atom_site_label_1
_geom_bond_atom_site_label_2
_geom_bond_distance
_geom_bond_site_symmetry_2
Dy0 O3 2.245492 1_556
Dy0 O21 2.293367 1_555
Dy0 O26 2.294947 1_556
Dy0 O35 2.413645 1_555
Dy0 O14 2.446617 1_555
Dy0 O34 2.498047 1_556
Dy0 O7 2.500939 1_455
Dy0 O27 2.625934 1_555
Dy0 O6 2.662646 1_556
Dy1 O2 2.245492 1_554
Dy1 O20 2.293367 1_555
Dy1 O27 2.294947 1_554
Dy1 O34 2.413645 1_555
Dy1 O15 2.446617 1_555
Dy1 O35 2.498047 1_554
Dy1 O6 2.500939 1_655
Dy1 O26 2.625934 1_555
Dy1 O7 2.662646 1_554
Dy2 O1 2.239059 1_555
Dy2 O25 2.269507 1_555
Dy2 O23 2.343496 1_555
Dy2 O5 2.426903 1_655
Dy2 O4 2.449873 1_565
Dy2 O13 2.450676 1_565
Dy2 O24 2.464518 1_565
Dy2 O32 2.464558 1_565
Dy3 O0 2.239059 1_555
Dy3 O24 2.269507 1_555
Dy3 O22 2.343496 1_555
Dy3 O4 2.426903 1_455
Dy3 O5 2.449873 1_545
Dy3 O12 2.450676 1_545
Dy3 O25 2.464518 1_545
Dy3 O33 2.464558 1_545
Dy4 O17 2.267571 1_645
Dy4 O11 2.289429 1_546
Dy4 O10 2.331256 1_655
Dy4 O13 2.370973 1_555
Dy4 O23 2.381613 1_545
Dy4 O31 2.386511 1_555
Dy4 O2 2.406286 1_555
Dy4 O0 2.464572 1_655
Dy5 O16 2.267571 1_465
Dy5 O10 2.289429 1_564
Dy5 O11 2.331256 1_455
Dy5 O12 2.370973 1_555
Dy5 O22 2.381613 1_565
Dy5 O30 2.386511 1_555
Dy5 O3 2.406286 1_555
Dy5 O1 2.464572 1_455
Dy6 O9 2.302701 1_555
Dy6 O21 2.307924 1_555
Dy6 O19 2.319403 1_455
Dy6 O8 2.369488 1_455
Dy6 O14 2.387113 1_555
Dy6 O0 2.401200 1_555
Dy6 O2 2.408737 1_455
Dy6 O29 2.450118 1_555
Dy7 O8 2.302701 1_555
Dy7 O20 2.307924 1_555
Dy7 O18 2.319403 1_655
Dy7 O9 2.369488 1_655
Dy7 O15 2.387113 1_555
Dy7 O1 2.401200 1_555
Dy7 O3 2.408737 1_655
Dy7 O28 2.450118 1_555
Dy8 O27 2.156284 1_555
Dy8 O19 2.234933 1_555
Dy8 O33 2.299855 1_555
Dy8 O21 2.335911 1_555
Dy8 O29 2.343167 1_555
Dy8 O28 2.361421 1_555
Dy8 O8 2.499646 1_555
Dy9 O26 2.156284 1_555
Dy9 O18 2.234933 1_555
Dy9 O32 2.299855 1_555
Dy9 O20 2.335911 1_555
Dy9 O28 2.343167 1_555
Dy9 O29 2.361421 1_555
Dy9 O9 2.499646 1_555
Dy10 O17 2.240271 1_555
Dy10 O35 2.278951 1_555
Dy10 O31 2.328543 1_565
Dy10 O24 2.366325 1_565
Dy10 O30 2.368058 1_556
Dy10 O23 2.401059 1_555
Dy10 O10 2.433671 1_565
Dy10 O33 2.542076 1_555
Dy11 O16 2.240271 1_555
Dy11 O34 2.278951 1_555
Dy11 O30 2.328543 1_545
Dy11 O25 2.366325 1_545
Dy11 O31 2.368058 1_554
Dy11 O22 2.401059 1_555
Dy11 O11 2.433671 1_545
Dy11 O32 2.542076 1_555
B0 O31 1.430229 1_555
B0 O27 1.434687 1_555
B0 O34 1.512685 1_556
B0 O14 1.528228 1_555
B1 O30 1.430229 1_555
B1 O26 1.434687 1_555
B1 O35 1.512685 1_554
B1 O15 1.528228 1_555
B2 O28 1.353303 1_555
B2 O25 1.361313 1_555
B2 O12 1.404199 1_555
B3 O29 1.353303 1_555
B3 O24 1.361313 1_555
B3 O13 1.404199 1_555
B4 O19 1.366179 1_555
B4 O23 1.371618 1_555
B4 O7 1.395533 1_555
B5 O18 1.366179 1_555
B5 O22 1.371618 1_555
B5 O6 1.395533 1_555
B6 O17 1.444959 1_555
B6 O21 1.456243 1_555
B6 O33 1.494409 1_555
B6 O5 1.538943 1_555
B7 O16 1.444959 1_555
B7 O20 1.456243 1_555
B7 O32 1.494409 1_555
B7 O4 1.538943 1_555
B8 O11 1.431091 1_555
B8 O3 1.449298 1_655
B8 O15 1.479071 1_555
B8 O7 1.535953 1_554
B9 O10 1.431091 1_555
B9 O2 1.449298 1_455
B9 O14 1.479071 1_555
B9 O6 1.535953 1_556
B10 O9 1.420714 1_555
B10 O1 1.450634 1_455
B10 O5 1.513595 1_555
B10 O12 1.528331 1_555
B11 O8 1.420714 1_555
B11 O0 1.450634 1_655
B11 O4 1.513595 1_555
B11 O13 1.528331 1_555
