# generated using pymatgen
data_Tb2(InSn)3
_symmetry_space_group_name_H-M   'P 1'
_cell_length_a   4.66680200
_cell_length_b   4.70160300
_cell_length_c   9.37390800
_cell_angle_alpha   90.00000000
_cell_angle_beta   90.00000000
_cell_angle_gamma   90.00000000
_symmetry_Int_Tables_number   1
_chemical_formula_structural   Tb2(InSn)3
_chemical_formula_sum   'Tb2 In3 Sn3'
_cell_volume   205.67713635
_cell_formula_units_Z   1
loop_
 _symmetry_equiv_pos_site_id
 _symmetry_equiv_pos_as_xyz
  1  'x, y, z'
loop_
 _atom_site_type_symbol
 _atom_site_label
 _atom_site_symmetry_multiplicity
 _atom_site_fract_x
 _atom_site_fract_y
 _atom_site_fract_z
 _atom_site_occupancy
  Tb  Tb0  1  0.00000000  0.00000000  0.24511800  1
  Tb  Tb1  1  0.00000000  0.00000000  0.75488200  1
  In  In0  1  0.50000000  0.50000000  0.25170000  1
  In  In1  1  0.50000000  0.50000000  0.74830000  1
  In  In2  1  0.00000000  0.50000000  0.50000000  1
  Sn  Sn0  1  0.00000000  0.50000000  0.00000000  1
  Sn  Sn1  1  0.50000000  0.00000000  0.50000000  1
  Sn  Sn2  1  0.50000000  0.00000000  0.00000000  1
loop_
_geom_bond_atom_site_label_1
_geom_bond_atom_site_label_2
_geom_bond_distance
_geom_bond_site_symmetry_2
In0 In2 3.295787 1_555
In0 In2 3.295787 1_655
In0 Sn1 3.308129 1_565
In0 Sn1 3.308129 1_555
In0 Tb0 3.312829 1_565
In0 Tb0 3.312829 1_655
In0 Tb0 3.312829 1_555
In0 Tb0 3.312829 1_665
In0 Sn0 3.318371 1_555
In0 Sn0 3.318371 1_655
In0 Sn2 3.330630 1_565
In0 Sn2 3.330630 1_555
In1 In2 3.295787 1_555
In1 In2 3.295787 1_655
In1 Sn1 3.308129 1_565
In1 Sn1 3.308129 1_555
In1 Tb1 3.312829 1_665
In1 Tb1 3.312829 1_555
In1 Tb1 3.312829 1_565
In1 Tb1 3.312829 1_655
In1 Sn0 3.318371 1_556
In1 Sn0 3.318371 1_656
In1 Sn2 3.330630 1_566
In1 Sn2 3.330630 1_556
In2 Sn1 3.312254 1_565
In2 Sn1 3.312254 1_455
In2 Sn1 3.312254 1_465
In2 Sn1 3.312254 1_555
In2 Tb1 3.351826 1_555
In2 Tb1 3.351826 1_565
In2 Tb0 3.351826 1_565
In2 Tb0 3.351826 1_555
Sn0 Tb0 3.287211 1_565
Sn0 Tb0 3.287211 1_555
Sn0 Tb1 3.287211 1_554
Sn0 Tb1 3.287211 1_564
Sn0 Sn2 3.312254 1_555
Sn0 Sn2 3.312254 1_465
Sn0 Sn2 3.312254 1_455
Sn0 Sn2 3.312254 1_565
Sn1 Tb1 3.339645 1_555
Sn1 Tb1 3.339645 1_655
Sn1 Tb0 3.339645 1_555
Sn1 Tb0 3.339645 1_655
Sn2 Tb0 3.274790 1_655
Sn2 Tb0 3.274790 1_555
Sn2 Tb1 3.274790 1_554
Sn2 Tb1 3.274790 1_654
