# generated using pymatgen
data_Sm4CdIr
_symmetry_space_group_name_H-M   'P 1'
_cell_length_a   9.79242018
_cell_length_b   9.79242796
_cell_length_c   9.79230246
_cell_angle_alpha   59.99983993
_cell_angle_beta   59.99979080
_cell_angle_gamma   60.00027611
_symmetry_Int_Tables_number   1
_chemical_formula_structural   Sm4CdIr
_chemical_formula_sum   'Sm16 Cd4 Ir4'
_cell_volume   663.97226814
_cell_formula_units_Z   4
loop_
 _symmetry_equiv_pos_site_id
 _symmetry_equiv_pos_as_xyz
  1  'x, y, z'
loop_
 _atom_site_type_symbol
 _atom_site_label
 _atom_site_symmetry_multiplicity
 _atom_site_fract_x
 _atom_site_fract_y
 _atom_site_fract_z
 _atom_site_occupancy
  Sm  Sm0  1  0.59838915  0.59836497  0.59841303  1
  Sm  Sm1  1  0.59839788  0.59837366  0.20482984  1
  Sm  Sm2  1  0.59837847  0.20483928  0.59840159  1
  Sm  Sm3  1  0.20483164  0.59836510  0.59841211  1
  Sm  Sm4  1  0.05925937  0.44073301  0.44074687  1
  Sm  Sm5  1  0.44073606  0.05928631  0.05924724  1
  Sm  Sm6  1  0.44073734  0.05927383  0.44073855  1
  Sm  Sm7  1  0.05927192  0.44073165  0.05925757  1
  Sm  Sm8  1  0.44073834  0.44072531  0.05925967  1
  Sm  Sm9  1  0.05924584  0.05927046  0.44074537  1
  Sm  Sm10  1  0.18893169  0.81106678  0.81107266  1
  Sm  Sm11  1  0.81107369  0.18894179  0.18891294  1
  Sm  Sm12  1  0.81106721  0.18894011  0.81106926  1
  Sm  Sm13  1  0.18893308  0.81107330  0.18891846  1
  Sm  Sm14  1  0.81108034  0.81107671  0.18891547  1
  Sm  Sm15  1  0.18892906  0.18894327  0.81106642  1
  Cd  Cd0  1  0.82949581  0.82949609  0.82948462  1
  Cd  Cd1  1  0.82949180  0.82950160  0.51150115  1
  Cd  Cd2  1  0.82950100  0.51151439  0.82949001  1
  Cd  Cd3  1  0.51151852  0.82949973  0.82948866  1
  Ir  Ir0  1  0.39142478  0.39142166  0.39144096  1
  Ir  Ir1  1  0.39143316  0.39142753  0.82570129  1
  Ir  Ir2  1  0.39142283  0.82570833  0.39144070  1
  Ir  Ir3  1  0.82570602  0.39142113  0.39144255  1
loop_
_geom_bond_atom_site_label_1
_geom_bond_atom_site_label_2
_geom_bond_distance
_geom_bond_site_symmetry_2
Sm0 Sm12 3.519396 1_555
Sm0 Sm10 3.519651 1_555
Sm0 Sm14 3.519953 1_555
Sm1 Sm11 3.519489 1_555
Sm1 Sm13 3.519748 1_555
Sm1 Sm14 3.519798 1_555
Sm10 Sm3 3.519664 1_555
Sm10 Sm7 3.657191 1_556
Sm10 Sm8 3.657211 1_556
Sm10 Sm9 3.657233 1_565
Sm10 Sm6 3.657253 1_565
Sm10 Sm14 3.700003 1_456
Sm10 Sm13 3.700019 1_556
Sm10 Sm12 3.700268 1_465
Sm10 Sm15 3.700285 1_565
Sm11 Sm2 3.519849 1_555
Sm11 Sm7 3.657155 1_655
Sm11 Sm8 3.657175 1_555
Sm11 Sm9 3.657227 1_655
Sm11 Sm6 3.657239 1_555
Sm11 Sm12 3.700000 1_554
Sm11 Sm15 3.700041 1_654
Sm11 Sm14 3.700172 1_545
Sm11 Sm13 3.700219 1_645
Sm12 Sm2 3.519619 1_555
Sm12 Sm8 3.657078 1_556
Sm12 Sm4 3.657079 1_655
Sm12 Sm9 3.657123 1_655
Sm12 Sm5 3.657126 1_556
Sm12 Sm14 3.700083 1_546
Sm12 Sm15 3.700184 1_655
Sm13 Sm3 3.519897 1_555
Sm13 Sm4 3.657302 1_555
Sm13 Sm8 3.657306 1_555
Sm13 Sm5 3.657332 1_565
Sm13 Sm9 3.657334 1_565
Sm13 Sm14 3.700091 1_455
Sm13 Sm15 3.700144 1_564
Sm14 Sm7 3.657278 1_655
Sm14 Sm4 3.657302 1_655
Sm14 Sm5 3.657322 1_565
Sm14 Sm6 3.657345 1_565
Sm15 Sm3 3.519343 1_555
Sm15 Sm2 3.519552 1_555
Sm15 Sm7 3.657067 1_556
Sm15 Sm4 3.657089 1_555
Sm15 Sm5 3.657136 1_556
Sm15 Sm6 3.657154 1_555
Cd0 Cd3 3.113730 1_555
Cd0 Cd2 3.113761 1_555
Cd0 Cd1 3.113783 1_555
Cd0 Sm14 3.349030 1_556
Cd0 Sm10 3.349095 1_655
Cd0 Sm12 3.349166 1_565
Cd0 Sm3 3.498226 1_655
Cd0 Sm2 3.498245 1_565
Cd0 Sm1 3.498306 1_556
Cd0 Sm9 3.542261 1_665
Cd0 Sm5 3.542499 1_566
Cd0 Sm7 3.542507 1_656
Cd1 Cd3 3.113769 1_555
Cd1 Cd2 3.113847 1_555
Cd1 Sm14 3.348943 1_555
Cd1 Sm13 3.349045 1_655
Cd1 Sm11 3.349068 1_565
Cd1 Sm0 3.498351 1_555
Cd1 Sm2 3.498398 1_565
Cd1 Sm3 3.498461 1_655
Cd1 Sm6 3.542343 1_565
Cd1 Sm9 3.542410 1_665
Cd1 Sm4 3.542429 1_655
Cd2 Cd3 3.113846 1_555
Cd2 Sm11 3.348897 1_556
Cd2 Sm15 3.348964 1_655
Cd2 Sm12 3.348968 1_555
Cd2 Sm3 3.498102 1_655
Cd2 Sm0 3.498160 1_555
Cd2 Sm1 3.498188 1_556
Cd2 Sm4 3.542274 1_655
Cd2 Sm7 3.542410 1_656
Cd2 Sm8 3.542500 1_556
Cd3 Sm13 3.348986 1_556
Cd3 Sm10 3.349058 1_555
Cd3 Sm15 3.349129 1_565
Cd3 Sm2 3.498220 1_565
Cd3 Sm0 3.498260 1_555
Cd3 Sm1 3.498289 1_556
Cd3 Sm6 3.542333 1_565
Cd3 Sm5 3.542467 1_566
Cd3 Sm8 3.542566 1_556
Ir0 Sm6 2.852644 1_555
Ir0 Sm4 2.852786 1_555
Ir0 Sm8 2.852893 1_555
Ir0 Sm3 2.872980 1_555
Ir0 Sm2 2.872986 1_555
Ir0 Sm1 2.873046 1_555
Ir0 Sm15 3.519114 1_555
Ir0 Sm11 3.519385 1_555
Ir0 Sm13 3.519422 1_555
Ir1 Sm5 2.852612 1_556
Ir1 Sm8 2.852764 1_556
Ir1 Sm7 2.852768 1_556
Ir1 Sm2 2.872788 1_555
Ir1 Sm3 2.872800 1_555
Ir1 Sm0 2.872815 1_555
Ir1 Sm15 3.519180 1_555
Ir1 Sm12 3.519293 1_555
Ir1 Sm10 3.519349 1_555
Ir2 Sm9 2.852911 1_565
Ir2 Sm6 2.852914 1_565
Ir2 Sm5 2.853021 1_565
Ir2 Sm3 2.873125 1_555
Ir2 Sm0 2.873156 1_555
Ir2 Sm1 2.873197 1_555
Ir2 Sm10 3.519190 1_555
Ir2 Sm13 3.519368 1_555
Ir2 Sm14 3.519476 1_555
Ir3 Sm9 2.852675 1_655
Ir3 Sm4 2.852822 1_655
Ir3 Sm7 2.852927 1_655
Ir3 Sm2 2.872949 1_555
Ir3 Sm0 2.872977 1_555
Ir3 Sm1 2.873018 1_555
Ir3 Sm12 3.519154 1_555
Ir3 Sm11 3.519327 1_555
Ir3 Sm14 3.519480 1_555
