# generated using pymatgen
data_PmS3
_symmetry_space_group_name_H-M   'P 1'
_cell_length_a   5.71747920
_cell_length_b   5.71747920
_cell_length_c   5.67524900
_cell_angle_alpha   90.00000000
_cell_angle_beta   90.00000000
_cell_angle_gamma   119.99999072
_symmetry_Int_Tables_number   1
_chemical_formula_structural   PmS3
_chemical_formula_sum   'Pm2 S6'
_cell_volume   160.66629525
_cell_formula_units_Z   2
loop_
 _symmetry_equiv_pos_site_id
 _symmetry_equiv_pos_as_xyz
  1  'x, y, z'
loop_
 _atom_site_type_symbol
 _atom_site_label
 _atom_site_symmetry_multiplicity
 _atom_site_fract_x
 _atom_site_fract_y
 _atom_site_fract_z
 _atom_site_occupancy
  Pm  Pm0  1  0.33333300  0.66666700  0.75000000  1
  Pm  Pm1  1  0.66666700  0.33333300  0.25000000  1
  S  S0  1  0.17588800  0.35177600  0.25000000  1
  S  S1  1  0.64822400  0.82411200  0.25000000  1
  S  S2  1  0.17588800  0.82411200  0.25000000  1
  S  S3  1  0.82411200  0.64822400  0.75000000  1
  S  S4  1  0.35177600  0.17588800  0.75000000  1
  S  S5  1  0.82411200  0.17588800  0.75000000  1
loop_
_geom_bond_atom_site_label_1
_geom_bond_atom_site_label_2
_geom_bond_distance
_geom_bond_site_symmetry_2
Pm0 S4 2.860195 1_565
Pm0 S3 2.860195 1_455
Pm0 S5 2.860198 1_565
Pm0 S5 2.860198 1_455
Pm0 S3 2.860201 1_555
Pm0 S4 2.860201 1_555
Pm0 S2 3.237766 1_555
Pm0 S2 3.237766 1_556
Pm0 S0 3.237769 1_556
Pm0 S0 3.237769 1_555
Pm0 S1 3.237769 1_555
Pm0 S1 3.237769 1_556
Pm1 S1 2.860195 1_545
Pm1 S0 2.860195 1_655
Pm1 S2 2.860198 1_545
Pm1 S2 2.860198 1_655
Pm1 S1 2.860201 1_555
Pm1 S0 2.860201 1_555
Pm1 S5 3.237766 1_555
Pm1 S5 3.237766 1_554
Pm1 S3 3.237769 1_555
Pm1 S3 3.237769 1_554
Pm1 S4 3.237769 1_554
Pm1 S4 3.237769 1_555
S0 S2 2.700571 1_555
S0 S1 2.700572 1_555
S1 S2 2.700571 1_555
S3 S5 2.700571 1_555
S3 S4 2.700572 1_555
S4 S5 2.700571 1_555
