# generated using pymatgen
data_K3NaBe2F8
_symmetry_space_group_name_H-M   'P 1'
_cell_length_a   5.67615798
_cell_length_b   5.67615798
_cell_length_c   7.36389700
_cell_angle_alpha   90.00000000
_cell_angle_beta   90.00000000
_cell_angle_gamma   119.99999976
_symmetry_Int_Tables_number   1
_chemical_formula_structural   K3NaBe2F8
_chemical_formula_sum   'K3 Na1 Be2 F8'
_cell_volume   205.46946335
_cell_formula_units_Z   1
loop_
 _symmetry_equiv_pos_site_id
 _symmetry_equiv_pos_as_xyz
  1  'x, y, z'
loop_
 _atom_site_type_symbol
 _atom_site_label
 _atom_site_symmetry_multiplicity
 _atom_site_fract_x
 _atom_site_fract_y
 _atom_site_fract_z
 _atom_site_occupancy
  K  K0  1  0.33333300  0.66666700  0.67688200  1
  K  K1  1  0.66666700  0.33333300  0.32311800  1
  K  K2  1  0.00000000  0.00000000  0.00000000  1
  Na  Na0  1  0.00000000  0.00000000  0.50000000  1
  Be  Be0  1  0.33333300  0.66666700  0.23120800  1
  Be  Be1  1  0.66666700  0.33333300  0.76879200  1
  F  F0  1  0.33333300  0.66666700  0.02455700  1
  F  F1  1  0.66666700  0.33333300  0.97544300  1
  F  F2  1  0.18356800  0.81643200  0.31044200  1
  F  F3  1  0.81643200  0.18356800  0.68955800  1
  F  F4  1  0.18356800  0.36713700  0.31044200  1
  F  F5  1  0.81643200  0.63286300  0.68955800  1
  F  F6  1  0.63286300  0.81643200  0.31044200  1
  F  F7  1  0.36713700  0.18356800  0.68955800  1
loop_
_geom_bond_atom_site_label_1
_geom_bond_atom_site_label_2
_geom_bond_distance
_geom_bond_site_symmetry_2
Be0 F0 1.521757 1_555
Be0 F2 1.583792 1_555
Be0 F6 1.583792 1_555
Be0 F4 1.583792 1_555
Be1 F1 1.521757 1_555
Be1 F3 1.583792 1_555
Be1 F5 1.583792 1_555
Be1 F7 1.583792 1_555
F0 K0 2.560243 1_554
F1 K1 2.560243 1_556
F2 Na0 2.281566 1_565
F2 K1 2.844471 1_455
F2 K1 2.844471 1_565
F2 K2 2.912582 1_565
F2 K0 3.073998 1_555
F3 Na0 2.281566 1_655
F3 K0 2.844471 1_545
F3 K0 2.844471 1_655
F3 K2 2.912582 1_656
F3 K1 3.073998 1_555
F4 Na0 2.281570 1_555
F4 K1 2.844466 1_455
F4 K1 2.844477 1_555
F4 K2 2.912585 1_555
F4 K0 3.073998 1_555
F5 Na0 2.281570 1_665
F5 K0 2.844466 1_655
F5 K0 2.844477 1_555
F5 K2 2.912585 1_666
F5 K1 3.073998 1_555
F6 Na0 2.281570 1_665
F6 K1 2.844466 1_565
F6 K1 2.844477 1_555
F6 K2 2.912585 1_665
F6 K0 3.073998 1_555
F7 Na0 2.281570 1_555
F7 K0 2.844466 1_545
F7 K0 2.844477 1_555
F7 K2 2.912585 1_556
F7 K1 3.073998 1_555
