# generated using pymatgen
data_Ag2TeO3
_symmetry_space_group_name_H-M   'P 1'
_cell_length_a   10.77338400
_cell_length_b   4.97532800
_cell_length_c   7.28447713
_cell_angle_alpha   88.63599215
_cell_angle_beta   90.00000000
_cell_angle_gamma   90.00000000
_symmetry_Int_Tables_number   1
_chemical_formula_structural   Ag2TeO3
_chemical_formula_sum   'Ag8 Te4 O12'
_cell_volume   390.34548633
_cell_formula_units_Z   4
loop_
 _symmetry_equiv_pos_site_id
 _symmetry_equiv_pos_as_xyz
  1  'x, y, z'
loop_
 _atom_site_type_symbol
 _atom_site_label
 _atom_site_symmetry_multiplicity
 _atom_site_fract_x
 _atom_site_fract_y
 _atom_site_fract_z
 _atom_site_occupancy
  Ag  Ag0  1  0.92651300  0.25152900  0.38718500  1
  Ag  Ag1  1  0.73885300  0.75189300  0.63389300  1
  Ag  Ag2  1  0.76114700  0.75189300  0.13389300  1
  Ag  Ag3  1  0.26114700  0.24810700  0.36610700  1
  Ag  Ag4  1  0.07348700  0.74847100  0.61281500  1
  Ag  Ag5  1  0.57348700  0.25152900  0.88718500  1
  Ag  Ag6  1  0.42651300  0.74847100  0.11281500  1
  Ag  Ag7  1  0.23885300  0.24810700  0.86610700  1
  Te  Te0  1  0.39829900  0.74485000  0.63395400  1
  Te  Te1  1  0.89829900  0.25515000  0.86604600  1
  Te  Te2  1  0.60170100  0.25515000  0.36604600  1
  Te  Te3  1  0.10170100  0.74485000  0.13395400  1
  O  O0  1  0.38630600  0.36079000  0.62002400  1
  O  O1  1  0.88630600  0.63921000  0.87997600  1
  O  O2  1  0.61369400  0.63921000  0.37997600  1
  O  O3  1  0.11369400  0.36079000  0.12002400  1
  O  O4  1  0.02188100  0.24780400  0.67823300  1
  O  O5  1  0.52188100  0.75219600  0.82176700  1
  O  O6  1  0.97811900  0.75219600  0.32176700  1
  O  O7  1  0.47811900  0.24780400  0.17823300  1
  O  O8  1  0.25689500  0.78117200  0.79158400  1
  O  O9  1  0.24310500  0.78117200  0.29158400  1
  O  O10  1  0.74310500  0.21882800  0.20841600  1
  O  O11  1  0.75689500  0.21882800  0.70841600  1
loop_
_geom_bond_atom_site_label_1
_geom_bond_atom_site_label_2
_geom_bond_distance
_geom_bond_site_symmetry_2
Ag0 O4 2.355644 1_655
Ag0 O10 2.374166 1_555
Ag0 O6 2.585473 1_555
Ag0 O6 2.600870 1_545
Ag1 O2 2.367074 1_555
Ag1 O11 2.406152 1_565
Ag1 O1 2.450179 1_555
Ag1 O11 2.701473 1_555
Ag1 O5 2.708704 1_555
Ag2 O1 2.367074 1_554
Ag2 O10 2.406152 1_565
Ag2 O2 2.450179 1_555
Ag2 O10 2.701473 1_555
Ag2 O6 2.708704 1_555
Ag3 O0 2.367074 1_555
Ag3 O9 2.406152 1_545
Ag3 O3 2.450179 1_555
Ag3 O9 2.701473 1_555
Ag3 O7 2.708704 1_555
Ag4 O6 2.355644 1_455
Ag4 O8 2.374166 1_555
Ag4 O4 2.585473 1_555
Ag4 O4 2.600870 1_565
Ag5 O7 2.355644 1_556
Ag5 O11 2.374166 1_555
Ag5 O5 2.585473 1_555
Ag5 O5 2.600870 1_545
Ag6 O5 2.355644 1_554
Ag6 O9 2.374166 1_555
Ag6 O7 2.585473 1_555
Ag6 O7 2.600870 1_565
Ag7 O3 2.367074 1_556
Ag7 O8 2.406152 1_545
Ag7 O0 2.450179 1_555
Ag7 O8 2.701473 1_555
Ag7 O4 2.708704 1_555
O0 Te0 1.920279 1_555
O1 Te1 1.920279 1_555
O2 Te2 1.920279 1_555
O3 Te3 1.920279 1_555
O4 Te1 1.909996 1_455
O5 Te0 1.909996 1_555
O6 Te3 1.909996 1_655
O7 Te2 1.909996 1_555
O8 Te0 1.918793 1_555
O9 Te3 1.918793 1_555
O10 Te2 1.918793 1_555
O11 Te1 1.918793 1_555
