# generated using pymatgen
data_LiMnPO4
_symmetry_space_group_name_H-M   'P 1'
_cell_length_a   6.35587800
_cell_length_b   5.61973300
_cell_length_c   8.50211600
_cell_angle_alpha   90.00025074
_cell_angle_beta   90.00065946
_cell_angle_gamma   89.99962749
_symmetry_Int_Tables_number   1
_chemical_formula_structural   LiMnPO4
_chemical_formula_sum   'Li4 Mn4 P4 O16'
_cell_volume   303.68144738
_cell_formula_units_Z   4
loop_
 _symmetry_equiv_pos_site_id
 _symmetry_equiv_pos_as_xyz
  1  'x, y, z'
loop_
 _atom_site_type_symbol
 _atom_site_label
 _atom_site_symmetry_multiplicity
 _atom_site_fract_x
 _atom_site_fract_y
 _atom_site_fract_z
 _atom_site_occupancy
  Li  Li0  1  0.24359600  0.25000200  0.91431600  1
  Li  Li1  1  0.25639700  0.75006000  0.41432100  1
  Li  Li2  1  0.74357600  0.24996900  0.58567700  1
  Li  Li3  1  0.75637700  0.75003100  0.08569400  1
  Mn  Mn0  1  0.99889500  0.74992400  0.74848200  1
  Mn  Mn1  1  0.50111300  0.24998500  0.24847100  1
  Mn  Mn2  1  0.49888700  0.74996100  0.75154200  1
  Mn  Mn3  1  0.00111100  0.25001300  0.25148100  1
  P  P0  1  0.24593700  0.24999100  0.60244500  1
  P  P1  1  0.25404800  0.75000800  0.10244900  1
  P  P2  1  0.74594800  0.24999100  0.89754900  1
  P  P3  1  0.75406300  0.75000500  0.39755900  1
  O  O0  1  0.04366300  0.25001500  0.50319400  1
  O  O1  1  0.05509900  0.74997900  0.99940300  1
  O  O2  1  0.25167900  0.97254400  0.21634500  1
  O  O3  1  0.25171400  0.52750500  0.21636600  1
  O  O4  1  0.24830300  0.02748200  0.71636300  1
  O  O5  1  0.24833100  0.47251500  0.71635400  1
  O  O6  1  0.44487200  0.24997200  0.49938500  1
  O  O7  1  0.45632600  0.75002200  0.00319700  1
  O  O8  1  0.54367600  0.24999800  0.99680300  1
  O  O9  1  0.55512100  0.75000600  0.50061100  1
  O  O10  1  0.75169600  0.52750000  0.28363700  1
  O  O11  1  0.75170100  0.97252600  0.28365000  1
  O  O12  1  0.74832400  0.02746700  0.78365000  1
  O  O13  1  0.74830700  0.47251500  0.78364700  1
  O  O14  1  0.94489400  0.25001100  0.00060000  1
  O  O15  1  0.95634500  0.75000200  0.49681000  1
loop_
_geom_bond_atom_site_label_1
_geom_bond_atom_site_label_2
_geom_bond_distance
_geom_bond_site_symmetry_2
Li0 O8 2.032116 1_555
Li0 O14 2.035325 1_456
Li0 O4 2.096948 1_555
Li0 O5 2.096997 1_555
Li1 O15 2.031970 1_455
Li1 O9 2.035458 1_555
Li1 O2 2.096993 1_555
Li1 O3 2.097076 1_555
Li2 O0 2.032161 1_655
Li2 O6 2.035346 1_555
Li2 O12 2.097036 1_555
Li2 O13 2.097153 1_555
Li3 O7 2.031973 1_555
Li3 O1 2.035465 1_654
Li3 O11 2.096881 1_555
Li3 O10 2.096923 1_555
Mn0 O15 2.156764 1_555
Mn0 O1 2.163057 1_655
Mn0 O5 2.240179 1_655
Mn0 O4 2.240643 1_665
Mn0 O13 2.248671 1_555
Mn0 O12 2.249103 1_565
Mn1 O8 2.156747 1_554
Mn1 O6 2.163045 1_555
Mn1 O2 2.240303 1_545
Mn1 O3 2.240420 1_555
Mn1 O11 2.248862 1_545
Mn1 O10 2.249056 1_555
Mn2 O7 2.156636 1_556
Mn2 O9 2.163180 1_555
Mn2 O13 2.240225 1_555
Mn2 O12 2.240552 1_565
Mn2 O5 2.248690 1_555
Mn2 O4 2.249086 1_565
Mn3 O0 2.157112 1_555
Mn3 O14 2.162735 1_455
Mn3 O10 2.240419 1_455
Mn3 O11 2.240426 1_445
Mn3 O2 2.248765 1_545
Mn3 O3 2.249005 1_555
O0 P0 1.537819 1_555
O1 P1 1.538340 1_556
O2 P1 1.581744 1_555
O3 P1 1.581711 1_555
O4 P0 1.581745 1_555
O5 P0 1.581760 1_555
O6 P0 1.538351 1_555
O7 P1 1.537862 1_555
O8 P2 1.537839 1_555
O9 P3 1.538349 1_555
O10 P3 1.581741 1_555
O11 P3 1.581751 1_555
O12 P2 1.581707 1_555
O13 P2 1.581728 1_555
O14 P2 1.538349 1_554
O15 P3 1.537862 1_555
