# generated using pymatgen
data_Li3TaF6
_symmetry_space_group_name_H-M   'P 1'
_cell_length_a   5.84410831
_cell_length_b   6.31145013
_cell_length_c   7.63450276
_cell_angle_alpha   82.69135836
_cell_angle_beta   139.93362222
_cell_angle_gamma   118.40085885
_symmetry_Int_Tables_number   1
_chemical_formula_structural   Li3TaF6
_chemical_formula_sum   'Li3 Ta1 F6'
_cell_volume   144.82850055
_cell_formula_units_Z   1
loop_
 _symmetry_equiv_pos_site_id
 _symmetry_equiv_pos_as_xyz
  1  'x, y, z'
loop_
 _atom_site_type_symbol
 _atom_site_label
 _atom_site_symmetry_multiplicity
 _atom_site_fract_x
 _atom_site_fract_y
 _atom_site_fract_z
 _atom_site_occupancy
  Li  Li0  1  0.00000000  0.00000000  0.50000000  1
  Li  Li1  1  0.50000000  0.50000000  0.00000000  1
  Li  Li2  1  0.00000000  0.50000000  0.00000000  1
  Ta  Ta0  1  0.00000000  0.00000000  0.00000000  1
  F  F0  1  0.59585400  0.12273200  0.75953100  1
  F  F1  1  0.40414600  0.87726800  0.24046900  1
  F  F2  1  0.20351700  0.12410800  0.85018400  1
  F  F3  1  0.79648300  0.87589200  0.14981600  1
  F  F4  1  0.57831700  0.56836800  0.79464300  1
  F  F5  1  0.42168300  0.43163200  0.20535700  1
loop_
_geom_bond_atom_site_label_1
_geom_bond_atom_site_label_2
_geom_bond_distance
_geom_bond_site_symmetry_2
F0 Li2 1.934962 1_656
F0 Li0 1.978842 1_555
F0 Ta0 2.071391 1_656
F1 Li2 1.934962 1_555
F1 Li0 1.978842 1_665
F1 Ta0 2.071391 1_565
F2 Li1 1.919765 1_556
F2 Li0 1.988789 1_555
F2 Ta0 2.074700 1_556
F3 Li1 1.919765 1_555
F3 Li0 1.988789 1_665
F3 Ta0 2.074700 1_665
F4 Li1 1.895254 1_556
F4 Li2 1.908677 1_656
F4 Ta0 2.176953 1_666
F5 Li1 1.895254 1_555
F5 Li2 1.908677 1_555
F5 Ta0 2.176953 1_555
