# generated using pymatgen
data_KLa(MoO4)2
_symmetry_space_group_name_H-M   'P 1'
_cell_length_a   7.72357735
_cell_length_b   7.72357735
_cell_length_c   8.03622943
_cell_angle_alpha   61.45894243
_cell_angle_beta   61.45894243
_cell_angle_gamma   88.40441647
_symmetry_Int_Tables_number   1
_chemical_formula_structural   KLa(MoO4)2
_chemical_formula_sum   'K2 La2 Mo4 O16'
_cell_volume   357.25811643
_cell_formula_units_Z   2
loop_
 _symmetry_equiv_pos_site_id
 _symmetry_equiv_pos_as_xyz
  1  'x, y, z'
loop_
 _atom_site_type_symbol
 _atom_site_label
 _atom_site_symmetry_multiplicity
 _atom_site_fract_x
 _atom_site_fract_y
 _atom_site_fract_z
 _atom_site_occupancy
  K  K0  1  0.20046600  0.79953400  0.75000000  1
  K  K1  1  0.79953400  0.20046600  0.25000000  1
  La  La0  1  0.77057400  0.22942600  0.75000000  1
  La  La1  1  0.22942600  0.77057400  0.25000000  1
  Mo  Mo0  1  0.69064500  0.69565200  0.76094200  1
  Mo  Mo1  1  0.30935500  0.30434800  0.23905800  1
  Mo  Mo2  1  0.30434800  0.30935500  0.73905800  1
  Mo  Mo3  1  0.69565200  0.69064500  0.26094200  1
  O  O0  1  0.61441800  0.76626900  0.56537400  1
  O  O1  1  0.38558200  0.23373100  0.43462600  1
  O  O2  1  0.23373100  0.38558200  0.93462600  1
  O  O3  1  0.76626900  0.61441800  0.06537400  1
  O  O4  1  0.38361200  0.07573500  0.86653600  1
  O  O5  1  0.61638800  0.92426500  0.13346400  1
  O  O6  1  0.92426500  0.61638800  0.63346400  1
  O  O7  1  0.07573500  0.38361200  0.36653600  1
  O  O8  1  0.58062900  0.36995300  0.97598600  1
  O  O9  1  0.41937100  0.63004700  0.02401400  1
  O  O10  1  0.63004700  0.41937100  0.52401400  1
  O  O11  1  0.36995300  0.58062900  0.47598600  1
  O  O12  1  0.79314300  0.94389800  0.69121500  1
  O  O13  1  0.20685700  0.05610200  0.30878500  1
  O  O14  1  0.05610200  0.20685700  0.80878500  1
  O  O15  1  0.94389800  0.79314300  0.19121500  1
loop_
_geom_bond_atom_site_label_1
_geom_bond_atom_site_label_2
_geom_bond_distance
_geom_bond_site_symmetry_2
K0 O2 2.876626 1_555
K0 O0 2.876626 1_555
K0 O1 2.897663 1_565
K0 O3 2.897663 1_456
K0 O15 3.102478 1_456
K0 O13 3.102478 1_565
K0 O11 3.178213 1_555
K0 O9 3.178213 1_556
K0 O4 3.282039 1_565
K0 O6 3.282039 1_455
K1 O3 2.876626 1_555
K1 O1 2.876626 1_555
K1 O2 2.897663 1_654
K1 O0 2.897663 1_545
K1 O14 3.102478 1_654
K1 O12 3.102478 1_545
K1 O8 3.178213 1_554
K1 O10 3.178213 1_555
K1 O7 3.282039 1_655
K1 O5 3.282039 1_545
La0 O10 2.424327 1_555
La0 O8 2.424327 1_555
La0 O12 2.452003 1_545
La0 O14 2.452003 1_655
La0 O7 2.485690 1_655
La0 O5 2.485690 1_546
La0 O4 2.771151 1_555
La0 O6 2.771151 1_555
La1 O9 2.424327 1_555
La1 O11 2.424327 1_555
La1 O15 2.452003 1_455
La1 O13 2.452003 1_565
La1 O4 2.485690 1_564
La1 O6 2.485690 1_455
La1 O7 2.771151 1_555
La1 O5 2.771151 1_555
Mo0 O0 1.778007 1_555
Mo0 O12 1.803028 1_555
Mo0 O6 1.857818 1_555
Mo0 O9 1.979608 1_556
Mo0 O8 2.144353 1_555
Mo0 O3 2.568735 1_556
Mo1 O1 1.778007 1_555
Mo1 O13 1.803028 1_555
Mo1 O7 1.857818 1_555
Mo1 O8 1.979608 1_554
Mo1 O9 2.144353 1_555
Mo1 O2 2.568735 1_554
Mo2 O2 1.778007 1_555
Mo2 O14 1.803028 1_555
Mo2 O4 1.857818 1_555
Mo2 O11 1.979608 1_555
Mo2 O10 2.144353 1_555
Mo2 O1 2.568735 1_555
Mo3 O3 1.778007 1_555
Mo3 O15 1.803028 1_555
Mo3 O5 1.857818 1_555
Mo3 O10 1.979608 1_555
Mo3 O11 2.144353 1_555
Mo3 O0 2.568735 1_555
