# generated using pymatgen
data_AgBiS2
_symmetry_space_group_name_H-M   'P 1'
_cell_length_a   7.00583825
_cell_length_b   7.00583825
_cell_length_c   7.00583825
_cell_angle_alpha   132.69671277
_cell_angle_beta   132.69671277
_cell_angle_gamma   69.13084578
_symmetry_Int_Tables_number   1
_chemical_formula_structural   AgBiS2
_chemical_formula_sum   'Ag2 Bi2 S4'
_cell_volume   182.28886944
_cell_formula_units_Z   2
loop_
 _symmetry_equiv_pos_site_id
 _symmetry_equiv_pos_as_xyz
  1  'x, y, z'
loop_
 _atom_site_type_symbol
 _atom_site_label
 _atom_site_symmetry_multiplicity
 _atom_site_fract_x
 _atom_site_fract_y
 _atom_site_fract_z
 _atom_site_occupancy
  Ag  Ag0  1  0.25000000  0.75000000  0.50000000  1
  Ag  Ag1  1  0.50000000  0.50000000  0.00000000  1
  Bi  Bi0  1  0.00000000  0.00000000  0.00000000  1
  Bi  Bi1  1  0.75000000  0.25000000  0.50000000  1
  S  S0  1  0.50338800  0.00338800  0.50000000  1
  S  S1  1  0.99661200  0.49661200  0.50000000  1
  S  S2  1  0.75338800  0.75338800  0.00000000  1
  S  S3  1  0.24661200  0.24661200  0.00000000  1
loop_
_geom_bond_atom_site_label_1
_geom_bond_atom_site_label_2
_geom_bond_distance
_geom_bond_site_symmetry_2
Ag0 S3 2.810838 1_555
Ag0 S2 2.810838 1_556
Ag0 S3 2.810838 1_566
Ag0 S2 2.810838 1_455
Ag0 S0 2.923672 1_565
Ag0 S1 2.923672 1_455
Ag1 S1 2.810838 1_555
Ag1 S0 2.810838 1_554
Ag1 S0 2.810838 1_565
Ag1 S1 2.810838 1_454
Ag1 S2 2.923672 1_555
Ag1 S3 2.923672 1_555
Bi0 S1 2.810838 1_444
Bi0 S0 2.810838 1_555
Bi0 S0 2.810838 1_454
Bi0 S1 2.810838 1_455
Bi0 S3 2.845488 1_555
Bi0 S2 2.845488 1_445
Bi1 S3 2.810838 1_555
Bi1 S2 2.810838 1_556
Bi1 S2 2.810838 1_545
Bi1 S3 2.810838 1_656
Bi1 S1 2.845488 1_555
Bi1 S0 2.845488 1_555
