# generated using pymatgen
data_DyGaCu
_symmetry_space_group_name_H-M   'P 1'
_cell_length_a   4.29934594
_cell_length_b   5.44693383
_cell_length_c   5.62693108
_cell_angle_alpha   95.67333153
_cell_angle_beta   112.37882217
_cell_angle_gamma   66.76962407
_symmetry_Int_Tables_number   1
_chemical_formula_structural   DyGaCu
_chemical_formula_sum   'Dy2 Ga2 Cu2'
_cell_volume   111.76558893
_cell_formula_units_Z   2
loop_
 _symmetry_equiv_pos_site_id
 _symmetry_equiv_pos_as_xyz
  1  'x, y, z'
loop_
 _atom_site_type_symbol
 _atom_site_label
 _atom_site_symmetry_multiplicity
 _atom_site_fract_x
 _atom_site_fract_y
 _atom_site_fract_z
 _atom_site_occupancy
  Dy  Dy0  1  0.74258004  0.71994787  0.20404093  1
  Dy  Dy1  1  0.25742049  0.28006110  0.79597394  1
  Ga  Ga0  1  0.55293342  0.28121370  0.38664924  1
  Ga  Ga1  1  0.44707559  0.71877567  0.61337006  1
  Cu  Cu0  1  0.04872775  0.11772240  0.21457542  1
  Cu  Cu1  1  0.95126170  0.88227826  0.78539141  1
loop_
_geom_bond_atom_site_label_1
_geom_bond_atom_site_label_2
_geom_bond_distance
_geom_bond_site_symmetry_2
Dy0 Ga0 3.019509 1_565
Dy0 Ga1 3.025662 1_655
Dy0 Ga1 3.026005 1_555
Dy0 Ga1 3.073718 1_554
Dy0 Ga0 3.176803 1_555
Dy0 Ga0 3.177506 1_655
Dy1 Ga1 3.019594 1_545
Dy1 Ga0 3.025661 1_455
Dy1 Ga0 3.025982 1_555
Dy1 Ga0 3.073735 1_556
Dy1 Ga1 3.176721 1_555
Dy1 Ga1 3.177444 1_455
Ga0 Ga1 2.549583 1_555
Cu0 Ga0 2.485534 1_455
Cu0 Ga0 2.486730 1_555
Cu0 Cu1 2.587171 1_444
Cu0 Ga1 2.791521 1_545
Cu0 Dy0 2.931765 1_445
Cu0 Dy0 2.933841 1_545
Cu0 Dy0 3.011525 1_455
Cu0 Dy1 3.127615 1_554
Cu0 Dy1 3.137049 1_454
Cu0 Dy1 3.179368 1_555
Cu1 Ga1 2.485405 1_655
Cu1 Ga1 2.486692 1_555
Cu1 Ga0 2.791292 1_565
Cu1 Dy1 2.931781 1_665
Cu1 Dy1 2.933912 1_565
Cu1 Dy1 3.011473 1_655
Cu1 Dy0 3.127801 1_556
Cu1 Dy0 3.137184 1_656
Cu1 Dy0 3.179114 1_555
