# generated using pymatgen
data_ErCrGeO5
_symmetry_space_group_name_H-M   'P 1'
_cell_length_a   5.79640900
_cell_length_b   7.41395100
_cell_length_c   8.44681600
_cell_angle_alpha   90.00000000
_cell_angle_beta   90.00000000
_cell_angle_gamma   90.00000000
_symmetry_Int_Tables_number   1
_chemical_formula_structural   ErCrGeO5
_chemical_formula_sum   'Er4 Cr4 Ge4 O20'
_cell_volume   362.99593980
_cell_formula_units_Z   4
loop_
 _symmetry_equiv_pos_site_id
 _symmetry_equiv_pos_as_xyz
  1  'x, y, z'
loop_
 _atom_site_type_symbol
 _atom_site_label
 _atom_site_symmetry_multiplicity
 _atom_site_fract_x
 _atom_site_fract_y
 _atom_site_fract_z
 _atom_site_occupancy
  Er  Er0  1  0.50000000  0.35420600  0.32719500  1
  Er  Er1  1  0.50000000  0.64579400  0.67280500  1
  Er  Er2  1  0.50000000  0.14579400  0.82719500  1
  Er  Er3  1  0.50000000  0.85420600  0.17280500  1
  Cr  Cr0  1  0.24978200  0.00000000  0.50000000  1
  Cr  Cr1  1  0.75021800  0.00000000  0.50000000  1
  Cr  Cr2  1  0.75021800  0.50000000  0.00000000  1
  Cr  Cr3  1  0.24978200  0.50000000  0.00000000  1
  Ge  Ge0  1  0.00000000  0.11648600  0.14535100  1
  Ge  Ge1  1  0.00000000  0.88351400  0.85464900  1
  Ge  Ge2  1  0.00000000  0.38351400  0.64535100  1
  Ge  Ge3  1  0.00000000  0.61648600  0.35464900  1
  O  O0  1  0.25094200  0.11236200  0.28323500  1
  O  O1  1  0.74905800  0.88763800  0.71676500  1
  O  O2  1  0.25094200  0.88763800  0.71676500  1
  O  O3  1  0.74905800  0.38763800  0.78323500  1
  O  O4  1  0.74905800  0.11236200  0.28323500  1
  O  O5  1  0.25094200  0.61236200  0.21676500  1
  O  O6  1  0.74905800  0.61236200  0.21676500  1
  O  O7  1  0.25094200  0.38763800  0.78323500  1
  O  O8  1  0.00000000  0.34296300  0.08206400  1
  O  O9  1  0.00000000  0.65703700  0.91793600  1
  O  O10  1  0.00000000  0.15703700  0.58206400  1
  O  O11  1  0.00000000  0.84296300  0.41793600  1
  O  O12  1  0.50000000  0.33051600  0.05859700  1
  O  O13  1  0.50000000  0.66948400  0.94140300  1
  O  O14  1  0.50000000  0.16948400  0.55859700  1
  O  O15  1  0.50000000  0.83051600  0.44140300  1
  O  O16  1  0.21286100  0.00000000  0.00000000  1
  O  O17  1  0.78713900  0.00000000  0.00000000  1
  O  O18  1  0.78713900  0.50000000  0.50000000  1
  O  O19  1  0.21286100  0.50000000  0.50000000  1
loop_
_geom_bond_atom_site_label_1
_geom_bond_atom_site_label_2
_geom_bond_distance
_geom_bond_site_symmetry_2
Er0 O12 2.275586 1_555
Er0 O0 2.331716 1_555
Er0 O4 2.331716 1_555
Er0 O14 2.386647 1_555
Er0 O18 2.463553 1_555
Er0 O19 2.463553 1_555
Er0 O6 2.572433 1_555
Er0 O5 2.572433 1_555
Er1 O13 2.275586 1_555
Er1 O2 2.331716 1_555
Er1 O1 2.331716 1_555
Er1 O15 2.386647 1_555
Er1 O18 2.463553 1_555
Er1 O19 2.463553 1_555
Er1 O7 2.572433 1_555
Er1 O3 2.572433 1_555
Er2 O14 2.275586 1_555
Er2 O7 2.331716 1_555
Er2 O3 2.331716 1_555
Er2 O12 2.386647 1_556
Er2 O17 2.463553 1_556
Er2 O16 2.463553 1_556
Er2 O1 2.572433 1_545
Er2 O2 2.572433 1_545
Er3 O15 2.275586 1_555
Er3 O6 2.331716 1_555
Er3 O5 2.331716 1_555
Er3 O13 2.386647 1_554
Er3 O17 2.463553 1_565
Er3 O16 2.463553 1_565
Er3 O0 2.572433 1_565
Er3 O4 2.572433 1_565
Cr0 O14 1.981780 1_555
Cr0 O15 1.981780 1_545
Cr0 O10 1.982989 1_555
Cr0 O11 1.982989 1_545
Cr0 O0 2.011586 1_555
Cr0 O2 2.011586 1_545
Cr1 O14 1.981780 1_555
Cr1 O15 1.981780 1_545
Cr1 O10 1.982989 1_655
Cr1 O11 1.982989 1_645
Cr1 O4 2.011586 1_555
Cr1 O1 2.011586 1_545
Cr2 O12 1.981780 1_555
Cr2 O13 1.981780 1_554
Cr2 O9 1.982989 1_654
Cr2 O8 1.982989 1_655
Cr2 O6 2.011586 1_555
Cr2 O3 2.011586 1_554
Cr3 O12 1.981780 1_555
Cr3 O13 1.981780 1_554
Cr3 O9 1.982989 1_554
Cr3 O8 1.982989 1_555
Cr3 O5 2.011586 1_555
Cr3 O7 2.011586 1_554
Ge0 O8 1.762132 1_555
Ge0 O0 1.863644 1_555
Ge0 O4 1.863644 1_455
Ge0 O16 1.943079 1_555
Ge0 O17 1.943079 1_455
Ge1 O9 1.762132 1_555
Ge1 O2 1.863644 1_555
Ge1 O1 1.863644 1_455
Ge1 O16 1.943079 1_566
Ge1 O17 1.943079 1_466
Ge2 O10 1.762132 1_555
Ge2 O7 1.863644 1_555
Ge2 O3 1.863644 1_455
Ge2 O19 1.943079 1_555
Ge2 O18 1.943079 1_455
Ge3 O11 1.762132 1_555
Ge3 O6 1.863644 1_455
Ge3 O5 1.863644 1_555
Ge3 O19 1.943079 1_555
Ge3 O18 1.943079 1_455
