# generated using pymatgen
data_Na2MoO6
_symmetry_space_group_name_H-M   'P 1'
_cell_length_a   8.59226867
_cell_length_b   10.46334375
_cell_length_c   15.64952329
_cell_angle_alpha   90.00000000
_cell_angle_beta   90.00000000
_cell_angle_gamma   90.00000000
_symmetry_Int_Tables_number   1
_chemical_formula_structural   Na2MoO6
_chemical_formula_sum   'Na16 Mo8 O48'
_cell_volume   1406.95256168
_cell_formula_units_Z   8
loop_
 _symmetry_equiv_pos_site_id
 _symmetry_equiv_pos_as_xyz
  1  'x, y, z'
loop_
 _atom_site_type_symbol
 _atom_site_label
 _atom_site_symmetry_multiplicity
 _atom_site_fract_x
 _atom_site_fract_y
 _atom_site_fract_z
 _atom_site_occupancy
  Na  Na0  1  0.16663216  0.49606866  0.05608875  1
  Na  Na1  1  0.66663216  0.00393134  0.94391125  1
  Na  Na2  1  0.83336784  0.99606866  0.44391125  1
  Na  Na3  1  0.33336784  0.50393134  0.55608875  1
  Na  Na4  1  0.83336784  0.50393134  0.94391125  1
  Na  Na5  1  0.33336784  0.99606866  0.05608875  1
  Na  Na6  1  0.16663216  0.00393134  0.55608875  1
  Na  Na7  1  0.66663216  0.49606866  0.44391125  1
  Na  Na8  1  0.28344795  0.42964741  0.86968080  1
  Na  Na9  1  0.78344795  0.07035259  0.13031920  1
  Na  Na10  1  0.71655205  0.92964741  0.63031920  1
  Na  Na11  1  0.21655205  0.57035259  0.36968080  1
  Na  Na12  1  0.71655205  0.57035259  0.13031920  1
  Na  Na13  1  0.21655205  0.92964741  0.86968080  1
  Na  Na14  1  0.28344795  0.07035259  0.36968080  1
  Na  Na15  1  0.78344795  0.42964741  0.63031920  1
  Mo  Mo0  1  0.02118936  0.20495971  0.96874062  1
  Mo  Mo1  1  0.52118936  0.29504029  0.03125938  1
  Mo  Mo2  1  0.97881064  0.70495971  0.53125938  1
  Mo  Mo3  1  0.47881064  0.79504029  0.46874062  1
  Mo  Mo4  1  0.97881064  0.79504029  0.03125938  1
  Mo  Mo5  1  0.47881064  0.70495971  0.96874062  1
  Mo  Mo6  1  0.02118936  0.29504029  0.46874062  1
  Mo  Mo7  1  0.52118936  0.20495971  0.53125938  1
  O  O0  1  0.05729448  0.37247470  0.93997554  1
  O  O1  1  0.55729448  0.12752530  0.06002446  1
  O  O2  1  0.94270552  0.87247470  0.56002446  1
  O  O3  1  0.44270552  0.62752530  0.43997554  1
  O  O4  1  0.94270552  0.62752530  0.06002446  1
  O  O5  1  0.44270552  0.87247470  0.93997554  1
  O  O6  1  0.05729448  0.12752530  0.43997554  1
  O  O7  1  0.55729448  0.37247470  0.56002446  1
  O  O8  1  0.97749376  0.19294256  0.07987001  1
  O  O9  1  0.47749376  0.30705744  0.92012999  1
  O  O10  1  0.02250624  0.69294256  0.42012999  1
  O  O11  1  0.52250624  0.80705744  0.57987001  1
  O  O12  1  0.02250624  0.80705744  0.92012999  1
  O  O13  1  0.52250624  0.69294256  0.07987001  1
  O  O14  1  0.97749376  0.30705744  0.57987001  1
  O  O15  1  0.47749376  0.19294256  0.42012999  1
  O  O16  1  0.19193088  0.10984085  0.94763898  1
  O  O17  1  0.69193088  0.39015915  0.05236102  1
  O  O18  1  0.80806912  0.60984085  0.55236102  1
  O  O19  1  0.30806912  0.89015915  0.44763898  1
  O  O20  1  0.80806912  0.89015915  0.05236102  1
  O  O21  1  0.30806912  0.60984085  0.94763898  1
  O  O22  1  0.19193088  0.39015915  0.44763898  1
  O  O23  1  0.69193088  0.10984085  0.55236102  1
  O  O24  1  0.86201160  0.14488279  0.90758482  1
  O  O25  1  0.36201160  0.35511721  0.09241518  1
  O  O26  1  0.13798840  0.64488279  0.59241518  1
  O  O27  1  0.63798840  0.85511721  0.40758482  1
  O  O28  1  0.13798840  0.85511721  0.09241518  1
  O  O29  1  0.63798840  0.64488279  0.90758482  1
  O  O30  1  0.86201160  0.35511721  0.40758482  1
  O  O31  1  0.36201160  0.14488279  0.59241518  1
  O  O32  1  0.65286795  0.09083985  0.28523131  1
  O  O33  1  0.15286795  0.40916015  0.71476869  1
  O  O34  1  0.34713205  0.59083985  0.21476869  1
  O  O35  1  0.84713205  0.90916015  0.78523131  1
  O  O36  1  0.34713205  0.90916015  0.71476869  1
  O  O37  1  0.84713205  0.59083985  0.28523131  1
  O  O38  1  0.65286795  0.40916015  0.78523131  1
  O  O39  1  0.15286795  0.09083985  0.21476869  1
  O  O40  1  0.95412609  0.52115930  0.26027013  1
  O  O41  1  0.45412609  0.97884070  0.73972987  1
  O  O42  1  0.04587391  0.02115930  0.23972987  1
  O  O43  1  0.54587391  0.47884070  0.76027013  1
  O  O44  1  0.04587391  0.47884070  0.73972987  1
  O  O45  1  0.54587391  0.02115930  0.26027013  1
  O  O46  1  0.95412609  0.97884070  0.76027013  1
  O  O47  1  0.45412609  0.52115930  0.23972987  1
loop_
_geom_bond_atom_site_label_1
_geom_bond_atom_site_label_2
_geom_bond_distance
_geom_bond_site_symmetry_2
Na0 O25 2.305753 1_555
Na0 O4 2.365935 1_455
Na0 O21 2.403009 1_554
Na0 O0 2.420098 1_554
Na1 O24 2.305753 1_555
Na1 O5 2.365935 1_545
Na1 O20 2.403009 1_546
Na1 O1 2.420098 1_556
Na2 O27 2.305753 1_555
Na2 O6 2.365935 1_665
Na2 O23 2.403009 1_565
Na2 O2 2.420098 1_555
Na3 O26 2.305753 1_555
Na3 O7 2.365935 1_555
Na3 O22 2.403009 1_555
Na3 O3 2.420098 1_555
Na4 O29 2.305753 1_555
Na4 O0 2.365935 1_655
Na4 O17 2.403009 1_556
Na4 O4 2.420098 1_556
Na5 O28 2.305753 1_555
Na5 O1 2.365935 1_565
Na5 O16 2.403009 1_564
Na5 O5 2.420098 1_554
Na6 O31 2.305753 1_555
Na6 O2 2.365935 1_445
Na6 O19 2.403009 1_545
Na6 O6 2.420098 1_555
Na7 O30 2.305753 1_555
Na7 O3 2.365935 1_555
Na7 O18 2.403009 1_555
Na7 O7 2.420098 1_555
Na8 O9 2.246889 1_555
Na8 O21 2.255661 1_555
Na8 O0 2.311699 1_555
Na8 O33 2.679929 1_555
Na8 O43 2.877661 1_555
Na8 O44 2.927057 1_555
Na9 O8 2.246889 1_555
Na9 O20 2.255661 1_545
Na9 O1 2.311699 1_555
Na9 O32 2.679929 1_555
Na9 O42 2.877661 1_655
Na9 O45 2.927057 1_555
Na10 O11 2.246889 1_555
Na10 O23 2.255661 1_565
Na10 O2 2.311699 1_555
Na10 O35 2.679929 1_555
Na10 O41 2.877661 1_555
Na10 O46 2.927057 1_555
Na11 O10 2.246889 1_555
Na11 O22 2.255661 1_555
Na11 O3 2.311699 1_555
Na11 O34 2.679929 1_555
Na11 O40 2.877661 1_455
Na11 O47 2.927057 1_555
Na12 O13 2.246889 1_555
Na12 O17 2.255661 1_555
Na12 O4 2.311699 1_555
Na12 O37 2.679929 1_555
Na12 O47 2.877661 1_555
Na12 O40 2.927057 1_555
Na13 O12 2.246889 1_555
Na13 O16 2.255661 1_565
Na13 O5 2.311699 1_555
Na13 O36 2.679929 1_555
Na13 O46 2.877661 1_455
Na13 O41 2.927057 1_555
Na14 O15 2.246889 1_555
Na14 O19 2.255661 1_545
Na14 O6 2.311699 1_555
Na14 O39 2.679929 1_555
Na14 O45 2.877661 1_555
Na14 O42 2.927057 1_555
Na15 O14 2.246889 1_555
Na15 O18 2.255661 1_555
Na15 O7 2.311699 1_555
Na15 O38 2.679929 1_555
Na15 O44 2.877661 1_655
Na15 O43 2.927057 1_555
Mo0 O8 1.783624 1_456
Mo0 O24 1.783733 1_455
Mo0 O16 1.803290 1_555
Mo0 O0 1.836049 1_555
Mo1 O9 1.783624 1_554
Mo1 O25 1.783733 1_555
Mo1 O17 1.803290 1_555
Mo1 O1 1.836049 1_555
Mo2 O10 1.783624 1_655
Mo2 O26 1.783733 1_655
Mo2 O18 1.803290 1_555
Mo2 O2 1.836049 1_555
Mo3 O11 1.783624 1_555
Mo3 O27 1.783733 1_555
Mo3 O19 1.803290 1_555
Mo3 O3 1.836049 1_555
Mo4 O12 1.783624 1_654
Mo4 O28 1.783733 1_655
Mo4 O20 1.803290 1_555
Mo4 O4 1.836049 1_555
Mo5 O13 1.783624 1_556
Mo5 O29 1.783733 1_555
Mo5 O21 1.803290 1_555
Mo5 O5 1.836049 1_555
Mo6 O14 1.783624 1_455
Mo6 O30 1.783733 1_455
Mo6 O22 1.803290 1_555
Mo6 O6 1.836049 1_555
Mo7 O15 1.783624 1_555
Mo7 O31 1.783733 1_555
Mo7 O23 1.803290 1_555
Mo7 O7 1.836049 1_555
O32 O45 1.236656 1_555
O33 O44 1.236656 1_555
O34 O47 1.236656 1_555
O35 O46 1.236656 1_555
O36 O41 1.236656 1_555
O37 O40 1.236656 1_555
O38 O43 1.236656 1_555
O39 O42 1.236656 1_555
