# generated using pymatgen
data_Tm2Mo2C3
_symmetry_space_group_name_H-M   'P 1'
_cell_length_a   3.30167259
_cell_length_b   5.63988729
_cell_length_c   5.99915260
_cell_angle_alpha   110.61216119
_cell_angle_beta   105.97263674
_cell_angle_gamma   90.00000000
_symmetry_Int_Tables_number   1
_chemical_formula_structural   Tm2Mo2C3
_chemical_formula_sum   'Tm2 Mo2 C3'
_cell_volume   99.93850139
_cell_formula_units_Z   1
loop_
 _symmetry_equiv_pos_site_id
 _symmetry_equiv_pos_as_xyz
  1  'x, y, z'
loop_
 _atom_site_type_symbol
 _atom_site_label
 _atom_site_symmetry_multiplicity
 _atom_site_fract_x
 _atom_site_fract_y
 _atom_site_fract_z
 _atom_site_occupancy
  Tm  Tm0  1  0.38898868  0.17239745  0.77797836  1
  Tm  Tm1  1  0.61101132  0.82760255  0.22202164  1
  Mo  Mo0  1  0.15584934  0.32743718  0.31169968  1
  Mo  Mo1  1  0.84415066  0.67256282  0.68830032  1
  C  C0  1  0.24783233  0.73643727  0.49566466  1
  C  C1  1  0.75216767  0.26356273  0.50433534  1
  C  C2  1  0.00000000  0.00000000  -0.00000000  1
loop_
_geom_bond_atom_site_label_1
_geom_bond_atom_site_label_2
_geom_bond_distance
_geom_bond_site_symmetry_2
C0 Mo1 2.093454 1_455
C0 Mo1 2.093457 1_555
C0 Mo0 2.157378 1_555
C0 Tm0 2.400993 1_565
C0 Tm1 2.464705 1_455
C0 Tm1 2.464708 1_555
C1 Mo0 2.093454 1_655
C1 Mo0 2.093457 1_555
C1 Mo1 2.157378 1_555
C1 Tm1 2.400993 1_545
C1 Tm0 2.464705 1_655
C1 Tm0 2.464708 1_555
C2 Mo0 2.052038 1_555
C2 Mo1 2.052038 1_444
C2 Tm1 2.494429 1_445
C2 Tm0 2.494429 1_554
C2 Tm1 2.494431 1_545
C2 Tm0 2.494431 1_454
