# generated using pymatgen
data_Te6Mo3WS2
_symmetry_space_group_name_H-M   'P 1'
_cell_length_a   3.45561083
_cell_length_b   3.45561083
_cell_length_c   39.32124300
_cell_angle_alpha   90.00000000
_cell_angle_beta   90.00000000
_cell_angle_gamma   120.00001582
_symmetry_Int_Tables_number   1
_chemical_formula_structural   Te6Mo3WS2
_chemical_formula_sum   'Te6 Mo3 W1 S2'
_cell_volume   406.63752416
_cell_formula_units_Z   1
loop_
 _symmetry_equiv_pos_site_id
 _symmetry_equiv_pos_as_xyz
  1  'x, y, z'
loop_
 _atom_site_type_symbol
 _atom_site_label
 _atom_site_symmetry_multiplicity
 _atom_site_fract_x
 _atom_site_fract_y
 _atom_site_fract_z
 _atom_site_occupancy
  Te  Te0  1  0.00000000  0.00000000  0.32873400  1
  Te  Te1  1  0.00000000  0.00000000  0.70464000  1
  Te  Te2  1  0.33333300  0.66666700  0.42239400  1
  Te  Te3  1  0.33333300  0.66666700  0.51690300  1
  Te  Te4  1  0.00000000  0.00000000  0.23463600  1
  Te  Te5  1  0.00000000  0.00000000  0.61057300  1
  Mo  Mo0  1  0.00000000  0.00000000  0.09394200  1
  Mo  Mo1  1  0.33333300  0.66666700  0.28169700  1
  Mo  Mo2  1  0.33333300  0.66666700  0.65763700  1
  W  W0  1  0.00000000  0.00000000  0.46967100  1
  S  S0  1  0.33333300  0.66666700  0.05605700  1
  S  S1  1  0.33333300  0.66666700  0.13186400  1
loop_
_geom_bond_atom_site_label_1
_geom_bond_atom_site_label_2
_geom_bond_distance
_geom_bond_site_symmetry_2
Te2 W0 2.726949 1_565
Te2 W0 2.726951 1_555
Te2 W0 2.726951 1_665
Te3 W0 2.725744 1_565
Te3 W0 2.725745 1_555
Te3 W0 2.725745 1_665
Mo0 S0 2.489894 1_545
Mo0 S0 2.489896 1_555
Mo0 S0 2.489896 1_445
Mo0 S1 2.490764 1_545
Mo0 S1 2.490766 1_555
Mo0 S1 2.490766 1_445
Mo1 Te0 2.720525 1_565
Mo1 Te0 2.720527 1_665
Mo1 Te0 2.720527 1_555
Mo1 Te4 2.721167 1_565
Mo1 Te4 2.721168 1_665
Mo1 Te4 2.721168 1_555
Mo2 Te1 2.719616 1_565
Mo2 Te1 2.719618 1_555
Mo2 Te1 2.719618 1_665
Mo2 Te5 2.721247 1_565
Mo2 Te5 2.721249 1_665
Mo2 Te5 2.721249 1_555
