# generated using pymatgen
data_SnO2
_symmetry_space_group_name_H-M   'P 1'
_cell_length_a   11.27496081
_cell_length_b   10.68147955
_cell_length_c   10.55168100
_cell_angle_alpha   89.74487354
_cell_angle_beta   93.15496399
_cell_angle_gamma   91.66408430
_symmetry_Int_Tables_number   1
_chemical_formula_structural   SnO2
_chemical_formula_sum   'Sn30 O60'
_cell_volume   1268.30699531
_cell_formula_units_Z   30
loop_
 _symmetry_equiv_pos_site_id
 _symmetry_equiv_pos_as_xyz
  1  'x, y, z'
loop_
 _atom_site_type_symbol
 _atom_site_label
 _atom_site_symmetry_multiplicity
 _atom_site_fract_x
 _atom_site_fract_y
 _atom_site_fract_z
 _atom_site_occupancy
  Sn  Sn0  1  0.84671100  0.09564600  0.16102300  1
  Sn  Sn1  1  0.49519000  0.57510000  0.95020100  1
  Sn  Sn2  1  0.95575900  0.82466900  0.65557800  1
  Sn  Sn3  1  0.48666400  0.87446400  0.72056500  1
  Sn  Sn4  1  0.03613100  0.65141400  0.89982000  1
  Sn  Sn5  1  0.75671500  0.54513100  0.73384900  1
  Sn  Sn6  1  0.41301700  0.35298900  0.70157300  1
  Sn  Sn7  1  0.48910100  0.24520600  0.09616800  1
  Sn  Sn8  1  0.11006700  0.59124800  0.45495500  1
  Sn  Sn9  1  0.45747900  0.97287800  0.33412100  1
  Sn  Sn10  1  0.89011000  0.40195400  0.02707300  1
  Sn  Sn11  1  0.20100700  0.59987400  0.15879300  1
  Sn  Sn12  1  0.28387200  0.77199900  0.91780700  1
  Sn  Sn13  1  0.59545500  0.89780500  0.05854900  1
  Sn  Sn14  1  0.49489600  0.55478900  0.49858300  1
  Sn  Sn15  1  0.22246100  0.36283400  0.95659400  1
  Sn  Sn16  1  0.01049100  0.92184300  0.00643700  1
  Sn  Sn17  1  0.13749100  0.29797000  0.58249500  1
  Sn  Sn18  1  0.91380700  0.65482000  0.21700200  1
  Sn  Sn19  1  0.69284600  0.77219200  0.47653700  1
  Sn  Sn20  1  0.09570500  0.14959800  0.30416600  1
  Sn  Sn21  1  0.28689000  0.35513600  0.33817700  1
  Sn  Sn22  1  0.95256500  0.17437700  0.83759100  1
  Sn  Sn23  1  0.63700900  0.56349800  0.22123400  1
  Sn  Sn24  1  0.28885000  0.09247700  0.83882500  1
  Sn  Sn25  1  0.19500400  0.93297800  0.53069100  1
  Sn  Sn26  1  0.87511100  0.09104800  0.54240700  1
  Sn  Sn27  1  0.57945000  0.25785600  0.43876800  1
  Sn  Sn28  1  0.65136300  0.14145800  0.81813700  1
  Sn  Sn29  1  0.80996600  0.42978200  0.46774800  1
  O  O0  1  0.80989100  0.28695800  0.88448900  1
  O  O1  1  0.15549200  0.73516600  0.77988000  1
  O  O2  1  0.38903300  0.53163500  0.63575200  1
  O  O3  1  0.53361100  0.44159200  0.09779700  1
  O  O4  1  0.88514300  0.27667300  0.17142800  1
  O  O5  1  0.52744000  0.64915300  0.34034800  1
  O  O6  1  0.26009000  0.54806700  0.35997600  1
  O  O7  1  0.04413600  0.30824700  0.95300700  1
  O  O8  1  0.54744600  0.75088700  0.59372100  1
  O  O9  1  0.46136300  0.39644800  0.37241300  1
  O  O10  1  0.32374500  0.20636100  0.00496600  1
  O  O11  1  0.87876400  0.05146700  0.97195100  1
  O  O12  1  0.61556900  0.15517500  0.01340700  1
  O  O13  1  0.08792700  0.76588500  0.53195300  1
  O  O14  1  0.31677400  0.95499400  0.67738700  1
  O  O15  1  0.88783600  0.54425600  0.88220900  1
  O  O16  1  0.36544300  0.94143400  0.91544000  1
  O  O17  1  0.10323600  0.33018200  0.38174500  1
  O  O18  1  0.09322700  0.69536400  0.28402400  1
  O  O19  1  0.11656500  0.48371900  0.60777400  1
  O  O20  1  0.26491800  0.18337300  0.25845500  1
  O  O21  1  0.30218400  0.89692700  0.38940900  1
  O  O22  1  0.04033000  0.98516200  0.62716700  1
  O  O23  1  0.86064400  0.43002700  0.64836900  1
  O  O24  1  0.78916900  0.52794900  0.12725300  1
  O  O25  1  0.61571400  0.51379800  0.83009000  1
  O  O26  1  0.92410800  0.10505100  0.35823600  1
  O  O27  1  0.13794800  0.77900800  0.03353500  1
  O  O28  1  0.93943100  0.53587500  0.38794300  1
  O  O29  1  0.67780100  0.56125700  0.53561300  1
  O  O30  1  0.38400700  0.43131100  0.88100500  1
  O  O31  1  0.75817100  0.23112200  0.48494800  1
  O  O32  1  0.01727500  0.53796800  0.10710800  1
  O  O33  1  0.51826800  0.16256800  0.27700400  1
  O  O34  1  0.45197900  0.18232300  0.78530300  1
  O  O35  1  0.68230600  0.40179900  0.33041600  1
  O  O36  1  0.59996400  0.69859500  0.06709600  1
  O  O37  1  0.60984800  0.93845200  0.86388900  1
  O  O38  1  0.44987700  0.93884900  0.14675500  1
  O  O39  1  0.43522200  0.72143700  0.83306600  1
  O  O40  1  0.10672200  0.05198200  0.88680400  1
  O  O41  1  0.72798600  0.96162800  0.17412300  1
  O  O42  1  0.81791000  0.07785000  0.72567200  1
  O  O43  1  0.02973900  0.03361900  0.16666400  1
  O  O44  1  0.98692100  0.22407400  0.64593800  1
  O  O45  1  0.83322800  0.90160300  0.51787300  1
  O  O46  1  0.17705800  0.54443200  0.94327600  1
  O  O47  1  0.81538600  0.70665000  0.64953100  1
  O  O48  1  0.16034000  0.11041800  0.48133100  1
  O  O49  1  0.56872700  0.34588100  0.60894300  1
  O  O50  1  0.94558100  0.81400700  0.84815400  1
  O  O51  1  0.22306200  0.26835600  0.76887200  1
  O  O52  1  0.25697700  0.41796700  0.14701200  1
  O  O53  1  0.35221300  0.66611800  0.06849100  1
  O  O54  1  0.30917900  0.30138100  0.53713700  1
  O  O55  1  0.76338500  0.68935600  0.31754100  1
  O  O56  1  0.49827100  0.08675500  0.51649400  1
  O  O57  1  0.90531600  0.79307900  0.09194200  1
  O  O58  1  0.57324600  0.02696900  0.61684700  1
  O  O59  1  0.61330600  0.90367000  0.37421100  1
loop_
_geom_bond_atom_site_label_1
_geom_bond_atom_site_label_2
_geom_bond_distance
_geom_bond_site_symmetry_2
O0 Sn10 2.095834 1_556
O0 Sn22 2.117539 1_555
O0 Sn28 2.410595 1_555
O1 Sn12 2.026871 1_555
O1 Sn4 2.078602 1_555
O2 Sn14 1.936631 1_555
O2 Sn6 2.047980 1_555
O3 Sn23 2.123885 1_555
O3 Sn1 2.142103 1_554
O3 Sn7 2.142590 1_555
O4 Sn0 1.971486 1_555
O4 Sn10 2.025059 1_555
O5 Sn14 1.992305 1_555
O5 Sn23 2.046885 1_555
O5 Sn19 2.617204 1_555
O6 Sn8 2.077097 1_555
O6 Sn21 2.106917 1_555
O6 Sn11 2.260894 1_555
O7 Sn15 2.075494 1_555
O7 Sn22 2.094075 1_455
O7 Sn10 2.210398 1_456
O8 Sn3 2.042698 1_555
O8 Sn19 2.113577 1_555
O8 Sn14 2.372213 1_555
O9 Sn21 2.016875 1_555
O9 Sn27 2.111169 1_555
O9 Sn14 2.168728 1_555
O10 Sn7 2.082140 1_555
O10 Sn15 2.096943 1_554
O10 Sn24 2.150131 1_554
O11 Sn16 2.076244 1_646
O11 Sn0 2.105013 1_556
O11 Sn22 2.115601 1_555
O12 Sn7 1.986160 1_555
O12 Sn28 2.127758 1_554
O13 Sn8 2.065167 1_555
O13 Sn25 2.125946 1_555
O13 Sn2 2.142924 1_455
O14 Sn25 2.021590 1_555
O14 Sn3 2.147738 1_555
O14 Sn24 2.294681 1_565
O15 Sn4 1.999212 1_655
O15 Sn5 2.093384 1_555
O15 Sn10 2.150534 1_556
O16 Sn24 1.998678 1_565
O16 Sn12 2.006833 1_555
O17 Sn20 2.096394 1_555
O17 Sn21 2.154480 1_555
O17 Sn17 2.160026 1_555
O18 Sn8 2.117205 1_555
O18 Sn11 2.126954 1_555
O18 Sn18 2.138782 1_455
O19 Sn8 1.974871 1_555
O19 Sn17 2.025387 1_555
O20 Sn20 2.015571 1_555
O20 Sn21 2.024712 1_555
O21 Sn25 2.015304 1_555
O21 Sn9 2.022380 1_555
O22 Sn2 1.967201 1_455
O22 Sn25 2.155285 1_555
O22 Sn26 2.340774 1_465
O23 Sn29 1.959303 1_555
O23 Sn5 1.976903 1_555
O24 Sn23 2.073475 1_555
O24 Sn10 2.111384 1_555
O24 Sn18 2.112456 1_555
O25 Sn5 1.953059 1_555
O25 Sn1 2.032302 1_555
O26 Sn26 2.053001 1_555
O26 Sn20 2.088250 1_655
O26 Sn0 2.213314 1_555
O27 Sn12 2.105431 1_554
O27 Sn16 2.133750 1_555
O27 Sn4 2.216754 1_554
O27 Sn11 2.422099 1_555
O28 Sn29 2.038331 1_555
O28 Sn8 2.083062 1_655
O28 Sn18 2.212374 1_555
O29 Sn14 2.076915 1_555
O29 Sn29 2.225645 1_555
O29 Sn5 2.235502 1_555
O29 Sn19 2.338958 1_555
O30 Sn1 2.064197 1_555
O30 Sn6 2.118882 1_555
O30 Sn15 2.136838 1_555
O31 Sn27 2.074512 1_555
O31 Sn26 2.088809 1_555
O31 Sn29 2.193867 1_555
O32 Sn18 2.123626 1_455
O32 Sn10 2.153206 1_455
O32 Sn11 2.196673 1_555
O32 Sn4 2.512014 1_554
O33 Sn27 2.066481 1_555
O33 Sn7 2.112114 1_555
O33 Sn9 2.211852 1_545
O34 Sn6 2.070311 1_555
O34 Sn24 2.151710 1_555
O34 Sn28 2.309587 1_555
O35 Sn29 2.002556 1_555
O35 Sn23 2.130722 1_555
O35 Sn27 2.245603 1_555
O36 Sn1 2.102509 1_554
O36 Sn13 2.131329 1_555
O36 Sn23 2.200310 1_555
O37 Sn3 2.099078 1_555
O37 Sn13 2.111485 1_556
O37 Sn28 2.260694 1_565
O38 Sn13 1.991527 1_555
O38 Sn9 2.008491 1_555
O39 Sn12 2.056456 1_555
O39 Sn1 2.092903 1_555
O39 Sn3 2.102562 1_555
O40 Sn24 2.172808 1_555
O40 Sn16 2.179576 1_546
O40 Sn22 2.241978 1_455
O41 Sn0 1.941016 1_565
O41 Sn13 1.983043 1_555
O42 Sn26 2.074800 1_555
O42 Sn22 2.117845 1_555
O42 Sn28 2.285034 1_555
O43 Sn20 2.009138 1_555
O43 Sn16 2.072067 1_545
O43 Sn0 2.183260 1_455
O44 Sn17 1.998952 1_655
O44 Sn26 2.135378 1_555
O44 Sn22 2.141519 1_555
O45 Sn26 2.078579 1_565
O45 Sn19 2.099658 1_555
O45 Sn2 2.128272 1_555
O46 Sn4 2.015296 1_555
O46 Sn15 2.022797 1_555
O46 Sn11 2.351619 1_556
O47 Sn2 1.992960 1_555
O47 Sn5 2.047075 1_555
O47 Sn19 2.344830 1_555
O48 Sn25 2.007009 1_545
O48 Sn20 2.015349 1_555
O48 Sn17 2.301836 1_555
O49 Sn27 2.041689 1_555
O49 Sn6 2.059267 1_555
O49 Sn14 2.646956 1_555
O50 Sn2 2.044019 1_555
O50 Sn4 2.095010 1_655
O50 Sn16 2.117877 1_656
O51 Sn24 2.152362 1_555
O51 Sn17 2.168347 1_555
O51 Sn15 2.227473 1_555
O51 Sn6 2.440853 1_555
O52 Sn11 2.066659 1_555
O52 Sn15 2.108653 1_554
O52 Sn21 2.135207 1_555
O53 Sn12 2.073781 1_554
O53 Sn11 2.101857 1_555
O53 Sn1 2.329192 1_554
O54 Sn17 2.018748 1_555
O54 Sn6 2.105351 1_555
O54 Sn21 2.177094 1_555
O55 Sn18 2.091839 1_555
O55 Sn19 2.104991 1_555
O55 Sn23 2.147502 1_555
O56 O58 1.473251 1_555
O56 Sn27 2.196059 1_555
O56 Sn9 2.298940 1_545
O57 Sn18 1.976970 1_555
O57 Sn16 2.030743 1_655
O58 Sn3 2.193998 1_545
O58 Sn28 2.556771 1_555
O59 Sn9 1.950158 1_555
O59 Sn19 1.973674 1_555
