# generated using pymatgen
data_Tb(MnAl)6
_symmetry_space_group_name_H-M   'P 1'
_cell_length_a   6.63075673
_cell_length_b   6.63075673
_cell_length_c   6.63075673
_cell_angle_alpha   136.42689022
_cell_angle_beta   99.11356517
_cell_angle_gamma   96.72549880
_symmetry_Int_Tables_number   1
_chemical_formula_structural   Tb(MnAl)6
_chemical_formula_sum   'Tb1 Mn6 Al6'
_cell_volume   186.54184997
_cell_formula_units_Z   1
loop_
 _symmetry_equiv_pos_site_id
 _symmetry_equiv_pos_as_xyz
  1  'x, y, z'
loop_
 _atom_site_type_symbol
 _atom_site_label
 _atom_site_symmetry_multiplicity
 _atom_site_fract_x
 _atom_site_fract_y
 _atom_site_fract_z
 _atom_site_occupancy
  Tb  Tb0  1  0.00000000  0.00000000  0.00000000  1
  Mn  Mn0  1  0.50000000  0.50000000  0.50000000  1
  Mn  Mn1  1  0.50000000  0.00000000  0.00000000  1
  Mn  Mn2  1  0.00000000  0.50000000  0.00000000  1
  Mn  Mn3  1  0.00000000  0.00000000  0.50000000  1
  Mn  Mn4  1  0.76373900  0.50000000  0.26373900  1
  Mn  Mn5  1  0.23626100  0.50000000  0.73626100  1
  Al  Al0  1  0.65297000  0.65297000  0.00000000  1
  Al  Al1  1  0.34703000  0.34703000  0.00000000  1
  Al  Al2  1  0.33882100  0.00000000  0.33882100  1
  Al  Al3  1  0.66117900  0.00000000  0.66117900  1
  Al  Al4  1  0.19696700  0.69696700  0.50000000  1
  Al  Al5  1  0.80303300  0.30303300  0.50000000  1
loop_
_geom_bond_atom_site_label_1
_geom_bond_atom_site_label_2
_geom_bond_distance
_geom_bond_site_symmetry_2
Mn0 Mn1 2.461005 1_555
Mn0 Mn1 2.461005 1_566
Mn0 Mn5 2.525933 1_555
Mn0 Mn4 2.525933 1_555
Mn0 Tb0 3.315378 1_555
Mn0 Tb0 3.315378 1_666
Mn1 Mn5 2.525933 1_544
Mn1 Mn4 2.525933 1_555
Mn1 Tb0 3.315378 1_555
Mn1 Tb0 3.315378 1_655
Mn2 Mn3 2.461005 1_554
Mn2 Mn3 2.461005 1_565
Mn2 Mn4 2.525933 1_455
Mn2 Mn5 2.525933 1_554
Mn2 Tb0 3.315378 1_555
Mn2 Tb0 3.315378 1_565
Mn3 Mn4 2.525933 1_445
Mn3 Mn5 2.525933 1_555
Mn3 Tb0 3.315378 1_555
Mn3 Tb0 3.315378 1_556
Mn4 Tb0 3.191786 1_666
Mn4 Tb0 3.191786 1_655
Mn5 Tb0 3.191786 1_555
Mn5 Tb0 3.191786 1_566
Al0 Mn3 2.621150 1_665
Al0 Mn0 2.621150 1_554
Al0 Mn1 2.621150 1_565
Al0 Mn2 2.621150 1_655
Al0 Mn4 2.639011 1_555
Al0 Mn5 2.639011 1_554
Al0 Al1 2.695672 1_555
Al0 Al5 2.793710 1_554
Al0 Al5 2.793710 1_565
Al0 Tb0 3.057720 1_665
Al1 Mn2 2.621150 1_555
Al1 Mn0 2.621150 1_555
Al1 Mn1 2.621150 1_555
Al1 Mn3 2.621150 1_554
Al1 Mn4 2.639011 1_555
Al1 Mn5 2.639011 1_554
Al1 Al4 2.793710 1_544
Al1 Al4 2.793710 1_555
Al1 Tb0 3.057720 1_555
Al2 Mn5 2.614380 1_555
Al2 Mn5 2.614380 1_544
Al2 Mn3 2.636326 1_555
Al2 Mn2 2.636326 1_545
Al2 Mn0 2.636326 1_555
Al2 Mn1 2.636326 1_555
Al2 Al3 2.773138 1_555
Al2 Tb0 2.914764 1_555
Al2 Al4 3.008618 1_545
Al2 Al5 3.008618 1_555
Al3 Mn4 2.614380 1_545
Al3 Mn4 2.614380 1_556
Al3 Mn3 2.636326 1_655
Al3 Mn2 2.636326 1_656
Al3 Mn0 2.636326 1_545
Al3 Mn1 2.636326 1_556
Al3 Tb0 2.914764 1_656
Al3 Al5 3.008618 1_555
Al3 Al4 3.008618 1_545
Al4 Mn0 2.521478 1_555
Al4 Mn3 2.521478 1_565
Al4 Mn2 2.521478 1_555
Al4 Mn1 2.521478 1_566
Al4 Mn5 2.672622 1_555
Al4 Mn4 2.672622 1_455
Al4 Tb0 3.011395 1_566
Al4 Tb0 3.011395 1_555
Al5 Mn2 2.521478 1_656
Al5 Mn0 2.521478 1_555
Al5 Mn3 2.521478 1_655
Al5 Mn1 2.521478 1_555
Al5 Mn5 2.672622 1_655
Al5 Mn4 2.672622 1_555
Al5 Tb0 3.011395 1_666
Al5 Tb0 3.011395 1_655
