# generated using pymatgen
data_SmRu2
_symmetry_space_group_name_H-M   'P 1'
_cell_length_a   5.26509294
_cell_length_b   5.26509243
_cell_length_c   9.06300627
_cell_angle_alpha   90.00035243
_cell_angle_beta   89.99965413
_cell_angle_gamma   120.00181241
_symmetry_Int_Tables_number   1
_chemical_formula_structural   SmRu2
_chemical_formula_sum   'Sm4 Ru8'
_cell_volume   217.57401291
_cell_formula_units_Z   4
loop_
 _symmetry_equiv_pos_site_id
 _symmetry_equiv_pos_as_xyz
  1  'x, y, z'
loop_
 _atom_site_type_symbol
 _atom_site_label
 _atom_site_symmetry_multiplicity
 _atom_site_fract_x
 _atom_site_fract_y
 _atom_site_fract_z
 _atom_site_occupancy
  Sm  Sm0  1  0.66666624  0.33333476  0.56752801  1
  Sm  Sm1  1  0.33333461  0.66666539  0.43236611  1
  Sm  Sm2  1  0.33333431  0.66666569  0.06759791  1
  Sm  Sm3  1  0.66666530  0.33333470  0.93251408  1
  Ru  Ru0  1  -0.00002492  0.00002592  0.49993274  1
  Ru  Ru1  1  0.99997451  0.00002549  0.00006902  1
  Ru  Ru2  1  0.16939293  0.33877813  0.75006518  1
  Ru  Ru3  1  0.16936389  0.83063611  0.75006410  1
  Ru  Ru4  1  0.66122087  0.83060707  0.75006518  1
  Ru  Ru5  1  0.83063169  0.66123267  0.24993286  1
  Ru  Ru6  1  0.83067224  0.16932676  0.24993394  1
  Ru  Ru7  1  0.33876633  0.16936731  0.24993286  1
loop_
_geom_bond_atom_site_label_1
_geom_bond_atom_site_label_2
_geom_bond_distance
_geom_bond_site_symmetry_2
Sm0 Sm1 3.277292 1_655
Sm0 Sm1 3.277296 1_545
Sm0 Sm1 3.277355 1_555
Sm0 Sm3 3.307871 1_555
Sm1 Sm2 3.305896 1_555
Sm2 Sm3 3.277038 1_564
Sm2 Sm3 3.277038 1_454
Sm2 Sm3 3.277074 1_554
Ru0 Ru6 2.741788 1_455
Ru0 Ru7 2.742241 1_555
Ru0 Ru5 2.742245 1_445
Ru0 Ru2 2.743133 1_555
Ru0 Ru4 2.743138 1_445
Ru0 Ru3 2.743230 1_545
Ru0 Sm1 3.100694 1_555
Ru0 Sm1 3.100698 1_445
Ru0 Sm0 3.100723 1_455
Ru0 Sm0 3.100976 1_445
Ru0 Sm0 3.100976 1_555
Ru0 Sm1 3.101129 1_545
Ru1 Ru6 2.740767 1_555
Ru1 Ru7 2.741232 1_655
Ru1 Ru5 2.741235 1_545
Ru1 Ru2 2.742180 1_654
Ru1 Ru4 2.742182 1_544
Ru1 Ru3 2.742265 1_644
Ru1 Sm2 3.100625 1_655
Ru1 Sm2 3.100626 1_545
Ru1 Sm3 3.100663 1_554
Ru1 Sm3 3.100898 1_544
Ru1 Sm3 3.100898 1_654
Ru1 Sm2 3.101068 1_645
Ru2 Ru4 2.589451 1_555
Ru2 Ru3 2.589754 1_555
Ru2 Ru3 2.675338 1_545
Ru2 Ru4 2.675497 1_445
Ru2 Sm3 3.108857 1_555
Ru2 Sm3 3.108891 1_455
Ru2 Sm0 3.109269 1_555
Ru2 Sm0 3.109329 1_455
Ru2 Sm2 3.242971 1_556
Ru2 Sm1 3.244318 1_555
Ru3 Ru4 2.589749 1_555
Ru3 Ru4 2.675344 1_455
Ru3 Sm3 3.108816 1_565
Ru3 Sm3 3.108816 1_455
Ru3 Sm0 3.109229 1_455
Ru3 Sm0 3.109234 1_565
Ru3 Sm2 3.243125 1_556
Ru3 Sm1 3.244428 1_555
Ru4 Sm3 3.108859 1_555
Ru4 Sm3 3.108889 1_565
Ru4 Sm0 3.109269 1_555
Ru4 Sm0 3.109330 1_565
Ru4 Sm2 3.242969 1_556
Ru4 Sm1 3.244316 1_555
Ru5 Ru7 2.589646 1_555
Ru5 Ru6 2.590037 1_555
Ru5 Ru6 2.675056 1_565
Ru5 Ru7 2.675303 1_665
Ru5 Sm2 3.108253 1_655
Ru5 Sm2 3.108395 1_555
Ru5 Sm1 3.108746 1_655
Ru5 Sm1 3.108850 1_555
Ru5 Sm3 3.242077 1_554
Ru5 Sm0 3.243504 1_555
Ru6 Ru7 2.590037 1_555
Ru6 Ru7 2.675056 1_655
Ru6 Sm2 3.108262 1_545
Ru6 Sm2 3.108267 1_655
Ru6 Sm1 3.108726 1_545
Ru6 Sm1 3.108730 1_655
Ru6 Sm3 3.242364 1_554
Ru6 Sm0 3.243745 1_555
Ru7 Sm2 3.108251 1_545
Ru7 Sm2 3.108398 1_555
Ru7 Sm1 3.108744 1_545
Ru7 Sm1 3.108852 1_555
Ru7 Sm3 3.242079 1_554
Ru7 Sm0 3.243508 1_555
