# generated using pymatgen
data_U2SnPt2
_symmetry_space_group_name_H-M   'P 1'
_cell_length_a   7.74604500
_cell_length_b   7.74604500
_cell_length_c   7.31643900
_cell_angle_alpha   90.00000000
_cell_angle_beta   90.00000000
_cell_angle_gamma   90.00000000
_symmetry_Int_Tables_number   1
_chemical_formula_structural   U2SnPt2
_chemical_formula_sum   'U8 Sn4 Pt8'
_cell_volume   438.99521588
_cell_formula_units_Z   4
loop_
 _symmetry_equiv_pos_site_id
 _symmetry_equiv_pos_as_xyz
  1  'x, y, z'
loop_
 _atom_site_type_symbol
 _atom_site_label
 _atom_site_symmetry_multiplicity
 _atom_site_fract_x
 _atom_site_fract_y
 _atom_site_fract_z
 _atom_site_occupancy
  U  U0  1  0.68676900  0.31323100  0.50000000  1
  U  U1  1  0.31323100  0.68676900  0.50000000  1
  U  U2  1  0.18676900  0.18676900  0.00000000  1
  U  U3  1  0.81323100  0.81323100  0.00000000  1
  U  U4  1  0.84552000  0.84552000  0.50000000  1
  U  U5  1  0.15448000  0.15448000  0.50000000  1
  U  U6  1  0.34552000  0.65448000  0.00000000  1
  U  U7  1  0.65448000  0.34552000  0.00000000  1
  Sn  Sn0  1  0.50000000  0.00000000  0.25000000  1
  Sn  Sn1  1  0.00000000  0.50000000  0.75000000  1
  Sn  Sn2  1  0.50000000  0.00000000  0.75000000  1
  Sn  Sn3  1  0.00000000  0.50000000  0.25000000  1
  Pt  Pt0  1  0.86869100  0.13130900  0.21911700  1
  Pt  Pt1  1  0.13130900  0.86869100  0.21911700  1
  Pt  Pt2  1  0.36869100  0.36869100  0.71911700  1
  Pt  Pt3  1  0.63130900  0.63130900  0.71911700  1
  Pt  Pt4  1  0.13130900  0.86869100  0.78088300  1
  Pt  Pt5  1  0.86869100  0.13130900  0.78088300  1
  Pt  Pt6  1  0.63130900  0.63130900  0.28088300  1
  Pt  Pt7  1  0.36869100  0.36869100  0.28088300  1
loop_
_geom_bond_atom_site_label_1
_geom_bond_atom_site_label_2
_geom_bond_distance
_geom_bond_site_symmetry_2
Sn0 U3 3.365350 1_545
Sn0 U0 3.365350 1_555
Sn0 U1 3.365350 1_545
Sn0 U2 3.365350 1_555
Sn0 U6 3.455532 1_545
Sn0 U5 3.455532 1_555
Sn0 U7 3.455532 1_555
Sn0 U4 3.455532 1_545
Sn1 U3 3.365350 1_456
Sn1 U1 3.365350 1_555
Sn1 U0 3.365350 1_455
Sn1 U2 3.365350 1_556
Sn1 U7 3.455532 1_456
Sn1 U5 3.455532 1_555
Sn1 U4 3.455532 1_455
Sn1 U6 3.455532 1_556
Sn2 U3 3.365350 1_546
Sn2 U0 3.365350 1_555
Sn2 U1 3.365350 1_545
Sn2 U2 3.365350 1_556
Sn2 U6 3.455532 1_546
Sn2 U5 3.455532 1_555
Sn2 U4 3.455532 1_545
Sn2 U7 3.455532 1_556
Sn3 U3 3.365350 1_455
Sn3 U1 3.365350 1_555
Sn3 U0 3.365350 1_455
Sn3 U2 3.365350 1_555
Sn3 U7 3.455532 1_455
Sn3 U5 3.455532 1_555
Sn3 U4 3.455532 1_455
Sn3 U6 3.455532 1_555
Pt0 U7 2.841933 1_555
Pt0 U0 2.862663 1_555
Pt0 Pt1 2.876865 1_645
Pt0 U2 2.970724 1_655
Pt0 U3 2.970724 1_545
Pt0 U4 3.025908 1_545
Pt0 U5 3.025908 1_655
Pt0 Sn0 3.040024 1_555
Pt0 Sn3 3.040024 1_655
Pt0 Pt5 3.206312 1_554
Pt1 U6 2.841933 1_555
Pt1 U1 2.862663 1_555
Pt1 U3 2.970724 1_455
Pt1 U2 2.970724 1_565
Pt1 U4 3.025908 1_455
Pt1 U5 3.025908 1_565
Pt1 Sn3 3.040024 1_555
Pt1 Sn0 3.040024 1_565
Pt1 Pt4 3.206312 1_554
Pt2 U5 2.841933 1_555
Pt2 U2 2.862663 1_556
Pt2 Pt3 2.876865 1_555
Pt2 U1 2.970724 1_555
Pt2 U0 2.970724 1_555
Pt2 U6 3.025908 1_556
Pt2 U7 3.025908 1_556
Pt2 Sn1 3.040024 1_555
Pt2 Sn2 3.040024 1_555
Pt2 Pt7 3.206312 1_555
Pt3 U4 2.841933 1_555
Pt3 U3 2.862663 1_556
Pt3 U0 2.970724 1_555
Pt3 U1 2.970724 1_555
Pt3 U6 3.025908 1_556
Pt3 U7 3.025908 1_556
Pt3 Sn2 3.040024 1_565
Pt3 Sn1 3.040024 1_655
Pt3 Pt6 3.206312 1_555
Pt4 U6 2.841933 1_556
Pt4 U1 2.862663 1_555
Pt4 Pt5 2.876865 1_465
Pt4 U3 2.970724 1_456
Pt4 U2 2.970724 1_566
Pt4 U4 3.025908 1_455
Pt4 U5 3.025908 1_565
Pt4 Sn1 3.040024 1_555
Pt4 Sn2 3.040024 1_565
Pt5 U7 2.841933 1_556
Pt5 U0 2.862663 1_555
Pt5 U3 2.970724 1_546
Pt5 U2 2.970724 1_656
Pt5 U4 3.025908 1_545
Pt5 U5 3.025908 1_655
Pt5 Sn2 3.040024 1_555
Pt5 Sn1 3.040024 1_655
Pt6 U4 2.841933 1_555
Pt6 U3 2.862663 1_555
Pt6 Pt7 2.876865 1_555
Pt6 U0 2.970724 1_555
Pt6 U1 2.970724 1_555
Pt6 U6 3.025908 1_555
Pt6 U7 3.025908 1_555
Pt6 Sn3 3.040024 1_655
Pt6 Sn0 3.040024 1_565
Pt7 U5 2.841933 1_555
Pt7 U2 2.862663 1_555
Pt7 U1 2.970724 1_555
Pt7 U0 2.970724 1_555
Pt7 U6 3.025908 1_555
Pt7 U7 3.025908 1_555
Pt7 Sn0 3.040024 1_555
Pt7 Sn3 3.040024 1_555
