# generated using pymatgen
data_Tb3Co2Si3
_symmetry_space_group_name_H-M   'P 1'
_cell_length_a   5.64785673
_cell_length_b   5.64785673
_cell_length_c   13.69407800
_cell_angle_alpha   90.00000000
_cell_angle_beta   90.00000000
_cell_angle_gamma   137.36166805
_symmetry_Int_Tables_number   1
_chemical_formula_structural   Tb3Co2Si3
_chemical_formula_sum   'Tb6 Co4 Si6'
_cell_volume   295.88639475
_cell_formula_units_Z   2
loop_
 _symmetry_equiv_pos_site_id
 _symmetry_equiv_pos_as_xyz
  1  'x, y, z'
loop_
 _atom_site_type_symbol
 _atom_site_label
 _atom_site_symmetry_multiplicity
 _atom_site_fract_x
 _atom_site_fract_y
 _atom_site_fract_z
 _atom_site_occupancy
  Tb  Tb0  1  0.63734000  0.36266000  0.25000000  1
  Tb  Tb1  1  0.36266000  0.63734000  0.75000000  1
  Tb  Tb2  1  0.91938000  0.08062000  0.11160400  1
  Tb  Tb3  1  0.08062000  0.91938000  0.88839600  1
  Tb  Tb4  1  0.08062000  0.91938000  0.61160400  1
  Tb  Tb5  1  0.91938000  0.08062000  0.38839600  1
  Co  Co0  1  0.78556200  0.21443800  0.58004000  1
  Co  Co1  1  0.21443800  0.78556200  0.41996000  1
  Co  Co2  1  0.21443800  0.78556200  0.08004000  1
  Co  Co3  1  0.78556200  0.21443800  0.91996000  1
  Si  Si0  1  0.32984300  0.67015700  0.25000000  1
  Si  Si1  1  0.67015700  0.32984300  0.75000000  1
  Si  Si2  1  0.62271900  0.37728100  0.04031600  1
  Si  Si3  1  0.37728100  0.62271900  0.95968400  1
  Si  Si4  1  0.37728100  0.62271900  0.54031600  1
  Si  Si5  1  0.62271900  0.37728100  0.45968400  1
loop_
_geom_bond_atom_site_label_1
_geom_bond_atom_site_label_2
_geom_bond_distance
_geom_bond_site_symmetry_2
Co0 Si4 2.333164 1_655
Co0 Si4 2.333164 1_545
Co0 Si5 2.377544 1_555
Co0 Si1 2.625208 1_555
Co0 Tb5 2.978296 1_555
Co0 Tb4 3.008953 1_545
Co0 Tb4 3.008953 1_655
Co0 Tb4 3.134763 1_645
Co0 Tb1 3.208026 1_545
Co0 Tb1 3.208026 1_655
Co1 Si5 2.333164 1_455
Co1 Si5 2.333164 1_565
Co1 Si4 2.377544 1_555
Co1 Si0 2.625208 1_555
Co1 Tb4 2.978296 1_555
Co1 Tb5 3.008953 1_455
Co1 Tb5 3.008953 1_565
Co1 Tb5 3.134763 1_465
Co1 Tb0 3.208026 1_455
Co1 Tb0 3.208026 1_565
Co2 Si2 2.333164 1_455
Co2 Si2 2.333164 1_565
Co2 Si3 2.377544 1_554
Co2 Si0 2.625208 1_555
Co2 Tb3 2.978296 1_554
Co2 Tb2 3.008953 1_455
Co2 Tb2 3.008953 1_565
Co2 Tb2 3.134763 1_465
Co2 Tb0 3.208026 1_455
Co2 Tb0 3.208026 1_565
Co3 Si3 2.333164 1_545
Co3 Si3 2.333164 1_655
Co3 Si2 2.377544 1_556
Co3 Si1 2.625208 1_555
Co3 Tb2 2.978296 1_556
Co3 Tb3 3.008953 1_545
Co3 Tb3 3.008953 1_655
Co3 Tb3 3.134763 1_645
Co3 Tb1 3.208026 1_545
Co3 Tb1 3.208026 1_655
Si0 Tb0 2.884363 1_455
Si0 Tb0 2.884363 1_565
Si0 Tb5 2.948855 1_455
Si0 Tb2 2.948855 1_455
Si0 Tb2 2.948855 1_565
Si0 Tb5 2.948855 1_565
Si0 Tb0 3.235712 1_555
Si1 Tb1 2.884363 1_655
Si1 Tb1 2.884363 1_545
Si1 Tb3 2.948855 1_545
Si1 Tb3 2.948855 1_655
Si1 Tb4 2.948855 1_545
Si1 Tb4 2.948855 1_655
Si1 Tb1 3.235712 1_555
Si2 Si3 2.808818 1_554
Si2 Tb0 2.875548 1_555
Si2 Tb3 2.956447 1_544
Si2 Tb3 2.956447 1_654
Si2 Tb2 3.122100 1_565
Si2 Tb2 3.122100 1_455
Si2 Tb2 3.270772 1_555
Si3 Tb1 2.875548 1_555
Si3 Tb2 2.956447 1_566
Si3 Tb2 2.956447 1_456
Si3 Tb3 3.122100 1_655
Si3 Tb3 3.122100 1_545
Si3 Tb3 3.270772 1_555
Si4 Si5 2.808818 1_555
Si4 Tb1 2.875548 1_555
Si4 Tb5 2.956447 1_455
Si4 Tb5 2.956447 1_565
Si4 Tb4 3.122100 1_655
Si4 Tb4 3.122100 1_545
Si4 Tb4 3.270772 1_555
Si5 Tb0 2.875548 1_555
Si5 Tb4 2.956447 1_545
Si5 Tb4 2.956447 1_655
Si5 Tb5 3.122100 1_565
Si5 Tb5 3.122100 1_455
Si5 Tb5 3.270772 1_555
