# generated using pymatgen
data_Na3U6GaF30
_symmetry_space_group_name_H-M   'P 1'
_cell_length_a   9.90067829
_cell_length_b   9.90067829
_cell_length_c   13.01885600
_cell_angle_alpha   90.00000000
_cell_angle_beta   90.00000000
_cell_angle_gamma   120.00000195
_symmetry_Int_Tables_number   1
_chemical_formula_structural   Na3U6GaF30
_chemical_formula_sum   'Na6 U12 Ga2 F60'
_cell_volume   1105.18083318
_cell_formula_units_Z   2
loop_
 _symmetry_equiv_pos_site_id
 _symmetry_equiv_pos_as_xyz
  1  'x, y, z'
loop_
 _atom_site_type_symbol
 _atom_site_label
 _atom_site_symmetry_multiplicity
 _atom_site_fract_x
 _atom_site_fract_y
 _atom_site_fract_z
 _atom_site_occupancy
  Na  Na0  1  0.66666700  0.33333300  0.83595900  1
  Na  Na1  1  0.66666700  0.33333300  0.33595900  1
  Na  Na2  1  0.33333300  0.66666700  0.16404100  1
  Na  Na3  1  0.33333300  0.66666700  0.66404100  1
  Na  Na4  1  0.00000000  0.00000000  0.00000000  1
  Na  Na5  1  0.00000000  0.00000000  0.50000000  1
  U  U0  1  0.07595900  0.40045200  0.89841600  1
  U  U1  1  0.32449300  0.92404100  0.89841600  1
  U  U2  1  0.59954800  0.67550700  0.89841600  1
  U  U3  1  0.07595900  0.67550700  0.39841600  1
  U  U4  1  0.59954800  0.92404100  0.39841600  1
  U  U5  1  0.32449300  0.40045200  0.39841600  1
  U  U6  1  0.92404100  0.59954800  0.10158400  1
  U  U7  1  0.67550700  0.07595900  0.10158400  1
  U  U8  1  0.40045200  0.32449300  0.10158400  1
  U  U9  1  0.92404100  0.32449300  0.60158400  1
  U  U10  1  0.40045200  0.07595900  0.60158400  1
  U  U11  1  0.67550700  0.59954800  0.60158400  1
  Ga  Ga0  1  0.00000000  0.00000000  0.75000000  1
  Ga  Ga1  1  0.00000000  0.00000000  0.25000000  1
  F  F0  1  0.86940600  0.30223000  0.78465700  1
  F  F1  1  0.43282400  0.13059400  0.78465700  1
  F  F2  1  0.69777000  0.56717600  0.78465700  1
  F  F3  1  0.86940600  0.56717600  0.28465700  1
  F  F4  1  0.69777000  0.13059400  0.28465700  1
  F  F5  1  0.43282400  0.30223000  0.28465700  1
  F  F6  1  0.13059400  0.69777000  0.21534300  1
  F  F7  1  0.56717600  0.86940600  0.21534300  1
  F  F8  1  0.30223000  0.43282400  0.21534300  1
  F  F9  1  0.13059400  0.43282400  0.71534300  1
  F  F10  1  0.30223000  0.86940600  0.71534300  1
  F  F11  1  0.56717600  0.69777000  0.71534300  1
  F  F12  1  0.88626200  0.19324500  0.98207000  1
  F  F13  1  0.30698200  0.11373800  0.98207000  1
  F  F14  1  0.80675500  0.69301800  0.98207000  1
  F  F15  1  0.88626200  0.69301800  0.48207000  1
  F  F16  1  0.80675500  0.11373800  0.48207000  1
  F  F17  1  0.30698200  0.19324500  0.48207000  1
  F  F18  1  0.11373800  0.80675500  0.01793000  1
  F  F19  1  0.69301800  0.88626200  0.01793000  1
  F  F20  1  0.19324500  0.30698200  0.01793000  1
  F  F21  1  0.11373800  0.30698200  0.51793000  1
  F  F22  1  0.19324500  0.88626200  0.51793000  1
  F  F23  1  0.69301800  0.80675500  0.51793000  1
  F  F24  1  0.11950400  0.53188300  0.05089100  1
  F  F25  1  0.41238000  0.88049600  0.05089100  1
  F  F26  1  0.46811700  0.58762000  0.05089100  1
  F  F27  1  0.11950400  0.58762000  0.55089100  1
  F  F28  1  0.46811700  0.88049600  0.55089100  1
  F  F29  1  0.41238000  0.53188300  0.55089100  1
  F  F30  1  0.88049600  0.46811700  0.94910900  1
  F  F31  1  0.58762000  0.11950400  0.94910900  1
  F  F32  1  0.53188300  0.41238000  0.94910900  1
  F  F33  1  0.88049600  0.41238000  0.44910900  1
  F  F34  1  0.53188300  0.11950400  0.44910900  1
  F  F35  1  0.58762000  0.46811700  0.44910900  1
  F  F36  1  0.82039400  0.90243000  0.83712500  1
  F  F37  1  0.08203600  0.17960600  0.83712500  1
  F  F38  1  0.09757000  0.91796400  0.83712500  1
  F  F39  1  0.82039400  0.91796400  0.33712500  1
  F  F40  1  0.09757000  0.17960600  0.33712500  1
  F  F41  1  0.08203600  0.90243000  0.33712500  1
  F  F42  1  0.17960600  0.09757000  0.16287500  1
  F  F43  1  0.91796400  0.82039400  0.16287500  1
  F  F44  1  0.90243000  0.08203600  0.16287500  1
  F  F45  1  0.17960600  0.08203600  0.66287500  1
  F  F46  1  0.90243000  0.82039400  0.66287500  1
  F  F47  1  0.91796400  0.09757000  0.66287500  1
  F  F48  1  0.34107700  0.51220900  0.86183800  1
  F  F49  1  0.17113300  0.65892300  0.86183800  1
  F  F50  1  0.48779100  0.82886700  0.86183800  1
  F  F51  1  0.34107700  0.82886700  0.36183800  1
  F  F52  1  0.48779100  0.65892300  0.36183800  1
  F  F53  1  0.17113300  0.51220900  0.36183800  1
  F  F54  1  0.65892300  0.48779100  0.13816200  1
  F  F55  1  0.82886700  0.34107700  0.13816200  1
  F  F56  1  0.51220900  0.17113300  0.13816200  1
  F  F57  1  0.65892300  0.17113300  0.63816200  1
  F  F58  1  0.51220900  0.34107700  0.63816200  1
  F  F59  1  0.82886700  0.48779100  0.63816200  1
loop_
_geom_bond_atom_site_label_1
_geom_bond_atom_site_label_2
_geom_bond_distance
_geom_bond_site_symmetry_2
F0 Na0 2.277738 1_555
F0 U0 2.309213 1_655
F0 U9 2.429517 1_555
F1 Na0 2.277744 1_555
F1 U1 2.309213 1_545
F1 U10 2.429517 1_555
F2 Na0 2.277748 1_555
F2 U2 2.309213 1_555
F2 U11 2.429517 1_555
F3 Na1 2.277744 1_555
F3 U3 2.309213 1_655
F3 U6 2.429517 1_555
F4 Na1 2.277738 1_555
F4 U4 2.309213 1_545
F4 U7 2.429517 1_555
F5 Na1 2.277748 1_555
F5 U5 2.309213 1_555
F5 U8 2.429517 1_555
F6 Na2 2.277738 1_555
F6 U6 2.309213 1_455
F6 U3 2.429517 1_555
F7 Na2 2.277744 1_555
F7 U7 2.309213 1_565
F7 U4 2.429517 1_555
F8 Na2 2.277748 1_555
F8 U8 2.309213 1_555
F8 U5 2.429517 1_555
F9 Na3 2.277744 1_555
F9 U9 2.309213 1_455
F9 U0 2.429517 1_555
F10 Na3 2.277738 1_555
F10 U10 2.309213 1_565
F10 U1 2.429517 1_555
F11 Na3 2.277748 1_555
F11 U11 2.309213 1_555
F11 U2 2.429517 1_555
F12 U0 2.251468 1_655
F12 U7 2.387533 1_556
F12 Na4 2.671627 1_656
F13 U1 2.251473 1_545
F13 U8 2.387533 1_556
F13 Na4 2.671618 1_556
F14 U2 2.251465 1_555
F14 U6 2.387540 1_556
F14 Na4 2.671619 1_666
F15 U3 2.251473 1_655
F15 U11 2.387533 1_555
F15 Na5 2.671618 1_665
F16 U4 2.251468 1_545
F16 U9 2.387533 1_555
F16 Na5 2.671627 1_655
F17 U5 2.251465 1_555
F17 U10 2.387540 1_555
F17 Na5 2.671619 1_555
F18 U6 2.251468 1_455
F18 U1 2.387533 1_554
F18 Na4 2.671627 1_565
F19 U7 2.251473 1_565
F19 U2 2.387533 1_554
F19 Na4 2.671618 1_665
F20 U8 2.251465 1_555
F20 U0 2.387540 1_554
F20 Na4 2.671619 1_555
F21 U9 2.251473 1_455
F21 U5 2.387533 1_555
F21 Na5 2.671618 1_555
F22 U10 2.251468 1_565
F22 U3 2.387533 1_555
F22 Na5 2.671627 1_565
F23 U11 2.251465 1_555
F23 U4 2.387540 1_555
F23 Na5 2.671619 1_665
F24 U0 2.293154 1_554
F24 Na2 2.368025 1_555
F24 U6 2.434313 1_455
F25 U1 2.293159 1_554
F25 Na2 2.368023 1_555
F25 U7 2.434306 1_565
F26 U2 2.293155 1_554
F26 Na2 2.368037 1_555
F26 U8 2.434304 1_555
F27 U3 2.293159 1_555
F27 Na3 2.368023 1_555
F27 U9 2.434306 1_455
F28 U4 2.293154 1_555
F28 Na3 2.368025 1_555
F28 U10 2.434313 1_565
F29 U5 2.293155 1_555
F29 Na3 2.368037 1_555
F29 U11 2.434304 1_555
F30 U6 2.293154 1_556
F30 Na0 2.368025 1_555
F30 U0 2.434313 1_655
F31 U7 2.293159 1_556
F31 Na0 2.368023 1_555
F31 U1 2.434306 1_545
F32 U8 2.293155 1_556
F32 Na0 2.368037 1_555
F32 U2 2.434304 1_555
F33 U9 2.293159 1_555
F33 Na1 2.368023 1_555
F33 U3 2.434306 1_655
F34 U10 2.293154 1_555
F34 Na1 2.368025 1_555
F34 U4 2.434313 1_545
F35 U11 2.293155 1_555
F35 Na1 2.368037 1_555
F35 U5 2.434304 1_555
F36 Ga0 1.914166 1_665
F36 U2 2.356432 1_555
F36 Na4 2.621785 1_666
F37 Ga0 1.914166 1_555
F37 U0 2.356432 1_555
F37 Na4 2.621785 1_556
F38 Ga0 1.914166 1_565
F38 U1 2.356432 1_555
F38 Na4 2.621785 1_566
F39 Ga1 1.914166 1_665
F39 U4 2.356432 1_555
F39 Na5 2.621785 1_665
F40 Ga1 1.914166 1_555
F40 U5 2.356432 1_555
F40 Na5 2.621785 1_555
F41 Ga1 1.914166 1_565
F41 U3 2.356432 1_555
F41 Na5 2.621785 1_565
F42 Ga1 1.914166 1_555
F42 U8 2.356432 1_555
F42 Na4 2.621785 1_555
F43 Ga1 1.914166 1_665
F43 U6 2.356432 1_555
F43 Na4 2.621785 1_665
F44 Ga1 1.914166 1_655
F44 U7 2.356432 1_555
F44 Na4 2.621785 1_655
F45 Ga0 1.914166 1_555
F45 U10 2.356432 1_555
F45 Na5 2.621785 1_555
F46 Ga0 1.914166 1_665
F46 U11 2.356432 1_555
F46 Na5 2.621785 1_665
F47 Ga0 1.914166 1_655
F47 U9 2.356432 1_555
F47 Na5 2.621785 1_655
F48 U2 2.291726 1_555
F48 U0 2.331643 1_555
F49 U0 2.291725 1_555
F49 U1 2.331642 1_555
F50 U1 2.291734 1_555
F50 U2 2.331634 1_555
F51 U4 2.291725 1_555
F51 U3 2.331642 1_555
F52 U5 2.291726 1_555
F52 U4 2.331643 1_555
F53 U3 2.291734 1_555
F53 U5 2.331634 1_555
F54 U8 2.291726 1_555
F54 U6 2.331643 1_555
F55 U6 2.291725 1_555
F55 U7 2.331642 1_555
F56 U7 2.291734 1_555
F56 U8 2.331634 1_555
F57 U10 2.291725 1_555
F57 U9 2.331642 1_555
F58 U11 2.291726 1_555
F58 U10 2.331643 1_555
F59 U9 2.291734 1_555
F59 U11 2.331634 1_555
